0:0
     RDKit          3D

 37 38  0  0  0  0  0  0  0  0999 V2000
   -2.9390   21.1120  -29.2180 C   0  0  0  0  0  0  0  0  0  0  0  0
   -2.7700   22.6350  -29.1070 C   0  0  0  0  0  0  0  0  0  0  0  0
   -3.9080   23.2010  -28.2350 C   0  0  0  0  0  0  0  0  0  0  0  0
   -1.3980   22.9380  -28.4770 C   0  0  0  0  0  0  0  0  0  0  0  0
   -2.8420   23.1650  -30.4380 O   0  0  0  0  0  0  0  0  0  0  0  0
   -3.6860   22.7200  -31.4670 C   0  0  0  0  0  0  0  0  0  0  0  0
   -3.2160   22.1680  -32.4990 O   0  0  0  0  0  0  0  0  0  0  0  0
   -5.1070   22.8740  -31.3280 N   0  0  0  0  0  0  0  0  0  0  0  0
   -5.8000   23.9950  -30.9840 C   0  0  0  0  0  0  0  0  0  0  0  0
   -5.2170   25.2710  -30.5220 C   0  0  0  0  0  0  0  0  0  0  0  0
   -3.8770   25.6280  -30.8530 N   0  0  0  0  0  0  0  0  0  0  0  0
   -5.8950   26.0370  -29.7870 O   0  0  0  0  0  0  0  0  0  0  0  0
   -7.1730   23.7560  -31.0450 C   0  0  0  0  0  0  0  0  0  0  0  0
   -7.2980   22.4400  -31.4290 C   0  0  0  0  0  0  0  0  0  0  0  0
   -8.4400   21.6830  -31.6660 C   0  0  0  0  0  0  0  0  0  0  0  0
   -8.2720   20.3540  -32.0900 C   0  0  0  0  0  0  0  0  0  0  0  0
   -6.9750   19.8040  -32.2610 C   0  0  0  0  0  0  0  0  0  0  0  0
   -6.8080   18.3970  -32.7760 C   0  0  0  0  0  0  0  0  0  0  0  0
   -7.9860   17.6830  -32.6380 F   0  0  0  0  0  0  0  0  0  0  0  0
   -6.4630   18.4060  -34.1160 F   0  0  0  0  0  0  0  0  0  0  0  0
   -5.8110   17.7650  -32.0580 F   0  0  0  0  0  0  0  0  0  0  0  0
   -5.8390   20.6170  -32.0340 C   0  0  0  0  0  0  0  0  0  0  0  0
   -6.0370   21.9300  -31.5930 C   0  0  0  0  0  0  0  0  0  0  0  0
   -2.9876   20.6741  -28.2101 H   0  0  0  0  0  0  0  0  0  0  0  0
   -3.8679   20.8848  -29.7617 H   0  0  0  0  0  0  0  0  0  0  0  0
   -2.0825   20.6867  -29.7617 H   0  0  0  0  0  0  0  0  0  0  0  0
   -3.6534   23.0744  -27.1724 H   0  0  0  0  0  0  0  0  0  0  0  0
   -4.0414   24.2705  -28.4551 H   0  0  0  0  0  0  0  0  0  0  0  0
   -4.8413   22.6621  -28.4551 H   0  0  0  0  0  0  0  0  0  0  0  0
   -1.4856   22.9186  -27.3807 H   0  0  0  0  0  0  0  0  0  0  0  0
   -0.6704   22.1789  -28.8001 H   0  0  0  0  0  0  0  0  0  0  0  0
   -1.0578   23.9329  -28.8001 H   0  0  0  0  0  0  0  0  0  0  0  0
   -3.0740   25.3000  -30.2710 H   0  0  0  0  0  0  0  0  0  0  0  0
   -7.9838   24.4681  -30.8315 H   0  0  0  0  0  0  0  0  0  0  0  0
   -9.4435   22.1112  -31.5259 H   0  0  0  0  0  0  0  0  0  0  0  0
   -9.1567   19.7322  -32.2919 H   0  0  0  0  0  0  0  0  0  0  0  0
   -4.8244   20.2259  -32.2003 H   0  0  0  0  0  0  0  0  0  0  0  0
  1  2  1  0
  2  3  1  0
  2  4  1  0
  2  5  1  0
  5  6  1  0
  6  7  2  0
  6  8  1  0
  8  9  1  0
  9 10  1  0
 10 11  1  0
 10 12  2  0
  9 13  2  0
 13 14  1  0
 14 15  2  0
 15 16  1  0
 16 17  2  0
 17 18  1  0
 18 19  1  0
 18 20  1  0
 18 21  1  0
 17 22  1  0
 22 23  2  0
 23  8  1  0
 23 14  1  0
  1 24  1  0
  1 25  1  0
  1 26  1  0
  3 27  1  0
  3 28  1  0
  3 29  1  0
  4 30  1  0
  4 31  1  0
  4 32  1  0
 11 33  1  0
 13 34  1  0
 15 35  1  0
 16 36  1  0
 22 37  1  0
M  CHG  1  11  -1
M  END
>  <UniqueID>  (1) 
1

>  <SMILES>  (1) 
CC(C)(C)OC(=O)n1c(C([NH-])=O)cc2ccc(C(F)(F)F)cc21

>  <Energy>  (1) 
71.83183271351184

>  <Genealogy>  (1) 
CC(C)(C)OC(=O)n1c(C([NH-])=O)cc2ccc(C(F)(F)F)cc21 (protonated)
CC(C)(C)OC(=O)n1c(C([NH-])=O)cc2ccc(C(F)(F)F)cc21 (3D coordinates assigned)
CC(C)(C)OC(=O)n1c(C([NH-])=O)cc2ccc(C(F)(F)F)cc21 (optimized conformer: 71.83183271351184 kcal/mol)

>  <smiles>  (1) 
CC(C)(C)OC(=O)n1c(C(N)=O)cc2ccc(C(F)(F)F)cc21

>  <score_type>  (1) 
oracle

>  <origin>  (1) 
adg

>  <m_score__min__energy>  (1) 
-9.9199999999999999

>  <m_primary>  (1) 
energy

$$$$
1:0
     RDKit          3D

 41 44  0  0  0  0  0  0  0  0999 V2000
    0.7790   26.3780  -27.1560 N   0  0  0  0  0  0  0  0  0  0  0  0
    0.3380   25.1440  -26.5890 C   0  0  0  0  0  0  0  0  0  0  0  0
    0.3820   24.9880  -25.3390 O   0  0  0  0  0  0  0  0  0  0  0  0
   -0.1050   24.0240  -27.4430 C   0  0  0  0  0  0  0  0  0  0  0  0
    0.3200   22.7110  -27.2630 C   0  0  0  0  0  0  0  0  0  0  0  0
   -0.2580   22.0000  -28.2900 C   0  0  0  0  0  0  0  0  0  0  0  0
   -0.1850   20.6430  -28.5870 C   0  0  0  0  0  0  0  0  0  0  0  0
   -0.9140   20.1690  -29.6890 C   0  0  0  0  0  0  0  0  0  0  0  0
   -1.7080   21.0500  -30.4680 C   0  0  0  0  0  0  0  0  0  0  0  0
   -2.4850   20.5350  -31.6250 C   0  0  0  0  0  0  0  0  0  0  0  0
   -1.8500   20.2400  -32.8430 C   0  0  0  0  0  0  0  0  0  0  0  0
   -2.5690   19.7640  -33.8920 N   0  0  0  0  0  0  0  0  0  0  0  0
   -3.9080   19.5580  -33.8120 C   0  0  0  0  0  0  0  0  0  0  0  0
   -4.6000   19.8350  -32.6220 C   0  0  0  0  0  0  0  0  0  0  0  0
   -6.0660   19.6180  -32.5250 C   0  0  0  0  0  0  0  0  0  0  0  0
   -6.6100   18.3310  -32.6930 C   0  0  0  0  0  0  0  0  0  0  0  0
   -7.9900   18.1280  -32.6000 C   0  0  0  0  0  0  0  0  0  0  0  0
   -8.8420   19.2030  -32.3390 C   0  0  0  0  0  0  0  0  0  0  0  0
   -8.3150   20.4870  -32.1710 C   0  0  0  0  0  0  0  0  0  0  0  0
   -9.3850   21.8390  -31.8500 Cl  0  0  0  0  0  0  0  0  0  0  0  0
   -6.9340   20.6950  -32.2640 C   0  0  0  0  0  0  0  0  0  0  0  0
   -3.8700   20.3270  -31.5270 C   0  0  0  0  0  0  0  0  0  0  0  0
   -1.7580   22.4240  -30.1310 C   0  0  0  0  0  0  0  0  0  0  0  0
   -1.0030   22.8730  -29.0400 C   0  0  0  0  0  0  0  0  0  0  0  0
   -0.9220   24.1240  -28.5300 N   0  0  0  0  0  0  0  0  0  0  0  0
   -1.6500   25.2840  -28.9670 C   0  0  0  0  0  0  0  0  0  0  0  0
   -1.1150   26.4230  -28.9380 O   0  0  0  0  0  0  0  0  0  0  0  0
   -2.9530   25.1590  -29.4350 O   0  0  0  0  0  0  0  0  0  0  0  0
    1.0540   27.1710  -26.5350 H   0  0  0  0  0  0  0  0  0  0  0  0
    0.9120   26.4810  -28.1860 H   0  0  0  0  0  0  0  0  0  0  0  0
    0.9770   22.3244  -26.4700 H   0  0  0  0  0  0  0  0  0  0  0  0
    0.4258   19.9616  -27.9765 H   0  0  0  0  0  0  0  0  0  0  0  0
   -0.8692   19.1018  -29.9518 H   0  0  0  0  0  0  0  0  0  0  0  0
   -0.7660   20.3952  -32.9473 H   0  0  0  0  0  0  0  0  0  0  0  0
   -4.4546   19.1716  -34.6849 H   0  0  0  0  0  0  0  0  0  0  0  0
   -5.9450   17.4793  -32.8988 H   0  0  0  0  0  0  0  0  0  0  0  0
   -8.4059   17.1184  -32.7328 H   0  0  0  0  0  0  0  0  0  0  0  0
   -9.9273   19.0397  -32.2656 H   0  0  0  0  0  0  0  0  0  0  0  0
   -6.5241   21.7072  -32.1322 H   0  0  0  0  0  0  0  0  0  0  0  0
   -4.3888   20.5515  -30.5834 H   0  0  0  0  0  0  0  0  0  0  0  0
   -2.3760   23.1235  -30.7130 H   0  0  0  0  0  0  0  0  0  0  0  0
  1  2  1  0
  2  3  2  0
  2  4  1  0
  4  5  2  0
  5  6  1  0
  6  7  2  0
  7  8  1  0
  8  9  2  0
  9 10  1  0
 10 11  2  0
 11 12  1  0
 12 13  2  0
 13 14  1  0
 14 15  1  0
 15 16  2  0
 16 17  1  0
 17 18  2  0
 18 19  1  0
 19 20  1  0
 19 21  2  0
 14 22  2  0
  9 23  1  0
 23 24  2  0
 24 25  1  0
 25 26  1  0
 26 27  2  0
 26 28  1  0
 25  4  1  0
 24  6  1  0
 22 10  1  0
 21 15  1  0
  1 29  1  0
  1 30  1  0
  5 31  1  0
  7 32  1  0
  8 33  1  0
 11 34  1  0
 13 35  1  0
 16 36  1  0
 17 37  1  0
 18 38  1  0
 21 39  1  0
 22 40  1  0
 23 41  1  0
M  CHG  1  28  -1
M  END
>  <UniqueID>  (2) 
2

>  <SMILES>  (2) 
NC(=O)c1cc2ccc(-c3cncc(-c4cccc(Cl)c4)c3)cc2n1C(=O)[O-]

>  <Energy>  (2) 
97.23198446102583

>  <Genealogy>  (2) 
NC(=O)c1cc2ccc(-c3cncc(-c4cccc(Cl)c4)c3)cc2n1C(=O)[O-] (protonated)
NC(=O)c1cc2ccc(-c3cncc(-c4cccc(Cl)c4)c3)cc2n1C(=O)[O-] (3D coordinates assigned)
NC(=O)c1cc2ccc(-c3cncc(-c4cccc(Cl)c4)c3)cc2n1C(=O)[O-] (optimized conformer: 97.23198446102583 kcal/mol)

>  <smiles>  (2) 
NC(=O)c1cc2ccc(-c3cncc(-c4cccc(Cl)c4)c3)cc2n1C(=O)O

>  <score_type>  (2) 
oracle

>  <origin>  (2) 
adg

>  <m_score__min__energy>  (2) 
-10.99

>  <m_primary>  (2) 
energy

$$$$
2:0
     RDKit          3D

 42 43  0  0  0  0  0  0  0  0999 V2000
   -5.7340   18.1680  -34.9460 C   0  0  0  0  0  0  0  0  0  0  0  0
   -6.1080   18.0180  -33.8500 N   0  0  0  0  0  0  0  0  0  0  0  0
   -6.5790   17.8360  -32.5250 C   0  0  0  0  0  0  0  0  0  0  0  0
   -7.9830   18.4180  -32.3960 C   0  0  0  0  0  0  0  0  0  0  0  0
   -7.9030   19.8740  -32.0750 C   0  0  0  0  0  0  0  0  0  0  0  0
   -9.0290   20.6510  -32.2020 C   0  0  0  0  0  0  0  0  0  0  0  0
   -8.9620   21.9920  -31.9070 C   0  0  0  0  0  0  0  0  0  0  0  0
   -7.7630   22.5400  -31.4880 C   0  0  0  0  0  0  0  0  0  0  0  0
   -7.4210   23.8150  -31.1360 C   0  0  0  0  0  0  0  0  0  0  0  0
   -6.0640   23.8680  -30.7790 C   0  0  0  0  0  0  0  0  0  0  0  0
   -5.4170   25.0790  -30.3640 C   0  0  0  0  0  0  0  0  0  0  0  0
   -5.9960   25.8550  -29.2880 N   0  0  0  0  0  0  0  0  0  0  0  0
   -4.3660   25.5700  -30.8410 O   0  0  0  0  0  0  0  0  0  0  0  0
   -5.6070   22.6140  -30.9230 N   0  0  0  0  0  0  0  0  0  0  0  0
   -4.2850   22.1700  -30.6780 C   0  0  0  0  0  0  0  0  0  0  0  0
   -3.4210   22.7960  -30.0220 O   0  0  0  0  0  0  0  0  0  0  0  0
   -3.8490   20.9320  -31.1850 O   0  0  0  0  0  0  0  0  0  0  0  0
   -3.2210   20.9000  -32.4540 C   0  0  0  0  0  0  0  0  0  0  0  0
   -1.7770   21.2910  -32.2740 C   0  0  0  0  0  0  0  0  0  0  0  0
   -3.2740   19.5200  -33.0670 C   0  0  0  0  0  0  0  0  0  0  0  0
   -3.8510   21.8650  -33.4230 C   0  0  0  0  0  0  0  0  0  0  0  0
   -6.6060   21.7940  -31.3470 C   0  0  0  0  0  0  0  0  0  0  0  0
   -6.7060   20.4530  -31.6500 C   0  0  0  0  0  0  0  0  0  0  0  0
   -6.6052   16.7617  -32.2902 H   0  0  0  0  0  0  0  0  0  0  0  0
   -5.9049   18.3501  -31.8241 H   0  0  0  0  0  0  0  0  0  0  0  0
   -8.5222   18.2830  -33.3452 H   0  0  0  0  0  0  0  0  0  0  0  0
   -8.5172   17.8980  -31.5872 H   0  0  0  0  0  0  0  0  0  0  0  0
   -9.9764   20.2037  -32.5370 H   0  0  0  0  0  0  0  0  0  0  0  0
   -9.8562   22.6253  -32.0035 H   0  0  0  0  0  0  0  0  0  0  0  0
   -8.1080   24.6741  -31.1327 H   0  0  0  0  0  0  0  0  0  0  0  0
   -6.6770   26.5840  -29.6020 H   0  0  0  0  0  0  0  0  0  0  0  0
   -5.7400   25.6820  -28.2910 H   0  0  0  0  0  0  0  0  0  0  0  0
   -1.5452   21.3538  -31.2005 H   0  0  0  0  0  0  0  0  0  0  0  0
   -1.1311   20.5354  -32.7450 H   0  0  0  0  0  0  0  0  0  0  0  0
   -1.6006   22.2693  -32.7450 H   0  0  0  0  0  0  0  0  0  0  0  0
   -3.3030   18.7647  -32.2679 H   0  0  0  0  0  0  0  0  0  0  0  0
   -4.1763   19.4298  -33.6897 H   0  0  0  0  0  0  0  0  0  0  0  0
   -2.3813   19.3609  -33.6897 H   0  0  0  0  0  0  0  0  0  0  0  0
   -4.3693   22.6589  -32.8652 H   0  0  0  0  0  0  0  0  0  0  0  0
   -3.0699   22.3115  -34.0559 H   0  0  0  0  0  0  0  0  0  0  0  0
   -4.5741   21.3296  -34.0559 H   0  0  0  0  0  0  0  0  0  0  0  0
   -5.8129   19.8181  -31.5537 H   0  0  0  0  0  0  0  0  0  0  0  0
  1  2  3  0
  2  3  1  0
  3  4  1  0
  4  5  1  0
  5  6  2  0
  6  7  1  0
  7  8  2  0
  8  9  1  0
  9 10  2  0
 10 11  1  0
 11 12  1  0
 11 13  2  0
 10 14  1  0
 14 15  1  0
 15 16  2  0
 15 17  1  0
 17 18  1  0
 18 19  1  0
 18 20  1  0
 18 21  1  0
 14 22  1  0
 22 23  2  0
 23  5  1  0
 22  8  1  0
  3 24  1  0
  3 25  1  0
  4 26  1  0
  4 27  1  0
  6 28  1  0
  7 29  1  0
  9 30  1  0
 12 31  1  0
 12 32  1  0
 19 33  1  0
 19 34  1  0
 19 35  1  0
 20 36  1  0
 20 37  1  0
 20 38  1  0
 21 39  1  0
 21 40  1  0
 21 41  1  0
 23 42  1  0
M  CHG  2   1  -1   2   1
M  END
>  <smiles>  (3) 
[C-]#[N+]CCc1ccc2cc(C(N)=O)n(C(=O)OC(C)(C)C)c2c1

>  <score_type>  (3) 
oracle

>  <origin>  (3) 
adg

>  <m_score__min__energy>  (3) 
-8.6300000000000008

>  <m_primary>  (3) 
energy

$$$$
3:0
     RDKit          3D

 46 47  0  0  0  0  0  0  0  0999 V2000
   -1.6010   20.4980  -33.0590 C   0  0  0  0  0  0  0  0  0  0  0  0
   -2.9420   20.9550  -32.4530 C   0  0  0  0  0  0  0  0  0  0  0  0
   -3.6470   21.8860  -33.4530 C   0  0  0  0  0  0  0  0  0  0  0  0
   -2.7100   21.7240  -31.1380 C   0  0  0  0  0  0  0  0  0  0  0  0
   -3.8070   19.8320  -32.2390 O   0  0  0  0  0  0  0  0  0  0  0  0
   -4.5330   19.1390  -33.2220 C   0  0  0  0  0  0  0  0  0  0  0  0
   -3.9640   18.7090  -34.2600 O   0  0  0  0  0  0  0  0  0  0  0  0
   -5.9410   18.9240  -33.0370 N   0  0  0  0  0  0  0  0  0  0  0  0
   -6.6060   17.7360  -33.0900 C   0  0  0  0  0  0  0  0  0  0  0  0
   -6.0360   16.4450  -33.5240 C   0  0  0  0  0  0  0  0  0  0  0  0
   -4.6450   16.1630  -33.3710 N   0  0  0  0  0  0  0  0  0  0  0  0
   -6.7800   15.6000  -34.0890 O   0  0  0  0  0  0  0  0  0  0  0  0
   -7.9380   17.8990  -32.7170 C   0  0  0  0  0  0  0  0  0  0  0  0
   -8.0750   19.2400  -32.4420 C   0  0  0  0  0  0  0  0  0  0  0  0
   -9.1880   19.9520  -32.0040 C   0  0  0  0  0  0  0  0  0  0  0  0
   -9.0340   21.3260  -31.7530 C   0  0  0  0  0  0  0  0  0  0  0  0
   -7.7790   21.9570  -31.9390 C   0  0  0  0  0  0  0  0  0  0  0  0
   -7.6190   23.4200  -31.6180 C   0  0  0  0  0  0  0  0  0  0  0  0
   -7.0560   23.6420  -30.2080 C   0  0  0  0  0  0  0  0  0  0  0  0
   -6.2330   24.9340  -30.1030 C   0  0  0  0  0  0  0  0  0  0  0  0
   -4.9220   24.7750  -30.8030 C   0  0  0  0  0  0  0  0  0  0  0  0
   -4.7430   23.8190  -31.6040 O   0  0  0  0  0  0  0  0  0  0  0  0
   -3.8780   25.6520  -30.5350 O   0  0  0  0  0  0  0  0  0  0  0  0
   -6.6710   21.2010  -32.3790 C   0  0  0  0  0  0  0  0  0  0  0  0
   -6.8570   19.8380  -32.6410 C   0  0  0  0  0  0  0  0  0  0  0  0
   -0.8958   20.2577  -32.2497 H   0  0  0  0  0  0  0  0  0  0  0  0
   -1.7646   19.6049  -33.6800 H   0  0  0  0  0  0  0  0  0  0  0  0
   -1.1852   21.3052  -33.6800 H   0  0  0  0  0  0  0  0  0  0  0  0
   -4.2224   22.6458  -32.9037 H   0  0  0  0  0  0  0  0  0  0  0  0
   -2.8955   22.3814  -34.0854 H   0  0  0  0  0  0  0  0  0  0  0  0
   -4.3275   21.2969  -34.0854 H   0  0  0  0  0  0  0  0  0  0  0  0
   -2.9104   21.0597  -30.2845 H   0  0  0  0  0  0  0  0  0  0  0  0
   -1.6671   22.0712  -31.0954 H   0  0  0  0  0  0  0  0  0  0  0  0
   -3.3868   22.5901  -31.0954 H   0  0  0  0  0  0  0  0  0  0  0  0
   -3.9750   16.9030  -33.0660 H   0  0  0  0  0  0  0  0  0  0  0  0
   -4.2660   15.2290  -33.6460 H   0  0  0  0  0  0  0  0  0  0  0  0
   -8.7142   17.1220  -32.6555 H   0  0  0  0  0  0  0  0  0  0  0  0
  -10.1582   19.4544  -31.8588 H   0  0  0  0  0  0  0  0  0  0  0  0
   -9.8955   21.9171  -31.4090 H   0  0  0  0  0  0  0  0  0  0  0  0
   -6.9322   23.8708  -32.3495 H   0  0  0  0  0  0  0  0  0  0  0  0
   -8.6133   23.8882  -31.6639 H   0  0  0  0  0  0  0  0  0  0  0  0
   -7.8941   23.6984  -29.4978 H   0  0  0  0  0  0  0  0  0  0  0  0
   -6.3880   22.7991  -29.9771 H   0  0  0  0  0  0  0  0  0  0  0  0
   -6.7935   25.7594  -30.5662 H   0  0  0  0  0  0  0  0  0  0  0  0
   -6.0464   25.1529  -29.0413 H   0  0  0  0  0  0  0  0  0  0  0  0
   -5.6856   21.6711  -32.5128 H   0  0  0  0  0  0  0  0  0  0  0  0
  1  2  1  0
  2  3  1  0
  2  4  1  0
  2  5  1  0
  5  6  1  0
  6  7  2  0
  6  8  1  0
  8  9  1  0
  9 10  1  0
 10 11  1  0
 10 12  2  0
  9 13  2  0
 13 14  1  0
 14 15  2  0
 15 16  1  0
 16 17  2  0
 17 18  1  0
 18 19  1  0
 19 20  1  0
 20 21  1  0
 21 22  2  0
 21 23  1  0
 17 24  1  0
 24 25  2  0
 25  8  1  0
 25 14  1  0
  1 26  1  0
  1 27  1  0
  1 28  1  0
  3 29  1  0
  3 30  1  0
  3 31  1  0
  4 32  1  0
  4 33  1  0
  4 34  1  0
 11 35  1  0
 11 36  1  0
 13 37  1  0
 15 38  1  0
 16 39  1  0
 18 40  1  0
 18 41  1  0
 19 42  1  0
 19 43  1  0
 20 44  1  0
 20 45  1  0
 24 46  1  0
M  CHG  1  23  -1
M  END
>  <UniqueID>  (4) 
3

>  <SMILES>  (4) 
CC(C)(C)OC(=O)n1c(C(N)=O)cc2ccc(CCCC(=O)[O-])cc21

>  <Energy>  (4) 
73.96432130819669

>  <Genealogy>  (4) 
CC(C)(C)OC(=O)n1c(C(N)=O)cc2ccc(CCCC(=O)[O-])cc21 (protonated)
CC(C)(C)OC(=O)n1c(C(N)=O)cc2ccc(CCCC(=O)[O-])cc21 (3D coordinates assigned)
CC(C)(C)OC(=O)n1c(C(N)=O)cc2ccc(CCCC(=O)[O-])cc21 (optimized conformer: 73.96432130819669 kcal/mol)

>  <smiles>  (4) 
CC(C)(C)OC(=O)n1c(C(N)=O)cc2ccc(CCCC(=O)O)cc21

>  <score_type>  (4) 
oracle

>  <origin>  (4) 
adg

>  <m_score__min__energy>  (4) 
-10.56

>  <m_primary>  (4) 
energy

$$$$
4:0
     RDKit          3D

 44 46  0  0  0  0  0  0  0  0999 V2000
   -3.1140   19.0370  -26.5550 C   0  0  0  0  0  0  0  0  0  0  0  0
   -2.0850   19.8990  -27.3120 C   0  0  0  0  0  0  0  0  0  0  0  0
   -1.5450   21.0210  -26.4050 C   0  0  0  0  0  0  0  0  0  0  0  0
   -0.9140   19.0040  -27.7470 C   0  0  0  0  0  0  0  0  0  0  0  0
   -2.6620   20.4480  -28.5050 O   0  0  0  0  0  0  0  0  0  0  0  0
   -2.2500   21.6130  -29.1700 C   0  0  0  0  0  0  0  0  0  0  0  0
   -1.0250   21.8800  -29.3090 O   0  0  0  0  0  0  0  0  0  0  0  0
   -3.2370   22.4970  -29.7200 N   0  0  0  0  0  0  0  0  0  0  0  0
   -3.4850   23.7900  -29.3670 C   0  0  0  0  0  0  0  0  0  0  0  0
   -2.6620   24.6150  -28.4590 C   0  0  0  0  0  0  0  0  0  0  0  0
   -1.8190   25.6450  -28.9690 N   0  0  0  0  0  0  0  0  0  0  0  0
   -2.7420   24.4430  -27.2140 O   0  0  0  0  0  0  0  0  0  0  0  0
   -4.5990   24.2790  -30.0480 C   0  0  0  0  0  0  0  0  0  0  0  0
   -5.0240   23.2400  -30.8430 C   0  0  0  0  0  0  0  0  0  0  0  0
   -6.0990   23.1700  -31.7240 C   0  0  0  0  0  0  0  0  0  0  0  0
   -6.3230   21.9560  -32.3950 C   0  0  0  0  0  0  0  0  0  0  0  0
   -5.4860   20.8370  -32.1600 C   0  0  0  0  0  0  0  0  0  0  0  0
   -5.7230   19.5650  -32.8750 C   0  0  0  0  0  0  0  0  0  0  0  0
   -4.7040   19.0370  -33.6870 C   0  0  0  0  0  0  0  0  0  0  0  0
   -4.9000   17.8440  -34.3870 C   0  0  0  0  0  0  0  0  0  0  0  0
   -3.9130   17.3490  -35.1730 F   0  0  0  0  0  0  0  0  0  0  0  0
   -6.1130   17.1620  -34.2780 C   0  0  0  0  0  0  0  0  0  0  0  0
   -7.1300   17.6670  -33.4650 C   0  0  0  0  0  0  0  0  0  0  0  0
   -6.9440   18.8620  -32.7590 C   0  0  0  0  0  0  0  0  0  0  0  0
   -8.3550   19.4490  -31.5970 Br  0  0  0  0  0  0  0  0  0  0  0  0
   -4.3980   20.9480  -31.2660 C   0  0  0  0  0  0  0  0  0  0  0  0
   -4.1880   22.1760  -30.6270 C   0  0  0  0  0  0  0  0  0  0  0  0
   -2.9683   19.1590  -25.4715 H   0  0  0  0  0  0  0  0  0  0  0  0
   -4.1308   19.3568  -26.8266 H   0  0  0  0  0  0  0  0  0  0  0  0
   -2.9773   17.9798  -26.8266 H   0  0  0  0  0  0  0  0  0  0  0  0
   -1.6813   20.7379  -25.3508 H   0  0  0  0  0  0  0  0  0  0  0  0
   -0.4748   21.1737  -26.6083 H   0  0  0  0  0  0  0  0  0  0  0  0
   -2.0934   21.9527  -26.6083 H   0  0  0  0  0  0  0  0  0  0  0  0
   -0.4014   18.6122  -26.8561 H   0  0  0  0  0  0  0  0  0  0  0  0
   -1.2966   18.1660  -28.3481 H   0  0  0  0  0  0  0  0  0  0  0  0
   -0.2058   19.5932  -28.3481 H   0  0  0  0  0  0  0  0  0  0  0  0
   -1.5690   25.6840  -29.9810 H   0  0  0  0  0  0  0  0  0  0  0  0
   -5.0434   25.2820  -29.9668 H   0  0  0  0  0  0  0  0  0  0  0  0
   -6.7533   24.0385  -31.8900 H   0  0  0  0  0  0  0  0  0  0  0  0
   -7.1556   21.8735  -33.1091 H   0  0  0  0  0  0  0  0  0  0  0  0
   -3.7442   19.5677  -33.7719 H   0  0  0  0  0  0  0  0  0  0  0  0
   -6.2681   16.2253  -34.8334 H   0  0  0  0  0  0  0  0  0  0  0  0
   -8.0823   17.1232  -33.3787 H   0  0  0  0  0  0  0  0  0  0  0  0
   -3.7332   20.0922  -31.0768 H   0  0  0  0  0  0  0  0  0  0  0  0
  1  2  1  0
  2  3  1  0
  2  4  1  0
  2  5  1  0
  5  6  1  0
  6  7  2  0
  6  8  1  0
  8  9  1  0
  9 10  1  0
 10 11  1  0
 10 12  2  0
  9 13  2  0
 13 14  1  0
 14 15  2  0
 15 16  1  0
 16 17  2  0
 17 18  1  0
 18 19  2  0
 19 20  1  0
 20 21  1  0
 20 22  2  0
 22 23  1  0
 23 24  2  0
 24 25  1  0
 17 26  1  0
 26 27  2  0
 27  8  1  0
 27 14  1  0
 24 18  1  0
  1 28  1  0
  1 29  1  0
  1 30  1  0
  3 31  1  0
  3 32  1  0
  3 33  1  0
  4 34  1  0
  4 35  1  0
  4 36  1  0
 11 37  1  0
 13 38  1  0
 15 39  1  0
 16 40  1  0
 19 41  1  0
 22 42  1  0
 23 43  1  0
 26 44  1  0
M  CHG  1  11  -1
M  END
>  <UniqueID>  (5) 
4

>  <SMILES>  (5) 
CC(C)(C)OC(=O)n1c(C([NH-])=O)cc2ccc(-c3cc(F)ccc3Br)cc21

>  <Energy>  (5) 
88.22449632719831

>  <Genealogy>  (5) 
CC(C)(C)OC(=O)n1c(C([NH-])=O)cc2ccc(-c3cc(F)ccc3Br)cc21 (protonated)
CC(C)(C)OC(=O)n1c(C([NH-])=O)cc2ccc(-c3cc(F)ccc3Br)cc21 (3D coordinates assigned)
CC(C)(C)OC(=O)n1c(C([NH-])=O)cc2ccc(-c3cc(F)ccc3Br)cc21 (optimized conformer: 88.22449632719831 kcal/mol)

>  <smiles>  (5) 
CC(C)(C)OC(=O)n1c(C(N)=O)cc2ccc(-c3cc(F)ccc3Br)cc21

>  <score_type>  (5) 
oracle

>  <origin>  (5) 
adg

>  <m_score__min__energy>  (5) 
-11.359999999999999

>  <m_primary>  (5) 
energy

$$$$
5:0
     RDKit          3D

 65 68  0  0  0  0  0  0  0  0999 V2000
    0.9730   24.0550  -27.5230 C   0  0  0  0  0  0  0  0  0  0  0  0
    0.4730   24.0780  -28.8550 O   0  0  0  0  0  0  0  0  0  0  0  0
   -0.8390   23.7850  -29.2670 C   0  0  0  0  0  0  0  0  0  0  0  0
   -1.8570   24.7700  -29.3390 C   0  0  0  0  0  0  0  0  0  0  0  0
   -1.6280   26.0890  -28.9650 O   0  0  0  0  0  0  0  0  0  0  0  0
   -3.1330   24.4350  -29.7990 C   0  0  0  0  0  0  0  0  0  0  0  0
   -3.4310   23.1280  -30.2020 C   0  0  0  0  0  0  0  0  0  0  0  0
   -4.7950   22.7740  -30.6720 C   0  0  0  0  0  0  0  0  0  0  0  0
   -5.7600   23.7870  -30.9070 C   0  0  0  0  0  0  0  0  0  0  0  0
   -7.0520   23.4610  -31.3540 C   0  0  0  0  0  0  0  0  0  0  0  0
   -7.3540   22.1170  -31.5480 C   0  0  0  0  0  0  0  0  0  0  0  0
   -8.5120   21.5270  -32.0030 C   0  0  0  0  0  0  0  0  0  0  0  0
   -8.2490   20.1600  -32.0120 C   0  0  0  0  0  0  0  0  0  0  0  0
   -9.2520   19.1420  -32.3820 C   0  0  0  0  0  0  0  0  0  0  0  0
   -9.4480   17.9720  -31.5860 N   0  0  0  0  0  0  0  0  0  0  0  0
   -9.9830   19.3300  -33.3910 O   0  0  0  0  0  0  0  0  0  0  0  0
   -6.9770   19.9120  -31.5930 N   0  0  0  0  0  0  0  0  0  0  0  0
   -6.2900   18.6510  -31.5760 C   0  0  0  0  0  0  0  0  0  0  0  0
   -6.8500   17.6420  -31.0700 O   0  0  0  0  0  0  0  0  0  0  0  0
   -5.0040   18.5580  -32.1320 O   0  0  0  0  0  0  0  0  0  0  0  0
   -4.6460   18.8140  -33.4970 C   0  0  0  0  0  0  0  0  0  0  0  0
   -3.7930   20.0920  -33.5080 C   0  0  0  0  0  0  0  0  0  0  0  0
   -3.8110   17.6500  -34.0650 C   0  0  0  0  0  0  0  0  0  0  0  0
   -5.9040   19.0500  -34.3530 C   0  0  0  0  0  0  0  0  0  0  0  0
   -6.4420   21.1210  -31.3090 C   0  0  0  0  0  0  0  0  0  0  0  0
   -5.1430   21.4200  -30.8860 C   0  0  0  0  0  0  0  0  0  0  0  0
   -2.4260   22.1540  -30.1340 C   0  0  0  0  0  0  0  0  0  0  0  0
   -1.1500   22.4570  -29.6500 C   0  0  0  0  0  0  0  0  0  0  0  0
   -0.2330   21.3900  -29.5890 O   0  0  0  0  0  0  0  0  0  0  0  0
   -0.4600   20.0920  -29.0310 C   0  0  0  0  0  0  0  0  0  0  0  0
    0.8550   19.2790  -28.9810 C   0  0  0  0  0  0  0  0  0  0  0  0
    0.8820   18.2600  -27.8250 C   0  0  0  0  0  0  0  0  0  0  0  0
   -0.4690   17.7980  -27.4820 N   0  0  0  0  0  0  0  0  0  0  0  0
   -1.3090   18.8910  -26.9560 C   0  0  0  0  0  0  0  0  0  0  0  0
   -1.0310   20.2590  -27.6200 C   0  0  0  0  0  0  0  0  0  0  0  0
    0.1321   24.0937  -26.8150 H   0  0  0  0  0  0  0  0  0  0  0  0
    1.5455   23.1296  -27.3622 H   0  0  0  0  0  0  0  0  0  0  0  0
    1.6280   24.9240  -27.3622 H   0  0  0  0  0  0  0  0  0  0  0  0
   -3.9137   25.2085  -29.8451 H   0  0  0  0  0  0  0  0  0  0  0  0
   -5.4937   24.8407  -30.7373 H   0  0  0  0  0  0  0  0  0  0  0  0
   -7.8008   24.2440  -31.5444 H   0  0  0  0  0  0  0  0  0  0  0  0
   -9.4458   22.0288  -32.2967 H   0  0  0  0  0  0  0  0  0  0  0  0
  -10.1250   17.2380  -31.8910 H   0  0  0  0  0  0  0  0  0  0  0  0
   -8.9850   17.8680  -30.6560 H   0  0  0  0  0  0  0  0  0  0  0  0
   -3.5853   20.4031  -32.4736 H   0  0  0  0  0  0  0  0  0  0  0  0
   -2.8445   19.8953  -34.0292 H   0  0  0  0  0  0  0  0  0  0  0  0
   -4.3385   20.8925  -34.0292 H   0  0  0  0  0  0  0  0  0  0  0  0
   -3.3895   17.0624  -33.2361 H   0  0  0  0  0  0  0  0  0  0  0  0
   -4.4535   17.0048  -34.6822 H   0  0  0  0  0  0  0  0  0  0  0  0
   -2.9939   18.0519  -34.6822 H   0  0  0  0  0  0  0  0  0  0  0  0
   -6.7702   19.2125  -33.6948 H   0  0  0  0  0  0  0  0  0  0  0  0
   -5.7546   19.9358  -34.9879 H   0  0  0  0  0  0  0  0  0  0  0  0
   -6.0858   18.1703  -34.9879 H   0  0  0  0  0  0  0  0  0  0  0  0
   -4.4072   20.6187  -30.7231 H   0  0  0  0  0  0  0  0  0  0  0  0
   -2.6457   21.1294  -30.4685 H   0  0  0  0  0  0  0  0  0  0  0  0
   -1.1728   19.5421  -29.6631 H   0  0  0  0  0  0  0  0  0  0  0  0
    0.9693   18.7363  -29.9310 H   0  0  0  0  0  0  0  0  0  0  0  0
    1.6783   19.9896  -28.8162 H   0  0  0  0  0  0  0  0  0  0  0  0
    1.4900   17.3941  -28.1261 H   0  0  0  0  0  0  0  0  0  0  0  0
    1.3126   18.7530  -26.9409 H   0  0  0  0  0  0  0  0  0  0  0  0
   -0.9180   17.4030  -28.3420 H   0  0  0  0  0  0  0  0  0  0  0  0
   -2.3644   18.6306  -27.1246 H   0  0  0  0  0  0  0  0  0  0  0  0
   -1.0698   18.9963  -25.8875 H   0  0  0  0  0  0  0  0  0  0  0  0
   -1.9722   20.8251  -27.6800 H   0  0  0  0  0  0  0  0  0  0  0  0
   -0.2899   20.7951  -27.0089 H   0  0  0  0  0  0  0  0  0  0  0  0
  1  2  1  0
  2  3  1  0
  3  4  2  0
  4  5  1  0
  4  6  1  0
  6  7  2  0
  7  8  1  0
  8  9  2  0
  9 10  1  0
 10 11  2  0
 11 12  1  0
 12 13  2  0
 13 14  1  0
 14 15  1  0
 14 16  2  0
 13 17  1  0
 17 18  1  0
 18 19  2  0
 18 20  1  0
 20 21  1  0
 21 22  1  0
 21 23  1  0
 21 24  1  0
 17 25  1  0
 25 26  2  0
  7 27  1  0
 27 28  2  0
 28 29  1  0
 29 30  1  0
 30 31  1  0
 31 32  1  0
 32 33  1  0
 33 34  1  0
 34 35  1  0
 28  3  1  0
 35 30  1  0
 26  8  1  0
 25 11  1  0
  1 36  1  0
  1 37  1  0
  1 38  1  0
  6 39  1  0
  9 40  1  0
 10 41  1  0
 12 42  1  0
 15 43  1  0
 15 44  1  0
 22 45  1  0
 22 46  1  0
 22 47  1  0
 23 48  1  0
 23 49  1  0
 23 50  1  0
 24 51  1  0
 24 52  1  0
 24 53  1  0
 26 54  1  0
 27 55  1  0
 30 56  1  0
 31 57  1  0
 31 58  1  0
 32 59  1  0
 32 60  1  0
 33 61  1  0
 34 62  1  0
 34 63  1  0
 35 64  1  0
 35 65  1  0
M  CHG  1   5  -1
M  END
>  <UniqueID>  (6) 
5

>  <SMILES>  (6) 
COc1c([O-])cc(-c2ccc3cc(C(N)=O)n(C(=O)OC(C)(C)C)c3c2)cc1OC1CCNCC1

>  <Energy>  (6) 
117.68751552910149

>  <Genealogy>  (6) 
COc1c([O-])cc(-c2ccc3cc(C(N)=O)n(C(=O)OC(C)(C)C)c3c2)cc1OC1CCNCC1 (protonated)
COc1c([O-])cc(-c2ccc3cc(C(N)=O)n(C(=O)OC(C)(C)C)c3c2)cc1OC1CCNCC1 (3D coordinates assigned)
COc1c([O-])cc(-c2ccc3cc(C(N)=O)n(C(=O)OC(C)(C)C)c3c2)cc1OC1CCNCC1 (nonaromatic ring conformer: 117.68751552910149 kcal/mol)

>  <smiles>  (6) 
COc1c(O)cc(-c2ccc3cc(C(N)=O)n(C(=O)OC(C)(C)C)c3c2)cc1OC1CCNCC1

>  <score_type>  (6) 
oracle

>  <origin>  (6) 
adg

>  <m_score__min__energy>  (6) 
-12.34

>  <m_primary>  (6) 
energy

$$$$
6:0
     RDKit          3D

 61 63  0  0  0  0  0  0  0  0999 V2000
   -9.0890   19.0210  -32.5020 C   0  0  0  0  0  0  0  0  0  0  0  0
   -8.0080   20.0640  -32.1630 C   0  0  0  0  0  0  0  0  0  0  0  0
   -7.2420   20.4190  -33.4460 C   0  0  0  0  0  0  0  0  0  0  0  0
   -8.6460   21.3450  -31.5920 C   0  0  0  0  0  0  0  0  0  0  0  0
   -7.0560   19.5180  -31.2390 O   0  0  0  0  0  0  0  0  0  0  0  0
   -6.2150   18.4190  -31.4630 C   0  0  0  0  0  0  0  0  0  0  0  0
   -6.3970   17.3290  -30.8550 O   0  0  0  0  0  0  0  0  0  0  0  0
   -5.1570   18.5280  -32.4270 N   0  0  0  0  0  0  0  0  0  0  0  0
   -4.9430   17.7570  -33.5300 C   0  0  0  0  0  0  0  0  0  0  0  0
   -5.6620   16.5120  -33.8740 C   0  0  0  0  0  0  0  0  0  0  0  0
   -7.0420   16.3520  -33.5550 N   0  0  0  0  0  0  0  0  0  0  0  0
   -5.0380   15.5600  -34.4130 O   0  0  0  0  0  0  0  0  0  0  0  0
   -3.8800   18.2600  -34.2770 C   0  0  0  0  0  0  0  0  0  0  0  0
   -3.4410   19.3670  -33.5880 C   0  0  0  0  0  0  0  0  0  0  0  0
   -2.4200   20.2630  -33.8880 C   0  0  0  0  0  0  0  0  0  0  0  0
   -2.2130   21.3460  -33.0170 C   0  0  0  0  0  0  0  0  0  0  0  0
   -3.0390   21.5300  -31.8720 C   0  0  0  0  0  0  0  0  0  0  0  0
   -2.8620   22.6800  -30.8970 C   0  0  1  0  0  0  0  0  0  0  0  0
   -4.0640   23.0770  -30.0660 C   0  0  0  0  0  0  0  0  0  0  0  0
   -3.4700   24.0660  -29.0840 C   0  0  0  0  0  0  0  0  0  0  0  0
   -2.0750   23.6410  -28.8260 N   0  0  2  0  0  0  0  0  0  0  0  0
   -1.1820   24.7770  -28.7900 C   0  0  0  0  0  0  0  0  0  0  0  0
   -1.6190   25.9480  -28.9630 O   0  0  0  0  0  0  0  0  0  0  0  0
    0.1770   24.5870  -28.5670 O   0  0  0  0  0  0  0  0  0  0  0  0
   -1.6850   22.6530  -29.8810 C   0  0  1  0  0  0  0  0  0  0  0  0
   -1.2200   21.2570  -29.2640 C   0  0  0  0  0  0  0  0  0  0  0  0
   -0.1550   21.5130  -28.1610 C   0  0  0  0  0  0  0  0  0  0  0  0
   -0.5250   20.3610  -30.3230 C   0  0  0  0  0  0  0  0  0  0  0  0
   -2.3880   20.4590  -28.6420 C   0  0  0  0  0  0  0  0  0  0  0  0
   -4.0510   20.5800  -31.5960 C   0  0  0  0  0  0  0  0  0  0  0  0
   -4.2260   19.5050  -32.4750 C   0  0  0  0  0  0  0  0  0  0  0  0
   -9.5107   18.6141  -31.5711 H   0  0  0  0  0  0  0  0  0  0  0  0
   -9.8879   19.4983  -33.0885 H   0  0  0  0  0  0  0  0  0  0  0  0
   -8.6406   18.2056  -33.0885 H   0  0  0  0  0  0  0  0  0  0  0  0
   -6.2731   20.8680  -33.1822 H   0  0  0  0  0  0  0  0  0  0  0  0
   -7.0745   19.5067  -34.0373 H   0  0  0  0  0  0  0  0  0  0  0  0
   -7.8298   21.1365  -34.0373 H   0  0  0  0  0  0  0  0  0  0  0  0
   -8.6265   21.3058  -30.4929 H   0  0  0  0  0  0  0  0  0  0  0  0
   -8.0795   22.2223  -31.9377 H   0  0  0  0  0  0  0  0  0  0  0  0
   -9.6875   21.4215  -31.9377 H   0  0  0  0  0  0  0  0  0  0  0  0
   -7.4300   16.7090  -32.6550 H   0  0  0  0  0  0  0  0  0  0  0  0
   -3.4771   17.8574  -35.2181 H   0  0  0  0  0  0  0  0  0  0  0  0
   -1.7927   20.1276  -34.7814 H   0  0  0  0  0  0  0  0  0  0  0  0
   -1.4025   22.0608  -33.2224 H   0  0  0  0  0  0  0  0  0  0  0  0
   -2.6440   23.4082  -31.6921 H   0  0  0  0  0  0  0  0  0  0  0  0
   -4.8385   23.5501  -30.6876 H   0  0  0  0  0  0  0  0  0  0  0  0
   -4.5642   22.2249  -29.5825 H   0  0  0  0  0  0  0  0  0  0  0  0
   -3.4823   25.0783  -29.5143 H   0  0  0  0  0  0  0  0  0  0  0  0
   -4.0513   24.0871  -28.1504 H   0  0  0  0  0  0  0  0  0  0  0  0
   -2.0760   23.2190  -27.8740 H   0  0  0  0  0  0  0  0  0  0  0  0
   -0.7678   22.9027  -30.4345 H   0  0  0  0  0  0  0  0  0  0  0  0
   -0.6193   21.4014  -27.1701 H   0  0  0  0  0  0  0  0  0  0  0  0
    0.6639   20.7861  -28.2662 H   0  0  0  0  0  0  0  0  0  0  0  0
    0.2441   22.5327  -28.2662 H   0  0  0  0  0  0  0  0  0  0  0  0
    0.0731   19.5899  -29.8153 H   0  0  0  0  0  0  0  0  0  0  0  0
   -1.2874   19.8784  -30.9522 H   0  0  0  0  0  0  0  0  0  0  0  0
    0.1320   20.9794  -30.9522 H   0  0  0  0  0  0  0  0  0  0  0  0
   -2.3205   20.5051  -27.5450 H   0  0  0  0  0  0  0  0  0  0  0  0
   -3.3442   20.8935  -28.9691 H   0  0  0  0  0  0  0  0  0  0  0  0
   -2.3308   19.4103  -28.9691 H   0  0  0  0  0  0  0  0  0  0  0  0
   -4.6890   20.6847  -30.7061 H   0  0  0  0  0  0  0  0  0  0  0  0
  1  2  1  0
  2  3  1  0
  2  4  1  0
  2  5  1  0
  5  6  1  0
  6  7  2  0
  6  8  1  0
  8  9  1  0
  9 10  1  0
 10 11  1  0
 10 12  2  0
  9 13  2  0
 13 14  1  0
 14 15  2  0
 15 16  1  0
 16 17  2  0
 17 18  1  0
 18 19  1  0
 19 20  1  0
 20 21  1  0
 21 22  1  0
 22 23  2  0
 22 24  1  0
 21 25  1  0
 25 26  1  0
 26 27  1  0
 26 28  1  0
 26 29  1  0
 17 30  1  0
 30 31  2  0
 31  8  1  0
 31 14  1  0
 25 18  1  0
  1 32  1  0
  1 33  1  0
  1 34  1  0
  3 35  1  0
  3 36  1  0
  3 37  1  0
  4 38  1  0
  4 39  1  0
  4 40  1  0
 11 41  1  0
 13 42  1  0
 15 43  1  0
 16 44  1  0
 18 45  1  6
 19 46  1  0
 19 47  1  0
 20 48  1  0
 20 49  1  0
 21 50  1  1
 25 51  1  6
 27 52  1  0
 27 53  1  0
 27 54  1  0
 28 55  1  0
 28 56  1  0
 28 57  1  0
 29 58  1  0
 29 59  1  0
 29 60  1  0
 30 61  1  0
M  CHG  3  11  -1  21   1  24  -1
M  END
>  <UniqueID>  (7) 
6

>  <SMILES>  (7) 
CC(C)(C)OC(=O)n1c(C([NH-])=O)cc2ccc([C@H]3CC[N@H+](C(=O)[O-])C3C(C)(C)C)cc21

>  <Energy>  (7) 
116.05807479922173

>  <Genealogy>  (7) 
CC(C)(C)OC(=O)n1c(C([NH-])=O)cc2ccc(C3CC[NH+](C(=O)[O-])C3C(C)(C)C)cc21 (protonated)
CC(C)(C)OC(=O)n1c(C([NH-])=O)cc2ccc([C@H]3CC[N@H+](C(=O)[O-])C3C(C)(C)C)cc21 (chirality)
CC(C)(C)OC(=O)n1c(C([NH-])=O)cc2ccc([C@H]3CC[N@H+](C(=O)[O-])C3C(C)(C)C)cc21 (3D coordinates assigned)
CC(C)(C)OC(=O)n1c(C([NH-])=O)cc2ccc([C@H]3CC[N@H+](C(=O)[O-])C3C(C)(C)C)cc21 (nonaromatic ring conformer: 116.05807479922173 kcal/mol)

>  <smiles>  (7) 
CC(C)(C)OC(=O)n1c(C(N)=O)cc2ccc(C3CCN(C(=O)O)C3C(C)(C)C)cc21

>  <score_type>  (7) 
oracle

>  <origin>  (7) 
adg

>  <m_score__min__energy>  (7) 
-10.609999999999999

>  <m_primary>  (7) 
energy

$$$$
7:0
     RDKit          3D

 43 45  0  0  0  0  0  0  0  0999 V2000
   -5.1250   17.2510  -34.0450 C   0  0  0  0  0  0  0  0  0  0  0  0
   -4.9840   18.7460  -34.3180 C   0  0  0  0  0  0  0  0  0  0  0  0
   -5.1440   19.5200  -33.0780 N   0  0  0  0  0  0  0  0  0  0  0  0
   -6.4640   19.7330  -32.5350 C   0  0  0  0  0  0  0  0  0  0  0  0
   -7.2070   18.6620  -32.0090 C   0  0  0  0  0  0  0  0  0  0  0  0
   -8.4800   18.8800  -31.4780 C   0  0  0  0  0  0  0  0  0  0  0  0
   -9.0280   20.1650  -31.4700 C   0  0  0  0  0  0  0  0  0  0  0  0
   -8.3060   21.2420  -32.0040 C   0  0  0  0  0  0  0  0  0  0  0  0
   -8.8750   22.6300  -31.9580 C   0  0  0  0  0  0  0  0  0  0  0  0
   -7.0200   21.0240  -32.5200 C   0  0  0  0  0  0  0  0  0  0  0  0
   -4.0020   20.1400  -32.4410 C   0  0  0  0  0  0  0  0  0  0  0  0
   -2.7400   19.4900  -32.4650 C   0  0  0  0  0  0  0  0  0  0  0  0
   -1.6230   20.0620  -31.8350 C   0  0  0  0  0  0  0  0  0  0  0  0
   -1.7900   21.2860  -31.1980 C   0  0  0  0  0  0  0  0  0  0  0  0
   -0.8870   22.0450  -30.4890 C   0  0  0  0  0  0  0  0  0  0  0  0
   -1.5990   23.1620  -30.0580 C   0  0  0  0  0  0  0  0  0  0  0  0
   -0.9840   24.2840  -29.3180 C   0  0  0  0  0  0  0  0  0  0  0  0
   -1.6030   25.5680  -29.3340 N   0  0  0  0  0  0  0  0  0  0  0  0
    0.0650   24.1140  -28.6430 O   0  0  0  0  0  0  0  0  0  0  0  0
   -2.8950   23.0940  -30.4800 N   0  0  0  0  0  0  0  0  0  0  0  0
   -3.9610   24.0140  -30.1970 C   0  0  0  0  0  0  0  0  0  0  0  0
   -3.9990   25.2870  -30.8380 N   0  0  0  0  0  0  0  0  0  0  0  0
   -4.8760   23.6970  -29.3920 O   0  0  0  0  0  0  0  0  0  0  0  0
   -2.9940   21.9400  -31.1770 C   0  0  0  0  0  0  0  0  0  0  0  0
   -4.1280   21.3840  -31.7780 C   0  0  0  0  0  0  0  0  0  0  0  0
   -5.1415   17.0765  -32.9590 H   0  0  0  0  0  0  0  0  0  0  0  0
   -6.0618   16.8838  -34.4896 H   0  0  0  0  0  0  0  0  0  0  0  0
   -4.2734   16.7152  -34.4896 H   0  0  0  0  0  0  0  0  0  0  0  0
   -3.9876   18.9432  -34.7403 H   0  0  0  0  0  0  0  0  0  0  0  0
   -5.7674   19.0505  -35.0276 H   0  0  0  0  0  0  0  0  0  0  0  0
   -6.7835   17.6468  -32.0157 H   0  0  0  0  0  0  0  0  0  0  0  0
   -9.0532   18.0371  -31.0646 H   0  0  0  0  0  0  0  0  0  0  0  0
  -10.0282   20.3324  -31.0438 H   0  0  0  0  0  0  0  0  0  0  0  0
   -9.0020   22.9397  -30.9102 H   0  0  0  0  0  0  0  0  0  0  0  0
   -8.1890   23.3245  -32.4651 H   0  0  0  0  0  0  0  0  0  0  0  0
   -9.8511   22.6431  -32.4651 H   0  0  0  0  0  0  0  0  0  0  0  0
   -6.4412   21.8712  -32.9166 H   0  0  0  0  0  0  0  0  0  0  0  0
   -2.6359   18.5257  -32.9839 H   0  0  0  0  0  0  0  0  0  0  0  0
   -0.6459   19.5569  -31.8453 H   0  0  0  0  0  0  0  0  0  0  0  0
    0.1729   21.8176  -30.3022 H   0  0  0  0  0  0  0  0  0  0  0  0
   -2.6440   25.6620  -29.3440 H   0  0  0  0  0  0  0  0  0  0  0  0
   -3.1180   25.7940  -31.0770 H   0  0  0  0  0  0  0  0  0  0  0  0
   -5.0972   21.9026  -31.7362 H   0  0  0  0  0  0  0  0  0  0  0  0
  1  2  1  0
  2  3  1  0
  3  4  1  0
  4  5  2  0
  5  6  1  0
  6  7  2  0
  7  8  1  0
  8  9  1  0
  8 10  2  0
  3 11  1  0
 11 12  2  0
 12 13  1  0
 13 14  2  0
 14 15  1  0
 15 16  2  0
 16 17  1  0
 17 18  1  0
 17 19  2  0
 16 20  1  0
 20 21  1  0
 21 22  1  0
 21 23  2  0
 20 24  1  0
 24 25  2  0
 10  4  1  0
 25 11  1  0
 24 14  1  0
  1 26  1  0
  1 27  1  0
  1 28  1  0
  2 29  1  0
  2 30  1  0
  5 31  1  0
  6 32  1  0
  7 33  1  0
  9 34  1  0
  9 35  1  0
  9 36  1  0
 10 37  1  0
 12 38  1  0
 13 39  1  0
 15 40  1  0
 18 41  1  0
 22 42  1  0
 25 43  1  0
M  CHG  2  18  -1  22  -1
M  END
>  <UniqueID>  (8) 
7

>  <SMILES>  (8) 
CCN(c1cccc(C)c1)c1ccc2cc(C([NH-])=O)n(C([NH-])=O)c2c1

>  <Energy>  (8) 
89.17402369113626

>  <Genealogy>  (8) 
CCN(c1cccc(C)c1)c1ccc2cc(C([NH-])=O)n(C([NH-])=O)c2c1 (protonated)
CCN(c1cccc(C)c1)c1ccc2cc(C([NH-])=O)n(C([NH-])=O)c2c1 (3D coordinates assigned)
CCN(c1cccc(C)c1)c1ccc2cc(C([NH-])=O)n(C([NH-])=O)c2c1 (optimized conformer: 89.17402369113626 kcal/mol)

>  <smiles>  (8) 
CCN(c1cccc(C)c1)c1ccc2cc(C(N)=O)n(C(N)=O)c2c1

>  <score_type>  (8) 
oracle

>  <origin>  (8) 
adg

>  <m_score__min__energy>  (8) 
-12.84

>  <m_primary>  (8) 
energy

$$$$
8:0
     RDKit          3D

 34 35  0  0  0  0  0  0  0  0999 V2000
   -7.4550   18.4750  -32.7230 C   0  0  0  0  0  0  0  0  0  0  0  0
   -7.4910   19.8980  -32.2480 C   0  0  0  0  0  0  0  0  0  0  0  0
   -8.7190   20.6010  -32.2110 C   0  0  0  0  0  0  0  0  0  0  0  0
   -8.7630   21.9420  -31.7910 C   0  0  0  0  0  0  0  0  0  0  0  0
   -7.5630   22.5540  -31.4380 C   0  0  0  0  0  0  0  0  0  0  0  0
   -7.3220   23.8280  -30.9770 C   0  0  0  0  0  0  0  0  0  0  0  0
   -5.9450   23.8950  -30.7800 C   0  0  0  0  0  0  0  0  0  0  0  0
   -5.2430   25.1280  -30.3660 C   0  0  0  0  0  0  0  0  0  0  0  0
   -3.8550   25.3030  -30.6300 N   0  0  0  0  0  0  0  0  0  0  0  0
   -5.8900   26.0580  -29.8160 O   0  0  0  0  0  0  0  0  0  0  0  0
   -5.3570   22.7070  -31.1000 N   0  0  0  0  0  0  0  0  0  0  0  0
   -3.9770   22.3410  -30.9370 C   0  0  0  0  0  0  0  0  0  0  0  0
   -3.1480   22.5920  -31.8540 O   0  0  0  0  0  0  0  0  0  0  0  0
   -3.5680   21.6770  -29.7750 O   0  0  0  0  0  0  0  0  0  0  0  0
   -3.0210   22.3410  -28.6350 C   0  0  0  0  0  0  0  0  0  0  0  0
   -1.9240   23.3200  -29.0630 C   0  0  0  0  0  0  0  0  0  0  0  0
   -4.1440   23.0820  -27.9110 C   0  0  0  0  0  0  0  0  0  0  0  0
   -6.3610   21.8970  -31.5030 C   0  0  0  0  0  0  0  0  0  0  0  0
   -6.2910   20.5550  -31.8980 C   0  0  0  0  0  0  0  0  0  0  0  0
   -7.4379   17.7991  -31.8553 H   0  0  0  0  0  0  0  0  0  0  0  0
   -8.3482   18.2687  -33.3309 H   0  0  0  0  0  0  0  0  0  0  0  0
   -6.5525   18.3141  -33.3309 H   0  0  0  0  0  0  0  0  0  0  0  0
   -9.6470   20.0937  -32.5135 H   0  0  0  0  0  0  0  0  0  0  0  0
   -9.7153   22.4905  -31.7428 H   0  0  0  0  0  0  0  0  0  0  0  0
   -8.0602   24.6243  -30.8014 H   0  0  0  0  0  0  0  0  0  0  0  0
   -3.5210   26.0590  -31.2680 H   0  0  0  0  0  0  0  0  0  0  0  0
   -2.5702   21.6010  -27.9573 H   0  0  0  0  0  0  0  0  0  0  0  0
   -1.4451   23.7474  -28.1697 H   0  0  0  0  0  0  0  0  0  0  0  0
   -1.1714   22.7878  -29.6634 H   0  0  0  0  0  0  0  0  0  0  0  0
   -2.3675   24.1280  -29.6634 H   0  0  0  0  0  0  0  0  0  0  0  0
   -4.0033   22.9892  -26.8240 H   0  0  0  0  0  0  0  0  0  0  0  0
   -4.1239   24.1448  -28.1939 H   0  0  0  0  0  0  0  0  0  0  0  0
   -5.1133   22.6455  -28.1939 H   0  0  0  0  0  0  0  0  0  0  0  0
   -5.3268   20.0268  -31.9346 H   0  0  0  0  0  0  0  0  0  0  0  0
  1  2  1  0
  2  3  2  0
  3  4  1  0
  4  5  2  0
  5  6  1  0
  6  7  2  0
  7  8  1  0
  8  9  1  0
  8 10  2  0
  7 11  1  0
 11 12  1  0
 12 13  2  0
 12 14  1  0
 14 15  1  0
 15 16  1  0
 15 17  1  0
 11 18  1  0
 18 19  2  0
 19  2  1  0
 18  5  1  0
  1 20  1  0
  1 21  1  0
  1 22  1  0
  3 23  1  0
  4 24  1  0
  6 25  1  0
  9 26  1  0
 15 27  1  0
 16 28  1  0
 16 29  1  0
 16 30  1  0
 17 31  1  0
 17 32  1  0
 17 33  1  0
 19 34  1  0
M  CHG  1   9  -1
M  END
>  <UniqueID>  (9) 
8

>  <SMILES>  (9) 
Cc1ccc2cc(C([NH-])=O)n(C(=O)OC(C)C)c2c1

>  <Energy>  (9) 
66.29234954381826

>  <Genealogy>  (9) 
Cc1ccc2cc(C([NH-])=O)n(C(=O)OC(C)C)c2c1 (protonated)
Cc1ccc2cc(C([NH-])=O)n(C(=O)OC(C)C)c2c1 (3D coordinates assigned)
Cc1ccc2cc(C([NH-])=O)n(C(=O)OC(C)C)c2c1 (optimized conformer: 66.29234954381826 kcal/mol)

>  <smiles>  (9) 
Cc1ccc2cc(C(N)=O)n(C(=O)OC(C)C)c2c1

>  <score_type>  (9) 
oracle

>  <origin>  (9) 
adg

>  <m_score__min__energy>  (9) 
-9.7400000000000002

>  <m_primary>  (9) 
energy

$$$$
9:0
     RDKit          3D

 79 82  0  0  0  0  0  0  0  0999 V2000
   -3.4250   21.3930  -33.5720 C   0  0  0  0  0  0  0  0  0  0  0  0
   -3.5620   20.2260  -33.8370 C   0  0  0  0  0  0  0  0  0  0  0  0
   -3.7400   18.8020  -34.1760 C   0  0  0  0  0  0  0  0  0  0  0  0
   -3.5040   17.8800  -33.0340 N   0  0  2  0  0  0  0  0  0  0  0  0
   -2.0660   17.6000  -32.7650 C   0  0  0  0  0  0  0  0  0  0  0  0
   -1.2120   18.8160  -32.2720 C   0  0  0  0  0  0  0  0  0  0  0  0
   -0.4190   19.4860  -33.3840 C   0  0  0  0  0  0  0  0  0  0  0  0
   -0.1930   18.7990  -34.5920 C   0  0  0  0  0  0  0  0  0  0  0  0
    0.5180   19.4050  -35.6330 C   0  0  0  0  0  0  0  0  0  0  0  0
    0.9980   20.7090  -35.4880 C   0  0  0  0  0  0  0  0  0  0  0  0
    0.7550   21.4130  -34.3080 C   0  0  0  0  0  0  0  0  0  0  0  0
    0.0440   20.8120  -33.2650 C   0  0  0  0  0  0  0  0  0  0  0  0
   -0.2740   18.4520  -31.1330 C   0  0  0  0  0  0  0  0  0  0  0  0
   -0.0340   19.3340  -30.0580 C   0  0  0  0  0  0  0  0  0  0  0  0
    0.8200   18.9610  -29.0150 C   0  0  0  0  0  0  0  0  0  0  0  0
    1.4230   17.7010  -29.0180 C   0  0  0  0  0  0  0  0  0  0  0  0
    1.1700   16.8080  -30.0620 C   0  0  0  0  0  0  0  0  0  0  0  0
    0.3230   17.1770  -31.1110 C   0  0  0  0  0  0  0  0  0  0  0  0
   -4.3410   16.6930  -33.0790 C   0  0  0  0  0  0  0  0  0  0  0  0
   -4.0620   15.7150  -32.3950 O   0  0  0  0  0  0  0  0  0  0  0  0
   -5.5750   16.6780  -33.9590 C   0  0  0  0  0  0  0  0  0  0  0  0
   -6.4870   17.9030  -33.7780 C   0  0  0  0  0  0  0  0  0  0  0  0
   -6.8370   18.1500  -32.3030 C   0  0  0  0  0  0  0  0  0  0  0  0
   -6.9810   19.6250  -32.0360 C   0  0  0  0  0  0  0  0  0  0  0  0
   -8.2460   20.2480  -32.1810 C   0  0  0  0  0  0  0  0  0  0  0  0
   -8.4040   21.6200  -31.9250 C   0  0  0  0  0  0  0  0  0  0  0  0
   -7.2840   22.3360  -31.5070 C   0  0  0  0  0  0  0  0  0  0  0  0
   -7.1470   23.6740  -31.2210 C   0  0  0  0  0  0  0  0  0  0  0  0
   -5.8090   23.8420  -30.8670 C   0  0  0  0  0  0  0  0  0  0  0  0
   -5.2410   25.1280  -30.4100 C   0  0  0  0  0  0  0  0  0  0  0  0
   -3.8270   25.2970  -30.3510 N   0  0  0  0  0  0  0  0  0  0  0  0
   -5.9920   26.0920  -30.1090 O   0  0  0  0  0  0  0  0  0  0  0  0
   -5.1450   22.6540  -30.9360 N   0  0  0  0  0  0  0  0  0  0  0  0
   -3.7440   22.4130  -30.7340 C   0  0  0  0  0  0  0  0  0  0  0  0
   -2.8950   23.1140  -31.3460 O   0  0  0  0  0  0  0  0  0  0  0  0
   -3.3420   21.3730  -29.8820 O   0  0  0  0  0  0  0  0  0  0  0  0
   -2.7710   21.5170  -28.5740 C   0  0  0  0  0  0  0  0  0  0  0  0
   -2.6900   20.1520  -27.8640 C   0  0  0  0  0  0  0  0  0  0  0  0
   -3.5890   22.5210  -27.7390 C   0  0  0  0  0  0  0  0  0  0  0  0
   -1.3490   22.0660  -28.7570 C   0  0  0  0  0  0  0  0  0  0  0  0
   -6.0610   21.7410  -31.3280 C   0  0  0  0  0  0  0  0  0  0  0  0
   -5.8710   20.3790  -31.5960 C   0  0  0  0  0  0  0  0  0  0  0  0
   -3.2999   22.4587  -33.3300 H   0  0  0  0  0  0  0  0  0  0  0  0
   -4.7705   18.6564  -34.5322 H   0  0  0  0  0  0  0  0  0  0  0  0
   -2.9911   18.5592  -34.9442 H   0  0  0  0  0  0  0  0  0  0  0  0
   -3.8360   18.4290  -32.2040 H   0  0  0  0  0  0  0  0  0  0  0  0
   -2.0138   16.8171  -31.9940 H   0  0  0  0  0  0  0  0  0  0  0  0
   -1.6342   17.3067  -33.7332 H   0  0  0  0  0  0  0  0  0  0  0  0
   -1.9548   19.5373  -31.9007 H   0  0  0  0  0  0  0  0  0  0  0  0
   -0.5790   17.7767  -34.7182 H   0  0  0  0  0  0  0  0  0  0  0  0
    0.6995   18.8539  -36.5675 H   0  0  0  0  0  0  0  0  0  0  0  0
    1.5668   21.1802  -36.3031 H   0  0  0  0  0  0  0  0  0  0  0  0
    1.1238   22.4435  -34.1981 H   0  0  0  0  0  0  0  0  0  0  0  0
   -0.1558   21.3788  -32.3437 H   0  0  0  0  0  0  0  0  0  0  0  0
   -0.5211   20.3201  -30.0402 H   0  0  0  0  0  0  0  0  0  0  0  0
    1.0173   19.6616  -28.1903 H   0  0  0  0  0  0  0  0  0  0  0  0
    2.0971   17.4119  -28.1982 H   0  0  0  0  0  0  0  0  0  0  0  0
    1.6382   15.8126  -30.0586 H   0  0  0  0  0  0  0  0  0  0  0  0
    0.1213   16.4658  -31.9256 H   0  0  0  0  0  0  0  0  0  0  0  0
   -5.2504   16.6405  -35.0094 H   0  0  0  0  0  0  0  0  0  0  0  0
   -6.1642   15.7964  -33.6661 H   0  0  0  0  0  0  0  0  0  0  0  0
   -5.9715   18.7905  -34.1736 H   0  0  0  0  0  0  0  0  0  0  0  0
   -7.4242   17.7107  -34.3209 H   0  0  0  0  0  0  0  0  0  0  0  0
   -7.7850   17.6448  -32.0662 H   0  0  0  0  0  0  0  0  0  0  0  0
   -6.0279   17.7514  -31.6734 H   0  0  0  0  0  0  0  0  0  0  0  0
   -9.1135   19.6503  -32.4975 H   0  0  0  0  0  0  0  0  0  0  0  0
   -9.3794   22.1129  -32.0503 H   0  0  0  0  0  0  0  0  0  0  0  0
   -7.9277   24.4478  -31.2627 H   0  0  0  0  0  0  0  0  0  0  0  0
   -3.2460   25.2850  -31.2180 H   0  0  0  0  0  0  0  0  0  0  0  0
   -2.6990   20.3042  -26.7746 H   0  0  0  0  0  0  0  0  0  0  0  0
   -3.5531   19.5354  -28.1552 H   0  0  0  0  0  0  0  0  0  0  0  0
   -1.7600   19.6418  -28.1552 H   0  0  0  0  0  0  0  0  0  0  0  0
   -3.4287   22.3242  -26.6687 H   0  0  0  0  0  0  0  0  0  0  0  0
   -3.2648   23.5451  -27.9761 H   0  0  0  0  0  0  0  0  0  0  0  0
   -4.6574   22.4105  -27.9761 H   0  0  0  0  0  0  0  0  0  0  0  0
   -0.8941   22.2416  -27.7710 H   0  0  0  0  0  0  0  0  0  0  0  0
   -0.7436   21.3370  -29.3156 H   0  0  0  0  0  0  0  0  0  0  0  0
   -1.3905   23.0127  -29.3156 H   0  0  0  0  0  0  0  0  0  0  0  0
   -4.8844   19.9099  -31.4672 H   0  0  0  0  0  0  0  0  0  0  0  0
  1  2  3  0
  2  3  1  0
  3  4  1  0
  4  5  1  0
  5  6  1  0
  6  7  1  0
  7  8  2  0
  8  9  1  0
  9 10  2  0
 10 11  1  0
 11 12  2  0
  6 13  1  0
 13 14  2  0
 14 15  1  0
 15 16  2  0
 16 17  1  0
 17 18  2  0
  4 19  1  0
 19 20  2  0
 19 21  1  0
 21 22  1  0
 22 23  1  0
 23 24  1  0
 24 25  2  0
 25 26  1  0
 26 27  2  0
 27 28  1  0
 28 29  2  0
 29 30  1  0
 30 31  1  0
 30 32  2  0
 29 33  1  0
 33 34  1  0
 34 35  2  0
 34 36  1  0
 36 37  1  0
 37 38  1  0
 37 39  1  0
 37 40  1  0
 33 41  1  0
 41 42  2  0
 12  7  1  0
 18 13  1  0
 42 24  1  0
 41 27  1  0
  1 43  1  0
  3 44  1  0
  3 45  1  0
  4 46  1  1
  5 47  1  0
  5 48  1  0
  6 49  1  0
  8 50  1  0
  9 51  1  0
 10 52  1  0
 11 53  1  0
 12 54  1  0
 14 55  1  0
 15 56  1  0
 16 57  1  0
 17 58  1  0
 18 59  1  0
 21 60  1  0
 21 61  1  0
 22 62  1  0
 22 63  1  0
 23 64  1  0
 23 65  1  0
 25 66  1  0
 26 67  1  0
 28 68  1  0
 31 69  1  0
 38 70  1  0
 38 71  1  0
 38 72  1  0
 39 73  1  0
 39 74  1  0
 39 75  1  0
 40 76  1  0
 40 77  1  0
 40 78  1  0
 42 79  1  0
M  CHG  2   4   1  31  -1
M  END
>  <UniqueID>  (10) 
9

>  <SMILES>  (10) 
C#CC[N@H+](CC(c1ccccc1)c1ccccc1)C(=O)CCCc1ccc2cc(C([NH-])=O)n(C(=O)OC(C)(C)C)c2c1

>  <Energy>  (10) 
122.81894390334922

>  <Genealogy>  (10) 
C#CC[NH+](CC(c1ccccc1)c1ccccc1)C(=O)CCCc1ccc2cc(C([NH-])=O)n(C(=O)OC(C)(C)C)c2c1 (protonated)
C#CC[N@H+](CC(c1ccccc1)c1ccccc1)C(=O)CCCc1ccc2cc(C([NH-])=O)n(C(=O)OC(C)(C)C)c2c1 (chirality)
C#CC[N@H+](CC(c1ccccc1)c1ccccc1)C(=O)CCCc1ccc2cc(C([NH-])=O)n(C(=O)OC(C)(C)C)c2c1 (3D coordinates assigned)
C#CC[N@H+](CC(c1ccccc1)c1ccccc1)C(=O)CCCc1ccc2cc(C([NH-])=O)n(C(=O)OC(C)(C)C)c2c1 (optimized conformer: 122.81894390334922 kcal/mol)

>  <smiles>  (10) 
C#CCN(CC(c1ccccc1)c1ccccc1)C(=O)CCCc1ccc2cc(C(N)=O)n(C(=O)OC(C)(C)C)c2c1

>  <score_type>  (10) 
oracle

>  <origin>  (10) 
adg

>  <m_score__min__energy>  (10) 
-11.960000000000001

>  <m_primary>  (10) 
energy

$$$$
10:0
     RDKit          3D

 43 45  0  0  0  0  0  0  0  0999 V2000
   -1.7030   25.6400  -29.0050 N   0  0  0  0  0  0  0  0  0  0  0  0
   -0.9470   24.4380  -29.1310 C   0  0  0  0  0  0  0  0  0  0  0  0
    0.1590   24.3400  -28.5370 O   0  0  0  0  0  0  0  0  0  0  0  0
   -1.4870   23.3090  -29.9170 C   0  0  0  0  0  0  0  0  0  0  0  0
   -0.6910   22.3060  -30.4670 C   0  0  0  0  0  0  0  0  0  0  0  0
   -1.5530   21.5080  -31.1840 C   0  0  0  0  0  0  0  0  0  0  0  0
   -1.3000   20.3550  -31.9200 C   0  0  0  0  0  0  0  0  0  0  0  0
   -2.3890   19.7120  -32.5320 C   0  0  0  0  0  0  0  0  0  0  0  0
   -3.7020   20.2290  -32.3960 C   0  0  0  0  0  0  0  0  0  0  0  0
   -4.8690   19.5110  -33.0230 C   0  0  0  0  0  0  0  0  0  0  0  0
   -5.7620   18.8550  -31.9670 C   0  0  0  0  0  0  0  0  0  0  0  0
   -6.8670   17.6640  -32.7020 Cl  0  0  0  0  0  0  0  0  0  0  0  0
   -3.9210   21.3990  -31.6360 C   0  0  0  0  0  0  0  0  0  0  0  0
   -2.8140   22.0290  -31.0520 C   0  0  0  0  0  0  0  0  0  0  0  0
   -2.7920   23.1340  -30.2740 N   0  0  0  0  0  0  0  0  0  0  0  0
   -3.9280   23.9030  -29.8460 C   0  0  0  0  0  0  0  0  0  0  0  0
   -4.5480   23.5810  -28.7960 O   0  0  0  0  0  0  0  0  0  0  0  0
   -4.3280   25.0180  -30.5870 O   0  0  0  0  0  0  0  0  0  0  0  0
   -5.6940   25.3560  -30.7930 C   0  0  0  0  0  0  0  0  0  0  0  0
   -6.4740   24.1050  -31.0710 C   0  0  0  0  0  0  0  0  0  0  0  0
   -6.3850   23.4750  -32.3210 C   0  0  0  0  0  0  0  0  0  0  0  0
   -7.0780   22.2860  -32.5640 C   0  0  0  0  0  0  0  0  0  0  0  0
   -7.8630   21.6980  -31.5540 C   0  0  0  0  0  0  0  0  0  0  0  0
   -8.5780   20.4730  -31.7990 N   0  0  0  0  0  0  0  0  0  0  0  0
   -8.7400   19.6360  -30.8870 O   0  0  0  0  0  0  0  0  0  0  0  0
   -9.0930   20.2020  -33.0470 O   0  0  0  0  0  0  0  0  0  0  0  0
   -7.9350   22.3250  -30.2980 C   0  0  0  0  0  0  0  0  0  0  0  0
   -7.2400   23.5140  -30.0570 C   0  0  0  0  0  0  0  0  0  0  0  0
   -2.7020   25.6790  -29.3020 H   0  0  0  0  0  0  0  0  0  0  0  0
    0.3956   22.1791  -30.3524 H   0  0  0  0  0  0  0  0  0  0  0  0
   -0.2787   19.9589  -32.0198 H   0  0  0  0  0  0  0  0  0  0  0  0
   -2.2213   18.7990  -33.1221 H   0  0  0  0  0  0  0  0  0  0  0  0
   -5.4670   20.2348  -33.5961 H   0  0  0  0  0  0  0  0  0  0  0  0
   -4.4742   18.7205  -33.6781 H   0  0  0  0  0  0  0  0  0  0  0  0
   -5.1271   18.3457  -31.2271 H   0  0  0  0  0  0  0  0  0  0  0  0
   -6.3661   19.6393  -31.4875 H   0  0  0  0  0  0  0  0  0  0  0  0
   -4.9348   21.8054  -31.5058 H   0  0  0  0  0  0  0  0  0  0  0  0
   -6.0921   25.8454  -29.8919 H   0  0  0  0  0  0  0  0  0  0  0  0
   -5.7803   26.0435  -31.6474 H   0  0  0  0  0  0  0  0  0  0  0  0
   -5.7662   23.9193  -33.1145 H   0  0  0  0  0  0  0  0  0  0  0  0
   -7.0096   21.8061  -33.5514 H   0  0  0  0  0  0  0  0  0  0  0  0
   -8.5430   21.8767  -29.4984 H   0  0  0  0  0  0  0  0  0  0  0  0
   -7.2947   23.9882  -29.0660 H   0  0  0  0  0  0  0  0  0  0  0  0
  1  2  1  0
  2  3  2  0
  2  4  1  0
  4  5  2  0
  5  6  1  0
  6  7  2  0
  7  8  1  0
  8  9  2  0
  9 10  1  0
 10 11  1  0
 11 12  1  0
  9 13  1  0
 13 14  2  0
 14 15  1  0
 15 16  1  0
 16 17  2  0
 16 18  1  0
 18 19  1  0
 19 20  1  0
 20 21  2  0
 21 22  1  0
 22 23  2  0
 23 24  1  0
 24 25  2  0
 24 26  1  0
 23 27  1  0
 27 28  2  0
 15  4  1  0
 28 20  1  0
 14  6  1  0
  1 29  1  0
  5 30  1  0
  7 31  1  0
  8 32  1  0
 10 33  1  0
 10 34  1  0
 11 35  1  0
 11 36  1  0
 13 37  1  0
 19 38  1  0
 19 39  1  0
 21 40  1  0
 22 41  1  0
 27 42  1  0
 28 43  1  0
M  CHG  3   1  -1  24   1  26  -1
M  END
>  <UniqueID>  (11) 
10

>  <SMILES>  (11) 
[NH-]C(=O)c1cc2ccc(CCCl)cc2n1C(=O)OCc1ccc([N+](=O)[O-])cc1

>  <Energy>  (11) 
79.86536168617853

>  <Genealogy>  (11) 
[NH-]C(=O)c1cc2ccc(CCCl)cc2n1C(=O)OCc1ccc([N+](=O)[O-])cc1 (protonated)
[NH-]C(=O)c1cc2ccc(CCCl)cc2n1C(=O)OCc1ccc([N+](=O)[O-])cc1 (3D coordinates assigned)
[NH-]C(=O)c1cc2ccc(CCCl)cc2n1C(=O)OCc1ccc([N+](=O)[O-])cc1 (optimized conformer: 79.86536168617853 kcal/mol)

>  <smiles>  (11) 
NC(=O)c1cc2ccc(CCCl)cc2n1C(=O)OCc1ccc([N+](=O)[O-])cc1

>  <score_type>  (11) 
oracle

>  <origin>  (11) 
adg

>  <m_score__min__energy>  (11) 
-11.470000000000001

>  <m_primary>  (11) 
energy

$$$$
11:0
     RDKit          3D

 48 50  0  0  0  0  0  0  0  0999 V2000
   -6.3840   13.3810  -34.5710 C   0  0  0  0  0  0  0  0  0  0  0  0
   -5.4190   14.4250  -34.6390 O   0  0  0  0  0  0  0  0  0  0  0  0
   -5.6370   15.7350  -34.1880 C   0  0  0  0  0  0  0  0  0  0  0  0
   -4.6920   16.7630  -34.3640 C   0  0  0  0  0  0  0  0  0  0  0  0
   -4.9560   18.0530  -33.8960 C   0  0  0  0  0  0  0  0  0  0  0  0
   -6.1680   18.3430  -33.2450 C   0  0  0  0  0  0  0  0  0  0  0  0
   -6.4490   19.7130  -32.7460 C   0  0  0  0  0  0  0  0  0  0  0  0
   -7.7780   20.2140  -32.7350 C   0  0  0  0  0  0  0  0  0  0  0  0
   -8.0530   21.5130  -32.2780 C   0  0  0  0  0  0  0  0  0  0  0  0
   -6.9880   22.2880  -31.8310 C   0  0  0  0  0  0  0  0  0  0  0  0
   -6.9700   23.5810  -31.3630 C   0  0  0  0  0  0  0  0  0  0  0  0
   -5.6350   23.8500  -31.0710 C   0  0  0  0  0  0  0  0  0  0  0  0
   -5.1720   25.1140  -30.4620 C   0  0  0  0  0  0  0  0  0  0  0  0
   -3.9100   25.6620  -30.8360 N   0  0  0  0  0  0  0  0  0  0  0  0
   -5.8950   25.7370  -29.6400 O   0  0  0  0  0  0  0  0  0  0  0  0
   -4.8560   22.7670  -31.3520 N   0  0  0  0  0  0  0  0  0  0  0  0
   -3.4270   22.6690  -31.2660 C   0  0  0  0  0  0  0  0  0  0  0  0
   -2.7800   22.1410  -32.2110 O   0  0  0  0  0  0  0  0  0  0  0  0
   -2.7670   23.1830  -30.1390 O   0  0  0  0  0  0  0  0  0  0  0  0
   -2.8030   22.6440  -28.8110 C   0  0  0  0  0  0  0  0  0  0  0  0
   -1.5880   23.1250  -27.9950 C   0  0  0  0  0  0  0  0  0  0  0  0
   -2.7390   21.1150  -28.9400 C   0  0  0  0  0  0  0  0  0  0  0  0
   -4.1180   23.0300  -28.1050 C   0  0  0  0  0  0  0  0  0  0  0  0
   -5.7000   21.8180  -31.8160 C   0  0  0  0  0  0  0  0  0  0  0  0
   -5.3930   20.5350  -32.2820 C   0  0  0  0  0  0  0  0  0  0  0  0
   -7.1090   17.3130  -33.0720 C   0  0  0  0  0  0  0  0  0  0  0  0
   -6.8430   16.0230  -33.5400 C   0  0  0  0  0  0  0  0  0  0  0  0
   -6.5990   13.1484  -33.5176 H   0  0  0  0  0  0  0  0  0  0  0  0
   -7.3090   13.7035  -35.0714 H   0  0  0  0  0  0  0  0  0  0  0  0
   -5.9899   12.4842  -35.0714 H   0  0  0  0  0  0  0  0  0  0  0  0
   -3.7403   16.5498  -34.8728 H   0  0  0  0  0  0  0  0  0  0  0  0
   -4.2094   18.8482  -34.0381 H   0  0  0  0  0  0  0  0  0  0  0  0
   -8.6018   19.5767  -33.0888 H   0  0  0  0  0  0  0  0  0  0  0  0
   -9.0804   21.9061  -32.2736 H   0  0  0  0  0  0  0  0  0  0  0  0
   -7.8280   24.2590  -31.2444 H   0  0  0  0  0  0  0  0  0  0  0  0
   -3.0220   25.2890  -30.4330 H   0  0  0  0  0  0  0  0  0  0  0  0
   -1.8096   23.0373  -26.9211 H   0  0  0  0  0  0  0  0  0  0  0  0
   -0.7129   22.5055  -28.2406 H   0  0  0  0  0  0  0  0  0  0  0  0
   -1.3741   24.1757  -28.2406 H   0  0  0  0  0  0  0  0  0  0  0  0
   -2.7201   20.6629  -27.9374 H   0  0  0  0  0  0  0  0  0  0  0  0
   -3.6229   20.7559  -29.4875 H   0  0  0  0  0  0  0  0  0  0  0  0
   -1.8282   20.8310  -29.4875 H   0  0  0  0  0  0  0  0  0  0  0  0
   -3.9750   22.9880  -27.0151 H   0  0  0  0  0  0  0  0  0  0  0  0
   -4.4057   24.0505  -28.3981 H   0  0  0  0  0  0  0  0  0  0  0  0
   -4.9116   22.3269  -28.3981 H   0  0  0  0  0  0  0  0  0  0  0  0
   -4.3544   20.1727  -32.2879 H   0  0  0  0  0  0  0  0  0  0  0  0
   -8.0619   17.5238  -32.5645 H   0  0  0  0  0  0  0  0  0  0  0  0
   -7.5887   15.2270  -33.3975 H   0  0  0  0  0  0  0  0  0  0  0  0
  1  2  1  0
  2  3  1  0
  3  4  2  0
  4  5  1  0
  5  6  2  0
  6  7  1  0
  7  8  2  0
  8  9  1  0
  9 10  2  0
 10 11  1  0
 11 12  2  0
 12 13  1  0
 13 14  1  0
 13 15  2  0
 12 16  1  0
 16 17  1  0
 17 18  2  0
 17 19  1  0
 19 20  1  0
 20 21  1  0
 20 22  1  0
 20 23  1  0
 16 24  1  0
 24 25  2  0
  6 26  1  0
 26 27  2  0
 27  3  1  0
 25  7  1  0
 24 10  1  0
  1 28  1  0
  1 29  1  0
  1 30  1  0
  4 31  1  0
  5 32  1  0
  8 33  1  0
  9 34  1  0
 11 35  1  0
 14 36  1  0
 21 37  1  0
 21 38  1  0
 21 39  1  0
 22 40  1  0
 22 41  1  0
 22 42  1  0
 23 43  1  0
 23 44  1  0
 23 45  1  0
 25 46  1  0
 26 47  1  0
 27 48  1  0
M  CHG  1  14  -1
M  END
>  <UniqueID>  (12) 
11

>  <SMILES>  (12) 
COc1ccc(-c2ccc3cc(C([NH-])=O)n(C(=O)OC(C)(C)C)c3c2)cc1

>  <Energy>  (12) 
88.58448511345073

>  <Genealogy>  (12) 
COc1ccc(-c2ccc3cc(C([NH-])=O)n(C(=O)OC(C)(C)C)c3c2)cc1 (protonated)
COc1ccc(-c2ccc3cc(C([NH-])=O)n(C(=O)OC(C)(C)C)c3c2)cc1 (3D coordinates assigned)
COc1ccc(-c2ccc3cc(C([NH-])=O)n(C(=O)OC(C)(C)C)c3c2)cc1 (optimized conformer: 88.58448511345073 kcal/mol)

>  <smiles>  (12) 
COc1ccc(-c2ccc3cc(C(N)=O)n(C(=O)OC(C)(C)C)c3c2)cc1

>  <score_type>  (12) 
oracle

>  <origin>  (12) 
adg

>  <m_score__min__energy>  (12) 
-10.82

>  <m_primary>  (12) 
energy

$$$$
12:0
     RDKit          3D

 51 53  0  0  0  0  0  0  0  0999 V2000
   -1.2570   22.8890  -29.0880 C   0  0  0  0  0  0  0  0  0  0  0  0
   -2.6540   22.4760  -29.5890 C   0  0  0  0  0  0  0  0  0  0  0  0
   -2.6440   20.9720  -29.8990 C   0  0  0  0  0  0  0  0  0  0  0  0
   -3.7230   22.7550  -28.5140 C   0  0  0  0  0  0  0  0  0  0  0  0
   -2.9770   23.1610  -30.8090 O   0  0  0  0  0  0  0  0  0  0  0  0
   -3.9220   22.7530  -31.7640 C   0  0  0  0  0  0  0  0  0  0  0  0
   -3.5580   22.2130  -32.8430 O   0  0  0  0  0  0  0  0  0  0  0  0
   -5.3220   22.9330  -31.4970 N   0  0  0  0  0  0  0  0  0  0  0  0
   -5.9300   24.0090  -30.9180 C   0  0  0  0  0  0  0  0  0  0  0  0
   -5.2460   25.1610  -30.2940 C   0  0  0  0  0  0  0  0  0  0  0  0
   -4.0150   25.6340  -30.8360 N   0  0  0  0  0  0  0  0  0  0  0  0
   -5.7560   25.7590  -29.3100 O   0  0  0  0  0  0  0  0  0  0  0  0
   -7.3130   23.8440  -30.9150 C   0  0  0  0  0  0  0  0  0  0  0  0
   -7.5370   22.6220  -31.5050 C   0  0  0  0  0  0  0  0  0  0  0  0
   -8.7330   21.9640  -31.7710 C   0  0  0  0  0  0  0  0  0  0  0  0
   -8.6700   20.7200  -32.4180 C   0  0  0  0  0  0  0  0  0  0  0  0
   -7.4220   20.1540  -32.7870 C   0  0  0  0  0  0  0  0  0  0  0  0
   -7.3730   18.8670  -33.4400 N   0  0  0  0  0  0  0  0  0  0  0  0
   -6.5700   17.8840  -32.6720 C   0  0  0  0  0  0  0  0  0  0  0  0
   -6.8270   16.4430  -33.1850 C   0  0  0  0  0  0  0  0  0  0  0  0
   -5.7880   16.0050  -34.2340 C   0  0  0  0  0  0  0  0  0  0  0  0
   -5.3060   17.1170  -34.9580 O   0  0  0  0  0  0  0  0  0  0  0  0
   -4.4740   17.9220  -34.1360 C   0  0  0  0  0  0  0  0  0  0  0  0
   -5.0560   18.1840  -32.7290 C   0  0  0  0  0  0  0  0  0  0  0  0
   -6.2270   20.8590  -32.5030 C   0  0  0  0  0  0  0  0  0  0  0  0
   -6.3200   22.0910  -31.8450 C   0  0  0  0  0  0  0  0  0  0  0  0
   -1.2479   22.8917  -27.9880 H   0  0  0  0  0  0  0  0  0  0  0  0
   -0.5081   22.1738  -29.4591 H   0  0  0  0  0  0  0  0  0  0  0  0
   -1.0174   23.8964  -29.4591 H   0  0  0  0  0  0  0  0  0  0  0  0
   -2.6402   20.4035  -28.9573 H   0  0  0  0  0  0  0  0  0  0  0  0
   -3.5404   20.7116  -30.4809 H   0  0  0  0  0  0  0  0  0  0  0  0
   -1.7442   20.7235  -30.4809 H   0  0  0  0  0  0  0  0  0  0  0  0
   -3.2775   22.6387  -27.5150 H   0  0  0  0  0  0  0  0  0  0  0  0
   -4.1004   23.7817  -28.6299 H   0  0  0  0  0  0  0  0  0  0  0  0
   -4.5540   22.0436  -28.6299 H   0  0  0  0  0  0  0  0  0  0  0  0
   -3.1000   25.2860  -30.4720 H   0  0  0  0  0  0  0  0  0  0  0  0
   -8.0667   24.5431  -30.5236 H   0  0  0  0  0  0  0  0  0  0  0  0
   -9.6988   22.4050  -31.4832 H   0  0  0  0  0  0  0  0  0  0  0  0
   -9.5999   20.1768  -32.6419 H   0  0  0  0  0  0  0  0  0  0  0  0
   -8.3570   18.5190  -33.5240 H   0  0  0  0  0  0  0  0  0  0  0  0
   -7.0020   18.9660  -34.4130 H   0  0  0  0  0  0  0  0  0  0  0  0
   -6.8935   17.9695  -31.6241 H   0  0  0  0  0  0  0  0  0  0  0  0
   -6.7828   15.7501  -32.3318 H   0  0  0  0  0  0  0  0  0  0  0  0
   -7.8174   16.4264  -33.6633 H   0  0  0  0  0  0  0  0  0  0  0  0
   -4.9458   15.5142  -33.7242 H   0  0  0  0  0  0  0  0  0  0  0  0
   -6.2690   15.3087  -34.9368 H   0  0  0  0  0  0  0  0  0  0  0  0
   -3.5044   17.4153  -34.0217 H   0  0  0  0  0  0  0  0  0  0  0  0
   -4.3815   18.8993  -34.6322 H   0  0  0  0  0  0  0  0  0  0  0  0
   -4.5375   17.5403  -32.0032 H   0  0  0  0  0  0  0  0  0  0  0  0
   -4.9079   19.2473  -32.4893 H   0  0  0  0  0  0  0  0  0  0  0  0
   -5.2486   20.4481  -32.7927 H   0  0  0  0  0  0  0  0  0  0  0  0
  1  2  1  0
  2  3  1  0
  2  4  1  0
  2  5  1  0
  5  6  1  0
  6  7  2  0
  6  8  1  0
  8  9  1  0
  9 10  1  0
 10 11  1  0
 10 12  2  0
  9 13  2  0
 13 14  1  0
 14 15  2  0
 15 16  1  0
 16 17  2  0
 17 18  1  0
 18 19  1  0
 19 20  1  0
 20 21  1  0
 21 22  1  0
 22 23  1  0
 23 24  1  0
 17 25  1  0
 25 26  2  0
 26  8  1  0
 26 14  1  0
 24 19  1  0
  1 27  1  0
  1 28  1  0
  1 29  1  0
  3 30  1  0
  3 31  1  0
  3 32  1  0
  4 33  1  0
  4 34  1  0
  4 35  1  0
 11 36  1  0
 13 37  1  0
 15 38  1  0
 16 39  1  0
 18 40  1  0
 18 41  1  0
 19 42  1  0
 20 43  1  0
 20 44  1  0
 21 45  1  0
 21 46  1  0
 23 47  1  0
 23 48  1  0
 24 49  1  0
 24 50  1  0
 25 51  1  0
M  CHG  2  11  -1  18   1
M  END
>  <UniqueID>  (13) 
12

>  <SMILES>  (13) 
CC(C)(C)OC(=O)n1c(C([NH-])=O)cc2ccc([NH2+]C3CCOCC3)cc21

>  <Energy>  (13) 
94.74730300881417

>  <Genealogy>  (13) 
CC(C)(C)OC(=O)n1c(C([NH-])=O)cc2ccc([NH2+]C3CCOCC3)cc21 (protonated)
CC(C)(C)OC(=O)n1c(C([NH-])=O)cc2ccc([NH2+]C3CCOCC3)cc21 (3D coordinates assigned)
CC(C)(C)OC(=O)n1c(C([NH-])=O)cc2ccc([NH2+]C3CCOCC3)cc21 (nonaromatic ring conformer: 94.74730300881417 kcal/mol)

>  <smiles>  (13) 
CC(C)(C)OC(=O)n1c(C(N)=O)cc2ccc(NC3CCOCC3)cc21

>  <score_type>  (13) 
oracle

>  <origin>  (13) 
adg

>  <m_score__min__energy>  (13) 
-10.68

>  <m_primary>  (13) 
energy

$$$$
13:0
     RDKit          3D

 58 61  0  0  0  0  0  0  0  0999 V2000
   -6.9300   23.6570  -32.3240 C   0  0  0  0  0  0  0  0  0  0  0  0
   -6.1260   23.5930  -31.0470 C   0  0  0  0  0  0  0  0  0  0  0  0
   -6.4500   24.7660  -30.1730 C   0  0  0  0  0  0  0  0  0  0  0  0
   -6.5560   22.3330  -30.3320 C   0  0  0  0  0  0  0  0  0  0  0  0
   -4.7290   23.4680  -31.3250 O   0  0  0  0  0  0  0  0  0  0  0  0
   -3.8180   24.0540  -30.4190 C   0  0  0  0  0  0  0  0  0  0  0  0
   -3.7700   25.3030  -30.4890 O   0  0  0  0  0  0  0  0  0  0  0  0
   -3.0660   23.2380  -29.5480 N   0  0  0  0  0  0  0  0  0  0  0  0
   -2.8650   23.4420  -28.2460 C   0  0  0  0  0  0  0  0  0  0  0  0
   -3.2990   24.4710  -27.3380 C   0  0  0  0  0  0  0  0  0  0  0  0
   -4.6230   24.8940  -27.0840 N   0  0  0  0  0  0  0  0  0  0  0  0
   -2.4130   25.1080  -26.6560 O   0  0  0  0  0  0  0  0  0  0  0  0
   -2.0620   22.3700  -27.8200 C   0  0  0  0  0  0  0  0  0  0  0  0
   -1.7990   21.5480  -28.8690 C   0  0  0  0  0  0  0  0  0  0  0  0
   -1.0690   20.3830  -28.9670 C   0  0  0  0  0  0  0  0  0  0  0  0
   -0.9490   19.7250  -30.1630 C   0  0  0  0  0  0  0  0  0  0  0  0
   -1.5750   20.2520  -31.2740 C   0  0  0  0  0  0  0  0  0  0  0  0
   -1.4520   19.5570  -32.5520 C   0  0  0  0  0  0  0  0  0  0  0  0
   -0.2540   19.4260  -33.1810 N   0  0  0  0  0  0  0  0  0  0  0  0
   -0.1710   18.7710  -34.3740 C   0  0  0  0  0  0  0  0  0  0  0  0
   -1.2920   18.2570  -34.9220 N   0  0  0  0  0  0  0  0  0  0  0  0
   -2.5030   18.3640  -34.3340 C   0  0  0  0  0  0  0  0  0  0  0  0
   -3.5390   17.8650  -34.8830 O   0  0  0  0  0  0  0  0  0  0  0  0
   -2.6080   19.0200  -33.1290 C   0  0  0  0  0  0  0  0  0  0  0  0
   -3.8220   19.1660  -32.4700 O   0  0  0  0  0  0  0  0  0  0  0  0
   -4.7930   20.0050  -33.0930 C   0  0  0  0  0  0  0  0  0  0  0  0
   -6.1790   19.6550  -32.7170 C   0  0  0  0  0  0  0  0  0  0  0  0
   -7.2560   20.4420  -33.0680 C   0  0  0  0  0  0  0  0  0  0  0  0
   -8.5400   20.0640  -32.6880 C   0  0  0  0  0  0  0  0  0  0  0  0
   -8.7900   18.9180  -31.9630 C   0  0  0  0  0  0  0  0  0  0  0  0
   -7.7060   18.1420  -31.6190 C   0  0  0  0  0  0  0  0  0  0  0  0
   -6.4270   18.4960  -31.9860 C   0  0  0  0  0  0  0  0  0  0  0  0
   -2.3070   21.4300  -31.1530 C   0  0  0  0  0  0  0  0  0  0  0  0
   -2.4370   22.1030  -29.9590 C   0  0  0  0  0  0  0  0  0  0  0  0
   -7.9993   23.7421  -32.0802 H   0  0  0  0  0  0  0  0  0  0  0  0
   -6.6169   24.5331  -32.9109 H   0  0  0  0  0  0  0  0  0  0  0  0
   -6.7594   22.7424  -32.9109 H   0  0  0  0  0  0  0  0  0  0  0  0
   -6.3682   24.4699  -29.1168 H   0  0  0  0  0  0  0  0  0  0  0  0
   -5.7441   25.5838  -30.3803 H   0  0  0  0  0  0  0  0  0  0  0  0
   -7.4756   25.1055  -30.3803 H   0  0  0  0  0  0  0  0  0  0  0  0
   -6.5019   22.4917  -29.2449 H   0  0  0  0  0  0  0  0  0  0  0  0
   -7.5896   22.0852  -30.6154 H   0  0  0  0  0  0  0  0  0  0  0  0
   -5.8896   21.5050  -30.6154 H   0  0  0  0  0  0  0  0  0  0  0  0
   -5.1630   24.4230  -26.3160 H   0  0  0  0  0  0  0  0  0  0  0  0
   -5.0420   25.6790  -27.6660 H   0  0  0  0  0  0  0  0  0  0  0  0
   -1.7009   22.2193  -26.7919 H   0  0  0  0  0  0  0  0  0  0  0  0
   -0.5756   19.9756  -28.0723 H   0  0  0  0  0  0  0  0  0  0  0  0
   -0.3654   18.7954  -30.2359 H   0  0  0  0  0  0  0  0  0  0  0  0
    0.7979   18.6629  -34.8835 H   0  0  0  0  0  0  0  0  0  0  0  0
   -1.2150   17.7560  -35.8390 H   0  0  0  0  0  0  0  0  0  0  0  0
   -4.6005   21.0463  -32.7952 H   0  0  0  0  0  0  0  0  0  0  0  0
   -4.7003   19.8674  -34.1804 H   0  0  0  0  0  0  0  0  0  0  0  0
   -7.1004   21.3648  -33.6461 H   0  0  0  0  0  0  0  0  0  0  0  0
   -9.3874   20.7032  -32.9767 H   0  0  0  0  0  0  0  0  0  0  0  0
   -9.8125   18.6357  -31.6717 H   0  0  0  0  0  0  0  0  0  0  0  0
   -7.8649   17.2207  -31.0393 H   0  0  0  0  0  0  0  0  0  0  0  0
   -5.5847   17.8507  -31.6961 H   0  0  0  0  0  0  0  0  0  0  0  0
   -2.8010   21.8392  -32.0466 H   0  0  0  0  0  0  0  0  0  0  0  0
  1  2  1  0
  2  3  1  0
  2  4  1  0
  2  5  1  0
  5  6  1  0
  6  7  2  0
  6  8  1  0
  8  9  1  0
  9 10  1  0
 10 11  1  0
 10 12  2  0
  9 13  2  0
 13 14  1  0
 14 15  2  0
 15 16  1  0
 16 17  2  0
 17 18  1  0
 18 19  1  0
 19 20  2  0
 20 21  1  0
 21 22  1  0
 22 23  2  0
 22 24  1  0
 24 25  1  0
 25 26  1  0
 26 27  1  0
 27 28  2  0
 28 29  1  0
 29 30  2  0
 30 31  1  0
 31 32  2  0
 17 33  1  0
 33 34  2  0
 34  8  1  0
 34 14  1  0
 24 18  2  0
 32 27  1  0
  1 35  1  0
  1 36  1  0
  1 37  1  0
  3 38  1  0
  3 39  1  0
  3 40  1  0
  4 41  1  0
  4 42  1  0
  4 43  1  0
 11 44  1  0
 11 45  1  0
 13 46  1  0
 15 47  1  0
 16 48  1  0
 20 49  1  0
 21 50  1  0
 26 51  1  0
 26 52  1  0
 28 53  1  0
 29 54  1  0
 30 55  1  0
 31 56  1  0
 32 57  1  0
 33 58  1  0
M  END
>  <smiles>  (14) 
CC(C)(C)OC(=O)n1c(C(N)=O)cc2ccc(-c3nc[nH]c(=O)c3OCc3ccccc3)cc21

>  <score_type>  (14) 
oracle

>  <origin>  (14) 
adg

>  <m_score__min__energy>  (14) 
-10.15

>  <m_primary>  (14) 
energy

$$$$
14:0
     RDKit          3D

 48 49  0  0  0  0  0  0  0  0999 V2000
   -1.9570   23.1880  -29.4530 C   0  0  0  0  0  0  0  0  0  0  0  0
   -3.0600   22.1980  -29.0470 C   0  0  0  0  0  0  0  0  0  0  0  0
   -4.1490   22.9600  -28.2680 C   0  0  0  0  0  0  0  0  0  0  0  0
   -2.4390   21.0930  -28.1710 C   0  0  0  0  0  0  0  0  0  0  0  0
   -3.5950   21.6410  -30.2570 O   0  0  0  0  0  0  0  0  0  0  0  0
   -4.1750   22.3560  -31.3160 C   0  0  0  0  0  0  0  0  0  0  0  0
   -3.4980   22.6750  -32.3300 O   0  0  0  0  0  0  0  0  0  0  0  0
   -5.5540   22.7500  -31.2290 N   0  0  0  0  0  0  0  0  0  0  0  0
   -6.0500   23.9800  -30.9160 C   0  0  0  0  0  0  0  0  0  0  0  0
   -5.2670   25.1340  -30.4290 C   0  0  0  0  0  0  0  0  0  0  0  0
   -3.8720   25.2390  -30.6990 N   0  0  0  0  0  0  0  0  0  0  0  0
   -5.8270   26.0170  -29.7260 O   0  0  0  0  0  0  0  0  0  0  0  0
   -7.4380   23.9930  -31.0380 C   0  0  0  0  0  0  0  0  0  0  0  0
   -7.7810   22.7200  -31.4320 C   0  0  0  0  0  0  0  0  0  0  0  0
   -9.0320   22.1750  -31.7110 C   0  0  0  0  0  0  0  0  0  0  0  0
   -9.0870   20.8340  -32.1250 C   0  0  0  0  0  0  0  0  0  0  0  0
   -7.9010   20.0700  -32.2640 C   0  0  0  0  0  0  0  0  0  0  0  0
   -7.9800   18.6290  -32.7000 C   0  0  0  0  0  0  0  0  0  0  0  0
   -6.6040   17.9410  -32.6860 C   0  0  0  0  0  0  0  0  0  0  0  0
   -5.5560   18.5910  -33.6100 C   0  0  0  0  0  0  0  0  0  0  0  0
   -4.1840   18.7880  -32.9460 C   0  0  0  0  0  0  0  0  0  0  0  0
   -3.7230   20.1640  -33.0880 N   0  0  0  0  0  0  0  0  0  0  0  0
   -6.6510   20.6600  -31.9770 C   0  0  0  0  0  0  0  0  0  0  0  0
   -6.6270   21.9900  -31.5430 C   0  0  0  0  0  0  0  0  0  0  0  0
   -1.4899   23.6072  -28.5496 H   0  0  0  0  0  0  0  0  0  0  0  0
   -1.1959   22.6643  -30.0500 H   0  0  0  0  0  0  0  0  0  0  0  0
   -2.3957   24.0011  -30.0500 H   0  0  0  0  0  0  0  0  0  0  0  0
   -3.9785   22.8407  -27.1879 H   0  0  0  0  0  0  0  0  0  0  0  0
   -4.1081   24.0276  -28.5300 H   0  0  0  0  0  0  0  0  0  0  0  0
   -5.1379   22.5558  -28.5300 H   0  0  0  0  0  0  0  0  0  0  0  0
   -2.5801   21.3441  -27.1094 H   0  0  0  0  0  0  0  0  0  0  0  0
   -2.9298   20.1330  -28.3891 H   0  0  0  0  0  0  0  0  0  0  0  0
   -1.3638   21.0131  -28.3891 H   0  0  0  0  0  0  0  0  0  0  0  0
   -3.4900   26.0350  -31.2570 H   0  0  0  0  0  0  0  0  0  0  0  0
   -8.1155   24.8407  -30.8577 H   0  0  0  0  0  0  0  0  0  0  0  0
   -9.9479   22.7758  -31.6103 H   0  0  0  0  0  0  0  0  0  0  0  0
  -10.0608   20.3716  -32.3437 H   0  0  0  0  0  0  0  0  0  0  0  0
   -8.6530   18.0889  -32.0178 H   0  0  0  0  0  0  0  0  0  0  0  0
   -8.3568   18.6091  -33.7332 H   0  0  0  0  0  0  0  0  0  0  0  0
   -6.2175   17.9664  -31.6565 H   0  0  0  0  0  0  0  0  0  0  0  0
   -6.7611   16.9189  -33.0609 H   0  0  0  0  0  0  0  0  0  0  0  0
   -5.4253   17.9482  -34.4930 H   0  0  0  0  0  0  0  0  0  0  0  0
   -5.9334   19.5908  -33.8707 H   0  0  0  0  0  0  0  0  0  0  0  0
   -4.2648   18.5451  -31.8762 H   0  0  0  0  0  0  0  0  0  0  0  0
   -3.4590   18.1246  -33.4403 H   0  0  0  0  0  0  0  0  0  0  0  0
   -4.5510   20.7650  -33.3080 H   0  0  0  0  0  0  0  0  0  0  0  0
   -3.3700   20.4800  -32.1550 H   0  0  0  0  0  0  0  0  0  0  0  0
   -5.7185   20.0880  -32.0918 H   0  0  0  0  0  0  0  0  0  0  0  0
  1  2  1  0
  2  3  1  0
  2  4  1  0
  2  5  1  0
  5  6  1  0
  6  7  2  0
  6  8  1  0
  8  9  1  0
  9 10  1  0
 10 11  1  0
 10 12  2  0
  9 13  2  0
 13 14  1  0
 14 15  2  0
 15 16  1  0
 16 17  2  0
 17 18  1  0
 18 19  1  0
 19 20  1  0
 20 21  1  0
 21 22  1  0
 17 23  1  0
 23 24  2  0
 24  8  1  0
 24 14  1  0
  1 25  1  0
  1 26  1  0
  1 27  1  0
  3 28  1  0
  3 29  1  0
  3 30  1  0
  4 31  1  0
  4 32  1  0
  4 33  1  0
 11 34  1  0
 13 35  1  0
 15 36  1  0
 16 37  1  0
 18 38  1  0
 18 39  1  0
 19 40  1  0
 19 41  1  0
 20 42  1  0
 20 43  1  0
 21 44  1  0
 21 45  1  0
 22 46  1  0
 22 47  1  0
 23 48  1  0
M  CHG  1  11  -1
M  END
>  <UniqueID>  (15) 
13

>  <SMILES>  (15) 
CC(C)(C)OC(=O)n1c(C([NH-])=O)cc2ccc(CCCCN)cc21

>  <Energy>  (15) 
75.6245437355911

>  <Genealogy>  (15) 
CC(C)(C)OC(=O)n1c(C([NH-])=O)cc2ccc(CCCCN)cc21 (protonated)
CC(C)(C)OC(=O)n1c(C([NH-])=O)cc2ccc(CCCCN)cc21 (3D coordinates assigned)
CC(C)(C)OC(=O)n1c(C([NH-])=O)cc2ccc(CCCCN)cc21 (optimized conformer: 75.6245437355911 kcal/mol)

>  <smiles>  (15) 
CC(C)(C)OC(=O)n1c(C(N)=O)cc2ccc(CCCCN)cc21

>  <score_type>  (15) 
oracle

>  <origin>  (15) 
adg

>  <m_score__min__energy>  (15) 
-10.529999999999999

>  <m_primary>  (15) 
energy

$$$$
15:0
     RDKit          3D

 51 54  0  0  0  0  0  0  0  0999 V2000
   -5.1540   11.7340  -33.9750 C   0  0  0  0  0  0  0  0  0  0  0  0
   -4.8200   13.2320  -34.1060 C   0  0  0  0  0  0  0  0  0  0  0  0
   -4.3220   13.7980  -32.7620 C   0  0  0  0  0  0  0  0  0  0  0  0
   -6.0910   13.9890  -34.5220 C   0  0  0  0  0  0  0  0  0  0  0  0
   -3.8450   13.4460  -35.1370 O   0  0  0  0  0  0  0  0  0  0  0  0
   -3.3820   14.6840  -35.6050 C   0  0  0  0  0  0  0  0  0  0  0  0
   -3.1740   14.8640  -36.8350 O   0  0  0  0  0  0  0  0  0  0  0  0
   -3.1280   15.7590  -34.6810 N   0  0  0  0  0  0  0  0  0  0  0  0
   -1.9730   15.9270  -33.9910 C   0  0  0  0  0  0  0  0  0  0  0  0
   -2.0410   17.0490  -33.1760 C   0  0  0  0  0  0  0  0  0  0  0  0
   -3.2930   17.5760  -33.3920 C   0  0  0  0  0  0  0  0  0  0  0  0
   -3.8910   18.7040  -32.8350 C   0  0  0  0  0  0  0  0  0  0  0  0
   -5.2050   19.0350  -33.2350 C   0  0  0  0  0  0  0  0  0  0  0  0
   -5.8820   20.2290  -32.6690 C   0  0  0  0  0  0  0  0  0  0  0  0
   -7.2970   20.3350  -32.7100 C   0  0  0  0  0  0  0  0  0  0  0  0
   -7.9480   21.4660  -32.1900 C   0  0  0  0  0  0  0  0  0  0  0  0
   -7.1660   22.4680  -31.6270 C   0  0  0  0  0  0  0  0  0  0  0  0
   -7.5360   23.6780  -31.0870 C   0  0  0  0  0  0  0  0  0  0  0  0
   -6.3470   24.2830  -30.6930 C   0  0  0  0  0  0  0  0  0  0  0  0
   -6.2900   25.5880  -30.0050 C   0  0  0  0  0  0  0  0  0  0  0  0
   -5.4080   26.6210  -30.4480 N   0  0  0  0  0  0  0  0  0  0  0  0
   -6.9900   25.7750  -28.9740 O   0  0  0  0  0  0  0  0  0  0  0  0
   -5.2790   23.4890  -30.9890 N   0  0  0  0  0  0  0  0  0  0  0  0
   -3.8850   23.8070  -30.8420 C   0  0  0  0  0  0  0  0  0  0  0  0
   -3.0090   22.9180  -31.0020 O   0  0  0  0  0  0  0  0  0  0  0  0
   -3.4880   25.0990  -30.5190 O   0  0  0  0  0  0  0  0  0  0  0  0
   -5.7990   22.3770  -31.5580 C   0  0  0  0  0  0  0  0  0  0  0  0
   -5.1230   21.2720  -32.0890 C   0  0  0  0  0  0  0  0  0  0  0  0
   -5.8660   18.2160  -34.1870 C   0  0  0  0  0  0  0  0  0  0  0  0
   -5.2350   17.0830  -34.7310 C   0  0  0  0  0  0  0  0  0  0  0  0
   -3.9360   16.7800  -34.3070 C   0  0  0  0  0  0  0  0  0  0  0  0
   -5.2143   11.4635  -32.9105 H   0  0  0  0  0  0  0  0  0  0  0  0
   -6.1197   11.5298  -34.4605 H   0  0  0  0  0  0  0  0  0  0  0  0
   -4.3665   11.1389  -34.4605 H   0  0  0  0  0  0  0  0  0  0  0  0
   -4.8010   13.2536  -31.9348 H   0  0  0  0  0  0  0  0  0  0  0  0
   -3.2305   13.6789  -32.6959 H   0  0  0  0  0  0  0  0  0  0  0  0
   -4.5791   14.8655  -32.6959 H   0  0  0  0  0  0  0  0  0  0  0  0
   -6.6355   14.3133  -33.6229 H   0  0  0  0  0  0  0  0  0  0  0  0
   -5.8141   14.8694  -35.1204 H   0  0  0  0  0  0  0  0  0  0  0  0
   -6.7333   13.3261  -35.1204 H   0  0  0  0  0  0  0  0  0  0  0  0
   -1.0991   15.2633  -34.0668 H   0  0  0  0  0  0  0  0  0  0  0  0
   -1.2612   17.4338  -32.5023 H   0  0  0  0  0  0  0  0  0  0  0  0
   -3.3531   19.3223  -32.1013 H   0  0  0  0  0  0  0  0  0  0  0  0
   -7.8905   19.5222  -33.1540 H   0  0  0  0  0  0  0  0  0  0  0  0
   -9.0437   21.5561  -32.2272 H   0  0  0  0  0  0  0  0  0  0  0  0
   -8.5547   24.0811  -30.9879 H   0  0  0  0  0  0  0  0  0  0  0  0
   -4.6960   26.4390  -31.1890 H   0  0  0  0  0  0  0  0  0  0  0  0
   -5.4080   27.5500  -29.9720 H   0  0  0  0  0  0  0  0  0  0  0  0
   -4.0249   21.2162  -32.0558 H   0  0  0  0  0  0  0  0  0  0  0  0
   -6.8878   18.4714  -34.5043 H   0  0  0  0  0  0  0  0  0  0  0  0
   -5.7490   16.4514  -35.4705 H   0  0  0  0  0  0  0  0  0  0  0  0
  1  2  1  0
  2  3  1  0
  2  4  1  0
  2  5  1  0
  5  6  1  0
  6  7  2  0
  6  8  1  0
  8  9  1  0
  9 10  2  0
 10 11  1  0
 11 12  2  0
 12 13  1  0
 13 14  1  0
 14 15  2  0
 15 16  1  0
 16 17  2  0
 17 18  1  0
 18 19  2  0
 19 20  1  0
 20 21  1  0
 20 22  2  0
 19 23  1  0
 23 24  1  0
 24 25  2  0
 24 26  1  0
 23 27  1  0
 27 28  2  0
 13 29  2  0
 29 30  1  0
 30 31  2  0
 31  8  1  0
 31 11  1  0
 28 14  1  0
 27 17  1  0
  1 32  1  0
  1 33  1  0
  1 34  1  0
  3 35  1  0
  3 36  1  0
  3 37  1  0
  4 38  1  0
  4 39  1  0
  4 40  1  0
  9 41  1  0
 10 42  1  0
 12 43  1  0
 15 44  1  0
 16 45  1  0
 18 46  1  0
 21 47  1  0
 21 48  1  0
 28 49  1  0
 29 50  1  0
 30 51  1  0
M  CHG  1  26  -1
M  END
>  <UniqueID>  (16) 
14

>  <SMILES>  (16) 
CC(C)(C)OC(=O)n1ccc2cc(-c3ccc4cc(C(N)=O)n(C(=O)[O-])c4c3)ccc21

>  <Energy>  (16) 
131.17386958345426

>  <Genealogy>  (16) 
CC(C)(C)OC(=O)n1ccc2cc(-c3ccc4cc(C(N)=O)n(C(=O)[O-])c4c3)ccc21 (protonated)
CC(C)(C)OC(=O)n1ccc2cc(-c3ccc4cc(C(N)=O)n(C(=O)[O-])c4c3)ccc21 (3D coordinates assigned)
CC(C)(C)OC(=O)n1ccc2cc(-c3ccc4cc(C(N)=O)n(C(=O)[O-])c4c3)ccc21 (optimized conformer: 131.17386958345426 kcal/mol)

>  <smiles>  (16) 
CC(C)(C)OC(=O)n1ccc2cc(-c3ccc4cc(C(N)=O)n(C(=O)O)c4c3)ccc21

>  <score_type>  (16) 
oracle

>  <origin>  (16) 
adg

>  <m_score__min__energy>  (16) 
-10

>  <m_primary>  (16) 
energy

$$$$
16:0
     RDKit          3D

 59 61  0  0  0  0  0  0  0  0999 V2000
   -2.6850   19.5610  -33.8560 C   0  0  0  0  0  0  0  0  0  0  0  0
   -2.6420   18.2670  -33.0470 C   0  0  0  0  0  0  0  0  0  0  0  0
   -3.0660   17.0490  -33.8830 C   0  0  0  0  0  0  0  0  0  0  0  0
   -4.5040   16.7270  -33.7240 N   0  0  0  0  0  0  0  0  0  0  0  0
   -5.2980   17.2290  -34.8770 C   0  0  0  0  0  0  0  0  0  0  0  0
   -5.9070   18.6100  -34.6070 C   0  0  0  0  0  0  0  0  0  0  0  0
   -6.9160   18.5320  -33.4390 C   0  0  0  0  0  0  0  0  0  0  0  0
   -7.1400   19.8890  -32.7880 C   0  0  0  0  0  0  0  0  0  0  0  0
   -8.4400   20.2530  -32.3460 C   0  0  0  0  0  0  0  0  0  0  0  0
   -8.6590   21.4690  -31.6750 C   0  0  0  0  0  0  0  0  0  0  0  0
   -7.5670   22.3030  -31.4610 C   0  0  0  0  0  0  0  0  0  0  0  0
   -7.4800   23.5030  -30.7900 C   0  0  0  0  0  0  0  0  0  0  0  0
   -6.1370   23.8680  -30.8570 C   0  0  0  0  0  0  0  0  0  0  0  0
   -5.6000   25.1240  -30.2930 C   0  0  0  0  0  0  0  0  0  0  0  0
   -6.1540   25.7080  -29.1140 N   0  0  0  0  0  0  0  0  0  0  0  0
   -4.6020   25.6680  -30.8370 O   0  0  0  0  0  0  0  0  0  0  0  0
   -5.4220   22.9280  -31.5330 N   0  0  0  0  0  0  0  0  0  0  0  0
   -4.0030   22.8660  -31.7260 C   0  0  0  0  0  0  0  0  0  0  0  0
   -3.5330   22.2030  -32.6900 O   0  0  0  0  0  0  0  0  0  0  0  0
   -3.1600   23.5480  -30.8360 O   0  0  0  0  0  0  0  0  0  0  0  0
   -2.5530   23.0130  -29.6520 C   0  0  0  0  0  0  0  0  0  0  0  0
   -3.6920   22.6230  -28.6980 C   0  0  0  0  0  0  0  0  0  0  0  0
   -1.7260   21.7560  -29.9800 C   0  0  0  0  0  0  0  0  0  0  0  0
   -1.6760   24.0830  -28.9740 C   0  0  0  0  0  0  0  0  0  0  0  0
   -6.3100   21.9790  -31.8980 C   0  0  0  0  0  0  0  0  0  0  0  0
   -6.0580   20.7690  -32.5500 C   0  0  0  0  0  0  0  0  0  0  0  0
   -6.5250   17.4530  -32.3960 C   0  0  0  0  0  0  0  0  0  0  0  0
   -5.0160   17.1630  -32.3970 C   0  0  0  0  0  0  0  0  0  0  0  0
   -2.7136   20.4210  -33.1708 H   0  0  0  0  0  0  0  0  0  0  0  0
   -1.7886   19.6270  -34.4901 H   0  0  0  0  0  0  0  0  0  0  0  0
   -3.5839   19.5673  -34.4901 H   0  0  0  0  0  0  0  0  0  0  0  0
   -1.6154   18.1089  -32.6849 H   0  0  0  0  0  0  0  0  0  0  0  0
   -3.3490   18.3666  -32.2102 H   0  0  0  0  0  0  0  0  0  0  0  0
   -2.8670   17.2620  -34.9437 H   0  0  0  0  0  0  0  0  0  0  0  0
   -2.4875   16.1825  -33.5302 H   0  0  0  0  0  0  0  0  0  0  0  0
   -4.6404   17.2981  -35.7560 H   0  0  0  0  0  0  0  0  0  0  0  0
   -6.1250   16.5242  -35.0484 H   0  0  0  0  0  0  0  0  0  0  0  0
   -5.1045   19.3159  -34.3468 H   0  0  0  0  0  0  0  0  0  0  0  0
   -6.4318   18.9527  -35.5110 H   0  0  0  0  0  0  0  0  0  0  0  0
   -7.8761   18.2197  -33.8756 H   0  0  0  0  0  0  0  0  0  0  0  0
   -9.2861   19.5749  -32.5311 H   0  0  0  0  0  0  0  0  0  0  0  0
   -9.6642   21.7522  -31.3296 H   0  0  0  0  0  0  0  0  0  0  0  0
   -8.2976   24.0559  -30.3043 H   0  0  0  0  0  0  0  0  0  0  0  0
   -5.8080   26.6340  -28.7760 H   0  0  0  0  0  0  0  0  0  0  0  0
   -6.8440   25.1890  -28.5270 H   0  0  0  0  0  0  0  0  0  0  0  0
   -3.3545   22.7386  -27.6574 H   0  0  0  0  0  0  0  0  0  0  0  0
   -4.5595   23.2753  -28.8767 H   0  0  0  0  0  0  0  0  0  0  0  0
   -3.9776   21.5759  -28.8767 H   0  0  0  0  0  0  0  0  0  0  0  0
   -1.4077   21.2722  -29.0448 H   0  0  0  0  0  0  0  0  0  0  0  0
   -2.3401   21.0553  -30.5647 H   0  0  0  0  0  0  0  0  0  0  0  0
   -0.8395   22.0426  -30.5647 H   0  0  0  0  0  0  0  0  0  0  0  0
   -1.7566   23.9847  -27.8814 H   0  0  0  0  0  0  0  0  0  0  0  0
   -0.6280   23.9448  -29.2783 H   0  0  0  0  0  0  0  0  0  0  0  0
   -2.0173   25.0835  -29.2783 H   0  0  0  0  0  0  0  0  0  0  0  0
   -5.0394   20.5061  -32.8716 H   0  0  0  0  0  0  0  0  0  0  0  0
   -6.8172   17.8052  -31.3957 H   0  0  0  0  0  0  0  0  0  0  0  0
   -7.0474   16.5222  -32.6617 H   0  0  0  0  0  0  0  0  0  0  0  0
   -4.4838   18.0789  -32.1006 H   0  0  0  0  0  0  0  0  0  0  0  0
   -4.8413   16.3371  -31.6917 H   0  0  0  0  0  0  0  0  0  0  0  0
  1  2  1  0
  2  3  1  0
  3  4  1  0
  4  5  1  0
  5  6  1  0
  6  7  1  0
  7  8  1  0
  8  9  2  0
  9 10  1  0
 10 11  2  0
 11 12  1  0
 12 13  2  0
 13 14  1  0
 14 15  1  0
 14 16  2  0
 13 17  1  0
 17 18  1  0
 18 19  2  0
 18 20  1  0
 20 21  1  0
 21 22  1  0
 21 23  1  0
 21 24  1  0
 17 25  1  0
 25 26  2  0
  7 27  1  0
 27 28  1  0
 28  4  1  0
 26  8  1  0
 25 11  1  0
  1 29  1  0
  1 30  1  0
  1 31  1  0
  2 32  1  0
  2 33  1  0
  3 34  1  0
  3 35  1  0
  5 36  1  0
  5 37  1  0
  6 38  1  0
  6 39  1  0
  7 40  1  0
  9 41  1  0
 10 42  1  0
 12 43  1  0
 15 44  1  0
 15 45  1  0
 22 46  1  0
 22 47  1  0
 22 48  1  0
 23 49  1  0
 23 50  1  0
 23 51  1  0
 24 52  1  0
 24 53  1  0
 24 54  1  0
 26 55  1  0
 27 56  1  0
 27 57  1  0
 28 58  1  0
 28 59  1  0
M  END
>  <UniqueID>  (17) 
15

>  <SMILES>  (17) 
CCCN1CCC(c2ccc3cc(C(N)=O)n(C(=O)OC(C)(C)C)c3c2)CC1

>  <Energy>  (17) 
98.50641587266364

>  <Genealogy>  (17) 
CCCN1CCC(c2ccc3cc(C(N)=O)n(C(=O)OC(C)(C)C)c3c2)CC1 (3D coordinates assigned)
CCCN1CCC(c2ccc3cc(C(N)=O)n(C(=O)OC(C)(C)C)c3c2)CC1 (nonaromatic ring conformer: 98.50641587266364 kcal/mol)

>  <smiles>  (17) 
CCCN1CCC(c2ccc3cc(C(N)=O)n(C(=O)OC(C)(C)C)c3c2)CC1

>  <score_type>  (17) 
oracle

>  <origin>  (17) 
adg

>  <m_score__min__energy>  (17) 
-10.6

>  <m_primary>  (17) 
energy

$$$$
17:0
     RDKit          3D

 56 60  0  0  0  0  0  0  0  0999 V2000
   -2.8030   21.1570  -33.4330 C   0  0  0  0  0  0  0  0  0  0  0  0
   -2.2050   21.5820  -32.0970 C   0  0  0  0  0  0  0  0  0  0  0  0
   -3.2340   21.7880  -31.1300 O   0  0  0  0  0  0  0  0  0  0  0  0
   -4.0140   22.9500  -31.0690 C   0  0  0  0  0  0  0  0  0  0  0  0
   -3.4700   24.0740  -30.8990 O   0  0  0  0  0  0  0  0  0  0  0  0
   -5.4420   22.8550  -31.2060 N   0  0  0  0  0  0  0  0  0  0  0  0
   -6.3590   23.8330  -30.9610 C   0  0  0  0  0  0  0  0  0  0  0  0
   -6.0820   25.1410  -30.3350 C   0  0  0  0  0  0  0  0  0  0  0  0
   -5.0520   25.9970  -30.8340 N   0  0  0  0  0  0  0  0  0  0  0  0
   -6.7270   25.4850  -29.3090 O   0  0  0  0  0  0  0  0  0  0  0  0
   -7.6330   23.4180  -31.3380 C   0  0  0  0  0  0  0  0  0  0  0  0
   -7.4700   22.1380  -31.8150 C   0  0  0  0  0  0  0  0  0  0  0  0
   -8.4090   21.2560  -32.3370 C   0  0  0  0  0  0  0  0  0  0  0  0
   -7.9580   20.0080  -32.7930 C   0  0  0  0  0  0  0  0  0  0  0  0
   -6.5810   19.6590  -32.7340 C   0  0  0  0  0  0  0  0  0  0  0  0
   -6.1260   18.3340  -33.2340 C   0  0  0  0  0  0  0  0  0  0  0  0
   -6.9070   17.1790  -33.3850 C   0  0  0  0  0  0  0  0  0  0  0  0
   -6.1770   16.0950  -33.8780 C   0  0  0  0  0  0  0  0  0  0  0  0
   -6.6800   14.8500  -34.0780 N   0  0  0  0  0  0  0  0  0  0  0  0
   -5.8710   13.8460  -34.5290 C   0  0  0  0  0  0  0  0  0  0  0  0
   -4.5090   14.0900  -34.7920 C   0  0  0  0  0  0  0  0  0  0  0  0
   -3.9800   15.3770  -34.6110 C   0  0  0  0  0  0  0  0  0  0  0  0
   -2.6240   15.6130  -34.8710 O   0  0  0  0  0  0  0  0  0  0  0  0
   -1.8520   16.6060  -34.2490 C   0  0  0  0  0  0  0  0  0  0  0  0
   -1.3350   17.7000  -34.9640 C   0  0  0  0  0  0  0  0  0  0  0  0
   -0.5670   18.6690  -34.3110 C   0  0  0  0  0  0  0  0  0  0  0  0
   -0.2950   18.5500  -32.9340 C   0  0  0  0  0  0  0  0  0  0  0  0
    0.4640   19.4990  -32.2330 O   0  0  0  0  0  0  0  0  0  0  0  0
    0.4320   19.6660  -30.8190 C   0  0  0  0  0  0  0  0  0  0  0  0
   -0.7950   17.4480  -32.2330 C   0  0  0  0  0  0  0  0  0  0  0  0
   -1.5630   16.4780  -32.8870 C   0  0  0  0  0  0  0  0  0  0  0  0
   -4.8460   16.3700  -34.1340 C   0  0  0  0  0  0  0  0  0  0  0  0
   -4.5390   17.9670  -33.7200 S   0  0  0  0  0  0  0  0  0  0  0  0
   -5.6580   20.5920  -32.1970 C   0  0  0  0  0  0  0  0  0  0  0  0
   -6.1400   21.8220  -31.7280 C   0  0  0  0  0  0  0  0  0  0  0  0
   -3.6878   20.5281  -33.2552 H   0  0  0  0  0  0  0  0  0  0  0  0
   -3.0967   22.0502  -34.0040 H   0  0  0  0  0  0  0  0  0  0  0  0
   -2.0561   20.5860  -34.0040 H   0  0  0  0  0  0  0  0  0  0  0  0
   -1.5243   20.7956  -31.7389 H   0  0  0  0  0  0  0  0  0  0  0  0
   -1.6560   22.5248  -32.2376 H   0  0  0  0  0  0  0  0  0  0  0  0
   -4.8900   26.9310  -30.3960 H   0  0  0  0  0  0  0  0  0  0  0  0
   -4.3930   25.6720  -31.5740 H   0  0  0  0  0  0  0  0  0  0  0  0
   -8.5696   23.9908  -31.2692 H   0  0  0  0  0  0  0  0  0  0  0  0
   -9.4734   21.5282  -32.3910 H   0  0  0  0  0  0  0  0  0  0  0  0
   -8.6816   19.2879  -33.2028 H   0  0  0  0  0  0  0  0  0  0  0  0
   -7.9787   17.1318  -33.1415 H   0  0  0  0  0  0  0  0  0  0  0  0
   -6.2862   12.8398  -34.6879 H   0  0  0  0  0  0  0  0  0  0  0  0
   -3.8604   13.2722  -35.1391 H   0  0  0  0  0  0  0  0  0  0  0  0
   -1.5353   17.7943  -36.0415 H   0  0  0  0  0  0  0  0  0  0  0  0
   -0.1736   19.5277  -34.8749 H   0  0  0  0  0  0  0  0  0  0  0  0
    0.6175   18.6977  -30.3311 H   0  0  0  0  0  0  0  0  0  0  0  0
    1.2090   20.3837  -30.5169 H   0  0  0  0  0  0  0  0  0  0  0  0
   -0.5552   20.0456  -30.5169 H   0  0  0  0  0  0  0  0  0  0  0  0
   -0.5829   17.3428  -31.1588 H   0  0  0  0  0  0  0  0  0  0  0  0
   -1.9413   15.6103  -32.3266 H   0  0  0  0  0  0  0  0  0  0  0  0
   -4.5848   20.3552  -32.1494 H   0  0  0  0  0  0  0  0  0  0  0  0
  1  2  1  0
  2  3  1  0
  3  4  1  0
  4  5  2  0
  4  6  1  0
  6  7  1  0
  7  8  1  0
  8  9  1  0
  8 10  2  0
  7 11  2  0
 11 12  1  0
 12 13  2  0
 13 14  1  0
 14 15  2  0
 15 16  1  0
 16 17  2  0
 17 18  1  0
 18 19  2  0
 19 20  1  0
 20 21  2  0
 21 22  1  0
 22 23  1  0
 23 24  1  0
 24 25  2  0
 25 26  1  0
 26 27  2  0
 27 28  1  0
 28 29  1  0
 27 30  1  0
 30 31  2  0
 22 32  2  0
 32 33  1  0
 15 34  1  0
 34 35  2  0
 35  6  1  0
 35 12  1  0
 33 16  1  0
 32 18  1  0
 31 24  1  0
  1 36  1  0
  1 37  1  0
  1 38  1  0
  2 39  1  0
  2 40  1  0
  9 41  1  0
  9 42  1  0
 11 43  1  0
 13 44  1  0
 14 45  1  0
 17 46  1  0
 20 47  1  0
 21 48  1  0
 25 49  1  0
 26 50  1  0
 29 51  1  0
 29 52  1  0
 29 53  1  0
 30 54  1  0
 31 55  1  0
 34 56  1  0
M  END
>  <UniqueID>  (18) 
16

>  <SMILES>  (18) 
CCOC(=O)n1c(C(N)=O)cc2ccc(-c3cc4nccc(Oc5ccc(OC)cc5)c4s3)cc21

>  <Energy>  (18) 
139.11071389516303

>  <Genealogy>  (18) 
CCOC(=O)n1c(C(N)=O)cc2ccc(-c3cc4nccc(Oc5ccc(OC)cc5)c4s3)cc21 (3D coordinates assigned)
CCOC(=O)n1c(C(N)=O)cc2ccc(-c3cc4nccc(Oc5ccc(OC)cc5)c4s3)cc21 (optimized conformer: 139.11071389516303 kcal/mol)

>  <smiles>  (18) 
CCOC(=O)n1c(C(N)=O)cc2ccc(-c3cc4nccc(Oc5ccc(OC)cc5)c4s3)cc21

>  <score_type>  (18) 
oracle

>  <origin>  (18) 
adg

>  <m_score__min__energy>  (18) 
-9.1600000000000001

>  <m_primary>  (18) 
energy

$$$$
18:0
     RDKit          3D

 41 44  0  0  0  0  0  0  0  0999 V2000
   -1.3880   22.4790  -26.7590 C   0  0  0  0  0  0  0  0  0  0  0  0
   -1.4620   23.7670  -27.5110 C   0  0  0  0  0  0  0  0  0  0  0  0
   -0.7550   24.8370  -27.2320 O   0  0  0  0  0  0  0  0  0  0  0  0
   -1.1030   25.7390  -28.1210 C   0  0  0  0  0  0  0  0  0  0  0  0
   -0.6250   26.9020  -28.1570 O   0  0  0  0  0  0  0  0  0  0  0  0
   -2.0080   25.2970  -28.9630 O   0  0  0  0  0  0  0  0  0  0  0  0
   -2.2540   24.0580  -28.6090 C   0  0  0  0  0  0  0  0  0  0  0  0
   -3.2300   23.1580  -29.3030 C   0  0  0  0  0  0  0  0  0  0  0  0
   -2.9610   23.1300  -30.7020 O   0  0  0  0  0  0  0  0  0  0  0  0
   -3.9170   22.7690  -31.6590 C   0  0  0  0  0  0  0  0  0  0  0  0
   -3.5610   22.2690  -32.7610 O   0  0  0  0  0  0  0  0  0  0  0  0
   -5.3130   22.9510  -31.3730 N   0  0  0  0  0  0  0  0  0  0  0  0
   -5.9340   24.0770  -30.9200 C   0  0  0  0  0  0  0  0  0  0  0  0
   -5.2650   25.3160  -30.4740 C   0  0  0  0  0  0  0  0  0  0  0  0
   -3.9600   25.6550  -30.9360 N   0  0  0  0  0  0  0  0  0  0  0  0
   -5.8340   26.0640  -29.6340 O   0  0  0  0  0  0  0  0  0  0  0  0
   -7.3100   23.8770  -30.8480 C   0  0  0  0  0  0  0  0  0  0  0  0
   -7.5150   22.5810  -31.2650 C   0  0  0  0  0  0  0  0  0  0  0  0
   -8.6950   21.8600  -31.3990 C   0  0  0  0  0  0  0  0  0  0  0  0
   -8.6110   20.5430  -31.8790 C   0  0  0  0  0  0  0  0  0  0  0  0
   -7.3620   19.9680  -32.2250 C   0  0  0  0  0  0  0  0  0  0  0  0
   -7.3690   18.5410  -32.7470 C   0  0  0  0  0  0  0  0  0  0  0  0
   -6.1630   18.0880  -33.5580 C   0  0  0  0  0  0  0  0  0  0  0  0
   -6.3650   17.5700  -32.1400 C   0  0  0  0  0  0  0  0  0  0  0  0
   -6.1810   20.7410  -32.0730 C   0  0  0  0  0  0  0  0  0  0  0  0
   -6.2940   22.0440  -31.5750 C   0  0  0  0  0  0  0  0  0  0  0  0
   -1.3998   22.6841  -25.6784 H   0  0  0  0  0  0  0  0  0  0  0  0
   -2.2515   21.8505  -27.0223 H   0  0  0  0  0  0  0  0  0  0  0  0
   -0.4582   21.9536  -27.0223 H   0  0  0  0  0  0  0  0  0  0  0  0
   -3.1404   22.1405  -28.8948 H   0  0  0  0  0  0  0  0  0  0  0  0
   -4.2492   23.5383  -29.1399 H   0  0  0  0  0  0  0  0  0  0  0  0
   -3.1070   25.2880  -30.4600 H   0  0  0  0  0  0  0  0  0  0  0  0
   -8.0724   24.6015  -30.5259 H   0  0  0  0  0  0  0  0  0  0  0  0
   -9.6653   22.3071  -31.1371 H   0  0  0  0  0  0  0  0  0  0  0  0
   -9.5294   19.9476  -31.9884 H   0  0  0  0  0  0  0  0  0  0  0  0
   -8.4578   18.5380  -32.9036 H   0  0  0  0  0  0  0  0  0  0  0  0
   -6.2990   17.4120  -34.4151 H   0  0  0  0  0  0  0  0  0  0  0  0
   -5.3474   18.5991  -34.0905 H   0  0  0  0  0  0  0  0  0  0  0  0
   -6.6471   16.5200  -31.9729 H   0  0  0  0  0  0  0  0  0  0  0  0
   -5.7560   17.5520  -31.2241 H   0  0  0  0  0  0  0  0  0  0  0  0
   -5.1986   20.3249  -32.3408 H   0  0  0  0  0  0  0  0  0  0  0  0
  1  2  1  0
  2  3  1  0
  3  4  1  0
  4  5  2  0
  4  6  1  0
  6  7  1  0
  7  8  1  0
  8  9  1  0
  9 10  1  0
 10 11  2  0
 10 12  1  0
 12 13  1  0
 13 14  1  0
 14 15  1  0
 14 16  2  0
 13 17  2  0
 17 18  1  0
 18 19  2  0
 19 20  1  0
 20 21  2  0
 21 22  1  0
 22 23  1  0
 23 24  1  0
 21 25  1  0
 25 26  2  0
  7  2  2  0
 26 12  1  0
 26 18  1  0
 24 22  1  0
  1 27  1  0
  1 28  1  0
  1 29  1  0
  8 30  1  0
  8 31  1  0
 15 32  1  0
 17 33  1  0
 19 34  1  0
 20 35  1  0
 22 36  1  0
 23 37  1  0
 23 38  1  0
 24 39  1  0
 24 40  1  0
 25 41  1  0
M  CHG  1  15  -1
M  END
>  <UniqueID>  (19) 
17

>  <SMILES>  (19) 
Cc1oc(=O)oc1COC(=O)n1c(C([NH-])=O)cc2ccc(C3CC3)cc21

>  <Energy>  (19) 
380.40131355965445

>  <Genealogy>  (19) 
Cc1oc(=O)oc1COC(=O)n1c(C([NH-])=O)cc2ccc(C3CC3)cc21 (protonated)
Cc1oc(=O)oc1COC(=O)n1c(C([NH-])=O)cc2ccc(C3CC3)cc21 (3D coordinates assigned)
Cc1oc(=O)oc1COC(=O)n1c(C([NH-])=O)cc2ccc(C3CC3)cc21 (nonaromatic ring conformer: 380.40131355965445 kcal/mol)

>  <smiles>  (19) 
Cc1oc(=O)oc1COC(=O)n1c(C(N)=O)cc2ccc(C3CC3)cc21

>  <score_type>  (19) 
oracle

>  <origin>  (19) 
adg

>  <m_score__min__energy>  (19) 
-11.6

>  <m_primary>  (19) 
energy

$$$$
19:0
     RDKit          3D

 59 61  0  0  0  0  0  0  0  0999 V2000
   -4.0330   22.7170  -28.0090 C   0  0  0  0  0  0  0  0  0  0  0  0
   -2.9320   21.8790  -28.6770 C   0  0  0  0  0  0  0  0  0  0  0  0
   -2.7030   20.6050  -27.8410 C   0  0  0  0  0  0  0  0  0  0  0  0
   -1.6450   22.7190  -28.7490 C   0  0  0  0  0  0  0  0  0  0  0  0
   -3.3920   21.5490  -29.9960 O   0  0  0  0  0  0  0  0  0  0  0  0
   -3.8690   22.4480  -30.9630 C   0  0  0  0  0  0  0  0  0  0  0  0
   -3.0830   22.9890  -31.7830 O   0  0  0  0  0  0  0  0  0  0  0  0
   -5.2700   22.7650  -31.0000 N   0  0  0  0  0  0  0  0  0  0  0  0
   -5.8470   23.9960  -30.8900 C   0  0  0  0  0  0  0  0  0  0  0  0
   -5.1560   25.2520  -30.5310 C   0  0  0  0  0  0  0  0  0  0  0  0
   -3.7390   25.2920  -30.3920 N   0  0  0  0  0  0  0  0  0  0  0  0
   -5.8280   26.2930  -30.2990 O   0  0  0  0  0  0  0  0  0  0  0  0
   -7.2230   23.9130  -31.0900 C   0  0  0  0  0  0  0  0  0  0  0  0
   -7.4760   22.5800  -31.3220 C   0  0  0  0  0  0  0  0  0  0  0  0
   -8.6780   21.9320  -31.5890 C   0  0  0  0  0  0  0  0  0  0  0  0
   -8.6430   20.5460  -31.8100 C   0  0  0  0  0  0  0  0  0  0  0  0
   -7.4120   19.8310  -31.7760 C   0  0  0  0  0  0  0  0  0  0  0  0
   -7.3460   18.3260  -31.9670 C   0  0  1  0  0  0  0  0  0  0  0  0
   -7.1320   17.8890  -33.4110 C   0  0  0  0  0  0  0  0  0  0  0  0
   -5.8420   17.2510  -33.1010 N   0  0  1  0  0  0  0  0  0  0  0  0
   -4.7030   17.8430  -33.7650 C   0  0  0  0  0  0  0  0  0  0  0  0
   -4.7010   17.9630  -35.0220 O   0  0  0  0  0  0  0  0  0  0  0  0
   -3.5580   18.1620  -33.0140 O   0  0  0  0  0  0  0  0  0  0  0  0
   -2.7500   19.3390  -33.1560 C   0  0  0  0  0  0  0  0  0  0  0  0
   -1.6570   19.1380  -34.2300 C   0  0  0  0  0  0  0  0  0  0  0  0
   -3.6340   20.5510  -33.5020 C   0  0  0  0  0  0  0  0  0  0  0  0
   -2.0690   19.5790  -31.8010 C   0  0  0  0  0  0  0  0  0  0  0  0
   -5.9920   17.6760  -31.6990 C   0  0  0  0  0  0  0  0  0  0  0  0
   -6.2150   20.5300  -31.5010 C   0  0  0  0  0  0  0  0  0  0  0  0
   -6.2820   21.9080  -31.2640 C   0  0  0  0  0  0  0  0  0  0  0  0
   -3.9370   22.6439  -26.9156 H   0  0  0  0  0  0  0  0  0  0  0  0
   -3.9312   23.7682  -28.3166 H   0  0  0  0  0  0  0  0  0  0  0  0
   -5.0191   22.3388  -28.3166 H   0  0  0  0  0  0  0  0  0  0  0  0
   -2.7481   20.8556  -26.7709 H   0  0  0  0  0  0  0  0  0  0  0  0
   -3.4827   19.8661  -28.0777 H   0  0  0  0  0  0  0  0  0  0  0  0
   -1.7148   20.1838  -28.0777 H   0  0  0  0  0  0  0  0  0  0  0  0
   -1.2976   22.9457  -27.7302 H   0  0  0  0  0  0  0  0  0  0  0  0
   -0.8677   22.1538  -29.2841 H   0  0  0  0  0  0  0  0  0  0  0  0
   -1.8495   23.6580  -29.2841 H   0  0  0  0  0  0  0  0  0  0  0  0
   -3.1170   25.1070  -31.2110 H   0  0  0  0  0  0  0  0  0  0  0  0
   -7.9517   24.7367  -31.0674 H   0  0  0  0  0  0  0  0  0  0  0  0
   -9.6262   22.4884  -31.6258 H   0  0  0  0  0  0  0  0  0  0  0  0
   -9.5792   20.0050  -32.0122 H   0  0  0  0  0  0  0  0  0  0  0  0
   -8.2409   18.0730  -31.3796 H   0  0  0  0  0  0  0  0  0  0  0  0
   -7.0471   18.7297  -34.1153 H   0  0  0  0  0  0  0  0  0  0  0  0
   -7.9131   17.2956  -33.9086 H   0  0  0  0  0  0  0  0  0  0  0  0
   -5.8730   16.2100  -33.2100 H   0  0  0  0  0  0  0  0  0  0  0  0
   -0.6889   18.9600  -33.7391 H   0  0  0  0  0  0  0  0  0  0  0  0
   -1.9145   18.2722  -34.8577 H   0  0  0  0  0  0  0  0  0  0  0  0
   -1.5897   20.0388  -34.8577 H   0  0  0  0  0  0  0  0  0  0  0  0
   -3.9819   21.0280  -32.5738 H   0  0  0  0  0  0  0  0  0  0  0  0
   -3.0502   21.2748  -34.0897 H   0  0  0  0  0  0  0  0  0  0  0  0
   -4.5015   20.2162  -34.0897 H   0  0  0  0  0  0  0  0  0  0  0  0
   -2.7696   19.3321  -30.9897 H   0  0  0  0  0  0  0  0  0  0  0  0
   -1.1762   18.9413  -31.7213 H   0  0  0  0  0  0  0  0  0  0  0  0
   -1.7733   20.6355  -31.7213 H   0  0  0  0  0  0  0  0  0  0  0  0
   -5.2205   18.3885  -31.3718 H   0  0  0  0  0  0  0  0  0  0  0  0
   -5.9111   16.9222  -30.9020 H   0  0  0  0  0  0  0  0  0  0  0  0
   -5.2504   20.0021  -31.4737 H   0  0  0  0  0  0  0  0  0  0  0  0
  1  2  1  0
  2  3  1  0
  2  4  1  0
  2  5  1  0
  5  6  1  0
  6  7  2  0
  6  8  1  0
  8  9  1  0
  9 10  1  0
 10 11  1  0
 10 12  2  0
  9 13  2  0
 13 14  1  0
 14 15  2  0
 15 16  1  0
 16 17  2  0
 17 18  1  0
 18 19  1  0
 19 20  1  0
 20 21  1  0
 21 22  2  0
 21 23  1  0
 23 24  1  0
 24 25  1  0
 24 26  1  0
 24 27  1  0
 20 28  1  0
 17 29  1  0
 29 30  2  0
 30  8  1  0
 30 14  1  0
 28 18  1  0
  1 31  1  0
  1 32  1  0
  1 33  1  0
  3 34  1  0
  3 35  1  0
  3 36  1  0
  4 37  1  0
  4 38  1  0
  4 39  1  0
 11 40  1  0
 13 41  1  0
 15 42  1  0
 16 43  1  0
 18 44  1  1
 19 45  1  0
 19 46  1  0
 20 47  1  1
 25 48  1  0
 25 49  1  0
 25 50  1  0
 26 51  1  0
 26 52  1  0
 26 53  1  0
 27 54  1  0
 27 55  1  0
 27 56  1  0
 28 57  1  0
 28 58  1  0
 29 59  1  0
M  CHG  2  11  -1  20   1
M  END
>  <UniqueID>  (20) 
18

>  <SMILES>  (20) 
CC(C)(C)OC(=O)n1c(C([NH-])=O)cc2ccc(C3C[NH+](C(=O)OC(C)(C)C)C3)cc21

>  <Energy>  (20) 
165.57619766017163

>  <Genealogy>  (20) 
CC(C)(C)OC(=O)n1c(C([NH-])=O)cc2ccc(C3C[NH+](C(=O)OC(C)(C)C)C3)cc21 (protonated)
CC(C)(C)OC(=O)n1c(C([NH-])=O)cc2ccc(C3C[NH+](C(=O)OC(C)(C)C)C3)cc21 (3D coordinates assigned)
CC(C)(C)OC(=O)n1c(C([NH-])=O)cc2ccc(C3C[NH+](C(=O)OC(C)(C)C)C3)cc21 (nonaromatic ring conformer: 165.57619766017163 kcal/mol)

>  <smiles>  (20) 
CC(C)(C)OC(=O)N1CC(c2ccc3cc(C(N)=O)n(C(=O)OC(C)(C)C)c3c2)C1

>  <score_type>  (20) 
oracle

>  <origin>  (20) 
adg

>  <m_score__min__energy>  (20) 
-10.94

>  <m_primary>  (20) 
energy

$$$$
20:0
     RDKit          3D

 42 44  0  0  0  0  0  0  0  0999 V2000
   -0.4460   25.6710  -36.7400 C   0  0  0  0  0  0  0  0  0  0  0  0
    0.9890   25.1880  -36.8740 C   0  0  0  0  0  0  0  0  0  0  0  0
    1.0300   23.7720  -36.7320 O   0  0  0  0  0  0  0  0  0  0  0  0
    1.7670   23.1310  -35.7310 C   0  0  0  0  0  0  0  0  0  0  0  0
    2.8570   23.6300  -35.3370 O   0  0  0  0  0  0  0  0  0  0  0  0
    1.2410   21.8710  -35.1580 C   0  0  0  0  0  0  0  0  0  0  0  0
    0.0060   21.9120  -34.5900 N   0  0  0  0  0  0  0  0  0  0  0  0
   -0.5890   20.8260  -34.0300 C   0  0  0  0  0  0  0  0  0  0  0  0
   -1.9450   20.9620  -33.4370 C   0  0  0  0  0  0  0  0  0  0  0  0
   -3.0160   20.1200  -33.8420 C   0  0  0  0  0  0  0  0  0  0  0  0
   -4.2950   20.2610  -33.2770 C   0  0  0  0  0  0  0  0  0  0  0  0
   -4.4740   21.2320  -32.2980 C   0  0  0  0  0  0  0  0  0  0  0  0
   -5.6100   21.5950  -31.6130 C   0  0  0  0  0  0  0  0  0  0  0  0
   -5.2130   22.6250  -30.7650 C   0  0  0  0  0  0  0  0  0  0  0  0
   -6.1190   23.2740  -29.7970 C   0  0  0  0  0  0  0  0  0  0  0  0
   -5.7960   24.5360  -29.2110 N   0  0  0  0  0  0  0  0  0  0  0  0
   -7.1700   22.6780  -29.4380 O   0  0  0  0  0  0  0  0  0  0  0  0
   -3.8870   22.9000  -30.9270 N   0  0  0  0  0  0  0  0  0  0  0  0
   -3.1340   23.9620  -30.3180 C   0  0  0  0  0  0  0  0  0  0  0  0
   -2.1040   23.7040  -29.6420 O   0  0  0  0  0  0  0  0  0  0  0  0
   -3.5330   25.2840  -30.4670 O   0  0  0  0  0  0  0  0  0  0  0  0
   -3.4490   22.0340  -31.8690 C   0  0  0  0  0  0  0  0  0  0  0  0
   -2.1720   21.9330  -32.4320 C   0  0  0  0  0  0  0  0  0  0  0  0
    0.0980   19.6060  -34.0550 C   0  0  0  0  0  0  0  0  0  0  0  0
    1.3320   19.5450  -34.6170 N   0  0  0  0  0  0  0  0  0  0  0  0
    1.9330   20.6340  -35.1660 C   0  0  0  0  0  0  0  0  0  0  0  0
    3.3000   20.4590  -35.7630 C   0  0  0  0  0  0  0  0  0  0  0  0
   -0.7055   25.7583  -35.6746 H   0  0  0  0  0  0  0  0  0  0  0  0
   -0.5490   26.6533  -37.2242 H   0  0  0  0  0  0  0  0  0  0  0  0
   -1.1220   24.9509  -37.2242 H   0  0  0  0  0  0  0  0  0  0  0  0
    1.3790   25.4684  -37.8636 H   0  0  0  0  0  0  0  0  0  0  0  0
    1.6061   25.6524  -36.0907 H   0  0  0  0  0  0  0  0  0  0  0  0
   -2.8417   19.3488  -34.6068 H   0  0  0  0  0  0  0  0  0  0  0  0
   -5.1301   19.6219  -33.5998 H   0  0  0  0  0  0  0  0  0  0  0  0
   -6.6169   21.1637  -31.7137 H   0  0  0  0  0  0  0  0  0  0  0  0
   -4.8580   24.9730  -29.3560 H   0  0  0  0  0  0  0  0  0  0  0  0
   -6.4660   24.9980  -28.5580 H   0  0  0  0  0  0  0  0  0  0  0  0
   -1.3594   22.5959  -32.0998 H   0  0  0  0  0  0  0  0  0  0  0  0
   -0.3590   18.7038  -33.6224 H   0  0  0  0  0  0  0  0  0  0  0  0
    4.0426   20.3639  -34.9571 H   0  0  0  0  0  0  0  0  0  0  0  0
    3.3152   19.5516  -36.3846 H   0  0  0  0  0  0  0  0  0  0  0  0
    3.5433   21.3333  -36.3846 H   0  0  0  0  0  0  0  0  0  0  0  0
  1  2  1  0
  2  3  1  0
  3  4  1  0
  4  5  2  0
  4  6  1  0
  6  7  2  0
  7  8  1  0
  8  9  1  0
  9 10  2  0
 10 11  1  0
 11 12  2  0
 12 13  1  0
 13 14  2  0
 14 15  1  0
 15 16  1  0
 15 17  2  0
 14 18  1  0
 18 19  1  0
 19 20  2  0
 19 21  1  0
 18 22  1  0
 22 23  2  0
  8 24  2  0
 24 25  1  0
 25 26  2  0
 26 27  1  0
 26  6  1  0
 23  9  1  0
 22 12  1  0
  1 28  1  0
  1 29  1  0
  1 30  1  0
  2 31  1  0
  2 32  1  0
 10 33  1  0
 11 34  1  0
 13 35  1  0
 16 36  1  0
 16 37  1  0
 23 38  1  0
 24 39  1  0
 27 40  1  0
 27 41  1  0
 27 42  1  0
M  CHG  1  21  -1
M  END
>  <UniqueID>  (21) 
19

>  <SMILES>  (21) 
CCOC(=O)c1nc(-c2ccc3cc(C(N)=O)n(C(=O)[O-])c3c2)cnc1C

>  <Energy>  (21) 
86.70065897108927

>  <Genealogy>  (21) 
CCOC(=O)c1nc(-c2ccc3cc(C(N)=O)n(C(=O)[O-])c3c2)cnc1C (protonated)
CCOC(=O)c1nc(-c2ccc3cc(C(N)=O)n(C(=O)[O-])c3c2)cnc1C (3D coordinates assigned)
CCOC(=O)c1nc(-c2ccc3cc(C(N)=O)n(C(=O)[O-])c3c2)cnc1C (optimized conformer: 86.70065897108927 kcal/mol)

>  <smiles>  (21) 
CCOC(=O)c1nc(-c2ccc3cc(C(N)=O)n(C(=O)O)c3c2)cnc1C

>  <score_type>  (21) 
oracle

>  <origin>  (21) 
adg

>  <m_score__min__energy>  (21) 
-9.3699999999999992

>  <m_primary>  (21) 
energy

$$$$
21:0
     RDKit          3D

 54 56  0  0  0  0  0  0  0  0999 V2000
   -2.9490   14.1140  -33.0560 C   0  0  0  0  0  0  0  0  0  0  0  0
   -3.3490   14.4920  -34.4810 C   0  0  0  0  0  0  0  0  0  0  0  0
   -2.7270   15.6830  -34.8170 F   0  0  0  0  0  0  0  0  0  0  0  0
   -2.9140   13.5000  -35.3440 F   0  0  0  0  0  0  0  0  0  0  0  0
   -4.8730   14.6510  -34.5940 C   0  0  0  0  0  0  0  0  0  0  0  0
   -5.3290   15.9830  -34.0590 C   0  0  0  0  0  0  0  0  0  0  0  0
   -5.3120   17.1200  -34.8800 C   0  0  0  0  0  0  0  0  0  0  0  0
   -5.7080   18.3630  -34.3770 C   0  0  0  0  0  0  0  0  0  0  0  0
   -6.1230   18.4920  -33.0390 C   0  0  0  0  0  0  0  0  0  0  0  0
   -6.5380   19.8130  -32.5020 C   0  0  0  0  0  0  0  0  0  0  0  0
   -7.9140   20.1460  -32.3930 C   0  0  0  0  0  0  0  0  0  0  0  0
   -8.3150   21.3900  -31.8770 C   0  0  0  0  0  0  0  0  0  0  0  0
   -7.3240   22.2860  -31.4870 C   0  0  0  0  0  0  0  0  0  0  0  0
   -7.4330   23.5430  -30.9400 C   0  0  0  0  0  0  0  0  0  0  0  0
   -6.1220   23.9750  -30.7430 C   0  0  0  0  0  0  0  0  0  0  0  0
   -5.7620   25.3260  -30.2550 C   0  0  0  0  0  0  0  0  0  0  0  0
   -6.4290   25.8960  -29.1270 N   0  0  0  0  0  0  0  0  0  0  0  0
   -4.8810   26.0000  -30.8510 O   0  0  0  0  0  0  0  0  0  0  0  0
   -5.2390   23.0190  -31.1500 N   0  0  0  0  0  0  0  0  0  0  0  0
   -3.8060   23.0550  -31.0770 C   0  0  0  0  0  0  0  0  0  0  0  0
   -3.1230   22.2480  -31.7650 O   0  0  0  0  0  0  0  0  0  0  0  0
   -3.1830   24.0040  -30.2530 O   0  0  0  0  0  0  0  0  0  0  0  0
   -2.7200   23.7960  -28.9100 C   0  0  0  0  0  0  0  0  0  0  0  0
   -3.8860   23.9120  -27.9110 C   0  0  0  0  0  0  0  0  0  0  0  0
   -1.6940   24.8990  -28.6110 C   0  0  0  0  0  0  0  0  0  0  0  0
   -2.0280   22.4260  -28.7830 C   0  0  0  0  0  0  0  0  0  0  0  0
   -5.9910   21.9920  -31.6030 C   0  0  0  0  0  0  0  0  0  0  0  0
   -5.5620   20.7520  -32.0910 C   0  0  0  0  0  0  0  0  0  0  0  0
   -6.1300   17.3510  -32.2160 C   0  0  0  0  0  0  0  0  0  0  0  0
   -5.7330   16.1100  -32.7220 C   0  0  0  0  0  0  0  0  0  0  0  0
   -3.5561   14.6877  -32.3403 H   0  0  0  0  0  0  0  0  0  0  0  0
   -3.1183   13.0382  -32.9008 H   0  0  0  0  0  0  0  0  0  0  0  0
   -1.8845   14.3438  -32.9008 H   0  0  0  0  0  0  0  0  0  0  0  0
   -5.1633   14.5722  -35.6521 H   0  0  0  0  0  0  0  0  0  0  0  0
   -5.3484   13.8580  -33.9980 H   0  0  0  0  0  0  0  0  0  0  0  0
   -4.9849   17.0332  -35.9267 H   0  0  0  0  0  0  0  0  0  0  0  0
   -5.6950   19.2465  -35.0322 H   0  0  0  0  0  0  0  0  0  0  0  0
   -8.6755   19.4212  -32.7165 H   0  0  0  0  0  0  0  0  0  0  0  0
   -9.3803   21.6479  -31.7841 H   0  0  0  0  0  0  0  0  0  0  0  0
   -8.3579   24.0911  -30.7073 H   0  0  0  0  0  0  0  0  0  0  0  0
   -7.1240   25.3490  -28.5740 H   0  0  0  0  0  0  0  0  0  0  0  0
   -6.1950   26.8640  -28.8160 H   0  0  0  0  0  0  0  0  0  0  0  0
   -3.4941   23.8730  -26.8839 H   0  0  0  0  0  0  0  0  0  0  0  0
   -4.4095   24.8667  -28.0677 H   0  0  0  0  0  0  0  0  0  0  0  0
   -4.5873   23.0792  -28.0677 H   0  0  0  0  0  0  0  0  0  0  0  0
   -1.5866   25.0145  -27.5224 H   0  0  0  0  0  0  0  0  0  0  0  0
   -0.7227   24.6245  -29.0482 H   0  0  0  0  0  0  0  0  0  0  0  0
   -2.0379   25.8480  -29.0482 H   0  0  0  0  0  0  0  0  0  0  0  0
   -1.9018   22.1762  -27.7192 H   0  0  0  0  0  0  0  0  0  0  0  0
   -2.6456   21.6567  -29.2695 H   0  0  0  0  0  0  0  0  0  0  0  0
   -1.0423   22.4666  -29.2695 H   0  0  0  0  0  0  0  0  0  0  0  0
   -4.4902   20.5128  -32.1536 H   0  0  0  0  0  0  0  0  0  0  0  0
   -6.4501   17.4361  -31.1671 H   0  0  0  0  0  0  0  0  0  0  0  0
   -5.7375   15.2265  -32.0667 H   0  0  0  0  0  0  0  0  0  0  0  0
  1  2  1  0
  2  3  1  0
  2  4  1  0
  2  5  1  0
  5  6  1  0
  6  7  2  0
  7  8  1  0
  8  9  2  0
  9 10  1  0
 10 11  2  0
 11 12  1  0
 12 13  2  0
 13 14  1  0
 14 15  2  0
 15 16  1  0
 16 17  1  0
 16 18  2  0
 15 19  1  0
 19 20  1  0
 20 21  2  0
 20 22  1  0
 22 23  1  0
 23 24  1  0
 23 25  1  0
 23 26  1  0
 19 27  1  0
 27 28  2  0
  9 29  1  0
 29 30  2  0
 30  6  1  0
 28 10  1  0
 27 13  1  0
  1 31  1  0
  1 32  1  0
  1 33  1  0
  5 34  1  0
  5 35  1  0
  7 36  1  0
  8 37  1  0
 11 38  1  0
 12 39  1  0
 14 40  1  0
 17 41  1  0
 17 42  1  0
 24 43  1  0
 24 44  1  0
 24 45  1  0
 25 46  1  0
 25 47  1  0
 25 48  1  0
 26 49  1  0
 26 50  1  0
 26 51  1  0
 28 52  1  0
 29 53  1  0
 30 54  1  0
M  END
>  <UniqueID>  (22) 
20

>  <SMILES>  (22) 
CC(F)(F)Cc1ccc(-c2ccc3cc(C(N)=O)n(C(=O)OC(C)(C)C)c3c2)cc1

>  <Energy>  (22) 
89.50928547825633

>  <Genealogy>  (22) 
CC(F)(F)Cc1ccc(-c2ccc3cc(C(N)=O)n(C(=O)OC(C)(C)C)c3c2)cc1 (3D coordinates assigned)
CC(F)(F)Cc1ccc(-c2ccc3cc(C(N)=O)n(C(=O)OC(C)(C)C)c3c2)cc1 (optimized conformer: 89.50928547825633 kcal/mol)

>  <smiles>  (22) 
CC(F)(F)Cc1ccc(-c2ccc3cc(C(N)=O)n(C(=O)OC(C)(C)C)c3c2)cc1

>  <score_type>  (22) 
oracle

>  <origin>  (22) 
adg

>  <m_score__min__energy>  (22) 
-9.8900000000000006

>  <m_primary>  (22) 
energy

$$$$
23:0
     RDKit          3D

 47 49  0  0  0  0  0  0  0  0999 V2000
   -7.9240   18.3030  -31.2750 C   0  0  0  0  0  0  0  0  0  0  0  0
   -7.9890   19.6500  -32.0170 C   0  0  0  0  0  0  0  0  0  0  0  0
   -9.2290   19.6650  -32.9230 C   0  0  0  0  0  0  0  0  0  0  0  0
   -8.0920   20.8200  -31.0180 C   0  0  0  0  0  0  0  0  0  0  0  0
   -6.8470   19.8020  -32.8680 O   0  0  0  0  0  0  0  0  0  0  0  0
   -5.7240   20.6040  -32.6210 C   0  0  0  0  0  0  0  0  0  0  0  0
   -5.8470   21.7900  -32.2120 O   0  0  0  0  0  0  0  0  0  0  0  0
   -4.4140   20.0580  -32.8310 N   0  0  0  0  0  0  0  0  0  0  0  0
   -4.0370   19.1320  -33.7560 C   0  0  0  0  0  0  0  0  0  0  0  0
   -4.9460   18.3660  -34.6350 C   0  0  0  0  0  0  0  0  0  0  0  0
   -6.1340   18.9570  -35.1660 N   0  0  0  0  0  0  0  0  0  0  0  0
   -4.7030   17.1520  -34.8690 O   0  0  0  0  0  0  0  0  0  0  0  0
   -2.6600   18.9240  -33.7050 C   0  0  0  0  0  0  0  0  0  0  0  0
   -2.2040   19.7460  -32.7020 C   0  0  0  0  0  0  0  0  0  0  0  0
   -0.9110   19.9420  -32.2210 C   0  0  0  0  0  0  0  0  0  0  0  0
   -0.7310   20.8680  -31.1780 C   0  0  0  0  0  0  0  0  0  0  0  0
   -1.8330   21.5840  -30.6560 C   0  0  0  0  0  0  0  0  0  0  0  0
   -1.6350   22.5240  -29.5980 N   0  0  0  0  0  0  0  0  0  0  0  0
   -0.6090   22.8240  -28.5810 C   0  0  0  0  0  0  0  0  0  0  0  0
   -1.3500   23.9540  -27.9300 C   0  0  0  0  0  0  0  0  0  0  0  0
   -0.6780   25.2920  -28.0810 C   0  0  0  0  0  0  0  0  0  0  0  0
   -1.2000   26.2470  -29.0020 N   0  0  0  0  0  0  0  0  0  0  0  0
    0.3910   25.5440  -27.4630 O   0  0  0  0  0  0  0  0  0  0  0  0
   -2.3770   23.6370  -28.9780 C   0  0  0  0  0  0  0  0  0  0  0  0
   -3.1250   21.3720  -31.1740 C   0  0  0  0  0  0  0  0  0  0  0  0
   -3.2830   20.4210  -32.1900 C   0  0  0  0  0  0  0  0  0  0  0  0
   -7.9326   18.4815  -30.1896 H   0  0  0  0  0  0  0  0  0  0  0  0
   -8.7936   17.6892  -31.5526 H   0  0  0  0  0  0  0  0  0  0  0  0
   -6.9994   17.7757  -31.5526 H   0  0  0  0  0  0  0  0  0  0  0  0
  -10.1368   19.6760  -32.3019 H   0  0  0  0  0  0  0  0  0  0  0  0
   -9.2083   20.5630  -33.5580 H   0  0  0  0  0  0  0  0  0  0  0  0
   -9.2300   18.7668  -33.5580 H   0  0  0  0  0  0  0  0  0  0  0  0
   -8.0576   20.4289  -29.9905 H   0  0  0  0  0  0  0  0  0  0  0  0
   -7.2513   21.5117  -31.1754 H   0  0  0  0  0  0  0  0  0  0  0  0
   -9.0406   21.3541  -31.1754 H   0  0  0  0  0  0  0  0  0  0  0  0
   -6.4160   19.9290  -34.9110 H   0  0  0  0  0  0  0  0  0  0  0  0
   -6.7900   18.3850  -35.7410 H   0  0  0  0  0  0  0  0  0  0  0  0
   -2.0644   18.2460  -34.3339 H   0  0  0  0  0  0  0  0  0  0  0  0
   -0.0584   19.3901  -32.6436 H   0  0  0  0  0  0  0  0  0  0  0  0
    0.2746   21.0366  -30.7652 H   0  0  0  0  0  0  0  0  0  0  0  0
   -0.4326   21.9820  -27.8955 H   0  0  0  0  0  0  0  0  0  0  0  0
    0.4072   23.0367  -28.9443 H   0  0  0  0  0  0  0  0  0  0  0  0
   -1.5737   24.0198  -26.8550 H   0  0  0  0  0  0  0  0  0  0  0  0
   -1.2380   26.0460  -30.0230 H   0  0  0  0  0  0  0  0  0  0  0  0
   -3.3377   23.3183  -28.5474 H   0  0  0  0  0  0  0  0  0  0  0  0
   -2.6871   24.4600  -29.6387 H   0  0  0  0  0  0  0  0  0  0  0  0
   -3.9870   21.9380  -30.7911 H   0  0  0  0  0  0  0  0  0  0  0  0
  1  2  1  0
  2  3  1  0
  2  4  1  0
  2  5  1  0
  5  6  1  0
  6  7  2  0
  6  8  1  0
  8  9  1  0
  9 10  1  0
 10 11  1  0
 10 12  2  0
  9 13  2  0
 13 14  1  0
 14 15  2  0
 15 16  1  0
 16 17  2  0
 17 18  1  0
 18 19  1  0
 19 20  1  0
 20 21  1  0
 21 22  1  0
 21 23  2  0
 20 24  1  0
 17 25  1  0
 25 26  2  0
 26  8  1  0
 26 14  1  0
 24 18  1  0
  1 27  1  0
  1 28  1  0
  1 29  1  0
  3 30  1  0
  3 31  1  0
  3 32  1  0
  4 33  1  0
  4 34  1  0
  4 35  1  0
 11 36  1  0
 11 37  1  0
 13 38  1  0
 15 39  1  0
 16 40  1  0
 19 41  1  0
 19 42  1  0
 20 43  1  0
 22 44  1  0
 24 45  1  0
 24 46  1  0
 25 47  1  0
M  CHG  1  22  -1
M  END
>  <UniqueID>  (23) 
21

>  <SMILES>  (23) 
CC(C)(C)OC(=O)n1c(C(N)=O)cc2ccc(N3CC(C([NH-])=O)C3)cc21

>  <Energy>  (23) 
126.54526830058825

>  <Genealogy>  (23) 
CC(C)(C)OC(=O)n1c(C(N)=O)cc2ccc(N3CC(C([NH-])=O)C3)cc21 (protonated)
CC(C)(C)OC(=O)n1c(C(N)=O)cc2ccc(N3CC(C([NH-])=O)C3)cc21 (3D coordinates assigned)
CC(C)(C)OC(=O)n1c(C(N)=O)cc2ccc(N3CC(C([NH-])=O)C3)cc21 (nonaromatic ring conformer: 126.54526830058825 kcal/mol)

>  <smiles>  (23) 
CC(C)(C)OC(=O)n1c(C(N)=O)cc2ccc(N3CC(C(N)=O)C3)cc21

>  <score_type>  (23) 
oracle

>  <origin>  (23) 
adg

>  <m_score__min__energy>  (23) 
-10.31

>  <m_primary>  (23) 
energy

$$$$
24:0
     RDKit          3D

 24 25  0  0  0  0  0  0  0  0999 V2000
   -5.5040   20.2800  -33.3230 C   0  0  0  0  0  0  0  0  0  0  0  0
   -4.2870   20.7620  -32.5920 C   0  0  0  0  0  0  0  0  0  0  0  0
   -3.1280   19.9510  -32.5340 C   0  0  0  0  0  0  0  0  0  0  0  0
   -1.9980   20.3690  -31.8120 C   0  0  0  0  0  0  0  0  0  0  0  0
   -2.0590   21.5980  -31.1590 C   0  0  0  0  0  0  0  0  0  0  0  0
   -1.1250   22.2250  -30.3670 C   0  0  0  0  0  0  0  0  0  0  0  0
   -1.7260   23.4150  -29.9610 C   0  0  0  0  0  0  0  0  0  0  0  0
   -1.0290   24.4420  -29.1600 C   0  0  0  0  0  0  0  0  0  0  0  0
   -1.6010   25.7330  -28.9640 N   0  0  0  0  0  0  0  0  0  0  0  0
    0.1110   24.1940  -28.6830 O   0  0  0  0  0  0  0  0  0  0  0  0
   -2.9850   23.5150  -30.4720 N   0  0  0  0  0  0  0  0  0  0  0  0
   -3.9600   24.5380  -30.2100 C   0  0  0  0  0  0  0  0  0  0  0  0
   -3.8700   25.6610  -30.7720 O   0  0  0  0  0  0  0  0  0  0  0  0
   -5.0270   24.2880  -29.3570 O   0  0  0  0  0  0  0  0  0  0  0  0
   -3.1730   22.3960  -31.2070 C   0  0  0  0  0  0  0  0  0  0  0  0
   -4.3200   21.9950  -31.9030 C   0  0  0  0  0  0  0  0  0  0  0  0
   -6.2718   19.9759  -32.5963 H   0  0  0  0  0  0  0  0  0  0  0  0
   -5.8973   21.0903  -33.9545 H   0  0  0  0  0  0  0  0  0  0  0  0
   -5.2359   19.4202  -33.9545 H   0  0  0  0  0  0  0  0  0  0  0  0
   -3.1123   18.9846  -33.0592 H   0  0  0  0  0  0  0  0  0  0  0  0
   -1.0932   19.7454  -31.7637 H   0  0  0  0  0  0  0  0  0  0  0  0
   -0.1184   21.8640  -30.1092 H   0  0  0  0  0  0  0  0  0  0  0  0
   -2.6350   25.8700  -28.9880 H   0  0  0  0  0  0  0  0  0  0  0  0
   -5.2228   22.6233  -31.9130 H   0  0  0  0  0  0  0  0  0  0  0  0
  1  2  1  0
  2  3  2  0
  3  4  1  0
  4  5  2  0
  5  6  1  0
  6  7  2  0
  7  8  1  0
  8  9  1  0
  8 10  2  0
  7 11  1  0
 11 12  1  0
 12 13  2  0
 12 14  1  0
 11 15  1  0
 15 16  2  0
 16  2  1  0
 15  5  1  0
  1 17  1  0
  1 18  1  0
  1 19  1  0
  3 20  1  0
  4 21  1  0
  6 22  1  0
  9 23  1  0
 16 24  1  0
M  CHG  2   9  -1  14  -1
M  END
>  <UniqueID>  (24) 
22

>  <SMILES>  (24) 
Cc1ccc2cc(C([NH-])=O)n(C(=O)[O-])c2c1

>  <Energy>  (24) 
63.77187986222829

>  <Genealogy>  (24) 
Cc1ccc2cc(C([NH-])=O)n(C(=O)[O-])c2c1 (protonated)
Cc1ccc2cc(C([NH-])=O)n(C(=O)[O-])c2c1 (3D coordinates assigned)
Cc1ccc2cc(C([NH-])=O)n(C(=O)[O-])c2c1 (optimized conformer: 63.77187986222829 kcal/mol)

>  <smiles>  (24) 
Cc1ccc2cc(C(N)=O)n(C(=O)O)c2c1

>  <score_type>  (24) 
oracle

>  <origin>  (24) 
adg

>  <m_score__min__energy>  (24) 
-9.8100000000000005

>  <m_primary>  (24) 
energy

$$$$
25:0
     RDKit          3D

 52 53  0  0  0  0  0  0  0  0999 V2000
   -2.7740   19.3370  -33.7970 C   0  0  0  0  0  0  0  0  0  0  0  0
   -2.7540   17.8170  -33.8570 C   0  0  0  0  0  0  0  0  0  0  0  0
   -3.7750   17.2930  -33.0140 O   0  0  0  0  0  0  0  0  0  0  0  0
   -4.8380   16.5280  -33.5030 C   0  0  0  0  0  0  0  0  0  0  0  0
   -4.7750   15.9870  -34.6410 O   0  0  0  0  0  0  0  0  0  0  0  0
   -6.0790   16.3850  -32.6810 C   0  0  0  0  0  0  0  0  0  0  0  0
   -7.1140   17.4410  -33.0900 C   0  0  0  0  0  0  0  0  0  0  0  0
   -6.4710   18.6420  -33.8000 C   0  0  0  0  0  0  0  0  0  0  0  0
   -6.6820   19.9240  -33.0350 C   0  0  0  0  0  0  0  0  0  0  0  0
   -7.9940   20.3420  -32.7030 C   0  0  0  0  0  0  0  0  0  0  0  0
   -8.2080   21.5420  -32.0060 C   0  0  0  0  0  0  0  0  0  0  0  0
   -7.0960   22.3080  -31.6680 C   0  0  0  0  0  0  0  0  0  0  0  0
   -7.0160   23.4950  -30.9780 C   0  0  0  0  0  0  0  0  0  0  0  0
   -5.6580   23.8010  -30.9270 C   0  0  0  0  0  0  0  0  0  0  0  0
   -5.1290   25.0500  -30.3410 C   0  0  0  0  0  0  0  0  0  0  0  0
   -3.9240   25.6350  -30.8310 N   0  0  0  0  0  0  0  0  0  0  0  0
   -5.7740   25.6330  -29.4280 O   0  0  0  0  0  0  0  0  0  0  0  0
   -4.9250   22.8380  -31.5530 N   0  0  0  0  0  0  0  0  0  0  0  0
   -3.4940   22.7370  -31.6270 C   0  0  0  0  0  0  0  0  0  0  0  0
   -2.9540   22.2490  -32.6560 O   0  0  0  0  0  0  0  0  0  0  0  0
   -2.7170   23.1660  -30.5400 O   0  0  0  0  0  0  0  0  0  0  0  0
   -2.5340   22.4710  -29.2970 C   0  0  0  0  0  0  0  0  0  0  0  0
   -3.6030   22.8960  -28.2710 C   0  0  0  0  0  0  0  0  0  0  0  0
   -2.6970   20.9710  -29.5890 C   0  0  0  0  0  0  0  0  0  0  0  0
   -1.1200   22.7210  -28.7430 C   0  0  0  0  0  0  0  0  0  0  0  0
   -5.8210   21.9300  -32.0030 C   0  0  0  0  0  0  0  0  0  0  0  0
   -5.5770   20.7280  -32.6780 C   0  0  0  0  0  0  0  0  0  0  0  0
   -2.7783   19.6624  -32.7463 H   0  0  0  0  0  0  0  0  0  0  0  0
   -1.8810   19.7356  -34.3007 H   0  0  0  0  0  0  0  0  0  0  0  0
   -3.6772   19.7120  -34.3007 H   0  0  0  0  0  0  0  0  0  0  0  0
   -2.9296   17.4890  -34.8922 H   0  0  0  0  0  0  0  0  0  0  0  0
   -1.7745   17.4505  -33.5162 H   0  0  0  0  0  0  0  0  0  0  0  0
   -6.5033   15.3821  -32.8361 H   0  0  0  0  0  0  0  0  0  0  0  0
   -5.8237   16.5266  -31.6205 H   0  0  0  0  0  0  0  0  0  0  0  0
   -7.8434   16.9768  -33.7701 H   0  0  0  0  0  0  0  0  0  0  0  0
   -7.5981   17.8107  -32.1740 H   0  0  0  0  0  0  0  0  0  0  0  0
   -5.3906   18.4603  -33.8991 H   0  0  0  0  0  0  0  0  0  0  0  0
   -6.9461   18.7504  -34.7862 H   0  0  0  0  0  0  0  0  0  0  0  0
   -8.8536   19.7205  -32.9940 H   0  0  0  0  0  0  0  0  0  0  0  0
   -9.2235   21.8669  -31.7353 H   0  0  0  0  0  0  0  0  0  0  0  0
   -7.8475   24.0786  -30.5561 H   0  0  0  0  0  0  0  0  0  0  0  0
   -2.9910   25.2990  -30.5040 H   0  0  0  0  0  0  0  0  0  0  0  0
   -3.2158   22.7421  -27.2530 H   0  0  0  0  0  0  0  0  0  0  0  0
   -3.8462   23.9592  -28.4139 H   0  0  0  0  0  0  0  0  0  0  0  0
   -4.5098   22.2900  -28.4139 H   0  0  0  0  0  0  0  0  0  0  0  0
   -2.7572   20.4172  -28.6405 H   0  0  0  0  0  0  0  0  0  0  0  0
   -3.6181   20.8081  -30.1678 H   0  0  0  0  0  0  0  0  0  0  0  0
   -1.8324   20.6140  -30.1678 H   0  0  0  0  0  0  0  0  0  0  0  0
   -1.1507   22.7156  -27.6434 H   0  0  0  0  0  0  0  0  0  0  0  0
   -0.4430   21.9286  -29.0948 H   0  0  0  0  0  0  0  0  0  0  0  0
   -0.7557   23.6975  -29.0948 H   0  0  0  0  0  0  0  0  0  0  0  0
   -4.5508   20.4176  -32.9241 H   0  0  0  0  0  0  0  0  0  0  0  0
  1  2  1  0
  2  3  1  0
  3  4  1  0
  4  5  2  0
  4  6  1  0
  6  7  1  0
  7  8  1  0
  8  9  1  0
  9 10  2  0
 10 11  1  0
 11 12  2  0
 12 13  1  0
 13 14  2  0
 14 15  1  0
 15 16  1  0
 15 17  2  0
 14 18  1  0
 18 19  1  0
 19 20  2  0
 19 21  1  0
 21 22  1  0
 22 23  1  0
 22 24  1  0
 22 25  1  0
 18 26  1  0
 26 27  2  0
 27  9  1  0
 26 12  1  0
  1 28  1  0
  1 29  1  0
  1 30  1  0
  2 31  1  0
  2 32  1  0
  6 33  1  0
  6 34  1  0
  7 35  1  0
  7 36  1  0
  8 37  1  0
  8 38  1  0
 10 39  1  0
 11 40  1  0
 13 41  1  0
 16 42  1  0
 23 43  1  0
 23 44  1  0
 23 45  1  0
 24 46  1  0
 24 47  1  0
 24 48  1  0
 25 49  1  0
 25 50  1  0
 25 51  1  0
 27 52  1  0
M  CHG  1  16  -1
M  END
>  <UniqueID>  (25) 
23

>  <SMILES>  (25) 
CCOC(=O)CCCc1ccc2cc(C([NH-])=O)n(C(=O)OC(C)(C)C)c2c1

>  <Energy>  (25) 
74.61818141528995

>  <Genealogy>  (25) 
CCOC(=O)CCCc1ccc2cc(C([NH-])=O)n(C(=O)OC(C)(C)C)c2c1 (protonated)
CCOC(=O)CCCc1ccc2cc(C([NH-])=O)n(C(=O)OC(C)(C)C)c2c1 (3D coordinates assigned)
CCOC(=O)CCCc1ccc2cc(C([NH-])=O)n(C(=O)OC(C)(C)C)c2c1 (optimized conformer: 74.61818141528995 kcal/mol)

>  <smiles>  (25) 
CCOC(=O)CCCc1ccc2cc(C(N)=O)n(C(=O)OC(C)(C)C)c2c1

>  <score_type>  (25) 
oracle

>  <origin>  (25) 
adg

>  <m_score__min__energy>  (25) 
-10.16

>  <m_primary>  (25) 
energy

$$$$
26:0
     RDKit          3D

 23 24  0  0  0  0  0  0  0  0999 V2000
   -1.5900   25.7510  -28.9310 N   0  0  0  0  0  0  0  0  0  0  0  0
   -1.0190   24.4570  -29.1070 C   0  0  0  0  0  0  0  0  0  0  0  0
    0.0950   24.1980  -28.5770 O   0  0  0  0  0  0  0  0  0  0  0  0
   -1.6840   23.4410  -29.9480 C   0  0  0  0  0  0  0  0  0  0  0  0
   -1.0580   22.2700  -30.3710 C   0  0  0  0  0  0  0  0  0  0  0  0
   -1.9650   21.6490  -31.1980 C   0  0  0  0  0  0  0  0  0  0  0  0
   -1.8700   20.4430  -31.8870 C   0  0  0  0  0  0  0  0  0  0  0  0
   -2.9770   20.0300  -32.6460 C   0  0  0  0  0  0  0  0  0  0  0  0
   -4.1500   20.8200  -32.6970 C   0  0  0  0  0  0  0  0  0  0  0  0
   -5.2740   20.3810  -33.4640 N   0  0  0  0  0  0  0  0  0  0  0  0
   -4.2120   22.0360  -31.9860 C   0  0  0  0  0  0  0  0  0  0  0  0
   -3.0890   22.4340  -31.2520 C   0  0  0  0  0  0  0  0  0  0  0  0
   -2.9330   23.5370  -30.4850 N   0  0  0  0  0  0  0  0  0  0  0  0
   -3.9280   24.5400  -30.2200 C   0  0  0  0  0  0  0  0  0  0  0  0
   -3.8630   25.6650  -30.7820 O   0  0  0  0  0  0  0  0  0  0  0  0
   -4.9870   24.2670  -29.3640 O   0  0  0  0  0  0  0  0  0  0  0  0
   -2.6240   25.8920  -28.9670 H   0  0  0  0  0  0  0  0  0  0  0  0
   -0.0518   21.9171  -30.1008 H   0  0  0  0  0  0  0  0  0  0  0  0
   -0.9562   19.8326  -31.8384 H   0  0  0  0  0  0  0  0  0  0  0  0
   -2.9319   19.0842  -33.2058 H   0  0  0  0  0  0  0  0  0  0  0  0
   -5.7000   21.0000  -34.1890 H   0  0  0  0  0  0  0  0  0  0  0  0
   -5.6880   19.4340  -33.3130 H   0  0  0  0  0  0  0  0  0  0  0  0
   -5.1202   22.6562  -32.0077 H   0  0  0  0  0  0  0  0  0  0  0  0
  1  2  1  0
  2  3  2  0
  2  4  1  0
  4  5  2  0
  5  6  1  0
  6  7  2  0
  7  8  1  0
  8  9  2  0
  9 10  1  0
  9 11  1  0
 11 12  2  0
 12 13  1  0
 13 14  1  0
 14 15  2  0
 14 16  1  0
 13  4  1  0
 12  6  1  0
  1 17  1  0
  5 18  1  0
  7 19  1  0
  8 20  1  0
 10 21  1  0
 10 22  1  0
 11 23  1  0
M  CHG  2   1  -1  16  -1
M  END
>  <UniqueID>  (26) 
24

>  <SMILES>  (26) 
[NH-]C(=O)c1cc2ccc(N)cc2n1C(=O)[O-]

>  <Energy>  (26) 
62.765777686077485

>  <Genealogy>  (26) 
[NH-]C(=O)c1cc2ccc(N)cc2n1C(=O)[O-] (protonated)
[NH-]C(=O)c1cc2ccc(N)cc2n1C(=O)[O-] (3D coordinates assigned)
[NH-]C(=O)c1cc2ccc(N)cc2n1C(=O)[O-] (optimized conformer: 62.765777686077485 kcal/mol)

>  <smiles>  (26) 
NC(=O)c1cc2ccc(N)cc2n1C(=O)O

>  <score_type>  (26) 
oracle

>  <origin>  (26) 
adg

>  <m_score__min__energy>  (26) 
-9.1099999999999994

>  <m_primary>  (26) 
energy

$$$$
27:0
     RDKit          3D

 47 49  0  0  0  0  0  0  0  0999 V2000
   -0.6140   21.3070  -32.8600 C   0  0  0  0  0  0  0  0  0  0  0  0
   -2.0900   20.9710  -32.5960 C   0  0  0  0  0  0  0  0  0  0  0  0
   -2.6300   20.1360  -33.7730 C   0  0  0  0  0  0  0  0  0  0  0  0
   -2.1920   20.1830  -31.2760 C   0  0  0  0  0  0  0  0  0  0  0  0
   -2.7950   22.2160  -32.4950 O   0  0  0  0  0  0  0  0  0  0  0  0
   -3.4330   22.7220  -31.3520 C   0  0  0  0  0  0  0  0  0  0  0  0
   -2.7640   23.1610  -30.3780 O   0  0  0  0  0  0  0  0  0  0  0  0
   -4.8670   22.7660  -31.3080 N   0  0  0  0  0  0  0  0  0  0  0  0
   -5.6650   23.8270  -30.9980 C   0  0  0  0  0  0  0  0  0  0  0  0
   -5.2120   25.1330  -30.4770 C   0  0  0  0  0  0  0  0  0  0  0  0
   -3.9320   25.6580  -30.8230 N   0  0  0  0  0  0  0  0  0  0  0  0
   -5.9450   25.7740  -29.6760 O   0  0  0  0  0  0  0  0  0  0  0  0
   -7.0080   23.4890  -31.1600 C   0  0  0  0  0  0  0  0  0  0  0  0
   -7.0070   22.1770  -31.5730 C   0  0  0  0  0  0  0  0  0  0  0  0
   -8.0700   21.3380  -31.8910 C   0  0  0  0  0  0  0  0  0  0  0  0
   -7.7750   20.0320  -32.3160 C   0  0  0  0  0  0  0  0  0  0  0  0
   -6.4290   19.5890  -32.4260 C   0  0  0  0  0  0  0  0  0  0  0  0
   -6.1280   18.2100  -32.8870 C   0  0  0  0  0  0  0  0  0  0  0  0
   -7.1480   17.3890  -33.4000 C   0  0  0  0  0  0  0  0  0  0  0  0
   -6.8630   16.0920  -33.8380 C   0  0  0  0  0  0  0  0  0  0  0  0
   -5.5520   15.5980  -33.7840 C   0  0  0  0  0  0  0  0  0  0  0  0
   -5.2530   14.1930  -34.2190 C   0  0  0  0  0  0  0  0  0  0  0  0
   -4.7310   13.4820  -33.1550 F   0  0  0  0  0  0  0  0  0  0  0  0
   -4.5340   16.4060  -33.2580 C   0  0  0  0  0  0  0  0  0  0  0  0
   -4.8170   17.7030  -32.8190 C   0  0  0  0  0  0  0  0  0  0  0  0
   -5.3780   20.4750  -32.0930 C   0  0  0  0  0  0  0  0  0  0  0  0
   -5.7030   21.7630  -31.6550 C   0  0  0  0  0  0  0  0  0  0  0  0
   -0.0881   21.4267  -31.9013 H   0  0  0  0  0  0  0  0  0  0  0  0
   -0.1493   20.4917  -33.4338 H   0  0  0  0  0  0  0  0  0  0  0  0
   -0.5480   22.2431  -33.4338 H   0  0  0  0  0  0  0  0  0  0  0  0
   -3.1887   19.2721  -33.3838 H   0  0  0  0  0  0  0  0  0  0  0  0
   -3.2976   20.7576  -34.3877 H   0  0  0  0  0  0  0  0  0  0  0  0
   -1.7892   19.7822  -34.3877 H   0  0  0  0  0  0  0  0  0  0  0  0
   -2.1022   20.8767  -30.4270 H   0  0  0  0  0  0  0  0  0  0  0  0
   -3.1640   19.6702  -31.2293 H   0  0  0  0  0  0  0  0  0  0  0  0
   -1.3826   19.4396  -31.2293 H   0  0  0  0  0  0  0  0  0  0  0  0
   -3.0640   25.3000  -30.3670 H   0  0  0  0  0  0  0  0  0  0  0  0
   -7.8828   24.1347  -30.9929 H   0  0  0  0  0  0  0  0  0  0  0  0
   -9.1103   21.6867  -31.8120 H   0  0  0  0  0  0  0  0  0  0  0  0
   -8.5957   19.3438  -32.5667 H   0  0  0  0  0  0  0  0  0  0  0  0
   -8.1783   17.7701  -33.4572 H   0  0  0  0  0  0  0  0  0  0  0  0
   -7.6717   15.4559  -34.2270 H   0  0  0  0  0  0  0  0  0  0  0  0
   -6.1799   13.7106  -34.5628 H   0  0  0  0  0  0  0  0  0  0  0  0
   -4.5223   14.2116  -35.0410 H   0  0  0  0  0  0  0  0  0  0  0  0
   -3.5071   16.0174  -33.1903 H   0  0  0  0  0  0  0  0  0  0  0  0
   -4.0087   18.3318  -32.4174 H   0  0  0  0  0  0  0  0  0  0  0  0
   -4.3280   20.1581  -32.1766 H   0  0  0  0  0  0  0  0  0  0  0  0
  1  2  1  0
  2  3  1  0
  2  4  1  0
  2  5  1  0
  5  6  1  0
  6  7  2  0
  6  8  1  0
  8  9  1  0
  9 10  1  0
 10 11  1  0
 10 12  2  0
  9 13  2  0
 13 14  1  0
 14 15  2  0
 15 16  1  0
 16 17  2  0
 17 18  1  0
 18 19  2  0
 19 20  1  0
 20 21  2  0
 21 22  1  0
 22 23  1  0
 21 24  1  0
 24 25  2  0
 17 26  1  0
 26 27  2  0
 27  8  1  0
 27 14  1  0
 25 18  1  0
  1 28  1  0
  1 29  1  0
  1 30  1  0
  3 31  1  0
  3 32  1  0
  3 33  1  0
  4 34  1  0
  4 35  1  0
  4 36  1  0
 11 37  1  0
 13 38  1  0
 15 39  1  0
 16 40  1  0
 19 41  1  0
 20 42  1  0
 22 43  1  0
 22 44  1  0
 24 45  1  0
 25 46  1  0
 26 47  1  0
M  CHG  1  11  -1
M  END
>  <UniqueID>  (27) 
25

>  <SMILES>  (27) 
CC(C)(C)OC(=O)n1c(C([NH-])=O)cc2ccc(-c3ccc(CF)cc3)cc21

>  <Energy>  (27) 
87.60275692168109

>  <Genealogy>  (27) 
CC(C)(C)OC(=O)n1c(C([NH-])=O)cc2ccc(-c3ccc(CF)cc3)cc21 (protonated)
CC(C)(C)OC(=O)n1c(C([NH-])=O)cc2ccc(-c3ccc(CF)cc3)cc21 (3D coordinates assigned)
CC(C)(C)OC(=O)n1c(C([NH-])=O)cc2ccc(-c3ccc(CF)cc3)cc21 (optimized conformer: 87.60275692168109 kcal/mol)

>  <smiles>  (27) 
CC(C)(C)OC(=O)n1c(C(N)=O)cc2ccc(-c3ccc(CF)cc3)cc21

>  <score_type>  (27) 
oracle

>  <origin>  (27) 
adg

>  <m_score__min__energy>  (27) 
-10.890000000000001

>  <m_primary>  (27) 
energy

$$$$
28:0
     RDKit          3D

 50 52  0  0  0  0  0  0  0  0999 V2000
   -7.8000   20.6770  -32.3280 C   0  0  0  0  0  0  0  0  0  0  0  0
   -6.2830   20.5820  -32.1750 C   0  0  0  0  0  0  0  0  0  0  0  0
   -5.7070   19.5680  -33.1410 C   0  0  0  0  0  0  0  0  0  0  0  0
   -6.5610   18.8820  -33.9600 N   0  0  0  0  0  0  0  0  0  0  0  0
   -6.1110   18.0050  -34.8970 C   0  0  0  0  0  0  0  0  0  0  0  0
   -4.7470   17.7960  -35.0640 C   0  0  0  0  0  0  0  0  0  0  0  0
   -3.8460   18.4880  -34.2580 C   0  0  0  0  0  0  0  0  0  0  0  0
   -4.3110   19.3770  -33.2800 C   0  0  0  0  0  0  0  0  0  0  0  0
   -3.3240   20.0800  -32.4360 C   0  0  0  0  0  0  0  0  0  0  0  0
   -2.0670   19.4850  -32.1710 C   0  0  0  0  0  0  0  0  0  0  0  0
   -1.1250   20.1390  -31.3570 C   0  0  0  0  0  0  0  0  0  0  0  0
   -1.4710   21.3780  -30.8240 C   0  0  0  0  0  0  0  0  0  0  0  0
   -0.7600   22.2180  -29.9960 C   0  0  0  0  0  0  0  0  0  0  0  0
   -1.5930   23.3140  -29.7780 C   0  0  0  0  0  0  0  0  0  0  0  0
   -1.1760   24.5110  -29.0160 C   0  0  0  0  0  0  0  0  0  0  0  0
   -1.9990   25.6740  -28.9660 N   0  0  0  0  0  0  0  0  0  0  0  0
   -0.0540   24.5240  -28.4420 O   0  0  0  0  0  0  0  0  0  0  0  0
   -2.7760   23.1520  -30.4340 N   0  0  0  0  0  0  0  0  0  0  0  0
   -3.9290   24.0080  -30.4140 C   0  0  0  0  0  0  0  0  0  0  0  0
   -3.8420   25.1840  -30.8600 O   0  0  0  0  0  0  0  0  0  0  0  0
   -5.1280   23.5300  -29.8620 O   0  0  0  0  0  0  0  0  0  0  0  0
   -6.4540   23.8630  -30.2920 C   0  0  0  0  0  0  0  0  0  0  0  0
   -7.4580   22.7930  -29.8200 C   0  0  0  0  0  0  0  0  0  0  0  0
   -6.8610   25.2570  -29.7770 C   0  0  0  0  0  0  0  0  0  0  0  0
   -6.4410   23.8840  -31.8280 C   0  0  0  0  0  0  0  0  0  0  0  0
   -2.6840   21.9640  -31.0710 C   0  0  0  0  0  0  0  0  0  0  0  0
   -3.6500   21.3240  -31.8570 C   0  0  0  0  0  0  0  0  0  0  0  0
   -8.2678   20.7063  -31.3328 H   0  0  0  0  0  0  0  0  0  0  0  0
   -8.0561   21.5929  -32.8807 H   0  0  0  0  0  0  0  0  0  0  0  0
   -8.1684   19.8002  -32.8807 H   0  0  0  0  0  0  0  0  0  0  0  0
   -5.8377   21.5671  -32.3784 H   0  0  0  0  0  0  0  0  0  0  0  0
   -6.0518   20.2616  -31.1484 H   0  0  0  0  0  0  0  0  0  0  0  0
   -7.5930   19.0330  -33.8800 H   0  0  0  0  0  0  0  0  0  0  0  0
   -6.8297   17.4586  -35.5255 H   0  0  0  0  0  0  0  0  0  0  0  0
   -4.3825   17.0908  -35.8255 H   0  0  0  0  0  0  0  0  0  0  0  0
   -2.7646   18.3358  -34.3899 H   0  0  0  0  0  0  0  0  0  0  0  0
   -1.8253   18.5036  -32.6051 H   0  0  0  0  0  0  0  0  0  0  0  0
   -0.1448   19.6857  -31.1478 H   0  0  0  0  0  0  0  0  0  0  0  0
    0.2507   22.0579  -29.5924 H   0  0  0  0  0  0  0  0  0  0  0  0
   -2.9780   25.6570  -29.3320 H   0  0  0  0  0  0  0  0  0  0  0  0
   -7.4795   22.7701  -28.7204 H   0  0  0  0  0  0  0  0  0  0  0  0
   -8.4605   23.0372  -30.2013 H   0  0  0  0  0  0  0  0  0  0  0  0
   -7.1505   21.8081  -30.2013 H   0  0  0  0  0  0  0  0  0  0  0  0
   -6.8607   25.2560  -28.6770 H   0  0  0  0  0  0  0  0  0  0  0  0
   -6.1443   26.0068  -30.1432 H   0  0  0  0  0  0  0  0  0  0  0  0
   -7.8686   25.5034  -30.1432 H   0  0  0  0  0  0  0  0  0  0  0  0
   -5.8921   24.7707  -32.1779 H   0  0  0  0  0  0  0  0  0  0  0  0
   -5.9471   22.9754  -32.2030 H   0  0  0  0  0  0  0  0  0  0  0  0
   -7.4745   23.9209  -32.2030 H   0  0  0  0  0  0  0  0  0  0  0  0
   -4.6379   21.7798  -32.0188 H   0  0  0  0  0  0  0  0  0  0  0  0
  1  2  1  0
  2  3  1  0
  3  4  2  0
  4  5  1  0
  5  6  2  0
  6  7  1  0
  7  8  2  0
  8  9  1  0
  9 10  2  0
 10 11  1  0
 11 12  2  0
 12 13  1  0
 13 14  2  0
 14 15  1  0
 15 16  1  0
 15 17  2  0
 14 18  1  0
 18 19  1  0
 19 20  2  0
 19 21  1  0
 21 22  1  0
 22 23  1  0
 22 24  1  0
 22 25  1  0
 18 26  1  0
 26 27  2  0
  8  3  1  0
 27  9  1  0
 26 12  1  0
  1 28  1  0
  1 29  1  0
  1 30  1  0
  2 31  1  0
  2 32  1  0
  4 33  1  0
  5 34  1  0
  6 35  1  0
  7 36  1  0
 10 37  1  0
 11 38  1  0
 13 39  1  0
 16 40  1  0
 23 41  1  0
 23 42  1  0
 23 43  1  0
 24 44  1  0
 24 45  1  0
 24 46  1  0
 25 47  1  0
 25 48  1  0
 25 49  1  0
 27 50  1  0
M  CHG  2   4   1  16  -1
M  END
>  <UniqueID>  (28) 
26

>  <SMILES>  (28) 
CCc1[nH+]cccc1-c1ccc2cc(C([NH-])=O)n(C(=O)OC(C)(C)C)c2c1

>  <Energy>  (28) 
90.51361536939136

>  <Genealogy>  (28) 
CCc1[nH+]cccc1-c1ccc2cc(C([NH-])=O)n(C(=O)OC(C)(C)C)c2c1 (protonated)
CCc1[nH+]cccc1-c1ccc2cc(C([NH-])=O)n(C(=O)OC(C)(C)C)c2c1 (3D coordinates assigned)
CCc1[nH+]cccc1-c1ccc2cc(C([NH-])=O)n(C(=O)OC(C)(C)C)c2c1 (optimized conformer: 90.51361536939136 kcal/mol)

>  <smiles>  (28) 
CCc1ncccc1-c1ccc2cc(C(N)=O)n(C(=O)OC(C)(C)C)c2c1

>  <score_type>  (28) 
oracle

>  <origin>  (28) 
adg

>  <m_score__min__energy>  (28) 
-11.43

>  <m_primary>  (28) 
energy

$$$$
29:0
     RDKit          3D

 49 51  0  0  0  0  0  0  0  0999 V2000
   -5.2920   14.6500  -34.5760 B   0  0  0  0  0  1  0  0  0  0  0  0
   -5.6460   16.0710  -34.0380 C   0  0  0  0  0  0  0  0  0  0  0  0
   -6.8240   16.3040  -33.3340 C   0  0  0  0  0  0  0  0  0  0  0  0
   -7.1640   17.5470  -32.8470 C   0  0  0  0  0  0  0  0  0  0  0  0
   -6.2850   18.5920  -33.0760 C   0  0  0  0  0  0  0  0  0  0  0  0
   -6.6600   19.8980  -32.5530 C   0  0  0  0  0  0  0  0  0  0  0  0
   -8.0010   20.2110  -32.4630 C   0  0  0  0  0  0  0  0  0  0  0  0
   -8.3810   21.4420  -31.9710 C   0  0  0  0  0  0  0  0  0  0  0  0
   -7.4090   22.3390  -31.5770 C   0  0  0  0  0  0  0  0  0  0  0  0
   -7.5030   23.6090  -31.0620 C   0  0  0  0  0  0  0  0  0  0  0  0
   -6.2130   24.1020  -30.8250 C   0  0  0  0  0  0  0  0  0  0  0  0
   -5.9880   25.4230  -30.2790 C   0  0  0  0  0  0  0  0  0  0  0  0
   -6.5230   25.7550  -28.9750 N   0  0  0  0  0  0  0  0  0  0  0  0
   -5.3570   26.3520  -30.8300 O   0  0  0  0  0  0  0  0  0  0  0  0
   -5.3490   23.1430  -31.1920 N   0  0  0  0  0  0  0  0  0  0  0  0
   -3.9380   23.1940  -31.1330 C   0  0  0  0  0  0  0  0  0  0  0  0
   -3.3830   24.3010  -30.8030 O   0  0  0  0  0  0  0  0  0  0  0  0
   -3.0780   22.1660  -31.3950 O   0  0  0  0  0  0  0  0  0  0  0  0
   -2.2680   21.5400  -30.4170 C   0  0  0  0  0  0  0  0  0  0  0  0
   -1.1780   22.5370  -30.0100 C   0  0  0  0  0  0  0  0  0  0  0  0
   -3.0530   21.2790  -29.1500 C   0  0  0  0  0  0  0  0  0  0  0  0
   -1.6510   20.2550  -30.8660 C   0  0  0  0  0  0  0  0  0  0  0  0
   -6.0600   22.0710  -31.6500 C   0  0  0  0  0  0  0  0  0  0  0  0
   -5.7110   20.8280  -32.1470 C   0  0  0  0  0  0  0  0  0  0  0  0
   -5.0970   18.4080  -33.7720 C   0  0  0  0  0  0  0  0  0  0  0  0
   -4.2480   19.4850  -33.9770 O   0  0  0  0  0  0  0  0  0  0  0  0
   -2.8500   19.2860  -33.8330 C   0  0  0  0  0  0  0  0  0  0  0  0
   -4.8170   17.1510  -34.2300 C   0  0  0  0  0  0  0  0  0  0  0  0
   -7.5105   15.4624  -33.1596 H   0  0  0  0  0  0  0  0  0  0  0  0
   -8.1023   17.7040  -32.2948 H   0  0  0  0  0  0  0  0  0  0  0  0
   -8.7619   19.4833  -32.7816 H   0  0  0  0  0  0  0  0  0  0  0  0
   -9.4461   21.7058  -31.8935 H   0  0  0  0  0  0  0  0  0  0  0  0
   -8.4399   24.1515  -30.8671 H   0  0  0  0  0  0  0  0  0  0  0  0
   -7.2230   26.5080  -28.8840 H   0  0  0  0  0  0  0  0  0  0  0  0
   -6.1720   25.2050  -28.1530 H   0  0  0  0  0  0  0  0  0  0  0  0
   -1.1204   22.5897  -28.9128 H   0  0  0  0  0  0  0  0  0  0  0  0
   -0.2093   22.2058  -30.4125 H   0  0  0  0  0  0  0  0  0  0  0  0
   -1.4217   23.5313  -30.4125 H   0  0  0  0  0  0  0  0  0  0  0  0
   -2.4192   21.4897  -28.2760 H   0  0  0  0  0  0  0  0  0  0  0  0
   -3.9386   21.9310  -29.1265 H   0  0  0  0  0  0  0  0  0  0  0  0
   -3.3719   20.2265  -29.1265 H   0  0  0  0  0  0  0  0  0  0  0  0
   -1.3648   19.6589  -29.9870 H   0  0  0  0  0  0  0  0  0  0  0  0
   -2.3767   19.6914  -31.4707 H   0  0  0  0  0  0  0  0  0  0  0  0
   -0.7574   20.4689  -31.4707 H   0  0  0  0  0  0  0  0  0  0  0  0
   -4.6452   20.5669  -32.2234 H   0  0  0  0  0  0  0  0  0  0  0  0
   -2.5930   19.2494  -32.7641 H   0  0  0  0  0  0  0  0  0  0  0  0
   -2.5634   18.3380  -34.3117 H   0  0  0  0  0  0  0  0  0  0  0  0
   -2.3102   20.1164  -34.3117 H   0  0  0  0  0  0  0  0  0  0  0  0
   -3.8782   16.9951  -34.7817 H   0  0  0  0  0  0  0  0  0  0  0  0
  1  2  1  0
  2  3  2  0
  3  4  1  0
  4  5  2  0
  5  6  1  0
  6  7  2  0
  7  8  1  0
  8  9  2  0
  9 10  1  0
 10 11  2  0
 11 12  1  0
 12 13  1  0
 12 14  2  0
 11 15  1  0
 15 16  1  0
 16 17  2  0
 16 18  1  0
 18 19  1  0
 19 20  1  0
 19 21  1  0
 19 22  1  0
 15 23  1  0
 23 24  2  0
  5 25  1  0
 25 26  1  0
 26 27  1  0
 25 28  2  0
 28  2  1  0
 24  6  1  0
 23  9  1  0
  3 29  1  0
  4 30  1  0
  7 31  1  0
  8 32  1  0
 10 33  1  0
 13 34  1  0
 13 35  1  0
 20 36  1  0
 20 37  1  0
 20 38  1  0
 21 39  1  0
 21 40  1  0
 21 41  1  0
 22 42  1  0
 22 43  1  0
 22 44  1  0
 24 45  1  0
 27 46  1  0
 27 47  1  0
 27 48  1  0
 28 49  1  0
M  RAD  1   1   3
M  END
>  <smiles>  (29) 
[B]c1ccc(-c2ccc3cc(C(N)=O)n(C(=O)OC(C)(C)C)c3c2)c(OC)c1

>  <score_type>  (29) 
oracle

>  <origin>  (29) 
adg

>  <m_score__min__energy>  (29) 
-9.6899999999999995

>  <m_primary>  (29) 
energy

$$$$
30:0
     RDKit          3D

 41 42  0  0  0  0  0  0  0  0999 V2000
   -5.7480   18.5550  -34.5560 C   0  0  0  0  0  0  0  0  0  0  0  0
   -6.8080   18.4050  -33.4710 C   0  0  0  0  0  0  0  0  0  0  0  0
   -7.0500   19.7190  -32.7790 C   0  0  0  0  0  0  0  0  0  0  0  0
   -8.3750   20.1490  -32.5150 C   0  0  0  0  0  0  0  0  0  0  0  0
   -8.6160   21.3940  -31.9090 C   0  0  0  0  0  0  0  0  0  0  0  0
   -7.5170   22.1850  -31.5840 C   0  0  0  0  0  0  0  0  0  0  0  0
   -7.4680   23.4400  -31.0230 C   0  0  0  0  0  0  0  0  0  0  0  0
   -6.1120   23.7550  -30.9440 C   0  0  0  0  0  0  0  0  0  0  0  0
   -5.5870   24.9890  -30.3170 C   0  0  0  0  0  0  0  0  0  0  0  0
   -6.0840   25.4320  -29.0530 N   0  0  0  0  0  0  0  0  0  0  0  0
   -4.6720   25.6450  -30.8810 O   0  0  0  0  0  0  0  0  0  0  0  0
   -5.3540   22.7350  -31.4390 N   0  0  0  0  0  0  0  0  0  0  0  0
   -3.9270   22.7100  -31.6010 C   0  0  0  0  0  0  0  0  0  0  0  0
   -3.4080   21.9260  -32.4400 O   0  0  0  0  0  0  0  0  0  0  0  0
   -3.1300   23.5700  -30.8300 O   0  0  0  0  0  0  0  0  0  0  0  0
   -2.5810   23.2890  -29.5340 C   0  0  0  0  0  0  0  0  0  0  0  0
   -2.0140   24.5710  -28.8950 C   0  0  0  0  0  0  0  0  0  0  0  0
   -1.4350   22.2870  -29.7370 C   0  0  0  0  0  0  0  0  0  0  0  0
   -3.6450   22.6510  -28.6210 C   0  0  0  0  0  0  0  0  0  0  0  0
   -6.2290   21.7810  -31.8270 C   0  0  0  0  0  0  0  0  0  0  0  0
   -5.9610   20.5530  -32.4450 C   0  0  0  0  0  0  0  0  0  0  0  0
   -4.7621   18.6945  -34.0886 H   0  0  0  0  0  0  0  0  0  0  0  0
   -5.7326   17.6501  -35.1812 H   0  0  0  0  0  0  0  0  0  0  0  0
   -5.9843   19.4287  -35.1812 H   0  0  0  0  0  0  0  0  0  0  0  0
   -7.7468   18.0595  -33.9286 H   0  0  0  0  0  0  0  0  0  0  0  0
   -6.4538   17.6743  -32.7289 H   0  0  0  0  0  0  0  0  0  0  0  0
   -9.2222   19.5022  -32.7870 H   0  0  0  0  0  0  0  0  0  0  0  0
   -9.6409   21.7330  -31.6980 H   0  0  0  0  0  0  0  0  0  0  0  0
   -8.3173   24.0623  -30.7046 H   0  0  0  0  0  0  0  0  0  0  0  0
   -6.8770   24.9460  -28.5810 H   0  0  0  0  0  0  0  0  0  0  0  0
   -5.6800   26.2830  -28.6020 H   0  0  0  0  0  0  0  0  0  0  0  0
   -2.0530   24.4827  -27.7992 H   0  0  0  0  0  0  0  0  0  0  0  0
   -0.9707   24.7095  -29.2147 H   0  0  0  0  0  0  0  0  0  0  0  0
   -2.6134   25.4361  -29.2147 H   0  0  0  0  0  0  0  0  0  0  0  0
   -1.0582   21.9575  -28.7575 H   0  0  0  0  0  0  0  0  0  0  0  0
   -1.8042   21.4167  -30.2995 H   0  0  0  0  0  0  0  0  0  0  0  0
   -0.6218   22.7690  -30.2995 H   0  0  0  0  0  0  0  0  0  0  0  0
   -3.3711   22.8152  -27.5684 H   0  0  0  0  0  0  0  0  0  0  0  0
   -4.6238   23.1114  -28.8213 H   0  0  0  0  0  0  0  0  0  0  0  0
   -3.7000   21.5708  -28.8213 H   0  0  0  0  0  0  0  0  0  0  0  0
   -4.9278   20.2461  -32.6646 H   0  0  0  0  0  0  0  0  0  0  0  0
  1  2  1  0
  2  3  1  0
  3  4  2  0
  4  5  1  0
  5  6  2  0
  6  7  1  0
  7  8  2  0
  8  9  1  0
  9 10  1  0
  9 11  2  0
  8 12  1  0
 12 13  1  0
 13 14  2  0
 13 15  1  0
 15 16  1  0
 16 17  1  0
 16 18  1  0
 16 19  1  0
 12 20  1  0
 20 21  2  0
 21  3  1  0
 20  6  1  0
  1 22  1  0
  1 23  1  0
  1 24  1  0
  2 25  1  0
  2 26  1  0
  4 27  1  0
  5 28  1  0
  7 29  1  0
 10 30  1  0
 10 31  1  0
 17 32  1  0
 17 33  1  0
 17 34  1  0
 18 35  1  0
 18 36  1  0
 18 37  1  0
 19 38  1  0
 19 39  1  0
 19 40  1  0
 21 41  1  0
M  END
>  <UniqueID>  (30) 
27

>  <SMILES>  (30) 
CCc1ccc2cc(C(N)=O)n(C(=O)OC(C)(C)C)c2c1

>  <Energy>  (30) 
70.94158260231548

>  <Genealogy>  (30) 
CCc1ccc2cc(C(N)=O)n(C(=O)OC(C)(C)C)c2c1 (3D coordinates assigned)
CCc1ccc2cc(C(N)=O)n(C(=O)OC(C)(C)C)c2c1 (optimized conformer: 70.94158260231548 kcal/mol)

>  <smiles>  (30) 
CCc1ccc2cc(C(N)=O)n(C(=O)OC(C)(C)C)c2c1

>  <score_type>  (30) 
oracle

>  <origin>  (30) 
adg

>  <m_score__min__energy>  (30) 
-8.8800000000000008

>  <m_primary>  (30) 
energy

$$$$
31:0
     RDKit          3D

 51 53  0  0  0  0  0  0  0  0999 V2000
   -2.5310   20.2150  -33.9270 C   0  0  0  0  0  0  0  0  0  0  0  0
   -2.0380   20.9690  -32.6810 C   0  0  0  0  0  0  0  0  0  0  0  0
   -2.3070   20.1020  -31.4350 C   0  0  0  0  0  0  0  0  0  0  0  0
   -0.5340   21.2530  -32.8350 C   0  0  0  0  0  0  0  0  0  0  0  0
   -2.7780   22.1950  -32.6110 O   0  0  0  0  0  0  0  0  0  0  0  0
   -3.4320   22.7110  -31.4830 C   0  0  0  0  0  0  0  0  0  0  0  0
   -2.7810   23.1190  -30.4840 O   0  0  0  0  0  0  0  0  0  0  0  0
   -4.8630   22.8050  -31.4900 N   0  0  0  0  0  0  0  0  0  0  0  0
   -5.6430   23.8570  -31.1120 C   0  0  0  0  0  0  0  0  0  0  0  0
   -5.1710   25.1220  -30.5070 C   0  0  0  0  0  0  0  0  0  0  0  0
   -3.9020   25.6730  -30.8430 N   0  0  0  0  0  0  0  0  0  0  0  0
   -5.8880   25.7060  -29.6500 O   0  0  0  0  0  0  0  0  0  0  0  0
   -6.9920   23.5440  -31.2810 C   0  0  0  0  0  0  0  0  0  0  0  0
   -7.0110   22.2550  -31.7660 C   0  0  0  0  0  0  0  0  0  0  0  0
   -8.0860   21.4400  -32.1020 C   0  0  0  0  0  0  0  0  0  0  0  0
   -7.8090   20.1490  -32.5840 C   0  0  0  0  0  0  0  0  0  0  0  0
   -6.4700   19.6980  -32.7310 C   0  0  0  0  0  0  0  0  0  0  0  0
   -6.1830   18.3370  -33.2560 C   0  0  0  0  0  0  0  0  0  0  0  0
   -7.1310   17.3060  -33.1280 C   0  0  0  0  0  0  0  0  0  0  0  0
   -6.8640   16.0320  -33.6320 C   0  0  0  0  0  0  0  0  0  0  0  0
   -5.6500   15.7700  -34.2730 C   0  0  0  0  0  0  0  0  0  0  0  0
   -4.6900   16.7890  -34.4150 C   0  0  0  0  0  0  0  0  0  0  0  0
   -3.4350   16.5720  -35.0760 N   0  0  0  0  0  0  0  0  0  0  0  0
   -1.8670   16.7690  -34.3660 S   0  0  0  0  0  0  0  0  0  0  0  0
   -1.0090   15.2100  -34.3510 C   0  0  0  0  0  0  0  0  0  0  0  0
   -1.0780   17.7950  -35.1290 O   0  0  0  0  0  0  0  0  0  0  0  0
   -2.0330   17.2450  -32.9480 O   0  0  0  0  0  0  0  0  0  0  0  0
   -4.9630   18.0630  -33.9020 C   0  0  0  0  0  0  0  0  0  0  0  0
   -5.4070   20.5630  -32.3780 C   0  0  0  0  0  0  0  0  0  0  0  0
   -5.7150   21.8330  -31.8820 C   0  0  0  0  0  0  0  0  0  0  0  0
   -3.1085   19.3318  -33.6165 H   0  0  0  0  0  0  0  0  0  0  0  0
   -3.1703   20.8784  -34.5280 H   0  0  0  0  0  0  0  0  0  0  0  0
   -1.6669   19.8954  -34.5280 H   0  0  0  0  0  0  0  0  0  0  0  0
   -2.1226   20.6964  -30.5280 H   0  0  0  0  0  0  0  0  0  0  0  0
   -3.3530   19.7616  -31.4440 H   0  0  0  0  0  0  0  0  0  0  0  0
   -1.6374   19.2294  -31.4440 H   0  0  0  0  0  0  0  0  0  0  0  0
   -0.0735   21.3400  -31.8398 H   0  0  0  0  0  0  0  0  0  0  0  0
   -0.0599   20.4285  -33.3876 H   0  0  0  0  0  0  0  0  0  0  0  0
   -0.3932   22.1936  -33.3876 H   0  0  0  0  0  0  0  0  0  0  0  0
   -3.0230   25.2700  -30.4510 H   0  0  0  0  0  0  0  0  0  0  0  0
   -7.8573   24.1899  -31.0713 H   0  0  0  0  0  0  0  0  0  0  0  0
   -9.1217   21.7946  -31.9940 H   0  0  0  0  0  0  0  0  0  0  0  0
   -8.6398   19.4793  -32.8508 H   0  0  0  0  0  0  0  0  0  0  0  0
   -8.0899   17.5051  -32.6270 H   0  0  0  0  0  0  0  0  0  0  0  0
   -7.6112   15.2319  -33.5244 H   0  0  0  0  0  0  0  0  0  0  0  0
   -5.4443   14.7641  -34.6677 H   0  0  0  0  0  0  0  0  0  0  0  0
   -0.8364   14.8964  -33.3109 H   0  0  0  0  0  0  0  0  0  0  0  0
   -1.6170   14.4519  -34.8664 H   0  0  0  0  0  0  0  0  0  0  0  0
   -0.0433   15.3180  -34.8664 H   0  0  0  0  0  0  0  0  0  0  0  0
   -4.2131   18.8611  -34.0054 H   0  0  0  0  0  0  0  0  0  0  0  0
   -4.3608   20.2428  -32.4915 H   0  0  0  0  0  0  0  0  0  0  0  0
  1  2  1  0
  2  3  1  0
  2  4  1  0
  2  5  1  0
  5  6  1  0
  6  7  2  0
  6  8  1  0
  8  9  1  0
  9 10  1  0
 10 11  1  0
 10 12  2  0
  9 13  2  0
 13 14  1  0
 14 15  2  0
 15 16  1  0
 16 17  2  0
 17 18  1  0
 18 19  2  0
 19 20  1  0
 20 21  2  0
 21 22  1  0
 22 23  1  0
 23 24  1  0
 24 25  1  0
 24 26  2  0
 24 27  2  0
 22 28  2  0
 17 29  1  0
 29 30  2  0
 30  8  1  0
 30 14  1  0
 28 18  1  0
  1 31  1  0
  1 32  1  0
  1 33  1  0
  3 34  1  0
  3 35  1  0
  3 36  1  0
  4 37  1  0
  4 38  1  0
  4 39  1  0
 11 40  1  0
 13 41  1  0
 15 42  1  0
 16 43  1  0
 19 44  1  0
 20 45  1  0
 21 46  1  0
 25 47  1  0
 25 48  1  0
 25 49  1  0
 28 50  1  0
 29 51  1  0
M  CHG  2  11  -1  23  -1
M  END
>  <UniqueID>  (31) 
28

>  <SMILES>  (31) 
CC(C)(C)OC(=O)n1c(C([NH-])=O)cc2ccc(-c3cccc([N-]S(C)(=O)=O)c3)cc21

>  <Energy>  (31) 
91.34614149307998

>  <Genealogy>  (31) 
CC(C)(C)OC(=O)n1c(C([NH-])=O)cc2ccc(-c3cccc([N-]S(C)(=O)=O)c3)cc21 (protonated)
CC(C)(C)OC(=O)n1c(C([NH-])=O)cc2ccc(-c3cccc([N-]S(C)(=O)=O)c3)cc21 (3D coordinates assigned)
CC(C)(C)OC(=O)n1c(C([NH-])=O)cc2ccc(-c3cccc([N-]S(C)(=O)=O)c3)cc21 (optimized conformer: 91.34614149307998 kcal/mol)

>  <smiles>  (31) 
CC(C)(C)OC(=O)n1c(C(N)=O)cc2ccc(-c3cccc(NS(C)(=O)=O)c3)cc21

>  <score_type>  (31) 
oracle

>  <origin>  (31) 
adg

>  <m_score__min__energy>  (31) 
-12.470000000000001

>  <m_primary>  (31) 
energy

$$$$
32:0
     RDKit          3D

 50 53  0  0  0  0  0  0  0  0999 V2000
   -1.2010   22.1460  -30.4500 C   0  0  0  0  0  0  0  0  0  0  0  0
   -2.7340   22.1670  -30.2880 C   0  0  0  0  0  0  0  0  0  0  0  0
   -3.2660   20.7320  -30.4130 C   0  0  0  0  0  0  0  0  0  0  0  0
   -3.1280   22.7260  -28.9080 C   0  0  0  0  0  0  0  0  0  0  0  0
   -3.3390   22.9350  -31.3380 O   0  0  0  0  0  0  0  0  0  0  0  0
   -4.3840   22.5180  -32.1770 C   0  0  0  0  0  0  0  0  0  0  0  0
   -4.1470   22.0570  -33.3250 O   0  0  0  0  0  0  0  0  0  0  0  0
   -5.7380   22.6040  -31.7080 N   0  0  0  0  0  0  0  0  0  0  0  0
   -6.2660   23.5480  -30.8800 C   0  0  0  0  0  0  0  0  0  0  0  0
   -5.5990   24.7950  -30.4570 C   0  0  0  0  0  0  0  0  0  0  0  0
   -5.8730   25.3910  -29.1890 N   0  0  0  0  0  0  0  0  0  0  0  0
   -4.7340   25.3200  -31.2100 O   0  0  0  0  0  0  0  0  0  0  0  0
   -7.5520   23.1900  -30.4810 C   0  0  0  0  0  0  0  0  0  0  0  0
   -7.8010   21.9850  -31.1010 C   0  0  0  0  0  0  0  0  0  0  0  0
   -8.9040   21.1410  -31.0050 C   0  0  0  0  0  0  0  0  0  0  0  0
   -8.8530   19.9090  -31.6790 C   0  0  0  0  0  0  0  0  0  0  0  0
   -7.7110   19.5480  -32.4360 C   0  0  0  0  0  0  0  0  0  0  0  0
   -7.6240   18.1980  -33.0920 C   0  0  0  0  0  0  0  0  0  0  0  0
   -6.1970   17.7550  -33.1580 C   0  0  0  0  0  0  0  0  0  0  0  0
   -5.7300   16.6010  -32.6480 N   0  0  0  0  0  0  0  0  0  0  0  0
   -4.4260   16.5950  -32.8820 N   0  0  0  0  0  0  0  0  0  0  0  0
   -4.1490   17.7480  -33.5230 C   0  0  0  0  0  0  0  0  0  0  0  0
   -2.8080   18.1740  -33.9620 C   0  0  0  0  0  0  0  0  0  0  0  0
   -2.3350   19.4790  -33.7480 C   0  0  0  0  0  0  0  0  0  0  0  0
   -1.0480   19.6800  -34.2220 C   0  0  0  0  0  0  0  0  0  0  0  0
   -0.1440   21.1770  -34.1230 Cl  0  0  0  0  0  0  0  0  0  0  0  0
   -0.4840   18.2540  -34.9050 S   0  0  0  0  0  0  0  0  0  0  0  0
   -1.8750   17.3580  -34.6060 C   0  0  0  0  0  0  0  0  0  0  0  0
   -2.0620   15.6730  -35.0590 Cl  0  0  0  0  0  0  0  0  0  0  0  0
   -5.2340   18.4620  -33.6980 O   0  0  0  0  0  0  0  0  0  0  0  0
   -6.6140   20.4360  -32.5160 C   0  0  0  0  0  0  0  0  0  0  0  0
   -6.6920   21.6560  -31.8370 C   0  0  0  0  0  0  0  0  0  0  0  0
   -0.7274   22.1395  -29.4572 H   0  0  0  0  0  0  0  0  0  0  0  0
   -0.9032   21.2437  -31.0042 H   0  0  0  0  0  0  0  0  0  0  0  0
   -0.8786   23.0398  -31.0042 H   0  0  0  0  0  0  0  0  0  0  0  0
   -3.4224   20.3102  -29.4092 H   0  0  0  0  0  0  0  0  0  0  0  0
   -4.2205   20.7411  -30.9597 H   0  0  0  0  0  0  0  0  0  0  0  0
   -2.5362   20.1167  -30.9597 H   0  0  0  0  0  0  0  0  0  0  0  0
   -2.6865   22.0995  -28.1190 H   0  0  0  0  0  0  0  0  0  0  0  0
   -2.7554   23.7563  -28.8097 H   0  0  0  0  0  0  0  0  0  0  0  0
   -4.2236   22.7214  -28.8097 H   0  0  0  0  0  0  0  0  0  0  0  0
   -5.4340   26.3020  -28.9300 H   0  0  0  0  0  0  0  0  0  0  0  0
   -6.4480   24.8950  -28.4720 H   0  0  0  0  0  0  0  0  0  0  0  0
   -8.2244   23.7494  -29.8140 H   0  0  0  0  0  0  0  0  0  0  0  0
   -9.7890   21.4299  -30.4191 H   0  0  0  0  0  0  0  0  0  0  0  0
   -9.7073   19.2187  -31.6184 H   0  0  0  0  0  0  0  0  0  0  0  0
   -8.2052   17.4701  -32.5069 H   0  0  0  0  0  0  0  0  0  0  0  0
   -8.0301   18.2643  -34.1121 H   0  0  0  0  0  0  0  0  0  0  0  0
   -2.9268   20.2634  -33.2535 H   0  0  0  0  0  0  0  0  0  0  0  0
   -5.7191   20.1732  -33.0992 H   0  0  0  0  0  0  0  0  0  0  0  0
  1  2  1  0
  2  3  1  0
  2  4  1  0
  2  5  1  0
  5  6  1  0
  6  7  2  0
  6  8  1  0
  8  9  1  0
  9 10  1  0
 10 11  1  0
 10 12  2  0
  9 13  2  0
 13 14  1  0
 14 15  2  0
 15 16  1  0
 16 17  2  0
 17 18  1  0
 18 19  1  0
 19 20  2  0
 20 21  1  0
 21 22  2  0
 22 23  1  0
 23 24  1  0
 24 25  2  0
 25 26  1  0
 25 27  1  0
 27 28  1  0
 28 29  1  0
 22 30  1  0
 17 31  1  0
 31 32  2  0
 32  8  1  0
 32 14  1  0
 30 19  1  0
 28 23  2  0
  1 33  1  0
  1 34  1  0
  1 35  1  0
  3 36  1  0
  3 37  1  0
  3 38  1  0
  4 39  1  0
  4 40  1  0
  4 41  1  0
 11 42  1  0
 11 43  1  0
 13 44  1  0
 15 45  1  0
 16 46  1  0
 18 47  1  0
 18 48  1  0
 24 49  1  0
 31 50  1  0
M  END
>  <UniqueID>  (32) 
29

>  <SMILES>  (32) 
CC(C)(C)OC(=O)n1c(C(N)=O)cc2ccc(Cc3nnc(-c4cc(Cl)sc4Cl)o3)cc21

>  <Energy>  (32) 
146.65882179290526

>  <Genealogy>  (32) 
CC(C)(C)OC(=O)n1c(C(N)=O)cc2ccc(Cc3nnc(-c4cc(Cl)sc4Cl)o3)cc21 (3D coordinates assigned)
CC(C)(C)OC(=O)n1c(C(N)=O)cc2ccc(Cc3nnc(-c4cc(Cl)sc4Cl)o3)cc21 (optimized conformer: 146.65882179290526 kcal/mol)

>  <smiles>  (32) 
CC(C)(C)OC(=O)n1c(C(N)=O)cc2ccc(Cc3nnc(-c4cc(Cl)sc4Cl)o3)cc21

>  <score_type>  (32) 
oracle

>  <origin>  (32) 
adg

>  <m_score__min__energy>  (32) 
-10.67

>  <m_primary>  (32) 
energy

$$$$
33:0
     RDKit          3D

 53 55  0  0  0  0  0  0  0  0999 V2000
   -4.5490   13.6860  -31.5520 C   0  0  0  0  0  0  0  0  0  0  0  0
   -3.8930   13.1210  -32.6820 O   0  0  0  0  0  0  0  0  0  0  0  0
   -3.7950   13.7860  -33.9070 C   0  0  0  0  0  0  0  0  0  0  0  0
   -2.6720   13.9780  -34.4500 O   0  0  0  0  0  0  0  0  0  0  0  0
   -5.0340   14.3130  -34.5590 C   0  0  0  0  0  0  0  0  0  0  0  0
   -5.3550   15.6800  -34.0250 C   0  0  0  0  0  0  0  0  0  0  0  0
   -4.3290   16.6070  -33.7880 C   0  0  0  0  0  0  0  0  0  0  0  0
   -4.6290   17.8900  -33.3210 C   0  0  0  0  0  0  0  0  0  0  0  0
   -5.9630   18.2730  -33.0900 C   0  0  0  0  0  0  0  0  0  0  0  0
   -6.2830   19.6340  -32.5880 C   0  0  0  0  0  0  0  0  0  0  0  0
   -7.6320   20.0650  -32.4870 C   0  0  0  0  0  0  0  0  0  0  0  0
   -7.9440   21.3480  -32.0060 C   0  0  0  0  0  0  0  0  0  0  0  0
   -6.8930   22.1820  -31.6390 C   0  0  0  0  0  0  0  0  0  0  0  0
   -6.9110   23.4580  -31.1240 C   0  0  0  0  0  0  0  0  0  0  0  0
   -5.5740   23.8000  -30.9350 C   0  0  0  0  0  0  0  0  0  0  0  0
   -5.1340   25.1350  -30.4760 C   0  0  0  0  0  0  0  0  0  0  0  0
   -3.8760   25.6720  -30.8740 N   0  0  0  0  0  0  0  0  0  0  0  0
   -5.9010   25.8310  -29.7610 O   0  0  0  0  0  0  0  0  0  0  0  0
   -4.7600   22.7720  -31.3100 N   0  0  0  0  0  0  0  0  0  0  0  0
   -3.3320   22.6860  -31.2000 C   0  0  0  0  0  0  0  0  0  0  0  0
   -2.6630   22.1670  -32.1330 O   0  0  0  0  0  0  0  0  0  0  0  0
   -2.7000   23.2070  -30.0600 O   0  0  0  0  0  0  0  0  0  0  0  0
   -2.7160   22.6400  -28.7430 C   0  0  0  0  0  0  0  0  0  0  0  0
   -1.3880   22.9210  -28.0160 C   0  0  0  0  0  0  0  0  0  0  0  0
   -3.8570   23.3210  -27.9720 C   0  0  0  0  0  0  0  0  0  0  0  0
   -2.9930   21.1260  -28.8060 C   0  0  0  0  0  0  0  0  0  0  0  0
   -5.5840   21.7900  -31.7430 C   0  0  0  0  0  0  0  0  0  0  0  0
   -5.2430   20.5130  -32.2010 C   0  0  0  0  0  0  0  0  0  0  0  0
   -6.9890   17.3440  -33.3410 C   0  0  0  0  0  0  0  0  0  0  0  0
   -6.6880   16.0620  -33.8080 C   0  0  0  0  0  0  0  0  0  0  0  0
   -4.0942   13.2943  -30.6302 H   0  0  0  0  0  0  0  0  0  0  0  0
   -4.4437   14.7807  -31.5763 H   0  0  0  0  0  0  0  0  0  0  0  0
   -5.6160   13.4196  -31.5763 H   0  0  0  0  0  0  0  0  0  0  0  0
   -4.8755   14.3746  -35.6458 H   0  0  0  0  0  0  0  0  0  0  0  0
   -5.8724   13.6348  -34.3416 H   0  0  0  0  0  0  0  0  0  0  0  0
   -3.2822   16.3226  -33.9707 H   0  0  0  0  0  0  0  0  0  0  0  0
   -3.8155   18.6060  -33.1326 H   0  0  0  0  0  0  0  0  0  0  0  0
   -8.4431   19.3861  -32.7890 H   0  0  0  0  0  0  0  0  0  0  0  0
   -8.9884   21.6828  -31.9222 H   0  0  0  0  0  0  0  0  0  0  0  0
   -7.7942   24.0769  -30.9074 H   0  0  0  0  0  0  0  0  0  0  0  0
   -2.9820   25.2900  -30.4930 H   0  0  0  0  0  0  0  0  0  0  0  0
   -1.5508   22.8865  -26.9287 H   0  0  0  0  0  0  0  0  0  0  0  0
   -0.6463   22.1599  -28.3000 H   0  0  0  0  0  0  0  0  0  0  0  0
   -1.0182   23.9173  -28.3000 H   0  0  0  0  0  0  0  0  0  0  0  0
   -3.6824   23.2168  -26.8910 H   0  0  0  0  0  0  0  0  0  0  0  0
   -3.8925   24.3881  -28.2365 H   0  0  0  0  0  0  0  0  0  0  0  0
   -4.8131   22.8457  -28.2365 H   0  0  0  0  0  0  0  0  0  0  0  0
   -3.0666   20.7239  -27.7848 H   0  0  0  0  0  0  0  0  0  0  0  0
   -3.9386   20.9481  -29.3391 H   0  0  0  0  0  0  0  0  0  0  0  0
   -2.1716   20.6248  -29.3391 H   0  0  0  0  0  0  0  0  0  0  0  0
   -4.1904   20.1989  -32.2591 H   0  0  0  0  0  0  0  0  0  0  0  0
   -8.0372   17.6293  -33.1681 H   0  0  0  0  0  0  0  0  0  0  0  0
   -7.5006   15.3478  -34.0068 H   0  0  0  0  0  0  0  0  0  0  0  0
  1  2  1  0
  2  3  1  0
  3  4  2  0
  3  5  1  0
  5  6  1  0
  6  7  2  0
  7  8  1  0
  8  9  2  0
  9 10  1  0
 10 11  2  0
 11 12  1  0
 12 13  2  0
 13 14  1  0
 14 15  2  0
 15 16  1  0
 16 17  1  0
 16 18  2  0
 15 19  1  0
 19 20  1  0
 20 21  2  0
 20 22  1  0
 22 23  1  0
 23 24  1  0
 23 25  1  0
 23 26  1  0
 19 27  1  0
 27 28  2  0
  9 29  1  0
 29 30  2  0
 30  6  1  0
 28 10  1  0
 27 13  1  0
  1 31  1  0
  1 32  1  0
  1 33  1  0
  5 34  1  0
  5 35  1  0
  7 36  1  0
  8 37  1  0
 11 38  1  0
 12 39  1  0
 14 40  1  0
 17 41  1  0
 24 42  1  0
 24 43  1  0
 24 44  1  0
 25 45  1  0
 25 46  1  0
 25 47  1  0
 26 48  1  0
 26 49  1  0
 26 50  1  0
 28 51  1  0
 29 52  1  0
 30 53  1  0
M  CHG  1  17  -1
M  END
>  <UniqueID>  (33) 
30

>  <SMILES>  (33) 
COC(=O)Cc1ccc(-c2ccc3cc(C([NH-])=O)n(C(=O)OC(C)(C)C)c3c2)cc1

>  <Energy>  (33) 
90.05920179704619

>  <Genealogy>  (33) 
COC(=O)Cc1ccc(-c2ccc3cc(C([NH-])=O)n(C(=O)OC(C)(C)C)c3c2)cc1 (protonated)
COC(=O)Cc1ccc(-c2ccc3cc(C([NH-])=O)n(C(=O)OC(C)(C)C)c3c2)cc1 (3D coordinates assigned)
COC(=O)Cc1ccc(-c2ccc3cc(C([NH-])=O)n(C(=O)OC(C)(C)C)c3c2)cc1 (optimized conformer: 90.05920179704619 kcal/mol)

>  <smiles>  (33) 
COC(=O)Cc1ccc(-c2ccc3cc(C(N)=O)n(C(=O)OC(C)(C)C)c3c2)cc1

>  <score_type>  (33) 
oracle

>  <origin>  (33) 
adg

>  <m_score__min__energy>  (33) 
-10.890000000000001

>  <m_primary>  (33) 
energy

$$$$
34:0
     RDKit          3D

 31 32  0  0  0  0  0  0  0  0999 V2000
   -2.0360   21.5820  -30.5180 C   0  0  0  0  0  0  0  0  0  0  0  0
   -3.3740   22.1520  -30.3310 N   0  0  0  0  0  0  0  0  0  0  0  0
   -3.8580   22.4900  -28.9890 C   0  0  0  0  0  0  0  0  0  0  0  0
   -4.1870   22.4430  -31.4840 C   0  0  0  0  0  0  0  0  0  0  0  0
   -3.6830   22.4080  -32.6380 O   0  0  0  0  0  0  0  0  0  0  0  0
   -5.5680   22.8000  -31.3370 N   0  0  0  0  0  0  0  0  0  0  0  0
   -6.0850   23.9850  -30.9100 C   0  0  0  0  0  0  0  0  0  0  0  0
   -5.2840   25.1450  -30.4500 C   0  0  0  0  0  0  0  0  0  0  0  0
   -3.8920   25.2470  -30.7500 N   0  0  0  0  0  0  0  0  0  0  0  0
   -5.8270   26.0640  -29.7830 O   0  0  0  0  0  0  0  0  0  0  0  0
   -7.4800   23.9310  -30.9110 C   0  0  0  0  0  0  0  0  0  0  0  0
   -7.7970   22.6630  -31.3500 C   0  0  0  0  0  0  0  0  0  0  0  0
   -9.0370   22.0600  -31.5410 C   0  0  0  0  0  0  0  0  0  0  0  0
   -9.0590   20.7330  -32.0070 C   0  0  0  0  0  0  0  0  0  0  0  0
   -7.8510   20.0430  -32.2720 C   0  0  0  0  0  0  0  0  0  0  0  0
   -7.8880   18.6960  -32.7500 N   0  0  0  0  0  0  0  0  0  0  0  0
   -6.6120   20.6850  -32.0660 C   0  0  0  0  0  0  0  0  0  0  0  0
   -6.6220   22.0010  -31.5960 C   0  0  0  0  0  0  0  0  0  0  0  0
   -1.5797   21.3876  -29.5361 H   0  0  0  0  0  0  0  0  0  0  0  0
   -2.1143   20.6391  -31.0791 H   0  0  0  0  0  0  0  0  0  0  0  0
   -1.4103   22.2917  -31.0791 H   0  0  0  0  0  0  0  0  0  0  0  0
   -3.2007   22.0310  -28.2358 H   0  0  0  0  0  0  0  0  0  0  0  0
   -3.8540   23.5827  -28.8622 H   0  0  0  0  0  0  0  0  0  0  0  0
   -4.8824   22.1099  -28.8622 H   0  0  0  0  0  0  0  0  0  0  0  0
   -3.4850   26.0530  -31.2700 H   0  0  0  0  0  0  0  0  0  0  0  0
   -8.1783   24.7306  -30.6227 H   0  0  0  0  0  0  0  0  0  0  0  0
   -9.9703   22.6041  -31.3340 H   0  0  0  0  0  0  0  0  0  0  0  0
  -10.0225   20.2270  -32.1669 H   0  0  0  0  0  0  0  0  0  0  0  0
   -8.5280   18.4220  -33.5280 H   0  0  0  0  0  0  0  0  0  0  0  0
   -7.2760   17.9630  -32.3270 H   0  0  0  0  0  0  0  0  0  0  0  0
   -5.6646   20.1644  -32.2696 H   0  0  0  0  0  0  0  0  0  0  0  0
  1  2  1  0
  2  3  1  0
  2  4  1  0
  4  5  2  0
  4  6  1  0
  6  7  1  0
  7  8  1  0
  8  9  1  0
  8 10  2  0
  7 11  2  0
 11 12  1  0
 12 13  2  0
 13 14  1  0
 14 15  2  0
 15 16  1  0
 15 17  1  0
 17 18  2  0
 18  6  1  0
 18 12  1  0
  1 19  1  0
  1 20  1  0
  1 21  1  0
  3 22  1  0
  3 23  1  0
  3 24  1  0
  9 25  1  0
 11 26  1  0
 13 27  1  0
 14 28  1  0
 16 29  1  0
 16 30  1  0
 17 31  1  0
M  CHG  1   9  -1
M  END
>  <UniqueID>  (34) 
31

>  <SMILES>  (34) 
CN(C)C(=O)n1c(C([NH-])=O)cc2ccc(N)cc21

>  <Energy>  (34) 
67.99686514130688

>  <Genealogy>  (34) 
CN(C)C(=O)n1c(C([NH-])=O)cc2ccc(N)cc21 (protonated)
CN(C)C(=O)n1c(C([NH-])=O)cc2ccc(N)cc21 (3D coordinates assigned)
CN(C)C(=O)n1c(C([NH-])=O)cc2ccc(N)cc21 (optimized conformer: 67.99686514130688 kcal/mol)

>  <smiles>  (34) 
CN(C)C(=O)n1c(C(N)=O)cc2ccc(N)cc21

>  <score_type>  (34) 
oracle

>  <origin>  (34) 
adg

>  <m_score__min__energy>  (34) 
-9.3399999999999999

>  <m_primary>  (34) 
energy

$$$$
35:0
     RDKit          3D

 56 59  0  0  0  0  0  0  0  0999 V2000
   -6.5370   23.9140  -31.8450 C   0  0  0  0  0  0  0  0  0  0  0  0
   -6.4970   23.8900  -30.3050 C   0  0  0  0  0  0  0  0  0  0  0  0
   -7.4720   22.8340  -29.7520 C   0  0  0  0  0  0  0  0  0  0  0  0
   -6.9090   25.2730  -29.7770 C   0  0  0  0  0  0  0  0  0  0  0  0
   -5.1640   23.6400  -29.8380 O   0  0  0  0  0  0  0  0  0  0  0  0
   -3.9750   24.0730  -30.4430 C   0  0  0  0  0  0  0  0  0  0  0  0
   -3.8430   25.2640  -30.8330 O   0  0  0  0  0  0  0  0  0  0  0  0
   -2.9010   23.1400  -30.6380 N   0  0  0  0  0  0  0  0  0  0  0  0
   -1.6730   23.1470  -30.0440 C   0  0  0  0  0  0  0  0  0  0  0  0
   -1.1380   24.2140  -29.1730 C   0  0  0  0  0  0  0  0  0  0  0  0
   -2.0080   25.2320  -28.6840 N   0  0  0  0  0  0  0  0  0  0  0  0
    0.0720   24.2190  -28.8280 O   0  0  0  0  0  0  0  0  0  0  0  0
   -0.9380   22.0300  -30.4340 C   0  0  0  0  0  0  0  0  0  0  0  0
   -1.7570   21.3360  -31.2960 C   0  0  0  0  0  0  0  0  0  0  0  0
   -1.5320   20.1470  -31.9780 C   0  0  0  0  0  0  0  0  0  0  0  0
   -2.5640   19.6460  -32.7880 C   0  0  0  0  0  0  0  0  0  0  0  0
   -3.8100   20.3260  -32.8960 C   0  0  0  0  0  0  0  0  0  0  0  0
   -4.8560   19.7820  -33.7560 N   0  0  1  0  0  0  0  0  0  0  0  0
   -4.4280   18.5010  -34.3930 C   0  0  0  0  0  0  0  0  0  0  0  0
   -5.6360   17.6740  -34.9060 C   0  0  0  0  0  0  0  0  0  0  0  0
   -6.6180   17.3470  -33.8430 N   0  0  0  0  0  0  0  0  0  0  0  0
   -6.5140   18.2510  -32.6810 C   0  0  2  0  0  0  0  0  0  0  0  0
   -7.7900   18.3930  -31.8570 C   0  0  0  0  0  0  0  0  0  0  0  0
   -7.7050   19.7950  -31.2280 C   0  0  0  0  0  0  0  0  0  0  0  0
   -6.5240   20.5210  -31.8900 C   0  0  0  0  0  0  0  0  0  0  0  0
   -6.2050   19.6700  -33.1210 C   0  0  1  0  0  0  0  0  0  0  0  0
   -3.9900   21.5410  -32.1800 C   0  0  0  0  0  0  0  0  0  0  0  0
   -2.9350   22.0250  -31.4010 C   0  0  0  0  0  0  0  0  0  0  0  0
   -7.4354   24.4530  -32.1801 H   0  0  0  0  0  0  0  0  0  0  0  0
   -5.6400   24.4232  -32.2272 H   0  0  0  0  0  0  0  0  0  0  0  0
   -6.5642   22.8829  -32.2272 H   0  0  0  0  0  0  0  0  0  0  0  0
   -7.4515   22.8562  -28.6524 H   0  0  0  0  0  0  0  0  0  0  0  0
   -8.4903   23.0550  -30.1043 H   0  0  0  0  0  0  0  0  0  0  0  0
   -7.1706   21.8365  -30.1043 H   0  0  0  0  0  0  0  0  0  0  0  0
   -6.9056   25.2615  -28.6771 H   0  0  0  0  0  0  0  0  0  0  0  0
   -6.1974   26.0302  -30.1380 H   0  0  0  0  0  0  0  0  0  0  0  0
   -7.9189   25.5173  -30.1380 H   0  0  0  0  0  0  0  0  0  0  0  0
   -2.7170   25.6780  -29.3080 H   0  0  0  0  0  0  0  0  0  0  0  0
    0.0809   21.7596  -30.1198 H   0  0  0  0  0  0  0  0  0  0  0  0
   -0.5742   19.6139  -31.8864 H   0  0  0  0  0  0  0  0  0  0  0  0
   -2.4070   18.7126  -33.3484 H   0  0  0  0  0  0  0  0  0  0  0  0
   -4.9810   20.4490  -34.5550 H   0  0  0  0  0  0  0  0  0  0  0  0
   -3.7682   18.7302  -35.2428 H   0  0  0  0  0  0  0  0  0  0  0  0
   -3.9050   17.9021  -33.6328 H   0  0  0  0  0  0  0  0  0  0  0  0
   -6.1484   18.2531  -35.6883 H   0  0  0  0  0  0  0  0  0  0  0  0
   -5.2398   16.7213  -35.2874 H   0  0  0  0  0  0  0  0  0  0  0  0
   -7.5740   17.4120  -34.2620 H   0  0  0  0  0  0  0  0  0  0  0  0
   -5.7228   17.7833  -32.0767 H   0  0  0  0  0  0  0  0  0  0  0  0
   -8.6775   18.3119  -32.5018 H   0  0  0  0  0  0  0  0  0  0  0  0
   -7.8800   17.6038  -31.0960 H   0  0  0  0  0  0  0  0  0  0  0  0
   -8.6380   20.3477  -31.4125 H   0  0  0  0  0  0  0  0  0  0  0  0
   -7.5595   19.7258  -30.1399 H   0  0  0  0  0  0  0  0  0  0  0  0
   -6.8087   21.5420  -32.1843 H   0  0  0  0  0  0  0  0  0  0  0  0
   -5.6618   20.6269  -31.2152 H   0  0  0  0  0  0  0  0  0  0  0  0
   -6.8150   20.0484  -33.9545 H   0  0  0  0  0  0  0  0  0  0  0  0
   -4.9415   22.0899  -32.2379 H   0  0  0  0  0  0  0  0  0  0  0  0
  1  2  1  0
  2  3  1  0
  2  4  1  0
  2  5  1  0
  5  6  1  0
  6  7  2  0
  6  8  1  0
  8  9  1  0
  9 10  1  0
 10 11  1  0
 10 12  2  0
  9 13  2  0
 13 14  1  0
 14 15  2  0
 15 16  1  0
 16 17  2  0
 17 18  1  0
 18 19  1  0
 19 20  1  0
 20 21  1  0
 21 22  1  0
 22 23  1  0
 23 24  1  0
 24 25  1  0
 25 26  1  0
 17 27  1  0
 27 28  2  0
 28  8  1  0
 28 14  1  0
 26 18  1  0
 26 22  1  0
  1 29  1  0
  1 30  1  0
  1 31  1  0
  3 32  1  0
  3 33  1  0
  3 34  1  0
  4 35  1  0
  4 36  1  0
  4 37  1  0
 11 38  1  0
 13 39  1  0
 15 40  1  0
 16 41  1  0
 18 42  1  6
 19 43  1  0
 19 44  1  0
 20 45  1  0
 20 46  1  0
 21 47  1  0
 22 48  1  1
 23 49  1  0
 23 50  1  0
 24 51  1  0
 24 52  1  0
 25 53  1  0
 25 54  1  0
 26 55  1  6
 27 56  1  0
M  CHG  2  11  -1  18   1
M  END
>  <UniqueID>  (35) 
32

>  <SMILES>  (35) 
CC(C)(C)OC(=O)n1c(C([NH-])=O)cc2ccc([N@H+]3CCN[C@@H]4CCC[C@H]43)cc21

>  <Energy>  (35) 
118.87055585958744

>  <Genealogy>  (35) 
CC(C)(C)OC(=O)n1c(C([NH-])=O)cc2ccc([NH+]3CCN[C@@H]4CCC[C@H]43)cc21 (protonated)
CC(C)(C)OC(=O)n1c(C([NH-])=O)cc2ccc([N@H+]3CCN[C@@H]4CCC[C@H]43)cc21 (chirality)
CC(C)(C)OC(=O)n1c(C([NH-])=O)cc2ccc([N@H+]3CCN[C@@H]4CCC[C@H]43)cc21 (3D coordinates assigned)
CC(C)(C)OC(=O)n1c(C([NH-])=O)cc2ccc([N@H+]3CCN[C@@H]4CCC[C@H]43)cc21 (nonaromatic ring conformer: 118.87055585958744 kcal/mol)

>  <smiles>  (35) 
CC(C)(C)OC(=O)n1c(C(N)=O)cc2ccc(N3CCN[C@@H]4CCC[C@H]43)cc21

>  <score_type>  (35) 
oracle

>  <origin>  (35) 
adg

>  <m_score__min__energy>  (35) 
-11.57

>  <m_primary>  (35) 
energy

$$$$
36:0
     RDKit          3D

 32 34  0  0  0  0  0  0  0  0999 V2000
   -3.8630   25.6500  -30.8590 N   0  0  0  0  0  0  0  0  0  0  0  0
   -5.0960   25.0660  -30.4440 C   0  0  0  0  0  0  0  0  0  0  0  0
   -5.7950   25.6560  -29.5780 O   0  0  0  0  0  0  0  0  0  0  0  0
   -5.5550   23.8030  -31.0580 C   0  0  0  0  0  0  0  0  0  0  0  0
   -6.8960   23.5090  -31.3000 C   0  0  0  0  0  0  0  0  0  0  0  0
   -6.9040   22.2260  -31.7960 C   0  0  0  0  0  0  0  0  0  0  0  0
   -7.9710   21.4370  -32.2160 C   0  0  0  0  0  0  0  0  0  0  0  0
   -7.6870   20.1550  -32.7130 C   0  0  0  0  0  0  0  0  0  0  0  0
   -6.3490   19.6860  -32.7930 C   0  0  0  0  0  0  0  0  0  0  0  0
   -6.0600   18.3330  -33.3330 C   0  0  0  0  0  0  0  0  0  0  0  0
   -4.8700   18.0860  -34.0430 C   0  0  0  0  0  0  0  0  0  0  0  0
   -4.6000   16.8120  -34.5520 C   0  0  0  0  0  0  0  0  0  0  0  0
   -5.5110   15.7720  -34.3570 C   0  0  0  0  0  0  0  0  0  0  0  0
   -6.6950   16.0040  -33.6530 C   0  0  0  0  0  0  0  0  0  0  0  0
   -6.9710   17.2760  -33.1440 C   0  0  0  0  0  0  0  0  0  0  0  0
   -5.2920   20.5220  -32.3570 C   0  0  0  0  0  0  0  0  0  0  0  0
   -5.6080   21.7870  -31.8480 C   0  0  0  0  0  0  0  0  0  0  0  0
   -4.7660   22.7430  -31.3970 N   0  0  0  0  0  0  0  0  0  0  0  0
   -3.3320   22.6670  -31.3540 C   0  0  0  0  0  0  0  0  0  0  0  0
   -2.6180   23.1890  -30.2350 N   0  0  0  0  0  0  0  0  0  0  0  0
   -2.6970   22.1290  -32.3000 O   0  0  0  0  0  0  0  0  0  0  0  0
   -2.9520   25.2980  -30.4910 H   0  0  0  0  0  0  0  0  0  0  0  0
   -7.7634   24.1638  -31.1304 H   0  0  0  0  0  0  0  0  0  0  0  0
   -9.0055   21.8067  -32.1602 H   0  0  0  0  0  0  0  0  0  0  0  0
   -8.5109   19.5060  -33.0445 H   0  0  0  0  0  0  0  0  0  0  0  0
   -4.1475   18.9008  -34.1985 H   0  0  0  0  0  0  0  0  0  0  0  0
   -3.6682   16.6287  -35.1071 H   0  0  0  0  0  0  0  0  0  0  0  0
   -5.2964   14.7703  -34.7576 H   0  0  0  0  0  0  0  0  0  0  0  0
   -7.4116   15.1838  -33.4989 H   0  0  0  0  0  0  0  0  0  0  0  0
   -7.9060   17.4526  -32.5921 H   0  0  0  0  0  0  0  0  0  0  0  0
   -4.2467   20.1848  -32.4170 H   0  0  0  0  0  0  0  0  0  0  0  0
   -2.3720   24.2020  -30.1810 H   0  0  0  0  0  0  0  0  0  0  0  0
  1  2  1  0
  2  3  2  0
  2  4  1  0
  4  5  2  0
  5  6  1  0
  6  7  2  0
  7  8  1  0
  8  9  2  0
  9 10  1  0
 10 11  2  0
 11 12  1  0
 12 13  2  0
 13 14  1  0
 14 15  2  0
  9 16  1  0
 16 17  2  0
 17 18  1  0
 18 19  1  0
 19 20  1  0
 19 21  2  0
 18  4  1  0
 17  6  1  0
 15 10  1  0
  1 22  1  0
  5 23  1  0
  7 24  1  0
  8 25  1  0
 11 26  1  0
 12 27  1  0
 13 28  1  0
 14 29  1  0
 15 30  1  0
 16 31  1  0
 20 32  1  0
M  CHG  2   1  -1  20  -1
M  END
>  <UniqueID>  (36) 
33

>  <SMILES>  (36) 
[NH-]C(=O)c1cc2ccc(-c3ccccc3)cc2n1C([NH-])=O

>  <Energy>  (36) 
79.0445211810632

>  <Genealogy>  (36) 
[NH-]C(=O)c1cc2ccc(-c3ccccc3)cc2n1C([NH-])=O (protonated)
[NH-]C(=O)c1cc2ccc(-c3ccccc3)cc2n1C([NH-])=O (3D coordinates assigned)
[NH-]C(=O)c1cc2ccc(-c3ccccc3)cc2n1C([NH-])=O (optimized conformer: 79.0445211810632 kcal/mol)

>  <smiles>  (36) 
NC(=O)c1cc2ccc(-c3ccccc3)cc2n1C(N)=O

>  <score_type>  (36) 
oracle

>  <origin>  (36) 
adg

>  <m_score__min__energy>  (36) 
-11.35

>  <m_primary>  (36) 
energy

$$$$
37:0
     RDKit          3D

 61 64  0  0  0  0  0  0  0  0999 V2000
    0.2590   22.2950  -35.5200 C   0  0  0  0  0  0  0  0  0  0  0  0
    0.8260   20.9440  -35.3990 N   0  0  0  0  0  0  0  0  0  0  0  0
    2.2340   21.0240  -34.9790 C   0  0  0  0  0  0  0  0  0  0  0  0
    0.0430   20.1180  -34.4540 C   0  0  0  0  0  0  0  0  0  0  0  0
   -1.3570   20.7150  -34.2620 C   0  0  0  0  0  0  0  0  0  0  0  0
   -1.5730   21.1200  -32.8290 C   0  0  0  0  0  0  0  0  0  0  0  0
   -0.5740   20.8470  -31.8620 C   0  0  0  0  0  0  0  0  0  0  0  0
   -0.7210   21.2870  -30.5370 C   0  0  0  0  0  0  0  0  0  0  0  0
   -1.8740   21.9960  -30.2110 C   0  0  0  0  0  0  0  0  0  0  0  0
   -2.2600   22.5610  -29.0170 C   0  0  0  0  0  0  0  0  0  0  0  0
   -3.4920   23.1570  -29.2710 C   0  0  0  0  0  0  0  0  0  0  0  0
   -4.2920   23.8530  -28.2340 C   0  0  0  0  0  0  0  0  0  0  0  0
   -5.1860   24.9180  -28.5640 N   0  0  0  0  0  0  0  0  0  0  0  0
   -4.2420   23.4420  -27.0420 O   0  0  0  0  0  0  0  0  0  0  0  0
   -3.8420   22.9830  -30.5750 N   0  0  0  0  0  0  0  0  0  0  0  0
   -4.9690   23.5460  -31.2580 C   0  0  0  0  0  0  0  0  0  0  0  0
   -5.0040   24.7830  -31.4880 O   0  0  0  0  0  0  0  0  0  0  0  0
   -6.0460   22.7040  -31.6910 N   0  0  0  0  0  0  0  0  0  0  0  0
   -7.4300   23.1640  -31.5250 C   0  0  0  0  0  0  0  0  0  0  0  0
   -8.3590   22.0230  -31.0660 C   0  0  0  0  0  0  0  0  0  0  0  0
   -7.8400   20.6190  -31.4290 C   0  0  0  0  0  0  0  0  0  0  0  0
   -6.9920   20.6470  -32.7140 C   0  0  2  0  0  0  0  0  0  0  0  0
   -6.6120   19.2520  -33.1800 C   0  0  0  0  0  0  0  0  0  0  0  0
   -7.2640   18.1110  -32.6740 C   0  0  0  0  0  0  0  0  0  0  0  0
   -6.8740   16.8330  -33.0850 C   0  0  0  0  0  0  0  0  0  0  0  0
   -5.8240   16.6790  -33.9950 C   0  0  0  0  0  0  0  0  0  0  0  0
   -5.1630   17.8030  -34.4950 C   0  0  0  0  0  0  0  0  0  0  0  0
   -5.5520   19.0820  -34.0890 C   0  0  0  0  0  0  0  0  0  0  0  0
   -5.7410   21.5160  -32.5000 C   0  0  0  0  0  0  0  0  0  0  0  0
   -2.8480   22.2660  -31.1360 C   0  0  0  0  0  0  0  0  0  0  0  0
   -2.7270   21.8530  -32.4630 C   0  0  0  0  0  0  0  0  0  0  0  0
    0.0846   22.7107  -34.5166 H   0  0  0  0  0  0  0  0  0  0  0  0
    0.9623   22.9402  -36.0670 H   0  0  0  0  0  0  0  0  0  0  0  0
   -0.6941   22.2450  -36.0670 H   0  0  0  0  0  0  0  0  0  0  0  0
    2.2893   21.0271  -33.8804 H   0  0  0  0  0  0  0  0  0  0  0  0
    2.7836   20.1556  -35.3713 H   0  0  0  0  0  0  0  0  0  0  0  0
    2.6817   21.9490  -35.3713 H   0  0  0  0  0  0  0  0  0  0  0  0
   -0.0490   19.0973  -34.8537 H   0  0  0  0  0  0  0  0  0  0  0  0
    0.5599   20.0962  -33.4832 H   0  0  0  0  0  0  0  0  0  0  0  0
   -1.4633   21.5998  -34.9068 H   0  0  0  0  0  0  0  0  0  0  0  0
   -2.1047   19.9540  -34.5300 H   0  0  0  0  0  0  0  0  0  0  0  0
    0.3257   20.2847  -32.1524 H   0  0  0  0  0  0  0  0  0  0  0  0
    0.0500   21.0783  -29.7807 H   0  0  0  0  0  0  0  0  0  0  0  0
   -1.7112   22.5450  -28.0638 H   0  0  0  0  0  0  0  0  0  0  0  0
   -5.4660   25.0960  -29.5500 H   0  0  0  0  0  0  0  0  0  0  0  0
   -5.7310   25.3980  -27.8140 H   0  0  0  0  0  0  0  0  0  0  0  0
   -7.4513   23.9657  -30.7721 H   0  0  0  0  0  0  0  0  0  0  0  0
   -7.7894   23.5280  -32.4988 H   0  0  0  0  0  0  0  0  0  0  0  0
   -8.4672   22.0815  -29.9729 H   0  0  0  0  0  0  0  0  0  0  0  0
   -9.3168   22.1574  -31.5900 H   0  0  0  0  0  0  0  0  0  0  0  0
   -7.2223   20.2409  -30.6010 H   0  0  0  0  0  0  0  0  0  0  0  0
   -8.7067   19.9639  -31.6010 H   0  0  0  0  0  0  0  0  0  0  0  0
   -7.6053   21.0914  -33.5117 H   0  0  0  0  0  0  0  0  0  0  0  0
   -8.0851   18.2260  -31.9511 H   0  0  0  0  0  0  0  0  0  0  0  0
   -7.3942   15.9471  -32.6917 H   0  0  0  0  0  0  0  0  0  0  0  0
   -5.5185   15.6726  -34.3172 H   0  0  0  0  0  0  0  0  0  0  0  0
   -4.3353   17.6812  -35.2092 H   0  0  0  0  0  0  0  0  0  0  0  0
   -5.0250   19.9633  -34.4834 H   0  0  0  0  0  0  0  0  0  0  0  0
   -4.9743   20.9190  -31.9844 H   0  0  0  0  0  0  0  0  0  0  0  0
   -5.3791   21.8503  -33.4835 H   0  0  0  0  0  0  0  0  0  0  0  0
   -3.5056   22.0901  -33.2030 H   0  0  0  0  0  0  0  0  0  0  0  0
  1  2  1  0
  2  3  1  0
  2  4  1  0
  4  5  1  0
  5  6  1  0
  6  7  2  0
  7  8  1  0
  8  9  2  0
  9 10  1  0
 10 11  2  0
 11 12  1  0
 12 13  1  0
 12 14  2  0
 11 15  1  0
 15 16  1  0
 16 17  2  0
 16 18  1  0
 18 19  1  0
 19 20  1  0
 20 21  1  0
 21 22  1  0
 22 23  1  0
 23 24  2  0
 24 25  1  0
 25 26  2  0
 26 27  1  0
 27 28  2  0
 22 29  1  0
 15 30  1  0
 30 31  2  0
 31  6  1  0
 30  9  1  0
 29 18  1  0
 28 23  1  0
  1 32  1  0
  1 33  1  0
  1 34  1  0
  3 35  1  0
  3 36  1  0
  3 37  1  0
  4 38  1  0
  4 39  1  0
  5 40  1  0
  5 41  1  0
  7 42  1  0
  8 43  1  0
 10 44  1  0
 13 45  1  0
 13 46  1  0
 19 47  1  0
 19 48  1  0
 20 49  1  0
 20 50  1  0
 21 51  1  0
 21 52  1  0
 22 53  1  6
 24 54  1  0
 25 55  1  0
 26 56  1  0
 27 57  1  0
 28 58  1  0
 29 59  1  0
 29 60  1  0
 31 61  1  0
M  END
>  <UniqueID>  (37) 
34

>  <SMILES>  (37) 
CN(C)CCc1ccc2cc(C(N)=O)n(C(=O)N3CCC[C@H](c4ccccc4)C3)c2c1

>  <Energy>  (37) 
106.87173012593082

>  <Genealogy>  (37) 
CN(C)CCc1ccc2cc(C(N)=O)n(C(=O)N3CCC[C@H](c4ccccc4)C3)c2c1 (chirality)
CN(C)CCc1ccc2cc(C(N)=O)n(C(=O)N3CCC[C@H](c4ccccc4)C3)c2c1 (3D coordinates assigned)
CN(C)CCc1ccc2cc(C(N)=O)n(C(=O)N3CCC[C@H](c4ccccc4)C3)c2c1 (nonaromatic ring conformer: 106.87173012593082 kcal/mol)

>  <smiles>  (37) 
CN(C)CCc1ccc2cc(C(N)=O)n(C(=O)N3CCCC(c4ccccc4)C3)c2c1

>  <score_type>  (37) 
oracle

>  <origin>  (37) 
adg

>  <m_score__min__energy>  (37) 
-11.119999999999999

>  <m_primary>  (37) 
energy

$$$$
38:0
     RDKit          3D

 51 53  0  0  0  0  0  0  0  0999 V2000
   -6.8500   25.2890  -29.5790 C   0  0  0  0  0  0  0  0  0  0  0  0
   -6.3540   23.9830  -30.2220 C   0  0  0  0  0  0  0  0  0  0  0  0
   -6.3140   24.1750  -31.7510 C   0  0  0  0  0  0  0  0  0  0  0  0
   -7.3120   22.8410  -29.8420 C   0  0  0  0  0  0  0  0  0  0  0  0
   -5.0420   23.7260  -29.7010 O   0  0  0  0  0  0  0  0  0  0  0  0
   -3.8220   24.0930  -30.2900 C   0  0  0  0  0  0  0  0  0  0  0  0
   -3.5660   25.3010  -30.5270 O   0  0  0  0  0  0  0  0  0  0  0  0
   -2.8530   23.0780  -30.6070 N   0  0  0  0  0  0  0  0  0  0  0  0
   -1.5900   22.9600  -30.1040 C   0  0  0  0  0  0  0  0  0  0  0  0
   -0.9020   23.9460  -29.2490 C   0  0  0  0  0  0  0  0  0  0  0  0
   -1.3060   25.3150  -29.2260 N   0  0  0  0  0  0  0  0  0  0  0  0
    0.1050   23.5900  -28.5800 O   0  0  0  0  0  0  0  0  0  0  0  0
   -0.9760   21.8020  -30.5760 C   0  0  0  0  0  0  0  0  0  0  0  0
   -1.9000   21.2160  -31.4090 C   0  0  0  0  0  0  0  0  0  0  0  0
   -1.8000   20.0590  -32.1730 C   0  0  0  0  0  0  0  0  0  0  0  0
   -2.9040   19.6920  -32.9590 C   0  0  0  0  0  0  0  0  0  0  0  0
   -4.0960   20.4630  -32.9410 C   0  0  0  0  0  0  0  0  0  0  0  0
   -5.2620   20.1010  -33.8310 C   0  0  0  0  0  0  0  0  0  0  0  0
   -6.4630   19.5930  -33.0500 C   0  0  0  0  0  0  0  0  0  0  0  0
   -7.3830   20.5370  -32.5450 C   0  0  0  0  0  0  0  0  0  0  0  0
   -7.1920   21.8690  -32.7360 F   0  0  0  0  0  0  0  0  0  0  0  0
   -8.5160   20.1250  -31.8440 C   0  0  0  0  0  0  0  0  0  0  0  0
   -8.7570   18.7720  -31.6380 C   0  0  0  0  0  0  0  0  0  0  0  0
   -7.8650   17.8190  -32.1260 C   0  0  0  0  0  0  0  0  0  0  0  0
   -6.7030   18.2020  -32.8290 C   0  0  0  0  0  0  0  0  0  0  0  0
   -5.7420   17.1280  -33.3180 C   0  0  0  0  0  0  0  0  0  0  0  0
   -4.6120   17.0980  -32.5140 F   0  0  0  0  0  0  0  0  0  0  0  0
   -5.3290   17.3610  -34.6210 F   0  0  0  0  0  0  0  0  0  0  0  0
   -6.3650   15.8850  -33.2900 F   0  0  0  0  0  0  0  0  0  0  0  0
   -4.1550   21.6370  -32.1530 C   0  0  0  0  0  0  0  0  0  0  0  0
   -3.0280   22.0000  -31.4060 C   0  0  0  0  0  0  0  0  0  0  0  0
   -6.8143   25.1950  -28.4836 H   0  0  0  0  0  0  0  0  0  0  0  0
   -6.2056   26.1219  -29.8967 H   0  0  0  0  0  0  0  0  0  0  0  0
   -7.8849   25.4842  -29.8967 H   0  0  0  0  0  0  0  0  0  0  0  0
   -6.0947   25.2277  -31.9827 H   0  0  0  0  0  0  0  0  0  0  0  0
   -5.5301   23.5340  -32.1807 H   0  0  0  0  0  0  0  0  0  0  0  0
   -7.2887   23.9003  -32.1807 H   0  0  0  0  0  0  0  0  0  0  0  0
   -7.3757   22.7651  -28.7465 H   0  0  0  0  0  0  0  0  0  0  0  0
   -8.3108   23.0479  -30.2539 H   0  0  0  0  0  0  0  0  0  0  0  0
   -6.9346   21.8934  -30.2539 H   0  0  0  0  0  0  0  0  0  0  0  0
   -2.0260   25.6750  -29.8890 H   0  0  0  0  0  0  0  0  0  0  0  0
   -0.8300   25.9920  -28.5900 H   0  0  0  0  0  0  0  0  0  0  0  0
    0.0323   21.4349  -30.3341 H   0  0  0  0  0  0  0  0  0  0  0  0
   -0.8842   19.4498  -32.1621 H   0  0  0  0  0  0  0  0  0  0  0  0
   -2.8447   18.7971  -33.5959 H   0  0  0  0  0  0  0  0  0  0  0  0
   -5.5632   20.9949  -34.3968 H   0  0  0  0  0  0  0  0  0  0  0  0
   -4.9318   19.2894  -34.4961 H   0  0  0  0  0  0  0  0  0  0  0  0
   -9.2211   20.8733  -31.4529 H   0  0  0  0  0  0  0  0  0  0  0  0
   -9.6545   18.4523  -31.0881 H   0  0  0  0  0  0  0  0  0  0  0  0
   -8.0700   16.7510  -31.9605 H   0  0  0  0  0  0  0  0  0  0  0  0
   -5.0671   22.2513  -32.1280 H   0  0  0  0  0  0  0  0  0  0  0  0
  1  2  1  0
  2  3  1  0
  2  4  1  0
  2  5  1  0
  5  6  1  0
  6  7  2  0
  6  8  1  0
  8  9  1  0
  9 10  1  0
 10 11  1  0
 10 12  2  0
  9 13  2  0
 13 14  1  0
 14 15  2  0
 15 16  1  0
 16 17  2  0
 17 18  1  0
 18 19  1  0
 19 20  2  0
 20 21  1  0
 20 22  1  0
 22 23  2  0
 23 24  1  0
 24 25  2  0
 25 26  1  0
 26 27  1  0
 26 28  1  0
 26 29  1  0
 17 30  1  0
 30 31  2  0
 31  8  1  0
 31 14  1  0
 25 19  1  0
  1 32  1  0
  1 33  1  0
  1 34  1  0
  3 35  1  0
  3 36  1  0
  3 37  1  0
  4 38  1  0
  4 39  1  0
  4 40  1  0
 11 41  1  0
 11 42  1  0
 13 43  1  0
 15 44  1  0
 16 45  1  0
 18 46  1  0
 18 47  1  0
 22 48  1  0
 23 49  1  0
 24 50  1  0
 30 51  1  0
M  END
>  <UniqueID>  (38) 
35

>  <SMILES>  (38) 
CC(C)(C)OC(=O)n1c(C(N)=O)cc2ccc(Cc3c(F)cccc3C(F)(F)F)cc21

>  <Energy>  (38) 
92.40234986487901

>  <Genealogy>  (38) 
CC(C)(C)OC(=O)n1c(C(N)=O)cc2ccc(Cc3c(F)cccc3C(F)(F)F)cc21 (3D coordinates assigned)
CC(C)(C)OC(=O)n1c(C(N)=O)cc2ccc(Cc3c(F)cccc3C(F)(F)F)cc21 (optimized conformer: 92.40234986487901 kcal/mol)

>  <smiles>  (38) 
CC(C)(C)OC(=O)n1c(C(N)=O)cc2ccc(Cc3c(F)cccc3C(F)(F)F)cc21

>  <score_type>  (38) 
oracle

>  <origin>  (38) 
adg

>  <m_score__min__energy>  (38) 
-9.7300000000000004

>  <m_primary>  (38) 
energy

$$$$
39:0
     RDKit          3D

 53 55  0  0  0  0  0  0  0  0999 V2000
   -1.9090   18.6340  -33.2170 C   0  0  0  0  0  0  0  0  0  0  0  0
   -1.8710   18.0520  -34.4190 C   0  0  0  0  0  0  0  0  0  0  0  0
   -2.4260   16.6680  -34.6510 C   0  0  0  0  0  0  0  0  0  0  0  0
   -3.6450   16.6900  -35.4740 N   0  0  0  0  0  0  0  0  0  0  0  0
   -4.8130   16.9410  -34.6690 C   0  0  0  0  0  0  0  0  0  0  0  0
   -5.0520   18.2170  -34.1310 C   0  0  0  0  0  0  0  0  0  0  0  0
   -6.2090   18.4490  -33.3700 C   0  0  0  0  0  0  0  0  0  0  0  0
   -6.4820   19.7930  -32.7990 C   0  0  0  0  0  0  0  0  0  0  0  0
   -7.8170   20.2500  -32.6480 C   0  0  0  0  0  0  0  0  0  0  0  0
   -8.0860   21.5140  -32.0970 C   0  0  0  0  0  0  0  0  0  0  0  0
   -7.0070   22.3010  -31.7120 C   0  0  0  0  0  0  0  0  0  0  0  0
   -6.9830   23.5480  -31.1290 C   0  0  0  0  0  0  0  0  0  0  0  0
   -5.6340   23.8490  -30.9540 C   0  0  0  0  0  0  0  0  0  0  0  0
   -5.1490   25.1410  -30.4270 C   0  0  0  0  0  0  0  0  0  0  0  0
   -3.8870   25.6510  -30.8490 N   0  0  0  0  0  0  0  0  0  0  0  0
   -5.8210   25.7840  -29.5770 O   0  0  0  0  0  0  0  0  0  0  0  0
   -4.8540   22.8260  -31.4060 N   0  0  0  0  0  0  0  0  0  0  0  0
   -3.4240   22.7150  -31.3350 C   0  0  0  0  0  0  0  0  0  0  0  0
   -2.7930   22.1690  -32.2780 O   0  0  0  0  0  0  0  0  0  0  0  0
   -2.7520   23.1960  -30.2000 O   0  0  0  0  0  0  0  0  0  0  0  0
   -2.7310   22.5840  -28.9020 C   0  0  0  0  0  0  0  0  0  0  0  0
   -3.8450   23.1620  -28.0090 C   0  0  0  0  0  0  0  0  0  0  0  0
   -1.3520   22.7670  -28.2390 C   0  0  0  0  0  0  0  0  0  0  0  0
   -2.9870   21.0830  -29.1060 C   0  0  0  0  0  0  0  0  0  0  0  0
   -5.7100   21.8870  -31.8670 C   0  0  0  0  0  0  0  0  0  0  0  0
   -5.4120   20.6260  -32.3970 C   0  0  0  0  0  0  0  0  0  0  0  0
   -7.1080   17.3890  -33.1630 C   0  0  0  0  0  0  0  0  0  0  0  0
   -6.8390   16.1360  -33.7180 C   0  0  0  0  0  0  0  0  0  0  0  0
   -5.7130   15.9420  -34.4530 N   0  0  0  0  0  0  0  0  0  0  0  0
   -1.4955   19.6443  -33.0818 H   0  0  0  0  0  0  0  0  0  0  0  0
   -2.3538   18.1029  -32.3626 H   0  0  0  0  0  0  0  0  0  0  0  0
   -1.4227   18.5968  -35.2630 H   0  0  0  0  0  0  0  0  0  0  0  0
   -1.6639   16.0617  -35.1625 H   0  0  0  0  0  0  0  0  0  0  0  0
   -2.6867   16.2397  -33.6719 H   0  0  0  0  0  0  0  0  0  0  0  0
   -3.7480   15.7640  -35.9520 H   0  0  0  0  0  0  0  0  0  0  0  0
   -3.5650   17.4200  -36.2210 H   0  0  0  0  0  0  0  0  0  0  0  0
   -4.3344   19.0322  -34.3056 H   0  0  0  0  0  0  0  0  0  0  0  0
   -8.6509   19.6070  -32.9661 H   0  0  0  0  0  0  0  0  0  0  0  0
   -9.1195   21.8701  -31.9740 H   0  0  0  0  0  0  0  0  0  0  0  0
   -7.8461   24.1741  -30.8586 H   0  0  0  0  0  0  0  0  0  0  0  0
   -2.9970   25.2850  -30.4460 H   0  0  0  0  0  0  0  0  0  0  0  0
   -3.5765   23.0227  -26.9514 H   0  0  0  0  0  0  0  0  0  0  0  0
   -3.9634   24.2353  -28.2189 H   0  0  0  0  0  0  0  0  0  0  0  0
   -4.7907   22.6408  -28.2189 H   0  0  0  0  0  0  0  0  0  0  0  0
   -1.4662   22.7518  -27.1450 H   0  0  0  0  0  0  0  0  0  0  0  0
   -0.6846   21.9496  -28.5493 H   0  0  0  0  0  0  0  0  0  0  0  0
   -0.9209   23.7302  -28.5493 H   0  0  0  0  0  0  0  0  0  0  0  0
   -3.0713   20.5890  -28.1268 H   0  0  0  0  0  0  0  0  0  0  0  0
   -3.9219   20.9436  -29.6686 H   0  0  0  0  0  0  0  0  0  0  0  0
   -2.1512   20.6416  -29.6686 H   0  0  0  0  0  0  0  0  0  0  0  0
   -4.3693   20.2906  -32.4985 H   0  0  0  0  0  0  0  0  0  0  0  0
   -8.0191   17.5454  -32.5668 H   0  0  0  0  0  0  0  0  0  0  0  0
   -7.5407   15.3039  -33.5596 H   0  0  0  0  0  0  0  0  0  0  0  0
  1  2  2  0
  2  3  1  0
  3  4  1  0
  4  5  1  0
  5  6  2  0
  6  7  1  0
  7  8  1  0
  8  9  2  0
  9 10  1  0
 10 11  2  0
 11 12  1  0
 12 13  2  0
 13 14  1  0
 14 15  1  0
 14 16  2  0
 13 17  1  0
 17 18  1  0
 18 19  2  0
 18 20  1  0
 20 21  1  0
 21 22  1  0
 21 23  1  0
 21 24  1  0
 17 25  1  0
 25 26  2  0
  7 27  2  0
 27 28  1  0
 28 29  2  0
 29  5  1  0
 26  8  1  0
 25 11  1  0
  1 30  1  0
  1 31  1  0
  2 32  1  0
  3 33  1  0
  3 34  1  0
  4 35  1  0
  4 36  1  0
  6 37  1  0
  9 38  1  0
 10 39  1  0
 12 40  1  0
 15 41  1  0
 22 42  1  0
 22 43  1  0
 22 44  1  0
 23 45  1  0
 23 46  1  0
 23 47  1  0
 24 48  1  0
 24 49  1  0
 24 50  1  0
 26 51  1  0
 27 52  1  0
 28 53  1  0
M  CHG  2   4   1  15  -1
M  END
>  <UniqueID>  (39) 
36

>  <SMILES>  (39) 
C=CC[NH2+]c1cc(-c2ccc3cc(C([NH-])=O)n(C(=O)OC(C)(C)C)c3c2)ccn1

>  <Energy>  (39) 
92.40607439342774

>  <Genealogy>  (39) 
C=CC[NH2+]c1cc(-c2ccc3cc(C([NH-])=O)n(C(=O)OC(C)(C)C)c3c2)ccn1 (protonated)
C=CC[NH2+]c1cc(-c2ccc3cc(C([NH-])=O)n(C(=O)OC(C)(C)C)c3c2)ccn1 (3D coordinates assigned)
C=CC[NH2+]c1cc(-c2ccc3cc(C([NH-])=O)n(C(=O)OC(C)(C)C)c3c2)ccn1 (optimized conformer: 92.40607439342774 kcal/mol)

>  <smiles>  (39) 
C=CCNc1cc(-c2ccc3cc(C(N)=O)n(C(=O)OC(C)(C)C)c3c2)ccn1

>  <score_type>  (39) 
oracle

>  <origin>  (39) 
adg

>  <m_score__min__energy>  (39) 
-11.550000000000001

>  <m_primary>  (39) 
energy

$$$$
40:0
     RDKit          3D

 41 43  0  0  0  0  0  0  0  0999 V2000
   -2.9910   21.0600  -29.2000 C   0  0  0  0  0  0  0  0  0  0  0  0
   -2.8400   22.5830  -29.0270 C   0  0  0  0  0  0  0  0  0  0  0  0
   -3.9220   23.0820  -28.0570 C   0  0  0  0  0  0  0  0  0  0  0  0
   -1.4550   22.9300  -28.4490 C   0  0  0  0  0  0  0  0  0  0  0  0
   -3.0510   23.2550  -30.2780 O   0  0  0  0  0  0  0  0  0  0  0  0
   -3.7280   22.7440  -31.3950 C   0  0  0  0  0  0  0  0  0  0  0  0
   -3.0930   22.2460  -32.3630 O   0  0  0  0  0  0  0  0  0  0  0  0
   -5.1640   22.7870  -31.4300 N   0  0  0  0  0  0  0  0  0  0  0  0
   -5.9690   23.7620  -30.9210 C   0  0  0  0  0  0  0  0  0  0  0  0
   -5.5190   25.0610  -30.3840 C   0  0  0  0  0  0  0  0  0  0  0  0
   -4.1820   25.5200  -30.5840 N   0  0  0  0  0  0  0  0  0  0  0  0
   -6.3420   25.8030  -29.7830 O   0  0  0  0  0  0  0  0  0  0  0  0
   -7.3080   23.3950  -31.0160 C   0  0  0  0  0  0  0  0  0  0  0  0
   -7.3030   22.1560  -31.6140 C   0  0  0  0  0  0  0  0  0  0  0  0
   -8.3630   21.3160  -31.9350 C   0  0  0  0  0  0  0  0  0  0  0  0
   -8.0670   20.0710  -32.5120 C   0  0  0  0  0  0  0  0  0  0  0  0
   -6.7220   19.6800  -32.7480 C   0  0  0  0  0  0  0  0  0  0  0  0
   -6.4330   18.3560  -33.3430 C   0  0  0  0  0  0  0  0  0  0  0  0
   -7.1960   17.2580  -33.1320 N   0  0  0  0  0  0  0  0  0  0  0  0
   -6.7230   16.1650  -33.7880 C   0  0  0  0  0  0  0  0  0  0  0  0
   -5.5710   16.3770  -34.5360 C   0  0  0  0  0  0  0  0  0  0  0  0
   -5.1390   17.9910  -34.3610 S   0  0  0  0  0  0  0  0  0  0  0  0
   -5.6720   20.5640  -32.4050 C   0  0  0  0  0  0  0  0  0  0  0  0
   -5.9990   21.8090  -31.8520 C   0  0  0  0  0  0  0  0  0  0  0  0
   -3.0384   20.5815  -28.2107 H   0  0  0  0  0  0  0  0  0  0  0  0
   -3.9150   20.8440  -29.7565 H   0  0  0  0  0  0  0  0  0  0  0  0
   -2.1274   20.6668  -29.7565 H   0  0  0  0  0  0  0  0  0  0  0  0
   -3.5856   22.9269  -27.0212 H   0  0  0  0  0  0  0  0  0  0  0  0
   -4.1014   24.1538  -28.2276 H   0  0  0  0  0  0  0  0  0  0  0  0
   -4.8536   22.5226  -28.2276 H   0  0  0  0  0  0  0  0  0  0  0  0
   -1.5028   22.9180  -27.3501 H   0  0  0  0  0  0  0  0  0  0  0  0
   -0.7183   22.1887  -28.7921 H   0  0  0  0  0  0  0  0  0  0  0  0
   -1.1548   23.9311  -28.7921 H   0  0  0  0  0  0  0  0  0  0  0  0
   -3.5280   25.0120  -31.2200 H   0  0  0  0  0  0  0  0  0  0  0  0
   -3.8640   26.4170  -30.1540 H   0  0  0  0  0  0  0  0  0  0  0  0
   -8.1835   23.9723  -30.6839 H   0  0  0  0  0  0  0  0  0  0  0  0
   -9.4031   21.6180  -31.7426 H   0  0  0  0  0  0  0  0  0  0  0  0
   -8.8866   19.3899  -32.7847 H   0  0  0  0  0  0  0  0  0  0  0  0
   -7.2166   15.1836  -33.7308 H   0  0  0  0  0  0  0  0  0  0  0  0
   -5.0381   15.6237  -35.1348 H   0  0  0  0  0  0  0  0  0  0  0  0
   -4.6220   20.2800  -32.5689 H   0  0  0  0  0  0  0  0  0  0  0  0
  1  2  1  0
  2  3  1  0
  2  4  1  0
  2  5  1  0
  5  6  1  0
  6  7  2  0
  6  8  1  0
  8  9  1  0
  9 10  1  0
 10 11  1  0
 10 12  2  0
  9 13  2  0
 13 14  1  0
 14 15  2  0
 15 16  1  0
 16 17  2  0
 17 18  1  0
 18 19  2  0
 19 20  1  0
 20 21  2  0
 21 22  1  0
 17 23  1  0
 23 24  2  0
 24  8  1  0
 24 14  1  0
 22 18  1  0
  1 25  1  0
  1 26  1  0
  1 27  1  0
  3 28  1  0
  3 29  1  0
  3 30  1  0
  4 31  1  0
  4 32  1  0
  4 33  1  0
 11 34  1  0
 11 35  1  0
 13 36  1  0
 15 37  1  0
 16 38  1  0
 20 39  1  0
 21 40  1  0
 23 41  1  0
M  END
>  <UniqueID>  (40) 
37

>  <SMILES>  (40) 
CC(C)(C)OC(=O)n1c(C(N)=O)cc2ccc(-c3nccs3)cc21

>  <Energy>  (40) 
107.80364107561024

>  <Genealogy>  (40) 
CC(C)(C)OC(=O)n1c(C(N)=O)cc2ccc(-c3nccs3)cc21 (3D coordinates assigned)
CC(C)(C)OC(=O)n1c(C(N)=O)cc2ccc(-c3nccs3)cc21 (optimized conformer: 107.80364107561024 kcal/mol)

>  <smiles>  (40) 
CC(C)(C)OC(=O)n1c(C(N)=O)cc2ccc(-c3nccs3)cc21

>  <score_type>  (40) 
oracle

>  <origin>  (40) 
adg

>  <m_score__min__energy>  (40) 
-9.6300000000000008

>  <m_primary>  (40) 
energy

$$$$
41:0
     RDKit          3D

 38 40  0  0  0  0  0  0  0  0999 V2000
   -1.3460   25.9270  -29.0200 N   0  0  0  0  0  0  0  0  0  0  0  0
   -2.2760   24.9900  -28.4830 C   0  0  0  0  0  0  0  0  0  0  0  0
   -2.3300   24.8210  -27.2350 O   0  0  0  0  0  0  0  0  0  0  0  0
   -3.1290   24.1730  -29.3700 C   0  0  0  0  0  0  0  0  0  0  0  0
   -4.2690   24.6660  -29.9990 C   0  0  0  0  0  0  0  0  0  0  0  0
   -4.8230   23.5860  -30.6480 C   0  0  0  0  0  0  0  0  0  0  0  0
   -5.9630   23.5070  -31.4400 C   0  0  0  0  0  0  0  0  0  0  0  0
   -6.2850   22.2650  -32.0120 C   0  0  0  0  0  0  0  0  0  0  0  0
   -5.4630   21.1290  -31.7920 C   0  0  0  0  0  0  0  0  0  0  0  0
   -5.8050   19.8230  -32.4110 C   0  0  0  0  0  0  0  0  0  0  0  0
   -5.1430   19.3870  -33.5730 C   0  0  0  0  0  0  0  0  0  0  0  0
   -5.4640   18.1570  -34.1540 C   0  0  0  0  0  0  0  0  0  0  0  0
   -6.4470   17.3330  -33.5780 C   0  0  0  0  0  0  0  0  0  0  0  0
   -6.8130   16.0750  -34.1710 N   0  0  0  0  0  0  0  0  0  0  0  0
   -6.1540   14.8290  -33.8900 C   0  0  0  0  0  0  0  0  0  0  0  0
   -5.3760   14.7260  -32.9030 O   0  0  0  0  0  0  0  0  0  0  0  0
   -6.4670   13.6180  -34.7140 C   0  0  0  0  0  0  0  0  0  0  0  0
   -5.4160   13.3290  -35.5650 F   0  0  0  0  0  0  0  0  0  0  0  0
   -6.6840   12.5390  -33.8780 F   0  0  0  0  0  0  0  0  0  0  0  0
   -7.6040   13.8460  -35.4670 F   0  0  0  0  0  0  0  0  0  0  0  0
   -7.1240   17.7780  -32.4350 C   0  0  0  0  0  0  0  0  0  0  0  0
   -6.8020   19.0070  -31.8510 C   0  0  0  0  0  0  0  0  0  0  0  0
   -4.3110   21.2520  -30.9790 C   0  0  0  0  0  0  0  0  0  0  0  0
   -4.0260   22.4980  -30.4070 C   0  0  0  0  0  0  0  0  0  0  0  0
   -2.9770   22.8420  -29.6260 N   0  0  0  0  0  0  0  0  0  0  0  0
   -1.8850   21.9930  -29.2390 C   0  0  0  0  0  0  0  0  0  0  0  0
   -0.7710   22.0860  -29.8170 O   0  0  0  0  0  0  0  0  0  0  0  0
   -2.0410   21.0790  -28.2040 O   0  0  0  0  0  0  0  0  0  0  0  0
   -1.2390   26.0460  -30.0510 H   0  0  0  0  0  0  0  0  0  0  0  0
   -4.6467   25.6990  -29.9811 H   0  0  0  0  0  0  0  0  0  0  0  0
   -6.5942   24.3910  -31.6136 H   0  0  0  0  0  0  0  0  0  0  0  0
   -7.1848   22.1718  -32.6378 H   0  0  0  0  0  0  0  0  0  0  0  0
   -4.3664   20.0192  -34.0281 H   0  0  0  0  0  0  0  0  0  0  0  0
   -4.9445   17.8316  -35.0674 H   0  0  0  0  0  0  0  0  0  0  0  0
   -7.6630   16.0480  -34.7790 H   0  0  0  0  0  0  0  0  0  0  0  0
   -7.9157   17.1552  -31.9932 H   0  0  0  0  0  0  0  0  0  0  0  0
   -7.3334   19.3374  -30.9463 H   0  0  0  0  0  0  0  0  0  0  0  0
   -3.6541   20.3880  -30.8004 H   0  0  0  0  0  0  0  0  0  0  0  0
  1  2  1  0
  2  3  2  0
  2  4  1  0
  4  5  2  0
  5  6  1  0
  6  7  2  0
  7  8  1  0
  8  9  2  0
  9 10  1  0
 10 11  2  0
 11 12  1  0
 12 13  2  0
 13 14  1  0
 14 15  1  0
 15 16  2  0
 15 17  1  0
 17 18  1  0
 17 19  1  0
 17 20  1  0
 13 21  1  0
 21 22  2  0
  9 23  1  0
 23 24  2  0
 24 25  1  0
 25 26  1  0
 26 27  2  0
 26 28  1  0
 25  4  1  0
 24  6  1  0
 22 10  1  0
  1 29  1  0
  5 30  1  0
  7 31  1  0
  8 32  1  0
 11 33  1  0
 12 34  1  0
 14 35  1  0
 21 36  1  0
 22 37  1  0
 23 38  1  0
M  CHG  2   1  -1  28  -1
M  END
>  <UniqueID>  (41) 
38

>  <SMILES>  (41) 
[NH-]C(=O)c1cc2ccc(-c3ccc(NC(=O)C(F)(F)F)cc3)cc2n1C(=O)[O-]

>  <Energy>  (41) 
88.01498790061932

>  <Genealogy>  (41) 
[NH-]C(=O)c1cc2ccc(-c3ccc(NC(=O)C(F)(F)F)cc3)cc2n1C(=O)[O-] (protonated)
[NH-]C(=O)c1cc2ccc(-c3ccc(NC(=O)C(F)(F)F)cc3)cc2n1C(=O)[O-] (3D coordinates assigned)
[NH-]C(=O)c1cc2ccc(-c3ccc(NC(=O)C(F)(F)F)cc3)cc2n1C(=O)[O-] (optimized conformer: 88.01498790061932 kcal/mol)

>  <smiles>  (41) 
NC(=O)c1cc2ccc(-c3ccc(NC(=O)C(F)(F)F)cc3)cc2n1C(=O)O

>  <score_type>  (41) 
oracle

>  <origin>  (41) 
adg

>  <m_score__min__energy>  (41) 
-10.23

>  <m_primary>  (41) 
energy

$$$$
42:0
     RDKit          3D

 43 45  0  0  0  0  0  0  0  0999 V2000
   -5.8670   18.9510  -31.9780 C   0  0  0  0  0  0  0  0  0  0  0  0
   -4.6820   19.3100  -32.7670 N   0  0  0  0  0  0  0  0  0  0  0  0
   -4.6280   18.9190  -34.1810 C   0  0  0  0  0  0  0  0  0  0  0  0
   -3.5820   20.0380  -32.1590 C   0  0  0  0  0  0  0  0  0  0  0  0
   -2.2510   19.5380  -32.2360 C   0  0  0  0  0  0  0  0  0  0  0  0
   -1.1820   20.2260  -31.6410 C   0  0  0  0  0  0  0  0  0  0  0  0
   -1.4580   21.4170  -30.9820 C   0  0  0  0  0  0  0  0  0  0  0  0
   -0.6170   22.2650  -30.2980 C   0  0  0  0  0  0  0  0  0  0  0  0
   -1.4310   23.2930  -29.8290 C   0  0  0  0  0  0  0  0  0  0  0  0
   -0.9150   24.4720  -29.1030 C   0  0  0  0  0  0  0  0  0  0  0  0
   -1.7010   25.6530  -28.9680 N   0  0  0  0  0  0  0  0  0  0  0  0
    0.2560   24.4540  -28.6380 O   0  0  0  0  0  0  0  0  0  0  0  0
   -2.7260   23.0850  -30.2010 N   0  0  0  0  0  0  0  0  0  0  0  0
   -3.8770   23.8600  -29.8300 C   0  0  0  0  0  0  0  0  0  0  0  0
   -4.5260   23.5670  -28.7890 O   0  0  0  0  0  0  0  0  0  0  0  0
   -4.2600   24.9500  -30.6160 O   0  0  0  0  0  0  0  0  0  0  0  0
   -5.6220   25.2970  -30.8400 C   0  0  0  0  0  0  0  0  0  0  0  0
   -6.4070   24.0490  -31.1180 C   0  0  0  0  0  0  0  0  0  0  0  0
   -6.2700   23.3820  -32.3460 C   0  0  0  0  0  0  0  0  0  0  0  0
   -6.9710   22.1960  -32.5850 C   0  0  0  0  0  0  0  0  0  0  0  0
   -7.8010   21.6620  -31.5950 C   0  0  0  0  0  0  0  0  0  0  0  0
   -7.9280   22.3110  -30.3630 C   0  0  0  0  0  0  0  0  0  0  0  0
   -7.2290   23.4980  -30.1210 C   0  0  0  0  0  0  0  0  0  0  0  0
   -2.7240   21.9320  -30.9070 C   0  0  0  0  0  0  0  0  0  0  0  0
   -3.8130   21.2580  -31.4730 C   0  0  0  0  0  0  0  0  0  0  0  0
   -5.6296   19.0229  -30.9063 H   0  0  0  0  0  0  0  0  0  0  0  0
   -6.6900   19.6401  -32.2183 H   0  0  0  0  0  0  0  0  0  0  0  0
   -6.1692   17.9210  -32.2183 H   0  0  0  0  0  0  0  0  0  0  0  0
   -4.4779   17.8318  -34.2553 H   0  0  0  0  0  0  0  0  0  0  0  0
   -5.5725   19.1932  -34.6736 H   0  0  0  0  0  0  0  0  0  0  0  0
   -3.7931   19.4390  -34.6736 H   0  0  0  0  0  0  0  0  0  0  0  0
   -2.0572   18.5965  -32.7709 H   0  0  0  0  0  0  0  0  0  0  0  0
   -0.1559   19.8334  -31.6951 H   0  0  0  0  0  0  0  0  0  0  0  0
    0.4677   22.1543  -30.1527 H   0  0  0  0  0  0  0  0  0  0  0  0
   -2.6850   25.6860  -29.3130 H   0  0  0  0  0  0  0  0  0  0  0  0
   -6.0268   25.7956  -29.9469 H   0  0  0  0  0  0  0  0  0  0  0  0
   -5.6941   25.9795  -31.6997 H   0  0  0  0  0  0  0  0  0  0  0  0
   -5.6089   23.7939  -33.1227 H   0  0  0  0  0  0  0  0  0  0  0  0
   -6.8693   21.6829  -33.5526 H   0  0  0  0  0  0  0  0  0  0  0  0
   -8.3545   20.7307  -31.7853 H   0  0  0  0  0  0  0  0  0  0  0  0
   -8.5783   21.8876  -29.5834 H   0  0  0  0  0  0  0  0  0  0  0  0
   -7.3232   24.0014  -29.1475 H   0  0  0  0  0  0  0  0  0  0  0  0
   -4.8303   21.6675  -31.3872 H   0  0  0  0  0  0  0  0  0  0  0  0
  1  2  1  0
  2  3  1  0
  2  4  1  0
  4  5  2  0
  5  6  1  0
  6  7  2  0
  7  8  1  0
  8  9  2  0
  9 10  1  0
 10 11  1  0
 10 12  2  0
  9 13  1  0
 13 14  1  0
 14 15  2  0
 14 16  1  0
 16 17  1  0
 17 18  1  0
 18 19  2  0
 19 20  1  0
 20 21  2  0
 21 22  1  0
 22 23  2  0
 13 24  1  0
 24 25  2  0
 25  4  1  0
 24  7  1  0
 23 18  1  0
  1 26  1  0
  1 27  1  0
  1 28  1  0
  3 29  1  0
  3 30  1  0
  3 31  1  0
  5 32  1  0
  6 33  1  0
  8 34  1  0
 11 35  1  0
 17 36  1  0
 17 37  1  0
 19 38  1  0
 20 39  1  0
 21 40  1  0
 22 41  1  0
 23 42  1  0
 25 43  1  0
M  CHG  1  11  -1
M  END
>  <UniqueID>  (42) 
39

>  <SMILES>  (42) 
CN(C)c1ccc2cc(C([NH-])=O)n(C(=O)OCc3ccccc3)c2c1

>  <Energy>  (42) 
83.0998237657462

>  <Genealogy>  (42) 
CN(C)c1ccc2cc(C([NH-])=O)n(C(=O)OCc3ccccc3)c2c1 (protonated)
CN(C)c1ccc2cc(C([NH-])=O)n(C(=O)OCc3ccccc3)c2c1 (3D coordinates assigned)
CN(C)c1ccc2cc(C([NH-])=O)n(C(=O)OCc3ccccc3)c2c1 (optimized conformer: 83.0998237657462 kcal/mol)

>  <smiles>  (42) 
CN(C)c1ccc2cc(C(N)=O)n(C(=O)OCc3ccccc3)c2c1

>  <score_type>  (42) 
oracle

>  <origin>  (42) 
adg

>  <m_score__min__energy>  (42) 
-10.789999999999999

>  <m_primary>  (42) 
energy

$$$$
43:0
     RDKit          3D

 61 65  0  0  0  0  0  0  0  0999 V2000
   -6.2740   23.1360  -29.6730 C   0  0  0  0  0  0  0  0  0  0  0  0
   -5.9560   24.3730  -30.5290 C   0  0  0  0  0  0  0  0  0  0  0  0
   -6.4780   24.1380  -31.9600 C   0  0  0  0  0  0  0  0  0  0  0  0
   -6.6330   25.6040  -29.8930 C   0  0  0  0  0  0  0  0  0  0  0  0
   -4.5300   24.5310  -30.5340 O   0  0  0  0  0  0  0  0  0  0  0  0
   -3.6450   24.1610  -29.5110 C   0  0  0  0  0  0  0  0  0  0  0  0
   -3.8390   24.5270  -28.3200 O   0  0  0  0  0  0  0  0  0  0  0  0
   -2.5140   23.3350  -29.8290 N   0  0  0  0  0  0  0  0  0  0  0  0
   -1.2030   23.5410  -29.5160 C   0  0  0  0  0  0  0  0  0  0  0  0
   -0.6390   24.7470  -28.8740 C   0  0  0  0  0  0  0  0  0  0  0  0
   -1.3310   25.9880  -28.9700 N   0  0  0  0  0  0  0  0  0  0  0  0
    0.4260   24.6870  -28.2090 O   0  0  0  0  0  0  0  0  0  0  0  0
   -0.4210   22.4830  -29.9780 C   0  0  0  0  0  0  0  0  0  0  0  0
   -1.2990   21.6220  -30.5960 C   0  0  0  0  0  0  0  0  0  0  0  0
   -1.0630   20.4130  -31.2450 C   0  0  0  0  0  0  0  0  0  0  0  0
   -2.1650   19.7350  -31.7950 C   0  0  0  0  0  0  0  0  0  0  0  0
   -3.4730   20.2630  -31.6740 C   0  0  0  0  0  0  0  0  0  0  0  0
   -4.6110   19.5470  -32.2850 C   0  0  0  0  0  0  0  0  0  0  0  0
   -4.4800   18.5080  -33.1480 N   0  0  0  0  0  0  0  0  0  0  0  0
   -5.6850   18.1210  -33.5630 N   0  0  0  0  0  0  0  0  0  0  0  0
   -5.9680   17.1090  -34.5950 C   0  0  2  0  0  0  0  0  0  0  0  0
   -6.8630   15.9470  -34.0850 C   0  0  0  0  0  0  0  0  0  0  0  0
   -6.1650   14.5950  -34.2240 C   0  0  0  0  0  0  0  0  0  0  0  0
   -4.7280   14.6780  -33.7100 C   0  0  0  0  0  0  0  0  0  0  0  0
   -3.9780   15.8870  -34.3060 C   0  0  0  0  0  0  0  0  0  0  0  0
   -4.7670   16.6510  -35.2030 O   0  0  0  0  0  0  0  0  0  0  0  0
   -6.5880   18.9250  -32.9740 C   0  0  0  0  0  0  0  0  0  0  0  0
   -7.9350   18.8990  -33.1360 N   0  0  0  0  0  0  0  0  0  0  0  0
   -8.7000   19.7960  -32.4430 C   0  0  0  0  0  0  0  0  0  0  0  0
   -8.0980   20.7320  -31.5700 C   0  0  0  0  0  0  0  0  0  0  0  0
   -6.6990   20.7500  -31.4180 C   0  0  0  0  0  0  0  0  0  0  0  0
   -5.9640   19.8270  -32.1590 C   0  0  0  0  0  0  0  0  0  0  0  0
   -3.6720   21.4960  -31.0140 C   0  0  0  0  0  0  0  0  0  0  0  0
   -2.5550   22.1590  -30.4910 C   0  0  0  0  0  0  0  0  0  0  0  0
   -6.2061   23.4002  -28.6074 H   0  0  0  0  0  0  0  0  0  0  0  0
   -7.2916   22.7850  -29.8996 H   0  0  0  0  0  0  0  0  0  0  0  0
   -5.5519   22.3378  -29.8996 H   0  0  0  0  0  0  0  0  0  0  0  0
   -7.4802   23.6868  -31.9152 H   0  0  0  0  0  0  0  0  0  0  0  0
   -6.5319   25.0987  -32.4930 H   0  0  0  0  0  0  0  0  0  0  0  0
   -5.7945   23.4608  -32.4930 H   0  0  0  0  0  0  0  0  0  0  0  0
   -6.5879   25.5219  -28.7970 H   0  0  0  0  0  0  0  0  0  0  0  0
   -6.1100   26.5169  -30.2142 H   0  0  0  0  0  0  0  0  0  0  0  0
   -7.6840   25.6513  -30.2142 H   0  0  0  0  0  0  0  0  0  0  0  0
   -2.3730   26.0270  -28.9560 H   0  0  0  0  0  0  0  0  0  0  0  0
    0.6671   22.3621  -29.8712 H   0  0  0  0  0  0  0  0  0  0  0  0
   -0.0461   20.0012  -31.3249 H   0  0  0  0  0  0  0  0  0  0  0  0
   -2.0092   18.7839  -32.3251 H   0  0  0  0  0  0  0  0  0  0  0  0
   -3.5720   18.1160  -33.4840 H   0  0  0  0  0  0  0  0  0  0  0  0
   -6.5646   17.6056  -35.3744 H   0  0  0  0  0  0  0  0  0  0  0  0
   -7.1005   16.1185  -33.0247 H   0  0  0  0  0  0  0  0  0  0  0  0
   -7.7783   15.9253  -34.6947 H   0  0  0  0  0  0  0  0  0  0  0  0
   -6.7151   13.8421  -33.6404 H   0  0  0  0  0  0  0  0  0  0  0  0
   -6.1464   14.3123  -35.2869 H   0  0  0  0  0  0  0  0  0  0  0  0
   -4.7463   14.7746  -32.6144 H   0  0  0  0  0  0  0  0  0  0  0  0
   -4.2008   13.7624  -34.0162 H   0  0  0  0  0  0  0  0  0  0  0  0
   -3.6568   16.5397  -33.4809 H   0  0  0  0  0  0  0  0  0  0  0  0
   -3.1258   15.4915  -34.8781 H   0  0  0  0  0  0  0  0  0  0  0  0
   -9.7931   19.7896  -32.5656 H   0  0  0  0  0  0  0  0  0  0  0  0
   -8.7222   21.4446  -31.0109 H   0  0  0  0  0  0  0  0  0  0  0  0
   -6.2059   21.4637  -30.7417 H   0  0  0  0  0  0  0  0  0  0  0  0
   -4.6799   21.9249  -30.9134 H   0  0  0  0  0  0  0  0  0  0  0  0
  1  2  1  0
  2  3  1  0
  2  4  1  0
  2  5  1  0
  5  6  1  0
  6  7  2  0
  6  8  1  0
  8  9  1  0
  9 10  1  0
 10 11  1  0
 10 12  2  0
  9 13  2  0
 13 14  1  0
 14 15  2  0
 15 16  1  0
 16 17  2  0
 17 18  1  0
 18 19  2  0
 19 20  1  0
 20 21  1  0
 21 22  1  0
 22 23  1  0
 23 24  1  0
 24 25  1  0
 25 26  1  0
 20 27  1  0
 27 28  2  0
 28 29  1  0
 29 30  2  0
 30 31  1  0
 31 32  2  0
 17 33  1  0
 33 34  2  0
 34  8  1  0
 34 14  1  0
 32 18  1  0
 26 21  1  0
 32 27  1  0
  1 35  1  0
  1 36  1  0
  1 37  1  0
  3 38  1  0
  3 39  1  0
  3 40  1  0
  4 41  1  0
  4 42  1  0
  4 43  1  0
 11 44  1  0
 13 45  1  0
 15 46  1  0
 16 47  1  0
 19 48  1  0
 21 49  1  6
 22 50  1  0
 22 51  1  0
 23 52  1  0
 23 53  1  0
 24 54  1  0
 24 55  1  0
 25 56  1  0
 25 57  1  0
 29 58  1  0
 30 59  1  0
 31 60  1  0
 33 61  1  0
M  CHG  2  11  -1  19   1
M  END
>  <UniqueID>  (43) 
40

>  <SMILES>  (43) 
CC(C)(C)OC(=O)n1c(C([NH-])=O)cc2ccc(-c3[nH+]n([C@@H]4CCCCO4)c4ncccc34)cc21

>  <Energy>  (43) 
154.17234118315866

>  <Genealogy>  (43) 
CC(C)(C)OC(=O)n1c(C([NH-])=O)cc2ccc(-c3[nH+]n(C4CCCCO4)c4ncccc34)cc21 (protonated)
CC(C)(C)OC(=O)n1c(C([NH-])=O)cc2ccc(-c3[nH+]n([C@@H]4CCCCO4)c4ncccc34)cc21 (chirality)
CC(C)(C)OC(=O)n1c(C([NH-])=O)cc2ccc(-c3[nH+]n([C@@H]4CCCCO4)c4ncccc34)cc21 (3D coordinates assigned)
CC(C)(C)OC(=O)n1c(C([NH-])=O)cc2ccc(-c3[nH+]n([C@@H]4CCCCO4)c4ncccc34)cc21 (nonaromatic ring conformer: 154.17234118315866 kcal/mol)

>  <smiles>  (43) 
CC(C)(C)OC(=O)n1c(C(N)=O)cc2ccc(-c3nn(C4CCCCO4)c4ncccc34)cc21

>  <score_type>  (43) 
oracle

>  <origin>  (43) 
adg

>  <m_score__min__energy>  (43) 
-12.1

>  <m_primary>  (43) 
energy

$$$$
44:0
     RDKit          3D

 54 56  0  0  0  0  0  0  0  0999 V2000
   -6.2650   25.4840  -29.8100 C   0  0  0  0  0  0  0  0  0  0  0  0
   -6.0190   24.0590  -30.0750 N   0  0  0  0  0  0  0  0  0  0  0  0
   -7.2110   23.2530  -29.7270 C   0  0  0  0  0  0  0  0  0  0  0  0
   -7.2410   21.9390  -30.5110 C   0  0  0  0  0  0  0  0  0  0  0  0
   -7.3890   22.1950  -31.9620 N   0  0  0  0  0  0  0  0  0  0  0  0
   -7.0210   20.9950  -32.7450 C   0  0  0  0  0  0  0  0  0  0  0  0
   -5.6420   20.4500  -32.3370 C   0  0  0  0  0  0  0  0  0  0  0  0
   -4.4700   21.0860  -33.1070 C   0  0  0  0  0  0  0  0  0  0  0  0
   -3.2600   20.1400  -33.2850 C   0  0  0  0  0  0  0  0  0  0  0  0
   -1.9080   20.8000  -32.9670 C   0  0  0  0  0  0  0  0  0  0  0  0
   -1.7180   21.0370  -31.4900 C   0  0  0  0  0  0  0  0  0  0  0  0
   -1.3370   19.9670  -30.6430 C   0  0  0  0  0  0  0  0  0  0  0  0
   -1.1920   20.1640  -29.2590 C   0  0  0  0  0  0  0  0  0  0  0  0
   -1.4180   21.4410  -28.7560 C   0  0  0  0  0  0  0  0  0  0  0  0
   -1.3680   21.9020  -27.4610 C   0  0  0  0  0  0  0  0  0  0  0  0
   -1.6850   23.2580  -27.5380 C   0  0  0  0  0  0  0  0  0  0  0  0
   -1.6600   24.1790  -26.3800 C   0  0  0  0  0  0  0  0  0  0  0  0
   -2.4190   25.3910  -26.3930 N   0  0  0  0  0  0  0  0  0  0  0  0
   -0.9900   23.8870  -25.3540 O   0  0  0  0  0  0  0  0  0  0  0  0
   -1.9200   23.6190  -28.8310 N   0  0  0  0  0  0  0  0  0  0  0  0
   -2.3090   24.9120  -29.3220 C   0  0  0  0  0  0  0  0  0  0  0  0
   -3.2960   25.0280  -30.0950 O   0  0  0  0  0  0  0  0  0  0  0  0
   -1.6060   26.0480  -28.9390 O   0  0  0  0  0  0  0  0  0  0  0  0
   -1.7570   22.4950  -29.5640 C   0  0  0  0  0  0  0  0  0  0  0  0
   -1.9330   22.3230  -30.9410 C   0  0  0  0  0  0  0  0  0  0  0  0
   -6.6720   23.4180  -32.4170 C   0  0  0  0  0  0  0  0  0  0  0  0
   -5.5410   23.8390  -31.4620 C   0  0  0  0  0  0  0  0  0  0  0  0
   -6.2946   25.6552  -28.7238 H   0  0  0  0  0  0  0  0  0  0  0  0
   -5.4572   26.0843  -30.2540 H   0  0  0  0  0  0  0  0  0  0  0  0
   -7.2273   25.7787  -30.2540 H   0  0  0  0  0  0  0  0  0  0  0  0
   -7.1896   23.0277  -28.6505 H   0  0  0  0  0  0  0  0  0  0  0  0
   -8.1097   23.8323  -29.9852 H   0  0  0  0  0  0  0  0  0  0  0  0
   -6.3025   21.3928  -30.3352 H   0  0  0  0  0  0  0  0  0  0  0  0
   -8.1006   21.3440  -30.1687 H   0  0  0  0  0  0  0  0  0  0  0  0
   -7.7770   20.2139  -32.5766 H   0  0  0  0  0  0  0  0  0  0  0  0
   -6.9769   21.2788  -33.8068 H   0  0  0  0  0  0  0  0  0  0  0  0
   -5.4968   20.6421  -31.2637 H   0  0  0  0  0  0  0  0  0  0  0  0
   -5.6380   19.3765  -32.5767 H   0  0  0  0  0  0  0  0  0  0  0  0
   -4.8289   21.3827  -34.1036 H   0  0  0  0  0  0  0  0  0  0  0  0
   -4.1231   21.9452  -32.5142 H   0  0  0  0  0  0  0  0  0  0  0  0
   -3.3917   19.2777  -32.6149 H   0  0  0  0  0  0  0  0  0  0  0  0
   -3.2337   19.8473  -34.3450 H   0  0  0  0  0  0  0  0  0  0  0  0
   -1.1014   20.1441  -33.3263 H   0  0  0  0  0  0  0  0  0  0  0  0
   -1.8856   21.7782  -33.4695 H   0  0  0  0  0  0  0  0  0  0  0  0
   -1.1527   18.9715  -31.0732 H   0  0  0  0  0  0  0  0  0  0  0  0
   -0.9087   19.3344  -28.5945 H   0  0  0  0  0  0  0  0  0  0  0  0
   -1.1287   21.3237  -26.5564 H   0  0  0  0  0  0  0  0  0  0  0  0
   -2.4250   26.0130  -25.5550 H   0  0  0  0  0  0  0  0  0  0  0  0
   -2.9390   25.6950  -27.2440 H   0  0  0  0  0  0  0  0  0  0  0  0
   -2.2311   23.1666  -31.5810 H   0  0  0  0  0  0  0  0  0  0  0  0
   -6.2391   23.2224  -33.4092 H   0  0  0  0  0  0  0  0  0  0  0  0
   -7.4038   24.2388  -32.4444 H   0  0  0  0  0  0  0  0  0  0  0  0
   -4.7769   23.0478  -31.4502 H   0  0  0  0  0  0  0  0  0  0  0  0
   -5.1320   24.7919  -31.8289 H   0  0  0  0  0  0  0  0  0  0  0  0
  1  2  1  0
  2  3  1  0
  3  4  1  0
  4  5  1  0
  5  6  1  0
  6  7  1  0
  7  8  1  0
  8  9  1  0
  9 10  1  0
 10 11  1  0
 11 12  2  0
 12 13  1  0
 13 14  2  0
 14 15  1  0
 15 16  2  0
 16 17  1  0
 17 18  1  0
 17 19  2  0
 16 20  1  0
 20 21  1  0
 21 22  2  0
 21 23  1  0
 20 24  1  0
 24 25  2  0
  5 26  1  0
 26 27  1  0
 27  2  1  0
 25 11  1  0
 24 14  1  0
  1 28  1  0
  1 29  1  0
  1 30  1  0
  3 31  1  0
  3 32  1  0
  4 33  1  0
  4 34  1  0
  6 35  1  0
  6 36  1  0
  7 37  1  0
  7 38  1  0
  8 39  1  0
  8 40  1  0
  9 41  1  0
  9 42  1  0
 10 43  1  0
 10 44  1  0
 12 45  1  0
 13 46  1  0
 15 47  1  0
 18 48  1  0
 18 49  1  0
 25 50  1  0
 26 51  1  0
 26 52  1  0
 27 53  1  0
 27 54  1  0
M  CHG  1  23  -1
M  END
>  <UniqueID>  (44) 
41

>  <SMILES>  (44) 
CN1CCN(CCCCCc2ccc3cc(C(N)=O)n(C(=O)[O-])c3c2)CC1

>  <Energy>  (44) 
100.5787903924651

>  <Genealogy>  (44) 
CN1CCN(CCCCCc2ccc3cc(C(N)=O)n(C(=O)[O-])c3c2)CC1 (protonated)
CN1CCN(CCCCCc2ccc3cc(C(N)=O)n(C(=O)[O-])c3c2)CC1 (3D coordinates assigned)
CN1CCN(CCCCCc2ccc3cc(C(N)=O)n(C(=O)[O-])c3c2)CC1 (nonaromatic ring conformer: 100.5787903924651 kcal/mol)

>  <smiles>  (44) 
CN1CCN(CCCCCc2ccc3cc(C(N)=O)n(C(=O)O)c3c2)CC1

>  <score_type>  (44) 
oracle

>  <origin>  (44) 
adg

>  <m_score__min__energy>  (44) 
-10.359999999999999

>  <m_primary>  (44) 
energy

$$$$
45:0
     RDKit          3D

 46 48  0  0  0  0  0  0  0  0999 V2000
   -3.0090   21.1830  -29.0700 C   0  0  0  0  0  0  0  0  0  0  0  0
   -2.7760   22.6970  -28.9700 C   0  0  0  0  0  0  0  0  0  0  0  0
   -1.4020   22.9470  -28.3190 C   0  0  0  0  0  0  0  0  0  0  0  0
   -3.9010   23.3210  -28.1220 C   0  0  0  0  0  0  0  0  0  0  0  0
   -2.8060   23.2190  -30.3070 O   0  0  0  0  0  0  0  0  0  0  0  0
   -3.5770   22.7320  -31.3740 C   0  0  0  0  0  0  0  0  0  0  0  0
   -3.0290   22.2210  -32.3880 O   0  0  0  0  0  0  0  0  0  0  0  0
   -5.0070   22.8420  -31.3190 N   0  0  0  0  0  0  0  0  0  0  0  0
   -5.7450   23.9500  -31.0240 C   0  0  0  0  0  0  0  0  0  0  0  0
   -5.2180   25.2340  -30.5200 C   0  0  0  0  0  0  0  0  0  0  0  0
   -3.9010   25.6660  -30.8500 N   0  0  0  0  0  0  0  0  0  0  0  0
   -5.9230   25.9370  -29.7480 O   0  0  0  0  0  0  0  0  0  0  0  0
   -7.1040   23.6890  -31.1870 C   0  0  0  0  0  0  0  0  0  0  0  0
   -7.1780   22.3750  -31.5880 C   0  0  0  0  0  0  0  0  0  0  0  0
   -8.2890   21.5980  -31.9080 C   0  0  0  0  0  0  0  0  0  0  0  0
   -8.0680   20.2750  -32.3270 C   0  0  0  0  0  0  0  0  0  0  0  0
   -6.7520   19.7660  -32.4250 C   0  0  0  0  0  0  0  0  0  0  0  0
   -6.5380   18.4140  -32.8680 C   0  0  0  0  0  0  0  0  0  0  0  0
   -6.3570   17.2810  -33.2380 C   0  0  0  0  0  0  0  0  0  0  0  0
   -6.1390   15.9290  -33.6810 C   0  0  0  0  0  0  0  0  0  0  0  0
   -7.2010   15.1840  -34.2120 C   0  0  0  0  0  0  0  0  0  0  0  0
   -6.9880   13.8690  -34.6420 C   0  0  0  0  0  0  0  0  0  0  0  0
   -5.7150   13.2970  -34.5420 C   0  0  0  0  0  0  0  0  0  0  0  0
   -5.4490   11.6490  -35.0820 Cl  0  0  0  0  0  0  0  0  0  0  0  0
   -4.6540   14.0400  -34.0110 C   0  0  0  0  0  0  0  0  0  0  0  0
   -4.8650   15.3550  -33.5810 C   0  0  0  0  0  0  0  0  0  0  0  0
   -5.6490   20.5770  -32.0940 C   0  0  0  0  0  0  0  0  0  0  0  0
   -5.8990   21.8860  -31.6620 C   0  0  0  0  0  0  0  0  0  0  0  0
   -3.0749   20.7546  -28.0590 H   0  0  0  0  0  0  0  0  0  0  0  0
   -3.9472   20.9914  -29.6113 H   0  0  0  0  0  0  0  0  0  0  0  0
   -2.1718   20.7181  -29.6113 H   0  0  0  0  0  0  0  0  0  0  0  0
   -1.5061   22.9281  -27.2241 H   0  0  0  0  0  0  0  0  0  0  0  0
   -0.6987   22.1621  -28.6341 H   0  0  0  0  0  0  0  0  0  0  0  0
   -1.0203   23.9293  -28.6341 H   0  0  0  0  0  0  0  0  0  0  0  0
   -3.6696   23.1926  -27.0543 H   0  0  0  0  0  0  0  0  0  0  0  0
   -3.9826   24.3933  -28.3531 H   0  0  0  0  0  0  0  0  0  0  0  0
   -4.8539   22.8225  -28.3531 H   0  0  0  0  0  0  0  0  0  0  0  0
   -3.0670   25.2770  -30.3570 H   0  0  0  0  0  0  0  0  0  0  0  0
   -7.9403   24.3858  -31.0286 H   0  0  0  0  0  0  0  0  0  0  0  0
   -9.3074   22.0072  -31.8350 H   0  0  0  0  0  0  0  0  0  0  0  0
   -8.9234   19.6315  -32.5802 H   0  0  0  0  0  0  0  0  0  0  0  0
   -8.2021   15.6329  -34.2908 H   0  0  0  0  0  0  0  0  0  0  0  0
   -7.8219   13.2850  -35.0587 H   0  0  0  0  0  0  0  0  0  0  0  0
   -3.6535   13.5898  -33.9317 H   0  0  0  0  0  0  0  0  0  0  0  0
   -4.0304   15.9380  -33.1644 H   0  0  0  0  0  0  0  0  0  0  0  0
   -4.6210   20.1936  -32.1724 H   0  0  0  0  0  0  0  0  0  0  0  0
  1  2  1  0
  2  3  1  0
  2  4  1  0
  2  5  1  0
  5  6  1  0
  6  7  2  0
  6  8  1  0
  8  9  1  0
  9 10  1  0
 10 11  1  0
 10 12  2  0
  9 13  2  0
 13 14  1  0
 14 15  2  0
 15 16  1  0
 16 17  2  0
 17 18  1  0
 18 19  3  0
 19 20  1  0
 20 21  2  0
 21 22  1  0
 22 23  2  0
 23 24  1  0
 23 25  1  0
 25 26  2  0
 17 27  1  0
 27 28  2  0
 28  8  1  0
 28 14  1  0
 26 20  1  0
  1 29  1  0
  1 30  1  0
  1 31  1  0
  3 32  1  0
  3 33  1  0
  3 34  1  0
  4 35  1  0
  4 36  1  0
  4 37  1  0
 11 38  1  0
 13 39  1  0
 15 40  1  0
 16 41  1  0
 21 42  1  0
 22 43  1  0
 25 44  1  0
 26 45  1  0
 27 46  1  0
M  CHG  1  11  -1
M  END
>  <UniqueID>  (45) 
42

>  <SMILES>  (45) 
CC(C)(C)OC(=O)n1c(C([NH-])=O)cc2ccc(C#Cc3ccc(Cl)cc3)cc21

>  <Energy>  (45) 
78.66422308876452

>  <Genealogy>  (45) 
CC(C)(C)OC(=O)n1c(C([NH-])=O)cc2ccc(C#Cc3ccc(Cl)cc3)cc21 (protonated)
CC(C)(C)OC(=O)n1c(C([NH-])=O)cc2ccc(C#Cc3ccc(Cl)cc3)cc21 (3D coordinates assigned)
CC(C)(C)OC(=O)n1c(C([NH-])=O)cc2ccc(C#Cc3ccc(Cl)cc3)cc21 (optimized conformer: 78.66422308876452 kcal/mol)

>  <smiles>  (45) 
CC(C)(C)OC(=O)n1c(C(N)=O)cc2ccc(C#Cc3ccc(Cl)cc3)cc21

>  <score_type>  (45) 
oracle

>  <origin>  (45) 
adg

>  <m_score__min__energy>  (45) 
-11.57

>  <m_primary>  (45) 
energy

$$$$
46:0
     RDKit          3D

 35 37  0  0  0  0  0  0  0  0999 V2000
   -6.4220   17.5650  -31.0180 C   0  0  0  0  0  0  0  0  0  0  0  0
   -5.9370   17.6010  -32.4440 C   0  0  0  0  0  0  0  0  0  0  0  0
   -5.4980   16.4070  -33.0400 C   0  0  0  0  0  0  0  0  0  0  0  0
   -5.0200   16.4010  -34.3530 C   0  0  0  0  0  0  0  0  0  0  0  0
   -4.5910   15.2440  -34.9130 F   0  0  0  0  0  0  0  0  0  0  0  0
   -4.9800   17.5860  -35.0870 C   0  0  0  0  0  0  0  0  0  0  0  0
   -5.4290   18.7790  -34.5170 C   0  0  0  0  0  0  0  0  0  0  0  0
   -5.9260   18.8010  -33.2020 C   0  0  0  0  0  0  0  0  0  0  0  0
   -6.4200   20.0830  -32.6520 C   0  0  0  0  0  0  0  0  0  0  0  0
   -7.8140   20.3190  -32.5540 C   0  0  0  0  0  0  0  0  0  0  0  0
   -8.3010   21.5190  -32.0130 C   0  0  0  0  0  0  0  0  0  0  0  0
   -7.3730   22.4640  -31.5830 C   0  0  0  0  0  0  0  0  0  0  0  0
   -7.5720   23.6900  -30.9910 C   0  0  0  0  0  0  0  0  0  0  0  0
   -6.2970   24.1940  -30.7540 C   0  0  0  0  0  0  0  0  0  0  0  0
   -6.0470   25.5320  -30.1830 C   0  0  0  0  0  0  0  0  0  0  0  0
   -6.4930   25.8700  -28.8690 N   0  0  0  0  0  0  0  0  0  0  0  0
   -5.3790   26.3720  -30.8430 O   0  0  0  0  0  0  0  0  0  0  0  0
   -5.3430   23.3120  -31.1680 N   0  0  0  0  0  0  0  0  0  0  0  0
   -3.9210   23.4180  -30.9880 C   0  0  0  0  0  0  0  0  0  0  0  0
   -3.1670   22.4490  -31.2670 O   0  0  0  0  0  0  0  0  0  0  0  0
   -3.3620   24.5920  -30.4950 O   0  0  0  0  0  0  0  0  0  0  0  0
   -6.0200   22.2560  -31.6770 C   0  0  0  0  0  0  0  0  0  0  0  0
   -5.5090   21.0590  -32.1910 C   0  0  0  0  0  0  0  0  0  0  0  0
   -5.5611   17.6289  -30.3362 H   0  0  0  0  0  0  0  0  0  0  0  0
   -7.0960   18.4156  -30.8383 H   0  0  0  0  0  0  0  0  0  0  0  0
   -6.9630   16.6242  -30.8383 H   0  0  0  0  0  0  0  0  0  0  0  0
   -5.5309   15.4681  -32.4678 H   0  0  0  0  0  0  0  0  0  0  0  0
   -4.5940   17.5809  -36.1170 H   0  0  0  0  0  0  0  0  0  0  0  0
   -5.3936   19.7099  -35.1020 H   0  0  0  0  0  0  0  0  0  0  0  0
   -8.5216   19.5537  -32.9056 H   0  0  0  0  0  0  0  0  0  0  0  0
   -9.3817   21.7071  -31.9312 H   0  0  0  0  0  0  0  0  0  0  0  0
   -8.5337   24.1693  -30.7554 H   0  0  0  0  0  0  0  0  0  0  0  0
   -6.9020   25.1480  -28.2360 H   0  0  0  0  0  0  0  0  0  0  0  0
   -6.3390   26.8330  -28.4950 H   0  0  0  0  0  0  0  0  0  0  0  0
   -4.4242   20.8824  -32.2350 H   0  0  0  0  0  0  0  0  0  0  0  0
  1  2  1  0
  2  3  2  0
  3  4  1  0
  4  5  1  0
  4  6  2  0
  6  7  1  0
  7  8  2  0
  8  9  1  0
  9 10  2  0
 10 11  1  0
 11 12  2  0
 12 13  1  0
 13 14  2  0
 14 15  1  0
 15 16  1  0
 15 17  2  0
 14 18  1  0
 18 19  1  0
 19 20  2  0
 19 21  1  0
 18 22  1  0
 22 23  2  0
  8  2  1  0
 23  9  1  0
 22 12  1  0
  1 24  1  0
  1 25  1  0
  1 26  1  0
  3 27  1  0
  6 28  1  0
  7 29  1  0
 10 30  1  0
 11 31  1  0
 13 32  1  0
 16 33  1  0
 16 34  1  0
 23 35  1  0
M  CHG  1  21  -1
M  END
>  <UniqueID>  (46) 
43

>  <SMILES>  (46) 
Cc1cc(F)ccc1-c1ccc2cc(C(N)=O)n(C(=O)[O-])c2c1

>  <Energy>  (46) 
84.87461023782409

>  <Genealogy>  (46) 
Cc1cc(F)ccc1-c1ccc2cc(C(N)=O)n(C(=O)[O-])c2c1 (protonated)
Cc1cc(F)ccc1-c1ccc2cc(C(N)=O)n(C(=O)[O-])c2c1 (3D coordinates assigned)
Cc1cc(F)ccc1-c1ccc2cc(C(N)=O)n(C(=O)[O-])c2c1 (optimized conformer: 84.87461023782409 kcal/mol)

>  <smiles>  (46) 
Cc1cc(F)ccc1-c1ccc2cc(C(N)=O)n(C(=O)O)c2c1

>  <score_type>  (46) 
oracle

>  <origin>  (46) 
adg

>  <m_score__min__energy>  (46) 
-10.25

>  <m_primary>  (46) 
energy

$$$$
47:0
     RDKit          3D

 43 45  0  0  0  0  0  0  0  0999 V2000
   -1.5650   22.9450  -27.9690 C   0  0  0  0  0  0  0  0  0  0  0  0
   -2.8580   22.6480  -28.7530 C   0  0  0  0  0  0  0  0  0  0  0  0
   -4.0880   23.1790  -27.9930 C   0  0  0  0  0  0  0  0  0  0  0  0
   -2.9990   21.1270  -28.9200 C   0  0  0  0  0  0  0  0  0  0  0  0
   -2.7920   23.2140  -30.0700 O   0  0  0  0  0  0  0  0  0  0  0  0
   -3.4380   22.7290  -31.2180 C   0  0  0  0  0  0  0  0  0  0  0  0
   -2.7850   22.1800  -32.1450 O   0  0  0  0  0  0  0  0  0  0  0  0
   -4.8660   22.8400  -31.3220 N   0  0  0  0  0  0  0  0  0  0  0  0
   -5.6490   23.8880  -30.9400 C   0  0  0  0  0  0  0  0  0  0  0  0
   -5.1700   25.2140  -30.4970 C   0  0  0  0  0  0  0  0  0  0  0  0
   -3.8640   25.6710  -30.8360 N   0  0  0  0  0  0  0  0  0  0  0  0
   -5.9420   25.9720  -29.8530 O   0  0  0  0  0  0  0  0  0  0  0  0
   -6.9970   23.5740  -31.0980 C   0  0  0  0  0  0  0  0  0  0  0  0
   -7.0160   22.2920  -31.5980 C   0  0  0  0  0  0  0  0  0  0  0  0
   -8.0940   21.4780  -31.9270 C   0  0  0  0  0  0  0  0  0  0  0  0
   -7.8230   20.1800  -32.3910 C   0  0  0  0  0  0  0  0  0  0  0  0
   -6.4860   19.7150  -32.5100 C   0  0  0  0  0  0  0  0  0  0  0  0
   -6.2110   18.3360  -32.9890 C   0  0  0  0  0  0  0  0  0  0  0  0
   -4.9330   17.9710  -33.4440 C   0  0  0  0  0  0  0  0  0  0  0  0
   -4.6920   16.6720  -33.8930 C   0  0  0  0  0  0  0  0  0  0  0  0
   -5.7310   15.7400  -33.8830 C   0  0  0  0  0  0  0  0  0  0  0  0
   -5.4310   13.9570  -34.4900 Br  0  0  0  0  0  0  0  0  0  0  0  0
   -6.9630   16.1020  -33.4390 N   0  0  0  0  0  0  0  0  0  0  0  0
   -7.2250   17.3620  -33.0000 C   0  0  0  0  0  0  0  0  0  0  0  0
   -5.4180   20.5770  -32.1640 C   0  0  0  0  0  0  0  0  0  0  0  0
   -5.7190   21.8710  -31.7240 C   0  0  0  0  0  0  0  0  0  0  0  0
   -1.7716   22.8975  -26.8896 H   0  0  0  0  0  0  0  0  0  0  0  0
   -0.7992   22.1994  -28.2289 H   0  0  0  0  0  0  0  0  0  0  0  0
   -1.2013   23.9501  -28.2289 H   0  0  0  0  0  0  0  0  0  0  0  0
   -3.9110   23.1026  -26.9100 H   0  0  0  0  0  0  0  0  0  0  0  0
   -4.2597   24.2314  -28.2631 H   0  0  0  0  0  0  0  0  0  0  0  0
   -4.9717   22.5822  -28.2631 H   0  0  0  0  0  0  0  0  0  0  0  0
   -3.0430   20.6518  -27.9289 H   0  0  0  0  0  0  0  0  0  0  0  0
   -3.9218   20.9031  -29.4753 H   0  0  0  0  0  0  0  0  0  0  0  0
   -2.1331   20.7373  -29.4753 H   0  0  0  0  0  0  0  0  0  0  0  0
   -3.0210   25.3010  -30.3440 H   0  0  0  0  0  0  0  0  0  0  0  0
   -7.8621   24.2145  -30.8713 H   0  0  0  0  0  0  0  0  0  0  0  0
   -9.1281   21.8395  -31.8270 H   0  0  0  0  0  0  0  0  0  0  0  0
   -8.6559   19.5159  -32.6654 H   0  0  0  0  0  0  0  0  0  0  0  0
   -4.1197   18.7116  -33.4463 H   0  0  0  0  0  0  0  0  0  0  0  0
   -3.6924   16.3851  -34.2515 H   0  0  0  0  0  0  0  0  0  0  0  0
   -8.2358   17.6207  -32.6516 H   0  0  0  0  0  0  0  0  0  0  0  0
   -4.3745   20.2373  -32.2393 H   0  0  0  0  0  0  0  0  0  0  0  0
  1  2  1  0
  2  3  1  0
  2  4  1  0
  2  5  1  0
  5  6  1  0
  6  7  2  0
  6  8  1  0
  8  9  1  0
  9 10  1  0
 10 11  1  0
 10 12  2  0
  9 13  2  0
 13 14  1  0
 14 15  2  0
 15 16  1  0
 16 17  2  0
 17 18  1  0
 18 19  2  0
 19 20  1  0
 20 21  2  0
 21 22  1  0
 21 23  1  0
 23 24  2  0
 17 25  1  0
 25 26  2  0
 26  8  1  0
 26 14  1  0
 24 18  1  0
  1 27  1  0
  1 28  1  0
  1 29  1  0
  3 30  1  0
  3 31  1  0
  3 32  1  0
  4 33  1  0
  4 34  1  0
  4 35  1  0
 11 36  1  0
 13 37  1  0
 15 38  1  0
 16 39  1  0
 19 40  1  0
 20 41  1  0
 24 42  1  0
 25 43  1  0
M  CHG  1  11  -1
M  END
>  <UniqueID>  (47) 
44

>  <SMILES>  (47) 
CC(C)(C)OC(=O)n1c(C([NH-])=O)cc2ccc(-c3ccc(Br)nc3)cc21

>  <Energy>  (47) 
85.32650241626877

>  <Genealogy>  (47) 
CC(C)(C)OC(=O)n1c(C([NH-])=O)cc2ccc(-c3ccc(Br)nc3)cc21 (protonated)
CC(C)(C)OC(=O)n1c(C([NH-])=O)cc2ccc(-c3ccc(Br)nc3)cc21 (3D coordinates assigned)
CC(C)(C)OC(=O)n1c(C([NH-])=O)cc2ccc(-c3ccc(Br)nc3)cc21 (optimized conformer: 85.32650241626877 kcal/mol)

>  <smiles>  (47) 
CC(C)(C)OC(=O)n1c(C(N)=O)cc2ccc(-c3ccc(Br)nc3)cc21

>  <score_type>  (47) 
oracle

>  <origin>  (47) 
adg

>  <m_score__min__energy>  (47) 
-11.300000000000001

>  <m_primary>  (47) 
energy

$$$$
48:0
     RDKit          3D

 55 57  0  0  0  0  0  0  0  0999 V2000
   -5.3700   13.7270  -34.0190 C   0  0  0  0  0  0  0  0  0  0  0  0
   -6.1900   14.7630  -34.2010 C   0  0  0  0  0  0  0  0  0  0  0  0
   -7.4850   14.5430  -34.6760 O   0  0  0  0  0  0  0  0  0  0  0  0
   -5.7040   16.0540  -33.9000 N   0  0  0  0  0  0  0  0  0  0  0  0
   -5.3720   16.4070  -32.5200 C   0  0  0  0  0  0  0  0  0  0  0  0
   -6.3970   17.4460  -32.0950 C   0  0  0  0  0  0  0  0  0  0  0  0
   -6.7350   18.3680  -33.2620 C   0  0  0  0  0  0  0  0  0  0  0  0
   -7.1410   19.6610  -32.6670 C   0  0  0  0  0  0  0  0  0  0  0  0
   -8.4770   19.9900  -32.5630 C   0  0  0  0  0  0  0  0  0  0  0  0
   -8.8420   21.1930  -32.0090 C   0  0  0  0  0  0  0  0  0  0  0  0
   -7.8620   22.0610  -31.5610 C   0  0  0  0  0  0  0  0  0  0  0  0
   -7.9300   23.3000  -30.9770 C   0  0  0  0  0  0  0  0  0  0  0  0
   -6.6410   23.7750  -30.7040 C   0  0  0  0  0  0  0  0  0  0  0  0
   -6.3980   25.0480  -30.0920 C   0  0  0  0  0  0  0  0  0  0  0  0
   -5.1230   25.7020  -30.3020 N   0  0  0  0  0  0  0  0  0  0  0  0
   -7.1890   25.6950  -29.3650 O   0  0  0  0  0  0  0  0  0  0  0  0
   -5.8100   22.8170  -31.1250 N   0  0  0  0  0  0  0  0  0  0  0  0
   -4.3960   22.8440  -31.0570 C   0  0  0  0  0  0  0  0  0  0  0  0
   -3.6930   23.8820  -31.0170 O   0  0  0  0  0  0  0  0  0  0  0  0
   -3.6620   21.6420  -31.0320 O   0  0  0  0  0  0  0  0  0  0  0  0
   -2.9720   21.1180  -32.1270 C   0  0  0  0  0  0  0  0  0  0  0  0
   -2.9700   19.6300  -32.2400 C   0  0  0  0  0  0  0  0  0  0  0  0
   -3.4440   21.6920  -33.4460 C   0  0  0  0  0  0  0  0  0  0  0  0
   -1.5210   21.5480  -31.9670 C   0  0  0  0  0  0  0  0  0  0  0  0
   -6.5110   21.7730  -31.6450 C   0  0  0  0  0  0  0  0  0  0  0  0
   -6.1830   20.5580  -32.2060 C   0  0  0  0  0  0  0  0  0  0  0  0
   -5.5800   18.4430  -34.2020 C   0  0  0  0  0  0  0  0  0  0  0  0
   -5.5030   17.0910  -34.9060 C   0  0  0  0  0  0  0  0  0  0  0  0
   -4.3488   13.8929  -33.6452 H   0  0  0  0  0  0  0  0  0  0  0  0
   -5.7149   12.7067  -34.2427 H   0  0  0  0  0  0  0  0  0  0  0  0
   -7.7820   13.6060  -34.9530 H   0  0  0  0  0  0  0  0  0  0  0  0
   -5.4359   15.5200  -31.8726 H   0  0  0  0  0  0  0  0  0  0  0  0
   -4.3464   16.7964  -32.4394 H   0  0  0  0  0  0  0  0  0  0  0  0
   -7.3120   16.9362  -31.7591 H   0  0  0  0  0  0  0  0  0  0  0  0
   -5.9767   18.0473  -31.2754 H   0  0  0  0  0  0  0  0  0  0  0  0
   -7.5669   18.0000  -33.8805 H   0  0  0  0  0  0  0  0  0  0  0  0
   -9.2471   19.2915  -32.9224 H   0  0  0  0  0  0  0  0  0  0  0  0
   -9.9046   21.4639  -31.9223 H   0  0  0  0  0  0  0  0  0  0  0  0
   -8.8613   23.8418  -30.7553 H   0  0  0  0  0  0  0  0  0  0  0  0
   -4.2970   25.4480  -29.7140 H   0  0  0  0  0  0  0  0  0  0  0  0
   -5.0120   26.4280  -31.0340 H   0  0  0  0  0  0  0  0  0  0  0  0
   -2.9694   19.1859  -31.2337 H   0  0  0  0  0  0  0  0  0  0  0  0
   -3.8677   19.3024  -32.7848 H   0  0  0  0  0  0  0  0  0  0  0  0
   -2.0714   19.3049  -32.7848 H   0  0  0  0  0  0  0  0  0  0  0  0
   -4.1322   22.5289  -33.2564 H   0  0  0  0  0  0  0  0  0  0  0  0
   -2.5777   22.0525  -34.0200 H   0  0  0  0  0  0  0  0  0  0  0  0
   -3.9651   20.9116  -34.0200 H   0  0  0  0  0  0  0  0  0  0  0  0
   -1.2759   21.6206  -30.8971 H   0  0  0  0  0  0  0  0  0  0  0  0
   -0.8639   20.8060  -32.4441 H   0  0  0  0  0  0  0  0  0  0  0  0
   -1.3743   22.5282  -32.4441 H   0  0  0  0  0  0  0  0  0  0  0  0
   -5.1206   20.2864  -32.2928 H   0  0  0  0  0  0  0  0  0  0  0  0
   -5.7404   19.2453  -34.9373 H   0  0  0  0  0  0  0  0  0  0  0  0
   -4.6456   18.6651  -33.6658 H   0  0  0  0  0  0  0  0  0  0  0  0
   -6.2869   17.0239  -35.6747 H   0  0  0  0  0  0  0  0  0  0  0  0
   -4.5261   16.9674  -35.3962 H   0  0  0  0  0  0  0  0  0  0  0  0
  1  2  2  0
  2  3  1  0
  2  4  1  0
  4  5  1  0
  5  6  1  0
  6  7  1  0
  7  8  1  0
  8  9  2  0
  9 10  1  0
 10 11  2  0
 11 12  1  0
 12 13  2  0
 13 14  1  0
 14 15  1  0
 14 16  2  0
 13 17  1  0
 17 18  1  0
 18 19  2  0
 18 20  1  0
 20 21  1  0
 21 22  1  0
 21 23  1  0
 21 24  1  0
 17 25  1  0
 25 26  2  0
  7 27  1  0
 27 28  1  0
 28  4  1  0
 26  8  1  0
 25 11  1  0
  1 29  1  0
  1 30  1  0
  3 31  1  0
  5 32  1  0
  5 33  1  0
  6 34  1  0
  6 35  1  0
  7 36  1  0
  9 37  1  0
 10 38  1  0
 12 39  1  0
 15 40  1  0
 15 41  1  0
 22 42  1  0
 22 43  1  0
 22 44  1  0
 23 45  1  0
 23 46  1  0
 23 47  1  0
 24 48  1  0
 24 49  1  0
 24 50  1  0
 26 51  1  0
 27 52  1  0
 27 53  1  0
 28 54  1  0
 28 55  1  0
M  END
>  <smiles>  (48) 
C=C(O)N1CCC(c2ccc3cc(C(N)=O)n(C(=O)OC(C)(C)C)c3c2)CC1

>  <score_type>  (48) 
oracle

>  <origin>  (48) 
adg

>  <m_score__min__energy>  (48) 
-9.5899999999999999

>  <m_primary>  (48) 
energy

$$$$
49:0
     RDKit          3D

 51 54  0  0  0  0  0  0  0  0999 V2000
   -6.1020   16.9300  -30.5100 C   0  0  0  0  0  0  0  0  0  0  0  0
   -5.9250   17.0260  -31.9910 C   0  0  0  0  0  0  0  0  0  0  0  0
   -5.6280   15.9680  -32.7720 N   0  0  0  0  0  0  0  0  0  0  0  0
   -5.5510   16.4060  -33.9960 O   0  0  0  0  0  0  0  0  0  0  0  0
   -5.7910   17.6950  -34.0590 C   0  0  0  0  0  0  0  0  0  0  0  0
   -5.7790   18.4830  -35.3280 C   0  0  0  0  0  0  0  0  0  0  0  0
   -6.0410   18.1610  -32.7780 C   0  0  0  0  0  0  0  0  0  0  0  0
   -6.3660   19.5400  -32.3550 C   0  0  0  0  0  0  0  0  0  0  0  0
   -7.7110   19.9860  -32.3480 C   0  0  0  0  0  0  0  0  0  0  0  0
   -8.0300   21.2980  -31.9580 C   0  0  0  0  0  0  0  0  0  0  0  0
   -6.9880   22.1360  -31.5750 C   0  0  0  0  0  0  0  0  0  0  0  0
   -7.0100   23.4550  -31.1810 C   0  0  0  0  0  0  0  0  0  0  0  0
   -5.6790   23.7890  -30.9340 C   0  0  0  0  0  0  0  0  0  0  0  0
   -5.2470   25.1070  -30.4260 C   0  0  0  0  0  0  0  0  0  0  0  0
   -3.8680   25.4690  -30.4720 N   0  0  0  0  0  0  0  0  0  0  0  0
   -6.0850   25.9310  -29.9720 O   0  0  0  0  0  0  0  0  0  0  0  0
   -4.8690   22.7180  -31.1650 N   0  0  0  0  0  0  0  0  0  0  0  0
   -3.4360   22.6640  -31.0870 C   0  0  0  0  0  0  0  0  0  0  0  0
   -2.7820   22.1240  -32.0200 O   0  0  0  0  0  0  0  0  0  0  0  0
   -2.7600   23.2230  -29.9490 N   0  0  0  0  0  0  0  0  0  0  0  0
   -1.3560   23.0750  -29.6930 C   0  0  0  0  0  0  0  0  0  0  0  0
   -0.6290   22.3960  -30.4700 O   0  0  0  0  0  0  0  0  0  0  0  0
   -0.8050   23.6870  -28.5620 O   0  0  0  0  0  0  0  0  0  0  0  0
   -0.9110   23.1450  -27.2480 C   0  0  0  0  0  0  0  0  0  0  0  0
   -1.1480   21.6610  -27.3100 C   0  0  0  0  0  0  0  0  0  0  0  0
   -0.0760   20.7710  -27.4950 C   0  0  0  0  0  0  0  0  0  0  0  0
   -0.3050   19.3910  -27.5300 C   0  0  0  0  0  0  0  0  0  0  0  0
   -1.6020   18.8930  -27.3800 C   0  0  0  0  0  0  0  0  0  0  0  0
   -2.6730   19.7730  -27.1930 C   0  0  0  0  0  0  0  0  0  0  0  0
   -2.4470   21.1520  -27.1560 C   0  0  0  0  0  0  0  0  0  0  0  0
   -5.6850   21.7160  -31.5600 C   0  0  0  0  0  0  0  0  0  0  0  0
   -5.3350   20.4220  -31.9610 C   0  0  0  0  0  0  0  0  0  0  0  0
   -5.2421   17.3964  -30.0070 H   0  0  0  0  0  0  0  0  0  0  0  0
   -7.0253   17.4510  -30.2165 H   0  0  0  0  0  0  0  0  0  0  0  0
   -6.1689   15.8720  -30.2165 H   0  0  0  0  0  0  0  0  0  0  0  0
   -5.7626   19.5573  -35.0923 H   0  0  0  0  0  0  0  0  0  0  0  0
   -4.8847   18.2223  -35.9131 H   0  0  0  0  0  0  0  0  0  0  0  0
   -6.6808   18.2496  -35.9131 H   0  0  0  0  0  0  0  0  0  0  0  0
   -8.5140   19.2980  -32.6511 H   0  0  0  0  0  0  0  0  0  0  0  0
   -9.0717   21.6513  -31.9557 H   0  0  0  0  0  0  0  0  0  0  0  0
   -7.8905   24.1068  -31.0821 H   0  0  0  0  0  0  0  0  0  0  0  0
   -3.4890   26.0430  -31.2580 H   0  0  0  0  0  0  0  0  0  0  0  0
   -3.3220   23.7740  -29.2620 H   0  0  0  0  0  0  0  0  0  0  0  0
    0.0220   23.3403  -26.6991 H   0  0  0  0  0  0  0  0  0  0  0  0
   -1.7591   23.6204  -26.7335 H   0  0  0  0  0  0  0  0  0  0  0  0
    0.9460   21.1604  -27.6126 H   0  0  0  0  0  0  0  0  0  0  0  0
    0.5365   18.6977  -27.6757 H   0  0  0  0  0  0  0  0  0  0  0  0
   -1.7808   17.8080  -27.4090 H   0  0  0  0  0  0  0  0  0  0  0  0
   -3.6935   19.3798  -27.0750 H   0  0  0  0  0  0  0  0  0  0  0  0
   -3.2909   21.8413  -27.0055 H   0  0  0  0  0  0  0  0  0  0  0  0
   -4.2834   20.0995  -31.9693 H   0  0  0  0  0  0  0  0  0  0  0  0
  1  2  1  0
  2  3  2  0
  3  4  1  0
  4  5  1  0
  5  6  1  0
  5  7  2  0
  7  8  1  0
  8  9  2  0
  9 10  1  0
 10 11  2  0
 11 12  1  0
 12 13  2  0
 13 14  1  0
 14 15  1  0
 14 16  2  0
 13 17  1  0
 17 18  1  0
 18 19  2  0
 18 20  1  0
 20 21  1  0
 21 22  2  0
 21 23  1  0
 23 24  1  0
 24 25  1  0
 25 26  2  0
 26 27  1  0
 27 28  2  0
 28 29  1  0
 29 30  2  0
 17 31  1  0
 31 32  2  0
  7  2  1  0
 32  8  1  0
 31 11  1  0
 30 25  1  0
  1 33  1  0
  1 34  1  0
  1 35  1  0
  6 36  1  0
  6 37  1  0
  6 38  1  0
  9 39  1  0
 10 40  1  0
 12 41  1  0
 15 42  1  0
 20 43  1  0
 24 44  1  0
 24 45  1  0
 26 46  1  0
 27 47  1  0
 28 48  1  0
 29 49  1  0
 30 50  1  0
 32 51  1  0
M  CHG  1  15  -1
M  END
>  <UniqueID>  (49) 
45

>  <SMILES>  (49) 
Cc1noc(C)c1-c1ccc2cc(C([NH-])=O)n(C(=O)NC(=O)OCc3ccccc3)c2c1

>  <Energy>  (49) 
125.68796324102154

>  <Genealogy>  (49) 
Cc1noc(C)c1-c1ccc2cc(C([NH-])=O)n(C(=O)NC(=O)OCc3ccccc3)c2c1 (protonated)
Cc1noc(C)c1-c1ccc2cc(C([NH-])=O)n(C(=O)NC(=O)OCc3ccccc3)c2c1 (3D coordinates assigned)
Cc1noc(C)c1-c1ccc2cc(C([NH-])=O)n(C(=O)NC(=O)OCc3ccccc3)c2c1 (optimized conformer: 125.68796324102154 kcal/mol)

>  <smiles>  (49) 
Cc1noc(C)c1-c1ccc2cc(C(N)=O)n(C(=O)NC(=O)OCc3ccccc3)c2c1

>  <score_type>  (49) 
oracle

>  <origin>  (49) 
adg

>  <m_score__min__energy>  (49) 
-12.109999999999999

>  <m_primary>  (49) 
energy

$$$$
50:0
     RDKit          3D

 54 57  0  0  0  0  0  0  0  0999 V2000
   -0.5850   27.2950  -26.8560 C   0  0  0  0  0  0  0  0  0  0  0  0
   -1.1750   26.7700  -28.0410 O   0  0  0  0  0  0  0  0  0  0  0  0
   -1.5180   25.4220  -28.2250 C   0  0  0  0  0  0  0  0  0  0  0  0
   -2.7060   24.8710  -27.7210 C   0  0  0  0  0  0  0  0  0  0  0  0
   -3.0040   23.5220  -27.9330 C   0  0  0  0  0  0  0  0  0  0  0  0
   -2.1330   22.6820  -28.6640 C   0  0  0  0  0  0  0  0  0  0  0  0
   -2.4980   21.1850  -28.8580 C   0  0  0  0  0  0  0  0  0  0  0  0
   -3.5150   20.9850  -30.0350 C   0  0  0  0  0  0  0  0  0  0  0  0
   -3.8800   22.2230  -30.8260 C   0  0  0  0  0  0  0  0  0  0  0  0
   -2.9750   22.9970  -31.2390 O   0  0  0  0  0  0  0  0  0  0  0  0
   -5.2600   22.5750  -31.0350 N   0  0  0  0  0  0  0  0  0  0  0  0
   -5.8610   23.7820  -30.8250 C   0  0  0  0  0  0  0  0  0  0  0  0
   -5.2000   25.0160  -30.3480 C   0  0  0  0  0  0  0  0  0  0  0  0
   -3.8820   25.3300  -30.7900 N   0  0  0  0  0  0  0  0  0  0  0  0
   -5.7840   25.7980  -29.5560 O   0  0  0  0  0  0  0  0  0  0  0  0
   -7.2150   23.7150  -31.1460 C   0  0  0  0  0  0  0  0  0  0  0  0
   -7.4340   22.4170  -31.5470 C   0  0  0  0  0  0  0  0  0  0  0  0
   -8.6120   21.7890  -31.9400 C   0  0  0  0  0  0  0  0  0  0  0  0
   -8.5550   20.4200  -32.2530 C   0  0  0  0  0  0  0  0  0  0  0  0
   -7.3320   19.7110  -32.1660 C   0  0  0  0  0  0  0  0  0  0  0  0
   -7.2980   18.2380  -32.4450 C   0  0  0  0  0  0  0  0  0  0  0  0
   -6.1610   20.3770  -31.7430 C   0  0  0  0  0  0  0  0  0  0  0  0
   -6.2400   21.7480  -31.4650 C   0  0  0  0  0  0  0  0  0  0  0  0
   -1.1980   20.3770  -29.1140 C   0  0  0  0  0  0  0  0  0  0  0  0
   -1.1850   19.2210  -28.1250 C   0  0  0  0  0  0  0  0  0  0  0  0
   -2.0710   19.6400  -26.9670 C   0  0  0  0  0  0  0  0  0  0  0  0
   -3.0930   20.6150  -27.5390 C   0  0  0  0  0  0  0  0  0  0  0  0
   -0.9320   23.2540  -29.1500 C   0  0  0  0  0  0  0  0  0  0  0  0
   -0.6390   24.6040  -28.9350 C   0  0  0  0  0  0  0  0  0  0  0  0
   -1.0778   26.8565  -25.9757 H   0  0  0  0  0  0  0  0  0  0  0  0
    0.4863   27.0460  -26.8385 H   0  0  0  0  0  0  0  0  0  0  0  0
   -0.7078   28.3880  -26.8385 H   0  0  0  0  0  0  0  0  0  0  0  0
   -3.4063   25.5039  -27.1562 H   0  0  0  0  0  0  0  0  0  0  0  0
   -3.9356   23.1053  -27.5225 H   0  0  0  0  0  0  0  0  0  0  0  0
   -3.0783   20.2573  -30.7348 H   0  0  0  0  0  0  0  0  0  0  0  0
   -4.4507   20.6549  -29.5601 H   0  0  0  0  0  0  0  0  0  0  0  0
   -3.0450   24.9590  -30.2890 H   0  0  0  0  0  0  0  0  0  0  0  0
   -7.9535   24.5284  -31.0906 H   0  0  0  0  0  0  0  0  0  0  0  0
   -9.5581   22.3465  -32.0037 H   0  0  0  0  0  0  0  0  0  0  0  0
   -9.4684   19.8945  -32.5684 H   0  0  0  0  0  0  0  0  0  0  0  0
   -7.2852   17.6849  -31.4942 H   0  0  0  0  0  0  0  0  0  0  0  0
   -8.1898   17.9536  -33.0227 H   0  0  0  0  0  0  0  0  0  0  0  0
   -6.3940   17.9950  -33.0227 H   0  0  0  0  0  0  0  0  0  0  0  0
   -5.2109   19.8333  -31.6345 H   0  0  0  0  0  0  0  0  0  0  0  0
   -1.1904   19.9917  -30.1443 H   0  0  0  0  0  0  0  0  0  0  0  0
   -0.3104   21.0133  -28.9827 H   0  0  0  0  0  0  0  0  0  0  0  0
   -1.5820   18.3107  -28.5981 H   0  0  0  0  0  0  0  0  0  0  0  0
   -0.1629   18.9975  -27.7853 H   0  0  0  0  0  0  0  0  0  0  0  0
   -2.5793   18.7629  -26.5400 H   0  0  0  0  0  0  0  0  0  0  0  0
   -1.4826   20.1051  -26.1623 H   0  0  0  0  0  0  0  0  0  0  0  0
   -4.0377   20.0914  -27.7472 H   0  0  0  0  0  0  0  0  0  0  0  0
   -3.3029   21.4242  -26.8240 H   0  0  0  0  0  0  0  0  0  0  0  0
   -0.2190   22.6266  -29.7050 H   0  0  0  0  0  0  0  0  0  0  0  0
    0.2964   25.0264  -29.3307 H   0  0  0  0  0  0  0  0  0  0  0  0
  1  2  1  0
  2  3  1  0
  3  4  2  0
  4  5  1  0
  5  6  2  0
  6  7  1  0
  7  8  1  0
  8  9  1  0
  9 10  2  0
  9 11  1  0
 11 12  1  0
 12 13  1  0
 13 14  1  0
 13 15  2  0
 12 16  2  0
 16 17  1  0
 17 18  2  0
 18 19  1  0
 19 20  2  0
 20 21  1  0
 20 22  1  0
 22 23  2  0
  7 24  1  0
 24 25  1  0
 25 26  1  0
 26 27  1  0
  6 28  1  0
 28 29  2  0
 29  3  1  0
 27  7  1  0
 23 11  1  0
 23 17  1  0
  1 30  1  0
  1 31  1  0
  1 32  1  0
  4 33  1  0
  5 34  1  0
  8 35  1  0
  8 36  1  0
 14 37  1  0
 16 38  1  0
 18 39  1  0
 19 40  1  0
 21 41  1  0
 21 42  1  0
 21 43  1  0
 22 44  1  0
 24 45  1  0
 24 46  1  0
 25 47  1  0
 25 48  1  0
 26 49  1  0
 26 50  1  0
 27 51  1  0
 27 52  1  0
 28 53  1  0
 29 54  1  0
M  CHG  1  14  -1
M  END
>  <UniqueID>  (50) 
46

>  <SMILES>  (50) 
COc1ccc(C2(CC(=O)n3c(C([NH-])=O)cc4ccc(C)cc43)CCCC2)cc1

>  <Energy>  (50) 
105.63441233463043

>  <Genealogy>  (50) 
COc1ccc(C2(CC(=O)n3c(C([NH-])=O)cc4ccc(C)cc43)CCCC2)cc1 (protonated)
COc1ccc(C2(CC(=O)n3c(C([NH-])=O)cc4ccc(C)cc43)CCCC2)cc1 (3D coordinates assigned)
COc1ccc(C2(CC(=O)n3c(C([NH-])=O)cc4ccc(C)cc43)CCCC2)cc1 (nonaromatic ring conformer: 105.63441233463043 kcal/mol)

>  <smiles>  (50) 
COc1ccc(C2(CC(=O)n3c(C(N)=O)cc4ccc(C)cc43)CCCC2)cc1

>  <score_type>  (50) 
oracle

>  <origin>  (50) 
adg

>  <m_score__min__energy>  (50) 
-12.619999999999999

>  <m_primary>  (50) 
energy

$$$$
51:0
     RDKit          3D

 41 43  0  0  0  0  0  0  0  0999 V2000
   -5.8570   25.2610  -29.2330 N   0  0  0  0  0  0  0  0  0  0  0  0
   -5.3760   24.6230  -30.4150 C   0  0  0  0  0  0  0  0  0  0  0  0
   -4.4910   25.1910  -31.1090 O   0  0  0  0  0  0  0  0  0  0  0  0
   -5.8550   23.2830  -30.8030 C   0  0  0  0  0  0  0  0  0  0  0  0
   -7.1500   23.0300  -31.2430 C   0  0  0  0  0  0  0  0  0  0  0  0
   -7.1700   21.6900  -31.5570 C   0  0  0  0  0  0  0  0  0  0  0  0
   -8.2110   20.8990  -32.0360 C   0  0  0  0  0  0  0  0  0  0  0  0
   -7.9580   19.5310  -32.2380 C   0  0  0  0  0  0  0  0  0  0  0  0
   -6.6860   18.9810  -31.9420 C   0  0  0  0  0  0  0  0  0  0  0  0
   -6.4230   17.5190  -32.1830 C   0  0  0  0  0  0  0  0  0  0  0  0
   -6.4300   17.2120  -33.6840 C   0  0  0  0  0  0  0  0  0  0  0  0
   -5.5050   18.1630  -34.4460 C   0  0  0  0  0  0  0  0  0  0  0  0
   -6.1910   19.3380  -34.7860 O   0  0  0  0  0  0  0  0  0  0  0  0
   -5.6510   19.8170  -31.4680 C   0  0  0  0  0  0  0  0  0  0  0  0
   -5.9250   21.1780  -31.2960 C   0  0  0  0  0  0  0  0  0  0  0  0
   -5.1050   22.1450  -30.8240 N   0  0  0  0  0  0  0  0  0  0  0  0
   -3.7600   21.9600  -30.3420 C   0  0  0  0  0  0  0  0  0  0  0  0
   -3.3810   22.5890  -29.3170 O   0  0  0  0  0  0  0  0  0  0  0  0
   -2.8030   21.0640  -31.0390 C   0  0  0  0  0  0  0  0  0  0  0  0
   -1.8530   20.3150  -30.3070 C   0  0  0  0  0  0  0  0  0  0  0  0
   -1.7520   20.3730  -28.5480 Cl  0  0  0  0  0  0  0  0  0  0  0  0
   -0.9780   19.4620  -30.9850 C   0  0  0  0  0  0  0  0  0  0  0  0
   -1.0270   19.3620  -32.3370 N   0  0  0  0  0  0  0  0  0  0  0  0
   -1.9110   20.0810  -33.0730 C   0  0  0  0  0  0  0  0  0  0  0  0
   -2.8110   20.9500  -32.4480 C   0  0  0  0  0  0  0  0  0  0  0  0
   -3.8580   21.9260  -33.4760 Cl  0  0  0  0  0  0  0  0  0  0  0  0
   -5.5510   26.2300  -28.9960 H   0  0  0  0  0  0  0  0  0  0  0  0
   -6.4540   24.7410  -28.5520 H   0  0  0  0  0  0  0  0  0  0  0  0
   -7.9803   23.7471  -31.3229 H   0  0  0  0  0  0  0  0  0  0  0  0
   -9.1999   21.3308  -32.2496 H   0  0  0  0  0  0  0  0  0  0  0  0
   -8.7548   18.8815  -32.6295 H   0  0  0  0  0  0  0  0  0  0  0  0
   -5.4410   17.2541  -31.7641 H   0  0  0  0  0  0  0  0  0  0  0  0
   -7.2146   16.9305  -31.6962 H   0  0  0  0  0  0  0  0  0  0  0  0
   -6.0896   16.1778  -33.8406 H   0  0  0  0  0  0  0  0  0  0  0  0
   -7.4544   17.3438  -34.0624 H   0  0  0  0  0  0  0  0  0  0  0  0
   -4.6425   18.4164  -33.8120 H   0  0  0  0  0  0  0  0  0  0  0  0
   -5.1622   17.6686  -35.3669 H   0  0  0  0  0  0  0  0  0  0  0  0
   -6.8110   19.1010  -35.5250 H   0  0  0  0  0  0  0  0  0  0  0  0
   -4.6554   19.4086  -31.2400 H   0  0  0  0  0  0  0  0  0  0  0  0
   -0.2452   18.8681  -30.4190 H   0  0  0  0  0  0  0  0  0  0  0  0
   -1.9200   19.9799  -34.1683 H   0  0  0  0  0  0  0  0  0  0  0  0
  1  2  1  0
  2  3  2  0
  2  4  1  0
  4  5  2  0
  5  6  1  0
  6  7  2  0
  7  8  1  0
  8  9  2  0
  9 10  1  0
 10 11  1  0
 11 12  1  0
 12 13  1  0
  9 14  1  0
 14 15  2  0
 15 16  1  0
 16 17  1  0
 17 18  2  0
 17 19  1  0
 19 20  2  0
 20 21  1  0
 20 22  1  0
 22 23  2  0
 23 24  1  0
 24 25  2  0
 25 26  1  0
 16  4  1  0
 25 19  1  0
 15  6  1  0
  1 27  1  0
  1 28  1  0
  5 29  1  0
  7 30  1  0
  8 31  1  0
 10 32  1  0
 10 33  1  0
 11 34  1  0
 11 35  1  0
 12 36  1  0
 12 37  1  0
 13 38  1  0
 14 39  1  0
 22 40  1  0
 24 41  1  0
M  END
>  <UniqueID>  (51) 
47

>  <SMILES>  (51) 
NC(=O)c1cc2ccc(CCCO)cc2n1C(=O)c1c(Cl)cncc1Cl

>  <Energy>  (51) 
85.46979651090439

>  <Genealogy>  (51) 
NC(=O)c1cc2ccc(CCCO)cc2n1C(=O)c1c(Cl)cncc1Cl (3D coordinates assigned)
NC(=O)c1cc2ccc(CCCO)cc2n1C(=O)c1c(Cl)cncc1Cl (optimized conformer: 85.46979651090439 kcal/mol)

>  <smiles>  (51) 
NC(=O)c1cc2ccc(CCCO)cc2n1C(=O)c1c(Cl)cncc1Cl

>  <score_type>  (51) 
oracle

>  <origin>  (51) 
adg

>  <m_score__min__energy>  (51) 
-8.9399999999999995

>  <m_primary>  (51) 
energy

$$$$
52:0
     RDKit          3D

 36 39  0  0  0  0  0  0  0  0999 V2000
   -3.8720   25.6500  -30.8690 N   0  0  0  0  0  0  0  0  0  0  0  0
   -5.1280   25.1030  -30.4760 C   0  0  0  0  0  0  0  0  0  0  0  0
   -5.8520   25.7390  -29.6650 O   0  0  0  0  0  0  0  0  0  0  0  0
   -5.5760   23.8100  -31.0360 C   0  0  0  0  0  0  0  0  0  0  0  0
   -6.8890   23.5420  -31.4190 C   0  0  0  0  0  0  0  0  0  0  0  0
   -6.8900   22.2240  -31.8190 C   0  0  0  0  0  0  0  0  0  0  0  0
   -7.9270   21.4320  -32.3000 C   0  0  0  0  0  0  0  0  0  0  0  0
   -7.6340   20.1020  -32.6470 C   0  0  0  0  0  0  0  0  0  0  0  0
   -6.3170   19.5870  -32.5110 C   0  0  0  0  0  0  0  0  0  0  0  0
   -6.0090   18.1870  -32.8820 C   0  0  0  0  0  0  0  0  0  0  0  0
   -5.6010   17.2520  -31.9930 N   0  0  0  0  0  0  0  0  0  0  0  0
   -5.3810   16.0440  -32.5780 C   0  0  0  0  0  0  0  0  0  0  0  0
   -5.6140   15.9990  -33.9470 C   0  0  0  0  0  0  0  0  0  0  0  0
   -6.1100   17.5300  -34.4310 S   0  0  0  0  0  0  0  0  0  0  0  0
   -5.2920   20.4260  -32.0170 C   0  0  0  0  0  0  0  0  0  0  0  0
   -5.6170   21.7420  -31.6740 C   0  0  0  0  0  0  0  0  0  0  0  0
   -4.7980   22.7040  -31.2030 N   0  0  0  0  0  0  0  0  0  0  0  0
   -3.3920   22.5640  -30.9470 C   0  0  0  0  0  0  0  0  0  0  0  0
   -2.8850   23.1750  -29.9680 O   0  0  0  0  0  0  0  0  0  0  0  0
   -2.5440   21.6880  -31.7910 C   0  0  0  0  0  0  0  0  0  0  0  0
   -1.5140   20.9220  -31.2180 C   0  0  0  0  0  0  0  0  0  0  0  0
   -0.7220   20.0990  -32.0210 C   0  0  0  0  0  0  0  0  0  0  0  0
   -0.9670   20.0420  -33.3940 C   0  0  0  0  0  0  0  0  0  0  0  0
   -1.9710   20.7790  -33.9370 N   0  0  0  0  0  0  0  0  0  0  0  0
   -2.7560   21.5910  -33.1770 C   0  0  0  0  0  0  0  0  0  0  0  0
   -2.9790   25.2800  -30.4760 H   0  0  0  0  0  0  0  0  0  0  0  0
   -7.7428   24.2355  -31.4048 H   0  0  0  0  0  0  0  0  0  0  0  0
   -8.9454   21.8342  -32.4056 H   0  0  0  0  0  0  0  0  0  0  0  0
   -8.4347   19.4515  -33.0288 H   0  0  0  0  0  0  0  0  0  0  0  0
   -5.0429   15.1659  -32.0083 H   0  0  0  0  0  0  0  0  0  0  0  0
   -5.4952   15.1196  -34.5970 H   0  0  0  0  0  0  0  0  0  0  0  0
   -4.2634   20.0525  -31.9051 H   0  0  0  0  0  0  0  0  0  0  0  0
   -1.3315   20.9711  -30.1344 H   0  0  0  0  0  0  0  0  0  0  0  0
    0.0872   19.5013  -31.5760 H   0  0  0  0  0  0  0  0  0  0  0  0
   -0.3468   19.4000  -34.0368 H   0  0  0  0  0  0  0  0  0  0  0  0
   -3.5601   22.1740  -33.6499 H   0  0  0  0  0  0  0  0  0  0  0  0
  1  2  1  0
  2  3  2  0
  2  4  1  0
  4  5  2  0
  5  6  1  0
  6  7  2  0
  7  8  1  0
  8  9  2  0
  9 10  1  0
 10 11  2  0
 11 12  1  0
 12 13  2  0
 13 14  1  0
  9 15  1  0
 15 16  2  0
 16 17  1  0
 17 18  1  0
 18 19  2  0
 18 20  1  0
 20 21  2  0
 21 22  1  0
 22 23  2  0
 23 24  1  0
 24 25  2  0
 17  4  1  0
 25 20  1  0
 16  6  1  0
 14 10  1  0
  1 26  1  0
  5 27  1  0
  7 28  1  0
  8 29  1  0
 12 30  1  0
 13 31  1  0
 15 32  1  0
 21 33  1  0
 22 34  1  0
 23 35  1  0
 25 36  1  0
M  CHG  1   1  -1
M  END
>  <UniqueID>  (52) 
48

>  <SMILES>  (52) 
[NH-]C(=O)c1cc2ccc(-c3nccs3)cc2n1C(=O)c1cccnc1

>  <Energy>  (52) 
113.27392261751898

>  <Genealogy>  (52) 
[NH-]C(=O)c1cc2ccc(-c3nccs3)cc2n1C(=O)c1cccnc1 (protonated)
[NH-]C(=O)c1cc2ccc(-c3nccs3)cc2n1C(=O)c1cccnc1 (3D coordinates assigned)
[NH-]C(=O)c1cc2ccc(-c3nccs3)cc2n1C(=O)c1cccnc1 (optimized conformer: 113.27392261751898 kcal/mol)

>  <smiles>  (52) 
NC(=O)c1cc2ccc(-c3nccs3)cc2n1C(=O)c1cccnc1

>  <score_type>  (52) 
oracle

>  <origin>  (52) 
adg

>  <m_score__min__energy>  (52) 
-11.279999999999999

>  <m_primary>  (52) 
energy

$$$$
53:0
     RDKit          3D

 54 56  0  0  0  0  0  0  0  0999 V2000
   -4.2280   22.8700  -27.8830 C   0  0  0  0  0  0  0  0  0  0  0  0
   -3.0630   22.2160  -28.6390 C   0  0  0  0  0  0  0  0  0  0  0  0
   -2.2850   21.3080  -27.6680 C   0  0  0  0  0  0  0  0  0  0  0  0
   -2.1510   23.3200  -29.2030 C   0  0  0  0  0  0  0  0  0  0  0  0
   -3.6330   21.4440  -29.7050 O   0  0  0  0  0  0  0  0  0  0  0  0
   -4.1250   21.9380  -30.9220 C   0  0  0  0  0  0  0  0  0  0  0  0
   -3.3590   22.1340  -31.9040 O   0  0  0  0  0  0  0  0  0  0  0  0
   -5.5260   22.2250  -31.0450 N   0  0  0  0  0  0  0  0  0  0  0  0
   -6.1640   23.4050  -30.8070 C   0  0  0  0  0  0  0  0  0  0  0  0
   -5.5150   24.6850  -30.4620 C   0  0  0  0  0  0  0  0  0  0  0  0
   -5.8450   25.3870  -29.2630 N   0  0  0  0  0  0  0  0  0  0  0  0
   -4.6150   25.1440  -31.2160 O   0  0  0  0  0  0  0  0  0  0  0  0
   -7.5370   23.2630  -30.9870 C   0  0  0  0  0  0  0  0  0  0  0  0
   -7.7220   21.9510  -31.3640 C   0  0  0  0  0  0  0  0  0  0  0  0
   -8.8890   21.2620  -31.6760 C   0  0  0  0  0  0  0  0  0  0  0  0
   -8.7800   19.9040  -32.0180 C   0  0  0  0  0  0  0  0  0  0  0  0
   -7.5160   19.2560  -32.0290 C   0  0  0  0  0  0  0  0  0  0  0  0
   -7.4180   17.7990  -32.4140 C   0  0  0  0  0  0  0  0  0  0  0  0
   -6.8200   17.5370  -33.8240 C   0  0  0  0  0  0  0  0  0  0  0  0
   -5.9760   16.2310  -33.8980 C   0  0  0  0  0  0  0  0  0  0  0  0
   -4.6230   16.4150  -34.5930 C   0  0  0  0  0  0  0  0  0  0  0  0
   -3.8600   17.5810  -33.9640 C   0  0  0  0  0  0  0  0  0  0  0  0
   -4.6240   18.9160  -34.0680 C   0  0  0  0  0  0  0  0  0  0  0  0
   -6.1150   18.7720  -34.4450 C   0  0  0  0  0  0  0  0  0  0  0  0
   -6.3600   19.9850  -31.6770 C   0  0  0  0  0  0  0  0  0  0  0  0
   -6.4930   21.3450  -31.3830 C   0  0  0  0  0  0  0  0  0  0  0  0
   -4.0609   22.7762  -26.7998 H   0  0  0  0  0  0  0  0  0  0  0  0
   -4.2893   23.9344  -28.1537 H   0  0  0  0  0  0  0  0  0  0  0  0
   -5.1686   22.3680  -28.1537 H   0  0  0  0  0  0  0  0  0  0  0  0
   -2.5252   21.5883  -26.6318 H   0  0  0  0  0  0  0  0  0  0  0  0
   -2.5691   20.2592  -27.8394 H   0  0  0  0  0  0  0  0  0  0  0  0
   -1.2051   21.4280  -27.8394 H   0  0  0  0  0  0  0  0  0  0  0  0
   -1.6917   23.8760  -28.3724 H   0  0  0  0  0  0  0  0  0  0  0  0
   -1.3623   22.8645  -29.8198 H   0  0  0  0  0  0  0  0  0  0  0  0
   -2.7472   24.0085  -29.8198 H   0  0  0  0  0  0  0  0  0  0  0  0
   -5.4240   26.3230  -29.0700 H   0  0  0  0  0  0  0  0  0  0  0  0
   -6.4280   24.9410  -28.5200 H   0  0  0  0  0  0  0  0  0  0  0  0
   -8.3100   24.0345  -30.8560 H   0  0  0  0  0  0  0  0  0  0  0  0
   -9.8671   21.7649  -31.6556 H   0  0  0  0  0  0  0  0  0  0  0  0
   -9.6844   19.3355  -32.2805 H   0  0  0  0  0  0  0  0  0  0  0  0
   -6.7830   17.2911  -31.6731 H   0  0  0  0  0  0  0  0  0  0  0  0
   -8.4485   17.4149  -32.4381 H   0  0  0  0  0  0  0  0  0  0  0  0
   -7.6877   17.3589  -34.4762 H   0  0  0  0  0  0  0  0  0  0  0  0
   -5.7951   15.8750  -32.8730 H   0  0  0  0  0  0  0  0  0  0  0  0
   -6.5507   15.5084  -34.4959 H   0  0  0  0  0  0  0  0  0  0  0  0
   -4.0314   15.4938  -34.4860 H   0  0  0  0  0  0  0  0  0  0  0  0
   -4.7933   16.6307  -35.6581 H   0  0  0  0  0  0  0  0  0  0  0  0
   -3.6871   17.3562  -32.9012 H   0  0  0  0  0  0  0  0  0  0  0  0
   -2.9144   17.6952  -34.5142 H   0  0  0  0  0  0  0  0  0  0  0  0
   -4.5632   19.4236  -33.0940 H   0  0  0  0  0  0  0  0  0  0  0  0
   -4.1492   19.4862  -34.8801 H   0  0  0  0  0  0  0  0  0  0  0  0
   -6.6436   19.6754  -34.1067 H   0  0  0  0  0  0  0  0  0  0  0  0
   -6.1498   18.6360  -35.5360 H   0  0  0  0  0  0  0  0  0  0  0  0
   -5.3765   19.4940  -31.6350 H   0  0  0  0  0  0  0  0  0  0  0  0
  1  2  1  0
  2  3  1  0
  2  4  1  0
  2  5  1  0
  5  6  1  0
  6  7  2  0
  6  8  1  0
  8  9  1  0
  9 10  1  0
 10 11  1  0
 10 12  2  0
  9 13  2  0
 13 14  1  0
 14 15  2  0
 15 16  1  0
 16 17  2  0
 17 18  1  0
 18 19  1  0
 19 20  1  0
 20 21  1  0
 21 22  1  0
 22 23  1  0
 23 24  1  0
 17 25  1  0
 25 26  2  0
 26  8  1  0
 26 14  1  0
 24 19  1  0
  1 27  1  0
  1 28  1  0
  1 29  1  0
  3 30  1  0
  3 31  1  0
  3 32  1  0
  4 33  1  0
  4 34  1  0
  4 35  1  0
 11 36  1  0
 11 37  1  0
 13 38  1  0
 15 39  1  0
 16 40  1  0
 18 41  1  0
 18 42  1  0
 19 43  1  0
 20 44  1  0
 20 45  1  0
 21 46  1  0
 21 47  1  0
 22 48  1  0
 22 49  1  0
 23 50  1  0
 23 51  1  0
 24 52  1  0
 24 53  1  0
 25 54  1  0
M  END
>  <UniqueID>  (53) 
49

>  <SMILES>  (53) 
CC(C)(C)OC(=O)n1c(C(N)=O)cc2ccc(CC3CCCCC3)cc21

>  <Energy>  (53) 
91.07572511160373

>  <Genealogy>  (53) 
CC(C)(C)OC(=O)n1c(C(N)=O)cc2ccc(CC3CCCCC3)cc21 (3D coordinates assigned)
CC(C)(C)OC(=O)n1c(C(N)=O)cc2ccc(CC3CCCCC3)cc21 (nonaromatic ring conformer: 91.07572511160373 kcal/mol)

>  <smiles>  (53) 
CC(C)(C)OC(=O)n1c(C(N)=O)cc2ccc(CC3CCCCC3)cc21

>  <score_type>  (53) 
oracle

>  <origin>  (53) 
adg

>  <m_score__min__energy>  (53) 
-10.210000000000001

>  <m_primary>  (53) 
energy

$$$$
54:0
     RDKit          3D

 39 40  0  0  0  0  0  0  0  0999 V2000
   -7.2270   23.7380  -31.7280 C   0  0  0  0  0  0  0  0  0  0  0  0
   -7.0010   22.3010  -31.4810 N   0  0  0  0  0  0  0  0  0  0  0  0
   -8.0220   21.7580  -30.5680 C   0  0  0  0  0  0  0  0  0  0  0  0
   -6.8820   21.5190  -32.7360 C   0  0  0  0  0  0  0  0  0  0  0  0
   -6.4530   20.0470  -32.5360 C   0  0  0  0  0  0  0  0  0  0  0  0
   -5.1280   19.7300  -33.2460 C   0  0  0  0  0  0  0  0  0  0  0  0
   -3.9440   20.3300  -32.5310 C   0  0  0  0  0  0  0  0  0  0  0  0
   -2.7030   19.6460  -32.5050 C   0  0  0  0  0  0  0  0  0  0  0  0
   -1.6080   20.1790  -31.8060 C   0  0  0  0  0  0  0  0  0  0  0  0
   -1.7800   21.3940  -31.1510 C   0  0  0  0  0  0  0  0  0  0  0  0
   -0.8990   22.1150  -30.3790 C   0  0  0  0  0  0  0  0  0  0  0  0
   -1.6080   23.2400  -29.9610 C   0  0  0  0  0  0  0  0  0  0  0  0
   -1.0030   24.3340  -29.1740 C   0  0  0  0  0  0  0  0  0  0  0  0
   -1.4520   25.6780  -29.3220 N   0  0  0  0  0  0  0  0  0  0  0  0
   -0.0400   24.0860  -28.3980 O   0  0  0  0  0  0  0  0  0  0  0  0
   -2.8810   23.2110  -30.4470 N   0  0  0  0  0  0  0  0  0  0  0  0
   -3.9490   24.1300  -30.1650 C   0  0  0  0  0  0  0  0  0  0  0  0
   -3.8380   25.3470  -30.4670 O   0  0  0  0  0  0  0  0  0  0  0  0
   -5.1270   23.6780  -29.5820 O   0  0  0  0  0  0  0  0  0  0  0  0
   -2.9700   22.0760  -31.1770 C   0  0  0  0  0  0  0  0  0  0  0  0
   -4.0830   21.5590  -31.8490 C   0  0  0  0  0  0  0  0  0  0  0  0
   -7.3101   24.2666  -30.7669 H   0  0  0  0  0  0  0  0  0  0  0  0
   -6.3824   24.1489  -32.3006 H   0  0  0  0  0  0  0  0  0  0  0  0
   -8.1569   23.8698  -32.3006 H   0  0  0  0  0  0  0  0  0  0  0  0
   -6.0790   22.2190  -30.9900 H   0  0  0  0  0  0  0  0  0  0  0  0
   -7.7087   21.9246  -29.5268 H   0  0  0  0  0  0  0  0  0  0  0  0
   -8.9815   22.2650  -30.7478 H   0  0  0  0  0  0  0  0  0  0  0  0
   -8.1381   20.6790  -30.7478 H   0  0  0  0  0  0  0  0  0  0  0  0
   -7.8600   21.5265  -33.2395 H   0  0  0  0  0  0  0  0  0  0  0  0
   -6.0892   21.9981  -33.3292 H   0  0  0  0  0  0  0  0  0  0  0  0
   -6.3333   19.8555  -31.4594 H   0  0  0  0  0  0  0  0  0  0  0  0
   -7.2328   19.4047  -32.9711 H   0  0  0  0  0  0  0  0  0  0  0  0
   -5.0007   18.6382  -33.2886 H   0  0  0  0  0  0  0  0  0  0  0  0
   -5.1713   20.1663  -34.2548 H   0  0  0  0  0  0  0  0  0  0  0  0
   -2.5967   18.6891  -33.0371 H   0  0  0  0  0  0  0  0  0  0  0  0
   -0.6431   19.6515  -31.7773 H   0  0  0  0  0  0  0  0  0  0  0  0
    0.1440   21.8582  -30.1418 H   0  0  0  0  0  0  0  0  0  0  0  0
   -2.3920   25.9720  -28.9710 H   0  0  0  0  0  0  0  0  0  0  0  0
   -5.0427   22.0965  -31.8462 H   0  0  0  0  0  0  0  0  0  0  0  0
  1  2  1  0
  2  3  1  0
  2  4  1  0
  4  5  1  0
  5  6  1  0
  6  7  1  0
  7  8  2  0
  8  9  1  0
  9 10  2  0
 10 11  1  0
 11 12  2  0
 12 13  1  0
 13 14  1  0
 13 15  2  0
 12 16  1  0
 16 17  1  0
 17 18  2  0
 17 19  1  0
 16 20  1  0
 20 21  2  0
 21  7  1  0
 20 10  1  0
  1 22  1  0
  1 23  1  0
  1 24  1  0
  2 25  1  0
  3 26  1  0
  3 27  1  0
  3 28  1  0
  4 29  1  0
  4 30  1  0
  5 31  1  0
  5 32  1  0
  6 33  1  0
  6 34  1  0
  8 35  1  0
  9 36  1  0
 11 37  1  0
 14 38  1  0
 21 39  1  0
M  CHG  3   2   1  14  -1  19  -1
M  END
>  <UniqueID>  (54) 
50

>  <SMILES>  (54) 
C[NH+](C)CCCc1ccc2cc(C([NH-])=O)n(C(=O)[O-])c2c1

>  <Energy>  (54) 
77.62674072235728

>  <Genealogy>  (54) 
C[NH+](C)CCCc1ccc2cc(C([NH-])=O)n(C(=O)[O-])c2c1 (protonated)
C[NH+](C)CCCc1ccc2cc(C([NH-])=O)n(C(=O)[O-])c2c1 (3D coordinates assigned)
C[NH+](C)CCCc1ccc2cc(C([NH-])=O)n(C(=O)[O-])c2c1 (optimized conformer: 77.62674072235728 kcal/mol)

>  <smiles>  (54) 
CN(C)CCCc1ccc2cc(C(N)=O)n(C(=O)O)c2c1

>  <score_type>  (54) 
oracle

>  <origin>  (54) 
adg

>  <m_score__min__energy>  (54) 
-10.640000000000001

>  <m_primary>  (54) 
energy

$$$$
55:0
     RDKit          3D

 46 48  0  0  0  0  0  0  0  0999 V2000
   -7.3880   22.6720  -29.8290 C   0  0  0  0  0  0  0  0  0  0  0  0
   -6.3540   23.6710  -30.3830 C   0  0  0  0  0  0  0  0  0  0  0  0
   -6.2820   23.5870  -31.9180 C   0  0  0  0  0  0  0  0  0  0  0  0
   -6.7740   25.0930  -29.9820 C   0  0  0  0  0  0  0  0  0  0  0  0
   -5.0650   23.4330  -29.8010 O   0  0  0  0  0  0  0  0  0  0  0  0
   -3.8420   23.9630  -30.2400 C   0  0  0  0  0  0  0  0  0  0  0  0
   -3.7450   25.1740  -30.5790 O   0  0  0  0  0  0  0  0  0  0  0  0
   -2.6950   23.1040  -30.3320 N   0  0  0  0  0  0  0  0  0  0  0  0
   -1.4240   23.3520  -29.9080 C   0  0  0  0  0  0  0  0  0  0  0  0
   -0.9870   24.5110  -29.1030 C   0  0  0  0  0  0  0  0  0  0  0  0
   -1.8110   25.6670  -28.9720 N   0  0  0  0  0  0  0  0  0  0  0  0
    0.1100   24.4620  -28.4830 O   0  0  0  0  0  0  0  0  0  0  0  0
   -0.5770   22.3070  -30.2700 C   0  0  0  0  0  0  0  0  0  0  0  0
   -1.3780   21.3990  -30.9250 C   0  0  0  0  0  0  0  0  0  0  0  0
   -1.0550   20.1780  -31.5080 C   0  0  0  0  0  0  0  0  0  0  0  0
   -2.0820   19.4590  -32.1450 C   0  0  0  0  0  0  0  0  0  0  0  0
   -3.4050   19.9730  -32.1970 C   0  0  0  0  0  0  0  0  0  0  0  0
   -4.4810   19.2110  -32.8820 C   0  0  0  0  0  0  0  0  0  0  0  0
   -4.1740   18.3380  -33.9400 C   0  0  0  0  0  0  0  0  0  0  0  0
   -5.1840   17.6170  -34.5770 C   0  0  0  0  0  0  0  0  0  0  0  0
   -6.5120   17.7560  -34.1700 C   0  0  0  0  0  0  0  0  0  0  0  0
   -6.8450   18.6220  -33.1160 C   0  0  0  0  0  0  0  0  0  0  0  0
   -8.2540   18.7680  -32.6880 C   0  0  0  0  0  0  0  0  0  0  0  0
   -8.7980   17.8930  -31.9630 O   0  0  0  0  0  0  0  0  0  0  0  0
   -8.9990   19.8740  -33.0830 O   0  0  0  0  0  0  0  0  0  0  0  0
   -5.8220   19.3480  -32.4770 C   0  0  0  0  0  0  0  0  0  0  0  0
   -3.6890   21.2200  -31.5920 C   0  0  0  0  0  0  0  0  0  0  0  0
   -2.6510   21.9040  -30.9490 C   0  0  0  0  0  0  0  0  0  0  0  0
   -7.3659   22.6934  -28.7294 H   0  0  0  0  0  0  0  0  0  0  0  0
   -8.3922   22.9506  -30.1810 H   0  0  0  0  0  0  0  0  0  0  0  0
   -7.1441   21.6588  -30.1810 H   0  0  0  0  0  0  0  0  0  0  0  0
   -5.5917   22.7816  -32.2092 H   0  0  0  0  0  0  0  0  0  0  0  0
   -7.2834   23.3752  -32.3210 H   0  0  0  0  0  0  0  0  0  0  0  0
   -5.9195   24.5442  -32.3210 H   0  0  0  0  0  0  0  0  0  0  0  0
   -6.7976   25.1728  -28.8852 H   0  0  0  0  0  0  0  0  0  0  0  0
   -6.0512   25.8167  -30.3868 H   0  0  0  0  0  0  0  0  0  0  0  0
   -7.7740   25.3079  -30.3868 H   0  0  0  0  0  0  0  0  0  0  0  0
   -2.7950   25.6670  -29.3210 H   0  0  0  0  0  0  0  0  0  0  0  0
    0.5023   22.2248  -30.0741 H   0  0  0  0  0  0  0  0  0  0  0  0
   -0.0275   19.7868  -31.4718 H   0  0  0  0  0  0  0  0  0  0  0  0
   -1.8580   18.4869  -32.6085 H   0  0  0  0  0  0  0  0  0  0  0  0
   -3.1303   18.2226  -34.2678 H   0  0  0  0  0  0  0  0  0  0  0  0
   -4.9329   16.9360  -35.4036 H   0  0  0  0  0  0  0  0  0  0  0  0
   -7.3023   17.1838  -34.6779 H   0  0  0  0  0  0  0  0  0  0  0  0
   -6.0736   20.0302  -31.6516 H   0  0  0  0  0  0  0  0  0  0  0  0
   -4.7039   21.6429  -31.6263 H   0  0  0  0  0  0  0  0  0  0  0  0
  1  2  1  0
  2  3  1  0
  2  4  1  0
  2  5  1  0
  5  6  1  0
  6  7  2  0
  6  8  1  0
  8  9  1  0
  9 10  1  0
 10 11  1  0
 10 12  2  0
  9 13  2  0
 13 14  1  0
 14 15  2  0
 15 16  1  0
 16 17  2  0
 17 18  1  0
 18 19  2  0
 19 20  1  0
 20 21  2  0
 21 22  1  0
 22 23  1  0
 23 24  2  0
 23 25  1  0
 22 26  2  0
 17 27  1  0
 27 28  2  0
 28  8  1  0
 28 14  1  0
 26 18  1  0
  1 29  1  0
  1 30  1  0
  1 31  1  0
  3 32  1  0
  3 33  1  0
  3 34  1  0
  4 35  1  0
  4 36  1  0
  4 37  1  0
 11 38  1  0
 13 39  1  0
 15 40  1  0
 16 41  1  0
 19 42  1  0
 20 43  1  0
 21 44  1  0
 26 45  1  0
 27 46  1  0
M  CHG  2  11  -1  25  -1
M  END
>  <UniqueID>  (55) 
51

>  <SMILES>  (55) 
CC(C)(C)OC(=O)n1c(C([NH-])=O)cc2ccc(-c3cccc(C(=O)[O-])c3)cc21

>  <Energy>  (55) 
88.2309123220688

>  <Genealogy>  (55) 
CC(C)(C)OC(=O)n1c(C([NH-])=O)cc2ccc(-c3cccc(C(=O)[O-])c3)cc21 (protonated)
CC(C)(C)OC(=O)n1c(C([NH-])=O)cc2ccc(-c3cccc(C(=O)[O-])c3)cc21 (3D coordinates assigned)
CC(C)(C)OC(=O)n1c(C([NH-])=O)cc2ccc(-c3cccc(C(=O)[O-])c3)cc21 (optimized conformer: 88.2309123220688 kcal/mol)

>  <smiles>  (55) 
CC(C)(C)OC(=O)n1c(C(N)=O)cc2ccc(-c3cccc(C(=O)O)c3)cc21

>  <score_type>  (55) 
oracle

>  <origin>  (55) 
adg

>  <m_score__min__energy>  (55) 
-11.619999999999999

>  <m_primary>  (55) 
energy

$$$$
56:0
     RDKit          3D

 81 86  0  0  0  0  0  0  0  0999 V2000
   -1.0910   21.4470  -26.5240 C   0  0  0  0  0  0  0  0  0  0  0  0
   -1.3540   20.4940  -27.7050 C   0  0  0  0  0  0  0  0  0  0  0  0
   -0.8720   19.0710  -27.3710 C   0  0  0  0  0  0  0  0  0  0  0  0
   -2.8640   20.4570  -27.9750 C   0  0  0  0  0  0  0  0  0  0  0  0
   -0.7150   20.9740  -28.9000 O   0  0  0  0  0  0  0  0  0  0  0  0
   -0.8300   22.2620  -29.4430 C   0  0  0  0  0  0  0  0  0  0  0  0
    0.1800   23.0070  -29.4810 O   0  0  0  0  0  0  0  0  0  0  0  0
   -2.0890   22.7160  -30.0010 N   0  0  0  0  0  0  0  0  0  0  0  0
   -2.7550   23.8770  -29.7120 C   0  0  0  0  0  0  0  0  0  0  0  0
   -2.4660   24.8030  -28.6040 C   0  0  0  0  0  0  0  0  0  0  0  0
   -1.6140   25.9310  -28.8030 N   0  0  0  0  0  0  0  0  0  0  0  0
   -2.9030   24.5490  -27.4510 O   0  0  0  0  0  0  0  0  0  0  0  0
   -3.8280   24.0680  -30.5720 C   0  0  0  0  0  0  0  0  0  0  0  0
   -3.8360   22.9720  -31.3890 C   0  0  0  0  0  0  0  0  0  0  0  0
   -4.7210   22.6410  -32.4070 C   0  0  0  0  0  0  0  0  0  0  0  0
   -4.5190   21.4340  -33.0850 C   0  0  0  0  0  0  0  0  0  0  0  0
   -3.4420   20.5820  -32.7380 C   0  0  0  0  0  0  0  0  0  0  0  0
   -3.2540   19.2710  -33.4610 C   0  0  0  0  0  0  0  0  0  0  0  0
   -4.2990   18.1980  -33.0640 C   0  0  1  0  0  0  0  0  0  0  0  0
   -5.5840   18.2390  -33.9230 C   0  0  0  0  0  0  0  0  0  0  0  0
   -6.8000   18.7280  -33.1680 C   0  0  0  0  0  0  0  0  0  0  0  0
   -7.4940   17.8580  -32.3110 C   0  0  0  0  0  0  0  0  0  0  0  0
   -8.6730   18.2720  -31.6900 C   0  0  0  0  0  0  0  0  0  0  0  0
   -9.1570   19.5630  -31.9010 C   0  0  0  0  0  0  0  0  0  0  0  0
   -8.4460   20.4560  -32.7110 C   0  0  0  0  0  0  0  0  0  0  0  0
   -7.2660   20.0450  -33.3310 C   0  0  0  0  0  0  0  0  0  0  0  0
   -3.7540   16.8310  -33.1050 N   0  0  0  0  0  0  0  0  0  0  0  0
   -2.6580   16.2990  -33.8620 C   0  0  0  0  0  0  0  0  0  0  0  0
   -2.3730   15.0780  -33.7330 O   0  0  0  0  0  0  0  0  0  0  0  0
   -1.9180   17.1010  -34.7350 O   0  0  0  0  0  0  0  0  0  0  0  0
   -0.6190   16.7290  -35.1980 C   0  0  0  0  0  0  0  0  0  0  0  0
    0.4670   17.5790  -34.5240 C   0  0  0  0  0  0  0  0  0  0  0  0
    0.3450   17.5970  -33.0190 C   0  0  0  0  0  0  0  0  0  0  0  0
    0.4710   16.5260  -32.1310 C   0  0  0  0  0  0  0  0  0  0  0  0
    0.3800   16.7810  -30.7520 C   0  0  0  0  0  0  0  0  0  0  0  0
    0.1790   18.0920  -30.2810 C   0  0  0  0  0  0  0  0  0  0  0  0
    0.0530   19.1590  -31.1850 C   0  0  0  0  0  0  0  0  0  0  0  0
    0.1420   18.8820  -32.5480 C   0  0  0  0  0  0  0  0  0  0  0  0
    0.1050   19.7840  -33.6770 C   0  0  0  0  0  0  0  0  0  0  0  0
   -0.0540   21.1720  -33.7120 C   0  0  0  0  0  0  0  0  0  0  0  0
   -0.0070   21.8130  -34.9580 C   0  0  0  0  0  0  0  0  0  0  0  0
    0.2080   21.0690  -36.1320 C   0  0  0  0  0  0  0  0  0  0  0  0
    0.3680   19.6730  -36.0710 C   0  0  0  0  0  0  0  0  0  0  0  0
    0.2990   19.0440  -34.8270 C   0  0  0  0  0  0  0  0  0  0  0  0
   -2.5710   20.9450  -31.6860 C   0  0  0  0  0  0  0  0  0  0  0  0
   -2.7840   22.1640  -31.0270 C   0  0  0  0  0  0  0  0  0  0  0  0
   -1.2399   20.9073  -25.5771 H   0  0  0  0  0  0  0  0  0  0  0  0
   -0.0568   21.8182  -26.5757 H   0  0  0  0  0  0  0  0  0  0  0  0
   -1.7884   22.2961  -26.5757 H   0  0  0  0  0  0  0  0  0  0  0  0
   -0.8294   18.9452  -26.2791 H   0  0  0  0  0  0  0  0  0  0  0  0
   -1.5717   18.3373  -27.7976 H   0  0  0  0  0  0  0  0  0  0  0  0
    0.1296   18.9135  -27.7976 H   0  0  0  0  0  0  0  0  0  0  0  0
   -3.4073   20.4437  -27.0186 H   0  0  0  0  0  0  0  0  0  0  0  0
   -3.1556   21.3483  -28.5500 H   0  0  0  0  0  0  0  0  0  0  0  0
   -3.1116   19.5525  -28.5500 H   0  0  0  0  0  0  0  0  0  0  0  0
   -1.2010   26.1360  -29.7400 H   0  0  0  0  0  0  0  0  0  0  0  0
   -4.5236   24.9199  -30.5918 H   0  0  0  0  0  0  0  0  0  0  0  0
   -5.5551   23.3074  -32.6720 H   0  0  0  0  0  0  0  0  0  0  0  0
   -5.2035   21.1437  -33.8957 H   0  0  0  0  0  0  0  0  0  0  0  0
   -3.3347   19.4539  -34.5427 H   0  0  0  0  0  0  0  0  0  0  0  0
   -2.2642   18.8823  -33.1796 H   0  0  0  0  0  0  0  0  0  0  0  0
   -4.5625   18.4566  -32.0278 H   0  0  0  0  0  0  0  0  0  0  0  0
   -5.4108   18.9110  -34.7765 H   0  0  0  0  0  0  0  0  0  0  0  0
   -5.7939   17.2068  -34.2401 H   0  0  0  0  0  0  0  0  0  0  0  0
   -7.1060   16.8450  -32.1285 H   0  0  0  0  0  0  0  0  0  0  0  0
   -9.2210   17.5799  -31.0337 H   0  0  0  0  0  0  0  0  0  0  0  0
  -10.0992   19.8799  -31.4300 H   0  0  0  0  0  0  0  0  0  0  0  0
   -8.8174   21.4809  -32.8585 H   0  0  0  0  0  0  0  0  0  0  0  0
   -6.6973   20.7542  -33.9503 H   0  0  0  0  0  0  0  0  0  0  0  0
   -0.4433   15.6686  -34.9640 H   0  0  0  0  0  0  0  0  0  0  0  0
   -0.5720   16.8957  -36.2843 H   0  0  0  0  0  0  0  0  0  0  0  0
    1.4012   17.1312  -34.8939 H   0  0  0  0  0  0  0  0  0  0  0  0
    0.6379   15.5045  -32.5033 H   0  0  0  0  0  0  0  0  0  0  0  0
    0.4664   15.9505  -30.0359 H   0  0  0  0  0  0  0  0  0  0  0  0
    0.1203   18.2817  -29.1991 H   0  0  0  0  0  0  0  0  0  0  0  0
   -0.1115   20.1860  -30.8270 H   0  0  0  0  0  0  0  0  0  0  0  0
   -0.2118   21.7460  -32.7870 H   0  0  0  0  0  0  0  0  0  0  0  0
   -0.1390   22.9034  -35.0177 H   0  0  0  0  0  0  0  0  0  0  0  0
    0.2513   21.5821  -37.1040 H   0  0  0  0  0  0  0  0  0  0  0  0
    0.5441   19.0883  -36.9859 H   0  0  0  0  0  0  0  0  0  0  0  0
   -1.7426   20.2845  -31.3902 H   0  0  0  0  0  0  0  0  0  0  0  0
  1  2  1  0
  2  3  1  0
  2  4  1  0
  2  5  1  0
  5  6  1  0
  6  7  2  0
  6  8  1  0
  8  9  1  0
  9 10  1  0
 10 11  1  0
 10 12  2  0
  9 13  2  0
 13 14  1  0
 14 15  2  0
 15 16  1  0
 16 17  2  0
 17 18  1  0
 18 19  1  0
 19 20  1  0
 20 21  1  0
 21 22  2  0
 22 23  1  0
 23 24  2  0
 24 25  1  0
 25 26  2  0
 19 27  1  0
 27 28  1  0
 28 29  2  0
 28 30  1  0
 30 31  1  0
 31 32  1  0
 32 33  1  0
 33 34  2  0
 34 35  1  0
 35 36  2  0
 36 37  1  0
 37 38  2  0
 38 39  1  0
 39 40  2  0
 40 41  1  0
 41 42  2  0
 42 43  1  0
 43 44  2  0
 17 45  1  0
 45 46  2  0
 46  8  1  0
 46 14  1  0
 26 21  1  0
 44 32  1  0
 38 33  1  0
 44 39  1  0
  1 47  1  0
  1 48  1  0
  1 49  1  0
  3 50  1  0
  3 51  1  0
  3 52  1  0
  4 53  1  0
  4 54  1  0
  4 55  1  0
 11 56  1  0
 13 57  1  0
 15 58  1  0
 16 59  1  0
 18 60  1  0
 18 61  1  0
 19 62  1  1
 20 63  1  0
 20 64  1  0
 22 65  1  0
 23 66  1  0
 24 67  1  0
 25 68  1  0
 26 69  1  0
 31 70  1  0
 31 71  1  0
 32 72  1  0
 34 73  1  0
 35 74  1  0
 36 75  1  0
 37 76  1  0
 40 77  1  0
 41 78  1  0
 42 79  1  0
 43 80  1  0
 45 81  1  0
M  CHG  2  11  -1  27  -1
M  END
>  <UniqueID>  (56) 
52

>  <SMILES>  (56) 
CC(C)(C)OC(=O)n1c(C([NH-])=O)cc2ccc(C[C@@H](Cc3ccccc3)[N-]C(=O)OCC3c4ccccc4-c4ccccc43)cc21

>  <Energy>  (56) 
137.50451931487675

>  <Genealogy>  (56) 
CC(C)(C)OC(=O)n1c(C([NH-])=O)cc2ccc(C[C@@H](Cc3ccccc3)[N-]C(=O)OCC3c4ccccc4-c4ccccc43)cc21 (protonated)
CC(C)(C)OC(=O)n1c(C([NH-])=O)cc2ccc(C[C@@H](Cc3ccccc3)[N-]C(=O)OCC3c4ccccc4-c4ccccc43)cc21 (3D coordinates assigned)
CC(C)(C)OC(=O)n1c(C([NH-])=O)cc2ccc(C[C@@H](Cc3ccccc3)[N-]C(=O)OCC3c4ccccc4-c4ccccc43)cc21 (nonaromatic ring conformer: 137.50451931487675 kcal/mol)

>  <smiles>  (56) 
CC(C)(C)OC(=O)n1c(C(N)=O)cc2ccc(C[C@@H](Cc3ccccc3)NC(=O)OCC3c4ccccc4-c4ccccc43)cc21

>  <score_type>  (56) 
oracle

>  <origin>  (56) 
adg

>  <m_score__min__energy>  (56) 
-12.92

>  <m_primary>  (56) 
energy

$$$$
57:0
     RDKit          3D

 65 68  0  0  0  0  0  0  0  0999 V2000
   -3.5740   13.2700  -38.2680 C   0  0  0  0  0  0  0  0  0  0  0  0
   -4.1580   12.5580  -37.0430 C   0  0  0  0  0  0  0  0  0  0  0  0
   -3.3890   12.7920  -35.7040 C   0  0  0  0  0  0  0  0  0  0  0  0
   -3.7520   11.7020  -34.6530 C   0  0  0  0  0  0  0  0  0  0  0  0
   -1.8590   12.6410  -35.9670 C   0  0  0  0  0  0  0  0  0  0  0  0
   -3.7510   14.1630  -35.1820 N   0  0  0  0  0  0  0  0  0  0  0  0
   -2.8740   15.2220  -35.2910 C   0  0  0  0  0  0  0  0  0  0  0  0
   -3.1870   16.4590  -34.8280 N   0  0  0  0  0  0  0  0  0  0  0  0
   -4.3900   16.7200  -34.2610 C   0  0  0  0  0  0  0  0  0  0  0  0
   -4.6910   18.0070  -33.7900 C   0  0  0  0  0  0  0  0  0  0  0  0
   -5.9480   18.2870  -33.2260 C   0  0  0  0  0  0  0  0  0  0  0  0
   -6.2710   19.6520  -32.7440 C   0  0  0  0  0  0  0  0  0  0  0  0
   -7.6170   20.0990  -32.6960 C   0  0  0  0  0  0  0  0  0  0  0  0
   -7.9300   21.3920  -32.2450 C   0  0  0  0  0  0  0  0  0  0  0  0
   -6.8830   22.2130  -31.8380 C   0  0  0  0  0  0  0  0  0  0  0  0
   -6.9030   23.5070  -31.3700 C   0  0  0  0  0  0  0  0  0  0  0  0
   -5.5720   23.8270  -31.1110 C   0  0  0  0  0  0  0  0  0  0  0  0
   -5.1490   25.1060  -30.5020 C   0  0  0  0  0  0  0  0  0  0  0  0
   -3.8870   25.6710  -30.8440 N   0  0  0  0  0  0  0  0  0  0  0  0
   -5.9080   25.7260  -29.7110 O   0  0  0  0  0  0  0  0  0  0  0  0
   -4.7600   22.7750  -31.4170 N   0  0  0  0  0  0  0  0  0  0  0  0
   -3.3270   22.7080  -31.3330 C   0  0  0  0  0  0  0  0  0  0  0  0
   -2.6690   22.1850  -32.2730 O   0  0  0  0  0  0  0  0  0  0  0  0
   -2.6810   23.2070  -30.1920 O   0  0  0  0  0  0  0  0  0  0  0  0
   -2.7120   22.6360  -28.8770 C   0  0  0  0  0  0  0  0  0  0  0  0
   -1.3830   22.8920  -28.1410 C   0  0  0  0  0  0  0  0  0  0  0  0
   -3.8990   23.1970  -28.0710 C   0  0  0  0  0  0  0  0  0  0  0  0
   -2.9000   21.1210  -29.0480 C   0  0  0  0  0  0  0  0  0  0  0  0
   -5.5780   21.7950  -31.8580 C   0  0  0  0  0  0  0  0  0  0  0  0
   -5.2350   20.5200  -32.3240 C   0  0  0  0  0  0  0  0  0  0  0  0
   -6.8980   17.2570  -33.1370 C   0  0  0  0  0  0  0  0  0  0  0  0
   -6.6010   15.9740  -33.6020 C   0  0  0  0  0  0  0  0  0  0  0  0
   -5.3420   15.6950  -34.1680 C   0  0  0  0  0  0  0  0  0  0  0  0
   -5.0070   14.4190  -34.6540 C   0  0  0  0  0  0  0  0  0  0  0  0
   -5.8840   13.5120  -34.6120 O   0  0  0  0  0  0  0  0  0  0  0  0
   -2.9085   14.0813  -37.9379 H   0  0  0  0  0  0  0  0  0  0  0  0
   -3.0027   12.5503  -38.8727 H   0  0  0  0  0  0  0  0  0  0  0  0
   -4.3916   13.6895  -38.8727 H   0  0  0  0  0  0  0  0  0  0  0  0
   -5.1916   12.9090  -36.9069 H   0  0  0  0  0  0  0  0  0  0  0  0
   -4.0817   11.4809  -37.2528 H   0  0  0  0  0  0  0  0  0  0  0  0
   -3.6163   12.1095  -33.6403 H   0  0  0  0  0  0  0  0  0  0  0  0
   -4.8002   11.3970  -34.7881 H   0  0  0  0  0  0  0  0  0  0  0  0
   -3.0959   10.8295  -34.7881 H   0  0  0  0  0  0  0  0  0  0  0  0
   -1.3253   12.5883  -35.0066 H   0  0  0  0  0  0  0  0  0  0  0  0
   -1.6746   11.7203  -36.5399 H   0  0  0  0  0  0  0  0  0  0  0  0
   -1.4981   13.5079  -36.5399 H   0  0  0  0  0  0  0  0  0  0  0  0
   -1.8950   15.0598  -35.7657 H   0  0  0  0  0  0  0  0  0  0  0  0
   -2.4770   17.2210  -34.9240 H   0  0  0  0  0  0  0  0  0  0  0  0
   -3.9365   18.8042  -33.8627 H   0  0  0  0  0  0  0  0  0  0  0  0
   -8.4251   19.4247  -33.0159 H   0  0  0  0  0  0  0  0  0  0  0  0
   -8.9714   21.7448  -32.2145 H   0  0  0  0  0  0  0  0  0  0  0  0
   -7.7831   24.1518  -31.2301 H   0  0  0  0  0  0  0  0  0  0  0  0
   -3.0010   25.2910  -30.4400 H   0  0  0  0  0  0  0  0  0  0  0  0
   -1.5532   22.8592  -27.0547 H   0  0  0  0  0  0  0  0  0  0  0  0
   -0.6536   22.1179  -28.4214 H   0  0  0  0  0  0  0  0  0  0  0  0
   -0.9933   23.8817  -28.4214 H   0  0  0  0  0  0  0  0  0  0  0  0
   -3.6909   23.0987  -26.9953 H   0  0  0  0  0  0  0  0  0  0  0  0
   -4.0430   24.2585  -28.3211 H   0  0  0  0  0  0  0  0  0  0  0  0
   -4.8106   22.6344  -28.3211 H   0  0  0  0  0  0  0  0  0  0  0  0
   -2.9591   20.6448  -28.0582 H   0  0  0  0  0  0  0  0  0  0  0  0
   -3.8291   20.9273  -29.6041 H   0  0  0  0  0  0  0  0  0  0  0  0
   -2.0465   20.7061  -29.6041 H   0  0  0  0  0  0  0  0  0  0  0  0
   -4.1833   20.1999  -32.3628 H   0  0  0  0  0  0  0  0  0  0  0  0
   -7.8851   17.4624  -32.6971 H   0  0  0  0  0  0  0  0  0  0  0  0
   -7.3549   15.1767  -33.5257 H   0  0  0  0  0  0  0  0  0  0  0  0
  1  2  1  0
  2  3  1  0
  3  4  1  0
  3  5  1  0
  3  6  1  0
  6  7  1  0
  7  8  2  0
  8  9  1  0
  9 10  2  0
 10 11  1  0
 11 12  1  0
 12 13  2  0
 13 14  1  0
 14 15  2  0
 15 16  1  0
 16 17  2  0
 17 18  1  0
 18 19  1  0
 18 20  2  0
 17 21  1  0
 21 22  1  0
 22 23  2  0
 22 24  1  0
 24 25  1  0
 25 26  1  0
 25 27  1  0
 25 28  1  0
 21 29  1  0
 29 30  2  0
 11 31  2  0
 31 32  1  0
 32 33  2  0
 33 34  1  0
 34 35  2  0
 34  6  1  0
 33  9  1  0
 30 12  1  0
 29 15  1  0
  1 36  1  0
  1 37  1  0
  1 38  1  0
  2 39  1  0
  2 40  1  0
  4 41  1  0
  4 42  1  0
  4 43  1  0
  5 44  1  0
  5 45  1  0
  5 46  1  0
  7 47  1  0
  8 48  1  0
 10 49  1  0
 13 50  1  0
 14 51  1  0
 16 52  1  0
 19 53  1  0
 26 54  1  0
 26 55  1  0
 26 56  1  0
 27 57  1  0
 27 58  1  0
 27 59  1  0
 28 60  1  0
 28 61  1  0
 28 62  1  0
 30 63  1  0
 31 64  1  0
 32 65  1  0
M  CHG  2   8   1  19  -1
M  END
>  <UniqueID>  (57) 
53

>  <SMILES>  (57) 
CCC(C)(C)n1c[nH+]c2cc(-c3ccc4cc(C([NH-])=O)n(C(=O)OC(C)(C)C)c4c3)ccc2c1=O

>  <Energy>  (57) 
122.9730538086976

>  <Genealogy>  (57) 
CCC(C)(C)n1c[nH+]c2cc(-c3ccc4cc(C([NH-])=O)n(C(=O)OC(C)(C)C)c4c3)ccc2c1=O (protonated)
CCC(C)(C)n1c[nH+]c2cc(-c3ccc4cc(C([NH-])=O)n(C(=O)OC(C)(C)C)c4c3)ccc2c1=O (3D coordinates assigned)
CCC(C)(C)n1c[nH+]c2cc(-c3ccc4cc(C([NH-])=O)n(C(=O)OC(C)(C)C)c4c3)ccc2c1=O (optimized conformer: 122.9730538086976 kcal/mol)

>  <smiles>  (57) 
CCC(C)(C)n1cnc2cc(-c3ccc4cc(C(N)=O)n(C(=O)OC(C)(C)C)c4c3)ccc2c1=O

>  <score_type>  (57) 
oracle

>  <origin>  (57) 
adg

>  <m_score__min__energy>  (57) 
-11.16

>  <m_primary>  (57) 
energy

$$$$
58:0
     RDKit          3D

 48 50  0  0  0  0  0  0  0  0999 V2000
   -6.1510   17.1810  -30.6880 C   0  0  0  0  0  0  0  0  0  0  0  0
   -5.9620   17.0410  -32.1760 C   0  0  0  0  0  0  0  0  0  0  0  0
   -5.5790   15.7920  -32.6960 C   0  0  0  0  0  0  0  0  0  0  0  0
   -5.4060   15.6170  -34.0690 C   0  0  0  0  0  0  0  0  0  0  0  0
   -5.6020   16.6870  -34.9410 C   0  0  0  0  0  0  0  0  0  0  0  0
   -5.9630   17.9410  -34.4440 C   0  0  0  0  0  0  0  0  0  0  0  0
   -6.1190   18.9730  -35.3120 F   0  0  0  0  0  0  0  0  0  0  0  0
   -6.1350   18.1370  -33.0600 C   0  0  0  0  0  0  0  0  0  0  0  0
   -6.4880   19.4870  -32.5650 C   0  0  0  0  0  0  0  0  0  0  0  0
   -7.8480   19.8520  -32.4090 C   0  0  0  0  0  0  0  0  0  0  0  0
   -8.1960   21.1260  -31.9310 C   0  0  0  0  0  0  0  0  0  0  0  0
   -7.1670   22.0130  -31.6290 C   0  0  0  0  0  0  0  0  0  0  0  0
   -7.2210   23.2900  -31.1160 C   0  0  0  0  0  0  0  0  0  0  0  0
   -5.8940   23.6950  -30.9990 C   0  0  0  0  0  0  0  0  0  0  0  0
   -5.4900   25.0380  -30.5350 C   0  0  0  0  0  0  0  0  0  0  0  0
   -4.1480   25.5010  -30.6880 N   0  0  0  0  0  0  0  0  0  0  0  0
   -6.3580   25.8090  -30.0450 O   0  0  0  0  0  0  0  0  0  0  0  0
   -5.0500   22.7070  -31.4100 N   0  0  0  0  0  0  0  0  0  0  0  0
   -3.6170   22.6860  -31.3250 C   0  0  0  0  0  0  0  0  0  0  0  0
   -3.0490   23.0590  -30.2640 O   0  0  0  0  0  0  0  0  0  0  0  0
   -2.8680   22.2400  -32.4240 O   0  0  0  0  0  0  0  0  0  0  0  0
   -2.1540   21.0000  -32.5220 C   0  0  0  0  0  0  0  0  0  0  0  0
   -2.4240   20.2200  -31.2270 C   0  0  0  0  0  0  0  0  0  0  0  0
   -2.6620   20.1740  -33.7180 C   0  0  0  0  0  0  0  0  0  0  0  0
   -0.6390   21.2560  -32.6400 C   0  0  0  0  0  0  0  0  0  0  0  0
   -5.8460   21.6840  -31.7960 C   0  0  0  0  0  0  0  0  0  0  0  0
   -5.4700   20.4160  -32.2560 C   0  0  0  0  0  0  0  0  0  0  0  0
   -5.3739   16.6053  -30.1639 H   0  0  0  0  0  0  0  0  0  0  0  0
   -6.0740   18.2417  -30.4068 H   0  0  0  0  0  0  0  0  0  0  0  0
   -7.1432   16.7982  -30.4068 H   0  0  0  0  0  0  0  0  0  0  0  0
   -5.4143   14.9450  -32.0137 H   0  0  0  0  0  0  0  0  0  0  0  0
   -5.1144   14.6329  -34.4645 H   0  0  0  0  0  0  0  0  0  0  0  0
   -5.4719   16.5430  -36.0237 H   0  0  0  0  0  0  0  0  0  0  0  0
   -8.6386   19.1311  -32.6646 H   0  0  0  0  0  0  0  0  0  0  0  0
   -9.2495   21.4138  -31.7994 H   0  0  0  0  0  0  0  0  0  0  0  0
   -8.1204   23.8668  -30.8545 H   0  0  0  0  0  0  0  0  0  0  0  0
   -3.4490   24.9590  -31.2420 H   0  0  0  0  0  0  0  0  0  0  0  0
   -3.8730   26.4380  -30.3160 H   0  0  0  0  0  0  0  0  0  0  0  0
   -2.2024   20.8602  -30.3604 H   0  0  0  0  0  0  0  0  0  0  0  0
   -3.4802   19.9143  -31.1965 H   0  0  0  0  0  0  0  0  0  0  0  0
   -1.7828   19.3268  -31.1965 H   0  0  0  0  0  0  0  0  0  0  0  0
   -3.2050   19.2911  -33.3497 H   0  0  0  0  0  0  0  0  0  0  0  0
   -3.3370   20.7909  -34.3294 H   0  0  0  0  0  0  0  0  0  0  0  0
   -1.8069   19.8499  -34.3294 H   0  0  0  0  0  0  0  0  0  0  0  0
   -0.2002   21.3301  -31.6340 H   0  0  0  0  0  0  0  0  0  0  0  0
   -0.1680   20.4247  -33.1851 H   0  0  0  0  0  0  0  0  0  0  0  0
   -0.4673   22.1959  -33.1851 H   0  0  0  0  0  0  0  0  0  0  0  0
   -4.4091   20.1503  -32.3737 H   0  0  0  0  0  0  0  0  0  0  0  0
  1  2  1  0
  2  3  2  0
  3  4  1  0
  4  5  2  0
  5  6  1  0
  6  7  1  0
  6  8  2  0
  8  9  1  0
  9 10  2  0
 10 11  1  0
 11 12  2  0
 12 13  1  0
 13 14  2  0
 14 15  1  0
 15 16  1  0
 15 17  2  0
 14 18  1  0
 18 19  1  0
 19 20  2  0
 19 21  1  0
 21 22  1  0
 22 23  1  0
 22 24  1  0
 22 25  1  0
 18 26  1  0
 26 27  2  0
  8  2  1  0
 27  9  1  0
 26 12  1  0
  1 28  1  0
  1 29  1  0
  1 30  1  0
  3 31  1  0
  4 32  1  0
  5 33  1  0
 10 34  1  0
 11 35  1  0
 13 36  1  0
 16 37  1  0
 16 38  1  0
 23 39  1  0
 23 40  1  0
 23 41  1  0
 24 42  1  0
 24 43  1  0
 24 44  1  0
 25 45  1  0
 25 46  1  0
 25 47  1  0
 27 48  1  0
M  END
>  <UniqueID>  (58) 
54

>  <SMILES>  (58) 
Cc1cccc(F)c1-c1ccc2cc(C(N)=O)n(C(=O)OC(C)(C)C)c2c1

>  <Energy>  (58) 
91.64430672497474

>  <Genealogy>  (58) 
Cc1cccc(F)c1-c1ccc2cc(C(N)=O)n(C(=O)OC(C)(C)C)c2c1 (3D coordinates assigned)
Cc1cccc(F)c1-c1ccc2cc(C(N)=O)n(C(=O)OC(C)(C)C)c2c1 (optimized conformer: 91.64430672497474 kcal/mol)

>  <smiles>  (58) 
Cc1cccc(F)c1-c1ccc2cc(C(N)=O)n(C(=O)OC(C)(C)C)c2c1

>  <score_type>  (58) 
oracle

>  <origin>  (58) 
adg

>  <m_score__min__energy>  (58) 
-10.08

>  <m_primary>  (58) 
energy

$$$$
59:0
     RDKit          3D

 46 48  0  0  0  0  0  0  0  0999 V2000
   -6.8590   25.1160  -30.1410 C   0  0  0  0  0  0  0  0  0  0  0  0
   -6.1120   23.9830  -30.8720 C   0  0  0  0  0  0  0  0  0  0  0  0
   -6.3580   22.6650  -30.1240 C   0  0  0  0  0  0  0  0  0  0  0  0
   -6.6250   23.8400  -32.3180 C   0  0  0  0  0  0  0  0  0  0  0  0
   -4.6960   24.2210  -30.8590 O   0  0  0  0  0  0  0  0  0  0  0  0
   -3.7980   23.8350  -29.8530 C   0  0  0  0  0  0  0  0  0  0  0  0
   -3.9940   24.1580  -28.6510 O   0  0  0  0  0  0  0  0  0  0  0  0
   -2.6280   23.0790  -30.2020 N   0  0  0  0  0  0  0  0  0  0  0  0
   -1.3430   23.3000  -29.8050 C   0  0  0  0  0  0  0  0  0  0  0  0
   -0.8630   24.4590  -29.0250 C   0  0  0  0  0  0  0  0  0  0  0  0
   -1.6140   25.6720  -29.0230 N   0  0  0  0  0  0  0  0  0  0  0  0
    0.1830   24.3800  -28.3290 O   0  0  0  0  0  0  0  0  0  0  0  0
   -0.4990   22.3150  -30.3160 C   0  0  0  0  0  0  0  0  0  0  0  0
   -1.3120   21.4800  -31.0480 C   0  0  0  0  0  0  0  0  0  0  0  0
   -0.9980   20.3410  -31.7830 C   0  0  0  0  0  0  0  0  0  0  0  0
   -2.0440   19.6720  -32.4410 C   0  0  0  0  0  0  0  0  0  0  0  0
   -3.3780   20.1380  -32.3340 C   0  0  0  0  0  0  0  0  0  0  0  0
   -4.4870   19.4410  -33.0790 C   0  0  0  0  0  0  0  0  0  0  0  0
   -5.6330   20.4030  -33.4190 C   0  0  0  0  0  0  0  0  0  0  0  0
   -6.9360   19.9380  -32.8420 C   0  0  0  0  0  0  0  0  0  0  0  0
   -7.9620   20.7680  -32.5570 N   0  0  0  0  0  0  0  0  0  0  0  0
   -8.9890   20.1150  -31.9510 C   0  0  0  0  0  0  0  0  0  0  0  0
   -8.7790   18.7590  -31.7330 C   0  0  0  0  0  0  0  0  0  0  0  0
   -7.2530   18.3700  -32.3240 S   0  0  0  0  0  0  0  0  0  0  0  0
   -3.6580   21.2970  -31.5770 C   0  0  0  0  0  0  0  0  0  0  0  0
   -2.5920   21.9600  -30.9590 C   0  0  0  0  0  0  0  0  0  0  0  0
   -6.7660   24.9749  -29.0541 H   0  0  0  0  0  0  0  0  0  0  0  0
   -6.4222   26.0852  -30.4236 H   0  0  0  0  0  0  0  0  0  0  0  0
   -7.9219   25.0964  -30.4236 H   0  0  0  0  0  0  0  0  0  0  0  0
   -6.3240   22.8469  -29.0397 H   0  0  0  0  0  0  0  0  0  0  0  0
   -7.3460   22.2667  -30.3982 H   0  0  0  0  0  0  0  0  0  0  0  0
   -5.5802   21.9371  -30.3982 H   0  0  0  0  0  0  0  0  0  0  0  0
   -7.6845   23.5447  -32.3036 H   0  0  0  0  0  0  0  0  0  0  0  0
   -6.5195   24.8018  -32.8413 H   0  0  0  0  0  0  0  0  0  0  0  0
   -6.0372   23.0715  -32.8413 H   0  0  0  0  0  0  0  0  0  0  0  0
   -2.6190   25.6810  -29.3080 H   0  0  0  0  0  0  0  0  0  0  0  0
    0.5869   22.2244  -30.1659 H   0  0  0  0  0  0  0  0  0  0  0  0
    0.0375   19.9754  -31.8470 H   0  0  0  0  0  0  0  0  0  0  0  0
   -1.8254   18.7787  -33.0445 H   0  0  0  0  0  0  0  0  0  0  0  0
   -4.0822   19.0242  -34.0130 H   0  0  0  0  0  0  0  0  0  0  0  0
   -4.8869   18.6451  -32.4335 H   0  0  0  0  0  0  0  0  0  0  0  0
   -5.3970   21.3970  -33.0113 H   0  0  0  0  0  0  0  0  0  0  0  0
   -5.7363   20.4405  -34.5135 H   0  0  0  0  0  0  0  0  0  0  0  0
   -9.9185   20.6232  -31.6549 H   0  0  0  0  0  0  0  0  0  0  0  0
   -9.4858   18.0628  -31.2579 H   0  0  0  0  0  0  0  0  0  0  0  0
   -4.6882   21.6691  -31.4758 H   0  0  0  0  0  0  0  0  0  0  0  0
  1  2  1  0
  2  3  1  0
  2  4  1  0
  2  5  1  0
  5  6  1  0
  6  7  2  0
  6  8  1  0
  8  9  1  0
  9 10  1  0
 10 11  1  0
 10 12  2  0
  9 13  2  0
 13 14  1  0
 14 15  2  0
 15 16  1  0
 16 17  2  0
 17 18  1  0
 18 19  1  0
 19 20  1  0
 20 21  2  0
 21 22  1  0
 22 23  2  0
 23 24  1  0
 17 25  1  0
 25 26  2  0
 26  8  1  0
 26 14  1  0
 24 20  1  0
  1 27  1  0
  1 28  1  0
  1 29  1  0
  3 30  1  0
  3 31  1  0
  3 32  1  0
  4 33  1  0
  4 34  1  0
  4 35  1  0
 11 36  1  0
 13 37  1  0
 15 38  1  0
 16 39  1  0
 18 40  1  0
 18 41  1  0
 19 42  1  0
 19 43  1  0
 22 44  1  0
 23 45  1  0
 25 46  1  0
M  CHG  1  11  -1
M  END
>  <UniqueID>  (59) 
55

>  <SMILES>  (59) 
CC(C)(C)OC(=O)n1c(C([NH-])=O)cc2ccc(CCc3nccs3)cc21

>  <Energy>  (59) 
106.06129892827448

>  <Genealogy>  (59) 
CC(C)(C)OC(=O)n1c(C([NH-])=O)cc2ccc(CCc3nccs3)cc21 (protonated)
CC(C)(C)OC(=O)n1c(C([NH-])=O)cc2ccc(CCc3nccs3)cc21 (3D coordinates assigned)
CC(C)(C)OC(=O)n1c(C([NH-])=O)cc2ccc(CCc3nccs3)cc21 (optimized conformer: 106.06129892827448 kcal/mol)

>  <smiles>  (59) 
CC(C)(C)OC(=O)n1c(C(N)=O)cc2ccc(CCc3nccs3)cc21

>  <score_type>  (59) 
oracle

>  <origin>  (59) 
adg

>  <m_score__min__energy>  (59) 
-11.59

>  <m_primary>  (59) 
energy

$$$$
60:0
     RDKit          3D

 43 45  0  0  0  0  0  0  0  0999 V2000
    1.6490   28.2970  -22.5350 C   0  0  0  0  0  0  0  0  0  0  0  0
    0.3330   27.9830  -22.9790 O   0  0  0  0  0  0  0  0  0  0  0  0
    0.0370   27.1100  -24.0400 C   0  0  0  0  0  0  0  0  0  0  0  0
   -0.2220   25.7420  -23.8310 C   0  0  0  0  0  0  0  0  0  0  0  0
   -0.5030   24.8990  -24.9100 C   0  0  0  0  0  0  0  0  0  0  0  0
   -0.5370   25.4050  -26.2190 C   0  0  0  0  0  0  0  0  0  0  0  0
   -0.8190   24.5100  -27.3680 C   0  0  0  0  0  0  0  0  0  0  0  0
    0.1170   23.5130  -27.7450 C   0  0  0  0  0  0  0  0  0  0  0  0
   -0.1440   22.6550  -28.8280 C   0  0  0  0  0  0  0  0  0  0  0  0
   -1.3500   22.8060  -29.5040 C   0  0  0  0  0  0  0  0  0  0  0  0
   -1.8460   22.1180  -30.5860 C   0  0  0  0  0  0  0  0  0  0  0  0
   -3.0960   22.6770  -30.8370 C   0  0  0  0  0  0  0  0  0  0  0  0
   -4.0220   22.1570  -31.8610 C   0  0  0  0  0  0  0  0  0  0  0  0
   -5.0000   23.0020  -32.4700 N   0  0  0  0  0  0  0  0  0  0  0  0
   -3.9940   20.9340  -32.1580 O   0  0  0  0  0  0  0  0  0  0  0  0
   -3.3580   23.6880  -29.9590 N   0  0  0  0  0  0  0  0  0  0  0  0
   -4.4920   24.5740  -29.9600 C   0  0  0  0  0  0  0  0  0  0  0  0
   -4.5510   25.6670  -30.8760 N   0  0  0  0  0  0  0  0  0  0  0  0
   -5.4410   24.3970  -29.1500 O   0  0  0  0  0  0  0  0  0  0  0  0
   -2.2780   23.7500  -29.1450 C   0  0  0  0  0  0  0  0  0  0  0  0
   -2.0310   24.6360  -28.0870 C   0  0  0  0  0  0  0  0  0  0  0  0
   -0.2860   26.7730  -26.4270 C   0  0  0  0  0  0  0  0  0  0  0  0
    0.0030   27.6180  -25.3500 C   0  0  0  0  0  0  0  0  0  0  0  0
    0.3420   29.3160  -25.6560 S   0  0  0  0  0  0  0  0  0  0  0  0
   -0.4350   29.8730  -27.1570 C   0  0  0  0  0  0  0  0  0  0  0  0
   -0.1180   30.2580  -24.3420 O   0  0  0  0  0  0  0  0  0  0  0  0
    1.6733   28.3028  -21.4353 H   0  0  0  0  0  0  0  0  0  0  0  0
    2.3536   27.5418  -22.9134 H   0  0  0  0  0  0  0  0  0  0  0  0
    1.9367   29.2890  -22.9134 H   0  0  0  0  0  0  0  0  0  0  0  0
   -0.2031   25.3331  -22.8100 H   0  0  0  0  0  0  0  0  0  0  0  0
   -0.6989   23.8313  -24.7321 H   0  0  0  0  0  0  0  0  0  0  0  0
    1.0575   23.4099  -27.1839 H   0  0  0  0  0  0  0  0  0  0  0  0
    0.5835   21.8877  -29.1313 H   0  0  0  0  0  0  0  0  0  0  0  0
   -1.3587   21.2997  -31.1364 H   0  0  0  0  0  0  0  0  0  0  0  0
   -5.2010   23.9570  -32.0920 H   0  0  0  0  0  0  0  0  0  0  0  0
   -5.6110   22.6300  -33.2320 H   0  0  0  0  0  0  0  0  0  0  0  0
   -3.7840   25.8420  -31.5620 H   0  0  0  0  0  0  0  0  0  0  0  0
   -2.7637   25.4124  -27.8216 H   0  0  0  0  0  0  0  0  0  0  0  0
   -0.3172   27.1830  -27.4472 H   0  0  0  0  0  0  0  0  0  0  0  0
   -1.3060   30.4974  -26.9091 H   0  0  0  0  0  0  0  0  0  0  0  0
    0.2837   30.4629  -27.7448 H   0  0  0  0  0  0  0  0  0  0  0  0
   -0.7629   29.0030  -27.7448 H   0  0  0  0  0  0  0  0  0  0  0  0
   -0.0360   29.6490  -23.5650 H   0  0  0  0  0  0  0  0  0  0  0  0
  1  2  1  0
  2  3  1  0
  3  4  2  0
  4  5  1  0
  5  6  2  0
  6  7  1  0
  7  8  2  0
  8  9  1  0
  9 10  2  0
 10 11  1  0
 11 12  2  0
 12 13  1  0
 13 14  1  0
 13 15  2  0
 12 16  1  0
 16 17  1  0
 17 18  1  0
 17 19  2  0
 16 20  1  0
 20 21  2  0
  6 22  1  0
 22 23  2  0
 23 24  1  0
 24 25  1  0
 24 26  1  1
 23  3  1  0
 21  7  1  0
 20 10  1  0
  1 27  1  0
  1 28  1  0
  1 29  1  0
  4 30  1  0
  5 31  1  0
  8 32  1  0
  9 33  1  0
 11 34  1  0
 14 35  1  0
 14 36  1  0
 18 37  1  0
 21 38  1  0
 22 39  1  0
 25 40  1  0
 25 41  1  0
 25 42  1  0
 26 43  1  0
M  CHG  2  18  -1  24   1
M  END
>  <UniqueID>  (60) 
56

>  <SMILES>  (60) 
COc1ccc(-c2ccc3cc(C(N)=O)n(C([NH-])=O)c3c2)cc1[S@@+](C)O

>  <Energy>  (60) 
85.58523960403008

>  <Genealogy>  (60) 
COc1ccc(-c2ccc3cc(C(N)=O)n(C([NH-])=O)c3c2)cc1[S+](C)O (protonated)
COc1ccc(-c2ccc3cc(C(N)=O)n(C([NH-])=O)c3c2)cc1[S@@+](C)O (chirality)
COc1ccc(-c2ccc3cc(C(N)=O)n(C([NH-])=O)c3c2)cc1[S@@+](C)O (3D coordinates assigned)
COc1ccc(-c2ccc3cc(C(N)=O)n(C([NH-])=O)c3c2)cc1[S@@+](C)O (optimized conformer: 85.58523960403008 kcal/mol)

>  <smiles>  (60) 
COc1ccc(-c2ccc3cc(C(N)=O)n(C(N)=O)c3c2)cc1[S+](C)[O-]

>  <score_type>  (60) 
oracle

>  <origin>  (60) 
adg

>  <m_score__min__energy>  (60) 
-9.0199999999999996

>  <m_primary>  (60) 
energy

$$$$
61:0
     RDKit          3D

 49 51  0  0  0  0  0  0  0  0999 V2000
   -6.5190   23.7990  -32.2160 C   0  0  0  0  0  0  0  0  0  0  0  0
   -6.0210   24.0580  -30.7820 C   0  0  0  0  0  0  0  0  0  0  0  0
   -6.8120   25.2070  -30.1280 C   0  0  0  0  0  0  0  0  0  0  0  0
   -6.2160   22.7810  -29.9510 C   0  0  0  0  0  0  0  0  0  0  0  0
   -4.6160   24.3490  -30.7820 O   0  0  0  0  0  0  0  0  0  0  0  0
   -3.7090   24.0930  -29.7430 C   0  0  0  0  0  0  0  0  0  0  0  0
   -3.8810   24.5860  -28.5960 O   0  0  0  0  0  0  0  0  0  0  0  0
   -2.5520   23.2860  -30.0070 N   0  0  0  0  0  0  0  0  0  0  0  0
   -1.2480   23.5590  -29.7190 C   0  0  0  0  0  0  0  0  0  0  0  0
   -0.7530   24.7090  -28.9340 C   0  0  0  0  0  0  0  0  0  0  0  0
   -1.4310   25.9620  -28.9590 N   0  0  0  0  0  0  0  0  0  0  0  0
    0.2570   24.5700  -28.1940 O   0  0  0  0  0  0  0  0  0  0  0  0
   -0.4210   22.5430  -30.1960 C   0  0  0  0  0  0  0  0  0  0  0  0
   -1.2670   21.6270  -30.7800 C   0  0  0  0  0  0  0  0  0  0  0  0
   -0.9840   20.4210  -31.4140 C   0  0  0  0  0  0  0  0  0  0  0  0
   -2.0600   19.6860  -31.9420 C   0  0  0  0  0  0  0  0  0  0  0  0
   -3.3910   20.1690  -31.8410 C   0  0  0  0  0  0  0  0  0  0  0  0
   -4.5240   19.3930  -32.4060 C   0  0  0  0  0  0  0  0  0  0  0  0
   -4.3010   18.4020  -33.3800 C   0  0  0  0  0  0  0  0  0  0  0  0
   -5.3730   17.6900  -33.9240 C   0  0  0  0  0  0  0  0  0  0  0  0
   -6.6780   17.9570  -33.5060 C   0  0  0  0  0  0  0  0  0  0  0  0
   -6.9190   18.9360  -32.5330 C   0  0  0  0  0  0  0  0  0  0  0  0
   -8.5600   19.2990  -32.0110 S   0  0  0  0  0  0  0  0  0  0  0  0
   -9.5350   19.6540  -33.3940 N   0  0  0  0  0  0  0  0  0  0  0  0
   -9.1430   18.1220  -31.2800 O   0  0  0  0  0  0  0  0  0  0  0  0
   -8.5430   20.4830  -31.0850 O   0  0  0  0  0  0  0  0  0  0  0  0
   -5.8440   19.6500  -31.9880 C   0  0  0  0  0  0  0  0  0  0  0  0
   -3.6320   21.4040  -31.1940 C   0  0  0  0  0  0  0  0  0  0  0  0
   -2.5460   22.1000  -30.6530 C   0  0  0  0  0  0  0  0  0  0  0  0
   -7.4944   23.2917  -32.1794 H   0  0  0  0  0  0  0  0  0  0  0  0
   -6.6236   24.7570  -32.7465 H   0  0  0  0  0  0  0  0  0  0  0  0
   -5.7948   23.1633  -32.7465 H   0  0  0  0  0  0  0  0  0  0  0  0
   -6.7506   25.1178  -29.0333 H   0  0  0  0  0  0  0  0  0  0  0  0
   -6.3853   26.1711  -30.4419 H   0  0  0  0  0  0  0  0  0  0  0  0
   -7.8649   25.1525  -30.4419 H   0  0  0  0  0  0  0  0  0  0  0  0
   -6.1779   23.0308  -28.8804 H   0  0  0  0  0  0  0  0  0  0  0  0
   -7.1928   22.3344  -30.1887 H   0  0  0  0  0  0  0  0  0  0  0  0
   -5.4170   22.0633  -30.1887 H   0  0  0  0  0  0  0  0  0  0  0  0
   -2.4730   26.0090  -28.9740 H   0  0  0  0  0  0  0  0  0  0  0  0
    0.6750   22.4854  -30.1216 H   0  0  0  0  0  0  0  0  0  0  0  0
    0.0495   20.0541  -31.4994 H   0  0  0  0  0  0  0  0  0  0  0  0
   -1.8679   18.7241  -32.4399 H   0  0  0  0  0  0  0  0  0  0  0  0
   -3.2758   18.1865  -33.7153 H   0  0  0  0  0  0  0  0  0  0  0  0
   -5.1882   16.9166  -34.6841 H   0  0  0  0  0  0  0  0  0  0  0  0
   -7.5190   17.3975  -33.9415 H   0  0  0  0  0  0  0  0  0  0  0  0
   -8.9150   20.1200  -34.0940 H   0  0  0  0  0  0  0  0  0  0  0  0
   -9.8230   18.7400  -33.8090 H   0  0  0  0  0  0  0  0  0  0  0  0
   -6.0330   20.4198  -31.2253 H   0  0  0  0  0  0  0  0  0  0  0  0
   -4.6522   21.8084  -31.1180 H   0  0  0  0  0  0  0  0  0  0  0  0
  1  2  1  0
  2  3  1  0
  2  4  1  0
  2  5  1  0
  5  6  1  0
  6  7  2  0
  6  8  1  0
  8  9  1  0
  9 10  1  0
 10 11  1  0
 10 12  2  0
  9 13  2  0
 13 14  1  0
 14 15  2  0
 15 16  1  0
 16 17  2  0
 17 18  1  0
 18 19  2  0
 19 20  1  0
 20 21  2  0
 21 22  1  0
 22 23  1  0
 23 24  1  0
 23 25  2  0
 23 26  2  0
 22 27  2  0
 17 28  1  0
 28 29  2  0
 29  8  1  0
 29 14  1  0
 27 18  1  0
  1 30  1  0
  1 31  1  0
  1 32  1  0
  3 33  1  0
  3 34  1  0
  3 35  1  0
  4 36  1  0
  4 37  1  0
  4 38  1  0
 11 39  1  0
 13 40  1  0
 15 41  1  0
 16 42  1  0
 19 43  1  0
 20 44  1  0
 21 45  1  0
 24 46  1  0
 24 47  1  0
 27 48  1  0
 28 49  1  0
M  CHG  1  11  -1
M  END
>  <UniqueID>  (61) 
57

>  <SMILES>  (61) 
CC(C)(C)OC(=O)n1c(C([NH-])=O)cc2ccc(-c3cccc(S(N)(=O)=O)c3)cc21

>  <Energy>  (61) 
88.25590276316541

>  <Genealogy>  (61) 
CC(C)(C)OC(=O)n1c(C([NH-])=O)cc2ccc(-c3cccc(S(N)(=O)=O)c3)cc21 (protonated)
CC(C)(C)OC(=O)n1c(C([NH-])=O)cc2ccc(-c3cccc(S(N)(=O)=O)c3)cc21 (3D coordinates assigned)
CC(C)(C)OC(=O)n1c(C([NH-])=O)cc2ccc(-c3cccc(S(N)(=O)=O)c3)cc21 (optimized conformer: 88.25590276316541 kcal/mol)

>  <smiles>  (61) 
CC(C)(C)OC(=O)n1c(C(N)=O)cc2ccc(-c3cccc(S(N)(=O)=O)c3)cc21

>  <score_type>  (61) 
oracle

>  <origin>  (61) 
adg

>  <m_score__min__energy>  (61) 
-12.4

>  <m_primary>  (61) 
energy

$$$$
62:0
     RDKit          3D

 60 63  0  0  0  0  0  0  0  0999 V2000
   -3.4750   24.5260  -30.5110 N   0  0  0  0  0  0  0  0  0  0  0  0
   -4.8600   24.7870  -30.7190 C   0  0  0  0  0  0  0  0  0  0  0  0
   -5.2790   25.9720  -30.6760 O   0  0  0  0  0  0  0  0  0  0  0  0
   -5.7970   23.6740  -30.9660 C   0  0  0  0  0  0  0  0  0  0  0  0
   -7.1380   23.6720  -30.5860 C   0  0  0  0  0  0  0  0  0  0  0  0
   -7.6340   22.4580  -31.0150 C   0  0  0  0  0  0  0  0  0  0  0  0
   -8.9080   21.9120  -30.8950 C   0  0  0  0  0  0  0  0  0  0  0  0
   -9.1330   20.6320  -31.4380 C   0  0  0  0  0  0  0  0  0  0  0  0
   -8.0900   19.9360  -32.1150 C   0  0  0  0  0  0  0  0  0  0  0  0
   -8.2920   18.5440  -32.6770 C   0  0  0  0  0  0  0  0  0  0  0  0
   -7.1320   17.5790  -32.4140 C   0  0  0  0  0  0  0  0  0  0  0  0
   -6.6550   17.0560  -33.6330 O   0  0  0  0  0  0  0  0  0  0  0  0
   -5.4460   18.0900  -34.2150 S   0  0  0  0  0  0  0  0  0  0  0  0
   -6.0930   19.2830  -34.8540 O   0  0  0  0  0  0  0  0  0  0  0  0
   -4.5680   18.5540  -33.0850 O   0  0  0  0  0  0  0  0  0  0  0  0
   -4.5110   17.3000  -35.3640 O   0  0  0  0  0  0  0  0  0  0  0  0
   -6.8060   20.5210  -32.1960 C   0  0  0  0  0  0  0  0  0  0  0  0
   -6.6150   21.7850  -31.6330 C   0  0  0  0  0  0  0  0  0  0  0  0
   -5.4890   22.5260  -31.6270 N   0  0  0  0  0  0  0  0  0  0  0  0
   -4.2190   22.1450  -32.1830 C   0  0  0  0  0  0  0  0  0  0  0  0
   -4.0820   22.2140  -33.4350 O   0  0  0  0  0  0  0  0  0  0  0  0
   -3.0630   21.8740  -31.3310 N   0  0  1  0  0  0  0  0  0  0  0  0
   -3.3820   20.8950  -30.2440 C   0  0  0  0  0  0  0  0  0  0  0  0
   -2.6160   21.1500  -28.9600 C   0  0  0  0  0  0  0  0  0  0  0  0
   -2.6050   22.4360  -28.3890 C   0  0  0  0  0  0  0  0  0  0  0  0
   -1.9290   22.6720  -27.1890 C   0  0  0  0  0  0  0  0  0  0  0  0
   -1.2860   21.6230  -26.5320 C   0  0  0  0  0  0  0  0  0  0  0  0
   -1.3180   20.3340  -27.0710 C   0  0  0  0  0  0  0  0  0  0  0  0
   -1.9880   20.0920  -28.2730 C   0  0  0  0  0  0  0  0  0  0  0  0
   -1.8750   21.4660  -32.1500 C   0  0  0  0  0  0  0  0  0  0  0  0
   -2.0000   20.0720  -32.7990 C   0  0  0  0  0  0  0  0  0  0  0  0
   -0.6480   19.4010  -32.6240 C   0  0  0  0  0  0  0  0  0  0  0  0
   -0.0360   20.0270  -31.3850 C   0  0  0  0  0  0  0  0  0  0  0  0
   -0.5530   21.4580  -31.3520 C   0  0  0  0  0  0  0  0  0  0  0  0
   -2.7660   25.2860  -30.5980 H   0  0  0  0  0  0  0  0  0  0  0  0
   -7.6838   24.4675  -30.0575 H   0  0  0  0  0  0  0  0  0  0  0  0
   -9.7154   22.4635  -30.3911 H   0  0  0  0  0  0  0  0  0  0  0  0
  -10.1239   20.1649  -31.3385 H   0  0  0  0  0  0  0  0  0  0  0  0
   -9.2010   18.1197  -32.2257 H   0  0  0  0  0  0  0  0  0  0  0  0
   -8.3657   18.6548  -33.7689 H   0  0  0  0  0  0  0  0  0  0  0  0
   -6.3186   18.1170  -31.9052 H   0  0  0  0  0  0  0  0  0  0  0  0
   -7.4860   16.7527  -31.7801 H   0  0  0  0  0  0  0  0  0  0  0  0
   -5.9770   19.9936  -32.6905 H   0  0  0  0  0  0  0  0  0  0  0  0
   -2.8110   22.7950  -30.9050 H   0  0  0  0  0  0  0  0  0  0  0  0
   -4.4584   20.9549  -30.0256 H   0  0  0  0  0  0  0  0  0  0  0  0
   -3.0861   19.8995  -30.6064 H   0  0  0  0  0  0  0  0  0  0  0  0
   -3.1320   23.2610  -28.8906 H   0  0  0  0  0  0  0  0  0  0  0  0
   -1.9039   23.6856  -26.7623 H   0  0  0  0  0  0  0  0  0  0  0  0
   -0.7529   21.8106  -25.5882 H   0  0  0  0  0  0  0  0  0  0  0  0
   -0.8144   19.5079  -26.5476 H   0  0  0  0  0  0  0  0  0  0  0  0
   -2.0254   19.0725  -28.6843 H   0  0  0  0  0  0  0  0  0  0  0  0
   -1.8541   22.2403  -32.9311 H   0  0  0  0  0  0  0  0  0  0  0  0
   -2.7843   19.4865  -32.2970 H   0  0  0  0  0  0  0  0  0  0  0  0
   -2.2760   20.1473  -33.8611 H   0  0  0  0  0  0  0  0  0  0  0  0
   -0.7731   18.3171  -32.4842 H   0  0  0  0  0  0  0  0  0  0  0  0
   -0.0081   19.5408  -33.5077 H   0  0  0  0  0  0  0  0  0  0  0  0
   -0.3535   19.4831  -30.4831 H   0  0  0  0  0  0  0  0  0  0  0  0
    1.0631   19.9917  -31.4115 H   0  0  0  0  0  0  0  0  0  0  0  0
   -0.7342   21.7726  -30.3136 H   0  0  0  0  0  0  0  0  0  0  0  0
    0.1783   22.1549  -31.7874 H   0  0  0  0  0  0  0  0  0  0  0  0
  1  2  1  0
  2  3  2  0
  2  4  1  0
  4  5  2  0
  5  6  1  0
  6  7  2  0
  7  8  1  0
  8  9  2  0
  9 10  1  0
 10 11  1  0
 11 12  1  0
 12 13  1  0
 13 14  2  0
 13 15  2  0
 13 16  1  0
  9 17  1  0
 17 18  2  0
 18 19  1  0
 19 20  1  0
 20 21  2  0
 20 22  1  0
 22 23  1  0
 23 24  1  0
 24 25  2  0
 25 26  1  0
 26 27  2  0
 27 28  1  0
 28 29  2  0
 22 30  1  0
 30 31  1  0
 31 32  1  0
 32 33  1  0
 33 34  1  0
 19  4  1  0
 29 24  1  0
 34 30  1  0
 18  6  1  0
  1 35  1  0
  5 36  1  0
  7 37  1  0
  8 38  1  0
 10 39  1  0
 10 40  1  0
 11 41  1  0
 11 42  1  0
 17 43  1  0
 22 44  1  1
 23 45  1  0
 23 46  1  0
 25 47  1  0
 26 48  1  0
 27 49  1  0
 28 50  1  0
 29 51  1  0
 30 52  1  0
 31 53  1  0
 31 54  1  0
 32 55  1  0
 32 56  1  0
 33 57  1  0
 33 58  1  0
 34 59  1  0
 34 60  1  0
M  CHG  3   1  -1  16  -1  22   1
M  END
>  <UniqueID>  (62) 
58

>  <SMILES>  (62) 
[NH-]C(=O)c1cc2ccc(CCOS(=O)(=O)[O-])cc2n1C(=O)[N@@H+](Cc1ccccc1)C1CCCC1

>  <Energy>  (62) 
112.15177865514993

>  <Genealogy>  (62) 
[NH-]C(=O)c1cc2ccc(CCOS(=O)(=O)[O-])cc2n1C(=O)[NH+](Cc1ccccc1)C1CCCC1 (protonated)
[NH-]C(=O)c1cc2ccc(CCOS(=O)(=O)[O-])cc2n1C(=O)[N@@H+](Cc1ccccc1)C1CCCC1 (chirality)
[NH-]C(=O)c1cc2ccc(CCOS(=O)(=O)[O-])cc2n1C(=O)[N@@H+](Cc1ccccc1)C1CCCC1 (3D coordinates assigned)
[NH-]C(=O)c1cc2ccc(CCOS(=O)(=O)[O-])cc2n1C(=O)[N@@H+](Cc1ccccc1)C1CCCC1 (nonaromatic ring conformer: 112.15177865514993 kcal/mol)

>  <smiles>  (62) 
NC(=O)c1cc2ccc(CCOS(=O)(=O)O)cc2n1C(=O)N(Cc1ccccc1)C1CCCC1

>  <score_type>  (62) 
oracle

>  <origin>  (62) 
adg

>  <m_score__min__energy>  (62) 
-11.83

>  <m_primary>  (62) 
energy

$$$$
63:0
     RDKit          3D

 46 50  0  0  0  0  0  0  0  0999 V2000
   -4.4440   25.6560  -30.8320 N   0  0  0  0  0  0  0  0  0  0  0  0
   -4.2980   24.6690  -29.8130 C   0  0  0  0  0  0  0  0  0  0  0  0
   -4.9160   24.8080  -28.7230 O   0  0  0  0  0  0  0  0  0  0  0  0
   -3.4650   23.5190  -30.0320 N   0  0  0  0  0  0  0  0  0  0  0  0
   -2.1260   23.4070  -29.8010 C   0  0  0  0  0  0  0  0  0  0  0  0
   -1.2810   24.4010  -29.1100 C   0  0  0  0  0  0  0  0  0  0  0  0
   -1.8520   25.5590  -28.4990 N   0  0  0  0  0  0  0  0  0  0  0  0
   -0.0420   24.1970  -29.0050 O   0  0  0  0  0  0  0  0  0  0  0  0
   -1.6470   22.1820  -30.2560 C   0  0  0  0  0  0  0  0  0  0  0  0
   -2.7460   21.5300  -30.7670 C   0  0  0  0  0  0  0  0  0  0  0  0
   -2.8450   20.2760  -31.3600 C   0  0  0  0  0  0  0  0  0  0  0  0
   -4.1040   19.8660  -31.8270 C   0  0  0  0  0  0  0  0  0  0  0  0
   -5.2300   20.7180  -31.7090 C   0  0  0  0  0  0  0  0  0  0  0  0
   -6.5510   20.2760  -32.2050 C   0  0  0  0  0  0  0  0  0  0  0  0
   -6.8860   19.0910  -32.8490 C   0  0  0  0  0  0  0  0  0  0  0  0
   -5.9720   18.0350  -33.3390 C   0  0  0  0  0  0  0  0  0  0  0  0
   -5.4360   18.1000  -34.6390 C   0  0  0  0  0  0  0  0  0  0  0  0
   -4.5810   17.0960  -35.1020 C   0  0  0  0  0  0  0  0  0  0  0  0
   -4.2620   16.0130  -34.2790 C   0  0  0  0  0  0  0  0  0  0  0  0
   -3.4340   15.0400  -34.7310 F   0  0  0  0  0  0  0  0  0  0  0  0
   -4.8020   15.9300  -32.9930 C   0  0  0  0  0  0  0  0  0  0  0  0
   -5.6580   16.9320  -32.5230 C   0  0  0  0  0  0  0  0  0  0  0  0
   -6.1580   16.8360  -31.2640 F   0  0  0  0  0  0  0  0  0  0  0  0
   -8.2220   19.0520  -33.0300 N   0  0  0  0  0  0  0  0  0  0  0  0
   -8.7140   20.1480  -32.5290 O   0  0  0  0  0  0  0  0  0  0  0  0
   -7.7700   20.9050  -32.0220 C   0  0  0  0  0  0  0  0  0  0  0  0
   -8.0210   22.2280  -31.3600 C   0  0  0  0  0  0  0  0  0  0  0  0
   -9.1200   23.0630  -32.0010 C   0  0  0  0  0  0  0  0  0  0  0  0
   -7.6630   23.4360  -32.2130 C   0  0  0  0  0  0  0  0  0  0  0  0
   -5.0910   21.9850  -31.1010 C   0  0  0  0  0  0  0  0  0  0  0  0
   -3.8300   22.3580  -30.6210 C   0  0  0  0  0  0  0  0  0  0  0  0
   -3.6110   26.1390  -31.2350 H   0  0  0  0  0  0  0  0  0  0  0  0
   -1.2360   26.2710  -28.0460 H   0  0  0  0  0  0  0  0  0  0  0  0
   -2.8870   25.6750  -28.4240 H   0  0  0  0  0  0  0  0  0  0  0  0
   -0.6113   21.8137  -30.2158 H   0  0  0  0  0  0  0  0  0  0  0  0
   -1.9638   19.6252  -31.4601 H   0  0  0  0  0  0  0  0  0  0  0  0
   -4.2173   18.8741  -32.2888 H   0  0  0  0  0  0  0  0  0  0  0  0
   -5.6915   18.9458  -35.2942 H   0  0  0  0  0  0  0  0  0  0  0  0
   -4.1587   17.1586  -36.1158 H   0  0  0  0  0  0  0  0  0  0  0  0
   -4.5534   15.0743  -32.3481 H   0  0  0  0  0  0  0  0  0  0  0  0
   -7.7912   21.8965  -30.3366 H   0  0  0  0  0  0  0  0  0  0  0  0
   -9.7089   22.6509  -32.8337 H   0  0  0  0  0  0  0  0  0  0  0  0
  -10.0117   23.5903  -31.6311 H   0  0  0  0  0  0  0  0  0  0  0  0
   -7.1970   23.2940  -33.1992 H   0  0  0  0  0  0  0  0  0  0  0  0
   -7.0631   24.3453  -32.0602 H   0  0  0  0  0  0  0  0  0  0  0  0
   -5.9526   22.6623  -31.0069 H   0  0  0  0  0  0  0  0  0  0  0  0
  1  2  1  0
  2  3  2  0
  2  4  1  0
  4  5  1  0
  5  6  1  0
  6  7  1  0
  6  8  2  0
  5  9  2  0
  9 10  1  0
 10 11  2  0
 11 12  1  0
 12 13  2  0
 13 14  1  0
 14 15  1  0
 15 16  1  0
 16 17  2  0
 17 18  1  0
 18 19  2  0
 19 20  1  0
 19 21  1  0
 21 22  2  0
 22 23  1  0
 15 24  2  0
 24 25  1  0
 25 26  1  0
 26 27  1  0
 27 28  1  0
 28 29  1  0
 13 30  1  0
 30 31  2  0
 31  4  1  0
 31 10  1  0
 26 14  2  0
 29 27  1  0
 22 16  1  0
  1 32  1  0
  7 33  1  0
  7 34  1  0
  9 35  1  0
 11 36  1  0
 12 37  1  0
 17 38  1  0
 18 39  1  0
 21 40  1  0
 27 41  1  0
 28 42  1  0
 28 43  1  0
 29 44  1  0
 29 45  1  0
 30 46  1  0
M  CHG  1   1  -1
M  END
>  <UniqueID>  (63) 
59

>  <SMILES>  (63) 
[NH-]C(=O)n1c(C(N)=O)cc2ccc(-c3c(-c4ccc(F)cc4F)noc3C3CC3)cc21

>  <Energy>  (63) 
393.0780702299789

>  <Genealogy>  (63) 
[NH-]C(=O)n1c(C(N)=O)cc2ccc(-c3c(-c4ccc(F)cc4F)noc3C3CC3)cc21 (protonated)
[NH-]C(=O)n1c(C(N)=O)cc2ccc(-c3c(-c4ccc(F)cc4F)noc3C3CC3)cc21 (3D coordinates assigned)
[NH-]C(=O)n1c(C(N)=O)cc2ccc(-c3c(-c4ccc(F)cc4F)noc3C3CC3)cc21 (nonaromatic ring conformer: 393.0780702299789 kcal/mol)

>  <smiles>  (63) 
NC(=O)c1cc2ccc(-c3c(-c4ccc(F)cc4F)noc3C3CC3)cc2n1C(N)=O

>  <score_type>  (63) 
oracle

>  <origin>  (63) 
adg

>  <m_score__min__energy>  (63) 
-11.25

>  <m_primary>  (63) 
energy

$$$$
64:0
     RDKit          3D

 25 26  0  0  0  0  0  0  0  0999 V2000
   -5.6770   26.4700  -30.2700 N   0  0  0  0  0  0  0  0  0  0  0  0
   -6.4520   25.3000  -30.0100 C   0  0  0  0  0  0  0  0  0  0  0  0
   -7.2930   25.3120  -29.0720 O   0  0  0  0  0  0  0  0  0  0  0  0
   -6.2380   24.0560  -30.7760 C   0  0  0  0  0  0  0  0  0  0  0  0
   -7.2700   23.3370  -31.3700 C   0  0  0  0  0  0  0  0  0  0  0  0
   -6.6700   22.2290  -31.9220 C   0  0  0  0  0  0  0  0  0  0  0  0
   -7.2260   21.1800  -32.6500 C   0  0  0  0  0  0  0  0  0  0  0  0
   -6.3640   20.1850  -33.1370 C   0  0  0  0  0  0  0  0  0  0  0  0
   -4.9690   20.2590  -32.8960 C   0  0  0  0  0  0  0  0  0  0  0  0
   -4.0470   19.2020  -33.4370 C   0  0  0  0  0  0  0  0  0  0  0  0
   -2.8060   19.7550  -33.6980 F   0  0  0  0  0  0  0  0  0  0  0  0
   -4.5710   18.6820  -34.6050 F   0  0  0  0  0  0  0  0  0  0  0  0
   -4.4390   21.3390  -32.1570 C   0  0  0  0  0  0  0  0  0  0  0  0
   -5.3240   22.3070  -31.6650 C   0  0  0  0  0  0  0  0  0  0  0  0
   -5.0410   23.4280  -30.9620 N   0  0  0  0  0  0  0  0  0  0  0  0
   -3.7360   23.9100  -30.6010 C   0  0  0  0  0  0  0  0  0  0  0  0
   -2.7990   23.1000  -30.3750 O   0  0  0  0  0  0  0  0  0  0  0  0
   -3.4930   25.2730  -30.4950 O   0  0  0  0  0  0  0  0  0  0  0  0
   -4.8610   26.4440  -30.9200 H   0  0  0  0  0  0  0  0  0  0  0  0
   -5.8680   27.3520  -29.7440 H   0  0  0  0  0  0  0  0  0  0  0  0
   -8.3382   23.5986  -31.3934 H   0  0  0  0  0  0  0  0  0  0  0  0
   -8.3088   21.1326  -32.8378 H   0  0  0  0  0  0  0  0  0  0  0  0
   -6.7744   19.3408  -33.7105 H   0  0  0  0  0  0  0  0  0  0  0  0
   -3.9415   18.3994  -32.6922 H   0  0  0  0  0  0  0  0  0  0  0  0
   -3.3576   21.4184  -31.9721 H   0  0  0  0  0  0  0  0  0  0  0  0
  1  2  1  0
  2  3  2  0
  2  4  1  0
  4  5  2  0
  5  6  1  0
  6  7  2  0
  7  8  1  0
  8  9  2  0
  9 10  1  0
 10 11  1  0
 10 12  1  0
  9 13  1  0
 13 14  2  0
 14 15  1  0
 15 16  1  0
 16 17  2  0
 16 18  1  0
 15  4  1  0
 14  6  1  0
  1 19  1  0
  1 20  1  0
  5 21  1  0
  7 22  1  0
  8 23  1  0
 10 24  1  0
 13 25  1  0
M  CHG  1  18  -1
M  END
>  <UniqueID>  (64) 
60

>  <SMILES>  (64) 
NC(=O)c1cc2ccc(C(F)F)cc2n1C(=O)[O-]

>  <Energy>  (64) 
65.3216034530288

>  <Genealogy>  (64) 
NC(=O)c1cc2ccc(C(F)F)cc2n1C(=O)[O-] (protonated)
NC(=O)c1cc2ccc(C(F)F)cc2n1C(=O)[O-] (3D coordinates assigned)
NC(=O)c1cc2ccc(C(F)F)cc2n1C(=O)[O-] (optimized conformer: 65.3216034530288 kcal/mol)

>  <smiles>  (64) 
NC(=O)c1cc2ccc(C(F)F)cc2n1C(=O)O

>  <score_type>  (64) 
oracle

>  <origin>  (64) 
adg

>  <m_score__min__energy>  (64) 
-7.8099999999999996

>  <m_primary>  (64) 
energy

$$$$
65:0
     RDKit          3D

 51 53  0  0  0  0  0  0  0  0999 V2000
   -2.7630   14.7550  -35.7840 C   0  0  0  0  0  0  0  0  0  0  0  0
   -3.4030   15.9930  -36.0690 O   0  0  0  0  0  0  0  0  0  0  0  0
   -3.5260   17.0160  -35.1220 C   0  0  0  0  0  0  0  0  0  0  0  0
   -2.5530   17.7860  -34.8950 O   0  0  0  0  0  0  0  0  0  0  0  0
   -4.8000   17.1910  -34.3870 C   0  0  0  0  0  0  0  0  0  0  0  0
   -5.6740   16.1050  -34.2210 C   0  0  0  0  0  0  0  0  0  0  0  0
   -6.8710   16.2630  -33.5200 C   0  0  0  0  0  0  0  0  0  0  0  0
   -7.2100   17.5030  -32.9770 C   0  0  0  0  0  0  0  0  0  0  0  0
   -6.3520   18.6050  -33.1310 C   0  0  0  0  0  0  0  0  0  0  0  0
   -6.7110   19.9260  -32.5560 C   0  0  0  0  0  0  0  0  0  0  0  0
   -8.0730   20.3020  -32.4170 C   0  0  0  0  0  0  0  0  0  0  0  0
   -8.4240   21.5520  -31.8810 C   0  0  0  0  0  0  0  0  0  0  0  0
   -7.3970   22.4010  -31.4810 C   0  0  0  0  0  0  0  0  0  0  0  0
   -7.4570   23.6730  -30.9600 C   0  0  0  0  0  0  0  0  0  0  0  0
   -6.1320   24.0500  -30.7590 C   0  0  0  0  0  0  0  0  0  0  0  0
   -5.7350   25.3320  -30.1440 C   0  0  0  0  0  0  0  0  0  0  0  0
   -6.3840   25.8200  -28.9690 N   0  0  0  0  0  0  0  0  0  0  0  0
   -4.8490   26.0370  -30.6980 O   0  0  0  0  0  0  0  0  0  0  0  0
   -5.2840   23.0580  -31.1500 N   0  0  0  0  0  0  0  0  0  0  0  0
   -3.8480   23.1140  -31.2110 C   0  0  0  0  0  0  0  0  0  0  0  0
   -3.2240   22.3500  -31.9920 O   0  0  0  0  0  0  0  0  0  0  0  0
   -3.1610   24.0200  -30.3870 O   0  0  0  0  0  0  0  0  0  0  0  0
   -2.6630   23.7610  -29.0660 C   0  0  0  0  0  0  0  0  0  0  0  0
   -1.8020   22.4930  -29.1490 C   0  0  0  0  0  0  0  0  0  0  0  0
   -1.7850   24.9280  -28.5760 C   0  0  0  0  0  0  0  0  0  0  0  0
   -3.8280   23.5100  -28.0900 C   0  0  0  0  0  0  0  0  0  0  0  0
   -6.0750   22.0510  -31.5880 C   0  0  0  0  0  0  0  0  0  0  0  0
   -5.6970   20.8220  -32.1410 C   0  0  0  0  0  0  0  0  0  0  0  0
   -5.1470   18.4400  -33.8400 C   0  0  0  0  0  0  0  0  0  0  0  0
   -2.6935   14.6205  -34.6945 H   0  0  0  0  0  0  0  0  0  0  0  0
   -3.3482   13.9311  -36.2186 H   0  0  0  0  0  0  0  0  0  0  0  0
   -1.7525   14.7560  -36.2186 H   0  0  0  0  0  0  0  0  0  0  0  0
   -5.4143   15.1241  -34.6456 H   0  0  0  0  0  0  0  0  0  0  0  0
   -7.5498   15.4064  -33.3952 H   0  0  0  0  0  0  0  0  0  0  0  0
   -8.1545   17.6184  -32.4251 H   0  0  0  0  0  0  0  0  0  0  0  0
   -8.8635   19.6055  -32.7331 H   0  0  0  0  0  0  0  0  0  0  0  0
   -9.4780   21.8503  -31.7806 H   0  0  0  0  0  0  0  0  0  0  0  0
   -8.3591   24.2655  -30.7476 H   0  0  0  0  0  0  0  0  0  0  0  0
   -7.2280   25.3440  -28.5840 H   0  0  0  0  0  0  0  0  0  0  0  0
   -6.0820   26.7210  -28.5380 H   0  0  0  0  0  0  0  0  0  0  0  0
   -1.5648   22.1437  -28.1333 H   0  0  0  0  0  0  0  0  0  0  0  0
   -2.3551   21.7088  -29.6866 H   0  0  0  0  0  0  0  0  0  0  0  0
   -0.8690   22.7178  -29.6866 H   0  0  0  0  0  0  0  0  0  0  0  0
   -1.7743   24.9422  -27.4761 H   0  0  0  0  0  0  0  0  0  0  0  0
   -0.7591   24.7976  -28.9510 H   0  0  0  0  0  0  0  0  0  0  0  0
   -2.1945   25.8776  -28.9510 H   0  0  0  0  0  0  0  0  0  0  0  0
   -3.4629   23.5887  -27.0553 H   0  0  0  0  0  0  0  0  0  0  0  0
   -4.6157   24.2591  -28.2589 H   0  0  0  0  0  0  0  0  0  0  0  0
   -4.2373   22.5031  -28.2589 H   0  0  0  0  0  0  0  0  0  0  0  0
   -4.6348   20.5582  -32.2507 H   0  0  0  0  0  0  0  0  0  0  0  0
   -4.4693   19.2970  -33.9677 H   0  0  0  0  0  0  0  0  0  0  0  0
  1  2  1  0
  2  3  1  0
  3  4  2  0
  3  5  1  0
  5  6  2  0
  6  7  1  0
  7  8  2  0
  8  9  1  0
  9 10  1  0
 10 11  2  0
 11 12  1  0
 12 13  2  0
 13 14  1  0
 14 15  2  0
 15 16  1  0
 16 17  1  0
 16 18  2  0
 15 19  1  0
 19 20  1  0
 20 21  2  0
 20 22  1  0
 22 23  1  0
 23 24  1  0
 23 25  1  0
 23 26  1  0
 19 27  1  0
 27 28  2  0
  9 29  2  0
 29  5  1  0
 28 10  1  0
 27 13  1  0
  1 30  1  0
  1 31  1  0
  1 32  1  0
  6 33  1  0
  7 34  1  0
  8 35  1  0
 11 36  1  0
 12 37  1  0
 14 38  1  0
 17 39  1  0
 17 40  1  0
 24 41  1  0
 24 42  1  0
 24 43  1  0
 25 44  1  0
 25 45  1  0
 25 46  1  0
 26 47  1  0
 26 48  1  0
 26 49  1  0
 28 50  1  0
 29 51  1  0
M  END
>  <UniqueID>  (65) 
61

>  <SMILES>  (65) 
COC(=O)c1cccc(-c2ccc3cc(C(N)=O)n(C(=O)OC(C)(C)C)c3c2)c1

>  <Energy>  (65) 
90.71640225187008

>  <Genealogy>  (65) 
COC(=O)c1cccc(-c2ccc3cc(C(N)=O)n(C(=O)OC(C)(C)C)c3c2)c1 (3D coordinates assigned)
COC(=O)c1cccc(-c2ccc3cc(C(N)=O)n(C(=O)OC(C)(C)C)c3c2)c1 (optimized conformer: 90.71640225187008 kcal/mol)

>  <smiles>  (65) 
COC(=O)c1cccc(-c2ccc3cc(C(N)=O)n(C(=O)OC(C)(C)C)c3c2)c1

>  <score_type>  (65) 
oracle

>  <origin>  (65) 
adg

>  <m_score__min__energy>  (65) 
-9.8599999999999994

>  <m_primary>  (65) 
energy

$$$$
66:0
     RDKit          3D

 62 64  0  0  0  0  0  0  0  0999 V2000
   -3.0650   15.1240  -32.9640 C   0  0  0  0  0  0  0  0  0  0  0  0
   -4.4730   14.8990  -32.4120 C   0  0  0  0  0  0  0  0  0  0  0  0
   -4.5000   13.6360  -31.5370 C   0  0  0  0  0  0  0  0  0  0  0  0
   -5.4170   14.7970  -33.5460 N   0  0  0  0  0  0  0  0  0  0  0  0
   -5.2090   15.8220  -34.5810 C   0  0  0  0  0  0  0  0  0  0  0  0
   -5.8320   17.1370  -34.2100 C   0  0  0  0  0  0  0  0  0  0  0  0
   -5.6760   18.1290  -34.9740 O   0  0  0  0  0  0  0  0  0  0  0  0
   -6.5430   17.2730  -32.9690 N   0  0  0  0  0  0  0  0  0  0  0  0
   -7.2160   18.4750  -32.5620 C   0  0  0  0  0  0  0  0  0  0  0  0
   -8.6170   18.5650  -32.5700 C   0  0  0  0  0  0  0  0  0  0  0  0
   -9.2490   19.7360  -32.1460 C   0  0  0  0  0  0  0  0  0  0  0  0
   -8.4950   20.8240  -31.7010 C   0  0  0  0  0  0  0  0  0  0  0  0
   -9.1380   21.9620  -31.3320 F   0  0  0  0  0  0  0  0  0  0  0  0
   -7.0890   20.7440  -31.6670 C   0  0  0  0  0  0  0  0  0  0  0  0
   -6.2700   21.8880  -31.1990 C   0  0  0  0  0  0  0  0  0  0  0  0
   -6.8220   23.1950  -31.1710 C   0  0  0  0  0  0  0  0  0  0  0  0
   -6.0630   24.2850  -30.7140 C   0  0  0  0  0  0  0  0  0  0  0  0
   -4.7560   24.0440  -30.3040 C   0  0  0  0  0  0  0  0  0  0  0  0
   -3.8130   24.9090  -29.7970 C   0  0  0  0  0  0  0  0  0  0  0  0
   -2.6870   24.1250  -29.5510 C   0  0  0  0  0  0  0  0  0  0  0  0
   -1.4030   24.6750  -29.0690 C   0  0  0  0  0  0  0  0  0  0  0  0
   -1.2300   26.0870  -28.9630 N   0  0  0  0  0  0  0  0  0  0  0  0
   -0.4410   23.9140  -28.7810 O   0  0  0  0  0  0  0  0  0  0  0  0
   -2.9270   22.8260  -29.8880 N   0  0  0  0  0  0  0  0  0  0  0  0
   -2.0510   21.6980  -29.7440 C   0  0  0  0  0  0  0  0  0  0  0  0
   -0.9390   21.6890  -30.3390 O   0  0  0  0  0  0  0  0  0  0  0  0
   -2.4370   20.6270  -28.9230 O   0  0  0  0  0  0  0  0  0  0  0  0
   -1.8630   20.2750  -27.6560 C   0  0  0  0  0  0  0  0  0  0  0  0
   -0.6100   19.4010  -27.8520 C   0  0  0  0  0  0  0  0  0  0  0  0
   -1.5240   21.5400  -26.8440 C   0  0  0  0  0  0  0  0  0  0  0  0
   -2.9210   19.4660  -26.8910 C   0  0  0  0  0  0  0  0  0  0  0  0
   -4.1970   22.7930  -30.3490 C   0  0  0  0  0  0  0  0  0  0  0  0
   -4.9350   21.6850  -30.7810 C   0  0  0  0  0  0  0  0  0  0  0  0
   -6.4610   19.5600  -32.0940 C   0  0  0  0  0  0  0  0  0  0  0  0
   -2.3576   15.2370  -32.1292 H   0  0  0  0  0  0  0  0  0  0  0  0
   -2.7705   14.2615  -33.5800 H   0  0  0  0  0  0  0  0  0  0  0  0
   -3.0539   16.0353  -33.5800 H   0  0  0  0  0  0  0  0  0  0  0  0
   -4.7745   15.7450  -31.7768 H   0  0  0  0  0  0  0  0  0  0  0  0
   -4.4938   13.9250  -30.4757 H   0  0  0  0  0  0  0  0  0  0  0  0
   -5.4107   13.0587  -31.7545 H   0  0  0  0  0  0  0  0  0  0  0  0
   -3.6148   13.0203  -31.7545 H   0  0  0  0  0  0  0  0  0  0  0  0
   -6.4130   14.8030  -33.2230 H   0  0  0  0  0  0  0  0  0  0  0  0
   -4.1280   15.9692  -34.7216 H   0  0  0  0  0  0  0  0  0  0  0  0
   -5.6887   15.4700  -35.5062 H   0  0  0  0  0  0  0  0  0  0  0  0
   -6.4680   16.4950  -32.2760 H   0  0  0  0  0  0  0  0  0  0  0  0
   -9.2191   17.7101  -32.9115 H   0  0  0  0  0  0  0  0  0  0  0  0
  -10.3469   19.8017  -32.1626 H   0  0  0  0  0  0  0  0  0  0  0  0
   -7.8557   23.3563  -31.5109 H   0  0  0  0  0  0  0  0  0  0  0  0
   -6.4894   25.2985  -30.6814 H   0  0  0  0  0  0  0  0  0  0  0  0
   -3.9243   25.9894  -29.6229 H   0  0  0  0  0  0  0  0  0  0  0  0
   -0.8630   26.6460  -29.7640 H   0  0  0  0  0  0  0  0  0  0  0  0
   -0.2035   19.1174  -26.8700 H   0  0  0  0  0  0  0  0  0  0  0  0
   -0.8797   18.4940  -28.4130 H   0  0  0  0  0  0  0  0  0  0  0  0
    0.1480   19.9673  -28.4130 H   0  0  0  0  0  0  0  0  0  0  0  0
   -1.5848   21.3131  -25.7694 H   0  0  0  0  0  0  0  0  0  0  0  0
   -0.5051   21.8725  -27.0915 H   0  0  0  0  0  0  0  0  0  0  0  0
   -2.2401   22.3374  -27.0915 H   0  0  0  0  0  0  0  0  0  0  0  0
   -2.7632   19.5866  -25.8091 H   0  0  0  0  0  0  0  0  0  0  0  0
   -3.9243   19.8295  -27.1580 H   0  0  0  0  0  0  0  0  0  0  0  0
   -2.8332   18.4025  -27.1580 H   0  0  0  0  0  0  0  0  0  0  0  0
   -4.4870   20.6805  -30.7949 H   0  0  0  0  0  0  0  0  0  0  0  0
   -5.3641   19.4843  -32.0604 H   0  0  0  0  0  0  0  0  0  0  0  0
  1  2  1  0
  2  3  1  0
  2  4  1  0
  4  5  1  0
  5  6  1  0
  6  7  2  0
  6  8  1  0
  8  9  1  0
  9 10  2  0
 10 11  1  0
 11 12  2  0
 12 13  1  0
 12 14  1  0
 14 15  1  0
 15 16  2  0
 16 17  1  0
 17 18  2  0
 18 19  1  0
 19 20  2  0
 20 21  1  0
 21 22  1  0
 21 23  2  0
 20 24  1  0
 24 25  1  0
 25 26  2  0
 25 27  1  0
 27 28  1  0
 28 29  1  0
 28 30  1  0
 28 31  1  0
 24 32  1  0
 32 33  2  0
 14 34  2  0
 34  9  1  0
 33 15  1  0
 32 18  1  0
  1 35  1  0
  1 36  1  0
  1 37  1  0
  2 38  1  0
  3 39  1  0
  3 40  1  0
  3 41  1  0
  4 42  1  0
  5 43  1  0
  5 44  1  0
  8 45  1  0
 10 46  1  0
 11 47  1  0
 16 48  1  0
 17 49  1  0
 19 50  1  0
 22 51  1  0
 29 52  1  0
 29 53  1  0
 29 54  1  0
 30 55  1  0
 30 56  1  0
 30 57  1  0
 31 58  1  0
 31 59  1  0
 31 60  1  0
 33 61  1  0
 34 62  1  0
M  CHG  1  22  -1
M  END
>  <UniqueID>  (66) 
62

>  <SMILES>  (66) 
CC(C)NCC(=O)Nc1ccc(F)c(-c2ccc3cc(C([NH-])=O)n(C(=O)OC(C)(C)C)c3c2)c1

>  <Energy>  (66) 
103.50909602288601

>  <Genealogy>  (66) 
CC(C)NCC(=O)Nc1ccc(F)c(-c2ccc3cc(C([NH-])=O)n(C(=O)OC(C)(C)C)c3c2)c1 (protonated)
CC(C)NCC(=O)Nc1ccc(F)c(-c2ccc3cc(C([NH-])=O)n(C(=O)OC(C)(C)C)c3c2)c1 (3D coordinates assigned)
CC(C)NCC(=O)Nc1ccc(F)c(-c2ccc3cc(C([NH-])=O)n(C(=O)OC(C)(C)C)c3c2)c1 (optimized conformer: 103.50909602288601 kcal/mol)

>  <smiles>  (66) 
CC(C)NCC(=O)Nc1ccc(F)c(-c2ccc3cc(C(N)=O)n(C(=O)OC(C)(C)C)c3c2)c1

>  <score_type>  (66) 
oracle

>  <origin>  (66) 
adg

>  <m_score__min__energy>  (66) 
-11.359999999999999

>  <m_primary>  (66) 
energy

$$$$
67:0
     RDKit          3D

 28 29  0  0  0  0  0  0  0  0999 V2000
   -8.4470   23.0690  -31.7150 C   0  0  0  0  0  0  0  0  0  0  0  0
   -7.3370   22.7950  -30.7490 C   0  0  0  0  0  0  0  0  0  0  0  0
   -7.5720   22.8520  -29.5130 O   0  0  0  0  0  0  0  0  0  0  0  0
   -6.0220   22.4410  -31.2120 N   0  0  0  0  0  0  0  0  0  0  0  0
   -4.8820   23.1840  -31.1560 C   0  0  0  0  0  0  0  0  0  0  0  0
   -4.7180   24.4620  -30.4340 C   0  0  0  0  0  0  0  0  0  0  0  0
   -5.4590   24.7400  -29.2460 N   0  0  0  0  0  0  0  0  0  0  0  0
   -3.8720   25.3000  -30.8430 O   0  0  0  0  0  0  0  0  0  0  0  0
   -3.8450   22.5460  -31.8300 C   0  0  0  0  0  0  0  0  0  0  0  0
   -4.3840   21.3670  -32.2920 C   0  0  0  0  0  0  0  0  0  0  0  0
   -3.8030   20.3510  -33.0450 C   0  0  0  0  0  0  0  0  0  0  0  0
   -4.6090   19.2610  -33.4140 C   0  0  0  0  0  0  0  0  0  0  0  0
   -5.9700   19.2050  -33.0220 C   0  0  0  0  0  0  0  0  0  0  0  0
   -6.8320   18.0610  -33.4650 C   0  0  0  0  0  0  0  0  0  0  0  0
   -6.5300   20.2630  -32.2730 C   0  0  0  0  0  0  0  0  0  0  0  0
   -5.6990   21.3270  -31.9060 C   0  0  0  0  0  0  0  0  0  0  0  0
   -9.3687   23.2965  -31.1595 H   0  0  0  0  0  0  0  0  0  0  0  0
   -8.1788   23.9279  -32.3477 H   0  0  0  0  0  0  0  0  0  0  0  0
   -8.6093   22.1839  -32.3477 H   0  0  0  0  0  0  0  0  0  0  0  0
   -6.0400   24.0030  -28.7870 H   0  0  0  0  0  0  0  0  0  0  0  0
   -5.3630   25.6660  -28.7730 H   0  0  0  0  0  0  0  0  0  0  0  0
   -2.8147   22.9069  -31.9647 H   0  0  0  0  0  0  0  0  0  0  0  0
   -2.7450   20.3999  -33.3422 H   0  0  0  0  0  0  0  0  0  0  0  0
   -4.1800   18.4438  -34.0124 H   0  0  0  0  0  0  0  0  0  0  0  0
   -7.2272   17.5365  -32.5825 H   0  0  0  0  0  0  0  0  0  0  0  0
   -7.6679   18.4441  -34.0687 H   0  0  0  0  0  0  0  0  0  0  0  0
   -6.2333   17.3631  -34.0687 H   0  0  0  0  0  0  0  0  0  0  0  0
   -7.5917   20.2509  -31.9856 H   0  0  0  0  0  0  0  0  0  0  0  0
  1  2  1  0
  2  3  2  0
  2  4  1  0
  4  5  1  0
  5  6  1  0
  6  7  1  0
  6  8  2  0
  5  9  2  0
  9 10  1  0
 10 11  2  0
 11 12  1  0
 12 13  2  0
 13 14  1  0
 13 15  1  0
 15 16  2  0
 16  4  1  0
 16 10  1  0
  1 17  1  0
  1 18  1  0
  1 19  1  0
  7 20  1  0
  7 21  1  0
  9 22  1  0
 11 23  1  0
 12 24  1  0
 14 25  1  0
 14 26  1  0
 14 27  1  0
 15 28  1  0
M  END
>  <UniqueID>  (67) 
63

>  <SMILES>  (67) 
CC(=O)n1c(C(N)=O)cc2ccc(C)cc21

>  <Energy>  (67) 
66.8540666951267

>  <Genealogy>  (67) 
CC(=O)n1c(C(N)=O)cc2ccc(C)cc21 (3D coordinates assigned)
CC(=O)n1c(C(N)=O)cc2ccc(C)cc21 (optimized conformer: 66.8540666951267 kcal/mol)

>  <smiles>  (67) 
CC(=O)n1c(C(N)=O)cc2ccc(C)cc21

>  <score_type>  (67) 
oracle

>  <origin>  (67) 
adg

>  <m_score__min__energy>  (67) 
-7.5099999999999998

>  <m_primary>  (67) 
energy

$$$$
68:0
     RDKit          3D

 42 44  0  0  0  0  0  0  0  0999 V2000
   -9.0770   20.3790  -31.5520 C   0  0  0  0  0  0  0  0  0  0  0  0
   -8.7040   18.9060  -31.7270 C   0  0  0  0  0  0  0  0  0  0  0  0
   -7.5550   18.7360  -32.6450 N   0  0  0  0  0  0  0  0  0  0  0  0
   -7.3180   19.9690  -33.4450 C   0  0  0  0  0  0  0  0  0  0  0  0
   -6.1020   20.7720  -32.9640 C   0  0  0  0  0  0  0  0  0  0  0  0
   -4.8230   19.9250  -33.1050 C   0  0  0  0  0  0  0  0  0  0  0  0
   -3.6740   20.5420  -32.3300 C   0  0  0  0  0  0  0  0  0  0  0  0
   -2.4240   19.8770  -32.2240 C   0  0  0  0  0  0  0  0  0  0  0  0
   -1.3680   20.4400  -31.4880 C   0  0  0  0  0  0  0  0  0  0  0  0
   -1.5840   21.6690  -30.8730 C   0  0  0  0  0  0  0  0  0  0  0  0
   -0.7460   22.4200  -30.0810 C   0  0  0  0  0  0  0  0  0  0  0  0
   -1.4850   23.5470  -29.7280 C   0  0  0  0  0  0  0  0  0  0  0  0
   -0.9280   24.6660  -28.9410 C   0  0  0  0  0  0  0  0  0  0  0  0
   -1.5580   25.9440  -28.9350 N   0  0  0  0  0  0  0  0  0  0  0  0
    0.1480   24.5070  -28.3030 O   0  0  0  0  0  0  0  0  0  0  0  0
   -2.7340   23.4900  -30.2720 N   0  0  0  0  0  0  0  0  0  0  0  0
   -3.8220   24.4070  -30.0790 C   0  0  0  0  0  0  0  0  0  0  0  0
   -4.7680   24.1180  -29.3000 O   0  0  0  0  0  0  0  0  0  0  0  0
   -3.8540   25.6130  -30.7700 O   0  0  0  0  0  0  0  0  0  0  0  0
   -2.7760   22.3350  -30.9730 C   0  0  0  0  0  0  0  0  0  0  0  0
   -3.8520   21.7890  -31.6830 C   0  0  0  0  0  0  0  0  0  0  0  0
   -5.0620   18.4390  -32.7310 C   0  0  0  0  0  0  0  0  0  0  0  0
   -6.3540   18.2390  -31.9230 C   0  0  0  0  0  0  0  0  0  0  0  0
   -9.1373   20.6171  -30.4798 H   0  0  0  0  0  0  0  0  0  0  0  0
   -8.3103   21.0101  -32.0252 H   0  0  0  0  0  0  0  0  0  0  0  0
  -10.0516   20.5692  -32.0252 H   0  0  0  0  0  0  0  0  0  0  0  0
   -8.4405   18.4862  -30.7450 H   0  0  0  0  0  0  0  0  0  0  0  0
   -9.5690   18.3831  -32.1609 H   0  0  0  0  0  0  0  0  0  0  0  0
   -7.1547   19.6802  -34.4938 H   0  0  0  0  0  0  0  0  0  0  0  0
   -8.2032   20.6116  -33.3288 H   0  0  0  0  0  0  0  0  0  0  0  0
   -6.0040   21.6839  -33.5714 H   0  0  0  0  0  0  0  0  0  0  0  0
   -6.2422   21.0417  -31.9068 H   0  0  0  0  0  0  0  0  0  0  0  0
   -4.5372   19.9271  -34.1672 H   0  0  0  0  0  0  0  0  0  0  0  0
   -2.2805   18.9082  -32.7248 H   0  0  0  0  0  0  0  0  0  0  0  0
   -0.4000   19.9248  -31.4007 H   0  0  0  0  0  0  0  0  0  0  0  0
    0.2873   22.1813  -29.7888 H   0  0  0  0  0  0  0  0  0  0  0  0
   -2.5990   26.0300  -28.9650 H   0  0  0  0  0  0  0  0  0  0  0  0
   -4.8152   22.3174  -31.7371 H   0  0  0  0  0  0  0  0  0  0  0  0
   -5.1290   17.8481  -33.6564 H   0  0  0  0  0  0  0  0  0  0  0  0
   -4.2199   18.1113  -32.1038 H   0  0  0  0  0  0  0  0  0  0  0  0
   -6.4820   17.1653  -31.7211 H   0  0  0  0  0  0  0  0  0  0  0  0
   -6.2599   18.8153  -30.9908 H   0  0  0  0  0  0  0  0  0  0  0  0
  1  2  1  0
  2  3  1  0
  3  4  1  0
  4  5  1  0
  5  6  1  0
  6  7  1  0
  7  8  2  0
  8  9  1  0
  9 10  2  0
 10 11  1  0
 11 12  2  0
 12 13  1  0
 13 14  1  0
 13 15  2  0
 12 16  1  0
 16 17  1  0
 17 18  2  0
 17 19  1  0
 16 20  1  0
 20 21  2  0
  6 22  1  0
 22 23  1  0
 23  3  1  0
 21  7  1  0
 20 10  1  0
  1 24  1  0
  1 25  1  0
  1 26  1  0
  2 27  1  0
  2 28  1  0
  4 29  1  0
  4 30  1  0
  5 31  1  0
  5 32  1  0
  6 33  1  0
  8 34  1  0
  9 35  1  0
 11 36  1  0
 14 37  1  0
 21 38  1  0
 22 39  1  0
 22 40  1  0
 23 41  1  0
 23 42  1  0
M  CHG  2  14  -1  19  -1
M  END
>  <UniqueID>  (68) 
64

>  <SMILES>  (68) 
CCN1CCC(c2ccc3cc(C([NH-])=O)n(C(=O)[O-])c3c2)CC1

>  <Energy>  (68) 
91.52897782868087

>  <Genealogy>  (68) 
CCN1CCC(c2ccc3cc(C([NH-])=O)n(C(=O)[O-])c3c2)CC1 (protonated)
CCN1CCC(c2ccc3cc(C([NH-])=O)n(C(=O)[O-])c3c2)CC1 (3D coordinates assigned)
CCN1CCC(c2ccc3cc(C([NH-])=O)n(C(=O)[O-])c3c2)CC1 (nonaromatic ring conformer: 91.52897782868087 kcal/mol)

>  <smiles>  (68) 
CCN1CCC(c2ccc3cc(C(N)=O)n(C(=O)O)c3c2)CC1

>  <score_type>  (68) 
oracle

>  <origin>  (68) 
adg

>  <m_score__min__energy>  (68) 
-12.640000000000001

>  <m_primary>  (68) 
energy

$$$$
69:0
     RDKit          3D

 65 69  0  0  0  0  0  0  0  0999 V2000
    0.2580   21.8690  -35.6570 C   0  0  0  0  0  0  0  0  0  0  0  0
    0.9240   21.1080  -34.5860 N   0  0  0  0  0  0  0  0  0  0  0  0
    1.1700   19.7070  -34.9460 C   0  0  0  0  0  0  0  0  0  0  0  0
   -0.1220   18.9000  -35.1250 C   0  0  0  0  0  0  0  0  0  0  0  0
   -1.2170   19.2610  -34.1970 N   0  0  0  0  0  0  0  0  0  0  0  0
   -2.4690   18.5070  -34.2580 C   0  0  0  0  0  0  0  0  0  0  0  0
   -2.5170   17.1850  -34.7880 C   0  0  0  0  0  0  0  0  0  0  0  0
   -3.7170   16.4610  -34.8300 C   0  0  0  0  0  0  0  0  0  0  0  0
   -4.8590   17.0600  -34.3160 C   0  0  0  0  0  0  0  0  0  0  0  0
   -6.0890   16.5080  -34.2910 N   0  0  0  0  0  0  0  0  0  0  0  0
   -6.8530   17.4640  -33.7120 C   0  0  0  0  0  0  0  0  0  0  0  0
   -6.0710   18.5630  -33.3920 C   0  0  0  0  0  0  0  0  0  0  0  0
   -6.5350   19.7920  -32.7100 C   0  0  0  0  0  0  0  0  0  0  0  0
   -7.9180   19.9880  -32.4730 C   0  0  0  0  0  0  0  0  0  0  0  0
   -8.3770   21.1640  -31.8610 C   0  0  0  0  0  0  0  0  0  0  0  0
   -7.4360   22.1200  -31.4900 C   0  0  0  0  0  0  0  0  0  0  0  0
   -7.6210   23.3580  -30.9270 C   0  0  0  0  0  0  0  0  0  0  0  0
   -6.3480   23.9030  -30.8180 C   0  0  0  0  0  0  0  0  0  0  0  0
   -6.1100   25.2660  -30.3160 C   0  0  0  0  0  0  0  0  0  0  0  0
   -5.0220   26.0460  -30.8100 N   0  0  0  0  0  0  0  0  0  0  0  0
   -6.9180   25.7740  -29.4940 O   0  0  0  0  0  0  0  0  0  0  0  0
   -5.3960   23.0310  -31.2630 N   0  0  0  0  0  0  0  0  0  0  0  0
   -3.9610   23.2080  -31.2220 C   0  0  0  0  0  0  0  0  0  0  0  0
   -3.2150   22.5000  -31.9480 O   0  0  0  0  0  0  0  0  0  0  0  0
   -3.3960   24.1510  -30.3520 O   0  0  0  0  0  0  0  0  0  0  0  0
   -2.9350   23.9110  -29.0150 C   0  0  0  0  0  0  0  0  0  0  0  0
   -1.7970   24.9070  -28.7420 C   0  0  0  0  0  0  0  0  0  0  0  0
   -2.3820   22.4760  -28.8800 C   0  0  0  0  0  0  0  0  0  0  0  0
   -4.0680   24.1570  -28.0000 C   0  0  0  0  0  0  0  0  0  0  0  0
   -6.0890   21.9390  -31.6820 C   0  0  0  0  0  0  0  0  0  0  0  0
   -5.6070   20.7640  -32.2780 C   0  0  0  0  0  0  0  0  0  0  0  0
   -4.8130   18.2940  -33.7930 N   0  0  0  0  0  0  0  0  0  0  0  0
   -3.6860   19.0560  -33.7750 C   0  0  0  0  0  0  0  0  0  0  0  0
   -1.1550   20.4660  -33.3390 C   0  0  0  0  0  0  0  0  0  0  0  0
    0.2090   21.1720  -33.3070 C   0  0  0  0  0  0  0  0  0  0  0  0
   -0.4044   22.6259  -35.2116 H   0  0  0  0  0  0  0  0  0  0  0  0
    1.0164   22.3662  -36.2796 H   0  0  0  0  0  0  0  0  0  0  0  0
   -0.3354   21.1832  -36.2796 H   0  0  0  0  0  0  0  0  0  0  0  0
    1.7334   19.6812  -35.8904 H   0  0  0  0  0  0  0  0  0  0  0  0
    1.7334   19.2484  -34.1200 H   0  0  0  0  0  0  0  0  0  0  0  0
   -0.4811   19.0539  -36.1533 H   0  0  0  0  0  0  0  0  0  0  0  0
    0.1356   17.8534  -34.9052 H   0  0  0  0  0  0  0  0  0  0  0  0
   -1.5950   16.7237  -35.1715 H   0  0  0  0  0  0  0  0  0  0  0  0
   -3.7525   15.4482  -35.2577 H   0  0  0  0  0  0  0  0  0  0  0  0
   -7.9336   17.3810  -33.5235 H   0  0  0  0  0  0  0  0  0  0  0  0
   -8.6379   19.2116  -32.7713 H   0  0  0  0  0  0  0  0  0  0  0  0
   -9.4498   21.3258  -31.6796 H   0  0  0  0  0  0  0  0  0  0  0  0
   -8.5732   23.8196  -30.6265 H   0  0  0  0  0  0  0  0  0  0  0  0
   -4.3980   25.6750  -31.5610 H   0  0  0  0  0  0  0  0  0  0  0  0
   -4.8530   27.0070  -30.4410 H   0  0  0  0  0  0  0  0  0  0  0  0
   -1.6641   25.0233  -27.6563 H   0  0  0  0  0  0  0  0  0  0  0  0
   -0.8646   24.5295  -29.1872 H   0  0  0  0  0  0  0  0  0  0  0  0
   -2.0477   25.8812  -29.1872 H   0  0  0  0  0  0  0  0  0  0  0  0
   -2.2833   22.2198  -27.8148 H   0  0  0  0  0  0  0  0  0  0  0  0
   -3.0724   21.7699  -29.3645 H   0  0  0  0  0  0  0  0  0  0  0  0
   -1.3963   22.4158  -29.3645 H   0  0  0  0  0  0  0  0  0  0  0  0
   -3.6700   24.0706  -26.9782 H   0  0  0  0  0  0  0  0  0  0  0  0
   -4.4808   25.1657  -28.1486 H   0  0  0  0  0  0  0  0  0  0  0  0
   -4.8620   23.4103  -28.1486 H   0  0  0  0  0  0  0  0  0  0  0  0
   -4.5264   20.6032  -32.4062 H   0  0  0  0  0  0  0  0  0  0  0  0
   -3.7174   20.0861  -33.3905 H   0  0  0  0  0  0  0  0  0  0  0  0
   -1.9025   21.1847  -33.7059 H   0  0  0  0  0  0  0  0  0  0  0  0
   -1.3466   20.1217  -32.3120 H   0  0  0  0  0  0  0  0  0  0  0  0
    0.0493   22.2292  -33.0485 H   0  0  0  0  0  0  0  0  0  0  0  0
    0.8280   20.6526  -32.5607 H   0  0  0  0  0  0  0  0  0  0  0  0
  1  2  1  0
  2  3  1  0
  3  4  1  0
  4  5  1  0
  5  6  1  0
  6  7  1  0
  7  8  2  0
  8  9  1  0
  9 10  2  0
 10 11  1  0
 11 12  2  0
 12 13  1  0
 13 14  2  0
 14 15  1  0
 15 16  2  0
 16 17  1  0
 17 18  2  0
 18 19  1  0
 19 20  1  0
 19 21  2  0
 18 22  1  0
 22 23  1  0
 23 24  2  0
 23 25  1  0
 25 26  1  0
 26 27  1  0
 26 28  1  0
 26 29  1  0
 22 30  1  0
 30 31  2  0
 12 32  1  0
 32 33  1  0
  5 34  1  0
 34 35  1  0
 35  2  1  0
 33  6  2  0
 32  9  1  0
 31 13  1  0
 30 16  1  0
  1 36  1  0
  1 37  1  0
  1 38  1  0
  3 39  1  0
  3 40  1  0
  4 41  1  0
  4 42  1  0
  7 43  1  0
  8 44  1  0
 11 45  1  0
 14 46  1  0
 15 47  1  0
 17 48  1  0
 20 49  1  0
 20 50  1  0
 27 51  1  0
 27 52  1  0
 27 53  1  0
 28 54  1  0
 28 55  1  0
 28 56  1  0
 29 57  1  0
 29 58  1  0
 29 59  1  0
 31 60  1  0
 33 61  1  0
 34 62  1  0
 34 63  1  0
 35 64  1  0
 35 65  1  0
M  END
>  <UniqueID>  (69) 
65

>  <SMILES>  (69) 
CN1CCN(c2ccc3ncc(-c4ccc5cc(C(N)=O)n(C(=O)OC(C)(C)C)c5c4)n3c2)CC1

>  <Energy>  (69) 
156.08034339661856

>  <Genealogy>  (69) 
CN1CCN(c2ccc3ncc(-c4ccc5cc(C(N)=O)n(C(=O)OC(C)(C)C)c5c4)n3c2)CC1 (3D coordinates assigned)
CN1CCN(c2ccc3ncc(-c4ccc5cc(C(N)=O)n(C(=O)OC(C)(C)C)c5c4)n3c2)CC1 (nonaromatic ring conformer: 156.08034339661856 kcal/mol)

>  <smiles>  (69) 
CN1CCN(c2ccc3ncc(-c4ccc5cc(C(N)=O)n(C(=O)OC(C)(C)C)c5c4)n3c2)CC1

>  <score_type>  (69) 
oracle

>  <origin>  (69) 
adg

>  <m_score__min__energy>  (69) 
-11.300000000000001

>  <m_primary>  (69) 
energy

$$$$
70:0
     RDKit          3D

 47 49  0  0  0  0  0  0  0  0999 V2000
   -2.0020   20.0960  -31.3250 C   0  0  0  0  0  0  0  0  0  0  0  0
   -1.8340   20.8490  -32.6580 C   0  0  0  0  0  0  0  0  0  0  0  0
   -0.3510   21.2040  -32.8440 C   0  0  0  0  0  0  0  0  0  0  0  0
   -2.2890   19.9720  -33.8400 C   0  0  0  0  0  0  0  0  0  0  0  0
   -2.5640   22.0830  -32.6370 O   0  0  0  0  0  0  0  0  0  0  0  0
   -3.2210   22.6440  -31.5310 C   0  0  0  0  0  0  0  0  0  0  0  0
   -2.5740   23.0340  -30.5220 O   0  0  0  0  0  0  0  0  0  0  0  0
   -4.6530   22.7460  -31.5410 N   0  0  0  0  0  0  0  0  0  0  0  0
   -5.4230   23.7910  -31.1260 C   0  0  0  0  0  0  0  0  0  0  0  0
   -4.9330   25.1250  -30.7190 C   0  0  0  0  0  0  0  0  0  0  0  0
   -3.6120   25.2980  -30.2120 N   0  0  0  0  0  0  0  0  0  0  0  0
   -5.6740   26.1330  -30.8660 O   0  0  0  0  0  0  0  0  0  0  0  0
   -6.7750   23.4640  -31.2110 C   0  0  0  0  0  0  0  0  0  0  0  0
   -6.8090   22.1800  -31.7050 C   0  0  0  0  0  0  0  0  0  0  0  0
   -7.8950   21.3560  -31.9820 C   0  0  0  0  0  0  0  0  0  0  0  0
   -7.6350   20.0610  -32.4600 C   0  0  0  0  0  0  0  0  0  0  0  0
   -6.3020   19.6080  -32.6480 C   0  0  0  0  0  0  0  0  0  0  0  0
   -6.0370   18.2340  -33.1440 C   0  0  0  0  0  0  0  0  0  0  0  0
   -7.0970   17.3380  -33.3690 C   0  0  0  0  0  0  0  0  0  0  0  0
   -6.8480   16.0430  -33.8310 C   0  0  0  0  0  0  0  0  0  0  0  0
   -5.5330   15.6140  -34.0810 C   0  0  0  0  0  0  0  0  0  0  0  0
   -5.2660   14.2410  -34.5700 C   0  0  0  0  0  0  0  0  0  0  0  0
   -3.9640   13.8720  -35.0220 N   0  0  0  0  0  0  0  0  0  0  0  0
   -6.1890   13.3820  -34.5910 O   0  0  0  0  0  0  0  0  0  0  0  0
   -4.4730   16.5100  -33.8570 C   0  0  0  0  0  0  0  0  0  0  0  0
   -4.7230   17.8050  -33.3930 C   0  0  0  0  0  0  0  0  0  0  0  0
   -5.2260   20.4790  -32.3530 C   0  0  0  0  0  0  0  0  0  0  0  0
   -5.5160   21.7700  -31.8960 C   0  0  0  0  0  0  0  0  0  0  0  0
   -1.8465   20.7928  -30.4882 H   0  0  0  0  0  0  0  0  0  0  0  0
   -3.0163   19.6743  -31.2674 H   0  0  0  0  0  0  0  0  0  0  0  0
   -1.2631   19.2831  -31.2674 H   0  0  0  0  0  0  0  0  0  0  0  0
    0.1251   21.3180  -31.8589 H   0  0  0  0  0  0  0  0  0  0  0  0
    0.1510   20.4006  -33.4031 H   0  0  0  0  0  0  0  0  0  0  0  0
   -0.2672   22.1476  -33.4031 H   0  0  0  0  0  0  0  0  0  0  0  0
   -2.7637   19.0569  -33.4562 H   0  0  0  0  0  0  0  0  0  0  0  0
   -3.0113   20.5300  -34.4539 H   0  0  0  0  0  0  0  0  0  0  0  0
   -1.4168   19.7028  -34.4539 H   0  0  0  0  0  0  0  0  0  0  0  0
   -2.7810   25.2050  -30.8380 H   0  0  0  0  0  0  0  0  0  0  0  0
   -7.6327   24.0975  -30.9407 H   0  0  0  0  0  0  0  0  0  0  0  0
   -8.9262   21.7079  -31.8313 H   0  0  0  0  0  0  0  0  0  0  0  0
   -8.4745   19.3891  -32.6917 H   0  0  0  0  0  0  0  0  0  0  0  0
   -8.1318   17.6595  -33.1796 H   0  0  0  0  0  0  0  0  0  0  0  0
   -7.6881   15.3535  -34.0005 H   0  0  0  0  0  0  0  0  0  0  0  0
   -3.3430   14.5660  -35.4950 H   0  0  0  0  0  0  0  0  0  0  0  0
   -3.4383   16.1895  -34.0484 H   0  0  0  0  0  0  0  0  0  0  0  0
   -3.8830   18.4941  -33.2214 H   0  0  0  0  0  0  0  0  0  0  0  0
   -4.1845   20.1486  -32.4801 H   0  0  0  0  0  0  0  0  0  0  0  0
  1  2  1  0
  2  3  1  0
  2  4  1  0
  2  5  1  0
  5  6  1  0
  6  7  2  0
  6  8  1  0
  8  9  1  0
  9 10  1  0
 10 11  1  0
 10 12  2  0
  9 13  2  0
 13 14  1  0
 14 15  2  0
 15 16  1  0
 16 17  2  0
 17 18  1  0
 18 19  2  0
 19 20  1  0
 20 21  2  0
 21 22  1  0
 22 23  1  0
 22 24  2  0
 21 25  1  0
 25 26  2  0
 17 27  1  0
 27 28  2  0
 28  8  1  0
 28 14  1  0
 26 18  1  0
  1 29  1  0
  1 30  1  0
  1 31  1  0
  3 32  1  0
  3 33  1  0
  3 34  1  0
  4 35  1  0
  4 36  1  0
  4 37  1  0
 11 38  1  0
 13 39  1  0
 15 40  1  0
 16 41  1  0
 19 42  1  0
 20 43  1  0
 23 44  1  0
 25 45  1  0
 26 46  1  0
 27 47  1  0
M  CHG  2  11  -1  23  -1
M  END
>  <UniqueID>  (70) 
66

>  <SMILES>  (70) 
CC(C)(C)OC(=O)n1c(C([NH-])=O)cc2ccc(-c3ccc(C([NH-])=O)cc3)cc21

>  <Energy>  (70) 
88.86370167659746

>  <Genealogy>  (70) 
CC(C)(C)OC(=O)n1c(C([NH-])=O)cc2ccc(-c3ccc(C([NH-])=O)cc3)cc21 (protonated)
CC(C)(C)OC(=O)n1c(C([NH-])=O)cc2ccc(-c3ccc(C([NH-])=O)cc3)cc21 (3D coordinates assigned)
CC(C)(C)OC(=O)n1c(C([NH-])=O)cc2ccc(-c3ccc(C([NH-])=O)cc3)cc21 (optimized conformer: 88.86370167659746 kcal/mol)

>  <smiles>  (70) 
CC(C)(C)OC(=O)n1c(C(N)=O)cc2ccc(-c3ccc(C(N)=O)cc3)cc21

>  <score_type>  (70) 
oracle

>  <origin>  (70) 
adg

>  <m_score__min__energy>  (70) 
-10.77

>  <m_primary>  (70) 
energy

$$$$
71:0
     RDKit          3D

 62 65  0  0  0  0  0  0  0  0999 V2000
   -2.0680   20.8980  -30.0260 C   0  0  0  0  0  0  0  0  0  0  0  0
   -2.2430   22.3610  -29.5750 C   0  0  0  0  0  0  0  0  0  0  0  0
   -3.2440   22.4050  -28.4110 C   0  0  0  0  0  0  0  0  0  0  0  0
   -0.9000   22.9460  -29.0990 C   0  0  0  0  0  0  0  0  0  0  0  0
   -2.7900   23.1570  -30.6350 O   0  0  0  0  0  0  0  0  0  0  0  0
   -3.6150   22.7090  -31.6770 C   0  0  0  0  0  0  0  0  0  0  0  0
   -3.1210   22.2620  -32.7480 O   0  0  0  0  0  0  0  0  0  0  0  0
   -5.0410   22.7750  -31.5220 N   0  0  0  0  0  0  0  0  0  0  0  0
   -5.7720   23.8110  -31.0210 C   0  0  0  0  0  0  0  0  0  0  0  0
   -5.2320   25.0140  -30.3580 C   0  0  0  0  0  0  0  0  0  0  0  0
   -4.0460   25.6420  -30.8330 N   0  0  0  0  0  0  0  0  0  0  0  0
   -5.7930   25.4610  -29.3230 O   0  0  0  0  0  0  0  0  0  0  0  0
   -7.1340   23.5460  -31.1290 C   0  0  0  0  0  0  0  0  0  0  0  0
   -7.2180   22.3000  -31.7060 C   0  0  0  0  0  0  0  0  0  0  0  0
   -8.3370   21.5460  -32.0370 C   0  0  0  0  0  0  0  0  0  0  0  0
   -8.1330   20.2900  -32.6300 C   0  0  0  0  0  0  0  0  0  0  0  0
   -6.8230   19.8160  -32.9020 C   0  0  0  0  0  0  0  0  0  0  0  0
   -6.6430   18.4300  -33.5060 C   0  0  0  0  0  0  0  0  0  0  0  0
   -5.8080   17.5230  -32.5810 C   0  0  0  0  0  0  0  0  0  0  0  0
   -4.2850   17.7410  -32.7120 C   0  0  0  0  0  0  0  0  0  0  0  0
   -3.8340   18.1120  -34.0790 N   0  0  0  0  0  0  0  0  0  0  0  0
   -2.4820   17.5710  -34.3360 C   0  0  0  0  0  0  0  0  0  0  0  0
   -1.4090   18.5000  -33.8110 C   0  0  0  0  0  0  0  0  0  0  0  0
   -1.3760   19.8220  -34.2900 C   0  0  0  0  0  0  0  0  0  0  0  0
   -0.4040   20.7150  -33.8390 C   0  0  0  0  0  0  0  0  0  0  0  0
    0.5530   20.3010  -32.9150 C   0  0  0  0  0  0  0  0  0  0  0  0
    0.5460   18.9910  -32.4310 C   0  0  0  0  0  0  0  0  0  0  0  0
    1.7780   18.5200  -31.2670 Cl  0  0  0  0  0  0  0  0  0  0  0  0
   -0.4330   18.0800  -32.8740 C   0  0  0  0  0  0  0  0  0  0  0  0
   -0.4130   16.4250  -32.2510 Cl  0  0  0  0  0  0  0  0  0  0  0  0
   -4.7910   17.6910  -35.1220 C   0  0  0  0  0  0  0  0  0  0  0  0
   -6.1040   18.4650  -34.9610 C   0  0  0  0  0  0  0  0  0  0  0  0
   -5.7090   20.6180  -32.5520 C   0  0  0  0  0  0  0  0  0  0  0  0
   -5.9420   21.8540  -31.9360 C   0  0  0  0  0  0  0  0  0  0  0  0
   -1.9903   20.2485  -29.1416 H   0  0  0  0  0  0  0  0  0  0  0  0
   -2.9362   20.5939  -30.6292 H   0  0  0  0  0  0  0  0  0  0  0  0
   -1.1526   20.8072  -30.6292 H   0  0  0  0  0  0  0  0  0  0  0  0
   -2.6977   22.3810  -27.4565 H   0  0  0  0  0  0  0  0  0  0  0  0
   -3.8362   23.3300  -28.4714 H   0  0  0  0  0  0  0  0  0  0  0  0
   -3.9150   21.5355  -28.4714 H   0  0  0  0  0  0  0  0  0  0  0  0
   -0.8741   22.9573  -27.9994 H   0  0  0  0  0  0  0  0  0  0  0  0
   -0.0747   22.3258  -29.4789 H   0  0  0  0  0  0  0  0  0  0  0  0
   -0.7921   23.9727  -29.4789 H   0  0  0  0  0  0  0  0  0  0  0  0
   -3.1030   25.2940  -30.5510 H   0  0  0  0  0  0  0  0  0  0  0  0
   -7.9663   24.1949  -30.8189 H   0  0  0  0  0  0  0  0  0  0  0  0
   -9.3520   21.9218  -31.8404 H   0  0  0  0  0  0  0  0  0  0  0  0
   -9.0004   19.6645  -32.8874 H   0  0  0  0  0  0  0  0  0  0  0  0
   -7.6449   17.9824  -33.5832 H   0  0  0  0  0  0  0  0  0  0  0  0
   -6.0999   17.7251  -31.5399 H   0  0  0  0  0  0  0  0  0  0  0  0
   -6.0119   16.4838  -32.8785 H   0  0  0  0  0  0  0  0  0  0  0  0
   -3.9920   18.5464  -32.0224 H   0  0  0  0  0  0  0  0  0  0  0  0
   -3.8081   16.7787  -32.4740 H   0  0  0  0  0  0  0  0  0  0  0  0
   -2.3860   16.5950  -33.8379 H   0  0  0  0  0  0  0  0  0  0  0  0
   -2.3503   17.4678  -35.4232 H   0  0  0  0  0  0  0  0  0  0  0  0
   -2.1227   20.1544  -35.0262 H   0  0  0  0  0  0  0  0  0  0  0  0
   -0.3930   21.7491  -34.2140 H   0  0  0  0  0  0  0  0  0  0  0  0
    1.3181   21.0096  -32.5649 H   0  0  0  0  0  0  0  0  0  0  0  0
   -4.3642   17.8974  -36.1146 H   0  0  0  0  0  0  0  0  0  0  0  0
   -4.9886   16.6136  -35.0216 H   0  0  0  0  0  0  0  0  0  0  0  0
   -5.9327   19.5130  -35.2481 H   0  0  0  0  0  0  0  0  0  0  0  0
   -6.8548   17.9851  -35.6060 H   0  0  0  0  0  0  0  0  0  0  0  0
   -4.6838   20.2776  -32.7594 H   0  0  0  0  0  0  0  0  0  0  0  0
  1  2  1  0
  2  3  1  0
  2  4  1  0
  2  5  1  0
  5  6  1  0
  6  7  2  0
  6  8  1  0
  8  9  1  0
  9 10  1  0
 10 11  1  0
 10 12  2  0
  9 13  2  0
 13 14  1  0
 14 15  2  0
 15 16  1  0
 16 17  2  0
 17 18  1  0
 18 19  1  0
 19 20  1  0
 20 21  1  0
 21 22  1  0
 22 23  1  0
 23 24  2  0
 24 25  1  0
 25 26  2  0
 26 27  1  0
 27 28  1  0
 27 29  2  0
 29 30  1  0
 21 31  1  0
 31 32  1  0
 17 33  1  0
 33 34  2  0
 34  8  1  0
 34 14  1  0
 32 18  1  0
 29 23  1  0
  1 35  1  0
  1 36  1  0
  1 37  1  0
  3 38  1  0
  3 39  1  0
  3 40  1  0
  4 41  1  0
  4 42  1  0
  4 43  1  0
 11 44  1  0
 13 45  1  0
 15 46  1  0
 16 47  1  0
 18 48  1  0
 19 49  1  0
 19 50  1  0
 20 51  1  0
 20 52  1  0
 22 53  1  0
 22 54  1  0
 24 55  1  0
 25 56  1  0
 26 57  1  0
 31 58  1  0
 31 59  1  0
 32 60  1  0
 32 61  1  0
 33 62  1  0
M  CHG  1  11  -1
M  END
>  <UniqueID>  (71) 
67

>  <SMILES>  (71) 
CC(C)(C)OC(=O)n1c(C([NH-])=O)cc2ccc(C3CCN(Cc4cccc(Cl)c4Cl)CC3)cc21

>  <Energy>  (71) 
109.8150298144902

>  <Genealogy>  (71) 
CC(C)(C)OC(=O)n1c(C([NH-])=O)cc2ccc(C3CCN(Cc4cccc(Cl)c4Cl)CC3)cc21 (protonated)
CC(C)(C)OC(=O)n1c(C([NH-])=O)cc2ccc(C3CCN(Cc4cccc(Cl)c4Cl)CC3)cc21 (3D coordinates assigned)
CC(C)(C)OC(=O)n1c(C([NH-])=O)cc2ccc(C3CCN(Cc4cccc(Cl)c4Cl)CC3)cc21 (nonaromatic ring conformer: 109.8150298144902 kcal/mol)

>  <smiles>  (71) 
CC(C)(C)OC(=O)n1c(C(N)=O)cc2ccc(C3CCN(Cc4cccc(Cl)c4Cl)CC3)cc21

>  <score_type>  (71) 
oracle

>  <origin>  (71) 
adg

>  <m_score__min__energy>  (71) 
-12.449999999999999

>  <m_primary>  (71) 
energy

$$$$
72:0
     RDKit          3D

 62 64  0  0  0  0  0  0  0  0999 V2000
   -4.6190   15.4910  -32.6300 C   0  0  0  0  0  0  0  0  0  0  0  0
   -5.7490   16.3300  -32.4400 O   0  0  0  0  0  0  0  0  0  0  0  0
   -6.5180   16.8130  -33.5050 C   0  0  0  0  0  0  0  0  0  0  0  0
   -6.7350   16.0940  -34.5190 O   0  0  0  0  0  0  0  0  0  0  0  0
   -7.0810   18.2020  -33.4430 C   0  0  1  0  0  0  0  0  0  0  0  0
   -7.6280   18.5160  -32.0360 C   0  0  0  0  0  0  0  0  0  0  0  0
   -7.6080   19.9970  -31.7560 C   0  0  0  0  0  0  0  0  0  0  0  0
   -8.8000   20.7590  -31.8370 C   0  0  0  0  0  0  0  0  0  0  0  0
   -8.7740   22.1500  -31.6350 C   0  0  0  0  0  0  0  0  0  0  0  0
   -7.5490   22.7450  -31.3500 C   0  0  0  0  0  0  0  0  0  0  0  0
   -7.2310   24.0710  -31.1570 C   0  0  0  0  0  0  0  0  0  0  0  0
   -5.8550   24.0930  -30.9440 C   0  0  0  0  0  0  0  0  0  0  0  0
   -5.1000   25.3230  -30.6270 C   0  0  0  0  0  0  0  0  0  0  0  0
   -3.6860   25.2900  -30.4490 N   0  0  0  0  0  0  0  0  0  0  0  0
   -5.7170   26.4100  -30.4680 O   0  0  0  0  0  0  0  0  0  0  0  0
   -5.3390   22.8330  -31.0080 N   0  0  0  0  0  0  0  0  0  0  0  0
   -3.9570   22.4470  -30.9630 C   0  0  0  0  0  0  0  0  0  0  0  0
   -3.1540   22.8960  -31.8250 O   0  0  0  0  0  0  0  0  0  0  0  0
   -3.5130   21.5960  -29.9380 O   0  0  0  0  0  0  0  0  0  0  0  0
   -2.9330   22.0000  -28.6900 C   0  0  0  0  0  0  0  0  0  0  0  0
   -2.7390   20.7290  -27.8500 C   0  0  0  0  0  0  0  0  0  0  0  0
   -1.5600   22.6640  -28.9140 C   0  0  0  0  0  0  0  0  0  0  0  0
   -3.8800   22.9550  -27.9390 C   0  0  0  0  0  0  0  0  0  0  0  0
   -6.3890   22.0200  -31.2550 C   0  0  0  0  0  0  0  0  0  0  0  0
   -6.3830   20.6370  -31.4700 C   0  0  0  0  0  0  0  0  0  0  0  0
   -6.0330   19.1440  -33.8200 N   0  0  0  0  0  0  0  0  0  0  0  0
   -4.6430   18.8300  -33.7210 C   0  0  0  0  0  0  0  0  0  0  0  0
   -4.0210   18.3800  -34.7210 O   0  0  0  0  0  0  0  0  0  0  0  0
   -3.9410   18.9850  -32.4100 C   0  0  0  0  0  0  0  0  0  0  0  0
   -2.6420   19.7150  -32.6170 C   0  0  0  0  0  0  0  0  0  0  0  0
   -2.4600   20.5380  -33.7410 C   0  0  0  0  0  0  0  0  0  0  0  0
   -1.2710   21.2570  -33.9020 C   0  0  0  0  0  0  0  0  0  0  0  0
   -0.2610   21.1630  -32.9420 C   0  0  0  0  0  0  0  0  0  0  0  0
   -0.4420   20.3630  -31.8110 C   0  0  0  0  0  0  0  0  0  0  0  0
   -1.6300   19.6420  -31.6470 C   0  0  0  0  0  0  0  0  0  0  0  0
   -4.2159   15.1917  -31.6513 H   0  0  0  0  0  0  0  0  0  0  0  0
   -4.9184   14.5946  -33.1929 H   0  0  0  0  0  0  0  0  0  0  0  0
   -3.8475   16.0369  -33.1929 H   0  0  0  0  0  0  0  0  0  0  0  0
   -7.9251   18.2894  -34.1429 H   0  0  0  0  0  0  0  0  0  0  0  0
   -8.6637   18.1524  -31.9653 H   0  0  0  0  0  0  0  0  0  0  0  0
   -6.9870   18.0150  -31.2956 H   0  0  0  0  0  0  0  0  0  0  0  0
   -9.7536   20.2579  -32.0598 H   0  0  0  0  0  0  0  0  0  0  0  0
   -9.6939   22.7496  -31.7003 H   0  0  0  0  0  0  0  0  0  0  0  0
   -7.9179   24.9301  -31.1686 H   0  0  0  0  0  0  0  0  0  0  0  0
   -3.0550   24.9630  -31.2130 H   0  0  0  0  0  0  0  0  0  0  0  0
   -2.7783   20.9863  -26.7812 H   0  0  0  0  0  0  0  0  0  0  0  0
   -3.5378   20.0097  -28.0836 H   0  0  0  0  0  0  0  0  0  0  0  0
   -1.7620   20.2807  -28.0836 H   0  0  0  0  0  0  0  0  0  0  0  0
   -1.0977   22.8876  -27.9412 H   0  0  0  0  0  0  0  0  0  0  0  0
   -0.9102   21.9806  -29.4803 H   0  0  0  0  0  0  0  0  0  0  0  0
   -1.6923   23.5977  -29.4803 H   0  0  0  0  0  0  0  0  0  0  0  0
   -3.7494   22.8233  -26.8548 H   0  0  0  0  0  0  0  0  0  0  0  0
   -3.6457   23.9942  -28.2130 H   0  0  0  0  0  0  0  0  0  0  0  0
   -4.9212   22.7294  -28.2130 H   0  0  0  0  0  0  0  0  0  0  0  0
   -5.4463   20.0628  -31.4173 H   0  0  0  0  0  0  0  0  0  0  0  0
   -4.5772   19.5582  -31.7195 H   0  0  0  0  0  0  0  0  0  0  0  0
   -3.7380   17.9912  -31.9843 H   0  0  0  0  0  0  0  0  0  0  0  0
   -3.2552   20.6172  -34.4969 H   0  0  0  0  0  0  0  0  0  0  0  0
   -1.1313   21.8971  -34.7856 H   0  0  0  0  0  0  0  0  0  0  0  0
    0.6782   21.7196  -33.0765 H   0  0  0  0  0  0  0  0  0  0  0  0
    0.3493   20.2999  -31.0495 H   0  0  0  0  0  0  0  0  0  0  0  0
   -1.7714   19.0153  -30.7541 H   0  0  0  0  0  0  0  0  0  0  0  0
  1  2  1  0
  2  3  1  0
  3  4  2  0
  3  5  1  0
  5  6  1  0
  6  7  1  0
  7  8  2  0
  8  9  1  0
  9 10  2  0
 10 11  1  0
 11 12  2  0
 12 13  1  0
 13 14  1  0
 13 15  2  0
 12 16  1  0
 16 17  1  0
 17 18  2  0
 17 19  1  0
 19 20  1  0
 20 21  1  0
 20 22  1  0
 20 23  1  0
 16 24  1  0
 24 25  2  0
  5 26  1  0
 26 27  1  0
 27 28  2  0
 27 29  1  0
 29 30  1  0
 30 31  2  0
 31 32  1  0
 32 33  2  0
 33 34  1  0
 34 35  2  0
 25  7  1  0
 35 30  1  0
 24 10  1  0
  1 36  1  0
  1 37  1  0
  1 38  1  0
  5 39  1  6
  6 40  1  0
  6 41  1  0
  8 42  1  0
  9 43  1  0
 11 44  1  0
 14 45  1  0
 21 46  1  0
 21 47  1  0
 21 48  1  0
 22 49  1  0
 22 50  1  0
 22 51  1  0
 23 52  1  0
 23 53  1  0
 23 54  1  0
 25 55  1  0
 29 56  1  0
 29 57  1  0
 31 58  1  0
 32 59  1  0
 33 60  1  0
 34 61  1  0
 35 62  1  0
M  CHG  2  14  -1  26  -1
M  END
>  <UniqueID>  (72) 
68

>  <SMILES>  (72) 
COC(=O)[C@@H](Cc1ccc2cc(C([NH-])=O)n(C(=O)OC(C)(C)C)c2c1)[N-]C(=O)Cc1ccccc1

>  <Energy>  (72) 
93.87356931614491

>  <Genealogy>  (72) 
COC(=O)C(Cc1ccc2cc(C([NH-])=O)n(C(=O)OC(C)(C)C)c2c1)[N-]C(=O)Cc1ccccc1 (protonated)
COC(=O)[C@@H](Cc1ccc2cc(C([NH-])=O)n(C(=O)OC(C)(C)C)c2c1)[N-]C(=O)Cc1ccccc1 (chirality)
COC(=O)[C@@H](Cc1ccc2cc(C([NH-])=O)n(C(=O)OC(C)(C)C)c2c1)[N-]C(=O)Cc1ccccc1 (3D coordinates assigned)
COC(=O)[C@@H](Cc1ccc2cc(C([NH-])=O)n(C(=O)OC(C)(C)C)c2c1)[N-]C(=O)Cc1ccccc1 (optimized conformer: 93.87356931614491 kcal/mol)

>  <smiles>  (72) 
COC(=O)C(Cc1ccc2cc(C(N)=O)n(C(=O)OC(C)(C)C)c2c1)NC(=O)Cc1ccccc1

>  <score_type>  (72) 
oracle

>  <origin>  (72) 
adg

>  <m_score__min__energy>  (72) 
-12.65

>  <m_primary>  (72) 
energy

$$$$
73:0
     RDKit          3D

 45 46  0  0  0  0  0  0  0  0999 V2000
   -3.8850   23.2420  -28.0390 C   0  0  0  0  0  0  0  0  0  0  0  0
   -2.8470   22.5950  -28.9760 C   0  0  0  0  0  0  0  0  0  0  0  0
   -1.4390   22.8900  -28.4360 C   0  0  0  0  0  0  0  0  0  0  0  0
   -3.0440   21.0670  -29.0390 C   0  0  0  0  0  0  0  0  0  0  0  0
   -2.9240   23.1670  -30.2900 O   0  0  0  0  0  0  0  0  0  0  0  0
   -3.7400   22.7320  -31.3440 C   0  0  0  0  0  0  0  0  0  0  0  0
   -3.2430   22.1810  -32.3630 O   0  0  0  0  0  0  0  0  0  0  0  0
   -5.1580   22.9400  -31.2650 N   0  0  0  0  0  0  0  0  0  0  0  0
   -5.8250   24.0440  -30.8220 C   0  0  0  0  0  0  0  0  0  0  0  0
   -5.2140   25.3340  -30.4360 C   0  0  0  0  0  0  0  0  0  0  0  0
   -3.8840   25.6400  -30.8480 N   0  0  0  0  0  0  0  0  0  0  0  0
   -5.8390   26.1530  -29.7170 O   0  0  0  0  0  0  0  0  0  0  0  0
   -7.2020   23.8320  -30.8690 C   0  0  0  0  0  0  0  0  0  0  0  0
   -7.3600   22.5600  -31.3680 C   0  0  0  0  0  0  0  0  0  0  0  0
   -8.5200   21.8330  -31.6240 C   0  0  0  0  0  0  0  0  0  0  0  0
   -8.3830   20.5270  -32.1250 C   0  0  0  0  0  0  0  0  0  0  0  0
   -7.1000   19.9790  -32.3490 C   0  0  0  0  0  0  0  0  0  0  0  0
   -6.9640   18.6370  -32.8460 C   0  0  0  0  0  0  0  0  0  0  0  0
   -6.8280   17.5120  -33.2570 C   0  0  0  0  0  0  0  0  0  0  0  0
   -6.6060   15.8770  -33.8810 S   0  0  0  0  0  0  0  0  0  0  0  0
   -4.8580   16.1390  -34.3360 C   0  0  0  0  0  0  0  0  0  0  0  0
   -4.1550   17.0370  -33.3160 C   0  0  0  0  0  0  0  0  0  0  0  0
   -3.4820   18.1820  -34.0020 C   0  0  0  0  0  0  0  0  0  0  0  0
   -4.0600   19.2950  -34.0930 O   0  0  0  0  0  0  0  0  0  0  0  0
   -2.2240   18.0110  -34.5650 O   0  0  0  0  0  0  0  0  0  0  0  0
   -5.9450   20.7380  -32.0770 C   0  0  0  0  0  0  0  0  0  0  0  0
   -6.1110   22.0430  -31.5980 C   0  0  0  0  0  0  0  0  0  0  0  0
   -3.5968   23.0624  -26.9927 H   0  0  0  0  0  0  0  0  0  0  0  0
   -3.9245   24.3250  -28.2277 H   0  0  0  0  0  0  0  0  0  0  0  0
   -4.8747   22.8006  -28.2277 H   0  0  0  0  0  0  0  0  0  0  0  0
   -1.4597   22.8857  -27.3362 H   0  0  0  0  0  0  0  0  0  0  0  0
   -0.7405   22.1187  -28.7926 H   0  0  0  0  0  0  0  0  0  0  0  0
   -1.1088   23.8768  -28.7926 H   0  0  0  0  0  0  0  0  0  0  0  0
   -3.0963   20.6616  -28.0178 H   0  0  0  0  0  0  0  0  0  0  0  0
   -3.9789   20.8395  -29.5721 H   0  0  0  0  0  0  0  0  0  0  0  0
   -2.1974   20.6098  -29.5721 H   0  0  0  0  0  0  0  0  0  0  0  0
   -3.0600   25.2920  -30.3090 H   0  0  0  0  0  0  0  0  0  0  0  0
   -7.9947   24.5337  -30.5702 H   0  0  0  0  0  0  0  0  0  0  0  0
   -9.5135   22.2678  -31.4397 H   0  0  0  0  0  0  0  0  0  0  0  0
   -9.2794   19.9282  -32.3439 H   0  0  0  0  0  0  0  0  0  0  0  0
   -4.3459   15.1661  -34.3721 H   0  0  0  0  0  0  0  0  0  0  0  0
   -4.8215   16.6302  -35.3195 H   0  0  0  0  0  0  0  0  0  0  0  0
   -4.8978   17.4273  -32.6047 H   0  0  0  0  0  0  0  0  0  0  0  0
   -3.3955   16.4447  -32.7846 H   0  0  0  0  0  0  0  0  0  0  0  0
   -4.9412   20.3174  -32.2364 H   0  0  0  0  0  0  0  0  0  0  0  0
  1  2  1  0
  2  3  1  0
  2  4  1  0
  2  5  1  0
  5  6  1  0
  6  7  2  0
  6  8  1  0
  8  9  1  0
  9 10  1  0
 10 11  1  0
 10 12  2  0
  9 13  2  0
 13 14  1  0
 14 15  2  0
 15 16  1  0
 16 17  2  0
 17 18  1  0
 18 19  3  0
 19 20  1  0
 20 21  1  0
 21 22  1  0
 22 23  1  0
 23 24  2  0
 23 25  1  0
 17 26  1  0
 26 27  2  0
 27  8  1  0
 27 14  1  0
  1 28  1  0
  1 29  1  0
  1 30  1  0
  3 31  1  0
  3 32  1  0
  3 33  1  0
  4 34  1  0
  4 35  1  0
  4 36  1  0
 11 37  1  0
 13 38  1  0
 15 39  1  0
 16 40  1  0
 21 41  1  0
 21 42  1  0
 22 43  1  0
 22 44  1  0
 26 45  1  0
M  CHG  2  11  -1  25  -1
M  END
>  <UniqueID>  (73) 
69

>  <SMILES>  (73) 
CC(C)(C)OC(=O)n1c(C([NH-])=O)cc2ccc(C#CSCCC(=O)[O-])cc21

>  <Energy>  (73) 
69.72965489028944

>  <Genealogy>  (73) 
CC(C)(C)OC(=O)n1c(C([NH-])=O)cc2ccc(C#CSCCC(=O)[O-])cc21 (protonated)
CC(C)(C)OC(=O)n1c(C([NH-])=O)cc2ccc(C#CSCCC(=O)[O-])cc21 (3D coordinates assigned)
CC(C)(C)OC(=O)n1c(C([NH-])=O)cc2ccc(C#CSCCC(=O)[O-])cc21 (optimized conformer: 69.72965489028944 kcal/mol)

>  <smiles>  (73) 
CC(C)(C)OC(=O)n1c(C(N)=O)cc2ccc(C#CSCCC(=O)O)cc21

>  <score_type>  (73) 
oracle

>  <origin>  (73) 
adg

>  <m_score__min__energy>  (73) 
-11.06

>  <m_primary>  (73) 
energy

$$$$
74:0
     RDKit          3D

 42 45  0  0  0  0  0  0  0  0999 V2000
   -4.4300   14.6220  -33.7070 N   0  0  0  0  0  0  0  0  0  0  0  0
   -5.6860   15.2460  -33.9740 C   0  0  0  0  0  0  0  0  0  0  0  0
   -6.5810   14.6000  -34.5810 O   0  0  0  0  0  0  0  0  0  0  0  0
   -5.9780   16.6070  -33.4850 C   0  0  0  0  0  0  0  0  0  0  0  0
   -7.2590   17.0400  -33.1550 C   0  0  0  0  0  0  0  0  0  0  0  0
   -7.0960   18.3160  -32.6660 C   0  0  0  0  0  0  0  0  0  0  0  0
   -8.0410   19.2220  -32.1960 C   0  0  0  0  0  0  0  0  0  0  0  0
   -7.5910   20.4830  -31.7710 C   0  0  0  0  0  0  0  0  0  0  0  0
   -6.2130   20.8130  -31.8170 C   0  0  0  0  0  0  0  0  0  0  0  0
   -5.7430   22.1460  -31.3790 C   0  0  0  0  0  0  0  0  0  0  0  0
   -6.5500   23.1450  -30.8680 C   0  0  0  0  0  0  0  0  0  0  0  0
   -5.6720   24.1640  -30.5480 C   0  0  0  0  0  0  0  0  0  0  0  0
   -6.0340   25.4530  -29.8830 C   0  0  0  0  0  0  0  0  0  0  0  0
   -5.3410   26.4970  -30.4700 F   0  0  0  0  0  0  0  0  0  0  0  0
   -5.7130   25.3990  -28.5390 F   0  0  0  0  0  0  0  0  0  0  0  0
   -7.3920   25.6720  -30.0180 F   0  0  0  0  0  0  0  0  0  0  0  0
   -4.4100   23.7940  -30.8410 N   0  0  0  0  0  0  0  0  0  0  0  0
   -4.4570   22.5720  -31.3490 N   0  0  0  0  0  0  0  0  0  0  0  0
   -3.3010   21.9050  -31.8820 C   0  0  0  0  0  0  0  0  0  0  0  0
   -3.1530   21.7660  -33.2740 C   0  0  0  0  0  0  0  0  0  0  0  0
   -2.0290   21.1300  -33.8060 C   0  0  0  0  0  0  0  0  0  0  0  0
   -1.0390   20.6330  -32.9560 C   0  0  0  0  0  0  0  0  0  0  0  0
   -1.1710   20.7710  -31.5720 C   0  0  0  0  0  0  0  0  0  0  0  0
   -2.2950   21.4070  -31.0290 C   0  0  0  0  0  0  0  0  0  0  0  0
   -2.4430   21.5130  -29.2800 Cl  0  0  0  0  0  0  0  0  0  0  0  0
   -5.2850   19.8720  -32.3160 C   0  0  0  0  0  0  0  0  0  0  0  0
   -5.7600   18.6190  -32.7220 C   0  0  0  0  0  0  0  0  0  0  0  0
   -5.0590   17.5820  -33.2310 N   0  0  0  0  0  0  0  0  0  0  0  0
   -3.6560   17.5870  -33.5430 C   0  0  0  0  0  0  0  0  0  0  0  0
   -2.8250   17.0000  -32.8010 O   0  0  0  0  0  0  0  0  0  0  0  0
   -3.7290   15.0720  -33.0760 H   0  0  0  0  0  0  0  0  0  0  0  0
   -4.2270   13.6690  -34.0820 H   0  0  0  0  0  0  0  0  0  0  0  0
   -8.2006   16.4815  -33.2622 H   0  0  0  0  0  0  0  0  0  0  0  0
   -9.1084   18.9590  -32.1583 H   0  0  0  0  0  0  0  0  0  0  0  0
   -8.3155   21.2222  -31.3986 H   0  0  0  0  0  0  0  0  0  0  0  0
   -7.6429   23.1322  -30.7440 H   0  0  0  0  0  0  0  0  0  0  0  0
   -3.9276   22.1608  -33.9479 H   0  0  0  0  0  0  0  0  0  0  0  0
   -1.9236   21.0206  -34.8955 H   0  0  0  0  0  0  0  0  0  0  0  0
   -0.1543   20.1324  -33.3764 H   0  0  0  0  0  0  0  0  0  0  0  0
   -0.3888   20.3785  -30.9056 H   0  0  0  0  0  0  0  0  0  0  0  0
   -4.2150   20.1178  -32.3840 H   0  0  0  0  0  0  0  0  0  0  0  0
   -3.3029   18.1113  -34.4432 H   0  0  0  0  0  0  0  0  0  0  0  0
  1  2  1  0
  2  3  2  0
  2  4  1  0
  4  5  2  0
  5  6  1  0
  6  7  2  0
  7  8  1  0
  8  9  2  0
  9 10  1  0
 10 11  2  0
 11 12  1  0
 12 13  1  0
 13 14  1  0
 13 15  1  0
 13 16  1  0
 12 17  2  0
 17 18  1  0
 18 19  1  0
 19 20  2  0
 20 21  1  0
 21 22  2  0
 22 23  1  0
 23 24  2  0
 24 25  1  0
  9 26  1  0
 26 27  2  0
 27 28  1  0
 28 29  1  0
 29 30  2  0
 28  4  1  0
 27  6  1  0
 18 10  1  0
 24 19  1  0
  1 31  1  0
  1 32  1  0
  5 33  1  0
  7 34  1  0
  8 35  1  0
 11 36  1  0
 20 37  1  0
 21 38  1  0
 22 39  1  0
 23 40  1  0
 26 41  1  0
 29 42  1  0
M  END
>  <UniqueID>  (74) 
70

>  <SMILES>  (74) 
NC(=O)c1cc2ccc(-c3cc(C(F)(F)F)nn3-c3ccccc3Cl)cc2n1C=O

>  <Energy>  (74) 
124.26371814219661

>  <Genealogy>  (74) 
NC(=O)c1cc2ccc(-c3cc(C(F)(F)F)nn3-c3ccccc3Cl)cc2n1C=O (3D coordinates assigned)
NC(=O)c1cc2ccc(-c3cc(C(F)(F)F)nn3-c3ccccc3Cl)cc2n1C=O (optimized conformer: 124.26371814219661 kcal/mol)

>  <smiles>  (74) 
NC(=O)c1cc2ccc(-c3cc(C(F)(F)F)nn3-c3ccccc3Cl)cc2n1C=O

>  <score_type>  (74) 
oracle

>  <origin>  (74) 
adg

>  <m_score__min__energy>  (74) 
-8.7400000000000002

>  <m_primary>  (74) 
energy

$$$$
75:0
     RDKit          3D

 32 34  0  0  0  0  0  0  0  0999 V2000
   -5.3680   26.4700  -30.4630 N   0  0  0  0  0  0  0  0  0  0  0  0
   -6.2770   25.4890  -29.9630 C   0  0  0  0  0  0  0  0  0  0  0  0
   -7.0300   25.7810  -28.9970 O   0  0  0  0  0  0  0  0  0  0  0  0
   -6.3960   24.1620  -30.6000 C   0  0  0  0  0  0  0  0  0  0  0  0
   -7.6170   23.5550  -30.8780 C   0  0  0  0  0  0  0  0  0  0  0  0
   -7.3000   22.3820  -31.5240 C   0  0  0  0  0  0  0  0  0  0  0  0
   -8.1320   21.3820  -32.0150 C   0  0  0  0  0  0  0  0  0  0  0  0
   -7.5330   20.2580  -32.6070 C   0  0  0  0  0  0  0  0  0  0  0  0
   -6.1200   20.1450  -32.6880 C   0  0  0  0  0  0  0  0  0  0  0  0
   -5.4980   18.9460  -33.3040 C   0  0  0  0  0  0  0  0  0  0  0  0
   -6.2790   17.8170  -33.6180 C   0  0  0  0  0  0  0  0  0  0  0  0
   -5.6930   16.6890  -34.1980 C   0  0  0  0  0  0  0  0  0  0  0  0
   -6.4550   15.6090  -34.5010 F   0  0  0  0  0  0  0  0  0  0  0  0
   -4.3230   16.6720  -34.4690 C   0  0  0  0  0  0  0  0  0  0  0  0
   -3.5350   17.7850  -34.1610 C   0  0  0  0  0  0  0  0  0  0  0  0
   -1.8140   17.7620  -34.4980 Cl  0  0  0  0  0  0  0  0  0  0  0  0
   -4.1190   18.9170  -33.5810 C   0  0  0  0  0  0  0  0  0  0  0  0
   -5.3090   21.1850  -32.1740 C   0  0  0  0  0  0  0  0  0  0  0  0
   -5.9340   22.3040  -31.6080 C   0  0  0  0  0  0  0  0  0  0  0  0
   -5.3620   23.3920  -31.0430 N   0  0  0  0  0  0  0  0  0  0  0  0
   -3.9580   23.6190  -30.8320 C   0  0  0  0  0  0  0  0  0  0  0  0
   -3.1350   22.6710  -30.9330 O   0  0  0  0  0  0  0  0  0  0  0  0
   -3.4930   24.8880  -30.5080 O   0  0  0  0  0  0  0  0  0  0  0  0
   -5.2710   27.3890  -29.9780 H   0  0  0  0  0  0  0  0  0  0  0  0
   -4.8530   26.3210  -31.3590 H   0  0  0  0  0  0  0  0  0  0  0  0
   -8.6210   23.9322  -30.6336 H   0  0  0  0  0  0  0  0  0  0  0  0
   -9.2262   21.4686  -31.9420 H   0  0  0  0  0  0  0  0  0  0  0  0
   -8.1663   19.4554  -33.0129 H   0  0  0  0  0  0  0  0  0  0  0  0
   -7.3582   17.8232  -33.4051 H   0  0  0  0  0  0  0  0  0  0  0  0
   -3.8638   15.7825  -34.9250 H   0  0  0  0  0  0  0  0  0  0  0  0
   -3.4952   19.7904  -33.3400 H   0  0  0  0  0  0  0  0  0  0  0  0
   -4.2120   21.1162  -32.2180 H   0  0  0  0  0  0  0  0  0  0  0  0
  1  2  1  0
  2  3  2  0
  2  4  1  0
  4  5  2  0
  5  6  1  0
  6  7  2  0
  7  8  1  0
  8  9  2  0
  9 10  1  0
 10 11  2  0
 11 12  1  0
 12 13  1  0
 12 14  2  0
 14 15  1  0
 15 16  1  0
 15 17  2  0
  9 18  1  0
 18 19  2  0
 19 20  1  0
 20 21  1  0
 21 22  2  0
 21 23  1  0
 20  4  1  0
 19  6  1  0
 17 10  1  0
  1 24  1  0
  1 25  1  0
  5 26  1  0
  7 27  1  0
  8 28  1  0
 11 29  1  0
 14 30  1  0
 17 31  1  0
 18 32  1  0
M  CHG  1  23  -1
M  END
>  <UniqueID>  (75) 
71

>  <SMILES>  (75) 
NC(=O)c1cc2ccc(-c3cc(F)cc(Cl)c3)cc2n1C(=O)[O-]

>  <Energy>  (75) 
80.19890228231118

>  <Genealogy>  (75) 
NC(=O)c1cc2ccc(-c3cc(F)cc(Cl)c3)cc2n1C(=O)[O-] (protonated)
NC(=O)c1cc2ccc(-c3cc(F)cc(Cl)c3)cc2n1C(=O)[O-] (3D coordinates assigned)
NC(=O)c1cc2ccc(-c3cc(F)cc(Cl)c3)cc2n1C(=O)[O-] (optimized conformer: 80.19890228231118 kcal/mol)

>  <smiles>  (75) 
NC(=O)c1cc2ccc(-c3cc(F)cc(Cl)c3)cc2n1C(=O)O

>  <score_type>  (75) 
oracle

>  <origin>  (75) 
adg

>  <m_score__min__energy>  (75) 
-9.9199999999999999

>  <m_primary>  (75) 
energy

$$$$
76:0
     RDKit          3D

 47 48  0  0  0  0  0  0  0  0999 V2000
   -5.9510   15.9460  -33.6460 C   0  0  0  0  0  0  0  0  0  0  0  0
   -6.6270   17.1590  -32.9920 C   0  0  0  0  0  0  0  0  0  0  0  0
   -6.1200   17.3580  -31.5580 C   0  0  0  0  0  0  0  0  0  0  0  0
   -6.4870   18.4410  -33.8470 C   0  0  0  0  0  0  0  0  0  0  0  0
   -6.7490   19.7170  -33.0820 C   0  0  0  0  0  0  0  0  0  0  0  0
   -8.0660   20.0480  -32.6740 C   0  0  0  0  0  0  0  0  0  0  0  0
   -8.3160   21.2180  -31.9390 C   0  0  0  0  0  0  0  0  0  0  0  0
   -7.2360   22.0400  -31.6340 C   0  0  0  0  0  0  0  0  0  0  0  0
   -7.1900   23.2050  -30.9030 C   0  0  0  0  0  0  0  0  0  0  0  0
   -5.8500   23.5840  -30.8990 C   0  0  0  0  0  0  0  0  0  0  0  0
   -5.3570   24.8230  -30.2650 C   0  0  0  0  0  0  0  0  0  0  0  0
   -5.8300   25.2370  -28.9820 N   0  0  0  0  0  0  0  0  0  0  0  0
   -4.4630   25.4990  -30.8400 O   0  0  0  0  0  0  0  0  0  0  0  0
   -5.0940   22.6850  -31.5900 N   0  0  0  0  0  0  0  0  0  0  0  0
   -3.6630   22.6500  -31.7080 C   0  0  0  0  0  0  0  0  0  0  0  0
   -2.9510   23.2290  -30.8430 O   0  0  0  0  0  0  0  0  0  0  0  0
   -3.0760   21.9630  -32.7810 O   0  0  0  0  0  0  0  0  0  0  0  0
   -2.2790   20.7730  -32.6960 C   0  0  0  0  0  0  0  0  0  0  0  0
   -0.8310   21.1760  -33.0110 C   0  0  0  0  0  0  0  0  0  0  0  0
   -2.7450   19.7360  -33.7360 C   0  0  0  0  0  0  0  0  0  0  0  0
   -2.3340   20.1830  -31.2740 C   0  0  0  0  0  0  0  0  0  0  0  0
   -5.9580   21.7470  -32.0380 C   0  0  0  0  0  0  0  0  0  0  0  0
   -5.6780   20.5790  -32.7570 C   0  0  0  0  0  0  0  0  0  0  0  0
   -5.5744   15.2703  -32.8640 H   0  0  0  0  0  0  0  0  0  0  0  0
   -6.6816   15.4120  -34.2713 H   0  0  0  0  0  0  0  0  0  0  0  0
   -5.1125   16.2865  -34.2713 H   0  0  0  0  0  0  0  0  0  0  0  0
   -7.7053   16.9487  -32.9372 H   0  0  0  0  0  0  0  0  0  0  0  0
   -6.9013   17.0513  -30.8470 H   0  0  0  0  0  0  0  0  0  0  0  0
   -5.2194   16.7466  -31.3993 H   0  0  0  0  0  0  0  0  0  0  0  0
   -5.8757   18.4187  -31.3993 H   0  0  0  0  0  0  0  0  0  0  0  0
   -5.4631   18.4807  -34.2470 H   0  0  0  0  0  0  0  0  0  0  0  0
   -7.2473   18.3814  -34.6397 H   0  0  0  0  0  0  0  0  0  0  0  0
   -8.9007   19.3812  -32.9360 H   0  0  0  0  0  0  0  0  0  0  0  0
   -9.3347   21.4767  -31.6143 H   0  0  0  0  0  0  0  0  0  0  0  0
   -8.0322   23.7258  -30.4240 H   0  0  0  0  0  0  0  0  0  0  0  0
   -5.5000   26.1380  -28.5680 H   0  0  0  0  0  0  0  0  0  0  0  0
   -6.4390   24.6150  -28.4050 H   0  0  0  0  0  0  0  0  0  0  0  0
   -0.2803   21.3293  -32.0712 H   0  0  0  0  0  0  0  0  0  0  0  0
   -0.3469   20.3784  -33.5937 H   0  0  0  0  0  0  0  0  0  0  0  0
   -0.8286   22.1090  -33.5937 H   0  0  0  0  0  0  0  0  0  0  0  0
   -3.1428   18.8507  -33.2183 H   0  0  0  0  0  0  0  0  0  0  0  0
   -3.5317   20.1766  -34.3661 H   0  0  0  0  0  0  0  0  0  0  0  0
   -1.8932   19.4403  -34.3661 H   0  0  0  0  0  0  0  0  0  0  0  0
   -2.2582   20.9957  -30.5366 H   0  0  0  0  0  0  0  0  0  0  0  0
   -3.2858   19.6494  -31.1350 H   0  0  0  0  0  0  0  0  0  0  0  0
   -1.4973   19.4826  -31.1350 H   0  0  0  0  0  0  0  0  0  0  0  0
   -4.6488   20.3382  -33.0616 H   0  0  0  0  0  0  0  0  0  0  0  0
  1  2  1  0
  2  3  1  0
  2  4  1  0
  4  5  1  0
  5  6  2  0
  6  7  1  0
  7  8  2  0
  8  9  1  0
  9 10  2  0
 10 11  1  0
 11 12  1  0
 11 13  2  0
 10 14  1  0
 14 15  1  0
 15 16  2  0
 15 17  1  0
 17 18  1  0
 18 19  1  0
 18 20  1  0
 18 21  1  0
 14 22  1  0
 22 23  2  0
 23  5  1  0
 22  8  1  0
  1 24  1  0
  1 25  1  0
  1 26  1  0
  2 27  1  0
  3 28  1  0
  3 29  1  0
  3 30  1  0
  4 31  1  0
  4 32  1  0
  6 33  1  0
  7 34  1  0
  9 35  1  0
 12 36  1  0
 12 37  1  0
 19 38  1  0
 19 39  1  0
 19 40  1  0
 20 41  1  0
 20 42  1  0
 20 43  1  0
 21 44  1  0
 21 45  1  0
 21 46  1  0
 23 47  1  0
M  END
>  <UniqueID>  (76) 
72

>  <SMILES>  (76) 
CC(C)Cc1ccc2cc(C(N)=O)n(C(=O)OC(C)(C)C)c2c1

>  <Energy>  (76) 
74.96270975646144

>  <Genealogy>  (76) 
CC(C)Cc1ccc2cc(C(N)=O)n(C(=O)OC(C)(C)C)c2c1 (3D coordinates assigned)
CC(C)Cc1ccc2cc(C(N)=O)n(C(=O)OC(C)(C)C)c2c1 (optimized conformer: 74.96270975646144 kcal/mol)

>  <smiles>  (76) 
CC(C)Cc1ccc2cc(C(N)=O)n(C(=O)OC(C)(C)C)c2c1

>  <score_type>  (76) 
oracle

>  <origin>  (76) 
adg

>  <m_score__min__energy>  (76) 
-9.4900000000000002

>  <m_primary>  (76) 
energy

$$$$
77:0
     RDKit          3D

 49 51  0  0  0  0  0  0  0  0999 V2000
   -4.9430   13.2120  -32.9210 C   0  0  0  0  0  0  0  0  0  0  0  0
   -5.0610   13.9270  -34.5910 S   0  0  0  0  0  0  0  0  0  0  0  0
   -5.4830   15.5640  -33.9920 C   0  0  0  0  0  0  0  0  0  0  0  0
   -6.8230   15.9160  -33.7990 C   0  0  0  0  0  0  0  0  0  0  0  0
   -7.1540   17.1920  -33.3350 C   0  0  0  0  0  0  0  0  0  0  0  0
   -6.1460   18.1360  -33.0590 C   0  0  0  0  0  0  0  0  0  0  0  0
   -6.4950   19.4920  -32.5660 C   0  0  0  0  0  0  0  0  0  0  0  0
   -7.8550   19.8820  -32.4440 C   0  0  0  0  0  0  0  0  0  0  0  0
   -8.1970   21.1570  -31.9670 C   0  0  0  0  0  0  0  0  0  0  0  0
   -7.1650   22.0270  -31.6300 C   0  0  0  0  0  0  0  0  0  0  0  0
   -7.2180   23.3000  -31.1110 C   0  0  0  0  0  0  0  0  0  0  0  0
   -5.8910   23.6860  -30.9500 C   0  0  0  0  0  0  0  0  0  0  0  0
   -5.4860   25.0200  -30.4650 C   0  0  0  0  0  0  0  0  0  0  0  0
   -4.1510   25.4970  -30.6440 N   0  0  0  0  0  0  0  0  0  0  0  0
   -6.3440   25.7730  -29.9330 O   0  0  0  0  0  0  0  0  0  0  0  0
   -5.0470   22.6900  -31.3420 N   0  0  0  0  0  0  0  0  0  0  0  0
   -3.6170   22.6630  -31.2120 C   0  0  0  0  0  0  0  0  0  0  0  0
   -2.9160   22.1230  -32.1090 O   0  0  0  0  0  0  0  0  0  0  0  0
   -3.0180   23.2390  -30.0800 O   0  0  0  0  0  0  0  0  0  0  0  0
   -2.9110   22.6470  -28.7780 C   0  0  0  0  0  0  0  0  0  0  0  0
   -4.1390   23.1010  -27.9730 C   0  0  0  0  0  0  0  0  0  0  0  0
   -1.6390   23.1350  -28.0600 C   0  0  0  0  0  0  0  0  0  0  0  0
   -2.9220   21.1090  -28.8800 C   0  0  0  0  0  0  0  0  0  0  0  0
   -5.8460   21.6790  -31.7590 C   0  0  0  0  0  0  0  0  0  0  0  0
   -5.4750   20.4070  -32.2100 C   0  0  0  0  0  0  0  0  0  0  0  0
   -4.8000   17.7720  -33.2600 C   0  0  0  0  0  0  0  0  0  0  0  0
   -4.4730   16.4950  -33.7250 C   0  0  0  0  0  0  0  0  0  0  0  0
   -5.0741   14.0067  -32.1718 H   0  0  0  0  0  0  0  0  0  0  0  0
   -5.7279   12.4524  -32.7911 H   0  0  0  0  0  0  0  0  0  0  0  0
   -3.9556   12.7449  -32.7911 H   0  0  0  0  0  0  0  0  0  0  0  0
   -7.6181   15.1867  -34.0130 H   0  0  0  0  0  0  0  0  0  0  0  0
   -8.2099   17.4611  -33.1842 H   0  0  0  0  0  0  0  0  0  0  0  0
   -8.6501   19.1764  -32.7267 H   0  0  0  0  0  0  0  0  0  0  0  0
   -9.2495   21.4593  -31.8628 H   0  0  0  0  0  0  0  0  0  0  0  0
   -8.1174   23.8872  -30.8739 H   0  0  0  0  0  0  0  0  0  0  0  0
   -3.8670   26.4200  -30.2500 H   0  0  0  0  0  0  0  0  0  0  0  0
   -3.4660   24.9710  -31.2310 H   0  0  0  0  0  0  0  0  0  0  0  0
   -3.9225   23.0209  -26.8975 H   0  0  0  0  0  0  0  0  0  0  0  0
   -4.3753   24.1459  -28.2227 H   0  0  0  0  0  0  0  0  0  0  0  0
   -4.9982   22.4611  -28.2227 H   0  0  0  0  0  0  0  0  0  0  0  0
   -1.7876   23.0780  -26.9716 H   0  0  0  0  0  0  0  0  0  0  0  0
   -0.7887   22.4992  -28.3478 H   0  0  0  0  0  0  0  0  0  0  0  0
   -1.4321   24.1763  -28.3478 H   0  0  0  0  0  0  0  0  0  0  0  0
   -2.9251   20.6745  -27.8694 H   0  0  0  0  0  0  0  0  0  0  0  0
   -3.8225   20.7839  -29.4217 H   0  0  0  0  0  0  0  0  0  0  0  0
   -2.0262   20.7710  -29.4217 H   0  0  0  0  0  0  0  0  0  0  0  0
   -4.4146   20.1246  -32.2861 H   0  0  0  0  0  0  0  0  0  0  0  0
   -4.0007   18.4978  -33.0495 H   0  0  0  0  0  0  0  0  0  0  0  0
   -3.4192   16.2213  -33.8814 H   0  0  0  0  0  0  0  0  0  0  0  0
  1  2  1  0
  2  3  1  0
  3  4  2  0
  4  5  1  0
  5  6  2  0
  6  7  1  0
  7  8  2  0
  8  9  1  0
  9 10  2  0
 10 11  1  0
 11 12  2  0
 12 13  1  0
 13 14  1  0
 13 15  2  0
 12 16  1  0
 16 17  1  0
 17 18  2  0
 17 19  1  0
 19 20  1  0
 20 21  1  0
 20 22  1  0
 20 23  1  0
 16 24  1  0
 24 25  2  0
  6 26  1  0
 26 27  2  0
 27  3  1  0
 25  7  1  0
 24 10  1  0
  1 28  1  0
  1 29  1  0
  1 30  1  0
  4 31  1  0
  5 32  1  0
  8 33  1  0
  9 34  1  0
 11 35  1  0
 14 36  1  0
 14 37  1  0
 21 38  1  0
 21 39  1  0
 21 40  1  0
 22 41  1  0
 22 42  1  0
 22 43  1  0
 23 44  1  0
 23 45  1  0
 23 46  1  0
 25 47  1  0
 26 48  1  0
 27 49  1  0
M  END
>  <UniqueID>  (77) 
73

>  <SMILES>  (77) 
CSc1ccc(-c2ccc3cc(C(N)=O)n(C(=O)OC(C)(C)C)c3c2)cc1

>  <Energy>  (77) 
86.03871001925833

>  <Genealogy>  (77) 
CSc1ccc(-c2ccc3cc(C(N)=O)n(C(=O)OC(C)(C)C)c3c2)cc1 (3D coordinates assigned)
CSc1ccc(-c2ccc3cc(C(N)=O)n(C(=O)OC(C)(C)C)c3c2)cc1 (optimized conformer: 86.03871001925833 kcal/mol)

>  <smiles>  (77) 
CSc1ccc(-c2ccc3cc(C(N)=O)n(C(=O)OC(C)(C)C)c3c2)cc1

>  <score_type>  (77) 
oracle

>  <origin>  (77) 
adg

>  <m_score__min__energy>  (77) 
-10.07

>  <m_primary>  (77) 
energy

$$$$
78:0
     RDKit          3D

 71 74  0  0  0  0  0  0  0  0999 V2000
   -2.3180   25.3120  -26.6680 C   0  0  0  0  0  0  0  0  0  0  0  0
   -0.9390   25.6560  -27.2600 C   0  0  0  0  0  0  0  0  0  0  0  0
   -0.5640   27.1200  -26.9550 C   0  0  0  0  0  0  0  0  0  0  0  0
    0.1170   24.7310  -26.6320 C   0  0  0  0  0  0  0  0  0  0  0  0
   -0.9230   25.4170  -28.6750 O   0  0  0  0  0  0  0  0  0  0  0  0
   -1.2320   24.2110  -29.3220 C   0  0  0  0  0  0  0  0  0  0  0  0
   -0.3660   23.3100  -29.4800 O   0  0  0  0  0  0  0  0  0  0  0  0
   -2.5970   23.9980  -29.8080 C   0  0  0  0  0  0  0  0  0  0  0  0
   -2.9700   22.8710  -30.4470 N   0  0  0  0  0  0  0  0  0  0  0  0
   -4.2600   23.0840  -30.7590 C   0  0  0  0  0  0  0  0  0  0  0  0
   -5.0610   22.1380  -31.5710 C   0  0  0  0  0  0  0  0  0  0  0  0
   -6.4590   22.2720  -31.6110 C   0  0  0  0  0  0  0  0  0  0  0  0
   -7.2360   21.3760  -32.3460 C   0  0  0  0  0  0  0  0  0  0  0  0
   -6.6300   20.3270  -33.0370 C   0  0  0  0  0  0  0  0  0  0  0  0
   -5.2430   20.1680  -32.9950 C   0  0  0  0  0  0  0  0  0  0  0  0
   -4.4440   21.0680  -32.2710 C   0  0  0  0  0  0  0  0  0  0  0  0
   -2.9730   20.8760  -32.2700 C   0  0  0  0  0  0  0  0  0  0  0  0
   -2.2150   21.2200  -33.4180 C   0  0  0  0  0  0  0  0  0  0  0  0
   -0.8370   20.9560  -33.4710 C   0  0  0  0  0  0  0  0  0  0  0  0
   -0.2440   20.3580  -32.3630 C   0  0  0  0  0  0  0  0  0  0  0  0
    1.0560   19.9500  -32.1690 C   0  0  0  0  0  0  0  0  0  0  0  0
    1.0870   19.4060  -30.8850 C   0  0  0  0  0  0  0  0  0  0  0  0
    2.3200   18.9250  -30.2220 C   0  0  0  0  0  0  0  0  0  0  0  0
    2.3910   17.6060  -29.6770 N   0  0  0  0  0  0  0  0  0  0  0  0
    3.3370   19.6660  -30.1600 O   0  0  0  0  0  0  0  0  0  0  0  0
   -0.1510   19.4710  -30.3110 N   0  0  0  0  0  0  0  0  0  0  0  0
   -0.5470   18.9790  -29.0190 C   0  0  0  0  0  0  0  0  0  0  0  0
    0.1380   18.0890  -28.4490 O   0  0  0  0  0  0  0  0  0  0  0  0
   -1.7090   19.4880  -28.4150 O   0  0  0  0  0  0  0  0  0  0  0  0
   -1.7630   20.4590  -27.3600 C   0  0  0  0  0  0  0  0  0  0  0  0
   -2.0250   19.6910  -26.0560 C   0  0  0  0  0  0  0  0  0  0  0  0
   -2.9180   21.4520  -27.5890 C   0  0  0  0  0  0  0  0  0  0  0  0
   -0.4230   21.2070  -27.2450 C   0  0  0  0  0  0  0  0  0  0  0  0
   -0.9520   20.0580  -31.2270 C   0  0  0  0  0  0  0  0  0  0  0  0
   -2.3290   20.3050  -31.1490 C   0  0  0  0  0  0  0  0  0  0  0  0
   -4.6320   24.3390  -30.3080 C   0  0  0  0  0  0  0  0  0  0  0  0
   -5.9740   25.0060  -30.4290 C   0  0  0  0  0  0  0  0  0  0  0  0
   -6.2610   25.8190  -29.2540 N   0  0  0  0  0  0  0  0  0  0  0  0
   -3.5800   24.9160  -29.6990 N   0  0  0  0  0  0  0  0  0  0  0  0
   -2.2595   25.3266  -25.5697 H   0  0  0  0  0  0  0  0  0  0  0  0
   -3.0573   26.0533  -27.0057 H   0  0  0  0  0  0  0  0  0  0  0  0
   -2.6225   24.3104  -27.0057 H   0  0  0  0  0  0  0  0  0  0  0  0
   -0.5257   27.2694  -25.8659 H   0  0  0  0  0  0  0  0  0  0  0  0
    0.4207   27.3447  -27.3908 H   0  0  0  0  0  0  0  0  0  0  0  0
   -1.3194   27.7904  -27.3908 H   0  0  0  0  0  0  0  0  0  0  0  0
    0.0502   24.7895  -25.5356 H   0  0  0  0  0  0  0  0  0  0  0  0
   -0.0637   23.6953  -26.9556 H   0  0  0  0  0  0  0  0  0  0  0  0
    1.1198   25.0465  -26.9556 H   0  0  0  0  0  0  0  0  0  0  0  0
   -6.9448   23.0898  -31.0585 H   0  0  0  0  0  0  0  0  0  0  0  0
   -8.3288   21.4972  -32.3805 H   0  0  0  0  0  0  0  0  0  0  0  0
   -7.2458   19.6233  -33.6164 H   0  0  0  0  0  0  0  0  0  0  0  0
   -4.7729   19.3316  -33.5330 H   0  0  0  0  0  0  0  0  0  0  0  0
   -2.7114   21.6983  -34.2753 H   0  0  0  0  0  0  0  0  0  0  0  0
   -0.2443   21.2139  -34.3610 H   0  0  0  0  0  0  0  0  0  0  0  0
    1.8936   20.0350  -32.8769 H   0  0  0  0  0  0  0  0  0  0  0  0
    1.5530   16.9840  -29.6480 H   0  0  0  0  0  0  0  0  0  0  0  0
    3.2830   17.2600  -29.2570 H   0  0  0  0  0  0  0  0  0  0  0  0
   -1.8032   20.3410  -25.1968 H   0  0  0  0  0  0  0  0  0  0  0  0
   -3.0797   19.3810  -26.0187 H   0  0  0  0  0  0  0  0  0  0  0  0
   -1.3797   18.8010  -26.0187 H   0  0  0  0  0  0  0  0  0  0  0  0
   -3.3099   21.7889  -26.6179 H   0  0  0  0  0  0  0  0  0  0  0  0
   -2.5490   22.3192  -28.1563 H   0  0  0  0  0  0  0  0  0  0  0  0
   -3.7200   20.9571  -28.1563 H   0  0  0  0  0  0  0  0  0  0  0  0
   -0.1714   21.3474  -26.1834 H   0  0  0  0  0  0  0  0  0  0  0  0
    0.3679   20.6199  -27.7347 H   0  0  0  0  0  0  0  0  0  0  0  0
   -0.5077   22.1883  -27.7347 H   0  0  0  0  0  0  0  0  0  0  0  0
   -2.8948   20.0606  -30.2379 H   0  0  0  0  0  0  0  0  0  0  0  0
   -5.9767   25.6495  -31.3211 H   0  0  0  0  0  0  0  0  0  0  0  0
   -6.7461   24.2271  -30.5133 H   0  0  0  0  0  0  0  0  0  0  0  0
   -5.3620   26.0180  -28.7630 H   0  0  0  0  0  0  0  0  0  0  0  0
   -6.8350   25.2390  -28.5990 H   0  0  0  0  0  0  0  0  0  0  0  0
  1  2  1  0
  2  3  1  0
  2  4  1  0
  2  5  1  0
  5  6  1  0
  6  7  2  0
  6  8  1  0
  8  9  2  0
  9 10  1  0
 10 11  1  0
 11 12  2  0
 12 13  1  0
 13 14  2  0
 14 15  1  0
 15 16  2  0
 16 17  1  0
 17 18  2  0
 18 19  1  0
 19 20  2  0
 20 21  1  0
 21 22  2  0
 22 23  1  0
 23 24  1  0
 23 25  2  0
 22 26  1  0
 26 27  1  0
 27 28  2  0
 27 29  1  0
 29 30  1  0
 30 31  1  0
 30 32  1  0
 30 33  1  0
 26 34  1  0
 34 35  2  0
 10 36  2  0
 36 37  1  0
 37 38  1  0
 36 39  1  0
 39  8  1  0
 16 11  1  0
 35 17  1  0
 34 20  1  0
  1 40  1  0
  1 41  1  0
  1 42  1  0
  3 43  1  0
  3 44  1  0
  3 45  1  0
  4 46  1  0
  4 47  1  0
  4 48  1  0
 12 49  1  0
 13 50  1  0
 14 51  1  0
 15 52  1  0
 18 53  1  0
 19 54  1  0
 21 55  1  0
 24 56  1  0
 24 57  1  0
 31 58  1  0
 31 59  1  0
 31 60  1  0
 32 61  1  0
 32 62  1  0
 32 63  1  0
 33 64  1  0
 33 65  1  0
 33 66  1  0
 35 67  1  0
 37 68  1  0
 37 69  1  0
 38 70  1  0
 38 71  1  0
M  CHG  1  39  -1
M  END
>  <UniqueID>  (78) 
74

>  <SMILES>  (78) 
CC(C)(C)OC(=O)c1nc(-c2ccccc2-c2ccc3cc(C(N)=O)n(C(=O)OC(C)(C)C)c3c2)c(CN)[n-]1

>  <Energy>  (78) 
135.8180781131743

>  <Genealogy>  (78) 
CC(C)(C)OC(=O)c1nc(-c2ccccc2-c2ccc3cc(C(N)=O)n(C(=O)OC(C)(C)C)c3c2)c(CN)[n-]1 (protonated)
CC(C)(C)OC(=O)c1nc(-c2ccccc2-c2ccc3cc(C(N)=O)n(C(=O)OC(C)(C)C)c3c2)c(CN)[n-]1 (3D coordinates assigned)
CC(C)(C)OC(=O)c1nc(-c2ccccc2-c2ccc3cc(C(N)=O)n(C(=O)OC(C)(C)C)c3c2)c(CN)[n-]1 (optimized conformer: 135.8180781131743 kcal/mol)

>  <smiles>  (78) 
CC(C)(C)OC(=O)c1nc(-c2ccccc2-c2ccc3cc(C(N)=O)n(C(=O)OC(C)(C)C)c3c2)c(CN)[nH]1

>  <score_type>  (78) 
oracle

>  <origin>  (78) 
adg

>  <m_score__min__energy>  (78) 
-11.35

>  <m_primary>  (78) 
energy

$$$$
79:0
     RDKit          3D

 64 66  0  0  0  0  0  0  0  0999 V2000
   -8.9750   18.8510  -32.3310 C   0  0  0  0  0  0  0  0  0  0  0  0
   -8.0020   17.8180  -32.9190 C   0  0  0  0  0  0  0  0  0  0  0  0
   -6.6960   18.4230  -33.3290 N   0  0  2  0  0  0  0  0  0  0  0  0
   -6.1240   17.6300  -34.4460 C   0  0  0  0  0  0  0  0  0  0  0  0
   -4.8840   18.3230  -35.0210 C   0  0  0  0  0  0  0  0  0  0  0  0
   -3.7490   18.4120  -33.9820 C   0  0  1  0  0  0  0  0  0  0  0  0
   -3.0320   19.6960  -34.0690 N   0  0  0  0  0  0  0  0  0  0  0  0
   -2.3060   20.2960  -32.9750 C   0  0  0  0  0  0  0  0  0  0  0  0
   -1.0290   19.8190  -32.5650 C   0  0  0  0  0  0  0  0  0  0  0  0
   -0.3310   20.4430  -31.5180 C   0  0  0  0  0  0  0  0  0  0  0  0
   -0.9210   21.5390  -30.9000 C   0  0  0  0  0  0  0  0  0  0  0  0
   -0.4620   22.3220  -29.8680 C   0  0  0  0  0  0  0  0  0  0  0  0
   -1.4560   23.2740  -29.6550 C   0  0  0  0  0  0  0  0  0  0  0  0
   -1.3160   24.3890  -28.6950 C   0  0  0  0  0  0  0  0  0  0  0  0
   -1.9470   25.6390  -28.9670 N   0  0  0  0  0  0  0  0  0  0  0  0
   -0.6870   24.2370  -27.6150 O   0  0  0  0  0  0  0  0  0  0  0  0
   -2.4980   23.0800  -30.5150 N   0  0  0  0  0  0  0  0  0  0  0  0
   -3.7520   23.7830  -30.5420 C   0  0  0  0  0  0  0  0  0  0  0  0
   -3.7770   25.0130  -30.8220 O   0  0  0  0  0  0  0  0  0  0  0  0
   -4.9390   23.0840  -30.2760 O   0  0  0  0  0  0  0  0  0  0  0  0
   -6.2720   23.5170  -30.5830 C   0  0  0  0  0  0  0  0  0  0  0  0
   -6.5620   24.8770  -29.9190 C   0  0  0  0  0  0  0  0  0  0  0  0
   -7.3060   22.4650  -30.1360 C   0  0  0  0  0  0  0  0  0  0  0  0
   -6.3560   23.6780  -32.1080 C   0  0  0  0  0  0  0  0  0  0  0  0
   -2.1500   22.0170  -31.2780 C   0  0  0  0  0  0  0  0  0  0  0  0
   -2.8770   21.4030  -32.3050 C   0  0  0  0  0  0  0  0  0  0  0  0
   -4.2500   18.1560  -32.5430 C   0  0  0  0  0  0  0  0  0  0  0  0
   -5.6820   18.7140  -32.2200 C   0  0  0  0  0  0  0  0  0  0  0  0
   -6.0500   18.1040  -30.8330 C   0  0  0  0  0  0  0  0  0  0  0  0
   -5.5650   20.2490  -32.0120 C   0  0  0  0  0  0  0  0  0  0  0  0
   -8.9351   18.8086  -31.2325 H   0  0  0  0  0  0  0  0  0  0  0  0
   -8.6896   19.8579  -32.6697 H   0  0  0  0  0  0  0  0  0  0  0  0
   -9.9971   18.6263  -32.6697 H   0  0  0  0  0  0  0  0  0  0  0  0
   -7.8091   17.0448  -32.1608 H   0  0  0  0  0  0  0  0  0  0  0  0
   -8.4703   17.3958  -33.8204 H   0  0  0  0  0  0  0  0  0  0  0  0
   -6.9530   19.3320  -33.7870 H   0  0  0  0  0  0  0  0  0  0  0  0
   -5.8416   16.6339  -34.0745 H   0  0  0  0  0  0  0  0  0  0  0  0
   -6.8799   17.5402  -35.2401 H   0  0  0  0  0  0  0  0  0  0  0  0
   -4.5273   17.7519  -35.8909 H   0  0  0  0  0  0  0  0  0  0  0  0
   -5.1656   19.3462  -35.3105 H   0  0  0  0  0  0  0  0  0  0  0  0
   -3.0381   17.6092  -34.2275 H   0  0  0  0  0  0  0  0  0  0  0  0
   -2.9870   20.1840  -34.9920 H   0  0  0  0  0  0  0  0  0  0  0  0
   -0.5836   18.9516  -33.0741 H   0  0  0  0  0  0  0  0  0  0  0  0
    0.6544   20.0747  -31.1964 H   0  0  0  0  0  0  0  0  0  0  0  0
    0.4891   22.2187  -29.3251 H   0  0  0  0  0  0  0  0  0  0  0  0
   -2.9230   25.6780  -29.3350 H   0  0  0  0  0  0  0  0  0  0  0  0
   -6.5378   24.7635  -28.8251 H   0  0  0  0  0  0  0  0  0  0  0  0
   -5.7992   25.6064  -30.2289 H   0  0  0  0  0  0  0  0  0  0  0  0
   -7.5560   25.2318  -30.2289 H   0  0  0  0  0  0  0  0  0  0  0  0
   -7.3411   22.4292  -29.0371 H   0  0  0  0  0  0  0  0  0  0  0  0
   -8.2979   22.7371  -30.5259 H   0  0  0  0  0  0  0  0  0  0  0  0
   -7.0169   21.4779  -30.5259 H   0  0  0  0  0  0  0  0  0  0  0  0
   -6.8524   24.6295  -32.3495 H   0  0  0  0  0  0  0  0  0  0  0  0
   -5.3416   23.6754  -32.5334 H   0  0  0  0  0  0  0  0  0  0  0  0
   -6.9342   22.8445  -32.5334 H   0  0  0  0  0  0  0  0  0  0  0  0
   -3.8736   21.7746  -32.5855 H   0  0  0  0  0  0  0  0  0  0  0  0
   -4.2638   17.0687  -32.3767 H   0  0  0  0  0  0  0  0  0  0  0  0
   -3.5575   18.6954  -31.8801 H   0  0  0  0  0  0  0  0  0  0  0  0
   -5.6600   18.7505  -30.0330 H   0  0  0  0  0  0  0  0  0  0  0  0
   -7.1438   18.0295  -30.7438 H   0  0  0  0  0  0  0  0  0  0  0  0
   -5.6058   17.1017  -30.7438 H   0  0  0  0  0  0  0  0  0  0  0  0
   -5.5479   20.4728  -30.9352 H   0  0  0  0  0  0  0  0  0  0  0  0
   -4.6366   20.6123  -32.4768 H   0  0  0  0  0  0  0  0  0  0  0  0
   -6.4277   20.7488  -32.4768 H   0  0  0  0  0  0  0  0  0  0  0  0
  1  2  1  0
  2  3  1  0
  3  4  1  0
  4  5  1  0
  5  6  1  0
  6  7  1  0
  7  8  1  0
  8  9  2  0
  9 10  1  0
 10 11  2  0
 11 12  1  0
 12 13  2  0
 13 14  1  0
 14 15  1  0
 14 16  2  0
 13 17  1  0
 17 18  1  0
 18 19  2  0
 18 20  1  0
 20 21  1  0
 21 22  1  0
 21 23  1  0
 21 24  1  0
 17 25  1  0
 25 26  2  0
  6 27  1  0
 27 28  1  0
 28 29  1  0
 28 30  1  0
 28  3  1  0
 26  8  1  0
 25 11  1  0
  1 31  1  0
  1 32  1  0
  1 33  1  0
  2 34  1  0
  2 35  1  0
  3 36  1  6
  4 37  1  0
  4 38  1  0
  5 39  1  0
  5 40  1  0
  6 41  1  6
  7 42  1  0
  9 43  1  0
 10 44  1  0
 12 45  1  0
 15 46  1  0
 22 47  1  0
 22 48  1  0
 22 49  1  0
 23 50  1  0
 23 51  1  0
 23 52  1  0
 24 53  1  0
 24 54  1  0
 24 55  1  0
 26 56  1  0
 27 57  1  0
 27 58  1  0
 29 59  1  0
 29 60  1  0
 29 61  1  0
 30 62  1  0
 30 63  1  0
 30 64  1  0
M  CHG  2   3   1  15  -1
M  END
>  <UniqueID>  (79) 
75

>  <SMILES>  (79) 
CC[N@@H+]1CC[C@@H](Nc2ccc3cc(C([NH-])=O)n(C(=O)OC(C)(C)C)c3c2)CC1(C)C

>  <Energy>  (79) 
121.25201426498583

>  <Genealogy>  (79) 
CC[NH+]1CCC(Nc2ccc3cc(C([NH-])=O)n(C(=O)OC(C)(C)C)c3c2)CC1(C)C (protonated)
CC[N@@H+]1CC[C@@H](Nc2ccc3cc(C([NH-])=O)n(C(=O)OC(C)(C)C)c3c2)CC1(C)C (chirality)
CC[N@@H+]1CC[C@@H](Nc2ccc3cc(C([NH-])=O)n(C(=O)OC(C)(C)C)c3c2)CC1(C)C (3D coordinates assigned)
CC[N@@H+]1CC[C@@H](Nc2ccc3cc(C([NH-])=O)n(C(=O)OC(C)(C)C)c3c2)CC1(C)C (nonaromatic ring conformer: 121.25201426498583 kcal/mol)

>  <smiles>  (79) 
CCN1CCC(Nc2ccc3cc(C(N)=O)n(C(=O)OC(C)(C)C)c3c2)CC1(C)C

>  <score_type>  (79) 
oracle

>  <origin>  (79) 
adg

>  <m_score__min__energy>  (79) 
-11.109999999999999

>  <m_primary>  (79) 
energy

$$$$
80:0
     RDKit          3D

 64 65  0  0  0  0  0  0  0  0999 V2000
   -2.7430   14.2700  -32.4170 C   0  0  0  0  0  0  0  0  0  0  0  0
   -4.2690   14.0400  -32.3370 C   0  0  0  0  0  0  0  0  0  0  0  0
   -4.6780   13.1150  -33.5020 C   0  0  0  0  0  0  0  0  0  0  0  0
   -4.5790   13.3550  -30.9860 C   0  0  0  0  0  0  0  0  0  0  0  0
   -4.9760   15.4310  -32.4400 C   0  0  0  0  0  0  0  0  0  0  0  0
   -4.2360   16.4580  -33.2350 N   0  0  2  0  0  0  0  0  0  0  0  0
   -4.7820   17.8480  -33.0370 C   0  0  1  0  0  0  0  0  0  0  0  0
   -3.7450   18.9180  -33.4590 C   0  0  0  0  0  0  0  0  0  0  0  0
   -2.5360   18.3050  -33.8180 O   0  0  0  0  0  0  0  0  0  0  0  0
   -6.1460   18.1420  -33.7470 C   0  0  0  0  0  0  0  0  0  0  0  0
   -7.3430   18.4100  -32.8150 C   0  0  0  0  0  0  0  0  0  0  0  0
   -7.4610   19.8450  -32.3420 C   0  0  0  0  0  0  0  0  0  0  0  0
   -8.7400   20.4580  -32.2750 C   0  0  0  0  0  0  0  0  0  0  0  0
   -8.8810   21.7930  -31.8610 C   0  0  0  0  0  0  0  0  0  0  0  0
   -7.7270   22.5040  -31.5480 C   0  0  0  0  0  0  0  0  0  0  0  0
   -7.5680   23.8070  -31.1310 C   0  0  0  0  0  0  0  0  0  0  0  0
   -6.1920   23.9820  -30.9840 C   0  0  0  0  0  0  0  0  0  0  0  0
   -5.5700   25.2320  -30.5000 C   0  0  0  0  0  0  0  0  0  0  0  0
   -4.2180   25.5490  -30.8150 N   0  0  0  0  0  0  0  0  0  0  0  0
   -6.2370   26.0250  -29.7820 O   0  0  0  0  0  0  0  0  0  0  0  0
   -5.5320   22.8380  -31.3120 N   0  0  0  0  0  0  0  0  0  0  0  0
   -4.1160   22.6060  -31.3360 C   0  0  0  0  0  0  0  0  0  0  0  0
   -3.5330   22.5020  -32.4490 O   0  0  0  0  0  0  0  0  0  0  0  0
   -3.3100   22.6420  -30.0520 C   0  0  0  0  0  0  0  0  0  0  0  0
   -4.2490   22.6920  -28.8300 C   0  0  0  0  0  0  0  0  0  0  0  0
   -2.4300   21.3820  -29.9880 C   0  0  0  0  0  0  0  0  0  0  0  0
   -2.4920   23.7890  -30.0630 O   0  0  0  0  0  0  0  0  0  0  0  0
   -6.4820   21.9420  -31.6440 C   0  0  0  0  0  0  0  0  0  0  0  0
   -6.3100   20.6170  -32.0530 C   0  0  0  0  0  0  0  0  0  0  0  0
   -4.1520   15.9690  -34.9410 S   0  0  0  0  0  0  0  0  0  0  0  0
   -2.6690   15.7120  -35.1820 O   0  0  0  0  0  0  0  0  0  0  0  0
   -4.4260   17.4070  -35.8080 O   0  0  0  0  0  0  0  0  0  0  0  0
   -2.3278   14.3326  -31.4003 H   0  0  0  0  0  0  0  0  0  0  0  0
   -2.2736   13.4325  -32.9538 H   0  0  0  0  0  0  0  0  0  0  0  0
   -2.5413   15.2087  -32.9538 H   0  0  0  0  0  0  0  0  0  0  0  0
   -5.0919   12.1789  -33.0990 H   0  0  0  0  0  0  0  0  0  0  0  0
   -5.4383   13.6165  -34.1188 H   0  0  0  0  0  0  0  0  0  0  0  0
   -3.7954   12.8901  -34.1188 H   0  0  0  0  0  0  0  0  0  0  0  0
   -4.2789   14.0181  -30.1613 H   0  0  0  0  0  0  0  0  0  0  0  0
   -5.6576   13.1501  -30.9178 H   0  0  0  0  0  0  0  0  0  0  0  0
   -4.0211   12.4094  -30.9178 H   0  0  0  0  0  0  0  0  0  0  0  0
   -5.9596   15.2801  -32.9088 H   0  0  0  0  0  0  0  0  0  0  0  0
   -5.0370   15.8218  -31.4136 H   0  0  0  0  0  0  0  0  0  0  0  0
   -3.2390   16.4540  -32.9320 H   0  0  0  0  0  0  0  0  0  0  0  0
   -4.9845   17.9034  -31.9572 H   0  0  0  0  0  0  0  0  0  0  0  0
   -4.1351   19.4832  -34.3183 H   0  0  0  0  0  0  0  0  0  0  0  0
   -3.5657   19.5977  -32.6129 H   0  0  0  0  0  0  0  0  0  0  0  0
   -2.7150   17.8110  -34.6590 H   0  0  0  0  0  0  0  0  0  0  0  0
   -6.0103   19.0276  -34.3852 H   0  0  0  0  0  0  0  0  0  0  0  0
   -6.3980   17.2257  -34.3009 H   0  0  0  0  0  0  0  0  0  0  0  0
   -8.2648   18.1494  -33.3557 H   0  0  0  0  0  0  0  0  0  0  0  0
   -7.1839   17.7960  -31.9163 H   0  0  0  0  0  0  0  0  0  0  0  0
   -9.6336   19.8791  -32.5513 H   0  0  0  0  0  0  0  0  0  0  0  0
   -9.8734   22.2617  -31.7866 H   0  0  0  0  0  0  0  0  0  0  0  0
   -8.3580   24.5512  -30.9520 H   0  0  0  0  0  0  0  0  0  0  0  0
   -3.5040   25.6690  -30.0630 H   0  0  0  0  0  0  0  0  0  0  0  0
   -3.6515   22.6602  -27.9069 H   0  0  0  0  0  0  0  0  0  0  0  0
   -4.8349   23.6226  -28.8556 H   0  0  0  0  0  0  0  0  0  0  0  0
   -4.9304   21.8289  -28.8556 H   0  0  0  0  0  0  0  0  0  0  0  0
   -2.2449   21.1170  -28.9366 H   0  0  0  0  0  0  0  0  0  0  0  0
   -2.9442   20.5497  -30.4908 H   0  0  0  0  0  0  0  0  0  0  0  0
   -1.4715   21.5782  -30.4908 H   0  0  0  0  0  0  0  0  0  0  0  0
   -2.8840   24.4420  -30.7020 H   0  0  0  0  0  0  0  0  0  0  0  0
   -5.3034   20.1837  -32.1482 H   0  0  0  0  0  0  0  0  0  0  0  0
  1  2  1  0
  2  3  1  0
  2  4  1  0
  2  5  1  0
  5  6  1  0
  6  7  1  0
  7  8  1  0
  8  9  1  0
  7 10  1  0
 10 11  1  0
 11 12  1  0
 12 13  2  0
 13 14  1  0
 14 15  2  0
 15 16  1  0
 16 17  2  0
 17 18  1  0
 18 19  1  0
 18 20  2  0
 17 21  1  0
 21 22  1  0
 22 23  2  0
 22 24  1  0
 24 25  1  0
 24 26  1  0
 24 27  1  0
 21 28  1  0
 28 29  2  0
  6 30  1  0
 30 31  2  0
 30 32  1  6
 29 12  1  0
 28 15  1  0
  1 33  1  0
  1 34  1  0
  1 35  1  0
  3 36  1  0
  3 37  1  0
  3 38  1  0
  4 39  1  0
  4 40  1  0
  4 41  1  0
  5 42  1  0
  5 43  1  0
  6 44  1  1
  7 45  1  1
  8 46  1  0
  8 47  1  0
  9 48  1  0
 10 49  1  0
 10 50  1  0
 11 51  1  0
 11 52  1  0
 13 53  1  0
 14 54  1  0
 16 55  1  0
 19 56  1  0
 25 57  1  0
 25 58  1  0
 25 59  1  0
 26 60  1  0
 26 61  1  0
 26 62  1  0
 27 63  1  0
 29 64  1  0
M  CHG  3   6   1  19  -1  32  -1
M  END
>  <UniqueID>  (80) 
76

>  <SMILES>  (80) 
CC(C)(C)C[N@H+]([C@@H](CO)CCc1ccc2cc(C([NH-])=O)n(C(=O)C(C)(C)O)c2c1)S(=O)[O-]

>  <Energy>  (80) 
106.60470315920603

>  <Genealogy>  (80) 
CC(C)(C)C[NH+](C(CO)CCc1ccc2cc(C([NH-])=O)n(C(=O)C(C)(C)O)c2c1)S(=O)[O-] (protonated)
CC(C)(C)C[N@H+]([C@@H](CO)CCc1ccc2cc(C([NH-])=O)n(C(=O)C(C)(C)O)c2c1)S(=O)[O-] (chirality)
CC(C)(C)C[N@H+]([C@@H](CO)CCc1ccc2cc(C([NH-])=O)n(C(=O)C(C)(C)O)c2c1)S(=O)[O-] (3D coordinates assigned)
CC(C)(C)C[N@H+]([C@@H](CO)CCc1ccc2cc(C([NH-])=O)n(C(=O)C(C)(C)O)c2c1)S(=O)[O-] (optimized conformer: 106.60470315920603 kcal/mol)

>  <smiles>  (80) 
CC(C)(C)CN(C(CO)CCc1ccc2cc(C(N)=O)n(C(=O)C(C)(C)O)c2c1)S(=O)O

>  <score_type>  (80) 
oracle

>  <origin>  (80) 
adg

>  <m_score__min__energy>  (80) 
-9.6099999999999994

>  <m_primary>  (80) 
energy

$$$$
81:0
     RDKit          3D

 43 46  0  0  0  0  0  0  0  0999 V2000
    0.1540   26.2260  -26.6370 N   0  0  0  0  0  0  0  0  0  0  0  0
   -0.6510   25.1330  -26.1900 C   0  0  0  0  0  0  0  0  0  0  0  0
   -1.0790   25.1310  -25.0060 O   0  0  0  0  0  0  0  0  0  0  0  0
   -0.9460   23.9960  -27.0890 C   0  0  0  0  0  0  0  0  0  0  0  0
   -0.6650   22.6670  -26.7780 C   0  0  0  0  0  0  0  0  0  0  0  0
   -1.1800   21.9310  -27.8190 C   0  0  0  0  0  0  0  0  0  0  0  0
   -1.1730   20.5560  -28.0300 C   0  0  0  0  0  0  0  0  0  0  0  0
   -1.7570   20.0680  -29.2100 C   0  0  0  0  0  0  0  0  0  0  0  0
   -2.3300   20.9550  -30.1590 C   0  0  0  0  0  0  0  0  0  0  0  0
   -2.9350   20.4380  -31.4090 C   0  0  0  0  0  0  0  0  0  0  0  0
   -2.3140   20.4840  -32.6120 N   0  0  0  0  0  0  0  0  0  0  0  0
   -3.0720   19.9480  -33.6070 C   0  0  0  0  0  0  0  0  0  0  0  0
   -4.3140   19.4760  -33.2010 C   0  0  0  0  0  0  0  0  0  0  0  0
   -5.3340   18.8140  -34.0740 C   0  0  0  0  0  0  0  0  0  0  0  0
   -6.5210   19.6580  -34.2060 N   0  0  0  0  0  0  0  0  0  0  0  0
   -7.1700   20.3280  -33.1070 C   0  0  0  0  0  0  0  0  0  0  0  0
   -6.7960   21.6240  -32.6980 C   0  0  0  0  0  0  0  0  0  0  0  0
   -7.4460   22.2420  -31.6250 C   0  0  0  0  0  0  0  0  0  0  0  0
   -8.4730   21.5780  -30.9500 C   0  0  0  0  0  0  0  0  0  0  0  0
   -8.8540   20.2950  -31.3500 C   0  0  0  0  0  0  0  0  0  0  0  0
   -8.2080   19.6740  -32.4220 C   0  0  0  0  0  0  0  0  0  0  0  0
   -4.4570   19.7210  -31.5440 S   0  0  0  0  0  0  0  0  0  0  0  0
   -2.3160   22.3460  -29.9060 C   0  0  0  0  0  0  0  0  0  0  0  0
   -1.7440   22.8040  -28.7120 C   0  0  0  0  0  0  0  0  0  0  0  0
   -1.6080   24.0780  -28.2780 N   0  0  0  0  0  0  0  0  0  0  0  0
   -2.0120   25.2700  -28.9730 C   0  0  0  0  0  0  0  0  0  0  0  0
   -3.0780   25.2890  -29.6420 O   0  0  0  0  0  0  0  0  0  0  0  0
   -1.2190   26.4110  -28.9280 O   0  0  0  0  0  0  0  0  0  0  0  0
    0.3890   27.0040  -25.9820 H   0  0  0  0  0  0  0  0  0  0  0  0
    0.4830   26.2890  -27.6250 H   0  0  0  0  0  0  0  0  0  0  0  0
   -0.1419   22.2871  -25.8880 H   0  0  0  0  0  0  0  0  0  0  0  0
   -0.7237   19.8720  -27.2950 H   0  0  0  0  0  0  0  0  0  0  0  0
   -1.7707   18.9849  -29.4015 H   0  0  0  0  0  0  0  0  0  0  0  0
   -2.7284   19.8928  -34.6505 H   0  0  0  0  0  0  0  0  0  0  0  0
   -4.9004   18.6410  -35.0700 H   0  0  0  0  0  0  0  0  0  0  0  0
   -5.6268   17.8576  -33.6163 H   0  0  0  0  0  0  0  0  0  0  0  0
   -6.9320   19.7570  -35.1620 H   0  0  0  0  0  0  0  0  0  0  0  0
   -5.9883   22.1523  -33.2258 H   0  0  0  0  0  0  0  0  0  0  0  0
   -7.1478   23.2534  -31.3118 H   0  0  0  0  0  0  0  0  0  0  0  0
   -8.9811   22.0648  -30.1045 H   0  0  0  0  0  0  0  0  0  0  0  0
   -9.6641   19.7726  -30.8200 H   0  0  0  0  0  0  0  0  0  0  0  0
   -8.5147   18.6643  -32.7325 H   0  0  0  0  0  0  0  0  0  0  0  0
   -2.7450   23.0533  -30.6310 H   0  0  0  0  0  0  0  0  0  0  0  0
  1  2  1  0
  2  3  2  0
  2  4  1  0
  4  5  2  0
  5  6  1  0
  6  7  2  0
  7  8  1  0
  8  9  2  0
  9 10  1  0
 10 11  2  0
 11 12  1  0
 12 13  2  0
 13 14  1  0
 14 15  1  0
 15 16  1  0
 16 17  2  0
 17 18  1  0
 18 19  2  0
 19 20  1  0
 20 21  2  0
 13 22  1  0
  9 23  1  0
 23 24  2  0
 24 25  1  0
 25 26  1  0
 26 27  2  0
 26 28  1  0
 25  4  1  0
 24  6  1  0
 22 10  1  0
 21 16  1  0
  1 29  1  0
  1 30  1  0
  5 31  1  0
  7 32  1  0
  8 33  1  0
 12 34  1  0
 14 35  1  0
 14 36  1  0
 15 37  1  0
 17 38  1  0
 18 39  1  0
 19 40  1  0
 20 41  1  0
 21 42  1  0
 23 43  1  0
M  CHG  1  28  -1
M  END
>  <UniqueID>  (81) 
77

>  <SMILES>  (81) 
NC(=O)c1cc2ccc(-c3ncc(CNc4ccccc4)s3)cc2n1C(=O)[O-]

>  <Energy>  (81) 
116.26599069350402

>  <Genealogy>  (81) 
NC(=O)c1cc2ccc(-c3ncc(CNc4ccccc4)s3)cc2n1C(=O)[O-] (protonated)
NC(=O)c1cc2ccc(-c3ncc(CNc4ccccc4)s3)cc2n1C(=O)[O-] (3D coordinates assigned)
NC(=O)c1cc2ccc(-c3ncc(CNc4ccccc4)s3)cc2n1C(=O)[O-] (optimized conformer: 116.26599069350402 kcal/mol)

>  <smiles>  (81) 
NC(=O)c1cc2ccc(-c3ncc(CNc4ccccc4)s3)cc2n1C(=O)O

>  <score_type>  (81) 
oracle

>  <origin>  (81) 
adg

>  <m_score__min__energy>  (81) 
-9.9000000000000004

>  <m_primary>  (81) 
energy

$$$$
82:0
     RDKit          3D

 38 40  0  0  0  0  0  0  0  0999 V2000
   -2.2560   20.9280  -32.4460 C   0  0  0  0  0  0  0  0  0  0  0  0
   -2.9790   22.1480  -32.5430 O   0  0  0  0  0  0  0  0  0  0  0  0
   -3.6170   22.7370  -31.4460 C   0  0  0  0  0  0  0  0  0  0  0  0
   -2.9430   23.1290  -30.4550 O   0  0  0  0  0  0  0  0  0  0  0  0
   -5.0460   22.8720  -31.4410 N   0  0  0  0  0  0  0  0  0  0  0  0
   -5.7880   23.9050  -30.9500 C   0  0  0  0  0  0  0  0  0  0  0  0
   -5.2640   25.1940  -30.4540 C   0  0  0  0  0  0  0  0  0  0  0  0
   -3.9730   25.6600  -30.8390 N   0  0  0  0  0  0  0  0  0  0  0  0
   -5.9840   25.9180  -29.7160 O   0  0  0  0  0  0  0  0  0  0  0  0
   -7.1480   23.6190  -31.0500 C   0  0  0  0  0  0  0  0  0  0  0  0
   -7.2170   22.3740  -31.6310 C   0  0  0  0  0  0  0  0  0  0  0  0
   -8.3250   21.6000  -31.9560 C   0  0  0  0  0  0  0  0  0  0  0  0
   -8.1020   20.3340  -32.5230 C   0  0  0  0  0  0  0  0  0  0  0  0
   -6.7820   19.8560  -32.7510 C   0  0  0  0  0  0  0  0  0  0  0  0
   -6.5650   18.5460  -33.3250 N   0  0  0  0  0  0  0  0  0  0  0  0
   -7.2210   17.3340  -32.8560 C   0  0  0  0  0  0  0  0  0  0  0  0
   -6.8400   16.2460  -33.8500 C   0  0  0  0  0  0  0  0  0  0  0  0
   -5.6060   16.7670  -34.5850 C   0  0  2  0  0  0  0  0  0  0  0  0
   -4.4380   16.2800  -33.9760 O   0  0  0  0  0  0  0  0  0  0  0  0
   -5.6650   18.2850  -34.4410 C   0  0  0  0  0  0  0  0  0  0  0  0
   -5.6840   20.6800  -32.4020 C   0  0  0  0  0  0  0  0  0  0  0  0
   -5.9370   21.9440  -31.8570 C   0  0  0  0  0  0  0  0  0  0  0  0
   -2.1056   20.6742  -31.3863 H   0  0  0  0  0  0  0  0  0  0  0  0
   -2.8241   20.1250  -32.9383 H   0  0  0  0  0  0  0  0  0  0  0  0
   -1.2788   21.0407  -32.9383 H   0  0  0  0  0  0  0  0  0  0  0  0
   -3.1100   25.2820  -30.3910 H   0  0  0  0  0  0  0  0  0  0  0  0
   -7.9881   24.2539  -30.7319 H   0  0  0  0  0  0  0  0  0  0  0  0
   -9.3458   21.9677  -31.7747 H   0  0  0  0  0  0  0  0  0  0  0  0
   -8.9611   19.7031  -32.7946 H   0  0  0  0  0  0  0  0  0  0  0  0
   -6.8676   17.0726  -31.8477 H   0  0  0  0  0  0  0  0  0  0  0  0
   -8.3118   17.4619  -32.7936 H   0  0  0  0  0  0  0  0  0  0  0  0
   -6.6046   15.3102  -33.3220 H   0  0  0  0  0  0  0  0  0  0  0  0
   -7.6633   16.0272  -34.5459 H   0  0  0  0  0  0  0  0  0  0  0  0
   -5.5907   16.4468  -35.6373 H   0  0  0  0  0  0  0  0  0  0  0  0
   -4.5540   16.4080  -32.9980 H   0  0  0  0  0  0  0  0  0  0  0  0
   -4.6641   18.6882  -34.2276 H   0  0  0  0  0  0  0  0  0  0  0  0
   -6.0186   18.7648  -35.3655 H   0  0  0  0  0  0  0  0  0  0  0  0
   -4.6517   20.3329  -32.5565 H   0  0  0  0  0  0  0  0  0  0  0  0
  1  2  1  0
  2  3  1  0
  3  4  2  0
  3  5  1  0
  5  6  1  0
  6  7  1  0
  7  8  1  0
  7  9  2  0
  6 10  2  0
 10 11  1  0
 11 12  2  0
 12 13  1  0
 13 14  2  0
 14 15  1  0
 15 16  1  0
 16 17  1  0
 17 18  1  0
 18 19  1  0
 18 20  1  0
 14 21  1  0
 21 22  2  0
 22  5  1  0
 22 11  1  0
 20 15  1  0
  1 23  1  0
  1 24  1  0
  1 25  1  0
  8 26  1  0
 10 27  1  0
 12 28  1  0
 13 29  1  0
 16 30  1  0
 16 31  1  0
 17 32  1  0
 17 33  1  0
 18 34  1  6
 19 35  1  0
 20 36  1  0
 20 37  1  0
 21 38  1  0
M  CHG  1   8  -1
M  END
>  <UniqueID>  (82) 
78

>  <SMILES>  (82) 
COC(=O)n1c(C([NH-])=O)cc2ccc(N3CC[C@H](O)C3)cc21

>  <Energy>  (82) 
78.51762816195657

>  <Genealogy>  (82) 
COC(=O)n1c(C([NH-])=O)cc2ccc(N3CC[C@H](O)C3)cc21 (protonated)
COC(=O)n1c(C([NH-])=O)cc2ccc(N3CC[C@H](O)C3)cc21 (3D coordinates assigned)
COC(=O)n1c(C([NH-])=O)cc2ccc(N3CC[C@H](O)C3)cc21 (nonaromatic ring conformer: 78.51762816195657 kcal/mol)

>  <smiles>  (82) 
COC(=O)n1c(C(N)=O)cc2ccc(N3CC[C@H](O)C3)cc21

>  <score_type>  (82) 
oracle

>  <origin>  (82) 
adg

>  <m_score__min__energy>  (82) 
-9.6699999999999999

>  <m_primary>  (82) 
energy

$$$$
83:0
     RDKit          3D

 39 41  0  0  0  0  0  0  0  0999 V2000
   -1.3800   22.6570  -29.8050 C   0  0  0  0  0  0  0  0  0  0  0  0
   -2.8400   22.5870  -29.9140 N   0  0  0  0  0  0  0  0  0  0  0  0
   -3.6750   22.5390  -28.7100 C   0  0  0  0  0  0  0  0  0  0  0  0
   -3.4500   22.5050  -31.2160 C   0  0  0  0  0  0  0  0  0  0  0  0
   -2.7350   22.3230  -32.2400 O   0  0  0  0  0  0  0  0  0  0  0  0
   -4.8700   22.6270  -31.3690 N   0  0  0  0  0  0  0  0  0  0  0  0
   -5.6680   23.6560  -30.9720 C   0  0  0  0  0  0  0  0  0  0  0  0
   -5.2060   24.9250  -30.3700 C   0  0  0  0  0  0  0  0  0  0  0  0
   -3.8490   25.3440  -30.4910 N   0  0  0  0  0  0  0  0  0  0  0  0
   -6.0240   25.6580  -29.7540 O   0  0  0  0  0  0  0  0  0  0  0  0
   -7.0050   23.3660  -31.2450 C   0  0  0  0  0  0  0  0  0  0  0  0
   -6.9950   22.1140  -31.8200 C   0  0  0  0  0  0  0  0  0  0  0  0
   -8.0480   21.3270  -32.2780 C   0  0  0  0  0  0  0  0  0  0  0  0
   -7.7430   20.0630  -32.8100 C   0  0  0  0  0  0  0  0  0  0  0  0
   -6.3990   19.6030  -32.8700 C   0  0  0  0  0  0  0  0  0  0  0  0
   -6.0870   18.2660  -33.4350 C   0  0  0  0  0  0  0  0  0  0  0  0
   -6.9660   17.1860  -33.2470 C   0  0  0  0  0  0  0  0  0  0  0  0
   -6.6530   15.9360  -33.7860 C   0  0  0  0  0  0  0  0  0  0  0  0
   -5.5050   15.7620  -34.4920 N   0  0  0  0  0  0  0  0  0  0  0  0
   -4.6340   16.7880  -34.6920 C   0  0  0  0  0  0  0  0  0  0  0  0
   -3.4980   16.5830  -35.4050 F   0  0  0  0  0  0  0  0  0  0  0  0
   -4.9070   18.0540  -34.1690 C   0  0  0  0  0  0  0  0  0  0  0  0
   -5.3600   20.4340  -32.3890 C   0  0  0  0  0  0  0  0  0  0  0  0
   -5.6960   21.6910  -31.8800 C   0  0  0  0  0  0  0  0  0  0  0  0
   -1.0918   22.6708  -28.7435 H   0  0  0  0  0  0  0  0  0  0  0  0
   -0.9332   21.7792  -30.2948 H   0  0  0  0  0  0  0  0  0  0  0  0
   -1.0193   23.5735  -30.2948 H   0  0  0  0  0  0  0  0  0  0  0  0
   -3.0335   22.5759  -27.8172 H   0  0  0  0  0  0  0  0  0  0  0  0
   -4.3606   23.3992  -28.7047 H   0  0  0  0  0  0  0  0  0  0  0  0
   -4.2575   21.6059  -28.7047 H   0  0  0  0  0  0  0  0  0  0  0  0
   -3.5630   26.0320  -31.2220 H   0  0  0  0  0  0  0  0  0  0  0  0
   -7.8803   24.0013  -31.0441 H   0  0  0  0  0  0  0  0  0  0  0  0
   -9.0871   21.6839  -32.2250 H   0  0  0  0  0  0  0  0  0  0  0  0
   -8.5540   19.4213  -33.1848 H   0  0  0  0  0  0  0  0  0  0  0  0
   -7.8969   17.3244  -32.6776 H   0  0  0  0  0  0  0  0  0  0  0  0
   -7.3388   15.0887  -33.6383 H   0  0  0  0  0  0  0  0  0  0  0  0
   -5.2870   14.8210  -34.8890 H   0  0  0  0  0  0  0  0  0  0  0  0
   -4.2013   18.8821  -34.3309 H   0  0  0  0  0  0  0  0  0  0  0  0
   -4.3127   20.0985  -32.4151 H   0  0  0  0  0  0  0  0  0  0  0  0
  1  2  1  0
  2  3  1  0
  2  4  1  0
  4  5  2  0
  4  6  1  0
  6  7  1  0
  7  8  1  0
  8  9  1  0
  8 10  2  0
  7 11  2  0
 11 12  1  0
 12 13  2  0
 13 14  1  0
 14 15  2  0
 15 16  1  0
 16 17  2  0
 17 18  1  0
 18 19  2  0
 19 20  1  0
 20 21  1  0
 20 22  2  0
 15 23  1  0
 23 24  2  0
 24  6  1  0
 24 12  1  0
 22 16  1  0
  1 25  1  0
  1 26  1  0
  1 27  1  0
  3 28  1  0
  3 29  1  0
  3 30  1  0
  9 31  1  0
 11 32  1  0
 13 33  1  0
 14 34  1  0
 17 35  1  0
 18 36  1  0
 19 37  1  0
 22 38  1  0
 23 39  1  0
M  CHG  2   9  -1  19   1
M  END
>  <UniqueID>  (83) 
79

>  <SMILES>  (83) 
CN(C)C(=O)n1c(C([NH-])=O)cc2ccc(-c3cc[nH+]c(F)c3)cc21

>  <Energy>  (83) 
83.504193366721

>  <Genealogy>  (83) 
CN(C)C(=O)n1c(C([NH-])=O)cc2ccc(-c3cc[nH+]c(F)c3)cc21 (protonated)
CN(C)C(=O)n1c(C([NH-])=O)cc2ccc(-c3cc[nH+]c(F)c3)cc21 (3D coordinates assigned)
CN(C)C(=O)n1c(C([NH-])=O)cc2ccc(-c3cc[nH+]c(F)c3)cc21 (optimized conformer: 83.504193366721 kcal/mol)

>  <smiles>  (83) 
CN(C)C(=O)n1c(C(N)=O)cc2ccc(-c3ccnc(F)c3)cc21

>  <score_type>  (83) 
oracle

>  <origin>  (83) 
adg

>  <m_score__min__energy>  (83) 
-10.52

>  <m_primary>  (83) 
energy

$$$$
84:0
     RDKit          3D

 43 45  0  0  0  0  0  0  0  0999 V2000
   -9.9420   21.9100  -30.9820 N   0  0  0  0  0  0  0  0  0  0  0  0
   -9.0130   21.3540  -31.3920 C   0  0  0  0  0  0  0  0  0  0  0  0
   -7.8580   20.6620  -31.9010 C   0  0  0  0  0  0  0  0  0  0  0  0
   -6.9250   21.3410  -32.6870 C   0  0  0  0  0  0  0  0  0  0  0  0
   -5.8140   20.6660  -33.1980 C   0  0  0  0  0  0  0  0  0  0  0  0
   -5.6050   19.2950  -32.9280 C   0  0  0  0  0  0  0  0  0  0  0  0
   -4.4260   18.5790  -33.6090 C   0  0  2  0  0  0  0  0  0  0  0  0
   -3.9160   17.6590  -32.6650 O   0  0  0  0  0  0  0  0  0  0  0  0
   -3.3040   19.6190  -33.9440 C   0  0  0  0  0  0  0  0  0  0  0  0
   -2.6170   20.2290  -32.7400 C   0  0  0  0  0  0  0  0  0  0  0  0
   -1.4720   19.6080  -32.1790 C   0  0  0  0  0  0  0  0  0  0  0  0
   -0.8040   20.1900  -31.0890 C   0  0  0  0  0  0  0  0  0  0  0  0
   -1.3080   21.3800  -30.5740 C   0  0  0  0  0  0  0  0  0  0  0  0
   -0.8300   22.1760  -29.5590 C   0  0  0  0  0  0  0  0  0  0  0  0
   -1.7100   23.2550  -29.4900 C   0  0  0  0  0  0  0  0  0  0  0  0
   -1.6210   24.3300  -28.4770 C   0  0  0  0  0  0  0  0  0  0  0  0
   -1.5310   25.7000  -28.8710 N   0  0  0  0  0  0  0  0  0  0  0  0
   -1.5920   24.0430  -27.2510 O   0  0  0  0  0  0  0  0  0  0  0  0
   -2.6940   23.1290  -30.4250 N   0  0  0  0  0  0  0  0  0  0  0  0
   -3.7350   24.0720  -30.7380 C   0  0  0  0  0  0  0  0  0  0  0  0
   -3.5790   25.2970  -30.4930 O   0  0  0  0  0  0  0  0  0  0  0  0
   -4.9170   23.6440  -31.3310 O   0  0  0  0  0  0  0  0  0  0  0  0
   -2.4350   21.9740  -31.0770 C   0  0  0  0  0  0  0  0  0  0  0  0
   -3.1190   21.4180  -32.1640 C   0  0  0  0  0  0  0  0  0  0  0  0
   -4.8360   17.7560  -34.8690 C   0  0  0  0  0  0  0  0  0  0  0  0
   -3.7510   17.4110  -35.6510 F   0  0  0  0  0  0  0  0  0  0  0  0
   -5.4620   16.5810  -34.4870 F   0  0  0  0  0  0  0  0  0  0  0  0
   -5.7270   18.4860  -35.6380 F   0  0  0  0  0  0  0  0  0  0  0  0
   -6.5610   18.6270  -32.1270 C   0  0  0  0  0  0  0  0  0  0  0  0
   -7.6720   19.3070  -31.6190 C   0  0  0  0  0  0  0  0  0  0  0  0
   -7.0652   22.4102  -32.9044 H   0  0  0  0  0  0  0  0  0  0  0  0
   -5.0896   21.2110  -33.8211 H   0  0  0  0  0  0  0  0  0  0  0  0
   -3.9180   16.7500  -33.0670 H   0  0  0  0  0  0  0  0  0  0  0  0
   -2.5402   19.1129  -34.5527 H   0  0  0  0  0  0  0  0  0  0  0  0
   -3.8005   20.4490  -34.4681 H   0  0  0  0  0  0  0  0  0  0  0  0
   -1.1035   18.6616  -32.6015 H   0  0  0  0  0  0  0  0  0  0  0  0
    0.0907   19.7190  -30.6557 H   0  0  0  0  0  0  0  0  0  0  0  0
    0.0580   21.9988  -28.9345 H   0  0  0  0  0  0  0  0  0  0  0  0
   -1.4290   26.4480  -28.1500 H   0  0  0  0  0  0  0  0  0  0  0  0
   -1.6070   25.9820  -29.8730 H   0  0  0  0  0  0  0  0  0  0  0  0
   -4.0268   21.8956  -32.5611 H   0  0  0  0  0  0  0  0  0  0  0  0
   -6.4284   17.5587  -31.9010 H   0  0  0  0  0  0  0  0  0  0  0  0
   -8.4028   18.7723  -30.9945 H   0  0  0  0  0  0  0  0  0  0  0  0
  1  2  3  0
  2  3  1  0
  3  4  2  0
  4  5  1  0
  5  6  2  0
  6  7  1  0
  7  8  1  1
  7  9  1  0
  9 10  1  0
 10 11  2  0
 11 12  1  0
 12 13  2  0
 13 14  1  0
 14 15  2  0
 15 16  1  0
 16 17  1  0
 16 18  2  0
 15 19  1  0
 19 20  1  0
 20 21  2  0
 20 22  1  0
 19 23  1  0
 23 24  2  0
  7 25  1  0
 25 26  1  0
 25 27  1  0
 25 28  1  0
  6 29  1  0
 29 30  2  0
 30  3  1  0
 24 10  1  0
 23 13  1  0
  4 31  1  0
  5 32  1  0
  8 33  1  0
  9 34  1  0
  9 35  1  0
 11 36  1  0
 12 37  1  0
 14 38  1  0
 17 39  1  0
 17 40  1  0
 24 41  1  0
 29 42  1  0
 30 43  1  0
M  CHG  1  22  -1
M  END
>  <UniqueID>  (84) 
80

>  <SMILES>  (84) 
N#Cc1ccc([C@](O)(Cc2ccc3cc(C(N)=O)n(C(=O)[O-])c3c2)C(F)(F)F)cc1

>  <Energy>  (84) 
90.15033176107542

>  <Genealogy>  (84) 
N#Cc1ccc(C(O)(Cc2ccc3cc(C(N)=O)n(C(=O)[O-])c3c2)C(F)(F)F)cc1 (protonated)
N#Cc1ccc([C@](O)(Cc2ccc3cc(C(N)=O)n(C(=O)[O-])c3c2)C(F)(F)F)cc1 (chirality)
N#Cc1ccc([C@](O)(Cc2ccc3cc(C(N)=O)n(C(=O)[O-])c3c2)C(F)(F)F)cc1 (3D coordinates assigned)
N#Cc1ccc([C@](O)(Cc2ccc3cc(C(N)=O)n(C(=O)[O-])c3c2)C(F)(F)F)cc1 (optimized conformer: 90.15033176107542 kcal/mol)

>  <smiles>  (84) 
N#Cc1ccc(C(O)(Cc2ccc3cc(C(N)=O)n(C(=O)O)c3c2)C(F)(F)F)cc1

>  <score_type>  (84) 
oracle

>  <origin>  (84) 
adg

>  <m_score__min__energy>  (84) 
-10.1

>  <m_primary>  (84) 
energy

$$$$
85:0
     RDKit          3D

 26 27  0  0  0  0  0  0  0  0999 V2000
   -7.6720   18.5910  -32.6920 C   0  0  0  0  0  0  0  0  0  0  0  0
   -7.6240   20.0030  -32.1910 C   0  0  0  0  0  0  0  0  0  0  0  0
   -8.7860   20.6050  -31.6510 C   0  0  0  0  0  0  0  0  0  0  0  0
   -8.7490   21.9200  -31.1570 C   0  0  0  0  0  0  0  0  0  0  0  0
   -7.5340   22.5960  -31.1960 C   0  0  0  0  0  0  0  0  0  0  0  0
   -7.2210   23.8800  -30.8120 C   0  0  0  0  0  0  0  0  0  0  0  0
   -5.8620   24.0280  -31.0860 C   0  0  0  0  0  0  0  0  0  0  0  0
   -5.0940   25.2500  -30.7660 C   0  0  0  0  0  0  0  0  0  0  0  0
   -3.7020   25.1860  -30.4670 N   0  0  0  0  0  0  0  0  0  0  0  0
   -5.6830   26.3630  -30.7200 O   0  0  0  0  0  0  0  0  0  0  0  0
   -5.3560   22.8810  -31.6210 N   0  0  0  0  0  0  0  0  0  0  0  0
   -4.0250   22.6490  -32.1050 C   0  0  0  0  0  0  0  0  0  0  0  0
   -3.8040   22.3020  -33.4720 N   0  0  0  0  0  0  0  0  0  0  0  0
   -3.0420   22.7580  -31.3250 O   0  0  0  0  0  0  0  0  0  0  0  0
   -6.3910   22.0150  -31.6840 C   0  0  0  0  0  0  0  0  0  0  0  0
   -6.4040   20.7160  -32.2020 C   0  0  0  0  0  0  0  0  0  0  0  0
   -7.6955   17.8992  -31.8371 H   0  0  0  0  0  0  0  0  0  0  0  0
   -8.5755   18.4493  -33.3033 H   0  0  0  0  0  0  0  0  0  0  0  0
   -6.7802   18.3883  -33.3033 H   0  0  0  0  0  0  0  0  0  0  0  0
   -9.7277   20.0374  -31.6178 H   0  0  0  0  0  0  0  0  0  0  0  0
   -9.6524   22.3996  -30.7522 H   0  0  0  0  0  0  0  0  0  0  0  0
   -7.8994   24.6306  -30.3803 H   0  0  0  0  0  0  0  0  0  0  0  0
   -3.0070   24.9100  -31.1950 H   0  0  0  0  0  0  0  0  0  0  0  0
   -2.8340   22.1630  -33.8320 H   0  0  0  0  0  0  0  0  0  0  0  0
   -4.6100   22.1450  -34.1170 H   0  0  0  0  0  0  0  0  0  0  0  0
   -5.4882   20.2611  -32.6075 H   0  0  0  0  0  0  0  0  0  0  0  0
  1  2  1  0
  2  3  2  0
  3  4  1  0
  4  5  2  0
  5  6  1  0
  6  7  2  0
  7  8  1  0
  8  9  1  0
  8 10  2  0
  7 11  1  0
 11 12  1  0
 12 13  1  0
 12 14  2  0
 11 15  1  0
 15 16  2  0
 16  2  1  0
 15  5  1  0
  1 17  1  0
  1 18  1  0
  1 19  1  0
  3 20  1  0
  4 21  1  0
  6 22  1  0
  9 23  1  0
 13 24  1  0
 13 25  1  0
 16 26  1  0
M  CHG  1   9  -1
M  END
>  <UniqueID>  (85) 
81

>  <SMILES>  (85) 
Cc1ccc2cc(C([NH-])=O)n(C(N)=O)c2c1

>  <Energy>  (85) 
64.3183059340059

>  <Genealogy>  (85) 
Cc1ccc2cc(C([NH-])=O)n(C(N)=O)c2c1 (protonated)
Cc1ccc2cc(C([NH-])=O)n(C(N)=O)c2c1 (3D coordinates assigned)
Cc1ccc2cc(C([NH-])=O)n(C(N)=O)c2c1 (optimized conformer: 64.3183059340059 kcal/mol)

>  <smiles>  (85) 
Cc1ccc2cc(C(N)=O)n(C(N)=O)c2c1

>  <score_type>  (85) 
oracle

>  <origin>  (85) 
adg

>  <m_score__min__energy>  (85) 
-9.8300000000000001

>  <m_primary>  (85) 
energy

$$$$
86:0
     RDKit          3D

 78 82  0  0  0  0  0  0  0  0999 V2000
   -6.4120   25.2280  -29.3580 C   0  0  0  0  0  0  0  0  0  0  0  0
   -4.9900   24.9210  -29.4800 N   0  0  0  0  0  0  0  0  0  0  0  0
   -4.4710   24.0490  -30.5000 C   0  0  0  0  0  0  0  0  0  0  0  0
   -5.1300   23.9010  -31.5720 O   0  0  0  0  0  0  0  0  0  0  0  0
   -3.2130   23.3560  -30.3230 N   0  0  0  0  0  0  0  0  0  0  0  0
   -2.1350   23.7510  -29.5730 C   0  0  0  0  0  0  0  0  0  0  0  0
   -2.0430   24.9170  -28.6640 C   0  0  0  0  0  0  0  0  0  0  0  0
   -1.2380   26.0510  -28.9730 N   0  0  0  0  0  0  0  0  0  0  0  0
   -2.7460   24.9360  -27.6160 O   0  0  0  0  0  0  0  0  0  0  0  0
   -1.0720   22.8580  -29.7290 C   0  0  0  0  0  0  0  0  0  0  0  0
   -1.5270   21.8980  -30.5880 C   0  0  0  0  0  0  0  0  0  0  0  0
   -0.8660   20.7860  -31.0970 C   0  0  0  0  0  0  0  0  0  0  0  0
   -1.5480   19.9670  -32.0000 C   0  0  0  0  0  0  0  0  0  0  0  0
   -2.8910   20.2530  -32.3690 C   0  0  0  0  0  0  0  0  0  0  0  0
   -3.6320   19.3400  -33.2920 C   0  0  0  0  0  0  0  0  0  0  0  0
   -4.9460   19.6580  -33.6800 C   0  0  0  0  0  0  0  0  0  0  0  0
   -5.6300   18.8500  -34.5340 N   0  0  0  0  0  0  0  0  0  0  0  0
   -5.0730   17.7270  -35.0560 C   0  0  0  0  0  0  0  0  0  0  0  0
   -3.7790   17.3630  -34.7020 C   0  0  0  0  0  0  0  0  0  0  0  0
   -3.0390   18.1610  -33.8070 C   0  0  0  0  0  0  0  0  0  0  0  0
   -1.7390   17.8130  -33.4100 O   0  0  0  0  0  0  0  0  0  0  0  0
   -1.3330   16.4990  -33.0220 C   0  0  0  0  0  0  0  0  0  0  0  0
   -0.2870   16.5330  -31.9070 C   0  0  0  0  0  0  0  0  0  0  0  0
   -0.5090   17.6610  -31.0990 O   0  0  0  0  0  0  0  0  0  0  0  0
    0.6590   17.8420  -29.8040 Si  0  0  0  0  0  4  0  0  0  0  0  0
    0.9940   16.2180  -28.8570 C   0  0  0  0  0  0  0  0  0  0  0  0
    1.1170   16.2070  -27.4520 C   0  0  0  0  0  0  0  0  0  0  0  0
    1.4090   15.0270  -26.7620 C   0  0  0  0  0  0  0  0  0  0  0  0
    1.6420   13.8470  -27.4650 C   0  0  0  0  0  0  0  0  0  0  0  0
    1.5870   13.8500  -28.8570 C   0  0  0  0  0  0  0  0  0  0  0  0
    1.2740   15.0210  -29.5470 C   0  0  0  0  0  0  0  0  0  0  0  0
    0.0570   19.1030  -28.5300 C   0  0  0  0  0  0  0  0  0  0  0  0
    0.7980   20.2760  -28.3090 C   0  0  0  0  0  0  0  0  0  0  0  0
    0.3720   21.2270  -27.3770 C   0  0  0  0  0  0  0  0  0  0  0  0
   -0.8060   21.0270  -26.6540 C   0  0  0  0  0  0  0  0  0  0  0  0
   -1.5480   19.8630  -26.8520 C   0  0  0  0  0  0  0  0  0  0  0  0
   -1.1200   18.9040  -27.7780 C   0  0  0  0  0  0  0  0  0  0  0  0
    2.2170   18.4250  -30.7970 C   0  0  0  0  0  0  0  0  0  0  0  0
    3.2660   19.1110  -29.8920 C   0  0  0  0  0  0  0  0  0  0  0  0
    1.7670   19.4060  -31.9050 C   0  0  0  0  0  0  0  0  0  0  0  0
    2.8440   17.2060  -31.5170 C   0  0  0  0  0  0  0  0  0  0  0  0
   -3.5180   21.4150  -31.8600 C   0  0  0  0  0  0  0  0  0  0  0  0
   -2.8190   22.2140  -30.9410 C   0  0  0  0  0  0  0  0  0  0  0  0
   -6.6844   25.2868  -28.2939 H   0  0  0  0  0  0  0  0  0  0  0  0
   -6.6220   26.1922  -29.8441 H   0  0  0  0  0  0  0  0  0  0  0  0
   -7.0011   24.4363  -29.8441 H   0  0  0  0  0  0  0  0  0  0  0  0
   -4.3220   25.3960  -28.8280 H   0  0  0  0  0  0  0  0  0  0  0  0
   -0.8960   26.2170  -29.9490 H   0  0  0  0  0  0  0  0  0  0  0  0
   -0.0789   22.9156  -29.2596 H   0  0  0  0  0  0  0  0  0  0  0  0
    0.1671   20.5570  -30.7965 H   0  0  0  0  0  0  0  0  0  0  0  0
   -1.0404   19.0911  -32.4304 H   0  0  0  0  0  0  0  0  0  0  0  0
   -5.4247   20.5681  -33.2894 H   0  0  0  0  0  0  0  0  0  0  0  0
   -5.6461   17.1050  -35.7594 H   0  0  0  0  0  0  0  0  0  0  0  0
   -3.3317   16.4498  -35.1215 H   0  0  0  0  0  0  0  0  0  0  0  0
   -2.2141   15.9446  -32.6666 H   0  0  0  0  0  0  0  0  0  0  0  0
   -0.8831   16.0080  -33.8975 H   0  0  0  0  0  0  0  0  0  0  0  0
   -0.3699   15.6214  -31.2969 H   0  0  0  0  0  0  0  0  0  0  0  0
    0.7200   16.5859  -32.3466 H   0  0  0  0  0  0  0  0  0  0  0  0
    0.9809   17.1427  -26.8899 H   0  0  0  0  0  0  0  0  0  0  0  0
    1.4549   15.0301  -25.6630 H   0  0  0  0  0  0  0  0  0  0  0  0
    1.8684   12.9168  -26.9232 H   0  0  0  0  0  0  0  0  0  0  0  0
    1.7915   12.9242  -29.4147 H   0  0  0  0  0  0  0  0  0  0  0  0
    1.2452   15.0104  -30.6466 H   0  0  0  0  0  0  0  0  0  0  0  0
    1.7246   20.4482  -28.8762 H   0  0  0  0  0  0  0  0  0  0  0  0
    0.9675   22.1371  -27.2124 H   0  0  0  0  0  0  0  0  0  0  0  0
   -1.1468   21.7837  -25.9321 H   0  0  0  0  0  0  0  0  0  0  0  0
   -2.4723   19.6978  -26.2790 H   0  0  0  0  0  0  0  0  0  0  0  0
   -1.7079   17.9853  -27.9208 H   0  0  0  0  0  0  0  0  0  0  0  0
    3.0067   18.9414  -28.8365 H   0  0  0  0  0  0  0  0  0  0  0  0
    4.2604   18.6882  -30.0978 H   0  0  0  0  0  0  0  0  0  0  0  0
    3.2773   20.1915  -30.0978 H   0  0  0  0  0  0  0  0  0  0  0  0
    1.3506   20.3138  -31.4440 H   0  0  0  0  0  0  0  0  0  0  0  0
    2.6316   19.6754  -32.5295 H   0  0  0  0  0  0  0  0  0  0  0  0
    0.9988   18.9265  -32.5295 H   0  0  0  0  0  0  0  0  0  0  0  0
    3.2131   16.4885  -30.7694 H   0  0  0  0  0  0  0  0  0  0  0  0
    2.0835   16.7209  -32.1466 H   0  0  0  0  0  0  0  0  0  0  0  0
    3.6809   17.5426  -32.1466 H   0  0  0  0  0  0  0  0  0  0  0  0
   -4.5350   21.6875  -32.1786 H   0  0  0  0  0  0  0  0  0  0  0  0
  1  2  1  0
  2  3  1  0
  3  4  2  0
  3  5  1  0
  5  6  1  0
  6  7  1  0
  7  8  1  0
  7  9  2  0
  6 10  2  0
 10 11  1  0
 11 12  2  0
 12 13  1  0
 13 14  2  0
 14 15  1  0
 15 16  2  0
 16 17  1  0
 17 18  2  0
 18 19  1  0
 19 20  2  0
 20 21  1  0
 21 22  1  0
 22 23  1  0
 23 24  1  0
 24 25  1  0
 25 26  1  0
 26 27  2  0
 27 28  1  0
 28 29  2  0
 29 30  1  0
 30 31  2  0
 25 32  1  0
 32 33  2  0
 33 34  1  0
 34 35  2  0
 35 36  1  0
 36 37  2  0
 25 38  1  0
 38 39  1  0
 38 40  1  0
 38 41  1  0
 14 42  1  0
 42 43  2  0
 43  5  1  0
 43 11  1  0
 20 15  1  0
 31 26  1  0
 37 32  1  0
  1 44  1  0
  1 45  1  0
  1 46  1  0
  2 47  1  0
  8 48  1  0
 10 49  1  0
 12 50  1  0
 13 51  1  0
 16 52  1  0
 18 53  1  0
 19 54  1  0
 22 55  1  0
 22 56  1  0
 23 57  1  0
 23 58  1  0
 27 59  1  0
 28 60  1  0
 29 61  1  0
 30 62  1  0
 31 63  1  0
 33 64  1  0
 34 65  1  0
 35 66  1  0
 36 67  1  0
 37 68  1  0
 39 69  1  0
 39 70  1  0
 39 71  1  0
 40 72  1  0
 40 73  1  0
 40 74  1  0
 41 75  1  0
 41 76  1  0
 41 77  1  0
 42 78  1  0
M  CHG  1   8  -1
M  END
>  <UniqueID>  (86) 
82

>  <SMILES>  (86) 
CNC(=O)n1c(C([NH-])=O)cc2ccc(-c3cnccc3OCCO[Si](c3ccccc3)(c3ccccc3)C(C)(C)C)cc21

>  <Energy>  (86) 
133.75757109352065

>  <Genealogy>  (86) 
CNC(=O)n1c(C([NH-])=O)cc2ccc(-c3cnccc3OCCO[Si](c3ccccc3)(c3ccccc3)C(C)(C)C)cc21 (protonated)
CNC(=O)n1c(C([NH-])=O)cc2ccc(-c3cnccc3OCCO[Si](c3ccccc3)(c3ccccc3)C(C)(C)C)cc21 (3D coordinates assigned)
CNC(=O)n1c(C([NH-])=O)cc2ccc(-c3cnccc3OCCO[Si](c3ccccc3)(c3ccccc3)C(C)(C)C)cc21 (optimized conformer: 133.75757109352065 kcal/mol)

>  <smiles>  (86) 
CNC(=O)n1c(C(N)=O)cc2ccc(-c3cnccc3OCCO[Si](c3ccccc3)(c3ccccc3)C(C)(C)C)cc21

>  <score_type>  (86) 
oracle

>  <origin>  (86) 
adg

>  <m_score__min__energy>  (86) 
-11.93

>  <m_primary>  (86) 
energy

$$$$
87:0
     RDKit          3D

 46 48  0  0  0  0  0  0  0  0999 V2000
   -2.8480   20.0750  -33.7610 C   0  0  0  0  0  0  0  0  0  0  0  0
   -2.2730   20.9870  -32.6670 C   0  0  0  0  0  0  0  0  0  0  0  0
   -2.3840   20.2650  -31.3100 C   0  0  0  0  0  0  0  0  0  0  0  0
   -0.8020   21.2980  -33.0000 C   0  0  0  0  0  0  0  0  0  0  0  0
   -3.0560   22.1880  -32.6630 O   0  0  0  0  0  0  0  0  0  0  0  0
   -3.6250   22.8090  -31.5410 C   0  0  0  0  0  0  0  0  0  0  0  0
   -2.9030   23.2380  -30.6010 O   0  0  0  0  0  0  0  0  0  0  0  0
   -5.0530   22.9250  -31.4510 N   0  0  0  0  0  0  0  0  0  0  0  0
   -5.7810   23.9470  -30.9200 C   0  0  0  0  0  0  0  0  0  0  0  0
   -5.2480   25.2460  -30.4590 C   0  0  0  0  0  0  0  0  0  0  0  0
   -3.9370   25.6710  -30.8200 N   0  0  0  0  0  0  0  0  0  0  0  0
   -5.9790   26.0120  -29.7740 O   0  0  0  0  0  0  0  0  0  0  0  0
   -7.1400   23.6410  -30.9450 C   0  0  0  0  0  0  0  0  0  0  0  0
   -7.2220   22.3930  -31.5200 C   0  0  0  0  0  0  0  0  0  0  0  0
   -8.3340   21.6010  -31.7840 C   0  0  0  0  0  0  0  0  0  0  0  0
   -8.1220   20.3390  -32.3630 C   0  0  0  0  0  0  0  0  0  0  0  0
   -6.8090   19.8810  -32.6630 C   0  0  0  0  0  0  0  0  0  0  0  0
   -6.6000   18.5760  -33.2530 N   0  0  0  0  0  0  0  0  0  0  0  0
   -7.2200   17.3540  -32.7620 C   0  0  0  0  0  0  0  0  0  0  0  0
   -6.8550   16.2690  -33.7640 C   0  0  0  0  0  0  0  0  0  0  0  0
   -5.6750   16.8180  -34.5580 C   0  0  0  0  0  0  0  0  0  0  0  0
   -5.7380   18.3300  -34.3990 C   0  0  0  0  0  0  0  0  0  0  0  0
   -5.7080   20.7230  -32.3740 C   0  0  0  0  0  0  0  0  0  0  0  0
   -5.9500   21.9830  -31.8160 C   0  0  0  0  0  0  0  0  0  0  0  0
   -3.3792   19.2324  -33.2942 H   0  0  0  0  0  0  0  0  0  0  0  0
   -3.5480   20.6487  -34.3861 H   0  0  0  0  0  0  0  0  0  0  0  0
   -2.0285   19.6907  -34.3861 H   0  0  0  0  0  0  0  0  0  0  0  0
   -2.2716   20.9958  -30.4956 H   0  0  0  0  0  0  0  0  0  0  0  0
   -3.3675   19.7784  -31.2329 H   0  0  0  0  0  0  0  0  0  0  0  0
   -1.5921   19.5054  -31.2329 H   0  0  0  0  0  0  0  0  0  0  0  0
   -0.2323   21.4184  -32.0667 H   0  0  0  0  0  0  0  0  0  0  0  0
   -0.3757   20.4701  -33.5856 H   0  0  0  0  0  0  0  0  0  0  0  0
   -0.7472   22.2276  -33.5856 H   0  0  0  0  0  0  0  0  0  0  0  0
   -3.0970   25.3030  -30.3210 H   0  0  0  0  0  0  0  0  0  0  0  0
   -7.9708   24.2642  -30.5824 H   0  0  0  0  0  0  0  0  0  0  0  0
   -9.3490   21.9522  -31.5466 H   0  0  0  0  0  0  0  0  0  0  0  0
   -8.9847   19.6947  -32.5880 H   0  0  0  0  0  0  0  0  0  0  0  0
   -6.8299   17.1010  -31.7651 H   0  0  0  0  0  0  0  0  0  0  0  0
   -8.3102   17.4648  -32.6662 H   0  0  0  0  0  0  0  0  0  0  0  0
   -6.5681   15.3450  -33.2407 H   0  0  0  0  0  0  0  0  0  0  0  0
   -7.7032   16.0201  -34.4187 H   0  0  0  0  0  0  0  0  0  0  0  0
   -4.7280   16.4293  -34.1554 H   0  0  0  0  0  0  0  0  0  0  0  0
   -5.7236   16.5191  -35.6155 H   0  0  0  0  0  0  0  0  0  0  0  0
   -4.7328   18.7375  -34.2159 H   0  0  0  0  0  0  0  0  0  0  0  0
   -6.1256   18.8153  -35.3069 H   0  0  0  0  0  0  0  0  0  0  0  0
   -4.6802   20.3923  -32.5845 H   0  0  0  0  0  0  0  0  0  0  0  0
  1  2  1  0
  2  3  1  0
  2  4  1  0
  2  5  1  0
  5  6  1  0
  6  7  2  0
  6  8  1  0
  8  9  1  0
  9 10  1  0
 10 11  1  0
 10 12  2  0
  9 13  2  0
 13 14  1  0
 14 15  2  0
 15 16  1  0
 16 17  2  0
 17 18  1  0
 18 19  1  0
 19 20  1  0
 20 21  1  0
 21 22  1  0
 17 23  1  0
 23 24  2  0
 24  8  1  0
 24 14  1  0
 22 18  1  0
  1 25  1  0
  1 26  1  0
  1 27  1  0
  3 28  1  0
  3 29  1  0
  3 30  1  0
  4 31  1  0
  4 32  1  0
  4 33  1  0
 11 34  1  0
 13 35  1  0
 15 36  1  0
 16 37  1  0
 19 38  1  0
 19 39  1  0
 20 40  1  0
 20 41  1  0
 21 42  1  0
 21 43  1  0
 22 44  1  0
 22 45  1  0
 23 46  1  0
M  CHG  1  11  -1
M  END
>  <UniqueID>  (87) 
83

>  <SMILES>  (87) 
CC(C)(C)OC(=O)n1c(C([NH-])=O)cc2ccc(N3CCCC3)cc21

>  <Energy>  (87) 
81.88104075718302

>  <Genealogy>  (87) 
CC(C)(C)OC(=O)n1c(C([NH-])=O)cc2ccc(N3CCCC3)cc21 (protonated)
CC(C)(C)OC(=O)n1c(C([NH-])=O)cc2ccc(N3CCCC3)cc21 (3D coordinates assigned)
CC(C)(C)OC(=O)n1c(C([NH-])=O)cc2ccc(N3CCCC3)cc21 (nonaromatic ring conformer: 81.88104075718302 kcal/mol)

>  <smiles>  (87) 
CC(C)(C)OC(=O)n1c(C(N)=O)cc2ccc(N3CCCC3)cc21

>  <score_type>  (87) 
oracle

>  <origin>  (87) 
adg

>  <m_score__min__energy>  (87) 
-10.890000000000001

>  <m_primary>  (87) 
energy

$$$$
88:0
     RDKit          3D

 58 60  0  0  0  0  0  0  0  0999 V2000
   -1.5920   18.2860  -34.2320 C   0  0  0  0  0  0  0  0  0  0  0  0
   -2.1180   16.9120  -34.1320 N   0  0  0  0  0  0  0  0  0  0  0  0
   -1.0860   15.9590  -34.5680 C   0  0  0  0  0  0  0  0  0  0  0  0
   -3.3340   16.7540  -34.9570 C   0  0  0  0  0  0  0  0  0  0  0  0
   -4.5560   17.1950  -34.1930 C   0  0  0  0  0  0  0  0  0  0  0  0
   -4.9510   16.4990  -33.0410 C   0  0  0  0  0  0  0  0  0  0  0  0
   -6.0670   16.9200  -32.3120 C   0  0  0  0  0  0  0  0  0  0  0  0
   -6.8060   18.0390  -32.7280 C   0  0  0  0  0  0  0  0  0  0  0  0
   -7.9760   18.5230  -31.9150 C   0  0  0  0  0  0  0  0  0  0  0  0
   -7.8880   20.0110  -31.7170 C   0  0  0  0  0  0  0  0  0  0  0  0
   -8.9730   20.8450  -32.0870 C   0  0  0  0  0  0  0  0  0  0  0  0
   -8.8790   22.2400  -31.9530 C   0  0  0  0  0  0  0  0  0  0  0  0
   -7.6930   22.7710  -31.4530 C   0  0  0  0  0  0  0  0  0  0  0  0
   -7.3210   24.0810  -31.2560 C   0  0  0  0  0  0  0  0  0  0  0  0
   -6.0200   24.0270  -30.7610 C   0  0  0  0  0  0  0  0  0  0  0  0
   -5.2640   25.2200  -30.3280 C   0  0  0  0  0  0  0  0  0  0  0  0
   -3.8630   25.3280  -30.5700 N   0  0  0  0  0  0  0  0  0  0  0  0
   -5.8520   26.1350  -29.6920 O   0  0  0  0  0  0  0  0  0  0  0  0
   -5.6000   22.7330  -30.6650 N   0  0  0  0  0  0  0  0  0  0  0  0
   -4.2990   22.2510  -30.2970 C   0  0  0  0  0  0  0  0  0  0  0  0
   -4.0780   21.8950  -29.1080 O   0  0  0  0  0  0  0  0  0  0  0  0
   -3.2820   22.2120  -31.2620 O   0  0  0  0  0  0  0  0  0  0  0  0
   -3.1680   21.2750  -32.3430 C   0  0  0  0  0  0  0  0  0  0  0  0
   -1.7460   21.3050  -32.9350 C   0  0  0  0  0  0  0  0  0  0  0  0
   -3.5330   19.8550  -31.8710 C   0  0  0  0  0  0  0  0  0  0  0  0
   -4.1660   21.7110  -33.4260 C   0  0  0  0  0  0  0  0  0  0  0  0
   -6.6360   21.9770  -31.0880 C   0  0  0  0  0  0  0  0  0  0  0  0
   -6.6960   20.5850  -31.2250 C   0  0  0  0  0  0  0  0  0  0  0  0
   -6.3990   18.7440  -33.8710 C   0  0  0  0  0  0  0  0  0  0  0  0
   -5.2840   18.3230  -34.6010 C   0  0  0  0  0  0  0  0  0  0  0  0
   -1.4361   18.6933  -33.2222 H   0  0  0  0  0  0  0  0  0  0  0  0
   -0.6350   18.2737  -34.7742 H   0  0  0  0  0  0  0  0  0  0  0  0
   -2.3126   18.9159  -34.7742 H   0  0  0  0  0  0  0  0  0  0  0  0
   -0.6029   15.5129  -33.6862 H   0  0  0  0  0  0  0  0  0  0  0  0
   -1.5510   15.1659  -35.1719 H   0  0  0  0  0  0  0  0  0  0  0  0
   -0.3323   16.4855  -35.1719 H   0  0  0  0  0  0  0  0  0  0  0  0
   -3.2359   17.3658  -35.8659 H   0  0  0  0  0  0  0  0  0  0  0  0
   -3.4463   15.6924  -35.2223 H   0  0  0  0  0  0  0  0  0  0  0  0
   -4.3805   15.6187  -32.7100 H   0  0  0  0  0  0  0  0  0  0  0  0
   -6.3679   16.3715  -31.4073 H   0  0  0  0  0  0  0  0  0  0  0  0
   -8.9104   18.2809  -32.4424 H   0  0  0  0  0  0  0  0  0  0  0  0
   -7.9612   18.0278  -30.9329 H   0  0  0  0  0  0  0  0  0  0  0  0
   -9.8961   20.3959  -32.4823 H   0  0  0  0  0  0  0  0  0  0  0  0
   -9.7176   22.8937  -32.2348 H   0  0  0  0  0  0  0  0  0  0  0  0
   -7.9236   24.9808  -31.4487 H   0  0  0  0  0  0  0  0  0  0  0  0
   -3.4860   26.0370  -31.2370 H   0  0  0  0  0  0  0  0  0  0  0  0
   -1.0091   21.3205  -32.1184 H   0  0  0  0  0  0  0  0  0  0  0  0
   -1.5878   20.4100  -33.5546 H   0  0  0  0  0  0  0  0  0  0  0  0
   -1.6257   22.2059  -33.5546 H   0  0  0  0  0  0  0  0  0  0  0  0
   -3.5408   19.8248  -30.7714 H   0  0  0  0  0  0  0  0  0  0  0  0
   -4.5293   19.5867  -32.2522 H   0  0  0  0  0  0  0  0  0  0  0  0
   -2.7896   19.1395  -32.2522 H   0  0  0  0  0  0  0  0  0  0  0  0
   -5.0744   22.1078  -32.9492 H   0  0  0  0  0  0  0  0  0  0  0  0
   -3.7096   22.4917  -34.0522 H   0  0  0  0  0  0  0  0  0  0  0  0
   -4.4288   20.8457  -34.0522 H   0  0  0  0  0  0  0  0  0  0  0  0
   -5.8358   19.9544  -30.9560 H   0  0  0  0  0  0  0  0  0  0  0  0
   -6.9606   19.6329  -34.1942 H   0  0  0  0  0  0  0  0  0  0  0  0
   -4.9759   18.8783  -35.4992 H   0  0  0  0  0  0  0  0  0  0  0  0
  1  2  1  0
  2  3  1  0
  2  4  1  0
  4  5  1  0
  5  6  2  0
  6  7  1  0
  7  8  2  0
  8  9  1  0
  9 10  1  0
 10 11  2  0
 11 12  1  0
 12 13  2  0
 13 14  1  0
 14 15  2  0
 15 16  1  0
 16 17  1  0
 16 18  2  0
 15 19  1  0
 19 20  1  0
 20 21  2  0
 20 22  1  0
 22 23  1  0
 23 24  1  0
 23 25  1  0
 23 26  1  0
 19 27  1  0
 27 28  2  0
  8 29  1  0
 29 30  2  0
 30  5  1  0
 28 10  1  0
 27 13  1  0
  1 31  1  0
  1 32  1  0
  1 33  1  0
  3 34  1  0
  3 35  1  0
  3 36  1  0
  4 37  1  0
  4 38  1  0
  6 39  1  0
  7 40  1  0
  9 41  1  0
  9 42  1  0
 11 43  1  0
 12 44  1  0
 14 45  1  0
 17 46  1  0
 24 47  1  0
 24 48  1  0
 24 49  1  0
 25 50  1  0
 25 51  1  0
 25 52  1  0
 26 53  1  0
 26 54  1  0
 26 55  1  0
 28 56  1  0
 29 57  1  0
 30 58  1  0
M  CHG  1  17  -1
M  END
>  <UniqueID>  (88) 
84

>  <SMILES>  (88) 
CN(C)Cc1ccc(Cc2ccc3cc(C([NH-])=O)n(C(=O)OC(C)(C)C)c3c2)cc1

>  <Energy>  (88) 
91.18468943430234

>  <Genealogy>  (88) 
CN(C)Cc1ccc(Cc2ccc3cc(C([NH-])=O)n(C(=O)OC(C)(C)C)c3c2)cc1 (protonated)
CN(C)Cc1ccc(Cc2ccc3cc(C([NH-])=O)n(C(=O)OC(C)(C)C)c3c2)cc1 (3D coordinates assigned)
CN(C)Cc1ccc(Cc2ccc3cc(C([NH-])=O)n(C(=O)OC(C)(C)C)c3c2)cc1 (optimized conformer: 91.18468943430234 kcal/mol)

>  <smiles>  (88) 
CN(C)Cc1ccc(Cc2ccc3cc(C(N)=O)n(C(=O)OC(C)(C)C)c3c2)cc1

>  <score_type>  (88) 
oracle

>  <origin>  (88) 
adg

>  <m_score__min__energy>  (88) 
-11.960000000000001

>  <m_primary>  (88) 
energy

$$$$
89:0
     RDKit          3D

 37 38  0  0  0  0  0  0  0  0999 V2000
   -6.8660   18.4550  -32.8340 C   0  0  0  0  0  0  0  0  0  0  0  0
   -7.0270   19.8830  -32.4040 C   0  0  0  0  0  0  0  0  0  0  0  0
   -8.3220   20.4400  -32.2640 C   0  0  0  0  0  0  0  0  0  0  0  0
   -8.4870   21.7680  -31.8400 C   0  0  0  0  0  0  0  0  0  0  0  0
   -7.3440   22.5060  -31.5460 C   0  0  0  0  0  0  0  0  0  0  0  0
   -7.2150   23.8150  -31.1410 C   0  0  0  0  0  0  0  0  0  0  0  0
   -5.8440   24.0250  -31.0030 C   0  0  0  0  0  0  0  0  0  0  0  0
   -5.2630   25.2880  -30.5020 C   0  0  0  0  0  0  0  0  0  0  0  0
   -3.9330   25.6690  -30.8430 N   0  0  0  0  0  0  0  0  0  0  0  0
   -5.9330   26.0160  -29.7210 O   0  0  0  0  0  0  0  0  0  0  0  0
   -5.1510   22.8940  -31.3160 N   0  0  0  0  0  0  0  0  0  0  0  0
   -3.7280   22.7320  -31.3960 C   0  0  0  0  0  0  0  0  0  0  0  0
   -3.2150   22.2140  -32.4240 O   0  0  0  0  0  0  0  0  0  0  0  0
   -2.9230   23.1750  -30.3350 O   0  0  0  0  0  0  0  0  0  0  0  0
   -2.8530   22.6020  -29.0220 C   0  0  0  0  0  0  0  0  0  0  0  0
   -2.7860   21.0640  -29.1010 C   0  0  0  0  0  0  0  0  0  0  0  0
   -1.6410   23.1600  -28.2510 C   0  0  0  0  0  0  0  0  0  0  0  0
   -4.1390   23.0030  -28.2830 C   0  0  0  0  0  0  0  0  0  0  0  0
   -6.0850   21.9720  -31.6460 C   0  0  0  0  0  0  0  0  0  0  0  0
   -5.8900   20.6560  -32.0840 C   0  0  0  0  0  0  0  0  0  0  0  0
   -6.7933   17.8105  -31.9455 H   0  0  0  0  0  0  0  0  0  0  0  0
   -7.7358   18.1530  -33.4359 H   0  0  0  0  0  0  0  0  0  0  0  0
   -5.9508   18.3543  -33.4359 H   0  0  0  0  0  0  0  0  0  0  0  0
   -9.2065   19.8262  -32.4896 H   0  0  0  0  0  0  0  0  0  0  0  0
   -9.4888   22.2118  -31.7431 H   0  0  0  0  0  0  0  0  0  0  0  0
   -8.0222   24.5410  -30.9639 H   0  0  0  0  0  0  0  0  0  0  0  0
   -3.1140   25.2890  -30.3190 H   0  0  0  0  0  0  0  0  0  0  0  0
   -2.7677   20.6451  -28.0841 H   0  0  0  0  0  0  0  0  0  0  0  0
   -3.6685   20.6856  -29.6377 H   0  0  0  0  0  0  0  0  0  0  0  0
   -1.8739   20.7638  -29.6377 H   0  0  0  0  0  0  0  0  0  0  0  0
   -1.8239   23.0758  -27.1696 H   0  0  0  0  0  0  0  0  0  0  0  0
   -0.7414   22.5854  -28.5165 H   0  0  0  0  0  0  0  0  0  0  0  0
   -1.4926   24.2171  -28.5165 H   0  0  0  0  0  0  0  0  0  0  0  0
   -3.9697   22.9502  -27.1974 H   0  0  0  0  0  0  0  0  0  0  0  0
   -4.4166   24.0304  -28.5613 H   0  0  0  0  0  0  0  0  0  0  0  0
   -4.9514   22.3155  -28.5613 H   0  0  0  0  0  0  0  0  0  0  0  0
   -4.8776   20.2359  -32.1762 H   0  0  0  0  0  0  0  0  0  0  0  0
  1  2  1  0
  2  3  2  0
  3  4  1  0
  4  5  2  0
  5  6  1  0
  6  7  2  0
  7  8  1  0
  8  9  1  0
  8 10  2  0
  7 11  1  0
 11 12  1  0
 12 13  2  0
 12 14  1  0
 14 15  1  0
 15 16  1  0
 15 17  1  0
 15 18  1  0
 11 19  1  0
 19 20  2  0
 20  2  1  0
 19  5  1  0
  1 21  1  0
  1 22  1  0
  1 23  1  0
  3 24  1  0
  4 25  1  0
  6 26  1  0
  9 27  1  0
 16 28  1  0
 16 29  1  0
 16 30  1  0
 17 31  1  0
 17 32  1  0
 17 33  1  0
 18 34  1  0
 18 35  1  0
 18 36  1  0
 20 37  1  0
M  CHG  1   9  -1
M  END
>  <UniqueID>  (89) 
85

>  <SMILES>  (89) 
Cc1ccc2cc(C([NH-])=O)n(C(=O)OC(C)(C)C)c2c1

>  <Energy>  (89) 
70.44368208507876

>  <Genealogy>  (89) 
Cc1ccc2cc(C([NH-])=O)n(C(=O)OC(C)(C)C)c2c1 (protonated)
Cc1ccc2cc(C([NH-])=O)n(C(=O)OC(C)(C)C)c2c1 (3D coordinates assigned)
Cc1ccc2cc(C([NH-])=O)n(C(=O)OC(C)(C)C)c2c1 (optimized conformer: 70.44368208507876 kcal/mol)

>  <smiles>  (89) 
Cc1ccc2cc(C(N)=O)n(C(=O)OC(C)(C)C)c2c1

>  <score_type>  (89) 
oracle

>  <origin>  (89) 
adg

>  <m_score__min__energy>  (89) 
-10.06

>  <m_primary>  (89) 
energy

$$$$
90:0
     RDKit          3D

 52 54  0  0  0  0  0  0  0  0999 V2000
   -8.6950   21.1730  -31.3840 C   0  0  0  0  0  0  0  0  0  0  0  0
   -8.0450   19.9690  -32.0920 C   0  0  0  0  0  0  0  0  0  0  0  0
   -9.1360   18.9430  -32.4280 C   0  0  0  0  0  0  0  0  0  0  0  0
   -7.3590   20.4130  -33.3980 C   0  0  0  0  0  0  0  0  0  0  0  0
   -7.1050   19.3190  -31.2240 O   0  0  0  0  0  0  0  0  0  0  0  0
   -6.0930   18.4270  -31.6110 C   0  0  0  0  0  0  0  0  0  0  0  0
   -6.1590   17.2050  -31.3130 O   0  0  0  0  0  0  0  0  0  0  0  0
   -4.9600   18.9220  -32.3430 N   0  0  0  0  0  0  0  0  0  0  0  0
   -4.6540   18.6880  -33.6510 C   0  0  0  0  0  0  0  0  0  0  0  0
   -5.3530   17.7310  -34.5360 C   0  0  0  0  0  0  0  0  0  0  0  0
   -6.0570   16.6130  -33.9900 N   0  0  0  0  0  0  0  0  0  0  0  0
   -5.3580   17.9090  -35.7830 O   0  0  0  0  0  0  0  0  0  0  0  0
   -3.5240   19.4110  -34.0240 C   0  0  0  0  0  0  0  0  0  0  0  0
   -3.1420   20.1010  -32.8970 C   0  0  0  0  0  0  0  0  0  0  0  0
   -2.0870   20.9880  -32.7050 C   0  0  0  0  0  0  0  0  0  0  0  0
   -1.9480   21.5820  -31.4410 C   0  0  0  0  0  0  0  0  0  0  0  0
   -2.8570   21.2830  -30.3930 C   0  0  0  0  0  0  0  0  0  0  0  0
   -2.7220   21.9210  -29.1080 N   0  0  0  0  0  0  0  0  0  0  0  0
   -3.8370   22.7060  -28.5590 C   0  0  0  0  0  0  0  0  0  0  0  0
   -3.3620   23.6670  -27.4560 C   0  0  0  0  0  0  0  0  0  0  0  0
   -2.0000   24.3070  -27.7980 C   0  0  0  0  0  0  0  0  0  0  0  0
   -2.1470   25.2990  -28.9250 C   0  0  0  0  0  0  0  0  0  0  0  0
   -3.1200   25.2310  -29.7210 O   0  0  0  0  0  0  0  0  0  0  0  0
   -1.2220   26.3270  -29.0640 O   0  0  0  0  0  0  0  0  0  0  0  0
   -0.9010   23.2460  -28.0990 C   0  0  0  0  0  0  0  0  0  0  0  0
   -1.4640   21.8390  -28.3540 C   0  0  0  0  0  0  0  0  0  0  0  0
   -3.9200   20.3820  -30.6310 C   0  0  0  0  0  0  0  0  0  0  0  0
   -4.0250   19.7910  -31.8960 C   0  0  0  0  0  0  0  0  0  0  0  0
   -8.6233   21.0402  -30.2944 H   0  0  0  0  0  0  0  0  0  0  0  0
   -8.1726   22.0959  -31.6760 H   0  0  0  0  0  0  0  0  0  0  0  0
   -9.7532   21.2426  -31.6760 H   0  0  0  0  0  0  0  0  0  0  0  0
   -9.5620   18.5424  -31.4963 H   0  0  0  0  0  0  0  0  0  0  0  0
   -9.9292   19.4299  -33.0142 H   0  0  0  0  0  0  0  0  0  0  0  0
   -8.6986   18.1214  -33.0142 H   0  0  0  0  0  0  0  0  0  0  0  0
   -6.4577   20.9964  -33.1587 H   0  0  0  0  0  0  0  0  0  0  0  0
   -7.0768   19.5258  -33.9839 H   0  0  0  0  0  0  0  0  0  0  0  0
   -8.0528   21.0338  -33.9839 H   0  0  0  0  0  0  0  0  0  0  0  0
   -6.0310   16.4030  -32.9680 H   0  0  0  0  0  0  0  0  0  0  0  0
   -6.5780   15.9640  -34.6210 H   0  0  0  0  0  0  0  0  0  0  0  0
   -3.0392   19.4270  -35.0113 H   0  0  0  0  0  0  0  0  0  0  0  0
   -1.3835   21.2166  -33.5191 H   0  0  0  0  0  0  0  0  0  0  0  0
   -1.1242   22.2882  -31.2604 H   0  0  0  0  0  0  0  0  0  0  0  0
   -4.2951   23.2914  -29.3699 H   0  0  0  0  0  0  0  0  0  0  0  0
   -4.5653   22.0090  -28.1187 H   0  0  0  0  0  0  0  0  0  0  0  0
   -4.1092   24.4649  -27.3335 H   0  0  0  0  0  0  0  0  0  0  0  0
   -3.2436   23.0888  -26.5277 H   0  0  0  0  0  0  0  0  0  0  0  0
   -1.6595   24.8518  -26.9051 H   0  0  0  0  0  0  0  0  0  0  0  0
   -0.3433   23.5654  -28.9917 H   0  0  0  0  0  0  0  0  0  0  0  0
   -0.2589   23.1821  -27.2081 H   0  0  0  0  0  0  0  0  0  0  0  0
   -0.7324   21.2548  -28.9315 H   0  0  0  0  0  0  0  0  0  0  0  0
   -1.6579   21.3511  -27.3874 H   0  0  0  0  0  0  0  0  0  0  0  0
   -4.6485   20.1504  -29.8400 H   0  0  0  0  0  0  0  0  0  0  0  0
  1  2  1  0
  2  3  1  0
  2  4  1  0
  2  5  1  0
  5  6  1  0
  6  7  2  0
  6  8  1  0
  8  9  1  0
  9 10  1  0
 10 11  1  0
 10 12  2  0
  9 13  2  0
 13 14  1  0
 14 15  2  0
 15 16  1  0
 16 17  2  0
 17 18  1  0
 18 19  1  0
 19 20  1  0
 20 21  1  0
 21 22  1  0
 22 23  2  0
 22 24  1  0
 21 25  1  0
 25 26  1  0
 17 27  1  0
 27 28  2  0
 28  8  1  0
 28 14  1  0
 26 18  1  0
  1 29  1  0
  1 30  1  0
  1 31  1  0
  3 32  1  0
  3 33  1  0
  3 34  1  0
  4 35  1  0
  4 36  1  0
  4 37  1  0
 11 38  1  0
 11 39  1  0
 13 40  1  0
 15 41  1  0
 16 42  1  0
 19 43  1  0
 19 44  1  0
 20 45  1  0
 20 46  1  0
 21 47  1  0
 25 48  1  0
 25 49  1  0
 26 50  1  0
 26 51  1  0
 27 52  1  0
M  CHG  1  24  -1
M  END
>  <UniqueID>  (90) 
86

>  <SMILES>  (90) 
CC(C)(C)OC(=O)n1c(C(N)=O)cc2ccc(N3CCC(C(=O)[O-])CC3)cc21

>  <Energy>  (90) 
93.36463177958593

>  <Genealogy>  (90) 
CC(C)(C)OC(=O)n1c(C(N)=O)cc2ccc(N3CCC(C(=O)[O-])CC3)cc21 (protonated)
CC(C)(C)OC(=O)n1c(C(N)=O)cc2ccc(N3CCC(C(=O)[O-])CC3)cc21 (3D coordinates assigned)
CC(C)(C)OC(=O)n1c(C(N)=O)cc2ccc(N3CCC(C(=O)[O-])CC3)cc21 (nonaromatic ring conformer: 93.36463177958593 kcal/mol)

>  <smiles>  (90) 
CC(C)(C)OC(=O)n1c(C(N)=O)cc2ccc(N3CCC(C(=O)O)CC3)cc21

>  <score_type>  (90) 
oracle

>  <origin>  (90) 
adg

>  <m_score__min__energy>  (90) 
-10.119999999999999

>  <m_primary>  (90) 
energy

$$$$
91:0
     RDKit          3D

 41 42  0  0  0  0  0  0  0  0999 V2000
   -5.7080   18.5090  -34.5710 C   0  0  0  0  0  0  0  0  0  0  0  0
   -6.5580   18.3800  -33.3110 C   0  0  0  0  0  0  0  0  0  0  0  0
   -6.8430   19.7350  -32.7210 C   0  0  0  0  0  0  0  0  0  0  0  0
   -8.1760   20.1130  -32.4250 C   0  0  0  0  0  0  0  0  0  0  0  0
   -8.4510   21.3560  -31.8310 C   0  0  0  0  0  0  0  0  0  0  0  0
   -7.3780   22.1960  -31.5470 C   0  0  0  0  0  0  0  0  0  0  0  0
   -7.3590   23.4330  -30.9440 C   0  0  0  0  0  0  0  0  0  0  0  0
   -6.0160   23.7980  -30.8970 C   0  0  0  0  0  0  0  0  0  0  0  0
   -5.5430   25.0990  -30.3830 C   0  0  0  0  0  0  0  0  0  0  0  0
   -4.1950   25.5280  -30.5830 N   0  0  0  0  0  0  0  0  0  0  0  0
   -6.3560   25.8670  -29.8050 O   0  0  0  0  0  0  0  0  0  0  0  0
   -5.2330   22.8200  -31.4340 N   0  0  0  0  0  0  0  0  0  0  0  0
   -3.7980   22.7740  -31.4730 C   0  0  0  0  0  0  0  0  0  0  0  0
   -3.2110   22.3350  -32.4990 O   0  0  0  0  0  0  0  0  0  0  0  0
   -3.0580   23.2170  -30.3700 O   0  0  0  0  0  0  0  0  0  0  0  0
   -2.3150   22.3440  -29.5200 C   0  0  0  0  0  0  0  0  0  0  0  0
   -3.2230   21.6950  -28.4580 C   0  0  0  0  0  0  0  0  0  0  0  0
   -2.3760   20.9850  -27.3960 C   0  0  0  0  0  0  0  0  0  0  0  0
   -4.1380   22.7370  -27.8020 C   0  0  0  0  0  0  0  0  0  0  0  0
   -6.0820   21.8480  -31.8330 C   0  0  0  0  0  0  0  0  0  0  0  0
   -5.7770   20.6070  -32.4040 C   0  0  0  0  0  0  0  0  0  0  0  0
   -4.6567   18.6686  -34.2893 H   0  0  0  0  0  0  0  0  0  0  0  0
   -5.7924   17.5878  -35.1661 H   0  0  0  0  0  0  0  0  0  0  0  0
   -6.0619   19.3637  -35.1661 H   0  0  0  0  0  0  0  0  0  0  0  0
   -7.5092   17.8896  -33.5656 H   0  0  0  0  0  0  0  0  0  0  0  0
   -6.0061   17.7811  -32.5716 H   0  0  0  0  0  0  0  0  0  0  0  0
   -9.0027   19.4273  -32.6623 H   0  0  0  0  0  0  0  0  0  0  0  0
   -9.4831   21.6564  -31.5974 H   0  0  0  0  0  0  0  0  0  0  0  0
   -8.2207   24.0101  -30.5774 H   0  0  0  0  0  0  0  0  0  0  0  0
   -3.5470   24.9990  -31.2070 H   0  0  0  0  0  0  0  0  0  0  0  0
   -3.8680   26.4310  -30.1750 H   0  0  0  0  0  0  0  0  0  0  0  0
   -1.8557   21.5531  -30.1312 H   0  0  0  0  0  0  0  0  0  0  0  0
   -1.5425   22.9336  -29.0047 H   0  0  0  0  0  0  0  0  0  0  0  0
   -3.8592   20.9518  -28.9608 H   0  0  0  0  0  0  0  0  0  0  0  0
   -2.7241   21.2768  -26.3941 H   0  0  0  0  0  0  0  0  0  0  0  0
   -2.4750   19.8960  -27.5159 H   0  0  0  0  0  0  0  0  0  0  0  0
   -1.3211   21.2727  -27.5159 H   0  0  0  0  0  0  0  0  0  0  0  0
   -4.0641   22.6528  -26.7077 H   0  0  0  0  0  0  0  0  0  0  0  0
   -3.8281   23.7453  -28.1139 H   0  0  0  0  0  0  0  0  0  0  0  0
   -5.1779   22.5601  -28.1139 H   0  0  0  0  0  0  0  0  0  0  0  0
   -4.7341   20.3178  -32.6010 H   0  0  0  0  0  0  0  0  0  0  0  0
  1  2  1  0
  2  3  1  0
  3  4  2  0
  4  5  1  0
  5  6  2  0
  6  7  1  0
  7  8  2  0
  8  9  1  0
  9 10  1  0
  9 11  2  0
  8 12  1  0
 12 13  1  0
 13 14  2  0
 13 15  1  0
 15 16  1  0
 16 17  1  0
 17 18  1  0
 17 19  1  0
 12 20  1  0
 20 21  2  0
 21  3  1  0
 20  6  1  0
  1 22  1  0
  1 23  1  0
  1 24  1  0
  2 25  1  0
  2 26  1  0
  4 27  1  0
  5 28  1  0
  7 29  1  0
 10 30  1  0
 10 31  1  0
 16 32  1  0
 16 33  1  0
 17 34  1  0
 18 35  1  0
 18 36  1  0
 18 37  1  0
 19 38  1  0
 19 39  1  0
 19 40  1  0
 21 41  1  0
M  END
>  <UniqueID>  (91) 
87

>  <SMILES>  (91) 
CCc1ccc2cc(C(N)=O)n(C(=O)OCC(C)C)c2c1

>  <Energy>  (91) 
69.0207757631535

>  <Genealogy>  (91) 
CCc1ccc2cc(C(N)=O)n(C(=O)OCC(C)C)c2c1 (3D coordinates assigned)
CCc1ccc2cc(C(N)=O)n(C(=O)OCC(C)C)c2c1 (optimized conformer: 69.0207757631535 kcal/mol)

>  <smiles>  (91) 
CCc1ccc2cc(C(N)=O)n(C(=O)OCC(C)C)c2c1

>  <score_type>  (91) 
oracle

>  <origin>  (91) 
adg

>  <m_score__min__energy>  (91) 
-8.7799999999999994

>  <m_primary>  (91) 
energy

$$$$
92:0
     RDKit          3D

 50 53  0  0  0  0  0  0  0  0999 V2000
   -4.1350   22.9820  -28.0160 C   0  0  0  0  0  0  0  0  0  0  0  0
   -2.8030   22.5860  -28.6700 C   0  0  0  0  0  0  0  0  0  0  0  0
   -1.6460   23.1140  -27.7990 C   0  0  0  0  0  0  0  0  0  0  0  0
   -2.7400   21.0510  -28.7840 C   0  0  0  0  0  0  0  0  0  0  0  0
   -2.7740   23.1900  -29.9710 O   0  0  0  0  0  0  0  0  0  0  0  0
   -3.3260   22.6590  -31.1470 C   0  0  0  0  0  0  0  0  0  0  0  0
   -2.6010   22.0730  -31.9960 O   0  0  0  0  0  0  0  0  0  0  0  0
   -4.7410   22.7630  -31.3720 N   0  0  0  0  0  0  0  0  0  0  0  0
   -5.5650   23.7920  -31.0270 C   0  0  0  0  0  0  0  0  0  0  0  0
   -5.1410   25.1050  -30.4970 C   0  0  0  0  0  0  0  0  0  0  0  0
   -3.8830   25.6690  -30.8580 N   0  0  0  0  0  0  0  0  0  0  0  0
   -5.9210   25.7590  -29.7540 O   0  0  0  0  0  0  0  0  0  0  0  0
   -6.8900   23.4750  -31.3160 C   0  0  0  0  0  0  0  0  0  0  0  0
   -6.8520   22.2120  -31.8610 C   0  0  0  0  0  0  0  0  0  0  0  0
   -7.8890   21.3990  -32.3100 C   0  0  0  0  0  0  0  0  0  0  0  0
   -7.5620   20.1210  -32.7910 C   0  0  0  0  0  0  0  0  0  0  0  0
   -6.2150   19.6800  -32.8180 C   0  0  0  0  0  0  0  0  0  0  0  0
   -5.8940   18.3160  -33.2930 C   0  0  0  0  0  0  0  0  0  0  0  0
   -6.8530   17.3300  -33.5090 C   0  0  0  0  0  0  0  0  0  0  0  0
   -6.1450   16.2050  -33.8600 C   0  0  0  0  0  0  0  0  0  0  0  0
   -6.5990   14.9320  -34.1980 C   0  0  0  0  0  0  0  0  0  0  0  0
   -5.6420   13.9660  -34.5510 C   0  0  0  0  0  0  0  0  0  0  0  0
   -4.2700   14.2930  -34.5670 C   0  0  0  0  0  0  0  0  0  0  0  0
   -3.8410   15.5880  -34.2230 C   0  0  0  0  0  0  0  0  0  0  0  0
   -4.8110   16.5300  -33.8550 C   0  0  0  0  0  0  0  0  0  0  0  0
   -4.6410   17.8260  -33.5100 N   0  0  0  0  0  0  0  0  0  0  0  0
   -3.4040   18.5620  -33.4810 C   0  0  0  0  0  0  0  0  0  0  0  0
   -2.4660   18.2060  -32.7200 O   0  0  0  0  0  0  0  0  0  0  0  0
   -3.2280   19.6730  -34.2970 O   0  0  0  0  0  0  0  0  0  0  0  0
   -5.1920   20.5270  -32.3360 C   0  0  0  0  0  0  0  0  0  0  0  0
   -5.5440   21.8040  -31.8830 C   0  0  0  0  0  0  0  0  0  0  0  0
   -4.0297   22.9507  -26.9215 H   0  0  0  0  0  0  0  0  0  0  0  0
   -4.4087   24.0004  -28.3290 H   0  0  0  0  0  0  0  0  0  0  0  0
   -4.9206   22.2786  -28.3290 H   0  0  0  0  0  0  0  0  0  0  0  0
   -1.9039   22.9963  -26.7362 H   0  0  0  0  0  0  0  0  0  0  0  0
   -0.7313   22.5442  -28.0196 H   0  0  0  0  0  0  0  0  0  0  0  0
   -1.4771   24.1783  -28.0196 H   0  0  0  0  0  0  0  0  0  0  0  0
   -2.7219   20.6090  -27.7769 H   0  0  0  0  0  0  0  0  0  0  0  0
   -3.6240   20.6872  -29.3283 H   0  0  0  0  0  0  0  0  0  0  0  0
   -1.8292   20.7608  -29.3283 H   0  0  0  0  0  0  0  0  0  0  0  0
   -2.9910   25.2710  -30.4900 H   0  0  0  0  0  0  0  0  0  0  0  0
   -7.7781   24.1011  -31.1450 H   0  0  0  0  0  0  0  0  0  0  0  0
   -8.9323   21.7470  -32.2886 H   0  0  0  0  0  0  0  0  0  0  0  0
   -8.3598   19.4547  -33.1508 H   0  0  0  0  0  0  0  0  0  0  0  0
   -7.9447   17.4299  -33.4182 H   0  0  0  0  0  0  0  0  0  0  0  0
   -7.6722   14.6910  -34.1888 H   0  0  0  0  0  0  0  0  0  0  0  0
   -5.9646   12.9484  -34.8165 H   0  0  0  0  0  0  0  0  0  0  0  0
   -3.5301   13.5300  -34.8505 H   0  0  0  0  0  0  0  0  0  0  0  0
   -2.7737   15.8537  -34.2424 H   0  0  0  0  0  0  0  0  0  0  0  0
   -4.1447   20.1913  -32.3171 H   0  0  0  0  0  0  0  0  0  0  0  0
  1  2  1  0
  2  3  1  0
  2  4  1  0
  2  5  1  0
  5  6  1  0
  6  7  2  0
  6  8  1  0
  8  9  1  0
  9 10  1  0
 10 11  1  0
 10 12  2  0
  9 13  2  0
 13 14  1  0
 14 15  2  0
 15 16  1  0
 16 17  2  0
 17 18  1  0
 18 19  2  0
 19 20  1  0
 20 21  2  0
 21 22  1  0
 22 23  2  0
 23 24  1  0
 24 25  2  0
 25 26  1  0
 26 27  1  0
 27 28  2  0
 27 29  1  0
 17 30  1  0
 30 31  2  0
 31  8  1  0
 31 14  1  0
 26 18  1  0
 25 20  1  0
  1 32  1  0
  1 33  1  0
  1 34  1  0
  3 35  1  0
  3 36  1  0
  3 37  1  0
  4 38  1  0
  4 39  1  0
  4 40  1  0
 11 41  1  0
 13 42  1  0
 15 43  1  0
 16 44  1  0
 19 45  1  0
 21 46  1  0
 22 47  1  0
 23 48  1  0
 24 49  1  0
 30 50  1  0
M  CHG  2  11  -1  29  -1
M  END
>  <UniqueID>  (92) 
88

>  <SMILES>  (92) 
CC(C)(C)OC(=O)n1c(C([NH-])=O)cc2ccc(-c3cc4ccccc4n3C(=O)[O-])cc21

>  <Energy>  (92) 
131.2074960166557

>  <Genealogy>  (92) 
CC(C)(C)OC(=O)n1c(C([NH-])=O)cc2ccc(-c3cc4ccccc4n3C(=O)[O-])cc21 (protonated)
CC(C)(C)OC(=O)n1c(C([NH-])=O)cc2ccc(-c3cc4ccccc4n3C(=O)[O-])cc21 (3D coordinates assigned)
CC(C)(C)OC(=O)n1c(C([NH-])=O)cc2ccc(-c3cc4ccccc4n3C(=O)[O-])cc21 (optimized conformer: 131.2074960166557 kcal/mol)

>  <smiles>  (92) 
CC(C)(C)OC(=O)n1c(C(N)=O)cc2ccc(-c3cc4ccccc4n3C(=O)O)cc21

>  <score_type>  (92) 
oracle

>  <origin>  (92) 
adg

>  <m_score__min__energy>  (92) 
-11.58

>  <m_primary>  (92) 
energy

$$$$
93:0
     RDKit          3D

 37 39  0  0  0  0  0  0  0  0999 V2000
   -1.4210   20.5790  -26.2730 C   0  0  0  0  0  0  0  0  0  0  0  0
   -2.0880   21.0450  -27.5320 C   0  0  0  0  0  0  0  0  0  0  0  0
   -1.8120   20.4150  -28.7540 C   0  0  0  0  0  0  0  0  0  0  0  0
   -2.4040   20.8720  -29.9350 C   0  0  0  0  0  0  0  0  0  0  0  0
   -3.2700   21.9790  -29.9160 C   0  0  0  0  0  0  0  0  0  0  0  0
   -3.8950   22.4640  -31.1710 C   0  0  0  0  0  0  0  0  0  0  0  0
   -3.1890   22.6210  -32.2040 O   0  0  0  0  0  0  0  0  0  0  0  0
   -5.2990   22.7660  -31.2310 N   0  0  0  0  0  0  0  0  0  0  0  0
   -5.9200   23.9130  -30.8450 C   0  0  0  0  0  0  0  0  0  0  0  0
   -5.2450   25.1400  -30.3720 C   0  0  0  0  0  0  0  0  0  0  0  0
   -3.8460   25.3100  -30.5860 N   0  0  0  0  0  0  0  0  0  0  0  0
   -5.8890   26.0370  -29.7660 O   0  0  0  0  0  0  0  0  0  0  0  0
   -7.3000   23.7980  -31.0040 C   0  0  0  0  0  0  0  0  0  0  0  0
   -7.5050   22.5280  -31.4990 C   0  0  0  0  0  0  0  0  0  0  0  0
   -8.6860   21.8770  -31.8390 C   0  0  0  0  0  0  0  0  0  0  0  0
   -8.5980   20.5560  -32.3130 C   0  0  0  0  0  0  0  0  0  0  0  0
   -7.3410   19.9110  -32.4180 C   0  0  0  0  0  0  0  0  0  0  0  0
   -7.2550   18.5140  -32.9550 C   0  0  0  0  0  0  0  0  0  0  0  0
   -6.1620   20.6080  -32.0760 C   0  0  0  0  0  0  0  0  0  0  0  0
   -6.2800   21.9260  -31.6220 C   0  0  0  0  0  0  0  0  0  0  0  0
   -3.5380   22.6130  -28.6890 C   0  0  0  0  0  0  0  0  0  0  0  0
   -2.9450   22.1550  -27.5100 C   0  0  0  0  0  0  0  0  0  0  0  0
   -1.9719   20.9639  -25.4021 H   0  0  0  0  0  0  0  0  0  0  0  0
   -1.4152   19.4793  -26.2465 H   0  0  0  0  0  0  0  0  0  0  0  0
   -0.3865   20.9518  -26.2465 H   0  0  0  0  0  0  0  0  0  0  0  0
   -1.1255   19.5560  -28.7834 H   0  0  0  0  0  0  0  0  0  0  0  0
   -2.1906   20.3617  -30.8858 H   0  0  0  0  0  0  0  0  0  0  0  0
   -3.4870   26.0350  -31.2450 H   0  0  0  0  0  0  0  0  0  0  0  0
   -8.0629   24.5587  -30.7818 H   0  0  0  0  0  0  0  0  0  0  0  0
   -9.6592   22.3801  -31.7402 H   0  0  0  0  0  0  0  0  0  0  0  0
   -9.5127   20.0191  -32.6047 H   0  0  0  0  0  0  0  0  0  0  0  0
   -7.2111   17.8015  -32.1181 H   0  0  0  0  0  0  0  0  0  0  0  0
   -8.1418   18.3025  -33.5705 H   0  0  0  0  0  0  0  0  0  0  0  0
   -6.3489   18.4129  -33.5705 H   0  0  0  0  0  0  0  0  0  0  0  0
   -5.1765   20.1274  -32.1642 H   0  0  0  0  0  0  0  0  0  0  0  0
   -4.2196   23.4758  -28.6578 H   0  0  0  0  0  0  0  0  0  0  0  0
   -3.1514   22.6678  -26.5590 H   0  0  0  0  0  0  0  0  0  0  0  0
  1  2  1  0
  2  3  2  0
  3  4  1  0
  4  5  2  0
  5  6  1  0
  6  7  2  0
  6  8  1  0
  8  9  1  0
  9 10  1  0
 10 11  1  0
 10 12  2  0
  9 13  2  0
 13 14  1  0
 14 15  2  0
 15 16  1  0
 16 17  2  0
 17 18  1  0
 17 19  1  0
 19 20  2  0
  5 21  1  0
 21 22  2  0
 22  2  1  0
 20  8  1  0
 20 14  1  0
  1 23  1  0
  1 24  1  0
  1 25  1  0
  3 26  1  0
  4 27  1  0
 11 28  1  0
 13 29  1  0
 15 30  1  0
 16 31  1  0
 18 32  1  0
 18 33  1  0
 18 34  1  0
 19 35  1  0
 21 36  1  0
 22 37  1  0
M  CHG  1  11  -1
M  END
>  <UniqueID>  (93) 
89

>  <SMILES>  (93) 
Cc1ccc(C(=O)n2c(C([NH-])=O)cc3ccc(C)cc32)cc1

>  <Energy>  (93) 
78.39791942409114

>  <Genealogy>  (93) 
Cc1ccc(C(=O)n2c(C([NH-])=O)cc3ccc(C)cc32)cc1 (protonated)
Cc1ccc(C(=O)n2c(C([NH-])=O)cc3ccc(C)cc32)cc1 (3D coordinates assigned)
Cc1ccc(C(=O)n2c(C([NH-])=O)cc3ccc(C)cc32)cc1 (optimized conformer: 78.39791942409114 kcal/mol)

>  <smiles>  (93) 
Cc1ccc(C(=O)n2c(C(N)=O)cc3ccc(C)cc32)cc1

>  <score_type>  (93) 
oracle

>  <origin>  (93) 
adg

>  <m_score__min__energy>  (93) 
-11.050000000000001

>  <m_primary>  (93) 
energy

$$$$
94:0
     RDKit          3D

 41 42  0  0  0  0  0  0  0  0999 V2000
   -3.8560   24.2050  -27.7270 C   0  0  0  0  0  0  0  0  0  0  0  0
   -3.4020   22.7480  -27.8480 C   0  0  0  0  0  0  0  0  0  0  0  0
   -2.5670   22.4480  -29.1210 C   0  0  0  0  0  0  0  0  0  0  0  0
   -2.6080   20.9400  -29.4460 C   0  0  0  0  0  0  0  0  0  0  0  0
   -1.1130   22.8870  -28.8510 C   0  0  0  0  0  0  0  0  0  0  0  0
   -3.1210   23.2090  -30.2060 O   0  0  0  0  0  0  0  0  0  0  0  0
   -3.9020   22.7100  -31.2600 C   0  0  0  0  0  0  0  0  0  0  0  0
   -3.3680   22.1730  -32.2670 O   0  0  0  0  0  0  0  0  0  0  0  0
   -5.3300   22.8170  -31.1870 N   0  0  0  0  0  0  0  0  0  0  0  0
   -6.0710   23.9230  -30.8960 C   0  0  0  0  0  0  0  0  0  0  0  0
   -5.5380   25.2320  -30.4700 C   0  0  0  0  0  0  0  0  0  0  0  0
   -4.2070   25.6350  -30.7980 N   0  0  0  0  0  0  0  0  0  0  0  0
   -6.2530   25.9890  -29.7600 O   0  0  0  0  0  0  0  0  0  0  0  0
   -7.4310   23.6450  -31.0150 C   0  0  0  0  0  0  0  0  0  0  0  0
   -7.5010   22.3190  -31.3810 C   0  0  0  0  0  0  0  0  0  0  0  0
   -8.6090   21.5180  -31.6430 C   0  0  0  0  0  0  0  0  0  0  0  0
   -8.3820   20.1880  -32.0370 C   0  0  0  0  0  0  0  0  0  0  0  0
   -7.0600   19.6960  -32.1870 C   0  0  0  0  0  0  0  0  0  0  0  0
   -6.8240   18.2720  -32.5940 C   0  0  0  0  0  0  0  0  0  0  0  0
   -5.6870   18.2150  -34.4010 I   0  0  0  0  0  0  0  0  0  0  0  0
   -5.9620   20.5370  -31.9070 C   0  0  0  0  0  0  0  0  0  0  0  0
   -6.2190   21.8460  -31.4840 C   0  0  0  0  0  0  0  0  0  0  0  0
   -3.9404   24.4757  -26.6642 H   0  0  0  0  0  0  0  0  0  0  0  0
   -3.1195   24.8603  -28.2149 H   0  0  0  0  0  0  0  0  0  0  0  0
   -4.8344   24.3259  -28.2149 H   0  0  0  0  0  0  0  0  0  0  0  0
   -2.7898   22.5027  -26.9676 H   0  0  0  0  0  0  0  0  0  0  0  0
   -4.3138   22.1363  -27.9154 H   0  0  0  0  0  0  0  0  0  0  0  0
   -2.6237   20.3634  -28.5094 H   0  0  0  0  0  0  0  0  0  0  0  0
   -3.5126   20.7153  -30.0301 H   0  0  0  0  0  0  0  0  0  0  0  0
   -1.7170   20.6664  -30.0301 H   0  0  0  0  0  0  0  0  0  0  0  0
   -0.9412   22.9389  -27.7657 H   0  0  0  0  0  0  0  0  0  0  0  0
   -0.4209   22.1578  -29.2974 H   0  0  0  0  0  0  0  0  0  0  0  0
   -0.9401   23.8774  -29.2974 H   0  0  0  0  0  0  0  0  0  0  0  0
   -3.8670   26.5850  -30.5300 H   0  0  0  0  0  0  0  0  0  0  0  0
   -3.5280   24.9650  -31.2200 H   0  0  0  0  0  0  0  0  0  0  0  0
   -8.2702   24.3371  -30.8515 H   0  0  0  0  0  0  0  0  0  0  0  0
   -9.6306   21.9137  -31.5447 H   0  0  0  0  0  0  0  0  0  0  0  0
   -9.2366   19.5231  -32.2306 H   0  0  0  0  0  0  0  0  0  0  0  0
   -6.2711   17.7516  -31.7981 H   0  0  0  0  0  0  0  0  0  0  0  0
   -7.7920   17.7760  -32.7582 H   0  0  0  0  0  0  0  0  0  0  0  0
   -4.9300   20.1728  -32.0184 H   0  0  0  0  0  0  0  0  0  0  0  0
  1  2  1  0
  2  3  1  0
  3  4  1  0
  3  5  1  0
  3  6  1  0
  6  7  1  0
  7  8  2  0
  7  9  1  0
  9 10  1  0
 10 11  1  0
 11 12  1  0
 11 13  2  0
 10 14  2  0
 14 15  1  0
 15 16  2  0
 16 17  1  0
 17 18  2  0
 18 19  1  0
 19 20  1  0
 18 21  1  0
 21 22  2  0
 22  9  1  0
 22 15  1  0
  1 23  1  0
  1 24  1  0
  1 25  1  0
  2 26  1  0
  2 27  1  0
  4 28  1  0
  4 29  1  0
  4 30  1  0
  5 31  1  0
  5 32  1  0
  5 33  1  0
 12 34  1  0
 12 35  1  0
 14 36  1  0
 16 37  1  0
 17 38  1  0
 19 39  1  0
 19 40  1  0
 21 41  1  0
M  END
>  <UniqueID>  (94) 
90

>  <SMILES>  (94) 
CCC(C)(C)OC(=O)n1c(C(N)=O)cc2ccc(CI)cc21

>  <Energy>  (94) 
72.89422330411251

>  <Genealogy>  (94) 
CCC(C)(C)OC(=O)n1c(C(N)=O)cc2ccc(CI)cc21 (3D coordinates assigned)
CCC(C)(C)OC(=O)n1c(C(N)=O)cc2ccc(CI)cc21 (optimized conformer: 72.89422330411251 kcal/mol)

>  <smiles>  (94) 
CCC(C)(C)OC(=O)n1c(C(N)=O)cc2ccc(CI)cc21

>  <score_type>  (94) 
oracle

>  <origin>  (94) 
adg

>  <m_score__min__energy>  (94) 
-9.2400000000000002

>  <m_primary>  (94) 
energy

$$$$
95:0
     RDKit          3D

 44 46  0  0  0  0  0  0  0  0999 V2000
   -7.1300   15.1220  -34.2070 C   0  0  0  0  0  0  0  0  0  0  0  0
   -6.4720   16.4460  -34.0150 C   0  0  0  0  0  0  0  0  0  0  0  0
   -5.2060   16.7850  -34.4440 C   0  0  0  0  0  0  0  0  0  0  0  0
   -5.0220   18.0980  -34.0650 C   0  0  0  0  0  0  0  0  0  0  0  0
   -6.1940   18.4800  -33.4290 C   0  0  0  0  0  0  0  0  0  0  0  0
   -6.5010   19.8020  -32.8360 C   0  0  0  0  0  0  0  0  0  0  0  0
   -7.8410   20.2390  -32.6540 C   0  0  0  0  0  0  0  0  0  0  0  0
   -8.1160   21.4920  -32.0830 C   0  0  0  0  0  0  0  0  0  0  0  0
   -7.0400   22.2920  -31.7110 C   0  0  0  0  0  0  0  0  0  0  0  0
   -7.0230   23.5340  -31.1180 C   0  0  0  0  0  0  0  0  0  0  0  0
   -5.6740   23.8530  -30.9680 C   0  0  0  0  0  0  0  0  0  0  0  0
   -5.1990   25.1510  -30.4460 C   0  0  0  0  0  0  0  0  0  0  0  0
   -3.9280   25.6740  -30.8250 N   0  0  0  0  0  0  0  0  0  0  0  0
   -5.9460   25.8320  -29.6940 O   0  0  0  0  0  0  0  0  0  0  0  0
   -4.8910   22.8420  -31.4410 N   0  0  0  0  0  0  0  0  0  0  0  0
   -3.4590   22.7410  -31.4010 C   0  0  0  0  0  0  0  0  0  0  0  0
   -2.8380   22.2700  -32.3920 O   0  0  0  0  0  0  0  0  0  0  0  0
   -2.7700   23.1990  -30.2680 O   0  0  0  0  0  0  0  0  0  0  0  0
   -2.7030   22.5470  -28.9920 C   0  0  0  0  0  0  0  0  0  0  0  0
   -2.7570   21.0160  -29.1610 C   0  0  0  0  0  0  0  0  0  0  0  0
   -3.9310   23.0010  -28.1880 C   0  0  0  0  0  0  0  0  0  0  0  0
   -1.4300   22.9670  -28.2350 C   0  0  0  0  0  0  0  0  0  0  0  0
   -5.7420   21.8970  -31.8950 C   0  0  0  0  0  0  0  0  0  0  0  0
   -5.4370   20.6460  -32.4430 C   0  0  0  0  0  0  0  0  0  0  0  0
   -7.0370   17.4700  -33.4190 O   0  0  0  0  0  0  0  0  0  0  0  0
   -7.3513   14.6768  -33.2258 H   0  0  0  0  0  0  0  0  0  0  0  0
   -8.0664   15.2559  -34.7684 H   0  0  0  0  0  0  0  0  0  0  0  0
   -6.4578   14.4565  -34.7684 H   0  0  0  0  0  0  0  0  0  0  0  0
   -4.4912   16.1415  -34.9778 H   0  0  0  0  0  0  0  0  0  0  0  0
   -4.1279   18.7165  -34.2328 H   0  0  0  0  0  0  0  0  0  0  0  0
   -8.6721   19.5884  -32.9639 H   0  0  0  0  0  0  0  0  0  0  0  0
   -9.1517   21.8312  -31.9341 H   0  0  0  0  0  0  0  0  0  0  0  0
   -7.8894   24.1450  -30.8248 H   0  0  0  0  0  0  0  0  0  0  0  0
   -3.0460   25.2730  -30.4380 H   0  0  0  0  0  0  0  0  0  0  0  0
   -2.7739   20.5381  -28.1704 H   0  0  0  0  0  0  0  0  0  0  0  0
   -3.6654   20.7403  -29.7166 H   0  0  0  0  0  0  0  0  0  0  0  0
   -1.8703   20.6769  -29.7166 H   0  0  0  0  0  0  0  0  0  0  0  0
   -3.7150   22.9212  -27.1124 H   0  0  0  0  0  0  0  0  0  0  0  0
   -4.1671   24.0459  -28.4380 H   0  0  0  0  0  0  0  0  0  0  0  0
   -4.7900   22.3610  -28.4380 H   0  0  0  0  0  0  0  0  0  0  0  0
   -1.6111   22.9073  -27.1517 H   0  0  0  0  0  0  0  0  0  0  0  0
   -0.6033   22.2940  -28.5062 H   0  0  0  0  0  0  0  0  0  0  0  0
   -1.1661   23.9998  -28.5062 H   0  0  0  0  0  0  0  0  0  0  0  0
   -4.3917   20.3261  -32.5654 H   0  0  0  0  0  0  0  0  0  0  0  0
  1  2  1  0
  2  3  2  0
  3  4  1  0
  4  5  2  0
  5  6  1  0
  6  7  2  0
  7  8  1  0
  8  9  2  0
  9 10  1  0
 10 11  2  0
 11 12  1  0
 12 13  1  0
 12 14  2  0
 11 15  1  0
 15 16  1  0
 16 17  2  0
 16 18  1  0
 18 19  1  0
 19 20  1  0
 19 21  1  0
 19 22  1  0
 15 23  1  0
 23 24  2  0
  5 25  1  0
 25  2  1  0
 24  6  1  0
 23  9  1  0
  1 26  1  0
  1 27  1  0
  1 28  1  0
  3 29  1  0
  4 30  1  0
  7 31  1  0
  8 32  1  0
 10 33  1  0
 13 34  1  0
 20 35  1  0
 20 36  1  0
 20 37  1  0
 21 38  1  0
 21 39  1  0
 21 40  1  0
 22 41  1  0
 22 42  1  0
 22 43  1  0
 24 44  1  0
M  CHG  1  13  -1
M  END
>  <UniqueID>  (95) 
91

>  <SMILES>  (95) 
Cc1ccc(-c2ccc3cc(C([NH-])=O)n(C(=O)OC(C)(C)C)c3c2)o1

>  <Energy>  (95) 
105.65459919365533

>  <Genealogy>  (95) 
Cc1ccc(-c2ccc3cc(C([NH-])=O)n(C(=O)OC(C)(C)C)c3c2)o1 (protonated)
Cc1ccc(-c2ccc3cc(C([NH-])=O)n(C(=O)OC(C)(C)C)c3c2)o1 (3D coordinates assigned)
Cc1ccc(-c2ccc3cc(C([NH-])=O)n(C(=O)OC(C)(C)C)c3c2)o1 (optimized conformer: 105.65459919365533 kcal/mol)

>  <smiles>  (95) 
Cc1ccc(-c2ccc3cc(C(N)=O)n(C(=O)OC(C)(C)C)c3c2)o1

>  <score_type>  (95) 
oracle

>  <origin>  (95) 
adg

>  <m_score__min__energy>  (95) 
-10.84

>  <m_primary>  (95) 
energy

$$$$
96:0
     RDKit          3D

 44 45  0  0  0  0  0  0  0  0999 V2000
   -4.3670   16.0130  -32.7460 C   0  0  0  0  0  0  0  0  0  0  0  0
   -5.7520   16.2030  -32.4830 O   0  0  0  0  0  0  0  0  0  0  0  0
   -6.2880   17.4510  -32.1420 C   0  0  0  0  0  0  0  0  0  0  0  0
   -6.2780   17.8450  -30.9430 O   0  0  0  0  0  0  0  0  0  0  0  0
   -6.8340   18.3520  -33.2090 C   0  0  2  0  0  0  0  0  0  0  0  0
   -5.7330   18.4010  -34.6180 Cl  0  0  0  0  0  0  0  0  0  0  0  0
   -7.0600   19.7400  -32.6610 C   0  0  0  0  0  0  0  0  0  0  0  0
   -8.3830   20.2070  -32.4430 C   0  0  0  0  0  0  0  0  0  0  0  0
   -8.6130   21.4920  -31.9230 C   0  0  0  0  0  0  0  0  0  0  0  0
   -7.5080   22.2810  -31.6180 C   0  0  0  0  0  0  0  0  0  0  0  0
   -7.4470   23.5620  -31.1200 C   0  0  0  0  0  0  0  0  0  0  0  0
   -6.0900   23.8530  -31.0120 C   0  0  0  0  0  0  0  0  0  0  0  0
   -5.5580   25.1020  -30.4220 C   0  0  0  0  0  0  0  0  0  0  0  0
   -4.2170   25.5170  -30.6860 N   0  0  0  0  0  0  0  0  0  0  0  0
   -6.2960   25.8300  -29.7070 O   0  0  0  0  0  0  0  0  0  0  0  0
   -5.3400   22.7940  -31.4310 N   0  0  0  0  0  0  0  0  0  0  0  0
   -3.9080   22.7170  -31.5340 C   0  0  0  0  0  0  0  0  0  0  0  0
   -3.3830   22.1780  -32.5440 O   0  0  0  0  0  0  0  0  0  0  0  0
   -3.1140   23.2250  -30.4960 O   0  0  0  0  0  0  0  0  0  0  0  0
   -2.9170   22.6330  -29.2040 C   0  0  0  0  0  0  0  0  0  0  0  0
   -4.0400   23.0530  -28.2400 C   0  0  0  0  0  0  0  0  0  0  0  0
   -2.9680   21.1090  -29.3940 C   0  0  0  0  0  0  0  0  0  0  0  0
   -1.5380   23.0140  -28.6350 C   0  0  0  0  0  0  0  0  0  0  0  0
   -6.2230   21.8390  -31.7980 C   0  0  0  0  0  0  0  0  0  0  0  0
   -5.9640   20.5720  -32.3330 C   0  0  0  0  0  0  0  0  0  0  0  0
   -3.8200   15.9380  -31.7946 H   0  0  0  0  0  0  0  0  0  0  0  0
   -4.2270   15.0872  -33.3234 H   0  0  0  0  0  0  0  0  0  0  0  0
   -3.9829   16.8669  -33.3234 H   0  0  0  0  0  0  0  0  0  0  0  0
   -7.8012   17.9486  -33.5435 H   0  0  0  0  0  0  0  0  0  0  0  0
   -9.2366   19.5563  -32.6836 H   0  0  0  0  0  0  0  0  0  0  0  0
   -9.6359   21.8631  -31.7618 H   0  0  0  0  0  0  0  0  0  0  0  0
   -8.2917   24.2175  -30.8618 H   0  0  0  0  0  0  0  0  0  0  0  0
   -3.8650   26.4240  -30.3050 H   0  0  0  0  0  0  0  0  0  0  0  0
   -3.5600   24.9180  -31.2300 H   0  0  0  0  0  0  0  0  0  0  0  0
   -3.6990   22.9255  -27.2020 H   0  0  0  0  0  0  0  0  0  0  0  0
   -4.2974   24.1082  -28.4144 H   0  0  0  0  0  0  0  0  0  0  0  0
   -4.9266   22.4257  -28.4144 H   0  0  0  0  0  0  0  0  0  0  0  0
   -2.9845   20.6172  -28.4102 H   0  0  0  0  0  0  0  0  0  0  0  0
   -3.8757   20.8395  -29.9539 H   0  0  0  0  0  0  0  0  0  0  0  0
   -2.0804   20.7794  -29.9539 H   0  0  0  0  0  0  0  0  0  0  0  0
   -1.5790   23.0027  -27.5358 H   0  0  0  0  0  0  0  0  0  0  0  0
   -0.7857   22.2901  -28.9813 H   0  0  0  0  0  0  0  0  0  0  0  0
   -1.2641   24.0215  -28.9813 H   0  0  0  0  0  0  0  0  0  0  0  0
   -4.9309   20.2306  -32.4949 H   0  0  0  0  0  0  0  0  0  0  0  0
  1  2  1  0
  2  3  1  0
  3  4  2  0
  3  5  1  0
  5  6  1  0
  5  7  1  0
  7  8  2  0
  8  9  1  0
  9 10  2  0
 10 11  1  0
 11 12  2  0
 12 13  1  0
 13 14  1  0
 13 15  2  0
 12 16  1  0
 16 17  1  0
 17 18  2  0
 17 19  1  0
 19 20  1  0
 20 21  1  0
 20 22  1  0
 20 23  1  0
 16 24  1  0
 24 25  2  0
 25  7  1  0
 24 10  1  0
  1 26  1  0
  1 27  1  0
  1 28  1  0
  5 29  1  6
  8 30  1  0
  9 31  1  0
 11 32  1  0
 14 33  1  0
 14 34  1  0
 21 35  1  0
 21 36  1  0
 21 37  1  0
 22 38  1  0
 22 39  1  0
 22 40  1  0
 23 41  1  0
 23 42  1  0
 23 43  1  0
 25 44  1  0
M  END
>  <UniqueID>  (96) 
92

>  <SMILES>  (96) 
COC(=O)[C@H](Cl)c1ccc2cc(C(N)=O)n(C(=O)OC(C)(C)C)c2c1

>  <Energy>  (96) 
73.41590909629184

>  <Genealogy>  (96) 
COC(=O)[C@H](Cl)c1ccc2cc(C(N)=O)n(C(=O)OC(C)(C)C)c2c1 (chirality)
COC(=O)[C@H](Cl)c1ccc2cc(C(N)=O)n(C(=O)OC(C)(C)C)c2c1 (3D coordinates assigned)
COC(=O)[C@H](Cl)c1ccc2cc(C(N)=O)n(C(=O)OC(C)(C)C)c2c1 (optimized conformer: 73.41590909629184 kcal/mol)

>  <smiles>  (96) 
COC(=O)C(Cl)c1ccc2cc(C(N)=O)n(C(=O)OC(C)(C)C)c2c1

>  <score_type>  (96) 
oracle

>  <origin>  (96) 
adg

>  <m_score__min__energy>  (96) 
-9.25

>  <m_primary>  (96) 
energy

$$$$
