0:0
     RDKit          3D

 39 40  0  0  0  0  0  0  0  0999 V2000
   -3.1710   20.2320  -30.8260 C   0  0  0  0  0  0  0  0  0  0  0  0
   -3.4870   21.5230  -30.2060 N   0  0  0  0  0  0  0  0  0  0  0  0
   -3.2460   21.7030  -28.7670 C   0  0  0  0  0  0  0  0  0  0  0  0
   -3.1450   23.1650  -28.4340 C   0  0  0  0  0  0  0  0  0  0  0  0
   -3.9960   23.6850  -27.7300 O   0  0  0  0  0  0  0  0  0  0  0  0
   -1.9870   23.9860  -28.9180 C   0  0  0  0  0  0  0  0  0  0  0  0
   -2.4400   25.2540  -29.3050 O   0  0  0  0  0  0  0  0  0  0  0  0
   -4.0660   22.5790  -31.0010 C   0  0  0  0  0  0  0  0  0  0  0  0
   -3.3220   23.3680  -31.6500 O   0  0  0  0  0  0  0  0  0  0  0  0
   -5.4870   22.7840  -31.0290 N   0  0  0  0  0  0  0  0  0  0  0  0
   -6.1600   23.9500  -30.8230 C   0  0  0  0  0  0  0  0  0  0  0  0
   -5.5590   25.2330  -30.3990 C   0  0  0  0  0  0  0  0  0  0  0  0
   -4.2370   25.6070  -30.7870 N   0  0  0  0  0  0  0  0  0  0  0  0
   -6.2160   26.0010  -29.6450 O   0  0  0  0  0  0  0  0  0  0  0  0
   -7.5140   23.7900  -31.1150 C   0  0  0  0  0  0  0  0  0  0  0  0
   -7.6500   22.4780  -31.5090 C   0  0  0  0  0  0  0  0  0  0  0  0
   -8.7730   21.7880  -31.9520 C   0  0  0  0  0  0  0  0  0  0  0  0
   -8.6050   20.4540  -32.3610 C   0  0  0  0  0  0  0  0  0  0  0  0
   -7.3260   19.8430  -32.3230 C   0  0  0  0  0  0  0  0  0  0  0  0
   -7.1400   18.4400  -32.8170 C   0  0  0  0  0  0  0  0  0  0  0  0
   -8.0380   17.6060  -32.1790 F   0  0  0  0  0  0  0  0  0  0  0  0
   -6.2090   20.5830  -31.8820 C   0  0  0  0  0  0  0  0  0  0  0  0
   -6.4110   21.8970  -31.4560 C   0  0  0  0  0  0  0  0  0  0  0  0
   -2.9878   19.4834  -30.0411 H   0  0  0  0  0  0  0  0  0  0  0  0
   -4.0165   19.9086  -31.4509 H   0  0  0  0  0  0  0  0  0  0  0  0
   -2.2717   20.3357  -31.4509 H   0  0  0  0  0  0  0  0  0  0  0  0
   -4.0782   21.2586  -28.2013 H   0  0  0  0  0  0  0  0  0  0  0  0
   -2.3010   21.2086  -28.4979 H   0  0  0  0  0  0  0  0  0  0  0  0
   -1.2495   24.0918  -28.1088 H   0  0  0  0  0  0  0  0  0  0  0  0
   -1.5191   23.4864  -29.7791 H   0  0  0  0  0  0  0  0  0  0  0  0
   -3.3170   25.3760  -28.8590 H   0  0  0  0  0  0  0  0  0  0  0  0
   -3.8630   26.5460  -30.5250 H   0  0  0  0  0  0  0  0  0  0  0  0
   -3.5830   24.9200  -31.2210 H   0  0  0  0  0  0  0  0  0  0  0  0
   -8.3055   24.5507  -31.0453 H   0  0  0  0  0  0  0  0  0  0  0  0
   -9.7610   22.2707  -31.9814 H   0  0  0  0  0  0  0  0  0  0  0  0
   -9.4736   19.8786  -32.7138 H   0  0  0  0  0  0  0  0  0  0  0  0
   -7.3156   18.4068  -33.9024 H   0  0  0  0  0  0  0  0  0  0  0  0
   -6.1136   18.1079  -32.6022 H   0  0  0  0  0  0  0  0  0  0  0  0
   -5.2040   20.1359  -31.8740 H   0  0  0  0  0  0  0  0  0  0  0  0
  1  2  1  0
  2  3  1  0
  3  4  1  0
  4  5  2  0
  4  6  1  0
  6  7  1  0
  2  8  1  0
  8  9  2  0
  8 10  1  0
 10 11  1  0
 11 12  1  0
 12 13  1  0
 12 14  2  0
 11 15  2  0
 15 16  1  0
 16 17  2  0
 17 18  1  0
 18 19  2  0
 19 20  1  0
 20 21  1  0
 19 22  1  0
 22 23  2  0
 23 10  1  0
 23 16  1  0
  1 24  1  0
  1 25  1  0
  1 26  1  0
  3 27  1  0
  3 28  1  0
  6 29  1  0
  6 30  1  0
  7 31  1  0
 13 32  1  0
 13 33  1  0
 15 34  1  0
 17 35  1  0
 18 36  1  0
 20 37  1  0
 20 38  1  0
 22 39  1  0
M  END
>  <UniqueID>  (1) 
1

>  <SMILES>  (1) 
CN(CC(=O)CO)C(=O)n1c(C(N)=O)cc2ccc(CF)cc21

>  <Energy>  (1) 
73.1755707766446

>  <Genealogy>  (1) 
CN(CC(=O)CO)C(=O)n1c(C(N)=O)cc2ccc(CF)cc21 (3D coordinates assigned)
CN(CC(=O)CO)C(=O)n1c(C(N)=O)cc2ccc(CF)cc21 (optimized conformer: 73.1755707766446 kcal/mol)

>  <smiles>  (1) 
CN(CC(=O)CO)C(=O)n1c(C(N)=O)cc2ccc(CF)cc21

>  <score_type>  (1) 
oracle

>  <origin>  (1) 
adg

>  <m_score__min__energy>  (1) 
-8.1799999999999997

>  <m_primary>  (1) 
energy

$$$$
1:0
     RDKit          3D

 47 49  0  0  0  0  0  0  0  0999 V2000
   -2.0160   19.3670  -26.6390 C   0  0  0  0  0  0  0  0  0  0  0  0
   -2.9140   20.1550  -27.5930 C   0  0  0  0  0  0  0  0  0  0  0  0
   -2.7110   21.6140  -27.4510 N   0  0  0  0  0  0  0  0  0  0  0  0
   -3.8870   22.3780  -27.9510 C   0  0  0  0  0  0  0  0  0  0  0  0
   -3.5140   23.8020  -28.3850 C   0  0  0  0  0  0  0  0  0  0  0  0
   -2.5030   23.7780  -29.5530 C   0  0  0  0  0  0  0  0  0  0  0  0
   -3.2060   23.7750  -30.8340 N   0  0  0  0  0  0  0  0  0  0  0  0
   -3.9380   22.6570  -31.3470 C   0  0  0  0  0  0  0  0  0  0  0  0
   -3.3250   21.6460  -31.7820 O   0  0  0  0  0  0  0  0  0  0  0  0
   -5.3730   22.6980  -31.3800 N   0  0  0  0  0  0  0  0  0  0  0  0
   -6.1900   23.6980  -30.9440 C   0  0  0  0  0  0  0  0  0  0  0  0
   -5.7400   25.0240  -30.4620 C   0  0  0  0  0  0  0  0  0  0  0  0
   -6.1810   25.5310  -29.2020 N   0  0  0  0  0  0  0  0  0  0  0  0
   -4.9830   25.7330  -31.1760 O   0  0  0  0  0  0  0  0  0  0  0  0
   -7.5280   23.3360  -31.0960 C   0  0  0  0  0  0  0  0  0  0  0  0
   -7.5040   22.0720  -31.6420 C   0  0  0  0  0  0  0  0  0  0  0  0
   -8.5530   21.2240  -31.9810 C   0  0  0  0  0  0  0  0  0  0  0  0
   -8.2360   19.9560  -32.4970 C   0  0  0  0  0  0  0  0  0  0  0  0
   -6.8840   19.5610  -32.6730 C   0  0  0  0  0  0  0  0  0  0  0  0
   -6.5510   18.1760  -33.1660 C   0  0  0  0  0  0  0  0  0  0  0  0
   -7.6590   17.3490  -33.0910 F   0  0  0  0  0  0  0  0  0  0  0  0
   -5.5410   17.6460  -32.3850 F   0  0  0  0  0  0  0  0  0  0  0  0
   -6.1300   18.2180  -34.4830 F   0  0  0  0  0  0  0  0  0  0  0  0
   -5.8480   20.4440  -32.2920 C   0  0  0  0  0  0  0  0  0  0  0  0
   -6.1930   21.7090  -31.8020 C   0  0  0  0  0  0  0  0  0  0  0  0
   -1.5780   22.5450  -29.4890 C   0  0  0  0  0  0  0  0  0  0  0  0
   -1.4190   22.0410  -28.0480 C   0  0  0  0  0  0  0  0  0  0  0  0
   -2.2870   19.6048  -25.5998 H   0  0  0  0  0  0  0  0  0  0  0  0
   -2.1498   18.2895  -26.8154 H   0  0  0  0  0  0  0  0  0  0  0  0
   -0.9650   19.6397  -26.8154 H   0  0  0  0  0  0  0  0  0  0  0  0
   -2.6813   19.8611  -28.6271 H   0  0  0  0  0  0  0  0  0  0  0  0
   -3.9616   19.9275  -27.3466 H   0  0  0  0  0  0  0  0  0  0  0  0
   -4.3141   21.8456  -28.8136 H   0  0  0  0  0  0  0  0  0  0  0  0
   -4.6126   22.4560  -27.1280 H   0  0  0  0  0  0  0  0  0  0  0  0
   -4.4237   24.3297  -28.7075 H   0  0  0  0  0  0  0  0  0  0  0  0
   -3.0510   24.3185  -27.5313 H   0  0  0  0  0  0  0  0  0  0  0  0
   -1.8853   24.6836  -29.4617 H   0  0  0  0  0  0  0  0  0  0  0  0
   -5.8860   26.4830  -28.8890 H   0  0  0  0  0  0  0  0  0  0  0  0
   -6.7620   24.9540  -28.5560 H   0  0  0  0  0  0  0  0  0  0  0  0
   -8.4142   23.9331  -30.8352 H   0  0  0  0  0  0  0  0  0  0  0  0
   -9.5994   21.5365  -31.8491 H   0  0  0  0  0  0  0  0  0  0  0  0
   -9.0449   19.2615  -32.7677 H   0  0  0  0  0  0  0  0  0  0  0  0
   -4.7934   20.1435  -32.3787 H   0  0  0  0  0  0  0  0  0  0  0  0
   -2.0091   21.7414  -30.1041 H   0  0  0  0  0  0  0  0  0  0  0  0
   -0.5864   22.8350  -29.8667 H   0  0  0  0  0  0  0  0  0  0  0  0
   -0.7294   21.1840  -28.0477 H   0  0  0  0  0  0  0  0  0  0  0  0
   -1.0289   22.8728  -27.4431 H   0  0  0  0  0  0  0  0  0  0  0  0
  1  2  1  0
  2  3  1  0
  3  4  1  0
  4  5  1  0
  5  6  1  0
  6  7  1  0
  7  8  1  0
  8  9  2  0
  8 10  1  0
 10 11  1  0
 11 12  1  0
 12 13  1  0
 12 14  2  0
 11 15  2  0
 15 16  1  0
 16 17  2  0
 17 18  1  0
 18 19  2  0
 19 20  1  0
 20 21  1  0
 20 22  1  0
 20 23  1  0
 19 24  1  0
 24 25  2  0
  6 26  1  0
 26 27  1  0
 27  3  1  0
 25 10  1  0
 25 16  1  0
  1 28  1  0
  1 29  1  0
  1 30  1  0
  2 31  1  0
  2 32  1  0
  4 33  1  0
  4 34  1  0
  5 35  1  0
  5 36  1  0
  6 37  1  0
 13 38  1  0
 13 39  1  0
 15 40  1  0
 17 41  1  0
 18 42  1  0
 24 43  1  0
 26 44  1  0
 26 45  1  0
 27 46  1  0
 27 47  1  0
M  CHG  1   7  -1
M  END
>  <UniqueID>  (2) 
2

>  <SMILES>  (2) 
CCN1CCC([N-]C(=O)n2c(C(N)=O)cc3ccc(C(F)(F)F)cc32)CC1

>  <Energy>  (2) 
91.51935588534259

>  <Genealogy>  (2) 
CCN1CCC([N-]C(=O)n2c(C(N)=O)cc3ccc(C(F)(F)F)cc32)CC1 (protonated)
CCN1CCC([N-]C(=O)n2c(C(N)=O)cc3ccc(C(F)(F)F)cc32)CC1 (3D coordinates assigned)
CCN1CCC([N-]C(=O)n2c(C(N)=O)cc3ccc(C(F)(F)F)cc32)CC1 (nonaromatic ring conformer: 91.51935588534259 kcal/mol)

>  <smiles>  (2) 
CCN1CCC(NC(=O)n2c(C(N)=O)cc3ccc(C(F)(F)F)cc32)CC1

>  <score_type>  (2) 
oracle

>  <origin>  (2) 
adg

>  <m_score__min__energy>  (2) 
-9.8399999999999999

>  <m_primary>  (2) 
energy

$$$$
2:0
     RDKit          3D

 57 58  0  0  0  0  0  0  0  0999 V2000
   -3.6640   19.7510  -32.4420 C   0  0  0  0  0  0  0  0  0  0  0  0
   -3.5190   21.0090  -32.0080 C   0  0  0  0  0  0  0  0  0  0  0  0
   -2.5110   21.3270  -30.9680 C   0  0  0  0  0  0  0  0  0  0  0  0
   -1.3220   21.6030  -31.2930 O   0  0  0  0  0  0  0  0  0  0  0  0
   -2.8850   21.3080  -29.6190 O   0  0  0  0  0  0  0  0  0  0  0  0
   -2.1970   20.5680  -28.6120 C   0  0  2  0  0  0  0  0  0  0  0  0
   -2.7650   20.9640  -27.2480 C   0  0  0  0  0  0  0  0  0  0  0  0
   -0.6880   20.8650  -28.6890 C   0  0  0  0  0  0  0  0  0  0  0  0
   -0.0820   20.8430  -27.3960 O   0  0  0  0  0  0  0  0  0  0  0  0
    0.3280   21.9930  -26.7150 C   0  0  0  0  0  0  0  0  0  0  0  0
    1.3450   22.6380  -27.0940 O   0  0  0  0  0  0  0  0  0  0  0  0
   -0.4110   22.4200  -25.6080 O   0  0  0  0  0  0  0  0  0  0  0  0
   -0.1820   23.6730  -24.9690 C   0  0  0  0  0  0  0  0  0  0  0  0
   -0.4130   24.8030  -25.9640 C   0  0  0  0  0  0  0  0  0  0  0  0
   -1.5400   24.4980  -26.7490 O   0  0  0  0  0  0  0  0  0  0  0  0
   -1.1120   24.6810  -28.3930 P   0  0  0  0  0  0  0  0  0  0  0  0
   -1.7990   23.6070  -29.2050 O   0  0  0  0  0  0  0  0  0  0  0  0
   -1.6140   26.2000  -28.9530 O   0  0  0  0  0  0  0  0  0  0  0  0
    0.5670   24.5310  -28.5870 O   0  0  0  0  0  0  0  0  0  0  0  0
   -4.3750   22.0900  -32.5610 C   0  0  0  0  0  0  0  0  0  0  0  0
   -4.0350   22.6870  -33.6200 O   0  0  0  0  0  0  0  0  0  0  0  0
   -5.6130   22.4460  -31.9300 N   0  0  0  0  0  0  0  0  0  0  0  0
   -5.8850   23.5540  -31.1860 C   0  0  0  0  0  0  0  0  0  0  0  0
   -4.9680   24.6910  -30.9690 C   0  0  0  0  0  0  0  0  0  0  0  0
   -3.5690   24.4570  -30.8260 N   0  0  0  0  0  0  0  0  0  0  0  0
   -5.4080   25.8680  -30.8910 O   0  0  0  0  0  0  0  0  0  0  0  0
   -7.1700   23.4780  -30.6540 C   0  0  0  0  0  0  0  0  0  0  0  0
   -7.6770   22.2760  -31.0950 C   0  0  0  0  0  0  0  0  0  0  0  0
   -8.8920   21.6570  -30.8160 C   0  0  0  0  0  0  0  0  0  0  0  0
   -9.1180   20.3770  -31.3540 C   0  0  0  0  0  0  0  0  0  0  0  0
   -8.1290   19.7430  -32.1460 C   0  0  0  0  0  0  0  0  0  0  0  0
   -8.3580   18.3530  -32.6690 C   0  0  0  0  0  0  0  0  0  0  0  0
   -6.7740   17.5830  -33.1250 P   0  0  0  0  0  0  0  0  0  0  0  0
   -5.8590   17.5340  -31.9190 O   0  0  0  0  0  0  0  0  0  0  0  0
   -6.0440   18.4970  -34.3450 O   0  0  0  0  0  0  0  0  0  0  0  0
   -7.0460   16.0110  -33.6900 O   0  0  0  0  0  0  0  0  0  0  0  0
   -6.9040   20.3970  -32.3980 C   0  0  0  0  0  0  0  0  0  0  0  0
   -6.7160   21.6750  -31.8650 C   0  0  0  0  0  0  0  0  0  0  0  0
   -4.4126   19.5182  -33.2136 H   0  0  0  0  0  0  0  0  0  0  0  0
   -3.0345   18.9500  -32.0270 H   0  0  0  0  0  0  0  0  0  0  0  0
   -2.3377   19.4876  -28.7632 H   0  0  0  0  0  0  0  0  0  0  0  0
   -2.1426   20.5300  -26.4516 H   0  0  0  0  0  0  0  0  0  0  0  0
   -2.7668   22.0601  -27.1558 H   0  0  0  0  0  0  0  0  0  0  0  0
   -3.7941   20.5866  -27.1558 H   0  0  0  0  0  0  0  0  0  0  0  0
   -0.2063   20.1053  -29.3221 H   0  0  0  0  0  0  0  0  0  0  0  0
   -0.5562   21.8710  -29.1140 H   0  0  0  0  0  0  0  0  0  0  0  0
   -0.8746   23.7839  -24.1216 H   0  0  0  0  0  0  0  0  0  0  0  0
    0.8550   23.7133  -24.6043 H   0  0  0  0  0  0  0  0  0  0  0  0
   -0.5856   25.7436  -25.4205 H   0  0  0  0  0  0  0  0  0  0  0  0
    0.4703   24.9164  -26.6097 H   0  0  0  0  0  0  0  0  0  0  0  0
   -2.9580   25.1490  -30.3390 H   0  0  0  0  0  0  0  0  0  0  0  0
   -7.6730   24.2204  -30.0169 H   0  0  0  0  0  0  0  0  0  0  0  0
   -9.6518   22.1532  -30.1943 H   0  0  0  0  0  0  0  0  0  0  0  0
  -10.0710   19.8638  -31.1581 H   0  0  0  0  0  0  0  0  0  0  0  0
   -8.8452   17.7477  -31.8904 H   0  0  0  0  0  0  0  0  0  0  0  0
   -9.0002   18.4067  -33.5604 H   0  0  0  0  0  0  0  0  0  0  0  0
   -6.1185   19.9138  -32.9977 H   0  0  0  0  0  0  0  0  0  0  0  0
  1  2  2  0
  2  3  1  0
  3  4  2  0
  3  5  1  0
  5  6  1  0
  6  7  1  0
  6  8  1  0
  8  9  1  0
  9 10  1  0
 10 11  2  0
 10 12  1  0
 12 13  1  0
 13 14  1  0
 14 15  1  0
 15 16  1  0
 16 17  2  0
 16 18  1  0
 16 19  1  0
  2 20  1  0
 20 21  2  0
 20 22  1  0
 22 23  1  0
 23 24  1  0
 24 25  1  0
 24 26  2  0
 23 27  2  0
 27 28  1  0
 28 29  2  0
 29 30  1  0
 30 31  2  0
 31 32  1  0
 32 33  1  0
 33 34  2  0
 33 35  1  0
 33 36  1  0
 31 37  1  0
 37 38  2  0
 38 22  1  0
 38 28  1  0
  1 39  1  0
  1 40  1  0
  6 41  1  6
  7 42  1  0
  7 43  1  0
  7 44  1  0
  8 45  1  0
  8 46  1  0
 13 47  1  0
 13 48  1  0
 14 49  1  0
 14 50  1  0
 25 51  1  0
 27 52  1  0
 29 53  1  0
 30 54  1  0
 32 55  1  0
 32 56  1  0
 37 57  1  0
M  CHG  5  18  -1  19  -1  25  -1  35  -1  36  -1
M  END
>  <UniqueID>  (3) 
3

>  <SMILES>  (3) 
C=C(C(=O)O[C@H](C)COC(=O)OCCOP(=O)([O-])[O-])C(=O)n1c(C([NH-])=O)cc2ccc(CP(=O)([O-])[O-])cc21

>  <Energy>  (3) 
76.24873372980238

>  <Genealogy>  (3) 
C=C(C(=O)OC(C)COC(=O)OCCOP(=O)([O-])[O-])C(=O)n1c(C([NH-])=O)cc2ccc(CP(=O)([O-])[O-])cc21 (protonated)
C=C(C(=O)O[C@H](C)COC(=O)OCCOP(=O)([O-])[O-])C(=O)n1c(C([NH-])=O)cc2ccc(CP(=O)([O-])[O-])cc21 (chirality)
C=C(C(=O)O[C@H](C)COC(=O)OCCOP(=O)([O-])[O-])C(=O)n1c(C([NH-])=O)cc2ccc(CP(=O)([O-])[O-])cc21 (3D coordinates assigned)
C=C(C(=O)O[C@H](C)COC(=O)OCCOP(=O)([O-])[O-])C(=O)n1c(C([NH-])=O)cc2ccc(CP(=O)([O-])[O-])cc21 (optimized conformer: 76.24873372980238 kcal/mol)

>  <smiles>  (3) 
C=C(C(=O)OC(C)COC(=O)OCCOP(=O)(O)O)C(=O)n1c(C(N)=O)cc2ccc(CP(=O)(O)O)cc21

>  <score_type>  (3) 
oracle

>  <origin>  (3) 
adg

>  <m_score__min__energy>  (3) 
-13.32

>  <m_primary>  (3) 
energy

$$$$
3:0
     RDKit          3D

 30 31  0  0  0  0  0  0  0  0999 V2000
   -0.7130   21.7820  -33.9530 N   0  0  0  0  0  0  0  0  0  0  0  0
   -1.3880   21.3430  -32.7770 C   0  0  0  0  0  0  0  0  0  0  0  0
   -0.7930   21.4070  -31.6680 O   0  0  0  0  0  0  0  0  0  0  0  0
   -2.7800   20.8500  -32.8330 C   0  0  0  0  0  0  0  0  0  0  0  0
   -3.1580   19.6830  -33.4950 C   0  0  0  0  0  0  0  0  0  0  0  0
   -4.5090   19.5540  -33.2640 C   0  0  0  0  0  0  0  0  0  0  0  0
   -5.4040   18.5870  -33.7090 C   0  0  0  0  0  0  0  0  0  0  0  0
   -6.7560   18.7240  -33.3490 C   0  0  0  0  0  0  0  0  0  0  0  0
   -7.1850   19.8120  -32.5460 C   0  0  0  0  0  0  0  0  0  0  0  0
   -8.6470   19.9820  -32.2160 C   0  0  0  0  0  0  0  0  0  0  0  0
   -9.4330   19.2670  -33.1020 F   0  0  0  0  0  0  0  0  0  0  0  0
   -8.9150   19.5280  -30.9350 F   0  0  0  0  0  0  0  0  0  0  0  0
   -8.9780   21.3210  -32.2980 F   0  0  0  0  0  0  0  0  0  0  0  0
   -6.2470   20.7870  -32.1360 C   0  0  0  0  0  0  0  0  0  0  0  0
   -4.9060   20.6160  -32.4940 C   0  0  0  0  0  0  0  0  0  0  0  0
   -3.8560   21.4200  -32.2200 N   0  0  0  0  0  0  0  0  0  0  0  0
   -3.8950   22.6640  -31.5050 C   0  0  0  0  0  0  0  0  0  0  0  0
   -4.8130   23.4940  -31.7520 O   0  0  0  0  0  0  0  0  0  0  0  0
   -2.7940   23.0290  -30.5510 C   0  0  0  0  0  0  0  0  0  0  0  0
   -3.0960   24.6410  -29.7570 P   0  0  0  0  0  0  0  0  0  0  0  0
   -3.9470   24.4630  -28.5190 O   0  0  0  0  0  0  0  0  0  0  0  0
   -1.6140   25.3310  -29.3220 O   0  0  0  0  0  0  0  0  0  0  0  0
   -3.8910   25.6690  -30.8390 O   0  0  0  0  0  0  0  0  0  0  0  0
   -1.2460   22.0550  -34.8080 H   0  0  0  0  0  0  0  0  0  0  0  0
   -2.5137   19.0085  -34.0781 H   0  0  0  0  0  0  0  0  0  0  0  0
   -5.0643   17.7406  -34.3240 H   0  0  0  0  0  0  0  0  0  0  0  0
   -7.4890   17.9797  -33.6936 H   0  0  0  0  0  0  0  0  0  0  0  0
   -6.5649   21.6608  -31.5484 H   0  0  0  0  0  0  0  0  0  0  0  0
   -2.7263   22.2552  -29.7721 H   0  0  0  0  0  0  0  0  0  0  0  0
   -1.8557   23.0982  -31.1210 H   0  0  0  0  0  0  0  0  0  0  0  0
  1  2  1  0
  2  3  2  0
  2  4  1  0
  4  5  2  0
  5  6  1  0
  6  7  2  0
  7  8  1  0
  8  9  2  0
  9 10  1  0
 10 11  1  0
 10 12  1  0
 10 13  1  0
  9 14  1  0
 14 15  2  0
 15 16  1  0
 16 17  1  0
 17 18  2  0
 17 19  1  0
 19 20  1  0
 20 21  2  0
 20 22  1  0
 20 23  1  0
 16  4  1  0
 15  6  1  0
  1 24  1  0
  5 25  1  0
  7 26  1  0
  8 27  1  0
 14 28  1  0
 19 29  1  0
 19 30  1  0
M  CHG  3   1  -1  22  -1  23  -1
M  END
>  <UniqueID>  (4) 
4

>  <SMILES>  (4) 
[NH-]C(=O)c1cc2ccc(C(F)(F)F)cc2n1C(=O)CP(=O)([O-])[O-]

>  <Energy>  (4) 
66.83957476263396

>  <Genealogy>  (4) 
[NH-]C(=O)c1cc2ccc(C(F)(F)F)cc2n1C(=O)CP(=O)([O-])[O-] (protonated)
[NH-]C(=O)c1cc2ccc(C(F)(F)F)cc2n1C(=O)CP(=O)([O-])[O-] (3D coordinates assigned)
[NH-]C(=O)c1cc2ccc(C(F)(F)F)cc2n1C(=O)CP(=O)([O-])[O-] (optimized conformer: 66.83957476263396 kcal/mol)

>  <smiles>  (4) 
NC(=O)c1cc2ccc(C(F)(F)F)cc2n1C(=O)CP(=O)(O)O

>  <score_type>  (4) 
oracle

>  <origin>  (4) 
adg

>  <m_score__min__energy>  (4) 
-12.42

>  <m_primary>  (4) 
energy

$$$$
4:0
     RDKit          3D

 44 45  0  0  0  0  0  0  0  0999 V2000
   -7.3080   18.3800  -32.5190 C   0  0  0  0  0  0  0  0  0  0  0  0
   -7.3730   19.8390  -32.1850 C   0  0  0  0  0  0  0  0  0  0  0  0
   -8.6170   20.5190  -32.2040 C   0  0  0  0  0  0  0  0  0  0  0  0
   -8.6890   21.8860  -31.8870 C   0  0  0  0  0  0  0  0  0  0  0  0
   -7.5100   22.5370  -31.5370 C   0  0  0  0  0  0  0  0  0  0  0  0
   -7.2860   23.8590  -31.2210 C   0  0  0  0  0  0  0  0  0  0  0  0
   -5.9160   23.9540  -30.9850 C   0  0  0  0  0  0  0  0  0  0  0  0
   -5.2450   25.1960  -30.5490 C   0  0  0  0  0  0  0  0  0  0  0  0
   -3.8660   25.4200  -30.8300 N   0  0  0  0  0  0  0  0  0  0  0  0
   -5.8890   26.0560  -29.8900 O   0  0  0  0  0  0  0  0  0  0  0  0
   -5.3170   22.7420  -31.1550 N   0  0  0  0  0  0  0  0  0  0  0  0
   -3.9150   22.4360  -31.1230 C   0  0  0  0  0  0  0  0  0  0  0  0
   -3.1240   23.0450  -31.8920 O   0  0  0  0  0  0  0  0  0  0  0  0
   -3.3690   21.4610  -30.1220 C   0  0  0  0  0  0  0  0  0  0  0  0
   -3.0550   22.2740  -28.5620 S   0  0  0  0  0  0  0  0  0  0  0  0
   -3.6000   23.6740  -28.6130 O   0  0  0  0  0  0  0  0  0  0  0  0
   -3.7560   21.5180  -27.4690 O   0  0  0  0  0  0  0  0  0  0  0  0
   -1.3540   22.3160  -28.2110 N   0  0  0  0  0  0  0  0  0  0  0  0
   -0.6930   23.3380  -29.0210 C   0  0  0  0  0  0  0  0  0  0  0  0
   -1.0160   24.7070  -28.4860 C   0  0  0  0  0  0  0  0  0  0  0  0
   -1.5020   25.5680  -29.2720 O   0  0  0  0  0  0  0  0  0  0  0  0
   -0.7310   25.0750  -27.1190 N   0  0  0  0  0  0  0  0  0  0  0  0
   -1.1060   26.4130  -26.6480 C   0  0  0  0  0  0  0  0  0  0  0  0
   -0.0420   24.1470  -26.2140 C   0  0  0  0  0  0  0  0  0  0  0  0
   -6.3060   21.8850  -31.4850 C   0  0  0  0  0  0  0  0  0  0  0  0
   -6.2020   20.5280  -31.8030 C   0  0  0  0  0  0  0  0  0  0  0  0
   -7.2818   17.7919  -31.5898 H   0  0  0  0  0  0  0  0  0  0  0  0
   -8.1945   18.0984  -33.1062 H   0  0  0  0  0  0  0  0  0  0  0  0
   -6.4000   18.1784  -33.1062 H   0  0  0  0  0  0  0  0  0  0  0  0
   -9.5336   19.9717  -32.4692 H   0  0  0  0  0  0  0  0  0  0  0  0
   -9.6476   22.4248  -31.9147 H   0  0  0  0  0  0  0  0  0  0  0  0
   -8.0301   24.6673  -31.1666 H   0  0  0  0  0  0  0  0  0  0  0  0
   -3.1320   24.7660  -30.4770 H   0  0  0  0  0  0  0  0  0  0  0  0
   -4.0994   20.6530  -29.9684 H   0  0  0  0  0  0  0  0  0  0  0  0
   -2.4234   21.0501  -30.5053 H   0  0  0  0  0  0  0  0  0  0  0  0
    0.3953   23.1814  -28.9880 H   0  0  0  0  0  0  0  0  0  0  0  0
   -1.0494   23.2625  -30.0589 H   0  0  0  0  0  0  0  0  0  0  0  0
   -1.1099   26.4268  -25.5481 H   0  0  0  0  0  0  0  0  0  0  0  0
   -0.3798   27.1500  -27.0214 H   0  0  0  0  0  0  0  0  0  0  0  0
   -2.1095   26.6653  -27.0214 H   0  0  0  0  0  0  0  0  0  0  0  0
   -0.2510   24.4286  -25.1714 H   0  0  0  0  0  0  0  0  0  0  0  0
   -0.4005   23.1231  -26.3962 H   0  0  0  0  0  0  0  0  0  0  0  0
    1.0418   24.1939  -26.3962 H   0  0  0  0  0  0  0  0  0  0  0  0
   -5.2325   20.0104  -31.7567 H   0  0  0  0  0  0  0  0  0  0  0  0
  1  2  1  0
  2  3  2  0
  3  4  1  0
  4  5  2  0
  5  6  1  0
  6  7  2  0
  7  8  1  0
  8  9  1  0
  8 10  2  0
  7 11  1  0
 11 12  1  0
 12 13  2  0
 12 14  1  0
 14 15  1  0
 15 16  2  0
 15 17  2  0
 15 18  1  0
 18 19  1  0
 19 20  1  0
 20 21  2  0
 20 22  1  0
 22 23  1  0
 22 24  1  0
 11 25  1  0
 25 26  2  0
 26  2  1  0
 25  5  1  0
  1 27  1  0
  1 28  1  0
  1 29  1  0
  3 30  1  0
  4 31  1  0
  6 32  1  0
  9 33  1  0
 14 34  1  0
 14 35  1  0
 19 36  1  0
 19 37  1  0
 23 38  1  0
 23 39  1  0
 23 40  1  0
 24 41  1  0
 24 42  1  0
 24 43  1  0
 26 44  1  0
M  CHG  2   9  -1  18  -1
M  END
>  <UniqueID>  (5) 
5

>  <SMILES>  (5) 
Cc1ccc2cc(C([NH-])=O)n(C(=O)CS(=O)(=O)[N-]CC(=O)N(C)C)c2c1

>  <Energy>  (5) 
67.09877197251267

>  <Genealogy>  (5) 
Cc1ccc2cc(C([NH-])=O)n(C(=O)CS(=O)(=O)[N-]CC(=O)N(C)C)c2c1 (protonated)
Cc1ccc2cc(C([NH-])=O)n(C(=O)CS(=O)(=O)[N-]CC(=O)N(C)C)c2c1 (3D coordinates assigned)
Cc1ccc2cc(C([NH-])=O)n(C(=O)CS(=O)(=O)[N-]CC(=O)N(C)C)c2c1 (optimized conformer: 67.09877197251267 kcal/mol)

>  <smiles>  (5) 
Cc1ccc2cc(C(N)=O)n(C(=O)CS(=O)(=O)NCC(=O)N(C)C)c2c1

>  <score_type>  (5) 
oracle

>  <origin>  (5) 
adg

>  <m_score__min__energy>  (5) 
-11.42

>  <m_primary>  (5) 
energy

$$$$
5:0
     RDKit          3D

 46 48  0  0  0  0  0  0  0  0999 V2000
   -5.7540   18.1310  -34.8090 C   0  0  0  0  0  0  0  0  0  0  0  0
   -6.2700   18.2770  -33.4420 N   0  0  0  0  0  0  0  0  0  0  0  0
   -6.5650   17.0680  -32.6630 C   0  0  0  0  0  0  0  0  0  0  0  0
   -6.4860   19.5940  -32.8700 C   0  0  0  0  0  0  0  0  0  0  0  0
   -7.7780   20.1950  -32.8950 C   0  0  0  0  0  0  0  0  0  0  0  0
   -7.9990   21.4630  -32.3360 C   0  0  0  0  0  0  0  0  0  0  0  0
   -6.9190   22.1220  -31.7630 C   0  0  0  0  0  0  0  0  0  0  0  0
   -6.8620   23.3440  -31.1310 C   0  0  0  0  0  0  0  0  0  0  0  0
   -5.5320   23.4960  -30.7450 C   0  0  0  0  0  0  0  0  0  0  0  0
   -5.0050   24.7190  -30.1110 C   0  0  0  0  0  0  0  0  0  0  0  0
   -3.8700   25.3900  -30.6510 N   0  0  0  0  0  0  0  0  0  0  0  0
   -5.5930   25.2110  -29.1110 O   0  0  0  0  0  0  0  0  0  0  0  0
   -4.7990   22.4090  -31.1170 N   0  0  0  0  0  0  0  0  0  0  0  0
   -3.4230   22.1330  -30.8110 C   0  0  0  0  0  0  0  0  0  0  0  0
   -3.0630   20.9510  -30.5580 O   0  0  0  0  0  0  0  0  0  0  0  0
   -2.4990   23.1820  -30.7550 O   0  0  0  0  0  0  0  0  0  0  0  0
   -1.5090   23.2820  -29.7340 C   0  0  0  0  0  0  0  0  0  0  0  0
   -2.0090   24.0400  -28.6360 O   0  0  0  0  0  0  0  0  0  0  0  0
   -1.4960   25.2920  -28.2780 C   0  0  0  0  0  0  0  0  0  0  0  0
   -1.2380   26.1470  -29.1690 O   0  0  0  0  0  0  0  0  0  0  0  0
   -1.2620   25.6110  -26.8530 C   0  0  0  0  0  0  0  0  0  0  0  0
   -1.2630   26.9470  -26.4130 C   0  0  0  0  0  0  0  0  0  0  0  0
   -1.0480   27.2500  -25.0660 C   0  0  0  0  0  0  0  0  0  0  0  0
   -0.8300   26.2240  -24.1430 C   0  0  0  0  0  0  0  0  0  0  0  0
   -0.6210   26.5200  -22.8360 F   0  0  0  0  0  0  0  0  0  0  0  0
   -0.8270   24.8930  -24.5670 C   0  0  0  0  0  0  0  0  0  0  0  0
   -1.0420   24.5840  -25.9130 C   0  0  0  0  0  0  0  0  0  0  0  0
   -5.6630   21.5780  -31.7410 C   0  0  0  0  0  0  0  0  0  0  0  0
   -5.4140   20.3090  -32.2730 C   0  0  0  0  0  0  0  0  0  0  0  0
   -4.6962   17.8317  -34.7716 H   0  0  0  0  0  0  0  0  0  0  0  0
   -6.3342   17.3618  -35.3397 H   0  0  0  0  0  0  0  0  0  0  0  0
   -5.8451   19.0902  -35.3397 H   0  0  0  0  0  0  0  0  0  0  0  0
   -6.5082   17.3007  -31.5894 H   0  0  0  0  0  0  0  0  0  0  0  0
   -7.5764   16.7117  -32.9080 H   0  0  0  0  0  0  0  0  0  0  0  0
   -5.8313   16.2859  -32.9080 H   0  0  0  0  0  0  0  0  0  0  0  0
   -8.6162   19.6557  -33.3604 H   0  0  0  0  0  0  0  0  0  0  0  0
   -8.9987   21.9218  -32.3512 H   0  0  0  0  0  0  0  0  0  0  0  0
   -7.6897   24.0495  -30.9661 H   0  0  0  0  0  0  0  0  0  0  0  0
   -2.9240   25.2740  -30.2250 H   0  0  0  0  0  0  0  0  0  0  0  0
   -1.2416   22.2729  -29.3871 H   0  0  0  0  0  0  0  0  0  0  0  0
   -0.6211   23.7861  -30.1433 H   0  0  0  0  0  0  0  0  0  0  0  0
   -1.4343   27.7593  -27.1347 H   0  0  0  0  0  0  0  0  0  0  0  0
   -1.0504   28.2980  -24.7317 H   0  0  0  0  0  0  0  0  0  0  0  0
   -0.6550   24.0860  -23.8396 H   0  0  0  0  0  0  0  0  0  0  0  0
   -1.0395   23.5339  -26.2405 H   0  0  0  0  0  0  0  0  0  0  0  0
   -4.4054   19.8722  -32.2298 H   0  0  0  0  0  0  0  0  0  0  0  0
  1  2  1  0
  2  3  1  0
  2  4  1  0
  4  5  2  0
  5  6  1  0
  6  7  2  0
  7  8  1  0
  8  9  2  0
  9 10  1  0
 10 11  1  0
 10 12  2  0
  9 13  1  0
 13 14  1  0
 14 15  2  0
 14 16  1  0
 16 17  1  0
 17 18  1  0
 18 19  1  0
 19 20  2  0
 19 21  1  0
 21 22  2  0
 22 23  1  0
 23 24  2  0
 24 25  1  0
 24 26  1  0
 26 27  2  0
 13 28  1  0
 28 29  2  0
 29  4  1  0
 28  7  1  0
 27 21  1  0
  1 30  1  0
  1 31  1  0
  1 32  1  0
  3 33  1  0
  3 34  1  0
  3 35  1  0
  5 36  1  0
  6 37  1  0
  8 38  1  0
 11 39  1  0
 17 40  1  0
 17 41  1  0
 22 42  1  0
 23 43  1  0
 26 44  1  0
 27 45  1  0
 29 46  1  0
M  CHG  1  11  -1
M  END
>  <UniqueID>  (6) 
6

>  <SMILES>  (6) 
CN(C)c1ccc2cc(C([NH-])=O)n(C(=O)OCOC(=O)c3ccc(F)cc3)c2c1

>  <Energy>  (6) 
86.32105134274003

>  <Genealogy>  (6) 
CN(C)c1ccc2cc(C([NH-])=O)n(C(=O)OCOC(=O)c3ccc(F)cc3)c2c1 (protonated)
CN(C)c1ccc2cc(C([NH-])=O)n(C(=O)OCOC(=O)c3ccc(F)cc3)c2c1 (3D coordinates assigned)
CN(C)c1ccc2cc(C([NH-])=O)n(C(=O)OCOC(=O)c3ccc(F)cc3)c2c1 (optimized conformer: 86.32105134274003 kcal/mol)

>  <smiles>  (6) 
CN(C)c1ccc2cc(C(N)=O)n(C(=O)OCOC(=O)c3ccc(F)cc3)c2c1

>  <score_type>  (6) 
oracle

>  <origin>  (6) 
adg

>  <m_score__min__energy>  (6) 
-11.17

>  <m_primary>  (6) 
energy

$$$$
6:0
     RDKit          3D

 42 43  0  0  0  0  0  0  0  0999 V2000
   -8.3570   21.9310  -31.1930 C   0  0  0  0  0  0  0  0  0  0  0  0
   -8.0410   20.6610  -31.8500 N   0  0  0  0  0  0  0  0  0  0  0  0
   -9.0940   19.6530  -32.0000 C   0  0  0  0  0  0  0  0  0  0  0  0
   -6.6820   20.3730  -32.2810 C   0  0  0  0  0  0  0  0  0  0  0  0
   -6.4390   19.6800  -33.5080 C   0  0  0  0  0  0  0  0  0  0  0  0
   -5.1330   19.4240  -33.9570 C   0  0  0  0  0  0  0  0  0  0  0  0
   -4.0850   19.8540  -33.1620 C   0  0  0  0  0  0  0  0  0  0  0  0
   -2.7260   19.7590  -33.3620 C   0  0  0  0  0  0  0  0  0  0  0  0
   -2.1490   20.3120  -32.2260 C   0  0  0  0  0  0  0  0  0  0  0  0
   -0.6900   20.4310  -32.0200 C   0  0  0  0  0  0  0  0  0  0  0  0
   -0.1140   19.9660  -30.8010 N   0  0  0  0  0  0  0  0  0  0  0  0
    0.0510   20.9420  -32.9040 O   0  0  0  0  0  0  0  0  0  0  0  0
   -3.1050   20.7560  -31.3720 N   0  0  0  0  0  0  0  0  0  0  0  0
   -2.8910   21.2910  -30.0550 C   0  0  0  0  0  0  0  0  0  0  0  0
   -2.6360   20.4880  -29.1170 O   0  0  0  0  0  0  0  0  0  0  0  0
   -2.7650   22.7060  -29.8240 N   0  0  0  0  0  0  0  0  0  0  0  0
   -3.9620   23.5050  -29.5340 C   0  0  0  0  0  0  0  0  0  0  0  0
   -4.3250   24.3590  -30.7100 C   0  0  0  0  0  0  0  0  0  0  0  0
   -5.0940   23.9250  -31.6110 O   0  0  0  0  0  0  0  0  0  0  0  0
   -3.8820   25.6750  -30.7610 O   0  0  0  0  0  0  0  0  0  0  0  0
   -1.4750   23.3860  -30.0400 C   0  0  0  0  0  0  0  0  0  0  0  0
   -1.1000   24.4850  -28.6360 P   0  0  0  0  0  0  0  0  0  0  0  0
   -1.7920   23.9770  -27.3930 O   0  0  0  0  0  0  0  0  0  0  0  0
    0.5740   24.4970  -28.3750 O   0  0  0  0  0  0  0  0  0  0  0  0
   -1.6250   26.0580  -28.9700 O   0  0  0  0  0  0  0  0  0  0  0  0
   -4.2890   20.4820  -31.9600 C   0  0  0  0  0  0  0  0  0  0  0  0
   -5.5740   20.7650  -31.4920 C   0  0  0  0  0  0  0  0  0  0  0  0
   -8.3238   21.7975  -30.1016 H   0  0  0  0  0  0  0  0  0  0  0  0
   -7.6207   22.6916  -31.4919 H   0  0  0  0  0  0  0  0  0  0  0  0
   -9.3639   22.2579  -31.4919 H   0  0  0  0  0  0  0  0  0  0  0  0
   -9.4342   19.3274  -31.0059 H   0  0  0  0  0  0  0  0  0  0  0  0
   -9.9402   20.0863  -32.5534 H   0  0  0  0  0  0  0  0  0  0  0  0
   -8.6981   18.7887  -32.5534 H   0  0  0  0  0  0  0  0  0  0  0  0
   -7.2927   19.3403  -34.1128 H   0  0  0  0  0  0  0  0  0  0  0  0
   -4.9497   18.9003  -34.9068 H   0  0  0  0  0  0  0  0  0  0  0  0
   -2.2079   19.3356  -34.2351 H   0  0  0  0  0  0  0  0  0  0  0  0
   -0.7000   19.9080  -29.9320 H   0  0  0  0  0  0  0  0  0  0  0  0
   -4.8000   22.8303  -29.3051 H   0  0  0  0  0  0  0  0  0  0  0  0
   -3.7522   24.1576  -28.6737 H   0  0  0  0  0  0  0  0  0  0  0  0
   -0.6787   22.6330  -30.1348 H   0  0  0  0  0  0  0  0  0  0  0  0
   -1.5354   23.9865  -30.9596 H   0  0  0  0  0  0  0  0  0  0  0  0
   -5.7218   21.2809  -30.5318 H   0  0  0  0  0  0  0  0  0  0  0  0
  1  2  1  0
  2  3  1  0
  2  4  1  0
  4  5  2  0
  5  6  1  0
  6  7  2  0
  7  8  1  0
  8  9  2  0
  9 10  1  0
 10 11  1  0
 10 12  2  0
  9 13  1  0
 13 14  1  0
 14 15  2  0
 14 16  1  0
 16 17  1  0
 17 18  1  0
 18 19  2  0
 18 20  1  0
 16 21  1  0
 21 22  1  0
 22 23  2  0
 22 24  1  0
 22 25  1  0
 13 26  1  0
 26 27  2  0
 27  4  1  0
 26  7  1  0
  1 28  1  0
  1 29  1  0
  1 30  1  0
  3 31  1  0
  3 32  1  0
  3 33  1  0
  5 34  1  0
  6 35  1  0
  8 36  1  0
 11 37  1  0
 17 38  1  0
 17 39  1  0
 21 40  1  0
 21 41  1  0
 27 42  1  0
M  CHG  4  11  -1  20  -1  24  -1  25  -1
M  END
>  <UniqueID>  (7) 
7

>  <SMILES>  (7) 
CN(C)c1ccc2cc(C([NH-])=O)n(C(=O)N(CC(=O)[O-])CP(=O)([O-])[O-])c2c1

>  <Energy>  (7) 
85.9262568002211

>  <Genealogy>  (7) 
CN(C)c1ccc2cc(C([NH-])=O)n(C(=O)N(CC(=O)[O-])CP(=O)([O-])[O-])c2c1 (protonated)
CN(C)c1ccc2cc(C([NH-])=O)n(C(=O)N(CC(=O)[O-])CP(=O)([O-])[O-])c2c1 (3D coordinates assigned)
CN(C)c1ccc2cc(C([NH-])=O)n(C(=O)N(CC(=O)[O-])CP(=O)([O-])[O-])c2c1 (optimized conformer: 85.9262568002211 kcal/mol)

>  <smiles>  (7) 
CN(C)c1ccc2cc(C(N)=O)n(C(=O)N(CC(=O)O)CP(=O)(O)O)c2c1

>  <score_type>  (7) 
oracle

>  <origin>  (7) 
adg

>  <m_score__min__energy>  (7) 
-12.859999999999999

>  <m_primary>  (7) 
energy

$$$$
7:0
     RDKit          3D

 33 34  0  0  0  0  0  0  0  0999 V2000
   -4.9650   16.3240  -33.3470 C   0  0  0  0  0  0  0  0  0  0  0  0
   -5.7900   17.5230  -32.9820 C   0  0  0  0  0  0  0  0  0  0  0  0
   -7.2050   17.4510  -33.0130 C   0  0  0  0  0  0  0  0  0  0  0  0
   -7.9860   18.5610  -32.6490 C   0  0  0  0  0  0  0  0  0  0  0  0
   -7.3260   19.7170  -32.2440 C   0  0  0  0  0  0  0  0  0  0  0  0
   -7.8350   20.9360  -31.8560 C   0  0  0  0  0  0  0  0  0  0  0  0
   -6.7200   21.7220  -31.5620 C   0  0  0  0  0  0  0  0  0  0  0  0
   -6.7930   23.0870  -31.0010 C   0  0  0  0  0  0  0  0  0  0  0  0
   -5.6090   23.7810  -30.6120 N   0  0  0  0  0  0  0  0  0  0  0  0
   -7.9070   23.6610  -30.8890 O   0  0  0  0  0  0  0  0  0  0  0  0
   -5.5720   21.0180  -31.7640 N   0  0  0  0  0  0  0  0  0  0  0  0
   -4.2240   21.5000  -31.6570 C   0  0  0  0  0  0  0  0  0  0  0  0
   -3.7490   22.2420  -32.5590 O   0  0  0  0  0  0  0  0  0  0  0  0
   -3.4560   21.1710  -30.5330 O   0  0  0  0  0  0  0  0  0  0  0  0
   -2.8500   22.1550  -29.6970 C   0  0  0  0  0  0  0  0  0  0  0  0
   -2.5030   23.2900  -30.4590 O   0  0  0  0  0  0  0  0  0  0  0  0
   -3.1100   24.6920  -29.6950 P   0  0  0  0  0  0  0  0  0  0  0  0
   -4.1250   24.2920  -28.6490 O   0  0  0  0  0  0  0  0  0  0  0  0
   -1.8620   25.5700  -28.9590 O   0  0  0  0  0  0  0  0  0  0  0  0
   -3.8600   25.6720  -30.8500 O   0  0  0  0  0  0  0  0  0  0  0  0
   -5.9590   19.7920  -32.1790 C   0  0  0  0  0  0  0  0  0  0  0  0
   -5.1550   18.7080  -32.5510 C   0  0  0  0  0  0  0  0  0  0  0  0
   -4.6204   15.8232  -32.4303 H   0  0  0  0  0  0  0  0  0  0  0  0
   -5.5748   15.6258  -33.9392 H   0  0  0  0  0  0  0  0  0  0  0  0
   -4.0950   16.6440  -33.9392 H   0  0  0  0  0  0  0  0  0  0  0  0
   -7.6965   16.5176  -33.3249 H   0  0  0  0  0  0  0  0  0  0  0  0
   -9.0846   18.5174  -32.6832 H   0  0  0  0  0  0  0  0  0  0  0  0
   -8.8936   21.2278  -31.7916 H   0  0  0  0  0  0  0  0  0  0  0  0
   -5.6690   24.7600  -30.2510 H   0  0  0  0  0  0  0  0  0  0  0  0
   -4.6740   23.3190  -30.6450 H   0  0  0  0  0  0  0  0  0  0  0  0
   -3.5583   22.4487  -28.9083 H   0  0  0  0  0  0  0  0  0  0  0  0
   -1.9406   21.7329  -29.2445 H   0  0  0  0  0  0  0  0  0  0  0  0
   -4.0580   18.7777  -32.5086 H   0  0  0  0  0  0  0  0  0  0  0  0
  1  2  1  0
  2  3  2  0
  3  4  1  0
  4  5  2  0
  5  6  1  0
  6  7  2  0
  7  8  1  0
  8  9  1  0
  8 10  2  0
  7 11  1  0
 11 12  1  0
 12 13  2  0
 12 14  1  0
 14 15  1  0
 15 16  1  0
 16 17  1  0
 17 18  2  0
 17 19  1  0
 17 20  1  0
 11 21  1  0
 21 22  2  0
 22  2  1  0
 21  5  1  0
  1 23  1  0
  1 24  1  0
  1 25  1  0
  3 26  1  0
  4 27  1  0
  6 28  1  0
  9 29  1  0
  9 30  1  0
 15 31  1  0
 15 32  1  0
 22 33  1  0
M  CHG  2  19  -1  20  -1
M  END
>  <UniqueID>  (8) 
8

>  <SMILES>  (8) 
Cc1ccc2cc(C(N)=O)n(C(=O)OCOP(=O)([O-])[O-])c2c1

>  <Energy>  (8) 
70.14200710984396

>  <Genealogy>  (8) 
Cc1ccc2cc(C(N)=O)n(C(=O)OCOP(=O)([O-])[O-])c2c1 (protonated)
Cc1ccc2cc(C(N)=O)n(C(=O)OCOP(=O)([O-])[O-])c2c1 (3D coordinates assigned)
Cc1ccc2cc(C(N)=O)n(C(=O)OCOP(=O)([O-])[O-])c2c1 (optimized conformer: 70.14200710984396 kcal/mol)

>  <smiles>  (8) 
Cc1ccc2cc(C(N)=O)n(C(=O)OCOP(=O)(O)O)c2c1

>  <score_type>  (8) 
oracle

>  <origin>  (8) 
adg

>  <m_score__min__energy>  (8) 
-12.800000000000001

>  <m_primary>  (8) 
energy

$$$$
8:0
     RDKit          3D

 42 43  0  0  0  0  0  0  0  0999 V2000
   -0.5890   22.4820  -30.0410 C   0  0  0  0  0  0  0  0  0  0  0  0
   -1.3150   23.6920  -30.0440 O   0  0  0  0  0  0  0  0  0  0  0  0
   -1.1930   24.3350  -28.7920 C   0  0  0  0  0  0  0  0  0  0  0  0
   -2.2010   23.7110  -27.8200 C   0  0  0  0  0  0  0  0  0  0  0  0
   -3.4300   23.4200  -28.4850 O   0  0  0  0  0  0  0  0  0  0  0  0
   -3.6590   22.2500  -29.2170 C   0  0  0  0  0  0  0  0  0  0  0  0
   -3.4770   21.1180  -28.6930 O   0  0  0  0  0  0  0  0  0  0  0  0
   -4.0890   22.3490  -30.6180 C   0  0  0  0  0  0  0  0  0  0  0  0
   -3.2680   22.0840  -31.5370 O   0  0  0  0  0  0  0  0  0  0  0  0
   -5.4360   22.7200  -30.9550 N   0  0  0  0  0  0  0  0  0  0  0  0
   -6.0300   23.9300  -30.7580 C   0  0  0  0  0  0  0  0  0  0  0  0
   -5.3530   25.1590  -30.2950 C   0  0  0  0  0  0  0  0  0  0  0  0
   -3.9380   25.2030  -30.1060 N   0  0  0  0  0  0  0  0  0  0  0  0
   -6.0320   26.2040  -30.1060 O   0  0  0  0  0  0  0  0  0  0  0  0
   -7.3890   23.8630  -31.0570 C   0  0  0  0  0  0  0  0  0  0  0  0
   -7.6110   22.5620  -31.4490 C   0  0  0  0  0  0  0  0  0  0  0  0
   -8.7920   21.9330  -31.8300 C   0  0  0  0  0  0  0  0  0  0  0  0
   -8.7400   20.5610  -32.1310 C   0  0  0  0  0  0  0  0  0  0  0  0
   -7.5210   19.8430  -32.0230 C   0  0  0  0  0  0  0  0  0  0  0  0
   -7.4720   18.3810  -32.3600 C   0  0  0  0  0  0  0  0  0  0  0  0
   -6.4110   17.7910  -31.6960 F   0  0  0  0  0  0  0  0  0  0  0  0
   -8.6510   17.7640  -31.9800 F   0  0  0  0  0  0  0  0  0  0  0  0
   -6.3420   20.5190  -31.6370 C   0  0  0  0  0  0  0  0  0  0  0  0
   -6.4180   21.8910  -31.3710 C   0  0  0  0  0  0  0  0  0  0  0  0
   -1.5060   25.7100  -28.9510 O   0  0  0  0  0  0  0  0  0  0  0  0
   -0.9380   26.4760  -27.9110 C   0  0  0  0  0  0  0  0  0  0  0  0
   -0.4015   22.1695  -29.0031 H   0  0  0  0  0  0  0  0  0  0  0  0
   -1.1699   21.7045  -30.5588 H   0  0  0  0  0  0  0  0  0  0  0  0
    0.3704   22.6287  -30.5588 H   0  0  0  0  0  0  0  0  0  0  0  0
   -0.1694   24.2217  -28.4054 H   0  0  0  0  0  0  0  0  0  0  0  0
   -1.7811   22.7792  -27.4134 H   0  0  0  0  0  0  0  0  0  0  0  0
   -2.3990   24.4267  -27.0084 H   0  0  0  0  0  0  0  0  0  0  0  0
   -3.4890   26.0640  -29.7250 H   0  0  0  0  0  0  0  0  0  0  0  0
   -3.3230   24.4280  -30.4360 H   0  0  0  0  0  0  0  0  0  0  0  0
   -8.1272   24.6761  -30.9935 H   0  0  0  0  0  0  0  0  0  0  0  0
   -9.7372   22.4921  -31.8937 H   0  0  0  0  0  0  0  0  0  0  0  0
   -9.6530   20.0390  -32.4533 H   0  0  0  0  0  0  0  0  0  0  0  0
   -7.3412   18.2681  -33.4464 H   0  0  0  0  0  0  0  0  0  0  0  0
   -5.3873   19.9800  -31.5477 H   0  0  0  0  0  0  0  0  0  0  0  0
   -1.2457   26.0610  -26.9398 H   0  0  0  0  0  0  0  0  0  0  0  0
    0.1587   26.4471  -27.9912 H   0  0  0  0  0  0  0  0  0  0  0  0
   -1.2842   27.5170  -27.9912 H   0  0  0  0  0  0  0  0  0  0  0  0
  1  2  1  0
  2  3  1  0
  3  4  1  0
  4  5  1  0
  5  6  1  0
  6  7  2  0
  6  8  1  0
  8  9  2  0
  8 10  1  0
 10 11  1  0
 11 12  1  0
 12 13  1  0
 12 14  2  0
 11 15  2  0
 15 16  1  0
 16 17  2  0
 17 18  1  0
 18 19  2  0
 19 20  1  0
 20 21  1  0
 20 22  1  0
 19 23  1  0
 23 24  2  0
  3 25  1  0
 25 26  1  0
 24 10  1  0
 24 16  1  0
  1 27  1  0
  1 28  1  0
  1 29  1  0
  3 30  1  0
  4 31  1  0
  4 32  1  0
 13 33  1  0
 13 34  1  0
 15 35  1  0
 17 36  1  0
 18 37  1  0
 20 38  1  0
 23 39  1  0
 26 40  1  0
 26 41  1  0
 26 42  1  0
M  END
>  <UniqueID>  (9) 
9

>  <SMILES>  (9) 
COC(COC(=O)C(=O)n1c(C(N)=O)cc2ccc(C(F)F)cc21)OC

>  <Energy>  (9) 
81.47161571153802

>  <Genealogy>  (9) 
COC(COC(=O)C(=O)n1c(C(N)=O)cc2ccc(C(F)F)cc21)OC (3D coordinates assigned)
COC(COC(=O)C(=O)n1c(C(N)=O)cc2ccc(C(F)F)cc21)OC (optimized conformer: 81.47161571153802 kcal/mol)

>  <smiles>  (9) 
COC(COC(=O)C(=O)n1c(C(N)=O)cc2ccc(C(F)F)cc21)OC

>  <score_type>  (9) 
oracle

>  <origin>  (9) 
adg

>  <m_score__min__energy>  (9) 
-7.0899999999999999

>  <m_primary>  (9) 
energy

$$$$
9:0
     RDKit          3D

 38 40  0  0  0  0  0  0  0  0999 V2000
   -8.1710   18.4970  -31.8960 C   0  0  0  0  0  0  0  0  0  0  0  0
   -8.0290   19.9800  -31.7280 C   0  0  0  0  0  0  0  0  0  0  0  0
   -9.0950   20.8420  -32.0860 C   0  0  0  0  0  0  0  0  0  0  0  0
   -8.9610   22.2350  -31.9620 C   0  0  0  0  0  0  0  0  0  0  0  0
   -7.7470   22.7350  -31.4990 C   0  0  0  0  0  0  0  0  0  0  0  0
   -7.3530   24.0320  -31.2650 C   0  0  0  0  0  0  0  0  0  0  0  0
   -6.0450   23.9440  -30.7910 C   0  0  0  0  0  0  0  0  0  0  0  0
   -5.2380   25.1220  -30.4020 C   0  0  0  0  0  0  0  0  0  0  0  0
   -3.8580   25.2190  -30.7430 N   0  0  0  0  0  0  0  0  0  0  0  0
   -5.7760   26.0570  -29.7510 O   0  0  0  0  0  0  0  0  0  0  0  0
   -5.6400   22.6420  -30.7530 N   0  0  0  0  0  0  0  0  0  0  0  0
   -4.3780   22.1240  -30.2960 C   0  0  0  0  0  0  0  0  0  0  0  0
   -4.1940   21.9850  -29.0560 O   0  0  0  0  0  0  0  0  0  0  0  0
   -3.2590   21.7560  -31.2700 C   0  0  0  0  0  0  0  0  0  0  0  0
   -1.9600   22.2950  -30.8130 C   0  0  0  0  0  0  0  0  0  0  0  0
   -0.9430   22.7170  -30.4560 N   0  0  0  0  0  0  0  0  0  0  0  0
   -3.5810   22.2550  -32.6860 C   0  0  0  0  0  0  0  0  0  0  0  0
   -4.3330   21.1230  -33.3850 C   0  0  0  0  0  0  0  0  0  0  0  0
   -4.1240   19.8620  -32.5480 C   0  0  0  0  0  0  0  0  0  0  0  0
   -3.1580   20.2350  -31.4310 C   0  0  0  0  0  0  0  0  0  0  0  0
   -6.6980   21.9150  -31.1730 C   0  0  0  0  0  0  0  0  0  0  0  0
   -6.8080   20.5240  -31.2720 C   0  0  0  0  0  0  0  0  0  0  0  0
   -8.2168   18.0186  -30.9065 H   0  0  0  0  0  0  0  0  0  0  0  0
   -9.0942   18.2777  -32.4524 H   0  0  0  0  0  0  0  0  0  0  0  0
   -7.3061   18.1065  -32.4524 H   0  0  0  0  0  0  0  0  0  0  0  0
  -10.0362   20.4166  -32.4645 H   0  0  0  0  0  0  0  0  0  0  0  0
   -9.7897   22.9098  -32.2227 H   0  0  0  0  0  0  0  0  0  0  0  0
   -7.9453   24.9460  -31.4194 H   0  0  0  0  0  0  0  0  0  0  0  0
   -3.4880   26.0500  -31.2560 H   0  0  0  0  0  0  0  0  0  0  0  0
   -4.2103   23.1559  -32.6374 H   0  0  0  0  0  0  0  0  0  0  0  0
   -2.6638   22.5198  -33.2324 H   0  0  0  0  0  0  0  0  0  0  0  0
   -5.4049   21.3627  -33.4453 H   0  0  0  0  0  0  0  0  0  0  0  0
   -3.9603   20.9793  -34.4099 H   0  0  0  0  0  0  0  0  0  0  0  0
   -5.0816   19.5247  -32.1245 H   0  0  0  0  0  0  0  0  0  0  0  0
   -3.7231   19.0414  -33.1611 H   0  0  0  0  0  0  0  0  0  0  0  0
   -3.4443   19.7325  -30.4953 H   0  0  0  0  0  0  0  0  0  0  0  0
   -2.1300   19.9240  -31.6689 H   0  0  0  0  0  0  0  0  0  0  0  0
   -5.9653   19.8707  -31.0017 H   0  0  0  0  0  0  0  0  0  0  0  0
  1  2  1  0
  2  3  2  0
  3  4  1  0
  4  5  2  0
  5  6  1  0
  6  7  2  0
  7  8  1  0
  8  9  1  0
  8 10  2  0
  7 11  1  0
 11 12  1  0
 12 13  2  0
 12 14  1  0
 14 15  1  0
 15 16  3  0
 14 17  1  0
 17 18  1  0
 18 19  1  0
 19 20  1  0
 11 21  1  0
 21 22  2  0
 22  2  1  0
 21  5  1  0
 20 14  1  0
  1 23  1  0
  1 24  1  0
  1 25  1  0
  3 26  1  0
  4 27  1  0
  6 28  1  0
  9 29  1  0
 17 30  1  0
 17 31  1  0
 18 32  1  0
 18 33  1  0
 19 34  1  0
 19 35  1  0
 20 36  1  0
 20 37  1  0
 22 38  1  0
M  CHG  1   9  -1
M  END
>  <UniqueID>  (10) 
10

>  <SMILES>  (10) 
Cc1ccc2cc(C([NH-])=O)n(C(=O)C3(C#N)CCCC3)c2c1

>  <Energy>  (10) 
81.62379342996879

>  <Genealogy>  (10) 
Cc1ccc2cc(C([NH-])=O)n(C(=O)C3(C#N)CCCC3)c2c1 (protonated)
Cc1ccc2cc(C([NH-])=O)n(C(=O)C3(C#N)CCCC3)c2c1 (3D coordinates assigned)
Cc1ccc2cc(C([NH-])=O)n(C(=O)C3(C#N)CCCC3)c2c1 (nonaromatic ring conformer: 81.62379342996879 kcal/mol)

>  <smiles>  (10) 
Cc1ccc2cc(C(N)=O)n(C(=O)C3(C#N)CCCC3)c2c1

>  <score_type>  (10) 
oracle

>  <origin>  (10) 
adg

>  <m_score__min__energy>  (10) 
-10.960000000000001

>  <m_primary>  (10) 
energy

$$$$
10:0
     RDKit          3D

 61 63  0  0  0  0  0  0  0  0999 V2000
   -6.8250   19.3570  -33.4550 C   0  0  0  0  0  0  0  0  0  0  0  0
   -6.9010   18.1790  -32.4700 C   0  0  0  0  0  0  0  0  0  0  0  0
   -5.8530   18.3890  -31.3620 C   0  0  0  0  0  0  0  0  0  0  0  0
   -8.3190   18.1210  -31.8710 C   0  0  0  0  0  0  0  0  0  0  0  0
   -6.6200   16.9860  -33.2160 O   0  0  0  0  0  0  0  0  0  0  0  0
   -5.4600   16.1990  -33.1260 C   0  0  0  0  0  0  0  0  0  0  0  0
   -5.3490   15.3210  -32.2260 O   0  0  0  0  0  0  0  0  0  0  0  0
   -4.3910   16.3980  -34.0720 N   0  0  0  0  0  0  0  0  0  0  0  0
   -3.2360   15.4810  -34.0720 C   0  0  0  0  0  0  0  0  0  0  0  0
   -1.9180   16.1530  -33.6480 C   0  0  0  0  0  0  0  0  0  0  0  0
   -1.7000   17.5130  -34.3270 C   0  0  0  0  0  0  0  0  0  0  0  0
   -2.6000   18.5320  -33.7640 N   0  0  0  0  0  0  0  0  0  0  0  0
   -2.1650   19.3280  -32.6470 C   0  0  0  0  0  0  0  0  0  0  0  0
   -1.0120   18.9540  -31.9110 C   0  0  0  0  0  0  0  0  0  0  0  0
   -0.5880   19.7130  -30.8080 C   0  0  0  0  0  0  0  0  0  0  0  0
   -1.3240   20.8450  -30.4740 C   0  0  0  0  0  0  0  0  0  0  0  0
   -1.1530   21.7420  -29.4430 C   0  0  0  0  0  0  0  0  0  0  0  0
   -2.1830   22.6710  -29.5860 C   0  0  0  0  0  0  0  0  0  0  0  0
   -2.3370   23.8600  -28.7230 C   0  0  0  0  0  0  0  0  0  0  0  0
   -2.2800   25.1640  -29.2950 N   0  0  0  0  0  0  0  0  0  0  0  0
   -2.5490   23.7370  -27.4870 O   0  0  0  0  0  0  0  0  0  0  0  0
   -2.9610   22.3580  -30.6610 N   0  0  0  0  0  0  0  0  0  0  0  0
   -4.1460   23.0280  -31.1140 C   0  0  0  0  0  0  0  0  0  0  0  0
   -5.0970   22.3600  -31.6000 O   0  0  0  0  0  0  0  0  0  0  0  0
   -4.2470   24.4180  -30.9890 O   0  0  0  0  0  0  0  0  0  0  0  0
   -5.4920   25.1140  -30.9900 C   0  0  0  0  0  0  0  0  0  0  0  0
   -6.0500   25.2110  -29.6020 C   0  0  0  0  0  0  0  0  0  0  0  0
   -5.2380   24.8960  -28.4700 N   0  0  0  0  0  0  0  0  0  0  0  0
   -7.2310   25.6130  -29.4290 O   0  0  0  0  0  0  0  0  0  0  0  0
   -2.4230   21.2380  -31.1910 C   0  0  0  0  0  0  0  0  0  0  0  0
   -2.8820   20.4890  -32.2810 C   0  0  0  0  0  0  0  0  0  0  0  0
   -3.9090   18.7870  -34.3800 C   0  0  0  0  0  0  0  0  0  0  0  0
   -4.4700   17.5180  -35.0190 C   0  0  0  0  0  0  0  0  0  0  0  0
   -6.7641   20.3010  -32.8936 H   0  0  0  0  0  0  0  0  0  0  0  0
   -5.9320   19.2486  -34.0881 H   0  0  0  0  0  0  0  0  0  0  0  0
   -7.7245   19.3642  -34.0881 H   0  0  0  0  0  0  0  0  0  0  0  0
   -6.3353   18.2924  -30.3781 H   0  0  0  0  0  0  0  0  0  0  0  0
   -5.0610   17.6317  -31.4581 H   0  0  0  0  0  0  0  0  0  0  0  0
   -5.4139   19.3930  -31.4581 H   0  0  0  0  0  0  0  0  0  0  0  0
   -8.2536   18.1237  -30.7730 H   0  0  0  0  0  0  0  0  0  0  0  0
   -8.8947   18.9963  -32.2062 H   0  0  0  0  0  0  0  0  0  0  0  0
   -8.8213   17.2016  -32.2062 H   0  0  0  0  0  0  0  0  0  0  0  0
   -3.4462   14.6564  -33.3750 H   0  0  0  0  0  0  0  0  0  0  0  0
   -3.1019   15.1299  -35.1058 H   0  0  0  0  0  0  0  0  0  0  0  0
   -1.9340   16.3024  -32.5583 H   0  0  0  0  0  0  0  0  0  0  0  0
   -1.0944   15.4923  -33.9564 H   0  0  0  0  0  0  0  0  0  0  0  0
   -0.6576   17.8290  -34.1736 H   0  0  0  0  0  0  0  0  0  0  0  0
   -1.9160   17.4082  -35.4005 H   0  0  0  0  0  0  0  0  0  0  0  0
   -0.4437   18.0599  -32.2071 H   0  0  0  0  0  0  0  0  0  0  0  0
    0.2988   19.4212  -30.2262 H   0  0  0  0  0  0  0  0  0  0  0  0
   -0.3700   21.7285  -28.6706 H   0  0  0  0  0  0  0  0  0  0  0  0
   -2.4850   25.3160  -30.3090 H   0  0  0  0  0  0  0  0  0  0  0  0
   -5.3379   26.1278  -31.3882 H   0  0  0  0  0  0  0  0  0  0  0  0
   -6.2048   24.5596  -31.6181 H   0  0  0  0  0  0  0  0  0  0  0  0
   -5.6310   24.9640  -27.5050 H   0  0  0  0  0  0  0  0  0  0  0  0
   -4.2450   24.5960  -28.5930 H   0  0  0  0  0  0  0  0  0  0  0  0
   -3.7788   20.7968  -32.8387 H   0  0  0  0  0  0  0  0  0  0  0  0
   -4.6077   19.1396  -33.6070 H   0  0  0  0  0  0  0  0  0  0  0  0
   -3.7850   19.5487  -35.1639 H   0  0  0  0  0  0  0  0  0  0  0  0
   -5.5209   17.6851  -35.2978 H   0  0  0  0  0  0  0  0  0  0  0  0
   -3.8791   17.2745  -35.9143 H   0  0  0  0  0  0  0  0  0  0  0  0
  1  2  1  0
  2  3  1  0
  2  4  1  0
  2  5  1  0
  5  6  1  0
  6  7  2  0
  6  8  1  0
  8  9  1  0
  9 10  1  0
 10 11  1  0
 11 12  1  0
 12 13  1  0
 13 14  2  0
 14 15  1  0
 15 16  2  0
 16 17  1  0
 17 18  2  0
 18 19  1  0
 19 20  1  0
 19 21  2  0
 18 22  1  0
 22 23  1  0
 23 24  2  0
 23 25  1  0
 25 26  1  0
 26 27  1  0
 27 28  1  0
 27 29  2  0
 22 30  1  0
 30 31  2  0
 12 32  1  0
 32 33  1  0
 33  8  1  0
 31 13  1  0
 30 16  1  0
  1 34  1  0
  1 35  1  0
  1 36  1  0
  3 37  1  0
  3 38  1  0
  3 39  1  0
  4 40  1  0
  4 41  1  0
  4 42  1  0
  9 43  1  0
  9 44  1  0
 10 45  1  0
 10 46  1  0
 11 47  1  0
 11 48  1  0
 14 49  1  0
 15 50  1  0
 17 51  1  0
 20 52  1  0
 26 53  1  0
 26 54  1  0
 28 55  1  0
 28 56  1  0
 31 57  1  0
 32 58  1  0
 32 59  1  0
 33 60  1  0
 33 61  1  0
M  CHG  1  20  -1
M  END
>  <UniqueID>  (11) 
11

>  <SMILES>  (11) 
CC(C)(C)OC(=O)N1CCCN(c2ccc3cc(C([NH-])=O)n(C(=O)OCC(N)=O)c3c2)CC1

>  <Energy>  (11) 
96.72969963876976

>  <Genealogy>  (11) 
CC(C)(C)OC(=O)N1CCCN(c2ccc3cc(C([NH-])=O)n(C(=O)OCC(N)=O)c3c2)CC1 (protonated)
CC(C)(C)OC(=O)N1CCCN(c2ccc3cc(C([NH-])=O)n(C(=O)OCC(N)=O)c3c2)CC1 (3D coordinates assigned)
CC(C)(C)OC(=O)N1CCCN(c2ccc3cc(C([NH-])=O)n(C(=O)OCC(N)=O)c3c2)CC1 (nonaromatic ring conformer: 96.72969963876976 kcal/mol)

>  <smiles>  (11) 
CC(C)(C)OC(=O)N1CCCN(c2ccc3cc(C(N)=O)n(C(=O)OCC(N)=O)c3c2)CC1

>  <score_type>  (11) 
oracle

>  <origin>  (11) 
adg

>  <m_score__min__energy>  (11) 
-8.9000000000000004

>  <m_primary>  (11) 
energy

$$$$
11:0
     RDKit          3D

 38 39  0  0  0  0  0  0  0  0999 V2000
   -7.0420   18.4180  -32.6900 C   0  0  0  0  0  0  0  0  0  0  0  0
   -7.2160   19.8470  -32.2710 C   0  0  0  0  0  0  0  0  0  0  0  0
   -8.4960   20.4540  -32.3220 C   0  0  0  0  0  0  0  0  0  0  0  0
   -8.6660   21.7970  -31.9490 C   0  0  0  0  0  0  0  0  0  0  0  0
   -7.5400   22.5100  -31.5470 C   0  0  0  0  0  0  0  0  0  0  0  0
   -7.4240   23.8090  -31.1050 C   0  0  0  0  0  0  0  0  0  0  0  0
   -6.0700   23.9850  -30.8240 C   0  0  0  0  0  0  0  0  0  0  0  0
   -5.4860   25.2670  -30.3820 C   0  0  0  0  0  0  0  0  0  0  0  0
   -4.1990   25.6610  -30.8530 N   0  0  0  0  0  0  0  0  0  0  0  0
   -6.0970   26.0070  -29.5660 O   0  0  0  0  0  0  0  0  0  0  0  0
   -5.3780   22.8390  -31.0820 N   0  0  0  0  0  0  0  0  0  0  0  0
   -3.9860   22.5800  -30.8460 C   0  0  0  0  0  0  0  0  0  0  0  0
   -3.1140   23.3520  -31.3310 O   0  0  0  0  0  0  0  0  0  0  0  0
   -3.6050   21.4550  -30.1040 O   0  0  0  0  0  0  0  0  0  0  0  0
   -2.7840   21.5220  -28.9390 C   0  0  0  0  0  0  0  0  0  0  0  0
   -1.3930   22.0460  -29.2890 C   0  0  0  0  0  0  0  0  0  0  0  0
   -1.1390   23.2630  -28.5940 O   0  0  0  0  0  0  0  0  0  0  0  0
   -2.0850   24.2860  -28.4910 C   0  0  0  0  0  0  0  0  0  0  0  0
   -2.0300   25.2930  -29.2480 O   0  0  0  0  0  0  0  0  0  0  0  0
   -3.1510   24.2020  -27.4470 C   0  0  0  0  0  0  0  0  0  0  0  0
   -4.3840   24.5910  -27.9870 O   0  0  0  0  0  0  0  0  0  0  0  0
   -6.2910   21.9470  -31.5230 C   0  0  0  0  0  0  0  0  0  0  0  0
   -6.0950   20.6070  -31.8750 C   0  0  0  0  0  0  0  0  0  0  0  0
   -6.9644   17.7808  -31.7967 H   0  0  0  0  0  0  0  0  0  0  0  0
   -7.9085   18.1038  -33.2904 H   0  0  0  0  0  0  0  0  0  0  0  0
   -6.1254   18.3209  -33.2904 H   0  0  0  0  0  0  0  0  0  0  0  0
   -9.3642   19.8674  -32.6569 H   0  0  0  0  0  0  0  0  0  0  0  0
   -9.6583   22.2710  -31.9737 H   0  0  0  0  0  0  0  0  0  0  0  0
   -8.2291   24.5506  -30.9966 H   0  0  0  0  0  0  0  0  0  0  0  0
   -3.3290   25.2940  -30.4060 H   0  0  0  0  0  0  0  0  0  0  0  0
   -3.2506   22.1972  -28.2066 H   0  0  0  0  0  0  0  0  0  0  0  0
   -2.6854   20.5110  -28.5169 H   0  0  0  0  0  0  0  0  0  0  0  0
   -0.6394   21.2983  -29.0007 H   0  0  0  0  0  0  0  0  0  0  0  0
   -1.3405   22.2322  -30.3719 H   0  0  0  0  0  0  0  0  0  0  0  0
   -3.2234   23.1665  -27.0831 H   0  0  0  0  0  0  0  0  0  0  0  0
   -2.8940   24.8735  -26.6145 H   0  0  0  0  0  0  0  0  0  0  0  0
   -4.1870   25.2600  -28.6950 H   0  0  0  0  0  0  0  0  0  0  0  0
   -5.0917   20.1571  -31.8438 H   0  0  0  0  0  0  0  0  0  0  0  0
  1  2  1  0
  2  3  2  0
  3  4  1  0
  4  5  2  0
  5  6  1  0
  6  7  2  0
  7  8  1  0
  8  9  1  0
  8 10  2  0
  7 11  1  0
 11 12  1  0
 12 13  2  0
 12 14  1  0
 14 15  1  0
 15 16  1  0
 16 17  1  0
 17 18  1  0
 18 19  2  0
 18 20  1  0
 20 21  1  0
 11 22  1  0
 22 23  2  0
 23  2  1  0
 22  5  1  0
  1 24  1  0
  1 25  1  0
  1 26  1  0
  3 27  1  0
  4 28  1  0
  6 29  1  0
  9 30  1  0
 15 31  1  0
 15 32  1  0
 16 33  1  0
 16 34  1  0
 20 35  1  0
 20 36  1  0
 21 37  1  0
 23 38  1  0
M  CHG  1   9  -1
M  END
>  <UniqueID>  (12) 
12

>  <SMILES>  (12) 
Cc1ccc2cc(C([NH-])=O)n(C(=O)OCCOC(=O)CO)c2c1

>  <Energy>  (12) 
68.65248755550006

>  <Genealogy>  (12) 
Cc1ccc2cc(C([NH-])=O)n(C(=O)OCCOC(=O)CO)c2c1 (protonated)
Cc1ccc2cc(C([NH-])=O)n(C(=O)OCCOC(=O)CO)c2c1 (3D coordinates assigned)
Cc1ccc2cc(C([NH-])=O)n(C(=O)OCCOC(=O)CO)c2c1 (optimized conformer: 68.65248755550006 kcal/mol)

>  <smiles>  (12) 
Cc1ccc2cc(C(N)=O)n(C(=O)OCCOC(=O)CO)c2c1

>  <score_type>  (12) 
oracle

>  <origin>  (12) 
adg

>  <m_score__min__energy>  (12) 
-9.1899999999999995

>  <m_primary>  (12) 
energy

$$$$
12:0
     RDKit          3D

 39 40  0  0  0  0  0  0  0  0999 V2000
   -4.1730   25.6210  -30.8700 N   0  0  0  0  0  0  0  0  0  0  0  0
   -5.3970   25.1600  -30.3050 C   0  0  0  0  0  0  0  0  0  0  0  0
   -5.9640   25.8480  -29.4150 O   0  0  0  0  0  0  0  0  0  0  0  0
   -6.0390   23.9210  -30.7920 C   0  0  0  0  0  0  0  0  0  0  0  0
   -7.4090   23.8080  -31.0210 C   0  0  0  0  0  0  0  0  0  0  0  0
   -7.5890   22.5450  -31.5390 C   0  0  0  0  0  0  0  0  0  0  0  0
   -8.7570   21.8970  -31.9290 C   0  0  0  0  0  0  0  0  0  0  0  0
   -8.6530   20.5730  -32.3890 C   0  0  0  0  0  0  0  0  0  0  0  0
   -7.3940   19.9260  -32.4440 C   0  0  0  0  0  0  0  0  0  0  0  0
   -7.2860   18.5080  -32.9340 C   0  0  0  0  0  0  0  0  0  0  0  0
   -6.8300   17.6950  -31.9140 F   0  0  0  0  0  0  0  0  0  0  0  0
   -6.4040   18.4480  -33.9960 F   0  0  0  0  0  0  0  0  0  0  0  0
   -6.2300   20.6140  -32.0390 C   0  0  0  0  0  0  0  0  0  0  0  0
   -6.3610   21.9380  -31.6020 C   0  0  0  0  0  0  0  0  0  0  0  0
   -5.3980   22.7720  -31.1460 N   0  0  0  0  0  0  0  0  0  0  0  0
   -4.0080   22.4530  -30.9690 C   0  0  0  0  0  0  0  0  0  0  0  0
   -3.1230   23.2880  -31.3010 O   0  0  0  0  0  0  0  0  0  0  0  0
   -3.6420   21.2060  -30.4530 O   0  0  0  0  0  0  0  0  0  0  0  0
   -2.7190   21.0590  -29.3800 C   0  0  0  0  0  0  0  0  0  0  0  0
   -3.2490   21.6580  -28.2040 O   0  0  0  0  0  0  0  0  0  0  0  0
   -2.5720   22.6500  -27.4860 C   0  0  0  0  0  0  0  0  0  0  0  0
   -1.4550   22.4110  -26.9520 O   0  0  0  0  0  0  0  0  0  0  0  0
   -3.1620   24.0240  -27.3940 C   0  0  0  0  0  0  0  0  0  0  0  0
   -2.0920   25.0730  -27.0720 C   0  0  0  0  0  0  0  0  0  0  0  0
   -1.1680   25.2920  -28.2330 C   0  0  0  0  0  0  0  0  0  0  0  0
   -1.6230   25.6790  -29.3400 O   0  0  0  0  0  0  0  0  0  0  0  0
    0.2010   25.1080  -28.0750 O   0  0  0  0  0  0  0  0  0  0  0  0
   -3.2540   25.2850  -30.5060 H   0  0  0  0  0  0  0  0  0  0  0  0
   -8.1821   24.5665  -30.8288 H   0  0  0  0  0  0  0  0  0  0  0  0
   -9.7313   22.4051  -31.8789 H   0  0  0  0  0  0  0  0  0  0  0  0
   -9.5572   20.0345  -32.7091 H   0  0  0  0  0  0  0  0  0  0  0  0
   -8.2783   18.1638  -33.2609 H   0  0  0  0  0  0  0  0  0  0  0  0
   -5.2460   20.1231  -32.0659 H   0  0  0  0  0  0  0  0  0  0  0  0
   -2.5398   19.9894  -29.1962 H   0  0  0  0  0  0  0  0  0  0  0  0
   -1.7724   21.5529  -29.6446 H   0  0  0  0  0  0  0  0  0  0  0  0
   -3.6323   24.2764  -28.3558 H   0  0  0  0  0  0  0  0  0  0  0  0
   -3.9048   24.0276  -26.5827 H   0  0  0  0  0  0  0  0  0  0  0  0
   -2.5869   26.0238  -26.8251 H   0  0  0  0  0  0  0  0  0  0  0  0
   -1.4967   24.7082  -26.2219 H   0  0  0  0  0  0  0  0  0  0  0  0
  1  2  1  0
  2  3  2  0
  2  4  1  0
  4  5  2  0
  5  6  1  0
  6  7  2  0
  7  8  1  0
  8  9  2  0
  9 10  1  0
 10 11  1  0
 10 12  1  0
  9 13  1  0
 13 14  2  0
 14 15  1  0
 15 16  1  0
 16 17  2  0
 16 18  1  0
 18 19  1  0
 19 20  1  0
 20 21  1  0
 21 22  2  0
 21 23  1  0
 23 24  1  0
 24 25  1  0
 25 26  2  0
 25 27  1  0
 15  4  1  0
 14  6  1  0
  1 28  1  0
  5 29  1  0
  7 30  1  0
  8 31  1  0
 10 32  1  0
 13 33  1  0
 19 34  1  0
 19 35  1  0
 23 36  1  0
 23 37  1  0
 24 38  1  0
 24 39  1  0
M  CHG  2   1  -1  27  -1
M  END
>  <UniqueID>  (13) 
13

>  <SMILES>  (13) 
[NH-]C(=O)c1cc2ccc(C(F)F)cc2n1C(=O)OCOC(=O)CCC(=O)[O-]

>  <Energy>  (13) 
70.47238383811563

>  <Genealogy>  (13) 
[NH-]C(=O)c1cc2ccc(C(F)F)cc2n1C(=O)OCOC(=O)CCC(=O)[O-] (protonated)
[NH-]C(=O)c1cc2ccc(C(F)F)cc2n1C(=O)OCOC(=O)CCC(=O)[O-] (3D coordinates assigned)
[NH-]C(=O)c1cc2ccc(C(F)F)cc2n1C(=O)OCOC(=O)CCC(=O)[O-] (optimized conformer: 70.47238383811563 kcal/mol)

>  <smiles>  (13) 
NC(=O)c1cc2ccc(C(F)F)cc2n1C(=O)OCOC(=O)CCC(=O)O

>  <score_type>  (13) 
oracle

>  <origin>  (13) 
adg

>  <m_score__min__energy>  (13) 
-11.859999999999999

>  <m_primary>  (13) 
energy

$$$$
13:0
     RDKit          3D

 38 39  0  0  0  0  0  0  0  0999 V2000
   -7.2320   18.5020  -33.0460 C   0  0  0  0  0  0  0  0  0  0  0  0
   -7.3120   19.8950  -32.4960 C   0  0  0  0  0  0  0  0  0  0  0  0
   -8.5710   20.5270  -32.3420 C   0  0  0  0  0  0  0  0  0  0  0  0
   -8.6560   21.8420  -31.8530 C   0  0  0  0  0  0  0  0  0  0  0  0
   -7.4690   22.5030  -31.5500 C   0  0  0  0  0  0  0  0  0  0  0  0
   -7.2620   23.7660  -31.0410 C   0  0  0  0  0  0  0  0  0  0  0  0
   -5.8780   23.8970  -30.9290 C   0  0  0  0  0  0  0  0  0  0  0  0
   -5.2060   25.1280  -30.4630 C   0  0  0  0  0  0  0  0  0  0  0  0
   -3.8680   25.4280  -30.8520 N   0  0  0  0  0  0  0  0  0  0  0  0
   -5.8330   25.9420  -29.7330 O   0  0  0  0  0  0  0  0  0  0  0  0
   -5.2580   22.7600  -31.3530 N   0  0  0  0  0  0  0  0  0  0  0  0
   -3.8530   22.4660  -31.3310 C   0  0  0  0  0  0  0  0  0  0  0  0
   -3.2230   22.3540  -32.4170 O   0  0  0  0  0  0  0  0  0  0  0  0
   -3.1410   22.2990  -30.0570 C   0  0  0  0  0  0  0  0  0  0  0  0
   -3.4740   21.3730  -29.2690 O   0  0  0  0  0  0  0  0  0  0  0  0
   -2.0720   23.1930  -29.7180 N   0  0  0  0  0  0  0  0  0  0  0  0
   -1.7870   23.7280  -28.3810 C   0  0  2  0  0  0  0  0  0  0  0  0
   -3.1180   23.9560  -27.6310 C   0  0  0  0  0  0  0  0  0  0  0  0
   -1.0080   25.0230  -28.4900 C   0  0  0  0  0  0  0  0  0  0  0  0
   -1.5530   26.0540  -28.9690 O   0  0  0  0  0  0  0  0  0  0  0  0
    0.3370   25.0710  -28.1390 O   0  0  0  0  0  0  0  0  0  0  0  0
   -0.9320   22.6900  -27.6220 C   0  0  0  0  0  0  0  0  0  0  0  0
   -1.6700   21.5490  -27.3530 F   0  0  0  0  0  0  0  0  0  0  0  0
   -0.4910   23.2230  -26.4220 F   0  0  0  0  0  0  0  0  0  0  0  0
    0.1740   22.3360  -28.3750 F   0  0  0  0  0  0  0  0  0  0  0  0
   -6.2440   21.9160  -31.7240 C   0  0  0  0  0  0  0  0  0  0  0  0
   -6.1290   20.6020  -32.1910 C   0  0  0  0  0  0  0  0  0  0  0  0
   -7.1906   17.7817  -32.2156 H   0  0  0  0  0  0  0  0  0  0  0  0
   -8.1200   18.2998  -33.6629 H   0  0  0  0  0  0  0  0  0  0  0  0
   -6.3267   18.4028  -33.6629 H   0  0  0  0  0  0  0  0  0  0  0  0
   -9.4898   19.9836  -32.6075 H   0  0  0  0  0  0  0  0  0  0  0  0
   -9.6302   22.3335  -31.7141 H   0  0  0  0  0  0  0  0  0  0  0  0
   -8.0259   24.5127  -30.7786 H   0  0  0  0  0  0  0  0  0  0  0  0
   -3.0600   25.1620  -30.2460 H   0  0  0  0  0  0  0  0  0  0  0  0
   -2.9376   23.9251  -26.5463 H   0  0  0  0  0  0  0  0  0  0  0  0
   -3.5305   24.9379  -27.9063 H   0  0  0  0  0  0  0  0  0  0  0  0
   -3.8337   23.1674  -27.9063 H   0  0  0  0  0  0  0  0  0  0  0  0
   -5.1424   20.1322  -32.3172 H   0  0  0  0  0  0  0  0  0  0  0  0
  1  2  1  0
  2  3  2  0
  3  4  1  0
  4  5  2  0
  5  6  1  0
  6  7  2  0
  7  8  1  0
  8  9  1  0
  8 10  2  0
  7 11  1  0
 11 12  1  0
 12 13  2  0
 12 14  1  0
 14 15  2  0
 14 16  1  0
 17 16  1  6
 17 18  1  0
 17 19  1  0
 19 20  2  0
 19 21  1  0
 17 22  1  0
 22 23  1  0
 22 24  1  0
 22 25  1  0
 11 26  1  0
 26 27  2  0
 27  2  1  0
 26  5  1  0
  1 28  1  0
  1 29  1  0
  1 30  1  0
  3 31  1  0
  4 32  1  0
  6 33  1  0
  9 34  1  0
 18 35  1  0
 18 36  1  0
 18 37  1  0
 27 38  1  0
M  CHG  3   9  -1  16  -1  21  -1
M  END
>  <UniqueID>  (14) 
14

>  <SMILES>  (14) 
Cc1ccc2cc(C([NH-])=O)n(C(=O)C(=O)[N-][C@](C)(C(=O)[O-])C(F)(F)F)c2c1

>  <Energy>  (14) 
74.77821617759963

>  <Genealogy>  (14) 
Cc1ccc2cc(C([NH-])=O)n(C(=O)C(=O)[N-]C(C)(C(=O)[O-])C(F)(F)F)c2c1 (protonated)
Cc1ccc2cc(C([NH-])=O)n(C(=O)C(=O)[N-][C@](C)(C(=O)[O-])C(F)(F)F)c2c1 (chirality)
Cc1ccc2cc(C([NH-])=O)n(C(=O)C(=O)[N-][C@](C)(C(=O)[O-])C(F)(F)F)c2c1 (3D coordinates assigned)
Cc1ccc2cc(C([NH-])=O)n(C(=O)C(=O)[N-][C@](C)(C(=O)[O-])C(F)(F)F)c2c1 (optimized conformer: 74.77821617759963 kcal/mol)

>  <smiles>  (14) 
Cc1ccc2cc(C(N)=O)n(C(=O)C(=O)NC(C)(C(=O)O)C(F)(F)F)c2c1

>  <score_type>  (14) 
oracle

>  <origin>  (14) 
adg

>  <m_score__min__energy>  (14) 
-13.210000000000001

>  <m_primary>  (14) 
energy

$$$$
14:0
     RDKit          3D

 31 32  0  0  0  0  0  0  0  0999 V2000
   -3.9320   25.6710  -30.8370 N   0  0  0  0  0  0  0  0  0  0  0  0
   -5.2700   25.3220  -30.4920 C   0  0  0  0  0  0  0  0  0  0  0  0
   -5.9420   26.0980  -29.7620 O   0  0  0  0  0  0  0  0  0  0  0  0
   -5.8560   24.0400  -30.9330 C   0  0  0  0  0  0  0  0  0  0  0  0
   -7.1970   23.8840  -31.2780 C   0  0  0  0  0  0  0  0  0  0  0  0
   -7.3490   22.5430  -31.5470 C   0  0  0  0  0  0  0  0  0  0  0  0
   -8.4740   21.8310  -31.9520 C   0  0  0  0  0  0  0  0  0  0  0  0
   -8.3320   20.4540  -32.1920 C   0  0  0  0  0  0  0  0  0  0  0  0
   -7.0700   19.8190  -32.0510 C   0  0  0  0  0  0  0  0  0  0  0  0
   -6.9380   18.3350  -32.2770 C   0  0  0  0  0  0  0  0  0  0  0  0
   -6.4000   18.0760  -33.5260 F   0  0  0  0  0  0  0  0  0  0  0  0
   -8.1880   17.7490  -32.1950 F   0  0  0  0  0  0  0  0  0  0  0  0
   -6.1100   17.7670  -31.3250 F   0  0  0  0  0  0  0  0  0  0  0  0
   -5.9570   20.5740  -31.6140 C   0  0  0  0  0  0  0  0  0  0  0  0
   -6.1340   21.9390  -31.3660 C   0  0  0  0  0  0  0  0  0  0  0  0
   -5.2060   22.8440  -30.9910 N   0  0  0  0  0  0  0  0  0  0  0  0
   -3.8010   22.5960  -30.8480 C   0  0  0  0  0  0  0  0  0  0  0  0
   -2.9950   23.0010  -31.7290 O   0  0  0  0  0  0  0  0  0  0  0  0
   -3.1650   21.7820  -29.3790 S   0  0  0  0  0  0  0  0  0  0  0  0
   -1.4400   22.3160  -29.6540 C   0  0  0  0  0  0  0  0  0  0  0  0
   -1.0860   23.4080  -28.7580 N   0  0  0  0  0  0  0  0  0  0  0  0
   -1.8790   24.5890  -28.6420 C   0  0  0  0  0  0  0  0  0  0  0  0
   -1.5790   25.6110  -29.3100 O   0  0  0  0  0  0  0  0  0  0  0  0
   -3.1500   24.9940  -30.7070 H   0  0  0  0  0  0  0  0  0  0  0  0
   -7.9693   24.6659  -31.3252 H   0  0  0  0  0  0  0  0  0  0  0  0
   -9.4452   22.3313  -32.0804 H   0  0  0  0  0  0  0  0  0  0  0  0
   -9.2085   19.8612  -32.4925 H   0  0  0  0  0  0  0  0  0  0  0  0
   -4.9751   20.0989  -31.4725 H   0  0  0  0  0  0  0  0  0  0  0  0
   -0.7661   21.4662  -29.4702 H   0  0  0  0  0  0  0  0  0  0  0  0
   -1.3414   22.6665  -30.6920 H   0  0  0  0  0  0  0  0  0  0  0  0
   -2.7499   24.6050  -27.9703 H   0  0  0  0  0  0  0  0  0  0  0  0
  1  2  1  0
  2  3  2  0
  2  4  1  0
  4  5  2  0
  5  6  1  0
  6  7  2  0
  7  8  1  0
  8  9  2  0
  9 10  1  0
 10 11  1  0
 10 12  1  0
 10 13  1  0
  9 14  1  0
 14 15  2  0
 15 16  1  0
 16 17  1  0
 17 18  2  0
 17 19  1  0
 19 20  1  0
 20 21  1  0
 21 22  1  0
 22 23  2  0
 16  4  1  0
 15  6  1  0
  1 24  1  0
  5 25  1  0
  7 26  1  0
  8 27  1  0
 14 28  1  0
 20 29  1  0
 20 30  1  0
 22 31  1  0
M  CHG  2   1  -1  21  -1
M  END
>  <UniqueID>  (15) 
15

>  <SMILES>  (15) 
[NH-]C(=O)c1cc2ccc(C(F)(F)F)cc2n1C(=O)SC[N-]C=O

>  <Energy>  (15) 
64.47556482187419

>  <Genealogy>  (15) 
[NH-]C(=O)c1cc2ccc(C(F)(F)F)cc2n1C(=O)SC[N-]C=O (protonated)
[NH-]C(=O)c1cc2ccc(C(F)(F)F)cc2n1C(=O)SC[N-]C=O (3D coordinates assigned)
[NH-]C(=O)c1cc2ccc(C(F)(F)F)cc2n1C(=O)SC[N-]C=O (optimized conformer: 64.47556482187419 kcal/mol)

>  <smiles>  (15) 
NC(=O)c1cc2ccc(C(F)(F)F)cc2n1C(=O)SCNC=O

>  <score_type>  (15) 
oracle

>  <origin>  (15) 
adg

>  <m_score__min__energy>  (15) 
-11.1

>  <m_primary>  (15) 
energy

$$$$
15:0
     RDKit          3D

 38 39  0  0  0  0  0  0  0  0999 V2000
   -3.8950   25.6780  -30.8410 N   0  0  0  0  0  0  0  0  0  0  0  0
   -5.2240   25.3060  -30.4860 C   0  0  0  0  0  0  0  0  0  0  0  0
   -5.9340   26.1080  -29.8230 O   0  0  0  0  0  0  0  0  0  0  0  0
   -5.7400   23.9730  -30.8620 C   0  0  0  0  0  0  0  0  0  0  0  0
   -7.0570   23.7380  -31.2490 C   0  0  0  0  0  0  0  0  0  0  0  0
   -7.1060   22.4050  -31.5850 C   0  0  0  0  0  0  0  0  0  0  0  0
   -8.1760   21.6300  -32.0210 C   0  0  0  0  0  0  0  0  0  0  0  0
   -7.9490   20.2650  -32.2610 C   0  0  0  0  0  0  0  0  0  0  0  0
   -6.6620   19.6950  -32.0560 C   0  0  0  0  0  0  0  0  0  0  0  0
   -6.4070   18.2950  -32.2830 N   0  0  0  0  0  0  0  0  0  0  0  0
   -7.2100   17.4380  -33.1560 C   0  0  0  0  0  0  0  0  0  0  0  0
   -6.4770   16.1690  -33.4580 C   0  0  0  0  0  0  0  0  0  0  0  0
   -5.3630   15.9370  -32.9190 O   0  0  0  0  0  0  0  0  0  0  0  0
   -7.0080   15.2550  -34.3590 O   0  0  0  0  0  0  0  0  0  0  0  0
   -5.6040   20.5190  -31.6110 C   0  0  0  0  0  0  0  0  0  0  0  0
   -5.8560   21.8790  -31.3980 C   0  0  0  0  0  0  0  0  0  0  0  0
   -5.0040   22.8290  -30.9530 N   0  0  0  0  0  0  0  0  0  0  0  0
   -3.6360   22.6320  -30.5670 C   0  0  0  0  0  0  0  0  0  0  0  0
   -2.7070   22.9870  -31.3420 O   0  0  0  0  0  0  0  0  0  0  0  0
   -3.3420   22.0160  -29.3450 O   0  0  0  0  0  0  0  0  0  0  0  0
   -4.0400   22.3010  -28.1340 C   0  0  0  0  0  0  0  0  0  0  0  0
   -3.5100   23.5780  -27.4790 C   0  0  0  0  0  0  0  0  0  0  0  0
   -2.9880   24.4740  -28.4610 O   0  0  0  0  0  0  0  0  0  0  0  0
   -1.6250   24.7440  -28.6170 C   0  0  0  0  0  0  0  0  0  0  0  0
   -1.2240   25.6960  -29.3390 O   0  0  0  0  0  0  0  0  0  0  0  0
   -3.0750   25.1180  -30.5150 H   0  0  0  0  0  0  0  0  0  0  0  0
   -7.8827   24.4641  -31.2795 H   0  0  0  0  0  0  0  0  0  0  0  0
   -9.1710   22.0736  -32.1733 H   0  0  0  0  0  0  0  0  0  0  0  0
   -8.7757   19.6296  -32.6114 H   0  0  0  0  0  0  0  0  0  0  0  0
   -5.5960   17.8510  -31.7950 H   0  0  0  0  0  0  0  0  0  0  0  0
   -8.1593   17.1979  -32.6548 H   0  0  0  0  0  0  0  0  0  0  0  0
   -7.4047   17.9708  -34.0984 H   0  0  0  0  0  0  0  0  0  0  0  0
   -4.6022   20.0999  -31.4355 H   0  0  0  0  0  0  0  0  0  0  0  0
   -5.1094   22.4293  -28.3576 H   0  0  0  0  0  0  0  0  0  0  0  0
   -3.8879   21.4629  -27.4380 H   0  0  0  0  0  0  0  0  0  0  0  0
   -4.3304   24.0733  -26.9390 H   0  0  0  0  0  0  0  0  0  0  0  0
   -2.7015   23.3077  -26.7839 H   0  0  0  0  0  0  0  0  0  0  0  0
   -0.8878   24.1128  -28.0991 H   0  0  0  0  0  0  0  0  0  0  0  0
  1  2  1  0
  2  3  2  0
  2  4  1  0
  4  5  2  0
  5  6  1  0
  6  7  2  0
  7  8  1  0
  8  9  2  0
  9 10  1  0
 10 11  1  0
 11 12  1  0
 12 13  2  0
 12 14  1  0
  9 15  1  0
 15 16  2  0
 16 17  1  0
 17 18  1  0
 18 19  2  0
 18 20  1  0
 20 21  1  0
 21 22  1  0
 22 23  1  0
 23 24  1  0
 24 25  2  0
 17  4  1  0
 16  6  1  0
  1 26  1  0
  5 27  1  0
  7 28  1  0
  8 29  1  0
 10 30  1  0
 11 31  1  0
 11 32  1  0
 15 33  1  0
 21 34  1  0
 21 35  1  0
 22 36  1  0
 22 37  1  0
 24 38  1  0
M  CHG  2   1  -1  14  -1
M  END
>  <UniqueID>  (16) 
16

>  <SMILES>  (16) 
[NH-]C(=O)c1cc2ccc(NCC(=O)[O-])cc2n1C(=O)OCCOC=O

>  <Energy>  (16) 
71.50415769894602

>  <Genealogy>  (16) 
[NH-]C(=O)c1cc2ccc(NCC(=O)[O-])cc2n1C(=O)OCCOC=O (protonated)
[NH-]C(=O)c1cc2ccc(NCC(=O)[O-])cc2n1C(=O)OCCOC=O (3D coordinates assigned)
[NH-]C(=O)c1cc2ccc(NCC(=O)[O-])cc2n1C(=O)OCCOC=O (optimized conformer: 71.50415769894602 kcal/mol)

>  <smiles>  (16) 
NC(=O)c1cc2ccc(NCC(=O)O)cc2n1C(=O)OCCOC=O

>  <score_type>  (16) 
oracle

>  <origin>  (16) 
adg

>  <m_score__min__energy>  (16) 
-9.1600000000000001

>  <m_primary>  (16) 
energy

$$$$
16:0
     RDKit          3D

 38 39  0  0  0  0  0  0  0  0999 V2000
   -4.1910   18.0330  -32.9230 C   0  0  0  0  0  0  0  0  0  0  0  0
   -5.6010   18.2720  -32.5860 N   0  0  0  0  0  0  0  0  0  0  0  0
   -6.5290   17.1320  -32.6200 C   0  0  0  0  0  0  0  0  0  0  0  0
   -6.5960   16.5460  -33.9970 C   0  0  0  0  0  0  0  0  0  0  0  0
   -6.1210   17.1770  -34.9780 O   0  0  0  0  0  0  0  0  0  0  0  0
   -7.2120   15.3190  -34.2040 O   0  0  0  0  0  0  0  0  0  0  0  0
   -6.0570   19.6100  -32.2520 C   0  0  0  0  0  0  0  0  0  0  0  0
   -7.4120   19.9890  -32.4730 C   0  0  0  0  0  0  0  0  0  0  0  0
   -7.8690   21.2770  -32.1470 C   0  0  0  0  0  0  0  0  0  0  0  0
   -6.9570   22.1760  -31.6090 C   0  0  0  0  0  0  0  0  0  0  0  0
   -7.1380   23.4740  -31.1890 C   0  0  0  0  0  0  0  0  0  0  0  0
   -5.8880   23.8930  -30.7360 C   0  0  0  0  0  0  0  0  0  0  0  0
   -5.6090   25.2690  -30.2770 C   0  0  0  0  0  0  0  0  0  0  0  0
   -4.3620   25.8840  -30.5930 N   0  0  0  0  0  0  0  0  0  0  0  0
   -6.4450   25.8960  -29.5750 O   0  0  0  0  0  0  0  0  0  0  0  0
   -4.9730   22.8900  -30.8630 N   0  0  0  0  0  0  0  0  0  0  0  0
   -3.5960   22.9020  -30.4520 C   0  0  0  0  0  0  0  0  0  0  0  0
   -2.7120   23.3560  -31.2290 O   0  0  0  0  0  0  0  0  0  0  0  0
   -3.2400   22.3960  -29.1990 O   0  0  0  0  0  0  0  0  0  0  0  0
   -2.7820   23.2240  -28.1380 C   0  0  0  0  0  0  0  0  0  0  0  0
   -1.6580   24.0750  -28.6290 C   0  0  0  0  0  0  0  0  0  0  0  0
   -1.9380   25.2890  -29.3180 N   0  0  0  0  0  0  0  0  0  0  0  0
   -0.4650   23.7400  -28.4010 O   0  0  0  0  0  0  0  0  0  0  0  0
   -5.6440   21.8460  -31.4010 C   0  0  0  0  0  0  0  0  0  0  0  0
   -5.1660   20.5640  -31.6960 C   0  0  0  0  0  0  0  0  0  0  0  0
   -3.6046   17.9336  -31.9977 H   0  0  0  0  0  0  0  0  0  0  0  0
   -4.1065   17.1077  -33.5118 H   0  0  0  0  0  0  0  0  0  0  0  0
   -3.8063   18.8787  -33.5118 H   0  0  0  0  0  0  0  0  0  0  0  0
   -6.1809   16.3617  -31.9161 H   0  0  0  0  0  0  0  0  0  0  0  0
   -7.5318   17.4832  -32.3354 H   0  0  0  0  0  0  0  0  0  0  0  0
   -8.1130   19.2606  -32.9065 H   0  0  0  0  0  0  0  0  0  0  0  0
   -8.9176   21.5648  -32.3129 H   0  0  0  0  0  0  0  0  0  0  0  0
   -8.0707   24.0569  -31.2069 H   0  0  0  0  0  0  0  0  0  0  0  0
   -3.5240   25.3080  -30.8290 H   0  0  0  0  0  0  0  0  0  0  0  0
   -3.6050   23.8660  -27.7909 H   0  0  0  0  0  0  0  0  0  0  0  0
   -2.4336   22.5969  -27.3041 H   0  0  0  0  0  0  0  0  0  0  0  0
   -2.3670   25.2790  -30.2700 H   0  0  0  0  0  0  0  0  0  0  0  0
   -4.1162   20.3003  -31.4999 H   0  0  0  0  0  0  0  0  0  0  0  0
  1  2  1  0
  2  3  1  0
  3  4  1  0
  4  5  2  0
  4  6  1  0
  2  7  1  0
  7  8  2  0
  8  9  1  0
  9 10  2  0
 10 11  1  0
 11 12  2  0
 12 13  1  0
 13 14  1  0
 13 15  2  0
 12 16  1  0
 16 17  1  0
 17 18  2  0
 17 19  1  0
 19 20  1  0
 20 21  1  0
 21 22  1  0
 21 23  2  0
 16 24  1  0
 24 25  2  0
 25  7  1  0
 24 10  1  0
  1 26  1  0
  1 27  1  0
  1 28  1  0
  3 29  1  0
  3 30  1  0
  8 31  1  0
  9 32  1  0
 11 33  1  0
 14 34  1  0
 20 35  1  0
 20 36  1  0
 22 37  1  0
 25 38  1  0
M  CHG  3   6  -1  14  -1  22  -1
M  END
>  <UniqueID>  (17) 
17

>  <SMILES>  (17) 
CN(CC(=O)[O-])c1ccc2cc(C([NH-])=O)n(C(=O)OCC([NH-])=O)c2c1

>  <Energy>  (17) 
74.31098890393704

>  <Genealogy>  (17) 
CN(CC(=O)[O-])c1ccc2cc(C([NH-])=O)n(C(=O)OCC([NH-])=O)c2c1 (protonated)
CN(CC(=O)[O-])c1ccc2cc(C([NH-])=O)n(C(=O)OCC([NH-])=O)c2c1 (3D coordinates assigned)
CN(CC(=O)[O-])c1ccc2cc(C([NH-])=O)n(C(=O)OCC([NH-])=O)c2c1 (optimized conformer: 74.31098890393704 kcal/mol)

>  <smiles>  (17) 
CN(CC(=O)O)c1ccc2cc(C(N)=O)n(C(=O)OCC(N)=O)c2c1

>  <score_type>  (17) 
oracle

>  <origin>  (17) 
adg

>  <m_score__min__energy>  (17) 
-12.460000000000001

>  <m_primary>  (17) 
energy

$$$$
17:0
     RDKit          3D

 38 39  0  0  0  0  0  0  0  0999 V2000
   -4.6420   26.0510  -30.4780 N   0  0  0  0  0  0  0  0  0  0  0  0
   -5.8680   25.3600  -30.2510 C   0  0  0  0  0  0  0  0  0  0  0  0
   -6.7970   25.9390  -29.6310 O   0  0  0  0  0  0  0  0  0  0  0  0
   -6.0470   23.9880  -30.7690 C   0  0  0  0  0  0  0  0  0  0  0  0
   -7.2690   23.4720  -31.1990 C   0  0  0  0  0  0  0  0  0  0  0  0
   -7.0150   22.1580  -31.5250 C   0  0  0  0  0  0  0  0  0  0  0  0
   -7.8670   21.1720  -32.0100 C   0  0  0  0  0  0  0  0  0  0  0  0
   -7.3260   19.9020  -32.2690 C   0  0  0  0  0  0  0  0  0  0  0  0
   -5.9450   19.6390  -32.0480 C   0  0  0  0  0  0  0  0  0  0  0  0
   -5.3640   18.3450  -32.3080 N   0  0  0  0  0  0  0  0  0  0  0  0
   -6.1110   17.0880  -32.3480 C   0  0  0  0  0  0  0  0  0  0  0  0
   -6.3530   16.6500  -33.7990 C   0  0  0  0  0  0  0  0  0  0  0  0
   -5.7590   17.6370  -34.8110 C   0  0  0  0  0  0  0  0  0  0  0  0
   -4.2790   17.4600  -34.9570 C   0  0  0  0  0  0  0  0  0  0  0  0
   -3.8180   16.4870  -35.6100 O   0  0  0  0  0  0  0  0  0  0  0  0
   -3.4090   18.3880  -34.4000 O   0  0  0  0  0  0  0  0  0  0  0  0
   -5.1180   20.6690  -31.5500 C   0  0  0  0  0  0  0  0  0  0  0  0
   -5.6870   21.9190  -31.2930 C   0  0  0  0  0  0  0  0  0  0  0  0
   -5.0790   23.0320  -30.8350 N   0  0  0  0  0  0  0  0  0  0  0  0
   -3.6840   23.1630  -30.5340 C   0  0  0  0  0  0  0  0  0  0  0  0
   -2.8240   22.7760  -31.3680 O   0  0  0  0  0  0  0  0  0  0  0  0
   -3.1510   23.9680  -29.0260 P   0  0  1  0  0  0  0  0  0  0  0  0
   -2.3620   22.9880  -28.1880 O   0  0  0  0  0  0  0  0  0  0  0  0
   -2.1700   25.2950  -29.3990 O   0  0  0  0  0  0  0  0  0  0  0  0
   -4.5000   24.4990  -28.1520 O   0  0  0  0  0  0  0  0  0  0  0  0
   -3.8830   26.0460  -29.7610 H   0  0  0  0  0  0  0  0  0  0  0  0
   -8.2310   24.0015  -31.2640 H   0  0  0  0  0  0  0  0  0  0  0  0
   -8.9327   21.3804  -32.1856 H   0  0  0  0  0  0  0  0  0  0  0  0
   -7.9778   19.1008  -32.6473 H   0  0  0  0  0  0  0  0  0  0  0  0
   -4.3330   18.2890  -32.4680 H   0  0  0  0  0  0  0  0  0  0  0  0
   -5.5360   16.3089  -31.8262 H   0  0  0  0  0  0  0  0  0  0  0  0
   -7.0832   17.2371  -31.8555 H   0  0  0  0  0  0  0  0  0  0  0  0
   -5.8902   15.6640  -33.9528 H   0  0  0  0  0  0  0  0  0  0  0  0
   -7.4401   16.6132  -33.9628 H   0  0  0  0  0  0  0  0  0  0  0  0
   -6.2354   17.4741  -35.7890 H   0  0  0  0  0  0  0  0  0  0  0  0
   -5.9471   18.6571  -34.4448 H   0  0  0  0  0  0  0  0  0  0  0  0
   -4.0478   20.4912  -31.3680 H   0  0  0  0  0  0  0  0  0  0  0  0
   -4.7210   25.3830  -28.5390 H   0  0  0  0  0  0  0  0  0  0  0  0
  1  2  1  0
  2  3  2  0
  2  4  1  0
  4  5  2  0
  5  6  1  0
  6  7  2  0
  7  8  1  0
  8  9  2  0
  9 10  1  0
 10 11  1  0
 11 12  1  0
 12 13  1  0
 13 14  1  0
 14 15  2  0
 14 16  1  0
  9 17  1  0
 17 18  2  0
 18 19  1  0
 19 20  1  0
 20 21  2  0
 20 22  1  0
 22 23  2  0
 22 24  1  6
 22 25  1  0
 19  4  1  0
 18  6  1  0
  1 26  1  0
  5 27  1  0
  7 28  1  0
  8 29  1  0
 10 30  1  0
 11 31  1  0
 11 32  1  0
 12 33  1  0
 12 34  1  0
 13 35  1  0
 13 36  1  0
 17 37  1  0
 25 38  1  0
M  CHG  3   1  -1  16  -1  24  -1
M  END
>  <UniqueID>  (18) 
18

>  <SMILES>  (18) 
[NH-]C(=O)c1cc2ccc(NCCCC(=O)[O-])cc2n1C(=O)[P@@](=O)([O-])O

>  <Energy>  (18) 
70.10428597624424

>  <Genealogy>  (18) 
[NH-]C(=O)c1cc2ccc(NCCCC(=O)[O-])cc2n1C(=O)P(=O)([O-])O (protonated)
[NH-]C(=O)c1cc2ccc(NCCCC(=O)[O-])cc2n1C(=O)[P@@](=O)([O-])O (chirality)
[NH-]C(=O)c1cc2ccc(NCCCC(=O)[O-])cc2n1C(=O)[P@@](=O)([O-])O (3D coordinates assigned)
[NH-]C(=O)c1cc2ccc(NCCCC(=O)[O-])cc2n1C(=O)[P@@](=O)([O-])O (optimized conformer: 70.10428597624424 kcal/mol)

>  <smiles>  (18) 
NC(=O)c1cc2ccc(NCCCC(=O)O)cc2n1C(=O)P(=O)(O)O

>  <score_type>  (18) 
oracle

>  <origin>  (18) 
adg

>  <m_score__min__energy>  (18) 
-11.109999999999999

>  <m_primary>  (18) 
energy

$$$$
18:0
     RDKit          3D

 41 43  0  0  0  0  0  0  0  0999 V2000
   -4.0160   25.6670  -30.8690 N   0  0  0  0  0  0  0  0  0  0  0  0
   -5.3020   25.2210  -30.4440 C   0  0  0  0  0  0  0  0  0  0  0  0
   -5.9620   25.9330  -29.6410 O   0  0  0  0  0  0  0  0  0  0  0  0
   -5.8600   23.9320  -30.9090 C   0  0  0  0  0  0  0  0  0  0  0  0
   -7.2280   23.6980  -31.0530 C   0  0  0  0  0  0  0  0  0  0  0  0
   -7.3340   22.3960  -31.4810 C   0  0  0  0  0  0  0  0  0  0  0  0
   -8.4630   21.6500  -31.8100 C   0  0  0  0  0  0  0  0  0  0  0  0
   -8.2730   20.3360  -32.2720 C   0  0  0  0  0  0  0  0  0  0  0  0
   -6.9690   19.8070  -32.4060 C   0  0  0  0  0  0  0  0  0  0  0  0
   -6.7860   18.4680  -32.9000 C   0  0  0  0  0  0  0  0  0  0  0  0
   -6.6360   17.3460  -33.3150 C   0  0  0  0  0  0  0  0  0  0  0  0
   -6.4510   16.0090  -33.8060 C   0  0  0  0  0  0  0  0  0  0  0  0
   -7.4310   15.4310  -34.6040 O   0  0  0  0  0  0  0  0  0  0  0  0
   -5.3510   15.3260  -33.5030 C   0  0  0  0  0  0  0  0  0  0  0  0
   -4.1360   15.5600  -32.7300 C   0  0  0  0  0  0  0  0  0  0  0  0
   -3.6820   14.3630  -33.0090 N   0  0  0  0  0  0  0  0  0  0  0  0
   -4.8310   14.0320  -33.7890 C   0  0  0  0  0  0  0  0  0  0  0  0
   -5.2130   13.0280  -34.4440 O   0  0  0  0  0  0  0  0  0  0  0  0
   -5.8460   20.5880  -32.0670 C   0  0  0  0  0  0  0  0  0  0  0  0
   -6.0670   21.8830  -31.5820 C   0  0  0  0  0  0  0  0  0  0  0  0
   -5.1510   22.8100  -31.2230 N   0  0  0  0  0  0  0  0  0  0  0  0
   -3.7240   22.6470  -31.2380 C   0  0  0  0  0  0  0  0  0  0  0  0
   -3.1100   22.6400  -32.3390 O   0  0  0  0  0  0  0  0  0  0  0  0
   -2.9450   22.4980  -29.9600 C   0  0  0  0  0  0  0  0  0  0  0  0
   -3.6380   23.2070  -28.7770 C   0  0  0  0  0  0  0  0  0  0  0  0
   -2.6790   24.0650  -27.9390 C   0  0  0  0  0  0  0  0  0  0  0  0
   -1.5150   24.5620  -28.7360 C   0  0  0  0  0  0  0  0  0  0  0  0
   -1.5820   25.6680  -29.3330 O   0  0  0  0  0  0  0  0  0  0  0  0
   -0.3500   23.8100  -28.8110 O   0  0  0  0  0  0  0  0  0  0  0  0
   -3.1450   25.2790  -30.4420 H   0  0  0  0  0  0  0  0  0  0  0  0
   -8.0484   24.4059  -30.8639 H   0  0  0  0  0  0  0  0  0  0  0  0
   -9.4724   22.0759  -31.7114 H   0  0  0  0  0  0  0  0  0  0  0  0
   -9.1440   19.7159  -32.5307 H   0  0  0  0  0  0  0  0  0  0  0  0
   -3.7521   16.4078  -32.1436 H   0  0  0  0  0  0  0  0  0  0  0  0
   -4.8260   20.1921  -32.1800 H   0  0  0  0  0  0  0  0  0  0  0  0
   -2.8479   21.4277  -29.7255 H   0  0  0  0  0  0  0  0  0  0  0  0
   -1.9590   22.9633  -30.1058 H   0  0  0  0  0  0  0  0  0  0  0  0
   -4.4311   23.8570  -29.1752 H   0  0  0  0  0  0  0  0  0  0  0  0
   -4.0379   22.4240  -28.1160 H   0  0  0  0  0  0  0  0  0  0  0  0
   -3.2321   24.9300  -27.5442 H   0  0  0  0  0  0  0  0  0  0  0  0
   -2.2857   23.4342  -27.1282 H   0  0  0  0  0  0  0  0  0  0  0  0
  1  2  1  0
  2  3  2  0
  2  4  1  0
  4  5  2  0
  5  6  1  0
  6  7  2  0
  7  8  1  0
  8  9  2  0
  9 10  1  0
 10 11  3  0
 11 12  1  0
 12 13  1  0
 12 14  2  3
 14 15  1  0
 15 16  2  0
 16 17  1  0
 17 18  2  0
  9 19  1  0
 19 20  2  0
 20 21  1  0
 21 22  1  0
 22 23  2  0
 22 24  1  0
 24 25  1  0
 25 26  1  0
 26 27  1  0
 27 28  2  0
 27 29  1  0
 21  4  1  0
 20  6  1  0
 17 14  1  0
  1 30  1  0
  5 31  1  0
  7 32  1  0
  8 33  1  0
 15 34  1  0
 19 35  1  0
 24 36  1  0
 24 37  1  0
 25 38  1  0
 25 39  1  0
 26 40  1  0
 26 41  1  0
M  CHG  3   1  -1  13  -1  29  -1
M  END
>  <UniqueID>  (19) 
19

>  <SMILES>  (19) 
[NH-]C(=O)c1cc2ccc(C#CC([O-])=C3C=NC3=O)cc2n1C(=O)CCCC(=O)[O-]

>  <Energy>  (19) 
70.31058118908527

>  <Genealogy>  (19) 
[NH-]C(=O)c1cc2ccc(C#CC([O-])=C3C=NC3=O)cc2n1C(=O)CCCC(=O)[O-] (protonated)
[NH-]C(=O)c1cc2ccc(C#CC([O-])=C3C=NC3=O)cc2n1C(=O)CCCC(=O)[O-] (3D coordinates assigned)
[NH-]C(=O)c1cc2ccc(C#CC([O-])=C3C=NC3=O)cc2n1C(=O)CCCC(=O)[O-] (nonaromatic ring conformer: 70.31058118908527 kcal/mol)

>  <smiles>  (19) 
NC(=O)c1cc2ccc(C#CC(O)=C3C=NC3=O)cc2n1C(=O)CCCC(=O)O

>  <score_type>  (19) 
oracle

>  <origin>  (19) 
adg

>  <m_score__min__energy>  (19) 
-13.91

>  <m_primary>  (19) 
energy

$$$$
19:0
     RDKit          3D

 42 43  0  0  0  0  0  0  0  0999 V2000
   -7.0090   18.4080  -33.1260 C   0  0  0  0  0  0  0  0  0  0  0  0
   -7.2040   19.8120  -32.6360 C   0  0  0  0  0  0  0  0  0  0  0  0
   -8.5120   20.3360  -32.4870 C   0  0  0  0  0  0  0  0  0  0  0  0
   -8.7090   21.6410  -32.0070 C   0  0  0  0  0  0  0  0  0  0  0  0
   -7.5850   22.3870  -31.6630 C   0  0  0  0  0  0  0  0  0  0  0  0
   -7.4890   23.6800  -31.2020 C   0  0  0  0  0  0  0  0  0  0  0  0
   -6.1260   23.9080  -31.0330 C   0  0  0  0  0  0  0  0  0  0  0  0
   -5.5740   25.1640  -30.4850 C   0  0  0  0  0  0  0  0  0  0  0  0
   -4.2250   25.5530  -30.7450 N   0  0  0  0  0  0  0  0  0  0  0  0
   -6.2870   25.8780  -29.7320 O   0  0  0  0  0  0  0  0  0  0  0  0
   -5.4040   22.8090  -31.3890 N   0  0  0  0  0  0  0  0  0  0  0  0
   -3.9750   22.6920  -31.4710 C   0  0  0  0  0  0  0  0  0  0  0  0
   -3.4310   22.3460  -32.5550 O   0  0  0  0  0  0  0  0  0  0  0  0
   -3.1680   22.9890  -30.3250 N   0  0  0  0  0  0  0  0  0  0  0  0
   -3.6550   22.9140  -28.9530 C   0  0  0  0  0  0  0  0  0  0  0  0
   -2.5470   23.3180  -27.9710 C   0  0  0  0  0  0  0  0  0  0  0  0
   -1.9980   24.7020  -28.2330 C   0  0  0  0  0  0  0  0  0  0  0  0
   -2.2600   25.2800  -29.3240 O   0  0  0  0  0  0  0  0  0  0  0  0
   -1.1560   25.3630  -27.2630 N   0  0  0  0  0  0  0  0  0  0  0  0
   -0.6480   26.7080  -27.5560 C   0  0  0  0  0  0  0  0  0  0  0  0
   -0.8020   24.7020  -26.0020 C   0  0  0  0  0  0  0  0  0  0  0  0
   -6.3140   21.8820  -31.7690 C   0  0  0  0  0  0  0  0  0  0  0  0
   -6.0870   20.5930  -32.2650 C   0  0  0  0  0  0  0  0  0  0  0  0
   -6.9147   17.7291  -32.2656 H   0  0  0  0  0  0  0  0  0  0  0  0
   -7.8742   18.1090  -33.7359 H   0  0  0  0  0  0  0  0  0  0  0  0
   -6.0950   18.3561  -33.7359 H   0  0  0  0  0  0  0  0  0  0  0  0
   -9.3811   19.7150  -32.7497 H   0  0  0  0  0  0  0  0  0  0  0  0
   -9.7206   22.0610  -31.9059 H   0  0  0  0  0  0  0  0  0  0  0  0
   -8.3127   24.3829  -31.0085 H   0  0  0  0  0  0  0  0  0  0  0  0
   -3.5600   24.9050  -31.2230 H   0  0  0  0  0  0  0  0  0  0  0  0
   -3.8630   26.4640  -30.3870 H   0  0  0  0  0  0  0  0  0  0  0  0
   -4.5109   23.5946  -28.8342 H   0  0  0  0  0  0  0  0  0  0  0  0
   -3.9629   21.8799  -28.7389 H   0  0  0  0  0  0  0  0  0  0  0  0
   -2.9568   23.2913  -26.9505 H   0  0  0  0  0  0  0  0  0  0  0  0
   -1.7183   22.6064  -28.1008 H   0  0  0  0  0  0  0  0  0  0  0  0
   -0.4479   27.2378  -26.6130 H   0  0  0  0  0  0  0  0  0  0  0  0
    0.2826   26.6299  -28.1373 H   0  0  0  0  0  0  0  0  0  0  0  0
   -1.3979   27.2646  -28.1373 H   0  0  0  0  0  0  0  0  0  0  0  0
   -1.1344   25.3226  -25.1568 H   0  0  0  0  0  0  0  0  0  0  0  0
   -1.2949   23.7199  -25.9519 H   0  0  0  0  0  0  0  0  0  0  0  0
    0.2886   24.5679  -25.9519 H   0  0  0  0  0  0  0  0  0  0  0  0
   -5.0650   20.1983  -32.3634 H   0  0  0  0  0  0  0  0  0  0  0  0
  1  2  1  0
  2  3  2  0
  3  4  1  0
  4  5  2  0
  5  6  1  0
  6  7  2  0
  7  8  1  0
  8  9  1  0
  8 10  2  0
  7 11  1  0
 11 12  1  0
 12 13  2  0
 12 14  1  0
 14 15  1  0
 15 16  1  0
 16 17  1  0
 17 18  2  0
 17 19  1  0
 19 20  1  0
 19 21  1  0
 11 22  1  0
 22 23  2  0
 23  2  1  0
 22  5  1  0
  1 24  1  0
  1 25  1  0
  1 26  1  0
  3 27  1  0
  4 28  1  0
  6 29  1  0
  9 30  1  0
  9 31  1  0
 15 32  1  0
 15 33  1  0
 16 34  1  0
 16 35  1  0
 20 36  1  0
 20 37  1  0
 20 38  1  0
 21 39  1  0
 21 40  1  0
 21 41  1  0
 23 42  1  0
M  CHG  1  14  -1
M  END
>  <UniqueID>  (20) 
20

>  <SMILES>  (20) 
Cc1ccc2cc(C(N)=O)n(C(=O)[N-]CCC(=O)N(C)C)c2c1

>  <Energy>  (20) 
74.50497565995668

>  <Genealogy>  (20) 
Cc1ccc2cc(C(N)=O)n(C(=O)[N-]CCC(=O)N(C)C)c2c1 (protonated)
Cc1ccc2cc(C(N)=O)n(C(=O)[N-]CCC(=O)N(C)C)c2c1 (3D coordinates assigned)
Cc1ccc2cc(C(N)=O)n(C(=O)[N-]CCC(=O)N(C)C)c2c1 (optimized conformer: 74.50497565995668 kcal/mol)

>  <smiles>  (20) 
Cc1ccc2cc(C(N)=O)n(C(=O)NCCC(=O)N(C)C)c2c1

>  <score_type>  (20) 
oracle

>  <origin>  (20) 
adg

>  <m_score__min__energy>  (20) 
-9.3300000000000001

>  <m_primary>  (20) 
energy

$$$$
20:0
     RDKit          3D

 39 40  0  0  0  0  0  0  0  0999 V2000
   -3.3150   25.2090  -30.4920 H   0  0  0  0  0  0  0  0  0  0  0  0
   -4.1980   25.6640  -30.8140 N   0  0  0  0  0  0  0  0  0  0  0  0
   -5.4650   25.2420  -30.3120 C   0  0  0  0  0  0  0  0  0  0  0  0
   -6.0440   25.9350  -29.4330 O   0  0  0  0  0  0  0  0  0  0  0  0
   -6.0930   24.0120  -30.8350 C   0  0  0  0  0  0  0  0  0  0  0  0
   -7.4600   23.8750  -31.0820 C   0  0  0  0  0  0  0  0  0  0  0  0
   -8.2405   24.6396  -30.9551 H   0  0  0  0  0  0  0  0  0  0  0  0
   -7.6240   22.5770  -31.5190 C   0  0  0  0  0  0  0  0  0  0  0  0
   -8.7690   21.8980  -31.9260 C   0  0  0  0  0  0  0  0  0  0  0  0
   -9.7537   22.3882  -31.9153 H   0  0  0  0  0  0  0  0  0  0  0  0
   -8.6260   20.5630  -32.3520 C   0  0  0  0  0  0  0  0  0  0  0  0
   -9.5102   20.0005  -32.6865 H   0  0  0  0  0  0  0  0  0  0  0  0
   -7.3540   19.9370  -32.3540 C   0  0  0  0  0  0  0  0  0  0  0  0
   -7.2040   18.5320  -32.8620 C   0  0  0  0  0  0  0  0  0  0  0  0
   -7.1301   17.8400  -32.0101 H   0  0  0  0  0  0  0  0  0  0  0  0
   -8.0791   18.2680  -33.4740 H   0  0  0  0  0  0  0  0  0  0  0  0
   -6.2929   18.4587  -33.4740 H   0  0  0  0  0  0  0  0  0  0  0  0
   -6.2140   20.6610  -31.9470 C   0  0  0  0  0  0  0  0  0  0  0  0
   -5.2158   20.1991  -31.9637 H   0  0  0  0  0  0  0  0  0  0  0  0
   -6.3870   21.9810  -31.5220 C   0  0  0  0  0  0  0  0  0  0  0  0
   -5.4430   22.8490  -31.1070 N   0  0  0  0  0  0  0  0  0  0  0  0
   -4.0320   22.5880  -31.0270 C   0  0  0  0  0  0  0  0  0  0  0  0
   -3.2270   23.3520  -31.6300 O   0  0  0  0  0  0  0  0  0  0  0  0
   -3.5280   21.4770  -30.1830 C   0  0  0  0  0  0  0  0  0  0  0  0
   -2.5180   21.8590  -28.7450 S   0  0  0  0  0  0  0  0  0  0  0  0
   -3.7390   23.0170  -28.1030 C   0  0  0  0  0  0  0  0  0  0  0  0
   -4.8030   22.7485  -28.1793 H   0  0  0  0  0  0  0  0  0  0  0  0
   -3.4190   24.1870  -27.5380 C   0  0  0  0  0  0  0  0  0  0  0  0
   -4.2368   24.8758  -27.2797 H   0  0  0  0  0  0  0  0  0  0  0  0
   -2.0330   24.6120  -27.2390 C   0  0  0  0  0  0  0  0  0  0  0  0
   -1.1410   25.0160  -28.3450 C   0  0  0  0  0  0  0  0  0  0  0  0
   -1.5910   25.6730  -29.3220 O   0  0  0  0  0  0  0  0  0  0  0  0
    0.2090   24.6820  -28.3240 O   0  0  0  0  0  0  0  0  0  0  0  0
   -1.6350   24.7500  -25.9680 C   0  0  0  0  0  0  0  0  0  0  0  0
   -0.6051   25.0658  -25.7454 H   0  0  0  0  0  0  0  0  0  0  0  0
   -2.3379   24.5476  -25.1465 H   0  0  0  0  0  0  0  0  0  0  0  0
   -3.7950   20.1960  -30.4620 C   0  0  0  0  0  0  0  0  0  0  0  0
   -4.4109   19.9405  -31.3369 H   0  0  0  0  0  0  0  0  0  0  0  0
   -3.3987   19.3984  -29.8165 H   0  0  0  0  0  0  0  0  0  0  0  0
  1  2  1  0
  2  3  1  0
  3  4  2  0
  3  5  1  0
  5  6  2  0
  6  7  1  0
  6  8  1  0
  8  9  2  0
  9 10  1  0
  9 11  1  0
 11 12  1  0
 11 13  2  0
 13 14  1  0
 14 15  1  0
 14 16  1  0
 14 17  1  0
 13 18  1  0
 18 19  1  0
 18 20  2  0
 20 21  1  0
 21 22  1  0
 22 23  2  0
 22 24  1  0
 24 25  1  0
 25 26  1  0
 26 27  1  0
 26 28  2  0
 28 29  1  0
 28 30  1  0
 30 31  1  0
 31 32  2  0
 31 33  1  0
 30 34  2  0
 34 35  1  0
 34 36  1  0
 24 37  2  0
 37 38  1  0
 37 39  1  0
 21  5  1  0
 20  8  1  0
M  CHG  2   2  -1  33  -1
M  END
>  <UniqueID>  (21) 
21

>  <SMILES>  (21) 
C=C(/C=C\SC(=C)C(=O)n1c(C([NH-])=O)cc2ccc(C)cc21)C(=O)[O-]

>  <Energy>  (21) 
77.59071560196097

>  <Genealogy>  (21) 
C=C(/C=C\SC(=C)C(=O)n1c(C([NH-])=O)cc2ccc(C)cc21)C(=O)[O-] (protonated)
C=C(/C=C\SC(=C)C(=O)n1c(C([NH-])=O)cc2ccc(C)cc21)C(=O)[O-] (cis-trans isomerization)
C=C(/C=C\SC(=C)C(=O)n1c(C([NH-])=O)cc2ccc(C)cc21)C(=O)[O-] (3D coordinates assigned)
C=C(/C=C\SC(=C)C(=O)n1c(C([NH-])=O)cc2ccc(C)cc21)C(=O)[O-] (optimized conformer: 77.59071560196097 kcal/mol)

>  <smiles>  (21) 
C=C(/C=C\SC(=C)C(=O)n1c(C(N)=O)cc2ccc(C)cc21)C(=O)O

>  <score_type>  (21) 
oracle

>  <origin>  (21) 
adg

>  <m_score__min__energy>  (21) 
-13.869999999999999

>  <m_primary>  (21) 
energy

$$$$
21:0
     RDKit          3D

 32 33  0  0  0  0  0  0  0  0999 V2000
   -3.9790   25.6750  -30.8340 N   0  0  0  0  0  0  0  0  0  0  0  0
   -5.3140   25.2950  -30.5100 C   0  0  0  0  0  0  0  0  0  0  0  0
   -6.0200   26.0640  -29.8050 O   0  0  0  0  0  0  0  0  0  0  0  0
   -5.8600   23.9930  -30.9440 C   0  0  0  0  0  0  0  0  0  0  0  0
   -7.1950   23.8000  -31.2980 C   0  0  0  0  0  0  0  0  0  0  0  0
   -7.3130   22.4530  -31.5520 C   0  0  0  0  0  0  0  0  0  0  0  0
   -8.4220   21.7110  -31.9470 C   0  0  0  0  0  0  0  0  0  0  0  0
   -8.2500   20.3340  -32.1650 C   0  0  0  0  0  0  0  0  0  0  0  0
   -6.9750   19.7290  -32.0110 C   0  0  0  0  0  0  0  0  0  0  0  0
   -6.8100   18.2430  -32.2120 C   0  0  0  0  0  0  0  0  0  0  0  0
   -8.0440   17.6250  -32.3160 F   0  0  0  0  0  0  0  0  0  0  0  0
   -6.0980   17.9820  -33.3690 F   0  0  0  0  0  0  0  0  0  0  0  0
   -6.1290   17.7110  -31.1330 F   0  0  0  0  0  0  0  0  0  0  0  0
   -5.8780   20.5140  -31.5860 C   0  0  0  0  0  0  0  0  0  0  0  0
   -6.0830   21.8790  -31.3580 C   0  0  0  0  0  0  0  0  0  0  0  0
   -5.1800   22.8120  -30.9850 N   0  0  0  0  0  0  0  0  0  0  0  0
   -3.7740   22.6030  -30.7870 C   0  0  0  0  0  0  0  0  0  0  0  0
   -2.9800   22.7110  -31.7610 O   0  0  0  0  0  0  0  0  0  0  0  0
   -3.2920   22.2980  -29.5090 O   0  0  0  0  0  0  0  0  0  0  0  0
   -3.0010   23.2850  -28.5230 C   0  0  0  0  0  0  0  0  0  0  0  0
   -1.3890   24.0610  -28.8590 P   0  0  2  0  0  0  0  0  0  0  0  0
   -0.5400   24.0130  -27.6100 O   0  0  0  0  0  0  0  0  0  0  0  0
   -1.6050   25.6720  -29.3270 O   0  0  0  0  0  0  0  0  0  0  0  0
   -0.6070   23.2180  -30.0990 O   0  0  0  0  0  0  0  0  0  0  0  0
   -3.1720   25.0570  -30.5960 H   0  0  0  0  0  0  0  0  0  0  0  0
   -7.9854   24.5624  -31.3608 H   0  0  0  0  0  0  0  0  0  0  0  0
   -9.4035   22.1883  -32.0844 H   0  0  0  0  0  0  0  0  0  0  0  0
   -9.1127   19.7177  -32.4582 H   0  0  0  0  0  0  0  0  0  0  0  0
   -4.8863   20.0616  -31.4381 H   0  0  0  0  0  0  0  0  0  0  0  0
   -3.7851   24.0563  -28.5397 H   0  0  0  0  0  0  0  0  0  0  0  0
   -2.9661   22.8030  -27.5348 H   0  0  0  0  0  0  0  0  0  0  0  0
   -1.2860   22.5830  -30.4400 H   0  0  0  0  0  0  0  0  0  0  0  0
  1  2  1  0
  2  3  2  0
  2  4  1  0
  4  5  2  0
  5  6  1  0
  6  7  2  0
  7  8  1  0
  8  9  2  0
  9 10  1  0
 10 11  1  0
 10 12  1  0
 10 13  1  0
  9 14  1  0
 14 15  2  0
 15 16  1  0
 16 17  1  0
 17 18  2  0
 17 19  1  0
 19 20  1  0
 20 21  1  0
 21 22  2  0
 21 23  1  6
 21 24  1  0
 16  4  1  0
 15  6  1  0
  1 25  1  0
  5 26  1  0
  7 27  1  0
  8 28  1  0
 14 29  1  0
 20 30  1  0
 20 31  1  0
 24 32  1  0
M  CHG  2   1  -1  23  -1
M  END
>  <UniqueID>  (22) 
22

>  <SMILES>  (22) 
[NH-]C(=O)c1cc2ccc(C(F)(F)F)cc2n1C(=O)OC[P@](=O)([O-])O

>  <Energy>  (22) 
66.17608445424155

>  <Genealogy>  (22) 
[NH-]C(=O)c1cc2ccc(C(F)(F)F)cc2n1C(=O)OCP(=O)([O-])O (protonated)
[NH-]C(=O)c1cc2ccc(C(F)(F)F)cc2n1C(=O)OC[P@](=O)([O-])O (chirality)
[NH-]C(=O)c1cc2ccc(C(F)(F)F)cc2n1C(=O)OC[P@](=O)([O-])O (3D coordinates assigned)
[NH-]C(=O)c1cc2ccc(C(F)(F)F)cc2n1C(=O)OC[P@](=O)([O-])O (optimized conformer: 66.17608445424155 kcal/mol)

>  <smiles>  (22) 
NC(=O)c1cc2ccc(C(F)(F)F)cc2n1C(=O)OCP(=O)(O)O

>  <score_type>  (22) 
oracle

>  <origin>  (22) 
adg

>  <m_score__min__energy>  (22) 
-11.699999999999999

>  <m_primary>  (22) 
energy

$$$$
22:0
     RDKit          3D

 45 46  0  0  0  0  0  0  0  0999 V2000
    0.6240   20.2180  -27.9840 C   0  0  0  0  0  0  0  0  0  0  0  0
   -0.8250   20.4440  -27.9300 N   0  0  0  0  0  0  0  0  0  0  0  0
   -1.4660   20.5770  -26.6130 C   0  0  0  0  0  0  0  0  0  0  0  0
   -2.3500   19.4360  -26.3580 C   0  0  0  0  0  0  0  0  0  0  0  0
   -3.0480   18.5390  -26.1480 N   0  0  0  0  0  0  0  0  0  0  0  0
   -1.5590   20.5150  -29.1780 C   0  0  0  0  0  0  0  0  0  0  0  0
   -0.9510   20.2980  -30.2620 O   0  0  0  0  0  0  0  0  0  0  0  0
   -3.0370   20.8060  -29.2520 C   0  0  0  0  0  0  0  0  0  0  0  0
   -3.2850   22.2330  -29.5030 N   0  0  0  0  0  0  0  0  0  0  0  0
   -2.8500   23.2290  -28.5130 C   0  0  0  0  0  0  0  0  0  0  0  0
   -1.7700   24.0980  -29.0760 C   0  0  0  0  0  0  0  0  0  0  0  0
   -2.0000   25.3070  -29.3360 O   0  0  0  0  0  0  0  0  0  0  0  0
   -0.5140   23.5660  -29.3400 O   0  0  0  0  0  0  0  0  0  0  0  0
   -3.7730   22.6630  -30.7930 C   0  0  0  0  0  0  0  0  0  0  0  0
   -2.9640   22.9830  -31.7050 O   0  0  0  0  0  0  0  0  0  0  0  0
   -5.1790   22.7650  -31.0510 N   0  0  0  0  0  0  0  0  0  0  0  0
   -5.9660   23.8730  -30.9740 C   0  0  0  0  0  0  0  0  0  0  0  0
   -5.5250   25.2180  -30.5480 C   0  0  0  0  0  0  0  0  0  0  0  0
   -4.2100   25.6820  -30.8390 N   0  0  0  0  0  0  0  0  0  0  0  0
   -6.3120   25.9580  -29.9000 O   0  0  0  0  0  0  0  0  0  0  0  0
   -7.2800   23.5560  -31.3150 C   0  0  0  0  0  0  0  0  0  0  0  0
   -7.2700   22.2070  -31.5950 C   0  0  0  0  0  0  0  0  0  0  0  0
   -8.3050   21.3590  -31.9760 C   0  0  0  0  0  0  0  0  0  0  0  0
   -7.9990   20.0050  -32.1960 C   0  0  0  0  0  0  0  0  0  0  0  0
   -6.6700   19.5260  -32.0500 C   0  0  0  0  0  0  0  0  0  0  0  0
   -6.3640   18.0640  -32.2510 C   0  0  0  0  0  0  0  0  0  0  0  0
   -5.0920   17.9000  -32.7720 F   0  0  0  0  0  0  0  0  0  0  0  0
   -7.2840   17.5220  -33.1290 F   0  0  0  0  0  0  0  0  0  0  0  0
   -6.4310   17.3800  -31.0490 F   0  0  0  0  0  0  0  0  0  0  0  0
   -5.6530   20.4150  -31.6310 C   0  0  0  0  0  0  0  0  0  0  0  0
   -5.9890   21.7550  -31.4220 C   0  0  0  0  0  0  0  0  0  0  0  0
    1.0237   20.1557  -26.9611 H   0  0  0  0  0  0  0  0  0  0  0  0
    0.8288   19.2771  -28.5157 H   0  0  0  0  0  0  0  0  0  0  0  0
    1.1056   21.0519  -28.5157 H   0  0  0  0  0  0  0  0  0  0  0  0
   -0.6900   20.6155  -25.8343 H   0  0  0  0  0  0  0  0  0  0  0  0
   -2.0625   21.5011  -26.5979 H   0  0  0  0  0  0  0  0  0  0  0  0
   -3.4786   20.2158  -30.0685 H   0  0  0  0  0  0  0  0  0  0  0  0
   -3.4941   20.5368  -28.2883 H   0  0  0  0  0  0  0  0  0  0  0  0
   -3.7083   23.8567  -28.2312 H   0  0  0  0  0  0  0  0  0  0  0  0
   -2.4563   22.7023  -27.6312 H   0  0  0  0  0  0  0  0  0  0  0  0
   -3.4080   25.0150  -30.8980 H   0  0  0  0  0  0  0  0  0  0  0  0
   -8.1421   24.2382  -31.3526 H   0  0  0  0  0  0  0  0  0  0  0  0
   -9.3306   21.7364  -32.1011 H   0  0  0  0  0  0  0  0  0  0  0  0
   -8.7990   19.3075  -32.4849 H   0  0  0  0  0  0  0  0  0  0  0  0
   -4.6236   20.0605  -31.4737 H   0  0  0  0  0  0  0  0  0  0  0  0
  1  2  1  0
  2  3  1  0
  3  4  1  0
  4  5  3  0
  2  6  1  0
  6  7  2  0
  6  8  1  0
  8  9  1  0
  9 10  1  0
 10 11  1  0
 11 12  2  0
 11 13  1  0
  9 14  1  0
 14 15  2  0
 14 16  1  0
 16 17  1  0
 17 18  1  0
 18 19  1  0
 18 20  2  0
 17 21  2  0
 21 22  1  0
 22 23  2  0
 23 24  1  0
 24 25  2  0
 25 26  1  0
 26 27  1  0
 26 28  1  0
 26 29  1  0
 25 30  1  0
 30 31  2  0
 31 16  1  0
 31 22  1  0
  1 32  1  0
  1 33  1  0
  1 34  1  0
  3 35  1  0
  3 36  1  0
  8 37  1  0
  8 38  1  0
 10 39  1  0
 10 40  1  0
 19 41  1  0
 21 42  1  0
 23 43  1  0
 24 44  1  0
 30 45  1  0
M  CHG  2  13  -1  19  -1
M  END
>  <UniqueID>  (23) 
23

>  <SMILES>  (23) 
CN(CC#N)C(=O)CN(CC(=O)[O-])C(=O)n1c(C([NH-])=O)cc2ccc(C(F)(F)F)cc21

>  <Energy>  (23) 
78.67589307290359

>  <Genealogy>  (23) 
CN(CC#N)C(=O)CN(CC(=O)[O-])C(=O)n1c(C([NH-])=O)cc2ccc(C(F)(F)F)cc21 (protonated)
CN(CC#N)C(=O)CN(CC(=O)[O-])C(=O)n1c(C([NH-])=O)cc2ccc(C(F)(F)F)cc21 (3D coordinates assigned)
CN(CC#N)C(=O)CN(CC(=O)[O-])C(=O)n1c(C([NH-])=O)cc2ccc(C(F)(F)F)cc21 (optimized conformer: 78.67589307290359 kcal/mol)

>  <smiles>  (23) 
CN(CC#N)C(=O)CN(CC(=O)O)C(=O)n1c(C(N)=O)cc2ccc(C(F)(F)F)cc21

>  <score_type>  (23) 
oracle

>  <origin>  (23) 
adg

>  <m_score__min__energy>  (23) 
-12.56

>  <m_primary>  (23) 
energy

$$$$
23:0
     RDKit          3D

 45 46  0  0  0  0  0  0  0  0999 V2000
    0.0340   21.5510  -27.1240 C   0  0  0  0  0  0  0  0  0  0  0  0
   -0.8480   22.1590  -28.1300 N   0  0  0  0  0  0  0  0  0  0  0  0
   -1.4200   23.4870  -27.8650 C   0  0  0  0  0  0  0  0  0  0  0  0
   -0.6040   24.5650  -28.5210 C   0  0  0  0  0  0  0  0  0  0  0  0
   -1.2340   25.6960  -29.1080 N   0  0  0  0  0  0  0  0  0  0  0  0
    0.6530   24.4980  -28.4920 O   0  0  0  0  0  0  0  0  0  0  0  0
   -1.0580   21.5300  -29.4190 C   0  0  0  0  0  0  0  0  0  0  0  0
   -0.1010   21.4640  -30.2420 O   0  0  0  0  0  0  0  0  0  0  0  0
   -2.3800   20.9220  -29.8230 C   0  0  0  0  0  0  0  0  0  0  0  0
   -3.4300   21.9520  -29.8000 N   0  0  0  0  0  0  0  0  0  0  0  0
   -4.1000   22.2800  -28.5350 C   0  0  0  0  0  0  0  0  0  0  0  0
   -3.9360   22.5040  -31.0320 C   0  0  0  0  0  0  0  0  0  0  0  0
   -3.1660   22.6690  -32.0170 O   0  0  0  0  0  0  0  0  0  0  0  0
   -5.3210   22.8630  -31.1580 N   0  0  0  0  0  0  0  0  0  0  0  0
   -5.8860   24.0810  -30.9550 C   0  0  0  0  0  0  0  0  0  0  0  0
   -5.1530   25.3140  -30.6000 C   0  0  0  0  0  0  0  0  0  0  0  0
   -3.7300   25.2930  -30.4810 N   0  0  0  0  0  0  0  0  0  0  0  0
   -5.7670   26.3990  -30.4210 O   0  0  0  0  0  0  0  0  0  0  0  0
   -7.2750   24.0040  -31.0960 C   0  0  0  0  0  0  0  0  0  0  0  0
   -7.5370   22.6860  -31.3830 C   0  0  0  0  0  0  0  0  0  0  0  0
   -8.7460   22.0390  -31.5980 C   0  0  0  0  0  0  0  0  0  0  0  0
   -8.7160   20.6600  -31.8570 C   0  0  0  0  0  0  0  0  0  0  0  0
   -7.4860   19.9550  -31.9130 C   0  0  0  0  0  0  0  0  0  0  0  0
   -7.4920   18.4660  -32.1750 C   0  0  0  0  0  0  0  0  0  0  0  0
   -6.6280   17.8430  -31.2950 F   0  0  0  0  0  0  0  0  0  0  0  0
   -8.7660   17.9590  -31.9840 F   0  0  0  0  0  0  0  0  0  0  0  0
   -7.1020   18.1800  -33.4740 F   0  0  0  0  0  0  0  0  0  0  0  0
   -6.2720   20.6500  -31.6750 C   0  0  0  0  0  0  0  0  0  0  0  0
   -6.3380   22.0190  -31.4140 C   0  0  0  0  0  0  0  0  0  0  0  0
   -0.3305   21.8022  -26.1170 H   0  0  0  0  0  0  0  0  0  0  0  0
    0.0366   20.4584  -27.2510 H   0  0  0  0  0  0  0  0  0  0  0  0
    1.0561   21.9373  -27.2510 H   0  0  0  0  0  0  0  0  0  0  0  0
   -2.4462   23.5220  -28.2596 H   0  0  0  0  0  0  0  0  0  0  0  0
   -1.4191   23.6587  -26.7785 H   0  0  0  0  0  0  0  0  0  0  0  0
   -1.6250   25.6580  -30.0740 H   0  0  0  0  0  0  0  0  0  0  0  0
   -2.2965   20.5083  -30.8388 H   0  0  0  0  0  0  0  0  0  0  0  0
   -2.6420   20.1204  -29.1167 H   0  0  0  0  0  0  0  0  0  0  0  0
   -3.4649   21.9691  -27.6924 H   0  0  0  0  0  0  0  0  0  0  0  0
   -4.2735   23.3650  -28.4826 H   0  0  0  0  0  0  0  0  0  0  0  0
   -5.0634   21.7516  -28.4826 H   0  0  0  0  0  0  0  0  0  0  0  0
   -3.1460   24.7140  -31.1240 H   0  0  0  0  0  0  0  0  0  0  0  0
   -8.0024   24.8233  -30.9981 H   0  0  0  0  0  0  0  0  0  0  0  0
   -9.6977   22.5897  -31.5664 H   0  0  0  0  0  0  0  0  0  0  0  0
   -9.6594   20.1181  -32.0189 H   0  0  0  0  0  0  0  0  0  0  0  0
   -5.3060   20.1242  -31.6957 H   0  0  0  0  0  0  0  0  0  0  0  0
  1  2  1  0
  2  3  1  0
  3  4  1  0
  4  5  1  0
  4  6  2  0
  2  7  1  0
  7  8  2  0
  7  9  1  0
  9 10  1  0
 10 11  1  0
 10 12  1  0
 12 13  2  0
 12 14  1  0
 14 15  1  0
 15 16  1  0
 16 17  1  0
 16 18  2  0
 15 19  2  0
 19 20  1  0
 20 21  2  0
 21 22  1  0
 22 23  2  0
 23 24  1  0
 24 25  1  0
 24 26  1  0
 24 27  1  0
 23 28  1  0
 28 29  2  0
 29 14  1  0
 29 20  1  0
  1 30  1  0
  1 31  1  0
  1 32  1  0
  3 33  1  0
  3 34  1  0
  5 35  1  0
  9 36  1  0
  9 37  1  0
 11 38  1  0
 11 39  1  0
 11 40  1  0
 17 41  1  0
 19 42  1  0
 21 43  1  0
 22 44  1  0
 28 45  1  0
M  CHG  2   5  -1  17  -1
M  END
>  <UniqueID>  (24) 
24

>  <SMILES>  (24) 
CN(CC([NH-])=O)C(=O)CN(C)C(=O)n1c(C([NH-])=O)cc2ccc(C(F)(F)F)cc21

>  <Energy>  (24) 
78.09770519670994

>  <Genealogy>  (24) 
CN(CC([NH-])=O)C(=O)CN(C)C(=O)n1c(C([NH-])=O)cc2ccc(C(F)(F)F)cc21 (protonated)
CN(CC([NH-])=O)C(=O)CN(C)C(=O)n1c(C([NH-])=O)cc2ccc(C(F)(F)F)cc21 (3D coordinates assigned)
CN(CC([NH-])=O)C(=O)CN(C)C(=O)n1c(C([NH-])=O)cc2ccc(C(F)(F)F)cc21 (optimized conformer: 78.09770519670994 kcal/mol)

>  <smiles>  (24) 
CN(CC(N)=O)C(=O)CN(C)C(=O)n1c(C(N)=O)cc2ccc(C(F)(F)F)cc21

>  <score_type>  (24) 
oracle

>  <origin>  (24) 
adg

>  <m_score__min__energy>  (24) 
-12.99

>  <m_primary>  (24) 
energy

$$$$
24:0
     RDKit          3D

 53 54  0  0  0  0  0  0  0  0999 V2000
   -4.1610   24.1740  -27.3260 C   0  0  0  0  0  0  0  0  0  0  0  0
   -3.2890   24.8710  -28.2060 O   0  0  0  0  0  0  0  0  0  0  0  0
   -2.1690   24.2710  -28.7900 C   0  0  0  0  0  0  0  0  0  0  0  0
   -1.2370   24.9770  -29.2670 O   0  0  0  0  0  0  0  0  0  0  0  0
   -2.0810   22.7740  -28.8450 C   0  0  2  0  0  0  0  0  0  0  0  0
   -0.8230   22.3400  -29.6010 C   0  0  0  0  0  0  0  0  0  0  0  0
    0.2650   22.1140  -28.6570 N   0  0  0  0  0  0  0  0  0  0  0  0
    0.7560   23.1240  -27.7750 C   0  0  0  0  0  0  0  0  0  0  0  0
    1.1350   24.2350  -28.2360 O   0  0  0  0  0  0  0  0  0  0  0  0
    0.8080   22.8500  -26.4010 O   0  0  0  0  0  0  0  0  0  0  0  0
   -0.3010   22.8460  -25.4900 C   0  0  0  0  0  0  0  0  0  0  0  0
   -1.1880   21.6470  -25.8600 C   0  0  0  0  0  0  0  0  0  0  0  0
    0.1890   22.6750  -24.0410 C   0  0  0  0  0  0  0  0  0  0  0  0
   -1.1280   24.1380  -25.6350 C   0  0  0  0  0  0  0  0  0  0  0  0
   -3.2610   22.2280  -29.5090 N   0  0  0  0  0  0  0  0  0  0  0  0
   -3.7190   22.6580  -30.7940 C   0  0  0  0  0  0  0  0  0  0  0  0
   -2.8980   22.8160  -31.7380 O   0  0  0  0  0  0  0  0  0  0  0  0
   -5.1200   22.8830  -31.0160 N   0  0  0  0  0  0  0  0  0  0  0  0
   -5.8230   24.0330  -30.8120 C   0  0  0  0  0  0  0  0  0  0  0  0
   -5.2480   25.3490  -30.4620 C   0  0  0  0  0  0  0  0  0  0  0  0
   -3.9110   25.6640  -30.8460 N   0  0  0  0  0  0  0  0  0  0  0  0
   -5.9130   26.1850  -29.7960 O   0  0  0  0  0  0  0  0  0  0  0  0
   -7.1800   23.8250  -31.0490 C   0  0  0  0  0  0  0  0  0  0  0  0
   -7.2880   22.5020  -31.4110 C   0  0  0  0  0  0  0  0  0  0  0  0
   -8.4120   21.7550  -31.7500 C   0  0  0  0  0  0  0  0  0  0  0  0
   -8.2330   20.3950  -32.0500 C   0  0  0  0  0  0  0  0  0  0  0  0
   -6.9480   19.7990  -31.9820 C   0  0  0  0  0  0  0  0  0  0  0  0
   -6.7630   18.3440  -32.3320 C   0  0  0  0  0  0  0  0  0  0  0  0
   -6.0200   18.2460  -33.4950 F   0  0  0  0  0  0  0  0  0  0  0  0
   -6.0990   17.6790  -31.3160 F   0  0  0  0  0  0  0  0  0  0  0  0
   -7.9860   17.7260  -32.5260 F   0  0  0  0  0  0  0  0  0  0  0  0
   -5.8260   20.5980  -31.6590 C   0  0  0  0  0  0  0  0  0  0  0  0
   -6.0320   21.9540  -31.3830 C   0  0  0  0  0  0  0  0  0  0  0  0
   -3.8844   24.3951  -26.2845 H   0  0  0  0  0  0  0  0  0  0  0  0
   -5.1975   24.4953  -27.5062 H   0  0  0  0  0  0  0  0  0  0  0  0
   -4.0759   23.0922  -27.5062 H   0  0  0  0  0  0  0  0  0  0  0  0
   -2.0303   22.3901  -27.8154 H   0  0  0  0  0  0  0  0  0  0  0  0
   -1.0294   21.4096  -30.1504 H   0  0  0  0  0  0  0  0  0  0  0  0
   -0.5326   23.1306  -30.3086 H   0  0  0  0  0  0  0  0  0  0  0  0
   -1.5482   21.1601  -24.9417 H   0  0  0  0  0  0  0  0  0  0  0  0
   -2.0474   21.9954  -26.4516 H   0  0  0  0  0  0  0  0  0  0  0  0
   -0.6034   20.9271  -26.4516 H   0  0  0  0  0  0  0  0  0  0  0  0
   -0.6161   22.9560  -23.3461 H   0  0  0  0  0  0  0  0  0  0  0  0
    0.4707   21.6254  -23.8707 H   0  0  0  0  0  0  0  0  0  0  0  0
    1.0626   23.3214  -23.8707 H   0  0  0  0  0  0  0  0  0  0  0  0
   -1.3774   24.5276  -24.6370 H   0  0  0  0  0  0  0  0  0  0  0  0
   -0.5420   24.8886  -26.1857 H   0  0  0  0  0  0  0  0  0  0  0  0
   -2.0549   23.9202  -26.1857 H   0  0  0  0  0  0  0  0  0  0  0  0
   -3.0950   25.2530  -30.3400 H   0  0  0  0  0  0  0  0  0  0  0  0
   -7.9924   24.5618  -30.9646 H   0  0  0  0  0  0  0  0  0  0  0  0
   -9.4103   22.2158  -31.7820 H   0  0  0  0  0  0  0  0  0  0  0  0
   -9.1003   19.7843  -32.3414 H   0  0  0  0  0  0  0  0  0  0  0  0
   -4.8160   20.1635  -31.6257 H   0  0  0  0  0  0  0  0  0  0  0  0
  1  2  1  0
  2  3  1  0
  3  4  2  0
  3  5  1  0
  5  6  1  0
  6  7  1  0
  7  8  1  0
  8  9  2  0
  8 10  1  0
 10 11  1  0
 11 12  1  0
 11 13  1  0
 11 14  1  0
  5 15  1  0
 15 16  1  0
 16 17  2  0
 16 18  1  0
 18 19  1  0
 19 20  1  0
 20 21  1  0
 20 22  2  0
 19 23  2  0
 23 24  1  0
 24 25  2  0
 25 26  1  0
 26 27  2  0
 27 28  1  0
 28 29  1  0
 28 30  1  0
 28 31  1  0
 27 32  1  0
 32 33  2  0
 33 18  1  0
 33 24  1  0
  1 34  1  0
  1 35  1  0
  1 36  1  0
  5 37  1  1
  6 38  1  0
  6 39  1  0
 12 40  1  0
 12 41  1  0
 12 42  1  0
 13 43  1  0
 13 44  1  0
 13 45  1  0
 14 46  1  0
 14 47  1  0
 14 48  1  0
 21 49  1  0
 23 50  1  0
 25 51  1  0
 26 52  1  0
 32 53  1  0
M  CHG  3   7  -1  15  -1  21  -1
M  END
>  <UniqueID>  (25) 
25

>  <SMILES>  (25) 
COC(=O)[C@H](C[N-]C(=O)OC(C)(C)C)[N-]C(=O)n1c(C([NH-])=O)cc2ccc(C(F)(F)F)cc21

>  <Energy>  (25) 
78.27979933126453

>  <Genealogy>  (25) 
COC(=O)[C@H](C[N-]C(=O)OC(C)(C)C)[N-]C(=O)n1c(C([NH-])=O)cc2ccc(C(F)(F)F)cc21 (protonated)
COC(=O)[C@H](C[N-]C(=O)OC(C)(C)C)[N-]C(=O)n1c(C([NH-])=O)cc2ccc(C(F)(F)F)cc21 (3D coordinates assigned)
COC(=O)[C@H](C[N-]C(=O)OC(C)(C)C)[N-]C(=O)n1c(C([NH-])=O)cc2ccc(C(F)(F)F)cc21 (optimized conformer: 78.27979933126453 kcal/mol)

>  <smiles>  (25) 
COC(=O)[C@H](CNC(=O)OC(C)(C)C)NC(=O)n1c(C(N)=O)cc2ccc(C(F)(F)F)cc21

>  <score_type>  (25) 
oracle

>  <origin>  (25) 
adg

>  <m_score__min__energy>  (25) 
-12.039999999999999

>  <m_primary>  (25) 
energy

$$$$
25:0
     RDKit          3D

 59 60  0  0  0  0  0  0  0  0999 V2000
   -7.1200   18.3470  -32.8950 C   0  0  0  0  0  0  0  0  0  0  0  0
   -7.2820   19.7640  -32.4290 C   0  0  0  0  0  0  0  0  0  0  0  0
   -8.5610   20.3740  -32.3930 C   0  0  0  0  0  0  0  0  0  0  0  0
   -8.7070   21.7130  -31.9870 C   0  0  0  0  0  0  0  0  0  0  0  0
   -7.5570   22.4140  -31.6330 C   0  0  0  0  0  0  0  0  0  0  0  0
   -7.3970   23.7200  -31.2280 C   0  0  0  0  0  0  0  0  0  0  0  0
   -6.0250   23.8870  -31.0420 C   0  0  0  0  0  0  0  0  0  0  0  0
   -5.4050   25.1400  -30.5600 C   0  0  0  0  0  0  0  0  0  0  0  0
   -3.9900   25.3120  -30.5760 N   0  0  0  0  0  0  0  0  0  0  0  0
   -6.1320   26.0570  -30.0890 O   0  0  0  0  0  0  0  0  0  0  0  0
   -5.3670   22.7280  -31.3180 N   0  0  0  0  0  0  0  0  0  0  0  0
   -3.9530   22.4870  -31.3120 C   0  0  0  0  0  0  0  0  0  0  0  0
   -3.3990   22.0850  -32.3720 O   0  0  0  0  0  0  0  0  0  0  0  0
   -3.1750   22.8000  -30.1300 N   0  0  2  0  0  0  0  0  0  0  0  0
   -1.7690   22.4120  -30.3220 C   0  0  0  0  0  0  0  0  0  0  0  0
   -3.7650   22.2720  -28.8720 C   0  0  0  0  0  0  0  0  0  0  0  0
   -3.1650   22.8460  -27.5590 C   0  0  0  0  0  0  0  0  0  0  0  0
   -3.5330   24.3200  -27.3310 C   0  0  0  0  0  0  0  0  0  0  0  0
   -2.3220   25.1210  -27.1070 N   0  0  0  0  0  0  0  0  0  0  0  0
   -2.1340   25.8350  -25.8410 C   0  0  0  0  0  0  0  0  0  0  0  0
   -1.3180   25.2170  -28.1340 C   0  0  0  0  0  0  0  0  0  0  0  0
   -1.6640   25.2550  -29.3460 O   0  0  0  0  0  0  0  0  0  0  0  0
    0.0390   25.2690  -27.7740 O   0  0  0  0  0  0  0  0  0  0  0  0
    0.8060   24.2060  -27.1890 C   0  0  0  0  0  0  0  0  0  0  0  0
    0.5590   24.1280  -25.6690 C   0  0  0  0  0  0  0  0  0  0  0  0
    0.3290   22.8950  -27.8310 C   0  0  0  0  0  0  0  0  0  0  0  0
    2.3040   24.3930  -27.4880 C   0  0  0  0  0  0  0  0  0  0  0  0
   -6.3150   21.8380  -31.6720 C   0  0  0  0  0  0  0  0  0  0  0  0
   -6.1400   20.5090  -32.0690 C   0  0  0  0  0  0  0  0  0  0  0  0
   -7.0438   17.6807  -32.0231 H   0  0  0  0  0  0  0  0  0  0  0  0
   -7.9910   18.0587  -33.5018 H   0  0  0  0  0  0  0  0  0  0  0  0
   -6.2064   18.2627  -33.5018 H   0  0  0  0  0  0  0  0  0  0  0  0
   -9.4488   19.7942  -32.6856 H   0  0  0  0  0  0  0  0  0  0  0  0
   -9.6972   22.1907  -31.9504 H   0  0  0  0  0  0  0  0  0  0  0  0
   -8.1853   24.4732  -31.0819 H   0  0  0  0  0  0  0  0  0  0  0  0
   -3.4800   25.6540  -29.7320 H   0  0  0  0  0  0  0  0  0  0  0  0
   -3.1820   23.8430  -30.0370 H   0  0  0  0  0  0  0  0  0  0  0  0
   -1.2881   22.2793  -29.3416 H   0  0  0  0  0  0  0  0  0  0  0  0
   -1.7227   21.4675  -30.8840 H   0  0  0  0  0  0  0  0  0  0  0  0
   -1.2449   23.1991  -30.8840 H   0  0  0  0  0  0  0  0  0  0  0  0
   -4.8411   22.4998  -28.8807 H   0  0  0  0  0  0  0  0  0  0  0  0
   -3.5395   21.1954  -28.8615 H   0  0  0  0  0  0  0  0  0  0  0  0
   -3.5426   22.2544  -26.7120 H   0  0  0  0  0  0  0  0  0  0  0  0
   -2.0697   22.7870  -27.6418 H   0  0  0  0  0  0  0  0  0  0  0  0
   -4.0622   24.7027  -28.2162 H   0  0  0  0  0  0  0  0  0  0  0  0
   -4.1789   24.3936  -26.4436 H   0  0  0  0  0  0  0  0  0  0  0  0
   -2.3151   25.1473  -25.0018 H   0  0  0  0  0  0  0  0  0  0  0  0
   -1.1044   26.2181  -25.7855 H   0  0  0  0  0  0  0  0  0  0  0  0
   -2.8415   26.6755  -25.7855 H   0  0  0  0  0  0  0  0  0  0  0  0
    1.4752   24.4173  -25.1333 H   0  0  0  0  0  0  0  0  0  0  0  0
   -0.2576   24.8120  -25.3947 H   0  0  0  0  0  0  0  0  0  0  0  0
    0.2833   23.0991  -25.3947 H   0  0  0  0  0  0  0  0  0  0  0  0
    0.0669   22.1746  -27.0422 H   0  0  0  0  0  0  0  0  0  0  0  0
   -0.5548   23.0928  -28.4553 H   0  0  0  0  0  0  0  0  0  0  0  0
    1.1332   22.4786  -28.4553 H   0  0  0  0  0  0  0  0  0  0  0  0
    2.8608   24.4625  -26.5419 H   0  0  0  0  0  0  0  0  0  0  0  0
    2.6722   23.5338  -28.0679 H   0  0  0  0  0  0  0  0  0  0  0  0
    2.4497   25.3163  -28.0679 H   0  0  0  0  0  0  0  0  0  0  0  0
   -5.1379   20.0563  -32.0998 H   0  0  0  0  0  0  0  0  0  0  0  0
  1  2  1  0
  2  3  2  0
  3  4  1  0
  4  5  2  0
  5  6  1  0
  6  7  2  0
  7  8  1  0
  8  9  1  0
  8 10  2  0
  7 11  1  0
 11 12  1  0
 12 13  2  0
 12 14  1  0
 14 15  1  0
 14 16  1  0
 16 17  1  0
 17 18  1  0
 18 19  1  0
 19 20  1  0
 19 21  1  0
 21 22  2  0
 21 23  1  0
 23 24  1  0
 24 25  1  0
 24 26  1  0
 24 27  1  0
 11 28  1  0
 28 29  2  0
 29  2  1  0
 28  5  1  0
  1 30  1  0
  1 31  1  0
  1 32  1  0
  3 33  1  0
  4 34  1  0
  6 35  1  0
  9 36  1  0
 14 37  1  1
 15 38  1  0
 15 39  1  0
 15 40  1  0
 16 41  1  0
 16 42  1  0
 17 43  1  0
 17 44  1  0
 18 45  1  0
 18 46  1  0
 20 47  1  0
 20 48  1  0
 20 49  1  0
 25 50  1  0
 25 51  1  0
 25 52  1  0
 26 53  1  0
 26 54  1  0
 26 55  1  0
 27 56  1  0
 27 57  1  0
 27 58  1  0
 29 59  1  0
M  CHG  2   9  -1  14   1
M  END
>  <UniqueID>  (26) 
26

>  <SMILES>  (26) 
Cc1ccc2cc(C([NH-])=O)n(C(=O)[N@H+](C)CCCN(C)C(=O)OC(C)(C)C)c2c1

>  <Energy>  (26) 
92.74545126995746

>  <Genealogy>  (26) 
Cc1ccc2cc(C([NH-])=O)n(C(=O)[NH+](C)CCCN(C)C(=O)OC(C)(C)C)c2c1 (protonated)
Cc1ccc2cc(C([NH-])=O)n(C(=O)[N@H+](C)CCCN(C)C(=O)OC(C)(C)C)c2c1 (chirality)
Cc1ccc2cc(C([NH-])=O)n(C(=O)[N@H+](C)CCCN(C)C(=O)OC(C)(C)C)c2c1 (3D coordinates assigned)
Cc1ccc2cc(C([NH-])=O)n(C(=O)[N@H+](C)CCCN(C)C(=O)OC(C)(C)C)c2c1 (optimized conformer: 92.74545126995746 kcal/mol)

>  <smiles>  (26) 
Cc1ccc2cc(C(N)=O)n(C(=O)N(C)CCCN(C)C(=O)OC(C)(C)C)c2c1

>  <score_type>  (26) 
oracle

>  <origin>  (26) 
adg

>  <m_score__min__energy>  (26) 
-10.16

>  <m_primary>  (26) 
energy

$$$$
26:0
     RDKit          3D

 43 44  0  0  0  0  0  0  0  0999 V2000
   -3.8830   25.4690  -30.8000 N   0  0  0  0  0  0  0  0  0  0  0  0
   -3.7560   24.0500  -30.7650 C   0  0  0  0  0  0  0  0  0  0  0  0
   -2.6170   23.5390  -30.5850 O   0  0  0  0  0  0  0  0  0  0  0  0
   -4.9370   23.1720  -30.9090 C   0  0  0  0  0  0  0  0  0  0  0  0
   -6.1570   23.4070  -30.2690 C   0  0  0  0  0  0  0  0  0  0  0  0
   -6.9990   22.4090  -30.7060 C   0  0  0  0  0  0  0  0  0  0  0  0
   -8.3270   22.1460  -30.3790 C   0  0  0  0  0  0  0  0  0  0  0  0
   -8.9400   21.0250  -30.9640 C   0  0  0  0  0  0  0  0  0  0  0  0
   -8.2250   20.1950  -31.8680 C   0  0  0  0  0  0  0  0  0  0  0  0
   -8.8710   18.9600  -32.4440 C   0  0  0  0  0  0  0  0  0  0  0  0
   -9.8580   19.3010  -33.3520 F   0  0  0  0  0  0  0  0  0  0  0  0
   -7.9320   18.1820  -33.0960 F   0  0  0  0  0  0  0  0  0  0  0  0
   -9.4350   18.2230  -31.4210 F   0  0  0  0  0  0  0  0  0  0  0  0
   -6.8700   20.4830  -32.1540 C   0  0  0  0  0  0  0  0  0  0  0  0
   -6.2910   21.6160  -31.5720 C   0  0  0  0  0  0  0  0  0  0  0  0
   -5.0280   22.0710  -31.7060 N   0  0  0  0  0  0  0  0  0  0  0  0
   -3.9890   21.4610  -32.4880 C   0  0  0  0  0  0  0  0  0  0  0  0
   -3.9810   21.6250  -33.7360 O   0  0  0  0  0  0  0  0  0  0  0  0
   -2.9510   20.6370  -31.8310 C   0  0  0  0  0  0  0  0  0  0  0  0
   -2.5610   19.5870  -32.4050 O   0  0  0  0  0  0  0  0  0  0  0  0
   -2.3770   20.9720  -30.5600 N   0  0  0  0  0  0  0  0  0  0  0  0
   -2.8150   20.4630  -29.2680 C   0  0  0  0  0  0  0  0  0  0  0  0
   -2.1020   21.1990  -28.1850 C   0  0  0  0  0  0  0  0  0  0  0  0
   -0.9360   20.8550  -27.8540 O   0  0  0  0  0  0  0  0  0  0  0  0
   -2.7700   22.2570  -27.4920 N   0  0  0  0  0  0  0  0  0  0  0  0
   -2.5190   23.6760  -27.7410 C   0  0  1  0  0  0  0  0  0  0  0  0
   -3.2660   24.5220  -26.7430 C   0  0  0  0  0  0  0  0  0  0  0  0
   -4.4830   24.4660  -26.6740 O   0  0  0  0  0  0  0  0  0  0  0  0
   -1.0060   23.9540  -27.6950 C   0  0  0  0  0  0  0  0  0  0  0  0
   -0.6640   25.3480  -28.1340 C   0  0  0  0  0  0  0  0  0  0  0  0
    0.4290   25.8700  -27.7860 O   0  0  0  0  0  0  0  0  0  0  0  0
   -1.5260   26.0520  -28.9680 O   0  0  0  0  0  0  0  0  0  0  0  0
   -3.8630   26.0320  -29.9210 H   0  0  0  0  0  0  0  0  0  0  0  0
   -6.3944   24.2180  -29.5648 H   0  0  0  0  0  0  0  0  0  0  0  0
   -8.8791   22.7959  -29.6841 H   0  0  0  0  0  0  0  0  0  0  0  0
   -9.9857   20.7875  -30.7190 H   0  0  0  0  0  0  0  0  0  0  0  0
   -6.2847   19.8309  -32.8190 H   0  0  0  0  0  0  0  0  0  0  0  0
   -3.8997   20.6122  -29.1621 H   0  0  0  0  0  0  0  0  0  0  0  0
   -2.5878   19.3890  -29.1971 H   0  0  0  0  0  0  0  0  0  0  0  0
   -2.8858   23.9412  -28.7436 H   0  0  0  0  0  0  0  0  0  0  0  0
   -2.7109   25.1944  -26.0723 H   0  0  0  0  0  0  0  0  0  0  0  0
   -0.6526   23.8125  -26.6630 H   0  0  0  0  0  0  0  0  0  0  0  0
   -0.5166   23.2554  -28.3895 H   0  0  0  0  0  0  0  0  0  0  0  0
  1  2  1  0
  2  3  2  0
  2  4  1  0
  4  5  2  0
  5  6  1  0
  6  7  2  0
  7  8  1  0
  8  9  2  0
  9 10  1  0
 10 11  1  0
 10 12  1  0
 10 13  1  0
  9 14  1  0
 14 15  2  0
 15 16  1  0
 16 17  1  0
 17 18  2  0
 17 19  1  0
 19 20  2  0
 19 21  1  0
 21 22  1  0
 22 23  1  0
 23 24  2  0
 23 25  1  0
 25 26  1  0
 26 27  1  0
 27 28  2  0
 26 29  1  0
 29 30  1  0
 30 31  2  0
 30 32  1  0
 16  4  1  0
 15  6  1  0
  1 33  1  0
  5 34  1  0
  7 35  1  0
  8 36  1  0
 14 37  1  0
 22 38  1  0
 22 39  1  0
 26 40  1  6
 27 41  1  0
 29 42  1  0
 29 43  1  0
M  CHG  4   1  -1  21  -1  25  -1  32  -1
M  END
>  <UniqueID>  (27) 
27

>  <SMILES>  (27) 
[NH-]C(=O)c1cc2ccc(C(F)(F)F)cc2n1C(=O)C(=O)[N-]CC(=O)[N-][C@@H](C=O)CC(=O)[O-]

>  <Energy>  (27) 
77.62904165182971

>  <Genealogy>  (27) 
[NH-]C(=O)c1cc2ccc(C(F)(F)F)cc2n1C(=O)C(=O)[N-]CC(=O)[N-]C(C=O)CC(=O)[O-] (protonated)
[NH-]C(=O)c1cc2ccc(C(F)(F)F)cc2n1C(=O)C(=O)[N-]CC(=O)[N-][C@@H](C=O)CC(=O)[O-] (chirality)
[NH-]C(=O)c1cc2ccc(C(F)(F)F)cc2n1C(=O)C(=O)[N-]CC(=O)[N-][C@@H](C=O)CC(=O)[O-] (3D coordinates assigned)
[NH-]C(=O)c1cc2ccc(C(F)(F)F)cc2n1C(=O)C(=O)[N-]CC(=O)[N-][C@@H](C=O)CC(=O)[O-] (optimized conformer: 77.62904165182971 kcal/mol)

>  <smiles>  (27) 
NC(=O)c1cc2ccc(C(F)(F)F)cc2n1C(=O)C(=O)NCC(=O)NC(C=O)CC(=O)O

>  <score_type>  (27) 
oracle

>  <origin>  (27) 
adg

>  <m_score__min__energy>  (27) 
-12.460000000000001

>  <m_primary>  (27) 
energy

$$$$
27:0
     RDKit          3D

 42 43  0  0  0  0  0  0  0  0999 V2000
   -3.5530   25.2120  -30.0930 N   0  0  0  0  0  0  0  0  0  0  0  0
   -4.9220   25.3060  -30.4820 C   0  0  0  0  0  0  0  0  0  0  0  0
   -5.4600   26.4390  -30.5770 O   0  0  0  0  0  0  0  0  0  0  0  0
   -5.7010   24.0740  -30.7310 C   0  0  0  0  0  0  0  0  0  0  0  0
   -7.0320   23.9150  -30.3480 C   0  0  0  0  0  0  0  0  0  0  0  0
   -7.4080   22.6870  -30.8440 C   0  0  0  0  0  0  0  0  0  0  0  0
   -8.6290   22.0250  -30.7610 C   0  0  0  0  0  0  0  0  0  0  0  0
   -8.7330   20.7560  -31.3550 C   0  0  0  0  0  0  0  0  0  0  0  0
   -7.6130   20.1610  -31.9950 C   0  0  0  0  0  0  0  0  0  0  0  0
   -7.7390   18.8140  -32.6620 C   0  0  0  0  0  0  0  0  0  0  0  0
   -6.8880   18.7330  -33.7510 F   0  0  0  0  0  0  0  0  0  0  0  0
   -9.0420   18.6390  -33.0930 F   0  0  0  0  0  0  0  0  0  0  0  0
   -7.4150   17.7950  -31.7840 F   0  0  0  0  0  0  0  0  0  0  0  0
   -6.3970   20.8770  -32.0770 C   0  0  0  0  0  0  0  0  0  0  0  0
   -6.3300   22.1470  -31.4920 C   0  0  0  0  0  0  0  0  0  0  0  0
   -5.2720   22.9840  -31.4280 N   0  0  0  0  0  0  0  0  0  0  0  0
   -3.9580   22.7360  -31.9510 C   0  0  0  0  0  0  0  0  0  0  0  0
   -3.8220   22.3300  -33.1380 O   0  0  0  0  0  0  0  0  0  0  0  0
   -2.8350   22.9610  -31.1470 O   0  0  0  0  0  0  0  0  0  0  0  0
   -1.9380   21.9280  -30.7470 C   0  0  0  0  0  0  0  0  0  0  0  0
   -1.5570   22.1050  -29.3090 C   0  0  0  0  0  0  0  0  0  0  0  0
   -0.9280   21.1840  -28.7180 O   0  0  0  0  0  0  0  0  0  0  0  0
   -1.8480   23.3330  -28.6290 N   0  0  0  0  0  0  0  0  0  0  0  0
   -1.3660   23.5860  -27.2710 C   0  0  0  0  0  0  0  0  0  0  0  0
   -0.6830   24.9560  -27.1600 C   0  0  0  0  0  0  0  0  0  0  0  0
   -1.4180   26.0310  -27.9710 C   0  0  0  0  0  0  0  0  0  0  0  0
   -1.1850   25.8450  -29.3420 O   0  0  0  0  0  0  0  0  0  0  0  0
   -2.7910   25.2200  -30.8050 H   0  0  0  0  0  0  0  0  0  0  0  0
   -7.6498   24.6201  -29.7725 H   0  0  0  0  0  0  0  0  0  0  0  0
   -9.4871   22.4814  -30.2458 H   0  0  0  0  0  0  0  0  0  0  0  0
   -9.6917   20.2176  -31.3242 H   0  0  0  0  0  0  0  0  0  0  0  0
   -5.5237   20.4463  -32.5886 H   0  0  0  0  0  0  0  0  0  0  0  0
   -2.4272   20.9513  -30.8762 H   0  0  0  0  0  0  0  0  0  0  0  0
   -1.0316   21.9778  -31.3683 H   0  0  0  0  0  0  0  0  0  0  0  0
   -2.4210   24.0540  -29.1240 H   0  0  0  0  0  0  0  0  0  0  0  0
   -2.2195   23.5554  -26.5778 H   0  0  0  0  0  0  0  0  0  0  0  0
   -0.6268   22.8115  -27.0184 H   0  0  0  0  0  0  0  0  0  0  0  0
   -0.6645   25.2592  -26.1028 H   0  0  0  0  0  0  0  0  0  0  0  0
    0.3357   24.8620  -27.5644 H   0  0  0  0  0  0  0  0  0  0  0  0
   -2.4978   25.9613  -27.7729 H   0  0  0  0  0  0  0  0  0  0  0  0
   -1.0459   27.0227  -27.6742 H   0  0  0  0  0  0  0  0  0  0  0  0
   -2.0680   25.6760  -29.7610 H   0  0  0  0  0  0  0  0  0  0  0  0
  1  2  1  0
  2  3  2  0
  2  4  1  0
  4  5  2  0
  5  6  1  0
  6  7  2  0
  7  8  1  0
  8  9  2  0
  9 10  1  0
 10 11  1  0
 10 12  1  0
 10 13  1  0
  9 14  1  0
 14 15  2  0
 15 16  1  0
 16 17  1  0
 17 18  2  0
 17 19  1  0
 19 20  1  0
 20 21  1  0
 21 22  2  0
 21 23  1  0
 23 24  1  0
 24 25  1  0
 25 26  1  0
 26 27  1  0
 16  4  1  0
 15  6  1  0
  1 28  1  0
  5 29  1  0
  7 30  1  0
  8 31  1  0
 14 32  1  0
 20 33  1  0
 20 34  1  0
 23 35  1  0
 24 36  1  0
 24 37  1  0
 25 38  1  0
 25 39  1  0
 26 40  1  0
 26 41  1  0
 27 42  1  0
M  CHG  1   1  -1
M  END
>  <UniqueID>  (28) 
28

>  <SMILES>  (28) 
[NH-]C(=O)c1cc2ccc(C(F)(F)F)cc2n1C(=O)OCC(=O)NCCCO

>  <Energy>  (28) 
71.74332774222489

>  <Genealogy>  (28) 
[NH-]C(=O)c1cc2ccc(C(F)(F)F)cc2n1C(=O)OCC(=O)NCCCO (protonated)
[NH-]C(=O)c1cc2ccc(C(F)(F)F)cc2n1C(=O)OCC(=O)NCCCO (3D coordinates assigned)
[NH-]C(=O)c1cc2ccc(C(F)(F)F)cc2n1C(=O)OCC(=O)NCCCO (optimized conformer: 71.74332774222489 kcal/mol)

>  <smiles>  (28) 
NC(=O)c1cc2ccc(C(F)(F)F)cc2n1C(=O)OCC(=O)NCCCO

>  <score_type>  (28) 
oracle

>  <origin>  (28) 
adg

>  <m_score__min__energy>  (28) 
-9.9299999999999997

>  <m_primary>  (28) 
energy

$$$$
28:0
     RDKit          3D

 36 37  0  0  0  0  0  0  0  0999 V2000
   -7.1700   17.4740  -33.1930 C   0  0  0  0  0  0  0  0  0  0  0  0
   -7.4180   18.8150  -32.5700 C   0  0  0  0  0  0  0  0  0  0  0  0
   -8.6550   19.0870  -31.9360 C   0  0  0  0  0  0  0  0  0  0  0  0
   -8.8790   20.3220  -31.3040 C   0  0  0  0  0  0  0  0  0  0  0  0
   -7.8490   21.2600  -31.3220 C   0  0  0  0  0  0  0  0  0  0  0  0
   -7.7850   22.5160  -30.7630 C   0  0  0  0  0  0  0  0  0  0  0  0
   -6.5100   22.9930  -31.0690 C   0  0  0  0  0  0  0  0  0  0  0  0
   -6.0060   24.3390  -30.7060 C   0  0  0  0  0  0  0  0  0  0  0  0
   -5.6760   24.6610  -29.3520 N   0  0  0  0  0  0  0  0  0  0  0  0
   -5.8710   25.2230  -31.5920 O   0  0  0  0  0  0  0  0  0  0  0  0
   -5.8220   22.0680  -31.7960 N   0  0  0  0  0  0  0  0  0  0  0  0
   -4.4760   22.1720  -32.2850 C   0  0  0  0  0  0  0  0  0  0  0  0
   -4.2270   21.8810  -33.4870 O   0  0  0  0  0  0  0  0  0  0  0  0
   -3.3520   22.5420  -31.3590 C   0  0  0  0  0  0  0  0  0  0  0  0
   -3.5740   21.9970  -29.9820 C   0  0  0  0  0  0  0  0  0  0  0  0
   -3.6080   20.7500  -29.7960 O   0  0  0  0  0  0  0  0  0  0  0  0
   -3.7650   22.8980  -28.8860 N   0  0  0  0  0  0  0  0  0  0  0  0
   -2.7180   23.7720  -28.3680 C   0  0  0  0  0  0  0  0  0  0  0  0
   -2.5080   24.9330  -29.2850 C   0  0  0  0  0  0  0  0  0  0  0  0
   -1.4430   25.6020  -29.2230 O   0  0  0  0  0  0  0  0  0  0  0  0
   -3.4720   25.2590  -30.2290 O   0  0  0  0  0  0  0  0  0  0  0  0
   -6.6500   21.0130  -31.9370 C   0  0  0  0  0  0  0  0  0  0  0  0
   -6.3910   19.7850  -32.5530 C   0  0  0  0  0  0  0  0  0  0  0  0
   -7.0310   16.7223  -32.4020 H   0  0  0  0  0  0  0  0  0  0  0  0
   -8.0317   17.1946  -33.8170 H   0  0  0  0  0  0  0  0  0  0  0  0
   -6.2654   17.5213  -33.8170 H   0  0  0  0  0  0  0  0  0  0  0  0
   -9.4478   18.3244  -31.9383 H   0  0  0  0  0  0  0  0  0  0  0  0
   -9.8374   20.5412  -30.8106 H   0  0  0  0  0  0  0  0  0  0  0  0
   -8.5721   23.0340  -30.1954 H   0  0  0  0  0  0  0  0  0  0  0  0
   -5.7070   23.9430  -28.5950 H   0  0  0  0  0  0  0  0  0  0  0  0
   -5.3550   25.6240  -29.1090 H   0  0  0  0  0  0  0  0  0  0  0  0
   -2.4114   22.1341  -31.7576 H   0  0  0  0  0  0  0  0  0  0  0  0
   -3.3059   23.6390  -31.2929 H   0  0  0  0  0  0  0  0  0  0  0  0
   -3.0135   24.1428  -27.3755 H   0  0  0  0  0  0  0  0  0  0  0  0
   -1.7806   23.2012  -28.2944 H   0  0  0  0  0  0  0  0  0  0  0  0
   -5.4130   19.5794  -33.0125 H   0  0  0  0  0  0  0  0  0  0  0  0
  1  2  1  0
  2  3  2  0
  3  4  1  0
  4  5  2  0
  5  6  1  0
  6  7  2  0
  7  8  1  0
  8  9  1  0
  8 10  2  0
  7 11  1  0
 11 12  1  0
 12 13  2  0
 12 14  1  0
 14 15  1  0
 15 16  2  0
 15 17  1  0
 17 18  1  0
 18 19  1  0
 19 20  2  0
 19 21  1  0
 11 22  1  0
 22 23  2  0
 23  2  1  0
 22  5  1  0
  1 24  1  0
  1 25  1  0
  1 26  1  0
  3 27  1  0
  4 28  1  0
  6 29  1  0
  9 30  1  0
  9 31  1  0
 14 32  1  0
 14 33  1  0
 18 34  1  0
 18 35  1  0
 23 36  1  0
M  CHG  2  17  -1  21  -1
M  END
>  <UniqueID>  (29) 
29

>  <SMILES>  (29) 
Cc1ccc2cc(C(N)=O)n(C(=O)CC(=O)[N-]CC(=O)[O-])c2c1

>  <Energy>  (29) 
70.31425568543628

>  <Genealogy>  (29) 
Cc1ccc2cc(C(N)=O)n(C(=O)CC(=O)[N-]CC(=O)[O-])c2c1 (protonated)
Cc1ccc2cc(C(N)=O)n(C(=O)CC(=O)[N-]CC(=O)[O-])c2c1 (3D coordinates assigned)
Cc1ccc2cc(C(N)=O)n(C(=O)CC(=O)[N-]CC(=O)[O-])c2c1 (optimized conformer: 70.31425568543628 kcal/mol)

>  <smiles>  (29) 
Cc1ccc2cc(C(N)=O)n(C(=O)CC(=O)NCC(=O)O)c2c1

>  <score_type>  (29) 
oracle

>  <origin>  (29) 
adg

>  <m_score__min__energy>  (29) 
-11.720000000000001

>  <m_primary>  (29) 
energy

$$$$
29:0
     RDKit          3D

 36 37  0  0  0  0  0  0  0  0999 V2000
   -4.0480   25.6740  -30.8460 N   0  0  0  0  0  0  0  0  0  0  0  0
   -5.3230   25.1870  -30.4340 C   0  0  0  0  0  0  0  0  0  0  0  0
   -6.0590   25.9180  -29.7180 O   0  0  0  0  0  0  0  0  0  0  0  0
   -5.7910   23.8420  -30.8320 C   0  0  0  0  0  0  0  0  0  0  0  0
   -7.1200   23.5360  -31.1210 C   0  0  0  0  0  0  0  0  0  0  0  0
   -7.1220   22.1990  -31.4550 C   0  0  0  0  0  0  0  0  0  0  0  0
   -8.1740   21.3690  -31.8310 C   0  0  0  0  0  0  0  0  0  0  0  0
   -7.8810   20.0230  -32.1130 C   0  0  0  0  0  0  0  0  0  0  0  0
   -6.5550   19.5280  -31.9990 C   0  0  0  0  0  0  0  0  0  0  0  0
   -6.2590   18.0860  -32.3360 C   0  0  0  0  0  0  0  0  0  0  0  0
   -5.3000   18.0000  -33.3310 F   0  0  0  0  0  0  0  0  0  0  0  0
   -5.7840   17.4190  -31.2190 F   0  0  0  0  0  0  0  0  0  0  0  0
   -7.4200   17.4710  -32.7720 F   0  0  0  0  0  0  0  0  0  0  0  0
   -5.5110   20.4130  -31.6430 C   0  0  0  0  0  0  0  0  0  0  0  0
   -5.8330   21.7430  -31.3650 C   0  0  0  0  0  0  0  0  0  0  0  0
   -5.0080   22.7350  -30.9770 N   0  0  0  0  0  0  0  0  0  0  0  0
   -3.5970   22.6110  -30.7470 C   0  0  0  0  0  0  0  0  0  0  0  0
   -2.8390   22.3590  -31.7260 O   0  0  0  0  0  0  0  0  0  0  0  0
   -3.0510   22.7310  -29.4140 N   0  0  0  0  0  0  0  0  0  0  0  0
   -3.9390   22.8090  -28.2450 C   0  0  0  0  0  0  0  0  0  0  0  0
   -4.0570   24.2250  -27.7680 C   0  0  0  0  0  0  0  0  0  0  0  0
   -4.2730   24.4560  -26.5900 O   0  0  0  0  0  0  0  0  0  0  0  0
   -1.5960   22.7870  -29.2170 C   0  0  0  0  0  0  0  0  0  0  0  0
   -1.1520   24.2050  -29.0290 C   0  0  0  0  0  0  0  0  0  0  0  0
    0.0120   24.4580  -28.6190 O   0  0  0  0  0  0  0  0  0  0  0  0
   -2.0200   25.2530  -29.3240 O   0  0  0  0  0  0  0  0  0  0  0  0
   -3.1670   25.2580  -30.4690 H   0  0  0  0  0  0  0  0  0  0  0  0
   -7.9834   24.2169  -31.0892 H   0  0  0  0  0  0  0  0  0  0  0  0
   -9.2019   21.7537  -31.9052 H   0  0  0  0  0  0  0  0  0  0  0  0
   -8.6889   19.3452  -32.4258 H   0  0  0  0  0  0  0  0  0  0  0  0
   -4.4700   20.0620  -31.5864 H   0  0  0  0  0  0  0  0  0  0  0  0
   -4.9361   22.4364  -28.5225 H   0  0  0  0  0  0  0  0  0  0  0  0
   -3.5161   22.1955  -27.4359 H   0  0  0  0  0  0  0  0  0  0  0  0
   -3.9488   25.0561  -28.4805 H   0  0  0  0  0  0  0  0  0  0  0  0
   -1.3276   22.2013  -28.3254 H   0  0  0  0  0  0  0  0  0  0  0  0
   -1.0980   22.3705  -30.1050 H   0  0  0  0  0  0  0  0  0  0  0  0
  1  2  1  0
  2  3  2  0
  2  4  1  0
  4  5  2  0
  5  6  1  0
  6  7  2  0
  7  8  1  0
  8  9  2  0
  9 10  1  0
 10 11  1  0
 10 12  1  0
 10 13  1  0
  9 14  1  0
 14 15  2  0
 15 16  1  0
 16 17  1  0
 17 18  2  0
 17 19  1  0
 19 20  1  0
 20 21  1  0
 21 22  2  0
 19 23  1  0
 23 24  1  0
 24 25  2  0
 24 26  1  0
 16  4  1  0
 15  6  1  0
  1 27  1  0
  5 28  1  0
  7 29  1  0
  8 30  1  0
 14 31  1  0
 20 32  1  0
 20 33  1  0
 21 34  1  0
 23 35  1  0
 23 36  1  0
M  CHG  2   1  -1  26  -1
M  END
>  <UniqueID>  (30) 
30

>  <SMILES>  (30) 
[NH-]C(=O)c1cc2ccc(C(F)(F)F)cc2n1C(=O)N(CC=O)CC(=O)[O-]

>  <Energy>  (30) 
72.53426761888288

>  <Genealogy>  (30) 
[NH-]C(=O)c1cc2ccc(C(F)(F)F)cc2n1C(=O)N(CC=O)CC(=O)[O-] (protonated)
[NH-]C(=O)c1cc2ccc(C(F)(F)F)cc2n1C(=O)N(CC=O)CC(=O)[O-] (3D coordinates assigned)
[NH-]C(=O)c1cc2ccc(C(F)(F)F)cc2n1C(=O)N(CC=O)CC(=O)[O-] (optimized conformer: 72.53426761888288 kcal/mol)

>  <smiles>  (30) 
NC(=O)c1cc2ccc(C(F)(F)F)cc2n1C(=O)N(CC=O)CC(=O)O

>  <score_type>  (30) 
oracle

>  <origin>  (30) 
adg

>  <m_score__min__energy>  (30) 
-11.720000000000001

>  <m_primary>  (30) 
energy

$$$$
30:0
     RDKit          3D

 36 37  0  0  0  0  0  0  0  0999 V2000
   -7.6560   18.4730  -32.7180 C   0  0  0  0  0  0  0  0  0  0  0  0
   -7.6390   19.9270  -32.3540 C   0  0  0  0  0  0  0  0  0  0  0  0
   -8.8500   20.6620  -32.3100 C   0  0  0  0  0  0  0  0  0  0  0  0
   -8.8520   22.0190  -31.9420 C   0  0  0  0  0  0  0  0  0  0  0  0
   -7.6340   22.6050  -31.6090 C   0  0  0  0  0  0  0  0  0  0  0  0
   -7.3450   23.8960  -31.2250 C   0  0  0  0  0  0  0  0  0  0  0  0
   -5.9670   23.9180  -31.0110 C   0  0  0  0  0  0  0  0  0  0  0  0
   -5.2370   25.0990  -30.5050 C   0  0  0  0  0  0  0  0  0  0  0  0
   -3.8700   25.3180  -30.8460 N   0  0  0  0  0  0  0  0  0  0  0  0
   -5.8160   25.9060  -29.7300 O   0  0  0  0  0  0  0  0  0  0  0  0
   -5.4280   22.6920  -31.2650 N   0  0  0  0  0  0  0  0  0  0  0  0
   -4.0440   22.3080  -31.2270 C   0  0  0  0  0  0  0  0  0  0  0  0
   -3.4990   21.8450  -32.2650 O   0  0  0  0  0  0  0  0  0  0  0  0
   -3.2460   22.4880  -30.0050 C   0  0  0  0  0  0  0  0  0  0  0  0
   -3.6220   21.9580  -28.9250 O   0  0  0  0  0  0  0  0  0  0  0  0
   -2.0540   23.2780  -30.0460 N   0  0  0  0  0  0  0  0  0  0  0  0
   -1.0810   23.3420  -28.9590 C   0  0  0  0  0  0  0  0  0  0  0  0
   -1.4650   24.4330  -27.9510 C   0  0  2  0  0  0  0  0  0  0  0  0
   -2.8380   24.7070  -28.0400 O   0  0  0  0  0  0  0  0  0  0  0  0
   -0.6770   25.6820  -28.2240 C   0  0  0  0  0  0  0  0  0  0  0  0
    0.4900   25.8110  -27.7680 O   0  0  0  0  0  0  0  0  0  0  0  0
   -1.2510   26.7200  -28.9480 O   0  0  0  0  0  0  0  0  0  0  0  0
   -6.4590   21.9000  -31.6220 C   0  0  0  0  0  0  0  0  0  0  0  0
   -6.4250   20.5520  -31.9940 C   0  0  0  0  0  0  0  0  0  0  0  0
   -7.6631   17.8655  -31.8010 H   0  0  0  0  0  0  0  0  0  0  0  0
   -8.5568   18.2537  -33.3101 H   0  0  0  0  0  0  0  0  0  0  0  0
   -6.7606   18.2327  -33.3101 H   0  0  0  0  0  0  0  0  0  0  0  0
   -9.7977   20.1659  -32.5663 H   0  0  0  0  0  0  0  0  0  0  0  0
   -9.7863   22.5991  -31.9180 H   0  0  0  0  0  0  0  0  0  0  0  0
   -8.0510   24.7319  -31.1113 H   0  0  0  0  0  0  0  0  0  0  0  0
   -3.1200   25.2580  -30.1230 H   0  0  0  0  0  0  0  0  0  0  0  0
   -1.0497   22.3701  -28.4447 H   0  0  0  0  0  0  0  0  0  0  0  0
   -0.0942   23.5823  -29.3814 H   0  0  0  0  0  0  0  0  0  0  0  0
   -1.2357   24.0775  -26.9356 H   0  0  0  0  0  0  0  0  0  0  0  0
   -3.1190   24.4690  -28.9620 H   0  0  0  0  0  0  0  0  0  0  0  0
   -5.4774   19.9935  -32.0058 H   0  0  0  0  0  0  0  0  0  0  0  0
  1  2  1  0
  2  3  2  0
  3  4  1  0
  4  5  2  0
  5  6  1  0
  6  7  2  0
  7  8  1  0
  8  9  1  0
  8 10  2  0
  7 11  1  0
 11 12  1  0
 12 13  2  0
 12 14  1  0
 14 15  2  0
 14 16  1  0
 16 17  1  0
 17 18  1  0
 18 19  1  0
 18 20  1  0
 20 21  2  0
 20 22  1  0
 11 23  1  0
 23 24  2  0
 24  2  1  0
 23  5  1  0
  1 25  1  0
  1 26  1  0
  1 27  1  0
  3 28  1  0
  4 29  1  0
  6 30  1  0
  9 31  1  0
 17 32  1  0
 17 33  1  0
 18 34  1  1
 19 35  1  0
 24 36  1  0
M  CHG  3   9  -1  16  -1  22  -1
M  END
>  <UniqueID>  (31) 
31

>  <SMILES>  (31) 
Cc1ccc2cc(C([NH-])=O)n(C(=O)C(=O)[N-]C[C@H](O)C(=O)[O-])c2c1

>  <Energy>  (31) 
71.08860679455589

>  <Genealogy>  (31) 
Cc1ccc2cc(C([NH-])=O)n(C(=O)C(=O)[N-]CC(O)C(=O)[O-])c2c1 (protonated)
Cc1ccc2cc(C([NH-])=O)n(C(=O)C(=O)[N-]C[C@H](O)C(=O)[O-])c2c1 (chirality)
Cc1ccc2cc(C([NH-])=O)n(C(=O)C(=O)[N-]C[C@H](O)C(=O)[O-])c2c1 (3D coordinates assigned)
Cc1ccc2cc(C([NH-])=O)n(C(=O)C(=O)[N-]C[C@H](O)C(=O)[O-])c2c1 (optimized conformer: 71.08860679455589 kcal/mol)

>  <smiles>  (31) 
Cc1ccc2cc(C(N)=O)n(C(=O)C(=O)NCC(O)C(=O)O)c2c1

>  <score_type>  (31) 
oracle

>  <origin>  (31) 
adg

>  <m_score__min__energy>  (31) 
-12.25

>  <m_primary>  (31) 
energy

$$$$
31:0
     RDKit          3D

 41 42  0  0  0  0  0  0  0  0999 V2000
   -6.3080   17.9040  -32.7520 C   0  0  0  0  0  0  0  0  0  0  0  0
   -7.2170   18.8110  -33.4540 N   0  0  0  0  0  0  0  0  0  0  0  0
   -7.2940   20.0730  -32.7620 C   0  0  0  0  0  0  0  0  0  0  0  0
   -8.5560   20.6280  -32.4280 C   0  0  0  0  0  0  0  0  0  0  0  0
   -8.6440   21.8780  -31.7920 C   0  0  0  0  0  0  0  0  0  0  0  0
   -7.4590   22.5470  -31.5020 C   0  0  0  0  0  0  0  0  0  0  0  0
   -7.2610   23.7800  -30.9260 C   0  0  0  0  0  0  0  0  0  0  0  0
   -5.8800   23.9590  -30.9010 C   0  0  0  0  0  0  0  0  0  0  0  0
   -5.2260   25.1340  -30.2900 C   0  0  0  0  0  0  0  0  0  0  0  0
   -4.0270   25.6540  -30.8580 N   0  0  0  0  0  0  0  0  0  0  0  0
   -5.7360   25.7100  -29.2930 O   0  0  0  0  0  0  0  0  0  0  0  0
   -5.2470   22.8800  -31.4460 N   0  0  0  0  0  0  0  0  0  0  0  0
   -3.8390   22.7130  -31.6860 C   0  0  0  0  0  0  0  0  0  0  0  0
   -3.4510   22.0720  -32.7000 O   0  0  0  0  0  0  0  0  0  0  0  0
   -2.9140   23.2870  -30.8020 O   0  0  0  0  0  0  0  0  0  0  0  0
   -2.6060   22.8260  -29.4760 C   0  0  0  0  0  0  0  0  0  0  0  0
   -1.7350   21.5670  -29.6240 C   0  0  0  0  0  0  0  0  0  0  0  0
   -3.9010   22.4430  -28.7350 C   0  0  0  0  0  0  0  0  0  0  0  0
   -1.8260   23.8950  -28.6740 C   0  0  0  0  0  0  0  0  0  0  0  0
   -1.8170   25.1260  -29.3480 O   0  0  0  0  0  0  0  0  0  0  0  0
   -6.2310   22.0240  -31.8080 C   0  0  0  0  0  0  0  0  0  0  0  0
   -6.1120   20.7900  -32.4600 C   0  0  0  0  0  0  0  0  0  0  0  0
   -6.4324   18.0281  -31.6661 H   0  0  0  0  0  0  0  0  0  0  0  0
   -6.5386   16.8653  -33.0311 H   0  0  0  0  0  0  0  0  0  0  0  0
   -5.2698   18.1368  -33.0311 H   0  0  0  0  0  0  0  0  0  0  0  0
   -6.8730   18.9560  -34.4320 H   0  0  0  0  0  0  0  0  0  0  0  0
   -8.1660   18.3720  -33.5080 H   0  0  0  0  0  0  0  0  0  0  0  0
   -9.4753   20.0742  -32.6693 H   0  0  0  0  0  0  0  0  0  0  0  0
   -9.6197   22.3141  -31.5315 H   0  0  0  0  0  0  0  0  0  0  0  0
   -8.0302   24.4771  -30.5622 H   0  0  0  0  0  0  0  0  0  0  0  0
   -3.0920   25.2930  -30.5630 H   0  0  0  0  0  0  0  0  0  0  0  0
   -1.4706   21.1848  -28.6270 H   0  0  0  0  0  0  0  0  0  0  0  0
   -2.2944   20.7969  -30.1754 H   0  0  0  0  0  0  0  0  0  0  0  0
   -0.8171   21.8189  -30.1754 H   0  0  0  0  0  0  0  0  0  0  0  0
   -3.7308   22.4933  -27.6494 H   0  0  0  0  0  0  0  0  0  0  0  0
   -4.7032   23.1424  -29.0132 H   0  0  0  0  0  0  0  0  0  0  0  0
   -4.1937   21.4198  -29.0132 H   0  0  0  0  0  0  0  0  0  0  0  0
   -2.3037   24.0267  -27.6919 H   0  0  0  0  0  0  0  0  0  0  0  0
   -0.7869   23.5538  -28.5561 H   0  0  0  0  0  0  0  0  0  0  0  0
   -1.9640   24.9270  -30.3090 H   0  0  0  0  0  0  0  0  0  0  0  0
   -5.1243   20.3883  -32.7305 H   0  0  0  0  0  0  0  0  0  0  0  0
  1  2  1  0
  2  3  1  0
  3  4  2  0
  4  5  1  0
  5  6  2  0
  6  7  1  0
  7  8  2  0
  8  9  1  0
  9 10  1  0
  9 11  2  0
  8 12  1  0
 12 13  1  0
 13 14  2  0
 13 15  1  0
 15 16  1  0
 16 17  1  0
 16 18  1  0
 16 19  1  0
 19 20  1  0
 12 21  1  0
 21 22  2  0
 22  3  1  0
 21  6  1  0
  1 23  1  0
  1 24  1  0
  1 25  1  0
  2 26  1  0
  2 27  1  0
  4 28  1  0
  5 29  1  0
  7 30  1  0
 10 31  1  0
 17 32  1  0
 17 33  1  0
 17 34  1  0
 18 35  1  0
 18 36  1  0
 18 37  1  0
 19 38  1  0
 19 39  1  0
 20 40  1  0
 22 41  1  0
M  CHG  2   2   1  10  -1
M  END
>  <UniqueID>  (32) 
32

>  <SMILES>  (32) 
C[NH2+]c1ccc2cc(C([NH-])=O)n(C(=O)OC(C)(C)CO)c2c1

>  <Energy>  (32) 
75.40607580523293

>  <Genealogy>  (32) 
C[NH2+]c1ccc2cc(C([NH-])=O)n(C(=O)OC(C)(C)CO)c2c1 (protonated)
C[NH2+]c1ccc2cc(C([NH-])=O)n(C(=O)OC(C)(C)CO)c2c1 (3D coordinates assigned)
C[NH2+]c1ccc2cc(C([NH-])=O)n(C(=O)OC(C)(C)CO)c2c1 (optimized conformer: 75.40607580523293 kcal/mol)

>  <smiles>  (32) 
CNc1ccc2cc(C(N)=O)n(C(=O)OC(C)(C)CO)c2c1

>  <score_type>  (32) 
oracle

>  <origin>  (32) 
adg

>  <m_score__min__energy>  (32) 
-9.8300000000000001

>  <m_primary>  (32) 
energy

$$$$
32:0
     RDKit          3D

 37 38  0  0  0  0  0  0  0  0999 V2000
   -2.8580   20.6710  -29.6240 C   0  0  0  0  0  0  0  0  0  0  0  0
   -3.4150   22.0260  -29.6850 N   0  0  0  0  0  0  0  0  0  0  0  0
   -3.4370   22.8550  -28.5030 C   0  0  0  0  0  0  0  0  0  0  0  0
   -4.5350   23.0780  -27.9220 O   0  0  0  0  0  0  0  0  0  0  0  0
   -2.1630   23.3910  -27.9040 C   0  0  0  0  0  0  0  0  0  0  0  0
   -1.4890   24.3600  -28.8260 C   0  0  0  0  0  0  0  0  0  0  0  0
   -2.1520   25.2780  -29.3770 O   0  0  0  0  0  0  0  0  0  0  0  0
   -0.1190   24.2760  -29.0430 O   0  0  0  0  0  0  0  0  0  0  0  0
   -3.9060   22.5400  -30.9420 C   0  0  0  0  0  0  0  0  0  0  0  0
   -3.0950   22.8490  -31.8560 O   0  0  0  0  0  0  0  0  0  0  0  0
   -5.3150   22.7040  -31.1730 N   0  0  0  0  0  0  0  0  0  0  0  0
   -6.0840   23.8020  -30.9290 C   0  0  0  0  0  0  0  0  0  0  0  0
   -5.5940   25.1240  -30.4850 C   0  0  0  0  0  0  0  0  0  0  0  0
   -4.2220   25.4950  -30.6210 N   0  0  0  0  0  0  0  0  0  0  0  0
   -6.4130   25.9600  -30.0180 O   0  0  0  0  0  0  0  0  0  0  0  0
   -7.4250   23.5270  -31.1850 C   0  0  0  0  0  0  0  0  0  0  0  0
   -7.4530   22.2200  -31.6160 C   0  0  0  0  0  0  0  0  0  0  0  0
   -8.5290   21.4240  -31.9960 C   0  0  0  0  0  0  0  0  0  0  0  0
   -8.2650   20.0940  -32.3670 C   0  0  0  0  0  0  0  0  0  0  0  0
   -6.9410   19.5860  -32.3450 C   0  0  0  0  0  0  0  0  0  0  0  0
   -6.6660   18.1600  -32.7250 C   0  0  0  0  0  0  0  0  0  0  0  0
   -7.7420   17.3660  -32.3690 F   0  0  0  0  0  0  0  0  0  0  0  0
   -6.4660   18.0720  -34.0900 F   0  0  0  0  0  0  0  0  0  0  0  0
   -5.8760   20.4240  -31.9480 C   0  0  0  0  0  0  0  0  0  0  0  0
   -6.1660   21.7470  -31.6010 C   0  0  0  0  0  0  0  0  0  0  0  0
   -2.7351   20.3721  -28.5726 H   0  0  0  0  0  0  0  0  0  0  0  0
   -3.5412   19.9707  -30.1268 H   0  0  0  0  0  0  0  0  0  0  0  0
   -1.8798   20.6537  -30.1268 H   0  0  0  0  0  0  0  0  0  0  0  0
   -2.3995   23.9020  -26.9590 H   0  0  0  0  0  0  0  0  0  0  0  0
   -1.4801   22.5461  -27.7316 H   0  0  0  0  0  0  0  0  0  0  0  0
   -3.8840   26.4040  -30.2330 H   0  0  0  0  0  0  0  0  0  0  0  0
   -3.5590   24.9230  -31.1900 H   0  0  0  0  0  0  0  0  0  0  0  0
   -8.2800   24.2091  -31.0677 H   0  0  0  0  0  0  0  0  0  0  0  0
   -9.5541   21.8229  -32.0058 H   0  0  0  0  0  0  0  0  0  0  0  0
   -9.0937   19.4407  -32.6775 H   0  0  0  0  0  0  0  0  0  0  0  0
   -5.7643   17.8147  -32.1979 H   0  0  0  0  0  0  0  0  0  0  0  0
   -4.8438   20.0453  -31.9126 H   0  0  0  0  0  0  0  0  0  0  0  0
  1  2  1  0
  2  3  1  0
  3  4  2  0
  3  5  1  0
  5  6  1  0
  6  7  2  0
  6  8  1  0
  2  9  1  0
  9 10  2  0
  9 11  1  0
 11 12  1  0
 12 13  1  0
 13 14  1  0
 13 15  2  0
 12 16  2  0
 16 17  1  0
 17 18  2  0
 18 19  1  0
 19 20  2  0
 20 21  1  0
 21 22  1  0
 21 23  1  0
 20 24  1  0
 24 25  2  0
 25 11  1  0
 25 17  1  0
  1 26  1  0
  1 27  1  0
  1 28  1  0
  5 29  1  0
  5 30  1  0
 14 31  1  0
 14 32  1  0
 16 33  1  0
 18 34  1  0
 19 35  1  0
 21 36  1  0
 24 37  1  0
M  CHG  1   8  -1
M  END
>  <UniqueID>  (33) 
33

>  <SMILES>  (33) 
CN(C(=O)CC(=O)[O-])C(=O)n1c(C(N)=O)cc2ccc(C(F)F)cc21

>  <Energy>  (33) 
77.63475910630733

>  <Genealogy>  (33) 
CN(C(=O)CC(=O)[O-])C(=O)n1c(C(N)=O)cc2ccc(C(F)F)cc21 (protonated)
CN(C(=O)CC(=O)[O-])C(=O)n1c(C(N)=O)cc2ccc(C(F)F)cc21 (3D coordinates assigned)
CN(C(=O)CC(=O)[O-])C(=O)n1c(C(N)=O)cc2ccc(C(F)F)cc21 (optimized conformer: 77.63475910630733 kcal/mol)

>  <smiles>  (33) 
CN(C(=O)CC(=O)O)C(=O)n1c(C(N)=O)cc2ccc(C(F)F)cc21

>  <score_type>  (33) 
oracle

>  <origin>  (33) 
adg

>  <m_score__min__energy>  (33) 
-10.94

>  <m_primary>  (33) 
energy

$$$$
33:0
     RDKit          3D

 55 56  0  0  0  0  0  0  0  0999 V2000
   -3.0730   25.2670  -30.3570 H   0  0  0  0  0  0  0  0  0  0  0  0
   -3.9050   25.6680  -30.8440 N   0  0  0  0  0  0  0  0  0  0  0  0
   -5.2260   25.2610  -30.4950 C   0  0  0  0  0  0  0  0  0  0  0  0
   -5.9600   26.0460  -29.8370 O   0  0  0  0  0  0  0  0  0  0  0  0
   -5.7140   23.9240  -30.8910 C   0  0  0  0  0  0  0  0  0  0  0  0
   -6.9560   23.6900  -31.4770 C   0  0  0  0  0  0  0  0  0  0  0  0
   -7.7396   24.4302  -31.6960 H   0  0  0  0  0  0  0  0  0  0  0  0
   -6.9950   22.3360  -31.7240 C   0  0  0  0  0  0  0  0  0  0  0  0
   -7.9960   21.5540  -32.2890 C   0  0  0  0  0  0  0  0  0  0  0  0
   -8.9421   22.0018  -32.6272 H   0  0  0  0  0  0  0  0  0  0  0  0
   -7.7620   20.1730  -32.4150 C   0  0  0  0  0  0  0  0  0  0  0  0
   -8.5393   19.5272  -32.8494 H   0  0  0  0  0  0  0  0  0  0  0  0
   -6.5340   19.6030  -31.9880 C   0  0  0  0  0  0  0  0  0  0  0  0
   -6.3150   18.1140  -32.0830 C   0  0  0  0  0  0  0  0  0  0  0  0
   -7.4120   17.4930  -32.6540 F   0  0  0  0  0  0  0  0  0  0  0  0
   -5.1990   17.8680  -32.8620 F   0  0  0  0  0  0  0  0  0  0  0  0
   -6.1150   17.5700  -30.8250 F   0  0  0  0  0  0  0  0  0  0  0  0
   -5.5530   20.4290  -31.3940 C   0  0  0  0  0  0  0  0  0  0  0  0
   -4.6099   20.0038  -31.0202 H   0  0  0  0  0  0  0  0  0  0  0  0
   -5.8100   21.7990  -31.2930 C   0  0  0  0  0  0  0  0  0  0  0  0
   -5.0090   22.7630  -30.7940 N   0  0  0  0  0  0  0  0  0  0  0  0
   -3.7170   22.5720  -30.1990 C   0  0  0  0  0  0  0  0  0  0  0  0
   -2.7220   23.1640  -30.6940 O   0  0  0  0  0  0  0  0  0  0  0  0
   -3.5160   21.7540  -28.9810 C   0  0  0  0  0  0  0  0  0  0  0  0
   -4.1224   22.0131  -28.1006 H   0  0  0  0  0  0  0  0  0  0  0  0
   -2.6630   20.7260  -28.8510 C   0  0  0  0  0  0  0  0  0  0  0  0
   -2.6455   20.1950  -27.8878 H   0  0  0  0  0  0  0  0  0  0  0  0
   -1.7260   20.2470  -29.9330 C   0  0  0  0  0  0  0  0  0  0  0  0
   -2.2474   20.3050  -30.8998 H   0  0  0  0  0  0  0  0  0  0  0  0
   -1.4360   19.2151  -29.6856 H   0  0  0  0  0  0  0  0  0  0  0  0
   -0.4220   21.0900  -30.0210 C   0  0  1  0  0  0  0  0  0  0  0  0
   -0.6765   22.1572  -29.9421 H   0  0  0  0  0  0  0  0  0  0  0  0
    0.5110   20.7760  -28.8920 N   0  0  0  0  0  0  0  0  0  0  0  0
    0.2970   19.4290  -28.3200 C   0  0  0  0  0  0  0  0  0  0  0  0
    0.3069   19.4912  -27.2218 H   0  0  0  0  0  0  0  0  0  0  0  0
   -0.6745   19.0379  -28.6564 H   0  0  0  0  0  0  0  0  0  0  0  0
    1.0995   18.7561  -28.6564 H   0  0  0  0  0  0  0  0  0  0  0  0
    0.5140   21.7970  -27.8110 C   0  0  0  0  0  0  0  0  0  0  0  0
   -0.0582   21.4040  -26.9577 H   0  0  0  0  0  0  0  0  0  0  0  0
    1.5645   21.9928  -27.5499 H   0  0  0  0  0  0  0  0  0  0  0  0
   -0.0940   23.1090  -28.2310 C   0  0  0  0  0  0  0  0  0  0  0  0
    0.5620   23.8990  -28.9640 O   0  0  0  0  0  0  0  0  0  0  0  0
   -1.4040   23.4640  -27.7770 N   0  0  0  0  0  0  0  0  0  0  0  0
   -1.7150   24.7140  -27.0920 C   0  0  0  0  0  0  0  0  0  0  0  0
   -2.7971   24.7622  -26.9002 H   0  0  0  0  0  0  0  0  0  0  0  0
   -1.1599   24.7474  -26.1429 H   0  0  0  0  0  0  0  0  0  0  0  0
   -1.3020   25.9110  -27.9490 C   0  0  0  0  0  0  0  0  0  0  0  0
   -1.9093   26.7846  -27.6698 H   0  0  0  0  0  0  0  0  0  0  0  0
   -0.2365   26.1244  -27.7780 H   0  0  0  0  0  0  0  0  0  0  0  0
   -1.4990   25.6250  -29.3060 O   0  0  0  0  0  0  0  0  0  0  0  0
   -1.4580   24.6370  -29.3970 H   0  0  0  0  0  0  0  0  0  0  0  0
    0.2570   20.8050  -31.3820 C   0  0  0  0  0  0  0  0  0  0  0  0
    1.2589   20.3845  -31.2110 H   0  0  0  0  0  0  0  0  0  0  0  0
   -0.3502   20.0858  -31.9513 H   0  0  0  0  0  0  0  0  0  0  0  0
    0.3450   21.7421  -31.9513 H   0  0  0  0  0  0  0  0  0  0  0  0
  1  2  1  0
  2  3  1  0
  3  4  2  0
  3  5  1  0
  5  6  2  0
  6  7  1  0
  6  8  1  0
  8  9  2  0
  9 10  1  0
  9 11  1  0
 11 12  1  0
 11 13  2  0
 13 14  1  0
 14 15  1  0
 14 16  1  0
 14 17  1  0
 13 18  1  0
 18 19  1  0
 18 20  2  0
 20 21  1  0
 21 22  1  0
 22 23  2  0
 22 24  1  0
 24 25  1  0
 24 26  2  0
 26 27  1  0
 26 28  1  0
 28 29  1  0
 28 30  1  0
 28 31  1  0
 31 32  1  6
 31 33  1  0
 33 34  1  0
 34 35  1  0
 34 36  1  0
 34 37  1  0
 33 38  1  0
 38 39  1  0
 38 40  1  0
 38 41  1  0
 41 42  2  0
 41 43  1  0
 43 44  1  0
 44 45  1  0
 44 46  1  0
 44 47  1  0
 47 48  1  0
 47 49  1  0
 47 50  1  0
 50 51  1  0
 31 52  1  0
 52 53  1  0
 52 54  1  0
 52 55  1  0
 21  5  1  0
 20  8  1  0
M  CHG  2   2  -1  43  -1
M  END
>  <UniqueID>  (34) 
34

>  <SMILES>  (34) 
C[C@@H](C/C=C\C(=O)n1c(C([NH-])=O)cc2ccc(C(F)(F)F)cc21)N(C)CC(=O)[N-]CCO

>  <Energy>  (34) 
96.45400700705846

>  <Genealogy>  (34) 
C[C@@H](CC=CC(=O)n1c(C([NH-])=O)cc2ccc(C(F)(F)F)cc21)N(C)CC(=O)[N-]CCO (protonated)
C[C@@H](C/C=C\C(=O)n1c(C([NH-])=O)cc2ccc(C(F)(F)F)cc21)N(C)CC(=O)[N-]CCO (cis-trans isomerization)
C[C@@H](C/C=C\C(=O)n1c(C([NH-])=O)cc2ccc(C(F)(F)F)cc21)N(C)CC(=O)[N-]CCO (3D coordinates assigned)
C[C@@H](C/C=C\C(=O)n1c(C([NH-])=O)cc2ccc(C(F)(F)F)cc21)N(C)CC(=O)[N-]CCO (optimized conformer: 96.45400700705846 kcal/mol)

>  <smiles>  (34) 
C[C@@H](CC=CC(=O)n1c(C(N)=O)cc2ccc(C(F)(F)F)cc21)N(C)CC(=O)NCCO

>  <score_type>  (34) 
oracle

>  <origin>  (34) 
adg

>  <m_score__min__energy>  (34) 
-11.630000000000001

>  <m_primary>  (34) 
energy

$$$$
34:0
     RDKit          3D

 40 41  0  0  0  0  0  0  0  0999 V2000
   -7.5090   18.3450  -32.7610 C   0  0  0  0  0  0  0  0  0  0  0  0
   -7.5910   19.7880  -32.3650 C   0  0  0  0  0  0  0  0  0  0  0  0
   -8.8540   20.4000  -32.1720 C   0  0  0  0  0  0  0  0  0  0  0  0
   -8.9440   21.7450  -31.7740 C   0  0  0  0  0  0  0  0  0  0  0  0
   -7.7590   22.4430  -31.5600 C   0  0  0  0  0  0  0  0  0  0  0  0
   -7.5540   23.7530  -31.1900 C   0  0  0  0  0  0  0  0  0  0  0  0
   -6.1710   23.9070  -31.1270 C   0  0  0  0  0  0  0  0  0  0  0  0
   -5.5100   25.1520  -30.6790 C   0  0  0  0  0  0  0  0  0  0  0  0
   -4.1090   25.3430  -30.8580 N   0  0  0  0  0  0  0  0  0  0  0  0
   -6.1850   26.0410  -30.0930 O   0  0  0  0  0  0  0  0  0  0  0  0
   -5.5450   22.7420  -31.4540 N   0  0  0  0  0  0  0  0  0  0  0  0
   -4.1350   22.5090  -31.5980 C   0  0  0  0  0  0  0  0  0  0  0  0
   -3.6970   21.9410  -32.6350 O   0  0  0  0  0  0  0  0  0  0  0  0
   -3.2260   22.9510  -30.5830 N   0  0  0  0  0  0  0  0  0  0  0  0
   -1.7930   22.6660  -30.6550 C   0  0  0  0  0  0  0  0  0  0  0  0
   -1.3920   21.5570  -29.6740 C   0  0  0  0  0  0  0  0  0  0  0  0
   -0.1990   21.9520  -28.8380 C   0  0  0  0  0  0  0  0  0  0  0  0
    0.6050   21.0580  -28.4620 O   0  0  0  0  0  0  0  0  0  0  0  0
    0.0910   23.3160  -28.4960 N   0  0  0  0  0  0  0  0  0  0  0  0
   -0.7240   24.1880  -27.6560 C   0  0  0  0  0  0  0  0  0  0  0  0
   -1.7830   24.8600  -28.4700 C   0  0  0  0  0  0  0  0  0  0  0  0
   -1.4670   25.7080  -29.3450 O   0  0  0  0  0  0  0  0  0  0  0  0
   -3.1220   24.5720  -28.2440 O   0  0  0  0  0  0  0  0  0  0  0  0
   -6.5290   21.8540  -31.7110 C   0  0  0  0  0  0  0  0  0  0  0  0
   -6.4090   20.5220  -32.1220 C   0  0  0  0  0  0  0  0  0  0  0  0
   -7.4734   17.7183  -31.8577 H   0  0  0  0  0  0  0  0  0  0  0  0
   -8.3934   18.0778  -33.3580 H   0  0  0  0  0  0  0  0  0  0  0  0
   -6.6000   18.1797  -33.3580 H   0  0  0  0  0  0  0  0  0  0  0  0
   -9.7726   19.8173  -32.3351 H   0  0  0  0  0  0  0  0  0  0  0  0
   -9.9211   22.2311  -31.6359 H   0  0  0  0  0  0  0  0  0  0  0  0
   -8.3198   24.5162  -30.9872 H   0  0  0  0  0  0  0  0  0  0  0  0
   -3.5070   25.6650  -30.0680 H   0  0  0  0  0  0  0  0  0  0  0  0
   -3.6110   23.4930  -29.7780 H   0  0  0  0  0  0  0  0  0  0  0  0
   -1.5427   22.3468  -31.6775 H   0  0  0  0  0  0  0  0  0  0  0  0
   -1.2445   23.5807  -30.3858 H   0  0  0  0  0  0  0  0  0  0  0  0
   -2.2410   21.3481  -29.0065 H   0  0  0  0  0  0  0  0  0  0  0  0
   -1.1197   20.6658  -30.2585 H   0  0  0  0  0  0  0  0  0  0  0  0
   -1.2005   23.5880  -26.8667 H   0  0  0  0  0  0  0  0  0  0  0  0
   -0.0771   24.9575  -27.2095 H   0  0  0  0  0  0  0  0  0  0  0  0
   -5.4200   20.0585  -32.2525 H   0  0  0  0  0  0  0  0  0  0  0  0
  1  2  1  0
  2  3  2  0
  3  4  1  0
  4  5  2  0
  5  6  1  0
  6  7  2  0
  7  8  1  0
  8  9  1  0
  8 10  2  0
  7 11  1  0
 11 12  1  0
 12 13  2  0
 12 14  1  0
 14 15  1  0
 15 16  1  0
 16 17  1  0
 17 18  2  0
 17 19  1  0
 19 20  1  0
 20 21  1  0
 21 22  2  0
 21 23  1  0
 11 24  1  0
 24 25  2  0
 25  2  1  0
 24  5  1  0
  1 26  1  0
  1 27  1  0
  1 28  1  0
  3 29  1  0
  4 30  1  0
  6 31  1  0
  9 32  1  0
 14 33  1  0
 15 34  1  0
 15 35  1  0
 16 36  1  0
 16 37  1  0
 20 38  1  0
 20 39  1  0
 25 40  1  0
M  CHG  3   9  -1  19  -1  23  -1
M  END
>  <UniqueID>  (35) 
35

>  <SMILES>  (35) 
Cc1ccc2cc(C([NH-])=O)n(C(=O)NCCC(=O)[N-]CC(=O)[O-])c2c1

>  <Energy>  (35) 
71.18875051612643

>  <Genealogy>  (35) 
Cc1ccc2cc(C([NH-])=O)n(C(=O)NCCC(=O)[N-]CC(=O)[O-])c2c1 (protonated)
Cc1ccc2cc(C([NH-])=O)n(C(=O)NCCC(=O)[N-]CC(=O)[O-])c2c1 (3D coordinates assigned)
Cc1ccc2cc(C([NH-])=O)n(C(=O)NCCC(=O)[N-]CC(=O)[O-])c2c1 (optimized conformer: 71.18875051612643 kcal/mol)

>  <smiles>  (35) 
Cc1ccc2cc(C(N)=O)n(C(=O)NCCC(=O)NCC(=O)O)c2c1

>  <score_type>  (35) 
oracle

>  <origin>  (35) 
adg

>  <m_score__min__energy>  (35) 
-12.69

>  <m_primary>  (35) 
energy

$$$$
35:0
     RDKit          3D

 57 58  0  0  0  0  0  0  0  0999 V2000
   -3.4810   18.7370  -26.0500 C   0  0  0  0  0  0  0  0  0  0  0  0
   -3.4850   19.7540  -27.0390 O   0  0  0  0  0  0  0  0  0  0  0  0
   -2.1980   19.8980  -27.6030 C   0  0  0  0  0  0  0  0  0  0  0  0
   -2.2280   21.2900  -28.7810 P   0  0  2  0  0  0  0  0  0  0  0  0
   -2.9790   22.4090  -28.0990 O   0  0  0  0  0  0  0  0  0  0  0  0
   -3.1670   20.8960  -30.3010 C   0  0  0  0  0  0  0  0  0  0  0  0
   -3.7350   22.1070  -30.9860 C   0  0  0  0  0  0  0  0  0  0  0  0
   -2.9820   22.8820  -31.6310 O   0  0  0  0  0  0  0  0  0  0  0  0
   -5.1350   22.4170  -30.8800 N   0  0  0  0  0  0  0  0  0  0  0  0
   -5.7010   23.6140  -30.5530 C   0  0  0  0  0  0  0  0  0  0  0  0
   -4.9640   24.8410  -30.2050 C   0  0  0  0  0  0  0  0  0  0  0  0
   -3.5750   24.7960  -29.8840 N   0  0  0  0  0  0  0  0  0  0  0  0
   -5.5820   25.9410  -30.1560 O   0  0  0  0  0  0  0  0  0  0  0  0
   -7.0730   23.5850  -30.7680 C   0  0  0  0  0  0  0  0  0  0  0  0
   -7.3420   22.3170  -31.2360 C   0  0  0  0  0  0  0  0  0  0  0  0
   -8.5430   21.7450  -31.6510 C   0  0  0  0  0  0  0  0  0  0  0  0
   -8.5140   20.4190  -32.1270 C   0  0  0  0  0  0  0  0  0  0  0  0
   -7.2890   19.7070  -32.2040 C   0  0  0  0  0  0  0  0  0  0  0  0
   -7.2580   18.2810  -32.6730 C   0  0  0  0  0  0  0  0  0  0  0  0
   -6.0890   20.3260  -31.7900 C   0  0  0  0  0  0  0  0  0  0  0  0
   -6.1520   21.6360  -31.3020 C   0  0  0  0  0  0  0  0  0  0  0  0
   -0.6610   21.8910  -29.1180 O   0  0  0  0  0  0  0  0  0  0  0  0
   -0.7240   23.2110  -29.6120 C   0  0  0  0  0  0  0  0  0  0  0  0
   -0.2000   24.1380  -28.6610 O   0  0  0  0  0  0  0  0  0  0  0  0
   -0.9560   25.1840  -28.1190 C   0  0  0  0  0  0  0  0  0  0  0  0
   -1.3360   26.1370  -28.8580 O   0  0  0  0  0  0  0  0  0  0  0  0
   -1.3990   25.1160  -26.6690 C   0  0  0  0  0  0  0  0  0  0  0  0
   -0.7660   23.8970  -25.9670 C   0  0  0  0  0  0  0  0  0  0  0  0
   -2.9290   24.9850  -26.6330 C   0  0  0  0  0  0  0  0  0  0  0  0
   -0.9760   26.3990  -25.9220 C   0  0  0  0  0  0  0  0  0  0  0  0
   -3.4828   19.1972  -25.0509 H   0  0  0  0  0  0  0  0  0  0  0  0
   -4.3767   18.1091  -26.1661 H   0  0  0  0  0  0  0  0  0  0  0  0
   -2.5804   18.1162  -26.1661 H   0  0  0  0  0  0  0  0  0  0  0  0
   -1.4660   20.1020  -26.8076 H   0  0  0  0  0  0  0  0  0  0  0  0
   -1.9114   18.9725  -28.1238 H   0  0  0  0  0  0  0  0  0  0  0  0
   -2.4934   20.3828  -31.0031 H   0  0  0  0  0  0  0  0  0  0  0  0
   -4.0171   20.2653  -30.0016 H   0  0  0  0  0  0  0  0  0  0  0  0
   -3.1060   23.8870  -29.6860 H   0  0  0  0  0  0  0  0  0  0  0  0
   -3.0470   25.6810  -29.7150 H   0  0  0  0  0  0  0  0  0  0  0  0
   -7.7918   24.4006  -30.6004 H   0  0  0  0  0  0  0  0  0  0  0  0
   -9.4850   22.3113  -31.6083 H   0  0  0  0  0  0  0  0  0  0  0  0
   -9.4487   19.9318  -32.4415 H   0  0  0  0  0  0  0  0  0  0  0  0
   -7.2434   17.6089  -31.8023 H   0  0  0  0  0  0  0  0  0  0  0  0
   -8.1519   18.0752  -33.2801 H   0  0  0  0  0  0  0  0  0  0  0  0
   -6.3560   18.1142  -33.2801 H   0  0  0  0  0  0  0  0  0  0  0  0
   -5.1292   19.7919  -31.8496 H   0  0  0  0  0  0  0  0  0  0  0  0
   -0.1366   23.2765  -30.5397 H   0  0  0  0  0  0  0  0  0  0  0  0
   -1.7772   23.4636  -29.8045 H   0  0  0  0  0  0  0  0  0  0  0  0
   -0.8330   24.0261  -24.8767 H   0  0  0  0  0  0  0  0  0  0  0  0
   -1.3039   22.9839  -26.2619 H   0  0  0  0  0  0  0  0  0  0  0  0
    0.2903   23.8117  -26.2619 H   0  0  0  0  0  0  0  0  0  0  0  0
   -3.2700   24.9558  -25.5876 H   0  0  0  0  0  0  0  0  0  0  0  0
   -3.3830   25.8476  -27.1428 H   0  0  0  0  0  0  0  0  0  0  0  0
   -3.2297   24.0578  -27.1428 H   0  0  0  0  0  0  0  0  0  0  0  0
   -1.0327   26.2271  -24.8370 H   0  0  0  0  0  0  0  0  0  0  0  0
    0.0560   26.6608  -26.1984 H   0  0  0  0  0  0  0  0  0  0  0  0
   -1.6499   27.2233  -26.1984 H   0  0  0  0  0  0  0  0  0  0  0  0
  1  2  1  0
  2  3  1  0
  3  4  1  0
  4  5  2  0
  4  6  1  0
  6  7  1  0
  7  8  2  0
  7  9  1  0
  9 10  1  0
 10 11  1  0
 11 12  1  0
 11 13  2  0
 10 14  2  0
 14 15  1  0
 15 16  2  0
 16 17  1  0
 17 18  2  0
 18 19  1  0
 18 20  1  0
 20 21  2  0
  4 22  1  6
 22 23  1  0
 23 24  1  0
 24 25  1  0
 25 26  2  0
 25 27  1  0
 27 28  1  0
 27 29  1  0
 27 30  1  0
 21  9  1  0
 21 15  1  0
  1 31  1  0
  1 32  1  0
  1 33  1  0
  3 34  1  0
  3 35  1  0
  6 36  1  0
  6 37  1  0
 12 38  1  0
 12 39  1  0
 14 40  1  0
 16 41  1  0
 17 42  1  0
 19 43  1  0
 19 44  1  0
 19 45  1  0
 20 46  1  0
 23 47  1  0
 23 48  1  0
 28 49  1  0
 28 50  1  0
 28 51  1  0
 29 52  1  0
 29 53  1  0
 29 54  1  0
 30 55  1  0
 30 56  1  0
 30 57  1  0
M  END
>  <UniqueID>  (36) 
36

>  <SMILES>  (36) 
COC[P@](=O)(CC(=O)n1c(C(N)=O)cc2ccc(C)cc21)OCOC(=O)C(C)(C)C

>  <Energy>  (36) 
90.14550599987042

>  <Genealogy>  (36) 
COC[P@](=O)(CC(=O)n1c(C(N)=O)cc2ccc(C)cc21)OCOC(=O)C(C)(C)C (chirality)
COC[P@](=O)(CC(=O)n1c(C(N)=O)cc2ccc(C)cc21)OCOC(=O)C(C)(C)C (3D coordinates assigned)
COC[P@](=O)(CC(=O)n1c(C(N)=O)cc2ccc(C)cc21)OCOC(=O)C(C)(C)C (optimized conformer: 90.14550599987042 kcal/mol)

>  <smiles>  (36) 
COCP(=O)(CC(=O)n1c(C(N)=O)cc2ccc(C)cc21)OCOC(=O)C(C)(C)C

>  <score_type>  (36) 
oracle

>  <origin>  (36) 
adg

>  <m_score__min__energy>  (36) 
-9.0399999999999991

>  <m_primary>  (36) 
energy

$$$$
36:0
     RDKit          3D

 56 57  0  0  0  0  0  0  0  0999 V2000
   -8.4270   19.4050  -32.6830 C   0  0  0  0  0  0  0  0  0  0  0  0
   -6.9670   19.3340  -33.0180 C   0  0  0  0  0  0  0  0  0  0  0  0
   -6.4770   18.2920  -33.8420 C   0  0  0  0  0  0  0  0  0  0  0  0
   -5.1150   18.2270  -34.1790 C   0  0  0  0  0  0  0  0  0  0  0  0
   -4.2750   19.2270  -33.6940 C   0  0  0  0  0  0  0  0  0  0  0  0
   -2.9170   19.3910  -33.8450 C   0  0  0  0  0  0  0  0  0  0  0  0
   -2.6050   20.5530  -33.1420 C   0  0  0  0  0  0  0  0  0  0  0  0
   -1.2540   21.1580  -33.1020 C   0  0  0  0  0  0  0  0  0  0  0  0
   -0.6360   21.4800  -31.8550 N   0  0  0  0  0  0  0  0  0  0  0  0
   -0.6240   21.3670  -34.1720 O   0  0  0  0  0  0  0  0  0  0  0  0
   -3.7260   21.0870  -32.5800 N   0  0  0  0  0  0  0  0  0  0  0  0
   -3.8110   22.2380  -31.7240 C   0  0  0  0  0  0  0  0  0  0  0  0
   -4.5750   23.1950  -32.0290 O   0  0  0  0  0  0  0  0  0  0  0  0
   -3.0590   22.2860  -30.5460 O   0  0  0  0  0  0  0  0  0  0  0  0
   -3.1420   21.2870  -29.5360 C   0  0  0  0  0  0  0  0  0  0  0  0
   -2.0060   20.4320  -29.6140 O   0  0  0  0  0  0  0  0  0  0  0  0
   -1.1940   20.1520  -28.5130 C   0  0  0  0  0  0  0  0  0  0  0  0
   -1.5570   19.3070  -27.6470 O   0  0  0  0  0  0  0  0  0  0  0  0
    0.1190   20.8590  -28.3710 C   0  0  0  0  0  0  0  0  0  0  0  0
    1.0010   20.3360  -29.3020 F   0  0  0  0  0  0  0  0  0  0  0  0
    0.6550   20.6460  -27.1110 F   0  0  0  0  0  0  0  0  0  0  0  0
   -0.0460   22.3380  -28.6120 C   0  0  0  0  0  0  0  0  0  0  0  0
   -0.1870   22.7510  -29.7960 O   0  0  0  0  0  0  0  0  0  0  0  0
   -0.0240   23.2920  -27.5310 N   0  0  0  0  0  0  0  0  0  0  0  0
    1.1980   24.0740  -27.3260 C   0  0  0  0  0  0  0  0  0  0  0  0
   -1.1950   23.5010  -26.6640 C   0  0  0  0  0  0  0  0  0  0  0  0
   -2.5070   23.4460  -27.4650 C   0  0  0  0  0  0  0  0  0  0  0  0
   -2.7120   24.6410  -28.4260 C   0  0  1  0  0  0  0  0  0  0  0  0
   -1.6390   24.7260  -29.3300 O   0  0  0  0  0  0  0  0  0  0  0  0
   -4.0490   24.6000  -29.1940 C   0  0  0  0  0  0  0  0  0  0  0  0
   -3.8810   24.9820  -30.5340 O   0  0  0  0  0  0  0  0  0  0  0  0
   -4.7410   20.2620  -32.9250 C   0  0  0  0  0  0  0  0  0  0  0  0
   -6.0900   20.3410  -32.5590 C   0  0  0  0  0  0  0  0  0  0  0  0
   -8.5526   19.4111  -31.5902 H   0  0  0  0  0  0  0  0  0  0  0  0
   -8.8561   20.3251  -33.1065 H   0  0  0  0  0  0  0  0  0  0  0  0
   -8.9433   18.5309  -33.1065 H   0  0  0  0  0  0  0  0  0  0  0  0
   -7.1694   17.5263  -34.2218 H   0  0  0  0  0  0  0  0  0  0  0  0
   -4.7239   17.4122  -34.8061 H   0  0  0  0  0  0  0  0  0  0  0  0
   -2.2249   18.7426  -34.4022 H   0  0  0  0  0  0  0  0  0  0  0  0
   -1.1460   21.3700  -30.9500 H   0  0  0  0  0  0  0  0  0  0  0  0
    0.3300   21.8750  -31.8370 H   0  0  0  0  0  0  0  0  0  0  0  0
   -3.1708   21.7679  -28.5471 H   0  0  0  0  0  0  0  0  0  0  0  0
   -4.0562   20.6935  -29.6841 H   0  0  0  0  0  0  0  0  0  0  0  0
    1.3816   24.1915  -26.2478 H   0  0  0  0  0  0  0  0  0  0  0  0
    2.0490   23.5523  -27.7881 H   0  0  0  0  0  0  0  0  0  0  0  0
    1.0808   25.0653  -27.7881 H   0  0  0  0  0  0  0  0  0  0  0  0
   -1.2137   22.7163  -25.8933 H   0  0  0  0  0  0  0  0  0  0  0  0
   -1.1118   24.4978  -26.2063 H   0  0  0  0  0  0  0  0  0  0  0  0
   -2.5101   22.5204  -28.0594 H   0  0  0  0  0  0  0  0  0  0  0  0
   -3.3270   23.4840  -26.7328 H   0  0  0  0  0  0  0  0  0  0  0  0
   -2.7474   25.5400  -27.7931 H   0  0  0  0  0  0  0  0  0  0  0  0
   -1.8390   24.1230  -30.0940 H   0  0  0  0  0  0  0  0  0  0  0  0
   -4.4495   23.5760  -29.1611 H   0  0  0  0  0  0  0  0  0  0  0  0
   -4.7444   25.3063  -28.7169 H   0  0  0  0  0  0  0  0  0  0  0  0
   -3.1570   24.4150  -30.9080 H   0  0  0  0  0  0  0  0  0  0  0  0
   -6.4570   21.1658  -31.9305 H   0  0  0  0  0  0  0  0  0  0  0  0
  1  2  1  0
  2  3  2  0
  3  4  1  0
  4  5  2  0
  5  6  1  0
  6  7  2  0
  7  8  1  0
  8  9  1  0
  8 10  2  0
  7 11  1  0
 11 12  1  0
 12 13  2  0
 12 14  1  0
 14 15  1  0
 15 16  1  0
 16 17  1  0
 17 18  2  0
 17 19  1  0
 19 20  1  0
 19 21  1  0
 19 22  1  0
 22 23  2  0
 22 24  1  0
 24 25  1  0
 24 26  1  0
 26 27  1  0
 27 28  1  0
 28 29  1  0
 28 30  1  0
 30 31  1  0
 11 32  1  0
 32 33  2  0
 33  2  1  0
 32  5  1  0
  1 34  1  0
  1 35  1  0
  1 36  1  0
  3 37  1  0
  4 38  1  0
  6 39  1  0
  9 40  1  0
  9 41  1  0
 15 42  1  0
 15 43  1  0
 25 44  1  0
 25 45  1  0
 25 46  1  0
 26 47  1  0
 26 48  1  0
 27 49  1  0
 27 50  1  0
 28 51  1  1
 29 52  1  0
 30 53  1  0
 30 54  1  0
 31 55  1  0
 33 56  1  0
M  END
>  <UniqueID>  (37) 
37

>  <SMILES>  (37) 
Cc1ccc2cc(C(N)=O)n(C(=O)OCOC(=O)C(F)(F)C(=O)N(C)CC[C@@H](O)CO)c2c1

>  <Energy>  (37) 
85.6003830712896

>  <Genealogy>  (37) 
Cc1ccc2cc(C(N)=O)n(C(=O)OCOC(=O)C(F)(F)C(=O)N(C)CC[C@@H](O)CO)c2c1 (3D coordinates assigned)
Cc1ccc2cc(C(N)=O)n(C(=O)OCOC(=O)C(F)(F)C(=O)N(C)CC[C@@H](O)CO)c2c1 (optimized conformer: 85.6003830712896 kcal/mol)

>  <smiles>  (37) 
Cc1ccc2cc(C(N)=O)n(C(=O)OCOC(=O)C(F)(F)C(=O)N(C)CC[C@@H](O)CO)c2c1

>  <score_type>  (37) 
oracle

>  <origin>  (37) 
adg

>  <m_score__min__energy>  (37) 
-7.4199999999999999

>  <m_primary>  (37) 
energy

$$$$
37:0
     RDKit          3D

 51 53  0  0  0  0  0  0  0  0999 V2000
   -3.5160   24.9380  -30.5390 N   0  0  0  0  0  0  0  0  0  0  0  0
   -4.9360   25.0350  -30.6010 C   0  0  0  0  0  0  0  0  0  0  0  0
   -5.4800   26.1620  -30.4860 O   0  0  0  0  0  0  0  0  0  0  0  0
   -5.7520   23.8190  -30.7870 C   0  0  0  0  0  0  0  0  0  0  0  0
   -7.1280   23.7540  -30.5670 C   0  0  0  0  0  0  0  0  0  0  0  0
   -7.4900   22.4650  -30.8970 C   0  0  0  0  0  0  0  0  0  0  0  0
   -8.7340   21.8450  -30.8690 C   0  0  0  0  0  0  0  0  0  0  0  0
   -8.8090   20.4980  -31.2690 C   0  0  0  0  0  0  0  0  0  0  0  0
   -7.6490   19.8050  -31.7060 C   0  0  0  0  0  0  0  0  0  0  0  0
   -7.7240   18.3500  -32.0980 C   0  0  0  0  0  0  0  0  0  0  0  0
   -6.8880   17.5800  -31.3090 F   0  0  0  0  0  0  0  0  0  0  0  0
   -7.3450   18.2180  -33.4190 F   0  0  0  0  0  0  0  0  0  0  0  0
   -9.0160   17.8780  -31.9500 F   0  0  0  0  0  0  0  0  0  0  0  0
   -6.3990   20.4670  -31.7000 C   0  0  0  0  0  0  0  0  0  0  0  0
   -6.3590   21.8040  -31.2970 C   0  0  0  0  0  0  0  0  0  0  0  0
   -5.2880   22.6210  -31.2350 N   0  0  0  0  0  0  0  0  0  0  0  0
   -3.9340   22.2670  -31.5420 C   0  0  0  0  0  0  0  0  0  0  0  0
   -3.4150   22.7010  -32.6070 O   0  0  0  0  0  0  0  0  0  0  0  0
   -3.1760   21.4130  -30.6600 N   0  0  0  0  0  0  0  0  0  0  0  0
   -1.8090   21.0260  -30.9820 C   0  0  0  0  0  0  0  0  0  0  0  0
   -0.8520   22.0950  -30.4580 C   0  0  0  0  0  0  0  0  0  0  0  0
   -1.3190   22.7670  -29.2220 N   0  0  0  0  0  0  0  0  0  0  0  0
   -0.5770   23.9230  -28.7590 C   0  0  0  0  0  0  0  0  0  0  0  0
    0.6730   23.9760  -28.9210 O   0  0  0  0  0  0  0  0  0  0  0  0
   -1.2480   25.0680  -28.0530 C   0  0  0  0  0  0  0  0  0  0  0  0
   -1.5430   26.0960  -28.9560 O   0  0  0  0  0  0  0  0  0  0  0  0
   -2.5720   22.4110  -28.4990 C   0  0  2  0  0  0  0  0  0  0  0  0
   -2.2740   21.9560  -27.0500 C   0  0  0  0  0  0  0  0  0  0  0  0
   -1.6130   20.5710  -26.9660 C   0  0  0  0  0  0  0  0  0  0  0  0
   -2.5830   19.5920  -26.7080 O   0  0  0  0  0  0  0  0  0  0  0  0
   -3.4610   21.3790  -29.2330 C   0  0  0  0  0  0  0  0  0  0  0  0
   -2.9830   24.3890  -31.2490 H   0  0  0  0  0  0  0  0  0  0  0  0
   -7.7846   24.5597  -30.2069 H   0  0  0  0  0  0  0  0  0  0  0  0
   -9.6321   22.3907  -30.5441 H   0  0  0  0  0  0  0  0  0  0  0  0
   -9.7769   19.9760  -31.2429 H   0  0  0  0  0  0  0  0  0  0  0  0
   -5.4816   19.9423  -32.0050 H   0  0  0  0  0  0  0  0  0  0  0  0
   -1.5780   20.0604  -30.5085 H   0  0  0  0  0  0  0  0  0  0  0  0
   -1.6974   20.9299  -32.0721 H   0  0  0  0  0  0  0  0  0  0  0  0
    0.1172   21.6190  -30.2481 H   0  0  0  0  0  0  0  0  0  0  0  0
   -0.7830   22.8700  -31.2356 H   0  0  0  0  0  0  0  0  0  0  0  0
   -2.1813   24.7121  -27.5923 H   0  0  0  0  0  0  0  0  0  0  0  0
   -0.5680   25.4572  -27.2809 H   0  0  0  0  0  0  0  0  0  0  0  0
   -2.0240   25.6760  -29.7160 H   0  0  0  0  0  0  0  0  0  0  0  0
   -3.1620   23.3389  -28.4688 H   0  0  0  0  0  0  0  0  0  0  0  0
   -1.6010   22.6917  -26.5855 H   0  0  0  0  0  0  0  0  0  0  0  0
   -3.2396   21.8859  -26.5278 H   0  0  0  0  0  0  0  0  0  0  0  0
   -1.1140   20.3469  -27.9204 H   0  0  0  0  0  0  0  0  0  0  0  0
   -0.8748   20.5719  -26.1505 H   0  0  0  0  0  0  0  0  0  0  0  0
   -3.3600   20.0610  -26.3040 H   0  0  0  0  0  0  0  0  0  0  0  0
   -3.2515   20.3723  -28.8422 H   0  0  0  0  0  0  0  0  0  0  0  0
   -4.5198   21.6268  -29.0669 H   0  0  0  0  0  0  0  0  0  0  0  0
  1  2  1  0
  2  3  2  0
  2  4  1  0
  4  5  2  0
  5  6  1  0
  6  7  2  0
  7  8  1  0
  8  9  2  0
  9 10  1  0
 10 11  1  0
 10 12  1  0
 10 13  1  0
  9 14  1  0
 14 15  2  0
 15 16  1  0
 16 17  1  0
 17 18  2  0
 17 19  1  0
 19 20  1  0
 20 21  1  0
 21 22  1  0
 22 23  1  0
 23 24  2  0
 23 25  1  0
 25 26  1  0
 22 27  1  0
 27 28  1  0
 28 29  1  0
 29 30  1  0
 27 31  1  0
 16  4  1  0
 31 19  1  0
 15  6  1  0
  1 32  1  0
  5 33  1  0
  7 34  1  0
  8 35  1  0
 14 36  1  0
 20 37  1  0
 20 38  1  0
 21 39  1  0
 21 40  1  0
 25 41  1  0
 25 42  1  0
 26 43  1  0
 27 44  1  1
 28 45  1  0
 28 46  1  0
 29 47  1  0
 29 48  1  0
 30 49  1  0
 31 50  1  0
 31 51  1  0
M  CHG  1   1  -1
M  END
>  <UniqueID>  (38) 
38

>  <SMILES>  (38) 
[NH-]C(=O)c1cc2ccc(C(F)(F)F)cc2n1C(=O)N1CCN(C(=O)CO)[C@H](CCO)C1

>  <Energy>  (38) 
94.35618484605165

>  <Genealogy>  (38) 
[NH-]C(=O)c1cc2ccc(C(F)(F)F)cc2n1C(=O)N1CCN(C(=O)CO)[C@H](CCO)C1 (protonated)
[NH-]C(=O)c1cc2ccc(C(F)(F)F)cc2n1C(=O)N1CCN(C(=O)CO)[C@H](CCO)C1 (3D coordinates assigned)
[NH-]C(=O)c1cc2ccc(C(F)(F)F)cc2n1C(=O)N1CCN(C(=O)CO)[C@H](CCO)C1 (nonaromatic ring conformer: 94.35618484605165 kcal/mol)

>  <smiles>  (38) 
NC(=O)c1cc2ccc(C(F)(F)F)cc2n1C(=O)N1CCN(C(=O)CO)[C@H](CCO)C1

>  <score_type>  (38) 
oracle

>  <origin>  (38) 
adg

>  <m_score__min__energy>  (38) 
-10.710000000000001

>  <m_primary>  (38) 
energy

$$$$
38:0
     RDKit          3D

 44 47  0  0  0  0  0  0  0  0999 V2000
    1.1730   24.3380  -36.1930 C   0  0  0  0  0  0  0  0  0  0  0  0
    1.3770   23.0550  -36.7710 O   0  0  0  0  0  0  0  0  0  0  0  0
    0.8800   21.8800  -36.2000 C   0  0  0  0  0  0  0  0  0  0  0  0
    0.0900   21.9580  -35.0480 C   0  0  0  0  0  0  0  0  0  0  0  0
   -0.4150   20.7810  -34.4680 C   0  0  0  0  0  0  0  0  0  0  0  0
   -1.2520   20.8150  -33.2470 C   0  0  0  0  0  0  0  0  0  0  0  0
   -1.5370   19.7580  -32.3960 C   0  0  0  0  0  0  0  0  0  0  0  0
   -2.3660   20.2700  -31.4200 C   0  0  0  0  0  0  0  0  0  0  0  0
   -2.5350   21.6040  -31.7340 C   0  0  0  0  0  0  0  0  0  0  0  0
   -3.3490   22.5760  -30.9880 C   0  0  0  0  0  0  0  0  0  0  0  0
   -2.8080   23.3090  -30.1170 O   0  0  0  0  0  0  0  0  0  0  0  0
   -4.7560   22.6970  -31.2470 N   0  0  0  0  0  0  0  0  0  0  0  0
   -5.5660   23.7560  -30.9700 C   0  0  0  0  0  0  0  0  0  0  0  0
   -5.1320   25.0640  -30.4330 C   0  0  0  0  0  0  0  0  0  0  0  0
   -3.9010   25.6560  -30.8410 N   0  0  0  0  0  0  0  0  0  0  0  0
   -5.8740   25.6850  -29.6260 O   0  0  0  0  0  0  0  0  0  0  0  0
   -6.8840   23.4690  -31.3240 C   0  0  0  0  0  0  0  0  0  0  0  0
   -6.8540   22.1920  -31.8360 C   0  0  0  0  0  0  0  0  0  0  0  0
   -7.8860   21.3990  -32.3260 C   0  0  0  0  0  0  0  0  0  0  0  0
   -7.5690   20.1030  -32.7680 C   0  0  0  0  0  0  0  0  0  0  0  0
   -6.2340   19.6250  -32.7170 C   0  0  0  0  0  0  0  0  0  0  0  0
   -5.9110   18.2160  -33.1430 C   0  0  0  0  0  0  0  0  0  0  0  0
   -4.5940   17.9040  -32.8540 F   0  0  0  0  0  0  0  0  0  0  0  0
   -6.7250   17.3110  -32.4840 F   0  0  0  0  0  0  0  0  0  0  0  0
   -6.1130   18.0950  -34.5050 F   0  0  0  0  0  0  0  0  0  0  0  0
   -5.2200   20.4510  -32.1810 C   0  0  0  0  0  0  0  0  0  0  0  0
   -5.5600   21.7460  -31.7750 C   0  0  0  0  0  0  0  0  0  0  0  0
   -1.8590   21.8990  -32.8190 O   0  0  0  0  0  0  0  0  0  0  0  0
   -0.1100   19.5470  -35.0640 C   0  0  0  0  0  0  0  0  0  0  0  0
    0.6830   19.5120  -36.2130 C   0  0  0  0  0  0  0  0  0  0  0  0
    1.1560   20.6650  -36.7500 N   0  0  0  0  0  0  0  0  0  0  0  0
    1.1866   24.2525  -35.0964 H   0  0  0  0  0  0  0  0  0  0  0  0
    1.9743   25.0181  -36.5177 H   0  0  0  0  0  0  0  0  0  0  0  0
    0.2003   24.7360  -36.5177 H   0  0  0  0  0  0  0  0  0  0  0  0
   -0.1351   22.9361  -34.5979 H   0  0  0  0  0  0  0  0  0  0  0  0
   -1.1757   18.7226  -32.4818 H   0  0  0  0  0  0  0  0  0  0  0  0
   -2.8022   19.7280  -30.5680 H   0  0  0  0  0  0  0  0  0  0  0  0
   -2.9880   25.2950  -30.4860 H   0  0  0  0  0  0  0  0  0  0  0  0
   -7.7611   24.1241  -31.2168 H   0  0  0  0  0  0  0  0  0  0  0  0
   -8.9191   21.7747  -32.3664 H   0  0  0  0  0  0  0  0  0  0  0  0
   -8.3651   19.4517  -33.1580 H   0  0  0  0  0  0  0  0  0  0  0  0
   -4.1874   20.0842  -32.0853 H   0  0  0  0  0  0  0  0  0  0  0  0
   -0.4936   18.6127  -34.6283 H   0  0  0  0  0  0  0  0  0  0  0  0
    0.9247   18.5477  -36.6838 H   0  0  0  0  0  0  0  0  0  0  0  0
  1  2  1  0
  2  3  1  0
  3  4  2  0
  4  5  1  0
  5  6  1  0
  6  7  2  0
  7  8  1  0
  8  9  2  0
  9 10  1  0
 10 11  2  0
 10 12  1  0
 12 13  1  0
 13 14  1  0
 14 15  1  0
 14 16  2  0
 13 17  2  0
 17 18  1  0
 18 19  2  0
 19 20  1  0
 20 21  2  0
 21 22  1  0
 22 23  1  0
 22 24  1  0
 22 25  1  0
 21 26  1  0
 26 27  2  0
  9 28  1  0
  5 29  2  0
 29 30  1  0
 30 31  2  0
 31  3  1  0
 28  6  1  0
 27 12  1  0
 27 18  1  0
  1 32  1  0
  1 33  1  0
  1 34  1  0
  4 35  1  0
  7 36  1  0
  8 37  1  0
 15 38  1  0
 17 39  1  0
 19 40  1  0
 20 41  1  0
 26 42  1  0
 29 43  1  0
 30 44  1  0
M  CHG  1  15  -1
M  END
>  <UniqueID>  (39) 
39

>  <SMILES>  (39) 
COc1cc(-c2ccc(C(=O)n3c(C([NH-])=O)cc4ccc(C(F)(F)F)cc43)o2)ccn1

>  <Energy>  (39) 
113.11702638251155

>  <Genealogy>  (39) 
COc1cc(-c2ccc(C(=O)n3c(C([NH-])=O)cc4ccc(C(F)(F)F)cc43)o2)ccn1 (protonated)
COc1cc(-c2ccc(C(=O)n3c(C([NH-])=O)cc4ccc(C(F)(F)F)cc43)o2)ccn1 (3D coordinates assigned)
COc1cc(-c2ccc(C(=O)n3c(C([NH-])=O)cc4ccc(C(F)(F)F)cc43)o2)ccn1 (optimized conformer: 113.11702638251155 kcal/mol)

>  <smiles>  (39) 
COc1cc(-c2ccc(C(=O)n3c(C(N)=O)cc4ccc(C(F)(F)F)cc43)o2)ccn1

>  <score_type>  (39) 
oracle

>  <origin>  (39) 
adg

>  <m_score__min__energy>  (39) 
-11.33

>  <m_primary>  (39) 
energy

$$$$
39:0
     RDKit          3D

 37 39  0  0  0  0  0  0  0  0999 V2000
   -4.2380   25.6200  -30.7670 N   0  0  0  0  0  0  0  0  0  0  0  0
   -5.5920   25.2650  -30.4940 C   0  0  0  0  0  0  0  0  0  0  0  0
   -6.3060   26.0350  -29.7980 O   0  0  0  0  0  0  0  0  0  0  0  0
   -6.1470   23.9780  -30.9530 C   0  0  0  0  0  0  0  0  0  0  0  0
   -7.4890   23.7960  -31.2750 C   0  0  0  0  0  0  0  0  0  0  0  0
   -7.6090   22.4590  -31.5790 C   0  0  0  0  0  0  0  0  0  0  0  0
   -8.7230   21.7360  -31.9950 C   0  0  0  0  0  0  0  0  0  0  0  0
   -8.5520   20.3730  -32.2880 C   0  0  0  0  0  0  0  0  0  0  0  0
   -7.2820   19.7560  -32.1540 C   0  0  0  0  0  0  0  0  0  0  0  0
   -7.0970   18.3090  -32.5340 C   0  0  0  0  0  0  0  0  0  0  0  0
   -8.2960   17.6390  -32.3720 F   0  0  0  0  0  0  0  0  0  0  0  0
   -6.6920   18.1980  -33.8520 F   0  0  0  0  0  0  0  0  0  0  0  0
   -6.1370   17.7120  -31.7350 F   0  0  0  0  0  0  0  0  0  0  0  0
   -6.1690   20.5320  -31.7540 C   0  0  0  0  0  0  0  0  0  0  0  0
   -6.3710   21.8830  -31.4460 C   0  0  0  0  0  0  0  0  0  0  0  0
   -5.4600   22.8070  -31.0630 N   0  0  0  0  0  0  0  0  0  0  0  0
   -4.0390   22.6180  -30.9460 C   0  0  0  0  0  0  0  0  0  0  0  0
   -3.4210   21.9330  -31.8060 O   0  0  0  0  0  0  0  0  0  0  0  0
   -3.3410   23.2230  -29.8930 O   0  0  0  0  0  0  0  0  0  0  0  0
   -2.0480   22.7980  -29.4630 C   0  0  0  0  0  0  0  0  0  0  0  0
   -1.0080   23.9130  -29.6420 C   0  0  2  0  0  0  0  0  0  0  0  0
    0.1950   23.7680  -28.6680 C   0  0  0  0  0  0  0  0  0  0  0  0
    0.1960   24.9570  -27.8920 O   0  0  0  0  0  0  0  0  0  0  0  0
   -0.8440   25.7610  -28.2900 C   0  0  0  0  0  0  0  0  0  0  0  0
   -1.0890   26.8820  -27.7770 O   0  0  0  0  0  0  0  0  0  0  0  0
   -1.6120   25.2040  -29.3330 N   0  0  0  0  0  0  0  0  0  0  0  0
   -3.8640   26.5430  -30.4500 H   0  0  0  0  0  0  0  0  0  0  0  0
   -3.5820   24.9410  -31.2130 H   0  0  0  0  0  0  0  0  0  0  0  0
   -8.2830   24.5572  -31.2845 H   0  0  0  0  0  0  0  0  0  0  0  0
   -9.7074   22.2173  -32.0914 H   0  0  0  0  0  0  0  0  0  0  0  0
   -9.4130   19.7772  -32.6253 H   0  0  0  0  0  0  0  0  0  0  0  0
   -5.1667   20.0839  -31.6864 H   0  0  0  0  0  0  0  0  0  0  0  0
   -2.0969   22.5206  -28.3997 H   0  0  0  0  0  0  0  0  0  0  0  0
   -1.7434   21.9366  -30.0755 H   0  0  0  0  0  0  0  0  0  0  0  0
   -0.6614   23.8414  -30.6835 H   0  0  0  0  0  0  0  0  0  0  0  0
    0.0638   22.8870  -28.0225 H   0  0  0  0  0  0  0  0  0  0  0  0
    1.1439   23.6300  -29.2070 H   0  0  0  0  0  0  0  0  0  0  0  0
  1  2  1  0
  2  3  2  0
  2  4  1  0
  4  5  2  0
  5  6  1  0
  6  7  2  0
  7  8  1  0
  8  9  2  0
  9 10  1  0
 10 11  1  0
 10 12  1  0
 10 13  1  0
  9 14  1  0
 14 15  2  0
 15 16  1  0
 16 17  1  0
 17 18  2  0
 17 19  1  0
 19 20  1  0
 20 21  1  0
 21 22  1  0
 22 23  1  0
 23 24  1  0
 24 25  2  0
 24 26  1  0
 16  4  1  0
 26 21  1  0
 15  6  1  0
  1 27  1  0
  1 28  1  0
  5 29  1  0
  7 30  1  0
  8 31  1  0
 14 32  1  0
 20 33  1  0
 20 34  1  0
 21 35  1  6
 22 36  1  0
 22 37  1  0
M  CHG  1  26  -1
M  END
>  <UniqueID>  (40) 
40

>  <SMILES>  (40) 
NC(=O)c1cc2ccc(C(F)(F)F)cc2n1C(=O)OC[C@@H]1COC(=O)[N-]1

>  <Energy>  (40) 
90.43355640392622

>  <Genealogy>  (40) 
NC(=O)c1cc2ccc(C(F)(F)F)cc2n1C(=O)OC[C@@H]1COC(=O)[N-]1 (protonated)
NC(=O)c1cc2ccc(C(F)(F)F)cc2n1C(=O)OC[C@@H]1COC(=O)[N-]1 (3D coordinates assigned)
NC(=O)c1cc2ccc(C(F)(F)F)cc2n1C(=O)OC[C@@H]1COC(=O)[N-]1 (nonaromatic ring conformer: 90.43355640392622 kcal/mol)

>  <smiles>  (40) 
NC(=O)c1cc2ccc(C(F)(F)F)cc2n1C(=O)OC[C@@H]1COC(=O)N1

>  <score_type>  (40) 
oracle

>  <origin>  (40) 
adg

>  <m_score__min__energy>  (40) 
-10.289999999999999

>  <m_primary>  (40) 
energy

$$$$
40:0
     RDKit          3D

 36 38  0  0  0  0  0  0  0  0999 V2000
   -3.6190   16.5470  -35.3420 C   0  0  0  0  0  0  0  0  0  0  0  0
   -4.7770   17.1080  -34.5900 C   0  0  0  0  0  0  0  0  0  0  0  0
   -5.9350   16.4470  -34.4020 N   0  0  0  0  0  0  0  0  0  0  0  0
   -6.6940   17.2840  -33.7640 O   0  0  0  0  0  0  0  0  0  0  0  0
   -6.0500   18.4100  -33.5720 C   0  0  0  0  0  0  0  0  0  0  0  0
   -6.6160   19.5850  -32.8800 C   0  0  0  0  0  0  0  0  0  0  0  0
   -8.0210   19.7670  -32.8280 C   0  0  0  0  0  0  0  0  0  0  0  0
   -8.5760   20.8730  -32.1640 C   0  0  0  0  0  0  0  0  0  0  0  0
   -7.7060   21.7830  -31.5710 C   0  0  0  0  0  0  0  0  0  0  0  0
   -7.9770   22.9160  -30.8400 C   0  0  0  0  0  0  0  0  0  0  0  0
   -6.7340   23.4300  -30.4830 C   0  0  0  0  0  0  0  0  0  0  0  0
   -6.5590   24.6900  -29.7350 C   0  0  0  0  0  0  0  0  0  0  0  0
   -5.4410   24.8880  -28.8700 N   0  0  0  0  0  0  0  0  0  0  0  0
   -7.3810   25.6300  -29.9060 O   0  0  0  0  0  0  0  0  0  0  0  0
   -5.7310   22.6380  -30.9590 N   0  0  0  0  0  0  0  0  0  0  0  0
   -4.3210   22.7670  -30.7110 C   0  0  0  0  0  0  0  0  0  0  0  0
   -3.5170   22.8530  -31.6790 O   0  0  0  0  0  0  0  0  0  0  0  0
   -3.8450   22.8020  -29.3980 O   0  0  0  0  0  0  0  0  0  0  0  0
   -2.5830   23.3550  -29.0500 C   0  0  0  0  0  0  0  0  0  0  0  0
   -2.5440   24.7880  -29.4620 C   0  0  0  0  0  0  0  0  0  0  0  0
   -1.6260   25.5410  -29.0420 O   0  0  0  0  0  0  0  0  0  0  0  0
   -3.4880   25.2830  -30.3520 O   0  0  0  0  0  0  0  0  0  0  0  0
   -6.3440   21.6340  -31.6280 C   0  0  0  0  0  0  0  0  0  0  0  0
   -5.7650   20.5290  -32.2630 C   0  0  0  0  0  0  0  0  0  0  0  0
   -4.8070   18.3600  -34.0910 N   0  0  0  0  0  0  0  0  0  0  0  0
   -2.8632   16.1808  -34.6316 H   0  0  0  0  0  0  0  0  0  0  0  0
   -3.9611   15.7148  -35.9747 H   0  0  0  0  0  0  0  0  0  0  0  0
   -3.1780   17.3313  -35.9747 H   0  0  0  0  0  0  0  0  0  0  0  0
   -8.6832   19.0344  -33.3127 H   0  0  0  0  0  0  0  0  0  0  0  0
   -9.6656   21.0157  -32.1141 H   0  0  0  0  0  0  0  0  0  0  0  0
   -8.9659   23.3282  -30.5906 H   0  0  0  0  0  0  0  0  0  0  0  0
   -4.6560   24.2020  -28.8360 H   0  0  0  0  0  0  0  0  0  0  0  0
   -5.3550   25.7720  -28.3190 H   0  0  0  0  0  0  0  0  0  0  0  0
   -2.4364   23.2810  -27.9623 H   0  0  0  0  0  0  0  0  0  0  0  0
   -1.7831   22.8014  -29.5635 H   0  0  0  0  0  0  0  0  0  0  0  0
   -4.6729   20.3987  -32.2812 H   0  0  0  0  0  0  0  0  0  0  0  0
  1  2  1  0
  2  3  2  0
  3  4  1  0
  4  5  1  0
  5  6  1  0
  6  7  2  0
  7  8  1  0
  8  9  2  0
  9 10  1  0
 10 11  2  0
 11 12  1  0
 12 13  1  0
 12 14  2  0
 11 15  1  0
 15 16  1  0
 16 17  2  0
 16 18  1  0
 18 19  1  0
 19 20  1  0
 20 21  2  0
 20 22  1  0
 15 23  1  0
 23 24  2  0
  5 25  2  0
 25  2  1  0
 24  6  1  0
 23  9  1  0
  1 26  1  0
  1 27  1  0
  1 28  1  0
  7 29  1  0
  8 30  1  0
 10 31  1  0
 13 32  1  0
 13 33  1  0
 19 34  1  0
 19 35  1  0
 24 36  1  0
M  CHG  1  22  -1
M  END
>  <UniqueID>  (41) 
41

>  <SMILES>  (41) 
Cc1noc(-c2ccc3cc(C(N)=O)n(C(=O)OCC(=O)[O-])c3c2)n1

>  <Energy>  (41) 
106.00272821056136

>  <Genealogy>  (41) 
Cc1noc(-c2ccc3cc(C(N)=O)n(C(=O)OCC(=O)[O-])c3c2)n1 (protonated)
Cc1noc(-c2ccc3cc(C(N)=O)n(C(=O)OCC(=O)[O-])c3c2)n1 (3D coordinates assigned)
Cc1noc(-c2ccc3cc(C(N)=O)n(C(=O)OCC(=O)[O-])c3c2)n1 (optimized conformer: 106.00272821056136 kcal/mol)

>  <smiles>  (41) 
Cc1noc(-c2ccc3cc(C(N)=O)n(C(=O)OCC(=O)O)c3c2)n1

>  <score_type>  (41) 
oracle

>  <origin>  (41) 
adg

>  <m_score__min__energy>  (41) 
-10.99

>  <m_primary>  (41) 
energy

$$$$
41:0
     RDKit          3D

 50 51  0  0  0  0  0  0  0  0999 V2000
   -1.8080   20.0030  -31.7290 C   0  0  0  0  0  0  0  0  0  0  0  0
   -1.7210   19.9350  -33.1970 N   0  0  0  0  0  0  0  0  0  0  0  0
   -1.1690   21.1970  -33.7190 C   0  0  0  0  0  0  0  0  0  0  0  0
   -3.0570   19.6580  -33.7760 C   0  0  0  0  0  0  0  0  0  0  0  0
   -3.1620   18.2030  -34.2570 C   0  0  0  0  0  0  0  0  0  0  0  0
   -4.3620   17.5690  -33.7210 N   0  0  0  0  0  0  0  0  0  0  0  0
   -5.6670   18.1440  -33.8210 C   0  0  0  0  0  0  0  0  0  0  0  0
   -6.1130   18.5240  -34.9380 O   0  0  0  0  0  0  0  0  0  0  0  0
   -6.5030   18.2980  -32.5910 C   0  0  0  0  0  0  0  0  0  0  0  0
   -6.7300   19.7550  -32.2940 C   0  0  0  0  0  0  0  0  0  0  0  0
   -8.0320   20.3050  -32.4010 C   0  0  0  0  0  0  0  0  0  0  0  0
   -8.2680   21.6530  -32.0860 C   0  0  0  0  0  0  0  0  0  0  0  0
   -7.1890   22.4230  -31.6630 C   0  0  0  0  0  0  0  0  0  0  0  0
   -7.1400   23.7400  -31.2680 C   0  0  0  0  0  0  0  0  0  0  0  0
   -5.8100   23.9740  -30.9220 C   0  0  0  0  0  0  0  0  0  0  0  0
   -5.2930   25.2990  -30.5180 C   0  0  0  0  0  0  0  0  0  0  0  0
   -3.9530   25.6640  -30.8430 N   0  0  0  0  0  0  0  0  0  0  0  0
   -6.0080   26.0970  -29.8530 O   0  0  0  0  0  0  0  0  0  0  0  0
   -5.0640   22.8430  -31.0890 N   0  0  0  0  0  0  0  0  0  0  0  0
   -3.6720   22.6460  -30.7800 C   0  0  0  0  0  0  0  0  0  0  0  0
   -2.7930   22.9340  -31.6360 O   0  0  0  0  0  0  0  0  0  0  0  0
   -3.2880   22.0860  -29.5190 N   0  0  0  0  0  0  0  0  0  0  0  0
   -2.3690   22.7240  -28.5800 C   0  0  0  0  0  0  0  0  0  0  0  0
   -1.1150   23.2440  -29.2910 C   0  0  0  0  0  0  0  0  0  0  0  0
   -0.8280   24.6720  -28.9530 C   0  0  0  0  0  0  0  0  0  0  0  0
   -1.6110   25.5820  -29.3340 O   0  0  0  0  0  0  0  0  0  0  0  0
    0.2730   24.9940  -28.1710 O   0  0  0  0  0  0  0  0  0  0  0  0
   -5.9230   21.9050  -31.5480 C   0  0  0  0  0  0  0  0  0  0  0  0
   -5.6610   20.5610  -31.8440 C   0  0  0  0  0  0  0  0  0  0  0  0
   -1.0149   19.3831  -31.2856 H   0  0  0  0  0  0  0  0  0  0  0  0
   -1.6840   21.0460  -31.4023 H   0  0  0  0  0  0  0  0  0  0  0  0
   -2.7902   19.6307  -31.4023 H   0  0  0  0  0  0  0  0  0  0  0  0
   -0.8843   21.8478  -32.8791 H   0  0  0  0  0  0  0  0  0  0  0  0
   -0.2824   20.9829  -34.3338 H   0  0  0  0  0  0  0  0  0  0  0  0
   -1.9281   21.7027  -34.3338 H   0  0  0  0  0  0  0  0  0  0  0  0
   -3.8250   19.8390  -33.0095 H   0  0  0  0  0  0  0  0  0  0  0  0
   -3.2074   20.3225  -34.6396 H   0  0  0  0  0  0  0  0  0  0  0  0
   -3.2057   18.1881  -35.3560 H   0  0  0  0  0  0  0  0  0  0  0  0
   -2.2804   17.6485  -33.9031 H   0  0  0  0  0  0  0  0  0  0  0  0
   -7.4733   17.8039  -32.7474 H   0  0  0  0  0  0  0  0  0  0  0  0
   -5.9783   17.8368  -31.7413 H   0  0  0  0  0  0  0  0  0  0  0  0
   -8.8658   19.6696  -32.7341 H   0  0  0  0  0  0  0  0  0  0  0  0
   -9.2752   22.0870  -32.1711 H   0  0  0  0  0  0  0  0  0  0  0  0
   -7.9738   24.4566  -31.2327 H   0  0  0  0  0  0  0  0  0  0  0  0
   -3.1730   24.9790  -30.7480 H   0  0  0  0  0  0  0  0  0  0  0  0
   -2.8815   23.5680  -28.0952 H   0  0  0  0  0  0  0  0  0  0  0  0
   -2.0597   21.9755  -27.8356 H   0  0  0  0  0  0  0  0  0  0  0  0
   -0.2550   22.6283  -28.9889 H   0  0  0  0  0  0  0  0  0  0  0  0
   -1.2898   23.1811  -30.3752 H   0  0  0  0  0  0  0  0  0  0  0  0
   -4.6494   20.1444  -31.7290 H   0  0  0  0  0  0  0  0  0  0  0  0
  1  2  1  0
  2  3  1  0
  2  4  1  0
  4  5  1  0
  5  6  1  0
  6  7  1  0
  7  8  2  0
  7  9  1  0
  9 10  1  0
 10 11  2  0
 11 12  1  0
 12 13  2  0
 13 14  1  0
 14 15  2  0
 15 16  1  0
 16 17  1  0
 16 18  2  0
 15 19  1  0
 19 20  1  0
 20 21  2  0
 20 22  1  0
 22 23  1  0
 23 24  1  0
 24 25  1  0
 25 26  2  0
 25 27  1  0
 19 28  1  0
 28 29  2  0
 29 10  1  0
 28 13  1  0
  1 30  1  0
  1 31  1  0
  1 32  1  0
  3 33  1  0
  3 34  1  0
  3 35  1  0
  4 36  1  0
  4 37  1  0
  5 38  1  0
  5 39  1  0
  9 40  1  0
  9 41  1  0
 11 42  1  0
 12 43  1  0
 14 44  1  0
 17 45  1  0
 23 46  1  0
 23 47  1  0
 24 48  1  0
 24 49  1  0
 29 50  1  0
M  CHG  4   6  -1  17  -1  22  -1  27  -1
M  END
>  <UniqueID>  (42) 
42

>  <SMILES>  (42) 
CN(C)CC[N-]C(=O)Cc1ccc2cc(C([NH-])=O)n(C(=O)[N-]CCC(=O)[O-])c2c1

>  <Energy>  (42) 
79.26764321142721

>  <Genealogy>  (42) 
CN(C)CC[N-]C(=O)Cc1ccc2cc(C([NH-])=O)n(C(=O)[N-]CCC(=O)[O-])c2c1 (protonated)
CN(C)CC[N-]C(=O)Cc1ccc2cc(C([NH-])=O)n(C(=O)[N-]CCC(=O)[O-])c2c1 (3D coordinates assigned)
CN(C)CC[N-]C(=O)Cc1ccc2cc(C([NH-])=O)n(C(=O)[N-]CCC(=O)[O-])c2c1 (optimized conformer: 79.26764321142721 kcal/mol)

>  <smiles>  (42) 
CN(C)CCNC(=O)Cc1ccc2cc(C(N)=O)n(C(=O)NCCC(=O)O)c2c1

>  <score_type>  (42) 
oracle

>  <origin>  (42) 
adg

>  <m_score__min__energy>  (42) 
-13.15

>  <m_primary>  (42) 
energy

$$$$
42:0
     RDKit          3D

 38 39  0  0  0  0  0  0  0  0999 V2000
   -8.8400   22.3470  -31.6300 C   0  0  0  0  0  0  0  0  0  0  0  0
   -7.4440   21.9010  -31.9450 C   0  0  0  0  0  0  0  0  0  0  0  0
   -7.2290   20.8010  -32.8120 C   0  0  0  0  0  0  0  0  0  0  0  0
   -5.9260   20.3600  -33.0980 C   0  0  0  0  0  0  0  0  0  0  0  0
   -4.8640   21.0210  -32.4870 C   0  0  0  0  0  0  0  0  0  0  0  0
   -3.5090   20.8230  -32.6130 C   0  0  0  0  0  0  0  0  0  0  0  0
   -2.9200   21.7720  -31.7840 C   0  0  0  0  0  0  0  0  0  0  0  0
   -1.4600   21.8820  -31.5770 C   0  0  0  0  0  0  0  0  0  0  0  0
   -0.9210   22.5600  -30.4430 N   0  0  0  0  0  0  0  0  0  0  0  0
   -0.6770   21.3210  -32.3900 O   0  0  0  0  0  0  0  0  0  0  0  0
   -3.8690   22.5380  -31.1770 N   0  0  0  0  0  0  0  0  0  0  0  0
   -3.6590   23.6860  -30.3400 C   0  0  0  0  0  0  0  0  0  0  0  0
   -4.0090   24.8270  -30.7460 O   0  0  0  0  0  0  0  0  0  0  0  0
   -3.0430   23.5300  -29.0560 N   0  0  0  0  0  0  0  0  0  0  0  0
   -2.5830   24.6130  -28.1860 C   0  0  1  0  0  0  0  0  0  0  0  0
   -2.4500   24.1240  -26.7260 C   0  0  0  0  0  0  0  0  0  0  0  0
   -1.2600   23.1760  -26.5220 C   0  0  0  0  0  0  0  0  0  0  0  0
   -1.1060   22.3180  -27.6210 O   0  0  0  0  0  0  0  0  0  0  0  0
   -1.3170   25.2180  -28.7310 C   0  0  0  0  0  0  0  0  0  0  0  0
   -1.2360   26.4530  -28.9690 O   0  0  0  0  0  0  0  0  0  0  0  0
   -0.2020   24.4120  -28.9270 O   0  0  0  0  0  0  0  0  0  0  0  0
   -5.0570   22.0640  -31.6170 C   0  0  0  0  0  0  0  0  0  0  0  0
   -6.3440   22.5390  -31.3320 C   0  0  0  0  0  0  0  0  0  0  0  0
   -8.9739   22.3898  -30.5390 H   0  0  0  0  0  0  0  0  0  0  0  0
   -9.0119   23.3448  -32.0599 H   0  0  0  0  0  0  0  0  0  0  0  0
   -9.5586   21.6337  -32.0599 H   0  0  0  0  0  0  0  0  0  0  0  0
   -8.0899   20.2878  -33.2652 H   0  0  0  0  0  0  0  0  0  0  0  0
   -5.7504   19.5181  -33.7838 H   0  0  0  0  0  0  0  0  0  0  0  0
   -2.9994   20.0737  -33.2366 H   0  0  0  0  0  0  0  0  0  0  0  0
   -1.5340   22.8780  -29.6610 H   0  0  0  0  0  0  0  0  0  0  0  0
    0.1130   22.6670  -30.3400 H   0  0  0  0  0  0  0  0  0  0  0  0
   -3.3347   25.4160  -28.1714 H   0  0  0  0  0  0  0  0  0  0  0  0
   -2.3180   24.9992  -26.0729 H   0  0  0  0  0  0  0  0  0  0  0  0
   -3.3647   23.5650  -26.4795 H   0  0  0  0  0  0  0  0  0  0  0  0
   -0.3431   23.7711  -26.3991 H   0  0  0  0  0  0  0  0  0  0  0  0
   -1.4473   22.5667  -25.6255 H   0  0  0  0  0  0  0  0  0  0  0  0
   -1.0580   22.8950  -28.4270 H   0  0  0  0  0  0  0  0  0  0  0  0
   -6.4934   23.3874  -30.6480 H   0  0  0  0  0  0  0  0  0  0  0  0
  1  2  1  0
  2  3  2  0
  3  4  1  0
  4  5  2  0
  5  6  1  0
  6  7  2  0
  7  8  1  0
  8  9  1  0
  8 10  2  0
  7 11  1  0
 11 12  1  0
 12 13  2  0
 12 14  1  0
 14 15  1  0
 15 16  1  0
 16 17  1  0
 17 18  1  0
 15 19  1  0
 19 20  2  0
 19 21  1  0
 11 22  1  0
 22 23  2  0
 23  2  1  0
 22  5  1  0
  1 24  1  0
  1 25  1  0
  1 26  1  0
  3 27  1  0
  4 28  1  0
  6 29  1  0
  9 30  1  0
  9 31  1  0
 15 32  1  1
 16 33  1  0
 16 34  1  0
 17 35  1  0
 17 36  1  0
 18 37  1  0
 23 38  1  0
M  CHG  2  14  -1  21  -1
M  END
>  <UniqueID>  (43) 
43

>  <SMILES>  (43) 
Cc1ccc2cc(C(N)=O)n(C(=O)[N-][C@@H](CCO)C(=O)[O-])c2c1

>  <Energy>  (43) 
73.58856245549592

>  <Genealogy>  (43) 
Cc1ccc2cc(C(N)=O)n(C(=O)[N-]C(CCO)C(=O)[O-])c2c1 (protonated)
Cc1ccc2cc(C(N)=O)n(C(=O)[N-][C@@H](CCO)C(=O)[O-])c2c1 (chirality)
Cc1ccc2cc(C(N)=O)n(C(=O)[N-][C@@H](CCO)C(=O)[O-])c2c1 (3D coordinates assigned)
Cc1ccc2cc(C(N)=O)n(C(=O)[N-][C@@H](CCO)C(=O)[O-])c2c1 (optimized conformer: 73.58856245549592 kcal/mol)

>  <smiles>  (43) 
Cc1ccc2cc(C(N)=O)n(C(=O)NC(CC[O-])C(=O)O)c2c1

>  <score_type>  (43) 
oracle

>  <origin>  (43) 
adg

>  <m_score__min__energy>  (43) 
-10.15

>  <m_primary>  (43) 
energy

$$$$
43:0
     RDKit          3D

 52 54  0  0  0  0  0  0  0  0999 V2000
    1.3910   19.4390  -27.9040 C   0  0  0  0  0  0  0  0  0  0  0  0
   -0.1230   19.1040  -27.8810 C   0  0  0  0  0  0  0  0  0  0  0  0
   -0.5790   18.9220  -29.3560 C   0  0  0  0  0  0  0  0  0  0  0  0
   -0.3620   17.8330  -27.1570 N   0  0  0  0  0  0  0  0  0  0  0  0
   -0.9210   20.2350  -27.2190 C   0  0  0  0  0  0  0  0  0  0  0  0
   -1.0690   20.2250  -25.9670 O   0  0  0  0  0  0  0  0  0  0  0  0
   -1.4910   21.3340  -27.9680 N   0  0  0  0  0  0  0  0  0  0  0  0
   -2.8870   21.7330  -27.6970 C   0  0  0  0  0  0  0  0  0  0  0  0
   -3.3830   22.7900  -28.7010 C   0  0  0  0  0  0  0  0  0  0  0  0
   -2.7670   22.5700  -30.0210 N   0  0  0  0  0  0  0  0  0  0  0  0
   -3.5390   22.5480  -31.2350 C   0  0  0  0  0  0  0  0  0  0  0  0
   -2.9420   22.4740  -32.3500 O   0  0  0  0  0  0  0  0  0  0  0  0
   -4.9740   22.5890  -31.2310 N   0  0  0  0  0  0  0  0  0  0  0  0
   -5.7620   23.6910  -31.0950 C   0  0  0  0  0  0  0  0  0  0  0  0
   -5.2950   25.0350  -30.6690 C   0  0  0  0  0  0  0  0  0  0  0  0
   -3.9020   25.3040  -30.5670 N   0  0  0  0  0  0  0  0  0  0  0  0
   -6.1200   25.9460  -30.3850 O   0  0  0  0  0  0  0  0  0  0  0  0
   -7.0890   23.3950  -31.4200 C   0  0  0  0  0  0  0  0  0  0  0  0
   -7.0830   22.0640  -31.7780 C   0  0  0  0  0  0  0  0  0  0  0  0
   -8.1080   21.2630  -32.2730 C   0  0  0  0  0  0  0  0  0  0  0  0
   -7.7870   19.9470  -32.6590 C   0  0  0  0  0  0  0  0  0  0  0  0
   -6.4590   19.4530  -32.5430 C   0  0  0  0  0  0  0  0  0  0  0  0
   -6.1560   18.0200  -32.9060 C   0  0  0  0  0  0  0  0  0  0  0  0
   -5.1150   17.9300  -33.8180 F   0  0  0  0  0  0  0  0  0  0  0  0
   -7.2730   17.4340  -33.4670 F   0  0  0  0  0  0  0  0  0  0  0  0
   -5.8060   17.3280  -31.7560 F   0  0  0  0  0  0  0  0  0  0  0  0
   -5.4410   20.3000  -32.0390 C   0  0  0  0  0  0  0  0  0  0  0  0
   -5.7920   21.5990  -31.6550 C   0  0  0  0  0  0  0  0  0  0  0  0
   -1.2990   22.5090  -30.1160 C   0  0  0  0  0  0  0  0  0  0  0  0
   -0.6460   22.2380  -28.7570 C   0  0  0  0  0  0  0  0  0  0  0  0
    1.7640   19.5215  -26.8725 H   0  0  0  0  0  0  0  0  0  0  0  0
    1.9355   18.6396  -28.4279 H   0  0  0  0  0  0  0  0  0  0  0  0
    1.5474   20.3935  -28.4279 H   0  0  0  0  0  0  0  0  0  0  0  0
   -1.6005   18.5143  -29.3764 H   0  0  0  0  0  0  0  0  0  0  0  0
   -0.5625   19.8956  -29.8677 H   0  0  0  0  0  0  0  0  0  0  0  0
    0.1033   18.2273  -29.8677 H   0  0  0  0  0  0  0  0  0  0  0  0
   -0.9390   17.9820  -26.2950 H   0  0  0  0  0  0  0  0  0  0  0  0
    0.5440   17.4000  -26.8650 H   0  0  0  0  0  0  0  0  0  0  0  0
   -0.8550   17.1340  -27.7490 H   0  0  0  0  0  0  0  0  0  0  0  0
   -3.5317   20.8445  -27.7674 H   0  0  0  0  0  0  0  0  0  0  0  0
   -2.9285   22.1717  -26.6891 H   0  0  0  0  0  0  0  0  0  0  0  0
   -4.4766   22.7170  -28.7942 H   0  0  0  0  0  0  0  0  0  0  0  0
   -3.1017   23.7892  -28.3369 H   0  0  0  0  0  0  0  0  0  0  0  0
   -3.4890   25.6750  -29.6810 H   0  0  0  0  0  0  0  0  0  0  0  0
   -7.9517   24.0770  -31.3954 H   0  0  0  0  0  0  0  0  0  0  0  0
   -9.1357   21.6454  -32.3600 H   0  0  0  0  0  0  0  0  0  0  0  0
   -8.5759   19.2914  -33.0563 H   0  0  0  0  0  0  0  0  0  0  0  0
   -4.4031   19.9461  -31.9520 H   0  0  0  0  0  0  0  0  0  0  0  0
   -1.0214   21.7023  -30.8104 H   0  0  0  0  0  0  0  0  0  0  0  0
   -0.9413   23.4850  -30.4759 H   0  0  0  0  0  0  0  0  0  0  0  0
    0.3392   21.7740  -28.9118 H   0  0  0  0  0  0  0  0  0  0  0  0
   -0.5286   23.1884  -28.2158 H   0  0  0  0  0  0  0  0  0  0  0  0
  1  2  1  0
  2  3  1  0
  2  4  1  0
  2  5  1  0
  5  6  2  0
  5  7  1  0
  7  8  1  0
  8  9  1  0
  9 10  1  0
 10 11  1  0
 11 12  2  0
 11 13  1  0
 13 14  1  0
 14 15  1  0
 15 16  1  0
 15 17  2  0
 14 18  2  0
 18 19  1  0
 19 20  2  0
 20 21  1  0
 21 22  2  0
 22 23  1  0
 23 24  1  0
 23 25  1  0
 23 26  1  0
 22 27  1  0
 27 28  2  0
 10 29  1  0
 29 30  1  0
 30  7  1  0
 28 13  1  0
 28 19  1  0
  1 31  1  0
  1 32  1  0
  1 33  1  0
  3 34  1  0
  3 35  1  0
  3 36  1  0
  4 37  1  0
  4 38  1  0
  4 39  1  0
  8 40  1  0
  8 41  1  0
  9 42  1  0
  9 43  1  0
 16 44  1  0
 18 45  1  0
 20 46  1  0
 21 47  1  0
 27 48  1  0
 29 49  1  0
 29 50  1  0
 30 51  1  0
 30 52  1  0
M  CHG  2   4   1  16  -1
M  END
>  <UniqueID>  (44) 
44

>  <SMILES>  (44) 
CC(C)([NH3+])C(=O)N1CCN(C(=O)n2c(C([NH-])=O)cc3ccc(C(F)(F)F)cc32)CC1

>  <Energy>  (44) 
100.97783687222919

>  <Genealogy>  (44) 
CC(C)([NH3+])C(=O)N1CCN(C(=O)n2c(C([NH-])=O)cc3ccc(C(F)(F)F)cc32)CC1 (protonated)
CC(C)([NH3+])C(=O)N1CCN(C(=O)n2c(C([NH-])=O)cc3ccc(C(F)(F)F)cc32)CC1 (3D coordinates assigned)
CC(C)([NH3+])C(=O)N1CCN(C(=O)n2c(C([NH-])=O)cc3ccc(C(F)(F)F)cc32)CC1 (nonaromatic ring conformer: 100.97783687222919 kcal/mol)

>  <smiles>  (44) 
CC(C)(N)C(=O)N1CCN(C(=O)n2c(C(N)=O)cc3ccc(C(F)(F)F)cc32)CC1

>  <score_type>  (44) 
oracle

>  <origin>  (44) 
adg

>  <m_score__min__energy>  (44) 
-10.300000000000001

>  <m_primary>  (44) 
energy

$$$$
44:0
     RDKit          3D

 49 50  0  0  0  0  0  0  0  0999 V2000
   -6.6290   18.2210  -32.2880 C   0  0  0  0  0  0  0  0  0  0  0  0
   -6.8420   19.6800  -32.0150 C   0  0  0  0  0  0  0  0  0  0  0  0
   -8.1230   20.2590  -32.1980 C   0  0  0  0  0  0  0  0  0  0  0  0
   -8.3270   21.6330  -31.9760 C   0  0  0  0  0  0  0  0  0  0  0  0
   -7.2320   22.3990  -31.5840 C   0  0  0  0  0  0  0  0  0  0  0  0
   -7.1440   23.7430  -31.2970 C   0  0  0  0  0  0  0  0  0  0  0  0
   -5.8110   23.9610  -30.9550 C   0  0  0  0  0  0  0  0  0  0  0  0
   -5.2830   25.2670  -30.5160 C   0  0  0  0  0  0  0  0  0  0  0  0
   -3.9490   25.6450  -30.8520 N   0  0  0  0  0  0  0  0  0  0  0  0
   -6.0010   26.0630  -29.8570 O   0  0  0  0  0  0  0  0  0  0  0  0
   -5.1010   22.8000  -31.0410 N   0  0  0  0  0  0  0  0  0  0  0  0
   -3.7090   22.5730  -30.7580 C   0  0  0  0  0  0  0  0  0  0  0  0
   -2.8500   23.0250  -31.5610 O   0  0  0  0  0  0  0  0  0  0  0  0
   -3.2860   21.9550  -29.5210 N   0  0  0  0  0  0  0  0  0  0  0  0
   -2.9630   20.5200  -29.4740 C   0  0  0  0  0  0  0  0  0  0  0  0
   -1.6910   20.2140  -30.2810 C   0  0  0  0  0  0  0  0  0  0  0  0
   -0.5340   21.1400  -29.8900 C   0  0  0  0  0  0  0  0  0  0  0  0
   -0.4840   22.3100  -30.7670 N   0  0  0  0  0  0  0  0  0  0  0  0
   -3.4500   22.6650  -28.2730 C   0  0  0  0  0  0  0  0  0  0  0  0
   -4.5940   23.0860  -27.9480 O   0  0  0  0  0  0  0  0  0  0  0  0
   -2.3350   22.9000  -27.3900 N   0  0  0  0  0  0  0  0  0  0  0  0
   -1.6020   21.7470  -26.8610 C   0  0  0  0  0  0  0  0  0  0  0  0
   -1.7620   24.2510  -27.2720 C   0  0  0  0  0  0  0  0  0  0  0  0
   -1.0380   24.6680  -28.5200 C   0  0  0  0  0  0  0  0  0  0  0  0
    0.0870   24.1780  -28.8080 O   0  0  0  0  0  0  0  0  0  0  0  0
   -1.5860   25.6470  -29.3380 O   0  0  0  0  0  0  0  0  0  0  0  0
   -5.9880   21.8530  -31.4080 C   0  0  0  0  0  0  0  0  0  0  0  0
   -5.7540   20.4910  -31.6290 C   0  0  0  0  0  0  0  0  0  0  0  0
   -6.5496   17.6774  -31.3350 H   0  0  0  0  0  0  0  0  0  0  0  0
   -7.4793   17.8279  -32.8646 H   0  0  0  0  0  0  0  0  0  0  0  0
   -5.7018   18.0874  -32.8646 H   0  0  0  0  0  0  0  0  0  0  0  0
   -8.9656   19.6277  -32.5167 H   0  0  0  0  0  0  0  0  0  0  0  0
   -9.3198   22.0879  -32.1078 H   0  0  0  0  0  0  0  0  0  0  0  0
   -7.9540   24.4865  -31.3306 H   0  0  0  0  0  0  0  0  0  0  0  0
   -3.1480   24.9970  -30.6790 H   0  0  0  0  0  0  0  0  0  0  0  0
   -2.8053   20.2210  -28.4272 H   0  0  0  0  0  0  0  0  0  0  0  0
   -3.8002   19.9581  -29.9138 H   0  0  0  0  0  0  0  0  0  0  0  0
   -1.3923   19.1720  -30.0938 H   0  0  0  0  0  0  0  0  0  0  0  0
   -1.9140   20.3754  -31.3460 H   0  0  0  0  0  0  0  0  0  0  0  0
   -0.6748   21.4739  -28.8514 H   0  0  0  0  0  0  0  0  0  0  0  0
    0.4103   20.5848  -29.9897 H   0  0  0  0  0  0  0  0  0  0  0  0
   -1.0310   23.0770  -30.3110 H   0  0  0  0  0  0  0  0  0  0  0  0
   -0.9800   22.0730  -31.6590 H   0  0  0  0  0  0  0  0  0  0  0  0
   -1.6195   21.7745  -25.7615 H   0  0  0  0  0  0  0  0  0  0  0  0
   -2.0761   20.8186  -27.2122 H   0  0  0  0  0  0  0  0  0  0  0  0
   -0.5602   21.7823  -27.2122 H   0  0  0  0  0  0  0  0  0  0  0  0
   -2.5754   24.9657  -27.0781 H   0  0  0  0  0  0  0  0  0  0  0  0
   -1.0354   24.2401  -26.4462 H   0  0  0  0  0  0  0  0  0  0  0  0
   -4.7479   20.0639  -31.5050 H   0  0  0  0  0  0  0  0  0  0  0  0
  1  2  1  0
  2  3  2  0
  3  4  1  0
  4  5  2  0
  5  6  1  0
  6  7  2  0
  7  8  1  0
  8  9  1  0
  8 10  2  0
  7 11  1  0
 11 12  1  0
 12 13  2  0
 12 14  1  0
 14 15  1  0
 15 16  1  0
 16 17  1  0
 17 18  1  0
 14 19  1  0
 19 20  2  0
 19 21  1  0
 21 22  1  0
 21 23  1  0
 23 24  1  0
 24 25  2  0
 24 26  1  0
 11 27  1  0
 27 28  2  0
 28  2  1  0
 27  5  1  0
  1 29  1  0
  1 30  1  0
  1 31  1  0
  3 32  1  0
  4 33  1  0
  6 34  1  0
  9 35  1  0
 15 36  1  0
 15 37  1  0
 16 38  1  0
 16 39  1  0
 17 40  1  0
 17 41  1  0
 18 42  1  0
 18 43  1  0
 22 44  1  0
 22 45  1  0
 22 46  1  0
 23 47  1  0
 23 48  1  0
 28 49  1  0
M  CHG  2   9  -1  26  -1
M  END
>  <UniqueID>  (45) 
45

>  <SMILES>  (45) 
Cc1ccc2cc(C([NH-])=O)n(C(=O)N(CCCN)C(=O)N(C)CC(=O)[O-])c2c1

>  <Energy>  (45) 
86.19233762863121

>  <Genealogy>  (45) 
Cc1ccc2cc(C([NH-])=O)n(C(=O)N(CCCN)C(=O)N(C)CC(=O)[O-])c2c1 (protonated)
Cc1ccc2cc(C([NH-])=O)n(C(=O)N(CCCN)C(=O)N(C)CC(=O)[O-])c2c1 (3D coordinates assigned)
Cc1ccc2cc(C([NH-])=O)n(C(=O)N(CCCN)C(=O)N(C)CC(=O)[O-])c2c1 (optimized conformer: 86.19233762863121 kcal/mol)

>  <smiles>  (45) 
Cc1ccc2cc(C(N)=O)n(C(=O)N(CCCN)C(=O)N(C)CC(=O)O)c2c1

>  <score_type>  (45) 
oracle

>  <origin>  (45) 
adg

>  <m_score__min__energy>  (45) 
-11.869999999999999

>  <m_primary>  (45) 
energy

$$$$
45:0
     RDKit          3D

 31 32  0  0  0  0  0  0  0  0999 V2000
   -4.2420   25.5490  -30.5560 N   0  0  0  0  0  0  0  0  0  0  0  0
   -5.6010   25.1750  -30.3280 C   0  0  0  0  0  0  0  0  0  0  0  0
   -6.3660   25.9740  -29.7260 O   0  0  0  0  0  0  0  0  0  0  0  0
   -6.1410   23.8930  -30.8250 C   0  0  0  0  0  0  0  0  0  0  0  0
   -7.4980   23.6590  -31.0350 C   0  0  0  0  0  0  0  0  0  0  0  0
   -7.5740   22.3840  -31.5480 C   0  0  0  0  0  0  0  0  0  0  0  0
   -8.6830   21.6320  -31.9270 C   0  0  0  0  0  0  0  0  0  0  0  0
   -8.4630   20.3250  -32.3930 C   0  0  0  0  0  0  0  0  0  0  0  0
   -7.1520   19.7990  -32.4620 C   0  0  0  0  0  0  0  0  0  0  0  0
   -6.9420   18.4540  -32.9300 C   0  0  0  0  0  0  0  0  0  0  0  0
   -6.7640   17.3280  -33.3200 C   0  0  0  0  0  0  0  0  0  0  0  0
   -6.5470   15.9580  -33.7940 C   0  0  0  0  0  0  0  0  0  0  0  0
   -5.2300   15.8110  -34.2500 O   0  0  0  0  0  0  0  0  0  0  0  0
   -6.0500   20.5850  -32.0690 C   0  0  0  0  0  0  0  0  0  0  0  0
   -6.2970   21.8890  -31.6250 C   0  0  0  0  0  0  0  0  0  0  0  0
   -5.4070   22.8000  -31.1800 N   0  0  0  0  0  0  0  0  0  0  0  0
   -3.9970   22.5870  -31.0130 C   0  0  0  0  0  0  0  0  0  0  0  0
   -3.1940   23.0130  -31.8850 O   0  0  0  0  0  0  0  0  0  0  0  0
   -3.4740   21.7810  -29.8660 C   0  0  0  0  0  0  0  0  0  0  0  0
   -3.0790   23.0730  -28.2150 I   0  0  0  0  0  0  0  0  0  0  0  0
   -3.6310   25.0050  -31.2030 H   0  0  0  0  0  0  0  0  0  0  0  0
   -3.8680   26.4340  -30.1460 H   0  0  0  0  0  0  0  0  0  0  0  0
   -8.3321   24.3473  -30.8336 H   0  0  0  0  0  0  0  0  0  0  0  0
   -9.6993   22.0482  -31.8635 H   0  0  0  0  0  0  0  0  0  0  0  0
   -9.3167   19.7062  -32.7065 H   0  0  0  0  0  0  0  0  0  0  0  0
   -6.7271   15.2541  -32.9681 H   0  0  0  0  0  0  0  0  0  0  0  0
   -7.2409   15.7483  -34.6214 H   0  0  0  0  0  0  0  0  0  0  0  0
   -4.7400   15.3080  -33.5460 H   0  0  0  0  0  0  0  0  0  0  0  0
   -5.0260   20.1853  -32.1101 H   0  0  0  0  0  0  0  0  0  0  0  0
   -4.2226   21.0300  -29.5735 H   0  0  0  0  0  0  0  0  0  0  0  0
   -2.5453   21.2737  -30.1663 H   0  0  0  0  0  0  0  0  0  0  0  0
  1  2  1  0
  2  3  2  0
  2  4  1  0
  4  5  2  0
  5  6  1  0
  6  7  2  0
  7  8  1  0
  8  9  2  0
  9 10  1  0
 10 11  3  0
 11 12  1  0
 12 13  1  0
  9 14  1  0
 14 15  2  0
 15 16  1  0
 16 17  1  0
 17 18  2  0
 17 19  1  0
 19 20  1  0
 16  4  1  0
 15  6  1  0
  1 21  1  0
  1 22  1  0
  5 23  1  0
  7 24  1  0
  8 25  1  0
 12 26  1  0
 12 27  1  0
 13 28  1  0
 14 29  1  0
 19 30  1  0
 19 31  1  0
M  END
>  <UniqueID>  (46) 
46

>  <SMILES>  (46) 
NC(=O)c1cc2ccc(C#CCO)cc2n1C(=O)CI

>  <Energy>  (46) 
65.23067121413331

>  <Genealogy>  (46) 
NC(=O)c1cc2ccc(C#CCO)cc2n1C(=O)CI (3D coordinates assigned)
NC(=O)c1cc2ccc(C#CCO)cc2n1C(=O)CI (optimized conformer: 65.23067121413331 kcal/mol)

>  <smiles>  (46) 
NC(=O)c1cc2ccc(C#CCO)cc2n1C(=O)CI

>  <score_type>  (46) 
oracle

>  <origin>  (46) 
adg

>  <m_score__min__energy>  (46) 
-8.4100000000000001

>  <m_primary>  (46) 
energy

$$$$
46:0
     RDKit          3D

 49 50  0  0  0  0  0  0  0  0999 V2000
   -0.5760   25.7960  -24.7590 C   0  0  0  0  0  0  0  0  0  0  0  0
   -1.4340   26.4080  -25.8690 C   0  0  0  0  0  0  0  0  0  0  0  0
   -0.8480   27.7450  -26.3290 C   0  0  0  0  0  0  0  0  0  0  0  0
   -1.5690   25.2790  -27.2600 S   0  0  0  0  0  0  0  0  0  0  0  0
   -1.1290   25.9730  -28.5210 O   0  0  0  0  0  0  0  0  0  0  0  0
   -3.0000   24.8490  -27.4080 O   0  0  0  0  0  0  0  0  0  0  0  0
   -0.5490   23.8390  -26.9890 C   0  0  0  0  0  0  0  0  0  0  0  0
   -0.5800   22.9530  -28.1940 C   0  0  0  0  0  0  0  0  0  0  0  0
    0.2150   21.9780  -28.2700 O   0  0  0  0  0  0  0  0  0  0  0  0
   -1.4770   23.2430  -29.2750 N   0  0  0  0  0  0  0  0  0  0  0  0
   -1.5970   22.3970  -30.4610 C   0  0  0  0  0  0  0  0  0  0  0  0
   -2.9770   21.7320  -30.5400 C   0  0  0  0  0  0  0  0  0  0  0  0
   -3.8680   22.3850  -31.5630 C   0  0  0  0  0  0  0  0  0  0  0  0
   -3.4370   22.5780  -32.7320 O   0  0  0  0  0  0  0  0  0  0  0  0
   -5.2140   22.7610  -31.2260 N   0  0  0  0  0  0  0  0  0  0  0  0
   -5.6660   23.9820  -30.8120 C   0  0  0  0  0  0  0  0  0  0  0  0
   -4.8420   25.1840  -30.5580 C   0  0  0  0  0  0  0  0  0  0  0  0
   -3.4730   25.0790  -30.1830 N   0  0  0  0  0  0  0  0  0  0  0  0
   -5.3670   26.3270  -30.6470 O   0  0  0  0  0  0  0  0  0  0  0  0
   -7.0450   23.9500  -30.6160 C   0  0  0  0  0  0  0  0  0  0  0  0
   -7.4300   22.6670  -30.9280 C   0  0  0  0  0  0  0  0  0  0  0  0
   -8.6960   22.0910  -30.9360 C   0  0  0  0  0  0  0  0  0  0  0  0
   -8.8080   20.7520  -31.3460 C   0  0  0  0  0  0  0  0  0  0  0  0
   -7.6600   20.0130  -31.7360 C   0  0  0  0  0  0  0  0  0  0  0  0
   -7.7940   18.5990  -32.2400 C   0  0  0  0  0  0  0  0  0  0  0  0
   -7.2120   18.4760  -33.4890 F   0  0  0  0  0  0  0  0  0  0  0  0
   -9.1340   18.2720  -32.3330 F   0  0  0  0  0  0  0  0  0  0  0  0
   -7.1710   17.7070  -31.3820 F   0  0  0  0  0  0  0  0  0  0  0  0
   -6.3950   20.6450  -31.7380 C   0  0  0  0  0  0  0  0  0  0  0  0
   -6.3100   21.9710  -31.2980 C   0  0  0  0  0  0  0  0  0  0  0  0
   -0.9828   26.0861  -23.7790 H   0  0  0  0  0  0  0  0  0  0  0  0
   -0.5859   24.6998  -24.8501 H   0  0  0  0  0  0  0  0  0  0  0  0
    0.4572   26.1622  -24.8501 H   0  0  0  0  0  0  0  0  0  0  0  0
   -2.4407   26.5874  -25.4637 H   0  0  0  0  0  0  0  0  0  0  0  0
   -0.5825   28.3508  -25.4501 H   0  0  0  0  0  0  0  0  0  0  0  0
    0.0524   27.5620  -26.9338 H   0  0  0  0  0  0  0  0  0  0  0  0
   -1.5928   28.2831  -26.9338 H   0  0  0  0  0  0  0  0  0  0  0  0
    0.4865   24.1573  -26.7980 H   0  0  0  0  0  0  0  0  0  0  0  0
   -0.9352   23.2821  -26.1226 H   0  0  0  0  0  0  0  0  0  0  0  0
   -2.0270   24.1310  -29.2480 H   0  0  0  0  0  0  0  0  0  0  0  0
   -1.4465   23.0156  -31.3580 H   0  0  0  0  0  0  0  0  0  0  0  0
   -0.8356   21.6055  -30.3988 H   0  0  0  0  0  0  0  0  0  0  0  0
   -2.8449   20.6738  -30.8099 H   0  0  0  0  0  0  0  0  0  0  0  0
   -3.4588   21.8386  -29.5569 H   0  0  0  0  0  0  0  0  0  0  0  0
   -3.0870   25.6380  -29.3890 H   0  0  0  0  0  0  0  0  0  0  0  0
   -7.6897   24.7764  -30.2822 H   0  0  0  0  0  0  0  0  0  0  0  0
   -9.5824   22.6663  -30.6306 H   0  0  0  0  0  0  0  0  0  0  0  0
   -9.7968   20.2704  -31.3651 H   0  0  0  0  0  0  0  0  0  0  0  0
   -5.4979   20.1066  -32.0777 H   0  0  0  0  0  0  0  0  0  0  0  0
  1  2  1  0
  2  3  1  0
  2  4  1  0
  4  5  2  0
  4  6  2  0
  4  7  1  0
  7  8  1  0
  8  9  2  0
  8 10  1  0
 10 11  1  0
 11 12  1  0
 12 13  1  0
 13 14  2  0
 13 15  1  0
 15 16  1  0
 16 17  1  0
 17 18  1  0
 17 19  2  0
 16 20  2  0
 20 21  1  0
 21 22  2  0
 22 23  1  0
 23 24  2  0
 24 25  1  0
 25 26  1  0
 25 27  1  0
 25 28  1  0
 24 29  1  0
 29 30  2  0
 30 15  1  0
 30 21  1  0
  1 31  1  0
  1 32  1  0
  1 33  1  0
  2 34  1  0
  3 35  1  0
  3 36  1  0
  3 37  1  0
  7 38  1  0
  7 39  1  0
 10 40  1  0
 11 41  1  0
 11 42  1  0
 12 43  1  0
 12 44  1  0
 18 45  1  0
 20 46  1  0
 22 47  1  0
 23 48  1  0
 29 49  1  0
M  CHG  1  18  -1
M  END
>  <UniqueID>  (47) 
47

>  <SMILES>  (47) 
CC(C)S(=O)(=O)CC(=O)NCCC(=O)n1c(C([NH-])=O)cc2ccc(C(F)(F)F)cc21

>  <Energy>  (47) 
69.91945325465275

>  <Genealogy>  (47) 
CC(C)S(=O)(=O)CC(=O)NCCC(=O)n1c(C([NH-])=O)cc2ccc(C(F)(F)F)cc21 (protonated)
CC(C)S(=O)(=O)CC(=O)NCCC(=O)n1c(C([NH-])=O)cc2ccc(C(F)(F)F)cc21 (3D coordinates assigned)
CC(C)S(=O)(=O)CC(=O)NCCC(=O)n1c(C([NH-])=O)cc2ccc(C(F)(F)F)cc21 (optimized conformer: 69.91945325465275 kcal/mol)

>  <smiles>  (47) 
CC(C)S(=O)(=O)CC(=O)NCCC(=O)n1c(C(N)=O)cc2ccc(C(F)(F)F)cc21

>  <score_type>  (47) 
oracle

>  <origin>  (47) 
adg

>  <m_score__min__energy>  (47) 
-11.02

>  <m_primary>  (47) 
energy

$$$$
47:0
     RDKit          3D

 55 57  0  0  0  0  0  0  0  0999 V2000
   -7.2460   18.0180  -33.0960 C   0  0  0  0  0  0  0  0  0  0  0  0
   -7.3070   19.3830  -32.4780 C   0  0  0  0  0  0  0  0  0  0  0  0
   -8.5520   20.0460  -32.3440 C   0  0  0  0  0  0  0  0  0  0  0  0
   -8.6170   21.3450  -31.8120 C   0  0  0  0  0  0  0  0  0  0  0  0
   -7.4240   21.9530  -31.4310 C   0  0  0  0  0  0  0  0  0  0  0  0
   -7.1960   23.2120  -30.9200 C   0  0  0  0  0  0  0  0  0  0  0  0
   -5.8150   23.2960  -30.7480 C   0  0  0  0  0  0  0  0  0  0  0  0
   -5.1140   24.4650  -30.1630 C   0  0  0  0  0  0  0  0  0  0  0  0
   -5.3620   24.8700  -28.8160 N   0  0  0  0  0  0  0  0  0  0  0  0
   -4.2750   25.1050  -30.8490 O   0  0  0  0  0  0  0  0  0  0  0  0
   -5.2170   22.1340  -31.1320 N   0  0  0  0  0  0  0  0  0  0  0  0
   -3.8080   21.8530  -31.1580 C   0  0  0  0  0  0  0  0  0  0  0  0
   -3.0870   22.3950  -32.0380 O   0  0  0  0  0  0  0  0  0  0  0  0
   -3.1780   21.0030  -30.0870 C   0  0  0  0  0  0  0  0  0  0  0  0
   -1.6480   21.1820  -30.0010 C   0  0  0  0  0  0  0  0  0  0  0  0
   -1.2070   22.2170  -28.9500 C   0  0  0  0  0  0  0  0  0  0  0  0
   -1.1050   23.6390  -29.5300 C   0  0  0  0  0  0  0  0  0  0  0  0
   -0.3650   24.5670  -28.6370 N   0  0  0  0  0  0  0  0  0  0  0  0
    0.5640   23.7950  -27.7910 C   0  0  0  0  0  0  0  0  0  0  0  0
   -1.1720   25.5080  -27.7980 C   0  0  0  0  0  0  0  0  0  0  0  0
   -2.5110   24.8990  -27.3690 C   0  0  0  0  0  0  0  0  0  0  0  0
   -2.7460   25.3420  -25.9250 C   0  0  0  0  0  0  0  0  0  0  0  0
   -1.6850   26.3900  -25.6150 C   0  0  0  0  0  0  0  0  0  0  0  0
   -0.5140   26.0520  -26.5190 C   0  0  0  0  0  0  0  0  0  0  0  0
   -6.2130   21.3240  -31.5510 C   0  0  0  0  0  0  0  0  0  0  0  0
   -6.1170   20.0390  -32.0960 C   0  0  0  0  0  0  0  0  0  0  0  0
   -7.2120   17.2573  -32.3022 H   0  0  0  0  0  0  0  0  0  0  0  0
   -8.1379   17.8576  -33.7196 H   0  0  0  0  0  0  0  0  0  0  0  0
   -6.3434   17.9378  -33.7196 H   0  0  0  0  0  0  0  0  0  0  0  0
   -9.4760   19.5393  -32.6593 H   0  0  0  0  0  0  0  0  0  0  0  0
   -9.5799   21.8649  -31.7002 H   0  0  0  0  0  0  0  0  0  0  0  0
   -7.9444   23.9863  -30.6955 H   0  0  0  0  0  0  0  0  0  0  0  0
   -6.0960   24.4110  -28.2340 H   0  0  0  0  0  0  0  0  0  0  0  0
   -4.8340   25.6730  -28.4070 H   0  0  0  0  0  0  0  0  0  0  0  0
   -3.6185   21.2770  -29.1170 H   0  0  0  0  0  0  0  0  0  0  0  0
   -3.3734   19.9512  -30.3428 H   0  0  0  0  0  0  0  0  0  0  0  0
   -1.1982   20.2117  -29.7437 H   0  0  0  0  0  0  0  0  0  0  0  0
   -1.3109   21.5527  -30.9803 H   0  0  0  0  0  0  0  0  0  0  0  0
   -1.9406   22.2221  -28.1304 H   0  0  0  0  0  0  0  0  0  0  0  0
   -0.2066   21.9280  -28.5955 H   0  0  0  0  0  0  0  0  0  0  0  0
   -0.5829   23.5888  -30.4969 H   0  0  0  0  0  0  0  0  0  0  0  0
   -2.1278   24.0280  -29.6418 H   0  0  0  0  0  0  0  0  0  0  0  0
    0.3374   23.9833  -26.7312 H   0  0  0  0  0  0  0  0  0  0  0  0
    0.4497   22.7222  -28.0054 H   0  0  0  0  0  0  0  0  0  0  0  0
    1.5978   24.1037  -28.0054 H   0  0  0  0  0  0  0  0  0  0  0  0
   -1.2892   26.3538  -28.4914 H   0  0  0  0  0  0  0  0  0  0  0  0
   -3.3207   25.2672  -28.0161 H   0  0  0  0  0  0  0  0  0  0  0  0
   -2.4938   23.8022  -27.4510 H   0  0  0  0  0  0  0  0  0  0  0  0
   -3.7511   25.7764  -25.8197 H   0  0  0  0  0  0  0  0  0  0  0  0
   -2.6779   24.4905  -25.2320 H   0  0  0  0  0  0  0  0  0  0  0  0
   -2.0637   27.3989  -25.8356 H   0  0  0  0  0  0  0  0  0  0  0  0
   -1.3991   26.3832  -24.5528 H   0  0  0  0  0  0  0  0  0  0  0  0
    0.0820   26.9502  -26.7382 H   0  0  0  0  0  0  0  0  0  0  0  0
    0.1784   25.3304  -26.0608 H   0  0  0  0  0  0  0  0  0  0  0  0
   -5.1389   19.5522  -32.2236 H   0  0  0  0  0  0  0  0  0  0  0  0
  1  2  1  0
  2  3  2  0
  3  4  1  0
  4  5  2  0
  5  6  1  0
  6  7  2  0
  7  8  1  0
  8  9  1  0
  8 10  2  0
  7 11  1  0
 11 12  1  0
 12 13  2  0
 12 14  1  0
 14 15  1  0
 15 16  1  0
 16 17  1  0
 17 18  1  0
 18 19  1  0
 18 20  1  0
 20 21  1  0
 21 22  1  0
 22 23  1  0
 23 24  1  0
 11 25  1  0
 25 26  2  0
 26  2  1  0
 25  5  1  0
 24 20  1  0
  1 27  1  0
  1 28  1  0
  1 29  1  0
  3 30  1  0
  4 31  1  0
  6 32  1  0
  9 33  1  0
  9 34  1  0
 14 35  1  0
 14 36  1  0
 15 37  1  0
 15 38  1  0
 16 39  1  0
 16 40  1  0
 17 41  1  0
 17 42  1  0
 19 43  1  0
 19 44  1  0
 19 45  1  0
 20 46  1  0
 21 47  1  0
 21 48  1  0
 22 49  1  0
 22 50  1  0
 23 51  1  0
 23 52  1  0
 24 53  1  0
 24 54  1  0
 26 55  1  0
M  END
>  <UniqueID>  (48) 
48

>  <SMILES>  (48) 
Cc1ccc2cc(C(N)=O)n(C(=O)CCCCN(C)C3CCCC3)c2c1

>  <Energy>  (48) 
101.67912814343886

>  <Genealogy>  (48) 
Cc1ccc2cc(C(N)=O)n(C(=O)CCCCN(C)C3CCCC3)c2c1 (3D coordinates assigned)
Cc1ccc2cc(C(N)=O)n(C(=O)CCCCN(C)C3CCCC3)c2c1 (nonaromatic ring conformer: 101.67912814343886 kcal/mol)

>  <smiles>  (48) 
Cc1ccc2cc(C(N)=O)n(C(=O)CCCCN(C)C3CCCC3)c2c1

>  <score_type>  (48) 
oracle

>  <origin>  (48) 
adg

>  <m_score__min__energy>  (48) 
-9.9100000000000001

>  <m_primary>  (48) 
energy

$$$$
48:0
     RDKit          3D

 37 38  0  0  0  0  0  0  0  0999 V2000
   -4.9210   24.5850  -29.2690 N   0  0  0  0  0  0  0  0  0  0  0  0
   -6.1800   24.3960  -29.9180 C   0  0  0  0  0  0  0  0  0  0  0  0
   -7.0690   25.2820  -29.8070 O   0  0  0  0  0  0  0  0  0  0  0  0
   -6.4800   23.1550  -30.6590 C   0  0  0  0  0  0  0  0  0  0  0  0
   -7.7510   22.5910  -30.7300 C   0  0  0  0  0  0  0  0  0  0  0  0
   -7.5910   21.4240  -31.4410 C   0  0  0  0  0  0  0  0  0  0  0  0
   -8.5330   20.4780  -31.8300 C   0  0  0  0  0  0  0  0  0  0  0  0
   -8.0950   19.3860  -32.5990 C   0  0  0  0  0  0  0  0  0  0  0  0
   -6.7290   19.2550  -32.9570 C   0  0  0  0  0  0  0  0  0  0  0  0
   -6.2810   18.1140  -33.8360 C   0  0  0  0  0  0  0  0  0  0  0  0
   -7.2380   17.1160  -33.8070 F   0  0  0  0  0  0  0  0  0  0  0  0
   -5.0770   17.5980  -33.3900 F   0  0  0  0  0  0  0  0  0  0  0  0
   -6.1110   18.5400  -35.1410 F   0  0  0  0  0  0  0  0  0  0  0  0
   -5.8060   20.2530  -32.5650 C   0  0  0  0  0  0  0  0  0  0  0  0
   -6.2670   21.3170  -31.7810 C   0  0  0  0  0  0  0  0  0  0  0  0
   -5.5720   22.3760  -31.3110 N   0  0  0  0  0  0  0  0  0  0  0  0
   -4.1860   22.6660  -31.5520 C   0  0  0  0  0  0  0  0  0  0  0  0
   -3.7230   23.8060  -31.2650 O   0  0  0  0  0  0  0  0  0  0  0  0
   -3.3520   21.6810  -32.0920 O   0  0  0  0  0  0  0  0  0  0  0  0
   -2.2790   21.0810  -31.3680 C   0  0  0  0  0  0  0  0  0  0  0  0
   -1.7130   22.0440  -30.3720 C   0  0  0  0  0  0  0  0  0  0  0  0
   -0.5250   22.4480  -30.4970 O   0  0  0  0  0  0  0  0  0  0  0  0
   -2.5120   22.4750  -29.2690 N   0  0  0  0  0  0  0  0  0  0  0  0
   -1.9900   23.3060  -28.1930 C   0  0  0  0  0  0  0  0  0  0  0  0
   -1.7160   24.6760  -28.7140 C   0  0  0  0  0  0  0  0  0  0  0  0
   -2.6030   25.3010  -29.3520 O   0  0  0  0  0  0  0  0  0  0  0  0
   -0.4610   25.2450  -28.5450 O   0  0  0  0  0  0  0  0  0  0  0  0
   -4.7100   25.4860  -28.7860 H   0  0  0  0  0  0  0  0  0  0  0  0
   -4.2310   23.8060  -29.1920 H   0  0  0  0  0  0  0  0  0  0  0  0
   -8.6839   22.9927  -30.3078 H   0  0  0  0  0  0  0  0  0  0  0  0
   -9.5902   20.5812  -31.5442 H   0  0  0  0  0  0  0  0  0  0  0  0
   -8.8190   18.6254  -32.9264 H   0  0  0  0  0  0  0  0  0  0  0  0
   -4.7506   20.1942  -32.8693 H   0  0  0  0  0  0  0  0  0  0  0  0
   -2.6523   20.1916  -30.8393 H   0  0  0  0  0  0  0  0  0  0  0  0
   -1.4873   20.7974  -32.0770 H   0  0  0  0  0  0  0  0  0  0  0  0
   -2.7302   23.3632  -27.3813 H   0  0  0  0  0  0  0  0  0  0  0  0
   -1.0583   22.8661  -27.8078 H   0  0  0  0  0  0  0  0  0  0  0  0
  1  2  1  0
  2  3  2  0
  2  4  1  0
  4  5  2  0
  5  6  1  0
  6  7  2  0
  7  8  1  0
  8  9  2  0
  9 10  1  0
 10 11  1  0
 10 12  1  0
 10 13  1  0
  9 14  1  0
 14 15  2  0
 15 16  1  0
 16 17  1  0
 17 18  2  0
 17 19  1  0
 19 20  1  0
 20 21  1  0
 21 22  2  0
 21 23  1  0
 23 24  1  0
 24 25  1  0
 25 26  2  0
 25 27  1  0
 16  4  1  0
 15  6  1  0
  1 28  1  0
  1 29  1  0
  5 30  1  0
  7 31  1  0
  8 32  1  0
 14 33  1  0
 20 34  1  0
 20 35  1  0
 24 36  1  0
 24 37  1  0
M  CHG  2  23  -1  27  -1
M  END
>  <UniqueID>  (49) 
49

>  <SMILES>  (49) 
NC(=O)c1cc2ccc(C(F)(F)F)cc2n1C(=O)OCC(=O)[N-]CC(=O)[O-]

>  <Energy>  (49) 
70.37383192120464

>  <Genealogy>  (49) 
NC(=O)c1cc2ccc(C(F)(F)F)cc2n1C(=O)OCC(=O)[N-]CC(=O)[O-] (protonated)
NC(=O)c1cc2ccc(C(F)(F)F)cc2n1C(=O)OCC(=O)[N-]CC(=O)[O-] (3D coordinates assigned)
NC(=O)c1cc2ccc(C(F)(F)F)cc2n1C(=O)OCC(=O)[N-]CC(=O)[O-] (optimized conformer: 70.37383192120464 kcal/mol)

>  <smiles>  (49) 
NC(=O)c1cc2ccc(C(F)(F)F)cc2n1C(=O)OCC(=O)NCC(=O)O

>  <score_type>  (49) 
oracle

>  <origin>  (49) 
adg

>  <m_score__min__energy>  (49) 
-11.31

>  <m_primary>  (49) 
energy

$$$$
49:0
     RDKit          3D

 39 40  0  0  0  0  0  0  0  0999 V2000
   -2.9370   21.4500  -32.8080 C   0  0  0  0  0  0  0  0  0  0  0  0
   -2.8510   21.8490  -31.4000 N   0  0  0  0  0  0  0  0  0  0  0  0
   -1.5890   22.3050  -30.8690 C   0  0  0  0  0  0  0  0  0  0  0  0
   -0.5500   21.6080  -31.0250 O   0  0  0  0  0  0  0  0  0  0  0  0
   -1.5140   23.5380  -30.1440 N   0  0  0  0  0  0  0  0  0  0  0  0
   -0.9240   23.6630  -28.8170 C   0  0  0  0  0  0  0  0  0  0  0  0
   -0.7130   25.1040  -28.4850 C   0  0  0  0  0  0  0  0  0  0  0  0
    0.2940   25.4620  -27.8180 O   0  0  0  0  0  0  0  0  0  0  0  0
   -1.6090   26.0610  -28.9460 O   0  0  0  0  0  0  0  0  0  0  0  0
   -3.9810   21.6290  -30.5320 C   0  0  0  0  0  0  0  0  0  0  0  0
   -3.8550   20.9050  -29.5080 O   0  0  0  0  0  0  0  0  0  0  0  0
   -5.2570   22.2280  -30.8140 N   0  0  0  0  0  0  0  0  0  0  0  0
   -5.6720   23.4960  -30.5300 C   0  0  0  0  0  0  0  0  0  0  0  0
   -4.8300   24.5800  -29.9850 C   0  0  0  0  0  0  0  0  0  0  0  0
   -3.8800   25.2530  -30.8050 N   0  0  0  0  0  0  0  0  0  0  0  0
   -4.9770   24.9430  -28.7870 O   0  0  0  0  0  0  0  0  0  0  0  0
   -7.0130   23.6590  -30.8730 C   0  0  0  0  0  0  0  0  0  0  0  0
   -7.4080   22.4450  -31.3880 C   0  0  0  0  0  0  0  0  0  0  0  0
   -8.6470   22.0370  -31.8720 C   0  0  0  0  0  0  0  0  0  0  0  0
   -8.7760   20.7100  -32.3150 C   0  0  0  0  0  0  0  0  0  0  0  0
   -7.6780   19.8170  -32.2520 C   0  0  0  0  0  0  0  0  0  0  0  0
   -7.8220   18.4060  -32.7490 C   0  0  0  0  0  0  0  0  0  0  0  0
   -6.6270   18.0250  -33.5620 C   0  0  0  0  0  0  0  0  0  0  0  0
   -6.1250   18.8460  -34.3740 O   0  0  0  0  0  0  0  0  0  0  0  0
   -6.0370   16.7800  -33.3880 O   0  0  0  0  0  0  0  0  0  0  0  0
   -6.4310   20.2700  -31.7630 C   0  0  0  0  0  0  0  0  0  0  0  0
   -6.3290   21.6010  -31.3430 C   0  0  0  0  0  0  0  0  0  0  0  0
   -3.1684   20.3765  -32.8714 H   0  0  0  0  0  0  0  0  0  0  0  0
   -3.7316   22.0263  -33.3045 H   0  0  0  0  0  0  0  0  0  0  0  0
   -1.9756   21.6478  -33.3045 H   0  0  0  0  0  0  0  0  0  0  0  0
   -1.5994   23.2132  -28.0743 H   0  0  0  0  0  0  0  0  0  0  0  0
    0.0455   23.1436  -28.8027 H   0  0  0  0  0  0  0  0  0  0  0  0
   -2.8720   25.2980  -30.5350 H   0  0  0  0  0  0  0  0  0  0  0  0
   -7.6256   24.5652  -30.7569 H   0  0  0  0  0  0  0  0  0  0  0  0
   -9.4991   22.7318  -31.9067 H   0  0  0  0  0  0  0  0  0  0  0  0
   -9.7394   20.3608  -32.7149 H   0  0  0  0  0  0  0  0  0  0  0  0
   -7.9103   17.7246  -31.8900 H   0  0  0  0  0  0  0  0  0  0  0  0
   -8.7227   18.3347  -33.3764 H   0  0  0  0  0  0  0  0  0  0  0  0
   -5.5644   19.5943  -31.7140 H   0  0  0  0  0  0  0  0  0  0  0  0
  1  2  1  0
  2  3  1  0
  3  4  2  0
  3  5  1  0
  5  6  1  0
  6  7  1  0
  7  8  2  0
  7  9  1  0
  2 10  1  0
 10 11  2  0
 10 12  1  0
 12 13  1  0
 13 14  1  0
 14 15  1  0
 14 16  2  0
 13 17  2  0
 17 18  1  0
 18 19  2  0
 19 20  1  0
 20 21  2  0
 21 22  1  0
 22 23  1  0
 23 24  2  0
 23 25  1  0
 21 26  1  0
 26 27  2  0
 27 12  1  0
 27 18  1  0
  1 28  1  0
  1 29  1  0
  1 30  1  0
  6 31  1  0
  6 32  1  0
 15 33  1  0
 17 34  1  0
 19 35  1  0
 20 36  1  0
 22 37  1  0
 22 38  1  0
 26 39  1  0
M  CHG  4   5  -1   9  -1  15  -1  25  -1
M  END
>  <UniqueID>  (50) 
50

>  <SMILES>  (50) 
CN(C(=O)[N-]CC(=O)[O-])C(=O)n1c(C([NH-])=O)cc2ccc(CC(=O)[O-])cc21

>  <Energy>  (50) 
74.26837293062815

>  <Genealogy>  (50) 
CN(C(=O)[N-]CC(=O)[O-])C(=O)n1c(C([NH-])=O)cc2ccc(CC(=O)[O-])cc21 (protonated)
CN(C(=O)[N-]CC(=O)[O-])C(=O)n1c(C([NH-])=O)cc2ccc(CC(=O)[O-])cc21 (3D coordinates assigned)
CN(C(=O)[N-]CC(=O)[O-])C(=O)n1c(C([NH-])=O)cc2ccc(CC(=O)[O-])cc21 (optimized conformer: 74.26837293062815 kcal/mol)

>  <smiles>  (50) 
CN(C(=O)NCC(=O)O)C(=O)n1c(C(N)=O)cc2ccc(CC(=O)O)cc21

>  <score_type>  (50) 
oracle

>  <origin>  (50) 
adg

>  <m_score__min__energy>  (50) 
-13.23

>  <m_primary>  (50) 
energy

$$$$
50:0
     RDKit          3D

 32 33  0  0  0  0  0  0  0  0999 V2000
   -2.1810   18.4650  -33.7450 N   0  0  0  0  0  0  0  0  0  0  0  0
   -3.4720   18.0950  -34.2220 C   0  0  0  0  0  0  0  0  0  0  0  0
   -3.5650   17.3230  -35.2130 O   0  0  0  0  0  0  0  0  0  0  0  0
   -4.6980   18.6490  -33.6090 C   0  0  0  0  0  0  0  0  0  0  0  0
   -5.9110   17.9650  -33.5700 C   0  0  0  0  0  0  0  0  0  0  0  0
   -6.8070   18.8440  -33.0090 C   0  0  0  0  0  0  0  0  0  0  0  0
   -8.1570   18.6790  -32.7120 C   0  0  0  0  0  0  0  0  0  0  0  0
   -8.8320   19.7460  -32.0980 C   0  0  0  0  0  0  0  0  0  0  0  0
   -8.1560   20.9580  -31.7980 C   0  0  0  0  0  0  0  0  0  0  0  0
   -8.8760   22.0710  -31.0810 C   0  0  0  0  0  0  0  0  0  0  0  0
   -7.9680   22.7860  -30.3230 F   0  0  0  0  0  0  0  0  0  0  0  0
   -9.8570   21.5630  -30.2480 F   0  0  0  0  0  0  0  0  0  0  0  0
   -9.4790   22.9260  -31.9870 F   0  0  0  0  0  0  0  0  0  0  0  0
   -6.7780   21.0770  -32.0940 C   0  0  0  0  0  0  0  0  0  0  0  0
   -6.1360   20.0050  -32.7240 C   0  0  0  0  0  0  0  0  0  0  0  0
   -4.8370   19.8990  -33.0830 N   0  0  0  0  0  0  0  0  0  0  0  0
   -3.8140   20.8840  -32.8660 C   0  0  0  0  0  0  0  0  0  0  0  0
   -3.0990   21.2720  -33.8290 O   0  0  0  0  0  0  0  0  0  0  0  0
   -3.6000   21.3880  -31.5780 O   0  0  0  0  0  0  0  0  0  0  0  0
   -3.7720   22.7620  -31.2470 C   0  0  0  0  0  0  0  0  0  0  0  0
   -2.6700   23.1960  -30.4850 O   0  0  0  0  0  0  0  0  0  0  0  0
   -3.0780   24.6760  -29.7430 P   0  0  0  0  0  0  0  0  0  0  0  0
   -3.9340   24.4240  -28.5210 O   0  0  0  0  0  0  0  0  0  0  0  0
   -1.6590   25.4620  -29.2690 O   0  0  0  0  0  0  0  0  0  0  0  0
   -3.9190   25.6670  -30.8270 O   0  0  0  0  0  0  0  0  0  0  0  0
   -1.9450   19.4630  -33.5520 H   0  0  0  0  0  0  0  0  0  0  0  0
   -6.1097   16.9395  -33.9148 H   0  0  0  0  0  0  0  0  0  0  0  0
   -8.6792   17.7409  -32.9512 H   0  0  0  0  0  0  0  0  0  0  0  0
   -9.8977   19.6417  -31.8463 H   0  0  0  0  0  0  0  0  0  0  0  0
   -6.2238   21.9912  -31.8349 H   0  0  0  0  0  0  0  0  0  0  0  0
   -3.8386   23.3572  -32.1697 H   0  0  0  0  0  0  0  0  0  0  0  0
   -4.6968   22.8891  -30.6651 H   0  0  0  0  0  0  0  0  0  0  0  0
  1  2  1  0
  2  3  2  0
  2  4  1  0
  4  5  2  0
  5  6  1  0
  6  7  2  0
  7  8  1  0
  8  9  2  0
  9 10  1  0
 10 11  1  0
 10 12  1  0
 10 13  1  0
  9 14  1  0
 14 15  2  0
 15 16  1  0
 16 17  1  0
 17 18  2  0
 17 19  1  0
 19 20  1  0
 20 21  1  0
 21 22  1  0
 22 23  2  0
 22 24  1  0
 22 25  1  0
 16  4  1  0
 15  6  1  0
  1 26  1  0
  5 27  1  0
  7 28  1  0
  8 29  1  0
 14 30  1  0
 20 31  1  0
 20 32  1  0
M  CHG  3   1  -1  24  -1  25  -1
M  END
>  <UniqueID>  (51) 
51

>  <SMILES>  (51) 
[NH-]C(=O)c1cc2ccc(C(F)(F)F)cc2n1C(=O)OCOP(=O)([O-])[O-]

>  <Energy>  (51) 
69.65743475919969

>  <Genealogy>  (51) 
[NH-]C(=O)c1cc2ccc(C(F)(F)F)cc2n1C(=O)OCOP(=O)([O-])[O-] (protonated)
[NH-]C(=O)c1cc2ccc(C(F)(F)F)cc2n1C(=O)OCOP(=O)([O-])[O-] (3D coordinates assigned)
[NH-]C(=O)c1cc2ccc(C(F)(F)F)cc2n1C(=O)OCOP(=O)([O-])[O-] (optimized conformer: 69.65743475919969 kcal/mol)

>  <smiles>  (51) 
NC(=O)c1cc2ccc(C(F)(F)F)cc2n1C(=O)OCOP(=O)(O)O

>  <score_type>  (51) 
oracle

>  <origin>  (51) 
adg

>  <m_score__min__energy>  (51) 
-13.359999999999999

>  <m_primary>  (51) 
energy

$$$$
51:0
     RDKit          3D

 44 46  0  0  0  0  0  0  0  0999 V2000
   -4.0130   25.6470  -30.8450 N   0  0  0  0  0  0  0  0  0  0  0  0
   -5.2500   25.1590  -30.3260 C   0  0  0  0  0  0  0  0  0  0  0  0
   -5.7390   25.6940  -29.2930 O   0  0  0  0  0  0  0  0  0  0  0  0
   -5.9320   24.0030  -30.9470 C   0  0  0  0  0  0  0  0  0  0  0  0
   -7.3180   23.8480  -30.9560 C   0  0  0  0  0  0  0  0  0  0  0  0
   -7.5430   22.6130  -31.5190 C   0  0  0  0  0  0  0  0  0  0  0  0
   -8.7380   21.9510  -31.7770 C   0  0  0  0  0  0  0  0  0  0  0  0
   -8.6690   20.6820  -32.3740 C   0  0  0  0  0  0  0  0  0  0  0  0
   -7.4220   20.0950  -32.7030 C   0  0  0  0  0  0  0  0  0  0  0  0
   -7.4080   18.7680  -33.2740 N   0  0  0  0  0  0  0  0  0  0  0  0
   -6.3410   17.7690  -33.1160 C   0  0  1  0  0  0  0  0  0  0  0  0
   -6.8460   16.3380  -33.4260 C   0  0  0  0  0  0  0  0  0  0  0  0
   -5.8300   15.4910  -34.2060 C   0  0  0  0  0  0  0  0  0  0  0  0
   -4.4020   15.7110  -33.6980 C   0  0  0  0  0  0  0  0  0  0  0  0
   -4.0280   17.1310  -33.7570 N   0  0  0  0  0  0  0  0  0  0  0  0
   -2.6360   17.4900  -33.8370 C   0  0  0  0  0  0  0  0  0  0  0  0
   -2.0130   17.8730  -32.8130 O   0  0  0  0  0  0  0  0  0  0  0  0
   -1.9720   17.4510  -35.0540 O   0  0  0  0  0  0  0  0  0  0  0  0
   -5.0620   18.1710  -33.8850 C   0  0  0  0  0  0  0  0  0  0  0  0
   -6.2330   20.8230  -32.4610 C   0  0  0  0  0  0  0  0  0  0  0  0
   -6.3270   22.0700  -31.8360 C   0  0  0  0  0  0  0  0  0  0  0  0
   -5.3260   22.9140  -31.4980 N   0  0  0  0  0  0  0  0  0  0  0  0
   -3.9260   22.7140  -31.7420 C   0  0  0  0  0  0  0  0  0  0  0  0
   -3.0750   23.1680  -30.9290 O   0  0  0  0  0  0  0  0  0  0  0  0
   -3.5130   21.9970  -32.8720 O   0  0  0  0  0  0  0  0  0  0  0  0
   -2.7000   20.8320  -32.7950 C   0  0  0  0  0  0  0  0  0  0  0  0
   -1.1440   21.1050  -33.6200 Cl  0  0  0  0  0  0  0  0  0  0  0  0
   -3.1010   25.2930  -30.4800 H   0  0  0  0  0  0  0  0  0  0  0  0
   -8.0712   24.5616  -30.5906 H   0  0  0  0  0  0  0  0  0  0  0  0
   -9.7061   22.4066  -31.5217 H   0  0  0  0  0  0  0  0  0  0  0  0
   -9.5983   20.1345  -32.5899 H   0  0  0  0  0  0  0  0  0  0  0  0
   -8.2980   18.4240  -33.7000 H   0  0  0  0  0  0  0  0  0  0  0  0
   -6.0459   17.7484  -32.0565 H   0  0  0  0  0  0  0  0  0  0  0  0
   -7.0655   15.8315  -32.4746 H   0  0  0  0  0  0  0  0  0  0  0  0
   -7.7405   16.4380  -34.0584 H   0  0  0  0  0  0  0  0  0  0  0  0
   -6.0894   14.4281  -34.0919 H   0  0  0  0  0  0  0  0  0  0  0  0
   -5.8691   15.7945  -35.2626 H   0  0  0  0  0  0  0  0  0  0  0  0
   -4.3351   15.3657  -32.6558 H   0  0  0  0  0  0  0  0  0  0  0  0
   -3.7131   15.1431  -34.3406 H   0  0  0  0  0  0  0  0  0  0  0  0
   -4.6762   19.1159  -33.4747 H   0  0  0  0  0  0  0  0  0  0  0  0
   -5.3128   18.2906  -34.9493 H   0  0  0  0  0  0  0  0  0  0  0  0
   -5.2552   20.4163  -32.7584 H   0  0  0  0  0  0  0  0  0  0  0  0
   -2.5125   20.5900  -31.7385 H   0  0  0  0  0  0  0  0  0  0  0  0
   -3.2232   19.9985  -33.2865 H   0  0  0  0  0  0  0  0  0  0  0  0
  1  2  1  0
  2  3  2  0
  2  4  1  0
  4  5  2  0
  5  6  1  0
  6  7  2  0
  7  8  1  0
  8  9  2  0
  9 10  1  0
 10 11  1  0
 11 12  1  0
 12 13  1  0
 13 14  1  0
 14 15  1  0
 15 16  1  0
 16 17  2  0
 16 18  1  0
 15 19  1  0
  9 20  1  0
 20 21  2  0
 21 22  1  0
 22 23  1  0
 23 24  2  0
 23 25  1  0
 25 26  1  0
 26 27  1  0
 22  4  1  0
 21  6  1  0
 19 11  1  0
  1 28  1  0
  5 29  1  0
  7 30  1  0
  8 31  1  0
 10 32  1  0
 11 33  1  1
 12 34  1  0
 12 35  1  0
 13 36  1  0
 13 37  1  0
 14 38  1  0
 14 39  1  0
 19 40  1  0
 19 41  1  0
 20 42  1  0
 26 43  1  0
 26 44  1  0
M  CHG  2   1  -1  18  -1
M  END
>  <UniqueID>  (52) 
52

>  <SMILES>  (52) 
[NH-]C(=O)c1cc2ccc(N[C@H]3CCCN(C(=O)[O-])C3)cc2n1C(=O)OCCl

>  <Energy>  (52) 
86.91045292397763

>  <Genealogy>  (52) 
[NH-]C(=O)c1cc2ccc(N[C@H]3CCCN(C(=O)[O-])C3)cc2n1C(=O)OCCl (protonated)
[NH-]C(=O)c1cc2ccc(N[C@H]3CCCN(C(=O)[O-])C3)cc2n1C(=O)OCCl (3D coordinates assigned)
[NH-]C(=O)c1cc2ccc(N[C@H]3CCCN(C(=O)[O-])C3)cc2n1C(=O)OCCl (nonaromatic ring conformer: 86.91045292397763 kcal/mol)

>  <smiles>  (52) 
NC(=O)c1cc2ccc(N[C@H]3CCCN(C(=O)O)C3)cc2n1C(=O)OCCl

>  <score_type>  (52) 
oracle

>  <origin>  (52) 
adg

>  <m_score__min__energy>  (52) 
-10.76

>  <m_primary>  (52) 
energy

$$$$
52:0
     RDKit          3D

 54 55  0  0  0  0  0  0  0  0999 V2000
   -3.8160   21.9380  -33.6080 C   0  0  0  0  0  0  0  0  0  0  0  0
   -3.1280   22.0210  -32.3150 N   0  0  0  0  0  0  0  0  0  0  0  0
   -1.9250   21.2530  -32.0990 C   0  0  0  0  0  0  0  0  0  0  0  0
   -1.7910   20.1200  -32.6360 O   0  0  0  0  0  0  0  0  0  0  0  0
   -0.8140   21.7790  -31.2270 C   0  0  0  0  0  0  0  0  0  0  0  0
   -0.3940   20.7800  -30.1300 C   0  0  0  0  0  0  0  0  0  0  0  0
   -1.4660   20.5310  -29.0320 C   0  0  0  0  0  0  0  0  0  0  0  0
   -1.8940   21.7310  -28.2700 N   0  0  1  0  0  0  0  0  0  0  0  0
   -3.1580   21.5460  -27.5360 C   0  0  0  0  0  0  0  0  0  0  0  0
   -0.8360   22.2320  -27.4230 C   0  0  0  0  0  0  0  0  0  0  0  0
   -0.7000   21.8090  -26.2400 O   0  0  0  0  0  0  0  0  0  0  0  0
    0.0680   23.1670  -27.9410 O   0  0  0  0  0  0  0  0  0  0  0  0
   -0.0800   24.5760  -27.7830 C   0  0  0  0  0  0  0  0  0  0  0  0
   -1.2810   25.0610  -28.5320 C   0  0  0  0  0  0  0  0  0  0  0  0
   -1.1820   26.0190  -29.3450 O   0  0  0  0  0  0  0  0  0  0  0  0
   -2.5210   24.4770  -28.3090 O   0  0  0  0  0  0  0  0  0  0  0  0
   -3.7850   22.6920  -31.2200 C   0  0  0  0  0  0  0  0  0  0  0  0
   -3.1150   23.0540  -30.2140 O   0  0  0  0  0  0  0  0  0  0  0  0
   -5.1990   22.9390  -31.2370 N   0  0  0  0  0  0  0  0  0  0  0  0
   -5.8550   24.0750  -30.8670 C   0  0  0  0  0  0  0  0  0  0  0  0
   -5.2230   25.3600  -30.4910 C   0  0  0  0  0  0  0  0  0  0  0  0
   -3.8730   25.6510  -30.8430 N   0  0  0  0  0  0  0  0  0  0  0  0
   -5.8910   26.2190  -29.8560 O   0  0  0  0  0  0  0  0  0  0  0  0
   -7.2340   23.8690  -30.8880 C   0  0  0  0  0  0  0  0  0  0  0  0
   -7.4020   22.5540  -31.2650 C   0  0  0  0  0  0  0  0  0  0  0  0
   -8.5630   21.8000  -31.3980 C   0  0  0  0  0  0  0  0  0  0  0  0
   -8.4320   20.4450  -31.7500 C   0  0  0  0  0  0  0  0  0  0  0  0
   -7.1490   19.8730  -31.9700 C   0  0  0  0  0  0  0  0  0  0  0  0
   -7.0100   18.4070  -32.2950 C   0  0  0  0  0  0  0  0  0  0  0  0
   -8.2410   17.7750  -32.2700 F   0  0  0  0  0  0  0  0  0  0  0  0
   -6.1780   17.8110  -31.3650 F   0  0  0  0  0  0  0  0  0  0  0  0
   -6.4640   18.2450  -33.5580 F   0  0  0  0  0  0  0  0  0  0  0  0
   -5.9940   20.6660  -31.7930 C   0  0  0  0  0  0  0  0  0  0  0  0
   -6.1580   22.0150  -31.4590 C   0  0  0  0  0  0  0  0  0  0  0  0
   -4.8955   21.8078  -33.4413 H   0  0  0  0  0  0  0  0  0  0  0  0
   -3.6418   22.8637  -34.1761 H   0  0  0  0  0  0  0  0  0  0  0  0
   -3.4266   21.0803  -34.1761 H   0  0  0  0  0  0  0  0  0  0  0  0
    0.0592   21.9932  -31.8607 H   0  0  0  0  0  0  0  0  0  0  0  0
   -1.1857   22.6851  -30.7262 H   0  0  0  0  0  0  0  0  0  0  0  0
   -0.1674   19.8175  -30.6119 H   0  0  0  0  0  0  0  0  0  0  0  0
    0.4739   21.2247  -29.6211 H   0  0  0  0  0  0  0  0  0  0  0  0
   -2.3555   20.1037  -29.5181 H   0  0  0  0  0  0  0  0  0  0  0  0
   -0.9951   19.8605  -28.2981 H   0  0  0  0  0  0  0  0  0  0  0  0
   -2.0810   22.4760  -28.9830 H   0  0  0  0  0  0  0  0  0  0  0  0
   -2.9613   21.5748  -26.4541 H   0  0  0  0  0  0  0  0  0  0  0  0
   -3.8583   22.3512  -27.8029 H   0  0  0  0  0  0  0  0  0  0  0  0
   -3.5981   20.5739  -27.8029 H   0  0  0  0  0  0  0  0  0  0  0  0
   -0.1997   24.8105  -26.7150 H   0  0  0  0  0  0  0  0  0  0  0  0
    0.8152   25.0759  -28.1814 H   0  0  0  0  0  0  0  0  0  0  0  0
   -3.0760   25.2880  -30.2720 H   0  0  0  0  0  0  0  0  0  0  0  0
   -8.0209   24.6009  -30.6534 H   0  0  0  0  0  0  0  0  0  0  0  0
   -9.5532   22.2498  -31.2329 H   0  0  0  0  0  0  0  0  0  0  0  0
   -9.3316   19.8209  -31.8563 H   0  0  0  0  0  0  0  0  0  0  0  0
   -4.9898   20.2338  -31.9147 H   0  0  0  0  0  0  0  0  0  0  0  0
  1  2  1  0
  2  3  1  0
  3  4  2  0
  3  5  1  0
  5  6  1  0
  6  7  1  0
  7  8  1  0
  8  9  1  0
  8 10  1  0
 10 11  2  0
 10 12  1  0
 12 13  1  0
 13 14  1  0
 14 15  2  0
 14 16  1  0
  2 17  1  0
 17 18  2  0
 17 19  1  0
 19 20  1  0
 20 21  1  0
 21 22  1  0
 21 23  2  0
 20 24  2  0
 24 25  1  0
 25 26  2  0
 26 27  1  0
 27 28  2  0
 28 29  1  0
 29 30  1  0
 29 31  1  0
 29 32  1  0
 28 33  1  0
 33 34  2  0
 34 19  1  0
 34 25  1  0
  1 35  1  0
  1 36  1  0
  1 37  1  0
  5 38  1  0
  5 39  1  0
  6 40  1  0
  6 41  1  0
  7 42  1  0
  7 43  1  0
  8 44  1  6
  9 45  1  0
  9 46  1  0
  9 47  1  0
 13 48  1  0
 13 49  1  0
 22 50  1  0
 24 51  1  0
 26 52  1  0
 27 53  1  0
 33 54  1  0
M  CHG  3   8   1  16  -1  22  -1
M  END
>  <UniqueID>  (53) 
53

>  <SMILES>  (53) 
CN(C(=O)CCC[N@@H+](C)C(=O)OCC(=O)[O-])C(=O)n1c(C([NH-])=O)cc2ccc(C(F)(F)F)cc21

>  <Energy>  (53) 
99.006261042103

>  <Genealogy>  (53) 
CN(C(=O)CCC[NH+](C)C(=O)OCC(=O)[O-])C(=O)n1c(C([NH-])=O)cc2ccc(C(F)(F)F)cc21 (protonated)
CN(C(=O)CCC[N@@H+](C)C(=O)OCC(=O)[O-])C(=O)n1c(C([NH-])=O)cc2ccc(C(F)(F)F)cc21 (chirality)
CN(C(=O)CCC[N@@H+](C)C(=O)OCC(=O)[O-])C(=O)n1c(C([NH-])=O)cc2ccc(C(F)(F)F)cc21 (3D coordinates assigned)
CN(C(=O)CCC[N@@H+](C)C(=O)OCC(=O)[O-])C(=O)n1c(C([NH-])=O)cc2ccc(C(F)(F)F)cc21 (optimized conformer: 99.006261042103 kcal/mol)

>  <smiles>  (53) 
CN(CCCC(=O)N(C)C(=O)n1c(C(N)=O)cc2ccc(C(F)(F)F)cc21)C(=O)OCC(=O)O

>  <score_type>  (53) 
oracle

>  <origin>  (53) 
adg

>  <m_score__min__energy>  (53) 
-11.16

>  <m_primary>  (53) 
energy

$$$$
53:0
     RDKit          3D

 38 39  0  0  0  0  0  0  0  0999 V2000
   -3.5750   25.2600  -30.0750 N   0  0  0  0  0  0  0  0  0  0  0  0
   -4.9320   25.3120  -30.5110 C   0  0  0  0  0  0  0  0  0  0  0  0
   -5.5250   26.4220  -30.5510 O   0  0  0  0  0  0  0  0  0  0  0  0
   -5.6190   24.0770  -30.9360 C   0  0  0  0  0  0  0  0  0  0  0  0
   -6.9700   24.0160  -31.2730 C   0  0  0  0  0  0  0  0  0  0  0  0
   -7.2190   22.6860  -31.5370 C   0  0  0  0  0  0  0  0  0  0  0  0
   -8.3940   22.0520  -31.9250 C   0  0  0  0  0  0  0  0  0  0  0  0
   -8.3540   20.6640  -32.1460 C   0  0  0  0  0  0  0  0  0  0  0  0
   -7.1390   19.9410  -32.0050 C   0  0  0  0  0  0  0  0  0  0  0  0
   -7.1030   18.4480  -32.2140 C   0  0  0  0  0  0  0  0  0  0  0  0
   -6.1770   17.8900  -31.3530 F   0  0  0  0  0  0  0  0  0  0  0  0
   -8.3440   17.8840  -31.9680 F   0  0  0  0  0  0  0  0  0  0  0  0
   -6.7440   18.1520  -33.5180 F   0  0  0  0  0  0  0  0  0  0  0  0
   -5.9710   20.6200  -31.5870 C   0  0  0  0  0  0  0  0  0  0  0  0
   -6.0480   21.9980  -31.3600 C   0  0  0  0  0  0  0  0  0  0  0  0
   -5.0570   22.8380  -30.9960 N   0  0  0  0  0  0  0  0  0  0  0  0
   -3.6800   22.4810  -30.8110 C   0  0  0  0  0  0  0  0  0  0  0  0
   -2.7880   23.1010  -31.4530 O   0  0  0  0  0  0  0  0  0  0  0  0
   -3.3010   21.4930  -29.7400 C   0  0  0  0  0  0  0  0  0  0  0  0
   -2.3950   22.1010  -28.7080 C   0  0  0  0  0  0  0  0  0  0  0  0
   -1.9700   21.3870  -27.7610 O   0  0  0  0  0  0  0  0  0  0  0  0
   -2.0460   23.4910  -28.7810 N   0  0  0  0  0  0  0  0  0  0  0  0
   -1.3020   24.1770  -27.7260 C   0  0  0  0  0  0  0  0  0  0  0  0
   -1.2930   25.6910  -27.9590 C   0  0  0  0  0  0  0  0  0  0  0  0
   -1.2050   25.9910  -29.3270 O   0  0  0  0  0  0  0  0  0  0  0  0
   -2.7890   25.2640  -30.7630 H   0  0  0  0  0  0  0  0  0  0  0  0
   -7.6849   24.8508  -31.3186 H   0  0  0  0  0  0  0  0  0  0  0  0
   -9.3273   22.6195  -32.0552 H   0  0  0  0  0  0  0  0  0  0  0  0
   -9.2735   20.1319  -32.4312 H   0  0  0  0  0  0  0  0  0  0  0  0
   -5.0248   20.0775  -31.4439 H   0  0  0  0  0  0  0  0  0  0  0  0
   -4.2166   21.1384  -29.2440 H   0  0  0  0  0  0  0  0  0  0  0  0
   -2.7609   20.6632  -30.2193 H   0  0  0  0  0  0  0  0  0  0  0  0
   -2.3250   24.0410  -29.6270 H   0  0  0  0  0  0  0  0  0  0  0  0
   -1.7747   23.9648  -26.7557 H   0  0  0  0  0  0  0  0  0  0  0  0
   -0.2637   23.8139  -27.7353 H   0  0  0  0  0  0  0  0  0  0  0  0
   -2.2211   26.1221  -27.5556 H   0  0  0  0  0  0  0  0  0  0  0  0
   -0.4158   26.1176  -27.4506 H   0  0  0  0  0  0  0  0  0  0  0  0
   -2.0550   25.6810  -29.7410 H   0  0  0  0  0  0  0  0  0  0  0  0
  1  2  1  0
  2  3  2  0
  2  4  1  0
  4  5  2  0
  5  6  1  0
  6  7  2  0
  7  8  1  0
  8  9  2  0
  9 10  1  0
 10 11  1  0
 10 12  1  0
 10 13  1  0
  9 14  1  0
 14 15  2  0
 15 16  1  0
 16 17  1  0
 17 18  2  0
 17 19  1  0
 19 20  1  0
 20 21  2  0
 20 22  1  0
 22 23  1  0
 23 24  1  0
 24 25  1  0
 16  4  1  0
 15  6  1  0
  1 26  1  0
  5 27  1  0
  7 28  1  0
  8 29  1  0
 14 30  1  0
 19 31  1  0
 19 32  1  0
 22 33  1  0
 23 34  1  0
 23 35  1  0
 24 36  1  0
 24 37  1  0
 25 38  1  0
M  CHG  1   1  -1
M  END
>  <UniqueID>  (54) 
54

>  <SMILES>  (54) 
[NH-]C(=O)c1cc2ccc(C(F)(F)F)cc2n1C(=O)CC(=O)NCCO

>  <Energy>  (54) 
73.70157364725591

>  <Genealogy>  (54) 
[NH-]C(=O)c1cc2ccc(C(F)(F)F)cc2n1C(=O)CC(=O)NCCO (protonated)
[NH-]C(=O)c1cc2ccc(C(F)(F)F)cc2n1C(=O)CC(=O)NCCO (3D coordinates assigned)
[NH-]C(=O)c1cc2ccc(C(F)(F)F)cc2n1C(=O)CC(=O)NCCO (optimized conformer: 73.70157364725591 kcal/mol)

>  <smiles>  (54) 
NC(=O)c1cc2ccc(C(F)(F)F)cc2n1C(=O)CC(=O)NCCO

>  <score_type>  (54) 
oracle

>  <origin>  (54) 
adg

>  <m_score__min__energy>  (54) 
-10.06

>  <m_primary>  (54) 
energy

$$$$
54:0
     RDKit          3D

 50 51  0  0  0  0  0  0  0  0999 V2000
   -5.7640   18.0000  -34.7000 C   0  0  0  0  0  0  0  0  0  0  0  0
   -6.1930   17.6630  -33.4800 C   0  0  0  0  0  0  0  0  0  0  0  0
   -7.5810   17.9890  -33.0020 C   0  0  0  0  0  0  0  0  0  0  0  0
   -7.6120   19.3350  -32.3270 C   0  0  0  0  0  0  0  0  0  0  0  0
   -8.7880   19.7710  -31.6630 C   0  0  0  0  0  0  0  0  0  0  0  0
   -8.8100   21.0010  -30.9830 C   0  0  0  0  0  0  0  0  0  0  0  0
   -7.6450   21.7670  -30.9810 C   0  0  0  0  0  0  0  0  0  0  0  0
   -7.3920   22.9960  -30.4130 C   0  0  0  0  0  0  0  0  0  0  0  0
   -6.0720   23.2970  -30.7560 C   0  0  0  0  0  0  0  0  0  0  0  0
   -5.3580   24.5290  -30.3380 C   0  0  0  0  0  0  0  0  0  0  0  0
   -5.2010   24.8440  -28.9530 N   0  0  0  0  0  0  0  0  0  0  0  0
   -4.8320   25.2850  -31.2020 O   0  0  0  0  0  0  0  0  0  0  0  0
   -5.5340   22.2810  -31.4890 N   0  0  0  0  0  0  0  0  0  0  0  0
   -4.2450   22.2360  -32.1160 C   0  0  0  0  0  0  0  0  0  0  0  0
   -4.1300   22.6600  -33.2980 O   0  0  0  0  0  0  0  0  0  0  0  0
   -3.0920   21.7310  -31.4150 N   0  0  0  0  0  0  0  0  0  0  0  0
   -2.5370   20.4320  -31.8030 C   0  0  0  0  0  0  0  0  0  0  0  0
   -2.4990   22.4830  -30.2990 C   0  0  0  0  0  0  0  0  0  0  0  0
   -2.7540   21.7750  -28.9620 C   0  0  0  0  0  0  0  0  0  0  0  0
   -3.3860   22.7080  -27.9720 C   0  0  0  0  0  0  0  0  0  0  0  0
   -4.6110   22.5710  -27.7020 O   0  0  0  0  0  0  0  0  0  0  0  0
   -2.6190   23.7790  -27.3950 N   0  0  0  0  0  0  0  0  0  0  0  0
   -3.2020   24.9030  -26.7180 C   0  0  0  0  0  0  0  0  0  0  0  0
   -4.4500   24.9810  -26.5550 O   0  0  0  0  0  0  0  0  0  0  0  0
   -2.3650   25.9170  -26.2410 O   0  0  0  0  0  0  0  0  0  0  0  0
   -1.5630   25.7640  -25.0760 C   0  0  0  0  0  0  0  0  0  0  0  0
   -6.5110   21.3640  -31.6320 C   0  0  0  0  0  0  0  0  0  0  0  0
   -6.4530   20.1430  -32.3080 C   0  0  0  0  0  0  0  0  0  0  0  0
   -4.7412   17.7440  -35.0135 H   0  0  0  0  0  0  0  0  0  0  0  0
   -6.4337   18.5334  -35.3906 H   0  0  0  0  0  0  0  0  0  0  0  0
   -5.5087   17.1299  -32.8036 H   0  0  0  0  0  0  0  0  0  0  0  0
   -8.2653   18.0016  -33.8632 H   0  0  0  0  0  0  0  0  0  0  0  0
   -7.8928   17.2234  -32.2763 H   0  0  0  0  0  0  0  0  0  0  0  0
   -9.6897   19.1412  -31.6806 H   0  0  0  0  0  0  0  0  0  0  0  0
   -9.7181   21.3484  -30.4685 H   0  0  0  0  0  0  0  0  0  0  0  0
   -8.0826   23.6099  -29.8162 H   0  0  0  0  0  0  0  0  0  0  0  0
   -4.5820   25.6340  -28.6660 H   0  0  0  0  0  0  0  0  0  0  0  0
   -5.7720   24.3720  -28.2170 H   0  0  0  0  0  0  0  0  0  0  0  0
   -2.2902   19.8543  -30.9001 H   0  0  0  0  0  0  0  0  0  0  0  0
   -3.2780   19.8803  -32.4001 H   0  0  0  0  0  0  0  0  0  0  0  0
   -1.6261   20.5860  -32.4001 H   0  0  0  0  0  0  0  0  0  0  0  0
   -1.4142   22.5690  -30.4594 H   0  0  0  0  0  0  0  0  0  0  0  0
   -2.9632   23.4796  -30.2620 H   0  0  0  0  0  0  0  0  0  0  0  0
   -3.4254   20.9200  -29.1300 H   0  0  0  0  0  0  0  0  0  0  0  0
   -1.7900   21.4340  -28.5564 H   0  0  0  0  0  0  0  0  0  0  0  0
   -1.5840   23.7840  -27.5370 H   0  0  0  0  0  0  0  0  0  0  0  0
   -2.1905   25.8837  -24.1805 H   0  0  0  0  0  0  0  0  0  0  0  0
   -1.1075   24.7628  -25.0733 H   0  0  0  0  0  0  0  0  0  0  0  0
   -0.7709   26.5272  -25.0733 H   0  0  0  0  0  0  0  0  0  0  0  0
   -5.5303   19.8193  -32.8118 H   0  0  0  0  0  0  0  0  0  0  0  0
  1  2  2  0
  2  3  1  0
  3  4  1  0
  4  5  2  0
  5  6  1  0
  6  7  2  0
  7  8  1  0
  8  9  2  0
  9 10  1  0
 10 11  1  0
 10 12  2  0
  9 13  1  0
 13 14  1  0
 14 15  2  0
 14 16  1  0
 16 17  1  0
 16 18  1  0
 18 19  1  0
 19 20  1  0
 20 21  2  0
 20 22  1  0
 22 23  1  0
 23 24  2  0
 23 25  1  0
 25 26  1  0
 13 27  1  0
 27 28  2  0
 28  4  1  0
 27  7  1  0
  1 29  1  0
  1 30  1  0
  2 31  1  0
  3 32  1  0
  3 33  1  0
  5 34  1  0
  6 35  1  0
  8 36  1  0
 11 37  1  0
 11 38  1  0
 17 39  1  0
 17 40  1  0
 17 41  1  0
 18 42  1  0
 18 43  1  0
 19 44  1  0
 19 45  1  0
 22 46  1  0
 26 47  1  0
 26 48  1  0
 26 49  1  0
 28 50  1  0
M  END
>  <UniqueID>  (55) 
55

>  <SMILES>  (55) 
C=CCc1ccc2cc(C(N)=O)n(C(=O)N(C)CCC(=O)NC(=O)OC)c2c1

>  <Energy>  (55) 
77.6586166731136

>  <Genealogy>  (55) 
C=CCc1ccc2cc(C(N)=O)n(C(=O)N(C)CCC(=O)NC(=O)OC)c2c1 (3D coordinates assigned)
C=CCc1ccc2cc(C(N)=O)n(C(=O)N(C)CCC(=O)NC(=O)OC)c2c1 (optimized conformer: 77.6586166731136 kcal/mol)

>  <smiles>  (55) 
C=CCc1ccc2cc(C(N)=O)n(C(=O)N(C)CCC(=O)NC(=O)OC)c2c1

>  <score_type>  (55) 
oracle

>  <origin>  (55) 
adg

>  <m_score__min__energy>  (55) 
-9.6600000000000001

>  <m_primary>  (55) 
energy

$$$$
55:0
     RDKit          3D

 39 40  0  0  0  0  0  0  0  0999 V2000
   -7.2260   18.3980  -32.6440 C   0  0  0  0  0  0  0  0  0  0  0  0
   -7.3370   19.8320  -32.2190 C   0  0  0  0  0  0  0  0  0  0  0  0
   -8.5820   20.5010  -32.3090 C   0  0  0  0  0  0  0  0  0  0  0  0
   -8.6900   21.8590  -31.9610 C   0  0  0  0  0  0  0  0  0  0  0  0
   -7.5400   22.5170  -31.5350 C   0  0  0  0  0  0  0  0  0  0  0  0
   -7.3580   23.8300  -31.1640 C   0  0  0  0  0  0  0  0  0  0  0  0
   -6.0060   23.9390  -30.8440 C   0  0  0  0  0  0  0  0  0  0  0  0
   -5.3950   25.1700  -30.3030 C   0  0  0  0  0  0  0  0  0  0  0  0
   -4.1660   25.6510  -30.8470 N   0  0  0  0  0  0  0  0  0  0  0  0
   -5.9650   25.8230  -29.3900 O   0  0  0  0  0  0  0  0  0  0  0  0
   -5.3760   22.7420  -31.0170 N   0  0  0  0  0  0  0  0  0  0  0  0
   -3.9740   22.4630  -30.8750 C   0  0  0  0  0  0  0  0  0  0  0  0
   -3.1260   23.3400  -31.1960 O   0  0  0  0  0  0  0  0  0  0  0  0
   -3.5670   21.2250  -30.3580 O   0  0  0  0  0  0  0  0  0  0  0  0
   -2.7080   21.0470  -29.2640 C   0  0  0  0  0  0  0  0  0  0  0  0
   -2.9070   20.1200  -28.4320 O   0  0  0  0  0  0  0  0  0  0  0  0
   -1.5480   21.9510  -29.1260 C   0  0  0  0  0  0  0  0  0  0  0  0
   -0.8480   22.1670  -30.1520 O   0  0  0  0  0  0  0  0  0  0  0  0
   -1.1840   22.5800  -27.8730 N   0  0  0  0  0  0  0  0  0  0  0  0
   -0.4490   21.8460  -26.8370 C   0  0  0  0  0  0  0  0  0  0  0  0
   -1.7070   23.9140  -27.5500 C   0  0  0  0  0  0  0  0  0  0  0  0
   -0.9680   24.9630  -28.3210 C   0  0  0  0  0  0  0  0  0  0  0  0
    0.2370   25.2160  -28.0530 O   0  0  0  0  0  0  0  0  0  0  0  0
   -1.6150   25.6800  -29.3220 O   0  0  0  0  0  0  0  0  0  0  0  0
   -6.3280   21.8820  -31.4380 C   0  0  0  0  0  0  0  0  0  0  0  0
   -6.1880   20.5360  -31.7950 C   0  0  0  0  0  0  0  0  0  0  0  0
   -7.1762   17.7544  -31.7533 H   0  0  0  0  0  0  0  0  0  0  0  0
   -8.1057   18.1246  -33.2452 H   0  0  0  0  0  0  0  0  0  0  0  0
   -6.3147   18.2632  -33.2452 H   0  0  0  0  0  0  0  0  0  0  0  0
   -9.4717   19.9538  -32.6539 H   0  0  0  0  0  0  0  0  0  0  0  0
   -9.6539   22.3852  -32.0235 H   0  0  0  0  0  0  0  0  0  0  0  0
   -8.1181   24.6243  -31.1278 H   0  0  0  0  0  0  0  0  0  0  0  0
   -3.2500   25.2880  -30.5040 H   0  0  0  0  0  0  0  0  0  0  0  0
   -0.7835   22.1801  -25.8438 H   0  0  0  0  0  0  0  0  0  0  0  0
   -0.6408   20.7683  -26.9452 H   0  0  0  0  0  0  0  0  0  0  0  0
    0.6285   22.0393  -26.9452 H   0  0  0  0  0  0  0  0  0  0  0  0
   -2.7750   23.9577  -27.8099 H   0  0  0  0  0  0  0  0  0  0  0  0
   -1.5728   24.0999  -26.4742 H   0  0  0  0  0  0  0  0  0  0  0  0
   -5.2080   20.0388  -31.7466 H   0  0  0  0  0  0  0  0  0  0  0  0
  1  2  1  0
  2  3  2  0
  3  4  1  0
  4  5  2  0
  5  6  1  0
  6  7  2  0
  7  8  1  0
  8  9  1  0
  8 10  2  0
  7 11  1  0
 11 12  1  0
 12 13  2  0
 12 14  1  0
 14 15  1  0
 15 16  2  0
 15 17  1  0
 17 18  2  0
 17 19  1  0
 19 20  1  0
 19 21  1  0
 21 22  1  0
 22 23  2  0
 22 24  1  0
 11 25  1  0
 25 26  2  0
 26  2  1  0
 25  5  1  0
  1 27  1  0
  1 28  1  0
  1 29  1  0
  3 30  1  0
  4 31  1  0
  6 32  1  0
  9 33  1  0
 20 34  1  0
 20 35  1  0
 20 36  1  0
 21 37  1  0
 21 38  1  0
 26 39  1  0
M  CHG  2   9  -1  24  -1
M  END
>  <UniqueID>  (56) 
56

>  <SMILES>  (56) 
Cc1ccc2cc(C([NH-])=O)n(C(=O)OC(=O)C(=O)N(C)CC(=O)[O-])c2c1

>  <Energy>  (56) 
77.74104056113903

>  <Genealogy>  (56) 
Cc1ccc2cc(C([NH-])=O)n(C(=O)OC(=O)C(=O)N(C)CC(=O)[O-])c2c1 (protonated)
Cc1ccc2cc(C([NH-])=O)n(C(=O)OC(=O)C(=O)N(C)CC(=O)[O-])c2c1 (3D coordinates assigned)
Cc1ccc2cc(C([NH-])=O)n(C(=O)OC(=O)C(=O)N(C)CC(=O)[O-])c2c1 (optimized conformer: 77.74104056113903 kcal/mol)

>  <smiles>  (56) 
Cc1ccc2cc(C(N)=O)n(C(=O)OC(=O)C(=O)N(C)CC(=O)O)c2c1

>  <score_type>  (56) 
oracle

>  <origin>  (56) 
adg

>  <m_score__min__energy>  (56) 
-12.32

>  <m_primary>  (56) 
energy

$$$$
56:0
     RDKit          3D

 39 40  0  0  0  0  0  0  0  0999 V2000
   -7.7140   18.0460  -31.7710 C   0  0  0  0  0  0  0  0  0  0  0  0
   -7.9980   19.4170  -31.5950 O   0  0  0  0  0  0  0  0  0  0  0  0
   -8.8510   19.8810  -32.6270 C   0  0  0  0  0  0  0  0  0  0  0  0
   -9.8530   20.9160  -32.0930 C   0  0  0  0  0  0  0  0  0  0  0  0
   -9.1770   22.1970  -31.5810 C   0  0  0  0  0  0  0  0  0  0  0  0
   -7.7540   21.9850  -31.3140 N   0  0  0  0  0  0  0  0  0  0  0  0
   -6.7430   22.7330  -32.0000 C   0  0  0  0  0  0  0  0  0  0  0  0
   -7.0630   23.7100  -32.7310 O   0  0  0  0  0  0  0  0  0  0  0  0
   -5.3630   22.3570  -31.8760 N   0  0  0  0  0  0  0  0  0  0  0  0
   -4.3650   23.0290  -31.2390 C   0  0  0  0  0  0  0  0  0  0  0  0
   -4.5250   24.2480  -30.4160 C   0  0  0  0  0  0  0  0  0  0  0  0
   -3.5610   25.2970  -30.4600 N   0  0  0  0  0  0  0  0  0  0  0  0
   -5.5470   24.3810  -29.6900 O   0  0  0  0  0  0  0  0  0  0  0  0
   -3.1490   22.3700  -31.4070 C   0  0  0  0  0  0  0  0  0  0  0  0
   -3.4370   21.2620  -32.1720 C   0  0  0  0  0  0  0  0  0  0  0  0
   -2.6010   20.2540  -32.6430 C   0  0  0  0  0  0  0  0  0  0  0  0
   -3.1710   19.2400  -33.4330 C   0  0  0  0  0  0  0  0  0  0  0  0
   -4.5520   19.2650  -33.7620 C   0  0  0  0  0  0  0  0  0  0  0  0
   -5.1590   18.1520  -34.5780 C   0  0  0  0  0  0  0  0  0  0  0  0
   -5.7980   17.2380  -33.7580 F   0  0  0  0  0  0  0  0  0  0  0  0
   -4.1600   17.5060  -35.2790 F   0  0  0  0  0  0  0  0  0  0  0  0
   -6.0880   18.6540  -35.4730 F   0  0  0  0  0  0  0  0  0  0  0  0
   -5.3700   20.2980  -33.2470 C   0  0  0  0  0  0  0  0  0  0  0  0
   -4.7800   21.2790  -32.4440 C   0  0  0  0  0  0  0  0  0  0  0  0
   -7.6140   17.5631  -30.7877 H   0  0  0  0  0  0  0  0  0  0  0  0
   -8.5328   17.5709  -32.3312 H   0  0  0  0  0  0  0  0  0  0  0  0
   -6.7739   17.9353  -32.3312 H   0  0  0  0  0  0  0  0  0  0  0  0
   -8.2409   20.3453  -33.4158 H   0  0  0  0  0  0  0  0  0  0  0  0
   -9.4133   19.0244  -33.0270 H   0  0  0  0  0  0  0  0  0  0  0  0
  -10.5450   21.1851  -32.9046 H   0  0  0  0  0  0  0  0  0  0  0  0
  -10.3773   20.4576  -31.2415 H   0  0  0  0  0  0  0  0  0  0  0  0
   -9.2842   22.9853  -32.3406 H   0  0  0  0  0  0  0  0  0  0  0  0
   -9.6639   22.4903  -30.6393 H   0  0  0  0  0  0  0  0  0  0  0  0
   -7.4500   21.2720  -30.6120 H   0  0  0  0  0  0  0  0  0  0  0  0
   -3.5890   26.0210  -31.2110 H   0  0  0  0  0  0  0  0  0  0  0  0
   -2.1674   22.6710  -31.0123 H   0  0  0  0  0  0  0  0  0  0  0  0
   -1.5272   20.2506  -32.4046 H   0  0  0  0  0  0  0  0  0  0  0  0
   -2.5396   18.4177  -33.8005 H   0  0  0  0  0  0  0  0  0  0  0  0
   -6.4461   20.3288  -33.4732 H   0  0  0  0  0  0  0  0  0  0  0  0
  1  2  1  0
  2  3  1  0
  3  4  1  0
  4  5  1  0
  5  6  1  0
  6  7  1  0
  7  8  2  0
  7  9  1  0
  9 10  1  0
 10 11  1  0
 11 12  1  0
 11 13  2  0
 10 14  2  0
 14 15  1  0
 15 16  2  0
 16 17  1  0
 17 18  2  0
 18 19  1  0
 19 20  1  0
 19 21  1  0
 19 22  1  0
 18 23  1  0
 23 24  2  0
 24  9  1  0
 24 15  1  0
  1 25  1  0
  1 26  1  0
  1 27  1  0
  3 28  1  0
  3 29  1  0
  4 30  1  0
  4 31  1  0
  5 32  1  0
  5 33  1  0
  6 34  1  0
 12 35  1  0
 14 36  1  0
 16 37  1  0
 17 38  1  0
 23 39  1  0
M  CHG  1  12  -1
M  END
>  <UniqueID>  (57) 
57

>  <SMILES>  (57) 
COCCCNC(=O)n1c(C([NH-])=O)cc2ccc(C(F)(F)F)cc21

>  <Energy>  (57) 
75.01904051624606

>  <Genealogy>  (57) 
COCCCNC(=O)n1c(C([NH-])=O)cc2ccc(C(F)(F)F)cc21 (protonated)
COCCCNC(=O)n1c(C([NH-])=O)cc2ccc(C(F)(F)F)cc21 (3D coordinates assigned)
COCCCNC(=O)n1c(C([NH-])=O)cc2ccc(C(F)(F)F)cc21 (optimized conformer: 75.01904051624606 kcal/mol)

>  <smiles>  (57) 
COCCCNC(=O)n1c(C(N)=O)cc2ccc(C(F)(F)F)cc21

>  <score_type>  (57) 
oracle

>  <origin>  (57) 
adg

>  <m_score__min__energy>  (57) 
-9.5999999999999996

>  <m_primary>  (57) 
energy

$$$$
57:0
     RDKit          3D

 57 59  0  0  0  0  0  0  0  0999 V2000
   -8.7220   18.7730  -32.7000 C   0  0  0  0  0  0  0  0  0  0  0  0
   -8.3570   20.0900  -32.0790 C   0  0  0  0  0  0  0  0  0  0  0  0
   -9.3370   20.8530  -31.4030 C   0  0  0  0  0  0  0  0  0  0  0  0
   -9.0140   22.1040  -30.8520 C   0  0  0  0  0  0  0  0  0  0  0  0
   -7.7060   22.5590  -30.9850 C   0  0  0  0  0  0  0  0  0  0  0  0
   -7.1260   23.7330  -30.5610 C   0  0  0  0  0  0  0  0  0  0  0  0
   -5.7990   23.6620  -30.9720 C   0  0  0  0  0  0  0  0  0  0  0  0
   -4.8400   24.7750  -30.8140 C   0  0  0  0  0  0  0  0  0  0  0  0
   -3.4870   24.5030  -30.4690 N   0  0  0  0  0  0  0  0  0  0  0  0
   -5.2000   25.9670  -30.9660 O   0  0  0  0  0  0  0  0  0  0  0  0
   -5.5620   22.4830  -31.6180 N   0  0  0  0  0  0  0  0  0  0  0  0
   -4.3370   22.0290  -32.2180 C   0  0  0  0  0  0  0  0  0  0  0  0
   -4.0930   22.3280  -33.4150 O   0  0  0  0  0  0  0  0  0  0  0  0
   -3.3440   21.2170  -31.4100 C   0  0  0  0  0  0  0  0  0  0  0  0
   -2.5260   22.0040  -30.4530 N   0  0  0  0  0  0  0  0  0  0  0  0
   -1.0910   22.0770  -30.8570 C   0  0  0  0  0  0  0  0  0  0  0  0
   -0.1130   22.1530  -29.6690 C   0  0  0  0  0  0  0  0  0  0  0  0
   -0.6970   22.9220  -28.5570 N   0  0  0  0  0  0  0  0  0  0  0  0
    0.0900   23.9100  -27.8500 C   0  0  0  0  0  0  0  0  0  0  0  0
    1.2560   24.1810  -28.2550 O   0  0  0  0  0  0  0  0  0  0  0  0
   -0.4990   24.6860  -26.6850 C   0  0  0  0  0  0  0  0  0  0  0  0
   -1.6050   25.7110  -27.0520 C   0  0  0  0  0  0  0  0  0  0  0  0
   -2.9060   25.3200  -26.3190 C   0  0  0  0  0  0  0  0  0  0  0  0
   -1.1880   27.1350  -26.6190 C   0  0  0  0  0  0  0  0  0  0  0  0
   -1.8290   25.6640  -28.4440 O   0  0  0  0  0  0  0  0  0  0  0  0
   -2.0510   22.5720  -28.0990 C   0  0  0  0  0  0  0  0  0  0  0  0
   -2.7180   21.5740  -29.0520 C   0  0  0  0  0  0  0  0  0  0  0  0
   -6.7470   21.8320  -31.6370 C   0  0  0  0  0  0  0  0  0  0  0  0
   -7.0490   20.5940  -32.2140 C   0  0  0  0  0  0  0  0  0  0  0  0
   -8.9257   18.0379  -31.9075 H   0  0  0  0  0  0  0  0  0  0  0  0
   -9.6194   18.8979  -33.3238 H   0  0  0  0  0  0  0  0  0  0  0  0
   -7.8883   18.4182  -33.3238 H   0  0  0  0  0  0  0  0  0  0  0  0
  -10.3613   20.4634  -31.3078 H   0  0  0  0  0  0  0  0  0  0  0  0
   -9.7728   22.7061  -30.3308 H   0  0  0  0  0  0  0  0  0  0  0  0
   -7.6100   24.5545  -30.0125 H   0  0  0  0  0  0  0  0  0  0  0  0
   -2.7890   25.2720  -30.3520 H   0  0  0  0  0  0  0  0  0  0  0  0
   -3.9041   20.4611  -30.8400 H   0  0  0  0  0  0  0  0  0  0  0  0
   -2.6392   20.7820  -32.1339 H   0  0  0  0  0  0  0  0  0  0  0  0
   -2.9000   22.9840  -30.5130 H   0  0  0  0  0  0  0  0  0  0  0  0
   -0.8509   21.1802  -31.4469 H   0  0  0  0  0  0  0  0  0  0  0  0
   -0.9675   23.0059  -31.4332 H   0  0  0  0  0  0  0  0  0  0  0  0
    0.1130   21.1337  -29.3226 H   0  0  0  0  0  0  0  0  0  0  0  0
    0.8059   22.6579  -30.0015 H   0  0  0  0  0  0  0  0  0  0  0  0
   -0.9304   23.9610  -25.9792 H   0  0  0  0  0  0  0  0  0  0  0  0
    0.3302   25.2753  -26.2665 H   0  0  0  0  0  0  0  0  0  0  0  0
   -2.7434   25.3689  -25.2322 H   0  0  0  0  0  0  0  0  0  0  0  0
   -3.7094   26.0164  -26.6012 H   0  0  0  0  0  0  0  0  0  0  0  0
   -3.1923   24.2961  -26.6012 H   0  0  0  0  0  0  0  0  0  0  0  0
   -1.1707   27.1940  -25.5207 H   0  0  0  0  0  0  0  0  0  0  0  0
   -0.1863   27.3598  -27.0141 H   0  0  0  0  0  0  0  0  0  0  0  0
   -1.9102   27.8646  -27.0141 H   0  0  0  0  0  0  0  0  0  0  0  0
   -2.7680   25.3680  -28.5930 H   0  0  0  0  0  0  0  0  0  0  0  0
   -1.9859   22.1227  -27.0971 H   0  0  0  0  0  0  0  0  0  0  0  0
   -2.6581   23.4889  -28.0743 H   0  0  0  0  0  0  0  0  0  0  0  0
   -2.2679   20.5802  -28.9115 H   0  0  0  0  0  0  0  0  0  0  0  0
   -3.7951   21.5313  -28.8327 H   0  0  0  0  0  0  0  0  0  0  0  0
   -6.2817   20.0267  -32.7611 H   0  0  0  0  0  0  0  0  0  0  0  0
  1  2  1  0
  2  3  2  0
  3  4  1  0
  4  5  2  0
  5  6  1  0
  6  7  2  0
  7  8  1  0
  8  9  1  0
  8 10  2  0
  7 11  1  0
 11 12  1  0
 12 13  2  0
 12 14  1  0
 14 15  1  0
 15 16  1  0
 16 17  1  0
 17 18  1  0
 18 19  1  0
 19 20  2  0
 19 21  1  0
 21 22  1  0
 22 23  1  0
 22 24  1  0
 22 25  1  0
 18 26  1  0
 26 27  1  0
 11 28  1  0
 28 29  2  0
 29  2  1  0
 28  5  1  0
 27 15  1  0
  1 30  1  0
  1 31  1  0
  1 32  1  0
  3 33  1  0
  4 34  1  0
  6 35  1  0
  9 36  1  0
 14 37  1  0
 14 38  1  0
 15 39  1  0
 16 40  1  0
 16 41  1  0
 17 42  1  0
 17 43  1  0
 21 44  1  0
 21 45  1  0
 23 46  1  0
 23 47  1  0
 23 48  1  0
 24 49  1  0
 24 50  1  0
 24 51  1  0
 25 52  1  0
 26 53  1  0
 26 54  1  0
 27 55  1  0
 27 56  1  0
 29 57  1  0
M  CHG  2   9  -1  15   1
M  END
>  <UniqueID>  (58) 
58

>  <SMILES>  (58) 
Cc1ccc2cc(C([NH-])=O)n(C(=O)C[NH+]3CCN(C(=O)CC(C)(C)O)CC3)c2c1

>  <Energy>  (58) 
106.87527172624965

>  <Genealogy>  (58) 
Cc1ccc2cc(C([NH-])=O)n(C(=O)C[NH+]3CCN(C(=O)CC(C)(C)O)CC3)c2c1 (protonated)
Cc1ccc2cc(C([NH-])=O)n(C(=O)C[NH+]3CCN(C(=O)CC(C)(C)O)CC3)c2c1 (3D coordinates assigned)
Cc1ccc2cc(C([NH-])=O)n(C(=O)C[NH+]3CCN(C(=O)CC(C)(C)O)CC3)c2c1 (nonaromatic ring conformer: 106.87527172624965 kcal/mol)

>  <smiles>  (58) 
Cc1ccc2cc(C(N)=O)n(C(=O)CN3CCN(C(=O)CC(C)(C)O)CC3)c2c1

>  <score_type>  (58) 
oracle

>  <origin>  (58) 
adg

>  <m_score__min__energy>  (58) 
-11.130000000000001

>  <m_primary>  (58) 
energy

$$$$
58:0
     RDKit          3D

 40 41  0  0  0  0  0  0  0  0999 V2000
   -7.8610   18.3150  -32.6980 C   0  0  0  0  0  0  0  0  0  0  0  0
   -7.7690   19.7550  -32.2890 C   0  0  0  0  0  0  0  0  0  0  0  0
   -8.9500   20.5070  -32.0750 C   0  0  0  0  0  0  0  0  0  0  0  0
   -8.8790   21.8400  -31.6380 C   0  0  0  0  0  0  0  0  0  0  0  0
   -7.6190   22.3910  -31.4250 C   0  0  0  0  0  0  0  0  0  0  0  0
   -7.2650   23.6380  -30.9640 C   0  0  0  0  0  0  0  0  0  0  0  0
   -5.8720   23.6330  -30.9120 C   0  0  0  0  0  0  0  0  0  0  0  0
   -5.0480   24.7970  -30.5070 C   0  0  0  0  0  0  0  0  0  0  0  0
   -3.6610   24.8670  -30.8430 N   0  0  0  0  0  0  0  0  0  0  0  0
   -5.5630   25.7360  -29.8450 O   0  0  0  0  0  0  0  0  0  0  0  0
   -5.3850   22.4310  -31.3340 N   0  0  0  0  0  0  0  0  0  0  0  0
   -4.0110   22.0150  -31.3830 C   0  0  0  0  0  0  0  0  0  0  0  0
   -3.3740   22.0900  -32.4690 O   0  0  0  0  0  0  0  0  0  0  0  0
   -3.3160   21.4970  -30.1540 C   0  0  0  0  0  0  0  0  0  0  0  0
   -2.3130   22.4910  -29.6210 C   0  0  0  0  0  0  0  0  0  0  0  0
   -1.5920   23.1210  -30.4440 O   0  0  0  0  0  0  0  0  0  0  0  0
   -2.0990   22.6750  -28.2010 N   0  0  0  0  0  0  0  0  0  0  0  0
   -1.8430   21.5290  -27.3220 C   0  0  0  0  0  0  0  0  0  0  0  0
   -2.1240   24.0320  -27.6340 C   0  0  0  0  0  0  0  0  0  0  0  0
   -1.1750   24.9160  -28.3780 C   0  0  0  0  0  0  0  0  0  0  0  0
   -1.6070   25.9150  -29.0110 O   0  0  0  0  0  0  0  0  0  0  0  0
    0.1810   24.6160  -28.4070 O   0  0  0  0  0  0  0  0  0  0  0  0
   -6.4660   21.6790  -31.6360 C   0  0  0  0  0  0  0  0  0  0  0  0
   -6.5080   20.3420  -32.0460 C   0  0  0  0  0  0  0  0  0  0  0  0
   -7.9015   17.6807  -31.8002 H   0  0  0  0  0  0  0  0  0  0  0  0
   -8.7708   18.1613  -33.2969 H   0  0  0  0  0  0  0  0  0  0  0  0
   -6.9782   18.0468  -33.2969 H   0  0  0  0  0  0  0  0  0  0  0  0
   -9.9314   20.0430  -32.2526 H   0  0  0  0  0  0  0  0  0  0  0  0
   -9.7916   22.4304  -31.4693 H   0  0  0  0  0  0  0  0  0  0  0  0
   -7.9388   24.4644  -30.6936 H   0  0  0  0  0  0  0  0  0  0  0  0
   -3.0840   25.6730  -30.5140 H   0  0  0  0  0  0  0  0  0  0  0  0
   -3.2110   24.1510  -31.4540 H   0  0  0  0  0  0  0  0  0  0  0  0
   -4.0680   21.2971  -29.3764 H   0  0  0  0  0  0  0  0  0  0  0  0
   -2.7772   20.5774  -30.4259 H   0  0  0  0  0  0  0  0  0  0  0  0
   -1.9145   21.8491  -26.2720 H   0  0  0  0  0  0  0  0  0  0  0  0
   -2.5878   20.7434  -27.5174 H   0  0  0  0  0  0  0  0  0  0  0  0
   -0.8347   21.1351  -27.5174 H   0  0  0  0  0  0  0  0  0  0  0  0
   -3.1418   24.4414  -27.7143 H   0  0  0  0  0  0  0  0  0  0  0  0
   -1.8216   23.9869  -26.5773 H   0  0  0  0  0  0  0  0  0  0  0  0
   -5.5820   19.7627  -32.1758 H   0  0  0  0  0  0  0  0  0  0  0  0
  1  2  1  0
  2  3  2  0
  3  4  1  0
  4  5  2  0
  5  6  1  0
  6  7  2  0
  7  8  1  0
  8  9  1  0
  8 10  2  0
  7 11  1  0
 11 12  1  0
 12 13  2  0
 12 14  1  0
 14 15  1  0
 15 16  2  0
 15 17  1  0
 17 18  1  0
 17 19  1  0
 19 20  1  0
 20 21  2  0
 20 22  1  0
 11 23  1  0
 23 24  2  0
 24  2  1  0
 23  5  1  0
  1 25  1  0
  1 26  1  0
  1 27  1  0
  3 28  1  0
  4 29  1  0
  6 30  1  0
  9 31  1  0
  9 32  1  0
 14 33  1  0
 14 34  1  0
 18 35  1  0
 18 36  1  0
 18 37  1  0
 19 38  1  0
 19 39  1  0
 24 40  1  0
M  CHG  1  22  -1
M  END
>  <UniqueID>  (59) 
59

>  <SMILES>  (59) 
Cc1ccc2cc(C(N)=O)n(C(=O)CC(=O)N(C)CC(=O)[O-])c2c1

>  <Energy>  (59) 
75.95877340570837

>  <Genealogy>  (59) 
Cc1ccc2cc(C(N)=O)n(C(=O)CC(=O)N(C)CC(=O)[O-])c2c1 (protonated)
Cc1ccc2cc(C(N)=O)n(C(=O)CC(=O)N(C)CC(=O)[O-])c2c1 (3D coordinates assigned)
Cc1ccc2cc(C(N)=O)n(C(=O)CC(=O)N(C)CC(=O)[O-])c2c1 (optimized conformer: 75.95877340570837 kcal/mol)

>  <smiles>  (59) 
Cc1ccc2cc(C(N)=O)n(C(=O)CC(=O)N(C)CC(=O)O)c2c1

>  <score_type>  (59) 
oracle

>  <origin>  (59) 
adg

>  <m_score__min__energy>  (59) 
-11.31

>  <m_primary>  (59) 
energy

$$$$
59:0
     RDKit          3D

 58 59  0  0  0  0  0  0  0  0999 V2000
   -3.6480   19.2880  -33.7880 C   0  0  0  0  0  0  0  0  0  0  0  0
   -2.7330   20.5050  -33.7000 C   0  0  0  0  0  0  0  0  0  0  0  0
   -1.3350   20.1170  -33.9960 N   0  0  0  0  0  0  0  0  0  0  0  0
   -0.5230   21.2540  -34.4960 C   0  0  0  0  0  0  0  0  0  0  0  0
    0.6440   20.8580  -35.4360 C   0  0  0  0  0  0  0  0  0  0  0  0
    1.6170   21.9500  -35.5990 N   0  0  0  0  0  0  0  0  0  0  0  0
    3.0420   21.6940  -35.3720 C   0  0  0  0  0  0  0  0  0  0  0  0
    1.2150   23.2400  -36.1030 C   0  0  0  0  0  0  0  0  0  0  0  0
    0.1570   23.7830  -35.6860 O   0  0  0  0  0  0  0  0  0  0  0  0
    1.9850   23.9060  -37.0500 O   0  0  0  0  0  0  0  0  0  0  0  0
   -0.7160   19.3890  -32.8680 C   0  0  0  0  0  0  0  0  0  0  0  0
   -0.6200   20.2440  -31.6390 C   0  0  0  0  0  0  0  0  0  0  0  0
    0.4660   20.8270  -31.3780 O   0  0  0  0  0  0  0  0  0  0  0  0
   -1.7640   20.4210  -30.7910 N   0  0  0  0  0  0  0  0  0  0  0  0
   -1.8250   21.4390  -29.7440 C   0  0  0  0  0  0  0  0  0  0  0  0
   -3.2360   22.0320  -29.6360 C   0  0  0  0  0  0  0  0  0  0  0  0
   -3.7980   22.4700  -30.9630 C   0  0  0  0  0  0  0  0  0  0  0  0
   -3.0230   22.7020  -31.9300 O   0  0  0  0  0  0  0  0  0  0  0  0
   -5.2000   22.7530  -31.1020 N   0  0  0  0  0  0  0  0  0  0  0  0
   -5.8150   23.9600  -30.9580 C   0  0  0  0  0  0  0  0  0  0  0  0
   -5.1630   25.2180  -30.5350 C   0  0  0  0  0  0  0  0  0  0  0  0
   -3.7430   25.2890  -30.4540 N   0  0  0  0  0  0  0  0  0  0  0  0
   -5.8490   26.2350  -30.2550 O   0  0  0  0  0  0  0  0  0  0  0  0
   -7.1790   23.8470  -31.2210 C   0  0  0  0  0  0  0  0  0  0  0  0
   -7.3820   22.5230  -31.5340 C   0  0  0  0  0  0  0  0  0  0  0  0
   -8.5500   21.8550  -31.8910 C   0  0  0  0  0  0  0  0  0  0  0  0
   -8.4610   20.4850  -32.1850 C   0  0  0  0  0  0  0  0  0  0  0  0
   -7.2170   19.8120  -32.1200 C   0  0  0  0  0  0  0  0  0  0  0  0
   -7.1410   18.3540  -32.4640 C   0  0  0  0  0  0  0  0  0  0  0  0
   -6.0480   20.5270  -31.7740 C   0  0  0  0  0  0  0  0  0  0  0  0
   -6.1710   21.8840  -31.4600 C   0  0  0  0  0  0  0  0  0  0  0  0
   -3.9039   18.9476  -32.7738 H   0  0  0  0  0  0  0  0  0  0  0  0
   -4.5679   19.5591  -34.3268 H   0  0  0  0  0  0  0  0  0  0  0  0
   -3.1321   18.4796  -34.3268 H   0  0  0  0  0  0  0  0  0  0  0  0
   -3.0623   21.2605  -34.4286 H   0  0  0  0  0  0  0  0  0  0  0  0
   -2.7826   20.9181  -32.6817 H   0  0  0  0  0  0  0  0  0  0  0  0
   -1.1896   21.9341  -35.0465 H   0  0  0  0  0  0  0  0  0  0  0  0
   -0.0629   21.7177  -33.6109 H   0  0  0  0  0  0  0  0  0  0  0  0
    1.1596   19.9834  -35.0126 H   0  0  0  0  0  0  0  0  0  0  0  0
    0.2204   20.6305  -36.4254 H   0  0  0  0  0  0  0  0  0  0  0  0
    3.2404   21.6584  -34.2906 H   0  0  0  0  0  0  0  0  0  0  0  0
    3.3188   20.7318  -35.8275 H   0  0  0  0  0  0  0  0  0  0  0  0
    3.6364   22.4997  -35.8275 H   0  0  0  0  0  0  0  0  0  0  0  0
   -1.3259   18.5028  -32.6385 H   0  0  0  0  0  0  0  0  0  0  0  0
    0.3033   19.1012  -33.1649 H   0  0  0  0  0  0  0  0  0  0  0  0
   -2.6330   19.8790  -30.9990 H   0  0  0  0  0  0  0  0  0  0  0  0
   -1.5521   20.9819  -28.7814 H   0  0  0  0  0  0  0  0  0  0  0  0
   -1.1236   22.2470  -29.9992 H   0  0  0  0  0  0  0  0  0  0  0  0
   -3.9038   21.2700  -29.2078 H   0  0  0  0  0  0  0  0  0  0  0  0
   -3.1673   22.9259  -28.9987 H   0  0  0  0  0  0  0  0  0  0  0  0
   -3.1410   24.7510  -31.1160 H   0  0  0  0  0  0  0  0  0  0  0  0
   -7.9332   24.6469  -31.1858 H   0  0  0  0  0  0  0  0  0  0  0  0
   -9.5130   22.3842  -31.9412 H   0  0  0  0  0  0  0  0  0  0  0  0
   -9.3667   19.9290  -32.4687 H   0  0  0  0  0  0  0  0  0  0  0  0
   -7.1100   17.7601  -31.5386 H   0  0  0  0  0  0  0  0  0  0  0  0
   -8.0255   18.0696  -33.0528 H   0  0  0  0  0  0  0  0  0  0  0  0
   -6.2317   18.1631  -33.0528 H   0  0  0  0  0  0  0  0  0  0  0  0
   -5.0674   20.0291  -31.7523 H   0  0  0  0  0  0  0  0  0  0  0  0
  1  2  1  0
  2  3  1  0
  3  4  1  0
  4  5  1  0
  5  6  1  0
  6  7  1  0
  6  8  1  0
  8  9  2  0
  8 10  1  0
  3 11  1  0
 11 12  1  0
 12 13  2  0
 12 14  1  0
 14 15  1  0
 15 16  1  0
 16 17  1  0
 17 18  2  0
 17 19  1  0
 19 20  1  0
 20 21  1  0
 21 22  1  0
 21 23  2  0
 20 24  2  0
 24 25  1  0
 25 26  2  0
 26 27  1  0
 27 28  2  0
 28 29  1  0
 28 30  1  0
 30 31  2  0
 31 19  1  0
 31 25  1  0
  1 32  1  0
  1 33  1  0
  1 34  1  0
  2 35  1  0
  2 36  1  0
  4 37  1  0
  4 38  1  0
  5 39  1  0
  5 40  1  0
  7 41  1  0
  7 42  1  0
  7 43  1  0
 11 44  1  0
 11 45  1  0
 14 46  1  0
 15 47  1  0
 15 48  1  0
 16 49  1  0
 16 50  1  0
 22 51  1  0
 24 52  1  0
 26 53  1  0
 27 54  1  0
 29 55  1  0
 29 56  1  0
 29 57  1  0
 30 58  1  0
M  CHG  2  10  -1  22  -1
M  END
>  <UniqueID>  (60) 
60

>  <SMILES>  (60) 
CCN(CCN(C)C(=O)[O-])CC(=O)NCCC(=O)n1c(C([NH-])=O)cc2ccc(C)cc21

>  <Energy>  (60) 
91.72179382269336

>  <Genealogy>  (60) 
CCN(CCN(C)C(=O)[O-])CC(=O)NCCC(=O)n1c(C([NH-])=O)cc2ccc(C)cc21 (protonated)
CCN(CCN(C)C(=O)[O-])CC(=O)NCCC(=O)n1c(C([NH-])=O)cc2ccc(C)cc21 (3D coordinates assigned)
CCN(CCN(C)C(=O)[O-])CC(=O)NCCC(=O)n1c(C([NH-])=O)cc2ccc(C)cc21 (optimized conformer: 91.72179382269336 kcal/mol)

>  <smiles>  (60) 
CCN(CCN(C)C(=O)O)CC(=O)NCCC(=O)n1c(C(N)=O)cc2ccc(C)cc21

>  <score_type>  (60) 
oracle

>  <origin>  (60) 
adg

>  <m_score__min__energy>  (60) 
-13.050000000000001

>  <m_primary>  (60) 
energy

$$$$
60:0
     RDKit          3D

 54 55  0  0  0  0  0  0  0  0999 V2000
   -2.4110   20.8780  -29.3830 C   0  0  0  0  0  0  0  0  0  0  0  0
   -3.3030   22.0410  -29.4120 N   0  0  0  0  0  0  0  0  0  0  0  0
   -3.9530   22.4790  -28.1700 C   0  0  0  0  0  0  0  0  0  0  0  0
   -3.7160   23.9390  -27.9570 C   0  0  0  0  0  0  0  0  0  0  0  0
   -4.4930   24.5880  -27.2060 O   0  0  0  0  0  0  0  0  0  0  0  0
   -2.6320   24.5580  -28.5960 O   0  0  0  0  0  0  0  0  0  0  0  0
   -1.2920   24.6540  -28.0890 C   0  0  0  0  0  0  0  0  0  0  0  0
   -1.2300   24.2070  -26.6140 C   0  0  0  0  0  0  0  0  0  0  0  0
   -0.8770   26.1320  -28.1740 C   0  0  0  0  0  0  0  0  0  0  0  0
   -0.3320   23.8140  -28.9530 C   0  0  0  0  0  0  0  0  0  0  0  0
   -3.6620   22.6190  -30.6840 C   0  0  0  0  0  0  0  0  0  0  0  0
   -2.7590   22.9760  -31.4900 O   0  0  0  0  0  0  0  0  0  0  0  0
   -5.0370   22.8280  -31.0380 N   0  0  0  0  0  0  0  0  0  0  0  0
   -5.7620   23.9760  -30.9420 C   0  0  0  0  0  0  0  0  0  0  0  0
   -5.2380   25.3040  -30.5590 C   0  0  0  0  0  0  0  0  0  0  0  0
   -3.8910   25.6730  -30.8420 N   0  0  0  0  0  0  0  0  0  0  0  0
   -5.9990   26.1350  -29.9940 O   0  0  0  0  0  0  0  0  0  0  0  0
   -7.0880   23.7430  -31.3040 C   0  0  0  0  0  0  0  0  0  0  0  0
   -7.1510   22.4040  -31.6180 C   0  0  0  0  0  0  0  0  0  0  0  0
   -8.2280   21.6280  -32.0300 C   0  0  0  0  0  0  0  0  0  0  0  0
   -8.0070   20.2600  -32.2640 C   0  0  0  0  0  0  0  0  0  0  0  0
   -6.7180   19.6820  -32.0800 C   0  0  0  0  0  0  0  0  0  0  0  0
   -6.4920   18.2690  -32.3300 N   0  0  0  0  0  0  0  0  0  0  0  0
   -6.1300   17.3720  -31.2250 C   0  0  0  0  0  0  0  0  0  0  0  0
   -6.5720   17.7090  -33.6880 C   0  0  0  0  0  0  0  0  0  0  0  0
   -5.4220   18.1810  -34.5250 C   0  0  0  0  0  0  0  0  0  0  0  0
   -5.3190   17.8080  -35.7230 O   0  0  0  0  0  0  0  0  0  0  0  0
   -4.4320   18.9820  -33.9690 O   0  0  0  0  0  0  0  0  0  0  0  0
   -5.6520   20.5160  -31.6540 C   0  0  0  0  0  0  0  0  0  0  0  0
   -5.9030   21.8750  -31.4450 C   0  0  0  0  0  0  0  0  0  0  0  0
   -2.2004   20.6034  -28.3389 H   0  0  0  0  0  0  0  0  0  0  0  0
   -2.8943   20.0324  -29.8942 H   0  0  0  0  0  0  0  0  0  0  0  0
   -1.4690   21.1256  -29.8942 H   0  0  0  0  0  0  0  0  0  0  0  0
   -5.0347   22.2918  -28.2393 H   0  0  0  0  0  0  0  0  0  0  0  0
   -3.5308   21.9172  -27.3237 H   0  0  0  0  0  0  0  0  0  0  0  0
   -1.3515   25.0831  -25.9600 H   0  0  0  0  0  0  0  0  0  0  0  0
   -2.0368   23.4862  -26.4151 H   0  0  0  0  0  0  0  0  0  0  0  0
   -0.2575   23.7330  -26.4151 H   0  0  0  0  0  0  0  0  0  0  0  0
   -0.7625   26.5397  -27.1588 H   0  0  0  0  0  0  0  0  0  0  0  0
    0.0789   26.2141  -28.7120 H   0  0  0  0  0  0  0  0  0  0  0  0
   -1.6505   26.6997  -28.7120 H   0  0  0  0  0  0  0  0  0  0  0  0
    0.3342   23.2311  -28.3000 H   0  0  0  0  0  0  0  0  0  0  0  0
   -0.9138   23.1297  -29.5880 H   0  0  0  0  0  0  0  0  0  0  0  0
    0.2691   24.4815  -29.5880 H   0  0  0  0  0  0  0  0  0  0  0  0
   -3.1050   25.0070  -30.6740 H   0  0  0  0  0  0  0  0  0  0  0  0
   -7.9096   24.4739  -31.3327 H   0  0  0  0  0  0  0  0  0  0  0  0
   -9.2248   22.0719  -32.1689 H   0  0  0  0  0  0  0  0  0  0  0  0
   -8.8426   19.6255  -32.5945 H   0  0  0  0  0  0  0  0  0  0  0  0
   -6.3317   17.8717  -30.2660 H   0  0  0  0  0  0  0  0  0  0  0  0
   -6.7265   16.4501  -31.2907 H   0  0  0  0  0  0  0  0  0  0  0  0
   -5.0607   17.1223  -31.2907 H   0  0  0  0  0  0  0  0  0  0  0  0
   -6.5478   16.6109  -33.6276 H   0  0  0  0  0  0  0  0  0  0  0  0
   -7.5098   18.0453  -34.1542 H   0  0  0  0  0  0  0  0  0  0  0  0
   -4.6465   20.1006  -31.4912 H   0  0  0  0  0  0  0  0  0  0  0  0
  1  2  1  0
  2  3  1  0
  3  4  1  0
  4  5  2  0
  4  6  1  0
  6  7  1  0
  7  8  1  0
  7  9  1  0
  7 10  1  0
  2 11  1  0
 11 12  2  0
 11 13  1  0
 13 14  1  0
 14 15  1  0
 15 16  1  0
 15 17  2  0
 14 18  2  0
 18 19  1  0
 19 20  2  0
 20 21  1  0
 21 22  2  0
 22 23  1  0
 23 24  1  0
 23 25  1  0
 25 26  1  0
 26 27  2  0
 26 28  1  0
 22 29  1  0
 29 30  2  0
 30 13  1  0
 30 19  1  0
  1 31  1  0
  1 32  1  0
  1 33  1  0
  3 34  1  0
  3 35  1  0
  8 36  1  0
  8 37  1  0
  8 38  1  0
  9 39  1  0
  9 40  1  0
  9 41  1  0
 10 42  1  0
 10 43  1  0
 10 44  1  0
 16 45  1  0
 18 46  1  0
 20 47  1  0
 21 48  1  0
 24 49  1  0
 24 50  1  0
 24 51  1  0
 25 52  1  0
 25 53  1  0
 29 54  1  0
M  CHG  2  16  -1  28  -1
M  END
>  <UniqueID>  (61) 
61

>  <SMILES>  (61) 
CN(CC(=O)OC(C)(C)C)C(=O)n1c(C([NH-])=O)cc2ccc(N(C)CC(=O)[O-])cc21

>  <Energy>  (61) 
86.51446005129236

>  <Genealogy>  (61) 
CN(CC(=O)OC(C)(C)C)C(=O)n1c(C([NH-])=O)cc2ccc(N(C)CC(=O)[O-])cc21 (protonated)
CN(CC(=O)OC(C)(C)C)C(=O)n1c(C([NH-])=O)cc2ccc(N(C)CC(=O)[O-])cc21 (3D coordinates assigned)
CN(CC(=O)OC(C)(C)C)C(=O)n1c(C([NH-])=O)cc2ccc(N(C)CC(=O)[O-])cc21 (optimized conformer: 86.51446005129236 kcal/mol)

>  <smiles>  (61) 
CN(CC(=O)OC(C)(C)C)C(=O)n1c(C(N)=O)cc2ccc(N(C)CC(=O)O)cc21

>  <score_type>  (61) 
oracle

>  <origin>  (61) 
adg

>  <m_score__min__energy>  (61) 
-10.82

>  <m_primary>  (61) 
energy

$$$$
61:0
     RDKit          3D

 43 44  0  0  0  0  0  0  0  0999 V2000
   -0.1380   26.8350  -26.9500 C   0  0  0  0  0  0  0  0  0  0  0  0
   -1.1940   25.8580  -26.7090 N   0  0  0  0  0  0  0  0  0  0  0  0
   -1.9160   25.2560  -27.7960 C   0  0  0  0  0  0  0  0  0  0  0  0
   -1.6830   25.6410  -28.9750 O   0  0  0  0  0  0  0  0  0  0  0  0
   -2.8930   24.2130  -27.5620 N   0  0  0  0  0  0  0  0  0  0  0  0
   -4.2380   24.5430  -27.0830 C   0  0  0  0  0  0  0  0  0  0  0  0
   -2.5130   22.7980  -27.6980 C   0  0  0  0  0  0  0  0  0  0  0  0
   -3.6440   21.9890  -28.3370 C   0  0  0  0  0  0  0  0  0  0  0  0
   -3.3400   21.7260  -29.7380 N   0  0  0  0  0  0  0  0  0  0  0  0
   -3.7670   22.5700  -30.8080 C   0  0  0  0  0  0  0  0  0  0  0  0
   -2.9170   23.0930  -31.5770 O   0  0  0  0  0  0  0  0  0  0  0  0
   -5.1700   22.8150  -31.0090 N   0  0  0  0  0  0  0  0  0  0  0  0
   -5.8310   24.0060  -30.9240 C   0  0  0  0  0  0  0  0  0  0  0  0
   -5.2590   25.2900  -30.4690 C   0  0  0  0  0  0  0  0  0  0  0  0
   -3.9270   25.6640  -30.8140 N   0  0  0  0  0  0  0  0  0  0  0  0
   -5.9370   26.0440  -29.7210 O   0  0  0  0  0  0  0  0  0  0  0  0
   -7.1780   23.8410  -31.2360 C   0  0  0  0  0  0  0  0  0  0  0  0
   -7.3320   22.5000  -31.5010 C   0  0  0  0  0  0  0  0  0  0  0  0
   -8.4690   21.7830  -31.8640 C   0  0  0  0  0  0  0  0  0  0  0  0
   -8.3330   20.4040  -32.0930 C   0  0  0  0  0  0  0  0  0  0  0  0
   -7.0740   19.7710  -31.9570 C   0  0  0  0  0  0  0  0  0  0  0  0
   -6.9320   18.3080  -32.2530 C   0  0  0  0  0  0  0  0  0  0  0  0
   -5.9370   20.5340  -31.6110 C   0  0  0  0  0  0  0  0  0  0  0  0
   -6.1050   21.9020  -31.3610 C   0  0  0  0  0  0  0  0  0  0  0  0
    0.2532   27.1969  -25.9877 H   0  0  0  0  0  0  0  0  0  0  0  0
    0.6745   26.3631  -27.5220 H   0  0  0  0  0  0  0  0  0  0  0  0
   -0.5454   27.6817  -27.5220 H   0  0  0  0  0  0  0  0  0  0  0  0
   -1.3960   25.5970  -25.7190 H   0  0  0  0  0  0  0  0  0  0  0  0
   -4.2453   24.5448  -25.9830 H   0  0  0  0  0  0  0  0  0  0  0  0
   -4.5251   25.5382  -27.4532 H   0  0  0  0  0  0  0  0  0  0  0  0
   -4.9532   23.7937  -27.4532 H   0  0  0  0  0  0  0  0  0  0  0  0
   -1.6159   22.7250  -28.3304 H   0  0  0  0  0  0  0  0  0  0  0  0
   -2.3108   22.3901  -26.6966 H   0  0  0  0  0  0  0  0  0  0  0  0
   -3.7551   21.0338  -27.8030 H   0  0  0  0  0  0  0  0  0  0  0  0
   -4.5796   22.5639  -28.2727 H   0  0  0  0  0  0  0  0  0  0  0  0
   -3.1130   25.0720  -30.5350 H   0  0  0  0  0  0  0  0  0  0  0  0
   -7.9551   24.6190  -31.2645 H   0  0  0  0  0  0  0  0  0  0  0  0
   -9.4441   22.2814  -31.9683 H   0  0  0  0  0  0  0  0  0  0  0  0
   -9.2131   19.8101  -32.3808 H   0  0  0  0  0  0  0  0  0  0  0  0
   -6.8775   17.7465  -31.3087 H   0  0  0  0  0  0  0  0  0  0  0  0
   -7.8011   17.9654  -32.8337 H   0  0  0  0  0  0  0  0  0  0  0  0
   -6.0132   18.1389  -32.8337 H   0  0  0  0  0  0  0  0  0  0  0  0
   -4.9442   20.0657  -31.5396 H   0  0  0  0  0  0  0  0  0  0  0  0
  1  2  1  0
  2  3  1  0
  3  4  2  0
  3  5  1  0
  5  6  1  0
  5  7  1  0
  7  8  1  0
  8  9  1  0
  9 10  1  0
 10 11  2  0
 10 12  1  0
 12 13  1  0
 13 14  1  0
 14 15  1  0
 14 16  2  0
 13 17  2  0
 17 18  1  0
 18 19  2  0
 19 20  1  0
 20 21  2  0
 21 22  1  0
 21 23  1  0
 23 24  2  0
 24 12  1  0
 24 18  1  0
  1 25  1  0
  1 26  1  0
  1 27  1  0
  2 28  1  0
  6 29  1  0
  6 30  1  0
  6 31  1  0
  7 32  1  0
  7 33  1  0
  8 34  1  0
  8 35  1  0
 15 36  1  0
 17 37  1  0
 19 38  1  0
 20 39  1  0
 22 40  1  0
 22 41  1  0
 22 42  1  0
 23 43  1  0
M  CHG  2   9  -1  15  -1
M  END
>  <UniqueID>  (62) 
62

>  <SMILES>  (62) 
CNC(=O)N(C)CC[N-]C(=O)n1c(C([NH-])=O)cc2ccc(C)cc21

>  <Energy>  (62) 
71.82837512384428

>  <Genealogy>  (62) 
CNC(=O)N(C)CC[N-]C(=O)n1c(C([NH-])=O)cc2ccc(C)cc21 (protonated)
CNC(=O)N(C)CC[N-]C(=O)n1c(C([NH-])=O)cc2ccc(C)cc21 (3D coordinates assigned)
CNC(=O)N(C)CC[N-]C(=O)n1c(C([NH-])=O)cc2ccc(C)cc21 (optimized conformer: 71.82837512384428 kcal/mol)

>  <smiles>  (62) 
CNC(=O)N(C)CCNC(=O)n1c(C(N)=O)cc2ccc(C)cc21

>  <score_type>  (62) 
oracle

>  <origin>  (62) 
adg

>  <m_score__min__energy>  (62) 
-10.59

>  <m_primary>  (62) 
energy

$$$$
62:0
     RDKit          3D

 36 38  0  0  0  0  0  0  0  0999 V2000
   -3.7790   24.8940  -30.6360 N   0  0  0  0  0  0  0  0  0  0  0  0
   -5.1860   24.9750  -30.8440 C   0  0  0  0  0  0  0  0  0  0  0  0
   -5.7370   26.1080  -30.8780 O   0  0  0  0  0  0  0  0  0  0  0  0
   -6.0040   23.7590  -31.0470 C   0  0  0  0  0  0  0  0  0  0  0  0
   -7.3970   23.7670  -31.0830 C   0  0  0  0  0  0  0  0  0  0  0  0
   -7.7640   22.4660  -31.3480 C   0  0  0  0  0  0  0  0  0  0  0  0
   -9.0280   21.9040  -31.4940 C   0  0  0  0  0  0  0  0  0  0  0  0
   -9.1090   20.5240  -31.7490 C   0  0  0  0  0  0  0  0  0  0  0  0
   -7.9360   19.7300  -31.8280 C   0  0  0  0  0  0  0  0  0  0  0  0
   -8.0330   18.2580  -32.1410 C   0  0  0  0  0  0  0  0  0  0  0  0
   -9.3390   17.8420  -31.9640 F   0  0  0  0  0  0  0  0  0  0  0  0
   -7.6540   18.0100  -33.4480 F   0  0  0  0  0  0  0  0  0  0  0  0
   -7.2080   17.5260  -31.3050 F   0  0  0  0  0  0  0  0  0  0  0  0
   -6.6680   20.3460  -31.6960 C   0  0  0  0  0  0  0  0  0  0  0  0
   -6.6190   21.7240  -31.4600 C   0  0  0  0  0  0  0  0  0  0  0  0
   -5.5310   22.5020  -31.2840 N   0  0  0  0  0  0  0  0  0  0  0  0
   -4.1630   22.0690  -31.3240 C   0  0  0  0  0  0  0  0  0  0  0  0
   -3.3170   22.7290  -31.9830 O   0  0  0  0  0  0  0  0  0  0  0  0
   -3.7390   20.8080  -30.6310 C   0  0  0  0  0  0  0  0  0  0  0  0
   -2.6920   21.0850  -29.7040 O   0  0  0  0  0  0  0  0  0  0  0  0
   -2.4610   22.3520  -29.1540 C   0  0  0  0  0  0  0  0  0  0  0  0
   -1.3740   23.1740  -29.3750 C   0  0  0  0  0  0  0  0  0  0  0  0
   -1.6650   24.2880  -28.6130 C   0  0  0  0  0  0  0  0  0  0  0  0
   -0.8390   25.4920  -28.4910 C   0  0  0  0  0  0  0  0  0  0  0  0
   -1.2360   26.5880  -28.9670 O   0  0  0  0  0  0  0  0  0  0  0  0
    0.3890   25.4310  -27.8440 O   0  0  0  0  0  0  0  0  0  0  0  0
   -2.8450   24.1160  -27.9820 N   0  0  0  0  0  0  0  0  0  0  0  0
   -3.2910   22.9450  -28.3290 O   0  0  0  0  0  0  0  0  0  0  0  0
   -3.3470   24.0490  -30.1990 H   0  0  0  0  0  0  0  0  0  0  0  0
   -8.0626   24.6296  -30.9318 H   0  0  0  0  0  0  0  0  0  0  0  0
   -9.9356   22.5201  -31.4125 H   0  0  0  0  0  0  0  0  0  0  0  0
  -10.0937   20.0541  -31.8890 H   0  0  0  0  0  0  0  0  0  0  0  0
   -5.7436   19.7552  -31.7771 H   0  0  0  0  0  0  0  0  0  0  0  0
   -4.5985   20.3827  -30.0922 H   0  0  0  0  0  0  0  0  0  0  0  0
   -3.3744   20.0908  -31.3812 H   0  0  0  0  0  0  0  0  0  0  0  0
   -0.4915   22.9870  -30.0045 H   0  0  0  0  0  0  0  0  0  0  0  0
  1  2  1  0
  2  3  2  0
  2  4  1  0
  4  5  2  0
  5  6  1  0
  6  7  2  0
  7  8  1  0
  8  9  2  0
  9 10  1  0
 10 11  1  0
 10 12  1  0
 10 13  1  0
  9 14  1  0
 14 15  2  0
 15 16  1  0
 16 17  1  0
 17 18  2  0
 17 19  1  0
 19 20  1  0
 20 21  1  0
 21 22  2  0
 22 23  1  0
 23 24  1  0
 24 25  2  0
 24 26  1  0
 23 27  2  0
 27 28  1  0
 16  4  1  0
 28 21  1  0
 15  6  1  0
  1 29  1  0
  5 30  1  0
  7 31  1  0
  8 32  1  0
 14 33  1  0
 19 34  1  0
 19 35  1  0
 22 36  1  0
M  CHG  2   1  -1  26  -1
M  END
>  <UniqueID>  (63) 
63

>  <SMILES>  (63) 
[NH-]C(=O)c1cc2ccc(C(F)(F)F)cc2n1C(=O)COc1cc(C(=O)[O-])no1

>  <Energy>  (63) 
105.31836283983988

>  <Genealogy>  (63) 
[NH-]C(=O)c1cc2ccc(C(F)(F)F)cc2n1C(=O)COc1cc(C(=O)[O-])no1 (protonated)
[NH-]C(=O)c1cc2ccc(C(F)(F)F)cc2n1C(=O)COc1cc(C(=O)[O-])no1 (3D coordinates assigned)
[NH-]C(=O)c1cc2ccc(C(F)(F)F)cc2n1C(=O)COc1cc(C(=O)[O-])no1 (optimized conformer: 105.31836283983988 kcal/mol)

>  <smiles>  (63) 
NC(=O)c1cc2ccc(C(F)(F)F)cc2n1C(=O)COc1cc(C(=O)O)no1

>  <score_type>  (63) 
oracle

>  <origin>  (63) 
adg

>  <m_score__min__energy>  (63) 
-11.66

>  <m_primary>  (63) 
energy

$$$$
63:0
     RDKit          3D

 44 45  0  0  0  0  0  0  0  0999 V2000
   -2.6540   24.9390  -26.9970 C   0  0  0  0  0  0  0  0  0  0  0  0
   -1.3920   25.1060  -27.8650 C   0  0  0  0  0  0  0  0  0  0  0  0
   -0.3250   24.1080  -27.3900 C   0  0  0  0  0  0  0  0  0  0  0  0
   -0.8380   26.5360  -27.7390 C   0  0  0  0  0  0  0  0  0  0  0  0
   -1.6950   24.7980  -29.2650 N   0  0  0  0  0  0  0  0  0  0  0  0
   -1.8760   23.4970  -29.8410 C   0  0  0  0  0  0  0  0  0  0  0  0
   -0.9380   22.9270  -30.4620 O   0  0  0  0  0  0  0  0  0  0  0  0
   -3.2020   22.8110  -29.7100 C   0  0  0  0  0  0  0  0  0  0  0  0
   -3.9110   22.6960  -31.0330 C   0  0  0  0  0  0  0  0  0  0  0  0
   -3.2320   22.4840  -32.0730 O   0  0  0  0  0  0  0  0  0  0  0  0
   -5.3370   22.8450  -31.1420 N   0  0  0  0  0  0  0  0  0  0  0  0
   -6.0820   23.9390  -30.8140 C   0  0  0  0  0  0  0  0  0  0  0  0
   -5.5550   25.2440  -30.3640 C   0  0  0  0  0  0  0  0  0  0  0  0
   -4.2150   25.6360  -30.6530 N   0  0  0  0  0  0  0  0  0  0  0  0
   -6.3070   26.0400  -29.7410 O   0  0  0  0  0  0  0  0  0  0  0  0
   -7.4350   23.6920  -31.0430 C   0  0  0  0  0  0  0  0  0  0  0  0
   -7.4950   22.4070  -31.5330 C   0  0  0  0  0  0  0  0  0  0  0  0
   -8.5900   21.6590  -31.9570 C   0  0  0  0  0  0  0  0  0  0  0  0
   -8.3520   20.3580  -32.4330 C   0  0  0  0  0  0  0  0  0  0  0  0
   -7.0390   19.8280  -32.4610 C   0  0  0  0  0  0  0  0  0  0  0  0
   -6.7940   18.4490  -33.0090 C   0  0  0  0  0  0  0  0  0  0  0  0
   -6.0850   17.6040  -31.9950 C   0  0  0  0  0  0  0  0  0  0  0  0
   -6.4850   17.5530  -30.8430 O   0  0  0  0  0  0  0  0  0  0  0  0
   -5.9530   20.6200  -32.0290 C   0  0  0  0  0  0  0  0  0  0  0  0
   -6.2150   21.9180  -31.5800 C   0  0  0  0  0  0  0  0  0  0  0  0
   -2.3751   24.9759  -25.9336 H   0  0  0  0  0  0  0  0  0  0  0  0
   -3.3618   25.7513  -27.2189 H   0  0  0  0  0  0  0  0  0  0  0  0
   -3.1261   23.9706  -27.2189 H   0  0  0  0  0  0  0  0  0  0  0  0
   -0.3045   24.0888  -26.2904 H   0  0  0  0  0  0  0  0  0  0  0  0
   -0.5668   23.1043  -27.7698 H   0  0  0  0  0  0  0  0  0  0  0  0
    0.6603   24.4162  -27.7698 H   0  0  0  0  0  0  0  0  0  0  0  0
   -0.7367   26.7976  -26.6754 H   0  0  0  0  0  0  0  0  0  0  0  0
    0.1468   26.5919  -28.2258 H   0  0  0  0  0  0  0  0  0  0  0  0
   -1.5281   27.2408  -28.2258 H   0  0  0  0  0  0  0  0  0  0  0  0
   -3.0408   21.8012  -29.3046 H   0  0  0  0  0  0  0  0  0  0  0  0
   -3.8313   23.4137  -29.0387 H   0  0  0  0  0  0  0  0  0  0  0  0
   -3.4940   25.6800  -29.8990 H   0  0  0  0  0  0  0  0  0  0  0  0
   -8.2765   24.3787  -30.8689 H   0  0  0  0  0  0  0  0  0  0  0  0
   -9.6086   22.0728  -31.9207 H   0  0  0  0  0  0  0  0  0  0  0  0
   -9.1941   19.7454  -32.7873 H   0  0  0  0  0  0  0  0  0  0  0  0
   -7.7577   17.9820  -33.2602 H   0  0  0  0  0  0  0  0  0  0  0  0
   -6.1671   18.5283  -33.9094 H   0  0  0  0  0  0  0  0  0  0  0  0
   -5.1975   17.0254  -32.2909 H   0  0  0  0  0  0  0  0  0  0  0  0
   -4.9262   20.2257  -32.0452 H   0  0  0  0  0  0  0  0  0  0  0  0
  1  2  1  0
  2  3  1  0
  2  4  1  0
  2  5  1  0
  5  6  1  0
  6  7  2  0
  6  8  1  0
  8  9  1  0
  9 10  2  0
  9 11  1  0
 11 12  1  0
 12 13  1  0
 13 14  1  0
 13 15  2  0
 12 16  2  0
 16 17  1  0
 17 18  2  0
 18 19  1  0
 19 20  2  0
 20 21  1  0
 21 22  1  0
 22 23  2  0
 20 24  1  0
 24 25  2  0
 25 11  1  0
 25 17  1  0
  1 26  1  0
  1 27  1  0
  1 28  1  0
  3 29  1  0
  3 30  1  0
  3 31  1  0
  4 32  1  0
  4 33  1  0
  4 34  1  0
  8 35  1  0
  8 36  1  0
 14 37  1  0
 16 38  1  0
 18 39  1  0
 19 40  1  0
 21 41  1  0
 21 42  1  0
 22 43  1  0
 24 44  1  0
M  CHG  2   5  -1  14  -1
M  END
>  <UniqueID>  (64) 
64

>  <SMILES>  (64) 
CC(C)(C)[N-]C(=O)CC(=O)n1c(C([NH-])=O)cc2ccc(CC=O)cc21

>  <Energy>  (64) 
71.2273568821245

>  <Genealogy>  (64) 
CC(C)(C)[N-]C(=O)CC(=O)n1c(C([NH-])=O)cc2ccc(CC=O)cc21 (protonated)
CC(C)(C)[N-]C(=O)CC(=O)n1c(C([NH-])=O)cc2ccc(CC=O)cc21 (3D coordinates assigned)
CC(C)(C)[N-]C(=O)CC(=O)n1c(C([NH-])=O)cc2ccc(CC=O)cc21 (optimized conformer: 71.2273568821245 kcal/mol)

>  <smiles>  (64) 
CC(C)(C)NC(=O)CC(=O)n1c(C(N)=O)cc2ccc(CC=O)cc21

>  <score_type>  (64) 
oracle

>  <origin>  (64) 
adg

>  <m_score__min__energy>  (64) 
-11.68

>  <m_primary>  (64) 
energy

$$$$
64:0
     RDKit          3D

 49 50  0  0  0  0  0  0  0  0999 V2000
   -9.4310   22.0670  -31.9140 C   0  0  0  0  0  0  0  0  0  0  0  0
   -7.9850   21.6840  -32.0050 C   0  0  0  0  0  0  0  0  0  0  0  0
   -7.6030   20.4640  -32.6150 C   0  0  0  0  0  0  0  0  0  0  0  0
   -6.2510   20.0940  -32.6880 C   0  0  0  0  0  0  0  0  0  0  0  0
   -5.3060   20.9630  -32.1480 C   0  0  0  0  0  0  0  0  0  0  0  0
   -3.9400   20.8360  -32.0660 C   0  0  0  0  0  0  0  0  0  0  0  0
   -3.5020   21.9900  -31.4220 C   0  0  0  0  0  0  0  0  0  0  0  0
   -2.0770   22.3010  -31.1940 C   0  0  0  0  0  0  0  0  0  0  0  0
   -1.6760   23.2290  -30.1860 N   0  0  0  0  0  0  0  0  0  0  0  0
   -1.2030   21.7800  -31.9380 O   0  0  0  0  0  0  0  0  0  0  0  0
   -4.5570   22.7920  -31.0990 N   0  0  0  0  0  0  0  0  0  0  0  0
   -4.5220   23.9990  -30.3160 C   0  0  0  0  0  0  0  0  0  0  0  0
   -3.8670   24.9960  -30.7260 O   0  0  0  0  0  0  0  0  0  0  0  0
   -5.2270   24.0750  -29.0760 N   0  0  0  0  0  0  0  0  0  0  0  0
   -4.6000   24.4850  -27.8290 C   0  0  0  0  0  0  0  0  0  0  0  0
   -3.4130   23.6200  -27.5710 C   0  0  0  0  0  0  0  0  0  0  0  0
   -3.3080   22.5060  -28.1490 O   0  0  0  0  0  0  0  0  0  0  0  0
   -2.3740   24.0940  -26.7080 N   0  0  0  0  0  0  0  0  0  0  0  0
   -1.5750   25.2910  -26.9710 C   0  0  2  0  0  0  0  0  0  0  0  0
   -0.8970   25.1700  -28.3130 C   0  0  0  0  0  0  0  0  0  0  0  0
   -1.4160   25.6750  -29.3440 O   0  0  0  0  0  0  0  0  0  0  0  0
    0.3090   24.4860  -28.4190 O   0  0  0  0  0  0  0  0  0  0  0  0
   -0.5730   25.5480  -25.7970 C   0  0  0  0  0  0  0  0  0  0  0  0
    0.5870   26.4330  -26.3050 C   0  0  0  0  0  0  0  0  0  0  0  0
   -1.2580   26.2640  -24.6110 C   0  0  0  0  0  0  0  0  0  0  0  0
    0.0270   24.2140  -25.2990 C   0  0  0  0  0  0  0  0  0  0  0  0
   -5.6580   22.1510  -31.5570 C   0  0  0  0  0  0  0  0  0  0  0  0
   -7.0010   22.5310  -31.4490 C   0  0  0  0  0  0  0  0  0  0  0  0
   -9.7239   22.1446  -30.8566 H   0  0  0  0  0  0  0  0  0  0  0  0
   -9.5853   23.0370  -32.4093 H   0  0  0  0  0  0  0  0  0  0  0  0
  -10.0452   21.3006  -32.4093 H   0  0  0  0  0  0  0  0  0  0  0  0
   -8.3730   19.8004  -33.0354 H   0  0  0  0  0  0  0  0  0  0  0  0
   -5.9471   19.1467  -33.1573 H   0  0  0  0  0  0  0  0  0  0  0  0
   -3.3242   20.0009  -32.4312 H   0  0  0  0  0  0  0  0  0  0  0  0
   -0.6630   23.4090  -30.0120 H   0  0  0  0  0  0  0  0  0  0  0  0
   -2.3830   23.7850  -29.6570 H   0  0  0  0  0  0  0  0  0  0  0  0
   -4.2808   25.5349  -27.9052 H   0  0  0  0  0  0  0  0  0  0  0  0
   -5.3187   24.3834  -27.0024 H   0  0  0  0  0  0  0  0  0  0  0  0
   -2.2290   26.1741  -27.0196 H   0  0  0  0  0  0  0  0  0  0  0  0
    1.1334   26.8499  -25.4461 H   0  0  0  0  0  0  0  0  0  0  0  0
    1.2715   25.8256  -26.9153 H   0  0  0  0  0  0  0  0  0  0  0  0
    0.1820   27.2537  -26.9153 H   0  0  0  0  0  0  0  0  0  0  0  0
   -0.8703   25.8588  -23.6647 H   0  0  0  0  0  0  0  0  0  0  0  0
   -1.0466   27.3423  -24.6621 H   0  0  0  0  0  0  0  0  0  0  0  0
   -2.3446   26.1005  -24.6621 H   0  0  0  0  0  0  0  0  0  0  0  0
    0.0323   24.2023  -24.1991 H   0  0  0  0  0  0  0  0  0  0  0  0
   -0.5812   23.3766  -25.6717 H   0  0  0  0  0  0  0  0  0  0  0  0
    1.0570   24.1134  -25.6717 H   0  0  0  0  0  0  0  0  0  0  0  0
   -7.2830   23.4664  -30.9435 H   0  0  0  0  0  0  0  0  0  0  0  0
  1  2  1  0
  2  3  2  0
  3  4  1  0
  4  5  2  0
  5  6  1  0
  6  7  2  0
  7  8  1  0
  8  9  1  0
  8 10  2  0
  7 11  1  0
 11 12  1  0
 12 13  2  0
 12 14  1  0
 14 15  1  0
 15 16  1  0
 16 17  2  0
 16 18  1  0
 18 19  1  0
 19 20  1  0
 20 21  2  0
 20 22  1  0
 19 23  1  0
 23 24  1  0
 23 25  1  0
 23 26  1  0
 11 27  1  0
 27 28  2  0
 28  2  1  0
 27  5  1  0
  1 29  1  0
  1 30  1  0
  1 31  1  0
  3 32  1  0
  4 33  1  0
  6 34  1  0
  9 35  1  0
  9 36  1  0
 15 37  1  0
 15 38  1  0
 19 39  1  6
 24 40  1  0
 24 41  1  0
 24 42  1  0
 25 43  1  0
 25 44  1  0
 25 45  1  0
 26 46  1  0
 26 47  1  0
 26 48  1  0
 28 49  1  0
M  CHG  3  14  -1  18  -1  22  -1
M  END
>  <UniqueID>  (65) 
65

>  <SMILES>  (65) 
Cc1ccc2cc(C(N)=O)n(C(=O)[N-]CC(=O)[N-][C@H](C(=O)[O-])C(C)(C)C)c2c1

>  <Energy>  (65) 
77.91886427873446

>  <Genealogy>  (65) 
Cc1ccc2cc(C(N)=O)n(C(=O)[N-]CC(=O)[N-][C@H](C(=O)[O-])C(C)(C)C)c2c1 (protonated)
Cc1ccc2cc(C(N)=O)n(C(=O)[N-]CC(=O)[N-][C@H](C(=O)[O-])C(C)(C)C)c2c1 (3D coordinates assigned)
Cc1ccc2cc(C(N)=O)n(C(=O)[N-]CC(=O)[N-][C@H](C(=O)[O-])C(C)(C)C)c2c1 (optimized conformer: 77.91886427873446 kcal/mol)

>  <smiles>  (65) 
Cc1ccc2cc(C(N)=O)n(C(=O)NCC(=O)N[C@H](C(=O)O)C(C)(C)C)c2c1

>  <score_type>  (65) 
oracle

>  <origin>  (65) 
adg

>  <m_score__min__energy>  (65) 
-13.470000000000001

>  <m_primary>  (65) 
energy

$$$$
65:0
     RDKit          3D

 38 39  0  0  0  0  0  0  0  0999 V2000
   -1.2140   22.7010  -27.2080 C   0  0  0  0  0  0  0  0  0  0  0  0
   -2.0040   23.9180  -27.7060 C   0  0  0  0  0  0  0  0  0  0  0  0
   -2.3810   24.8040  -26.5020 C   0  0  0  0  0  0  0  0  0  0  0  0
   -3.2250   23.4340  -28.3590 N   0  0  0  0  0  0  0  0  0  0  0  0
   -3.2950   22.3850  -29.3340 C   0  0  0  0  0  0  0  0  0  0  0  0
   -3.0090   21.1980  -29.0190 O   0  0  0  0  0  0  0  0  0  0  0  0
   -3.7040   22.6980  -30.7110 C   0  0  0  0  0  0  0  0  0  0  0  0
   -2.8310   22.7960  -31.6140 O   0  0  0  0  0  0  0  0  0  0  0  0
   -5.0880   22.8960  -31.0380 N   0  0  0  0  0  0  0  0  0  0  0  0
   -5.8030   24.0540  -30.9630 C   0  0  0  0  0  0  0  0  0  0  0  0
   -5.2580   25.3830  -30.6190 C   0  0  0  0  0  0  0  0  0  0  0  0
   -3.8830   25.6720  -30.8620 N   0  0  0  0  0  0  0  0  0  0  0  0
   -5.9890   26.2640  -30.0940 O   0  0  0  0  0  0  0  0  0  0  0  0
   -7.1330   23.8270  -31.3140 C   0  0  0  0  0  0  0  0  0  0  0  0
   -7.2120   22.4830  -31.6020 C   0  0  0  0  0  0  0  0  0  0  0  0
   -8.2990   21.7130  -32.0000 C   0  0  0  0  0  0  0  0  0  0  0  0
   -8.0920   20.3380  -32.2080 C   0  0  0  0  0  0  0  0  0  0  0  0
   -6.8180   19.7540  -31.9880 C   0  0  0  0  0  0  0  0  0  0  0  0
   -6.5990   18.2870  -32.2530 C   0  0  0  0  0  0  0  0  0  0  0  0
   -5.9140   18.1000  -33.4420 F   0  0  0  0  0  0  0  0  0  0  0  0
   -7.8230   17.6510  -32.3340 F   0  0  0  0  0  0  0  0  0  0  0  0
   -5.8580   17.7110  -31.2340 F   0  0  0  0  0  0  0  0  0  0  0  0
   -5.7330   20.5750  -31.6020 C   0  0  0  0  0  0  0  0  0  0  0  0
   -5.9650   21.9440  -31.4230 C   0  0  0  0  0  0  0  0  0  0  0  0
   -1.1450   24.6780  -28.6930 C   0  0  0  0  0  0  0  0  0  0  0  0
   -1.6180   25.6670  -29.3160 O   0  0  0  0  0  0  0  0  0  0  0  0
    0.1450   24.2490  -28.9870 O   0  0  0  0  0  0  0  0  0  0  0  0
   -1.2085   22.6925  -26.1080 H   0  0  0  0  0  0  0  0  0  0  0  0
   -1.6869   21.7799  -27.5794 H   0  0  0  0  0  0  0  0  0  0  0  0
   -0.1802   22.7579  -27.5794 H   0  0  0  0  0  0  0  0  0  0  0  0
   -2.1535   24.2694  -25.5679 H   0  0  0  0  0  0  0  0  0  0  0  0
   -1.8028   25.7390  -26.5395 H   0  0  0  0  0  0  0  0  0  0  0  0
   -3.4557   25.0357  -26.5395 H   0  0  0  0  0  0  0  0  0  0  0  0
   -3.1460   24.9500  -30.6970 H   0  0  0  0  0  0  0  0  0  0  0  0
   -7.9472   24.5656  -31.3527 H   0  0  0  0  0  0  0  0  0  0  0  0
   -9.2906   22.1657  -32.1476 H   0  0  0  0  0  0  0  0  0  0  0  0
   -8.9279   19.7075  -32.5454 H   0  0  0  0  0  0  0  0  0  0  0  0
   -4.7312   20.1483  -31.4462 H   0  0  0  0  0  0  0  0  0  0  0  0
  1  2  1  0
  2  3  1  0
  2  4  1  0
  4  5  1  0
  5  6  2  0
  5  7  1  0
  7  8  2  0
  7  9  1  0
  9 10  1  0
 10 11  1  0
 11 12  1  0
 11 13  2  0
 10 14  2  0
 14 15  1  0
 15 16  2  0
 16 17  1  0
 17 18  2  0
 18 19  1  0
 19 20  1  0
 19 21  1  0
 19 22  1  0
 18 23  1  0
 23 24  2  0
  2 25  1  0
 25 26  2  0
 25 27  1  0
 24  9  1  0
 24 15  1  0
  1 28  1  0
  1 29  1  0
  1 30  1  0
  3 31  1  0
  3 32  1  0
  3 33  1  0
 12 34  1  0
 14 35  1  0
 16 36  1  0
 17 37  1  0
 23 38  1  0
M  CHG  3   4  -1  12  -1  27  -1
M  END
>  <UniqueID>  (66) 
66

>  <SMILES>  (66) 
CC(C)([N-]C(=O)C(=O)n1c(C([NH-])=O)cc2ccc(C(F)(F)F)cc21)C(=O)[O-]

>  <Energy>  (66) 
73.91881001096394

>  <Genealogy>  (66) 
CC(C)([N-]C(=O)C(=O)n1c(C([NH-])=O)cc2ccc(C(F)(F)F)cc21)C(=O)[O-] (protonated)
CC(C)([N-]C(=O)C(=O)n1c(C([NH-])=O)cc2ccc(C(F)(F)F)cc21)C(=O)[O-] (3D coordinates assigned)
CC(C)([N-]C(=O)C(=O)n1c(C([NH-])=O)cc2ccc(C(F)(F)F)cc21)C(=O)[O-] (optimized conformer: 73.91881001096394 kcal/mol)

>  <smiles>  (66) 
CC(C)(NC(=O)C(=O)n1c(C(N)=O)cc2ccc(C(F)(F)F)cc21)C(=O)O

>  <score_type>  (66) 
oracle

>  <origin>  (66) 
adg

>  <m_score__min__energy>  (66) 
-13.35

>  <m_primary>  (66) 
energy

$$$$
66:0
     RDKit          3D

 60 63  0  0  0  0  0  0  0  0999 V2000
   -3.5110   24.9840  -30.8290 N   0  0  0  0  0  0  0  0  0  0  0  0
   -4.9150   25.1320  -30.6330 C   0  0  0  0  0  0  0  0  0  0  0  0
   -5.3710   26.2440  -30.2530 O   0  0  0  0  0  0  0  0  0  0  0  0
   -5.8450   24.0110  -30.8930 C   0  0  0  0  0  0  0  0  0  0  0  0
   -7.2200   24.1620  -31.0670 C   0  0  0  0  0  0  0  0  0  0  0  0
   -7.6990   22.8980  -31.3260 C   0  0  0  0  0  0  0  0  0  0  0  0
   -8.9960   22.4620  -31.5860 C   0  0  0  0  0  0  0  0  0  0  0  0
   -9.1970   21.0920  -31.8350 C   0  0  0  0  0  0  0  0  0  0  0  0
   -8.1000   20.1880  -31.8270 C   0  0  0  0  0  0  0  0  0  0  0  0
   -8.2890   18.7150  -32.0830 C   0  0  0  0  0  0  0  0  0  0  0  0
   -7.8800   18.4170  -33.3720 F   0  0  0  0  0  0  0  0  0  0  0  0
   -7.5220   17.9920  -31.1890 F   0  0  0  0  0  0  0  0  0  0  0  0
   -9.6080   18.3310  -31.9390 F   0  0  0  0  0  0  0  0  0  0  0  0
   -6.7950   20.6740  -31.5720 C   0  0  0  0  0  0  0  0  0  0  0  0
   -6.6340   22.0360  -31.3040 C   0  0  0  0  0  0  0  0  0  0  0  0
   -5.4950   22.7020  -31.0200 N   0  0  0  0  0  0  0  0  0  0  0  0
   -4.1910   22.1220  -30.8780 C   0  0  0  0  0  0  0  0  0  0  0  0
   -3.8300   21.6900  -29.7520 O   0  0  0  0  0  0  0  0  0  0  0  0
   -3.2540   22.0220  -32.0570 C   0  0  2  0  0  0  0  0  0  0  0  0
   -3.9330   21.2570  -33.2080 C   0  0  0  0  0  0  0  0  0  0  0  0
   -3.5970   19.7490  -33.2520 C   0  0  0  0  0  0  0  0  0  0  0  0
   -4.7320   18.8180  -33.4730 N   0  0  0  0  0  0  0  0  0  0  0  0
   -4.9270   17.8090  -32.4270 C   0  0  0  0  0  0  0  0  0  0  0  0
   -5.6420   16.6220  -33.0730 C   0  0  0  0  0  0  0  0  0  0  0  0
   -5.8420   17.0130  -34.5310 C   0  0  0  0  0  0  0  0  0  0  0  0
   -4.8430   18.1260  -34.7600 C   0  0  0  0  0  0  0  0  0  0  0  0
   -2.0400   21.3090  -31.6570 N   0  0  0  0  0  0  0  0  0  0  0  0
   -1.0300   21.8390  -30.7930 C   0  0  0  0  0  0  0  0  0  0  0  0
    0.0630   21.2320  -30.6370 O   0  0  0  0  0  0  0  0  0  0  0  0
   -1.2720   23.0500  -30.1330 O   0  0  0  0  0  0  0  0  0  0  0  0
   -1.2670   23.1770  -28.7090 C   0  0  1  0  0  0  0  0  0  0  0  0
   -0.1710   24.0970  -28.2560 C   0  0  0  0  0  0  0  0  0  0  0  0
   -0.8490   25.4490  -28.2770 C   0  0  0  0  0  0  0  0  0  0  0  0
   -2.2290   25.2750  -28.0550 O   0  0  0  0  0  0  0  0  0  0  0  0
   -2.5220   23.9080  -28.2570 C   0  0  0  0  0  0  0  0  0  0  0  0
   -2.8390   25.2990  -30.0980 H   0  0  0  0  0  0  0  0  0  0  0  0
   -7.7999   25.0949  -31.0094 H   0  0  0  0  0  0  0  0  0  0  0  0
   -9.8390   23.1686  -31.5964 H   0  0  0  0  0  0  0  0  0  0  0  0
  -10.2112   20.7174  -32.0375 H   0  0  0  0  0  0  0  0  0  0  0  0
   -5.9289   19.9960  -31.5845 H   0  0  0  0  0  0  0  0  0  0  0  0
   -2.9972   23.0364  -32.3963 H   0  0  0  0  0  0  0  0  0  0  0  0
   -5.0222   21.3646  -33.0984 H   0  0  0  0  0  0  0  0  0  0  0  0
   -3.5536   21.6927  -34.1441 H   0  0  0  0  0  0  0  0  0  0  0  0
   -2.8743   19.5924  -34.0664 H   0  0  0  0  0  0  0  0  0  0  0  0
   -3.2179   19.5085  -32.2478 H   0  0  0  0  0  0  0  0  0  0  0  0
   -3.9541   17.4898  -32.0249 H   0  0  0  0  0  0  0  0  0  0  0  0
   -5.5203   18.2174  -31.5956 H   0  0  0  0  0  0  0  0  0  0  0  0
   -5.0245   15.7146  -32.9994 H   0  0  0  0  0  0  0  0  0  0  0  0
   -6.5974   16.4003  -32.5749 H   0  0  0  0  0  0  0  0  0  0  0  0
   -5.6349   16.1608  -35.1949 H   0  0  0  0  0  0  0  0  0  0  0  0
   -6.8750   17.3249  -34.7446 H   0  0  0  0  0  0  0  0  0  0  0  0
   -3.8687   17.7132  -35.0606 H   0  0  0  0  0  0  0  0  0  0  0  0
   -5.1632   18.8050  -35.5640 H   0  0  0  0  0  0  0  0  0  0  0  0
   -1.1673   22.1582  -28.3064 H   0  0  0  0  0  0  0  0  0  0  0  0
    0.1708   23.8394  -27.2427 H   0  0  0  0  0  0  0  0  0  0  0  0
    0.7302   24.0485  -28.8849 H   0  0  0  0  0  0  0  0  0  0  0  0
   -0.4259   26.0858  -27.4861 H   0  0  0  0  0  0  0  0  0  0  0  0
   -0.6880   25.9297  -29.2532 H   0  0  0  0  0  0  0  0  0  0  0  0
   -2.8825   23.4681  -27.3154 H   0  0  0  0  0  0  0  0  0  0  0  0
   -3.2985   23.8119  -29.0302 H   0  0  0  0  0  0  0  0  0  0  0  0
  1  2  1  0
  2  3  2  0
  2  4  1  0
  4  5  2  0
  5  6  1  0
  6  7  2  0
  7  8  1  0
  8  9  2  0
  9 10  1  0
 10 11  1  0
 10 12  1  0
 10 13  1  0
  9 14  1  0
 14 15  2  0
 15 16  1  0
 16 17  1  0
 17 18  2  0
 17 19  1  0
 19 20  1  0
 20 21  1  0
 21 22  1  0
 22 23  1  0
 23 24  1  0
 24 25  1  0
 25 26  1  0
 19 27  1  0
 27 28  1  0
 28 29  2  0
 28 30  1  0
 30 31  1  0
 31 32  1  0
 32 33  1  0
 33 34  1  0
 34 35  1  0
 16  4  1  0
 26 22  1  0
 35 31  1  0
 15  6  1  0
  1 36  1  0
  5 37  1  0
  7 38  1  0
  8 39  1  0
 14 40  1  0
 19 41  1  6
 20 42  1  0
 20 43  1  0
 21 44  1  0
 21 45  1  0
 23 46  1  0
 23 47  1  0
 24 48  1  0
 24 49  1  0
 25 50  1  0
 25 51  1  0
 26 52  1  0
 26 53  1  0
 31 54  1  1
 32 55  1  0
 32 56  1  0
 33 57  1  0
 33 58  1  0
 35 59  1  0
 35 60  1  0
M  CHG  2   1  -1  27  -1
M  END
>  <UniqueID>  (67) 
67

>  <SMILES>  (67) 
[NH-]C(=O)c1cc2ccc(C(F)(F)F)cc2n1C(=O)[C@H](CCN1CCCC1)[N-]C(=O)O[C@H]1CCOC1

>  <Energy>  (67) 
109.12547225623041

>  <Genealogy>  (67) 
[NH-]C(=O)c1cc2ccc(C(F)(F)F)cc2n1C(=O)[C@H](CCN1CCCC1)[N-]C(=O)OC1CCOC1 (protonated)
[NH-]C(=O)c1cc2ccc(C(F)(F)F)cc2n1C(=O)[C@H](CCN1CCCC1)[N-]C(=O)O[C@H]1CCOC1 (chirality)
[NH-]C(=O)c1cc2ccc(C(F)(F)F)cc2n1C(=O)[C@H](CCN1CCCC1)[N-]C(=O)O[C@H]1CCOC1 (3D coordinates assigned)
[NH-]C(=O)c1cc2ccc(C(F)(F)F)cc2n1C(=O)[C@H](CCN1CCCC1)[N-]C(=O)O[C@H]1CCOC1 (nonaromatic ring conformer: 109.12547225623041 kcal/mol)

>  <smiles>  (67) 
NC(=O)c1cc2ccc(C(F)(F)F)cc2n1C(=O)[C@H](CCN1CCCC1)NC(=O)OC1CCOC1

>  <score_type>  (67) 
oracle

>  <origin>  (67) 
adg

>  <m_score__min__energy>  (67) 
-12.550000000000001

>  <m_primary>  (67) 
energy

$$$$
68:0
     RDKit          3D

 35 36  0  0  0  0  0  0  0  0999 V2000
   -8.3790   17.8840  -32.2210 C   0  0  0  0  0  0  0  0  0  0  0  0
   -7.4190   18.7470  -32.9440 N   0  0  1  0  0  0  0  0  0  0  0  0
   -7.4490   20.1220  -32.4600 C   0  0  0  0  0  0  0  0  0  0  0  0
   -8.6760   20.7840  -32.1580 C   0  0  0  0  0  0  0  0  0  0  0  0
   -8.6870   22.1010  -31.6720 C   0  0  0  0  0  0  0  0  0  0  0  0
   -7.4660   22.7350  -31.4750 C   0  0  0  0  0  0  0  0  0  0  0  0
   -7.1930   24.0100  -31.0370 C   0  0  0  0  0  0  0  0  0  0  0  0
   -5.8030   24.1090  -31.0330 C   0  0  0  0  0  0  0  0  0  0  0  0
   -5.0750   25.2970  -30.5440 C   0  0  0  0  0  0  0  0  0  0  0  0
   -3.6540   25.2940  -30.4360 N   0  0  0  0  0  0  0  0  0  0  0  0
   -5.7190   26.3130  -30.1690 O   0  0  0  0  0  0  0  0  0  0  0  0
   -5.2410   22.9440  -31.4620 N   0  0  0  0  0  0  0  0  0  0  0  0
   -3.8480   22.6760  -31.6920 C   0  0  0  0  0  0  0  0  0  0  0  0
   -3.0170   22.8060  -30.7540 O   0  0  0  0  0  0  0  0  0  0  0  0
   -3.4210   22.2520  -32.9490 O   0  0  0  0  0  0  0  0  0  0  0  0
   -2.0030   20.7750  -33.1910 I   0  0  0  0  0  0  0  0  0  0  0  0
   -6.2730   22.1120  -31.7260 C   0  0  0  0  0  0  0  0  0  0  0  0
   -6.2290   20.8070  -32.2290 C   0  0  0  0  0  0  0  0  0  0  0  0
   -6.0250   18.2200  -32.9910 C   0  0  0  0  0  0  0  0  0  0  0  0
   -5.3490   18.5390  -34.3070 C   0  0  0  0  0  0  0  0  0  0  0  0
   -4.1050   18.4030  -34.4510 O   0  0  0  0  0  0  0  0  0  0  0  0
   -6.1180   18.9390  -35.3920 O   0  0  0  0  0  0  0  0  0  0  0  0
   -5.9120   16.7500  -32.6430 C   0  0  0  0  0  0  0  0  0  0  0  0
   -5.3780   16.3740  -31.5650 O   0  0  0  0  0  0  0  0  0  0  0  0
   -6.3900   15.7960  -33.5320 O   0  0  0  0  0  0  0  0  0  0  0  0
   -8.2400   18.0089  -31.1370 H   0  0  0  0  0  0  0  0  0  0  0  0
   -9.4058   18.1687  -32.4942 H   0  0  0  0  0  0  0  0  0  0  0  0
   -8.2049   16.8328  -32.4942 H   0  0  0  0  0  0  0  0  0  0  0  0
   -7.7670   18.7600  -33.9340 H   0  0  0  0  0  0  0  0  0  0  0  0
   -9.6283   20.2543  -32.3083 H   0  0  0  0  0  0  0  0  0  0  0  0
   -9.6341   22.6160  -31.4535 H   0  0  0  0  0  0  0  0  0  0  0  0
   -7.9178   24.7864  -30.7508 H   0  0  0  0  0  0  0  0  0  0  0  0
   -3.0560   24.9270  -31.2090 H   0  0  0  0  0  0  0  0  0  0  0  0
   -5.2653   20.3211  -32.4414 H   0  0  0  0  0  0  0  0  0  0  0  0
   -5.4835   18.7517  -32.1947 H   0  0  0  0  0  0  0  0  0  0  0  0
  1  2  1  0
  2  3  1  0
  3  4  2  0
  4  5  1  0
  5  6  2  0
  6  7  1  0
  7  8  2  0
  8  9  1  0
  9 10  1  0
  9 11  2  0
  8 12  1  0
 12 13  1  0
 13 14  2  0
 13 15  1  0
 15 16  1  0
 12 17  1  0
 17 18  2  0
  2 19  1  0
 19 20  1  0
 20 21  2  0
 20 22  1  0
 19 23  1  0
 23 24  2  0
 23 25  1  0
 18  3  1  0
 17  6  1  0
  1 26  1  0
  1 27  1  0
  1 28  1  0
  2 29  1  6
  4 30  1  0
  5 31  1  0
  7 32  1  0
 10 33  1  0
 18 34  1  0
 19 35  1  0
M  CHG  4   2   1  10  -1  22  -1  25  -1
M  END
>  <UniqueID>  (68) 
68

>  <SMILES>  (68) 
C[N@@H+](c1ccc2cc(C([NH-])=O)n(C(=O)OI)c2c1)C(C(=O)[O-])C(=O)[O-]

>  <Energy>  (68) 
85.46834165552069

>  <Genealogy>  (68) 
C[NH+](c1ccc2cc(C([NH-])=O)n(C(=O)OI)c2c1)C(C(=O)[O-])C(=O)[O-] (protonated)
C[N@@H+](c1ccc2cc(C([NH-])=O)n(C(=O)OI)c2c1)C(C(=O)[O-])C(=O)[O-] (chirality)
C[N@@H+](c1ccc2cc(C([NH-])=O)n(C(=O)OI)c2c1)C(C(=O)[O-])C(=O)[O-] (3D coordinates assigned)
C[N@@H+](c1ccc2cc(C([NH-])=O)n(C(=O)OI)c2c1)C(C(=O)[O-])C(=O)[O-] (optimized conformer: 85.46834165552069 kcal/mol)

>  <smiles>  (68) 
CN(c1ccc2cc(C(N)=O)n(C(=O)OI)c2c1)C(C(=O)O)C(=O)O

>  <score_type>  (68) 
oracle

>  <origin>  (68) 
adg

>  <m_score__min__energy>  (68) 
-9.9700000000000006

>  <m_primary>  (68) 
energy

$$$$
69:0
     RDKit          3D

 50 52  0  0  0  0  0  0  0  0999 V2000
   -3.5280   26.0420  -31.2150 H   0  0  0  0  0  0  0  0  0  0  0  0
   -3.8650   25.3200  -30.5400 N   0  0  0  0  0  0  0  0  0  0  0  0
   -5.2570   25.1340  -30.2990 C   0  0  0  0  0  0  0  0  0  0  0  0
   -5.9110   26.0500  -29.7310 O   0  0  0  0  0  0  0  0  0  0  0  0
   -5.9480   23.9000  -30.7300 C   0  0  0  0  0  0  0  0  0  0  0  0
   -7.3310   23.7960  -30.8720 C   0  0  0  0  0  0  0  0  0  0  0  0
   -8.0830   24.5698  -30.6584 H   0  0  0  0  0  0  0  0  0  0  0  0
   -7.5560   22.5200  -31.3360 C   0  0  0  0  0  0  0  0  0  0  0  0
   -8.7490   21.8770  -31.6560 C   0  0  0  0  0  0  0  0  0  0  0  0
   -9.7153   22.3938  -31.5601 H   0  0  0  0  0  0  0  0  0  0  0  0
   -8.6800   20.5480  -32.1050 C   0  0  0  0  0  0  0  0  0  0  0  0
   -9.6038   20.0177  -32.3796 H   0  0  0  0  0  0  0  0  0  0  0  0
   -7.4330   19.8830  -32.2080 C   0  0  0  0  0  0  0  0  0  0  0  0
   -7.3670   18.4760  -32.7190 C   0  0  0  0  0  0  0  0  0  0  0  0
   -7.3343   17.7784  -31.8691 H   0  0  0  0  0  0  0  0  0  0  0  0
   -8.2563   18.2663  -33.3315 H   0  0  0  0  0  0  0  0  0  0  0  0
   -6.4620   18.3504  -33.3315 H   0  0  0  0  0  0  0  0  0  0  0  0
   -6.2420   20.5710  -31.8850 C   0  0  0  0  0  0  0  0  0  0  0  0
   -5.2633   20.0757  -31.9679 H   0  0  0  0  0  0  0  0  0  0  0  0
   -6.3410   21.8990  -31.4570 C   0  0  0  0  0  0  0  0  0  0  0  0
   -5.3440   22.7350  -31.0960 N   0  0  0  0  0  0  0  0  0  0  0  0
   -3.9450   22.4130  -31.0360 C   0  0  0  0  0  0  0  0  0  0  0  0
   -3.1150   23.1570  -31.6230 O   0  0  0  0  0  0  0  0  0  0  0  0
   -3.4530   21.2420  -30.2880 C   0  0  0  0  0  0  0  0  0  0  0  0
   -3.6072   20.2394  -30.7135 H   0  0  0  0  0  0  0  0  0  0  0  0
   -2.8270   21.3520  -29.1130 C   0  0  0  0  0  0  0  0  0  0  0  0
   -2.6771   22.3466  -28.6676 H   0  0  0  0  0  0  0  0  0  0  0  0
   -2.3240   20.1290  -28.3910 C   0  0  0  0  0  0  0  0  0  0  0  0
   -2.8136   19.2397  -28.8145 H   0  0  0  0  0  0  0  0  0  0  0  0
   -1.2328   20.0814  -28.5213 H   0  0  0  0  0  0  0  0  0  0  0  0
   -2.6100   20.1870  -26.9400 N   0  0  2  0  0  0  0  0  0  0  0  0
   -3.5500   20.6280  -26.7900 H   0  0  0  0  0  0  0  0  0  0  0  0
   -1.6250   21.0080  -26.2780 C   0  0  0  0  0  0  0  0  0  0  0  0
   -1.2370   20.7200  -25.1100 O   0  0  0  0  0  0  0  0  0  0  0  0
   -1.1040   22.1250  -26.9410 O   0  0  0  0  0  0  0  0  0  0  0  0
   -0.7150   23.3230  -26.2750 C   0  0  0  0  0  0  0  0  0  0  0  0
   -0.9280   23.2269  -25.2001 H   0  0  0  0  0  0  0  0  0  0  0  0
    0.3614   23.4875  -26.4309 H   0  0  0  0  0  0  0  0  0  0  0  0
   -1.4920   24.5190  -26.8410 C   0  0  2  0  0  0  0  0  0  0  0  0
   -1.2381   25.2001  -26.0154 H   0  0  0  0  0  0  0  0  0  0  0  0
   -2.7660   24.1690  -27.6120 C   0  0  0  0  0  0  0  0  0  0  0  0
   -3.0941   23.1218  -27.6868 H   0  0  0  0  0  0  0  0  0  0  0  0
   -3.8160   24.4942  -27.5703 H   0  0  0  0  0  0  0  0  0  0  0  0
   -1.5250   24.6320  -28.3560 C   0  0  0  0  0  0  0  0  0  0  0  0
   -1.5920   25.9150  -28.8670 F   0  0  0  0  0  0  0  0  0  0  0  0
   -0.8780   23.6520  -29.0900 F   0  0  0  0  0  0  0  0  0  0  0  0
   -2.6250   18.8450  -26.3300 C   0  0  0  0  0  0  0  0  0  0  0  0
   -2.6239   18.9403  -25.2341 H   0  0  0  0  0  0  0  0  0  0  0  0
   -3.5292   18.3067  -26.6504 H   0  0  0  0  0  0  0  0  0  0  0  0
   -1.7330   18.2866  -26.6504 H   0  0  0  0  0  0  0  0  0  0  0  0
  1  2  1  0
  2  3  1  0
  3  4  2  0
  3  5  1  0
  5  6  2  0
  6  7  1  0
  6  8  1  0
  8  9  2  0
  9 10  1  0
  9 11  1  0
 11 12  1  0
 11 13  2  0
 13 14  1  0
 14 15  1  0
 14 16  1  0
 14 17  1  0
 13 18  1  0
 18 19  1  0
 18 20  2  0
 20 21  1  0
 21 22  1  0
 22 23  2  0
 22 24  1  0
 24 25  1  0
 24 26  2  0
 26 27  1  0
 26 28  1  0
 28 29  1  0
 28 30  1  0
 28 31  1  0
 31 32  1  6
 31 33  1  0
 33 34  2  0
 33 35  1  0
 35 36  1  0
 36 37  1  0
 36 38  1  0
 36 39  1  0
 39 40  1  1
 39 41  1  0
 41 42  1  0
 41 43  1  0
 41 44  1  0
 44 45  1  0
 44 46  1  0
 31 47  1  0
 47 48  1  0
 47 49  1  0
 47 50  1  0
 21  5  1  0
 44 39  1  0
 20  8  1  0
M  CHG  2   2  -1  31   1
M  END
>  <UniqueID>  (69) 
69

>  <SMILES>  (69) 
Cc1ccc2cc(C([NH-])=O)n(C(=O)/C=C/C[N@@H+](C)C(=O)OC[C@@H]3CC3(F)F)c2c1

>  <Energy>  (69) 
355.7653821360092

>  <Genealogy>  (69) 
Cc1ccc2cc(C([NH-])=O)n(C(=O)/C=C/C[NH+](C)C(=O)OCC3CC3(F)F)c2c1 (protonated)
Cc1ccc2cc(C([NH-])=O)n(C(=O)/C=C/C[N@@H+](C)C(=O)OC[C@@H]3CC3(F)F)c2c1 (chirality)
Cc1ccc2cc(C([NH-])=O)n(C(=O)/C=C/C[N@@H+](C)C(=O)OC[C@@H]3CC3(F)F)c2c1 (cis-trans isomerization)
Cc1ccc2cc(C([NH-])=O)n(C(=O)/C=C/C[N@@H+](C)C(=O)OC[C@@H]3CC3(F)F)c2c1 (3D coordinates assigned)
Cc1ccc2cc(C([NH-])=O)n(C(=O)/C=C/C[N@@H+](C)C(=O)OC[C@@H]3CC3(F)F)c2c1 (nonaromatic ring conformer: 355.7653821360092 kcal/mol)

>  <smiles>  (69) 
Cc1ccc2cc(C(N)=O)n(C(=O)/C=C/CN(C)C(=O)OCC3CC3(F)F)c2c1

>  <score_type>  (69) 
oracle

>  <origin>  (69) 
adg

>  <m_score__min__energy>  (69) 
-11.01

>  <m_primary>  (69) 
energy

$$$$
70:0
     RDKit          3D

 45 46  0  0  0  0  0  0  0  0999 V2000
   -5.9300   23.9470  -31.6120 N   0  0  0  0  0  0  0  0  0  0  0  0
   -6.9730   23.1770  -32.2240 C   0  0  0  0  0  0  0  0  0  0  0  0
   -7.9830   23.7700  -32.6920 O   0  0  0  0  0  0  0  0  0  0  0  0
   -6.8370   21.7110  -32.3670 C   0  0  0  0  0  0  0  0  0  0  0  0
   -7.9080   20.8190  -32.3200 C   0  0  0  0  0  0  0  0  0  0  0  0
   -7.3490   19.5700  -32.4660 C   0  0  0  0  0  0  0  0  0  0  0  0
   -7.9560   18.3190  -32.5170 C   0  0  0  0  0  0  0  0  0  0  0  0
   -7.1370   17.1980  -32.7290 C   0  0  0  0  0  0  0  0  0  0  0  0
   -5.7370   17.3440  -32.9050 C   0  0  0  0  0  0  0  0  0  0  0  0
   -4.8800   16.1180  -33.0960 C   0  0  0  0  0  0  0  0  0  0  0  0
   -3.5640   16.4870  -33.3160 F   0  0  0  0  0  0  0  0  0  0  0  0
   -5.3390   15.4100  -34.1920 F   0  0  0  0  0  0  0  0  0  0  0  0
   -4.9230   15.2950  -31.9830 F   0  0  0  0  0  0  0  0  0  0  0  0
   -5.1530   18.6310  -32.8200 C   0  0  0  0  0  0  0  0  0  0  0  0
   -5.9930   19.7300  -32.5910 C   0  0  0  0  0  0  0  0  0  0  0  0
   -5.6620   21.0380  -32.5210 N   0  0  0  0  0  0  0  0  0  0  0  0
   -4.3490   21.5960  -32.6840 C   0  0  0  0  0  0  0  0  0  0  0  0
   -3.8620   21.7380  -33.8410 O   0  0  0  0  0  0  0  0  0  0  0  0
   -3.6260   22.0100  -31.5590 O   0  0  0  0  0  0  0  0  0  0  0  0
   -3.4140   21.1780  -30.4180 C   0  0  0  0  0  0  0  0  0  0  0  0
   -3.8180   21.8860  -29.1600 C   0  0  0  0  0  0  0  0  0  0  0  0
   -3.3310   21.5220  -28.0570 O   0  0  0  0  0  0  0  0  0  0  0  0
   -4.7460   22.9320  -29.2180 O   0  0  0  0  0  0  0  0  0  0  0  0
   -4.4760   24.2440  -28.7520 C   0  0  0  0  0  0  0  0  0  0  0  0
   -3.5580   24.9190  -29.7190 C   0  0  0  0  0  0  0  0  0  0  0  0
   -3.9810   25.2650  -30.8580 O   0  0  0  0  0  0  0  0  0  0  0  0
   -2.2180   25.2330  -29.3220 N   0  0  0  0  0  0  0  0  0  0  0  0
   -1.4350   24.4000  -28.4130 C   0  0  0  0  0  0  0  0  0  0  0  0
   -0.7930   23.2270  -29.1620 C   0  0  0  0  0  0  0  0  0  0  0  0
   -1.3330   23.1310  -30.4500 O   0  0  0  0  0  0  0  0  0  0  0  0
   -5.1300   23.4850  -31.1250 H   0  0  0  0  0  0  0  0  0  0  0  0
   -6.0150   24.9850  -31.5480 H   0  0  0  0  0  0  0  0  0  0  0  0
   -8.9733   21.0621  -32.1932 H   0  0  0  0  0  0  0  0  0  0  0  0
   -9.0439   18.2113  -32.3950 H   0  0  0  0  0  0  0  0  0  0  0  0
   -7.5866   16.1945  -32.7589 H   0  0  0  0  0  0  0  0  0  0  0  0
   -4.0669   18.7654  -32.9309 H   0  0  0  0  0  0  0  0  0  0  0  0
   -4.0127   20.2613  -30.5240 H   0  0  0  0  0  0  0  0  0  0  0  0
   -2.3438   20.9315  -30.3555 H   0  0  0  0  0  0  0  0  0  0  0  0
   -5.4159   24.8106  -28.6774 H   0  0  0  0  0  0  0  0  0  0  0  0
   -4.0050   24.1984  -27.7590 H   0  0  0  0  0  0  0  0  0  0  0  0
   -0.6434   25.0117  -27.9556 H   0  0  0  0  0  0  0  0  0  0  0  0
   -2.1055   23.9980  -27.6391 H   0  0  0  0  0  0  0  0  0  0  0  0
    0.2926   23.3899  -29.2329 H   0  0  0  0  0  0  0  0  0  0  0  0
   -0.9942   22.2943  -28.6146 H   0  0  0  0  0  0  0  0  0  0  0  0
   -2.3020   23.3240  -30.3590 H   0  0  0  0  0  0  0  0  0  0  0  0
  1  2  1  0
  2  3  2  0
  2  4  1  0
  4  5  2  0
  5  6  1  0
  6  7  2  0
  7  8  1  0
  8  9  2  0
  9 10  1  0
 10 11  1  0
 10 12  1  0
 10 13  1  0
  9 14  1  0
 14 15  2  0
 15 16  1  0
 16 17  1  0
 17 18  2  0
 17 19  1  0
 19 20  1  0
 20 21  1  0
 21 22  2  0
 21 23  1  0
 23 24  1  0
 24 25  1  0
 25 26  2  0
 25 27  1  0
 27 28  1  0
 28 29  1  0
 29 30  1  0
 16  4  1  0
 15  6  1  0
  1 31  1  0
  1 32  1  0
  5 33  1  0
  7 34  1  0
  8 35  1  0
 14 36  1  0
 20 37  1  0
 20 38  1  0
 24 39  1  0
 24 40  1  0
 28 41  1  0
 28 42  1  0
 29 43  1  0
 29 44  1  0
 30 45  1  0
M  CHG  1  27  -1
M  END
>  <UniqueID>  (70) 
70

>  <SMILES>  (70) 
NC(=O)c1cc2ccc(C(F)(F)F)cc2n1C(=O)OCC(=O)OCC(=O)[N-]CCO

>  <Energy>  (70) 
71.80285128705668

>  <Genealogy>  (70) 
NC(=O)c1cc2ccc(C(F)(F)F)cc2n1C(=O)OCC(=O)OCC(=O)[N-]CCO (protonated)
NC(=O)c1cc2ccc(C(F)(F)F)cc2n1C(=O)OCC(=O)OCC(=O)[N-]CCO (3D coordinates assigned)
NC(=O)c1cc2ccc(C(F)(F)F)cc2n1C(=O)OCC(=O)OCC(=O)[N-]CCO (optimized conformer: 71.80285128705668 kcal/mol)

>  <smiles>  (70) 
NC(=O)c1cc2ccc(C(F)(F)F)cc2n1C(=O)OCC(=O)OCC(=O)NCCO

>  <score_type>  (70) 
oracle

>  <origin>  (70) 
adg

>  <m_score__min__energy>  (70) 
-9.4600000000000009

>  <m_primary>  (70) 
energy

$$$$
71:0
     RDKit          3D

 51 52  0  0  0  0  0  0  0  0999 V2000
   -7.4460   18.5460  -32.5570 C   0  0  0  0  0  0  0  0  0  0  0  0
   -7.4570   19.9360  -31.9950 C   0  0  0  0  0  0  0  0  0  0  0  0
   -8.6540   20.4950  -31.4800 C   0  0  0  0  0  0  0  0  0  0  0  0
   -8.6740   21.8070  -30.9750 C   0  0  0  0  0  0  0  0  0  0  0  0
   -7.4860   22.5330  -31.0020 C   0  0  0  0  0  0  0  0  0  0  0  0
   -7.2250   23.8280  -30.6100 C   0  0  0  0  0  0  0  0  0  0  0  0
   -5.8760   24.0350  -30.8960 C   0  0  0  0  0  0  0  0  0  0  0  0
   -5.1510   25.2890  -30.6070 C   0  0  0  0  0  0  0  0  0  0  0  0
   -3.7260   25.2940  -30.5650 N   0  0  0  0  0  0  0  0  0  0  0  0
   -5.7790   26.3640  -30.4180 O   0  0  0  0  0  0  0  0  0  0  0  0
   -5.3290   22.9130  -31.4380 N   0  0  0  0  0  0  0  0  0  0  0  0
   -4.0040   22.7430  -31.9560 C   0  0  0  0  0  0  0  0  0  0  0  0
   -3.0190   23.1740  -31.3020 O   0  0  0  0  0  0  0  0  0  0  0  0
   -3.7830   21.9460  -33.2050 C   0  0  0  0  0  0  0  0  0  0  0  0
   -2.8730   20.8000  -32.9040 C   0  0  0  0  0  0  0  0  0  0  0  0
   -3.0580   19.6840  -33.4610 O   0  0  0  0  0  0  0  0  0  0  0  0
   -1.8390   20.9600  -31.9300 N   0  0  0  0  0  0  0  0  0  0  0  0
   -1.9370   20.4280  -30.5780 C   0  0  0  0  0  0  0  0  0  0  0  0
   -1.6670   21.5310  -29.5520 C   0  0  0  0  0  0  0  0  0  0  0  0
   -2.8210   21.6820  -28.5550 C   0  0  0  0  0  0  0  0  0  0  0  0
   -3.4880   22.9730  -28.7630 N   0  0  0  0  0  0  0  0  0  0  0  0
   -3.7060   23.7110  -27.5060 C   0  0  0  0  0  0  0  0  0  0  0  0
   -2.7600   24.9140  -27.3010 C   0  0  0  0  0  0  0  0  0  0  0  0
   -1.4000   24.7620  -27.9900 C   0  0  0  0  0  0  0  0  0  0  0  0
   -1.5000   25.1040  -29.3440 O   0  0  0  0  0  0  0  0  0  0  0  0
   -6.3240   22.0040  -31.4970 C   0  0  0  0  0  0  0  0  0  0  0  0
   -6.2730   20.7040  -32.0110 C   0  0  0  0  0  0  0  0  0  0  0  0
   -7.4402   17.8174  -31.7330 H   0  0  0  0  0  0  0  0  0  0  0  0
   -8.3430   18.3933  -33.1752 H   0  0  0  0  0  0  0  0  0  0  0  0
   -6.5467   18.4075  -33.1752 H   0  0  0  0  0  0  0  0  0  0  0  0
   -9.5766   19.8960  -31.4755 H   0  0  0  0  0  0  0  0  0  0  0  0
   -9.5984   22.2459  -30.5715 H   0  0  0  0  0  0  0  0  0  0  0  0
   -7.9306   24.5457  -30.1660 H   0  0  0  0  0  0  0  0  0  0  0  0
   -3.2100   24.7670  -29.8270 H   0  0  0  0  0  0  0  0  0  0  0  0
   -4.7467   21.5635  -33.5723 H   0  0  0  0  0  0  0  0  0  0  0  0
   -3.3278   22.5860  -33.9752 H   0  0  0  0  0  0  0  0  0  0  0  0
   -2.9479   20.0244  -30.4193 H   0  0  0  0  0  0  0  0  0  0  0  0
   -1.1890   19.6314  -30.4520 H   0  0  0  0  0  0  0  0  0  0  0  0
   -0.7492   21.2841  -28.9983 H   0  0  0  0  0  0  0  0  0  0  0  0
   -1.5603   22.4817  -30.0950 H   0  0  0  0  0  0  0  0  0  0  0  0
   -3.5447   20.8677  -28.7071 H   0  0  0  0  0  0  0  0  0  0  0  0
   -2.4251   21.6372  -27.5297 H   0  0  0  0  0  0  0  0  0  0  0  0
   -2.9250   23.5560  -29.4250 H   0  0  0  0  0  0  0  0  0  0  0  0
   -4.7414   24.0825  -27.5002 H   0  0  0  0  0  0  0  0  0  0  0  0
   -3.4992   23.0057  -26.6876 H   0  0  0  0  0  0  0  0  0  0  0  0
   -3.2519   25.8129  -27.7011 H   0  0  0  0  0  0  0  0  0  0  0  0
   -2.5635   24.9838  -26.2210 H   0  0  0  0  0  0  0  0  0  0  0  0
   -0.6698   25.4240  -27.5015 H   0  0  0  0  0  0  0  0  0  0  0  0
   -1.0729   23.7149  -27.9088 H   0  0  0  0  0  0  0  0  0  0  0  0
   -1.9970   24.3630  -29.7800 H   0  0  0  0  0  0  0  0  0  0  0  0
   -5.3369   20.2921  -32.4161 H   0  0  0  0  0  0  0  0  0  0  0  0
  1  2  1  0
  2  3  2  0
  3  4  1  0
  4  5  2  0
  5  6  1  0
  6  7  2  0
  7  8  1  0
  8  9  1  0
  8 10  2  0
  7 11  1  0
 11 12  1  0
 12 13  2  0
 12 14  1  0
 14 15  1  0
 15 16  2  0
 15 17  1  0
 17 18  1  0
 18 19  1  0
 19 20  1  0
 20 21  1  0
 21 22  1  0
 22 23  1  0
 23 24  1  0
 24 25  1  0
 11 26  1  0
 26 27  2  0
 27  2  1  0
 26  5  1  0
  1 28  1  0
  1 29  1  0
  1 30  1  0
  3 31  1  0
  4 32  1  0
  6 33  1  0
  9 34  1  0
 14 35  1  0
 14 36  1  0
 18 37  1  0
 18 38  1  0
 19 39  1  0
 19 40  1  0
 20 41  1  0
 20 42  1  0
 21 43  1  0
 22 44  1  0
 22 45  1  0
 23 46  1  0
 23 47  1  0
 24 48  1  0
 24 49  1  0
 25 50  1  0
 27 51  1  0
M  CHG  2   9  -1  17  -1
M  END
>  <UniqueID>  (71) 
71

>  <SMILES>  (71) 
Cc1ccc2cc(C([NH-])=O)n(C(=O)CC(=O)[N-]CCCNCCCO)c2c1

>  <Energy>  (71) 
74.99232128791476

>  <Genealogy>  (71) 
Cc1ccc2cc(C([NH-])=O)n(C(=O)CC(=O)[N-]CCCNCCCO)c2c1 (protonated)
Cc1ccc2cc(C([NH-])=O)n(C(=O)CC(=O)[N-]CCCNCCCO)c2c1 (3D coordinates assigned)
Cc1ccc2cc(C([NH-])=O)n(C(=O)CC(=O)[N-]CCCNCCCO)c2c1 (optimized conformer: 74.99232128791476 kcal/mol)

>  <smiles>  (71) 
Cc1ccc2cc(C(N)=O)n(C(=O)CC(=O)NCCCNCCCO)c2c1

>  <score_type>  (71) 
oracle

>  <origin>  (71) 
adg

>  <m_score__min__energy>  (71) 
-9.8000000000000007

>  <m_primary>  (71) 
energy

$$$$
72:0
     RDKit          3D

 41 43  0  0  0  0  0  0  0  0999 V2000
   -6.8250   17.4110  -33.4860 C   0  0  0  0  0  0  0  0  0  0  0  0
   -6.9420   18.5310  -33.0580 C   0  0  0  0  0  0  0  0  0  0  0  0
   -7.0810   19.8700  -32.5490 C   0  0  0  0  0  0  0  0  0  0  0  0
   -8.3620   20.4630  -32.4650 C   0  0  0  0  0  0  0  0  0  0  0  0
   -8.5120   21.7670  -31.9590 C   0  0  0  0  0  0  0  0  0  0  0  0
   -7.3640   22.4450  -31.5560 C   0  0  0  0  0  0  0  0  0  0  0  0
   -7.2220   23.7010  -31.0080 C   0  0  0  0  0  0  0  0  0  0  0  0
   -5.8530   23.8530  -30.7850 C   0  0  0  0  0  0  0  0  0  0  0  0
   -5.2420   25.0870  -30.2470 C   0  0  0  0  0  0  0  0  0  0  0  0
   -4.0810   25.6550  -30.8480 N   0  0  0  0  0  0  0  0  0  0  0  0
   -5.7700   25.6650  -29.2590 O   0  0  0  0  0  0  0  0  0  0  0  0
   -5.1800   22.7370  -31.1810 N   0  0  0  0  0  0  0  0  0  0  0  0
   -3.7760   22.4670  -31.0530 C   0  0  0  0  0  0  0  0  0  0  0  0
   -3.0020   22.7420  -32.0100 O   0  0  0  0  0  0  0  0  0  0  0  0
   -3.2400   21.8590  -29.8200 C   0  0  0  0  0  0  0  0  0  0  0  0
   -2.4010   20.9210  -29.9150 O   0  0  0  0  0  0  0  0  0  0  0  0
   -3.6190   22.3990  -28.4560 C   0  0  1  0  0  0  0  0  0  0  0  0
   -2.7570   21.7980  -27.3430 C   0  0  0  0  0  0  0  0  0  0  0  0
   -1.6110   22.7780  -27.0960 C   0  0  0  0  0  0  0  0  0  0  0  0
   -1.9360   24.0570  -27.8660 C   0  0  0  0  0  0  0  0  0  0  0  0
   -3.3700   23.9130  -28.3860 C   0  0  2  0  0  0  0  0  0  0  0  0
   -4.3250   24.5610  -27.4760 N   0  0  0  0  0  0  0  0  0  0  0  0
   -6.1170   21.8840  -31.6470 C   0  0  0  0  0  0  0  0  0  0  0  0
   -5.9400   20.5830  -32.1300 C   0  0  0  0  0  0  0  0  0  0  0  0
   -6.7182   16.3883  -33.8768 H   0  0  0  0  0  0  0  0  0  0  0  0
   -9.2471   19.9009  -32.7975 H   0  0  0  0  0  0  0  0  0  0  0  0
   -9.5041   22.2362  -31.8840 H   0  0  0  0  0  0  0  0  0  0  0  0
   -8.0181   24.4288  -30.7923 H   0  0  0  0  0  0  0  0  0  0  0  0
   -3.1280   25.2970  -30.6200 H   0  0  0  0  0  0  0  0  0  0  0  0
   -4.6795   22.1417  -28.3173 H   0  0  0  0  0  0  0  0  0  0  0  0
   -3.3534   21.6738  -26.4271 H   0  0  0  0  0  0  0  0  0  0  0  0
   -2.3749   20.8073  -27.6304 H   0  0  0  0  0  0  0  0  0  0  0  0
   -1.5269   22.9963  -26.0212 H   0  0  0  0  0  0  0  0  0  0  0  0
   -0.6541   22.3524  -27.4323 H   0  0  0  0  0  0  0  0  0  0  0  0
   -1.8614   24.9288  -27.1994 H   0  0  0  0  0  0  0  0  0  0  0  0
   -1.2299   24.2062  -28.6962 H   0  0  0  0  0  0  0  0  0  0  0  0
   -3.5030   24.3965  -29.3651 H   0  0  0  0  0  0  0  0  0  0  0  0
   -4.0600   24.3590  -26.4850 H   0  0  0  0  0  0  0  0  0  0  0  0
   -5.2980   24.2180  -27.6470 H   0  0  0  0  0  0  0  0  0  0  0  0
   -4.2940   25.5980  -27.6140 H   0  0  0  0  0  0  0  0  0  0  0  0
   -4.9391   20.1297  -32.1812 H   0  0  0  0  0  0  0  0  0  0  0  0
  1  2  3  0
  2  3  1  0
  3  4  2  0
  4  5  1  0
  5  6  2  0
  6  7  1  0
  7  8  2  0
  8  9  1  0
  9 10  1  0
  9 11  2  0
  8 12  1  0
 12 13  1  0
 13 14  2  0
 13 15  1  0
 15 16  2  0
 15 17  1  0
 17 18  1  0
 18 19  1  0
 19 20  1  0
 20 21  1  0
 21 22  1  0
 12 23  1  0
 23 24  2  0
 24  3  1  0
 23  6  1  0
 21 17  1  0
  1 25  1  0
  4 26  1  0
  5 27  1  0
  7 28  1  0
 10 29  1  0
 17 30  1  1
 18 31  1  0
 18 32  1  0
 19 33  1  0
 19 34  1  0
 20 35  1  0
 20 36  1  0
 21 37  1  6
 22 38  1  0
 22 39  1  0
 22 40  1  0
 24 41  1  0
M  CHG  2  10  -1  22   1
M  END
>  <UniqueID>  (72) 
72

>  <SMILES>  (72) 
C#Cc1ccc2cc(C([NH-])=O)n(C(=O)C(=O)[C@H]3CCC[C@@H]3[NH3+])c2c1

>  <Energy>  (72) 
81.41594303634102

>  <Genealogy>  (72) 
C#Cc1ccc2cc(C([NH-])=O)n(C(=O)C(=O)C3CCCC3[NH3+])c2c1 (protonated)
C#Cc1ccc2cc(C([NH-])=O)n(C(=O)C(=O)[C@H]3CCC[C@@H]3[NH3+])c2c1 (chirality)
C#Cc1ccc2cc(C([NH-])=O)n(C(=O)C(=O)[C@H]3CCC[C@@H]3[NH3+])c2c1 (3D coordinates assigned)
C#Cc1ccc2cc(C([NH-])=O)n(C(=O)C(=O)[C@H]3CCC[C@@H]3[NH3+])c2c1 (nonaromatic ring conformer: 81.41594303634102 kcal/mol)

>  <smiles>  (72) 
C#Cc1ccc2cc(C(N)=O)n(C(=O)C(=O)C3CCCC3N)c2c1

>  <score_type>  (72) 
oracle

>  <origin>  (72) 
adg

>  <m_score__min__energy>  (72) 
-11.369999999999999

>  <m_primary>  (72) 
energy

$$$$
73:0
     RDKit          3D

 55 56  0  0  0  0  0  0  0  0999 V2000
   -9.9140   21.1450  -31.9740 C   0  0  0  0  0  0  0  0  0  0  0  0
   -8.8050   20.3050  -32.4560 N   0  0  0  0  0  0  0  0  0  0  0  0
   -9.0130   18.9170  -32.0080 C   0  0  0  0  0  0  0  0  0  0  0  0
   -7.5180   20.8410  -31.9600 C   0  0  0  0  0  0  0  0  0  0  0  0
   -7.4440   22.3660  -32.1360 C   0  0  0  0  0  0  0  0  0  0  0  0
   -6.6790   22.9820  -31.0390 N   0  0  0  0  0  0  0  0  0  0  0  0
   -7.2440   22.9580  -29.6870 C   0  0  0  0  0  0  0  0  0  0  0  0
   -5.4420   23.7020  -31.2530 C   0  0  0  0  0  0  0  0  0  0  0  0
   -4.9810   23.8010  -32.4250 O   0  0  0  0  0  0  0  0  0  0  0  0
   -4.6820   24.3660  -30.1280 C   0  0  2  0  0  0  0  0  0  0  0  0
   -3.8840   25.4030  -30.6370 O   0  0  0  0  0  0  0  0  0  0  0  0
   -3.7970   23.3560  -29.4390 C   0  0  0  0  0  0  0  0  0  0  0  0
   -3.9470   23.1440  -28.2040 O   0  0  0  0  0  0  0  0  0  0  0  0
   -2.7300   22.6940  -30.1430 N   0  0  0  0  0  0  0  0  0  0  0  0
   -1.3920   22.9370  -30.0390 C   0  0  0  0  0  0  0  0  0  0  0  0
   -0.7450   23.9550  -29.1810 C   0  0  0  0  0  0  0  0  0  0  0  0
   -1.2490   25.2870  -29.0740 N   0  0  0  0  0  0  0  0  0  0  0  0
    0.3050   23.6510  -28.5560 O   0  0  0  0  0  0  0  0  0  0  0  0
   -0.6710   22.0470  -30.8300 C   0  0  0  0  0  0  0  0  0  0  0  0
   -1.6120   21.2380  -31.4200 C   0  0  0  0  0  0  0  0  0  0  0  0
   -1.4440   20.1560  -32.2740 C   0  0  0  0  0  0  0  0  0  0  0  0
   -2.5870   19.4460  -32.6740 C   0  0  0  0  0  0  0  0  0  0  0  0
   -3.8780   19.8040  -32.1910 C   0  0  0  0  0  0  0  0  0  0  0  0
   -5.0520   19.0480  -32.5870 N   0  0  0  0  0  0  0  0  0  0  0  0
   -5.7220   18.1560  -31.6330 C   0  0  0  0  0  0  0  0  0  0  0  0
   -5.5850   19.1590  -33.9500 C   0  0  0  0  0  0  0  0  0  0  0  0
   -3.9950   20.9080  -31.3090 C   0  0  0  0  0  0  0  0  0  0  0  0
   -2.8440   21.6310  -30.9730 C   0  0  0  0  0  0  0  0  0  0  0  0
   -9.9195   21.1492  -30.8740 H   0  0  0  0  0  0  0  0  0  0  0  0
   -9.7832   22.1726  -32.3439 H   0  0  0  0  0  0  0  0  0  0  0  0
  -10.8678   20.7407  -32.3439 H   0  0  0  0  0  0  0  0  0  0  0  0
   -9.0180   18.8834  -30.9085 H   0  0  0  0  0  0  0  0  0  0  0  0
   -9.9764   18.5487  -32.3905 H   0  0  0  0  0  0  0  0  0  0  0  0
   -8.1999   18.2825  -32.3905 H   0  0  0  0  0  0  0  0  0  0  0  0
   -7.4163   20.5981  -30.8920 H   0  0  0  0  0  0  0  0  0  0  0  0
   -6.7040   20.3841  -32.5419 H   0  0  0  0  0  0  0  0  0  0  0  0
   -6.9514   22.5952  -33.0924 H   0  0  0  0  0  0  0  0  0  0  0  0
   -8.4661   22.7724  -32.1249 H   0  0  0  0  0  0  0  0  0  0  0  0
   -6.4295   22.9926  -28.9485 H   0  0  0  0  0  0  0  0  0  0  0  0
   -7.9014   23.8290  -29.5488 H   0  0  0  0  0  0  0  0  0  0  0  0
   -7.8252   22.0344  -29.5488 H   0  0  0  0  0  0  0  0  0  0  0  0
   -5.4046   24.7760  -29.4070 H   0  0  0  0  0  0  0  0  0  0  0  0
   -4.1670   25.5530  -31.5770 H   0  0  0  0  0  0  0  0  0  0  0  0
   -0.8040   25.9620  -28.4140 H   0  0  0  0  0  0  0  0  0  0  0  0
   -1.9860   25.6440  -29.7170 H   0  0  0  0  0  0  0  0  0  0  0  0
    0.4208   22.0011  -30.9561 H   0  0  0  0  0  0  0  0  0  0  0  0
   -0.4440   19.8637  -32.6269 H   0  0  0  0  0  0  0  0  0  0  0  0
   -2.4840   18.6009  -33.3706 H   0  0  0  0  0  0  0  0  0  0  0  0
   -5.4846   18.4721  -30.6065 H   0  0  0  0  0  0  0  0  0  0  0  0
   -6.8099   18.2031  -31.7888 H   0  0  0  0  0  0  0  0  0  0  0  0
   -5.3736   17.1243  -31.7888 H   0  0  0  0  0  0  0  0  0  0  0  0
   -6.6610   19.3831  -33.9058 H   0  0  0  0  0  0  0  0  0  0  0  0
   -5.0636   19.9678  -34.4829 H   0  0  0  0  0  0  0  0  0  0  0  0
   -5.4298   18.2093  -34.4829 H   0  0  0  0  0  0  0  0  0  0  0  0
   -4.9740   21.1918  -30.8955 H   0  0  0  0  0  0  0  0  0  0  0  0
  1  2  1  0
  2  3  1  0
  2  4  1  0
  4  5  1  0
  5  6  1  0
  6  7  1  0
  6  8  1  0
  8  9  2  0
  8 10  1  0
 10 11  1  0
 10 12  1  0
 12 13  2  0
 12 14  1  0
 14 15  1  0
 15 16  1  0
 16 17  1  0
 16 18  2  0
 15 19  2  0
 19 20  1  0
 20 21  2  0
 21 22  1  0
 22 23  2  0
 23 24  1  0
 24 25  1  0
 24 26  1  0
 23 27  1  0
 27 28  2  0
 28 14  1  0
 28 20  1  0
  1 29  1  0
  1 30  1  0
  1 31  1  0
  3 32  1  0
  3 33  1  0
  3 34  1  0
  4 35  1  0
  4 36  1  0
  5 37  1  0
  5 38  1  0
  7 39  1  0
  7 40  1  0
  7 41  1  0
 10 42  1  1
 11 43  1  0
 17 44  1  0
 17 45  1  0
 19 46  1  0
 21 47  1  0
 22 48  1  0
 25 49  1  0
 25 50  1  0
 25 51  1  0
 26 52  1  0
 26 53  1  0
 26 54  1  0
 27 55  1  0
M  END
>  <UniqueID>  (73) 
73

>  <SMILES>  (73) 
CN(C)CCN(C)C(=O)[C@H](O)C(=O)n1c(C(N)=O)cc2ccc(N(C)C)cc21

>  <Energy>  (73) 
90.99496054897833

>  <Genealogy>  (73) 
CN(C)CCN(C)C(=O)[C@H](O)C(=O)n1c(C(N)=O)cc2ccc(N(C)C)cc21 (chirality)
CN(C)CCN(C)C(=O)[C@H](O)C(=O)n1c(C(N)=O)cc2ccc(N(C)C)cc21 (3D coordinates assigned)
CN(C)CCN(C)C(=O)[C@H](O)C(=O)n1c(C(N)=O)cc2ccc(N(C)C)cc21 (optimized conformer: 90.99496054897833 kcal/mol)

>  <smiles>  (73) 
CN(C)CCN(C)C(=O)C(O)C(=O)n1c(C(N)=O)cc2ccc(N(C)C)cc21

>  <score_type>  (73) 
oracle

>  <origin>  (73) 
adg

>  <m_score__min__energy>  (73) 
-8.9100000000000001

>  <m_primary>  (73) 
energy

$$$$
74:0
     RDKit          3D

 40 41  0  0  0  0  0  0  0  0999 V2000
   -1.2690   21.6530  -26.8350 C   0  0  0  0  0  0  0  0  0  0  0  0
   -1.7540   22.5840  -27.8610 N   0  0  0  0  0  0  0  0  0  0  0  0
   -2.0680   23.9700  -27.4820 C   0  0  0  0  0  0  0  0  0  0  0  0
   -1.3450   24.9350  -28.3700 C   0  0  0  0  0  0  0  0  0  0  0  0
   -1.9670   25.5540  -29.2730 O   0  0  0  0  0  0  0  0  0  0  0  0
    0.0100   25.1730  -28.1800 O   0  0  0  0  0  0  0  0  0  0  0  0
   -1.9250   22.1040  -29.2140 C   0  0  0  0  0  0  0  0  0  0  0  0
   -0.9520   22.1560  -30.0140 O   0  0  0  0  0  0  0  0  0  0  0  0
   -3.2630   21.5970  -29.7020 C   0  0  0  0  0  0  0  0  0  0  0  0
   -3.8650   22.4380  -30.7980 C   0  0  0  0  0  0  0  0  0  0  0  0
   -3.1070   22.9820  -31.6480 O   0  0  0  0  0  0  0  0  0  0  0  0
   -5.2910   22.5920  -30.9210 N   0  0  0  0  0  0  0  0  0  0  0  0
   -6.0100   23.7330  -30.7220 C   0  0  0  0  0  0  0  0  0  0  0  0
   -5.4770   25.0050  -30.1940 C   0  0  0  0  0  0  0  0  0  0  0  0
   -4.2060   25.5010  -30.6110 N   0  0  0  0  0  0  0  0  0  0  0  0
   -6.1320   25.6370  -29.3230 O   0  0  0  0  0  0  0  0  0  0  0  0
   -7.3420   23.5490  -31.0750 C   0  0  0  0  0  0  0  0  0  0  0  0
   -7.4250   22.2450  -31.5020 C   0  0  0  0  0  0  0  0  0  0  0  0
   -8.5190   21.5360  -31.9890 C   0  0  0  0  0  0  0  0  0  0  0  0
   -8.3110   20.2130  -32.4120 C   0  0  0  0  0  0  0  0  0  0  0  0
   -7.0170   19.6360  -32.3770 C   0  0  0  0  0  0  0  0  0  0  0  0
   -6.8100   18.2050  -32.8080 C   0  0  0  0  0  0  0  0  0  0  0  0
   -5.7850   17.6190  -32.0860 F   0  0  0  0  0  0  0  0  0  0  0  0
   -6.4880   18.1770  -34.1510 F   0  0  0  0  0  0  0  0  0  0  0  0
   -7.9610   17.4630  -32.6040 F   0  0  0  0  0  0  0  0  0  0  0  0
   -5.9340   20.3840  -31.8570 C   0  0  0  0  0  0  0  0  0  0  0  0
   -6.1750   21.6890  -31.4100 C   0  0  0  0  0  0  0  0  0  0  0  0
   -1.4828   22.0633  -25.8370 H   0  0  0  0  0  0  0  0  0  0  0  0
   -1.7769   20.6840  -26.9495 H   0  0  0  0  0  0  0  0  0  0  0  0
   -0.1839   21.5139  -26.9495 H   0  0  0  0  0  0  0  0  0  0  0  0
   -3.1516   24.1340  -27.5761 H   0  0  0  0  0  0  0  0  0  0  0  0
   -1.7474   24.1352  -26.4428 H   0  0  0  0  0  0  0  0  0  0  0  0
   -3.1290   20.5738  -30.0829 H   0  0  0  0  0  0  0  0  0  0  0  0
   -3.9544   21.6388  -28.8474 H   0  0  0  0  0  0  0  0  0  0  0  0
   -3.8680   26.4290  -30.2740 H   0  0  0  0  0  0  0  0  0  0  0  0
   -3.5550   24.9010  -31.1620 H   0  0  0  0  0  0  0  0  0  0  0  0
   -8.1550   24.2882  -31.0236 H   0  0  0  0  0  0  0  0  0  0  0  0
   -9.5161   21.9976  -32.0410 H   0  0  0  0  0  0  0  0  0  0  0  0
   -9.1621   19.6179  -32.7746 H   0  0  0  0  0  0  0  0  0  0  0  0
   -4.9247   19.9497  -31.8051 H   0  0  0  0  0  0  0  0  0  0  0  0
  1  2  1  0
  2  3  1  0
  3  4  1  0
  4  5  2  0
  4  6  1  0
  2  7  1  0
  7  8  2  0
  7  9  1  0
  9 10  1  0
 10 11  2  0
 10 12  1  0
 12 13  1  0
 13 14  1  0
 14 15  1  0
 14 16  2  0
 13 17  2  0
 17 18  1  0
 18 19  2  0
 19 20  1  0
 20 21  2  0
 21 22  1  0
 22 23  1  0
 22 24  1  0
 22 25  1  0
 21 26  1  0
 26 27  2  0
 27 12  1  0
 27 18  1  0
  1 28  1  0
  1 29  1  0
  1 30  1  0
  3 31  1  0
  3 32  1  0
  9 33  1  0
  9 34  1  0
 15 35  1  0
 15 36  1  0
 17 37  1  0
 19 38  1  0
 20 39  1  0
 26 40  1  0
M  CHG  1   6  -1
M  END
>  <UniqueID>  (74) 
74

>  <SMILES>  (74) 
CN(CC(=O)[O-])C(=O)CC(=O)n1c(C(N)=O)cc2ccc(C(F)(F)F)cc21

>  <Energy>  (74) 
79.22674917181358

>  <Genealogy>  (74) 
CN(CC(=O)[O-])C(=O)CC(=O)n1c(C(N)=O)cc2ccc(C(F)(F)F)cc21 (protonated)
CN(CC(=O)[O-])C(=O)CC(=O)n1c(C(N)=O)cc2ccc(C(F)(F)F)cc21 (3D coordinates assigned)
CN(CC(=O)[O-])C(=O)CC(=O)n1c(C(N)=O)cc2ccc(C(F)(F)F)cc21 (optimized conformer: 79.22674917181358 kcal/mol)

>  <smiles>  (74) 
CN(CC(=O)O)C(=O)CC(=O)n1c(C(N)=O)cc2ccc(C(F)(F)F)cc21

>  <score_type>  (74) 
oracle

>  <origin>  (74) 
adg

>  <m_score__min__energy>  (74) 
-10.640000000000001

>  <m_primary>  (74) 
energy

$$$$
75:0
     RDKit          3D

 53 56  0  0  0  0  0  0  0  0999 V2000
    0.0580   19.2420  -27.1200 N   0  0  0  0  0  0  0  0  0  0  0  0
    0.5840   19.8690  -28.2870 C   0  0  0  0  0  0  0  0  0  0  0  0
    1.7940   20.2200  -28.3070 O   0  0  0  0  0  0  0  0  0  0  0  0
   -0.2820   20.1690  -29.4460 C   0  0  0  0  0  0  0  0  0  0  0  0
    0.1670   20.1350  -30.7640 C   0  0  0  0  0  0  0  0  0  0  0  0
   -0.8960   20.5710  -31.5220 C   0  0  0  0  0  0  0  0  0  0  0  0
   -1.0050   20.7310  -32.8980 C   0  0  0  0  0  0  0  0  0  0  0  0
   -2.2310   21.1780  -33.4160 C   0  0  0  0  0  0  0  0  0  0  0  0
   -3.3290   21.4570  -32.5560 C   0  0  0  0  0  0  0  0  0  0  0  0
   -4.6110   21.9010  -33.0520 N   0  0  0  0  0  0  0  0  0  0  0  0
   -5.8730   21.1460  -33.0450 C   0  0  0  0  0  0  0  0  0  0  0  0
   -6.8860   21.7240  -32.0170 C   0  0  0  0  0  0  0  0  0  0  0  0
   -7.6580   20.6500  -31.2310 C   0  0  0  0  0  0  0  0  0  0  0  0
   -8.0390   19.4730  -32.1430 C   0  0  0  0  0  0  0  0  0  0  0  0
   -6.9460   18.8500  -33.0370 C   0  0  0  0  0  0  0  0  0  0  0  0
   -5.6280   19.6270  -32.9150 C   0  0  0  0  0  0  0  0  0  0  0  0
   -9.0890   18.5150  -31.5940 C   0  0  0  0  0  0  0  0  0  0  0  0
   -9.4560   19.4820  -32.7110 C   0  0  0  0  0  0  0  0  0  0  0  0
   -3.1750   21.2680  -31.1640 C   0  0  0  0  0  0  0  0  0  0  0  0
   -1.9350   20.8420  -30.6730 C   0  0  0  0  0  0  0  0  0  0  0  0
   -1.5770   20.5960  -29.3920 N   0  0  0  0  0  0  0  0  0  0  0  0
   -2.4250   20.7000  -28.2380 C   0  0  0  0  0  0  0  0  0  0  0  0
   -2.9760   19.6700  -27.7630 O   0  0  0  0  0  0  0  0  0  0  0  0
   -2.6580   21.9520  -27.6610 O   0  0  0  0  0  0  0  0  0  0  0  0
   -3.8260   22.7210  -27.9250 C   0  0  0  0  0  0  0  0  0  0  0  0
   -3.4960   24.2100  -27.8620 C   0  0  0  0  0  0  0  0  0  0  0  0
   -2.5880   24.7580  -29.3450 P   0  0  0  0  0  0  0  0  0  0  0  0
   -1.7360   23.6260  -29.8720 O   0  0  0  0  0  0  0  0  0  0  0  0
   -3.6780   25.2480  -30.5420 O   0  0  0  0  0  0  0  0  0  0  0  0
   -1.5920   26.0610  -28.9340 O   0  0  0  0  0  0  0  0  0  0  0  0
   -0.9710   19.1810  -26.9610 H   0  0  0  0  0  0  0  0  0  0  0  0
    1.1597   19.8256  -31.1228 H   0  0  0  0  0  0  0  0  0  0  0  0
   -0.1554   20.5138  -33.5621 H   0  0  0  0  0  0  0  0  0  0  0  0
   -2.3439   21.3143  -34.5017 H   0  0  0  0  0  0  0  0  0  0  0  0
   -4.6320   22.8150  -33.5630 H   0  0  0  0  0  0  0  0  0  0  0  0
   -6.3561   21.2764  -34.0246 H   0  0  0  0  0  0  0  0  0  0  0  0
   -6.3332   22.3480  -31.2993 H   0  0  0  0  0  0  0  0  0  0  0  0
   -7.6300   22.2972  -32.5896 H   0  0  0  0  0  0  0  0  0  0  0  0
   -7.0260   20.2801  -30.4102 H   0  0  0  0  0  0  0  0  0  0  0  0
   -8.5796   21.0995  -30.8327 H   0  0  0  0  0  0  0  0  0  0  0  0
   -6.7792   17.8076  -32.7279 H   0  0  0  0  0  0  0  0  0  0  0  0
   -7.2825   18.8920  -34.0834 H   0  0  0  0  0  0  0  0  0  0  0  0
   -5.1752   19.4173  -31.9347 H   0  0  0  0  0  0  0  0  0  0  0  0
   -4.9544   19.3080  -33.7240 H   0  0  0  0  0  0  0  0  0  0  0  0
   -9.0127   17.4377  -31.8027 H   0  0  0  0  0  0  0  0  0  0  0  0
   -9.4918   18.2935  -30.5946 H   0  0  0  0  0  0  0  0  0  0  0  0
   -9.6440   19.1035  -33.7266 H   0  0  0  0  0  0  0  0  0  0  0  0
  -10.2324   20.2482  -32.8530 H   0  0  0  0  0  0  0  0  0  0  0  0
   -4.0149   21.4524  -30.4781 H   0  0  0  0  0  0  0  0  0  0  0  0
   -4.2058   22.4742  -28.9274 H   0  0  0  0  0  0  0  0  0  0  0  0
   -4.5901   22.4882  -27.1688 H   0  0  0  0  0  0  0  0  0  0  0  0
   -4.4333   24.7807  -27.7858 H   0  0  0  0  0  0  0  0  0  0  0  0
   -2.8579   24.3847  -26.9832 H   0  0  0  0  0  0  0  0  0  0  0  0
  1  2  1  0
  2  3  2  0
  2  4  1  0
  4  5  2  0
  5  6  1  0
  6  7  2  0
  7  8  1  0
  8  9  2  0
  9 10  1  0
 10 11  1  0
 11 12  1  0
 12 13  1  0
 13 14  1  0
 14 15  1  0
 15 16  1  0
 14 17  1  0
 17 18  1  0
  9 19  1  0
 19 20  2  0
 20 21  1  0
 21 22  1  0
 22 23  2  0
 22 24  1  0
 24 25  1  0
 25 26  1  0
 26 27  1  0
 27 28  2  0
 27 29  1  0
 27 30  1  0
 21  4  1  0
 20  6  1  0
 16 11  1  0
 18 14  1  0
  1 31  1  0
  5 32  1  0
  7 33  1  0
  8 34  1  0
 10 35  1  0
 11 36  1  0
 12 37  1  0
 12 38  1  0
 13 39  1  0
 13 40  1  0
 15 41  1  0
 15 42  1  0
 16 43  1  0
 16 44  1  0
 17 45  1  0
 17 46  1  0
 18 47  1  0
 18 48  1  0
 19 49  1  0
 25 50  1  0
 25 51  1  0
 26 52  1  0
 26 53  1  0
M  CHG  3   1  -1  29  -1  30  -1
M  END
>  <UniqueID>  (75) 
75

>  <SMILES>  (75) 
[NH-]C(=O)c1cc2ccc(NC3CCC4(CC3)CC4)cc2n1C(=O)OCCP(=O)([O-])[O-]

>  <Energy>  (75) 
357.7175933975414

>  <Genealogy>  (75) 
[NH-]C(=O)c1cc2ccc(NC3CCC4(CC3)CC4)cc2n1C(=O)OCCP(=O)([O-])[O-] (protonated)
[NH-]C(=O)c1cc2ccc(NC3CCC4(CC3)CC4)cc2n1C(=O)OCCP(=O)([O-])[O-] (3D coordinates assigned)
[NH-]C(=O)c1cc2ccc(NC3CCC4(CC3)CC4)cc2n1C(=O)OCCP(=O)([O-])[O-] (nonaromatic ring conformer: 357.7175933975414 kcal/mol)

>  <smiles>  (75) 
NC(=O)c1cc2ccc(NC3CCC4(CC3)CC4)cc2n1C(=O)OCCP(=O)(O)O

>  <score_type>  (75) 
oracle

>  <origin>  (75) 
adg

>  <m_score__min__energy>  (75) 
-16.239999999999998

>  <m_primary>  (75) 
energy

$$$$
76:0
     RDKit          3D

 36 37  0  0  0  0  0  0  0  0999 V2000
   -5.9370   24.2180  -29.6390 N   0  0  0  0  0  0  0  0  0  0  0  0
   -6.4230   23.9810  -30.9610 C   0  0  0  0  0  0  0  0  0  0  0  0
   -6.4460   24.9310  -31.7870 O   0  0  0  0  0  0  0  0  0  0  0  0
   -6.8610   22.6320  -31.3720 C   0  0  0  0  0  0  0  0  0  0  0  0
   -8.1520   22.1420  -31.1820 C   0  0  0  0  0  0  0  0  0  0  0  0
   -8.1100   20.8330  -31.6060 C   0  0  0  0  0  0  0  0  0  0  0  0
   -9.1140   19.8690  -31.6430 C   0  0  0  0  0  0  0  0  0  0  0  0
   -8.7890   18.5990  -32.1490 C   0  0  0  0  0  0  0  0  0  0  0  0
   -7.4810   18.3230  -32.6210 C   0  0  0  0  0  0  0  0  0  0  0  0
   -7.1410   16.9550  -33.1340 C   0  0  0  0  0  0  0  0  0  0  0  0
   -6.1160   17.0950  -34.5830 Cl  0  0  0  0  0  0  0  0  0  0  0  0
   -6.4850   19.3210  -32.5550 C   0  0  0  0  0  0  0  0  0  0  0  0
   -6.8340   20.5720  -32.0320 C   0  0  0  0  0  0  0  0  0  0  0  0
   -6.0560   21.6670  -31.8980 N   0  0  0  0  0  0  0  0  0  0  0  0
   -4.6870   21.7870  -32.3260 C   0  0  0  0  0  0  0  0  0  0  0  0
   -4.2890   21.1340  -33.3270 O   0  0  0  0  0  0  0  0  0  0  0  0
   -3.7220   22.6840  -31.6080 C   0  0  0  0  0  0  0  0  0  0  0  0
   -3.8910   22.5460  -30.2170 O   0  0  0  0  0  0  0  0  0  0  0  0
   -3.2390   23.9240  -29.4560 P   0  0  2  0  0  0  0  0  0  0  0  0
   -3.9530   24.1210  -28.1380 O   0  0  0  0  0  0  0  0  0  0  0  0
   -3.4940   25.2830  -30.4360 O   0  0  0  0  0  0  0  0  0  0  0  0
   -1.5800   23.6600  -29.1750 O   0  0  0  0  0  0  0  0  0  0  0  0
   -0.9640   25.0350  -28.3890 P   0  0  0  0  0  0  0  0  0  0  0  0
   -1.6680   25.1900  -27.0600 O   0  0  0  0  0  0  0  0  0  0  0  0
    0.6940   24.8490  -28.1050 O   0  0  0  0  0  0  0  0  0  0  0  0
   -1.2270   26.4320  -29.3080 O   0  0  0  0  0  0  0  0  0  0  0  0
   -5.9450   23.4640  -28.9170 H   0  0  0  0  0  0  0  0  0  0  0  0
   -5.6030   25.1690  -29.3660 H   0  0  0  0  0  0  0  0  0  0  0  0
   -9.0194   22.6854  -30.7792 H   0  0  0  0  0  0  0  0  0  0  0  0
  -10.1301   20.0946  -31.2872 H   0  0  0  0  0  0  0  0  0  0  0  0
   -9.5566   17.8117  -32.1791 H   0  0  0  0  0  0  0  0  0  0  0  0
   -6.5998   16.3968  -32.3559 H   0  0  0  0  0  0  0  0  0  0  0  0
   -8.0679   16.4226  -33.3936 H   0  0  0  0  0  0  0  0  0  0  0  0
   -5.4616   19.1212  -32.9052 H   0  0  0  0  0  0  0  0  0  0  0  0
   -2.6930   22.4069  -31.8806 H   0  0  0  0  0  0  0  0  0  0  0  0
   -3.9119   23.7284  -31.8962 H   0  0  0  0  0  0  0  0  0  0  0  0
  1  2  1  0
  2  3  2  0
  2  4  1  0
  4  5  2  0
  5  6  1  0
  6  7  2  0
  7  8  1  0
  8  9  2  0
  9 10  1  0
 10 11  1  0
  9 12  1  0
 12 13  2  0
 13 14  1  0
 14 15  1  0
 15 16  2  0
 15 17  1  0
 17 18  1  0
 18 19  1  0
 19 20  2  0
 19 21  1  6
 19 22  1  0
 22 23  1  0
 23 24  2  0
 23 25  1  0
 23 26  1  0
 14  4  1  0
 13  6  1  0
  1 27  1  0
  1 28  1  0
  5 29  1  0
  7 30  1  0
  8 31  1  0
 10 32  1  0
 10 33  1  0
 12 34  1  0
 17 35  1  0
 17 36  1  0
M  CHG  3  21  -1  25  -1  26  -1
M  END
>  <UniqueID>  (76) 
76

>  <SMILES>  (76) 
NC(=O)c1cc2ccc(CCl)cc2n1C(=O)CO[P@](=O)([O-])OP(=O)([O-])[O-]

>  <Energy>  (76) 
70.67851687046888

>  <Genealogy>  (76) 
NC(=O)c1cc2ccc(CCl)cc2n1C(=O)COP(=O)([O-])OP(=O)([O-])[O-] (protonated)
NC(=O)c1cc2ccc(CCl)cc2n1C(=O)CO[P@](=O)([O-])OP(=O)([O-])[O-] (chirality)
NC(=O)c1cc2ccc(CCl)cc2n1C(=O)CO[P@](=O)([O-])OP(=O)([O-])[O-] (3D coordinates assigned)
NC(=O)c1cc2ccc(CCl)cc2n1C(=O)CO[P@](=O)([O-])OP(=O)([O-])[O-] (optimized conformer: 70.67851687046888 kcal/mol)

>  <smiles>  (76) 
NC(=O)c1cc2ccc(CCl)cc2n1C(=O)COP(=O)(O)OP(=O)(O)O

>  <score_type>  (76) 
oracle

>  <origin>  (76) 
adg

>  <m_score__min__energy>  (76) 
-14.83

>  <m_primary>  (76) 
energy

$$$$
77:0
     RDKit          3D

 30 31  0  0  0  0  0  0  0  0999 V2000
   -1.6310   25.6740  -28.9480 N   0  0  0  0  0  0  0  0  0  0  0  0
   -1.0320   24.4030  -29.1950 C   0  0  0  0  0  0  0  0  0  0  0  0
    0.1230   24.1700  -28.7530 O   0  0  0  0  0  0  0  0  0  0  0  0
   -1.7520   23.3970  -30.0020 C   0  0  0  0  0  0  0  0  0  0  0  0
   -1.1640   22.2230  -30.4660 C   0  0  0  0  0  0  0  0  0  0  0  0
   -2.1780   21.5250  -31.0830 C   0  0  0  0  0  0  0  0  0  0  0  0
   -2.1520   20.2940  -31.7270 C   0  0  0  0  0  0  0  0  0  0  0  0
   -3.3450   19.8230  -32.2990 C   0  0  0  0  0  0  0  0  0  0  0  0
   -4.5380   20.5930  -32.2310 C   0  0  0  0  0  0  0  0  0  0  0  0
   -5.7730   20.1380  -32.8160 N   0  0  0  0  0  0  0  0  0  0  0  0
   -6.2200   18.7440  -32.8430 C   0  0  0  0  0  0  0  0  0  0  0  0
   -7.7440   18.6500  -32.7310 C   0  0  0  0  0  0  0  0  0  0  0  0
   -8.3390   19.8680  -33.0900 O   0  0  0  0  0  0  0  0  0  0  0  0
   -4.5200   21.8370  -31.5600 C   0  0  0  0  0  0  0  0  0  0  0  0
   -3.3210   22.2730  -30.9840 C   0  0  0  0  0  0  0  0  0  0  0  0
   -3.0760   23.4280  -30.3250 N   0  0  0  0  0  0  0  0  0  0  0  0
   -4.0130   24.4940  -30.0910 C   0  0  0  0  0  0  0  0  0  0  0  0
   -4.9370   24.3540  -29.2470 O   0  0  0  0  0  0  0  0  0  0  0  0
   -3.9260   25.6760  -30.8130 O   0  0  0  0  0  0  0  0  0  0  0  0
   -2.6630   25.8080  -29.0380 H   0  0  0  0  0  0  0  0  0  0  0  0
   -0.1123   21.9179  -30.3617 H   0  0  0  0  0  0  0  0  0  0  0  0
   -1.2244   19.7058  -31.7870 H   0  0  0  0  0  0  0  0  0  0  0  0
   -3.3564   18.8467  -32.8056 H   0  0  0  0  0  0  0  0  0  0  0  0
   -6.4040   20.8450  -33.2560 H   0  0  0  0  0  0  0  0  0  0  0  0
   -5.9005   18.2828  -33.7892 H   0  0  0  0  0  0  0  0  0  0  0  0
   -5.7742   18.2182  -31.9858 H   0  0  0  0  0  0  0  0  0  0  0  0
   -8.1081   17.8577  -33.4017 H   0  0  0  0  0  0  0  0  0  0  0  0
   -8.0104   18.4173  -31.6894 H   0  0  0  0  0  0  0  0  0  0  0  0
   -8.6790   19.7570  -34.0170 H   0  0  0  0  0  0  0  0  0  0  0  0
   -5.4305   22.4505  -31.4918 H   0  0  0  0  0  0  0  0  0  0  0  0
  1  2  1  0
  2  3  2  0
  2  4  1  0
  4  5  2  0
  5  6  1  0
  6  7  2  0
  7  8  1  0
  8  9  2  0
  9 10  1  0
 10 11  1  0
 11 12  1  0
 12 13  1  0
  9 14  1  0
 14 15  2  0
 15 16  1  0
 16 17  1  0
 17 18  2  0
 17 19  1  0
 16  4  1  0
 15  6  1  0
  1 20  1  0
  5 21  1  0
  7 22  1  0
  8 23  1  0
 10 24  1  0
 11 25  1  0
 11 26  1  0
 12 27  1  0
 12 28  1  0
 13 29  1  0
 14 30  1  0
M  CHG  2   1  -1  19  -1
M  END
>  <UniqueID>  (77) 
77

>  <SMILES>  (77) 
[NH-]C(=O)c1cc2ccc(NCCO)cc2n1C(=O)[O-]

>  <Energy>  (77) 
67.39637392040072

>  <Genealogy>  (77) 
[NH-]C(=O)c1cc2ccc(NCCO)cc2n1C(=O)[O-] (protonated)
[NH-]C(=O)c1cc2ccc(NCCO)cc2n1C(=O)[O-] (3D coordinates assigned)
[NH-]C(=O)c1cc2ccc(NCCO)cc2n1C(=O)[O-] (optimized conformer: 67.39637392040072 kcal/mol)

>  <smiles>  (77) 
NC(=O)c1cc2ccc(NCCO)cc2n1C(=O)O

>  <score_type>  (77) 
oracle

>  <origin>  (77) 
adg

>  <m_score__min__energy>  (77) 
-9.7100000000000009

>  <m_primary>  (77) 
energy

$$$$
78:0
     RDKit          3D

 32 33  0  0  0  0  0  0  0  0999 V2000
   -0.7230   21.4510  -29.9190 C   0  0  0  0  0  0  0  0  0  0  0  0
   -2.2430   21.4220  -29.7840 C   0  0  1  0  0  0  0  0  0  0  0  0
   -2.7430   21.3840  -27.9050 Br  0  0  0  0  0  0  0  0  0  0  0  0
   -2.8550   22.6160  -30.4670 C   0  0  0  0  0  0  0  0  0  0  0  0
   -2.5140   23.7770  -30.1110 O   0  0  0  0  0  0  0  0  0  0  0  0
   -3.7850   22.4530  -31.6020 C   0  0  0  0  0  0  0  0  0  0  0  0
   -3.3340   22.2930  -32.7680 O   0  0  0  0  0  0  0  0  0  0  0  0
   -5.2060   22.5140  -31.3980 N   0  0  0  0  0  0  0  0  0  0  0  0
   -5.9170   23.5430  -30.8610 C   0  0  0  0  0  0  0  0  0  0  0  0
   -5.3460   24.7550  -30.2370 C   0  0  0  0  0  0  0  0  0  0  0  0
   -5.8270   25.2430  -28.9830 N   0  0  0  0  0  0  0  0  0  0  0  0
   -4.4470   25.3960  -30.8420 O   0  0  0  0  0  0  0  0  0  0  0  0
   -7.2850   23.3020  -30.9680 C   0  0  0  0  0  0  0  0  0  0  0  0
   -7.3910   22.0800  -31.5920 C   0  0  0  0  0  0  0  0  0  0  0  0
   -8.5220   21.3650  -31.9780 C   0  0  0  0  0  0  0  0  0  0  0  0
   -8.3310   20.1480  -32.6570 C   0  0  0  0  0  0  0  0  0  0  0  0
   -7.0260   19.6820  -32.9470 C   0  0  0  0  0  0  0  0  0  0  0  0
   -6.8470   18.4520  -33.6530 N   0  0  0  0  0  0  0  0  0  0  0  0
   -5.9040   20.4350  -32.5460 C   0  0  0  0  0  0  0  0  0  0  0  0
   -6.1210   21.6290  -31.8480 C   0  0  0  0  0  0  0  0  0  0  0  0
   -0.2661   21.4597  -28.9184 H   0  0  0  0  0  0  0  0  0  0  0  0
   -0.3866   20.5591  -30.4679 H   0  0  0  0  0  0  0  0  0  0  0  0
   -0.4208   22.3551  -30.4679 H   0  0  0  0  0  0  0  0  0  0  0  0
   -2.6244   20.5123  -30.2708 H   0  0  0  0  0  0  0  0  0  0  0  0
   -6.6940   24.8600  -28.5480 H   0  0  0  0  0  0  0  0  0  0  0  0
   -5.3690   26.0660  -28.5330 H   0  0  0  0  0  0  0  0  0  0  0  0
   -8.1055   23.9503  -30.6265 H   0  0  0  0  0  0  0  0  0  0  0  0
   -9.5326   21.7400  -31.7589 H   0  0  0  0  0  0  0  0  0  0  0  0
   -9.2033   19.5531  -32.9654 H   0  0  0  0  0  0  0  0  0  0  0  0
   -6.6760   17.5600  -33.1380 H   0  0  0  0  0  0  0  0  0  0  0  0
   -6.8840   18.4250  -34.6970 H   0  0  0  0  0  0  0  0  0  0  0  0
   -4.8840   20.0932  -32.7756 H   0  0  0  0  0  0  0  0  0  0  0  0
  1  2  1  0
  2  3  1  0
  2  4  1  0
  4  5  2  0
  4  6  1  0
  6  7  2  0
  6  8  1  0
  8  9  1  0
  9 10  1  0
 10 11  1  0
 10 12  2  0
  9 13  2  0
 13 14  1  0
 14 15  2  0
 15 16  1  0
 16 17  2  0
 17 18  1  0
 17 19  1  0
 19 20  2  0
 20  8  1  0
 20 14  1  0
  1 21  1  0
  1 22  1  0
  1 23  1  0
  2 24  1  6
 11 25  1  0
 11 26  1  0
 13 27  1  0
 15 28  1  0
 16 29  1  0
 18 30  1  0
 18 31  1  0
 19 32  1  0
M  END
>  <UniqueID>  (78) 
78

>  <SMILES>  (78) 
C[C@@H](Br)C(=O)C(=O)n1c(C(N)=O)cc2ccc(N)cc21

>  <Energy>  (78) 
68.24213961337595

>  <Genealogy>  (78) 
C[C@@H](Br)C(=O)C(=O)n1c(C(N)=O)cc2ccc(N)cc21 (chirality)
C[C@@H](Br)C(=O)C(=O)n1c(C(N)=O)cc2ccc(N)cc21 (3D coordinates assigned)
C[C@@H](Br)C(=O)C(=O)n1c(C(N)=O)cc2ccc(N)cc21 (optimized conformer: 68.24213961337595 kcal/mol)

>  <smiles>  (78) 
CC(Br)C(=O)C(=O)n1c(C(N)=O)cc2ccc(N)cc21

>  <score_type>  (78) 
oracle

>  <origin>  (78) 
adg

>  <m_score__min__energy>  (78) 
-8.0099999999999998

>  <m_primary>  (78) 
energy

$$$$
79:0
     RDKit          3D

 36 37  0  0  0  0  0  0  0  0999 V2000
   -2.0899   22.5251  -27.7778 H   0  0  0  0  0  0  0  0  0  0  0  0
   -2.2580   22.8810  -28.8050 C   0  0  0  0  0  0  0  0  0  0  0  0
   -1.5740   24.1240  -29.2060 C   0  0  0  0  0  0  0  0  0  0  0  0
   -0.3240   24.1680  -29.3400 O   0  0  0  0  0  0  0  0  0  0  0  0
   -2.3150   25.2880  -29.3570 O   0  0  0  0  0  0  0  0  0  0  0  0
   -3.0670   22.1460  -29.5820 C   0  0  0  0  0  0  0  0  0  0  0  0
   -3.3667   21.1582  -29.2019 H   0  0  0  0  0  0  0  0  0  0  0  0
   -3.5910   22.5470  -30.9040 C   0  0  0  0  0  0  0  0  0  0  0  0
   -2.7670   22.7610  -31.8330 O   0  0  0  0  0  0  0  0  0  0  0  0
   -5.0030   22.6240  -31.1780 N   0  0  0  0  0  0  0  0  0  0  0  0
   -5.8140   23.7190  -31.1140 C   0  0  0  0  0  0  0  0  0  0  0  0
   -5.4330   25.0510  -30.6060 C   0  0  0  0  0  0  0  0  0  0  0  0
   -6.2620   25.7160  -29.9300 O   0  0  0  0  0  0  0  0  0  0  0  0
   -4.1210   25.5750  -30.8160 N   0  0  0  0  0  0  0  0  0  0  0  0
   -3.8810   26.5360  -30.4860 H   0  0  0  0  0  0  0  0  0  0  0  0
   -3.3640   24.9850  -31.2270 H   0  0  0  0  0  0  0  0  0  0  0  0
   -7.1000   23.4040  -31.5450 C   0  0  0  0  0  0  0  0  0  0  0  0
   -7.9632   24.0815  -31.6215 H   0  0  0  0  0  0  0  0  0  0  0  0
   -7.0600   22.0630  -31.8550 C   0  0  0  0  0  0  0  0  0  0  0  0
   -8.0600   21.2280  -32.3420 C   0  0  0  0  0  0  0  0  0  0  0  0
   -9.0790   21.6048  -32.5144 H   0  0  0  0  0  0  0  0  0  0  0  0
   -7.7290   19.8890  -32.6070 C   0  0  0  0  0  0  0  0  0  0  0  0
   -8.5000   19.2044  -32.9904 H   0  0  0  0  0  0  0  0  0  0  0  0
   -6.4110   19.4080  -32.3860 C   0  0  0  0  0  0  0  0  0  0  0  0
   -6.0740   17.9650  -32.6990 C   0  0  2  0  0  0  0  0  0  0  0  0
   -5.4712   17.5648  -31.8705 H   0  0  0  0  0  0  0  0  0  0  0  0
   -5.2440   17.8710  -33.9500 C   0  0  0  0  0  0  0  0  0  0  0  0
   -4.1390   17.2640  -33.9490 O   0  0  0  0  0  0  0  0  0  0  0  0
   -5.7230   18.4140  -35.1360 O   0  0  0  0  0  0  0  0  0  0  0  0
   -7.3420   17.1050  -32.7880 C   0  0  0  0  0  0  0  0  0  0  0  0
   -7.6947   16.8658  -31.7739 H   0  0  0  0  0  0  0  0  0  0  0  0
   -8.1242   17.6597  -33.3269 H   0  0  0  0  0  0  0  0  0  0  0  0
   -7.1159   16.1731  -33.3269 H   0  0  0  0  0  0  0  0  0  0  0  0
   -5.4240   20.2920  -31.8900 C   0  0  0  0  0  0  0  0  0  0  0  0
   -4.3937   19.9457  -31.7210 H   0  0  0  0  0  0  0  0  0  0  0  0
   -5.7860   21.6160  -31.6190 C   0  0  0  0  0  0  0  0  0  0  0  0
  1  2  1  0
  2  3  1  0
  3  4  2  0
  3  5  1  0
  2  6  2  0
  6  7  1  0
  6  8  1  0
  8  9  2  0
  8 10  1  0
 10 11  1  0
 11 12  1  0
 12 13  2  0
 12 14  1  0
 14 15  1  0
 14 16  1  0
 11 17  2  0
 17 18  1  0
 17 19  1  0
 19 20  2  0
 20 21  1  0
 20 22  1  0
 22 23  1  0
 22 24  2  0
 24 25  1  0
 25 26  1  1
 25 27  1  0
 27 28  2  0
 27 29  1  0
 25 30  1  0
 30 31  1  0
 30 32  1  0
 30 33  1  0
 24 34  1  0
 34 35  1  0
 34 36  2  0
 36 10  1  0
 36 19  1  0
M  CHG  2   5  -1  29  -1
M  END
>  <UniqueID>  (79) 
79

>  <SMILES>  (79) 
C[C@@H](C(=O)[O-])c1ccc2cc(C(N)=O)n(C(=O)/C=C\C(=O)[O-])c2c1

>  <Energy>  (79) 
80.3120726253283

>  <Genealogy>  (79) 
CC(C(=O)[O-])c1ccc2cc(C(N)=O)n(C(=O)/C=C\C(=O)[O-])c2c1 (protonated)
C[C@@H](C(=O)[O-])c1ccc2cc(C(N)=O)n(C(=O)/C=C\C(=O)[O-])c2c1 (chirality)
C[C@@H](C(=O)[O-])c1ccc2cc(C(N)=O)n(C(=O)/C=C\C(=O)[O-])c2c1 (cis-trans isomerization)
C[C@@H](C(=O)[O-])c1ccc2cc(C(N)=O)n(C(=O)/C=C\C(=O)[O-])c2c1 (3D coordinates assigned)
C[C@@H](C(=O)[O-])c1ccc2cc(C(N)=O)n(C(=O)/C=C\C(=O)[O-])c2c1 (optimized conformer: 80.3120726253283 kcal/mol)

>  <smiles>  (79) 
CC(C(=O)O)c1ccc2cc(C(N)=O)n(C(=O)/C=C\C(=O)O)c2c1

>  <score_type>  (79) 
oracle

>  <origin>  (79) 
adg

>  <m_score__min__energy>  (79) 
-11.789999999999999

>  <m_primary>  (79) 
energy

$$$$
80:0
     RDKit          3D

 38 39  0  0  0  0  0  0  0  0999 V2000
   -7.6470   18.4440  -32.7740 C   0  0  0  0  0  0  0  0  0  0  0  0
   -7.6840   19.8720  -32.3200 C   0  0  0  0  0  0  0  0  0  0  0  0
   -8.9070   20.5880  -32.3290 C   0  0  0  0  0  0  0  0  0  0  0  0
   -8.9470   21.9410  -31.9530 C   0  0  0  0  0  0  0  0  0  0  0  0
   -7.7520   22.5490  -31.5790 C   0  0  0  0  0  0  0  0  0  0  0  0
   -7.5010   23.8480  -31.1990 C   0  0  0  0  0  0  0  0  0  0  0  0
   -6.1310   23.9050  -30.9550 C   0  0  0  0  0  0  0  0  0  0  0  0
   -5.4460   25.1080  -30.4380 C   0  0  0  0  0  0  0  0  0  0  0  0
   -4.0230   25.1900  -30.4850 N   0  0  0  0  0  0  0  0  0  0  0  0
   -6.1050   26.0820  -29.9890 O   0  0  0  0  0  0  0  0  0  0  0  0
   -5.5540   22.6900  -31.1860 N   0  0  0  0  0  0  0  0  0  0  0  0
   -4.1620   22.3430  -31.1070 C   0  0  0  0  0  0  0  0  0  0  0  0
   -3.3780   22.6910  -32.0320 O   0  0  0  0  0  0  0  0  0  0  0  0
   -3.7000   21.5960  -30.0150 O   0  0  0  0  0  0  0  0  0  0  0  0
   -2.9750   22.1140  -28.9330 C   0  0  0  0  0  0  0  0  0  0  0  0
   -2.8280   21.4470  -27.8710 O   0  0  0  0  0  0  0  0  0  0  0  0
   -2.3970   23.4190  -29.0490 N   0  0  0  0  0  0  0  0  0  0  0  0
   -1.6960   24.0710  -27.9380 C   0  0  2  0  0  0  0  0  0  0  0  0
   -2.6950   24.5820  -26.8870 C   0  0  0  0  0  0  0  0  0  0  0  0
   -3.9250   24.9160  -27.4740 O   0  0  0  0  0  0  0  0  0  0  0  0
   -0.8260   25.1910  -28.4440 C   0  0  0  0  0  0  0  0  0  0  0  0
   -1.2440   25.9750  -29.3380 O   0  0  0  0  0  0  0  0  0  0  0  0
    0.4440   25.3780  -27.9100 O   0  0  0  0  0  0  0  0  0  0  0  0
   -6.5610   21.8710  -31.5620 C   0  0  0  0  0  0  0  0  0  0  0  0
   -6.4890   20.5280  -31.9500 C   0  0  0  0  0  0  0  0  0  0  0  0
   -7.6298   17.7807  -31.8967 H   0  0  0  0  0  0  0  0  0  0  0  0
   -8.5399   18.2284  -33.3792 H   0  0  0  0  0  0  0  0  0  0  0  0
   -6.7442   18.2749  -33.3792 H   0  0  0  0  0  0  0  0  0  0  0  0
   -9.8337   20.0795  -32.6333 H   0  0  0  0  0  0  0  0  0  0  0  0
   -9.8930   22.5023  -31.9541 H   0  0  0  0  0  0  0  0  0  0  0  0
   -8.2287   24.6678  -31.1074 H   0  0  0  0  0  0  0  0  0  0  0  0
   -3.4840   25.6250  -29.7040 H   0  0  0  0  0  0  0  0  0  0  0  0
   -2.5390   23.9330  -29.9480 H   0  0  0  0  0  0  0  0  0  0  0  0
   -1.0472   23.3259  -27.4544 H   0  0  0  0  0  0  0  0  0  0  0  0
   -2.8583   23.7956  -26.1354 H   0  0  0  0  0  0  0  0  0  0  0  0
   -2.2762   25.4854  -26.4196 H   0  0  0  0  0  0  0  0  0  0  0  0
   -3.7230   25.2900  -28.3710 H   0  0  0  0  0  0  0  0  0  0  0  0
   -5.5259   19.9968  -31.9664 H   0  0  0  0  0  0  0  0  0  0  0  0
  1  2  1  0
  2  3  2  0
  3  4  1  0
  4  5  2  0
  5  6  1  0
  6  7  2  0
  7  8  1  0
  8  9  1  0
  8 10  2  0
  7 11  1  0
 11 12  1  0
 12 13  2  0
 12 14  1  0
 14 15  1  0
 15 16  2  0
 15 17  1  0
 17 18  1  0
 18 19  1  0
 19 20  1  0
 18 21  1  0
 21 22  2  0
 21 23  1  0
 11 24  1  0
 24 25  2  0
 25  2  1  0
 24  5  1  0
  1 26  1  0
  1 27  1  0
  1 28  1  0
  3 29  1  0
  4 30  1  0
  6 31  1  0
  9 32  1  0
 17 33  1  0
 18 34  1  1
 19 35  1  0
 19 36  1  0
 20 37  1  0
 25 38  1  0
M  CHG  2   9  -1  23  -1
M  END
>  <UniqueID>  (80) 
80

>  <SMILES>  (80) 
Cc1ccc2cc(C([NH-])=O)n(C(=O)OC(=O)N[C@H](CO)C(=O)[O-])c2c1

>  <Energy>  (80) 
74.22054490878152

>  <Genealogy>  (80) 
Cc1ccc2cc(C([NH-])=O)n(C(=O)OC(=O)NC(CO)C(=O)[O-])c2c1 (protonated)
Cc1ccc2cc(C([NH-])=O)n(C(=O)OC(=O)N[C@H](CO)C(=O)[O-])c2c1 (chirality)
Cc1ccc2cc(C([NH-])=O)n(C(=O)OC(=O)N[C@H](CO)C(=O)[O-])c2c1 (3D coordinates assigned)
Cc1ccc2cc(C([NH-])=O)n(C(=O)OC(=O)N[C@H](CO)C(=O)[O-])c2c1 (optimized conformer: 74.22054490878152 kcal/mol)

>  <smiles>  (80) 
Cc1ccc2cc(C(N)=O)n(C(=O)OC(=O)NC(CO)C(=O)O)c2c1

>  <score_type>  (80) 
oracle

>  <origin>  (80) 
adg

>  <m_score__min__energy>  (80) 
-12.19

>  <m_primary>  (80) 
energy

$$$$
81:0
     RDKit          3D

 47 48  0  0  0  0  0  0  0  0999 V2000
   -0.2460   20.8650  -31.9400 C   0  0  0  0  0  0  0  0  0  0  0  0
   -0.1300   20.9440  -30.4920 N   0  0  0  0  0  0  0  0  0  0  0  0
   -1.0740   21.6470  -29.6790 C   0  0  0  0  0  0  0  0  0  0  0  0
   -1.5400   21.1040  -28.6410 O   0  0  0  0  0  0  0  0  0  0  0  0
   -1.4860   23.0440  -30.0620 C   0  0  1  0  0  0  0  0  0  0  0  0
   -2.9420   23.1400  -30.1870 N   0  0  0  0  0  0  0  0  0  0  0  0
   -3.7120   22.7520  -31.3340 C   0  0  0  0  0  0  0  0  0  0  0  0
   -3.1520   22.2260  -32.3330 O   0  0  0  0  0  0  0  0  0  0  0  0
   -5.1350   22.9230  -31.3270 N   0  0  0  0  0  0  0  0  0  0  0  0
   -5.8380   24.0680  -31.1040 C   0  0  0  0  0  0  0  0  0  0  0  0
   -5.2720   25.3620  -30.6660 C   0  0  0  0  0  0  0  0  0  0  0  0
   -3.8850   25.6460  -30.8230 N   0  0  0  0  0  0  0  0  0  0  0  0
   -6.0170   26.2160  -30.1140 O   0  0  0  0  0  0  0  0  0  0  0  0
   -7.2020   23.8460  -31.2900 C   0  0  0  0  0  0  0  0  0  0  0  0
   -7.3100   22.5160  -31.6360 C   0  0  0  0  0  0  0  0  0  0  0  0
   -8.4360   21.7630  -31.9560 C   0  0  0  0  0  0  0  0  0  0  0  0
   -8.2450   20.4220  -32.3280 C   0  0  0  0  0  0  0  0  0  0  0  0
   -6.9420   19.8640  -32.3980 C   0  0  0  0  0  0  0  0  0  0  0  0
   -6.7650   18.4180  -32.7830 C   0  0  0  0  0  0  0  0  0  0  0  0
   -7.9650   17.7400  -32.6640 F   0  0  0  0  0  0  0  0  0  0  0  0
   -6.3300   18.3000  -34.0920 F   0  0  0  0  0  0  0  0  0  0  0  0
   -5.8320   17.8370  -31.9450 F   0  0  0  0  0  0  0  0  0  0  0  0
   -5.8270   20.6560  -32.0390 C   0  0  0  0  0  0  0  0  0  0  0  0
   -6.0490   21.9840  -31.6530 C   0  0  0  0  0  0  0  0  0  0  0  0
   -0.9610   24.0800  -29.1050 C   0  0  0  0  0  0  0  0  0  0  0  0
    0.2830   24.2200  -28.9340 O   0  0  0  0  0  0  0  0  0  0  0  0
   -1.8650   24.9360  -28.4650 O   0  0  0  0  0  0  0  0  0  0  0  0
   -2.2850   24.7820  -27.1090 C   0  0  1  0  0  0  0  0  0  0  0  0
   -1.8910   26.0440  -26.3390 C   0  0  0  0  0  0  0  0  0  0  0  0
   -3.8050   24.5550  -27.0530 C   0  0  0  0  0  0  0  0  0  0  0  0
   -4.3400   24.4090  -28.3410 O   0  0  0  0  0  0  0  0  0  0  0  0
   -1.1284   20.2640  -32.2049 H   0  0  0  0  0  0  0  0  0  0  0  0
   -0.3542   21.8780  -32.3550 H   0  0  0  0  0  0  0  0  0  0  0  0
    0.6569   20.3933  -32.3550 H   0  0  0  0  0  0  0  0  0  0  0  0
   -1.0334   23.2554  -31.0420 H   0  0  0  0  0  0  0  0  0  0  0  0
   -3.1830   25.2980  -30.1330 H   0  0  0  0  0  0  0  0  0  0  0  0
   -8.0177   24.5763  -31.1834 H   0  0  0  0  0  0  0  0  0  0  0  0
   -9.4431   22.2039  -31.9188 H   0  0  0  0  0  0  0  0  0  0  0  0
   -9.1170   19.7960  -32.5683 H   0  0  0  0  0  0  0  0  0  0  0  0
   -4.8093   20.2391  -32.0623 H   0  0  0  0  0  0  0  0  0  0  0  0
   -1.7985   23.9075  -26.6523 H   0  0  0  0  0  0  0  0  0  0  0  0
   -1.9521   25.8482  -25.2583 H   0  0  0  0  0  0  0  0  0  0  0  0
   -0.8615   26.3279  -26.6026 H   0  0  0  0  0  0  0  0  0  0  0  0
   -2.5761   26.8632  -26.6026 H   0  0  0  0  0  0  0  0  0  0  0  0
   -4.0113   23.6437  -26.4726 H   0  0  0  0  0  0  0  0  0  0  0  0
   -4.2722   25.4297  -26.5770 H   0  0  0  0  0  0  0  0  0  0  0  0
   -3.6860   24.8150  -28.9680 H   0  0  0  0  0  0  0  0  0  0  0  0
  1  2  1  0
  2  3  1  0
  3  4  2  0
  3  5  1  0
  5  6  1  0
  6  7  1  0
  7  8  2  0
  7  9  1  0
  9 10  1  0
 10 11  1  0
 11 12  1  0
 11 13  2  0
 10 14  2  0
 14 15  1  0
 15 16  2  0
 16 17  1  0
 17 18  2  0
 18 19  1  0
 19 20  1  0
 19 21  1  0
 19 22  1  0
 18 23  1  0
 23 24  2  0
  5 25  1  0
 25 26  2  0
 25 27  1  0
 27 28  1  0
 28 29  1  0
 28 30  1  0
 30 31  1  0
 24  9  1  0
 24 15  1  0
  1 32  1  0
  1 33  1  0
  1 34  1  0
  5 35  1  6
 12 36  1  0
 14 37  1  0
 16 38  1  0
 17 39  1  0
 23 40  1  0
 28 41  1  1
 29 42  1  0
 29 43  1  0
 29 44  1  0
 30 45  1  0
 30 46  1  0
 31 47  1  0
M  CHG  3   2  -1   6  -1  12  -1
M  END
>  <UniqueID>  (81) 
81

>  <SMILES>  (81) 
C[N-]C(=O)[C@@H]([N-]C(=O)n1c(C([NH-])=O)cc2ccc(C(F)(F)F)cc21)C(=O)O[C@@H](C)CO

>  <Energy>  (81) 
76.74327885648687

>  <Genealogy>  (81) 
C[N-]C(=O)[C@@H]([N-]C(=O)n1c(C([NH-])=O)cc2ccc(C(F)(F)F)cc21)C(=O)OC(C)CO (protonated)
C[N-]C(=O)[C@@H]([N-]C(=O)n1c(C([NH-])=O)cc2ccc(C(F)(F)F)cc21)C(=O)O[C@@H](C)CO (chirality)
C[N-]C(=O)[C@@H]([N-]C(=O)n1c(C([NH-])=O)cc2ccc(C(F)(F)F)cc21)C(=O)O[C@@H](C)CO (3D coordinates assigned)
C[N-]C(=O)[C@@H]([N-]C(=O)n1c(C([NH-])=O)cc2ccc(C(F)(F)F)cc21)C(=O)O[C@@H](C)CO (optimized conformer: 76.74327885648687 kcal/mol)

>  <smiles>  (81) 
CNC(=O)[C@@H](NC(=O)n1c(C(N)=O)cc2ccc(C(F)(F)F)cc21)C(=O)OC(C)CO

>  <score_type>  (81) 
oracle

>  <origin>  (81) 
adg

>  <m_score__min__energy>  (81) 
-12.039999999999999

>  <m_primary>  (81) 
energy

$$$$
82:0
     RDKit          3D

 39 40  0  0  0  0  0  0  0  0999 V2000
   -7.5720   17.4940  -32.3370 C   0  0  0  0  0  0  0  0  0  0  0  0
   -6.9150   18.6220  -33.0080 N   0  0  0  0  0  0  0  0  0  0  0  0
   -6.0820   18.3480  -34.1890 C   0  0  0  0  0  0  0  0  0  0  0  0
   -4.6230   18.3840  -33.8430 C   0  0  0  0  0  0  0  0  0  0  0  0
   -4.2640   18.2950  -32.6400 O   0  0  0  0  0  0  0  0  0  0  0  0
   -3.6610   18.5530  -34.8340 O   0  0  0  0  0  0  0  0  0  0  0  0
   -7.0600   19.9670  -32.4840 C   0  0  0  0  0  0  0  0  0  0  0  0
   -8.3480   20.5650  -32.3570 C   0  0  0  0  0  0  0  0  0  0  0  0
   -8.4950   21.8770  -31.8730 C   0  0  0  0  0  0  0  0  0  0  0  0
   -7.3470   22.5740  -31.5180 C   0  0  0  0  0  0  0  0  0  0  0  0
   -7.1920   23.8630  -31.0540 C   0  0  0  0  0  0  0  0  0  0  0  0
   -5.8160   24.0340  -30.8890 C   0  0  0  0  0  0  0  0  0  0  0  0
   -5.1860   25.2900  -30.4340 C   0  0  0  0  0  0  0  0  0  0  0  0
   -3.8690   25.6440  -30.8510 N   0  0  0  0  0  0  0  0  0  0  0  0
   -5.8170   26.0640  -29.6640 O   0  0  0  0  0  0  0  0  0  0  0  0
   -5.1570   22.8940  -31.2310 N   0  0  0  0  0  0  0  0  0  0  0  0
   -3.7430   22.6720  -31.2680 C   0  0  0  0  0  0  0  0  0  0  0  0
   -3.0170   23.1420  -30.3520 O   0  0  0  0  0  0  0  0  0  0  0  0
   -3.1530   21.8640  -32.3500 C   0  0  0  0  0  0  0  0  0  0  0  0
   -3.5030   22.0770  -33.5420 O   0  0  0  0  0  0  0  0  0  0  0  0
   -2.1720   20.7620  -32.0580 C   0  0  0  0  0  0  0  0  0  0  0  0
   -2.1760   19.7660  -33.1290 N   0  0  0  0  0  0  0  0  0  0  0  0
   -6.1010   22.0160  -31.6200 C   0  0  0  0  0  0  0  0  0  0  0  0
   -5.9180   20.7180  -32.1030 C   0  0  0  0  0  0  0  0  0  0  0  0
   -7.4975   17.6219  -31.2470 H   0  0  0  0  0  0  0  0  0  0  0  0
   -8.6315   17.4594  -32.6306 H   0  0  0  0  0  0  0  0  0  0  0  0
   -7.0793   16.5553  -32.6306 H   0  0  0  0  0  0  0  0  0  0  0  0
   -6.3332   17.3518  -34.5821 H   0  0  0  0  0  0  0  0  0  0  0  0
   -6.2806   19.1236  -34.9433 H   0  0  0  0  0  0  0  0  0  0  0  0
   -9.2416   19.9905  -32.6424 H   0  0  0  0  0  0  0  0  0  0  0  0
   -9.4894   22.3377  -31.7783 H   0  0  0  0  0  0  0  0  0  0  0  0
   -7.9841   24.6001  -30.8559 H   0  0  0  0  0  0  0  0  0  0  0  0
   -3.0320   25.2940  -30.3350 H   0  0  0  0  0  0  0  0  0  0  0  0
   -1.1632   21.1915  -31.9686 H   0  0  0  0  0  0  0  0  0  0  0  0
   -2.4634   20.2703  -31.1181 H   0  0  0  0  0  0  0  0  0  0  0  0
   -2.5410   20.1860  -34.0140 H   0  0  0  0  0  0  0  0  0  0  0  0
   -1.1970   19.4350  -33.2900 H   0  0  0  0  0  0  0  0  0  0  0  0
   -2.7690   18.9490  -32.8560 H   0  0  0  0  0  0  0  0  0  0  0  0
   -4.9094   20.2870  -32.1862 H   0  0  0  0  0  0  0  0  0  0  0  0
  1  2  1  0
  2  3  1  0
  3  4  1  0
  4  5  2  0
  4  6  1  0
  2  7  1  0
  7  8  2  0
  8  9  1  0
  9 10  2  0
 10 11  1  0
 11 12  2  0
 12 13  1  0
 13 14  1  0
 13 15  2  0
 12 16  1  0
 16 17  1  0
 17 18  2  0
 17 19  1  0
 19 20  2  0
 19 21  1  0
 21 22  1  0
 16 23  1  0
 23 24  2  0
 24  7  1  0
 23 10  1  0
  1 25  1  0
  1 26  1  0
  1 27  1  0
  3 28  1  0
  3 29  1  0
  8 30  1  0
  9 31  1  0
 11 32  1  0
 14 33  1  0
 21 34  1  0
 21 35  1  0
 22 36  1  0
 22 37  1  0
 22 38  1  0
 24 39  1  0
M  CHG  3   6  -1  14  -1  22   1
M  END
>  <UniqueID>  (82) 
82

>  <SMILES>  (82) 
CN(CC(=O)[O-])c1ccc2cc(C([NH-])=O)n(C(=O)C(=O)C[NH3+])c2c1

>  <Energy>  (82) 
78.85051070295046

>  <Genealogy>  (82) 
CN(CC(=O)[O-])c1ccc2cc(C([NH-])=O)n(C(=O)C(=O)C[NH3+])c2c1 (protonated)
CN(CC(=O)[O-])c1ccc2cc(C([NH-])=O)n(C(=O)C(=O)C[NH3+])c2c1 (3D coordinates assigned)
CN(CC(=O)[O-])c1ccc2cc(C([NH-])=O)n(C(=O)C(=O)C[NH3+])c2c1 (optimized conformer: 78.85051070295046 kcal/mol)

>  <smiles>  (82) 
CN(CC(=O)O)c1ccc2cc(C(N)=O)n(C(=O)C(=O)CN)c2c1

>  <score_type>  (82) 
oracle

>  <origin>  (82) 
adg

>  <m_score__min__energy>  (82) 
-9

>  <m_primary>  (82) 
energy

$$$$
83:0
     RDKit          3D

 55 56  0  0  0  0  0  0  0  0999 V2000
   -8.6170   18.7410  -32.2350 C   0  0  0  0  0  0  0  0  0  0  0  0
   -8.0390   20.0880  -31.9170 C   0  0  0  0  0  0  0  0  0  0  0  0
   -8.8860   21.2220  -31.8500 C   0  0  0  0  0  0  0  0  0  0  0  0
   -8.3560   22.4970  -31.5900 C   0  0  0  0  0  0  0  0  0  0  0  0
   -6.9790   22.6090  -31.4240 C   0  0  0  0  0  0  0  0  0  0  0  0
   -6.2070   23.7100  -31.1350 C   0  0  0  0  0  0  0  0  0  0  0  0
   -4.9010   23.2310  -31.0520 C   0  0  0  0  0  0  0  0  0  0  0  0
   -3.7800   24.0320  -30.5290 C   0  0  0  0  0  0  0  0  0  0  0  0
   -3.8860   25.4500  -30.4580 N   0  0  0  0  0  0  0  0  0  0  0  0
   -2.7530   23.4660  -30.0750 O   0  0  0  0  0  0  0  0  0  0  0  0
   -4.8620   21.8960  -31.3160 N   0  0  0  0  0  0  0  0  0  0  0  0
   -3.7080   21.0460  -31.4080 C   0  0  0  0  0  0  0  0  0  0  0  0
   -3.4870   20.1940  -30.5070 O   0  0  0  0  0  0  0  0  0  0  0  0
   -2.8340   21.1140  -32.5510 N   0  0  0  0  0  0  0  0  0  0  0  0
   -1.4000   21.3340  -32.3180 C   0  0  0  0  0  0  0  0  0  0  0  0
   -0.6080   20.9910  -33.5410 C   0  0  0  0  0  0  0  0  0  0  0  0
   -0.3980   19.7870  -33.8440 O   0  0  0  0  0  0  0  0  0  0  0  0
   -0.1250   21.9990  -34.3660 O   0  0  0  0  0  0  0  0  0  0  0  0
   -3.2060   20.3700  -33.7640 C   0  0  0  0  0  0  0  0  0  0  0  0
   -3.8550   19.0480  -33.4720 C   0  0  0  0  0  0  0  0  0  0  0  0
   -3.4200   18.3430  -32.5240 O   0  0  0  0  0  0  0  0  0  0  0  0
   -4.8530   18.5090  -34.3510 N   0  0  0  0  0  0  0  0  0  0  0  0
   -6.0640   19.2960  -34.5960 C   0  0  0  0  0  0  0  0  0  0  0  0
   -4.6230   17.2620  -35.0850 C   0  0  0  0  0  0  0  0  0  0  0  0
   -4.4050   16.0960  -34.1060 C   0  0  0  0  0  0  0  0  0  0  0  0
   -5.6560   15.7570  -33.3940 N   0  0  0  0  0  0  0  0  0  0  0  0
   -5.7070   16.4660  -32.1050 C   0  0  0  0  0  0  0  0  0  0  0  0
   -6.8370   16.1180  -34.1940 C   0  0  0  0  0  0  0  0  0  0  0  0
   -6.1440   21.5240  -31.5100 C   0  0  0  0  0  0  0  0  0  0  0  0
   -6.6450   20.2410  -31.7500 C   0  0  0  0  0  0  0  0  0  0  0  0
   -8.8450   18.2096  -31.2992 H   0  0  0  0  0  0  0  0  0  0  0  0
   -9.5403   18.8669  -32.8195 H   0  0  0  0  0  0  0  0  0  0  0  0
   -7.8896   18.1586  -32.8195 H   0  0  0  0  0  0  0  0  0  0  0  0
   -9.9688   21.1030  -32.0030 H   0  0  0  0  0  0  0  0  0  0  0  0
   -9.0093   23.3792  -31.5199 H   0  0  0  0  0  0  0  0  0  0  0  0
   -6.5477   24.7470  -30.9986 H   0  0  0  0  0  0  0  0  0  0  0  0
   -3.5000   26.0550  -31.2170 H   0  0  0  0  0  0  0  0  0  0  0  0
   -1.2332   22.3912  -32.0642 H   0  0  0  0  0  0  0  0  0  0  0  0
   -1.0722   20.6873  -31.4907 H   0  0  0  0  0  0  0  0  0  0  0  0
   -3.9084   20.9827  -34.3482 H   0  0  0  0  0  0  0  0  0  0  0  0
   -2.2783   20.1632  -34.3177 H   0  0  0  0  0  0  0  0  0  0  0  0
   -6.5125   19.5875  -33.6348 H   0  0  0  0  0  0  0  0  0  0  0  0
   -5.8050   20.1988  -35.1686 H   0  0  0  0  0  0  0  0  0  0  0  0
   -6.7838   18.6926  -35.1686 H   0  0  0  0  0  0  0  0  0  0  0  0
   -5.4976   17.0465  -35.7164 H   0  0  0  0  0  0  0  0  0  0  0  0
   -3.7248   17.3761  -35.7097 H   0  0  0  0  0  0  0  0  0  0  0  0
   -4.0614   15.2149  -34.6677 H   0  0  0  0  0  0  0  0  0  0  0  0
   -3.6520   16.3995  -33.3637 H   0  0  0  0  0  0  0  0  0  0  0  0
   -5.6545   15.7368  -31.2831 H   0  0  0  0  0  0  0  0  0  0  0  0
   -4.8565   17.1600  -32.0343 H   0  0  0  0  0  0  0  0  0  0  0  0
   -6.6481   17.0311  -32.0343 H   0  0  0  0  0  0  0  0  0  0  0  0
   -7.6705   16.3728  -33.5229 H   0  0  0  0  0  0  0  0  0  0  0  0
   -6.5991   16.9845  -34.8286 H   0  0  0  0  0  0  0  0  0  0  0  0
   -7.1242   15.2666  -34.8286 H   0  0  0  0  0  0  0  0  0  0  0  0
   -5.9711   19.3735  -31.8073 H   0  0  0  0  0  0  0  0  0  0  0  0
  1  2  1  0
  2  3  2  0
  3  4  1  0
  4  5  2  0
  5  6  1  0
  6  7  2  0
  7  8  1  0
  8  9  1  0
  8 10  2  0
  7 11  1  0
 11 12  1  0
 12 13  2  0
 12 14  1  0
 14 15  1  0
 15 16  1  0
 16 17  2  0
 16 18  1  0
 14 19  1  0
 19 20  1  0
 20 21  2  0
 20 22  1  0
 22 23  1  0
 22 24  1  0
 24 25  1  0
 25 26  1  0
 26 27  1  0
 26 28  1  0
 11 29  1  0
 29 30  2  0
 30  2  1  0
 29  5  1  0
  1 31  1  0
  1 32  1  0
  1 33  1  0
  3 34  1  0
  4 35  1  0
  6 36  1  0
  9 37  1  0
 15 38  1  0
 15 39  1  0
 19 40  1  0
 19 41  1  0
 23 42  1  0
 23 43  1  0
 23 44  1  0
 24 45  1  0
 24 46  1  0
 25 47  1  0
 25 48  1  0
 27 49  1  0
 27 50  1  0
 27 51  1  0
 28 52  1  0
 28 53  1  0
 28 54  1  0
 30 55  1  0
M  CHG  2   9  -1  18  -1
M  END
>  <UniqueID>  (83) 
83

>  <SMILES>  (83) 
Cc1ccc2cc(C([NH-])=O)n(C(=O)N(CC(=O)[O-])CC(=O)N(C)CCN(C)C)c2c1

>  <Energy>  (83) 
97.8336012019739

>  <Genealogy>  (83) 
Cc1ccc2cc(C([NH-])=O)n(C(=O)N(CC(=O)[O-])CC(=O)N(C)CCN(C)C)c2c1 (protonated)
Cc1ccc2cc(C([NH-])=O)n(C(=O)N(CC(=O)[O-])CC(=O)N(C)CCN(C)C)c2c1 (3D coordinates assigned)
Cc1ccc2cc(C([NH-])=O)n(C(=O)N(CC(=O)[O-])CC(=O)N(C)CCN(C)C)c2c1 (optimized conformer: 97.8336012019739 kcal/mol)

>  <smiles>  (83) 
Cc1ccc2cc(C(N)=O)n(C(=O)N(CC(=O)O)CC(=O)N(C)CCN(C)C)c2c1

>  <score_type>  (83) 
oracle

>  <origin>  (83) 
adg

>  <m_score__min__energy>  (83) 
-11.869999999999999

>  <m_primary>  (83) 
energy

$$$$
84:0
     RDKit          3D

 38 39  0  0  0  0  0  0  0  0999 V2000
   -3.8600   25.3160  -30.8060 N   0  0  0  0  0  0  0  0  0  0  0  0
   -4.8950   24.5440  -30.2050 C   0  0  0  0  0  0  0  0  0  0  0  0
   -5.3700   24.9080  -29.0960 O   0  0  0  0  0  0  0  0  0  0  0  0
   -5.3920   23.3050  -30.8430 C   0  0  0  0  0  0  0  0  0  0  0  0
   -6.5860   23.2330  -31.5580 C   0  0  0  0  0  0  0  0  0  0  0  0
   -6.7100   21.9140  -31.9290 C   0  0  0  0  0  0  0  0  0  0  0  0
   -7.7050   21.2800  -32.6680 C   0  0  0  0  0  0  0  0  0  0  0  0
   -7.5620   19.9060  -32.9240 C   0  0  0  0  0  0  0  0  0  0  0  0
   -6.4300   19.1970  -32.4480 C   0  0  0  0  0  0  0  0  0  0  0  0
   -6.2890   17.7310  -32.7450 C   0  0  0  0  0  0  0  0  0  0  0  0
   -6.7220   17.4730  -34.0330 F   0  0  0  0  0  0  0  0  0  0  0  0
   -4.9630   17.3570  -32.6250 F   0  0  0  0  0  0  0  0  0  0  0  0
   -5.4380   19.8750  -31.7050 C   0  0  0  0  0  0  0  0  0  0  0  0
   -5.6170   21.2380  -31.4490 C   0  0  0  0  0  0  0  0  0  0  0  0
   -4.8010   22.0800  -30.7780 N   0  0  0  0  0  0  0  0  0  0  0  0
   -3.5350   21.7520  -30.1820 C   0  0  0  0  0  0  0  0  0  0  0  0
   -3.5020   21.0090  -29.1640 O   0  0  0  0  0  0  0  0  0  0  0  0
   -2.2500   22.2990  -30.7280 C   0  0  0  0  0  0  0  0  0  0  0  0
   -1.8850   23.4670  -30.0180 O   0  0  0  0  0  0  0  0  0  0  0  0
   -1.7160   23.1810  -28.6430 C   0  0  0  0  0  0  0  0  0  0  0  0
   -2.0050   24.4340  -27.8080 C   0  0  0  0  0  0  0  0  0  0  0  0
   -0.9940   25.5530  -28.0790 C   0  0  0  0  0  0  0  0  0  0  0  0
   -1.2220   26.1330  -29.3350 O   0  0  0  0  0  0  0  0  0  0  0  0
   -2.8820   25.2820  -30.4410 H   0  0  0  0  0  0  0  0  0  0  0  0
   -7.2816   24.0560  -31.7789 H   0  0  0  0  0  0  0  0  0  0  0  0
   -8.5768   21.8380  -33.0402 H   0  0  0  0  0  0  0  0  0  0  0  0
   -8.3352   19.3754  -33.4989 H   0  0  0  0  0  0  0  0  0  0  0  0
   -6.8985   17.1581  -32.0307 H   0  0  0  0  0  0  0  0  0  0  0  0
   -4.5475   19.3442  -31.3372 H   0  0  0  0  0  0  0  0  0  0  0  0
   -1.4572   21.5440  -30.6208 H   0  0  0  0  0  0  0  0  0  0  0  0
   -2.3844   22.5479  -31.7910 H   0  0  0  0  0  0  0  0  0  0  0  0
   -2.4099   22.3795  -28.3496 H   0  0  0  0  0  0  0  0  0  0  0  0
   -0.6790   22.8598  -28.4655 H   0  0  0  0  0  0  0  0  0  0  0  0
   -3.0130   24.7994  -28.0539 H   0  0  0  0  0  0  0  0  0  0  0  0
   -1.9286   24.1583  -26.7459 H   0  0  0  0  0  0  0  0  0  0  0  0
   -1.0926   26.3249  -27.3015 H   0  0  0  0  0  0  0  0  0  0  0  0
    0.0193   25.1252  -28.0655 H   0  0  0  0  0  0  0  0  0  0  0  0
   -1.9980   25.6610  -29.7350 H   0  0  0  0  0  0  0  0  0  0  0  0
  1  2  1  0
  2  3  2  0
  2  4  1  0
  4  5  2  0
  5  6  1  0
  6  7  2  0
  7  8  1  0
  8  9  2  0
  9 10  1  0
 10 11  1  0
 10 12  1  0
  9 13  1  0
 13 14  2  0
 14 15  1  0
 15 16  1  0
 16 17  2  0
 16 18  1  0
 18 19  1  0
 19 20  1  0
 20 21  1  0
 21 22  1  0
 22 23  1  0
 15  4  1  0
 14  6  1  0
  1 24  1  0
  5 25  1  0
  7 26  1  0
  8 27  1  0
 10 28  1  0
 13 29  1  0
 18 30  1  0
 18 31  1  0
 20 32  1  0
 20 33  1  0
 21 34  1  0
 21 35  1  0
 22 36  1  0
 22 37  1  0
 23 38  1  0
M  CHG  1   1  -1
M  END
>  <UniqueID>  (84) 
84

>  <SMILES>  (84) 
[NH-]C(=O)c1cc2ccc(C(F)F)cc2n1C(=O)COCCCO

>  <Energy>  (84) 
75.13091910907328

>  <Genealogy>  (84) 
[NH-]C(=O)c1cc2ccc(C(F)F)cc2n1C(=O)COCCCO (protonated)
[NH-]C(=O)c1cc2ccc(C(F)F)cc2n1C(=O)COCCCO (3D coordinates assigned)
[NH-]C(=O)c1cc2ccc(C(F)F)cc2n1C(=O)COCCCO (optimized conformer: 75.13091910907328 kcal/mol)

>  <smiles>  (84) 
NC(=O)c1cc2ccc(C(F)F)cc2n1C(=O)COCCCO

>  <score_type>  (84) 
oracle

>  <origin>  (84) 
adg

>  <m_score__min__energy>  (84) 
-10.18

>  <m_primary>  (84) 
energy

$$$$
85:0
     RDKit          3D

 35 36  0  0  0  0  0  0  0  0999 V2000
   -3.0670   25.2040  -30.4100 H   0  0  0  0  0  0  0  0  0  0  0  0
   -3.9130   25.6450  -30.8340 N   0  0  0  0  0  0  0  0  0  0  0  0
   -5.2230   25.2370  -30.4500 C   0  0  0  0  0  0  0  0  0  0  0  0
   -5.9030   25.9820  -29.6920 O   0  0  0  0  0  0  0  0  0  0  0  0
   -5.7820   23.9420  -30.8940 C   0  0  0  0  0  0  0  0  0  0  0  0
   -7.1090   23.7670  -31.2810 C   0  0  0  0  0  0  0  0  0  0  0  0
   -7.8899   24.5385  -31.3511 H   0  0  0  0  0  0  0  0  0  0  0  0
   -7.2360   22.4250  -31.5570 C   0  0  0  0  0  0  0  0  0  0  0  0
   -8.3420   21.7000  -31.9930 C   0  0  0  0  0  0  0  0  0  0  0  0
   -9.3147   22.1888  -32.1508 H   0  0  0  0  0  0  0  0  0  0  0  0
   -8.1760   20.3240  -32.2250 C   0  0  0  0  0  0  0  0  0  0  0  0
   -9.0340   19.7199  -32.5550 H   0  0  0  0  0  0  0  0  0  0  0  0
   -6.9140   19.7070  -32.0380 C   0  0  0  0  0  0  0  0  0  0  0  0
   -6.7560   18.2330  -32.2630 C   0  0  0  0  0  0  0  0  0  0  0  0
   -6.3547   18.0573  -33.2720 H   0  0  0  0  0  0  0  0  0  0  0  0
   -6.0627   17.8207  -31.5151 H   0  0  0  0  0  0  0  0  0  0  0  0
   -7.9850   17.6130  -32.1420 F   0  0  0  0  0  0  0  0  0  0  0  0
   -5.8190   20.4720  -31.5820 C   0  0  0  0  0  0  0  0  0  0  0  0
   -4.8349   20.0077  -31.4209 H   0  0  0  0  0  0  0  0  0  0  0  0
   -6.0170   21.8360  -31.3400 C   0  0  0  0  0  0  0  0  0  0  0  0
   -5.1150   22.7540  -30.9280 N   0  0  0  0  0  0  0  0  0  0  0  0
   -3.7210   22.5210  -30.6730 C   0  0  0  0  0  0  0  0  0  0  0  0
   -2.8590   23.1820  -31.3100 O   0  0  0  0  0  0  0  0  0  0  0  0
   -3.3190   21.5230  -29.6580 C   0  0  0  0  0  0  0  0  0  0  0  0
   -3.4969   20.4618  -29.8865 H   0  0  0  0  0  0  0  0  0  0  0  0
   -2.7550   21.8190  -28.4830 C   0  0  0  0  0  0  0  0  0  0  0  0
   -2.4370   20.7880  -27.6050 O   0  0  0  0  0  0  0  0  0  0  0  0
   -3.1610   20.3210  -27.0750 H   0  0  0  0  0  0  0  0  0  0  0  0
   -2.4700   23.1310  -28.1130 O   0  0  0  0  0  0  0  0  0  0  0  0
   -2.2060   24.4790  -27.7620 C   0  0  0  0  0  0  0  0  0  0  0  0
   -3.1027   25.0883  -27.9483 H   0  0  0  0  0  0  0  0  0  0  0  0
   -1.9389   24.5337  -26.6963 H   0  0  0  0  0  0  0  0  0  0  0  0
   -1.0740   24.9970  -28.5840 C   0  0  0  0  0  0  0  0  0  0  0  0
   -1.2380   25.9910  -29.3380 O   0  0  0  0  0  0  0  0  0  0  0  0
    0.1600   24.3590  -28.5450 O   0  0  0  0  0  0  0  0  0  0  0  0
  1  2  1  0
  2  3  1  0
  3  4  2  0
  3  5  1  0
  5  6  2  0
  6  7  1  0
  6  8  1  0
  8  9  2  0
  9 10  1  0
  9 11  1  0
 11 12  1  0
 11 13  2  0
 13 14  1  0
 14 15  1  0
 14 16  1  0
 14 17  1  0
 13 18  1  0
 18 19  1  0
 18 20  2  0
 20 21  1  0
 21 22  1  0
 22 23  2  0
 22 24  1  0
 24 25  1  0
 24 26  2  0
 26 27  1  0
 27 28  1  0
 26 29  1  0
 29 30  1  0
 30 31  1  0
 30 32  1  0
 30 33  1  0
 33 34  2  0
 33 35  1  0
 21  5  1  0
 20  8  1  0
M  CHG  2   2  -1  35  -1
M  END
>  <UniqueID>  (85) 
85

>  <SMILES>  (85) 
[NH-]C(=O)c1cc2ccc(CF)cc2n1C(=O)/C=C(/O)OCC(=O)[O-]

>  <Energy>  (85) 
126.81822833698976

>  <Genealogy>  (85) 
[NH-]C(=O)c1cc2ccc(CF)cc2n1C(=O)C=C(O)OCC(=O)[O-] (protonated)
[NH-]C(=O)c1cc2ccc(CF)cc2n1C(=O)/C=C(/O)OCC(=O)[O-] (cis-trans isomerization)
[NH-]C(=O)c1cc2ccc(CF)cc2n1C(=O)/C=C(/O)OCC(=O)[O-] (3D coordinates assigned)
[NH-]C(=O)c1cc2ccc(CF)cc2n1C(=O)/C=C(/O)OCC(=O)[O-] (optimized conformer: 126.81822833698976 kcal/mol)

>  <smiles>  (85) 
NC(=O)c1cc2ccc(CF)cc2n1C(=O)C=C(O)OCC(=O)O

>  <score_type>  (85) 
oracle

>  <origin>  (85) 
adg

>  <m_score__min__energy>  (85) 
-11.26

>  <m_primary>  (85) 
energy

$$$$
86:0
     RDKit          3D

 47 48  0  0  0  0  0  0  0  0999 V2000
   -3.4520   24.2300  -26.7860 C   0  0  0  0  0  0  0  0  0  0  0  0
   -2.8690   24.4760  -28.1210 N   0  0  2  0  0  0  0  0  0  0  0  0
   -2.4790   23.1940  -28.7590 C   0  0  0  0  0  0  0  0  0  0  0  0
   -3.6460   22.1940  -28.8630 C   0  0  0  0  0  0  0  0  0  0  0  0
   -4.1170   22.0430  -30.2820 C   0  0  0  0  0  0  0  0  0  0  0  0
   -3.3480   21.5510  -31.1510 O   0  0  0  0  0  0  0  0  0  0  0  0
   -5.4200   22.5070  -30.6630 N   0  0  0  0  0  0  0  0  0  0  0  0
   -5.8570   23.7940  -30.7290 C   0  0  0  0  0  0  0  0  0  0  0  0
   -5.1280   24.9730  -30.2240 C   0  0  0  0  0  0  0  0  0  0  0  0
   -3.8820   25.3390  -30.8070 N   0  0  0  0  0  0  0  0  0  0  0  0
   -5.6200   25.6960  -29.3180 O   0  0  0  0  0  0  0  0  0  0  0  0
   -7.1330   23.8480  -31.2860 C   0  0  0  0  0  0  0  0  0  0  0  0
   -7.4660   22.5400  -31.5590 C   0  0  0  0  0  0  0  0  0  0  0  0
   -8.6060   22.0050  -32.1510 C   0  0  0  0  0  0  0  0  0  0  0  0
   -8.6600   20.6130  -32.3390 C   0  0  0  0  0  0  0  0  0  0  0  0
   -7.5900   19.7780  -31.9150 C   0  0  0  0  0  0  0  0  0  0  0  0
   -7.6420   18.2920  -32.1720 C   0  0  0  0  0  0  0  0  0  0  0  0
   -6.7960   17.6170  -31.3160 F   0  0  0  0  0  0  0  0  0  0  0  0
   -7.2540   18.0440  -33.4730 F   0  0  0  0  0  0  0  0  0  0  0  0
   -8.9250   17.8050  -31.9830 F   0  0  0  0  0  0  0  0  0  0  0  0
   -6.4420   20.3630  -31.3330 C   0  0  0  0  0  0  0  0  0  0  0  0
   -6.4160   21.7500  -31.1630 C   0  0  0  0  0  0  0  0  0  0  0  0
   -1.7370   25.3810  -28.0350 C   0  0  0  0  0  0  0  0  0  0  0  0
   -1.2290   25.8390  -29.0950 O   0  0  0  0  0  0  0  0  0  0  0  0
   -1.1760   25.7440  -26.7630 N   0  0  0  0  0  0  0  0  0  0  0  0
    0.2320   25.9670  -26.5900 C   0  0  0  0  0  0  0  0  0  0  0  0
    1.0520   25.5820  -27.4710 O   0  0  0  0  0  0  0  0  0  0  0  0
    0.6880   26.5590  -25.4070 O   0  0  0  0  0  0  0  0  0  0  0  0
    0.4760   25.9860  -24.1200 C   0  0  0  0  0  0  0  0  0  0  0  0
   -0.6250   25.1170  -24.1470 O   0  0  0  0  0  0  0  0  0  0  0  0
   -2.7333   24.5333  -26.0105 H   0  0  0  0  0  0  0  0  0  0  0  0
   -4.3776   24.8143  -26.6768 H   0  0  0  0  0  0  0  0  0  0  0  0
   -3.6792   23.1593  -26.6768 H   0  0  0  0  0  0  0  0  0  0  0  0
   -3.6150   24.9330  -28.6940 H   0  0  0  0  0  0  0  0  0  0  0  0
   -2.1073   23.4056  -29.7725 H   0  0  0  0  0  0  0  0  0  0  0  0
   -1.7062   22.7332  -28.1261 H   0  0  0  0  0  0  0  0  0  0  0  0
   -3.3114   21.2143  -28.4913 H   0  0  0  0  0  0  0  0  0  0  0  0
   -4.4830   22.5764  -28.2604 H   0  0  0  0  0  0  0  0  0  0  0  0
   -2.9950   25.2910  -30.2550 H   0  0  0  0  0  0  0  0  0  0  0  0
   -7.7440   24.7443  -31.4687 H   0  0  0  0  0  0  0  0  0  0  0  0
   -9.4396   22.6517  -32.4624 H   0  0  0  0  0  0  0  0  0  0  0  0
   -9.5413   20.1639  -32.8203 H   0  0  0  0  0  0  0  0  0  0  0  0
   -5.5896   19.7414  -31.0214 H   0  0  0  0  0  0  0  0  0  0  0  0
   -1.7820   25.7700  -25.9100 H   0  0  0  0  0  0  0  0  0  0  0  0
    1.3735   25.4248  -23.8208 H   0  0  0  0  0  0  0  0  0  0  0  0
    0.2766   26.7923  -23.3988 H   0  0  0  0  0  0  0  0  0  0  0  0
   -0.5310   24.5250  -23.3540 H   0  0  0  0  0  0  0  0  0  0  0  0
  1  2  1  0
  2  3  1  0
  3  4  1  0
  4  5  1  0
  5  6  2  0
  5  7  1  0
  7  8  1  0
  8  9  1  0
  9 10  1  0
  9 11  2  0
  8 12  2  0
 12 13  1  0
 13 14  2  0
 14 15  1  0
 15 16  2  0
 16 17  1  0
 17 18  1  0
 17 19  1  0
 17 20  1  0
 16 21  1  0
 21 22  2  0
  2 23  1  0
 23 24  2  0
 23 25  1  0
 25 26  1  0
 26 27  2  0
 26 28  1  0
 28 29  1  0
 29 30  1  0
 22  7  1  0
 22 13  1  0
  1 31  1  0
  1 32  1  0
  1 33  1  0
  2 34  1  6
  3 35  1  0
  3 36  1  0
  4 37  1  0
  4 38  1  0
 10 39  1  0
 12 40  1  0
 14 41  1  0
 15 42  1  0
 21 43  1  0
 25 44  1  0
 29 45  1  0
 29 46  1  0
 30 47  1  0
M  CHG  2   2   1  10  -1
M  END
>  <UniqueID>  (86) 
86

>  <SMILES>  (86) 
C[N@H+](CCC(=O)n1c(C([NH-])=O)cc2ccc(C(F)(F)F)cc21)C(=O)NC(=O)OCO

>  <Energy>  (86) 
86.63984049842108

>  <Genealogy>  (86) 
C[NH+](CCC(=O)n1c(C([NH-])=O)cc2ccc(C(F)(F)F)cc21)C(=O)NC(=O)OCO (protonated)
C[N@H+](CCC(=O)n1c(C([NH-])=O)cc2ccc(C(F)(F)F)cc21)C(=O)NC(=O)OCO (chirality)
C[N@H+](CCC(=O)n1c(C([NH-])=O)cc2ccc(C(F)(F)F)cc21)C(=O)NC(=O)OCO (3D coordinates assigned)
C[N@H+](CCC(=O)n1c(C([NH-])=O)cc2ccc(C(F)(F)F)cc21)C(=O)NC(=O)OCO (optimized conformer: 86.63984049842108 kcal/mol)

>  <smiles>  (86) 
CN(CCC(=O)n1c(C(N)=O)cc2ccc(C(F)(F)F)cc21)C(=O)NC(=O)OCO

>  <score_type>  (86) 
oracle

>  <origin>  (86) 
adg

>  <m_score__min__energy>  (86) 
-10.289999999999999

>  <m_primary>  (86) 
energy

$$$$
87:0
     RDKit          3D

 50 51  0  0  0  0  0  0  0  0999 V2000
   -6.8480   16.4490  -33.8170 C   0  0  0  0  0  0  0  0  0  0  0  0
   -6.9920   17.5190  -33.2820 C   0  0  0  0  0  0  0  0  0  0  0  0
   -7.1620   18.7970  -32.6420 C   0  0  0  0  0  0  0  0  0  0  0  0
   -8.4230   19.1530  -32.1030 C   0  0  0  0  0  0  0  0  0  0  0  0
   -8.6000   20.4000  -31.4790 C   0  0  0  0  0  0  0  0  0  0  0  0
   -7.5020   21.2580  -31.4080 C   0  0  0  0  0  0  0  0  0  0  0  0
   -7.4010   22.5300  -30.8920 C   0  0  0  0  0  0  0  0  0  0  0  0
   -6.0790   22.9120  -31.1100 C   0  0  0  0  0  0  0  0  0  0  0  0
   -5.5180   24.2000  -30.6680 C   0  0  0  0  0  0  0  0  0  0  0  0
   -5.5810   24.5960  -29.2920 N   0  0  0  0  0  0  0  0  0  0  0  0
   -5.0330   24.9910  -31.5220 O   0  0  0  0  0  0  0  0  0  0  0  0
   -5.3940   21.9240  -31.7480 N   0  0  0  0  0  0  0  0  0  0  0  0
   -4.0550   21.9670  -32.2620 C   0  0  0  0  0  0  0  0  0  0  0  0
   -3.8790   22.3000  -33.4660 O   0  0  0  0  0  0  0  0  0  0  0  0
   -2.9180   21.6680  -31.4170 N   0  0  0  0  0  0  0  0  0  0  0  0
   -2.8490   22.2130  -30.0530 C   0  0  0  0  0  0  0  0  0  0  0  0
   -1.4430   22.7470  -29.7430 C   0  0  0  0  0  0  0  0  0  0  0  0
   -1.4840   23.7580  -28.6660 N   0  0  0  0  0  0  0  0  0  0  0  0
   -1.8840   25.0870  -29.0530 C   0  0  0  0  0  0  0  0  0  0  0  0
   -1.0980   26.0640  -28.9110 O   0  0  0  0  0  0  0  0  0  0  0  0
   -3.1160   25.2870  -29.6660 O   0  0  0  0  0  0  0  0  0  0  0  0
   -1.0620   23.4100  -27.2750 C   0  0  0  0  0  0  0  0  0  0  0  0
   -1.5570   22.0070  -26.8410 C   0  0  0  0  0  0  0  0  0  0  0  0
   -1.6290   24.4500  -26.2850 C   0  0  0  0  0  0  0  0  0  0  0  0
    0.4820   23.3930  -27.1850 C   0  0  0  0  0  0  0  0  0  0  0  0
   -1.8810   20.7580  -31.8610 C   0  0  0  0  0  0  0  0  0  0  0  0
   -2.1070   19.5150  -31.9560 O   0  0  0  0  0  0  0  0  0  0  0  0
   -0.6330   21.2380  -32.2340 O   0  0  0  0  0  0  0  0  0  0  0  0
   -6.2750   20.9160  -31.9150 C   0  0  0  0  0  0  0  0  0  0  0  0
   -6.0710   19.6880  -32.5530 C   0  0  0  0  0  0  0  0  0  0  0  0
   -6.7165   15.4722  -34.3054 H   0  0  0  0  0  0  0  0  0  0  0  0
   -9.2668   18.4508  -32.1731 H   0  0  0  0  0  0  0  0  0  0  0  0
   -9.5744   20.6906  -31.0594 H   0  0  0  0  0  0  0  0  0  0  0  0
   -8.1949   23.1194  -30.4101 H   0  0  0  0  0  0  0  0  0  0  0  0
   -5.1600   25.5040  -28.9930 H   0  0  0  0  0  0  0  0  0  0  0  0
   -6.0900   24.0210  -28.5820 H   0  0  0  0  0  0  0  0  0  0  0  0
   -3.5747   23.0340  -29.9568 H   0  0  0  0  0  0  0  0  0  0  0  0
   -3.0818   21.4068  -29.3418 H   0  0  0  0  0  0  0  0  0  0  0  0
   -0.8026   21.9105  -29.4265 H   0  0  0  0  0  0  0  0  0  0  0  0
   -1.0404   23.2196  -30.6511 H   0  0  0  0  0  0  0  0  0  0  0  0
   -1.5775   21.9489  -25.7427 H   0  0  0  0  0  0  0  0  0  0  0  0
   -2.5694   21.8369  -27.2361 H   0  0  0  0  0  0  0  0  0  0  0  0
   -0.8755   21.2393  -27.2361 H   0  0  0  0  0  0  0  0  0  0  0  0
   -1.4453   24.1131  -25.2541 H   0  0  0  0  0  0  0  0  0  0  0  0
   -1.1343   25.4189  -26.4477 H   0  0  0  0  0  0  0  0  0  0  0  0
   -2.7114   24.5591  -26.4477 H   0  0  0  0  0  0  0  0  0  0  0  0
    0.7877   23.3896  -26.1283 H   0  0  0  0  0  0  0  0  0  0  0  0
    0.8683   22.4905  -27.6813 H   0  0  0  0  0  0  0  0  0  0  0  0
    0.8881   24.2867  -27.6813 H   0  0  0  0  0  0  0  0  0  0  0  0
   -5.0891   19.4245  -32.9730 H   0  0  0  0  0  0  0  0  0  0  0  0
  1  2  3  0
  2  3  1  0
  3  4  2  0
  4  5  1  0
  5  6  2  0
  6  7  1  0
  7  8  2  0
  8  9  1  0
  9 10  1  0
  9 11  2  0
  8 12  1  0
 12 13  1  0
 13 14  2  0
 13 15  1  0
 15 16  1  0
 16 17  1  0
 17 18  1  0
 18 19  1  0
 19 20  2  0
 19 21  1  0
 18 22  1  0
 22 23  1  0
 22 24  1  0
 22 25  1  0
 15 26  1  0
 26 27  2  0
 26 28  1  0
 12 29  1  0
 29 30  2  0
 30  3  1  0
 29  6  1  0
  1 31  1  0
  4 32  1  0
  5 33  1  0
  7 34  1  0
 10 35  1  0
 10 36  1  0
 16 37  1  0
 16 38  1  0
 17 39  1  0
 17 40  1  0
 23 41  1  0
 23 42  1  0
 23 43  1  0
 24 44  1  0
 24 45  1  0
 24 46  1  0
 25 47  1  0
 25 48  1  0
 25 49  1  0
 30 50  1  0
M  CHG  2  21  -1  28  -1
M  END
>  <UniqueID>  (87) 
87

>  <SMILES>  (87) 
C#Cc1ccc2cc(C(N)=O)n(C(=O)N(CCN(C(=O)[O-])C(C)(C)C)C(=O)[O-])c2c1

>  <Energy>  (87) 
93.84031417951894

>  <Genealogy>  (87) 
C#Cc1ccc2cc(C(N)=O)n(C(=O)N(CCN(C(=O)[O-])C(C)(C)C)C(=O)[O-])c2c1 (protonated)
C#Cc1ccc2cc(C(N)=O)n(C(=O)N(CCN(C(=O)[O-])C(C)(C)C)C(=O)[O-])c2c1 (3D coordinates assigned)
C#Cc1ccc2cc(C(N)=O)n(C(=O)N(CCN(C(=O)[O-])C(C)(C)C)C(=O)[O-])c2c1 (optimized conformer: 93.84031417951894 kcal/mol)

>  <smiles>  (87) 
C#Cc1ccc2cc(C(N)=O)n(C(=O)N(CCN(C(=O)O)C(C)(C)C)C(=O)O)c2c1

>  <score_type>  (87) 
oracle

>  <origin>  (87) 
adg

>  <m_score__min__energy>  (87) 
-12.09

>  <m_primary>  (87) 
energy

$$$$
88:0
     RDKit          3D

 51 53  0  0  0  0  0  0  0  0999 V2000
    0.0460   20.9820  -28.6010 C   0  0  0  0  0  0  0  0  0  0  0  0
   -1.4410   21.4090  -28.7000 C   0  0  0  0  0  0  0  0  0  0  0  0
   -2.2180   20.8030  -27.5020 C   0  0  0  0  0  0  0  0  0  0  0  0
   -2.0610   20.8260  -30.0160 C   0  0  0  0  0  0  0  0  0  0  0  0
   -3.4570   21.2250  -30.2220 N   0  0  0  0  0  0  0  0  0  0  0  0
   -3.8370   22.4470  -30.8730 C   0  0  0  0  0  0  0  0  0  0  0  0
   -2.9560   23.2680  -31.2480 O   0  0  0  0  0  0  0  0  0  0  0  0
   -5.2250   22.7440  -31.0940 N   0  0  0  0  0  0  0  0  0  0  0  0
   -5.8820   23.9060  -30.8180 C   0  0  0  0  0  0  0  0  0  0  0  0
   -5.2620   25.1650  -30.3550 C   0  0  0  0  0  0  0  0  0  0  0  0
   -4.0180   25.6120  -30.8890 N   0  0  0  0  0  0  0  0  0  0  0  0
   -5.8570   25.8780  -29.5030 O   0  0  0  0  0  0  0  0  0  0  0  0
   -7.2410   23.7750  -31.0970 C   0  0  0  0  0  0  0  0  0  0  0  0
   -7.3970   22.4870  -31.5590 C   0  0  0  0  0  0  0  0  0  0  0  0
   -8.5460   21.8130  -31.9580 C   0  0  0  0  0  0  0  0  0  0  0  0
   -8.4190   20.4710  -32.3530 C   0  0  0  0  0  0  0  0  0  0  0  0
   -7.1520   19.8320  -32.3530 C   0  0  0  0  0  0  0  0  0  0  0  0
   -7.0370   18.3750  -32.7200 C   0  0  0  0  0  0  0  0  0  0  0  0
   -8.2130   17.7020  -32.4340 F   0  0  0  0  0  0  0  0  0  0  0  0
   -6.7740   18.2650  -34.0720 F   0  0  0  0  0  0  0  0  0  0  0  0
   -6.0110   17.7720  -32.0120 F   0  0  0  0  0  0  0  0  0  0  0  0
   -6.0130   20.5450  -31.9150 C   0  0  0  0  0  0  0  0  0  0  0  0
   -6.1650   21.8860  -31.5470 C   0  0  0  0  0  0  0  0  0  0  0  0
   -1.6000   22.9080  -28.6680 N   0  0  0  0  0  0  0  0  0  0  0  0
   -0.3300   23.6790  -28.6140 C   0  0  0  0  0  0  0  0  0  0  0  0
   -0.5780   25.1680  -28.3100 C   0  0  0  0  0  0  0  0  0  0  0  0
   -1.8710   25.5410  -28.7330 O   0  0  0  0  0  0  0  0  0  0  0  0
   -2.8480   24.9130  -27.9200 C   0  0  0  0  0  0  0  0  0  0  0  0
   -2.5420   23.4230  -27.6480 C   0  0  0  0  0  0  0  0  0  0  0  0
    0.3340   20.8993  -27.5426 H   0  0  0  0  0  0  0  0  0  0  0  0
    0.1816   20.0086  -29.0951 H   0  0  0  0  0  0  0  0  0  0  0  0
    0.6774   21.7351  -29.0951 H   0  0  0  0  0  0  0  0  0  0  0  0
   -1.7701   21.1523  -26.5600 H   0  0  0  0  0  0  0  0  0  0  0  0
   -3.2698   21.1217  -27.5482 H   0  0  0  0  0  0  0  0  0  0  0  0
   -2.1651   19.7052  -27.5482 H   0  0  0  0  0  0  0  0  0  0  0  0
   -1.4660   21.1813  -30.8703 H   0  0  0  0  0  0  0  0  0  0  0  0
   -2.0435   19.7296  -29.9283 H   0  0  0  0  0  0  0  0  0  0  0  0
   -4.2080   20.5460  -29.9630 H   0  0  0  0  0  0  0  0  0  0  0  0
   -3.1130   25.2980  -30.4760 H   0  0  0  0  0  0  0  0  0  0  0  0
   -8.0233   24.5385  -30.9742 H   0  0  0  0  0  0  0  0  0  0  0  0
   -9.5245   22.3154  -31.9641 H   0  0  0  0  0  0  0  0  0  0  0  0
   -9.3115   19.9092  -32.6658 H   0  0  0  0  0  0  0  0  0  0  0  0
   -5.0288   20.0563  -31.8646 H   0  0  0  0  0  0  0  0  0  0  0  0
    0.3100   23.2563  -27.8255 H   0  0  0  0  0  0  0  0  0  0  0  0
    0.1560   23.6071  -29.5982 H   0  0  0  0  0  0  0  0  0  0  0  0
   -0.4864   25.3383  -27.2271 H   0  0  0  0  0  0  0  0  0  0  0  0
    0.1655   25.7738  -28.8488 H   0  0  0  0  0  0  0  0  0  0  0  0
   -2.8951   25.4424  -26.9569 H   0  0  0  0  0  0  0  0  0  0  0  0
   -3.8044   24.9583  -28.4615 H   0  0  0  0  0  0  0  0  0  0  0  0
   -2.0914   23.3194  -26.6499 H   0  0  0  0  0  0  0  0  0  0  0  0
   -3.4777   22.8465  -27.6950 H   0  0  0  0  0  0  0  0  0  0  0  0
  1  2  1  0
  2  3  1  0
  2  4  1  0
  4  5  1  0
  5  6  1  0
  6  7  2  0
  6  8  1  0
  8  9  1  0
  9 10  1  0
 10 11  1  0
 10 12  2  0
  9 13  2  0
 13 14  1  0
 14 15  2  0
 15 16  1  0
 16 17  2  0
 17 18  1  0
 18 19  1  0
 18 20  1  0
 18 21  1  0
 17 22  1  0
 22 23  2  0
  2 24  1  0
 24 25  1  0
 25 26  1  0
 26 27  1  0
 27 28  1  0
 28 29  1  0
 23  8  1  0
 29 24  1  0
 23 14  1  0
  1 30  1  0
  1 31  1  0
  1 32  1  0
  3 33  1  0
  3 34  1  0
  3 35  1  0
  4 36  1  0
  4 37  1  0
  5 38  1  0
 11 39  1  0
 13 40  1  0
 15 41  1  0
 16 42  1  0
 22 43  1  0
 25 44  1  0
 25 45  1  0
 26 46  1  0
 26 47  1  0
 28 48  1  0
 28 49  1  0
 29 50  1  0
 29 51  1  0
M  CHG  1  11  -1
M  END
>  <UniqueID>  (88) 
88

>  <SMILES>  (88) 
CC(C)(CNC(=O)n1c(C([NH-])=O)cc2ccc(C(F)(F)F)cc21)N1CCOCC1

>  <Energy>  (88) 
107.90399091647438

>  <Genealogy>  (88) 
CC(C)(CNC(=O)n1c(C([NH-])=O)cc2ccc(C(F)(F)F)cc21)N1CCOCC1 (protonated)
CC(C)(CNC(=O)n1c(C([NH-])=O)cc2ccc(C(F)(F)F)cc21)N1CCOCC1 (3D coordinates assigned)
CC(C)(CNC(=O)n1c(C([NH-])=O)cc2ccc(C(F)(F)F)cc21)N1CCOCC1 (nonaromatic ring conformer: 107.90399091647438 kcal/mol)

>  <smiles>  (88) 
CC(C)(CNC(=O)n1c(C(N)=O)cc2ccc(C(F)(F)F)cc21)N1CCOCC1

>  <score_type>  (88) 
oracle

>  <origin>  (88) 
adg

>  <m_score__min__energy>  (88) 
-11.140000000000001

>  <m_primary>  (88) 
energy

$$$$
89:0
     RDKit          3D

 38 39  0  0  0  0  0  0  0  0999 V2000
   -4.3700   17.4740  -35.2970 C   0  0  0  0  0  0  0  0  0  0  0  0
   -5.1880   18.0670  -34.4290 C   0  0  0  0  0  0  0  0  0  0  0  0
   -6.1500   17.3150  -33.5880 C   0  0  0  0  0  0  0  0  0  0  0  0
   -6.7700   16.2520  -34.1020 C   0  0  0  0  0  0  0  0  0  0  0  0
   -6.4650   17.7250  -32.2440 N   0  0  0  0  0  0  0  0  0  0  0  0
   -6.8490   19.0620  -31.8780 C   0  0  0  0  0  0  0  0  0  0  0  0
   -8.2230   19.3730  -31.7330 C   0  0  0  0  0  0  0  0  0  0  0  0
   -8.6340   20.6650  -31.3630 C   0  0  0  0  0  0  0  0  0  0  0  0
   -7.6500   21.6260  -31.1490 C   0  0  0  0  0  0  0  0  0  0  0  0
   -7.7650   22.9410  -30.7570 C   0  0  0  0  0  0  0  0  0  0  0  0
   -6.4570   23.4200  -30.6790 C   0  0  0  0  0  0  0  0  0  0  0  0
   -6.0950   24.8130  -30.3240 C   0  0  0  0  0  0  0  0  0  0  0  0
   -5.8150   25.1790  -28.9710 N   0  0  0  0  0  0  0  0  0  0  0  0
   -6.0420   25.7000  -31.2170 O   0  0  0  0  0  0  0  0  0  0  0  0
   -5.5730   22.4390  -31.0210 N   0  0  0  0  0  0  0  0  0  0  0  0
   -4.1410   22.5240  -31.0520 C   0  0  0  0  0  0  0  0  0  0  0  0
   -3.5390   22.5580  -32.1590 O   0  0  0  0  0  0  0  0  0  0  0  0
   -3.3450   22.5150  -29.7800 C   0  0  0  0  0  0  0  0  0  0  0  0
   -2.9340   24.2160  -29.2900 P   0  0  0  0  0  0  0  0  0  0  0  0
   -3.5890   24.5270  -27.9640 O   0  0  0  0  0  0  0  0  0  0  0  0
   -1.2560   24.3690  -29.1340 O   0  0  0  0  0  0  0  0  0  0  0  0
   -3.4930   25.3010  -30.4600 O   0  0  0  0  0  0  0  0  0  0  0  0
   -6.3180   21.3470  -31.2930 C   0  0  0  0  0  0  0  0  0  0  0  0
   -5.8780   20.0610  -31.6260 C   0  0  0  0  0  0  0  0  0  0  0  0
   -3.6742   18.0780  -35.8979 H   0  0  0  0  0  0  0  0  0  0  0  0
   -4.3903   16.3803  -35.4130 H   0  0  0  0  0  0  0  0  0  0  0  0
   -5.1481   19.1620  -34.3319 H   0  0  0  0  0  0  0  0  0  0  0  0
   -7.4864   15.6840  -33.4903 H   0  0  0  0  0  0  0  0  0  0  0  0
   -6.5650   15.9432  -35.1377 H   0  0  0  0  0  0  0  0  0  0  0  0
   -6.3340   17.0260  -31.4780 H   0  0  0  0  0  0  0  0  0  0  0  0
   -8.9781   18.5934  -31.9122 H   0  0  0  0  0  0  0  0  0  0  0  0
   -9.7002   20.9092  -31.2461 H   0  0  0  0  0  0  0  0  0  0  0  0
   -8.6917   23.4961  -30.5494 H   0  0  0  0  0  0  0  0  0  0  0  0
   -5.7760   24.4700  -28.2080 H   0  0  0  0  0  0  0  0  0  0  0  0
   -5.5970   26.1720  -28.7330 H   0  0  0  0  0  0  0  0  0  0  0  0
   -3.9366   22.0397  -28.9837 H   0  0  0  0  0  0  0  0  0  0  0  0
   -2.4142   21.9514  -29.9412 H   0  0  0  0  0  0  0  0  0  0  0  0
   -4.8040   19.8319  -31.6904 H   0  0  0  0  0  0  0  0  0  0  0  0
  1  2  2  0
  2  3  1  0
  3  4  2  0
  3  5  1  0
  5  6  1  0
  6  7  2  0
  7  8  1  0
  8  9  2  0
  9 10  1  0
 10 11  2  0
 11 12  1  0
 12 13  1  0
 12 14  2  0
 11 15  1  0
 15 16  1  0
 16 17  2  0
 16 18  1  0
 18 19  1  0
 19 20  2  0
 19 21  1  0
 19 22  1  0
 15 23  1  0
 23 24  2  0
 24  6  1  0
 23  9  1  0
  1 25  1  0
  1 26  1  0
  2 27  1  0
  4 28  1  0
  4 29  1  0
  5 30  1  0
  7 31  1  0
  8 32  1  0
 10 33  1  0
 13 34  1  0
 13 35  1  0
 18 36  1  0
 18 37  1  0
 24 38  1  0
M  CHG  2  21  -1  22  -1
M  END
>  <UniqueID>  (89) 
89

>  <SMILES>  (89) 
C=CC(=C)Nc1ccc2cc(C(N)=O)n(C(=O)CP(=O)([O-])[O-])c2c1

>  <Energy>  (89) 
75.30288035302719

>  <Genealogy>  (89) 
C=CC(=C)Nc1ccc2cc(C(N)=O)n(C(=O)CP(=O)([O-])[O-])c2c1 (protonated)
C=CC(=C)Nc1ccc2cc(C(N)=O)n(C(=O)CP(=O)([O-])[O-])c2c1 (3D coordinates assigned)
C=CC(=C)Nc1ccc2cc(C(N)=O)n(C(=O)CP(=O)([O-])[O-])c2c1 (optimized conformer: 75.30288035302719 kcal/mol)

>  <smiles>  (89) 
C=CC(=C)Nc1ccc2cc(C(N)=O)n(C(=O)CP(=O)(O)O)c2c1

>  <score_type>  (89) 
oracle

>  <origin>  (89) 
adg

>  <m_score__min__energy>  (89) 
-12.41

>  <m_primary>  (89) 
energy

$$$$
90:0
     RDKit          3D

 30 31  0  0  0  0  0  0  0  0999 V2000
   -1.3370   25.7150  -29.0570 N   0  0  0  0  0  0  0  0  0  0  0  0
   -0.5620   24.5250  -28.9290 C   0  0  0  0  0  0  0  0  0  0  0  0
    0.5560   24.5640  -28.3490 O   0  0  0  0  0  0  0  0  0  0  0  0
   -1.0970   23.2270  -29.4400 C   0  0  0  0  0  0  0  0  0  0  0  0
   -2.5920   23.2840  -29.4920 C   0  0  0  0  0  0  0  0  0  0  0  0
   -3.2300   23.8290  -28.5520 O   0  0  0  0  0  0  0  0  0  0  0  0
   -3.2950   22.8290  -30.6560 N   0  0  0  0  0  0  0  0  0  0  0  0
   -4.3980   23.3760  -31.2360 C   0  0  0  0  0  0  0  0  0  0  0  0
   -5.0400   24.6450  -30.8370 C   0  0  0  0  0  0  0  0  0  0  0  0
   -4.2370   25.7610  -30.4590 N   0  0  0  0  0  0  0  0  0  0  0  0
   -6.2940   24.7490  -30.8060 O   0  0  0  0  0  0  0  0  0  0  0  0
   -4.8170   22.5960  -32.3140 C   0  0  0  0  0  0  0  0  0  0  0  0
   -3.9240   21.5480  -32.3750 C   0  0  0  0  0  0  0  0  0  0  0  0
   -3.8680   20.4640  -33.2450 C   0  0  0  0  0  0  0  0  0  0  0  0
   -2.8430   19.5210  -33.0570 C   0  0  0  0  0  0  0  0  0  0  0  0
   -1.9010   19.6760  -32.0080 C   0  0  0  0  0  0  0  0  0  0  0  0
   -0.8200   18.6500  -31.8180 C   0  0  0  0  0  0  0  0  0  0  0  0
    0.4170   19.2670  -31.8400 F   0  0  0  0  0  0  0  0  0  0  0  0
   -0.8840   17.7140  -32.8330 F   0  0  0  0  0  0  0  0  0  0  0  0
   -1.9910   20.7900  -31.1440 C   0  0  0  0  0  0  0  0  0  0  0  0
   -3.0150   21.7150  -31.3630 C   0  0  0  0  0  0  0  0  0  0  0  0
   -2.3440   25.6720  -29.3340 H   0  0  0  0  0  0  0  0  0  0  0  0
   -0.7027   23.0410  -30.4499 H   0  0  0  0  0  0  0  0  0  0  0  0
   -0.7862   22.4142  -28.7671 H   0  0  0  0  0  0  0  0  0  0  0  0
   -3.5010   25.6680  -29.7240 H   0  0  0  0  0  0  0  0  0  0  0  0
   -5.6772   22.7786  -32.9748 H   0  0  0  0  0  0  0  0  0  0  0  0
   -4.6032   20.3485  -34.0550 H   0  0  0  0  0  0  0  0  0  0  0  0
   -2.7706   18.6540  -33.7301 H   0  0  0  0  0  0  0  0  0  0  0  0
   -0.9626   18.1502  -30.8485 H   0  0  0  0  0  0  0  0  0  0  0  0
   -1.2741   20.9256  -30.3208 H   0  0  0  0  0  0  0  0  0  0  0  0
  1  2  1  0
  2  3  2  0
  2  4  1  0
  4  5  1  0
  5  6  2  0
  5  7  1  0
  7  8  1  0
  8  9  1  0
  9 10  1  0
  9 11  2  0
  8 12  2  0
 12 13  1  0
 13 14  2  0
 14 15  1  0
 15 16  2  0
 16 17  1  0
 17 18  1  0
 17 19  1  0
 16 20  1  0
 20 21  2  0
 21  7  1  0
 21 13  1  0
  1 22  1  0
  4 23  1  0
  4 24  1  0
 10 25  1  0
 12 26  1  0
 14 27  1  0
 15 28  1  0
 17 29  1  0
 20 30  1  0
M  CHG  2   1  -1  10  -1
M  END
>  <UniqueID>  (90) 
90

>  <SMILES>  (90) 
[NH-]C(=O)CC(=O)n1c(C([NH-])=O)cc2ccc(C(F)F)cc21

>  <Energy>  (90) 
66.5542073237438

>  <Genealogy>  (90) 
[NH-]C(=O)CC(=O)n1c(C([NH-])=O)cc2ccc(C(F)F)cc21 (protonated)
[NH-]C(=O)CC(=O)n1c(C([NH-])=O)cc2ccc(C(F)F)cc21 (3D coordinates assigned)
[NH-]C(=O)CC(=O)n1c(C([NH-])=O)cc2ccc(C(F)F)cc21 (optimized conformer: 66.5542073237438 kcal/mol)

>  <smiles>  (90) 
NC(=O)CC(=O)n1c(C(N)=O)cc2ccc(C(F)F)cc21

>  <score_type>  (90) 
oracle

>  <origin>  (90) 
adg

>  <m_score__min__energy>  (90) 
-11.51

>  <m_primary>  (90) 
energy

$$$$
91:0
     RDKit          3D

 39 41  0  0  0  0  0  0  0  0999 V2000
   -2.1270   22.0710  -31.5760 C   0  0  0  0  0  0  0  0  0  0  0  0
   -2.4090   22.4800  -30.3350 C   0  0  0  0  0  0  0  0  0  0  0  0
   -3.7920   22.4300  -29.7990 C   0  0  0  0  0  0  0  0  0  0  0  0
   -3.9800   22.2130  -28.5710 O   0  0  0  0  0  0  0  0  0  0  0  0
   -4.9330   22.5890  -30.6560 N   0  0  0  0  0  0  0  0  0  0  0  0
   -5.6150   23.7350  -30.9240 C   0  0  0  0  0  0  0  0  0  0  0  0
   -5.2500   25.0840  -30.4470 C   0  0  0  0  0  0  0  0  0  0  0  0
   -4.0080   25.6640  -30.8350 N   0  0  0  0  0  0  0  0  0  0  0  0
   -6.0220   25.7270  -29.6870 O   0  0  0  0  0  0  0  0  0  0  0  0
   -6.7100   23.4670  -31.7460 C   0  0  0  0  0  0  0  0  0  0  0  0
   -6.6760   22.1070  -31.9660 C   0  0  0  0  0  0  0  0  0  0  0  0
   -7.5390   21.2920  -32.6910 C   0  0  0  0  0  0  0  0  0  0  0  0
   -7.2730   19.9110  -32.7220 C   0  0  0  0  0  0  0  0  0  0  0  0
   -6.1480   19.3740  -32.0410 C   0  0  0  0  0  0  0  0  0  0  0  0
   -5.9050   17.8860  -32.0360 C   0  0  0  0  0  0  0  0  0  0  0  0
   -6.7800   17.2790  -32.9170 F   0  0  0  0  0  0  0  0  0  0  0  0
   -4.6060   17.6030  -32.4230 F   0  0  0  0  0  0  0  0  0  0  0  0
   -6.1030   17.3620  -30.7710 F   0  0  0  0  0  0  0  0  0  0  0  0
   -5.3120   20.2330  -31.2930 C   0  0  0  0  0  0  0  0  0  0  0  0
   -5.5950   21.6010  -31.2930 C   0  0  0  0  0  0  0  0  0  0  0  0
   -1.3090   22.9760  -29.4850 C   0  0  0  0  0  0  0  0  0  0  0  0
   -0.3420   22.2510  -28.9240 C   0  0  0  0  0  0  0  0  0  0  0  0
   -0.1960   20.7640  -29.0410 C   0  0  0  0  0  0  0  0  0  0  0  0
    0.5410   23.1090  -28.0560 C   0  0  0  0  0  0  0  0  0  0  0  0
   -0.0270   24.4490  -28.1610 N   0  0  0  0  0  0  0  0  0  0  0  0
   -1.1450   24.3350  -29.0220 C   0  0  0  0  0  0  0  0  0  0  0  0
   -1.8840   25.3050  -29.3350 O   0  0  0  0  0  0  0  0  0  0  0  0
   -1.0933   22.1185  -31.9492 H   0  0  0  0  0  0  0  0  0  0  0  0
   -2.9286   21.6869  -32.2240 H   0  0  0  0  0  0  0  0  0  0  0  0
   -3.1030   25.2940  -30.4670 H   0  0  0  0  0  0  0  0  0  0  0  0
   -7.4441   24.1877  -32.1355 H   0  0  0  0  0  0  0  0  0  0  0  0
   -8.4034   21.7146  -33.2241 H   0  0  0  0  0  0  0  0  0  0  0  0
   -7.9431   19.2400  -33.2794 H   0  0  0  0  0  0  0  0  0  0  0  0
   -4.4590   19.8342  -30.7244 H   0  0  0  0  0  0  0  0  0  0  0  0
   -0.1524   20.3196  -28.0357 H   0  0  0  0  0  0  0  0  0  0  0  0
   -1.0581   20.3527  -29.5866 H   0  0  0  0  0  0  0  0  0  0  0  0
    0.7296   20.5282  -29.5866 H   0  0  0  0  0  0  0  0  0  0  0  0
    0.5186   22.7587  -27.0135 H   0  0  0  0  0  0  0  0  0  0  0  0
    1.5939   23.0770  -28.3727 H   0  0  0  0  0  0  0  0  0  0  0  0
  1  2  2  0
  2  3  1  0
  3  4  2  0
  3  5  1  0
  5  6  1  0
  6  7  1  0
  7  8  1  0
  7  9  2  0
  6 10  2  0
 10 11  1  0
 11 12  2  0
 12 13  1  0
 13 14  2  0
 14 15  1  0
 15 16  1  0
 15 17  1  0
 15 18  1  0
 14 19  1  0
 19 20  2  0
  2 21  1  0
 21 22  2  0
 22 23  1  0
 22 24  1  0
 24 25  1  0
 25 26  1  0
 26 27  2  0
 20  5  1  0
 26 21  1  0
 20 11  1  0
  1 28  1  0
  1 29  1  0
  8 30  1  0
 10 31  1  0
 12 32  1  0
 13 33  1  0
 19 34  1  0
 23 35  1  0
 23 36  1  0
 23 37  1  0
 24 38  1  0
 24 39  1  0
M  CHG  2   8  -1  25  -1
M  END
>  <UniqueID>  (91) 
91

>  <SMILES>  (91) 
C=C(C(=O)n1c(C([NH-])=O)cc2ccc(C(F)(F)F)cc21)C1=C(C)C[N-]C1=O

>  <Energy>  (91) 
102.14465517427358

>  <Genealogy>  (91) 
C=C(C(=O)n1c(C([NH-])=O)cc2ccc(C(F)(F)F)cc21)C1=C(C)C[N-]C1=O (protonated)
C=C(C(=O)n1c(C([NH-])=O)cc2ccc(C(F)(F)F)cc21)C1=C(C)C[N-]C1=O (3D coordinates assigned)
C=C(C(=O)n1c(C([NH-])=O)cc2ccc(C(F)(F)F)cc21)C1=C(C)C[N-]C1=O (nonaromatic ring conformer: 102.14465517427358 kcal/mol)

>  <smiles>  (91) 
C=C(C(=O)n1c(C(N)=O)cc2ccc(C(F)(F)F)cc21)C1=C(C)CNC1=O

>  <score_type>  (91) 
oracle

>  <origin>  (91) 
adg

>  <m_score__min__energy>  (91) 
-12.69

>  <m_primary>  (91) 
energy

$$$$
92:0
     RDKit          3D

 36 37  0  0  0  0  0  0  0  0999 V2000
   -5.7680   25.2940  -28.7970 N   0  0  0  0  0  0  0  0  0  0  0  0
   -6.5350   25.3110  -30.0400 C   0  0  0  0  0  0  0  0  0  0  0  0
   -7.2360   23.9670  -30.2670 C   0  0  0  0  0  0  0  0  0  0  0  0
   -6.3220   22.9650  -30.9230 C   0  0  0  0  0  0  0  0  0  0  0  0
   -6.7740   22.2020  -32.0290 C   0  0  0  0  0  0  0  0  0  0  0  0
   -5.9230   21.2780  -32.6580 C   0  0  0  0  0  0  0  0  0  0  0  0
   -4.6280   21.1440  -32.1650 C   0  0  0  0  0  0  0  0  0  0  0  0
   -3.6020   20.3190  -32.5720 C   0  0  0  0  0  0  0  0  0  0  0  0
   -2.5360   20.6070  -31.7180 C   0  0  0  0  0  0  0  0  0  0  0  0
   -1.1860   20.0110  -31.8330 C   0  0  0  0  0  0  0  0  0  0  0  0
   -0.4390   19.6550  -30.6690 N   0  0  0  0  0  0  0  0  0  0  0  0
   -0.6880   19.7940  -32.9700 O   0  0  0  0  0  0  0  0  0  0  0  0
   -2.8950   21.5690  -30.8240 N   0  0  0  0  0  0  0  0  0  0  0  0
   -2.1160   22.1040  -29.7440 C   0  0  0  0  0  0  0  0  0  0  0  0
   -1.9240   21.4110  -28.7090 O   0  0  0  0  0  0  0  0  0  0  0  0
   -1.4300   23.4270  -29.8860 C   0  0  0  0  0  0  0  0  0  0  0  0
   -2.5340   24.7580  -29.3270 P   0  0  0  0  0  0  0  0  0  0  0  0
   -3.3930   24.2610  -28.1850 O   0  0  0  0  0  0  0  0  0  0  0  0
   -3.5270   25.2480  -30.6050 O   0  0  0  0  0  0  0  0  0  0  0  0
   -1.6070   26.0690  -28.8000 O   0  0  0  0  0  0  0  0  0  0  0  0
   -4.1720   21.8890  -31.1090 C   0  0  0  0  0  0  0  0  0  0  0  0
   -4.9980   22.8090  -30.4570 C   0  0  0  0  0  0  0  0  0  0  0  0
   -5.6380   24.2950  -28.5160 H   0  0  0  0  0  0  0  0  0  0  0  0
   -4.8110   25.6670  -28.9950 H   0  0  0  0  0  0  0  0  0  0  0  0
   -7.2917   26.1075  -29.9857 H   0  0  0  0  0  0  0  0  0  0  0  0
   -5.8450   25.4939  -30.8769 H   0  0  0  0  0  0  0  0  0  0  0  0
   -7.5642   23.5677  -29.2960 H   0  0  0  0  0  0  0  0  0  0  0  0
   -8.0940   24.1364  -30.9342 H   0  0  0  0  0  0  0  0  0  0  0  0
   -7.8016   22.3348  -32.3985 H   0  0  0  0  0  0  0  0  0  0  0  0
   -6.2691   20.6791  -33.5133 H   0  0  0  0  0  0  0  0  0  0  0  0
   -3.6193   19.5890  -33.3946 H   0  0  0  0  0  0  0  0  0  0  0  0
   -0.7850   19.8760  -29.7100 H   0  0  0  0  0  0  0  0  0  0  0  0
    0.4970   19.2030  -30.7670 H   0  0  0  0  0  0  0  0  0  0  0  0
   -0.5151   23.4311  -29.2753 H   0  0  0  0  0  0  0  0  0  0  0  0
   -1.1718   23.5899  -30.9428 H   0  0  0  0  0  0  0  0  0  0  0  0
   -4.6267   23.3958  -29.6038 H   0  0  0  0  0  0  0  0  0  0  0  0
  1  2  1  0
  2  3  1  0
  3  4  1  0
  4  5  2  0
  5  6  1  0
  6  7  2  0
  7  8  1  0
  8  9  2  0
  9 10  1  0
 10 11  1  0
 10 12  2  0
  9 13  1  0
 13 14  1  0
 14 15  2  0
 14 16  1  0
 16 17  1  0
 17 18  2  0
 17 19  1  0
 17 20  1  0
 13 21  1  0
 21 22  2  0
 22  4  1  0
 21  7  1  0
  1 23  1  0
  1 24  1  0
  2 25  1  0
  2 26  1  0
  3 27  1  0
  3 28  1  0
  5 29  1  0
  6 30  1  0
  8 31  1  0
 11 32  1  0
 11 33  1  0
 16 34  1  0
 16 35  1  0
 22 36  1  0
M  CHG  2  19  -1  20  -1
M  END
>  <UniqueID>  (92) 
92

>  <SMILES>  (92) 
NCCc1ccc2cc(C(N)=O)n(C(=O)CP(=O)([O-])[O-])c2c1

>  <Energy>  (92) 
66.1555248731628

>  <Genealogy>  (92) 
NCCc1ccc2cc(C(N)=O)n(C(=O)CP(=O)([O-])[O-])c2c1 (protonated)
NCCc1ccc2cc(C(N)=O)n(C(=O)CP(=O)([O-])[O-])c2c1 (3D coordinates assigned)
NCCc1ccc2cc(C(N)=O)n(C(=O)CP(=O)([O-])[O-])c2c1 (optimized conformer: 66.1555248731628 kcal/mol)

>  <smiles>  (92) 
NCCc1ccc2cc(C(N)=O)n(C(=O)CP(=O)(O)O)c2c1

>  <score_type>  (92) 
oracle

>  <origin>  (92) 
adg

>  <m_score__min__energy>  (92) 
-12.43

>  <m_primary>  (92) 
energy

$$$$
93:0
     RDKit          3D

 57 58  0  0  0  0  0  0  0  0999 V2000
   -3.3770   20.7050  -32.6710 C   0  0  0  0  0  0  0  0  0  0  0  0
   -3.3700   22.1050  -32.4820 O   0  0  0  0  0  0  0  0  0  0  0  0
   -3.2010   22.3500  -31.1530 N   0  0  0  0  0  0  0  0  0  0  0  0
   -1.8690   22.3900  -30.6300 C   0  0  0  0  0  0  0  0  0  0  0  0
   -0.8910   22.3180  -31.4220 O   0  0  0  0  0  0  0  0  0  0  0  0
   -1.6440   22.5380  -29.2170 N   0  0  0  0  0  0  0  0  0  0  0  0
   -0.9270   21.4970  -28.5280 C   0  0  0  0  0  0  0  0  0  0  0  0
    0.2270   21.7210  -28.0790 O   0  0  0  0  0  0  0  0  0  0  0  0
   -1.5320   20.2430  -28.3680 O   0  0  0  0  0  0  0  0  0  0  0  0
   -1.6830   19.5190  -27.1370 C   0  0  0  0  0  0  0  0  0  0  0  0
   -0.7740   18.2780  -27.1150 C   0  0  0  0  0  0  0  0  0  0  0  0
   -3.1570   19.1180  -26.9310 C   0  0  0  0  0  0  0  0  0  0  0  0
   -1.2580   20.4620  -25.9990 C   0  0  0  0  0  0  0  0  0  0  0  0
   -1.9400   23.7870  -28.4830 C   0  0  1  0  0  0  0  0  0  0  0  0
   -2.0210   23.6080  -26.9580 C   0  0  0  0  0  0  0  0  0  0  0  0
   -0.8880   24.8140  -28.8030 C   0  0  0  0  0  0  0  0  0  0  0  0
   -1.2140   25.9110  -29.3290 O   0  0  0  0  0  0  0  0  0  0  0  0
    0.4540   24.5210  -28.6120 O   0  0  0  0  0  0  0  0  0  0  0  0
   -4.3310   22.2560  -30.2740 C   0  0  0  0  0  0  0  0  0  0  0  0
   -4.2050   21.7550  -29.1270 O   0  0  0  0  0  0  0  0  0  0  0  0
   -5.6160   22.7210  -30.7020 N   0  0  0  0  0  0  0  0  0  0  0  0
   -6.0510   24.0090  -30.7670 C   0  0  0  0  0  0  0  0  0  0  0  0
   -5.2710   25.1970  -30.3620 C   0  0  0  0  0  0  0  0  0  0  0  0
   -3.8770   25.2680  -30.6550 N   0  0  0  0  0  0  0  0  0  0  0  0
   -5.8250   26.1620  -29.7740 O   0  0  0  0  0  0  0  0  0  0  0  0
   -7.3500   24.0580  -31.2710 C   0  0  0  0  0  0  0  0  0  0  0  0
   -7.6950   22.7450  -31.5170 C   0  0  0  0  0  0  0  0  0  0  0  0
   -8.8750   22.2040  -32.0180 C   0  0  0  0  0  0  0  0  0  0  0  0
   -8.9430   20.8090  -32.1770 C   0  0  0  0  0  0  0  0  0  0  0  0
   -7.8360   19.9850  -31.8540 C   0  0  0  0  0  0  0  0  0  0  0  0
   -7.9420   18.4890  -31.9890 C   0  0  0  0  0  0  0  0  0  0  0  0
   -9.2450   18.0800  -31.7680 F   0  0  0  0  0  0  0  0  0  0  0  0
   -7.1150   17.8880  -31.0580 F   0  0  0  0  0  0  0  0  0  0  0  0
   -7.5660   18.0790  -33.2580 F   0  0  0  0  0  0  0  0  0  0  0  0
   -6.6650   20.5760  -31.3230 C   0  0  0  0  0  0  0  0  0  0  0  0
   -6.6270   21.9610  -31.1710 C   0  0  0  0  0  0  0  0  0  0  0  0
   -3.3795   20.2029  -31.6923 H   0  0  0  0  0  0  0  0  0  0  0  0
   -4.2766   20.4155  -33.2339 H   0  0  0  0  0  0  0  0  0  0  0  0
   -2.4803   20.4065  -33.2339 H   0  0  0  0  0  0  0  0  0  0  0  0
   -0.5661   17.9942  -26.0728 H   0  0  0  0  0  0  0  0  0  0  0  0
   -1.2775   17.4455  -27.6282 H   0  0  0  0  0  0  0  0  0  0  0  0
    0.1716   18.5070  -27.6282 H   0  0  0  0  0  0  0  0  0  0  0  0
   -3.3739   19.0590  -25.8542 H   0  0  0  0  0  0  0  0  0  0  0  0
   -3.8103   19.8711  -27.3959 H   0  0  0  0  0  0  0  0  0  0  0  0
   -3.3387   18.1378  -27.3959 H   0  0  0  0  0  0  0  0  0  0  0  0
   -1.4720   19.9872  -25.0301 H   0  0  0  0  0  0  0  0  0  0  0  0
   -0.1802   20.6676  -26.0764 H   0  0  0  0  0  0  0  0  0  0  0  0
   -1.8178   21.4057  -26.0764 H   0  0  0  0  0  0  0  0  0  0  0  0
   -2.9360   24.1147  -28.8156 H   0  0  0  0  0  0  0  0  0  0  0  0
   -1.6163   24.5024  -26.4618 H   0  0  0  0  0  0  0  0  0  0  0  0
   -3.0706   23.4670  -26.6606 H   0  0  0  0  0  0  0  0  0  0  0  0
   -1.4341   22.7265  -26.6606 H   0  0  0  0  0  0  0  0  0  0  0  0
   -3.4930   26.0480  -31.2340 H   0  0  0  0  0  0  0  0  0  0  0  0
   -7.9680   24.9527  -31.4371 H   0  0  0  0  0  0  0  0  0  0  0  0
   -9.7275   22.8474  -32.2813 H   0  0  0  0  0  0  0  0  0  0  0  0
   -9.8679   20.3507  -32.5572 H   0  0  0  0  0  0  0  0  0  0  0  0
   -5.8031   19.9556  -31.0363 H   0  0  0  0  0  0  0  0  0  0  0  0
  1  2  1  0
  2  3  1  0
  3  4  1  0
  4  5  2  0
  4  6  1  0
  6  7  1  0
  7  8  2  0
  7  9  1  0
  9 10  1  0
 10 11  1  0
 10 12  1  0
 10 13  1  0
  6 14  1  0
 14 15  1  0
 14 16  1  0
 16 17  2  0
 16 18  1  0
  3 19  1  0
 19 20  2  0
 19 21  1  0
 21 22  1  0
 22 23  1  0
 23 24  1  0
 23 25  2  0
 22 26  2  0
 26 27  1  0
 27 28  2  0
 28 29  1  0
 29 30  2  0
 30 31  1  0
 31 32  1  0
 31 33  1  0
 31 34  1  0
 30 35  1  0
 35 36  2  0
 36 21  1  0
 36 27  1  0
  1 37  1  0
  1 38  1  0
  1 39  1  0
 11 40  1  0
 11 41  1  0
 11 42  1  0
 12 43  1  0
 12 44  1  0
 12 45  1  0
 13 46  1  0
 13 47  1  0
 13 48  1  0
 14 49  1  6
 15 50  1  0
 15 51  1  0
 15 52  1  0
 24 53  1  0
 26 54  1  0
 28 55  1  0
 29 56  1  0
 35 57  1  0
M  CHG  2  18  -1  24  -1
M  END
>  <UniqueID>  (93) 
93

>  <SMILES>  (93) 
CON(C(=O)N(C(=O)OC(C)(C)C)[C@@H](C)C(=O)[O-])C(=O)n1c(C([NH-])=O)cc2ccc(C(F)(F)F)cc21

>  <Energy>  (93) 
108.82037267285243

>  <Genealogy>  (93) 
CON(C(=O)N(C(=O)OC(C)(C)C)C(C)C(=O)[O-])C(=O)n1c(C([NH-])=O)cc2ccc(C(F)(F)F)cc21 (protonated)
CON(C(=O)N(C(=O)OC(C)(C)C)[C@@H](C)C(=O)[O-])C(=O)n1c(C([NH-])=O)cc2ccc(C(F)(F)F)cc21 (chirality)
CON(C(=O)N(C(=O)OC(C)(C)C)[C@@H](C)C(=O)[O-])C(=O)n1c(C([NH-])=O)cc2ccc(C(F)(F)F)cc21 (3D coordinates assigned)
CON(C(=O)N(C(=O)OC(C)(C)C)[C@@H](C)C(=O)[O-])C(=O)n1c(C([NH-])=O)cc2ccc(C(F)(F)F)cc21 (optimized conformer: 108.82037267285243 kcal/mol)

>  <smiles>  (93) 
CON(C(=O)N(C(=O)OC(C)(C)C)C(C)C(=O)O)C(=O)n1c(C(N)=O)cc2ccc(C(F)(F)F)cc21

>  <score_type>  (93) 
oracle

>  <origin>  (93) 
adg

>  <m_score__min__energy>  (93) 
-13.539999999999999

>  <m_primary>  (93) 
energy

$$$$
94:0
     RDKit          3D

 42 44  0  0  0  0  0  0  0  0999 V2000
   -5.9610   18.1850  -32.7140 C   0  0  0  0  0  0  0  0  0  0  0  0
   -6.3160   19.5620  -32.2390 C   0  0  0  0  0  0  0  0  0  0  0  0
   -7.6560   20.0170  -32.3170 C   0  0  0  0  0  0  0  0  0  0  0  0
   -7.9910   21.3240  -31.9210 C   0  0  0  0  0  0  0  0  0  0  0  0
   -6.9710   22.1440  -31.4480 C   0  0  0  0  0  0  0  0  0  0  0  0
   -6.9990   23.4690  -31.0740 C   0  0  0  0  0  0  0  0  0  0  0  0
   -5.6770   23.7980  -30.7790 C   0  0  0  0  0  0  0  0  0  0  0  0
   -5.2380   25.1690  -30.4380 C   0  0  0  0  0  0  0  0  0  0  0  0
   -3.9680   25.6630  -30.8500 N   0  0  0  0  0  0  0  0  0  0  0  0
   -6.0110   25.9260  -29.7920 O   0  0  0  0  0  0  0  0  0  0  0  0
   -4.8740   22.7020  -30.9040 N   0  0  0  0  0  0  0  0  0  0  0  0
   -3.4460   22.6340  -30.7820 C   0  0  0  0  0  0  0  0  0  0  0  0
   -2.7520   22.6800  -31.8340 O   0  0  0  0  0  0  0  0  0  0  0  0
   -2.7920   22.4480  -29.4980 N   0  0  0  0  0  0  0  0  0  0  0  0
   -2.6830   23.6190  -28.6110 C   0  0  0  0  0  0  0  0  0  0  0  0
   -1.4770   24.4260  -28.9720 C   0  0  0  0  0  0  0  0  0  0  0  0
   -1.5940   25.6420  -29.2770 O   0  0  0  0  0  0  0  0  0  0  0  0
   -0.2260   23.8220  -29.0160 O   0  0  0  0  0  0  0  0  0  0  0  0
   -2.3220   21.1320  -28.9910 C   0  0  1  0  0  0  0  0  0  0  0  0
   -0.8220   20.9560  -29.0830 C   0  0  0  0  0  0  0  0  0  0  0  0
   -0.3870   20.7460  -27.6410 C   0  0  0  0  0  0  0  0  0  0  0  0
   -1.4420   21.1120  -26.7860 O   0  0  0  0  0  0  0  0  0  0  0  0
   -2.6260   20.9170  -27.5180 C   0  0  0  0  0  0  0  0  0  0  0  0
   -5.6740   21.7130  -31.3580 C   0  0  0  0  0  0  0  0  0  0  0  0
   -5.3050   20.4310  -31.7780 C   0  0  0  0  0  0  0  0  0  0  0  0
   -5.7922   17.5301  -31.8465 H   0  0  0  0  0  0  0  0  0  0  0  0
   -6.7849   17.7831  -33.3220 H   0  0  0  0  0  0  0  0  0  0  0  0
   -5.0455   18.2315  -33.3220 H   0  0  0  0  0  0  0  0  0  0  0  0
   -8.4404   19.3422  -32.6904 H   0  0  0  0  0  0  0  0  0  0  0  0
   -9.0275   21.6871  -31.9832 H   0  0  0  0  0  0  0  0  0  0  0  0
   -7.8781   24.1280  -31.0196 H   0  0  0  0  0  0  0  0  0  0  0  0
   -3.0840   25.2640  -30.4630 H   0  0  0  0  0  0  0  0  0  0  0  0
   -3.5832   24.2419  -28.7184 H   0  0  0  0  0  0  0  0  0  0  0  0
   -2.5881   23.2751  -27.5705 H   0  0  0  0  0  0  0  0  0  0  0  0
   -2.8606   20.4207  -29.6345 H   0  0  0  0  0  0  0  0  0  0  0  0
   -0.5681   20.0810  -29.6994 H   0  0  0  0  0  0  0  0  0  0  0  0
   -0.3231   21.8153  -29.5548 H   0  0  0  0  0  0  0  0  0  0  0  0
   -0.1344   19.6872  -27.4826 H   0  0  0  0  0  0  0  0  0  0  0  0
    0.4969   21.3644  -27.4259 H   0  0  0  0  0  0  0  0  0  0  0  0
   -2.9952   19.8928  -27.3608 H   0  0  0  0  0  0  0  0  0  0  0  0
   -3.3971   21.6270  -27.1844 H   0  0  0  0  0  0  0  0  0  0  0  0
   -4.2537   20.1087  -31.7496 H   0  0  0  0  0  0  0  0  0  0  0  0
  1  2  1  0
  2  3  2  0
  3  4  1  0
  4  5  2  0
  5  6  1  0
  6  7  2  0
  7  8  1  0
  8  9  1  0
  8 10  2  0
  7 11  1  0
 11 12  1  0
 12 13  2  0
 12 14  1  0
 14 15  1  0
 15 16  1  0
 16 17  2  0
 16 18  1  0
 14 19  1  0
 19 20  1  0
 20 21  1  0
 21 22  1  0
 22 23  1  0
 11 24  1  0
 24 25  2  0
 25  2  1  0
 24  5  1  0
 23 19  1  0
  1 26  1  0
  1 27  1  0
  1 28  1  0
  3 29  1  0
  4 30  1  0
  6 31  1  0
  9 32  1  0
 15 33  1  0
 15 34  1  0
 19 35  1  6
 20 36  1  0
 20 37  1  0
 21 38  1  0
 21 39  1  0
 23 40  1  0
 23 41  1  0
 25 42  1  0
M  CHG  2   9  -1  18  -1
M  END
>  <UniqueID>  (94) 
94

>  <SMILES>  (94) 
Cc1ccc2cc(C([NH-])=O)n(C(=O)N(CC(=O)[O-])[C@H]3CCOC3)c2c1

>  <Energy>  (94) 
84.98787358075575

>  <Genealogy>  (94) 
Cc1ccc2cc(C([NH-])=O)n(C(=O)N(CC(=O)[O-])C3CCOC3)c2c1 (protonated)
Cc1ccc2cc(C([NH-])=O)n(C(=O)N(CC(=O)[O-])[C@H]3CCOC3)c2c1 (chirality)
Cc1ccc2cc(C([NH-])=O)n(C(=O)N(CC(=O)[O-])[C@H]3CCOC3)c2c1 (3D coordinates assigned)
Cc1ccc2cc(C([NH-])=O)n(C(=O)N(CC(=O)[O-])[C@H]3CCOC3)c2c1 (nonaromatic ring conformer: 84.98787358075575 kcal/mol)

>  <smiles>  (94) 
Cc1ccc2cc(C(N)=O)n(C(=O)N(CC(=O)O)C3CCOC3)c2c1

>  <score_type>  (94) 
oracle

>  <origin>  (94) 
adg

>  <m_score__min__energy>  (94) 
-12.300000000000001

>  <m_primary>  (94) 
energy

$$$$
95:0
     RDKit          3D

 42 43  0  0  0  0  0  0  0  0999 V2000
   -7.2540   17.3290  -33.0900 C   0  0  0  0  0  0  0  0  0  0  0  0
   -7.3190   18.4760  -32.7240 C   0  0  0  0  0  0  0  0  0  0  0  0
   -7.3950   19.8450  -32.2870 C   0  0  0  0  0  0  0  0  0  0  0  0
   -8.6470   20.5000  -32.2390 C   0  0  0  0  0  0  0  0  0  0  0  0
   -8.7320   21.8400  -31.8250 C   0  0  0  0  0  0  0  0  0  0  0  0
   -7.5550   22.4870  -31.4590 C   0  0  0  0  0  0  0  0  0  0  0  0
   -7.3510   23.7820  -31.0430 C   0  0  0  0  0  0  0  0  0  0  0  0
   -5.9830   23.8830  -30.8120 C   0  0  0  0  0  0  0  0  0  0  0  0
   -5.3400   25.0980  -30.2700 C   0  0  0  0  0  0  0  0  0  0  0  0
   -3.9250   25.1660  -30.0910 N   0  0  0  0  0  0  0  0  0  0  0  0
   -6.0560   26.0670  -29.9050 O   0  0  0  0  0  0  0  0  0  0  0  0
   -5.3570   22.7060  -31.0910 N   0  0  0  0  0  0  0  0  0  0  0  0
   -3.9450   22.4390  -31.0540 C   0  0  0  0  0  0  0  0  0  0  0  0
   -3.1720   23.0210  -31.8630 O   0  0  0  0  0  0  0  0  0  0  0  0
   -3.4140   21.5300  -30.0890 N   0  0  0  0  0  0  0  0  0  0  0  0
   -2.9670   21.9360  -28.7660 C   0  0  0  0  0  0  0  0  0  0  0  0
   -1.7530   22.8120  -28.8880 C   0  0  0  0  0  0  0  0  0  0  0  0
   -1.4630   23.2680  -30.0280 O   0  0  0  0  0  0  0  0  0  0  0  0
   -0.9230   23.1500  -27.7510 N   0  0  0  0  0  0  0  0  0  0  0  0
   -0.8330   22.1990  -26.6390 C   0  0  0  0  0  0  0  0  0  0  0  0
   -0.2470   24.4510  -27.6240 C   0  0  0  0  0  0  0  0  0  0  0  0
   -1.2250   25.5910  -27.9060 C   0  0  0  0  0  0  0  0  0  0  0  0
   -1.4610   25.6760  -29.2840 O   0  0  0  0  0  0  0  0  0  0  0  0
   -6.3350   21.8560  -31.4820 C   0  0  0  0  0  0  0  0  0  0  0  0
   -6.2200   20.5290  -31.9140 C   0  0  0  0  0  0  0  0  0  0  0  0
   -7.1947   16.2826  -33.4239 H   0  0  0  0  0  0  0  0  0  0  0  0
   -9.5595   19.9576  -32.5273 H   0  0  0  0  0  0  0  0  0  0  0  0
   -9.6996   22.3622  -31.7911 H   0  0  0  0  0  0  0  0  0  0  0  0
   -8.1084   24.5701  -30.9193 H   0  0  0  0  0  0  0  0  0  0  0  0
   -3.4830   26.0460  -29.7430 H   0  0  0  0  0  0  0  0  0  0  0  0
   -3.3230   24.3220  -30.2200 H   0  0  0  0  0  0  0  0  0  0  0  0
   -3.7712   22.4936  -28.2636 H   0  0  0  0  0  0  0  0  0  0  0  0
   -2.7133   21.0422  -28.1772 H   0  0  0  0  0  0  0  0  0  0  0  0
   -0.8846   22.7443  -25.6851 H   0  0  0  0  0  0  0  0  0  0  0  0
   -1.6676   21.4849  -26.6988 H   0  0  0  0  0  0  0  0  0  0  0  0
    0.1207   21.6542  -26.6988 H   0  0  0  0  0  0  0  0  0  0  0  0
    0.1470   24.5562  -26.6024 H   0  0  0  0  0  0  0  0  0  0  0  0
    0.5749   24.4981  -28.3536 H   0  0  0  0  0  0  0  0  0  0  0  0
   -2.1733   25.3978  -27.3832 H   0  0  0  0  0  0  0  0  0  0  0  0
   -0.7950   26.5386  -27.5494 H   0  0  0  0  0  0  0  0  0  0  0  0
   -0.9300   24.9490  -29.7000 H   0  0  0  0  0  0  0  0  0  0  0  0
   -5.2391   20.0335  -31.9611 H   0  0  0  0  0  0  0  0  0  0  0  0
  1  2  3  0
  2  3  1  0
  3  4  2  0
  4  5  1  0
  5  6  2  0
  6  7  1  0
  7  8  2  0
  8  9  1  0
  9 10  1  0
  9 11  2  0
  8 12  1  0
 12 13  1  0
 13 14  2  0
 13 15  1  0
 15 16  1  0
 16 17  1  0
 17 18  2  0
 17 19  1  0
 19 20  1  0
 19 21  1  0
 21 22  1  0
 22 23  1  0
 12 24  1  0
 24 25  2  0
 25  3  1  0
 24  6  1  0
  1 26  1  0
  4 27  1  0
  5 28  1  0
  7 29  1  0
 10 30  1  0
 10 31  1  0
 16 32  1  0
 16 33  1  0
 20 34  1  0
 20 35  1  0
 20 36  1  0
 21 37  1  0
 21 38  1  0
 22 39  1  0
 22 40  1  0
 23 41  1  0
 25 42  1  0
M  CHG  1  15  -1
M  END
>  <UniqueID>  (95) 
95

>  <SMILES>  (95) 
C#Cc1ccc2cc(C(N)=O)n(C(=O)[N-]CC(=O)N(C)CCO)c2c1

>  <Energy>  (95) 
71.83721026137135

>  <Genealogy>  (95) 
C#Cc1ccc2cc(C(N)=O)n(C(=O)[N-]CC(=O)N(C)CCO)c2c1 (protonated)
C#Cc1ccc2cc(C(N)=O)n(C(=O)[N-]CC(=O)N(C)CCO)c2c1 (3D coordinates assigned)
C#Cc1ccc2cc(C(N)=O)n(C(=O)[N-]CC(=O)N(C)CCO)c2c1 (optimized conformer: 71.83721026137135 kcal/mol)

>  <smiles>  (95) 
C#Cc1ccc2cc(C(N)=O)n(C(=O)NCC(=O)N(C)CCO)c2c1

>  <score_type>  (95) 
oracle

>  <origin>  (95) 
adg

>  <m_score__min__energy>  (95) 
-8.8699999999999992

>  <m_primary>  (95) 
energy

$$$$
