0:0
     RDKit          3D

 43 44  0  0  0  0  0  0  0  0999 V2000
   -2.2380   25.2720  -26.6280 C   0  0  0  0  0  0  0  0  0  0  0  0
   -2.3820   23.9540  -27.4140 C   0  0  0  0  0  0  0  0  0  0  0  0
   -1.5880   22.8500  -26.6840 C   0  0  0  0  0  0  0  0  0  0  0  0
   -3.8660   23.5560  -27.4800 C   0  0  0  0  0  0  0  0  0  0  0  0
   -1.8690   24.1430  -28.8270 C   0  0  0  0  0  0  0  0  0  0  0  0
   -1.8100   25.2970  -29.3370 O   0  0  0  0  0  0  0  0  0  0  0  0
   -1.3770   23.0410  -29.5350 O   0  0  0  0  0  0  0  0  0  0  0  0
   -1.9840   21.7520  -29.4840 C   0  0  0  0  0  0  0  0  0  0  0  0
   -3.3740   21.8530  -29.7860 O   0  0  0  0  0  0  0  0  0  0  0  0
   -3.8610   22.5720  -30.8830 C   0  0  0  0  0  0  0  0  0  0  0  0
   -3.0640   23.0450  -31.7400 O   0  0  0  0  0  0  0  0  0  0  0  0
   -5.2690   22.8120  -31.0070 N   0  0  0  0  0  0  0  0  0  0  0  0
   -5.9230   24.0050  -30.9150 C   0  0  0  0  0  0  0  0  0  0  0  0
   -5.3300   25.2860  -30.4770 C   0  0  0  0  0  0  0  0  0  0  0  0
   -4.0070   25.6510  -30.8590 N   0  0  0  0  0  0  0  0  0  0  0  0
   -5.9870   26.0500  -29.7190 O   0  0  0  0  0  0  0  0  0  0  0  0
   -7.2710   23.8470  -31.2290 C   0  0  0  0  0  0  0  0  0  0  0  0
   -7.4250   22.5110  -31.5170 C   0  0  0  0  0  0  0  0  0  0  0  0
   -8.5540   21.8040  -31.9220 C   0  0  0  0  0  0  0  0  0  0  0  0
   -8.4110   20.4340  -32.2000 C   0  0  0  0  0  0  0  0  0  0  0  0
   -7.1490   19.8000  -32.0760 C   0  0  0  0  0  0  0  0  0  0  0  0
   -6.9930   18.3420  -32.3970 C   0  0  0  0  0  0  0  0  0  0  0  0
   -6.1310   18.1910  -33.4670 F   0  0  0  0  0  0  0  0  0  0  0  0
   -6.4790   17.6740  -31.3000 F   0  0  0  0  0  0  0  0  0  0  0  0
   -6.0260   20.5490  -31.6630 C   0  0  0  0  0  0  0  0  0  0  0  0
   -6.2010   21.9090  -31.3770 C   0  0  0  0  0  0  0  0  0  0  0  0
   -2.2612   25.0598  -25.5489 H   0  0  0  0  0  0  0  0  0  0  0  0
   -1.2822   25.7509  -26.8871 H   0  0  0  0  0  0  0  0  0  0  0  0
   -3.0679   25.9460  -26.8871 H   0  0  0  0  0  0  0  0  0  0  0  0
   -1.6858   22.9860  -25.5968 H   0  0  0  0  0  0  0  0  0  0  0  0
   -1.9853   21.8642  -26.9675 H   0  0  0  0  0  0  0  0  0  0  0  0
   -0.5270   22.9130  -26.9675 H   0  0  0  0  0  0  0  0  0  0  0  0
   -4.2628   23.4496  -26.4596 H   0  0  0  0  0  0  0  0  0  0  0  0
   -4.4310   24.3344  -28.0138 H   0  0  0  0  0  0  0  0  0  0  0  0
   -3.9657   22.5994  -28.0138 H   0  0  0  0  0  0  0  0  0  0  0  0
   -1.4991   21.0921  -30.2184 H   0  0  0  0  0  0  0  0  0  0  0  0
   -1.8644   21.3374  -28.4722 H   0  0  0  0  0  0  0  0  0  0  0  0
   -3.2140   24.9790  -30.7580 H   0  0  0  0  0  0  0  0  0  0  0  0
   -8.0477   24.6258  -31.2435 H   0  0  0  0  0  0  0  0  0  0  0  0
   -9.5292   22.3032  -32.0214 H   0  0  0  0  0  0  0  0  0  0  0  0
   -9.2864   19.8480  -32.5168 H   0  0  0  0  0  0  0  0  0  0  0  0
   -7.9772   17.9232  -32.6540 H   0  0  0  0  0  0  0  0  0  0  0  0
   -5.0374   20.0761  -31.5681 H   0  0  0  0  0  0  0  0  0  0  0  0
  1  2  1  0
  2  3  1  0
  2  4  1  0
  2  5  1  0
  5  6  2  0
  5  7  1  0
  7  8  1  0
  8  9  1  0
  9 10  1  0
 10 11  2  0
 10 12  1  0
 12 13  1  0
 13 14  1  0
 14 15  1  0
 14 16  2  0
 13 17  2  0
 17 18  1  0
 18 19  2  0
 19 20  1  0
 20 21  2  0
 21 22  1  0
 22 23  1  0
 22 24  1  0
 21 25  1  0
 25 26  2  0
 26 12  1  0
 26 18  1  0
  1 27  1  0
  1 28  1  0
  1 29  1  0
  3 30  1  0
  3 31  1  0
  3 32  1  0
  4 33  1  0
  4 34  1  0
  4 35  1  0
  8 36  1  0
  8 37  1  0
 15 38  1  0
 17 39  1  0
 19 40  1  0
 20 41  1  0
 22 42  1  0
 25 43  1  0
M  CHG  1  15  -1
M  END
>  <UniqueID>  (1) 
1

>  <SMILES>  (1) 
CC(C)(C)C(=O)OCOC(=O)n1c(C([NH-])=O)cc2ccc(C(F)F)cc21

>  <Energy>  (1) 
72.53760443482999

>  <Genealogy>  (1) 
CC(C)(C)C(=O)OCOC(=O)n1c(C([NH-])=O)cc2ccc(C(F)F)cc21 (protonated)
CC(C)(C)C(=O)OCOC(=O)n1c(C([NH-])=O)cc2ccc(C(F)F)cc21 (3D coordinates assigned)
CC(C)(C)C(=O)OCOC(=O)n1c(C([NH-])=O)cc2ccc(C(F)F)cc21 (optimized conformer: 72.53760443482999 kcal/mol)

>  <smiles>  (1) 
CC(C)(C)C(=O)OCOC(=O)n1c(C(N)=O)cc2ccc(C(F)F)cc21

>  <score_type>  (1) 
oracle

>  <origin>  (1) 
adg

>  <m_score__min__energy>  (1) 
-10.390000000000001

>  <m_primary>  (1) 
energy

$$$$
1:0
     RDKit          3D

 49 50  0  0  0  0  0  0  0  0999 V2000
   -2.0850   20.9020  -29.8220 C   0  0  0  0  0  0  0  0  0  0  0  0
   -1.0630   21.4570  -30.8150 C   0  0  0  0  0  0  0  0  0  0  0  0
    0.1130   20.4820  -30.9640 C   0  0  0  0  0  0  0  0  0  0  0  0
   -1.7070   21.6520  -32.0780 O   0  0  0  0  0  0  0  0  0  0  0  0
   -1.2600   21.0780  -33.2710 C   0  0  0  0  0  0  0  0  0  0  0  0
   -0.3300   21.6140  -33.9310 O   0  0  0  0  0  0  0  0  0  0  0  0
   -1.8640   19.9010  -33.7220 O   0  0  0  0  0  0  0  0  0  0  0  0
   -3.2760   19.7490  -33.8600 C   0  0  0  0  0  0  0  0  0  0  0  0
   -3.9720   20.7030  -33.0580 O   0  0  0  0  0  0  0  0  0  0  0  0
   -5.0410   20.3700  -32.2130 C   0  0  0  0  0  0  0  0  0  0  0  0
   -5.1650   19.1810  -31.8060 O   0  0  0  0  0  0  0  0  0  0  0  0
   -6.0020   21.3800  -31.8280 N   0  0  0  0  0  0  0  0  0  0  0  0
   -7.3580   21.3150  -31.9730 C   0  0  0  0  0  0  0  0  0  0  0  0
   -8.1030   20.2650  -32.6860 C   0  0  0  0  0  0  0  0  0  0  0  0
   -7.4160   19.2790  -33.4560 N   0  0  0  0  0  0  0  0  0  0  0  0
   -9.3640   20.2760  -32.6710 O   0  0  0  0  0  0  0  0  0  0  0  0
   -7.9800   22.4150  -31.3960 C   0  0  0  0  0  0  0  0  0  0  0  0
   -6.9600   23.1860  -30.8990 C   0  0  0  0  0  0  0  0  0  0  0  0
   -7.0180   24.4090  -30.2350 C   0  0  0  0  0  0  0  0  0  0  0  0
   -5.8130   24.9910  -29.8180 C   0  0  0  0  0  0  0  0  0  0  0  0
   -4.5750   24.3480  -30.0600 C   0  0  0  0  0  0  0  0  0  0  0  0
   -3.3630   24.9860  -29.6060 N   0  0  0  0  0  0  0  0  0  0  0  0
   -2.2070   24.2680  -29.0530 C   0  0  2  0  0  0  0  0  0  0  0  0
   -2.5900   23.5530  -27.7510 C   0  0  0  0  0  0  0  0  0  0  0  0
   -1.0820   25.2280  -28.7890 C   0  0  0  0  0  0  0  0  0  0  0  0
   -1.2530   26.4640  -28.9650 O   0  0  0  0  0  0  0  0  0  0  0  0
    0.1630   24.7590  -28.3850 O   0  0  0  0  0  0  0  0  0  0  0  0
   -4.5570   23.1010  -30.7390 C   0  0  0  0  0  0  0  0  0  0  0  0
   -5.7740   22.5440  -31.1630 C   0  0  0  0  0  0  0  0  0  0  0  0
   -1.7382   21.0903  -28.7952 H   0  0  0  0  0  0  0  0  0  0  0  0
   -3.0546   21.3975  -29.9783 H   0  0  0  0  0  0  0  0  0  0  0  0
   -2.1973   19.8190  -29.9783 H   0  0  0  0  0  0  0  0  0  0  0  0
   -0.6709   22.4167  -30.4472 H   0  0  0  0  0  0  0  0  0  0  0  0
    0.4714   20.1848  -29.9674 H   0  0  0  0  0  0  0  0  0  0  0  0
   -0.2181   19.5898  -31.5157 H   0  0  0  0  0  0  0  0  0  0  0  0
    0.9284   20.9726  -31.5157 H   0  0  0  0  0  0  0  0  0  0  0  0
   -3.5525   19.8950  -34.9146 H   0  0  0  0  0  0  0  0  0  0  0  0
   -3.5550   18.7388  -33.5258 H   0  0  0  0  0  0  0  0  0  0  0  0
   -7.9470   18.5240  -33.9460 H   0  0  0  0  0  0  0  0  0  0  0  0
   -6.3790   19.3330  -33.5870 H   0  0  0  0  0  0  0  0  0  0  0  0
   -9.0591   22.6232  -31.3479 H   0  0  0  0  0  0  0  0  0  0  0  0
   -7.9816   24.9038  -30.0434 H   0  0  0  0  0  0  0  0  0  0  0  0
   -5.8294   25.9593  -29.2963 H   0  0  0  0  0  0  0  0  0  0  0  0
   -3.3050   26.0270  -29.6870 H   0  0  0  0  0  0  0  0  0  0  0  0
   -1.8806   23.5175  -29.7880 H   0  0  0  0  0  0  0  0  0  0  0  0
   -2.2659   24.1580  -26.8914 H   0  0  0  0  0  0  0  0  0  0  0  0
   -3.6811   23.4182  -27.7140 H   0  0  0  0  0  0  0  0  0  0  0  0
   -2.0977   22.5700  -27.7140 H   0  0  0  0  0  0  0  0  0  0  0  0
   -3.6067   22.5808  -30.9294 H   0  0  0  0  0  0  0  0  0  0  0  0
  1  2  1  0
  2  3  1  0
  2  4  1  0
  4  5  1  0
  5  6  2  0
  5  7  1  0
  7  8  1  0
  8  9  1  0
  9 10  1  0
 10 11  2  0
 10 12  1  0
 12 13  1  0
 13 14  1  0
 14 15  1  0
 14 16  2  0
 13 17  2  0
 17 18  1  0
 18 19  2  0
 19 20  1  0
 20 21  2  0
 21 22  1  0
 22 23  1  0
 23 24  1  0
 23 25  1  0
 25 26  2  0
 25 27  1  0
 21 28  1  0
 28 29  2  0
 29 12  1  0
 29 18  1  0
  1 30  1  0
  1 31  1  0
  1 32  1  0
  2 33  1  0
  3 34  1  0
  3 35  1  0
  3 36  1  0
  8 37  1  0
  8 38  1  0
 15 39  1  0
 15 40  1  0
 17 41  1  0
 19 42  1  0
 20 43  1  0
 22 44  1  0
 23 45  1  6
 24 46  1  0
 24 47  1  0
 24 48  1  0
 28 49  1  0
M  CHG  1  27  -1
M  END
>  <UniqueID>  (2) 
2

>  <SMILES>  (2) 
CC(C)OC(=O)OCOC(=O)n1c(C(N)=O)cc2ccc(N[C@H](C)C(=O)[O-])cc21

>  <Energy>  (2) 
78.01716754607655

>  <Genealogy>  (2) 
CC(C)OC(=O)OCOC(=O)n1c(C(N)=O)cc2ccc(NC(C)C(=O)[O-])cc21 (protonated)
CC(C)OC(=O)OCOC(=O)n1c(C(N)=O)cc2ccc(N[C@H](C)C(=O)[O-])cc21 (chirality)
CC(C)OC(=O)OCOC(=O)n1c(C(N)=O)cc2ccc(N[C@H](C)C(=O)[O-])cc21 (3D coordinates assigned)
CC(C)OC(=O)OCOC(=O)n1c(C(N)=O)cc2ccc(N[C@H](C)C(=O)[O-])cc21 (optimized conformer: 78.01716754607655 kcal/mol)

>  <smiles>  (2) 
CC(C)OC(=O)OCOC(=O)n1c(C(N)=O)cc2ccc(NC(C)C(=O)O)cc21

>  <score_type>  (2) 
oracle

>  <origin>  (2) 
adg

>  <m_score__min__energy>  (2) 
-10.06

>  <m_primary>  (2) 
energy

$$$$
2:0
     RDKit          3D

 44 45  0  0  0  0  0  0  0  0999 V2000
   -7.2140   17.1940  -32.9930 C   0  0  0  0  0  0  0  0  0  0  0  0
   -6.5710   18.4050  -33.5170 N   0  0  0  0  0  0  0  0  0  0  0  0
   -5.7490   18.3050  -34.7290 C   0  0  0  0  0  0  0  0  0  0  0  0
   -6.7530   19.6820  -32.8530 C   0  0  0  0  0  0  0  0  0  0  0  0
   -8.0530   20.1280  -32.4800 C   0  0  0  0  0  0  0  0  0  0  0  0
   -8.2390   21.3650  -31.8450 C   0  0  0  0  0  0  0  0  0  0  0  0
   -7.1160   22.1410  -31.5820 C   0  0  0  0  0  0  0  0  0  0  0  0
   -7.0180   23.3830  -30.9980 C   0  0  0  0  0  0  0  0  0  0  0  0
   -5.6580   23.6810  -30.9930 C   0  0  0  0  0  0  0  0  0  0  0  0
   -5.0970   24.8950  -30.3630 C   0  0  0  0  0  0  0  0  0  0  0  0
   -3.9160   25.5080  -30.8740 N   0  0  0  0  0  0  0  0  0  0  0  0
   -5.6380   25.3660  -29.3280 O   0  0  0  0  0  0  0  0  0  0  0  0
   -4.9430   22.6680  -31.5640 N   0  0  0  0  0  0  0  0  0  0  0  0
   -3.5310   22.6220  -31.8260 C   0  0  0  0  0  0  0  0  0  0  0  0
   -3.0970   22.0220  -32.8470 O   0  0  0  0  0  0  0  0  0  0  0  0
   -2.6420   23.2160  -30.9280 O   0  0  0  0  0  0  0  0  0  0  0  0
   -2.6150   22.9040  -29.5400 C   0  0  0  0  0  0  0  0  0  0  0  0
   -2.4440   24.1740  -28.7600 C   0  0  0  0  0  0  0  0  0  0  0  0
   -1.4510   24.8640  -28.9510 O   0  0  0  0  0  0  0  0  0  0  0  0
   -3.4210   24.5580  -27.7620 N   0  0  0  0  0  0  0  0  0  0  0  0
   -4.2300   23.3920  -27.3720 C   0  0  0  0  0  0  0  0  0  0  0  0
   -2.7570   25.1500  -26.5910 C   0  0  0  0  0  0  0  0  0  0  0  0
   -5.8530   21.7310  -31.9140 C   0  0  0  0  0  0  0  0  0  0  0  0
   -5.6380   20.5110  -32.5670 C   0  0  0  0  0  0  0  0  0  0  0  0
   -7.2010   17.2185  -31.8933 H   0  0  0  0  0  0  0  0  0  0  0  0
   -8.2547   17.1492  -33.3465 H   0  0  0  0  0  0  0  0  0  0  0  0
   -6.6682   16.3068  -33.3465 H   0  0  0  0  0  0  0  0  0  0  0  0
   -4.6936   18.1766  -34.4467 H   0  0  0  0  0  0  0  0  0  0  0  0
   -6.0772   17.4402  -35.3243 H   0  0  0  0  0  0  0  0  0  0  0  0
   -5.8602   19.2233  -35.3243 H   0  0  0  0  0  0  0  0  0  0  0  0
   -8.9251   19.4925  -32.6932 H   0  0  0  0  0  0  0  0  0  0  0  0
   -9.2445   21.7109  -31.5633 H   0  0  0  0  0  0  0  0  0  0  0  0
   -7.8392   24.0075  -30.6164 H   0  0  0  0  0  0  0  0  0  0  0  0
   -2.9800   25.2940  -30.4650 H   0  0  0  0  0  0  0  0  0  0  0  0
   -3.5590   22.4182  -29.2523 H   0  0  0  0  0  0  0  0  0  0  0  0
   -1.7795   22.2207  -29.3277 H   0  0  0  0  0  0  0  0  0  0  0  0
   -4.0680   25.2780  -28.1660 H   0  0  0  0  0  0  0  0  0  0  0  0
   -4.2749   23.3273  -26.2748 H   0  0  0  0  0  0  0  0  0  0  0  0
   -5.2478   23.5006  -27.7748 H   0  0  0  0  0  0  0  0  0  0  0  0
   -3.7720   22.4766  -27.7748 H   0  0  0  0  0  0  0  0  0  0  0  0
   -3.2078   24.7480  -25.6717 H   0  0  0  0  0  0  0  0  0  0  0  0
   -1.6855   24.9020  -26.6127 H   0  0  0  0  0  0  0  0  0  0  0  0
   -2.8809   26.2428  -26.6127 H   0  0  0  0  0  0  0  0  0  0  0  0
   -4.6222   20.2009  -32.8532 H   0  0  0  0  0  0  0  0  0  0  0  0
  1  2  1  0
  2  3  1  0
  2  4  1  0
  4  5  2  0
  5  6  1  0
  6  7  2  0
  7  8  1  0
  8  9  2  0
  9 10  1  0
 10 11  1  0
 10 12  2  0
  9 13  1  0
 13 14  1  0
 14 15  2  0
 14 16  1  0
 16 17  1  0
 17 18  1  0
 18 19  2  0
 18 20  1  0
 20 21  1  0
 20 22  1  0
 13 23  1  0
 23 24  2  0
 24  4  1  0
 23  7  1  0
  1 25  1  0
  1 26  1  0
  1 27  1  0
  3 28  1  0
  3 29  1  0
  3 30  1  0
  5 31  1  0
  6 32  1  0
  8 33  1  0
 11 34  1  0
 17 35  1  0
 17 36  1  0
 20 37  1  0
 21 38  1  0
 21 39  1  0
 21 40  1  0
 22 41  1  0
 22 42  1  0
 22 43  1  0
 24 44  1  0
M  CHG  2  11  -1  20   1
M  END
>  <UniqueID>  (3) 
3

>  <SMILES>  (3) 
CN(C)c1ccc2cc(C([NH-])=O)n(C(=O)OCC(=O)[NH+](C)C)c2c1

>  <Energy>  (3) 
79.73664327331872

>  <Genealogy>  (3) 
CN(C)c1ccc2cc(C([NH-])=O)n(C(=O)OCC(=O)[NH+](C)C)c2c1 (protonated)
CN(C)c1ccc2cc(C([NH-])=O)n(C(=O)OCC(=O)[NH+](C)C)c2c1 (3D coordinates assigned)
CN(C)c1ccc2cc(C([NH-])=O)n(C(=O)OCC(=O)[NH+](C)C)c2c1 (optimized conformer: 79.73664327331872 kcal/mol)

>  <smiles>  (3) 
CN(C)C(=O)COC(=O)n1c(C(N)=O)cc2ccc(N(C)C)cc21

>  <score_type>  (3) 
oracle

>  <origin>  (3) 
adg

>  <m_score__min__energy>  (3) 
-9.7300000000000004

>  <m_primary>  (3) 
energy

$$$$
3:0
     RDKit          3D

 29 30  0  0  0  0  0  0  0  0999 V2000
   -3.3500   25.0730  -30.9430 H   0  0  0  0  0  0  0  0  0  0  0  0
   -4.1990   25.6730  -30.8410 N   0  0  0  0  0  0  0  0  0  0  0  0
   -5.4710   25.1000  -30.5450 C   0  0  0  0  0  0  0  0  0  0  0  0
   -6.3060   25.7670  -29.8790 O   0  0  0  0  0  0  0  0  0  0  0  0
   -5.8050   23.7240  -30.9700 C   0  0  0  0  0  0  0  0  0  0  0  0
   -7.0780   23.3380  -31.3840 C   0  0  0  0  0  0  0  0  0  0  0  0
   -7.9667   23.9774  -31.4907 H   0  0  0  0  0  0  0  0  0  0  0  0
   -6.9880   21.9880  -31.6310 C   0  0  0  0  0  0  0  0  0  0  0  0
   -7.9530   21.0950  -32.0890 C   0  0  0  0  0  0  0  0  0  0  0  0
   -8.9842   21.4253  -32.2828 H   0  0  0  0  0  0  0  0  0  0  0  0
   -7.5700   19.7600  -32.2960 C   0  0  0  0  0  0  0  0  0  0  0  0
   -8.3118   19.0282  -32.6483 H   0  0  0  0  0  0  0  0  0  0  0  0
   -6.2370   19.3480  -32.0550 C   0  0  0  0  0  0  0  0  0  0  0  0
   -5.8560   17.9900  -32.2830 N   0  0  0  0  0  0  0  0  0  0  0  0
   -4.9020   17.7530  -32.6340 H   0  0  0  0  0  0  0  0  0  0  0  0
   -6.5260   17.2080  -32.1020 H   0  0  0  0  0  0  0  0  0  0  0  0
   -5.2830   20.2800  -31.5940 C   0  0  0  0  0  0  0  0  0  0  0  0
   -4.2406   19.9783  -31.4143 H   0  0  0  0  0  0  0  0  0  0  0  0
   -5.6980   21.6000  -31.3710 C   0  0  0  0  0  0  0  0  0  0  0  0
   -4.9610   22.6530  -30.9530 N   0  0  0  0  0  0  0  0  0  0  0  0
   -3.5470   22.6580  -30.6790 C   0  0  0  0  0  0  0  0  0  0  0  0
   -2.7420   22.9380  -31.6060 O   0  0  0  0  0  0  0  0  0  0  0  0
   -2.9950   22.2380  -29.3730 C   0  0  0  0  0  0  0  0  0  0  0  0
   -3.3312   21.2685  -28.9767 H   0  0  0  0  0  0  0  0  0  0  0  0
   -2.1210   22.9320  -28.6270 C   0  0  0  0  0  0  0  0  0  0  0  0
   -1.9371   22.5693  -27.6049 H   0  0  0  0  0  0  0  0  0  0  0  0
   -1.3860   24.1350  -29.0530 C   0  0  0  0  0  0  0  0  0  0  0  0
   -0.1280   24.1600  -29.0780 O   0  0  0  0  0  0  0  0  0  0  0  0
   -2.0940   25.2940  -29.3460 O   0  0  0  0  0  0  0  0  0  0  0  0
  1  2  1  0
  2  3  1  0
  3  4  2  0
  3  5  1  0
  5  6  2  0
  6  7  1  0
  6  8  1  0
  8  9  2  0
  9 10  1  0
  9 11  1  0
 11 12  1  0
 11 13  2  0
 13 14  1  0
 14 15  1  0
 14 16  1  0
 13 17  1  0
 17 18  1  0
 17 19  2  0
 19 20  1  0
 20 21  1  0
 21 22  2  0
 21 23  1  0
 23 24  1  0
 23 25  2  0
 25 26  1  0
 25 27  1  0
 27 28  2  0
 27 29  1  0
 20  5  1  0
 19  8  1  0
M  CHG  2   2  -1  29  -1
M  END
>  <UniqueID>  (4) 
4

>  <SMILES>  (4) 
[NH-]C(=O)c1cc2ccc(N)cc2n1C(=O)/C=C\C(=O)[O-]

>  <Energy>  (4) 
73.66455429670835

>  <Genealogy>  (4) 
[NH-]C(=O)c1cc2ccc(N)cc2n1C(=O)/C=C\C(=O)[O-] (protonated)
[NH-]C(=O)c1cc2ccc(N)cc2n1C(=O)/C=C\C(=O)[O-] (cis-trans isomerization)
[NH-]C(=O)c1cc2ccc(N)cc2n1C(=O)/C=C\C(=O)[O-] (3D coordinates assigned)
[NH-]C(=O)c1cc2ccc(N)cc2n1C(=O)/C=C\C(=O)[O-] (optimized conformer: 73.66455429670835 kcal/mol)

>  <smiles>  (4) 
NC(=O)c1cc2ccc(N)cc2n1C(=O)/C=C\C(=O)O

>  <score_type>  (4) 
oracle

>  <origin>  (4) 
adg

>  <m_score__min__energy>  (4) 
-10.99

>  <m_primary>  (4) 
energy

$$$$
4:0
     RDKit          3D

 31 33  0  0  0  0  0  0  0  0999 V2000
   -3.9930   25.6740  -30.8260 N   0  0  0  0  0  0  0  0  0  0  0  0
   -5.2630   25.1310  -30.4800 C   0  0  0  0  0  0  0  0  0  0  0  0
   -6.0630   25.8200  -29.7940 O   0  0  0  0  0  0  0  0  0  0  0  0
   -5.6770   23.7960  -30.9620 C   0  0  0  0  0  0  0  0  0  0  0  0
   -6.9870   23.4840  -31.3210 C   0  0  0  0  0  0  0  0  0  0  0  0
   -6.9370   22.1920  -31.7950 C   0  0  0  0  0  0  0  0  0  0  0  0
   -7.9540   21.3780  -32.2770 C   0  0  0  0  0  0  0  0  0  0  0  0
   -7.6220   20.0720  -32.6750 C   0  0  0  0  0  0  0  0  0  0  0  0
   -6.2860   19.5960  -32.5740 C   0  0  0  0  0  0  0  0  0  0  0  0
   -5.9380   18.2110  -32.9830 C   0  0  0  0  0  0  0  0  0  0  0  0
   -5.7360   17.1130  -32.1450 C   0  0  0  0  0  0  0  0  0  0  0  0
   -5.4170   15.9340  -32.8300 C   0  0  0  0  0  0  0  0  0  0  0  0
   -5.3630   16.0840  -34.2080 C   0  0  0  0  0  0  0  0  0  0  0  0
   -5.7120   17.6850  -34.5700 S   0  0  0  0  0  0  0  0  0  0  0  0
   -5.2820   20.4620  -32.0770 C   0  0  0  0  0  0  0  0  0  0  0  0
   -5.6400   21.7630  -31.7080 C   0  0  0  0  0  0  0  0  0  0  0  0
   -4.8520   22.7340  -31.1960 N   0  0  0  0  0  0  0  0  0  0  0  0
   -3.4540   22.6200  -30.8910 C   0  0  0  0  0  0  0  0  0  0  0  0
   -2.6820   22.0390  -31.7020 O   0  0  0  0  0  0  0  0  0  0  0  0
   -2.9580   23.1800  -29.7050 O   0  0  0  0  0  0  0  0  0  0  0  0
   -1.7340   23.8470  -29.5810 C   0  0  0  0  0  0  0  0  0  0  0  0
   -0.6380   23.2370  -29.6990 O   0  0  0  0  0  0  0  0  0  0  0  0
   -1.7290   25.2110  -29.3210 O   0  0  0  0  0  0  0  0  0  0  0  0
   -3.1090   25.2420  -30.4730 H   0  0  0  0  0  0  0  0  0  0  0  0
   -7.8725   24.1319  -31.2424 H   0  0  0  0  0  0  0  0  0  0  0  0
   -8.9888   21.7449  -32.3451 H   0  0  0  0  0  0  0  0  0  0  0  0
   -8.4060   19.4091  -33.0699 H   0  0  0  0  0  0  0  0  0  0  0  0
   -5.8195   17.1687  -31.0496 H   0  0  0  0  0  0  0  0  0  0  0  0
   -5.2267   14.9770  -32.3221 H   0  0  0  0  0  0  0  0  0  0  0  0
   -5.1319   15.2923  -34.9358 H   0  0  0  0  0  0  0  0  0  0  0  0
   -4.2412   20.1186  -31.9829 H   0  0  0  0  0  0  0  0  0  0  0  0
  1  2  1  0
  2  3  2  0
  2  4  1  0
  4  5  2  0
  5  6  1  0
  6  7  2  0
  7  8  1  0
  8  9  2  0
  9 10  1  0
 10 11  2  0
 11 12  1  0
 12 13  2  0
 13 14  1  0
  9 15  1  0
 15 16  2  0
 16 17  1  0
 17 18  1  0
 18 19  2  0
 18 20  1  0
 20 21  1  0
 21 22  2  0
 21 23  1  0
 17  4  1  0
 16  6  1  0
 14 10  1  0
  1 24  1  0
  5 25  1  0
  7 26  1  0
  8 27  1  0
 11 28  1  0
 12 29  1  0
 13 30  1  0
 15 31  1  0
M  CHG  2   1  -1  23  -1
M  END
>  <UniqueID>  (5) 
5

>  <SMILES>  (5) 
[NH-]C(=O)c1cc2ccc(-c3cccs3)cc2n1C(=O)OC(=O)[O-]

>  <Energy>  (5) 
102.41822370658956

>  <Genealogy>  (5) 
[NH-]C(=O)c1cc2ccc(-c3cccs3)cc2n1C(=O)OC(=O)[O-] (protonated)
[NH-]C(=O)c1cc2ccc(-c3cccs3)cc2n1C(=O)OC(=O)[O-] (3D coordinates assigned)
[NH-]C(=O)c1cc2ccc(-c3cccs3)cc2n1C(=O)OC(=O)[O-] (optimized conformer: 102.41822370658956 kcal/mol)

>  <smiles>  (5) 
NC(=O)c1cc2ccc(-c3cccs3)cc2n1C(=O)OC(=O)O

>  <score_type>  (5) 
oracle

>  <origin>  (5) 
adg

>  <m_score__min__energy>  (5) 
-11.67

>  <m_primary>  (5) 
energy

$$$$
5:0
     RDKit          3D

 34 35  0  0  0  0  0  0  0  0999 V2000
   -7.7640   18.5850  -32.7220 C   0  0  0  0  0  0  0  0  0  0  0  0
   -7.7140   20.0050  -32.2400 C   0  0  0  0  0  0  0  0  0  0  0  0
   -8.9020   20.6530  -31.8240 C   0  0  0  0  0  0  0  0  0  0  0  0
   -8.8620   21.9660  -31.3240 C   0  0  0  0  0  0  0  0  0  0  0  0
   -7.6240   22.5970  -31.2470 C   0  0  0  0  0  0  0  0  0  0  0  0
   -7.2970   23.8470  -30.7740 C   0  0  0  0  0  0  0  0  0  0  0  0
   -5.9140   23.9450  -30.9160 C   0  0  0  0  0  0  0  0  0  0  0  0
   -5.1500   25.1710  -30.6030 C   0  0  0  0  0  0  0  0  0  0  0  0
   -3.7470   25.2420  -30.8430 N   0  0  0  0  0  0  0  0  0  0  0  0
   -5.7530   26.1860  -30.1630 O   0  0  0  0  0  0  0  0  0  0  0  0
   -5.4050   22.7970  -31.4470 N   0  0  0  0  0  0  0  0  0  0  0  0
   -4.0230   22.4660  -31.6550 C   0  0  0  0  0  0  0  0  0  0  0  0
   -3.5750   22.3670  -32.8290 O   0  0  0  0  0  0  0  0  0  0  0  0
   -3.1950   22.2340  -30.5480 O   0  0  0  0  0  0  0  0  0  0  0  0
   -1.8400   22.5780  -30.4690 C   0  0  0  0  0  0  0  0  0  0  0  0
   -0.9800   22.0030  -31.1920 O   0  0  0  0  0  0  0  0  0  0  0  0
   -1.4540   23.5750  -29.5680 O   0  0  0  0  0  0  0  0  0  0  0  0
   -2.1970   23.9080  -28.3980 C   0  0  0  0  0  0  0  0  0  0  0  0
   -1.8100   25.2940  -27.8910 C   0  0  0  0  0  0  0  0  0  0  0  0
   -1.5760   26.1340  -28.9630 F   0  0  0  0  0  0  0  0  0  0  0  0
   -6.4660   21.9830  -31.6470 C   0  0  0  0  0  0  0  0  0  0  0  0
   -6.4730   20.6700  -32.1310 C   0  0  0  0  0  0  0  0  0  0  0  0
   -7.7879   17.9050  -31.8577 H   0  0  0  0  0  0  0  0  0  0  0  0
   -8.6679   18.4361  -33.3309 H   0  0  0  0  0  0  0  0  0  0  0  0
   -6.8728   18.3729  -33.3309 H   0  0  0  0  0  0  0  0  0  0  0  0
   -9.8643   20.1246  -31.8926 H   0  0  0  0  0  0  0  0  0  0  0  0
   -9.7808   22.4789  -31.0035 H   0  0  0  0  0  0  0  0  0  0  0  0
   -7.9815   24.6073  -30.3698 H   0  0  0  0  0  0  0  0  0  0  0  0
   -3.1330   24.4120  -30.6910 H   0  0  0  0  0  0  0  0  0  0  0  0
   -3.2707   23.8974  -28.6367 H   0  0  0  0  0  0  0  0  0  0  0  0
   -1.9735   23.1691  -27.6144 H   0  0  0  0  0  0  0  0  0  0  0  0
   -2.6286   25.7012  -27.2794 H   0  0  0  0  0  0  0  0  0  0  0  0
   -0.8968   25.2172  -27.2825 H   0  0  0  0  0  0  0  0  0  0  0  0
   -5.5368   20.1693  -32.4189 H   0  0  0  0  0  0  0  0  0  0  0  0
  1  2  1  0
  2  3  2  0
  3  4  1  0
  4  5  2  0
  5  6  1  0
  6  7  2  0
  7  8  1  0
  8  9  1  0
  8 10  2  0
  7 11  1  0
 11 12  1  0
 12 13  2  0
 12 14  1  0
 14 15  1  0
 15 16  2  0
 15 17  1  0
 17 18  1  0
 18 19  1  0
 19 20  1  0
 11 21  1  0
 21 22  2  0
 22  2  1  0
 21  5  1  0
  1 23  1  0
  1 24  1  0
  1 25  1  0
  3 26  1  0
  4 27  1  0
  6 28  1  0
  9 29  1  0
 18 30  1  0
 18 31  1  0
 19 32  1  0
 19 33  1  0
 22 34  1  0
M  CHG  1   9  -1
M  END
>  <UniqueID>  (6) 
6

>  <SMILES>  (6) 
Cc1ccc2cc(C([NH-])=O)n(C(=O)OC(=O)OCCF)c2c1

>  <Energy>  (6) 
69.98582872429873

>  <Genealogy>  (6) 
Cc1ccc2cc(C([NH-])=O)n(C(=O)OC(=O)OCCF)c2c1 (protonated)
Cc1ccc2cc(C([NH-])=O)n(C(=O)OC(=O)OCCF)c2c1 (3D coordinates assigned)
Cc1ccc2cc(C([NH-])=O)n(C(=O)OC(=O)OCCF)c2c1 (optimized conformer: 69.98582872429873 kcal/mol)

>  <smiles>  (6) 
Cc1ccc2cc(C(N)=O)n(C(=O)OC(=O)OCCF)c2c1

>  <score_type>  (6) 
oracle

>  <origin>  (6) 
adg

>  <m_score__min__energy>  (6) 
-9.3200000000000003

>  <m_primary>  (6) 
energy

$$$$
6:0
     RDKit          3D

 45 46  0  0  0  0  0  0  0  0999 V2000
   -6.0410   18.5220  -34.0870 C   0  0  0  0  0  0  0  0  0  0  0  0
   -7.1760   18.6310  -33.0710 C   0  0  0  0  0  0  0  0  0  0  0  0
   -7.2670   20.0270  -32.5190 C   0  0  0  0  0  0  0  0  0  0  0  0
   -8.5310   20.5800  -32.1950 C   0  0  0  0  0  0  0  0  0  0  0  0
   -8.6280   21.8700  -31.6450 C   0  0  0  0  0  0  0  0  0  0  0  0
   -7.4490   22.5790  -31.4300 C   0  0  0  0  0  0  0  0  0  0  0  0
   -7.2550   23.8310  -30.8940 C   0  0  0  0  0  0  0  0  0  0  0  0
   -5.8750   24.0290  -30.9050 C   0  0  0  0  0  0  0  0  0  0  0  0
   -5.2330   25.2960  -30.5000 C   0  0  0  0  0  0  0  0  0  0  0  0
   -3.8990   25.5810  -30.9160 N   0  0  0  0  0  0  0  0  0  0  0  0
   -5.8330   26.1140  -29.7530 O   0  0  0  0  0  0  0  0  0  0  0  0
   -5.2400   22.9360  -31.4180 N   0  0  0  0  0  0  0  0  0  0  0  0
   -3.8260   22.7150  -31.5440 C   0  0  0  0  0  0  0  0  0  0  0  0
   -3.3570   22.2190  -32.6050 O   0  0  0  0  0  0  0  0  0  0  0  0
   -2.9720   23.0720  -30.4950 O   0  0  0  0  0  0  0  0  0  0  0  0
   -1.8470   22.2890  -30.1120 C   0  0  0  0  0  0  0  0  0  0  0  0
   -2.1140   21.6410  -28.8730 O   0  0  0  0  0  0  0  0  0  0  0  0
   -1.9180   22.2660  -27.6380 C   0  0  0  0  0  0  0  0  0  0  0  0
   -1.0720   21.8190  -26.8160 O   0  0  0  0  0  0  0  0  0  0  0  0
   -2.6880   23.5070  -27.3150 C   0  0  0  0  0  0  0  0  0  0  0  0
   -1.9240   24.3580  -26.2950 C   0  0  0  0  0  0  0  0  0  0  0  0
   -1.5010   25.7010  -26.9020 C   0  0  0  0  0  0  0  0  0  0  0  0
   -0.7410   25.5050  -28.1780 C   0  0  0  0  0  0  0  0  0  0  0  0
    0.3530   24.8800  -28.1830 O   0  0  0  0  0  0  0  0  0  0  0  0
   -1.2320   26.0390  -29.3640 O   0  0  0  0  0  0  0  0  0  0  0  0
   -6.2180   22.0590  -31.7390 C   0  0  0  0  0  0  0  0  0  0  0  0
   -6.0900   20.7690  -32.2710 C   0  0  0  0  0  0  0  0  0  0  0  0
   -5.0817   18.4299  -33.5566 H   0  0  0  0  0  0  0  0  0  0  0  0
   -6.1977   17.6348  -34.7181 H   0  0  0  0  0  0  0  0  0  0  0  0
   -6.0260   19.4228  -34.7181 H   0  0  0  0  0  0  0  0  0  0  0  0
   -8.1260   18.3752  -33.5629 H   0  0  0  0  0  0  0  0  0  0  0  0
   -6.9747   17.9367  -32.2419 H   0  0  0  0  0  0  0  0  0  0  0  0
   -9.4445   19.9944  -32.3756 H   0  0  0  0  0  0  0  0  0  0  0  0
   -9.6057   22.3062  -31.3921 H   0  0  0  0  0  0  0  0  0  0  0  0
   -8.0255   24.5282  -30.5332 H   0  0  0  0  0  0  0  0  0  0  0  0
   -3.0820   25.2890  -30.3330 H   0  0  0  0  0  0  0  0  0  0  0  0
   -1.6477   21.5323  -30.8851 H   0  0  0  0  0  0  0  0  0  0  0  0
   -0.9691   22.9423  -30.0001 H   0  0  0  0  0  0  0  0  0  0  0  0
   -2.8374   24.0909  -28.2352 H   0  0  0  0  0  0  0  0  0  0  0  0
   -3.6604   23.2228  -26.8864 H   0  0  0  0  0  0  0  0  0  0  0  0
   -2.5720   24.5448  -25.4260 H   0  0  0  0  0  0  0  0  0  0  0  0
   -1.0188   23.8112  -25.9923 H   0  0  0  0  0  0  0  0  0  0  0  0
   -2.4001   26.3002  -27.1086 H   0  0  0  0  0  0  0  0  0  0  0  0
   -0.8470   26.2167  -26.1835 H   0  0  0  0  0  0  0  0  0  0  0  0
   -5.0990   20.3448  -32.4900 H   0  0  0  0  0  0  0  0  0  0  0  0
  1  2  1  0
  2  3  1  0
  3  4  2  0
  4  5  1  0
  5  6  2  0
  6  7  1  0
  7  8  2  0
  8  9  1  0
  9 10  1  0
  9 11  2  0
  8 12  1  0
 12 13  1  0
 13 14  2  0
 13 15  1  0
 15 16  1  0
 16 17  1  0
 17 18  1  0
 18 19  2  0
 18 20  1  0
 20 21  1  0
 21 22  1  0
 22 23  1  0
 23 24  2  0
 23 25  1  0
 12 26  1  0
 26 27  2  0
 27  3  1  0
 26  6  1  0
  1 28  1  0
  1 29  1  0
  1 30  1  0
  2 31  1  0
  2 32  1  0
  4 33  1  0
  5 34  1  0
  7 35  1  0
 10 36  1  0
 16 37  1  0
 16 38  1  0
 20 39  1  0
 20 40  1  0
 21 41  1  0
 21 42  1  0
 22 43  1  0
 22 44  1  0
 27 45  1  0
M  CHG  2  10  -1  25  -1
M  END
>  <UniqueID>  (7) 
7

>  <SMILES>  (7) 
CCc1ccc2cc(C([NH-])=O)n(C(=O)OCOC(=O)CCCC(=O)[O-])c2c1

>  <Energy>  (7) 
70.62768377096431

>  <Genealogy>  (7) 
CCc1ccc2cc(C([NH-])=O)n(C(=O)OCOC(=O)CCCC(=O)[O-])c2c1 (protonated)
CCc1ccc2cc(C([NH-])=O)n(C(=O)OCOC(=O)CCCC(=O)[O-])c2c1 (3D coordinates assigned)
CCc1ccc2cc(C([NH-])=O)n(C(=O)OCOC(=O)CCCC(=O)[O-])c2c1 (optimized conformer: 70.62768377096431 kcal/mol)

>  <smiles>  (7) 
CCc1ccc2cc(C(N)=O)n(C(=O)OCOC(=O)CCCC(=O)O)c2c1

>  <score_type>  (7) 
oracle

>  <origin>  (7) 
adg

>  <m_score__min__energy>  (7) 
-12.33

>  <m_primary>  (7) 
energy

$$$$
7:0
     RDKit          3D

 36 37  0  0  0  0  0  0  0  0999 V2000
   -3.3020   25.2710  -26.0440 C   0  0  0  0  0  0  0  0  0  0  0  0
   -4.1300   24.7600  -27.1390 N   0  0  0  0  0  0  0  0  0  0  0  0
   -3.6520   23.4560  -27.6220 C   0  0  0  0  0  0  0  0  0  0  0  0
   -3.2890   23.4930  -29.0800 C   0  0  0  0  0  0  0  0  0  0  0  0
   -2.8190   24.5530  -29.5770 O   0  0  0  0  0  0  0  0  0  0  0  0
   -3.4940   22.3510  -29.8640 O   0  0  0  0  0  0  0  0  0  0  0  0
   -4.0590   22.3470  -31.1470 C   0  0  0  0  0  0  0  0  0  0  0  0
   -3.3410   22.1640  -32.1680 O   0  0  0  0  0  0  0  0  0  0  0  0
   -5.4750   22.5460  -31.2940 N   0  0  0  0  0  0  0  0  0  0  0  0
   -6.1960   23.6350  -30.9060 C   0  0  0  0  0  0  0  0  0  0  0  0
   -5.6390   24.9110  -30.4150 C   0  0  0  0  0  0  0  0  0  0  0  0
   -5.7410   25.2820  -29.0390 N   0  0  0  0  0  0  0  0  0  0  0  0
   -5.0120   25.6600  -31.2110 O   0  0  0  0  0  0  0  0  0  0  0  0
   -7.5590   23.4130  -31.0840 C   0  0  0  0  0  0  0  0  0  0  0  0
   -7.6540   22.1450  -31.6120 C   0  0  0  0  0  0  0  0  0  0  0  0
   -8.7790   21.4060  -31.9640 C   0  0  0  0  0  0  0  0  0  0  0  0
   -8.5850   20.1010  -32.4460 C   0  0  0  0  0  0  0  0  0  0  0  0
   -7.2800   19.5640  -32.5690 C   0  0  0  0  0  0  0  0  0  0  0  0
   -7.0900   18.1510  -33.0350 C   0  0  0  0  0  0  0  0  0  0  0  0
   -6.1620   20.3370  -32.1860 C   0  0  0  0  0  0  0  0  0  0  0  0
   -6.3820   21.6420  -31.7280 C   0  0  0  0  0  0  0  0  0  0  0  0
   -3.7545   24.9918  -25.0810 H   0  0  0  0  0  0  0  0  0  0  0  0
   -2.2932   24.8382  -26.1143 H   0  0  0  0  0  0  0  0  0  0  0  0
   -3.2366   26.3668  -26.1143 H   0  0  0  0  0  0  0  0  0  0  0  0
   -4.1150   25.4520  -27.9240 H   0  0  0  0  0  0  0  0  0  0  0  0
   -2.7631   23.1668  -27.0421 H   0  0  0  0  0  0  0  0  0  0  0  0
   -4.4660   22.7274  -27.4934 H   0  0  0  0  0  0  0  0  0  0  0  0
   -5.3690   26.2030  -28.7150 H   0  0  0  0  0  0  0  0  0  0  0  0
   -6.1160   24.6180  -28.3260 H   0  0  0  0  0  0  0  0  0  0  0  0
   -8.3836   24.1032  -30.8523 H   0  0  0  0  0  0  0  0  0  0  0  0
   -9.7892   21.8306  -31.8678 H   0  0  0  0  0  0  0  0  0  0  0  0
   -9.4546   19.4904  -32.7306 H   0  0  0  0  0  0  0  0  0  0  0  0
   -7.0006   17.4863  -32.1631 H   0  0  0  0  0  0  0  0  0  0  0  0
   -7.9552   17.8456  -33.6418 H   0  0  0  0  0  0  0  0  0  0  0  0
   -6.1749   18.0849  -33.6418 H   0  0  0  0  0  0  0  0  0  0  0  0
   -5.1440   19.9245  -32.2459 H   0  0  0  0  0  0  0  0  0  0  0  0
  1  2  1  0
  2  3  1  0
  3  4  1  0
  4  5  2  0
  4  6  1  0
  6  7  1  0
  7  8  2  0
  7  9  1  0
  9 10  1  0
 10 11  1  0
 11 12  1  0
 11 13  2  0
 10 14  2  0
 14 15  1  0
 15 16  2  0
 16 17  1  0
 17 18  2  0
 18 19  1  0
 18 20  1  0
 20 21  2  0
 21  9  1  0
 21 15  1  0
  1 22  1  0
  1 23  1  0
  1 24  1  0
  2 25  1  0
  3 26  1  0
  3 27  1  0
 12 28  1  0
 12 29  1  0
 14 30  1  0
 16 31  1  0
 17 32  1  0
 19 33  1  0
 19 34  1  0
 19 35  1  0
 20 36  1  0
M  END
>  <UniqueID>  (8) 
8

>  <SMILES>  (8) 
CNCC(=O)OC(=O)n1c(C(N)=O)cc2ccc(C)cc21

>  <Energy>  (8) 
73.29778595307984

>  <Genealogy>  (8) 
CNCC(=O)OC(=O)n1c(C(N)=O)cc2ccc(C)cc21 (3D coordinates assigned)
CNCC(=O)OC(=O)n1c(C(N)=O)cc2ccc(C)cc21 (optimized conformer: 73.29778595307984 kcal/mol)

>  <smiles>  (8) 
CNCC(=O)OC(=O)n1c(C(N)=O)cc2ccc(C)cc21

>  <score_type>  (8) 
oracle

>  <origin>  (8) 
adg

>  <m_score__min__energy>  (8) 
-8.5099999999999998

>  <m_primary>  (8) 
energy

$$$$
8:0
     RDKit          3D

 58 60  0  0  0  0  0  0  0  0999 V2000
   -4.3540   14.7410  -33.9620 C   0  0  0  0  0  0  0  0  0  0  0  0
   -4.8320   16.0710  -33.5480 N   0  0  0  0  0  0  0  0  0  0  0  0
   -5.8320   16.5780  -34.5070 C   0  0  0  0  0  0  0  0  0  0  0  0
   -6.1270   18.0520  -34.2140 C   0  0  0  0  0  0  0  0  0  0  0  0
   -6.2410   18.2900  -32.7690 N   0  0  0  0  0  0  0  0  0  0  0  0
   -6.5040   19.6280  -32.3010 C   0  0  0  0  0  0  0  0  0  0  0  0
   -7.8390   20.0640  -32.1030 C   0  0  0  0  0  0  0  0  0  0  0  0
   -8.1090   21.3690  -31.6590 C   0  0  0  0  0  0  0  0  0  0  0  0
   -7.0300   22.2100  -31.4120 C   0  0  0  0  0  0  0  0  0  0  0  0
   -7.0090   23.5230  -30.9980 C   0  0  0  0  0  0  0  0  0  0  0  0
   -5.6600   23.8650  -30.9220 C   0  0  0  0  0  0  0  0  0  0  0  0
   -5.1800   25.1720  -30.4300 C   0  0  0  0  0  0  0  0  0  0  0  0
   -3.8980   25.6530  -30.8290 N   0  0  0  0  0  0  0  0  0  0  0  0
   -5.9040   25.8880  -29.6910 O   0  0  0  0  0  0  0  0  0  0  0  0
   -4.8780   22.8080  -31.2820 N   0  0  0  0  0  0  0  0  0  0  0  0
   -3.4470   22.7770  -31.4050 C   0  0  0  0  0  0  0  0  0  0  0  0
   -2.9140   22.2760  -32.4320 O   0  0  0  0  0  0  0  0  0  0  0  0
   -2.6500   23.3170  -30.3910 O   0  0  0  0  0  0  0  0  0  0  0  0
   -1.6630   22.5590  -29.7030 C   0  0  0  0  0  0  0  0  0  0  0  0
   -0.8790   23.4350  -28.9030 O   0  0  0  0  0  0  0  0  0  0  0  0
   -1.3580   24.6630  -28.4330 C   0  0  0  0  0  0  0  0  0  0  0  0
   -1.2760   25.6920  -29.1610 O   0  0  0  0  0  0  0  0  0  0  0  0
   -1.8940   24.7620  -27.0170 C   0  0  0  0  0  0  0  0  0  0  0  0
   -1.2230   23.6740  -26.1610 C   0  0  0  0  0  0  0  0  0  0  0  0
   -3.4190   24.5430  -27.0250 C   0  0  0  0  0  0  0  0  0  0  0  0
   -1.5940   26.1490  -26.4110 C   0  0  0  0  0  0  0  0  0  0  0  0
   -5.7330   21.8020  -31.5780 C   0  0  0  0  0  0  0  0  0  0  0  0
   -5.4340   20.5150  -32.0400 C   0  0  0  0  0  0  0  0  0  0  0  0
   -6.3780   17.1540  -31.8480 C   0  0  0  0  0  0  0  0  0  0  0  0
   -5.3750   16.0210  -32.1660 C   0  0  0  0  0  0  0  0  0  0  0  0
   -4.1364   14.1355  -33.0698 H   0  0  0  0  0  0  0  0  0  0  0  0
   -5.1295   14.2433  -34.5627 H   0  0  0  0  0  0  0  0  0  0  0  0
   -3.4391   14.8508  -34.5627 H   0  0  0  0  0  0  0  0  0  0  0  0
   -4.0030   16.7150  -33.5570 H   0  0  0  0  0  0  0  0  0  0  0  0
   -5.4401   16.4799  -35.5301 H   0  0  0  0  0  0  0  0  0  0  0  0
   -6.7593   15.9944  -34.4092 H   0  0  0  0  0  0  0  0  0  0  0  0
   -5.3102   18.6690  -34.6167 H   0  0  0  0  0  0  0  0  0  0  0  0
   -7.0826   18.3188  -34.6891 H   0  0  0  0  0  0  0  0  0  0  0  0
   -8.6719   19.3728  -32.2992 H   0  0  0  0  0  0  0  0  0  0  0  0
   -9.1427   21.7149  -31.5113 H   0  0  0  0  0  0  0  0  0  0  0  0
   -7.8734   24.1656  -30.7747 H   0  0  0  0  0  0  0  0  0  0  0  0
   -3.0270   25.3020  -30.3710 H   0  0  0  0  0  0  0  0  0  0  0  0
   -2.1531   21.8126  -29.0605 H   0  0  0  0  0  0  0  0  0  0  0  0
   -1.0181   22.0431  -30.4296 H   0  0  0  0  0  0  0  0  0  0  0  0
   -1.3660   23.9058  -25.0953 H   0  0  0  0  0  0  0  0  0  0  0  0
   -1.6761   22.6976  -26.3878 H   0  0  0  0  0  0  0  0  0  0  0  0
   -0.1472   23.6406  -26.3878 H   0  0  0  0  0  0  0  0  0  0  0  0
   -3.7873   24.4901  -25.9898 H   0  0  0  0  0  0  0  0  0  0  0  0
   -3.9069   25.3803  -27.5454 H   0  0  0  0  0  0  0  0  0  0  0  0
   -3.6516   23.6022  -27.5454 H   0  0  0  0  0  0  0  0  0  0  0  0
   -1.6088   26.0805  -25.3132 H   0  0  0  0  0  0  0  0  0  0  0  0
   -0.6018   26.4878  -26.7439 H   0  0  0  0  0  0  0  0  0  0  0  0
   -2.3575   26.8675  -26.7439 H   0  0  0  0  0  0  0  0  0  0  0  0
   -4.3914   20.2010  -32.1963 H   0  0  0  0  0  0  0  0  0  0  0  0
   -6.2004   17.5067  -30.8213 H   0  0  0  0  0  0  0  0  0  0  0  0
   -7.3939   16.7477  -31.9612 H   0  0  0  0  0  0  0  0  0  0  0  0
   -4.5344   16.0939  -31.4603 H   0  0  0  0  0  0  0  0  0  0  0  0
   -5.9232   15.0720  -32.0714 H   0  0  0  0  0  0  0  0  0  0  0  0
  1  2  1  0
  2  3  1  0
  3  4  1  0
  4  5  1  0
  5  6  1  0
  6  7  2  0
  7  8  1  0
  8  9  2  0
  9 10  1  0
 10 11  2  0
 11 12  1  0
 12 13  1  0
 12 14  2  0
 11 15  1  0
 15 16  1  0
 16 17  2  0
 16 18  1  0
 18 19  1  0
 19 20  1  0
 20 21  1  0
 21 22  2  0
 21 23  1  0
 23 24  1  0
 23 25  1  0
 23 26  1  0
 15 27  1  0
 27 28  2  0
  5 29  1  0
 29 30  1  0
 30  2  1  0
 28  6  1  0
 27  9  1  0
  1 31  1  0
  1 32  1  0
  1 33  1  0
  2 34  1  0
  3 35  1  0
  3 36  1  0
  4 37  1  0
  4 38  1  0
  7 39  1  0
  8 40  1  0
 10 41  1  0
 13 42  1  0
 19 43  1  0
 19 44  1  0
 24 45  1  0
 24 46  1  0
 24 47  1  0
 25 48  1  0
 25 49  1  0
 25 50  1  0
 26 51  1  0
 26 52  1  0
 26 53  1  0
 28 54  1  0
 29 55  1  0
 29 56  1  0
 30 57  1  0
 30 58  1  0
M  CHG  2   2   1  13  -1
M  END
>  <UniqueID>  (9) 
9

>  <SMILES>  (9) 
C[NH+]1CCN(c2ccc3cc(C([NH-])=O)n(C(=O)OCOC(=O)C(C)(C)C)c3c2)CC1

>  <Energy>  (9) 
98.84181162270824

>  <Genealogy>  (9) 
C[NH+]1CCN(c2ccc3cc(C([NH-])=O)n(C(=O)OCOC(=O)C(C)(C)C)c3c2)CC1 (protonated)
C[NH+]1CCN(c2ccc3cc(C([NH-])=O)n(C(=O)OCOC(=O)C(C)(C)C)c3c2)CC1 (3D coordinates assigned)
C[NH+]1CCN(c2ccc3cc(C([NH-])=O)n(C(=O)OCOC(=O)C(C)(C)C)c3c2)CC1 (nonaromatic ring conformer: 98.84181162270824 kcal/mol)

>  <smiles>  (9) 
CN1CCN(c2ccc3cc(C(N)=O)n(C(=O)OCOC(=O)C(C)(C)C)c3c2)CC1

>  <score_type>  (9) 
oracle

>  <origin>  (9) 
adg

>  <m_score__min__energy>  (9) 
-10.98

>  <m_primary>  (9) 
energy

$$$$
9:0
     RDKit          3D

 27 28  0  0  0  0  0  0  0  0999 V2000
   -1.2490   22.7710  -29.8610 N   0  0  0  0  0  0  0  0  0  0  0  0
   -1.6350   22.1380  -31.0840 C   0  0  0  0  0  0  0  0  0  0  0  0
   -0.7390   21.7720  -31.8900 O   0  0  0  0  0  0  0  0  0  0  0  0
   -3.0620   21.8950  -31.3990 C   0  0  0  0  0  0  0  0  0  0  0  0
   -3.5180   20.9840  -32.3520 C   0  0  0  0  0  0  0  0  0  0  0  0
   -4.8890   21.1100  -32.3530 C   0  0  0  0  0  0  0  0  0  0  0  0
   -5.8510   20.4190  -33.0820 C   0  0  0  0  0  0  0  0  0  0  0  0
   -7.2030   20.7250  -32.8460 C   0  0  0  0  0  0  0  0  0  0  0  0
   -7.5670   21.7160  -31.8980 C   0  0  0  0  0  0  0  0  0  0  0  0
   -9.0190   21.9930  -31.6030 C   0  0  0  0  0  0  0  0  0  0  0  0
   -9.2240   21.9370  -30.2380 F   0  0  0  0  0  0  0  0  0  0  0  0
   -9.8350   21.0610  -32.2210 F   0  0  0  0  0  0  0  0  0  0  0  0
   -9.3750   23.2510  -32.0620 F   0  0  0  0  0  0  0  0  0  0  0  0
   -6.5580   22.3780  -31.1610 C   0  0  0  0  0  0  0  0  0  0  0  0
   -5.2220   22.0670  -31.4320 C   0  0  0  0  0  0  0  0  0  0  0  0
   -4.1110   22.5630  -30.8450 N   0  0  0  0  0  0  0  0  0  0  0  0
   -4.0660   23.5330  -29.7860 C   0  0  0  0  0  0  0  0  0  0  0  0
   -4.5020   23.2290  -28.6440 O   0  0  0  0  0  0  0  0  0  0  0  0
   -3.5040   24.8720  -30.0120 C   0  0  0  0  0  0  0  0  0  0  0  0
   -4.0450   25.6630  -30.8290 O   0  0  0  0  0  0  0  0  0  0  0  0
   -2.3550   25.2680  -29.3360 O   0  0  0  0  0  0  0  0  0  0  0  0
   -0.2370   22.9060  -29.6400 H   0  0  0  0  0  0  0  0  0  0  0  0
   -1.9560   23.1470  -29.1930 H   0  0  0  0  0  0  0  0  0  0  0  0
   -2.9106   20.3079  -32.9717 H   0  0  0  0  0  0  0  0  0  0  0  0
   -5.5630   19.6564  -33.8206 H   0  0  0  0  0  0  0  0  0  0  0  0
   -7.9870   20.1903  -33.4023 H   0  0  0  0  0  0  0  0  0  0  0  0
   -6.8181   23.1205  -30.3922 H   0  0  0  0  0  0  0  0  0  0  0  0
  1  2  1  0
  2  3  2  0
  2  4  1  0
  4  5  2  0
  5  6  1  0
  6  7  2  0
  7  8  1  0
  8  9  2  0
  9 10  1  0
 10 11  1  0
 10 12  1  0
 10 13  1  0
  9 14  1  0
 14 15  2  0
 15 16  1  0
 16 17  1  0
 17 18  2  0
 17 19  1  0
 19 20  2  0
 19 21  1  0
 16  4  1  0
 15  6  1  0
  1 22  1  0
  1 23  1  0
  5 24  1  0
  7 25  1  0
  8 26  1  0
 14 27  1  0
M  CHG  1  21  -1
M  END
>  <UniqueID>  (10) 
10

>  <SMILES>  (10) 
NC(=O)c1cc2ccc(C(F)(F)F)cc2n1C(=O)C(=O)[O-]

>  <Energy>  (10) 
67.23187058888023

>  <Genealogy>  (10) 
NC(=O)c1cc2ccc(C(F)(F)F)cc2n1C(=O)C(=O)[O-] (protonated)
NC(=O)c1cc2ccc(C(F)(F)F)cc2n1C(=O)C(=O)[O-] (3D coordinates assigned)
NC(=O)c1cc2ccc(C(F)(F)F)cc2n1C(=O)C(=O)[O-] (optimized conformer: 67.23187058888023 kcal/mol)

>  <smiles>  (10) 
NC(=O)c1cc2ccc(C(F)(F)F)cc2n1C(=O)C(=O)O

>  <score_type>  (10) 
oracle

>  <origin>  (10) 
adg

>  <m_score__min__energy>  (10) 
-8.3900000000000006

>  <m_primary>  (10) 
energy

$$$$
10:0
     RDKit          3D

 39 40  0  0  0  0  0  0  0  0999 V2000
   -2.7250   21.0650  -33.4560 C   0  0  0  0  0  0  0  0  0  0  0  0
   -3.9550   21.4180  -32.8350 O   0  0  0  0  0  0  0  0  0  0  0  0
   -4.0430   22.3890  -31.8320 C   0  0  0  0  0  0  0  0  0  0  0  0
   -3.0330   23.0820  -31.5280 O   0  0  0  0  0  0  0  0  0  0  0  0
   -5.2930   22.6130  -31.1650 N   0  0  0  0  0  0  0  0  0  0  0  0
   -5.6060   23.6020  -30.2790 C   0  0  0  0  0  0  0  0  0  0  0  0
   -4.6610   24.5720  -29.6890 C   0  0  0  0  0  0  0  0  0  0  0  0
   -3.8820   25.4330  -30.5150 N   0  0  0  0  0  0  0  0  0  0  0  0
   -4.5040   24.6080  -28.4390 O   0  0  0  0  0  0  0  0  0  0  0  0
   -6.9520   23.5300  -29.9220 C   0  0  0  0  0  0  0  0  0  0  0  0
   -7.4560   22.4540  -30.6160 C   0  0  0  0  0  0  0  0  0  0  0  0
   -8.7450   21.9290  -30.6380 C   0  0  0  0  0  0  0  0  0  0  0  0
   -8.9910   20.8210  -31.4660 C   0  0  0  0  0  0  0  0  0  0  0  0
   -7.9560   20.2710  -32.2660 C   0  0  0  0  0  0  0  0  0  0  0  0
   -8.2150   19.1210  -33.0980 N   0  0  0  0  0  0  0  0  0  0  0  0
   -7.2490   18.0540  -32.7910 C   0  0  0  0  0  0  0  0  0  0  0  0
   -6.0500   18.0570  -33.7680 C   0  0  1  0  0  0  0  0  0  0  0  0
   -5.9490   19.3170  -34.3810 O   0  0  0  0  0  0  0  0  0  0  0  0
   -4.7150   17.7310  -33.0790 C   0  0  0  0  0  0  0  0  0  0  0  0
   -4.2860   18.7910  -32.2660 O   0  0  0  0  0  0  0  0  0  0  0  0
   -6.6570   20.8270  -32.2070 C   0  0  0  0  0  0  0  0  0  0  0  0
   -6.4370   21.9180  -31.3580 C   0  0  0  0  0  0  0  0  0  0  0  0
   -1.9727   20.8491  -32.6831 H   0  0  0  0  0  0  0  0  0  0  0  0
   -2.8733   20.1732  -34.0826 H   0  0  0  0  0  0  0  0  0  0  0  0
   -2.3778   21.8998  -34.0826 H   0  0  0  0  0  0  0  0  0  0  0  0
   -2.9100   25.1720  -30.7960 H   0  0  0  0  0  0  0  0  0  0  0  0
   -7.4954   24.1925  -29.2322 H   0  0  0  0  0  0  0  0  0  0  0  0
   -9.5465   22.3682  -30.0258 H   0  0  0  0  0  0  0  0  0  0  0  0
   -9.9962   20.3752  -31.4945 H   0  0  0  0  0  0  0  0  0  0  0  0
   -9.1890   18.7850  -32.9200 H   0  0  0  0  0  0  0  0  0  0  0  0
   -8.1430   19.3940  -34.1060 H   0  0  0  0  0  0  0  0  0  0  0  0
   -6.8731   18.1994  -31.7675 H   0  0  0  0  0  0  0  0  0  0  0  0
   -7.7665   17.0886  -32.8923 H   0  0  0  0  0  0  0  0  0  0  0  0
   -6.2406   17.2686  -34.5110 H   0  0  0  0  0  0  0  0  0  0  0  0
   -5.2360   19.8150  -33.9010 H   0  0  0  0  0  0  0  0  0  0  0  0
   -4.8431   16.8325  -32.4575 H   0  0  0  0  0  0  0  0  0  0  0  0
   -3.9560   17.5625  -33.8572 H   0  0  0  0  0  0  0  0  0  0  0  0
   -4.5770   19.6280  -32.7120 H   0  0  0  0  0  0  0  0  0  0  0  0
   -5.8388   20.4120  -32.8139 H   0  0  0  0  0  0  0  0  0  0  0  0
  1  2  1  0
  2  3  1  0
  3  4  2  0
  3  5  1  0
  5  6  1  0
  6  7  1  0
  7  8  1  0
  7  9  2  0
  6 10  2  0
 10 11  1  0
 11 12  2  0
 12 13  1  0
 13 14  2  0
 14 15  1  0
 15 16  1  0
 16 17  1  0
 17 18  1  0
 17 19  1  0
 19 20  1  0
 14 21  1  0
 21 22  2  0
 22  5  1  0
 22 11  1  0
  1 23  1  0
  1 24  1  0
  1 25  1  0
  8 26  1  0
 10 27  1  0
 12 28  1  0
 13 29  1  0
 15 30  1  0
 15 31  1  0
 16 32  1  0
 16 33  1  0
 17 34  1  6
 18 35  1  0
 19 36  1  0
 19 37  1  0
 20 38  1  0
 21 39  1  0
M  CHG  2   8  -1  15   1
M  END
>  <UniqueID>  (11) 
11

>  <SMILES>  (11) 
COC(=O)n1c(C([NH-])=O)cc2ccc([NH2+]C[C@@H](O)CO)cc21

>  <Energy>  (11) 
74.61396946124009

>  <Genealogy>  (11) 
COC(=O)n1c(C([NH-])=O)cc2ccc([NH2+]CC(O)CO)cc21 (protonated)
COC(=O)n1c(C([NH-])=O)cc2ccc([NH2+]C[C@@H](O)CO)cc21 (chirality)
COC(=O)n1c(C([NH-])=O)cc2ccc([NH2+]C[C@@H](O)CO)cc21 (3D coordinates assigned)
COC(=O)n1c(C([NH-])=O)cc2ccc([NH2+]C[C@@H](O)CO)cc21 (optimized conformer: 74.61396946124009 kcal/mol)

>  <smiles>  (11) 
COC(=O)n1c(C(N)=O)cc2ccc(NCC(O)CO)cc21

>  <score_type>  (11) 
oracle

>  <origin>  (11) 
adg

>  <m_score__min__energy>  (11) 
-9.0600000000000005

>  <m_primary>  (11) 
energy

$$$$
11:0
     RDKit          3D

 38 40  0  0  0  0  0  0  0  0999 V2000
   -3.9480   25.6490  -30.8430 N   0  0  0  0  0  0  0  0  0  0  0  0
   -5.2180   25.2480  -30.3380 C   0  0  0  0  0  0  0  0  0  0  0  0
   -5.7960   25.9680  -29.4800 O   0  0  0  0  0  0  0  0  0  0  0  0
   -5.8900   24.0330  -30.8430 C   0  0  0  0  0  0  0  0  0  0  0  0
   -7.2700   23.8460  -30.8000 C   0  0  0  0  0  0  0  0  0  0  0  0
   -7.4980   22.6510  -31.4440 C   0  0  0  0  0  0  0  0  0  0  0  0
   -8.6920   21.9790  -31.6870 C   0  0  0  0  0  0  0  0  0  0  0  0
   -8.6280   20.7460  -32.3570 C   0  0  0  0  0  0  0  0  0  0  0  0
   -7.3810   20.2010  -32.7570 C   0  0  0  0  0  0  0  0  0  0  0  0
   -7.3260   18.9380  -33.4550 N   0  0  0  0  0  0  0  0  0  0  0  0
   -6.3730   18.0150  -32.8170 C   0  0  0  0  0  0  0  0  0  0  0  0
   -5.2820   17.6050  -33.7630 C   0  0  0  0  0  0  0  0  0  0  0  0
   -4.2890   16.9530  -33.3430 O   0  0  0  0  0  0  0  0  0  0  0  0
   -5.3440   17.9790  -35.0990 O   0  0  0  0  0  0  0  0  0  0  0  0
   -6.1900   20.9170  -32.4940 C   0  0  0  0  0  0  0  0  0  0  0  0
   -6.2850   22.1530  -31.8440 C   0  0  0  0  0  0  0  0  0  0  0  0
   -5.2870   22.9890  -31.4810 N   0  0  0  0  0  0  0  0  0  0  0  0
   -3.8830   22.7590  -31.6720 C   0  0  0  0  0  0  0  0  0  0  0  0
   -3.0530   23.1780  -30.8190 O   0  0  0  0  0  0  0  0  0  0  0  0
   -3.4460   22.0420  -32.7890 O   0  0  0  0  0  0  0  0  0  0  0  0
   -2.5930   20.9040  -32.6890 C   0  0  0  0  0  0  0  0  0  0  0  0
   -2.8250   19.9070  -33.7970 C   0  0  0  0  0  0  0  0  0  0  0  0
   -1.5770   20.1760  -34.3900 O   0  0  0  0  0  0  0  0  0  0  0  0
   -1.2790   21.1240  -33.3930 C   0  0  0  0  0  0  0  0  0  0  0  0
   -3.0630   25.2990  -30.4120 H   0  0  0  0  0  0  0  0  0  0  0  0
   -8.0189   24.5124  -30.3472 H   0  0  0  0  0  0  0  0  0  0  0  0
   -9.6557   22.4001  -31.3646 H   0  0  0  0  0  0  0  0  0  0  0  0
   -9.5559   20.1966  -32.5740 H   0  0  0  0  0  0  0  0  0  0  0  0
   -8.2760   18.5000  -33.4410 H   0  0  0  0  0  0  0  0  0  0  0  0
   -7.0670   19.0820  -34.4600 H   0  0  0  0  0  0  0  0  0  0  0  0
   -5.9218   18.5135  -31.9465 H   0  0  0  0  0  0  0  0  0  0  0  0
   -6.9213   17.1114  -32.5123 H   0  0  0  0  0  0  0  0  0  0  0  0
   -5.2120   20.5121  -32.7932 H   0  0  0  0  0  0  0  0  0  0  0  0
   -2.6938   20.6659  -31.6198 H   0  0  0  0  0  0  0  0  0  0  0  0
   -2.9270   18.8713  -33.4407 H   0  0  0  0  0  0  0  0  0  0  0  0
   -3.7350   19.9929  -34.4089 H   0  0  0  0  0  0  0  0  0  0  0  0
   -0.4043   20.8569  -32.7818 H   0  0  0  0  0  0  0  0  0  0  0  0
   -1.0018   22.1447  -33.6953 H   0  0  0  0  0  0  0  0  0  0  0  0
  1  2  1  0
  2  3  2  0
  2  4  1  0
  4  5  2  0
  5  6  1  0
  6  7  2  0
  7  8  1  0
  8  9  2  0
  9 10  1  0
 10 11  1  0
 11 12  1  0
 12 13  2  0
 12 14  1  0
  9 15  1  0
 15 16  2  0
 16 17  1  0
 17 18  1  0
 18 19  2  0
 18 20  1  0
 20 21  1  0
 21 22  1  0
 22 23  1  0
 23 24  1  0
 17  4  1  0
 24 21  1  0
 16  6  1  0
  1 25  1  0
  5 26  1  0
  7 27  1  0
  8 28  1  0
 10 29  1  0
 10 30  1  0
 11 31  1  0
 11 32  1  0
 15 33  1  0
 21 34  1  0
 22 35  1  0
 22 36  1  0
 24 37  1  0
 24 38  1  0
M  CHG  3   1  -1  10   1  14  -1
M  END
>  <UniqueID>  (12) 
12

>  <SMILES>  (12) 
[NH-]C(=O)c1cc2ccc([NH2+]CC(=O)[O-])cc2n1C(=O)OC1COC1

>  <Energy>  (12) 
139.89947317338178

>  <Genealogy>  (12) 
[NH-]C(=O)c1cc2ccc([NH2+]CC(=O)[O-])cc2n1C(=O)OC1COC1 (protonated)
[NH-]C(=O)c1cc2ccc([NH2+]CC(=O)[O-])cc2n1C(=O)OC1COC1 (3D coordinates assigned)
[NH-]C(=O)c1cc2ccc([NH2+]CC(=O)[O-])cc2n1C(=O)OC1COC1 (nonaromatic ring conformer: 139.89947317338178 kcal/mol)

>  <smiles>  (12) 
NC(=O)c1cc2ccc(NCC(=O)O)cc2n1C(=O)OC1COC1

>  <score_type>  (12) 
oracle

>  <origin>  (12) 
adg

>  <m_score__min__energy>  (12) 
-9.25

>  <m_primary>  (12) 
energy

$$$$
12:0
     RDKit          3D

 35 36  0  0  0  0  0  0  0  0999 V2000
   -3.8950   25.1360  -30.0400 N   0  0  0  0  0  0  0  0  0  0  0  0
   -5.2010   25.1590  -30.6150 C   0  0  0  0  0  0  0  0  0  0  0  0
   -5.7560   26.2680  -30.8390 O   0  0  0  0  0  0  0  0  0  0  0  0
   -5.8870   23.9130  -31.0100 C   0  0  0  0  0  0  0  0  0  0  0  0
   -7.2720   23.7810  -31.0490 C   0  0  0  0  0  0  0  0  0  0  0  0
   -7.5020   22.5090  -31.5220 C   0  0  0  0  0  0  0  0  0  0  0  0
   -8.7040   21.8470  -31.7540 C   0  0  0  0  0  0  0  0  0  0  0  0
   -8.6460   20.5210  -32.2160 C   0  0  0  0  0  0  0  0  0  0  0  0
   -7.3980   19.8810  -32.4160 C   0  0  0  0  0  0  0  0  0  0  0  0
   -7.3500   18.4670  -32.9290 C   0  0  0  0  0  0  0  0  0  0  0  0
   -6.0630   18.2230  -33.7190 C   0  0  0  0  0  0  0  0  0  0  0  0
   -6.0950   18.9310  -34.9280 O   0  0  0  0  0  0  0  0  0  0  0  0
   -6.1990   20.5880  -32.1800 C   0  0  0  0  0  0  0  0  0  0  0  0
   -6.2850   21.9160  -31.7430 C   0  0  0  0  0  0  0  0  0  0  0  0
   -5.2810   22.7660  -31.4290 N   0  0  0  0  0  0  0  0  0  0  0  0
   -3.8750   22.4690  -31.4310 C   0  0  0  0  0  0  0  0  0  0  0  0
   -3.2270   22.5230  -32.5110 O   0  0  0  0  0  0  0  0  0  0  0  0
   -3.2390   22.1250  -30.2300 O   0  0  0  0  0  0  0  0  0  0  0  0
   -1.9270   22.4700  -29.8840 C   0  0  0  0  0  0  0  0  0  0  0  0
   -0.9460   22.0240  -30.5420 O   0  0  0  0  0  0  0  0  0  0  0  0
   -1.7290   23.3200  -28.7890 O   0  0  0  0  0  0  0  0  0  0  0  0
   -0.9970   24.5140  -28.8210 C   0  0  0  0  0  0  0  0  0  0  0  0
    0.1940   24.5670  -28.4110 O   0  0  0  0  0  0  0  0  0  0  0  0
   -1.5980   25.6640  -29.3120 O   0  0  0  0  0  0  0  0  0  0  0  0
   -3.4420   26.0230  -29.7290 H   0  0  0  0  0  0  0  0  0  0  0  0
   -3.3390   24.2520  -29.9990 H   0  0  0  0  0  0  0  0  0  0  0  0
   -8.0225   24.5326  -30.7629 H   0  0  0  0  0  0  0  0  0  0  0  0
   -9.6690   22.3459  -31.5812 H   0  0  0  0  0  0  0  0  0  0  0  0
   -9.5780   19.9751  -32.4242 H   0  0  0  0  0  0  0  0  0  0  0  0
   -7.3883   17.7721  -32.0771 H   0  0  0  0  0  0  0  0  0  0  0  0
   -8.2105   18.3022  -33.5942 H   0  0  0  0  0  0  0  0  0  0  0  0
   -5.2018   18.5600  -33.1234 H   0  0  0  0  0  0  0  0  0  0  0  0
   -5.9731   17.1482  -33.9351 H   0  0  0  0  0  0  0  0  0  0  0  0
   -7.0060   19.3190  -35.0060 H   0  0  0  0  0  0  0  0  0  0  0  0
   -5.2216   20.1079  -32.3354 H   0  0  0  0  0  0  0  0  0  0  0  0
  1  2  1  0
  2  3  2  0
  2  4  1  0
  4  5  2  0
  5  6  1  0
  6  7  2  0
  7  8  1  0
  8  9  2  0
  9 10  1  0
 10 11  1  0
 11 12  1  0
  9 13  1  0
 13 14  2  0
 14 15  1  0
 15 16  1  0
 16 17  2  0
 16 18  1  0
 18 19  1  0
 19 20  2  0
 19 21  1  0
 21 22  1  0
 22 23  2  0
 22 24  1  0
 15  4  1  0
 14  6  1  0
  1 25  1  0
  1 26  1  0
  5 27  1  0
  7 28  1  0
  8 29  1  0
 10 30  1  0
 10 31  1  0
 11 32  1  0
 11 33  1  0
 12 34  1  0
 13 35  1  0
M  CHG  1  24  -1
M  END
>  <UniqueID>  (13) 
13

>  <SMILES>  (13) 
NC(=O)c1cc2ccc(CCO)cc2n1C(=O)OC(=O)OC(=O)[O-]

>  <Energy>  (13) 
73.88467797589108

>  <Genealogy>  (13) 
NC(=O)c1cc2ccc(CCO)cc2n1C(=O)OC(=O)OC(=O)[O-] (protonated)
NC(=O)c1cc2ccc(CCO)cc2n1C(=O)OC(=O)OC(=O)[O-] (3D coordinates assigned)
NC(=O)c1cc2ccc(CCO)cc2n1C(=O)OC(=O)OC(=O)[O-] (optimized conformer: 73.88467797589108 kcal/mol)

>  <smiles>  (13) 
NC(=O)c1cc2ccc(CCO)cc2n1C(=O)OC(=O)OC(=O)O

>  <score_type>  (13) 
oracle

>  <origin>  (13) 
adg

>  <m_score__min__energy>  (13) 
-9.5800000000000001

>  <m_primary>  (13) 
energy

$$$$
13:0
     RDKit          3D

 54 55  0  0  0  0  0  0  0  0999 V2000
   -2.0066   25.4202  -27.0043 H   0  0  0  0  0  0  0  0  0  0  0  0
   -1.4570   24.9910  -27.8550 C   0  0  0  0  0  0  0  0  0  0  0  0
   -0.2120   25.2800  -28.0200 N   0  0  0  0  0  0  0  0  0  0  0  0
    0.4980   26.1500  -27.1150 C   0  0  0  0  0  0  0  0  0  0  0  0
    0.2670   25.8670  -26.0774 H   0  0  0  0  0  0  0  0  0  0  0  0
    1.5801   26.0554  -27.2887 H   0  0  0  0  0  0  0  0  0  0  0  0
    0.1884   27.1911  -27.2887 H   0  0  0  0  0  0  0  0  0  0  0  0
   -2.1710   24.0690  -28.8170 C   0  0  2  0  0  0  0  0  0  0  0  0
   -2.8578   23.4410  -28.2305 H   0  0  0  0  0  0  0  0  0  0  0  0
   -1.2190   23.1990  -29.5120 N   0  0  0  0  0  0  0  0  0  0  0  0
   -1.2490   23.4000  -30.5410 H   0  0  0  0  0  0  0  0  0  0  0  0
   -0.2540   23.4160  -29.1730 H   0  0  0  0  0  0  0  0  0  0  0  0
   -2.9530   24.8370  -29.7940 N   0  0  0  0  0  0  0  0  0  0  0  0
   -2.5100   25.6720  -30.2440 H   0  0  0  0  0  0  0  0  0  0  0  0
   -4.2880   24.4840  -30.2060 C   0  0  0  0  0  0  0  0  0  0  0  0
   -5.3780   25.3850  -30.0670 C   0  0  0  0  0  0  0  0  0  0  0  0
   -5.2045   26.3862  -29.6458 H   0  0  0  0  0  0  0  0  0  0  0  0
   -6.6720   25.0140  -30.4600 C   0  0  0  0  0  0  0  0  0  0  0  0
   -7.5155   25.7129  -30.3600 H   0  0  0  0  0  0  0  0  0  0  0  0
   -6.8590   23.7370  -30.9800 C   0  0  0  0  0  0  0  0  0  0  0  0
   -8.0060   23.1290  -31.4360 C   0  0  0  0  0  0  0  0  0  0  0  0
   -9.0192   23.5557  -31.4716 H   0  0  0  0  0  0  0  0  0  0  0  0
   -7.6090   21.8570  -31.8430 C   0  0  0  0  0  0  0  0  0  0  0  0
   -8.5490   20.8120  -32.2980 C   0  0  0  0  0  0  0  0  0  0  0  0
   -9.7690   20.8850  -31.9980 O   0  0  0  0  0  0  0  0  0  0  0  0
   -8.0980   19.7380  -33.1240 N   0  0  0  0  0  0  0  0  0  0  0  0
   -8.7850   19.0580  -33.5130 H   0  0  0  0  0  0  0  0  0  0  0  0
   -7.0830   19.6020  -33.3350 H   0  0  0  0  0  0  0  0  0  0  0  0
   -6.2690   21.6880  -31.6520 N   0  0  0  0  0  0  0  0  0  0  0  0
   -5.4670   20.5600  -32.0500 C   0  0  0  0  0  0  0  0  0  0  0  0
   -5.3180   19.5870  -31.2590 O   0  0  0  0  0  0  0  0  0  0  0  0
   -4.8730   20.5280  -33.3180 O   0  0  0  0  0  0  0  0  0  0  0  0
   -4.4290   19.3190  -33.9190 C   0  0  0  0  0  0  0  0  0  0  0  0
   -3.6985   19.5488  -34.7087 H   0  0  0  0  0  0  0  0  0  0  0  0
   -3.9566   18.6825  -33.1563 H   0  0  0  0  0  0  0  0  0  0  0  0
   -5.5430   18.6330  -34.4870 O   0  0  0  0  0  0  0  0  0  0  0  0
   -6.0980   17.4630  -33.9530 C   0  0  0  0  0  0  0  0  0  0  0  0
   -7.2870   17.4570  -33.5300 O   0  0  0  0  0  0  0  0  0  0  0  0
   -5.2750   16.1910  -33.8840 C   0  0  0  0  0  0  0  0  0  0  0  0
   -4.1200   16.2700  -34.8970 C   0  0  0  0  0  0  0  0  0  0  0  0
   -3.1634   16.3354  -34.3580 H   0  0  0  0  0  0  0  0  0  0  0  0
   -4.1241   15.3695  -35.5287 H   0  0  0  0  0  0  0  0  0  0  0  0
   -4.2467   17.1616  -35.5287 H   0  0  0  0  0  0  0  0  0  0  0  0
   -6.1450   14.9630  -34.2160 C   0  0  0  0  0  0  0  0  0  0  0  0
   -6.4811   14.4885  -33.2822 H   0  0  0  0  0  0  0  0  0  0  0  0
   -7.0203   15.2812  -34.8014 H   0  0  0  0  0  0  0  0  0  0  0  0
   -5.5546   14.2428  -34.8014 H   0  0  0  0  0  0  0  0  0  0  0  0
   -4.7070   16.0400  -32.4610 C   0  0  0  0  0  0  0  0  0  0  0  0
   -5.4981   16.2503  -31.7262 H   0  0  0  0  0  0  0  0  0  0  0  0
   -4.3393   15.0129  -32.3200 H   0  0  0  0  0  0  0  0  0  0  0  0
   -3.8778   16.7489  -32.3200 H   0  0  0  0  0  0  0  0  0  0  0  0
   -5.8240   22.8470  -31.1170 C   0  0  0  0  0  0  0  0  0  0  0  0
   -4.5180   23.2020  -30.7580 C   0  0  0  0  0  0  0  0  0  0  0  0
   -3.6861   22.4970  -30.9025 H   0  0  0  0  0  0  0  0  0  0  0  0
  1  2  1  0
  2  3  2  0
  3  4  1  0
  4  5  1  0
  4  6  1  0
  4  7  1  0
  2  8  1  0
  8  9  1  1
  8 10  1  0
 10 11  1  0
 10 12  1  0
  8 13  1  0
 13 14  1  0
 13 15  1  0
 15 16  2  0
 16 17  1  0
 16 18  1  0
 18 19  1  0
 18 20  2  0
 20 21  1  0
 21 22  1  0
 21 23  2  0
 23 24  1  0
 24 25  2  0
 24 26  1  0
 26 27  1  0
 26 28  1  0
 23 29  1  0
 29 30  1  0
 30 31  2  0
 30 32  1  0
 32 33  1  0
 33 34  1  0
 33 35  1  0
 33 36  1  0
 36 37  1  0
 37 38  2  0
 37 39  1  0
 39 40  1  0
 40 41  1  0
 40 42  1  0
 40 43  1  0
 39 44  1  0
 44 45  1  0
 44 46  1  0
 44 47  1  0
 39 48  1  0
 48 49  1  0
 48 50  1  0
 48 51  1  0
 29 52  1  0
 52 53  2  0
 53 54  1  0
 53 15  1  0
 52 20  1  0
M  END
>  <UniqueID>  (14) 
14

>  <SMILES>  (14) 
C/N=C/[C@H](N)Nc1ccc2cc(C(N)=O)n(C(=O)OCOC(=O)C(C)(C)C)c2c1

>  <Energy>  (14) 
83.2136370647854

>  <Genealogy>  (14) 
C/N=C/[C@H](N)Nc1ccc2cc(C(N)=O)n(C(=O)OCOC(=O)C(C)(C)C)c2c1 (chirality)
C/N=C/[C@H](N)Nc1ccc2cc(C(N)=O)n(C(=O)OCOC(=O)C(C)(C)C)c2c1 (cis-trans isomerization)
C/N=C/[C@H](N)Nc1ccc2cc(C(N)=O)n(C(=O)OCOC(=O)C(C)(C)C)c2c1 (3D coordinates assigned)
C/N=C/[C@H](N)Nc1ccc2cc(C(N)=O)n(C(=O)OCOC(=O)C(C)(C)C)c2c1 (optimized conformer: 83.2136370647854 kcal/mol)

>  <smiles>  (14) 
C/N=C/C(N)Nc1ccc2cc(C(N)=O)n(C(=O)OCOC(=O)C(C)(C)C)c2c1

>  <score_type>  (14) 
oracle

>  <origin>  (14) 
adg

>  <m_score__min__energy>  (14) 
-8.6400000000000006

>  <m_primary>  (14) 
energy

$$$$
14:0
     RDKit          3D

 36 37  0  0  0  0  0  0  0  0999 V2000
   -5.1600   18.4220  -32.1220 C   0  0  0  0  0  0  0  0  0  0  0  0
   -4.5960   18.8430  -33.4960 C   0  0  0  0  0  0  0  0  0  0  0  0
   -5.7320   18.8730  -34.5320 C   0  0  0  0  0  0  0  0  0  0  0  0
   -3.5470   17.8100  -33.9360 C   0  0  0  0  0  0  0  0  0  0  0  0
   -3.7560   20.4970  -33.4820 S   0  0  0  0  0  0  0  0  0  0  0  0
   -4.1670   21.0490  -31.8200 C   0  0  0  0  0  0  0  0  0  0  0  0
   -3.5050   20.5690  -30.8610 O   0  0  0  0  0  0  0  0  0  0  0  0
   -5.2640   21.9570  -31.5520 N   0  0  0  0  0  0  0  0  0  0  0  0
   -5.1460   23.2510  -31.1250 C   0  0  0  0  0  0  0  0  0  0  0  0
   -3.9130   23.8990  -30.6300 C   0  0  0  0  0  0  0  0  0  0  0  0
   -3.8700   25.3160  -30.4780 N   0  0  0  0  0  0  0  0  0  0  0  0
   -2.9180   23.2090  -30.2840 O   0  0  0  0  0  0  0  0  0  0  0  0
   -6.3810   23.8850  -31.1010 C   0  0  0  0  0  0  0  0  0  0  0  0
   -7.2850   22.9360  -31.5000 C   0  0  0  0  0  0  0  0  0  0  0  0
   -8.6660   23.0370  -31.6370 C   0  0  0  0  0  0  0  0  0  0  0  0
   -9.3710   21.9030  -32.0630 C   0  0  0  0  0  0  0  0  0  0  0  0
   -8.6880   20.6970  -32.3370 C   0  0  0  0  0  0  0  0  0  0  0  0
   -9.4190   19.5460  -32.7670 N   0  0  0  0  0  0  0  0  0  0  0  0
   -7.2880   20.6270  -32.1830 C   0  0  0  0  0  0  0  0  0  0  0  0
   -6.5960   21.7740  -31.7610 C   0  0  0  0  0  0  0  0  0  0  0  0
   -4.5543   18.8742  -31.3229 H   0  0  0  0  0  0  0  0  0  0  0  0
   -6.2011   18.7657  -32.0321 H   0  0  0  0  0  0  0  0  0  0  0  0
   -5.1266   17.3262  -32.0321 H   0  0  0  0  0  0  0  0  0  0  0  0
   -6.7013   18.8986  -34.0126 H   0  0  0  0  0  0  0  0  0  0  0  0
   -5.6299   19.7688  -35.1622 H   0  0  0  0  0  0  0  0  0  0  0  0
   -5.6774   17.9731  -35.1622 H   0  0  0  0  0  0  0  0  0  0  0  0
   -3.0851   17.3551  -33.0473 H   0  0  0  0  0  0  0  0  0  0  0  0
   -4.0327   17.0277  -34.5378 H   0  0  0  0  0  0  0  0  0  0  0  0
   -2.7723   18.3076  -34.5378 H   0  0  0  0  0  0  0  0  0  0  0  0
   -3.5110   25.9260  -31.2450 H   0  0  0  0  0  0  0  0  0  0  0  0
   -6.5894   24.9281  -30.8210 H   0  0  0  0  0  0  0  0  0  0  0  0
   -9.1892   23.9794  -31.4174 H   0  0  0  0  0  0  0  0  0  0  0  0
  -10.4631   21.9523  -32.1848 H   0  0  0  0  0  0  0  0  0  0  0  0
   -9.4950   19.3080  -33.7810 H   0  0  0  0  0  0  0  0  0  0  0  0
   -9.8880   18.9200  -32.0740 H   0  0  0  0  0  0  0  0  0  0  0  0
   -6.7479   19.6913  -32.3896 H   0  0  0  0  0  0  0  0  0  0  0  0
  1  2  1  0
  2  3  1  0
  2  4  1  0
  2  5  1  0
  5  6  1  0
  6  7  2  0
  6  8  1  0
  8  9  1  0
  9 10  1  0
 10 11  1  0
 10 12  2  0
  9 13  2  0
 13 14  1  0
 14 15  2  0
 15 16  1  0
 16 17  2  0
 17 18  1  0
 17 19  1  0
 19 20  2  0
 20  8  1  0
 20 14  1  0
  1 21  1  0
  1 22  1  0
  1 23  1  0
  3 24  1  0
  3 25  1  0
  3 26  1  0
  4 27  1  0
  4 28  1  0
  4 29  1  0
 11 30  1  0
 13 31  1  0
 15 32  1  0
 16 33  1  0
 18 34  1  0
 18 35  1  0
 19 36  1  0
M  CHG  1  11  -1
M  END
>  <UniqueID>  (15) 
15

>  <SMILES>  (15) 
CC(C)(C)SC(=O)n1c(C([NH-])=O)cc2ccc(N)cc21

>  <Energy>  (15) 
74.40085811301732

>  <Genealogy>  (15) 
CC(C)(C)SC(=O)n1c(C([NH-])=O)cc2ccc(N)cc21 (protonated)
CC(C)(C)SC(=O)n1c(C([NH-])=O)cc2ccc(N)cc21 (3D coordinates assigned)
CC(C)(C)SC(=O)n1c(C([NH-])=O)cc2ccc(N)cc21 (optimized conformer: 74.40085811301732 kcal/mol)

>  <smiles>  (15) 
CC(C)(C)SC(=O)n1c(C(N)=O)cc2ccc(N)cc21

>  <score_type>  (15) 
oracle

>  <origin>  (15) 
adg

>  <m_score__min__energy>  (15) 
-9.8800000000000008

>  <m_primary>  (15) 
energy

$$$$
15:0
     RDKit          3D

 43 45  0  0  0  0  0  0  0  0999 V2000
   -6.1550   16.3490  -33.1590 C   0  0  0  0  0  0  0  0  0  0  0  0
   -6.7010   17.4750  -33.9390 N   0  0  0  0  0  0  0  0  0  0  0  0
   -5.7360   18.0210  -34.9030 C   0  0  0  0  0  0  0  0  0  0  0  0
   -4.5200   18.6770  -34.2330 C   0  0  0  0  0  0  0  0  0  0  0  0
   -4.8100   19.3830  -32.9660 N   0  0  0  0  0  0  0  0  0  0  0  0
   -3.7240   20.0960  -32.2920 C   0  0  0  0  0  0  0  0  0  0  0  0
   -2.3970   19.5630  -32.2610 C   0  0  0  0  0  0  0  0  0  0  0  0
   -1.3470   20.2450  -31.6240 C   0  0  0  0  0  0  0  0  0  0  0  0
   -1.6330   21.4540  -31.0060 C   0  0  0  0  0  0  0  0  0  0  0  0
   -0.8020   22.3250  -30.3390 C   0  0  0  0  0  0  0  0  0  0  0  0
   -1.6200   23.3800  -29.9370 C   0  0  0  0  0  0  0  0  0  0  0  0
   -1.1480   24.5280  -29.1360 C   0  0  0  0  0  0  0  0  0  0  0  0
   -1.9900   25.6640  -28.9580 N   0  0  0  0  0  0  0  0  0  0  0  0
    0.0020   24.5280  -28.6220 O   0  0  0  0  0  0  0  0  0  0  0  0
   -2.9040   23.1640  -30.3390 N   0  0  0  0  0  0  0  0  0  0  0  0
   -4.0330   24.0290  -30.1550 C   0  0  0  0  0  0  0  0  0  0  0  0
   -4.2700   24.9370  -30.9960 O   0  0  0  0  0  0  0  0  0  0  0  0
   -4.9350   23.8720  -28.9660 C   0  0  0  0  0  0  0  0  0  0  0  0
   -4.4100   24.5680  -27.8680 O   0  0  0  0  0  0  0  0  0  0  0  0
   -2.8920   21.9820  -30.9950 C   0  0  0  0  0  0  0  0  0  0  0  0
   -3.9560   21.3400  -31.6380 C   0  0  0  0  0  0  0  0  0  0  0  0
   -6.1150   19.2610  -32.2790 C   0  0  0  0  0  0  0  0  0  0  0  0
   -7.2140   18.5610  -33.0910 C   0  0  0  0  0  0  0  0  0  0  0  0
   -6.2586   16.5626  -32.0849 H   0  0  0  0  0  0  0  0  0  0  0  0
   -6.7077   15.4303  -33.4051 H   0  0  0  0  0  0  0  0  0  0  0  0
   -5.0914   16.2141  -33.4051 H   0  0  0  0  0  0  0  0  0  0  0  0
   -7.5120   17.1020  -34.4900 H   0  0  0  0  0  0  0  0  0  0  0  0
   -5.3818   17.2017  -35.5459 H   0  0  0  0  0  0  0  0  0  0  0  0
   -6.2541   18.8021  -35.4788 H   0  0  0  0  0  0  0  0  0  0  0  0
   -3.7800   17.8905  -34.0238 H   0  0  0  0  0  0  0  0  0  0  0  0
   -4.1573   19.4420  -34.9353 H   0  0  0  0  0  0  0  0  0  0  0  0
   -2.1941   18.5972  -32.7469 H   0  0  0  0  0  0  0  0  0  0  0  0
   -0.3273   19.8324  -31.6154 H   0  0  0  0  0  0  0  0  0  0  0  0
    0.2777   22.2127  -30.1610 H   0  0  0  0  0  0  0  0  0  0  0  0
   -2.9690   25.6700  -29.3220 H   0  0  0  0  0  0  0  0  0  0  0  0
   -5.9302   24.2728  -29.2088 H   0  0  0  0  0  0  0  0  0  0  0  0
   -5.0133   22.8046  -28.7118 H   0  0  0  0  0  0  0  0  0  0  0  0
   -3.8520   25.3020  -28.2390 H   0  0  0  0  0  0  0  0  0  0  0  0
   -4.9595   21.7905  -31.6385 H   0  0  0  0  0  0  0  0  0  0  0  0
   -5.9601   18.6901  -31.3516 H   0  0  0  0  0  0  0  0  0  0  0  0
   -6.4682   20.2883  -32.1063 H   0  0  0  0  0  0  0  0  0  0  0  0
   -7.9519   18.1406  -32.3919 H   0  0  0  0  0  0  0  0  0  0  0  0
   -7.6603   19.3143  -33.7568 H   0  0  0  0  0  0  0  0  0  0  0  0
  1  2  1  0
  2  3  1  0
  3  4  1  0
  4  5  1  0
  5  6  1  0
  6  7  2  0
  7  8  1  0
  8  9  2  0
  9 10  1  0
 10 11  2  0
 11 12  1  0
 12 13  1  0
 12 14  2  0
 11 15  1  0
 15 16  1  0
 16 17  2  0
 16 18  1  0
 18 19  1  0
 15 20  1  0
 20 21  2  0
  5 22  1  0
 22 23  1  0
 23  2  1  0
 21  6  1  0
 20  9  1  0
  1 24  1  0
  1 25  1  0
  1 26  1  0
  2 27  1  0
  3 28  1  0
  3 29  1  0
  4 30  1  0
  4 31  1  0
  7 32  1  0
  8 33  1  0
 10 34  1  0
 13 35  1  0
 18 36  1  0
 18 37  1  0
 19 38  1  0
 21 39  1  0
 22 40  1  0
 22 41  1  0
 23 42  1  0
 23 43  1  0
M  CHG  2   2   1  13  -1
M  END
>  <UniqueID>  (16) 
16

>  <SMILES>  (16) 
C[NH+]1CCN(c2ccc3cc(C([NH-])=O)n(C(=O)CO)c3c2)CC1

>  <Energy>  (16) 
93.0748313659929

>  <Genealogy>  (16) 
C[NH+]1CCN(c2ccc3cc(C([NH-])=O)n(C(=O)CO)c3c2)CC1 (protonated)
C[NH+]1CCN(c2ccc3cc(C([NH-])=O)n(C(=O)CO)c3c2)CC1 (3D coordinates assigned)
C[NH+]1CCN(c2ccc3cc(C([NH-])=O)n(C(=O)CO)c3c2)CC1 (nonaromatic ring conformer: 93.0748313659929 kcal/mol)

>  <smiles>  (16) 
CN1CCN(c2ccc3cc(C(N)=O)n(C(=O)CO)c3c2)CC1

>  <score_type>  (16) 
oracle

>  <origin>  (16) 
adg

>  <m_score__min__energy>  (16) 
-9.3399999999999999

>  <m_primary>  (16) 
energy

$$$$
17:0
     RDKit          3D

 56 60  0  0  0  0  0  0  0  0999 V2000
   -1.4170   16.2530  -35.6770 C   0  0  0  0  0  0  0  0  0  0  0  0
   -2.2940   17.0270  -34.8680 O   0  0  0  0  0  0  0  0  0  0  0  0
   -2.9590   16.4980  -33.7580 C   0  0  0  0  0  0  0  0  0  0  0  0
   -2.3030   16.0620  -32.7720 O   0  0  0  0  0  0  0  0  0  0  0  0
   -4.3940   16.4270  -33.7510 N   0  0  0  0  0  0  0  0  0  0  0  0
   -5.1770   15.3470  -34.0370 C   0  0  0  0  0  0  0  0  0  0  0  0
   -4.7060   14.0530  -34.5700 C   0  0  0  0  0  0  0  0  0  0  0  0
   -3.3110   13.7570  -34.5860 N   0  0  0  0  0  0  0  0  0  0  0  0
   -5.5240   13.1860  -34.9780 O   0  0  0  0  0  0  0  0  0  0  0  0
   -6.5220   15.6500  -33.8350 C   0  0  0  0  0  0  0  0  0  0  0  0
   -6.5420   16.9620  -33.4200 C   0  0  0  0  0  0  0  0  0  0  0  0
   -7.6150   17.7680  -33.0580 C   0  0  0  0  0  0  0  0  0  0  0  0
   -7.3410   19.0790  -32.6330 C   0  0  0  0  0  0  0  0  0  0  0  0
   -6.0080   19.5630  -32.5780 C   0  0  0  0  0  0  0  0  0  0  0  0
   -5.7480   20.9460  -32.1070 C   0  0  0  0  0  0  0  0  0  0  0  0
   -6.7860   21.7770  -31.6510 C   0  0  0  0  0  0  0  0  0  0  0  0
   -6.4930   23.0710  -31.2190 C   0  0  0  0  0  0  0  0  0  0  0  0
   -5.1760   23.5450  -31.2550 C   0  0  0  0  0  0  0  0  0  0  0  0
   -4.8440   24.9120  -30.8070 C   0  0  0  0  0  0  0  0  0  0  0  0
   -5.7610   25.7710  -30.7410 O   0  0  0  0  0  0  0  0  0  0  0  0
   -3.5140   25.2890  -30.4210 N   0  0  0  0  0  0  0  0  0  0  0  0
   -2.7710   24.7500  -29.2830 C   0  0  2  0  0  0  0  0  0  0  0  0
   -1.8730   23.5610  -29.7330 C   0  0  0  0  0  0  0  0  0  0  0  0
   -1.4280   22.6720  -28.5420 C   0  0  1  0  0  0  0  0  0  0  0  0
   -0.7880   23.5100  -27.4310 C   0  0  0  0  0  0  0  0  0  0  0  0
   -1.8900   24.0220  -26.5990 N   0  0  0  0  0  0  0  0  0  0  0  0
   -3.1120   23.4000  -27.1310 C   0  0  2  0  0  0  0  0  0  0  0  0
   -2.6600   22.1420  -27.8480 C   0  0  0  0  0  0  0  0  0  0  0  0
   -3.7660   24.3460  -28.1650 C   0  0  0  0  0  0  0  0  0  0  0  0
   -4.1620   22.6750  -31.6780 C   0  0  0  0  0  0  0  0  0  0  0  0
   -4.4680   21.4180  -32.0930 N   0  0  0  0  0  0  0  0  0  0  0  0
   -4.9430   18.7050  -32.9430 C   0  0  0  0  0  0  0  0  0  0  0  0
   -5.2470   17.4090  -33.3800 C   0  0  0  0  0  0  0  0  0  0  0  0
   -0.7486   15.6631  -35.0326 H   0  0  0  0  0  0  0  0  0  0  0  0
   -2.0064   15.5752  -36.3121 H   0  0  0  0  0  0  0  0  0  0  0  0
   -0.8177   16.9220  -36.3121 H   0  0  0  0  0  0  0  0  0  0  0  0
   -2.6120   14.4420  -34.2220 H   0  0  0  0  0  0  0  0  0  0  0  0
   -7.3846   14.9823  -33.9771 H   0  0  0  0  0  0  0  0  0  0  0  0
   -8.6474   17.3910  -33.1029 H   0  0  0  0  0  0  0  0  0  0  0  0
   -8.1706   19.7388  -32.3391 H   0  0  0  0  0  0  0  0  0  0  0  0
   -7.8227   21.4095  -31.6348 H   0  0  0  0  0  0  0  0  0  0  0  0
   -7.2995   23.7210  -30.8489 H   0  0  0  0  0  0  0  0  0  0  0  0
   -2.0984   25.5197  -28.8766 H   0  0  0  0  0  0  0  0  0  0  0  0
   -2.4381   22.9412  -30.4447 H   0  0  0  0  0  0  0  0  0  0  0  0
   -0.9672   23.9809  -30.1948 H   0  0  0  0  0  0  0  0  0  0  0  0
   -0.7500   21.9106  -28.9550 H   0  0  0  0  0  0  0  0  0  0  0  0
   -0.1143   22.8858  -26.8256 H   0  0  0  0  0  0  0  0  0  0  0  0
   -0.1927   24.3345  -27.8503 H   0  0  0  0  0  0  0  0  0  0  0  0
   -1.7500   23.6850  -25.6180 H   0  0  0  0  0  0  0  0  0  0  0  0
   -3.8367   23.1893  -26.3307 H   0  0  0  0  0  0  0  0  0  0  0  0
   -2.4166   21.3338  -27.1426 H   0  0  0  0  0  0  0  0  0  0  0  0
   -3.4106   21.6894  -28.5126 H   0  0  0  0  0  0  0  0  0  0  0  0
   -4.6265   23.8349  -28.6214 H   0  0  0  0  0  0  0  0  0  0  0  0
   -4.0825   25.2600  -27.6412 H   0  0  0  0  0  0  0  0  0  0  0  0
   -3.1146   23.0110  -31.6740 H   0  0  0  0  0  0  0  0  0  0  0  0
   -3.8995   19.0482  -32.8848 H   0  0  0  0  0  0  0  0  0  0  0  0
  1  2  1  0
  2  3  1  0
  3  4  2  0
  3  5  1  0
  5  6  1  0
  6  7  1  0
  7  8  1  0
  7  9  2  0
  6 10  2  0
 10 11  1  0
 11 12  2  0
 12 13  1  0
 13 14  2  0
 14 15  1  0
 15 16  2  0
 16 17  1  0
 17 18  2  0
 18 19  1  0
 19 20  2  0
 19 21  1  0
 21 22  1  0
 22 23  1  0
 23 24  1  0
 24 25  1  0
 25 26  1  0
 26 27  1  0
 27 28  1  0
 27 29  1  0
 18 30  1  0
 30 31  2  0
 14 32  1  0
 32 33  2  0
 33  5  1  0
 33 11  1  0
 31 15  1  0
 29 22  1  0
 28 24  1  0
  1 34  1  0
  1 35  1  0
  1 36  1  0
  8 37  1  0
 10 38  1  0
 12 39  1  0
 13 40  1  0
 16 41  1  0
 17 42  1  0
 22 43  1  1
 23 44  1  0
 23 45  1  0
 24 46  1  6
 25 47  1  0
 25 48  1  0
 26 49  1  0
 27 50  1  1
 28 51  1  0
 28 52  1  0
 29 53  1  0
 29 54  1  0
 30 55  1  0
 32 56  1  0
M  CHG  2   8  -1  21  -1
M  END
>  <UniqueID>  (17) 
17

>  <SMILES>  (17) 
COC(=O)n1c(C([NH-])=O)cc2ccc(-c3ccc(C(=O)[N-][C@H]4CC5C[C@H](CN5)C4)cn3)cc21

>  <Energy>  (17) 
112.94243000629726

>  <Genealogy>  (17) 
COC(=O)n1c(C([NH-])=O)cc2ccc(-c3ccc(C(=O)[N-]C4CC5CNC(C5)C4)cn3)cc21 (protonated)
COC(=O)n1c(C([NH-])=O)cc2ccc(-c3ccc(C(=O)[N-][C@H]4CC5C[C@H](CN5)C4)cn3)cc21 (chirality)
COC(=O)n1c(C([NH-])=O)cc2ccc(-c3ccc(C(=O)[N-][C@H]4CC5C[C@H](CN5)C4)cn3)cc21 (3D coordinates assigned)
COC(=O)n1c(C([NH-])=O)cc2ccc(-c3ccc(C(=O)[N-][C@H]4CC5C[C@H](CN5)C4)cn3)cc21 (nonaromatic ring conformer: 112.94243000629726 kcal/mol)

>  <smiles>  (17) 
COC(=O)n1c(C(N)=O)cc2ccc(-c3ccc(C(=O)NC4CC5CNC(C5)C4)cn3)cc21

>  <score_type>  (17) 
oracle

>  <origin>  (17) 
adg

>  <m_score__min__energy>  (17) 
-10.69

>  <m_primary>  (17) 
energy

$$$$
18:0
     RDKit          3D

 33 34  0  0  0  0  0  0  0  0999 V2000
   -7.2430   17.2640  -32.8640 C   0  0  0  0  0  0  0  0  0  0  0  0
   -7.2950   18.4290  -32.5620 C   0  0  0  0  0  0  0  0  0  0  0  0
   -7.3570   19.8210  -32.2010 C   0  0  0  0  0  0  0  0  0  0  0  0
   -8.6070   20.4790  -32.1430 C   0  0  0  0  0  0  0  0  0  0  0  0
   -8.6820   21.8350  -31.7790 C   0  0  0  0  0  0  0  0  0  0  0  0
   -7.4930   22.4980  -31.4880 C   0  0  0  0  0  0  0  0  0  0  0  0
   -7.2810   23.7960  -31.0820 C   0  0  0  0  0  0  0  0  0  0  0  0
   -5.9020   23.9120  -30.9220 C   0  0  0  0  0  0  0  0  0  0  0  0
   -5.2300   25.1810  -30.5700 C   0  0  0  0  0  0  0  0  0  0  0  0
   -3.8420   25.3690  -30.8290 N   0  0  0  0  0  0  0  0  0  0  0  0
   -5.9010   26.1280  -30.0830 O   0  0  0  0  0  0  0  0  0  0  0  0
   -5.2840   22.7320  -31.2100 N   0  0  0  0  0  0  0  0  0  0  0  0
   -3.8910   22.4150  -31.0640 C   0  0  0  0  0  0  0  0  0  0  0  0
   -3.0680   22.7690  -31.9520 O   0  0  0  0  0  0  0  0  0  0  0  0
   -3.4570   21.6970  -29.9460 O   0  0  0  0  0  0  0  0  0  0  0  0
   -3.1910   22.3130  -28.6900 C   0  0  0  0  0  0  0  0  0  0  0  0
   -1.9180   23.1580  -28.7730 C   0  0  1  0  0  0  0  0  0  0  0  0
   -1.5190   23.2700  -30.1140 O   0  0  0  0  0  0  0  0  0  0  0  0
   -2.1530   24.5220  -28.1880 C   0  0  0  0  0  0  0  0  0  0  0  0
   -2.5420   24.6390  -26.9950 O   0  0  0  0  0  0  0  0  0  0  0  0
   -1.9910   25.6590  -28.9710 O   0  0  0  0  0  0  0  0  0  0  0  0
   -6.2730   21.8760  -31.5570 C   0  0  0  0  0  0  0  0  0  0  0  0
   -6.1700   20.5220  -31.8980 C   0  0  0  0  0  0  0  0  0  0  0  0
   -7.1955   16.2002  -33.1398 H   0  0  0  0  0  0  0  0  0  0  0  0
   -9.5270   19.9264  -32.3843 H   0  0  0  0  0  0  0  0  0  0  0  0
   -9.6496   22.3555  -31.7258 H   0  0  0  0  0  0  0  0  0  0  0  0
   -8.0393   24.5759  -30.9186 H   0  0  0  0  0  0  0  0  0  0  0  0
   -3.1490   24.6150  -30.6230 H   0  0  0  0  0  0  0  0  0  0  0  0
   -4.0382   22.9588  -28.4157 H   0  0  0  0  0  0  0  0  0  0  0  0
   -3.0526   21.5305  -27.9294 H   0  0  0  0  0  0  0  0  0  0  0  0
   -1.1222   22.6660  -28.1945 H   0  0  0  0  0  0  0  0  0  0  0  0
   -2.0330   24.0250  -30.5040 H   0  0  0  0  0  0  0  0  0  0  0  0
   -5.1922   20.0190  -31.9289 H   0  0  0  0  0  0  0  0  0  0  0  0
  1  2  3  0
  2  3  1  0
  3  4  2  0
  4  5  1  0
  5  6  2  0
  6  7  1  0
  7  8  2  0
  8  9  1  0
  9 10  1  0
  9 11  2  0
  8 12  1  0
 12 13  1  0
 13 14  2  0
 13 15  1  0
 15 16  1  0
 16 17  1  0
 17 18  1  0
 17 19  1  0
 19 20  2  0
 19 21  1  0
 12 22  1  0
 22 23  2  0
 23  3  1  0
 22  6  1  0
  1 24  1  0
  4 25  1  0
  5 26  1  0
  7 27  1  0
 10 28  1  0
 16 29  1  0
 16 30  1  0
 17 31  1  1
 18 32  1  0
 23 33  1  0
M  CHG  2  10  -1  21  -1
M  END
>  <UniqueID>  (18) 
18

>  <SMILES>  (18) 
C#Cc1ccc2cc(C([NH-])=O)n(C(=O)OC[C@@H](O)C(=O)[O-])c2c1

>  <Energy>  (18) 
66.1454314679506

>  <Genealogy>  (18) 
C#Cc1ccc2cc(C([NH-])=O)n(C(=O)OCC(O)C(=O)[O-])c2c1 (protonated)
C#Cc1ccc2cc(C([NH-])=O)n(C(=O)OC[C@@H](O)C(=O)[O-])c2c1 (chirality)
C#Cc1ccc2cc(C([NH-])=O)n(C(=O)OC[C@@H](O)C(=O)[O-])c2c1 (3D coordinates assigned)
C#Cc1ccc2cc(C([NH-])=O)n(C(=O)OC[C@@H](O)C(=O)[O-])c2c1 (optimized conformer: 66.1454314679506 kcal/mol)

>  <smiles>  (18) 
C#Cc1ccc2cc(C(N)=O)n(C(=O)OCC(O)C(=O)O)c2c1

>  <score_type>  (18) 
oracle

>  <origin>  (18) 
adg

>  <m_score__min__energy>  (18) 
-12.460000000000001

>  <m_primary>  (18) 
energy

$$$$
19:0
     RDKit          3D

 39 40  0  0  0  0  0  0  0  0999 V2000
   -3.9850   19.1890  -33.7660 C   0  0  0  0  0  0  0  0  0  0  0  0
   -5.1440   18.2590  -33.9630 C   0  0  0  0  0  0  0  0  0  0  0  0
   -5.7490   18.2750  -35.0700 O   0  0  0  0  0  0  0  0  0  0  0  0
   -5.5770   17.3610  -32.9160 N   0  0  0  0  0  0  0  0  0  0  0  0
   -5.0040   16.0140  -32.8120 C   0  0  0  0  0  0  0  0  0  0  0  0
   -6.6030   17.7940  -31.9540 C   0  0  0  0  0  0  0  0  0  0  0  0
   -7.7190   18.5830  -32.6500 C   0  0  0  0  0  0  0  0  0  0  0  0
   -7.6950   20.0340  -32.2500 C   0  0  0  0  0  0  0  0  0  0  0  0
   -8.9080   20.7300  -32.0210 C   0  0  0  0  0  0  0  0  0  0  0  0
   -8.8970   22.0700  -31.5990 C   0  0  0  0  0  0  0  0  0  0  0  0
   -7.6620   22.6810  -31.4010 C   0  0  0  0  0  0  0  0  0  0  0  0
   -7.3570   23.9600  -30.9920 C   0  0  0  0  0  0  0  0  0  0  0  0
   -5.9640   24.0130  -30.9520 C   0  0  0  0  0  0  0  0  0  0  0  0
   -5.2050   25.1890  -30.4780 C   0  0  0  0  0  0  0  0  0  0  0  0
   -3.8640   25.4160  -30.8990 N   0  0  0  0  0  0  0  0  0  0  0  0
   -5.7370   25.9880  -29.6600 O   0  0  0  0  0  0  0  0  0  0  0  0
   -5.4310   22.8190  -31.3320 N   0  0  0  0  0  0  0  0  0  0  0  0
   -4.0470   22.4660  -31.4720 C   0  0  0  0  0  0  0  0  0  0  0  0
   -3.5680   22.2680  -32.6190 O   0  0  0  0  0  0  0  0  0  0  0  0
   -3.1690   22.3800  -30.2950 C   0  0  0  0  0  0  0  0  0  0  0  0
   -3.3190   21.4570  -29.4540 O   0  0  0  0  0  0  0  0  0  0  0  0
   -2.1740   23.3300  -30.0990 O   0  0  0  0  0  0  0  0  0  0  0  0
   -6.4810   22.0140  -31.5990 C   0  0  0  0  0  0  0  0  0  0  0  0
   -6.4600   20.6870  -32.0350 C   0  0  0  0  0  0  0  0  0  0  0  0
   -3.8078   19.3312  -32.6897 H   0  0  0  0  0  0  0  0  0  0  0  0
   -3.0862   18.7586  -34.2319 H   0  0  0  0  0  0  0  0  0  0  0  0
   -4.2104   20.1596  -34.2319 H   0  0  0  0  0  0  0  0  0  0  0  0
   -4.8896   15.7451  -31.7515 H   0  0  0  0  0  0  0  0  0  0  0  0
   -5.6729   15.2920  -33.3033 H   0  0  0  0  0  0  0  0  0  0  0  0
   -4.0200   15.9952  -33.3033 H   0  0  0  0  0  0  0  0  0  0  0  0
   -7.0386   16.9071  -31.4706 H   0  0  0  0  0  0  0  0  0  0  0  0
   -6.1272   18.4481  -31.2085 H   0  0  0  0  0  0  0  0  0  0  0  0
   -7.5841   18.5094  -33.7392 H   0  0  0  0  0  0  0  0  0  0  0  0
   -8.6865   18.1557  -32.3477 H   0  0  0  0  0  0  0  0  0  0  0  0
   -9.8681   20.2158  -32.1752 H   0  0  0  0  0  0  0  0  0  0  0  0
   -9.8350   22.6192  -31.4303 H   0  0  0  0  0  0  0  0  0  0  0  0
   -8.0623   24.7682  -30.7485 H   0  0  0  0  0  0  0  0  0  0  0  0
   -3.0640   25.2940  -30.2390 H   0  0  0  0  0  0  0  0  0  0  0  0
   -5.5075   20.1641  -32.2065 H   0  0  0  0  0  0  0  0  0  0  0  0
  1  2  1  0
  2  3  2  0
  2  4  1  0
  4  5  1  0
  4  6  1  0
  6  7  1  0
  7  8  1  0
  8  9  2  0
  9 10  1  0
 10 11  2  0
 11 12  1  0
 12 13  2  0
 13 14  1  0
 14 15  1  0
 14 16  2  0
 13 17  1  0
 17 18  1  0
 18 19  2  0
 18 20  1  0
 20 21  2  0
 20 22  1  0
 17 23  1  0
 23 24  2  0
 24  8  1  0
 23 11  1  0
  1 25  1  0
  1 26  1  0
  1 27  1  0
  5 28  1  0
  5 29  1  0
  5 30  1  0
  6 31  1  0
  6 32  1  0
  7 33  1  0
  7 34  1  0
  9 35  1  0
 10 36  1  0
 12 37  1  0
 15 38  1  0
 24 39  1  0
M  CHG  2  15  -1  22  -1
M  END
>  <UniqueID>  (19) 
19

>  <SMILES>  (19) 
CC(=O)N(C)CCc1ccc2cc(C([NH-])=O)n(C(=O)C(=O)[O-])c2c1

>  <Energy>  (19) 
71.08507405830649

>  <Genealogy>  (19) 
CC(=O)N(C)CCc1ccc2cc(C([NH-])=O)n(C(=O)C(=O)[O-])c2c1 (protonated)
CC(=O)N(C)CCc1ccc2cc(C([NH-])=O)n(C(=O)C(=O)[O-])c2c1 (3D coordinates assigned)
CC(=O)N(C)CCc1ccc2cc(C([NH-])=O)n(C(=O)C(=O)[O-])c2c1 (optimized conformer: 71.08507405830649 kcal/mol)

>  <smiles>  (19) 
CC(=O)N(C)CCc1ccc2cc(C(N)=O)n(C(=O)C(=O)O)c2c1

>  <score_type>  (19) 
oracle

>  <origin>  (19) 
adg

>  <m_score__min__energy>  (19) 
-11.35

>  <m_primary>  (19) 
energy

$$$$
20:0
     RDKit          3D

 43 45  0  0  0  0  0  0  0  0999 V2000
   -1.9430   24.9240  -28.4590 C   0  0  0  0  0  0  0  0  0  0  0  0
   -2.8090   23.7860  -27.8970 C   0  0  0  0  0  0  0  0  0  0  0  0
   -1.9020   22.8000  -27.1370 C   0  0  0  0  0  0  0  0  0  0  0  0
   -3.8700   24.3880  -26.9550 C   0  0  0  0  0  0  0  0  0  0  0  0
   -3.4340   23.1380  -29.0150 O   0  0  0  0  0  0  0  0  0  0  0  0
   -2.8290   22.8480  -30.2470 C   0  0  0  0  0  0  0  0  0  0  0  0
   -1.5760   22.8250  -30.3690 O   0  0  0  0  0  0  0  0  0  0  0  0
   -3.6800   22.5600  -31.4100 C   0  0  0  0  0  0  0  0  0  0  0  0
   -3.1400   22.2830  -32.5150 O   0  0  0  0  0  0  0  0  0  0  0  0
   -5.1130   22.6070  -31.3120 N   0  0  0  0  0  0  0  0  0  0  0  0
   -5.8920   23.6300  -30.8590 C   0  0  0  0  0  0  0  0  0  0  0  0
   -5.4080   24.8790  -30.2350 C   0  0  0  0  0  0  0  0  0  0  0  0
   -5.9630   25.3640  -29.0100 N   0  0  0  0  0  0  0  0  0  0  0  0
   -4.5160   25.5530  -30.8150 O   0  0  0  0  0  0  0  0  0  0  0  0
   -7.2420   23.3260  -31.0230 C   0  0  0  0  0  0  0  0  0  0  0  0
   -7.2660   22.0670  -31.5790 C   0  0  0  0  0  0  0  0  0  0  0  0
   -8.3460   21.2770  -31.9590 C   0  0  0  0  0  0  0  0  0  0  0  0
   -8.0750   20.0240  -32.5350 C   0  0  0  0  0  0  0  0  0  0  0  0
   -6.7390   19.5850  -32.7260 C   0  0  0  0  0  0  0  0  0  0  0  0
   -6.4760   18.2650  -33.3440 C   0  0  0  0  0  0  0  0  0  0  0  0
   -7.2660   17.1830  -33.1580 N   0  0  0  0  0  0  0  0  0  0  0  0
   -6.8140   16.0910  -33.8300 C   0  0  0  0  0  0  0  0  0  0  0  0
   -5.6510   16.2890  -34.5640 C   0  0  0  0  0  0  0  0  0  0  0  0
   -5.1810   17.8880  -34.3560 S   0  0  0  0  0  0  0  0  0  0  0  0
   -5.6690   20.4210  -32.3260 C   0  0  0  0  0  0  0  0  0  0  0  0
   -5.9710   21.6550  -31.7420 C   0  0  0  0  0  0  0  0  0  0  0  0
   -1.5066   25.4974  -27.6279 H   0  0  0  0  0  0  0  0  0  0  0  0
   -1.1365   24.5007  -29.0757 H   0  0  0  0  0  0  0  0  0  0  0  0
   -2.5659   25.5885  -29.0757 H   0  0  0  0  0  0  0  0  0  0  0  0
   -2.0325   22.9419  -26.0540 H   0  0  0  0  0  0  0  0  0  0  0  0
   -2.1739   21.7689  -27.4071 H   0  0  0  0  0  0  0  0  0  0  0  0
   -0.8519   22.9850  -27.4071 H   0  0  0  0  0  0  0  0  0  0  0  0
   -3.5711   24.2184  -25.9101 H   0  0  0  0  0  0  0  0  0  0  0  0
   -3.9548   25.4688  -27.1413 H   0  0  0  0  0  0  0  0  0  0  0  0
   -4.8413   23.9065  -27.1413 H   0  0  0  0  0  0  0  0  0  0  0  0
   -6.8250   24.9410  -28.6010 H   0  0  0  0  0  0  0  0  0  0  0  0
   -5.5610   26.2130  -28.5540 H   0  0  0  0  0  0  0  0  0  0  0  0
   -8.1045   23.9574  -30.7635 H   0  0  0  0  0  0  0  0  0  0  0  0
   -9.3802   21.6223  -31.8132 H   0  0  0  0  0  0  0  0  0  0  0  0
   -8.9089   19.3754  -32.8416 H   0  0  0  0  0  0  0  0  0  0  0  0
   -7.3315   15.1210  -33.7951 H   0  0  0  0  0  0  0  0  0  0  0  0
   -5.1313   15.5340  -35.1722 H   0  0  0  0  0  0  0  0  0  0  0  0
   -4.6247   20.1073  -32.4712 H   0  0  0  0  0  0  0  0  0  0  0  0
  1  2  1  0
  2  3  1  0
  2  4  1  0
  2  5  1  0
  5  6  1  0
  6  7  2  0
  6  8  1  0
  8  9  2  0
  8 10  1  0
 10 11  1  0
 11 12  1  0
 12 13  1  0
 12 14  2  0
 11 15  2  0
 15 16  1  0
 16 17  2  0
 17 18  1  0
 18 19  2  0
 19 20  1  0
 20 21  2  0
 21 22  1  0
 22 23  2  0
 23 24  1  0
 19 25  1  0
 25 26  2  0
 26 10  1  0
 26 16  1  0
 24 20  1  0
  1 27  1  0
  1 28  1  0
  1 29  1  0
  3 30  1  0
  3 31  1  0
  3 32  1  0
  4 33  1  0
  4 34  1  0
  4 35  1  0
 13 36  1  0
 13 37  1  0
 15 38  1  0
 17 39  1  0
 18 40  1  0
 22 41  1  0
 23 42  1  0
 25 43  1  0
M  END
>  <UniqueID>  (20) 
20

>  <SMILES>  (20) 
CC(C)(C)OC(=O)C(=O)n1c(C(N)=O)cc2ccc(-c3nccs3)cc21

>  <Energy>  (20) 
110.59996029781826

>  <Genealogy>  (20) 
CC(C)(C)OC(=O)C(=O)n1c(C(N)=O)cc2ccc(-c3nccs3)cc21 (3D coordinates assigned)
CC(C)(C)OC(=O)C(=O)n1c(C(N)=O)cc2ccc(-c3nccs3)cc21 (optimized conformer: 110.59996029781826 kcal/mol)

>  <smiles>  (20) 
CC(C)(C)OC(=O)C(=O)n1c(C(N)=O)cc2ccc(-c3nccs3)cc21

>  <score_type>  (20) 
oracle

>  <origin>  (20) 
adg

>  <m_score__min__energy>  (20) 
-9.25

>  <m_primary>  (20) 
energy

$$$$
21:0
     RDKit          3D

 37 39  0  0  0  0  0  0  0  0999 V2000
   -2.8440   25.2930  -30.6810 H   0  0  0  0  0  0  0  0  0  0  0  0
   -3.8690   25.4660  -30.7800 N   0  0  0  0  0  0  0  0  0  0  0  0
   -4.8210   24.5730  -30.2100 C   0  0  0  0  0  0  0  0  0  0  0  0
   -5.2850   24.8150  -29.0640 O   0  0  0  0  0  0  0  0  0  0  0  0
   -5.2350   23.3440  -30.9210 C   0  0  0  0  0  0  0  0  0  0  0  0
   -6.4630   23.2030  -31.5620 C   0  0  0  0  0  0  0  0  0  0  0  0
   -7.2429   23.9690  -31.6846 H   0  0  0  0  0  0  0  0  0  0  0  0
   -6.4940   21.9010  -32.0100 C   0  0  0  0  0  0  0  0  0  0  0  0
   -7.4760   21.2200  -32.7220 C   0  0  0  0  0  0  0  0  0  0  0  0
   -8.4178   21.7140  -33.0031 H   0  0  0  0  0  0  0  0  0  0  0  0
   -7.2280   19.8820  -33.0710 C   0  0  0  0  0  0  0  0  0  0  0  0
   -7.9886   19.3170  -33.6297 H   0  0  0  0  0  0  0  0  0  0  0  0
   -6.0080   19.2490  -32.7120 C   0  0  0  0  0  0  0  0  0  0  0  0
   -5.7530   17.8380  -33.0950 C   0  0  0  0  0  0  0  0  0  0  0  0
   -4.4490   17.3080  -33.0540 C   0  0  0  0  0  0  0  0  0  0  0  0
   -3.6104   17.9447  -32.7356 H   0  0  0  0  0  0  0  0  0  0  0  0
   -4.2130   15.9790  -33.4150 C   0  0  0  0  0  0  0  0  0  0  0  0
   -3.1907   15.5744  -33.3796 H   0  0  0  0  0  0  0  0  0  0  0  0
   -5.2720   15.1620  -33.8210 C   0  0  0  0  0  0  0  0  0  0  0  0
   -5.0340   13.8420  -34.1790 O   0  0  0  0  0  0  0  0  0  0  0  0
   -6.5710   15.6770  -33.8650 C   0  0  0  0  0  0  0  0  0  0  0  0
   -7.4051   15.0346  -34.1838 H   0  0  0  0  0  0  0  0  0  0  0  0
   -6.8130   17.0060  -33.5050 C   0  0  0  0  0  0  0  0  0  0  0  0
   -7.8376   17.4044  -33.5422 H   0  0  0  0  0  0  0  0  0  0  0  0
   -5.0350   19.9790  -31.9880 C   0  0  0  0  0  0  0  0  0  0  0  0
   -4.0794   19.5141  -31.7039 H   0  0  0  0  0  0  0  0  0  0  0  0
   -5.3160   21.3050  -31.6420 C   0  0  0  0  0  0  0  0  0  0  0  0
   -4.5300   22.1790  -30.9790 N   0  0  0  0  0  0  0  0  0  0  0  0
   -3.1950   21.9250  -30.5140 C   0  0  0  0  0  0  0  0  0  0  0  0
   -2.8340   20.7390  -30.2850 O   0  0  0  0  0  0  0  0  0  0  0  0
   -2.2430   23.0420  -30.3570 C   0  0  0  0  0  0  0  0  0  0  0  0
   -1.8900   23.5691  -31.2556 H   0  0  0  0  0  0  0  0  0  0  0  0
   -1.7940   23.4360  -29.1580 C   0  0  0  0  0  0  0  0  0  0  0  0
   -2.1455   22.9075  -28.2596 H   0  0  0  0  0  0  0  0  0  0  0  0
   -0.8470   24.5510  -29.0010 C   0  0  0  0  0  0  0  0  0  0  0  0
    0.3230   24.3590  -28.5770 O   0  0  0  0  0  0  0  0  0  0  0  0
   -1.2510   25.8400  -29.3290 O   0  0  0  0  0  0  0  0  0  0  0  0
  1  2  1  0
  2  3  1  0
  3  4  2  0
  3  5  1  0
  5  6  2  0
  6  7  1  0
  6  8  1  0
  8  9  2  0
  9 10  1  0
  9 11  1  0
 11 12  1  0
 11 13  2  0
 13 14  1  0
 14 15  2  0
 15 16  1  0
 15 17  1  0
 17 18  1  0
 17 19  2  0
 19 20  1  0
 19 21  1  0
 21 22  1  0
 21 23  2  0
 23 24  1  0
 13 25  1  0
 25 26  1  0
 25 27  2  0
 27 28  1  0
 28 29  1  0
 29 30  2  0
 29 31  1  0
 31 32  1  0
 31 33  2  0
 33 34  1  0
 33 35  1  0
 35 36  2  0
 35 37  1  0
 28  5  1  0
 27  8  1  0
 23 14  1  0
M  CHG  3   2  -1  20  -1  37  -1
M  END
>  <UniqueID>  (21) 
21

>  <SMILES>  (21) 
[NH-]C(=O)c1cc2ccc(-c3ccc([O-])cc3)cc2n1C(=O)/C=C/C(=O)[O-]

>  <Energy>  (21) 
83.52657485351507

>  <Genealogy>  (21) 
[NH-]C(=O)c1cc2ccc(-c3ccc([O-])cc3)cc2n1C(=O)/C=C/C(=O)[O-] (protonated)
[NH-]C(=O)c1cc2ccc(-c3ccc([O-])cc3)cc2n1C(=O)/C=C/C(=O)[O-] (cis-trans isomerization)
[NH-]C(=O)c1cc2ccc(-c3ccc([O-])cc3)cc2n1C(=O)/C=C/C(=O)[O-] (3D coordinates assigned)
[NH-]C(=O)c1cc2ccc(-c3ccc([O-])cc3)cc2n1C(=O)/C=C/C(=O)[O-] (optimized conformer: 83.52657485351507 kcal/mol)

>  <smiles>  (21) 
NC(=O)c1cc2ccc(-c3ccc(O)cc3)cc2n1C(=O)/C=C/C(=O)O

>  <score_type>  (21) 
oracle

>  <origin>  (21) 
adg

>  <m_score__min__energy>  (21) 
-12.73

>  <m_primary>  (21) 
energy

$$$$
22:0
     RDKit          3D

 31 32  0  0  0  0  0  0  0  0999 V2000
   -4.1660   25.5470  -30.6950 N   0  0  0  0  0  0  0  0  0  0  0  0
   -5.5150   25.1070  -30.5280 C   0  0  0  0  0  0  0  0  0  0  0  0
   -6.3100   25.8040  -29.8430 O   0  0  0  0  0  0  0  0  0  0  0  0
   -5.9730   23.8180  -31.0830 C   0  0  0  0  0  0  0  0  0  0  0  0
   -7.3040   23.5480  -31.3910 C   0  0  0  0  0  0  0  0  0  0  0  0
   -7.3190   22.2390  -31.8150 C   0  0  0  0  0  0  0  0  0  0  0  0
   -8.3780   21.4610  -32.2690 C   0  0  0  0  0  0  0  0  0  0  0  0
   -8.1020   20.1510  -32.6900 C   0  0  0  0  0  0  0  0  0  0  0  0
   -6.7800   19.6370  -32.6410 C   0  0  0  0  0  0  0  0  0  0  0  0
   -6.4870   18.2490  -33.1530 C   0  0  0  0  0  0  0  0  0  0  0  0
   -6.1430   18.3190  -34.4900 F   0  0  0  0  0  0  0  0  0  0  0  0
   -7.5970   17.4330  -33.0150 F   0  0  0  0  0  0  0  0  0  0  0  0
   -5.4410   17.6800  -32.4470 F   0  0  0  0  0  0  0  0  0  0  0  0
   -5.7260   20.4690  -32.1980 C   0  0  0  0  0  0  0  0  0  0  0  0
   -6.0330   21.7640  -31.7640 C   0  0  0  0  0  0  0  0  0  0  0  0
   -5.1930   22.7260  -31.3200 N   0  0  0  0  0  0  0  0  0  0  0  0
   -3.7590   22.6500  -31.2390 C   0  0  0  0  0  0  0  0  0  0  0  0
   -3.0810   22.3680  -32.2640 O   0  0  0  0  0  0  0  0  0  0  0  0
   -3.1200   22.8870  -30.0170 O   0  0  0  0  0  0  0  0  0  0  0  0
   -1.7040   22.9080  -29.8790 C   0  0  0  0  0  0  0  0  0  0  0  0
   -1.2800   24.2470  -29.3750 C   0  0  0  0  0  0  0  0  0  0  0  0
   -0.1010   24.4310  -28.9740 O   0  0  0  0  0  0  0  0  0  0  0  0
   -2.1880   25.2990  -29.3490 O   0  0  0  0  0  0  0  0  0  0  0  0
   -3.4410   24.9190  -31.1080 H   0  0  0  0  0  0  0  0  0  0  0  0
   -3.8700   26.4810  -30.3310 H   0  0  0  0  0  0  0  0  0  0  0  0
   -8.1601   24.2342  -31.3122 H   0  0  0  0  0  0  0  0  0  0  0  0
   -9.4024   21.8606  -32.2974 H   0  0  0  0  0  0  0  0  0  0  0  0
   -8.9192   19.5156  -33.0620 H   0  0  0  0  0  0  0  0  0  0  0  0
   -4.6874   20.1065  -32.1945 H   0  0  0  0  0  0  0  0  0  0  0  0
   -1.3923   22.1308  -29.1657 H   0  0  0  0  0  0  0  0  0  0  0  0
   -1.2346   22.7148  -30.8549 H   0  0  0  0  0  0  0  0  0  0  0  0
  1  2  1  0
  2  3  2  0
  2  4  1  0
  4  5  2  0
  5  6  1  0
  6  7  2  0
  7  8  1  0
  8  9  2  0
  9 10  1  0
 10 11  1  0
 10 12  1  0
 10 13  1  0
  9 14  1  0
 14 15  2  0
 15 16  1  0
 16 17  1  0
 17 18  2  0
 17 19  1  0
 19 20  1  0
 20 21  1  0
 21 22  2  0
 21 23  1  0
 16  4  1  0
 15  6  1  0
  1 24  1  0
  1 25  1  0
  5 26  1  0
  7 27  1  0
  8 28  1  0
 14 29  1  0
 20 30  1  0
 20 31  1  0
M  CHG  1  23  -1
M  END
>  <UniqueID>  (22) 
22

>  <SMILES>  (22) 
NC(=O)c1cc2ccc(C(F)(F)F)cc2n1C(=O)OCC(=O)[O-]

>  <Energy>  (22) 
68.17591137334789

>  <Genealogy>  (22) 
NC(=O)c1cc2ccc(C(F)(F)F)cc2n1C(=O)OCC(=O)[O-] (protonated)
NC(=O)c1cc2ccc(C(F)(F)F)cc2n1C(=O)OCC(=O)[O-] (3D coordinates assigned)
NC(=O)c1cc2ccc(C(F)(F)F)cc2n1C(=O)OCC(=O)[O-] (optimized conformer: 68.17591137334789 kcal/mol)

>  <smiles>  (22) 
NC(=O)c1cc2ccc(C(F)(F)F)cc2n1C(=O)OCC(=O)O

>  <score_type>  (22) 
oracle

>  <origin>  (22) 
adg

>  <m_score__min__energy>  (22) 
-10

>  <m_primary>  (22) 
energy

$$$$
23:0
     RDKit          3D

 40 42  0  0  0  0  0  0  0  0999 V2000
   -4.2620   25.5150  -30.7880 N   0  0  0  0  0  0  0  0  0  0  0  0
   -5.5970   25.1770  -30.4090 C   0  0  0  0  0  0  0  0  0  0  0  0
   -6.2530   25.9740  -29.6880 O   0  0  0  0  0  0  0  0  0  0  0  0
   -6.1970   23.8820  -30.7910 C   0  0  0  0  0  0  0  0  0  0  0  0
   -7.5690   23.6640  -30.8550 C   0  0  0  0  0  0  0  0  0  0  0  0
   -7.7110   22.3330  -31.1730 C   0  0  0  0  0  0  0  0  0  0  0  0
   -8.8630   21.5770  -31.3600 C   0  0  0  0  0  0  0  0  0  0  0  0
   -8.7160   20.2240  -31.7060 C   0  0  0  0  0  0  0  0  0  0  0  0
   -7.4270   19.6590  -31.8890 C   0  0  0  0  0  0  0  0  0  0  0  0
   -7.2780   18.1960  -32.2230 C   0  0  0  0  0  0  0  0  0  0  0  0
   -6.3830   17.5860  -31.3610 F   0  0  0  0  0  0  0  0  0  0  0  0
   -6.8120   18.0710  -33.5190 F   0  0  0  0  0  0  0  0  0  0  0  0
   -8.4950   17.5440  -32.1170 F   0  0  0  0  0  0  0  0  0  0  0  0
   -6.2790   20.4550  -31.6700 C   0  0  0  0  0  0  0  0  0  0  0  0
   -6.4560   21.7960  -31.3010 C   0  0  0  0  0  0  0  0  0  0  0  0
   -5.5120   22.7370  -31.0720 N   0  0  0  0  0  0  0  0  0  0  0  0
   -4.0900   22.5780  -31.2040 C   0  0  0  0  0  0  0  0  0  0  0  0
   -3.5360   22.7990  -32.3160 O   0  0  0  0  0  0  0  0  0  0  0  0
   -3.3340   22.1670  -30.0970 O   0  0  0  0  0  0  0  0  0  0  0  0
   -2.5290   23.0030  -29.3120 C   0  0  0  0  0  0  0  0  0  0  0  0
   -2.3080   24.1970  -29.6520 O   0  0  0  0  0  0  0  0  0  0  0  0
   -1.9530   22.4880  -28.1050 N   0  0  0  0  0  0  0  0  0  0  0  0
   -2.1290   21.1170  -27.6650 C   0  0  0  0  0  0  0  0  0  0  0  0
   -1.2270   20.9620  -26.4470 C   0  0  0  0  0  0  0  0  0  0  0  0
   -0.8730   22.3800  -26.0020 C   0  0  0  0  0  0  0  0  0  0  0  0
   -1.1310   23.2760  -27.2060 C   0  0  0  0  0  0  0  0  0  0  0  0
   -3.8690   26.4500  -30.5430 H   0  0  0  0  0  0  0  0  0  0  0  0
   -3.6340   24.8120  -31.2380 H   0  0  0  0  0  0  0  0  0  0  0  0
   -8.3700   24.3991  -30.6871 H   0  0  0  0  0  0  0  0  0  0  0  0
   -9.8602   22.0257  -31.2404 H   0  0  0  0  0  0  0  0  0  0  0  0
   -9.6093   19.5955  -31.8366 H   0  0  0  0  0  0  0  0  0  0  0  0
   -5.2703   20.0319  -31.7865 H   0  0  0  0  0  0  0  0  0  0  0  0
   -3.1785   20.9324  -27.3922 H   0  0  0  0  0  0  0  0  0  0  0  0
   -1.8728   20.3979  -28.4570 H   0  0  0  0  0  0  0  0  0  0  0  0
   -1.7579   20.4305  -25.6434 H   0  0  0  0  0  0  0  0  0  0  0  0
   -0.3259   20.3775  -26.6847 H   0  0  0  0  0  0  0  0  0  0  0  0
   -1.5072   22.6845  -25.1564 H   0  0  0  0  0  0  0  0  0  0  0  0
    0.1726   22.4473  -25.6671 H   0  0  0  0  0  0  0  0  0  0  0  0
   -1.6626   24.1888  -26.8993 H   0  0  0  0  0  0  0  0  0  0  0  0
   -0.1941   23.5970  -27.6847 H   0  0  0  0  0  0  0  0  0  0  0  0
  1  2  1  0
  2  3  2  0
  2  4  1  0
  4  5  2  0
  5  6  1  0
  6  7  2  0
  7  8  1  0
  8  9  2  0
  9 10  1  0
 10 11  1  0
 10 12  1  0
 10 13  1  0
  9 14  1  0
 14 15  2  0
 15 16  1  0
 16 17  1  0
 17 18  2  0
 17 19  1  0
 19 20  1  0
 20 21  2  0
 20 22  1  0
 22 23  1  0
 23 24  1  0
 24 25  1  0
 25 26  1  0
 16  4  1  0
 26 22  1  0
 15  6  1  0
  1 27  1  0
  1 28  1  0
  5 29  1  0
  7 30  1  0
  8 31  1  0
 14 32  1  0
 23 33  1  0
 23 34  1  0
 24 35  1  0
 24 36  1  0
 25 37  1  0
 25 38  1  0
 26 39  1  0
 26 40  1  0
M  END
>  <UniqueID>  (23) 
23

>  <SMILES>  (23) 
NC(=O)c1cc2ccc(C(F)(F)F)cc2n1C(=O)OC(=O)N1CCCC1

>  <Energy>  (23) 
79.92939502794835

>  <Genealogy>  (23) 
NC(=O)c1cc2ccc(C(F)(F)F)cc2n1C(=O)OC(=O)N1CCCC1 (3D coordinates assigned)
NC(=O)c1cc2ccc(C(F)(F)F)cc2n1C(=O)OC(=O)N1CCCC1 (nonaromatic ring conformer: 79.92939502794835 kcal/mol)

>  <smiles>  (23) 
NC(=O)c1cc2ccc(C(F)(F)F)cc2n1C(=O)OC(=O)N1CCCC1

>  <score_type>  (23) 
oracle

>  <origin>  (23) 
adg

>  <m_score__min__energy>  (23) 
-8.5299999999999994

>  <m_primary>  (23) 
energy

$$$$
24:0
     RDKit          3D

 43 44  0  0  0  0  0  0  0  0999 V2000
   -7.4100   18.3930  -32.7080 C   0  0  0  0  0  0  0  0  0  0  0  0
   -7.4900   19.8490  -32.3590 C   0  0  0  0  0  0  0  0  0  0  0  0
   -8.7440   20.5100  -32.3510 C   0  0  0  0  0  0  0  0  0  0  0  0
   -8.8370   21.8630  -31.9800 C   0  0  0  0  0  0  0  0  0  0  0  0
   -7.6660   22.5220  -31.6190 C   0  0  0  0  0  0  0  0  0  0  0  0
   -7.4720   23.8150  -31.1880 C   0  0  0  0  0  0  0  0  0  0  0  0
   -6.1040   23.9220  -30.9400 C   0  0  0  0  0  0  0  0  0  0  0  0
   -5.4440   25.1650  -30.4890 C   0  0  0  0  0  0  0  0  0  0  0  0
   -4.0240   25.2770  -30.5500 N   0  0  0  0  0  0  0  0  0  0  0  0
   -6.1190   26.1250  -30.0340 O   0  0  0  0  0  0  0  0  0  0  0  0
   -5.4790   22.7420  -31.2130 N   0  0  0  0  0  0  0  0  0  0  0  0
   -4.0880   22.4260  -31.0400 C   0  0  0  0  0  0  0  0  0  0  0  0
   -3.3560   22.2870  -32.0570 O   0  0  0  0  0  0  0  0  0  0  0  0
   -3.5180   22.2660  -29.6830 C   0  0  0  0  0  0  0  0  0  0  0  0
   -3.4670   21.1070  -29.1850 O   0  0  0  0  0  0  0  0  0  0  0  0
   -3.0250   23.4090  -28.9290 N   0  0  1  0  0  0  0  0  0  0  0  0
   -3.8710   23.5960  -27.7290 C   0  0  0  0  0  0  0  0  0  0  0  0
   -1.5460   23.3330  -28.6500 C   0  0  0  0  0  0  0  0  0  0  0  0
   -1.2870   22.8390  -27.2030 C   0  0  0  0  0  0  0  0  0  0  0  0
   -0.7970   22.3660  -29.6100 C   0  0  0  0  0  0  0  0  0  0  0  0
   -0.9380   24.7290  -28.7560 C   0  0  0  0  0  0  0  0  0  0  0  0
   -1.5610   25.6690  -29.3170 O   0  0  0  0  0  0  0  0  0  0  0  0
    0.2930   24.9970  -28.1660 O   0  0  0  0  0  0  0  0  0  0  0  0
   -6.4470   21.8950  -31.6220 C   0  0  0  0  0  0  0  0  0  0  0  0
   -6.3260   20.5450  -31.9680 C   0  0  0  0  0  0  0  0  0  0  0  0
   -7.3772   17.7959  -31.7847 H   0  0  0  0  0  0  0  0  0  0  0  0
   -8.2939   18.1082  -33.2976 H   0  0  0  0  0  0  0  0  0  0  0  0
   -6.5003   18.2067  -33.2976 H   0  0  0  0  0  0  0  0  0  0  0  0
   -9.6523   19.9596  -32.6376 H   0  0  0  0  0  0  0  0  0  0  0  0
   -9.8056   22.3844  -31.9753 H   0  0  0  0  0  0  0  0  0  0  0  0
   -8.2348   24.5980  -31.0652 H   0  0  0  0  0  0  0  0  0  0  0  0
   -3.4820   25.6740  -29.7510 H   0  0  0  0  0  0  0  0  0  0  0  0
   -3.1870   24.2670  -29.5070 H   0  0  0  0  0  0  0  0  0  0  0  0
   -3.2596   23.4608  -26.8246 H   0  0  0  0  0  0  0  0  0  0  0  0
   -4.2972   24.6100  -27.7353 H   0  0  0  0  0  0  0  0  0  0  0  0
   -4.6849   22.8561  -27.7353 H   0  0  0  0  0  0  0  0  0  0  0  0
   -1.6751   23.5792  -26.4879 H   0  0  0  0  0  0  0  0  0  0  0  0
   -1.7965   21.8766  -27.0474 H   0  0  0  0  0  0  0  0  0  0  0  0
   -0.2056   22.7107  -27.0474 H   0  0  0  0  0  0  0  0  0  0  0  0
   -0.2283   21.6318  -29.0206 H   0  0  0  0  0  0  0  0  0  0  0  0
   -1.5265   21.8411  -30.2443 H   0  0  0  0  0  0  0  0  0  0  0  0
   -0.1064   22.9411  -30.2443 H   0  0  0  0  0  0  0  0  0  0  0  0
   -5.3497   20.0393  -31.9362 H   0  0  0  0  0  0  0  0  0  0  0  0
  1  2  1  0
  2  3  2  0
  3  4  1  0
  4  5  2  0
  5  6  1  0
  6  7  2  0
  7  8  1  0
  8  9  1  0
  8 10  2  0
  7 11  1  0
 11 12  1  0
 12 13  2  0
 12 14  1  0
 14 15  2  0
 14 16  1  0
 16 17  1  0
 16 18  1  0
 18 19  1  0
 18 20  1  0
 18 21  1  0
 21 22  2  0
 21 23  1  0
 11 24  1  0
 24 25  2  0
 25  2  1  0
 24  5  1  0
  1 26  1  0
  1 27  1  0
  1 28  1  0
  3 29  1  0
  4 30  1  0
  6 31  1  0
  9 32  1  0
 16 33  1  6
 17 34  1  0
 17 35  1  0
 17 36  1  0
 19 37  1  0
 19 38  1  0
 19 39  1  0
 20 40  1  0
 20 41  1  0
 20 42  1  0
 25 43  1  0
M  CHG  3   9  -1  16   1  23  -1
M  END
>  <UniqueID>  (24) 
24

>  <SMILES>  (24) 
Cc1ccc2cc(C([NH-])=O)n(C(=O)C(=O)[N@@H+](C)C(C)(C)C(=O)[O-])c2c1

>  <Energy>  (24) 
91.26644603892746

>  <Genealogy>  (24) 
Cc1ccc2cc(C([NH-])=O)n(C(=O)C(=O)[NH+](C)C(C)(C)C(=O)[O-])c2c1 (protonated)
Cc1ccc2cc(C([NH-])=O)n(C(=O)C(=O)[N@@H+](C)C(C)(C)C(=O)[O-])c2c1 (chirality)
Cc1ccc2cc(C([NH-])=O)n(C(=O)C(=O)[N@@H+](C)C(C)(C)C(=O)[O-])c2c1 (3D coordinates assigned)
Cc1ccc2cc(C([NH-])=O)n(C(=O)C(=O)[N@@H+](C)C(C)(C)C(=O)[O-])c2c1 (optimized conformer: 91.26644603892746 kcal/mol)

>  <smiles>  (24) 
Cc1ccc2cc(C(N)=O)n(C(=O)C(=O)N(C)C(C)(C)C(=O)O)c2c1

>  <score_type>  (24) 
oracle

>  <origin>  (24) 
adg

>  <m_score__min__energy>  (24) 
-12.390000000000001

>  <m_primary>  (24) 
energy

$$$$
25:0
     RDKit          3D

 47 49  0  0  0  0  0  0  0  0999 V2000
   -2.0020   24.8410  -28.2440 C   0  0  0  0  0  0  0  0  0  0  0  0
   -2.7350   25.2980  -29.3750 O   0  0  0  0  0  0  0  0  0  0  0  0
   -3.9160   24.7050  -29.8460 C   0  0  0  0  0  0  0  0  0  0  0  0
   -4.8740   25.5250  -30.4550 C   0  0  0  0  0  0  0  0  0  0  0  0
   -6.0650   24.9820  -30.9440 C   0  0  0  0  0  0  0  0  0  0  0  0
   -6.3130   23.6040  -30.8370 C   0  0  0  0  0  0  0  0  0  0  0  0
   -7.5960   23.0220  -31.3710 C   0  0  0  0  0  0  0  0  0  0  0  0
   -7.3570   22.2900  -32.6160 N   0  0  0  0  0  0  0  0  0  0  0  0
   -7.2710   20.8560  -32.7140 C   0  0  0  0  0  0  0  0  0  0  0  0
   -8.4190   20.0770  -32.4230 C   0  0  0  0  0  0  0  0  0  0  0  0
   -8.3800   18.6760  -32.5060 C   0  0  0  0  0  0  0  0  0  0  0  0
   -7.1840   18.0780  -32.8930 C   0  0  0  0  0  0  0  0  0  0  0  0
   -6.8650   16.7470  -33.0260 C   0  0  0  0  0  0  0  0  0  0  0  0
   -5.5320   16.7270  -33.4260 C   0  0  0  0  0  0  0  0  0  0  0  0
   -4.7980   15.4860  -33.7440 C   0  0  0  0  0  0  0  0  0  0  0  0
   -3.8750   15.4310  -34.8320 N   0  0  0  0  0  0  0  0  0  0  0  0
   -5.0310   14.4430  -33.0780 O   0  0  0  0  0  0  0  0  0  0  0  0
   -5.0390   17.9950  -33.5230 N   0  0  0  0  0  0  0  0  0  0  0  0
   -3.6830   18.3810  -33.8010 C   0  0  0  0  0  0  0  0  0  0  0  0
   -3.2120   18.2300  -34.9610 O   0  0  0  0  0  0  0  0  0  0  0  0
   -2.8960   18.9220  -32.7740 O   0  0  0  0  0  0  0  0  0  0  0  0
   -3.1160   20.1620  -32.1590 C   0  0  0  0  0  0  0  0  0  0  0  0
   -3.7000   20.2440  -31.0450 O   0  0  0  0  0  0  0  0  0  0  0  0
   -2.7110   21.4110  -32.8720 C   0  0  0  0  0  0  0  0  0  0  0  0
   -3.8150   21.9990  -33.4640 F   0  0  0  0  0  0  0  0  0  0  0  0
   -2.1520   22.3050  -31.9770 F   0  0  0  0  0  0  0  0  0  0  0  0
   -1.7810   21.1010  -33.8460 F   0  0  0  0  0  0  0  0  0  0  0  0
   -6.0660   18.8120  -33.1930 C   0  0  0  0  0  0  0  0  0  0  0  0
   -6.0680   20.2070  -33.0890 C   0  0  0  0  0  0  0  0  0  0  0  0
   -5.3610   22.7820  -30.2130 C   0  0  0  0  0  0  0  0  0  0  0  0
   -4.1690   23.3260  -29.7250 C   0  0  0  0  0  0  0  0  0  0  0  0
   -2.5126   25.1593  -27.3231 H   0  0  0  0  0  0  0  0  0  0  0  0
   -1.9386   23.7431  -28.2673 H   0  0  0  0  0  0  0  0  0  0  0  0
   -0.9883   25.2674  -28.2673 H   0  0  0  0  0  0  0  0  0  0  0  0
   -4.6875   26.6050  -30.5491 H   0  0  0  0  0  0  0  0  0  0  0  0
   -6.8122   25.6374  -31.4152 H   0  0  0  0  0  0  0  0  0  0  0  0
   -8.0183   22.3341  -30.6237 H   0  0  0  0  0  0  0  0  0  0  0  0
   -8.2978   23.8442  -31.5749 H   0  0  0  0  0  0  0  0  0  0  0  0
   -7.1990   22.8590  -33.4790 H   0  0  0  0  0  0  0  0  0  0  0  0
   -9.3533   20.5771  -32.1281 H   0  0  0  0  0  0  0  0  0  0  0  0
   -9.2674   18.0694  -32.2724 H   0  0  0  0  0  0  0  0  0  0  0  0
   -7.5229   15.8826  -32.8531 H   0  0  0  0  0  0  0  0  0  0  0  0
   -3.7830   16.2240  -35.5030 H   0  0  0  0  0  0  0  0  0  0  0  0
   -3.3320   14.5570  -35.0140 H   0  0  0  0  0  0  0  0  0  0  0  0
   -5.1563   20.7874  -33.2937 H   0  0  0  0  0  0  0  0  0  0  0  0
   -5.5540   21.7042  -30.1075 H   0  0  0  0  0  0  0  0  0  0  0  0
   -3.4256   22.6731  -29.2443 H   0  0  0  0  0  0  0  0  0  0  0  0
  1  2  1  0
  2  3  1  0
  3  4  2  0
  4  5  1  0
  5  6  2  0
  6  7  1  0
  7  8  1  0
  8  9  1  0
  9 10  2  0
 10 11  1  0
 11 12  2  0
 12 13  1  0
 13 14  2  0
 14 15  1  0
 15 16  1  0
 15 17  2  0
 14 18  1  0
 18 19  1  0
 19 20  2  0
 19 21  1  0
 21 22  1  0
 22 23  2  0
 22 24  1  0
 24 25  1  0
 24 26  1  0
 24 27  1  0
 18 28  1  0
 28 29  2  0
  6 30  1  0
 30 31  2  0
 31  3  1  0
 29  9  1  0
 28 12  1  0
  1 32  1  0
  1 33  1  0
  1 34  1  0
  4 35  1  0
  5 36  1  0
  7 37  1  0
  7 38  1  0
  8 39  1  0
 10 40  1  0
 11 41  1  0
 13 42  1  0
 16 43  1  0
 16 44  1  0
 29 45  1  0
 30 46  1  0
 31 47  1  0
M  END
>  <UniqueID>  (25) 
25

>  <SMILES>  (25) 
COc1ccc(CNc2ccc3cc(C(N)=O)n(C(=O)OC(=O)C(F)(F)F)c3c2)cc1

>  <Energy>  (25) 
86.10969611291725

>  <Genealogy>  (25) 
COc1ccc(CNc2ccc3cc(C(N)=O)n(C(=O)OC(=O)C(F)(F)F)c3c2)cc1 (3D coordinates assigned)
COc1ccc(CNc2ccc3cc(C(N)=O)n(C(=O)OC(=O)C(F)(F)F)c3c2)cc1 (optimized conformer: 86.10969611291725 kcal/mol)

>  <smiles>  (25) 
COc1ccc(CNc2ccc3cc(C(N)=O)n(C(=O)OC(=O)C(F)(F)F)c3c2)cc1

>  <score_type>  (25) 
oracle

>  <origin>  (25) 
adg

>  <m_score__min__energy>  (25) 
-8.8900000000000006

>  <m_primary>  (25) 
energy

$$$$
26:0
     RDKit          3D

 46 48  0  0  0  0  0  0  0  0999 V2000
   -2.0370   15.0210  -35.8120 C   0  0  0  0  0  0  0  0  0  0  0  0
   -3.2560   15.8150  -35.7240 N   0  0  0  0  0  0  0  0  0  0  0  0
   -4.1480   15.7030  -34.6080 C   0  0  0  0  0  0  0  0  0  0  0  0
   -3.8870   14.9000  -33.6690 O   0  0  0  0  0  0  0  0  0  0  0  0
   -5.4000   16.5420  -34.5510 C   0  0  1  0  0  0  0  0  0  0  0  0
   -6.4610   15.9590  -33.6150 C   0  0  0  0  0  0  0  0  0  0  0  0
   -7.2010   17.1630  -33.0490 C   0  0  0  0  0  0  0  0  0  0  0  0
   -6.3140   18.3040  -33.2440 N   0  0  0  0  0  0  0  0  0  0  0  0
   -6.5700   19.6260  -32.7130 C   0  0  0  0  0  0  0  0  0  0  0  0
   -7.9010   20.1150  -32.6030 C   0  0  0  0  0  0  0  0  0  0  0  0
   -8.1590   21.4000  -32.1010 C   0  0  0  0  0  0  0  0  0  0  0  0
   -7.0770   22.1770  -31.7060 C   0  0  0  0  0  0  0  0  0  0  0  0
   -7.0430   23.4600  -31.2100 C   0  0  0  0  0  0  0  0  0  0  0  0
   -5.6950   23.7390  -30.9980 C   0  0  0  0  0  0  0  0  0  0  0  0
   -5.2090   24.9950  -30.3890 C   0  0  0  0  0  0  0  0  0  0  0  0
   -3.8290   25.3430  -30.4890 N   0  0  0  0  0  0  0  0  0  0  0  0
   -6.0040   25.7830  -29.8130 O   0  0  0  0  0  0  0  0  0  0  0  0
   -4.9250   22.6730  -31.3550 N   0  0  0  0  0  0  0  0  0  0  0  0
   -3.4910   22.5900  -31.3600 C   0  0  0  0  0  0  0  0  0  0  0  0
   -2.8540   22.7080  -30.2770 O   0  0  0  0  0  0  0  0  0  0  0  0
   -2.8170   22.3560  -32.5660 O   0  0  0  0  0  0  0  0  0  0  0  0
   -2.2100   21.1460  -32.9290 C   0  0  0  0  0  0  0  0  0  0  0  0
   -2.7490   20.3710  -33.7650 O   0  0  0  0  0  0  0  0  0  0  0  0
   -0.9350   20.7410  -32.2640 C   0  0  0  0  0  0  0  0  0  0  0  0
    0.0630   20.5860  -33.2100 F   0  0  0  0  0  0  0  0  0  0  0  0
   -0.5470   21.7080  -31.3560 F   0  0  0  0  0  0  0  0  0  0  0  0
   -1.1250   19.5430  -31.6010 F   0  0  0  0  0  0  0  0  0  0  0  0
   -5.7880   21.7240  -31.7850 C   0  0  0  0  0  0  0  0  0  0  0  0
   -5.4980   20.4540  -32.3000 C   0  0  0  0  0  0  0  0  0  0  0  0
   -5.1410   17.9580  -34.0350 C   0  0  0  0  0  0  0  0  0  0  0  0
   -1.6779   14.7871  -34.7989 H   0  0  0  0  0  0  0  0  0  0  0  0
   -2.2467   14.0858  -36.3517 H   0  0  0  0  0  0  0  0  0  0  0  0
   -1.2664   15.5909  -36.3517 H   0  0  0  0  0  0  0  0  0  0  0  0
   -3.4760   16.4800  -36.4980 H   0  0  0  0  0  0  0  0  0  0  0  0
   -5.7503   16.5549  -35.5937 H   0  0  0  0  0  0  0  0  0  0  0  0
   -7.1516   15.3091  -34.1724 H   0  0  0  0  0  0  0  0  0  0  0  0
   -6.0141   15.3416  -32.8218 H   0  0  0  0  0  0  0  0  0  0  0  0
   -8.1479   17.3179  -33.5870 H   0  0  0  0  0  0  0  0  0  0  0  0
   -7.4503   17.0217  -31.9870 H   0  0  0  0  0  0  0  0  0  0  0  0
   -8.7405   19.4768  -32.9159 H   0  0  0  0  0  0  0  0  0  0  0  0
   -9.1880   21.7809  -32.0226 H   0  0  0  0  0  0  0  0  0  0  0  0
   -7.8990   24.1245  -31.0210 H   0  0  0  0  0  0  0  0  0  0  0  0
   -3.4960   26.0080  -31.2220 H   0  0  0  0  0  0  0  0  0  0  0  0
   -4.4575   20.1066  -32.3820 H   0  0  0  0  0  0  0  0  0  0  0  0
   -5.0237   18.6580  -34.8754 H   0  0  0  0  0  0  0  0  0  0  0  0
   -4.2170   18.0134  -33.4408 H   0  0  0  0  0  0  0  0  0  0  0  0
  1  2  1  0
  2  3  1  0
  3  4  2  0
  3  5  1  0
  5  6  1  0
  6  7  1  0
  7  8  1  0
  8  9  1  0
  9 10  2  0
 10 11  1  0
 11 12  2  0
 12 13  1  0
 13 14  2  0
 14 15  1  0
 15 16  1  0
 15 17  2  0
 14 18  1  0
 18 19  1  0
 19 20  2  0
 19 21  1  0
 21 22  1  0
 22 23  2  0
 22 24  1  0
 24 25  1  0
 24 26  1  0
 24 27  1  0
 18 28  1  0
 28 29  2  0
  8 30  1  0
 30  5  1  0
 29  9  1  0
 28 12  1  0
  1 31  1  0
  1 32  1  0
  1 33  1  0
  2 34  1  0
  5 35  1  6
  6 36  1  0
  6 37  1  0
  7 38  1  0
  7 39  1  0
 10 40  1  0
 11 41  1  0
 13 42  1  0
 16 43  1  0
 29 44  1  0
 30 45  1  0
 30 46  1  0
M  CHG  1  16  -1
M  END
>  <UniqueID>  (26) 
26

>  <SMILES>  (26) 
CNC(=O)[C@H]1CCN(c2ccc3cc(C([NH-])=O)n(C(=O)OC(=O)C(F)(F)F)c3c2)C1

>  <Energy>  (26) 
84.89425268556047

>  <Genealogy>  (26) 
CNC(=O)[C@H]1CCN(c2ccc3cc(C([NH-])=O)n(C(=O)OC(=O)C(F)(F)F)c3c2)C1 (protonated)
CNC(=O)[C@H]1CCN(c2ccc3cc(C([NH-])=O)n(C(=O)OC(=O)C(F)(F)F)c3c2)C1 (3D coordinates assigned)
CNC(=O)[C@H]1CCN(c2ccc3cc(C([NH-])=O)n(C(=O)OC(=O)C(F)(F)F)c3c2)C1 (nonaromatic ring conformer: 84.89425268556047 kcal/mol)

>  <smiles>  (26) 
CNC(=O)[C@H]1CCN(c2ccc3cc(C(N)=O)n(C(=O)OC(=O)C(F)(F)F)c3c2)C1

>  <score_type>  (26) 
oracle

>  <origin>  (26) 
adg

>  <m_score__min__energy>  (26) 
-10.23

>  <m_primary>  (26) 
energy

$$$$
27:0
     RDKit          3D

 36 37  0  0  0  0  0  0  0  0999 V2000
   -6.8310   18.1630  -32.5640 C   0  0  0  0  0  0  0  0  0  0  0  0
   -7.0590   19.5930  -32.1760 C   0  0  0  0  0  0  0  0  0  0  0  0
   -8.3480   20.1660  -32.3060 C   0  0  0  0  0  0  0  0  0  0  0  0
   -8.5640   21.5190  -31.9950 C   0  0  0  0  0  0  0  0  0  0  0  0
   -7.4740   22.2710  -31.5630 C   0  0  0  0  0  0  0  0  0  0  0  0
   -7.3960   23.6040  -31.2300 C   0  0  0  0  0  0  0  0  0  0  0  0
   -6.0600   23.8240  -30.8960 C   0  0  0  0  0  0  0  0  0  0  0  0
   -5.5340   25.1130  -30.3920 C   0  0  0  0  0  0  0  0  0  0  0  0
   -4.2070   25.5340  -30.7110 N   0  0  0  0  0  0  0  0  0  0  0  0
   -6.2670   25.8650  -29.6970 O   0  0  0  0  0  0  0  0  0  0  0  0
   -5.3430   22.6720  -31.0170 N   0  0  0  0  0  0  0  0  0  0  0  0
   -3.9290   22.5000  -30.8400 C   0  0  0  0  0  0  0  0  0  0  0  0
   -3.1240   23.0090  -31.6680 O   0  0  0  0  0  0  0  0  0  0  0  0
   -3.4500   21.7800  -29.7380 O   0  0  0  0  0  0  0  0  0  0  0  0
   -2.4270   22.2550  -28.8630 C   0  0  0  0  0  0  0  0  0  0  0  0
   -2.9630   23.3440  -27.9270 C   0  0  0  0  0  0  0  0  0  0  0  0
   -2.2440   24.6810  -28.1060 C   0  0  0  0  0  0  0  0  0  0  0  0
   -2.2460   25.0310  -29.4620 O   0  0  0  0  0  0  0  0  0  0  0  0
   -6.2220   21.7300  -31.4280 C   0  0  0  0  0  0  0  0  0  0  0  0
   -5.9750   20.3900  -31.7500 C   0  0  0  0  0  0  0  0  0  0  0  0
   -6.7330   17.5482  -31.6571 H   0  0  0  0  0  0  0  0  0  0  0  0
   -7.6833   17.8044  -33.1598 H   0  0  0  0  0  0  0  0  0  0  0  0
   -5.9094   18.0872  -33.1598 H   0  0  0  0  0  0  0  0  0  0  0  0
   -9.1875   19.5460  -32.6536 H   0  0  0  0  0  0  0  0  0  0  0  0
   -9.5627   21.9703  -32.0897 H   0  0  0  0  0  0  0  0  0  0  0  0
   -8.2138   24.3397  -31.2278 H   0  0  0  0  0  0  0  0  0  0  0  0
   -3.8610   26.4630  -30.3830 H   0  0  0  0  0  0  0  0  0  0  0  0
   -3.5510   24.9140  -31.2360 H   0  0  0  0  0  0  0  0  0  0  0  0
   -2.0520   21.4153  -28.2595 H   0  0  0  0  0  0  0  0  0  0  0  0
   -1.6182   22.6850  -29.4721 H   0  0  0  0  0  0  0  0  0  0  0  0
   -4.0337   23.4897  -28.1331 H   0  0  0  0  0  0  0  0  0  0  0  0
   -2.7899   23.0091  -26.8936 H   0  0  0  0  0  0  0  0  0  0  0  0
   -2.7632   25.4578  -27.5255 H   0  0  0  0  0  0  0  0  0  0  0  0
   -1.2068   24.5915  -27.7506 H   0  0  0  0  0  0  0  0  0  0  0  0
   -2.4550   24.1990  -29.9610 H   0  0  0  0  0  0  0  0  0  0  0  0
   -4.9617   19.9691  -31.6729 H   0  0  0  0  0  0  0  0  0  0  0  0
  1  2  1  0
  2  3  2  0
  3  4  1  0
  4  5  2  0
  5  6  1  0
  6  7  2  0
  7  8  1  0
  8  9  1  0
  8 10  2  0
  7 11  1  0
 11 12  1  0
 12 13  2  0
 12 14  1  0
 14 15  1  0
 15 16  1  0
 16 17  1  0
 17 18  1  0
 11 19  1  0
 19 20  2  0
 20  2  1  0
 19  5  1  0
  1 21  1  0
  1 22  1  0
  1 23  1  0
  3 24  1  0
  4 25  1  0
  6 26  1  0
  9 27  1  0
  9 28  1  0
 15 29  1  0
 15 30  1  0
 16 31  1  0
 16 32  1  0
 17 33  1  0
 17 34  1  0
 18 35  1  0
 20 36  1  0
M  END
>  <UniqueID>  (27) 
27

>  <SMILES>  (27) 
Cc1ccc2cc(C(N)=O)n(C(=O)OCCCO)c2c1

>  <Energy>  (27) 
68.78478589581059

>  <Genealogy>  (27) 
Cc1ccc2cc(C(N)=O)n(C(=O)OCCCO)c2c1 (3D coordinates assigned)
Cc1ccc2cc(C(N)=O)n(C(=O)OCCCO)c2c1 (optimized conformer: 68.78478589581059 kcal/mol)

>  <smiles>  (27) 
Cc1ccc2cc(C(N)=O)n(C(=O)OCCCO)c2c1

>  <score_type>  (27) 
oracle

>  <origin>  (27) 
adg

>  <m_score__min__energy>  (27) 
-7.9800000000000004

>  <m_primary>  (27) 
energy

$$$$
28:0
     RDKit          3D

 36 37  0  0  0  0  0  0  0  0999 V2000
   -6.1070   15.4110  -33.8320 C   0  0  0  0  0  0  0  0  0  0  0  0
   -6.4450   16.5740  -34.5750 O   0  0  0  0  0  0  0  0  0  0  0  0
   -6.1340   17.8650  -34.1360 C   0  0  0  0  0  0  0  0  0  0  0  0
   -6.0570   18.8220  -34.9540 O   0  0  0  0  0  0  0  0  0  0  0  0
   -5.9440   18.1170  -32.6750 C   0  0  0  0  0  0  0  0  0  0  0  0
   -6.2880   19.5430  -32.3510 C   0  0  0  0  0  0  0  0  0  0  0  0
   -7.6320   19.9890  -32.4170 C   0  0  0  0  0  0  0  0  0  0  0  0
   -7.9660   21.3090  -32.0750 C   0  0  0  0  0  0  0  0  0  0  0  0
   -6.9400   22.1580  -31.6690 C   0  0  0  0  0  0  0  0  0  0  0  0
   -6.9870   23.4670  -31.2460 C   0  0  0  0  0  0  0  0  0  0  0  0
   -5.6710   23.8040  -30.9360 C   0  0  0  0  0  0  0  0  0  0  0  0
   -5.2570   25.1570  -30.5130 C   0  0  0  0  0  0  0  0  0  0  0  0
   -3.9750   25.6750  -30.8590 N   0  0  0  0  0  0  0  0  0  0  0  0
   -6.0650   25.8860  -29.8770 O   0  0  0  0  0  0  0  0  0  0  0  0
   -4.8430   22.7420  -31.1530 N   0  0  0  0  0  0  0  0  0  0  0  0
   -3.4400   22.6410  -30.8620 C   0  0  0  0  0  0  0  0  0  0  0  0
   -2.6880   21.9650  -31.6160 O   0  0  0  0  0  0  0  0  0  0  0  0
   -2.9100   23.3210  -29.7610 O   0  0  0  0  0  0  0  0  0  0  0  0
   -1.5740   23.1400  -29.2960 C   0  0  0  0  0  0  0  0  0  0  0  0
   -0.9290   24.4660  -29.0480 C   0  0  0  0  0  0  0  0  0  0  0  0
    0.2510   24.5220  -28.6130 O   0  0  0  0  0  0  0  0  0  0  0  0
   -1.6370   25.6390  -29.2720 O   0  0  0  0  0  0  0  0  0  0  0  0
   -5.6340   21.7450  -31.6050 C   0  0  0  0  0  0  0  0  0  0  0  0
   -5.2750   20.4310  -31.9260 C   0  0  0  0  0  0  0  0  0  0  0  0
   -6.1711   15.6317  -32.7563 H   0  0  0  0  0  0  0  0  0  0  0  0
   -6.8066   14.5998  -34.0823 H   0  0  0  0  0  0  0  0  0  0  0  0
   -5.0816   15.1011  -34.0823 H   0  0  0  0  0  0  0  0  0  0  0  0
   -6.5989   17.4448  -32.1011 H   0  0  0  0  0  0  0  0  0  0  0  0
   -4.8930   17.9297  -32.4098 H   0  0  0  0  0  0  0  0  0  0  0  0
   -8.4211   19.2938  -32.7394 H   0  0  0  0  0  0  0  0  0  0  0  0
   -9.0067   21.6617  -32.1263 H   0  0  0  0  0  0  0  0  0  0  0  0
   -7.8755   24.1109  -31.1690 H   0  0  0  0  0  0  0  0  0  0  0  0
   -3.1060   25.2900  -30.4280 H   0  0  0  0  0  0  0  0  0  0  0  0
   -1.5903   22.5631  -28.3595 H   0  0  0  0  0  0  0  0  0  0  0  0
   -0.9982   22.5984  -30.0609 H   0  0  0  0  0  0  0  0  0  0  0  0
   -4.2295   20.0978  -31.8492 H   0  0  0  0  0  0  0  0  0  0  0  0
  1  2  1  0
  2  3  1  0
  3  4  2  0
  3  5  1  0
  5  6  1  0
  6  7  2  0
  7  8  1  0
  8  9  2  0
  9 10  1  0
 10 11  2  0
 11 12  1  0
 12 13  1  0
 12 14  2  0
 11 15  1  0
 15 16  1  0
 16 17  2  0
 16 18  1  0
 18 19  1  0
 19 20  1  0
 20 21  2  0
 20 22  1  0
 15 23  1  0
 23 24  2  0
 24  6  1  0
 23  9  1  0
  1 25  1  0
  1 26  1  0
  1 27  1  0
  5 28  1  0
  5 29  1  0
  7 30  1  0
  8 31  1  0
 10 32  1  0
 13 33  1  0
 19 34  1  0
 19 35  1  0
 24 36  1  0
M  CHG  2  13  -1  22  -1
M  END
>  <UniqueID>  (28) 
28

>  <SMILES>  (28) 
COC(=O)Cc1ccc2cc(C([NH-])=O)n(C(=O)OCC(=O)[O-])c2c1

>  <Energy>  (28) 
68.54974866958885

>  <Genealogy>  (28) 
COC(=O)Cc1ccc2cc(C([NH-])=O)n(C(=O)OCC(=O)[O-])c2c1 (protonated)
COC(=O)Cc1ccc2cc(C([NH-])=O)n(C(=O)OCC(=O)[O-])c2c1 (3D coordinates assigned)
COC(=O)Cc1ccc2cc(C([NH-])=O)n(C(=O)OCC(=O)[O-])c2c1 (optimized conformer: 68.54974866958885 kcal/mol)

>  <smiles>  (28) 
COC(=O)Cc1ccc2cc(C(N)=O)n(C(=O)OCC(=O)O)c2c1

>  <score_type>  (28) 
oracle

>  <origin>  (28) 
adg

>  <m_score__min__energy>  (28) 
-12.1

>  <m_primary>  (28) 
energy

$$$$
29:0
     RDKit          3D

 89 96  0  0  0  0  0  0  0  0999 V2000
   -9.6620   19.2870  -33.0260 N   0  0  0  0  0  0  0  0  0  0  0  0
   -8.5440   19.0120  -32.1790 C   0  0  0  0  0  0  0  0  0  0  0  0
   -8.7180   18.2160  -31.2090 O   0  0  0  0  0  0  0  0  0  0  0  0
   -7.1870   19.5950  -32.3850 C   0  0  0  0  0  0  0  0  0  0  0  0
   -6.8590   20.8700  -31.9340 C   0  0  0  0  0  0  0  0  0  0  0  0
   -5.5380   21.0540  -32.2420 C   0  0  0  0  0  0  0  0  0  0  0  0
   -4.6850   22.1110  -31.9320 C   0  0  0  0  0  0  0  0  0  0  0  0
   -3.3330   21.9990  -32.2820 C   0  0  0  0  0  0  0  0  0  0  0  0
   -2.8520   20.8410  -32.9450 C   0  0  0  0  0  0  0  0  0  0  0  0
   -1.3840   20.6780  -33.2340 C   0  0  0  0  0  0  0  0  0  0  0  0
   -1.1490   20.5370  -34.5930 F   0  0  0  0  0  0  0  0  0  0  0  0
   -0.7110   21.7910  -32.7810 F   0  0  0  0  0  0  0  0  0  0  0  0
   -0.8940   19.5640  -32.5760 F   0  0  0  0  0  0  0  0  0  0  0  0
   -3.7430   19.7770  -33.2210 C   0  0  0  0  0  0  0  0  0  0  0  0
   -5.0970   19.9270  -32.8770 C   0  0  0  0  0  0  0  0  0  0  0  0
   -6.0950   19.0260  -32.9890 N   0  0  0  0  0  0  0  0  0  0  0  0
   -5.9550   17.7170  -33.5450 C   0  0  0  0  0  0  0  0  0  0  0  0
   -6.9380   17.1680  -34.1020 O   0  0  0  0  0  0  0  0  0  0  0  0
   -4.7210   16.9860  -33.4070 N   0  0  0  0  0  0  0  0  0  0  0  0
   -3.7630   16.9810  -34.5190 C   0  0  0  0  0  0  0  0  0  0  0  0
   -3.7480   15.6050  -35.2020 C   0  0  0  0  0  0  0  0  0  0  0  0
   -3.7790   14.4140  -34.1820 C   0  0  0  0  0  0  0  0  0  0  0  0
   -2.8550   13.2990  -34.5330 N   0  0  0  0  0  0  0  0  0  0  0  0
   -2.3760   13.3630  -35.9360 C   0  0  0  0  0  0  0  0  0  0  0  0
   -0.8470   13.4780  -36.0420 C   0  0  0  0  0  0  0  0  0  0  0  0
   -0.1830   12.3310  -35.3800 N   0  0  0  0  0  0  0  0  0  0  0  0
    1.2650   12.5870  -35.2520 C   0  0  0  0  0  0  0  0  0  0  0  0
    1.5830   13.6340  -34.2180 C   0  0  0  0  0  0  0  0  0  0  0  0
    2.1240   14.6330  -35.1600 N   0  0  0  0  0  0  0  0  0  0  0  0
    2.5930   15.9790  -35.1100 C   0  0  0  0  0  0  0  0  0  0  0  0
    3.6940   16.3180  -34.2860 C   0  0  0  0  0  0  0  0  0  0  0  0
    4.1360   17.6480  -34.1930 C   0  0  0  0  0  0  0  0  0  0  0  0
    3.4650   18.6100  -34.9340 C   0  0  0  0  0  0  0  0  0  0  0  0
    2.4120   18.2810  -35.7600 C   0  0  0  0  0  0  0  0  0  0  0  0
    1.9450   16.9720  -35.8670 C   0  0  0  0  0  0  0  0  0  0  0  0
    1.9560   19.5060  -36.4110 C   0  0  0  0  0  0  0  0  0  0  0  0
    1.0240   19.5880  -37.2520 O   0  0  0  0  0  0  0  0  0  0  0  0
    2.7540   20.6110  -35.9730 N   0  0  0  0  0  0  0  0  0  0  0  0
    2.6440   22.0230  -36.3190 C   0  0  2  0  0  0  0  0  0  0  0  0
    4.0150   22.7040  -36.2260 C   0  0  0  0  0  0  0  0  0  0  0  0
    3.9300   24.1840  -36.6440 C   0  0  0  0  0  0  0  0  0  0  0  0
    2.7940   24.8920  -35.9550 C   0  0  0  0  0  0  0  0  0  0  0  0
    2.7320   26.1490  -35.9950 O   0  0  0  0  0  0  0  0  0  0  0  0
    1.7340   24.1630  -35.3260 N   0  0  0  0  0  0  0  0  0  0  0  0
    1.6670   22.7430  -35.4340 C   0  0  0  0  0  0  0  0  0  0  0  0
    0.7480   22.1130  -34.8440 O   0  0  0  0  0  0  0  0  0  0  0  0
    3.6790   20.0420  -35.0400 C   0  0  0  0  0  0  0  0  0  0  0  0
    4.5680   20.6900  -34.4290 O   0  0  0  0  0  0  0  0  0  0  0  0
    1.7820   13.6400  -36.1950 C   0  0  0  0  0  0  0  0  0  0  0  0
   -0.8010   11.9650  -34.0710 C   0  0  0  0  0  0  0  0  0  0  0  0
   -1.7940   13.0220  -33.5360 C   0  0  0  0  0  0  0  0  0  0  0  0
   -3.5780   14.8880  -32.7210 C   0  0  0  0  0  0  0  0  0  0  0  0
   -4.6240   15.9540  -32.3650 C   0  0  0  0  0  0  0  0  0  0  0  0
  -10.6020   18.9590  -32.7240 H   0  0  0  0  0  0  0  0  0  0  0  0
   -9.5480   19.5160  -34.0360 H   0  0  0  0  0  0  0  0  0  0  0  0
   -7.5265   21.5855  -31.4315 H   0  0  0  0  0  0  0  0  0  0  0  0
   -5.0635   23.0109  -31.4252 H   0  0  0  0  0  0  0  0  0  0  0  0
   -2.6381   22.8167  -32.0404 H   0  0  0  0  0  0  0  0  0  0  0  0
   -3.3832   18.8518  -33.6949 H   0  0  0  0  0  0  0  0  0  0  0  0
   -4.0541   17.7473  -35.2525 H   0  0  0  0  0  0  0  0  0  0  0  0
   -2.7582   17.1976  -34.1273 H   0  0  0  0  0  0  0  0  0  0  0  0
   -4.6288   15.5290  -35.8565 H   0  0  0  0  0  0  0  0  0  0  0  0
   -2.8079   15.5289  -35.7681 H   0  0  0  0  0  0  0  0  0  0  0  0
   -4.7937   13.9960  -34.2575 H   0  0  0  0  0  0  0  0  0  0  0  0
   -2.6962   12.4493  -36.4581 H   0  0  0  0  0  0  0  0  0  0  0  0
   -2.8071   14.2671  -36.3908 H   0  0  0  0  0  0  0  0  0  0  0  0
   -0.5600   13.4964  -37.1038 H   0  0  0  0  0  0  0  0  0  0  0  0
   -0.5289   14.4046  -35.5417 H   0  0  0  0  0  0  0  0  0  0  0  0
    1.6273   11.5486  -35.2295 H   0  0  0  0  0  0  0  0  0  0  0  0
    0.6878   13.9922  -33.6885 H   0  0  0  0  0  0  0  0  0  0  0  0
    2.2335   13.3306  -33.3844 H   0  0  0  0  0  0  0  0  0  0  0  0
    4.2080   15.5320  -33.7133 H   0  0  0  0  0  0  0  0  0  0  0  0
    4.9882   17.9186  -33.5522 H   0  0  0  0  0  0  0  0  0  0  0  0
    1.0971   16.7235  -36.5222 H   0  0  0  0  0  0  0  0  0  0  0  0
    2.2723   22.0756  -37.3529 H   0  0  0  0  0  0  0  0  0  0  0  0
    4.3760   22.6441  -35.1887 H   0  0  0  0  0  0  0  0  0  0  0  0
    4.7076   22.1883  -36.9075 H   0  0  0  0  0  0  0  0  0  0  0  0
    4.8739   24.6838  -36.3806 H   0  0  0  0  0  0  0  0  0  0  0  0
    3.7523   24.2246  -37.7288 H   0  0  0  0  0  0  0  0  0  0  0  0
    1.0100   14.0017  -36.8901 H   0  0  0  0  0  0  0  0  0  0  0  0
    2.5860   13.3408  -36.8835 H   0  0  0  0  0  0  0  0  0  0  0  0
   -1.3395   11.0139  -34.1950 H   0  0  0  0  0  0  0  0  0  0  0  0
    0.0165   11.8919  -33.3386 H   0  0  0  0  0  0  0  0  0  0  0  0
   -2.2569   12.6466  -32.6115 H   0  0  0  0  0  0  0  0  0  0  0  0
   -1.2443   13.9539  -33.3377 H   0  0  0  0  0  0  0  0  0  0  0  0
   -3.6870   14.0298  -32.0416 H   0  0  0  0  0  0  0  0  0  0  0  0
   -2.5721   15.3211  -32.6175 H   0  0  0  0  0  0  0  0  0  0  0  0
   -5.6044   15.4682  -32.2513 H   0  0  0  0  0  0  0  0  0  0  0  0
   -4.3151   16.4396  -31.4275 H   0  0  0  0  0  0  0  0  0  0  0  0
  1  2  1  0
  2  3  2  0
  2  4  1  0
  4  5  2  0
  5  6  1  0
  6  7  2  0
  7  8  1  0
  8  9  2  0
  9 10  1  0
 10 11  1  0
 10 12  1  0
 10 13  1  0
  9 14  1  0
 14 15  2  0
 15 16  1  0
 16 17  1  0
 17 18  2  0
 17 19  1  0
 19 20  1  0
 20 21  1  0
 21 22  1  0
 22 23  1  0
 23 24  1  0
 24 25  1  0
 25 26  1  0
 26 27  1  0
 27 28  1  0
 28 29  1  0
 29 30  1  0
 30 31  2  0
 31 32  1  0
 32 33  2  0
 33 34  1  0
 34 35  2  0
 34 36  1  0
 36 37  2  0
 36 38  1  0
 38 39  1  0
 39 40  1  0
 40 41  1  0
 41 42  1  0
 42 43  2  0
 42 44  1  0
 44 45  1  0
 45 46  2  0
 38 47  1  0
 47 48  2  0
 29 49  1  0
 26 50  1  0
 50 51  1  0
 22 52  1  0
 52 53  1  0
 16  4  1  0
 53 19  1  0
 15  6  1  0
 51 23  1  0
 49 27  1  0
 35 30  1  0
 45 39  1  0
 47 33  1  0
  1 54  1  0
  1 55  1  0
  5 56  1  0
  7 57  1  0
  8 58  1  0
 14 59  1  0
 20 60  1  0
 20 61  1  0
 21 62  1  0
 21 63  1  0
 22 64  1  0
 24 65  1  0
 24 66  1  0
 25 67  1  0
 25 68  1  0
 27 69  1  0
 28 70  1  0
 28 71  1  0
 31 72  1  0
 32 73  1  0
 35 74  1  0
 39 75  1  6
 40 76  1  0
 40 77  1  0
 41 78  1  0
 41 79  1  0
 49 80  1  0
 49 81  1  0
 50 82  1  0
 50 83  1  0
 51 84  1  0
 51 85  1  0
 52 86  1  0
 52 87  1  0
 53 88  1  0
 53 89  1  0
M  CHG  1  44  -1
M  END
>  <UniqueID>  (29) 
29

>  <SMILES>  (29) 
NC(=O)c1cc2ccc(C(F)(F)F)cc2n1C(=O)N1CCC(N2CCN(C3CN(c4ccc5c(c4)C(=O)N([C@@H]4CCC(=O)[N-]C4=O)C5=O)C3)CC2)CC1

>  <Energy>  (29) 
248.57554641049472

>  <Genealogy>  (29) 
NC(=O)c1cc2ccc(C(F)(F)F)cc2n1C(=O)N1CCC(N2CCN(C3CN(c4ccc5c(c4)C(=O)N(C4CCC(=O)[N-]C4=O)C5=O)C3)CC2)CC1 (protonated)
NC(=O)c1cc2ccc(C(F)(F)F)cc2n1C(=O)N1CCC(N2CCN(C3CN(c4ccc5c(c4)C(=O)N([C@@H]4CCC(=O)[N-]C4=O)C5=O)C3)CC2)CC1 (chirality)
NC(=O)c1cc2ccc(C(F)(F)F)cc2n1C(=O)N1CCC(N2CCN(C3CN(c4ccc5c(c4)C(=O)N([C@@H]4CCC(=O)[N-]C4=O)C5=O)C3)CC2)CC1 (3D coordinates assigned)
NC(=O)c1cc2ccc(C(F)(F)F)cc2n1C(=O)N1CCC(N2CCN(C3CN(c4ccc5c(c4)C(=O)N([C@@H]4CCC(=O)[N-]C4=O)C5=O)C3)CC2)CC1 (nonaromatic ring conformer: 248.57554641049472 kcal/mol)

>  <smiles>  (29) 
NC(=O)c1cc2ccc(C(F)(F)F)cc2n1C(=O)N1CCC(N2CCN(C3CN(c4ccc5c(c4)C(=O)N(C4CCC(=O)NC4=O)C5=O)C3)CC2)CC1

>  <score_type>  (29) 
oracle

>  <origin>  (29) 
adg

>  <m_score__min__energy>  (29) 
-10.630000000000001

>  <m_primary>  (29) 
energy

$$$$
30:0
     RDKit          3D

 43 45  0  0  0  0  0  0  0  0999 V2000
   -6.3070   17.7050  -32.8840 C   0  0  0  0  0  0  0  0  0  0  0  0
   -6.1730   19.1540  -32.5240 C   0  0  0  0  0  0  0  0  0  0  0  0
   -7.1830   20.0750  -32.8970 C   0  0  0  0  0  0  0  0  0  0  0  0
   -7.0500   21.4420  -32.5970 C   0  0  0  0  0  0  0  0  0  0  0  0
   -5.8910   21.8580  -31.9460 C   0  0  0  0  0  0  0  0  0  0  0  0
   -5.5020   23.1130  -31.5340 C   0  0  0  0  0  0  0  0  0  0  0  0
   -4.2480   22.9390  -30.9490 C   0  0  0  0  0  0  0  0  0  0  0  0
   -3.4300   24.0470  -30.4120 C   0  0  0  0  0  0  0  0  0  0  0  0
   -3.8760   25.3990  -30.4990 N   0  0  0  0  0  0  0  0  0  0  0  0
   -2.3320   23.7980  -29.8480 O   0  0  0  0  0  0  0  0  0  0  0  0
   -3.8800   21.6280  -31.0010 N   0  0  0  0  0  0  0  0  0  0  0  0
   -2.6870   21.0240  -30.4840 C   0  0  0  0  0  0  0  0  0  0  0  0
   -2.6490   20.6740  -29.2740 O   0  0  0  0  0  0  0  0  0  0  0  0
   -1.5540   20.7760  -31.3410 N   0  0  0  0  0  0  0  0  0  0  0  0
   -0.4770   19.8920  -30.8700 C   0  0  0  0  0  0  0  0  0  0  0  0
    0.6780   19.8200  -31.8740 C   0  0  0  0  0  0  0  0  0  0  0  0
    0.1670   19.5420  -33.2960 C   0  0  0  0  0  0  0  0  0  0  0  0
   -1.0200   20.4490  -33.7250 C   0  0  2  0  0  0  0  0  0  0  0  0
   -0.7110   21.1470  -34.9780 N   0  0  0  0  0  0  0  0  0  0  0  0
    0.5040   21.8840  -35.1620 C   0  0  0  0  0  0  0  0  0  0  0  0
    1.3520   21.9690  -34.2350 O   0  0  0  0  0  0  0  0  0  0  0  0
    0.7510   22.5140  -36.3750 O   0  0  0  0  0  0  0  0  0  0  0  0
   -1.4160   21.4620  -32.6350 C   0  0  0  0  0  0  0  0  0  0  0  0
   -4.8960   20.9800  -31.6060 C   0  0  0  0  0  0  0  0  0  0  0  0
   -5.0080   19.6130  -31.8730 C   0  0  0  0  0  0  0  0  0  0  0  0
   -6.3627   17.1026  -31.9653 H   0  0  0  0  0  0  0  0  0  0  0  0
   -7.2226   17.5573  -33.4754 H   0  0  0  0  0  0  0  0  0  0  0  0
   -5.4340   17.3919  -33.4754 H   0  0  0  0  0  0  0  0  0  0  0  0
   -8.0788   19.7174  -33.4258 H   0  0  0  0  0  0  0  0  0  0  0  0
   -7.8371   22.1610  -32.8681 H   0  0  0  0  0  0  0  0  0  0  0  0
   -6.0618   24.0536  -31.6432 H   0  0  0  0  0  0  0  0  0  0  0  0
   -3.4910   26.0460  -31.2220 H   0  0  0  0  0  0  0  0  0  0  0  0
   -0.0938   20.2759  -29.9130 H   0  0  0  0  0  0  0  0  0  0  0  0
   -0.8916   18.8800  -30.7517 H   0  0  0  0  0  0  0  0  0  0  0  0
    1.2175   20.7786  -31.8684 H   0  0  0  0  0  0  0  0  0  0  0  0
    1.3439   18.9961  -31.5778 H   0  0  0  0  0  0  0  0  0  0  0  0
    0.9971   19.7012  -34.0000 H   0  0  0  0  0  0  0  0  0  0  0  0
   -0.2017   18.5057  -33.3068 H   0  0  0  0  0  0  0  0  0  0  0  0
   -1.8840   19.7864  -33.8815 H   0  0  0  0  0  0  0  0  0  0  0  0
   -1.3670   21.0790  -35.7890 H   0  0  0  0  0  0  0  0  0  0  0  0
   -0.6384   22.2360  -32.5565 H   0  0  0  0  0  0  0  0  0  0  0  0
   -2.3765   21.9261  -32.9034 H   0  0  0  0  0  0  0  0  0  0  0  0
   -4.2098   18.9136  -31.5836 H   0  0  0  0  0  0  0  0  0  0  0  0
  1  2  1  0
  2  3  2  0
  3  4  1  0
  4  5  2  0
  5  6  1  0
  6  7  2  0
  7  8  1  0
  8  9  1  0
  8 10  2  0
  7 11  1  0
 11 12  1  0
 12 13  2  0
 12 14  1  0
 14 15  1  0
 15 16  1  0
 16 17  1  0
 17 18  1  0
 18 19  1  0
 19 20  1  0
 20 21  2  0
 20 22  1  0
 18 23  1  0
 11 24  1  0
 24 25  2  0
 25  2  1  0
 24  5  1  0
 23 14  1  0
  1 26  1  0
  1 27  1  0
  1 28  1  0
  3 29  1  0
  4 30  1  0
  6 31  1  0
  9 32  1  0
 15 33  1  0
 15 34  1  0
 16 35  1  0
 16 36  1  0
 17 37  1  0
 17 38  1  0
 18 39  1  6
 19 40  1  0
 23 41  1  0
 23 42  1  0
 25 43  1  0
M  CHG  2   9  -1  22  -1
M  END
>  <UniqueID>  (30) 
30

>  <SMILES>  (30) 
Cc1ccc2cc(C([NH-])=O)n(C(=O)N3CCC[C@H](NC(=O)[O-])C3)c2c1

>  <Energy>  (30) 
82.36656132216586

>  <Genealogy>  (30) 
Cc1ccc2cc(C([NH-])=O)n(C(=O)N3CCCC(NC(=O)[O-])C3)c2c1 (protonated)
Cc1ccc2cc(C([NH-])=O)n(C(=O)N3CCC[C@H](NC(=O)[O-])C3)c2c1 (chirality)
Cc1ccc2cc(C([NH-])=O)n(C(=O)N3CCC[C@H](NC(=O)[O-])C3)c2c1 (3D coordinates assigned)
Cc1ccc2cc(C([NH-])=O)n(C(=O)N3CCC[C@H](NC(=O)[O-])C3)c2c1 (nonaromatic ring conformer: 82.36656132216586 kcal/mol)

>  <smiles>  (30) 
Cc1ccc2cc(C(N)=O)n(C(=O)N3CCCC(NC(=O)O)C3)c2c1

>  <score_type>  (30) 
oracle

>  <origin>  (30) 
adg

>  <m_score__min__energy>  (30) 
-12.92

>  <m_primary>  (30) 
energy

$$$$
31:0
     RDKit          3D

 36 38  0  0  0  0  0  0  0  0999 V2000
   -0.9410   21.9480  -29.4920 C   0  0  0  0  0  0  0  0  0  0  0  0
   -1.3490   23.2910  -30.0910 C   0  0  1  0  0  0  0  0  0  0  0  0
   -2.5830   23.1350  -30.7910 O   0  0  0  0  0  0  0  0  0  0  0  0
   -3.6840   22.4440  -30.2710 C   0  0  0  0  0  0  0  0  0  0  0  0
   -3.5330   21.6280  -29.3220 O   0  0  0  0  0  0  0  0  0  0  0  0
   -4.9840   22.6480  -30.8430 N   0  0  0  0  0  0  0  0  0  0  0  0
   -5.7300   23.7910  -30.8470 C   0  0  0  0  0  0  0  0  0  0  0  0
   -5.2820   25.1240  -30.3950 C   0  0  0  0  0  0  0  0  0  0  0  0
   -4.0410   25.6700  -30.8350 N   0  0  0  0  0  0  0  0  0  0  0  0
   -6.0270   25.8120  -29.6460 O   0  0  0  0  0  0  0  0  0  0  0  0
   -6.9770   23.5560  -31.4210 C   0  0  0  0  0  0  0  0  0  0  0  0
   -6.9710   22.2270  -31.7820 C   0  0  0  0  0  0  0  0  0  0  0  0
   -7.9600   21.4580  -32.3850 C   0  0  0  0  0  0  0  0  0  0  0  0
   -7.6890   20.1000  -32.6150 C   0  0  0  0  0  0  0  0  0  0  0  0
   -6.4470   19.5310  -32.2330 C   0  0  0  0  0  0  0  0  0  0  0  0
   -6.1990   18.0920  -32.4790 C   0  0  0  0  0  0  0  0  0  0  0  0
   -6.7510   17.2890  -33.4580 C   0  0  0  0  0  0  0  0  0  0  0  0
   -6.2570   16.0430  -33.3280 N   0  0  0  0  0  0  0  0  0  0  0  0
   -5.4220   16.1390  -32.2720 C   0  0  0  0  0  0  0  0  0  0  0  0
   -5.3860   17.3510  -31.7670 O   0  0  0  0  0  0  0  0  0  0  0  0
   -5.4670   20.3480  -31.6210 C   0  0  0  0  0  0  0  0  0  0  0  0
   -5.7570   21.7030  -31.4220 C   0  0  0  0  0  0  0  0  0  0  0  0
   -1.4910   24.3180  -29.0050 C   0  0  0  0  0  0  0  0  0  0  0  0
   -1.4770   23.9710  -27.7940 O   0  0  0  0  0  0  0  0  0  0  0  0
   -1.5980   25.6640  -29.3320 O   0  0  0  0  0  0  0  0  0  0  0  0
   -0.9613   22.0148  -28.3942 H   0  0  0  0  0  0  0  0  0  0  0  0
   -1.6432   21.1695  -29.8250 H   0  0  0  0  0  0  0  0  0  0  0  0
    0.0756   21.6916  -29.8250 H   0  0  0  0  0  0  0  0  0  0  0  0
   -0.5735   23.6333  -30.7920 H   0  0  0  0  0  0  0  0  0  0  0  0
   -3.1340   25.2400  -30.5500 H   0  0  0  0  0  0  0  0  0  0  0  0
   -7.7944   24.2794  -31.5573 H   0  0  0  0  0  0  0  0  0  0  0  0
   -8.9252   21.9002  -32.6730 H   0  0  0  0  0  0  0  0  0  0  0  0
   -8.4497   19.4689  -33.0977 H   0  0  0  0  0  0  0  0  0  0  0  0
   -7.4755   17.6141  -34.2192 H   0  0  0  0  0  0  0  0  0  0  0  0
   -4.8363   15.2954  -31.8778 H   0  0  0  0  0  0  0  0  0  0  0  0
   -4.4995   19.9280  -31.3088 H   0  0  0  0  0  0  0  0  0  0  0  0
  1  2  1  0
  2  3  1  0
  3  4  1  0
  4  5  2  0
  4  6  1  0
  6  7  1  0
  7  8  1  0
  8  9  1  0
  8 10  2  0
  7 11  2  0
 11 12  1  0
 12 13  2  0
 13 14  1  0
 14 15  2  0
 15 16  1  0
 16 17  2  0
 17 18  1  0
 18 19  2  0
 19 20  1  0
 15 21  1  0
 21 22  2  0
  2 23  1  0
 23 24  2  0
 23 25  1  0
 22  6  1  0
 22 12  1  0
 20 16  1  0
  1 26  1  0
  1 27  1  0
  1 28  1  0
  2 29  1  6
  9 30  1  0
 11 31  1  0
 13 32  1  0
 14 33  1  0
 17 34  1  0
 19 35  1  0
 21 36  1  0
M  CHG  2   9  -1  25  -1
M  END
>  <UniqueID>  (31) 
31

>  <SMILES>  (31) 
C[C@@H](OC(=O)n1c(C([NH-])=O)cc2ccc(-c3cnco3)cc21)C(=O)[O-]

>  <Energy>  (31) 
103.34922183750179

>  <Genealogy>  (31) 
CC(OC(=O)n1c(C([NH-])=O)cc2ccc(-c3cnco3)cc21)C(=O)[O-] (protonated)
C[C@@H](OC(=O)n1c(C([NH-])=O)cc2ccc(-c3cnco3)cc21)C(=O)[O-] (chirality)
C[C@@H](OC(=O)n1c(C([NH-])=O)cc2ccc(-c3cnco3)cc21)C(=O)[O-] (3D coordinates assigned)
C[C@@H](OC(=O)n1c(C([NH-])=O)cc2ccc(-c3cnco3)cc21)C(=O)[O-] (optimized conformer: 103.34922183750179 kcal/mol)

>  <smiles>  (31) 
CC(OC(=O)n1c(C(N)=O)cc2ccc(-c3cnco3)cc21)C(=O)O

>  <score_type>  (31) 
oracle

>  <origin>  (31) 
adg

>  <m_score__min__energy>  (31) 
-12.83

>  <m_primary>  (31) 
energy

$$$$
32:0
     RDKit          3D

 50 52  0  0  0  0  0  0  0  0999 V2000
   -1.0960   25.6880  -28.5190 C   0  0  0  0  0  0  0  0  0  0  0  0
   -2.3460   25.2880  -29.0370 O   0  0  0  0  0  0  0  0  0  0  0  0
   -2.8810   24.2720  -28.2190 C   0  0  0  0  0  0  0  0  0  0  0  0
   -3.2230   23.0510  -29.0730 C   0  0  0  0  0  0  0  0  0  0  0  0
   -2.9230   23.2710  -30.4520 O   0  0  0  0  0  0  0  0  0  0  0  0
   -3.6370   22.6990  -31.5130 C   0  0  0  0  0  0  0  0  0  0  0  0
   -3.0210   22.2090  -32.4960 O   0  0  0  0  0  0  0  0  0  0  0  0
   -5.0770   22.6840  -31.4790 N   0  0  0  0  0  0  0  0  0  0  0  0
   -5.8980   23.7320  -31.1850 C   0  0  0  0  0  0  0  0  0  0  0  0
   -5.4790   25.0170  -30.5910 C   0  0  0  0  0  0  0  0  0  0  0  0
   -4.1450   25.5020  -30.7570 N   0  0  0  0  0  0  0  0  0  0  0  0
   -6.2830   25.6570  -29.8610 O   0  0  0  0  0  0  0  0  0  0  0  0
   -7.2300   23.3970  -31.4050 C   0  0  0  0  0  0  0  0  0  0  0  0
   -7.2080   22.0880  -31.8230 C   0  0  0  0  0  0  0  0  0  0  0  0
   -8.2610   21.2430  -32.1530 C   0  0  0  0  0  0  0  0  0  0  0  0
   -7.9570   19.9250  -32.5270 C   0  0  0  0  0  0  0  0  0  0  0  0
   -6.6130   19.4730  -32.5750 C   0  0  0  0  0  0  0  0  0  0  0  0
   -6.3210   18.0960  -32.9040 N   0  0  0  0  0  0  0  0  0  0  0  0
   -6.1230   17.1170  -31.8230 C   0  0  0  0  0  0  0  0  0  0  0  0
   -5.2390   15.9570  -32.2870 C   0  0  0  0  0  0  0  0  0  0  0  0
   -5.8340   15.2530  -33.5260 C   0  0  0  0  0  0  0  0  0  0  0  0
   -4.7610   14.4550  -34.2180 C   0  0  0  0  0  0  0  0  0  0  0  0
   -3.5510   14.6330  -33.9190 O   0  0  0  0  0  0  0  0  0  0  0  0
   -5.0920   13.5540  -35.2220 O   0  0  0  0  0  0  0  0  0  0  0  0
   -6.5340   16.2310  -34.5080 C   0  0  0  0  0  0  0  0  0  0  0  0
   -6.1110   17.6910  -34.3030 C   0  0  0  0  0  0  0  0  0  0  0  0
   -5.5670   20.3720  -32.2530 C   0  0  0  0  0  0  0  0  0  0  0  0
   -5.8990   21.6770  -31.8610 C   0  0  0  0  0  0  0  0  0  0  0  0
   -1.1338   25.6759  -27.4197 H   0  0  0  0  0  0  0  0  0  0  0  0
   -0.3161   24.9946  -28.8667 H   0  0  0  0  0  0  0  0  0  0  0  0
   -0.8636   26.7054  -28.8667 H   0  0  0  0  0  0  0  0  0  0  0  0
   -2.1410   23.9890  -27.4559 H   0  0  0  0  0  0  0  0  0  0  0  0
   -3.7938   24.6413  -27.7286 H   0  0  0  0  0  0  0  0  0  0  0  0
   -2.6399   22.1901  -28.7141 H   0  0  0  0  0  0  0  0  0  0  0  0
   -4.3026   22.8605  -28.9827 H   0  0  0  0  0  0  0  0  0  0  0  0
   -3.8630   26.4230  -30.3530 H   0  0  0  0  0  0  0  0  0  0  0  0
   -3.4180   24.9250  -31.2280 H   0  0  0  0  0  0  0  0  0  0  0  0
   -8.1116   24.0414  -31.2728 H   0  0  0  0  0  0  0  0  0  0  0  0
   -9.3020   21.5969  -32.1219 H   0  0  0  0  0  0  0  0  0  0  0  0
   -8.7717   19.2330  -32.7864 H   0  0  0  0  0  0  0  0  0  0  0  0
   -5.6417   17.6166  -30.9693 H   0  0  0  0  0  0  0  0  0  0  0  0
   -7.1043   16.7143  -31.5316 H   0  0  0  0  0  0  0  0  0  0  0  0
   -4.2423   16.3467  -32.5415 H   0  0  0  0  0  0  0  0  0  0  0  0
   -5.1755   15.2231  -31.4701 H   0  0  0  0  0  0  0  0  0  0  0  0
   -6.6242   14.5744  -33.1722 H   0  0  0  0  0  0  0  0  0  0  0  0
   -6.2825   15.9344  -35.5370 H   0  0  0  0  0  0  0  0  0  0  0  0
   -7.6155   16.1718  -34.3163 H   0  0  0  0  0  0  0  0  0  0  0  0
   -5.0456   17.7982  -34.5550 H   0  0  0  0  0  0  0  0  0  0  0  0
   -6.7210   18.3334  -34.9551 H   0  0  0  0  0  0  0  0  0  0  0  0
   -4.5157   20.0532  -32.3092 H   0  0  0  0  0  0  0  0  0  0  0  0
  1  2  1  0
  2  3  1  0
  3  4  1  0
  4  5  1  0
  5  6  1  0
  6  7  2  0
  6  8  1  0
  8  9  1  0
  9 10  1  0
 10 11  1  0
 10 12  2  0
  9 13  2  0
 13 14  1  0
 14 15  2  0
 15 16  1  0
 16 17  2  0
 17 18  1  0
 18 19  1  0
 19 20  1  0
 20 21  1  0
 21 22  1  0
 22 23  2  0
 22 24  1  0
 21 25  1  0
 25 26  1  0
 17 27  1  0
 27 28  2  0
 28  8  1  0
 28 14  1  0
 26 18  1  0
  1 29  1  0
  1 30  1  0
  1 31  1  0
  3 32  1  0
  3 33  1  0
  4 34  1  0
  4 35  1  0
 11 36  1  0
 11 37  1  0
 13 38  1  0
 15 39  1  0
 16 40  1  0
 19 41  1  0
 19 42  1  0
 20 43  1  0
 20 44  1  0
 21 45  1  0
 25 46  1  0
 25 47  1  0
 26 48  1  0
 26 49  1  0
 27 50  1  0
M  CHG  1  24  -1
M  END
>  <UniqueID>  (32) 
32

>  <SMILES>  (32) 
COCCOC(=O)n1c(C(N)=O)cc2ccc(N3CCC(C(=O)[O-])CC3)cc21

>  <Energy>  (32) 
92.77385762281695

>  <Genealogy>  (32) 
COCCOC(=O)n1c(C(N)=O)cc2ccc(N3CCC(C(=O)[O-])CC3)cc21 (protonated)
COCCOC(=O)n1c(C(N)=O)cc2ccc(N3CCC(C(=O)[O-])CC3)cc21 (3D coordinates assigned)
COCCOC(=O)n1c(C(N)=O)cc2ccc(N3CCC(C(=O)[O-])CC3)cc21 (nonaromatic ring conformer: 92.77385762281695 kcal/mol)

>  <smiles>  (32) 
COCCOC(=O)n1c(C(N)=O)cc2ccc(N3CCC(C(=O)O)CC3)cc21

>  <score_type>  (32) 
oracle

>  <origin>  (32) 
adg

>  <m_score__min__energy>  (32) 
-9.1799999999999997

>  <m_primary>  (32) 
energy

$$$$
33:0
     RDKit          3D

 38 40  0  0  0  0  0  0  0  0999 V2000
   -7.2290   17.8140  -31.2140 C   0  0  0  0  0  0  0  0  0  0  0  0
   -6.6610   17.5740  -32.6280 C   0  0  2  0  0  0  0  0  0  0  0  0
   -5.1870   17.1030  -32.5700 C   0  0  0  0  0  0  0  0  0  0  0  0
   -4.6450   16.7260  -33.8320 O   0  0  0  0  0  0  0  0  0  0  0  0
   -5.2950   17.3280  -34.9430 C   0  0  0  0  0  0  0  0  0  0  0  0
   -5.8130   18.7420  -34.6460 C   0  0  0  0  0  0  0  0  0  0  0  0
   -6.8450   18.7180  -33.5780 N   0  0  2  0  0  0  0  0  0  0  0  0
   -6.9610   20.0310  -32.9500 C   0  0  0  0  0  0  0  0  0  0  0  0
   -8.2490   20.5770  -32.6870 C   0  0  0  0  0  0  0  0  0  0  0  0
   -8.3940   21.8360  -32.0830 C   0  0  0  0  0  0  0  0  0  0  0  0
   -7.2400   22.5310  -31.7370 C   0  0  0  0  0  0  0  0  0  0  0  0
   -7.0960   23.7720  -31.1620 C   0  0  0  0  0  0  0  0  0  0  0  0
   -5.7210   23.9690  -31.0500 C   0  0  0  0  0  0  0  0  0  0  0  0
   -5.1210   25.1500  -30.3970 C   0  0  0  0  0  0  0  0  0  0  0  0
   -3.8700   25.6740  -30.8350 N   0  0  0  0  0  0  0  0  0  0  0  0
   -5.6970   25.6760  -29.4080 O   0  0  0  0  0  0  0  0  0  0  0  0
   -5.0430   22.8950  -31.5450 N   0  0  0  0  0  0  0  0  0  0  0  0
   -3.6220   22.7480  -31.6950 C   0  0  0  0  0  0  0  0  0  0  0  0
   -2.8400   23.1830  -30.8090 O   0  0  0  0  0  0  0  0  0  0  0  0
   -3.0960   22.0990  -32.8070 O   0  0  0  0  0  0  0  0  0  0  0  0
   -5.9880   22.0220  -31.9600 C   0  0  0  0  0  0  0  0  0  0  0  0
   -5.8120   20.7810  -32.5800 C   0  0  0  0  0  0  0  0  0  0  0  0
   -6.4883   17.5010  -30.4633 H   0  0  0  0  0  0  0  0  0  0  0  0
   -7.4523   18.8834  -31.0852 H   0  0  0  0  0  0  0  0  0  0  0  0
   -8.1514   17.2287  -31.0852 H   0  0  0  0  0  0  0  0  0  0  0  0
   -7.2700   16.7614  -33.0509 H   0  0  0  0  0  0  0  0  0  0  0  0
   -4.5780   17.9243  -32.1644 H   0  0  0  0  0  0  0  0  0  0  0  0
   -5.1668   16.2044  -31.9359 H   0  0  0  0  0  0  0  0  0  0  0  0
   -4.5805   17.3853  -35.7773 H   0  0  0  0  0  0  0  0  0  0  0  0
   -6.1674   16.7048  -35.1888 H   0  0  0  0  0  0  0  0  0  0  0  0
   -4.9723   19.3718  -34.3196 H   0  0  0  0  0  0  0  0  0  0  0  0
   -6.2664   19.1485  -35.5621 H   0  0  0  0  0  0  0  0  0  0  0  0
   -7.7490   18.5230  -34.0730 H   0  0  0  0  0  0  0  0  0  0  0  0
   -9.1460   20.0027  -32.9617 H   0  0  0  0  0  0  0  0  0  0  0  0
   -9.3903   22.2600  -31.8892 H   0  0  0  0  0  0  0  0  0  0  0  0
   -7.8959   24.4622  -30.8557 H   0  0  0  0  0  0  0  0  0  0  0  0
   -2.9700   25.3040  -30.4550 H   0  0  0  0  0  0  0  0  0  0  0  0
   -4.8022   20.3922  -32.7778 H   0  0  0  0  0  0  0  0  0  0  0  0
  1  2  1  0
  2  3  1  0
  3  4  1  0
  4  5  1  0
  5  6  1  0
  6  7  1  0
  7  8  1  0
  8  9  2  0
  9 10  1  0
 10 11  2  0
 11 12  1  0
 12 13  2  0
 13 14  1  0
 14 15  1  0
 14 16  2  0
 13 17  1  0
 17 18  1  0
 18 19  2  0
 18 20  1  0
 17 21  1  0
 21 22  2  0
  7  2  1  0
 22  8  1  0
 21 11  1  0
  1 23  1  0
  1 24  1  0
  1 25  1  0
  2 26  1  6
  3 27  1  0
  3 28  1  0
  5 29  1  0
  5 30  1  0
  6 31  1  0
  6 32  1  0
  7 33  1  6
  9 34  1  0
 10 35  1  0
 12 36  1  0
 15 37  1  0
 22 38  1  0
M  CHG  3   7   1  15  -1  20  -1
M  END
>  <UniqueID>  (33) 
33

>  <SMILES>  (33) 
C[C@@H]1COCC[N@@H+]1c1ccc2cc(C([NH-])=O)n(C(=O)[O-])c2c1

>  <Energy>  (33) 
100.74116876783336

>  <Genealogy>  (33) 
CC1COCC[NH+]1c1ccc2cc(C([NH-])=O)n(C(=O)[O-])c2c1 (protonated)
C[C@@H]1COCC[N@@H+]1c1ccc2cc(C([NH-])=O)n(C(=O)[O-])c2c1 (chirality)
C[C@@H]1COCC[N@@H+]1c1ccc2cc(C([NH-])=O)n(C(=O)[O-])c2c1 (3D coordinates assigned)
C[C@@H]1COCC[N@@H+]1c1ccc2cc(C([NH-])=O)n(C(=O)[O-])c2c1 (nonaromatic ring conformer: 100.74116876783336 kcal/mol)

>  <smiles>  (33) 
CC1COCCN1c1ccc2cc(C(N)=O)n(C(=O)O)c2c1

>  <score_type>  (33) 
oracle

>  <origin>  (33) 
adg

>  <m_score__min__energy>  (33) 
-11.23

>  <m_primary>  (33) 
energy

$$$$
34:0
     RDKit          3D

 43 44  0  0  0  0  0  0  0  0999 V2000
   -3.1470   18.9320  -26.3320 C   0  0  0  0  0  0  0  0  0  0  0  0
   -1.8180   19.1550  -27.0440 C   0  0  0  0  0  0  0  0  0  0  0  0
   -1.5240   20.6170  -27.1620 C   0  0  0  0  0  0  0  0  0  0  0  0
   -1.1150   21.2570  -26.1550 O   0  0  0  0  0  0  0  0  0  0  0  0
   -1.7450   21.2660  -28.3820 O   0  0  0  0  0  0  0  0  0  0  0  0
   -2.8500   22.1380  -28.6160 C   0  0  2  0  0  0  0  0  0  0  0  0
   -3.5990   21.6390  -29.7220 O   0  0  0  0  0  0  0  0  0  0  0  0
   -3.9870   22.4270  -30.8110 C   0  0  0  0  0  0  0  0  0  0  0  0
   -3.1250   22.8620  -31.6220 O   0  0  0  0  0  0  0  0  0  0  0  0
   -5.3700   22.7730  -30.9830 N   0  0  0  0  0  0  0  0  0  0  0  0
   -5.9280   24.0160  -30.9550 C   0  0  0  0  0  0  0  0  0  0  0  0
   -5.2470   25.2640  -30.5530 C   0  0  0  0  0  0  0  0  0  0  0  0
   -3.8660   25.4700  -30.8410 N   0  0  0  0  0  0  0  0  0  0  0  0
   -5.8790   26.1370  -29.9010 O   0  0  0  0  0  0  0  0  0  0  0  0
   -7.2800   23.9540  -31.2860 C   0  0  0  0  0  0  0  0  0  0  0  0
   -7.5390   22.6220  -31.5110 C   0  0  0  0  0  0  0  0  0  0  0  0
   -8.7180   21.9930  -31.9000 C   0  0  0  0  0  0  0  0  0  0  0  0
   -8.6880   20.6040  -32.1050 C   0  0  0  0  0  0  0  0  0  0  0  0
   -7.4910   19.8670  -31.9090 C   0  0  0  0  0  0  0  0  0  0  0  0
   -7.4510   18.3860  -32.1910 C   0  0  0  0  0  0  0  0  0  0  0  0
   -6.5530   17.7570  -31.3470 F   0  0  0  0  0  0  0  0  0  0  0  0
   -8.6960   17.8150  -32.0010 F   0  0  0  0  0  0  0  0  0  0  0  0
   -7.0570   18.1830  -33.5000 F   0  0  0  0  0  0  0  0  0  0  0  0
   -6.3080   20.5480  -31.5380 C   0  0  0  0  0  0  0  0  0  0  0  0
   -6.3710   21.9300  -31.3230 C   0  0  0  0  0  0  0  0  0  0  0  0
   -2.3560   23.5220  -28.9160 C   0  0  0  0  0  0  0  0  0  0  0  0
   -1.3970   23.6860  -29.7190 O   0  0  0  0  0  0  0  0  0  0  0  0
   -2.9850   24.6200  -28.3220 O   0  0  0  0  0  0  0  0  0  0  0  0
   -3.8560   24.4920  -27.2040 C   0  0  0  0  0  0  0  0  0  0  0  0
   -2.9889   18.9585  -25.2437 H   0  0  0  0  0  0  0  0  0  0  0  0
   -3.8543   19.7240  -26.6192 H   0  0  0  0  0  0  0  0  0  0  0  0
   -3.5570   17.9525  -26.6192 H   0  0  0  0  0  0  0  0  0  0  0  0
   -1.0145   18.6696  -26.4706 H   0  0  0  0  0  0  0  0  0  0  0  0
   -1.8790   18.7224  -28.0535 H   0  0  0  0  0  0  0  0  0  0  0  0
   -3.4879   22.1802  -27.7209 H   0  0  0  0  0  0  0  0  0  0  0  0
   -3.1430   24.7890  -30.5210 H   0  0  0  0  0  0  0  0  0  0  0  0
   -7.9894   24.7920  -31.3531 H   0  0  0  0  0  0  0  0  0  0  0  0
   -9.6456   22.5667  -32.0426 H   0  0  0  0  0  0  0  0  0  0  0  0
   -9.6027   20.0812  -32.4211 H   0  0  0  0  0  0  0  0  0  0  0  0
   -5.3593   20.0037  -31.4210 H   0  0  0  0  0  0  0  0  0  0  0  0
   -3.2743   24.5775  -26.2743 H   0  0  0  0  0  0  0  0  0  0  0  0
   -4.6141   25.2884  -27.2367 H   0  0  0  0  0  0  0  0  0  0  0  0
   -4.3529   23.5112  -27.2367 H   0  0  0  0  0  0  0  0  0  0  0  0
  1  2  1  0
  2  3  1  0
  3  4  2  0
  3  5  1  0
  5  6  1  0
  6  7  1  0
  7  8  1  0
  8  9  2  0
  8 10  1  0
 10 11  1  0
 11 12  1  0
 12 13  1  0
 12 14  2  0
 11 15  2  0
 15 16  1  0
 16 17  2  0
 17 18  1  0
 18 19  2  0
 19 20  1  0
 20 21  1  0
 20 22  1  0
 20 23  1  0
 19 24  1  0
 24 25  2  0
  6 26  1  0
 26 27  2  0
 26 28  1  0
 28 29  1  0
 25 10  1  0
 25 16  1  0
  1 30  1  0
  1 31  1  0
  1 32  1  0
  2 33  1  0
  2 34  1  0
  6 35  1  1
 13 36  1  0
 15 37  1  0
 17 38  1  0
 18 39  1  0
 24 40  1  0
 29 41  1  0
 29 42  1  0
 29 43  1  0
M  CHG  1  13  -1
M  END
>  <UniqueID>  (34) 
34

>  <SMILES>  (34) 
CCC(=O)O[C@H](OC(=O)n1c(C([NH-])=O)cc2ccc(C(F)(F)F)cc21)C(=O)OC

>  <Energy>  (34) 
72.88913467295163

>  <Genealogy>  (34) 
CCC(=O)OC(OC(=O)n1c(C([NH-])=O)cc2ccc(C(F)(F)F)cc21)C(=O)OC (protonated)
CCC(=O)O[C@H](OC(=O)n1c(C([NH-])=O)cc2ccc(C(F)(F)F)cc21)C(=O)OC (chirality)
CCC(=O)O[C@H](OC(=O)n1c(C([NH-])=O)cc2ccc(C(F)(F)F)cc21)C(=O)OC (3D coordinates assigned)
CCC(=O)O[C@H](OC(=O)n1c(C([NH-])=O)cc2ccc(C(F)(F)F)cc21)C(=O)OC (optimized conformer: 72.88913467295163 kcal/mol)

>  <smiles>  (34) 
CCC(=O)OC(OC(=O)n1c(C(N)=O)cc2ccc(C(F)(F)F)cc21)C(=O)OC

>  <score_type>  (34) 
oracle

>  <origin>  (34) 
adg

>  <m_score__min__energy>  (34) 
-9.8499999999999996

>  <m_primary>  (34) 
energy

$$$$
35:0
     RDKit          3D

 44 45  0  0  0  0  0  0  0  0999 V2000
   -8.1680   18.8360  -32.7020 C   0  0  0  0  0  0  0  0  0  0  0  0
   -7.9760   20.2280  -32.1800 C   0  0  0  0  0  0  0  0  0  0  0  0
   -9.0880   20.9790  -31.7250 C   0  0  0  0  0  0  0  0  0  0  0  0
   -8.9160   22.2800  -31.2210 C   0  0  0  0  0  0  0  0  0  0  0  0
   -7.6220   22.7920  -31.1660 C   0  0  0  0  0  0  0  0  0  0  0  0
   -7.1730   24.0310  -30.7650 C   0  0  0  0  0  0  0  0  0  0  0  0
   -5.7920   24.0010  -30.9520 C   0  0  0  0  0  0  0  0  0  0  0  0
   -4.8910   25.1180  -30.6020 C   0  0  0  0  0  0  0  0  0  0  0  0
   -3.4930   24.8810  -30.4470 N   0  0  0  0  0  0  0  0  0  0  0  0
   -5.3370   26.2870  -30.4640 O   0  0  0  0  0  0  0  0  0  0  0  0
   -5.4040   22.7910  -31.4410 N   0  0  0  0  0  0  0  0  0  0  0  0
   -4.0930   22.3860  -31.8550 C   0  0  0  0  0  0  0  0  0  0  0  0
   -3.7590   22.4960  -33.0650 O   0  0  0  0  0  0  0  0  0  0  0  0
   -3.1860   21.9020  -30.9080 O   0  0  0  0  0  0  0  0  0  0  0  0
   -1.8360   22.3490  -30.8120 C   0  0  0  0  0  0  0  0  0  0  0  0
   -1.4940   22.5560  -29.4430 O   0  0  0  0  0  0  0  0  0  0  0  0
   -1.2190   23.8130  -28.8920 C   0  0  0  0  0  0  0  0  0  0  0  0
   -0.1230   24.3900  -29.1400 O   0  0  0  0  0  0  0  0  0  0  0  0
   -2.1840   24.4190  -28.0020 N   0  0  2  0  0  0  0  0  0  0  0  0
   -1.6740   25.6680  -27.4080 C   0  0  0  0  0  0  0  0  0  0  0  0
   -2.6950   23.4510  -27.0020 C   0  0  0  0  0  0  0  0  0  0  0  0
   -3.8230   22.5220  -27.5040 C   0  0  0  0  0  0  0  0  0  0  0  0
   -4.3640   22.9840  -28.7120 O   0  0  0  0  0  0  0  0  0  0  0  0
   -6.5340   22.0630  -31.5700 C   0  0  0  0  0  0  0  0  0  0  0  0
   -6.6760   20.7730  -32.0910 C   0  0  0  0  0  0  0  0  0  0  0  0
   -8.2643   18.1378  -31.8575 H   0  0  0  0  0  0  0  0  0  0  0  0
   -9.0800   18.7971  -33.3158 H   0  0  0  0  0  0  0  0  0  0  0  0
   -7.3006   18.5517  -33.3158 H   0  0  0  0  0  0  0  0  0  0  0  0
  -10.0956   20.5398  -31.7665 H   0  0  0  0  0  0  0  0  0  0  0  0
   -9.7764   22.8749  -30.8808 H   0  0  0  0  0  0  0  0  0  0  0  0
   -7.7759   24.8663  -30.3793 H   0  0  0  0  0  0  0  0  0  0  0  0
   -3.1380   23.9440  -30.1530 H   0  0  0  0  0  0  0  0  0  0  0  0
   -1.1679   21.5899  -31.2450 H   0  0  0  0  0  0  0  0  0  0  0  0
   -1.7258   23.2953  -31.3619 H   0  0  0  0  0  0  0  0  0  0  0  0
   -3.0040   24.6930  -28.5940 H   0  0  0  0  0  0  0  0  0  0  0  0
   -1.7051   25.5918  -26.3111 H   0  0  0  0  0  0  0  0  0  0  0  0
   -0.6367   25.8326  -27.7348 H   0  0  0  0  0  0  0  0  0  0  0  0
   -2.2996   26.5117  -27.7348 H   0  0  0  0  0  0  0  0  0  0  0  0
   -1.8539   22.8207  -26.6775 H   0  0  0  0  0  0  0  0  0  0  0  0
   -3.1319   24.0516  -26.1906 H   0  0  0  0  0  0  0  0  0  0  0  0
   -3.4140   21.5125  -27.6575 H   0  0  0  0  0  0  0  0  0  0  0  0
   -4.6226   22.5074  -26.7487 H   0  0  0  0  0  0  0  0  0  0  0  0
   -3.6190   23.0120  -29.3680 H   0  0  0  0  0  0  0  0  0  0  0  0
   -5.7987   20.1982  -32.4226 H   0  0  0  0  0  0  0  0  0  0  0  0
  1  2  1  0
  2  3  2  0
  3  4  1  0
  4  5  2  0
  5  6  1  0
  6  7  2  0
  7  8  1  0
  8  9  1  0
  8 10  2  0
  7 11  1  0
 11 12  1  0
 12 13  2  0
 12 14  1  0
 14 15  1  0
 15 16  1  0
 16 17  1  0
 17 18  2  0
 17 19  1  0
 19 20  1  0
 19 21  1  0
 21 22  1  0
 22 23  1  0
 11 24  1  0
 24 25  2  0
 25  2  1  0
 24  5  1  0
  1 26  1  0
  1 27  1  0
  1 28  1  0
  3 29  1  0
  4 30  1  0
  6 31  1  0
  9 32  1  0
 15 33  1  0
 15 34  1  0
 19 35  1  6
 20 36  1  0
 20 37  1  0
 20 38  1  0
 21 39  1  0
 21 40  1  0
 22 41  1  0
 22 42  1  0
 23 43  1  0
 25 44  1  0
M  CHG  2   9  -1  19   1
M  END
>  <UniqueID>  (35) 
35

>  <SMILES>  (35) 
Cc1ccc2cc(C([NH-])=O)n(C(=O)OCOC(=O)[N@H+](C)CCO)c2c1

>  <Energy>  (35) 
84.5438397143214

>  <Genealogy>  (35) 
Cc1ccc2cc(C([NH-])=O)n(C(=O)OCOC(=O)[NH+](C)CCO)c2c1 (protonated)
Cc1ccc2cc(C([NH-])=O)n(C(=O)OCOC(=O)[N@H+](C)CCO)c2c1 (chirality)
Cc1ccc2cc(C([NH-])=O)n(C(=O)OCOC(=O)[N@H+](C)CCO)c2c1 (3D coordinates assigned)
Cc1ccc2cc(C([NH-])=O)n(C(=O)OCOC(=O)[N@H+](C)CCO)c2c1 (optimized conformer: 84.5438397143214 kcal/mol)

>  <smiles>  (35) 
Cc1ccc2cc(C(N)=O)n(C(=O)OCOC(=O)N(C)CCO)c2c1

>  <score_type>  (35) 
oracle

>  <origin>  (35) 
adg

>  <m_score__min__energy>  (35) 
-7.9100000000000001

>  <m_primary>  (35) 
energy

$$$$
36:0
     RDKit          3D

 34 35  0  0  0  0  0  0  0  0999 V2000
   -6.4240   17.5240  -31.9330 C   0  0  0  0  0  0  0  0  0  0  0  0
   -7.0990   18.3760  -33.0030 C   0  0  0  0  0  0  0  0  0  0  0  0
   -7.2800   19.7910  -32.5240 C   0  0  0  0  0  0  0  0  0  0  0  0
   -8.5790   20.3470  -32.4290 C   0  0  0  0  0  0  0  0  0  0  0  0
   -8.7640   21.6510  -31.9390 C   0  0  0  0  0  0  0  0  0  0  0  0
   -7.6350   22.3700  -31.5550 C   0  0  0  0  0  0  0  0  0  0  0  0
   -7.5350   23.6310  -31.0140 C   0  0  0  0  0  0  0  0  0  0  0  0
   -6.1740   23.8330  -30.8050 C   0  0  0  0  0  0  0  0  0  0  0  0
   -5.6110   25.0970  -30.2890 C   0  0  0  0  0  0  0  0  0  0  0  0
   -6.1540   25.7300  -29.1290 N   0  0  0  0  0  0  0  0  0  0  0  0
   -4.5970   25.5950  -30.8450 O   0  0  0  0  0  0  0  0  0  0  0  0
   -5.4590   22.7360  -31.1850 N   0  0  0  0  0  0  0  0  0  0  0  0
   -4.0480   22.5120  -31.0250 C   0  0  0  0  0  0  0  0  0  0  0  0
   -3.2720   22.6950  -32.0030 O   0  0  0  0  0  0  0  0  0  0  0  0
   -3.5490   22.1010  -29.7830 O   0  0  0  0  0  0  0  0  0  0  0  0
   -2.9160   22.9350  -28.8520 C   0  0  0  0  0  0  0  0  0  0  0  0
   -3.2170   22.8930  -27.6270 O   0  0  0  0  0  0  0  0  0  0  0  0
   -1.8880   23.8730  -29.3150 C   0  0  0  0  0  0  0  0  0  0  0  0
   -2.1300   25.2760  -29.2630 N   0  0  0  0  0  0  0  0  0  0  0  0
   -0.7910   23.4420  -29.7610 O   0  0  0  0  0  0  0  0  0  0  0  0
   -6.3700   21.8490  -31.6460 C   0  0  0  0  0  0  0  0  0  0  0  0
   -6.1600   20.5440  -32.1090 C   0  0  0  0  0  0  0  0  0  0  0  0
   -6.7135   17.8894  -30.9367 H   0  0  0  0  0  0  0  0  0  0  0  0
   -6.7398   16.4763  -32.0453 H   0  0  0  0  0  0  0  0  0  0  0  0
   -5.3319   17.5918  -32.0453 H   0  0  0  0  0  0  0  0  0  0  0  0
   -6.4746   18.3789  -33.9086 H   0  0  0  0  0  0  0  0  0  0  0  0
   -8.0887   17.9485  -33.2216 H   0  0  0  0  0  0  0  0  0  0  0  0
   -9.4506   19.7531  -32.7414 H   0  0  0  0  0  0  0  0  0  0  0  0
   -9.7695   22.0902  -31.8612 H   0  0  0  0  0  0  0  0  0  0  0  0
   -8.3553   24.3300  -30.7938 H   0  0  0  0  0  0  0  0  0  0  0  0
   -6.8810   25.2570  -28.5480 H   0  0  0  0  0  0  0  0  0  0  0  0
   -5.7680   26.6430  -28.8020 H   0  0  0  0  0  0  0  0  0  0  0  0
   -3.1010   25.6550  -29.3310 H   0  0  0  0  0  0  0  0  0  0  0  0
   -5.1474   20.1162  -32.1484 H   0  0  0  0  0  0  0  0  0  0  0  0
  1  2  1  0
  2  3  1  0
  3  4  2  0
  4  5  1  0
  5  6  2  0
  6  7  1  0
  7  8  2  0
  8  9  1  0
  9 10  1  0
  9 11  2  0
  8 12  1  0
 12 13  1  0
 13 14  2  0
 13 15  1  0
 15 16  1  0
 16 17  2  0
 16 18  1  0
 18 19  1  0
 18 20  2  0
 12 21  1  0
 21 22  2  0
 22  3  1  0
 21  6  1  0
  1 23  1  0
  1 24  1  0
  1 25  1  0
  2 26  1  0
  2 27  1  0
  4 28  1  0
  5 29  1  0
  7 30  1  0
 10 31  1  0
 10 32  1  0
 19 33  1  0
 22 34  1  0
M  CHG  1  19  -1
M  END
>  <UniqueID>  (36) 
36

>  <SMILES>  (36) 
CCc1ccc2cc(C(N)=O)n(C(=O)OC(=O)C([NH-])=O)c2c1

>  <Energy>  (36) 
69.1487298831279

>  <Genealogy>  (36) 
CCc1ccc2cc(C(N)=O)n(C(=O)OC(=O)C([NH-])=O)c2c1 (protonated)
CCc1ccc2cc(C(N)=O)n(C(=O)OC(=O)C([NH-])=O)c2c1 (3D coordinates assigned)
CCc1ccc2cc(C(N)=O)n(C(=O)OC(=O)C([NH-])=O)c2c1 (optimized conformer: 69.1487298831279 kcal/mol)

>  <smiles>  (36) 
CCc1ccc2cc(C(N)=O)n(C(=O)OC(=O)C(N)=O)c2c1

>  <score_type>  (36) 
oracle

>  <origin>  (36) 
adg

>  <m_score__min__energy>  (36) 
-11.31

>  <m_primary>  (36) 
energy

$$$$
37:0
     RDKit          3D

 52 54  0  0  0  0  0  0  0  0999 V2000
   -9.3740   21.3930  -32.0180 C   0  0  0  0  0  0  0  0  0  0  0  0
   -8.0940   22.1130  -31.7270 C   0  0  0  0  0  0  0  0  0  0  0  0
   -8.0450   23.3420  -31.1780 N   0  0  0  0  0  0  0  0  0  0  0  0
   -6.7680   23.6680  -31.0470 N   0  0  0  0  0  0  0  0  0  0  0  0
   -6.3010   24.9160  -30.4570 C   0  0  0  0  0  0  0  0  0  0  0  0
   -5.9830   22.6660  -31.4850 C   0  0  0  0  0  0  0  0  0  0  0  0
   -6.7990   21.6540  -31.9470 C   0  0  0  0  0  0  0  0  0  0  0  0
   -6.3570   20.3780  -32.5470 C   0  0  0  0  0  0  0  0  0  0  0  0
   -7.2870   19.3370  -32.7960 C   0  0  0  0  0  0  0  0  0  0  0  0
   -6.8770   18.1370  -33.4020 C   0  0  0  0  0  0  0  0  0  0  0  0
   -5.5370   18.0060  -33.7470 C   0  0  0  0  0  0  0  0  0  0  0  0
   -4.8670   16.9590  -34.3450 C   0  0  0  0  0  0  0  0  0  0  0  0
   -3.5410   17.3770  -34.4390 C   0  0  0  0  0  0  0  0  0  0  0  0
   -2.4460   16.5560  -34.9950 C   0  0  0  0  0  0  0  0  0  0  0  0
   -1.1020   16.7850  -34.5760 N   0  0  0  0  0  0  0  0  0  0  0  0
   -2.6840   15.6530  -35.8420 O   0  0  0  0  0  0  0  0  0  0  0  0
   -3.4020   18.6290  -33.9240 N   0  0  0  0  0  0  0  0  0  0  0  0
   -2.1970   19.3900  -33.7960 C   0  0  0  0  0  0  0  0  0  0  0  0
   -1.5610   19.7080  -34.8360 O   0  0  0  0  0  0  0  0  0  0  0  0
   -1.7060   19.7720  -32.4980 N   0  0  0  0  0  0  0  0  0  0  0  0
   -0.9190   18.8100  -31.7220 C   0  0  0  0  0  0  0  0  0  0  0  0
   -2.0890   21.0360  -31.9240 C   0  0  0  0  0  0  0  0  0  0  0  0
   -2.4890   21.9730  -32.6660 O   0  0  0  0  0  0  0  0  0  0  0  0
   -1.9810   21.2320  -30.5410 O   0  0  0  0  0  0  0  0  0  0  0  0
   -2.5560   22.3370  -29.8500 C   0  0  1  0  0  0  0  0  0  0  0  0
   -2.8890   21.8830  -28.4300 C   0  0  0  0  0  0  0  0  0  0  0  0
   -1.6150   23.3960  -29.7970 O   0  0  0  0  0  0  0  0  0  0  0  0
   -2.3820   24.8410  -29.3020 P   0  0  0  0  0  0  0  0  0  0  0  0
   -3.1110   24.6170  -27.9980 O   0  0  0  0  0  0  0  0  0  0  0  0
   -1.2440   26.0790  -29.1040 O   0  0  0  0  0  0  0  0  0  0  0  0
   -3.4980   25.3020  -30.4850 O   0  0  0  0  0  0  0  0  0  0  0  0
   -4.6260   19.0020  -33.5060 C   0  0  0  0  0  0  0  0  0  0  0  0
   -5.0050   20.2090  -32.9140 C   0  0  0  0  0  0  0  0  0  0  0  0
   -9.8632   21.1178  -31.0720 H   0  0  0  0  0  0  0  0  0  0  0  0
  -10.0400   22.0489  -32.5979 H   0  0  0  0  0  0  0  0  0  0  0  0
   -9.1593   20.4833  -32.5979 H   0  0  0  0  0  0  0  0  0  0  0  0
   -6.3307   24.8368  -29.3603 H   0  0  0  0  0  0  0  0  0  0  0  0
   -5.2687   25.1119  -30.7827 H   0  0  0  0  0  0  0  0  0  0  0  0
   -6.9511   25.7414  -30.7827 H   0  0  0  0  0  0  0  0  0  0  0  0
   -4.8831   22.6559  -31.4761 H   0  0  0  0  0  0  0  0  0  0  0  0
   -8.3412   19.4701  -32.5117 H   0  0  0  0  0  0  0  0  0  0  0  0
   -7.5945   17.3264  -33.5972 H   0  0  0  0  0  0  0  0  0  0  0  0
   -5.2893   15.9990  -34.6768 H   0  0  0  0  0  0  0  0  0  0  0  0
   -0.6780   17.7390  -34.6260 H   0  0  0  0  0  0  0  0  0  0  0  0
   -1.0698   18.9944  -30.6481 H   0  0  0  0  0  0  0  0  0  0  0  0
   -1.2433   17.7880  -31.9677 H   0  0  0  0  0  0  0  0  0  0  0  0
    0.1470   18.9254  -31.9677 H   0  0  0  0  0  0  0  0  0  0  0  0
   -3.4636   22.6852  -30.3649 H   0  0  0  0  0  0  0  0  0  0  0  0
   -2.3987   22.5514  -27.7069 H   0  0  0  0  0  0  0  0  0  0  0  0
   -3.9782   21.9165  -28.2803 H   0  0  0  0  0  0  0  0  0  0  0  0
   -2.5298   20.8541  -28.2803 H   0  0  0  0  0  0  0  0  0  0  0  0
   -4.2686   21.0071  -32.7384 H   0  0  0  0  0  0  0  0  0  0  0  0
  1  2  1  0
  2  3  2  0
  3  4  1  0
  4  5  1  0
  4  6  1  0
  6  7  2  0
  7  8  1  0
  8  9  2  0
  9 10  1  0
 10 11  2  0
 11 12  1  0
 12 13  2  0
 13 14  1  0
 14 15  1  0
 14 16  2  0
 13 17  1  0
 17 18  1  0
 18 19  2  0
 18 20  1  0
 20 21  1  0
 20 22  1  0
 22 23  2  0
 22 24  1  0
 24 25  1  0
 25 26  1  0
 25 27  1  0
 27 28  1  0
 28 29  2  0
 28 30  1  0
 28 31  1  0
 17 32  1  0
 32 33  2  0
  7  2  1  0
 33  8  1  0
 32 11  1  0
  1 34  1  0
  1 35  1  0
  1 36  1  0
  5 37  1  0
  5 38  1  0
  5 39  1  0
  6 40  1  0
  9 41  1  0
 10 42  1  0
 12 43  1  0
 15 44  1  0
 21 45  1  0
 21 46  1  0
 21 47  1  0
 25 48  1  6
 26 49  1  0
 26 50  1  0
 26 51  1  0
 33 52  1  0
M  CHG  3  15  -1  30  -1  31  -1
M  END
>  <UniqueID>  (37) 
37

>  <SMILES>  (37) 
Cc1nn(C)cc1-c1ccc2cc(C([NH-])=O)n(C(=O)N(C)C(=O)O[C@@H](C)OP(=O)([O-])[O-])c2c1

>  <Energy>  (37) 
125.25113790666438

>  <Genealogy>  (37) 
Cc1nn(C)cc1-c1ccc2cc(C([NH-])=O)n(C(=O)N(C)C(=O)OC(C)OP(=O)([O-])[O-])c2c1 (protonated)
Cc1nn(C)cc1-c1ccc2cc(C([NH-])=O)n(C(=O)N(C)C(=O)O[C@@H](C)OP(=O)([O-])[O-])c2c1 (chirality)
Cc1nn(C)cc1-c1ccc2cc(C([NH-])=O)n(C(=O)N(C)C(=O)O[C@@H](C)OP(=O)([O-])[O-])c2c1 (3D coordinates assigned)
Cc1nn(C)cc1-c1ccc2cc(C([NH-])=O)n(C(=O)N(C)C(=O)O[C@@H](C)OP(=O)([O-])[O-])c2c1 (optimized conformer: 125.25113790666438 kcal/mol)

>  <smiles>  (37) 
Cc1nn(C)cc1-c1ccc2cc(C(N)=O)n(C(=O)N(C)C(=O)OC(C)OP(=O)(O)O)c2c1

>  <score_type>  (37) 
oracle

>  <origin>  (37) 
adg

>  <m_score__min__energy>  (37) 
-14.26

>  <m_primary>  (37) 
energy

$$$$
38:0
     RDKit          3D

 39 41  0  0  0  0  0  0  0  0999 V2000
   -1.4810   25.7920  -26.5070 C   0  0  0  0  0  0  0  0  0  0  0  0
   -2.3390   25.1700  -27.6030 C   0  0  0  0  0  0  0  0  0  0  0  0
   -1.6360   25.1530  -28.8430 O   0  0  0  0  0  0  0  0  0  0  0  0
   -0.8450   24.0770  -29.2630 C   0  0  0  0  0  0  0  0  0  0  0  0
    0.3840   24.0270  -28.9790 O   0  0  0  0  0  0  0  0  0  0  0  0
   -1.4640   22.9880  -30.0800 C   0  0  0  0  0  0  0  0  0  0  0  0
   -2.7490   23.3880  -30.5460 O   0  0  0  0  0  0  0  0  0  0  0  0
   -3.5170   22.6240  -31.4330 C   0  0  0  0  0  0  0  0  0  0  0  0
   -2.9590   21.8280  -32.2360 O   0  0  0  0  0  0  0  0  0  0  0  0
   -4.9460   22.7690  -31.4410 N   0  0  0  0  0  0  0  0  0  0  0  0
   -5.6890   23.7870  -30.9190 C   0  0  0  0  0  0  0  0  0  0  0  0
   -5.1650   25.0440  -30.3450 C   0  0  0  0  0  0  0  0  0  0  0  0
   -3.9620   25.6300  -30.8360 N   0  0  0  0  0  0  0  0  0  0  0  0
   -5.8110   25.6320  -29.4370 O   0  0  0  0  0  0  0  0  0  0  0  0
   -7.0500   23.5240  -31.0700 C   0  0  0  0  0  0  0  0  0  0  0  0
   -7.1180   22.3100  -31.7120 C   0  0  0  0  0  0  0  0  0  0  0  0
   -8.2260   21.5680  -32.1070 C   0  0  0  0  0  0  0  0  0  0  0  0
   -8.0030   20.3280  -32.7270 C   0  0  0  0  0  0  0  0  0  0  0  0
   -6.6830   19.8480  -32.9350 C   0  0  0  0  0  0  0  0  0  0  0  0
   -6.4600   18.5330  -33.5730 C   0  0  0  0  0  0  0  0  0  0  0  0
   -5.6320   18.3360  -34.6210 N   0  0  0  0  0  0  0  0  0  0  0  0
   -5.7150   17.0680  -34.8840 O   0  0  0  0  0  0  0  0  0  0  0  0
   -6.5490   16.5110  -34.0470 C   0  0  0  0  0  0  0  0  0  0  0  0
   -6.8380   15.2870  -34.0560 O   0  0  0  0  0  0  0  0  0  0  0  0
   -7.0670   17.3920  -33.1740 N   0  0  0  0  0  0  0  0  0  0  0  0
   -5.5830   20.6340  -32.5220 C   0  0  0  0  0  0  0  0  0  0  0  0
   -5.8360   21.8750  -31.9240 C   0  0  0  0  0  0  0  0  0  0  0  0
   -1.8783   25.5040  -25.5225 H   0  0  0  0  0  0  0  0  0  0  0  0
   -0.4457   25.4332  -26.6039 H   0  0  0  0  0  0  0  0  0  0  0  0
   -1.5000   26.8876  -26.6039 H   0  0  0  0  0  0  0  0  0  0  0  0
   -2.5960   24.1388  -27.3192 H   0  0  0  0  0  0  0  0  0  0  0  0
   -3.2524   25.7713  -27.7219 H   0  0  0  0  0  0  0  0  0  0  0  0
   -0.8173   22.7694  -30.9425 H   0  0  0  0  0  0  0  0  0  0  0  0
   -1.5743   22.0903  -29.4540 H   0  0  0  0  0  0  0  0  0  0  0  0
   -3.0290   25.3000  -30.5030 H   0  0  0  0  0  0  0  0  0  0  0  0
   -7.8909   24.1541  -30.7446 H   0  0  0  0  0  0  0  0  0  0  0  0
   -9.2469   21.9415  -31.9387 H   0  0  0  0  0  0  0  0  0  0  0  0
   -8.8603   19.7219  -33.0551 H   0  0  0  0  0  0  0  0  0  0  0  0
   -4.5520   20.2791  -32.6670 H   0  0  0  0  0  0  0  0  0  0  0  0
  1  2  1  0
  2  3  1  0
  3  4  1  0
  4  5  2  0
  4  6  1  0
  6  7  1  0
  7  8  1  0
  8  9  2  0
  8 10  1  0
 10 11  1  0
 11 12  1  0
 12 13  1  0
 12 14  2  0
 11 15  2  0
 15 16  1  0
 16 17  2  0
 17 18  1  0
 18 19  2  0
 19 20  1  0
 20 21  2  0
 21 22  1  0
 22 23  1  0
 23 24  2  0
 23 25  1  0
 19 26  1  0
 26 27  2  0
 27 10  1  0
 27 16  1  0
 25 20  1  0
  1 28  1  0
  1 29  1  0
  1 30  1  0
  2 31  1  0
  2 32  1  0
  6 33  1  0
  6 34  1  0
 13 35  1  0
 15 36  1  0
 17 37  1  0
 18 38  1  0
 26 39  1  0
M  CHG  2  13  -1  25  -1
M  END
>  <UniqueID>  (38) 
38

>  <SMILES>  (38) 
CCOC(=O)COC(=O)n1c(C([NH-])=O)cc2ccc(-c3noc(=O)[n-]3)cc21

>  <Energy>  (38) 
107.85520932868401

>  <Genealogy>  (38) 
CCOC(=O)COC(=O)n1c(C([NH-])=O)cc2ccc(-c3noc(=O)[n-]3)cc21 (protonated)
CCOC(=O)COC(=O)n1c(C([NH-])=O)cc2ccc(-c3noc(=O)[n-]3)cc21 (3D coordinates assigned)
CCOC(=O)COC(=O)n1c(C([NH-])=O)cc2ccc(-c3noc(=O)[n-]3)cc21 (optimized conformer: 107.85520932868401 kcal/mol)

>  <smiles>  (38) 
CCOC(=O)COC(=O)n1c(C(N)=O)cc2ccc(-c3noc(=O)[nH]3)cc21

>  <score_type>  (38) 
oracle

>  <origin>  (38) 
adg

>  <m_score__min__energy>  (38) 
-10.91

>  <m_primary>  (38) 
energy

$$$$
39:0
     RDKit          3D

 43 44  0  0  0  0  0  0  0  0999 V2000
   -4.6960   17.4980  -35.3730 C   0  0  0  0  0  0  0  0  0  0  0  0
   -5.7640   17.8660  -34.4520 N   0  0  0  0  0  0  0  0  0  0  0  0
   -5.7910   17.3950  -33.1000 C   0  0  0  0  0  0  0  0  0  0  0  0
   -4.8500   16.6810  -32.6570 O   0  0  0  0  0  0  0  0  0  0  0  0
   -6.9290   17.7620  -32.1950 C   0  0  0  0  0  0  0  0  0  0  0  0
   -7.7300   18.8360  -32.7840 N   0  0  0  0  0  0  0  0  0  0  0  0
   -7.6700   20.2160  -32.3750 C   0  0  0  0  0  0  0  0  0  0  0  0
   -8.8670   20.9740  -32.3370 C   0  0  0  0  0  0  0  0  0  0  0  0
   -8.8540   22.3240  -31.9460 C   0  0  0  0  0  0  0  0  0  0  0  0
   -7.6330   22.8880  -31.5910 C   0  0  0  0  0  0  0  0  0  0  0  0
   -7.3320   24.1700  -31.1900 C   0  0  0  0  0  0  0  0  0  0  0  0
   -5.9570   24.1730  -30.9660 C   0  0  0  0  0  0  0  0  0  0  0  0
   -5.2240   25.3380  -30.4250 C   0  0  0  0  0  0  0  0  0  0  0  0
   -3.9010   25.6400  -30.8630 N   0  0  0  0  0  0  0  0  0  0  0  0
   -5.7540   26.0490  -29.5310 O   0  0  0  0  0  0  0  0  0  0  0  0
   -5.4280   22.9450  -31.2290 N   0  0  0  0  0  0  0  0  0  0  0  0
   -4.0490   22.5490  -31.1820 C   0  0  0  0  0  0  0  0  0  0  0  0
   -3.5770   21.8030  -32.0820 O   0  0  0  0  0  0  0  0  0  0  0  0
   -3.2410   22.9770  -30.1210 O   0  0  0  0  0  0  0  0  0  0  0  0
   -1.8190   23.0300  -30.1910 C   0  0  0  0  0  0  0  0  0  0  0  0
   -1.2970   24.0980  -29.2840 C   0  0  0  0  0  0  0  0  0  0  0  0
   -0.0570   24.1830  -29.0690 O   0  0  0  0  0  0  0  0  0  0  0  0
   -2.1930   24.9580  -28.6450 O   0  0  0  0  0  0  0  0  0  0  0  0
   -3.0520   24.5280  -27.5960 C   0  0  0  0  0  0  0  0  0  0  0  0
   -6.4670   22.1700  -31.6070 C   0  0  0  0  0  0  0  0  0  0  0  0
   -6.4460   20.8320  -32.0150 C   0  0  0  0  0  0  0  0  0  0  0  0
   -3.8077   17.1919  -34.8009 H   0  0  0  0  0  0  0  0  0  0  0  0
   -5.0297   16.6630  -36.0066 H   0  0  0  0  0  0  0  0  0  0  0  0
   -4.4445   18.3613  -36.0066 H   0  0  0  0  0  0  0  0  0  0  0  0
   -6.5360   18.4830  -34.7950 H   0  0  0  0  0  0  0  0  0  0  0  0
   -7.5665   16.8791  -32.0396 H   0  0  0  0  0  0  0  0  0  0  0  0
   -6.5204   18.1101  -31.2349 H   0  0  0  0  0  0  0  0  0  0  0  0
   -8.3980   18.5700  -33.5440 H   0  0  0  0  0  0  0  0  0  0  0  0
   -9.8189   20.4994  -32.6173 H   0  0  0  0  0  0  0  0  0  0  0  0
   -9.7807   22.9162  -31.9215 H   0  0  0  0  0  0  0  0  0  0  0  0
   -8.0289   25.0128  -31.0716 H   0  0  0  0  0  0  0  0  0  0  0  0
   -3.0760   25.1360  -30.4700 H   0  0  0  0  0  0  0  0  0  0  0  0
   -1.4037   22.0585  -29.8851 H   0  0  0  0  0  0  0  0  0  0  0  0
   -1.5187   23.2581  -31.2243 H   0  0  0  0  0  0  0  0  0  0  0  0
   -2.5895   24.7595  -26.6252 H   0  0  0  0  0  0  0  0  0  0  0  0
   -4.0174   25.0491  -27.6758 H   0  0  0  0  0  0  0  0  0  0  0  0
   -3.2134   23.4428  -27.6758 H   0  0  0  0  0  0  0  0  0  0  0  0
   -5.5007   20.2710  -32.0554 H   0  0  0  0  0  0  0  0  0  0  0  0
  1  2  1  0
  2  3  1  0
  3  4  2  0
  3  5  1  0
  5  6  1  0
  6  7  1  0
  7  8  2  0
  8  9  1  0
  9 10  2  0
 10 11  1  0
 11 12  2  0
 12 13  1  0
 13 14  1  0
 13 15  2  0
 12 16  1  0
 16 17  1  0
 17 18  2  0
 17 19  1  0
 19 20  1  0
 20 21  1  0
 21 22  2  0
 21 23  1  0
 23 24  1  0
 16 25  1  0
 25 26  2  0
 26  7  1  0
 25 10  1  0
  1 27  1  0
  1 28  1  0
  1 29  1  0
  2 30  1  0
  5 31  1  0
  5 32  1  0
  6 33  1  0
  8 34  1  0
  9 35  1  0
 11 36  1  0
 14 37  1  0
 20 38  1  0
 20 39  1  0
 24 40  1  0
 24 41  1  0
 24 42  1  0
 26 43  1  0
M  CHG  1  14  -1
M  END
>  <UniqueID>  (39) 
39

>  <SMILES>  (39) 
CNC(=O)CNc1ccc2cc(C([NH-])=O)n(C(=O)OCC(=O)OC)c2c1

>  <Energy>  (39) 
71.84288977688298

>  <Genealogy>  (39) 
CNC(=O)CNc1ccc2cc(C([NH-])=O)n(C(=O)OCC(=O)OC)c2c1 (protonated)
CNC(=O)CNc1ccc2cc(C([NH-])=O)n(C(=O)OCC(=O)OC)c2c1 (3D coordinates assigned)
CNC(=O)CNc1ccc2cc(C([NH-])=O)n(C(=O)OCC(=O)OC)c2c1 (optimized conformer: 71.84288977688298 kcal/mol)

>  <smiles>  (39) 
CNC(=O)CNc1ccc2cc(C(N)=O)n(C(=O)OCC(=O)OC)c2c1

>  <score_type>  (39) 
oracle

>  <origin>  (39) 
adg

>  <m_score__min__energy>  (39) 
-9.8499999999999996

>  <m_primary>  (39) 
energy

$$$$
40:0
     RDKit          3D

 36 37  0  0  0  0  0  0  0  0999 V2000
   -4.0650   25.6390  -30.8400 N   0  0  0  0  0  0  0  0  0  0  0  0
   -5.2610   25.0810  -30.3050 C   0  0  0  0  0  0  0  0  0  0  0  0
   -5.9100   25.7290  -29.4410 O   0  0  0  0  0  0  0  0  0  0  0  0
   -5.7790   23.7850  -30.7890 C   0  0  0  0  0  0  0  0  0  0  0  0
   -7.1280   23.5440  -31.0400 C   0  0  0  0  0  0  0  0  0  0  0  0
   -7.1810   22.2700  -31.5540 C   0  0  0  0  0  0  0  0  0  0  0  0
   -8.2770   21.5150  -31.9670 C   0  0  0  0  0  0  0  0  0  0  0  0
   -8.0400   20.2090  -32.4270 C   0  0  0  0  0  0  0  0  0  0  0  0
   -6.7270   19.6870  -32.4570 C   0  0  0  0  0  0  0  0  0  0  0  0
   -6.5010   18.3430  -32.9180 C   0  0  0  0  0  0  0  0  0  0  0  0
   -6.3140   17.2160  -33.3050 C   0  0  0  0  0  0  0  0  0  0  0  0
   -6.0880   15.8440  -33.7710 C   0  0  0  0  0  0  0  0  0  0  0  0
   -5.1920   15.0730  -32.8000 C   0  0  0  0  0  0  0  0  0  0  0  0
   -5.0510   15.7730  -31.5920 O   0  0  0  0  0  0  0  0  0  0  0  0
   -5.6390   20.4740  -32.0320 C   0  0  0  0  0  0  0  0  0  0  0  0
   -5.9010   21.7800  -31.5960 C   0  0  0  0  0  0  0  0  0  0  0  0
   -5.0280   22.6980  -31.1260 N   0  0  0  0  0  0  0  0  0  0  0  0
   -3.6180   22.5110  -30.9280 C   0  0  0  0  0  0  0  0  0  0  0  0
   -3.0740   21.4230  -31.2630 O   0  0  0  0  0  0  0  0  0  0  0  0
   -2.8580   23.5310  -30.3440 O   0  0  0  0  0  0  0  0  0  0  0  0
   -1.8920   23.3000  -29.3200 C   0  0  0  0  0  0  0  0  0  0  0  0
   -1.0990   24.5410  -29.0620 C   0  0  0  0  0  0  0  0  0  0  0  0
   -1.6140   25.6720  -29.2630 O   0  0  0  0  0  0  0  0  0  0  0  0
    0.1970   24.4510  -28.5720 O   0  0  0  0  0  0  0  0  0  0  0  0
   -3.1270   25.2970  -30.5330 H   0  0  0  0  0  0  0  0  0  0  0  0
   -7.9715   24.2278  -30.8643 H   0  0  0  0  0  0  0  0  0  0  0  0
   -9.2957   21.9287  -31.9339 H   0  0  0  0  0  0  0  0  0  0  0  0
   -8.8823   19.5882  -32.7663 H   0  0  0  0  0  0  0  0  0  0  0  0
   -7.0562   15.3284  -33.8529 H   0  0  0  0  0  0  0  0  0  0  0  0
   -5.5879   15.8855  -34.7499 H   0  0  0  0  0  0  0  0  0  0  0  0
   -5.6416   14.0898  -32.5971 H   0  0  0  0  0  0  0  0  0  0  0  0
   -4.1985   14.9518  -33.2563 H   0  0  0  0  0  0  0  0  0  0  0  0
   -5.3820   15.1730  -30.8730 H   0  0  0  0  0  0  0  0  0  0  0  0
   -4.6138   20.0754  -32.0420 H   0  0  0  0  0  0  0  0  0  0  0  0
   -2.4080   23.0009  -28.3957 H   0  0  0  0  0  0  0  0  0  0  0  0
   -1.2093   22.5019  -29.6470 H   0  0  0  0  0  0  0  0  0  0  0  0
  1  2  1  0
  2  3  2  0
  2  4  1  0
  4  5  2  0
  5  6  1  0
  6  7  2  0
  7  8  1  0
  8  9  2  0
  9 10  1  0
 10 11  3  0
 11 12  1  0
 12 13  1  0
 13 14  1  0
  9 15  1  0
 15 16  2  0
 16 17  1  0
 17 18  1  0
 18 19  2  0
 18 20  1  0
 20 21  1  0
 21 22  1  0
 22 23  2  0
 22 24  1  0
 17  4  1  0
 16  6  1  0
  1 25  1  0
  5 26  1  0
  7 27  1  0
  8 28  1  0
 12 29  1  0
 12 30  1  0
 13 31  1  0
 13 32  1  0
 14 33  1  0
 15 34  1  0
 21 35  1  0
 21 36  1  0
M  CHG  2   1  -1  24  -1
M  END
>  <UniqueID>  (40) 
40

>  <SMILES>  (40) 
[NH-]C(=O)c1cc2ccc(C#CCCO)cc2n1C(=O)OCC(=O)[O-]

>  <Energy>  (40) 
66.48667548509931

>  <Genealogy>  (40) 
[NH-]C(=O)c1cc2ccc(C#CCCO)cc2n1C(=O)OCC(=O)[O-] (protonated)
[NH-]C(=O)c1cc2ccc(C#CCCO)cc2n1C(=O)OCC(=O)[O-] (3D coordinates assigned)
[NH-]C(=O)c1cc2ccc(C#CCCO)cc2n1C(=O)OCC(=O)[O-] (optimized conformer: 66.48667548509931 kcal/mol)

>  <smiles>  (40) 
NC(=O)c1cc2ccc(C#CCCO)cc2n1C(=O)OCC(=O)O

>  <score_type>  (40) 
oracle

>  <origin>  (40) 
adg

>  <m_score__min__energy>  (40) 
-12.359999999999999

>  <m_primary>  (40) 
energy

$$$$
41:0
     RDKit          3D

 40 41  0  0  0  0  0  0  0  0999 V2000
   -1.4540   25.0940  -26.8450 C   0  0  0  0  0  0  0  0  0  0  0  0
   -1.7310   24.3860  -28.1720 C   0  0  1  0  0  0  0  0  0  0  0  0
   -2.4210   25.2920  -29.0930 N   0  0  0  0  0  0  0  0  0  0  0  0
   -0.4560   23.8710  -28.7840 C   0  0  0  0  0  0  0  0  0  0  0  0
    0.6580   24.1810  -28.2790 O   0  0  0  0  0  0  0  0  0  0  0  0
   -0.5200   23.0660  -29.9260 O   0  0  0  0  0  0  0  0  0  0  0  0
   -1.6210   22.2020  -30.1970 C   0  0  0  0  0  0  0  0  0  0  0  0
   -2.7230   22.9590  -30.6850 O   0  0  0  0  0  0  0  0  0  0  0  0
   -3.5870   22.4870  -31.6800 C   0  0  0  0  0  0  0  0  0  0  0  0
   -3.1250   22.0500  -32.7690 O   0  0  0  0  0  0  0  0  0  0  0  0
   -5.0050   22.4960  -31.4580 N   0  0  0  0  0  0  0  0  0  0  0  0
   -5.7550   23.4930  -30.9080 C   0  0  0  0  0  0  0  0  0  0  0  0
   -5.2320   24.7190  -30.2730 C   0  0  0  0  0  0  0  0  0  0  0  0
   -5.7800   25.2110  -29.0490 N   0  0  0  0  0  0  0  0  0  0  0  0
   -4.3200   25.3720  -30.8470 O   0  0  0  0  0  0  0  0  0  0  0  0
   -7.1120   23.1900  -30.9920 C   0  0  0  0  0  0  0  0  0  0  0  0
   -7.1730   21.9600  -31.6080 C   0  0  0  0  0  0  0  0  0  0  0  0
   -8.2760   21.1940  -31.9700 C   0  0  0  0  0  0  0  0  0  0  0  0
   -8.0460   19.9840  -32.6460 C   0  0  0  0  0  0  0  0  0  0  0  0
   -6.7250   19.5680  -32.9510 C   0  0  0  0  0  0  0  0  0  0  0  0
   -6.4830   18.2910  -33.7040 C   0  0  0  0  0  0  0  0  0  0  0  0
   -5.7490   18.5570  -34.8450 F   0  0  0  0  0  0  0  0  0  0  0  0
   -5.7820   17.4030  -32.9080 F   0  0  0  0  0  0  0  0  0  0  0  0
   -5.6310   20.3760  -32.5720 C   0  0  0  0  0  0  0  0  0  0  0  0
   -5.8880   21.5640  -31.8800 C   0  0  0  0  0  0  0  0  0  0  0  0
   -1.7155   24.4257  -26.0113 H   0  0  0  0  0  0  0  0  0  0  0  0
   -0.3872   25.3555  -26.7846 H   0  0  0  0  0  0  0  0  0  0  0  0
   -2.0601   26.0100  -26.7846 H   0  0  0  0  0  0  0  0  0  0  0  0
   -2.3824   23.5216  -27.9759 H   0  0  0  0  0  0  0  0  0  0  0  0
   -3.4400   25.3000  -28.8520 H   0  0  0  0  0  0  0  0  0  0  0  0
   -2.3360   24.9280  -30.0710 H   0  0  0  0  0  0  0  0  0  0  0  0
   -1.3248   21.4602  -30.9533 H   0  0  0  0  0  0  0  0  0  0  0  0
   -1.9162   21.6901  -29.2692 H   0  0  0  0  0  0  0  0  0  0  0  0
   -5.3660   26.0540  -28.5920 H   0  0  0  0  0  0  0  0  0  0  0  0
   -6.6480   24.7990  -28.6420 H   0  0  0  0  0  0  0  0  0  0  0  0
   -7.9553   23.8028  -30.6410 H   0  0  0  0  0  0  0  0  0  0  0  0
   -9.2979   21.5256  -31.7341 H   0  0  0  0  0  0  0  0  0  0  0  0
   -8.8979   19.3539  -32.9412 H   0  0  0  0  0  0  0  0  0  0  0  0
   -7.4511   17.8486  -33.9817 H   0  0  0  0  0  0  0  0  0  0  0  0
   -4.6004   20.0781  -32.8153 H   0  0  0  0  0  0  0  0  0  0  0  0
  1  2  1  0
  2  3  1  0
  2  4  1  0
  4  5  2  0
  4  6  1  0
  6  7  1  0
  7  8  1  0
  8  9  1  0
  9 10  2  0
  9 11  1  0
 11 12  1  0
 12 13  1  0
 13 14  1  0
 13 15  2  0
 12 16  2  0
 16 17  1  0
 17 18  2  0
 18 19  1  0
 19 20  2  0
 20 21  1  0
 21 22  1  0
 21 23  1  0
 20 24  1  0
 24 25  2  0
 25 11  1  0
 25 17  1  0
  1 26  1  0
  1 27  1  0
  1 28  1  0
  2 29  1  1
  3 30  1  0
  3 31  1  0
  7 32  1  0
  7 33  1  0
 14 34  1  0
 14 35  1  0
 16 36  1  0
 18 37  1  0
 19 38  1  0
 21 39  1  0
 24 40  1  0
M  END
>  <UniqueID>  (41) 
41

>  <SMILES>  (41) 
C[C@@H](N)C(=O)OCOC(=O)n1c(C(N)=O)cc2ccc(C(F)F)cc21

>  <Energy>  (41) 
71.3216791460012

>  <Genealogy>  (41) 
C[C@@H](N)C(=O)OCOC(=O)n1c(C(N)=O)cc2ccc(C(F)F)cc21 (chirality)
C[C@@H](N)C(=O)OCOC(=O)n1c(C(N)=O)cc2ccc(C(F)F)cc21 (3D coordinates assigned)
C[C@@H](N)C(=O)OCOC(=O)n1c(C(N)=O)cc2ccc(C(F)F)cc21 (optimized conformer: 71.3216791460012 kcal/mol)

>  <smiles>  (41) 
CC(N)C(=O)OCOC(=O)n1c(C(N)=O)cc2ccc(C(F)F)cc21

>  <score_type>  (41) 
oracle

>  <origin>  (41) 
adg

>  <m_score__min__energy>  (41) 
-8.5700000000000003

>  <m_primary>  (41) 
energy

$$$$
42:0
     RDKit          3D

 37 38  0  0  0  0  0  0  0  0999 V2000
   -3.8690   25.4580  -30.8490 N   0  0  0  0  0  0  0  0  0  0  0  0
   -5.2380   25.2500  -30.5100 C   0  0  0  0  0  0  0  0  0  0  0  0
   -5.8570   26.1410  -29.8690 O   0  0  0  0  0  0  0  0  0  0  0  0
   -5.9000   23.9810  -30.8670 C   0  0  0  0  0  0  0  0  0  0  0  0
   -7.2740   23.8580  -31.0600 C   0  0  0  0  0  0  0  0  0  0  0  0
   -7.4710   22.5570  -31.4630 C   0  0  0  0  0  0  0  0  0  0  0  0
   -8.6490   21.8850  -31.7700 C   0  0  0  0  0  0  0  0  0  0  0  0
   -8.5610   20.5280  -32.1230 C   0  0  0  0  0  0  0  0  0  0  0  0
   -7.3040   19.8710  -32.1720 C   0  0  0  0  0  0  0  0  0  0  0  0
   -7.2290   18.3990  -32.4900 C   0  0  0  0  0  0  0  0  0  0  0  0
   -8.4670   17.8010  -32.3360 F   0  0  0  0  0  0  0  0  0  0  0  0
   -6.3280   17.7950  -31.6320 F   0  0  0  0  0  0  0  0  0  0  0  0
   -6.8130   18.2010  -33.7940 F   0  0  0  0  0  0  0  0  0  0  0  0
   -6.1310   20.5840  -31.8290 C   0  0  0  0  0  0  0  0  0  0  0  0
   -6.2480   21.9390  -31.5000 C   0  0  0  0  0  0  0  0  0  0  0  0
   -5.2720   22.8010  -31.1320 N   0  0  0  0  0  0  0  0  0  0  0  0
   -3.8790   22.4930  -30.9670 C   0  0  0  0  0  0  0  0  0  0  0  0
   -3.0990   22.5580  -31.9570 O   0  0  0  0  0  0  0  0  0  0  0  0
   -3.3980   22.0960  -29.7170 O   0  0  0  0  0  0  0  0  0  0  0  0
   -2.6780   22.9730  -28.8560 C   0  0  0  0  0  0  0  0  0  0  0  0
   -3.5330   24.0220  -28.4150 O   0  0  0  0  0  0  0  0  0  0  0  0
   -3.5130   24.5250  -27.1120 C   0  0  0  0  0  0  0  0  0  0  0  0
   -4.5640   24.9920  -26.5900 O   0  0  0  0  0  0  0  0  0  0  0  0
   -2.3120   24.5040  -26.3960 O   0  0  0  0  0  0  0  0  0  0  0  0
   -1.2910   25.4870  -26.5540 C   0  0  0  0  0  0  0  0  0  0  0  0
   -0.7620   25.4700  -27.9520 C   0  0  0  0  0  0  0  0  0  0  0  0
    0.3600   24.9570  -28.2010 O   0  0  0  0  0  0  0  0  0  0  0  0
   -1.5000   26.0470  -28.9790 O   0  0  0  0  0  0  0  0  0  0  0  0
   -3.1100   25.2770  -30.1540 H   0  0  0  0  0  0  0  0  0  0  0  0
   -8.0392   24.6357  -30.9200 H   0  0  0  0  0  0  0  0  0  0  0  0
   -9.6203   22.4002  -31.7375 H   0  0  0  0  0  0  0  0  0  0  0  0
   -9.4768   19.9684  -32.3641 H   0  0  0  0  0  0  0  0  0  0  0  0
   -5.1507   20.0851  -31.8212 H   0  0  0  0  0  0  0  0  0  0  0  0
   -2.3108   22.4102  -27.9851 H   0  0  0  0  0  0  0  0  0  0  0  0
   -1.8267   23.4032  -29.4039 H   0  0  0  0  0  0  0  0  0  0  0  0
   -1.7085   26.4812  -26.3367 H   0  0  0  0  0  0  0  0  0  0  0  0
   -0.4687   25.2618  -25.8590 H   0  0  0  0  0  0  0  0  0  0  0  0
  1  2  1  0
  2  3  2  0
  2  4  1  0
  4  5  2  0
  5  6  1  0
  6  7  2  0
  7  8  1  0
  8  9  2  0
  9 10  1  0
 10 11  1  0
 10 12  1  0
 10 13  1  0
  9 14  1  0
 14 15  2  0
 15 16  1  0
 16 17  1  0
 17 18  2  0
 17 19  1  0
 19 20  1  0
 20 21  1  0
 21 22  1  0
 22 23  2  0
 22 24  1  0
 24 25  1  0
 25 26  1  0
 26 27  2  0
 26 28  1  0
 16  4  1  0
 15  6  1  0
  1 29  1  0
  5 30  1  0
  7 31  1  0
  8 32  1  0
 14 33  1  0
 20 34  1  0
 20 35  1  0
 25 36  1  0
 25 37  1  0
M  CHG  2   1  -1  28  -1
M  END
>  <UniqueID>  (42) 
42

>  <SMILES>  (42) 
[NH-]C(=O)c1cc2ccc(C(F)(F)F)cc2n1C(=O)OCOC(=O)OCC(=O)[O-]

>  <Energy>  (42) 
70.96422531035215

>  <Genealogy>  (42) 
[NH-]C(=O)c1cc2ccc(C(F)(F)F)cc2n1C(=O)OCOC(=O)OCC(=O)[O-] (protonated)
[NH-]C(=O)c1cc2ccc(C(F)(F)F)cc2n1C(=O)OCOC(=O)OCC(=O)[O-] (3D coordinates assigned)
[NH-]C(=O)c1cc2ccc(C(F)(F)F)cc2n1C(=O)OCOC(=O)OCC(=O)[O-] (optimized conformer: 70.96422531035215 kcal/mol)

>  <smiles>  (42) 
NC(=O)c1cc2ccc(C(F)(F)F)cc2n1C(=O)OCOC(=O)OCC(=O)O

>  <score_type>  (42) 
oracle

>  <origin>  (42) 
adg

>  <m_score__min__energy>  (42) 
-11.48

>  <m_primary>  (42) 
energy

$$$$
43:0
     RDKit          3D

 41 42  0  0  0  0  0  0  0  0999 V2000
   -7.3350   18.3530  -32.9380 C   0  0  0  0  0  0  0  0  0  0  0  0
   -7.4540   19.7830  -32.5040 C   0  0  0  0  0  0  0  0  0  0  0  0
   -8.7320   20.3550  -32.2870 C   0  0  0  0  0  0  0  0  0  0  0  0
   -8.8570   21.6790  -31.8330 C   0  0  0  0  0  0  0  0  0  0  0  0
   -7.6890   22.4030  -31.6040 C   0  0  0  0  0  0  0  0  0  0  0  0
   -7.5170   23.6860  -31.1360 C   0  0  0  0  0  0  0  0  0  0  0  0
   -6.1380   23.8760  -31.0780 C   0  0  0  0  0  0  0  0  0  0  0  0
   -5.4980   25.1420  -30.6640 C   0  0  0  0  0  0  0  0  0  0  0  0
   -4.0930   25.3180  -30.8360 N   0  0  0  0  0  0  0  0  0  0  0  0
   -6.1740   26.0670  -30.1410 O   0  0  0  0  0  0  0  0  0  0  0  0
   -5.4850   22.7560  -31.4960 N   0  0  0  0  0  0  0  0  0  0  0  0
   -4.0670   22.5310  -31.5340 C   0  0  0  0  0  0  0  0  0  0  0  0
   -3.4920   22.3890  -32.6470 O   0  0  0  0  0  0  0  0  0  0  0  0
   -3.2840   22.4520  -30.2870 C   0  0  0  0  0  0  0  0  0  0  0  0
   -3.2800   21.3780  -29.6260 O   0  0  0  0  0  0  0  0  0  0  0  0
   -2.5220   23.5810  -29.8310 N   0  0  0  0  0  0  0  0  0  0  0  0
   -1.6870   23.5300  -28.6340 C   0  0  0  0  0  0  0  0  0  0  0  0
   -1.2640   24.9150  -28.2230 C   0  0  0  0  0  0  0  0  0  0  0  0
   -1.6040   25.8860  -28.9540 O   0  0  0  0  0  0  0  0  0  0  0  0
   -0.5090   25.1600  -27.0150 N   0  0  0  0  0  0  0  0  0  0  0  0
   -0.1930   26.5440  -26.6440 C   0  0  0  0  0  0  0  0  0  0  0  0
   -0.0550   24.0520  -26.1690 C   0  0  0  0  0  0  0  0  0  0  0  0
   -6.4460   21.8630  -31.8110 C   0  0  0  0  0  0  0  0  0  0  0  0
   -6.2920   20.5420  -32.2440 C   0  0  0  0  0  0  0  0  0  0  0  0
   -7.2810   17.7040  -32.0515 H   0  0  0  0  0  0  0  0  0  0  0  0
   -8.2134   18.0784  -33.5405 H   0  0  0  0  0  0  0  0  0  0  0  0
   -6.4233   18.2273  -33.5405 H   0  0  0  0  0  0  0  0  0  0  0  0
   -9.6355   19.7566  -32.4758 H   0  0  0  0  0  0  0  0  0  0  0  0
   -9.8461   22.1296  -31.6637 H   0  0  0  0  0  0  0  0  0  0  0  0
   -8.3016   24.4079  -30.8653 H   0  0  0  0  0  0  0  0  0  0  0  0
   -3.4940   25.6590  -30.0520 H   0  0  0  0  0  0  0  0  0  0  0  0
   -2.5940   24.4890  -30.3420 H   0  0  0  0  0  0  0  0  0  0  0  0
   -2.2576   23.0683  -27.8147 H   0  0  0  0  0  0  0  0  0  0  0  0
   -0.7880   22.9356  -28.8541 H   0  0  0  0  0  0  0  0  0  0  0  0
   -0.1724   26.6342  -25.5479 H   0  0  0  0  0  0  0  0  0  0  0  0
    0.7908   26.8178  -27.0530 H   0  0  0  0  0  0  0  0  0  0  0  0
   -0.9605   27.2176  -27.0530 H   0  0  0  0  0  0  0  0  0  0  0  0
   -0.1684   24.3287  -25.1104 H   0  0  0  0  0  0  0  0  0  0  0  0
   -0.6591   23.1575  -26.3809 H   0  0  0  0  0  0  0  0  0  0  0  0
    1.0031   23.8386  -26.3809 H   0  0  0  0  0  0  0  0  0  0  0  0
   -5.2913   20.1055  -32.3786 H   0  0  0  0  0  0  0  0  0  0  0  0
  1  2  1  0
  2  3  2  0
  3  4  1  0
  4  5  2  0
  5  6  1  0
  6  7  2  0
  7  8  1  0
  8  9  1  0
  8 10  2  0
  7 11  1  0
 11 12  1  0
 12 13  2  0
 12 14  1  0
 14 15  2  0
 14 16  1  0
 16 17  1  0
 17 18  1  0
 18 19  2  0
 18 20  1  0
 20 21  1  0
 20 22  1  0
 11 23  1  0
 23 24  2  0
 24  2  1  0
 23  5  1  0
  1 25  1  0
  1 26  1  0
  1 27  1  0
  3 28  1  0
  4 29  1  0
  6 30  1  0
  9 31  1  0
 16 32  1  0
 17 33  1  0
 17 34  1  0
 21 35  1  0
 21 36  1  0
 21 37  1  0
 22 38  1  0
 22 39  1  0
 22 40  1  0
 24 41  1  0
M  CHG  1   9  -1
M  END
>  <UniqueID>  (43) 
43

>  <SMILES>  (43) 
Cc1ccc2cc(C([NH-])=O)n(C(=O)C(=O)NCC(=O)N(C)C)c2c1

>  <Energy>  (43) 
73.82582920980254

>  <Genealogy>  (43) 
Cc1ccc2cc(C([NH-])=O)n(C(=O)C(=O)NCC(=O)N(C)C)c2c1 (protonated)
Cc1ccc2cc(C([NH-])=O)n(C(=O)C(=O)NCC(=O)N(C)C)c2c1 (3D coordinates assigned)
Cc1ccc2cc(C([NH-])=O)n(C(=O)C(=O)NCC(=O)N(C)C)c2c1 (optimized conformer: 73.82582920980254 kcal/mol)

>  <smiles>  (43) 
Cc1ccc2cc(C(N)=O)n(C(=O)C(=O)NCC(=O)N(C)C)c2c1

>  <score_type>  (43) 
oracle

>  <origin>  (43) 
adg

>  <m_score__min__energy>  (43) 
-10.94

>  <m_primary>  (43) 
energy

$$$$
44:0
     RDKit          3D

 33 34  0  0  0  0  0  0  0  0999 V2000
   -7.5560   18.4600  -32.8730 C   0  0  0  0  0  0  0  0  0  0  0  0
   -7.5610   19.8720  -32.3690 C   0  0  0  0  0  0  0  0  0  0  0  0
   -8.7700   20.6090  -32.3360 C   0  0  0  0  0  0  0  0  0  0  0  0
   -8.7810   21.9480  -31.9120 C   0  0  0  0  0  0  0  0  0  0  0  0
   -7.5710   22.5210  -31.5320 C   0  0  0  0  0  0  0  0  0  0  0  0
   -7.2920   23.8010  -31.1100 C   0  0  0  0  0  0  0  0  0  0  0  0
   -5.9170   23.8250  -30.8830 C   0  0  0  0  0  0  0  0  0  0  0  0
   -5.2040   24.9970  -30.3350 C   0  0  0  0  0  0  0  0  0  0  0  0
   -3.9230   25.3520  -30.8500 N   0  0  0  0  0  0  0  0  0  0  0  0
   -5.7280   25.7110  -29.4400 O   0  0  0  0  0  0  0  0  0  0  0  0
   -5.3660   22.6090  -31.1630 N   0  0  0  0  0  0  0  0  0  0  0  0
   -3.9790   22.2350  -31.1180 C   0  0  0  0  0  0  0  0  0  0  0  0
   -3.0990   23.0530  -31.5000 O   0  0  0  0  0  0  0  0  0  0  0  0
   -3.6250   20.9560  -30.6690 O   0  0  0  0  0  0  0  0  0  0  0  0
   -2.4730   20.6480  -29.9350 C   0  0  0  0  0  0  0  0  0  0  0  0
   -1.5450   19.9610  -30.4450 O   0  0  0  0  0  0  0  0  0  0  0  0
   -2.3770   21.1210  -28.6200 O   0  0  0  0  0  0  0  0  0  0  0  0
   -1.7400   22.3080  -28.2350 C   0  0  0  0  0  0  0  0  0  0  0  0
   -1.1380   22.3910  -27.1280 O   0  0  0  0  0  0  0  0  0  0  0  0
   -1.7880   23.4030  -29.1080 O   0  0  0  0  0  0  0  0  0  0  0  0
   -1.0630   24.5900  -28.9490 C   0  0  0  0  0  0  0  0  0  0  0  0
   -1.6110   25.7170  -29.0680 O   0  0  0  0  0  0  0  0  0  0  0  0
    0.2930   24.5220  -28.6540 O   0  0  0  0  0  0  0  0  0  0  0  0
   -6.3920   21.8210  -31.5550 C   0  0  0  0  0  0  0  0  0  0  0  0
   -6.3490   20.4920  -31.9920 C   0  0  0  0  0  0  0  0  0  0  0  0
   -7.5535   17.7660  -32.0195 H   0  0  0  0  0  0  0  0  0  0  0  0
   -8.4535   18.2858  -33.4846 H   0  0  0  0  0  0  0  0  0  0  0  0
   -6.6573   18.2922  -33.4846 H   0  0  0  0  0  0  0  0  0  0  0  0
   -9.7096   20.1280  -32.6455 H   0  0  0  0  0  0  0  0  0  0  0  0
   -9.7166   22.5256  -31.8813 H   0  0  0  0  0  0  0  0  0  0  0  0
   -8.0035   24.6297  -30.9795 H   0  0  0  0  0  0  0  0  0  0  0  0
   -3.0500   24.9430  -30.4470 H   0  0  0  0  0  0  0  0  0  0  0  0
   -5.3962   19.9445  -32.0406 H   0  0  0  0  0  0  0  0  0  0  0  0
  1  2  1  0
  2  3  2  0
  3  4  1  0
  4  5  2  0
  5  6  1  0
  6  7  2  0
  7  8  1  0
  8  9  1  0
  8 10  2  0
  7 11  1  0
 11 12  1  0
 12 13  2  0
 12 14  1  0
 14 15  1  0
 15 16  2  0
 15 17  1  0
 17 18  1  0
 18 19  2  0
 18 20  1  0
 20 21  1  0
 21 22  2  0
 21 23  1  0
 11 24  1  0
 24 25  2  0
 25  2  1  0
 24  5  1  0
  1 26  1  0
  1 27  1  0
  1 28  1  0
  3 29  1  0
  4 30  1  0
  6 31  1  0
  9 32  1  0
 25 33  1  0
M  CHG  2   9  -1  23  -1
M  END
>  <UniqueID>  (44) 
44

>  <SMILES>  (44) 
Cc1ccc2cc(C([NH-])=O)n(C(=O)OC(=O)OC(=O)OC(=O)[O-])c2c1

>  <Energy>  (44) 
74.85756479591828

>  <Genealogy>  (44) 
Cc1ccc2cc(C([NH-])=O)n(C(=O)OC(=O)OC(=O)OC(=O)[O-])c2c1 (protonated)
Cc1ccc2cc(C([NH-])=O)n(C(=O)OC(=O)OC(=O)OC(=O)[O-])c2c1 (3D coordinates assigned)
Cc1ccc2cc(C([NH-])=O)n(C(=O)OC(=O)OC(=O)OC(=O)[O-])c2c1 (optimized conformer: 74.85756479591828 kcal/mol)

>  <smiles>  (44) 
Cc1ccc2cc(C(N)=O)n(C(=O)OC(=O)OC(=O)OC(=O)O)c2c1

>  <score_type>  (44) 
oracle

>  <origin>  (44) 
adg

>  <m_score__min__energy>  (44) 
-11.26

>  <m_primary>  (44) 
energy

$$$$
45:0
     RDKit          3D

 45 46  0  0  0  0  0  0  0  0999 V2000
   -5.6800   18.3300  -34.8920 C   0  0  0  0  0  0  0  0  0  0  0  0
   -6.4160   18.4250  -33.6240 N   0  0  0  0  0  0  0  0  0  0  0  0
   -6.9760   17.1920  -33.0500 C   0  0  0  0  0  0  0  0  0  0  0  0
   -6.4430   15.9820  -33.7600 C   0  0  0  0  0  0  0  0  0  0  0  0
   -7.1780   15.3510  -34.5640 O   0  0  0  0  0  0  0  0  0  0  0  0
   -5.1640   15.5110  -33.4890 O   0  0  0  0  0  0  0  0  0  0  0  0
   -6.6170   19.7170  -32.9880 C   0  0  0  0  0  0  0  0  0  0  0  0
   -7.9320   20.1990  -32.7330 C   0  0  0  0  0  0  0  0  0  0  0  0
   -8.1420   21.4400  -32.1130 C   0  0  0  0  0  0  0  0  0  0  0  0
   -7.0290   22.1850  -31.7460 C   0  0  0  0  0  0  0  0  0  0  0  0
   -6.9520   23.4230  -31.1510 C   0  0  0  0  0  0  0  0  0  0  0  0
   -5.5910   23.6870  -31.0240 C   0  0  0  0  0  0  0  0  0  0  0  0
   -5.0570   24.8870  -30.3490 C   0  0  0  0  0  0  0  0  0  0  0  0
   -3.9020   25.5560  -30.8480 N   0  0  0  0  0  0  0  0  0  0  0  0
   -5.5980   25.2990  -29.2880 O   0  0  0  0  0  0  0  0  0  0  0  0
   -4.8550   22.6580  -31.5310 N   0  0  0  0  0  0  0  0  0  0  0  0
   -3.4280   22.6020  -31.6920 C   0  0  0  0  0  0  0  0  0  0  0  0
   -2.6760   23.1430  -30.8370 O   0  0  0  0  0  0  0  0  0  0  0  0
   -2.8800   21.9320  -32.7920 O   0  0  0  0  0  0  0  0  0  0  0  0
   -1.8960   20.9060  -32.6770 C   0  0  0  0  0  0  0  0  0  0  0  0
   -0.9540   20.9720  -33.8360 C   0  0  0  0  0  0  0  0  0  0  0  0
   -1.2920   20.4760  -34.9450 O   0  0  0  0  0  0  0  0  0  0  0  0
    0.3460   21.5410  -33.6600 N   0  0  0  0  0  0  0  0  0  0  0  0
    1.4640   21.2950  -34.5640 C   0  0  0  0  0  0  0  0  0  0  0  0
    1.4150   22.2660  -35.7440 C   0  0  0  0  0  0  0  0  0  0  0  0
    0.2580   23.0530  -35.6790 O   0  0  0  0  0  0  0  0  0  0  0  0
   -5.7520   21.7430  -31.9660 C   0  0  0  0  0  0  0  0  0  0  0  0
   -5.5100   20.5180  -32.6000 C   0  0  0  0  0  0  0  0  0  0  0  0
   -4.6086   18.1917  -34.6846 H   0  0  0  0  0  0  0  0  0  0  0  0
   -6.0551   17.4728  -35.4704 H   0  0  0  0  0  0  0  0  0  0  0  0
   -5.8252   19.2543  -35.4704 H   0  0  0  0  0  0  0  0  0  0  0  0
   -6.7042   17.1342  -31.9857 H   0  0  0  0  0  0  0  0  0  0  0  0
   -8.0696   17.2149  -33.1660 H   0  0  0  0  0  0  0  0  0  0  0  0
   -8.7982   19.5881  -33.0271 H   0  0  0  0  0  0  0  0  0  0  0  0
   -9.1595   21.8123  -31.9230 H   0  0  0  0  0  0  0  0  0  0  0  0
   -7.7881   24.0673  -30.8414 H   0  0  0  0  0  0  0  0  0  0  0  0
   -2.9440   25.2750  -30.5400 H   0  0  0  0  0  0  0  0  0  0  0  0
   -1.3336   21.0432  -31.7417 H   0  0  0  0  0  0  0  0  0  0  0  0
   -2.3944   19.9254  -32.6708 H   0  0  0  0  0  0  0  0  0  0  0  0
    2.4091   21.4339  -34.0186 H   0  0  0  0  0  0  0  0  0  0  0  0
    1.3968   20.2652  -34.9447 H   0  0  0  0  0  0  0  0  0  0  0  0
    2.2999   22.9187  -35.7137 H   0  0  0  0  0  0  0  0  0  0  0  0
    1.4033   21.6898  -36.6809 H   0  0  0  0  0  0  0  0  0  0  0  0
   -0.4880   22.4410  -35.4390 H   0  0  0  0  0  0  0  0  0  0  0  0
   -4.4807   20.1820  -32.7941 H   0  0  0  0  0  0  0  0  0  0  0  0
  1  2  1  0
  2  3  1  0
  3  4  1  0
  4  5  2  0
  4  6  1  0
  2  7  1  0
  7  8  2  0
  8  9  1  0
  9 10  2  0
 10 11  1  0
 11 12  2  0
 12 13  1  0
 13 14  1  0
 13 15  2  0
 12 16  1  0
 16 17  1  0
 17 18  2  0
 17 19  1  0
 19 20  1  0
 20 21  1  0
 21 22  2  0
 21 23  1  0
 23 24  1  0
 24 25  1  0
 25 26  1  0
 16 27  1  0
 27 28  2  0
 28  7  1  0
 27 10  1  0
  1 29  1  0
  1 30  1  0
  1 31  1  0
  3 32  1  0
  3 33  1  0
  8 34  1  0
  9 35  1  0
 11 36  1  0
 14 37  1  0
 20 38  1  0
 20 39  1  0
 24 40  1  0
 24 41  1  0
 25 42  1  0
 25 43  1  0
 26 44  1  0
 28 45  1  0
M  CHG  3   6  -1  14  -1  23  -1
M  END
>  <UniqueID>  (45) 
45

>  <SMILES>  (45) 
CN(CC(=O)[O-])c1ccc2cc(C([NH-])=O)n(C(=O)OCC(=O)[N-]CCO)c2c1

>  <Energy>  (45) 
77.14503120810824

>  <Genealogy>  (45) 
CN(CC(=O)[O-])c1ccc2cc(C([NH-])=O)n(C(=O)OCC(=O)[N-]CCO)c2c1 (protonated)
CN(CC(=O)[O-])c1ccc2cc(C([NH-])=O)n(C(=O)OCC(=O)[N-]CCO)c2c1 (3D coordinates assigned)
CN(CC(=O)[O-])c1ccc2cc(C([NH-])=O)n(C(=O)OCC(=O)[N-]CCO)c2c1 (optimized conformer: 77.14503120810824 kcal/mol)

>  <smiles>  (45) 
CN(CC(=O)O)c1ccc2cc(C(N)=O)n(C(=O)OCC(=O)NCCO)c2c1

>  <score_type>  (45) 
oracle

>  <origin>  (45) 
adg

>  <m_score__min__energy>  (45) 
-11.300000000000001

>  <m_primary>  (45) 
energy

$$$$
46:0
     RDKit          3D

 66 68  0  0  0  0  0  0  0  0999 V2000
   -8.7140   18.7900  -32.0110 C   0  0  0  0  0  0  0  0  0  0  0  0
   -7.1920   18.9640  -32.0490 C   0  0  0  0  0  0  0  0  0  0  0  0
   -6.4970   17.8340  -31.2840 C   0  0  0  0  0  0  0  0  0  0  0  0
   -6.6750   19.0150  -33.4600 C   0  0  0  0  0  0  0  0  0  0  0  0
   -6.8290   20.0550  -34.1600 O   0  0  0  0  0  0  0  0  0  0  0  0
   -6.1040   17.8660  -34.0160 O   0  0  0  0  0  0  0  0  0  0  0  0
   -6.8440   16.6710  -34.2520 C   0  0  0  0  0  0  0  0  0  0  0  0
   -5.9750   15.5510  -34.1180 O   0  0  0  0  0  0  0  0  0  0  0  0
   -4.7930   15.5620  -33.3730 C   0  0  0  0  0  0  0  0  0  0  0  0
   -4.7960   15.1340  -32.1890 O   0  0  0  0  0  0  0  0  0  0  0  0
   -3.5810   16.0720  -33.9660 N   0  0  0  0  0  0  0  0  0  0  0  0
   -2.8050   15.4510  -34.9000 C   0  0  0  0  0  0  0  0  0  0  0  0
   -2.9430   14.0540  -35.3520 C   0  0  0  0  0  0  0  0  0  0  0  0
   -4.0670   13.2820  -34.9400 N   0  0  0  0  0  0  0  0  0  0  0  0
   -2.1060   13.5600  -36.1540 O   0  0  0  0  0  0  0  0  0  0  0  0
   -1.7970   16.2910  -35.3530 C   0  0  0  0  0  0  0  0  0  0  0  0
   -1.9540   17.4560  -34.6460 C   0  0  0  0  0  0  0  0  0  0  0  0
   -1.1990   18.6230  -34.6870 C   0  0  0  0  0  0  0  0  0  0  0  0
   -1.5620   19.6720  -33.8300 C   0  0  0  0  0  0  0  0  0  0  0  0
   -2.6780   19.5510  -32.9640 C   0  0  0  0  0  0  0  0  0  0  0  0
   -3.0120   20.6260  -32.0630 N   0  0  0  0  0  0  0  0  0  0  0  0
   -1.9820   21.1220  -31.1320 C   0  0  0  0  0  0  0  0  0  0  0  0
   -2.5960   21.9700  -30.0200 C   0  0  0  0  0  0  0  0  0  0  0  0
   -3.4750   22.9900  -30.6070 N   0  0  0  0  0  0  0  0  0  0  0  0
   -3.3930   24.3630  -30.1800 C   0  0  0  0  0  0  0  0  0  0  0  0
   -4.1600   25.2230  -30.6920 O   0  0  0  0  0  0  0  0  0  0  0  0
   -2.4520   24.7360  -29.2060 O   0  0  0  0  0  0  0  0  0  0  0  0
   -2.5430   24.4980  -27.7930 C   0  0  0  0  0  0  0  0  0  0  0  0
   -1.9970   25.7030  -27.0060 C   0  0  0  0  0  0  0  0  0  0  0  0
   -4.0320   24.3200  -27.4570 C   0  0  0  0  0  0  0  0  0  0  0  0
   -1.7930   23.2100  -27.4080 C   0  0  0  0  0  0  0  0  0  0  0  0
   -4.4330   22.6090  -31.6580 C   0  0  0  0  0  0  0  0  0  0  0  0
   -4.3990   21.1010  -31.9470 C   0  0  0  0  0  0  0  0  0  0  0  0
   -3.4340   18.3530  -32.9680 C   0  0  0  0  0  0  0  0  0  0  0  0
   -3.0350   17.3070  -33.8140 C   0  0  0  0  0  0  0  0  0  0  0  0
   -9.0526   18.7513  -30.9651 H   0  0  0  0  0  0  0  0  0  0  0  0
   -9.1930   19.6392  -32.5203 H   0  0  0  0  0  0  0  0  0  0  0  0
   -8.9889   17.8546  -32.5203 H   0  0  0  0  0  0  0  0  0  0  0  0
   -6.9624   19.9237  -31.5629 H   0  0  0  0  0  0  0  0  0  0  0  0
   -6.6020   18.0047  -30.2024 H   0  0  0  0  0  0  0  0  0  0  0  0
   -6.9599   16.8723  -31.5500 H   0  0  0  0  0  0  0  0  0  0  0  0
   -5.4299   17.8133  -31.5500 H   0  0  0  0  0  0  0  0  0  0  0  0
   -7.6611   16.5930  -33.5197 H   0  0  0  0  0  0  0  0  0  0  0  0
   -7.2680   16.6919  -35.2668 H   0  0  0  0  0  0  0  0  0  0  0  0
   -4.8220   13.6920  -34.3440 H   0  0  0  0  0  0  0  0  0  0  0  0
   -1.0356   16.0699  -36.1154 H   0  0  0  0  0  0  0  0  0  0  0  0
   -0.3430   18.7204  -35.3709 H   0  0  0  0  0  0  0  0  0  0  0  0
   -0.9730   20.6010  -33.8297 H   0  0  0  0  0  0  0  0  0  0  0  0
   -1.4634   20.2628  -30.6817 H   0  0  0  0  0  0  0  0  0  0  0  0
   -1.2786   21.7506  -31.6977 H   0  0  0  0  0  0  0  0  0  0  0  0
   -3.1813   21.3249  -29.3483 H   0  0  0  0  0  0  0  0  0  0  0  0
   -1.7939   22.4625  -29.4507 H   0  0  0  0  0  0  0  0  0  0  0  0
   -2.0858   25.5071  -25.9272 H   0  0  0  0  0  0  0  0  0  0  0  0
   -0.9394   25.8608  -27.2642 H   0  0  0  0  0  0  0  0  0  0  0  0
   -2.5756   26.6022  -27.2642 H   0  0  0  0  0  0  0  0  0  0  0  0
   -4.1621   24.3044  -26.3648 H   0  0  0  0  0  0  0  0  0  0  0  0
   -4.6064   25.1559  -27.8828 H   0  0  0  0  0  0  0  0  0  0  0  0
   -4.3932   23.3723  -27.8828 H   0  0  0  0  0  0  0  0  0  0  0  0
   -1.7449   23.1274  -26.3122 H   0  0  0  0  0  0  0  0  0  0  0  0
   -2.3252   22.3392  -27.8184 H   0  0  0  0  0  0  0  0  0  0  0  0
   -0.7729   23.2431  -27.8184 H   0  0  0  0  0  0  0  0  0  0  0  0
   -5.4466   22.8855  -31.3321 H   0  0  0  0  0  0  0  0  0  0  0  0
   -4.1539   23.1386  -32.5809 H   0  0  0  0  0  0  0  0  0  0  0  0
   -4.8971   20.5645  -31.1260 H   0  0  0  0  0  0  0  0  0  0  0  0
   -4.9190   20.9109  -32.8975 H   0  0  0  0  0  0  0  0  0  0  0  0
   -4.3166   18.2448  -32.3205 H   0  0  0  0  0  0  0  0  0  0  0  0
  1  2  1  0
  2  3  1  0
  2  4  1  0
  4  5  2  0
  4  6  1  0
  6  7  1  0
  7  8  1  0
  8  9  1  0
  9 10  2  0
  9 11  1  0
 11 12  1  0
 12 13  1  0
 13 14  1  0
 13 15  2  0
 12 16  2  0
 16 17  1  0
 17 18  2  0
 18 19  1  0
 19 20  2  0
 20 21  1  0
 21 22  1  0
 22 23  1  0
 23 24  1  0
 24 25  1  0
 25 26  2  0
 25 27  1  0
 27 28  1  0
 28 29  1  0
 28 30  1  0
 28 31  1  0
 24 32  1  0
 32 33  1  0
 20 34  1  0
 34 35  2  0
 35 11  1  0
 35 17  1  0
 33 21  1  0
  1 36  1  0
  1 37  1  0
  1 38  1  0
  2 39  1  0
  3 40  1  0
  3 41  1  0
  3 42  1  0
  7 43  1  0
  7 44  1  0
 14 45  1  0
 16 46  1  0
 18 47  1  0
 19 48  1  0
 22 49  1  0
 22 50  1  0
 23 51  1  0
 23 52  1  0
 29 53  1  0
 29 54  1  0
 29 55  1  0
 30 56  1  0
 30 57  1  0
 30 58  1  0
 31 59  1  0
 31 60  1  0
 31 61  1  0
 32 62  1  0
 32 63  1  0
 33 64  1  0
 33 65  1  0
 34 66  1  0
M  CHG  1  14  -1
M  END
>  <UniqueID>  (46) 
46

>  <SMILES>  (46) 
CC(C)C(=O)OCOC(=O)n1c(C([NH-])=O)cc2ccc(N3CCN(C(=O)OC(C)(C)C)CC3)cc21

>  <Energy>  (46) 
97.64358782245634

>  <Genealogy>  (46) 
CC(C)C(=O)OCOC(=O)n1c(C([NH-])=O)cc2ccc(N3CCN(C(=O)OC(C)(C)C)CC3)cc21 (protonated)
CC(C)C(=O)OCOC(=O)n1c(C([NH-])=O)cc2ccc(N3CCN(C(=O)OC(C)(C)C)CC3)cc21 (3D coordinates assigned)
CC(C)C(=O)OCOC(=O)n1c(C([NH-])=O)cc2ccc(N3CCN(C(=O)OC(C)(C)C)CC3)cc21 (nonaromatic ring conformer: 97.64358782245634 kcal/mol)

>  <smiles>  (46) 
CC(C)C(=O)OCOC(=O)n1c(C(N)=O)cc2ccc(N3CCN(C(=O)OC(C)(C)C)CC3)cc21

>  <score_type>  (46) 
oracle

>  <origin>  (46) 
adg

>  <m_score__min__energy>  (46) 
-11.119999999999999

>  <m_primary>  (46) 
energy

$$$$
47:0
     RDKit          3D

 44 45  0  0  0  0  0  0  0  0999 V2000
   -2.5980   20.4320  -31.2530 C   0  0  0  0  0  0  0  0  0  0  0  0
   -2.4910   20.9800  -32.6850 C   0  0  0  0  0  0  0  0  0  0  0  0
   -1.0170   21.3160  -32.9800 C   0  0  0  0  0  0  0  0  0  0  0  0
   -3.0150   19.9150  -33.6670 C   0  0  0  0  0  0  0  0  0  0  0  0
   -3.2990   22.1630  -32.7440 O   0  0  0  0  0  0  0  0  0  0  0  0
   -3.8490   22.8540  -31.6540 C   0  0  0  0  0  0  0  0  0  0  0  0
   -3.1070   23.4030  -30.7960 O   0  0  0  0  0  0  0  0  0  0  0  0
   -5.2760   22.9160  -31.5060 N   0  0  0  0  0  0  0  0  0  0  0  0
   -6.0080   23.8510  -30.8370 C   0  0  0  0  0  0  0  0  0  0  0  0
   -5.4710   25.0930  -30.2350 C   0  0  0  0  0  0  0  0  0  0  0  0
   -4.2610   25.6760  -30.7230 N   0  0  0  0  0  0  0  0  0  0  0  0
   -6.0620   25.6320  -29.2640 O   0  0  0  0  0  0  0  0  0  0  0  0
   -7.3640   23.5290  -30.8770 C   0  0  0  0  0  0  0  0  0  0  0  0
   -7.4390   22.3600  -31.5980 C   0  0  0  0  0  0  0  0  0  0  0  0
   -8.5460   21.5890  -31.9400 C   0  0  0  0  0  0  0  0  0  0  0  0
   -8.3270   20.4120  -32.6750 C   0  0  0  0  0  0  0  0  0  0  0  0
   -7.0190   20.0200  -33.0490 C   0  0  0  0  0  0  0  0  0  0  0  0
   -6.8380   18.8000  -33.7940 N   0  0  0  0  0  0  0  0  0  0  0  0
   -6.4210   17.5380  -33.1770 C   0  0  0  0  0  0  0  0  0  0  0  0
   -5.5680   16.7040  -34.1350 C   0  0  0  0  0  0  0  0  0  0  0  0
   -5.3820   17.3790  -35.3500 O   0  0  0  0  0  0  0  0  0  0  0  0
   -5.9180   20.8310  -32.6800 C   0  0  0  0  0  0  0  0  0  0  0  0
   -6.1670   22.0090  -31.9660 C   0  0  0  0  0  0  0  0  0  0  0  0
   -2.4384   21.2496  -30.5346 H   0  0  0  0  0  0  0  0  0  0  0  0
   -3.5976   19.9992  -31.0998 H   0  0  0  0  0  0  0  0  0  0  0  0
   -1.8346   19.6550  -31.0998 H   0  0  0  0  0  0  0  0  0  0  0  0
   -0.4725   21.4401  -32.0323 H   0  0  0  0  0  0  0  0  0  0  0  0
   -0.5633   20.4982  -33.5592 H   0  0  0  0  0  0  0  0  0  0  0  0
   -0.9626   22.2496  -33.5592 H   0  0  0  0  0  0  0  0  0  0  0  0
   -3.4316   19.0683  -33.1017 H   0  0  0  0  0  0  0  0  0  0  0  0
   -3.7997   20.3546  -34.3003 H   0  0  0  0  0  0  0  0  0  0  0  0
   -2.1879   19.5616  -34.3003 H   0  0  0  0  0  0  0  0  0  0  0  0
   -3.7720   25.2920  -31.5610 H   0  0  0  0  0  0  0  0  0  0  0  0
   -3.8700   26.5300  -30.2670 H   0  0  0  0  0  0  0  0  0  0  0  0
   -8.1965   24.0903  -30.4277 H   0  0  0  0  0  0  0  0  0  0  0  0
   -9.5612   21.8919  -31.6439 H   0  0  0  0  0  0  0  0  0  0  0  0
   -9.1841   19.7860  -32.9641 H   0  0  0  0  0  0  0  0  0  0  0  0
   -7.0090   18.8250  -34.8250 H   0  0  0  0  0  0  0  0  0  0  0  0
   -5.8333   17.7582  -32.2736 H   0  0  0  0  0  0  0  0  0  0  0  0
   -7.3229   16.9611  -32.9245 H   0  0  0  0  0  0  0  0  0  0  0  0
   -4.5876   16.5146  -33.6736 H   0  0  0  0  0  0  0  0  0  0  0  0
   -6.0864   15.7545  -34.3342 H   0  0  0  0  0  0  0  0  0  0  0  0
   -6.2680   17.7430  -35.6110 H   0  0  0  0  0  0  0  0  0  0  0  0
   -4.8911   20.5419  -32.9483 H   0  0  0  0  0  0  0  0  0  0  0  0
  1  2  1  0
  2  3  1  0
  2  4  1  0
  2  5  1  0
  5  6  1  0
  6  7  2  0
  6  8  1  0
  8  9  1  0
  9 10  1  0
 10 11  1  0
 10 12  2  0
  9 13  2  0
 13 14  1  0
 14 15  2  0
 15 16  1  0
 16 17  2  0
 17 18  1  0
 18 19  1  0
 19 20  1  0
 20 21  1  0
 17 22  1  0
 22 23  2  0
 23  8  1  0
 23 14  1  0
  1 24  1  0
  1 25  1  0
  1 26  1  0
  3 27  1  0
  3 28  1  0
  3 29  1  0
  4 30  1  0
  4 31  1  0
  4 32  1  0
 11 33  1  0
 11 34  1  0
 13 35  1  0
 15 36  1  0
 16 37  1  0
 18 38  1  0
 19 39  1  0
 19 40  1  0
 20 41  1  0
 20 42  1  0
 21 43  1  0
 22 44  1  0
M  END
>  <UniqueID>  (47) 
47

>  <SMILES>  (47) 
CC(C)(C)OC(=O)n1c(C(N)=O)cc2ccc(NCCO)cc21

>  <Energy>  (47) 
74.09194027875107

>  <Genealogy>  (47) 
CC(C)(C)OC(=O)n1c(C(N)=O)cc2ccc(NCCO)cc21 (3D coordinates assigned)
CC(C)(C)OC(=O)n1c(C(N)=O)cc2ccc(NCCO)cc21 (optimized conformer: 74.09194027875107 kcal/mol)

>  <smiles>  (47) 
CC(C)(C)OC(=O)n1c(C(N)=O)cc2ccc(NCCO)cc21

>  <score_type>  (47) 
oracle

>  <origin>  (47) 
adg

>  <m_score__min__energy>  (47) 
-8.5399999999999991

>  <m_primary>  (47) 
energy

$$$$
48:0
     RDKit          3D

 45 47  0  0  0  0  0  0  0  0999 V2000
   -3.6030   18.7440  -33.3010 C   0  0  0  0  0  0  0  0  0  0  0  0
   -4.7620   17.9290  -33.1800 O   0  0  0  0  0  0  0  0  0  0  0  0
   -5.9950   18.2820  -33.7380 C   0  0  0  0  0  0  0  0  0  0  0  0
   -6.1190   18.4270  -34.9850 O   0  0  0  0  0  0  0  0  0  0  0  0
   -7.1850   18.4440  -32.8480 C   0  0  0  0  0  0  0  0  0  0  0  0
   -7.2830   19.8660  -32.3720 C   0  0  0  0  0  0  0  0  0  0  0  0
   -8.5380   20.5250  -32.3600 C   0  0  0  0  0  0  0  0  0  0  0  0
   -8.6380   21.8660  -31.9550 C   0  0  0  0  0  0  0  0  0  0  0  0
   -7.4720   22.5200  -31.5690 C   0  0  0  0  0  0  0  0  0  0  0  0
   -7.2820   23.8160  -31.1490 C   0  0  0  0  0  0  0  0  0  0  0  0
   -5.9170   23.9260  -30.8940 C   0  0  0  0  0  0  0  0  0  0  0  0
   -5.2920   25.1370  -30.3220 C   0  0  0  0  0  0  0  0  0  0  0  0
   -4.0670   25.6460  -30.8430 N   0  0  0  0  0  0  0  0  0  0  0  0
   -5.8210   25.7000  -29.3270 O   0  0  0  0  0  0  0  0  0  0  0  0
   -5.2840   22.7480  -31.1590 N   0  0  0  0  0  0  0  0  0  0  0  0
   -3.8770   22.4650  -31.0920 C   0  0  0  0  0  0  0  0  0  0  0  0
   -3.0470   23.3300  -31.4880 O   0  0  0  0  0  0  0  0  0  0  0  0
   -3.4430   21.2260  -30.6020 O   0  0  0  0  0  0  0  0  0  0  0  0
   -2.5660   21.0480  -29.5250 C   0  0  0  0  0  0  0  0  0  0  0  0
   -2.9950   20.7410  -28.3780 O   0  0  0  0  0  0  0  0  0  0  0  0
   -1.1640   21.2220  -29.7420 N   0  0  0  0  0  0  0  0  0  0  0  0
   -0.3970   22.3430  -29.2070 C   0  0  0  0  0  0  0  0  0  0  0  0
   -1.3200   23.4180  -28.7310 C   0  0  0  0  0  0  0  0  0  0  0  0
   -2.1250   23.2980  -27.6570 N   0  0  0  0  0  0  0  0  0  0  0  0
   -2.7420   24.4980  -27.6600 C   0  0  0  0  0  0  0  0  0  0  0  0
   -3.8040   24.8820  -26.6870 C   0  0  0  0  0  0  0  0  0  0  0  0
   -2.3490   25.2840  -28.6820 N   0  0  0  0  0  0  0  0  0  0  0  0
   -1.4650   24.5800  -29.3200 O   0  0  0  0  0  0  0  0  0  0  0  0
   -6.2510   21.8960  -31.5680 C   0  0  0  0  0  0  0  0  0  0  0  0
   -6.1190   20.5670  -31.9890 C   0  0  0  0  0  0  0  0  0  0  0  0
   -3.2320   19.0049  -32.2989 H   0  0  0  0  0  0  0  0  0  0  0  0
   -2.8236   18.1941  -33.8489 H   0  0  0  0  0  0  0  0  0  0  0  0
   -3.8569   19.6635  -33.8489 H   0  0  0  0  0  0  0  0  0  0  0  0
   -8.0958   18.1837  -33.4072 H   0  0  0  0  0  0  0  0  0  0  0  0
   -7.0776   17.7793  -31.9781 H   0  0  0  0  0  0  0  0  0  0  0  0
   -9.4421   19.9809  -32.6708 H   0  0  0  0  0  0  0  0  0  0  0  0
   -9.6085   22.3836  -31.9433 H   0  0  0  0  0  0  0  0  0  0  0  0
   -8.0461   24.5995  -31.0380 H   0  0  0  0  0  0  0  0  0  0  0  0
   -3.1480   25.2730  -30.5180 H   0  0  0  0  0  0  0  0  0  0  0  0
    0.2187   21.9934  -28.3652 H   0  0  0  0  0  0  0  0  0  0  0  0
    0.2481   22.7484  -30.0004 H   0  0  0  0  0  0  0  0  0  0  0  0
   -3.4286   24.7463  -25.6620 H   0  0  0  0  0  0  0  0  0  0  0  0
   -4.0781   25.9362  -26.8405 H   0  0  0  0  0  0  0  0  0  0  0  0
   -4.6889   24.2469  -26.8405 H   0  0  0  0  0  0  0  0  0  0  0  0
   -5.1326   20.0812  -32.0205 H   0  0  0  0  0  0  0  0  0  0  0  0
  1  2  1  0
  2  3  1  0
  3  4  2  0
  3  5  1  0
  5  6  1  0
  6  7  2  0
  7  8  1  0
  8  9  2  0
  9 10  1  0
 10 11  2  0
 11 12  1  0
 12 13  1  0
 12 14  2  0
 11 15  1  0
 15 16  1  0
 16 17  2  0
 16 18  1  0
 18 19  1  0
 19 20  2  0
 19 21  1  0
 21 22  1  0
 22 23  1  0
 23 24  2  0
 24 25  1  0
 25 26  1  0
 25 27  2  0
 27 28  1  0
 15 29  1  0
 29 30  2  0
 30  6  1  0
 29  9  1  0
 28 23  1  0
  1 31  1  0
  1 32  1  0
  1 33  1  0
  5 34  1  0
  5 35  1  0
  7 36  1  0
  8 37  1  0
 10 38  1  0
 13 39  1  0
 22 40  1  0
 22 41  1  0
 26 42  1  0
 26 43  1  0
 26 44  1  0
 30 45  1  0
M  CHG  2  13  -1  21  -1
M  END
>  <UniqueID>  (48) 
48

>  <SMILES>  (48) 
COC(=O)Cc1ccc2cc(C([NH-])=O)n(C(=O)OC(=O)[N-]Cc3nc(C)no3)c2c1

>  <Energy>  (48) 
111.52361922364403

>  <Genealogy>  (48) 
COC(=O)Cc1ccc2cc(C([NH-])=O)n(C(=O)OC(=O)[N-]Cc3nc(C)no3)c2c1 (protonated)
COC(=O)Cc1ccc2cc(C([NH-])=O)n(C(=O)OC(=O)[N-]Cc3nc(C)no3)c2c1 (3D coordinates assigned)
COC(=O)Cc1ccc2cc(C([NH-])=O)n(C(=O)OC(=O)[N-]Cc3nc(C)no3)c2c1 (optimized conformer: 111.52361922364403 kcal/mol)

>  <smiles>  (48) 
COC(=O)Cc1ccc2cc(C(N)=O)n(C(=O)OC(=O)NCc3nc(C)no3)c2c1

>  <score_type>  (48) 
oracle

>  <origin>  (48) 
adg

>  <m_score__min__energy>  (48) 
-11.57

>  <m_primary>  (48) 
energy

$$$$
49:0
     RDKit          3D

 39 40  0  0  0  0  0  0  0  0999 V2000
   -4.2090   25.5160  -30.6610 N   0  0  0  0  0  0  0  0  0  0  0  0
   -5.5610   25.1080  -30.4440 C   0  0  0  0  0  0  0  0  0  0  0  0
   -6.3330   25.8630  -29.7950 O   0  0  0  0  0  0  0  0  0  0  0  0
   -6.0650   23.8330  -31.0010 C   0  0  0  0  0  0  0  0  0  0  0  0
   -7.4150   23.5480  -31.2000 C   0  0  0  0  0  0  0  0  0  0  0  0
   -7.4540   22.2430  -31.6350 C   0  0  0  0  0  0  0  0  0  0  0  0
   -8.5410   21.4460  -31.9770 C   0  0  0  0  0  0  0  0  0  0  0  0
   -8.2860   20.1330  -32.4100 C   0  0  0  0  0  0  0  0  0  0  0  0
   -6.9570   19.6510  -32.5180 C   0  0  0  0  0  0  0  0  0  0  0  0
   -6.6900   18.2300  -32.9480 C   0  0  0  0  0  0  0  0  0  0  0  0
   -7.7800   17.4210  -32.6730 F   0  0  0  0  0  0  0  0  0  0  0  0
   -6.4410   18.1730  -34.3080 F   0  0  0  0  0  0  0  0  0  0  0  0
   -5.5880   17.7480  -32.2680 F   0  0  0  0  0  0  0  0  0  0  0  0
   -5.8810   20.4860  -32.1380 C   0  0  0  0  0  0  0  0  0  0  0  0
   -6.1660   21.7810  -31.6900 C   0  0  0  0  0  0  0  0  0  0  0  0
   -5.3000   22.7430  -31.3010 N   0  0  0  0  0  0  0  0  0  0  0  0
   -3.8680   22.6360  -31.2720 C   0  0  0  0  0  0  0  0  0  0  0  0
   -3.2430   22.2760  -32.3060 O   0  0  0  0  0  0  0  0  0  0  0  0
   -3.1830   22.9220  -30.0820 O   0  0  0  0  0  0  0  0  0  0  0  0
   -2.8550   21.9840  -29.0950 C   0  0  0  0  0  0  0  0  0  0  0  0
   -3.1720   20.7700  -29.2170 O   0  0  0  0  0  0  0  0  0  0  0  0
   -2.1080   22.4360  -27.8760 C   0  0  0  0  0  0  0  0  0  0  0  0
   -2.5420   23.8410  -27.4110 C   0  0  2  0  0  0  0  0  0  0  0  0
   -3.9000   24.0370  -27.7070 O   0  0  0  0  0  0  0  0  0  0  0  0
   -1.7210   24.9620  -28.0700 C   0  0  0  0  0  0  0  0  0  0  0  0
   -2.2220   25.2700  -29.3450 O   0  0  0  0  0  0  0  0  0  0  0  0
   -3.5250   24.8930  -31.1430 H   0  0  0  0  0  0  0  0  0  0  0  0
   -3.8760   26.4360  -30.2970 H   0  0  0  0  0  0  0  0  0  0  0  0
   -8.2687   24.2235  -31.0426 H   0  0  0  0  0  0  0  0  0  0  0  0
   -9.5692   21.8312  -31.9107 H   0  0  0  0  0  0  0  0  0  0  0  0
   -9.1268   19.4723  -32.6678 H   0  0  0  0  0  0  0  0  0  0  0  0
   -4.8431   20.1258  -32.1932 H   0  0  0  0  0  0  0  0  0  0  0  0
   -2.2943   21.7206  -27.0615 H   0  0  0  0  0  0  0  0  0  0  0  0
   -1.0396   22.4820  -28.1338 H   0  0  0  0  0  0  0  0  0  0  0  0
   -2.3665   23.8899  -26.3262 H   0  0  0  0  0  0  0  0  0  0  0  0
   -3.9460   24.3630  -28.6450 H   0  0  0  0  0  0  0  0  0  0  0  0
   -1.7680   25.8612  -27.4382 H   0  0  0  0  0  0  0  0  0  0  0  0
   -0.6812   24.6190  -28.1756 H   0  0  0  0  0  0  0  0  0  0  0  0
   -2.8380   24.5330  -29.5960 H   0  0  0  0  0  0  0  0  0  0  0  0
  1  2  1  0
  2  3  2  0
  2  4  1  0
  4  5  2  0
  5  6  1  0
  6  7  2  0
  7  8  1  0
  8  9  2  0
  9 10  1  0
 10 11  1  0
 10 12  1  0
 10 13  1  0
  9 14  1  0
 14 15  2  0
 15 16  1  0
 16 17  1  0
 17 18  2  0
 17 19  1  0
 19 20  1  0
 20 21  2  0
 20 22  1  0
 22 23  1  0
 23 24  1  0
 23 25  1  0
 25 26  1  0
 16  4  1  0
 15  6  1  0
  1 27  1  0
  1 28  1  0
  5 29  1  0
  7 30  1  0
  8 31  1  0
 14 32  1  0
 22 33  1  0
 22 34  1  0
 23 35  1  1
 24 36  1  0
 25 37  1  0
 25 38  1  0
 26 39  1  0
M  END
>  <UniqueID>  (49) 
49

>  <SMILES>  (49) 
NC(=O)c1cc2ccc(C(F)(F)F)cc2n1C(=O)OC(=O)C[C@H](O)CO

>  <Energy>  (49) 
74.51615937149047

>  <Genealogy>  (49) 
NC(=O)c1cc2ccc(C(F)(F)F)cc2n1C(=O)OC(=O)C[C@H](O)CO (chirality)
NC(=O)c1cc2ccc(C(F)(F)F)cc2n1C(=O)OC(=O)C[C@H](O)CO (3D coordinates assigned)
NC(=O)c1cc2ccc(C(F)(F)F)cc2n1C(=O)OC(=O)C[C@H](O)CO (optimized conformer: 74.51615937149047 kcal/mol)

>  <smiles>  (49) 
NC(=O)c1cc2ccc(C(F)(F)F)cc2n1C(=O)OC(=O)CC(O)CO

>  <score_type>  (49) 
oracle

>  <origin>  (49) 
adg

>  <m_score__min__energy>  (49) 
-8.4900000000000002

>  <m_primary>  (49) 
energy

$$$$
50:0
     RDKit          3D

 32 34  0  0  0  0  0  0  0  0999 V2000
   -2.0940   21.0740  -32.5520 C   0  0  0  0  0  0  0  0  0  0  0  0
   -2.9480   22.2100  -32.6020 O   0  0  0  0  0  0  0  0  0  0  0  0
   -3.5760   22.7320  -31.4660 C   0  0  0  0  0  0  0  0  0  0  0  0
   -2.8890   23.1260  -30.4850 O   0  0  0  0  0  0  0  0  0  0  0  0
   -5.0080   22.8420  -31.4310 N   0  0  0  0  0  0  0  0  0  0  0  0
   -5.7570   23.9200  -31.0630 C   0  0  0  0  0  0  0  0  0  0  0  0
   -5.2430   25.1790  -30.4850 C   0  0  0  0  0  0  0  0  0  0  0  0
   -3.9580   25.6620  -30.8680 N   0  0  0  0  0  0  0  0  0  0  0  0
   -5.9400   25.8530  -29.6820 O   0  0  0  0  0  0  0  0  0  0  0  0
   -7.1150   23.6500  -31.2260 C   0  0  0  0  0  0  0  0  0  0  0  0
   -7.1740   22.3600  -31.7030 C   0  0  0  0  0  0  0  0  0  0  0  0
   -8.2770   21.5870  -32.0510 C   0  0  0  0  0  0  0  0  0  0  0  0
   -8.0440   20.2920  -32.5440 C   0  0  0  0  0  0  0  0  0  0  0  0
   -6.7230   19.7950  -32.6880 C   0  0  0  0  0  0  0  0  0  0  0  0
   -6.5170   18.4270  -33.2230 C   0  0  0  0  0  0  0  0  0  0  0  0
   -6.6820   17.2850  -32.5230 N   0  0  0  0  0  0  0  0  0  0  0  0
   -6.3930   16.3040  -33.3950 C   0  0  0  0  0  0  0  0  0  0  0  0
   -6.0610   16.8820  -34.6000 C   0  0  0  0  0  0  0  0  0  0  0  0
   -6.1470   18.1850  -34.4620 O   0  0  0  0  0  0  0  0  0  0  0  0
   -5.6280   20.6150  -32.3240 C   0  0  0  0  0  0  0  0  0  0  0  0
   -5.8920   21.8940  -31.8180 C   0  0  0  0  0  0  0  0  0  0  0  0
   -1.8957   20.8102  -31.5027 H   0  0  0  0  0  0  0  0  0  0  0  0
   -2.5808   20.2268  -33.0573 H   0  0  0  0  0  0  0  0  0  0  0  0
   -1.1449   21.3062  -33.0573 H   0  0  0  0  0  0  0  0  0  0  0  0
   -3.0880   25.2710  -30.4420 H   0  0  0  0  0  0  0  0  0  0  0  0
   -7.9591   24.3239  -31.0179 H   0  0  0  0  0  0  0  0  0  0  0  0
   -9.2998   21.9774  -31.9436 H   0  0  0  0  0  0  0  0  0  0  0  0
   -8.8969   19.6553  -32.8219 H   0  0  0  0  0  0  0  0  0  0  0  0
   -6.9730   17.1580  -31.5300 H   0  0  0  0  0  0  0  0  0  0  0  0
   -6.4175   15.2250  -33.1827 H   0  0  0  0  0  0  0  0  0  0  0  0
   -5.7742   16.3463  -35.5169 H   0  0  0  0  0  0  0  0  0  0  0  0
   -4.5942   20.2561  -32.4359 H   0  0  0  0  0  0  0  0  0  0  0  0
  1  2  1  0
  2  3  1  0
  3  4  2  0
  3  5  1  0
  5  6  1  0
  6  7  1  0
  7  8  1  0
  7  9  2  0
  6 10  2  0
 10 11  1  0
 11 12  2  0
 12 13  1  0
 13 14  2  0
 14 15  1  0
 15 16  2  0
 16 17  1  0
 17 18  2  0
 18 19  1  0
 14 20  1  0
 20 21  2  0
 21  5  1  0
 21 11  1  0
 19 15  1  0
  1 22  1  0
  1 23  1  0
  1 24  1  0
  8 25  1  0
 10 26  1  0
 12 27  1  0
 13 28  1  0
 16 29  1  0
 17 30  1  0
 18 31  1  0
 20 32  1  0
M  CHG  2   8  -1  16   1
M  END
>  <UniqueID>  (50) 
50

>  <SMILES>  (50) 
COC(=O)n1c(C([NH-])=O)cc2ccc(-c3[nH+]cco3)cc21

>  <Energy>  (50) 
102.87089917157354

>  <Genealogy>  (50) 
COC(=O)n1c(C([NH-])=O)cc2ccc(-c3[nH+]cco3)cc21 (protonated)
COC(=O)n1c(C([NH-])=O)cc2ccc(-c3[nH+]cco3)cc21 (3D coordinates assigned)
COC(=O)n1c(C([NH-])=O)cc2ccc(-c3[nH+]cco3)cc21 (optimized conformer: 102.87089917157354 kcal/mol)

>  <smiles>  (50) 
COC(=O)n1c(C(N)=O)cc2ccc(-c3ncco3)cc21

>  <score_type>  (50) 
oracle

>  <origin>  (50) 
adg

>  <m_score__min__energy>  (50) 
-9.1600000000000001

>  <m_primary>  (50) 
energy

$$$$
51:0
     RDKit          3D

 41 42  0  0  0  0  0  0  0  0999 V2000
   -5.4070   17.5010  -34.8560 C   0  0  0  0  0  0  0  0  0  0  0  0
   -5.5060   18.3440  -33.6500 N   0  0  0  0  0  0  0  0  0  0  0  0
   -4.1690   18.8680  -33.3130 C   0  0  0  0  0  0  0  0  0  0  0  0
   -6.0540   17.5840  -32.5050 C   0  0  0  0  0  0  0  0  0  0  0  0
   -7.4800   18.0580  -32.1620 C   0  0  0  0  0  0  0  0  0  0  0  0
   -7.9570   19.1030  -33.0860 N   0  0  0  0  0  0  0  0  0  0  0  0
   -7.8410   20.4210  -32.5060 C   0  0  0  0  0  0  0  0  0  0  0  0
   -9.0080   21.1490  -32.1520 C   0  0  0  0  0  0  0  0  0  0  0  0
   -8.9110   22.4290  -31.5830 C   0  0  0  0  0  0  0  0  0  0  0  0
   -7.6400   22.9620  -31.3900 C   0  0  0  0  0  0  0  0  0  0  0  0
   -7.2610   24.1640  -30.8400 C   0  0  0  0  0  0  0  0  0  0  0  0
   -5.8680   24.1700  -30.8850 C   0  0  0  0  0  0  0  0  0  0  0  0
   -5.0490   25.3290  -30.4730 C   0  0  0  0  0  0  0  0  0  0  0  0
   -3.6260   25.2750  -30.5080 N   0  0  0  0  0  0  0  0  0  0  0  0
   -5.6130   26.4040  -30.1350 O   0  0  0  0  0  0  0  0  0  0  0  0
   -5.4030   23.0100  -31.4330 N   0  0  0  0  0  0  0  0  0  0  0  0
   -4.0360   22.5870  -31.5670 C   0  0  0  0  0  0  0  0  0  0  0  0
   -3.5570   22.3720  -32.7140 O   0  0  0  0  0  0  0  0  0  0  0  0
   -3.2550   22.3920  -30.4180 O   0  0  0  0  0  0  0  0  0  0  0  0
   -1.8820   22.6510  -30.3250 C   0  0  0  0  0  0  0  0  0  0  0  0
   -1.0280   21.8400  -30.7730 O   0  0  0  0  0  0  0  0  0  0  0  0
   -1.4550   23.8310  -29.7300 O   0  0  0  0  0  0  0  0  0  0  0  0
   -6.5010   22.2830  -31.7400 C   0  0  0  0  0  0  0  0  0  0  0  0
   -6.5670   20.9970  -32.2870 C   0  0  0  0  0  0  0  0  0  0  0  0
   -5.2835   16.4491  -34.5589 H   0  0  0  0  0  0  0  0  0  0  0  0
   -6.3239   17.6078  -35.4543 H   0  0  0  0  0  0  0  0  0  0  0  0
   -4.5398   17.8173  -35.4543 H   0  0  0  0  0  0  0  0  0  0  0  0
   -4.0573   18.9118  -32.2196 H   0  0  0  0  0  0  0  0  0  0  0  0
   -3.3986   18.2053  -33.7341 H   0  0  0  0  0  0  0  0  0  0  0  0
   -4.0541   19.8777  -33.7341 H   0  0  0  0  0  0  0  0  0  0  0  0
   -6.0821   16.5150  -32.7627 H   0  0  0  0  0  0  0  0  0  0  0  0
   -5.4081   17.7517  -31.6305 H   0  0  0  0  0  0  0  0  0  0  0  0
   -8.1625   17.1972  -32.2181 H   0  0  0  0  0  0  0  0  0  0  0  0
   -7.4588   18.4869  -31.1493 H   0  0  0  0  0  0  0  0  0  0  0  0
   -8.9450   18.9070  -33.3750 H   0  0  0  0  0  0  0  0  0  0  0  0
   -7.3720   19.0690  -33.9540 H   0  0  0  0  0  0  0  0  0  0  0  0
   -9.9993   20.7049  -32.3256 H   0  0  0  0  0  0  0  0  0  0  0  0
   -9.8116   22.9929  -31.2986 H   0  0  0  0  0  0  0  0  0  0  0  0
   -7.9183   24.9538  -30.4475 H   0  0  0  0  0  0  0  0  0  0  0  0
   -3.1290   24.4930  -30.9910 H   0  0  0  0  0  0  0  0  0  0  0  0
   -5.6494   20.4461  -32.5411 H   0  0  0  0  0  0  0  0  0  0  0  0
  1  2  1  0
  2  3  1  0
  2  4  1  0
  4  5  1  0
  5  6  1  0
  6  7  1  0
  7  8  2  0
  8  9  1  0
  9 10  2  0
 10 11  1  0
 11 12  2  0
 12 13  1  0
 13 14  1  0
 13 15  2  0
 12 16  1  0
 16 17  1  0
 17 18  2  0
 17 19  1  0
 19 20  1  0
 20 21  2  0
 20 22  1  0
 16 23  1  0
 23 24  2  0
 24  7  1  0
 23 10  1  0
  1 25  1  0
  1 26  1  0
  1 27  1  0
  3 28  1  0
  3 29  1  0
  3 30  1  0
  4 31  1  0
  4 32  1  0
  5 33  1  0
  5 34  1  0
  6 35  1  0
  6 36  1  0
  8 37  1  0
  9 38  1  0
 11 39  1  0
 14 40  1  0
 24 41  1  0
M  CHG  3   6   1  14  -1  22  -1
M  END
>  <UniqueID>  (51) 
51

>  <SMILES>  (51) 
CN(C)CC[NH2+]c1ccc2cc(C([NH-])=O)n(C(=O)OC(=O)[O-])c2c1

>  <Energy>  (51) 
82.07359052364235

>  <Genealogy>  (51) 
CN(C)CC[NH2+]c1ccc2cc(C([NH-])=O)n(C(=O)OC(=O)[O-])c2c1 (protonated)
CN(C)CC[NH2+]c1ccc2cc(C([NH-])=O)n(C(=O)OC(=O)[O-])c2c1 (3D coordinates assigned)
CN(C)CC[NH2+]c1ccc2cc(C([NH-])=O)n(C(=O)OC(=O)[O-])c2c1 (optimized conformer: 82.07359052364235 kcal/mol)

>  <smiles>  (51) 
CN(C)CCNc1ccc2cc(C(N)=O)n(C(=O)OC(=O)O)c2c1

>  <score_type>  (51) 
oracle

>  <origin>  (51) 
adg

>  <m_score__min__energy>  (51) 
-9.8800000000000008

>  <m_primary>  (51) 
energy

$$$$
52:0
     RDKit          3D

 41 42  0  0  0  0  0  0  0  0999 V2000
   -4.2500   24.9270  -26.4120 C   0  0  0  0  0  0  0  0  0  0  0  0
   -2.7330   24.8480  -26.3570 C   0  0  0  0  0  0  0  0  0  0  0  0
   -2.1960   25.0760  -27.6570 O   0  0  0  0  0  0  0  0  0  0  0  0
   -2.3210   24.1470  -28.6950 C   0  0  0  0  0  0  0  0  0  0  0  0
   -1.5670   24.2100  -29.7060 O   0  0  0  0  0  0  0  0  0  0  0  0
   -3.3040   23.0240  -28.5790 C   0  0  0  0  0  0  0  0  0  0  0  0
   -3.2040   22.1190  -29.7330 N   0  0  0  0  0  0  0  0  0  0  0  0
   -2.4990   20.8390  -29.6080 C   0  0  0  0  0  0  0  0  0  0  0  0
   -3.7640   22.5050  -31.0040 C   0  0  0  0  0  0  0  0  0  0  0  0
   -3.0230   22.6150  -32.0190 O   0  0  0  0  0  0  0  0  0  0  0  0
   -5.1690   22.7570  -31.1370 N   0  0  0  0  0  0  0  0  0  0  0  0
   -5.8330   23.9210  -30.8980 C   0  0  0  0  0  0  0  0  0  0  0  0
   -5.2120   25.2030  -30.4990 C   0  0  0  0  0  0  0  0  0  0  0  0
   -3.8590   25.4980  -30.8330 N   0  0  0  0  0  0  0  0  0  0  0  0
   -5.8860   26.0500  -29.8550 O   0  0  0  0  0  0  0  0  0  0  0  0
   -7.2020   23.7470  -31.0980 C   0  0  0  0  0  0  0  0  0  0  0  0
   -7.3530   22.4260  -31.4630 C   0  0  0  0  0  0  0  0  0  0  0  0
   -8.5020   21.7010  -31.7670 C   0  0  0  0  0  0  0  0  0  0  0  0
   -8.3550   20.3410  -32.0920 C   0  0  0  0  0  0  0  0  0  0  0  0
   -7.0730   19.7370  -32.1070 C   0  0  0  0  0  0  0  0  0  0  0  0
   -6.9180   18.2830  -32.4370 C   0  0  0  0  0  0  0  0  0  0  0  0
   -5.9320   20.5030  -31.7890 C   0  0  0  0  0  0  0  0  0  0  0  0
   -6.1090   21.8530  -31.4750 C   0  0  0  0  0  0  0  0  0  0  0  0
   -4.6534   24.9480  -25.3889 H   0  0  0  0  0  0  0  0  0  0  0  0
   -4.5505   25.8420  -26.9435 H   0  0  0  0  0  0  0  0  0  0  0  0
   -4.6439   24.0482  -26.9435 H   0  0  0  0  0  0  0  0  0  0  0  0
   -2.3513   25.6121  -25.6639 H   0  0  0  0  0  0  0  0  0  0  0  0
   -2.4312   23.8500  -26.0065 H   0  0  0  0  0  0  0  0  0  0  0  0
   -3.0977   22.4582  -27.6585 H   0  0  0  0  0  0  0  0  0  0  0  0
   -4.3192   23.4467  -28.5504 H   0  0  0  0  0  0  0  0  0  0  0  0
   -2.3654   20.5964  -28.5434 H   0  0  0  0  0  0  0  0  0  0  0  0
   -3.0881   20.0470  -30.0934 H   0  0  0  0  0  0  0  0  0  0  0  0
   -1.5147   20.9136  -30.0934 H   0  0  0  0  0  0  0  0  0  0  0  0
   -3.1780   24.7350  -31.0430 H   0  0  0  0  0  0  0  0  0  0  0  0
   -7.9934   24.5030  -30.9879 H   0  0  0  0  0  0  0  0  0  0  0  0
   -9.4935   22.1771  -31.7534 H   0  0  0  0  0  0  0  0  0  0  0  0
   -9.2433   19.7402  -32.3369 H   0  0  0  0  0  0  0  0  0  0  0  0
   -6.8559   17.7003  -31.5061 H   0  0  0  0  0  0  0  0  0  0  0  0
   -7.7853   17.9457  -33.0235 H   0  0  0  0  0  0  0  0  0  0  0  0
   -5.9991   18.1361  -33.0235 H   0  0  0  0  0  0  0  0  0  0  0  0
   -4.9297   20.0497  -31.7882 H   0  0  0  0  0  0  0  0  0  0  0  0
  1  2  1  0
  2  3  1  0
  3  4  1  0
  4  5  2  0
  4  6  1  0
  6  7  1  0
  7  8  1  0
  7  9  1  0
  9 10  2  0
  9 11  1  0
 11 12  1  0
 12 13  1  0
 13 14  1  0
 13 15  2  0
 12 16  2  0
 16 17  1  0
 17 18  2  0
 18 19  1  0
 19 20  2  0
 20 21  1  0
 20 22  1  0
 22 23  2  0
 23 11  1  0
 23 17  1  0
  1 24  1  0
  1 25  1  0
  1 26  1  0
  2 27  1  0
  2 28  1  0
  6 29  1  0
  6 30  1  0
  8 31  1  0
  8 32  1  0
  8 33  1  0
 14 34  1  0
 16 35  1  0
 18 36  1  0
 19 37  1  0
 21 38  1  0
 21 39  1  0
 21 40  1  0
 22 41  1  0
M  CHG  1  14  -1
M  END
>  <UniqueID>  (52) 
52

>  <SMILES>  (52) 
CCOC(=O)CN(C)C(=O)n1c(C([NH-])=O)cc2ccc(C)cc21

>  <Energy>  (52) 
70.43132053296694

>  <Genealogy>  (52) 
CCOC(=O)CN(C)C(=O)n1c(C([NH-])=O)cc2ccc(C)cc21 (protonated)
CCOC(=O)CN(C)C(=O)n1c(C([NH-])=O)cc2ccc(C)cc21 (3D coordinates assigned)
CCOC(=O)CN(C)C(=O)n1c(C([NH-])=O)cc2ccc(C)cc21 (optimized conformer: 70.43132053296694 kcal/mol)

>  <smiles>  (52) 
CCOC(=O)CN(C)C(=O)n1c(C(N)=O)cc2ccc(C)cc21

>  <score_type>  (52) 
oracle

>  <origin>  (52) 
adg

>  <m_score__min__energy>  (52) 
-10.210000000000001

>  <m_primary>  (52) 
energy

$$$$
53:0
     RDKit          3D

 61 63  0  0  0  0  0  0  0  0999 V2000
   -5.4850   11.9820  -31.7480 C   0  0  0  0  0  0  0  0  0  0  0  0
   -4.8450   13.3060  -31.8420 N   0  0  0  0  0  0  0  0  0  0  0  0
   -3.5060   13.2990  -31.2330 C   0  0  0  0  0  0  0  0  0  0  0  0
   -4.8510   13.8450  -33.2240 C   0  0  0  0  0  0  0  0  0  0  0  0
   -4.2170   15.2110  -33.3500 C   0  0  0  0  0  0  0  0  0  0  0  0
   -2.9820   15.3140  -33.5950 O   0  0  0  0  0  0  0  0  0  0  0  0
   -5.0090   16.3980  -33.1840 N   0  0  0  0  0  0  0  0  0  0  0  0
   -5.7100   16.6280  -31.9120 C   0  0  0  0  0  0  0  0  0  0  0  0
   -7.0100   17.3930  -32.1570 C   0  0  0  0  0  0  0  0  0  0  0  0
   -6.7320   18.5600  -33.0010 N   0  0  0  0  0  0  0  0  0  0  0  0
   -6.9130   19.8970  -32.4950 C   0  0  0  0  0  0  0  0  0  0  0  0
   -8.2150   20.4450  -32.3600 C   0  0  0  0  0  0  0  0  0  0  0  0
   -8.3970   21.7570  -31.8900 C   0  0  0  0  0  0  0  0  0  0  0  0
   -7.2640   22.4950  -31.5640 C   0  0  0  0  0  0  0  0  0  0  0  0
   -7.1500   23.7950  -31.1230 C   0  0  0  0  0  0  0  0  0  0  0  0
   -5.7830   24.0210  -30.9840 C   0  0  0  0  0  0  0  0  0  0  0  0
   -5.2130   25.2840  -30.4640 C   0  0  0  0  0  0  0  0  0  0  0  0
   -3.8860   25.6650  -30.8260 N   0  0  0  0  0  0  0  0  0  0  0  0
   -5.8910   26.0430  -29.7240 O   0  0  0  0  0  0  0  0  0  0  0  0
   -5.0790   22.9050  -31.3270 N   0  0  0  0  0  0  0  0  0  0  0  0
   -3.6550   22.7510  -31.3900 C   0  0  0  0  0  0  0  0  0  0  0  0
   -3.1290   22.2520  -32.4190 O   0  0  0  0  0  0  0  0  0  0  0  0
   -2.8660   23.1820  -30.3120 O   0  0  0  0  0  0  0  0  0  0  0  0
   -2.8530   22.6240  -28.9900 C   0  0  0  0  0  0  0  0  0  0  0  0
   -4.0560   23.1310  -28.1710 C   0  0  0  0  0  0  0  0  0  0  0  0
   -1.5300   22.9590  -28.2760 C   0  0  0  0  0  0  0  0  0  0  0  0
   -2.9630   21.0990  -29.1420 C   0  0  0  0  0  0  0  0  0  0  0  0
   -6.0000   21.9800  -31.6770 C   0  0  0  0  0  0  0  0  0  0  0  0
   -5.7870   20.6810  -32.1530 C   0  0  0  0  0  0  0  0  0  0  0  0
   -6.0820   18.3090  -34.2930 C   0  0  0  0  0  0  0  0  0  0  0  0
   -4.7740   17.5470  -34.0690 C   0  0  0  0  0  0  0  0  0  0  0  0
   -5.6155   11.7121  -30.6896 H   0  0  0  0  0  0  0  0  0  0  0  0
   -6.4673   12.0136  -32.2421 H   0  0  0  0  0  0  0  0  0  0  0  0
   -4.8500   11.2319  -32.2421 H   0  0  0  0  0  0  0  0  0  0  0  0
   -3.6016   13.2995  -30.1372 H   0  0  0  0  0  0  0  0  0  0  0  0
   -2.9623   12.3980  -31.5532 H   0  0  0  0  0  0  0  0  0  0  0  0
   -2.9529   14.1943  -31.5532 H   0  0  0  0  0  0  0  0  0  0  0  0
   -4.3002   13.1463  -33.8709 H   0  0  0  0  0  0  0  0  0  0  0  0
   -5.9047   13.9529  -33.5206 H   0  0  0  0  0  0  0  0  0  0  0  0
   -5.9409   15.6596  -31.4440 H   0  0  0  0  0  0  0  0  0  0  0  0
   -5.0639   17.2212  -31.2482 H   0  0  0  0  0  0  0  0  0  0  0  0
   -7.7331   16.7367  -32.6634 H   0  0  0  0  0  0  0  0  0  0  0  0
   -7.4303   17.7241  -31.1959 H   0  0  0  0  0  0  0  0  0  0  0  0
   -9.0916   19.8361  -32.6262 H   0  0  0  0  0  0  0  0  0  0  0  0
   -9.4039   22.1867  -31.7833 H   0  0  0  0  0  0  0  0  0  0  0  0
   -7.9663   24.5046  -30.9229 H   0  0  0  0  0  0  0  0  0  0  0  0
   -3.0610   25.3010  -30.2990 H   0  0  0  0  0  0  0  0  0  0  0  0
   -3.8343   23.0376  -27.0976 H   0  0  0  0  0  0  0  0  0  0  0  0
   -4.2474   24.1863  -28.4154 H   0  0  0  0  0  0  0  0  0  0  0  0
   -4.9450   22.5310  -28.4154 H   0  0  0  0  0  0  0  0  0  0  0  0
   -1.6811   22.9207  -27.1871 H   0  0  0  0  0  0  0  0  0  0  0  0
   -0.7616   22.2271  -28.5655 H   0  0  0  0  0  0  0  0  0  0  0  0
   -1.2025   23.9684  -28.5655 H   0  0  0  0  0  0  0  0  0  0  0  0
   -2.9966   20.6328  -28.1463 H   0  0  0  0  0  0  0  0  0  0  0  0
   -3.8814   20.8509  -29.6943 H   0  0  0  0  0  0  0  0  0  0  0  0
   -2.0897   20.7216  -29.6943 H   0  0  0  0  0  0  0  0  0  0  0  0
   -4.7682   20.2797  -32.2585 H   0  0  0  0  0  0  0  0  0  0  0  0
   -6.7504   17.7102  -34.9291 H   0  0  0  0  0  0  0  0  0  0  0  0
   -5.8666   19.2682  -34.7865 H   0  0  0  0  0  0  0  0  0  0  0  0
   -4.3899   17.1899  -35.0359 H   0  0  0  0  0  0  0  0  0  0  0  0
   -4.0391   18.2191  -33.6019 H   0  0  0  0  0  0  0  0  0  0  0  0
  1  2  1  0
  2  3  1  0
  2  4  1  0
  4  5  1  0
  5  6  2  0
  5  7  1  0
  7  8  1  0
  8  9  1  0
  9 10  1  0
 10 11  1  0
 11 12  2  0
 12 13  1  0
 13 14  2  0
 14 15  1  0
 15 16  2  0
 16 17  1  0
 17 18  1  0
 17 19  2  0
 16 20  1  0
 20 21  1  0
 21 22  2  0
 21 23  1  0
 23 24  1  0
 24 25  1  0
 24 26  1  0
 24 27  1  0
 20 28  1  0
 28 29  2  0
 10 30  1  0
 30 31  1  0
 31  7  1  0
 29 11  1  0
 28 14  1  0
  1 32  1  0
  1 33  1  0
  1 34  1  0
  3 35  1  0
  3 36  1  0
  3 37  1  0
  4 38  1  0
  4 39  1  0
  8 40  1  0
  8 41  1  0
  9 42  1  0
  9 43  1  0
 12 44  1  0
 13 45  1  0
 15 46  1  0
 18 47  1  0
 25 48  1  0
 25 49  1  0
 25 50  1  0
 26 51  1  0
 26 52  1  0
 26 53  1  0
 27 54  1  0
 27 55  1  0
 27 56  1  0
 29 57  1  0
 30 58  1  0
 30 59  1  0
 31 60  1  0
 31 61  1  0
M  CHG  1  18  -1
M  END
>  <UniqueID>  (53) 
53

>  <SMILES>  (53) 
CN(C)CC(=O)N1CCN(c2ccc3cc(C([NH-])=O)n(C(=O)OC(C)(C)C)c3c2)CC1

>  <Energy>  (53) 
104.21436510888704

>  <Genealogy>  (53) 
CN(C)CC(=O)N1CCN(c2ccc3cc(C([NH-])=O)n(C(=O)OC(C)(C)C)c3c2)CC1 (protonated)
CN(C)CC(=O)N1CCN(c2ccc3cc(C([NH-])=O)n(C(=O)OC(C)(C)C)c3c2)CC1 (3D coordinates assigned)
CN(C)CC(=O)N1CCN(c2ccc3cc(C([NH-])=O)n(C(=O)OC(C)(C)C)c3c2)CC1 (nonaromatic ring conformer: 104.21436510888704 kcal/mol)

>  <smiles>  (53) 
CN(C)CC(=O)N1CCN(c2ccc3cc(C(N)=O)n(C(=O)OC(C)(C)C)c3c2)CC1

>  <score_type>  (53) 
oracle

>  <origin>  (53) 
adg

>  <m_score__min__energy>  (53) 
-11.4

>  <m_primary>  (53) 
energy

$$$$
54:0
     RDKit          3D

 34 35  0  0  0  0  0  0  0  0999 V2000
   -9.0950   18.1370  -31.9840 C   0  0  0  0  0  0  0  0  0  0  0  0
   -7.7730   18.7700  -31.9350 N   0  0  0  0  0  0  0  0  0  0  0  0
   -6.5690   17.9480  -32.1600 C   0  0  0  0  0  0  0  0  0  0  0  0
   -5.7360   18.4790  -33.3320 C   0  0  0  0  0  0  0  0  0  0  0  0
   -6.0020   17.7010  -34.5830 C   0  0  0  0  0  0  0  0  0  0  0  0
   -5.6710   18.1720  -35.7040 O   0  0  0  0  0  0  0  0  0  0  0  0
   -6.5740   16.4370  -34.5100 O   0  0  0  0  0  0  0  0  0  0  0  0
   -7.6720   20.1940  -31.6930 C   0  0  0  0  0  0  0  0  0  0  0  0
   -8.8410   21.0020  -31.6780 C   0  0  0  0  0  0  0  0  0  0  0  0
   -8.7590   22.3880  -31.4620 C   0  0  0  0  0  0  0  0  0  0  0  0
   -7.5020   22.9440  -31.2560 C   0  0  0  0  0  0  0  0  0  0  0  0
   -7.1340   24.2520  -31.0400 C   0  0  0  0  0  0  0  0  0  0  0  0
   -5.7470   24.2280  -30.9050 C   0  0  0  0  0  0  0  0  0  0  0  0
   -4.9370   25.4150  -30.5660 C   0  0  0  0  0  0  0  0  0  0  0  0
   -3.5220   25.2960  -30.4370 N   0  0  0  0  0  0  0  0  0  0  0  0
   -5.4770   26.5450  -30.4240 O   0  0  0  0  0  0  0  0  0  0  0  0
   -5.2780   22.9560  -31.0400 N   0  0  0  0  0  0  0  0  0  0  0  0
   -3.9130   22.5120  -31.0400 C   0  0  0  0  0  0  0  0  0  0  0  0
   -3.1290   22.8790  -31.9530 O   0  0  0  0  0  0  0  0  0  0  0  0
   -3.2800   21.4980  -29.6880 S   0  0  0  0  0  0  0  0  0  0  0  0
   -6.3640   22.1820  -31.2510 C   0  0  0  0  0  0  0  0  0  0  0  0
   -6.4110   20.8020  -31.4740 C   0  0  0  0  0  0  0  0  0  0  0  0
   -9.4568   17.9638  -30.9597 H   0  0  0  0  0  0  0  0  0  0  0  0
   -9.7978   18.7963  -32.5145 H   0  0  0  0  0  0  0  0  0  0  0  0
   -9.0220   17.1761  -32.5145 H   0  0  0  0  0  0  0  0  0  0  0  0
   -5.9526   17.9604  -31.2490 H   0  0  0  0  0  0  0  0  0  0  0  0
   -6.8908   16.9243  -32.4017 H   0  0  0  0  0  0  0  0  0  0  0  0
   -5.9923   19.5347  -33.5049 H   0  0  0  0  0  0  0  0  0  0  0  0
   -4.6710   18.3746  -33.0773 H   0  0  0  0  0  0  0  0  0  0  0  0
   -9.8243   20.5356  -31.8378 H   0  0  0  0  0  0  0  0  0  0  0  0
   -9.6631   23.0146  -31.4561 H   0  0  0  0  0  0  0  0  0  0  0  0
   -7.7942   25.1302  -30.9854 H   0  0  0  0  0  0  0  0  0  0  0  0
   -2.9420   24.9130  -31.2170 H   0  0  0  0  0  0  0  0  0  0  0  0
   -5.4892   20.2018  -31.4793 H   0  0  0  0  0  0  0  0  0  0  0  0
  1  2  1  0
  2  3  1  0
  3  4  1  0
  4  5  1  0
  5  6  2  0
  5  7  1  0
  2  8  1  0
  8  9  2  0
  9 10  1  0
 10 11  2  0
 11 12  1  0
 12 13  2  0
 13 14  1  0
 14 15  1  0
 14 16  2  0
 13 17  1  0
 17 18  1  0
 18 19  2  0
 18 20  1  0
 17 21  1  0
 21 22  2  0
 22  8  1  0
 21 11  1  0
  1 23  1  0
  1 24  1  0
  1 25  1  0
  3 26  1  0
  3 27  1  0
  4 28  1  0
  4 29  1  0
  9 30  1  0
 10 31  1  0
 12 32  1  0
 15 33  1  0
 22 34  1  0
M  CHG  3   7  -1  15  -1  20  -1
M  END
>  <UniqueID>  (54) 
54

>  <SMILES>  (54) 
CN(CCC(=O)[O-])c1ccc2cc(C([NH-])=O)n(C(=O)[S-])c2c1

>  <Energy>  (54) 
73.34814205314483

>  <Genealogy>  (54) 
CN(CCC(=O)[O-])c1ccc2cc(C([NH-])=O)n(C(=O)[S-])c2c1 (protonated)
CN(CCC(=O)[O-])c1ccc2cc(C([NH-])=O)n(C(=O)[S-])c2c1 (3D coordinates assigned)
CN(CCC(=O)[O-])c1ccc2cc(C([NH-])=O)n(C(=O)[S-])c2c1 (optimized conformer: 73.34814205314483 kcal/mol)

>  <smiles>  (54) 
CN(CCC(=O)O)c1ccc2cc(C(N)=O)n(C(=O)S)c2c1

>  <score_type>  (54) 
oracle

>  <origin>  (54) 
adg

>  <m_score__min__energy>  (54) 
-9.8800000000000008

>  <m_primary>  (54) 
energy

$$$$
55:0
     RDKit          3D

 28 29  0  0  0  0  0  0  0  0999 V2000
   -3.8620   25.3530  -30.8400 N   0  0  0  0  0  0  0  0  0  0  0  0
   -5.2180   25.1800  -30.4350 C   0  0  0  0  0  0  0  0  0  0  0  0
   -5.7730   26.0700  -29.7390 O   0  0  0  0  0  0  0  0  0  0  0  0
   -5.9630   23.9730  -30.8530 C   0  0  0  0  0  0  0  0  0  0  0  0
   -7.3540   23.8850  -30.8570 C   0  0  0  0  0  0  0  0  0  0  0  0
   -7.6370   22.5970  -31.2540 C   0  0  0  0  0  0  0  0  0  0  0  0
   -8.8630   21.9690  -31.4480 C   0  0  0  0  0  0  0  0  0  0  0  0
   -8.8560   20.6350  -31.8950 C   0  0  0  0  0  0  0  0  0  0  0  0
   -7.6330   19.9630  -32.1430 C   0  0  0  0  0  0  0  0  0  0  0  0
   -7.6290   18.5450  -32.6370 C   0  0  0  0  0  0  0  0  0  0  0  0
   -8.6120   17.8210  -31.9870 F   0  0  0  0  0  0  0  0  0  0  0  0
   -6.3970   17.9690  -32.3880 F   0  0  0  0  0  0  0  0  0  0  0  0
   -6.4090   20.6370  -31.9380 C   0  0  0  0  0  0  0  0  0  0  0  0
   -6.4460   21.9560  -31.4760 C   0  0  0  0  0  0  0  0  0  0  0  0
   -5.4090   22.7870  -31.2320 N   0  0  0  0  0  0  0  0  0  0  0  0
   -4.0150   22.4860  -31.3960 C   0  0  0  0  0  0  0  0  0  0  0  0
   -3.5390   22.3400  -32.5540 O   0  0  0  0  0  0  0  0  0  0  0  0
   -3.1150   22.3460  -30.2050 C   0  0  0  0  0  0  0  0  0  0  0  0
   -2.2250   23.4260  -30.1440 O   0  0  0  0  0  0  0  0  0  0  0  0
   -3.0840   25.3030  -30.1460 H   0  0  0  0  0  0  0  0  0  0  0  0
   -8.0730   24.6762  -30.5981 H   0  0  0  0  0  0  0  0  0  0  0  0
   -9.8081   22.4987  -31.2579 H   0  0  0  0  0  0  0  0  0  0  0  0
   -9.8087   20.1086  -32.0535 H   0  0  0  0  0  0  0  0  0  0  0  0
   -7.8254   18.5403  -33.7193 H   0  0  0  0  0  0  0  0  0  0  0  0
   -5.4499   20.1364  -32.1370 H   0  0  0  0  0  0  0  0  0  0  0  0
   -3.7241   22.3245  -29.2893 H   0  0  0  0  0  0  0  0  0  0  0  0
   -2.5414   21.4117  -30.2953 H   0  0  0  0  0  0  0  0  0  0  0  0
   -2.6100   24.1430  -30.7140 H   0  0  0  0  0  0  0  0  0  0  0  0
  1  2  1  0
  2  3  2  0
  2  4  1  0
  4  5  2  0
  5  6  1  0
  6  7  2  0
  7  8  1  0
  8  9  2  0
  9 10  1  0
 10 11  1  0
 10 12  1  0
  9 13  1  0
 13 14  2  0
 14 15  1  0
 15 16  1  0
 16 17  2  0
 16 18  1  0
 18 19  1  0
 15  4  1  0
 14  6  1  0
  1 20  1  0
  5 21  1  0
  7 22  1  0
  8 23  1  0
 10 24  1  0
 13 25  1  0
 18 26  1  0
 18 27  1  0
 19 28  1  0
M  CHG  1   1  -1
M  END
>  <UniqueID>  (55) 
55

>  <SMILES>  (55) 
[NH-]C(=O)c1cc2ccc(C(F)F)cc2n1C(=O)CO

>  <Energy>  (55) 
66.45102068225762

>  <Genealogy>  (55) 
[NH-]C(=O)c1cc2ccc(C(F)F)cc2n1C(=O)CO (protonated)
[NH-]C(=O)c1cc2ccc(C(F)F)cc2n1C(=O)CO (3D coordinates assigned)
[NH-]C(=O)c1cc2ccc(C(F)F)cc2n1C(=O)CO (optimized conformer: 66.45102068225762 kcal/mol)

>  <smiles>  (55) 
NC(=O)c1cc2ccc(C(F)F)cc2n1C(=O)CO

>  <score_type>  (55) 
oracle

>  <origin>  (55) 
adg

>  <m_score__min__energy>  (55) 
-8.3800000000000008

>  <m_primary>  (55) 
energy

$$$$
56:0
     RDKit          3D

 54 56  0  0  0  0  0  0  0  0999 V2000
   -9.4950   21.9060  -30.9880 C   0  0  0  0  0  0  0  0  0  0  0  0
   -8.3990   21.0780  -31.5930 C   0  0  0  0  0  0  0  0  0  0  0  0
   -8.6750   19.7710  -32.0570 C   0  0  0  0  0  0  0  0  0  0  0  0
   -7.6500   18.9620  -32.5740 C   0  0  0  0  0  0  0  0  0  0  0  0
   -6.3600   19.4830  -32.5950 C   0  0  0  0  0  0  0  0  0  0  0  0
   -5.1810   18.9070  -33.0080 C   0  0  0  0  0  0  0  0  0  0  0  0
   -4.2030   19.8740  -32.7920 C   0  0  0  0  0  0  0  0  0  0  0  0
   -2.8050   19.7220  -33.2370 C   0  0  0  0  0  0  0  0  0  0  0  0
   -2.1470   20.7610  -33.9640 N   0  0  0  0  0  0  0  0  0  0  0  0
   -2.2010   18.6360  -33.0260 O   0  0  0  0  0  0  0  0  0  0  0  0
   -4.7480   20.9940  -32.2420 N   0  0  0  0  0  0  0  0  0  0  0  0
   -4.0590   22.1510  -31.7290 C   0  0  0  0  0  0  0  0  0  0  0  0
   -3.1160   22.6580  -32.3920 O   0  0  0  0  0  0  0  0  0  0  0  0
   -4.4600   22.7860  -30.4310 C   0  0  0  0  0  0  0  0  0  0  0  0
   -4.1310   24.2550  -30.3990 C   0  0  0  0  0  0  0  0  0  0  0  0
   -4.7210   25.0210  -31.2100 O   0  0  0  0  0  0  0  0  0  0  0  0
   -3.1510   24.8190  -29.5140 N   0  0  0  0  0  0  0  0  0  0  0  0
   -1.7760   24.3670  -29.3220 C   0  0  0  0  0  0  0  0  0  0  0  0
   -1.4990   23.0510  -30.0700 C   0  0  0  0  0  0  0  0  0  0  0  0
   -0.7470   22.0920  -29.2300 N   0  0  0  0  0  0  0  0  0  0  0  0
   -0.8860   22.4230  -27.7900 C   0  0  0  0  0  0  0  0  0  0  0  0
   -1.9800   21.5860  -27.1050 C   0  0  0  0  0  0  0  0  0  0  0  0
   -1.6820   20.1360  -27.1640 N   0  0  0  0  0  0  0  0  0  0  0  0
   -2.9250   19.3520  -27.0960 C   0  0  0  0  0  0  0  0  0  0  0  0
   -0.8650   19.7520  -28.3410 C   0  0  0  0  0  0  0  0  0  0  0  0
   -1.1110   20.6830  -29.5370 C   0  0  0  0  0  0  0  0  0  0  0  0
   -6.0730   20.7450  -32.1380 C   0  0  0  0  0  0  0  0  0  0  0  0
   -7.0770   21.5700  -31.6200 C   0  0  0  0  0  0  0  0  0  0  0  0
   -9.4292   21.8563  -29.8911 H   0  0  0  0  0  0  0  0  0  0  0  0
   -9.3881   22.9509  -31.3148 H   0  0  0  0  0  0  0  0  0  0  0  0
  -10.4709   21.5176  -31.3148 H   0  0  0  0  0  0  0  0  0  0  0  0
   -9.7036   19.3838  -32.0125 H   0  0  0  0  0  0  0  0  0  0  0  0
   -7.8601   17.9498  -32.9500 H   0  0  0  0  0  0  0  0  0  0  0  0
   -5.0408   17.8972  -33.4210 H   0  0  0  0  0  0  0  0  0  0  0  0
   -1.1550   20.6400  -34.2710 H   0  0  0  0  0  0  0  0  0  0  0  0
   -2.6520   21.6300  -34.2420 H   0  0  0  0  0  0  0  0  0  0  0  0
   -5.5443   22.6614  -30.2942 H   0  0  0  0  0  0  0  0  0  0  0  0
   -3.8991   22.2935  -29.6231 H   0  0  0  0  0  0  0  0  0  0  0  0
   -1.0907   25.1413  -29.6973 H   0  0  0  0  0  0  0  0  0  0  0  0
   -1.6205   24.1896  -28.2476 H   0  0  0  0  0  0  0  0  0  0  0  0
   -2.4581   22.5963  -30.3587 H   0  0  0  0  0  0  0  0  0  0  0  0
   -0.8897   23.2819  -30.9563 H   0  0  0  0  0  0  0  0  0  0  0  0
    0.0737   22.2308  -27.2880 H   0  0  0  0  0  0  0  0  0  0  0  0
   -1.1727   23.4822  -27.7128 H   0  0  0  0  0  0  0  0  0  0  0  0
   -2.0543   21.8915  -26.0509 H   0  0  0  0  0  0  0  0  0  0  0  0
   -2.9273   21.7620  -27.6356 H   0  0  0  0  0  0  0  0  0  0  0  0
   -3.1943   19.1822  -26.0431 H   0  0  0  0  0  0  0  0  0  0  0  0
   -3.7342   19.9035  -27.5970 H   0  0  0  0  0  0  0  0  0  0  0  0
   -2.7759   18.3841  -27.5970 H   0  0  0  0  0  0  0  0  0  0  0  0
    0.1990   19.7997  -28.0662 H   0  0  0  0  0  0  0  0  0  0  0  0
   -1.1526   18.7326  -28.6377 H   0  0  0  0  0  0  0  0  0  0  0  0
   -0.5050   20.3368  -30.3872 H   0  0  0  0  0  0  0  0  0  0  0  0
   -2.1844   20.6535  -29.7755 H   0  0  0  0  0  0  0  0  0  0  0  0
   -6.8418   22.5764  -31.2434 H   0  0  0  0  0  0  0  0  0  0  0  0
  1  2  1  0
  2  3  2  0
  3  4  1  0
  4  5  2  0
  5  6  1  0
  6  7  2  0
  7  8  1  0
  8  9  1  0
  8 10  2  0
  7 11  1  0
 11 12  1  0
 12 13  2  0
 12 14  1  0
 14 15  1  0
 15 16  2  0
 15 17  1  0
 17 18  1  0
 18 19  1  0
 19 20  1  0
 20 21  1  0
 21 22  1  0
 22 23  1  0
 23 24  1  0
 23 25  1  0
 25 26  1  0
 11 27  1  0
 27 28  2  0
 28  2  1  0
 27  5  1  0
 26 20  1  0
  1 29  1  0
  1 30  1  0
  1 31  1  0
  3 32  1  0
  4 33  1  0
  6 34  1  0
  9 35  1  0
  9 36  1  0
 14 37  1  0
 14 38  1  0
 18 39  1  0
 18 40  1  0
 19 41  1  0
 19 42  1  0
 21 43  1  0
 21 44  1  0
 22 45  1  0
 22 46  1  0
 24 47  1  0
 24 48  1  0
 24 49  1  0
 25 50  1  0
 25 51  1  0
 26 52  1  0
 26 53  1  0
 28 54  1  0
M  CHG  1  17  -1
M  END
>  <UniqueID>  (56) 
56

>  <SMILES>  (56) 
Cc1ccc2cc(C(N)=O)n(C(=O)CC(=O)[N-]CCN3CCN(C)CC3)c2c1

>  <Energy>  (56) 
104.13807206165818

>  <Genealogy>  (56) 
Cc1ccc2cc(C(N)=O)n(C(=O)CC(=O)[N-]CCN3CCN(C)CC3)c2c1 (protonated)
Cc1ccc2cc(C(N)=O)n(C(=O)CC(=O)[N-]CCN3CCN(C)CC3)c2c1 (3D coordinates assigned)
Cc1ccc2cc(C(N)=O)n(C(=O)CC(=O)[N-]CCN3CCN(C)CC3)c2c1 (nonaromatic ring conformer: 104.13807206165818 kcal/mol)

>  <smiles>  (56) 
Cc1ccc2cc(C(N)=O)n(C(=O)CC(=O)NCCN3CCN(C)CC3)c2c1

>  <score_type>  (56) 
oracle

>  <origin>  (56) 
adg

>  <m_score__min__energy>  (56) 
-10.4

>  <m_primary>  (56) 
energy

$$$$
57:0
     RDKit          3D

 49 50  0  0  0  0  0  0  0  0999 V2000
   -1.8130   18.3640  -34.2020 C   0  0  0  0  0  0  0  0  0  0  0  0
   -3.0720   18.9400  -33.8780 O   0  0  0  0  0  0  0  0  0  0  0  0
   -3.2200   19.9160  -32.8880 C   0  0  0  0  0  0  0  0  0  0  0  0
   -3.9030   19.6830  -31.8530 O   0  0  0  0  0  0  0  0  0  0  0  0
   -2.5910   21.2600  -33.0770 C   0  0  0  0  0  0  0  0  0  0  0  0
   -3.5440   22.2950  -32.8490 O   0  0  0  0  0  0  0  0  0  0  0  0
   -4.0050   22.6460  -31.5750 C   0  0  0  0  0  0  0  0  0  0  0  0
   -3.2160   22.6560  -30.5910 O   0  0  0  0  0  0  0  0  0  0  0  0
   -5.3770   23.0270  -31.3930 N   0  0  0  0  0  0  0  0  0  0  0  0
   -5.8590   24.2050  -30.9020 C   0  0  0  0  0  0  0  0  0  0  0  0
   -5.0560   25.4040  -30.5850 C   0  0  0  0  0  0  0  0  0  0  0  0
   -3.6390   25.2980  -30.4690 N   0  0  0  0  0  0  0  0  0  0  0  0
   -5.6100   26.5160  -30.3800 O   0  0  0  0  0  0  0  0  0  0  0  0
   -7.2480   24.1620  -30.8060 C   0  0  0  0  0  0  0  0  0  0  0  0
   -7.6070   22.9140  -31.2620 C   0  0  0  0  0  0  0  0  0  0  0  0
   -8.8640   22.3260  -31.3670 C   0  0  0  0  0  0  0  0  0  0  0  0
   -8.9360   21.0060  -31.8430 C   0  0  0  0  0  0  0  0  0  0  0  0
   -7.7600   20.3010  -32.2060 C   0  0  0  0  0  0  0  0  0  0  0  0
   -7.8510   18.8800  -32.6980 C   0  0  0  0  0  0  0  0  0  0  0  0
   -6.6520   17.9910  -32.2800 C   0  0  0  0  0  0  0  0  0  0  0  0
   -5.6560   17.7010  -33.3410 N   0  0  2  0  0  0  0  0  0  0  0  0
   -5.8980   18.4390  -34.5950 C   0  0  0  0  0  0  0  0  0  0  0  0
   -5.4900   16.2820  -33.5600 C   0  0  0  0  0  0  0  0  0  0  0  0
   -6.3550   15.6220  -34.2040 O   0  0  0  0  0  0  0  0  0  0  0  0
   -4.3830   15.6320  -33.0070 O   0  0  0  0  0  0  0  0  0  0  0  0
   -4.4920   14.4090  -32.2880 C   0  0  0  0  0  0  0  0  0  0  0  0
   -6.4990   20.9260  -32.0660 C   0  0  0  0  0  0  0  0  0  0  0  0
   -6.4590   22.2490  -31.6090 C   0  0  0  0  0  0  0  0  0  0  0  0
   -1.2735   18.1172  -33.2757 H   0  0  0  0  0  0  0  0  0  0  0  0
   -1.9694   17.4479  -34.7905 H   0  0  0  0  0  0  0  0  0  0  0  0
   -1.2221   19.0814  -34.7905 H   0  0  0  0  0  0  0  0  0  0  0  0
   -1.7580   21.3726  -32.3675 H   0  0  0  0  0  0  0  0  0  0  0  0
   -2.2227   21.3376  -34.1106 H   0  0  0  0  0  0  0  0  0  0  0  0
   -3.0840   24.7430  -31.1580 H   0  0  0  0  0  0  0  0  0  0  0  0
   -7.9161   24.9568  -30.4428 H   0  0  0  0  0  0  0  0  0  0  0  0
   -9.7732   22.8777  -31.0860 H   0  0  0  0  0  0  0  0  0  0  0  0
   -9.9154   20.5138  -31.9352 H   0  0  0  0  0  0  0  0  0  0  0  0
   -8.7711   18.4323  -32.2943 H   0  0  0  0  0  0  0  0  0  0  0  0
   -7.8481   18.9226  -33.7972 H   0  0  0  0  0  0  0  0  0  0  0  0
   -6.1282   18.4980  -31.4562 H   0  0  0  0  0  0  0  0  0  0  0  0
   -7.0857   17.0178  -32.0065 H   0  0  0  0  0  0  0  0  0  0  0  0
   -4.7370   18.0520  -32.9810 H   0  0  0  0  0  0  0  0  0  0  0  0
   -6.2329   19.4602  -34.3607 H   0  0  0  0  0  0  0  0  0  0  0  0
   -4.9674   18.4834  -35.1798 H   0  0  0  0  0  0  0  0  0  0  0  0
   -6.6742   17.9237  -35.1798 H   0  0  0  0  0  0  0  0  0  0  0  0
   -4.4736   14.6158  -31.2078 H   0  0  0  0  0  0  0  0  0  0  0  0
   -5.4379   13.9126  -32.5502 H   0  0  0  0  0  0  0  0  0  0  0  0
   -3.6488   13.7531  -32.5502 H   0  0  0  0  0  0  0  0  0  0  0  0
   -5.5723   20.3860  -32.3102 H   0  0  0  0  0  0  0  0  0  0  0  0
  1  2  1  0
  2  3  1  0
  3  4  2  0
  3  5  1  0
  5  6  1  0
  6  7  1  0
  7  8  2  0
  7  9  1  0
  9 10  1  0
 10 11  1  0
 11 12  1  0
 11 13  2  0
 10 14  2  0
 14 15  1  0
 15 16  2  0
 16 17  1  0
 17 18  2  0
 18 19  1  0
 19 20  1  0
 20 21  1  0
 21 22  1  0
 21 23  1  0
 23 24  2  0
 23 25  1  0
 25 26  1  0
 18 27  1  0
 27 28  2  0
 28  9  1  0
 28 15  1  0
  1 29  1  0
  1 30  1  0
  1 31  1  0
  5 32  1  0
  5 33  1  0
 12 34  1  0
 14 35  1  0
 16 36  1  0
 17 37  1  0
 19 38  1  0
 19 39  1  0
 20 40  1  0
 20 41  1  0
 21 42  1  1
 22 43  1  0
 22 44  1  0
 22 45  1  0
 26 46  1  0
 26 47  1  0
 26 48  1  0
 27 49  1  0
M  CHG  2  12  -1  21   1
M  END
>  <UniqueID>  (57) 
57

>  <SMILES>  (57) 
COC(=O)COC(=O)n1c(C([NH-])=O)cc2ccc(CC[N@H+](C)C(=O)OC)cc21

>  <Energy>  (57) 
85.25757205314306

>  <Genealogy>  (57) 
COC(=O)COC(=O)n1c(C([NH-])=O)cc2ccc(CC[NH+](C)C(=O)OC)cc21 (protonated)
COC(=O)COC(=O)n1c(C([NH-])=O)cc2ccc(CC[N@H+](C)C(=O)OC)cc21 (chirality)
COC(=O)COC(=O)n1c(C([NH-])=O)cc2ccc(CC[N@H+](C)C(=O)OC)cc21 (3D coordinates assigned)
COC(=O)COC(=O)n1c(C([NH-])=O)cc2ccc(CC[N@H+](C)C(=O)OC)cc21 (optimized conformer: 85.25757205314306 kcal/mol)

>  <smiles>  (57) 
COC(=O)COC(=O)n1c(C(N)=O)cc2ccc(CCN(C)C(=O)OC)cc21

>  <score_type>  (57) 
oracle

>  <origin>  (57) 
adg

>  <m_score__min__energy>  (57) 
-8.8100000000000005

>  <m_primary>  (57) 
energy

$$$$
58:0
     RDKit          3D

 37 39  0  0  0  0  0  0  0  0999 V2000
   -3.9040   25.6620  -30.8610 N   0  0  0  0  0  0  0  0  0  0  0  0
   -5.1720   25.1260  -30.4930 C   0  0  0  0  0  0  0  0  0  0  0  0
   -5.8900   25.7530  -29.6690 O   0  0  0  0  0  0  0  0  0  0  0  0
   -5.6300   23.8220  -31.0180 C   0  0  0  0  0  0  0  0  0  0  0  0
   -6.9710   23.5100  -31.2270 C   0  0  0  0  0  0  0  0  0  0  0  0
   -6.9820   22.1950  -31.6280 C   0  0  0  0  0  0  0  0  0  0  0  0
   -8.0500   21.3750  -31.9760 C   0  0  0  0  0  0  0  0  0  0  0  0
   -7.7680   20.0600  -32.3800 C   0  0  0  0  0  0  0  0  0  0  0  0
   -6.4300   19.5880  -32.4410 C   0  0  0  0  0  0  0  0  0  0  0  0
   -6.1540   18.2350  -32.8670 N   0  0  0  0  0  0  0  0  0  0  0  0
   -5.8290   17.2130  -31.8600 C   0  0  0  0  0  0  0  0  0  0  0  0
   -5.1660   15.9850  -32.4920 C   0  0  0  0  0  0  0  0  0  0  0  0
   -5.9550   15.5190  -33.6400 N   0  0  0  0  0  0  0  0  0  0  0  0
   -6.1000   14.1120  -33.9110 C   0  0  0  0  0  0  0  0  0  0  0  0
   -5.5070   13.2560  -33.2020 O   0  0  0  0  0  0  0  0  0  0  0  0
   -6.8980   13.6800  -34.9650 O   0  0  0  0  0  0  0  0  0  0  0  0
   -6.5390   16.4890  -34.5760 C   0  0  0  0  0  0  0  0  0  0  0  0
   -6.0510   17.9160  -34.2990 C   0  0  0  0  0  0  0  0  0  0  0  0
   -5.3720   20.4560  -32.0760 C   0  0  0  0  0  0  0  0  0  0  0  0
   -5.6850   21.7540  -31.6580 C   0  0  0  0  0  0  0  0  0  0  0  0
   -4.8410   22.7430  -31.2880 N   0  0  0  0  0  0  0  0  0  0  0  0
   -3.4050   22.6770  -31.2790 C   0  0  0  0  0  0  0  0  0  0  0  0
   -2.7870   22.1470  -32.2380 O   0  0  0  0  0  0  0  0  0  0  0  0
   -2.6870   23.1730  -30.1980 O   0  0  0  0  0  0  0  0  0  0  0  0
   -3.0220   25.2910  -30.4450 H   0  0  0  0  0  0  0  0  0  0  0  0
   -7.8379   24.1749  -31.0985 H   0  0  0  0  0  0  0  0  0  0  0  0
   -9.0849   21.7455  -31.9360 H   0  0  0  0  0  0  0  0  0  0  0  0
   -8.5941   19.3869  -32.6527 H   0  0  0  0  0  0  0  0  0  0  0  0
   -5.1413   17.6480  -31.1198 H   0  0  0  0  0  0  0  0  0  0  0  0
   -6.7669   16.8897  -31.3847 H   0  0  0  0  0  0  0  0  0  0  0  0
   -4.1540   16.2520  -32.8306 H   0  0  0  0  0  0  0  0  0  0  0  0
   -5.1108   15.1809  -31.7434 H   0  0  0  0  0  0  0  0  0  0  0  0
   -6.2555   16.2089  -35.6013 H   0  0  0  0  0  0  0  0  0  0  0  0
   -7.6314   16.4714  -34.4478 H   0  0  0  0  0  0  0  0  0  0  0  0
   -5.0007   18.0053  -34.6136 H   0  0  0  0  0  0  0  0  0  0  0  0
   -6.6811   18.6196  -34.8629 H   0  0  0  0  0  0  0  0  0  0  0  0
   -4.3265   20.1169  -32.1202 H   0  0  0  0  0  0  0  0  0  0  0  0
  1  2  1  0
  2  3  2  0
  2  4  1  0
  4  5  2  0
  5  6  1  0
  6  7  2  0
  7  8  1  0
  8  9  2  0
  9 10  1  0
 10 11  1  0
 11 12  1  0
 12 13  1  0
 13 14  1  0
 14 15  2  0
 14 16  1  0
 13 17  1  0
 17 18  1  0
  9 19  1  0
 19 20  2  0
 20 21  1  0
 21 22  1  0
 22 23  2  0
 22 24  1  0
 21  4  1  0
 20  6  1  0
 18 10  1  0
  1 25  1  0
  5 26  1  0
  7 27  1  0
  8 28  1  0
 11 29  1  0
 11 30  1  0
 12 31  1  0
 12 32  1  0
 17 33  1  0
 17 34  1  0
 18 35  1  0
 18 36  1  0
 19 37  1  0
M  CHG  3   1  -1  16  -1  24  -1
M  END
>  <UniqueID>  (58) 
58

>  <SMILES>  (58) 
[NH-]C(=O)c1cc2ccc(N3CCN(C(=O)[O-])CC3)cc2n1C(=O)[O-]

>  <Energy>  (58) 
81.54847240610984

>  <Genealogy>  (58) 
[NH-]C(=O)c1cc2ccc(N3CCN(C(=O)[O-])CC3)cc2n1C(=O)[O-] (protonated)
[NH-]C(=O)c1cc2ccc(N3CCN(C(=O)[O-])CC3)cc2n1C(=O)[O-] (3D coordinates assigned)
[NH-]C(=O)c1cc2ccc(N3CCN(C(=O)[O-])CC3)cc2n1C(=O)[O-] (nonaromatic ring conformer: 81.54847240610984 kcal/mol)

>  <smiles>  (58) 
NC(=O)c1cc2ccc(N3CCN(C(=O)O)CC3)cc2n1C(=O)O

>  <score_type>  (58) 
oracle

>  <origin>  (58) 
adg

>  <m_score__min__energy>  (58) 
-10.42

>  <m_primary>  (58) 
energy

$$$$
59:0
     RDKit          3D

 34 35  0  0  0  0  0  0  0  0999 V2000
   -3.9070   18.7330  -34.1620 N   0  0  0  0  0  0  0  0  0  0  0  0
   -5.2280   19.2650  -34.1180 C   0  0  0  0  0  0  0  0  0  0  0  0
   -6.1330   18.7320  -34.8150 O   0  0  0  0  0  0  0  0  0  0  0  0
   -5.5630   20.3920  -33.2260 C   0  0  0  0  0  0  0  0  0  0  0  0
   -6.8660   20.8400  -33.0200 C   0  0  0  0  0  0  0  0  0  0  0  0
   -6.7660   21.8270  -32.0680 C   0  0  0  0  0  0  0  0  0  0  0  0
   -7.7560   22.6190  -31.4920 C   0  0  0  0  0  0  0  0  0  0  0  0
   -7.3640   23.5800  -30.5440 C   0  0  0  0  0  0  0  0  0  0  0  0
   -6.0010   23.7370  -30.2000 C   0  0  0  0  0  0  0  0  0  0  0  0
   -5.6150   24.7190  -29.2330 N   0  0  0  0  0  0  0  0  0  0  0  0
   -5.0220   22.9200  -30.8060 C   0  0  0  0  0  0  0  0  0  0  0  0
   -5.4410   21.9560  -31.7340 C   0  0  0  0  0  0  0  0  0  0  0  0
   -4.6870   21.0820  -32.4380 N   0  0  0  0  0  0  0  0  0  0  0  0
   -3.2520   20.9970  -32.4420 C   0  0  0  0  0  0  0  0  0  0  0  0
   -2.6060   21.3790  -33.4540 O   0  0  0  0  0  0  0  0  0  0  0  0
   -2.5850   20.4810  -31.3240 O   0  0  0  0  0  0  0  0  0  0  0  0
   -1.5220   21.1090  -30.6670 C   0  0  0  0  0  0  0  0  0  0  0  0
   -0.4860   21.4580  -31.2960 O   0  0  0  0  0  0  0  0  0  0  0  0
   -1.6190   21.3260  -29.2900 O   0  0  0  0  0  0  0  0  0  0  0  0
   -1.4570   22.6140  -28.7000 C   0  0  0  0  0  0  0  0  0  0  0  0
   -1.3890   23.6050  -29.7000 O   0  0  0  0  0  0  0  0  0  0  0  0
   -2.3800   24.9230  -29.2530 P   0  0  0  0  0  0  0  0  0  0  0  0
   -3.1480   24.5940  -27.9920 O   0  0  0  0  0  0  0  0  0  0  0  0
   -1.3970   26.2680  -28.9620 O   0  0  0  0  0  0  0  0  0  0  0  0
   -3.4640   25.2980  -30.4960 O   0  0  0  0  0  0  0  0  0  0  0  0
   -3.0930   19.2930  -33.8220 H   0  0  0  0  0  0  0  0  0  0  0  0
   -7.7806   20.4804  -33.5141 H   0  0  0  0  0  0  0  0  0  0  0  0
   -8.8131   22.4963  -31.7705 H   0  0  0  0  0  0  0  0  0  0  0  0
   -8.1238   24.2154  -30.0655 H   0  0  0  0  0  0  0  0  0  0  0  0
   -6.2150   24.9130  -28.4020 H   0  0  0  0  0  0  0  0  0  0  0  0
   -4.7260   25.2580  -29.3430 H   0  0  0  0  0  0  0  0  0  0  0  0
   -3.9571   23.0368  -30.5564 H   0  0  0  0  0  0  0  0  0  0  0  0
   -2.3130   22.8216  -28.0410 H   0  0  0  0  0  0  0  0  0  0  0  0
   -0.5228   22.6267  -28.1195 H   0  0  0  0  0  0  0  0  0  0  0  0
  1  2  1  0
  2  3  2  0
  2  4  1  0
  4  5  2  0
  5  6  1  0
  6  7  2  0
  7  8  1  0
  8  9  2  0
  9 10  1  0
  9 11  1  0
 11 12  2  0
 12 13  1  0
 13 14  1  0
 14 15  2  0
 14 16  1  0
 16 17  1  0
 17 18  2  0
 17 19  1  0
 19 20  1  0
 20 21  1  0
 21 22  1  0
 22 23  2  0
 22 24  1  0
 22 25  1  0
 13  4  1  0
 12  6  1  0
  1 26  1  0
  5 27  1  0
  7 28  1  0
  8 29  1  0
 10 30  1  0
 10 31  1  0
 11 32  1  0
 20 33  1  0
 20 34  1  0
M  CHG  3   1  -1  24  -1  25  -1
M  END
>  <UniqueID>  (59) 
59

>  <SMILES>  (59) 
[NH-]C(=O)c1cc2ccc(N)cc2n1C(=O)OC(=O)OCOP(=O)([O-])[O-]

>  <Energy>  (59) 
72.37065206694152

>  <Genealogy>  (59) 
[NH-]C(=O)c1cc2ccc(N)cc2n1C(=O)OC(=O)OCOP(=O)([O-])[O-] (protonated)
[NH-]C(=O)c1cc2ccc(N)cc2n1C(=O)OC(=O)OCOP(=O)([O-])[O-] (3D coordinates assigned)
[NH-]C(=O)c1cc2ccc(N)cc2n1C(=O)OC(=O)OCOP(=O)([O-])[O-] (optimized conformer: 72.37065206694152 kcal/mol)

>  <smiles>  (59) 
NC(=O)c1cc2ccc(N)cc2n1C(=O)OC(=O)OCOP(=O)(O)O

>  <score_type>  (59) 
oracle

>  <origin>  (59) 
adg

>  <m_score__min__energy>  (59) 
-12.869999999999999

>  <m_primary>  (59) 
energy

$$$$
60:0
     RDKit          3D

 35 36  0  0  0  0  0  0  0  0999 V2000
   -5.6000   25.1160  -28.6050 N   0  0  0  0  0  0  0  0  0  0  0  0
   -6.1070   25.0050  -29.9350 C   0  0  0  0  0  0  0  0  0  0  0  0
   -6.1940   26.0400  -30.6480 O   0  0  0  0  0  0  0  0  0  0  0  0
   -6.4710   23.6950  -30.5150 C   0  0  0  0  0  0  0  0  0  0  0  0
   -7.6500   23.4740  -31.2210 C   0  0  0  0  0  0  0  0  0  0  0  0
   -7.6010   22.1540  -31.6050 C   0  0  0  0  0  0  0  0  0  0  0  0
   -8.5270   21.3940  -32.3160 C   0  0  0  0  0  0  0  0  0  0  0  0
   -8.2370   20.0370  -32.5330 C   0  0  0  0  0  0  0  0  0  0  0  0
   -7.0420   19.4660  -32.0290 C   0  0  0  0  0  0  0  0  0  0  0  0
   -6.7750   18.0030  -32.2170 C   0  0  0  0  0  0  0  0  0  0  0  0
   -7.4490   17.5510  -33.3340 F   0  0  0  0  0  0  0  0  0  0  0  0
   -6.1410   20.2610  -31.2900 C   0  0  0  0  0  0  0  0  0  0  0  0
   -6.4340   21.6200  -31.1240 C   0  0  0  0  0  0  0  0  0  0  0  0
   -5.7220   22.5580  -30.4620 N   0  0  0  0  0  0  0  0  0  0  0  0
   -4.4880   22.3600  -29.7490 C   0  0  0  0  0  0  0  0  0  0  0  0
   -4.5070   22.3000  -28.4890 O   0  0  0  0  0  0  0  0  0  0  0  0
   -3.2020   22.2200  -30.4680 C   0  0  0  0  0  0  0  0  0  0  0  0
   -3.2100   22.0070  -32.0950 S   0  0  0  0  0  0  0  0  0  0  0  0
   -1.9460   22.2720  -29.7670 N   0  0  0  0  0  0  0  0  0  0  0  0
   -1.3830   20.8640  -28.9000 Cl  0  0  0  0  0  0  0  0  0  0  0  0
   -1.2140   23.5270  -29.6000 C   0  0  0  0  0  0  0  0  0  0  0  0
   -2.3660   24.8770  -29.2020 P   0  0  0  0  0  0  0  0  0  0  0  0
   -3.1350   24.5330  -27.9460 O   0  0  0  0  0  0  0  0  0  0  0  0
   -1.4920   26.3020  -28.9520 O   0  0  0  0  0  0  0  0  0  0  0  0
   -3.4540   25.1040  -30.4780 O   0  0  0  0  0  0  0  0  0  0  0  0
   -5.3690   26.0540  -28.2110 H   0  0  0  0  0  0  0  0  0  0  0  0
   -5.3560   24.2730  -28.0430 H   0  0  0  0  0  0  0  0  0  0  0  0
   -8.4502   24.1999  -31.4278 H   0  0  0  0  0  0  0  0  0  0  0  0
   -9.4567   21.8428  -32.6958 H   0  0  0  0  0  0  0  0  0  0  0  0
   -8.9435   19.4121  -33.0990 H   0  0  0  0  0  0  0  0  0  0  0  0
   -5.6951   17.8417  -32.3504 H   0  0  0  0  0  0  0  0  0  0  0  0
   -7.1221   17.4506  -31.3313 H   0  0  0  0  0  0  0  0  0  0  0  0
   -5.2303   19.8238  -30.8547 H   0  0  0  0  0  0  0  0  0  0  0  0
   -0.4863   23.4173  -28.7825 H   0  0  0  0  0  0  0  0  0  0  0  0
   -0.6914   23.7656  -30.5381 H   0  0  0  0  0  0  0  0  0  0  0  0
  1  2  1  0
  2  3  2  0
  2  4  1  0
  4  5  2  0
  5  6  1  0
  6  7  2  0
  7  8  1  0
  8  9  2  0
  9 10  1  0
 10 11  1  0
  9 12  1  0
 12 13  2  0
 13 14  1  0
 14 15  1  0
 15 16  2  0
 15 17  1  0
 17 18  2  0
 17 19  1  0
 19 20  1  0
 19 21  1  0
 21 22  1  0
 22 23  2  0
 22 24  1  0
 22 25  1  0
 14  4  1  0
 13  6  1  0
  1 26  1  0
  1 27  1  0
  5 28  1  0
  7 29  1  0
  8 30  1  0
 10 31  1  0
 10 32  1  0
 12 33  1  0
 21 34  1  0
 21 35  1  0
M  CHG  2  24  -1  25  -1
M  END
>  <UniqueID>  (60) 
60

>  <SMILES>  (60) 
NC(=O)c1cc2ccc(CF)cc2n1C(=O)C(=S)N(Cl)CP(=O)([O-])[O-]

>  <Energy>  (60) 
72.0526596557322

>  <Genealogy>  (60) 
NC(=O)c1cc2ccc(CF)cc2n1C(=O)C(=S)N(Cl)CP(=O)([O-])[O-] (protonated)
NC(=O)c1cc2ccc(CF)cc2n1C(=O)C(=S)N(Cl)CP(=O)([O-])[O-] (3D coordinates assigned)
NC(=O)c1cc2ccc(CF)cc2n1C(=O)C(=S)N(Cl)CP(=O)([O-])[O-] (optimized conformer: 72.0526596557322 kcal/mol)

>  <smiles>  (60) 
NC(=O)c1cc2ccc(CF)cc2n1C(=O)C(=S)N(Cl)CP(=O)(O)O

>  <score_type>  (60) 
oracle

>  <origin>  (60) 
adg

>  <m_score__min__energy>  (60) 
-13.550000000000001

>  <m_primary>  (60) 
energy

$$$$
61:0
     RDKit          3D

 31 32  0  0  0  0  0  0  0  0999 V2000
   -6.3950   18.3370  -33.3700 C   0  0  0  0  0  0  0  0  0  0  0  0
   -6.7140   19.6840  -32.7920 C   0  0  0  0  0  0  0  0  0  0  0  0
   -8.0590   20.1230  -32.7200 C   0  0  0  0  0  0  0  0  0  0  0  0
   -8.3690   21.3930  -32.2030 C   0  0  0  0  0  0  0  0  0  0  0  0
   -7.3160   22.2030  -31.7880 C   0  0  0  0  0  0  0  0  0  0  0  0
   -7.3350   23.4630  -31.2370 C   0  0  0  0  0  0  0  0  0  0  0  0
   -5.9990   23.7910  -31.0150 C   0  0  0  0  0  0  0  0  0  0  0  0
   -5.5450   25.1070  -30.5130 C   0  0  0  0  0  0  0  0  0  0  0  0
   -4.1760   25.5010  -30.6340 N   0  0  0  0  0  0  0  0  0  0  0  0
   -6.3580   25.8830  -29.9450 O   0  0  0  0  0  0  0  0  0  0  0  0
   -5.1850   22.7710  -31.4140 N   0  0  0  0  0  0  0  0  0  0  0  0
   -3.7550   22.6940  -31.3040 C   0  0  0  0  0  0  0  0  0  0  0  0
   -3.0600   22.3860  -32.3110 O   0  0  0  0  0  0  0  0  0  0  0  0
   -3.1360   22.9760  -30.0830 O   0  0  0  0  0  0  0  0  0  0  0  0
   -1.7250   22.9360  -29.9070 C   0  0  0  0  0  0  0  0  0  0  0  0
   -1.2630   24.2340  -29.3360 C   0  0  0  0  0  0  0  0  0  0  0  0
   -0.0910   24.3470  -28.8900 O   0  0  0  0  0  0  0  0  0  0  0  0
   -2.1060   25.3380  -29.3450 O   0  0  0  0  0  0  0  0  0  0  0  0
   -6.0070   21.8070  -31.8840 C   0  0  0  0  0  0  0  0  0  0  0  0
   -5.6710   20.5400  -32.3770 C   0  0  0  0  0  0  0  0  0  0  0  0
   -6.2249   17.6189  -32.5543 H   0  0  0  0  0  0  0  0  0  0  0  0
   -7.2370   17.9952  -33.9898 H   0  0  0  0  0  0  0  0  0  0  0  0
   -5.4891   18.4091  -33.9898 H   0  0  0  0  0  0  0  0  0  0  0  0
   -8.8673   19.4648  -33.0715 H   0  0  0  0  0  0  0  0  0  0  0  0
   -9.4115   21.7359  -32.1287 H   0  0  0  0  0  0  0  0  0  0  0  0
   -8.2181   24.0811  -31.0179 H   0  0  0  0  0  0  0  0  0  0  0  0
   -3.8580   26.4160  -30.2420 H   0  0  0  0  0  0  0  0  0  0  0  0
   -3.4850   24.9110  -31.1460 H   0  0  0  0  0  0  0  0  0  0  0  0
   -1.4634   22.1181  -29.2195 H   0  0  0  0  0  0  0  0  0  0  0  0
   -1.2370   22.7658  -30.8780 H   0  0  0  0  0  0  0  0  0  0  0  0
   -4.6205   20.2198  -32.4393 H   0  0  0  0  0  0  0  0  0  0  0  0
  1  2  1  0
  2  3  2  0
  3  4  1  0
  4  5  2  0
  5  6  1  0
  6  7  2  0
  7  8  1  0
  8  9  1  0
  8 10  2  0
  7 11  1  0
 11 12  1  0
 12 13  2  0
 12 14  1  0
 14 15  1  0
 15 16  1  0
 16 17  2  0
 16 18  1  0
 11 19  1  0
 19 20  2  0
 20  2  1  0
 19  5  1  0
  1 21  1  0
  1 22  1  0
  1 23  1  0
  3 24  1  0
  4 25  1  0
  6 26  1  0
  9 27  1  0
  9 28  1  0
 15 29  1  0
 15 30  1  0
 20 31  1  0
M  CHG  1  18  -1
M  END
>  <UniqueID>  (61) 
61

>  <SMILES>  (61) 
Cc1ccc2cc(C(N)=O)n(C(=O)OCC(=O)[O-])c2c1

>  <Energy>  (61) 
65.98085056064434

>  <Genealogy>  (61) 
Cc1ccc2cc(C(N)=O)n(C(=O)OCC(=O)[O-])c2c1 (protonated)
Cc1ccc2cc(C(N)=O)n(C(=O)OCC(=O)[O-])c2c1 (3D coordinates assigned)
Cc1ccc2cc(C(N)=O)n(C(=O)OCC(=O)[O-])c2c1 (optimized conformer: 65.98085056064434 kcal/mol)

>  <smiles>  (61) 
Cc1ccc2cc(C(N)=O)n(C(=O)OCC(=O)O)c2c1

>  <score_type>  (61) 
oracle

>  <origin>  (61) 
adg

>  <m_score__min__energy>  (61) 
-9.9000000000000004

>  <m_primary>  (61) 
energy

$$$$
62:0
     RDKit          3D

 37 38  0  0  0  0  0  0  0  0999 V2000
   -4.2130   25.6760  -30.8610 N   0  0  0  0  0  0  0  0  0  0  0  0
   -5.4920   25.2340  -30.4130 C   0  0  0  0  0  0  0  0  0  0  0  0
   -6.1150   25.9150  -29.5560 O   0  0  0  0  0  0  0  0  0  0  0  0
   -6.0690   23.9630  -30.8980 C   0  0  0  0  0  0  0  0  0  0  0  0
   -7.4150   23.8080  -31.2230 C   0  0  0  0  0  0  0  0  0  0  0  0
   -7.5630   22.4760  -31.5390 C   0  0  0  0  0  0  0  0  0  0  0  0
   -8.6920   21.7740  -31.9470 C   0  0  0  0  0  0  0  0  0  0  0  0
   -8.5470   20.4070  -32.2400 C   0  0  0  0  0  0  0  0  0  0  0  0
   -7.2840   19.7730  -32.1260 C   0  0  0  0  0  0  0  0  0  0  0  0
   -7.1290   18.3170  -32.4570 C   0  0  0  0  0  0  0  0  0  0  0  0
   -6.5290   17.6590  -31.4000 F   0  0  0  0  0  0  0  0  0  0  0  0
   -6.3440   18.1770  -33.5870 F   0  0  0  0  0  0  0  0  0  0  0  0
   -6.1600   20.5210  -31.7100 C   0  0  0  0  0  0  0  0  0  0  0  0
   -6.3370   21.8760  -31.4080 C   0  0  0  0  0  0  0  0  0  0  0  0
   -5.4080   22.7780  -31.0170 N   0  0  0  0  0  0  0  0  0  0  0  0
   -4.0000   22.5400  -30.8690 C   0  0  0  0  0  0  0  0  0  0  0  0
   -3.1680   23.3510  -31.3630 O   0  0  0  0  0  0  0  0  0  0  0  0
   -3.5560   21.4200  -30.1580 O   0  0  0  0  0  0  0  0  0  0  0  0
   -3.2120   21.4630  -28.7780 C   0  0  0  0  0  0  0  0  0  0  0  0
   -1.8830   21.0250  -28.6160 O   0  0  0  0  0  0  0  0  0  0  0  0
   -1.1550   21.9530  -27.3840 P   0  0  1  0  0  0  0  0  0  0  0  0
   -1.6000   21.4370  -26.0330 O   0  0  0  0  0  0  0  0  0  0  0  0
    0.5260   21.7830  -27.4870 O   0  0  0  0  0  0  0  0  0  0  0  0
   -1.6020   23.5910  -27.5180 O   0  0  0  0  0  0  0  0  0  0  0  0
   -0.8340   24.2260  -28.8990 P   0  0  2  0  0  0  0  0  0  0  0  0
    0.6120   24.5360  -28.5890 O   0  0  0  0  0  0  0  0  0  0  0  0
   -1.6130   25.6630  -29.3340 O   0  0  0  0  0  0  0  0  0  0  0  0
   -0.9160   23.1480  -30.2020 O   0  0  0  0  0  0  0  0  0  0  0  0
   -3.3360   25.2890  -30.4470 H   0  0  0  0  0  0  0  0  0  0  0  0
   -8.1939   24.5847  -31.2264 H   0  0  0  0  0  0  0  0  0  0  0  0
   -9.6681   22.2730  -32.0376 H   0  0  0  0  0  0  0  0  0  0  0  0
   -9.4223   19.8232  -32.5610 H   0  0  0  0  0  0  0  0  0  0  0  0
   -8.1225   17.8829  -32.6430 H   0  0  0  0  0  0  0  0  0  0  0  0
   -5.1697   20.0498  -31.6255 H   0  0  0  0  0  0  0  0  0  0  0  0
   -3.3068   22.4944  -28.4076 H   0  0  0  0  0  0  0  0  0  0  0  0
   -3.8880   20.8079  -28.2090 H   0  0  0  0  0  0  0  0  0  0  0  0
   -1.7400   22.6230  -30.0430 H   0  0  0  0  0  0  0  0  0  0  0  0
  1  2  1  0
  2  3  2  0
  2  4  1  0
  4  5  2  0
  5  6  1  0
  6  7  2  0
  7  8  1  0
  8  9  2  0
  9 10  1  0
 10 11  1  0
 10 12  1  0
  9 13  1  0
 13 14  2  0
 14 15  1  0
 15 16  1  0
 16 17  2  0
 16 18  1  0
 18 19  1  0
 19 20  1  0
 20 21  1  0
 21 22  2  0
 21 23  1  1
 21 24  1  0
 24 25  1  0
 25 26  2  0
 25 27  1  6
 25 28  1  0
 15  4  1  0
 14  6  1  0
  1 29  1  0
  5 30  1  0
  7 31  1  0
  8 32  1  0
 10 33  1  0
 13 34  1  0
 19 35  1  0
 19 36  1  0
 28 37  1  0
M  CHG  3   1  -1  23  -1  27  -1
M  END
>  <UniqueID>  (62) 
62

>  <SMILES>  (62) 
[NH-]C(=O)c1cc2ccc(C(F)F)cc2n1C(=O)OCO[P@@](=O)([O-])O[P@](=O)([O-])O

>  <Energy>  (62) 
69.95560955264469

>  <Genealogy>  (62) 
[NH-]C(=O)c1cc2ccc(C(F)F)cc2n1C(=O)OCOP(=O)([O-])OP(=O)([O-])O (protonated)
[NH-]C(=O)c1cc2ccc(C(F)F)cc2n1C(=O)OCO[P@@](=O)([O-])O[P@](=O)([O-])O (chirality)
[NH-]C(=O)c1cc2ccc(C(F)F)cc2n1C(=O)OCO[P@@](=O)([O-])O[P@](=O)([O-])O (3D coordinates assigned)
[NH-]C(=O)c1cc2ccc(C(F)F)cc2n1C(=O)OCO[P@@](=O)([O-])O[P@](=O)([O-])O (optimized conformer: 69.95560955264469 kcal/mol)

>  <smiles>  (62) 
NC(=O)c1cc2ccc(C(F)F)cc2n1C(=O)OCOP(=O)(O)OP(=O)(O)O

>  <score_type>  (62) 
oracle

>  <origin>  (62) 
adg

>  <m_score__min__energy>  (62) 
-12.25

>  <m_primary>  (62) 
energy

$$$$
63:0
     RDKit          3D

 31 32  0  0  0  0  0  0  0  0999 V2000
   -7.2590   17.8360  -31.8720 C   0  0  0  0  0  0  0  0  0  0  0  0
   -8.0520   18.8360  -32.7060 C   0  0  0  0  0  0  0  0  0  0  0  0
   -7.8990   20.2270  -32.1540 C   0  0  0  0  0  0  0  0  0  0  0  0
   -9.0390   20.9490  -31.7180 C   0  0  0  0  0  0  0  0  0  0  0  0
   -8.9120   22.2570  -31.2210 C   0  0  0  0  0  0  0  0  0  0  0  0
   -7.6390   22.8210  -31.1870 C   0  0  0  0  0  0  0  0  0  0  0  0
   -7.2300   24.0590  -30.7460 C   0  0  0  0  0  0  0  0  0  0  0  0
   -5.8510   24.0850  -30.9470 C   0  0  0  0  0  0  0  0  0  0  0  0
   -5.0090   25.2730  -30.6930 C   0  0  0  0  0  0  0  0  0  0  0  0
   -3.6120   25.1160  -30.4620 N   0  0  0  0  0  0  0  0  0  0  0  0
   -5.5170   26.4240  -30.6470 O   0  0  0  0  0  0  0  0  0  0  0  0
   -5.4250   22.9050  -31.4830 N   0  0  0  0  0  0  0  0  0  0  0  0
   -4.0780   22.5090  -31.7860 C   0  0  0  0  0  0  0  0  0  0  0  0
   -3.1820   22.6350  -30.9080 O   0  0  0  0  0  0  0  0  0  0  0  0
   -3.7530   22.0170  -33.0950 N   0  0  0  0  0  0  0  0  0  0  0  0
   -2.4650   21.5100  -33.4670 C   0  0  0  0  0  0  0  0  0  0  0  0
   -1.5270   21.4300  -32.6300 O   0  0  0  0  0  0  0  0  0  0  0  0
   -6.5320   22.1450  -31.6280 C   0  0  0  0  0  0  0  0  0  0  0  0
   -6.6260   20.8370  -32.1140 C   0  0  0  0  0  0  0  0  0  0  0  0
   -7.4208   18.0400  -30.8033 H   0  0  0  0  0  0  0  0  0  0  0  0
   -7.5958   16.8152  -32.1055 H   0  0  0  0  0  0  0  0  0  0  0  0
   -6.1883   17.9313  -32.1055 H   0  0  0  0  0  0  0  0  0  0  0  0
   -7.6826   18.8158  -33.7419 H   0  0  0  0  0  0  0  0  0  0  0  0
   -9.1158   18.5579  -32.6752 H   0  0  0  0  0  0  0  0  0  0  0  0
  -10.0328   20.4802  -31.7694 H   0  0  0  0  0  0  0  0  0  0  0  0
   -9.7905   22.8181  -30.8697 H   0  0  0  0  0  0  0  0  0  0  0  0
   -7.8578   24.8579  -30.3246 H   0  0  0  0  0  0  0  0  0  0  0  0
   -2.9770   24.7760  -31.2190 H   0  0  0  0  0  0  0  0  0  0  0  0
   -4.4940   22.0360  -33.8320 H   0  0  0  0  0  0  0  0  0  0  0  0
   -2.2923   21.1845  -34.5034 H   0  0  0  0  0  0  0  0  0  0  0  0
   -5.7309   20.2970  -32.4564 H   0  0  0  0  0  0  0  0  0  0  0  0
  1  2  1  0
  2  3  1  0
  3  4  2  0
  4  5  1  0
  5  6  2  0
  6  7  1  0
  7  8  2  0
  8  9  1  0
  9 10  1  0
  9 11  2  0
  8 12  1  0
 12 13  1  0
 13 14  2  0
 13 15  1  0
 15 16  1  0
 16 17  2  0
 12 18  1  0
 18 19  2  0
 19  3  1  0
 18  6  1  0
  1 20  1  0
  1 21  1  0
  1 22  1  0
  2 23  1  0
  2 24  1  0
  4 25  1  0
  5 26  1  0
  7 27  1  0
 10 28  1  0
 15 29  1  0
 16 30  1  0
 19 31  1  0
M  CHG  1  10  -1
M  END
>  <UniqueID>  (63) 
63

>  <SMILES>  (63) 
CCc1ccc2cc(C([NH-])=O)n(C(=O)NC=O)c2c1

>  <Energy>  (63) 
66.8360928095041

>  <Genealogy>  (63) 
CCc1ccc2cc(C([NH-])=O)n(C(=O)NC=O)c2c1 (protonated)
CCc1ccc2cc(C([NH-])=O)n(C(=O)NC=O)c2c1 (3D coordinates assigned)
CCc1ccc2cc(C([NH-])=O)n(C(=O)NC=O)c2c1 (optimized conformer: 66.8360928095041 kcal/mol)

>  <smiles>  (63) 
CCc1ccc2cc(C(N)=O)n(C(=O)NC=O)c2c1

>  <score_type>  (63) 
oracle

>  <origin>  (63) 
adg

>  <m_score__min__energy>  (63) 
-9.9800000000000004

>  <m_primary>  (63) 
energy

$$$$
64:0
     RDKit          3D

 35 36  0  0  0  0  0  0  0  0999 V2000
   -3.8670   22.3530  -28.6370 C   0  0  0  0  0  0  0  0  0  0  0  0
   -3.1580   22.6400  -29.8870 N   0  0  0  0  0  0  0  0  0  0  0  0
   -1.7090   22.8820  -29.8670 C   0  0  0  0  0  0  0  0  0  0  0  0
   -1.4010   24.2330  -29.3050 C   0  0  0  0  0  0  0  0  0  0  0  0
   -0.2670   24.4750  -28.8130 O   0  0  0  0  0  0  0  0  0  0  0  0
   -2.3560   25.2410  -29.3580 O   0  0  0  0  0  0  0  0  0  0  0  0
   -3.8870   22.6260  -31.1290 C   0  0  0  0  0  0  0  0  0  0  0  0
   -3.2710   22.5040  -32.2220 O   0  0  0  0  0  0  0  0  0  0  0  0
   -5.3140   22.7680  -31.1450 N   0  0  0  0  0  0  0  0  0  0  0  0
   -6.0480   23.8910  -30.9160 C   0  0  0  0  0  0  0  0  0  0  0  0
   -5.5170   25.2050  -30.4940 C   0  0  0  0  0  0  0  0  0  0  0  0
   -4.1940   25.6240  -30.8290 N   0  0  0  0  0  0  0  0  0  0  0  0
   -6.2410   25.9650  -29.7960 O   0  0  0  0  0  0  0  0  0  0  0  0
   -7.4010   23.6390  -31.1370 C   0  0  0  0  0  0  0  0  0  0  0  0
   -7.4710   22.3110  -31.4950 C   0  0  0  0  0  0  0  0  0  0  0  0
   -8.5700   21.5250  -31.8250 C   0  0  0  0  0  0  0  0  0  0  0  0
   -8.3400   20.1830  -32.1720 C   0  0  0  0  0  0  0  0  0  0  0  0
   -7.0210   19.6550  -32.2060 C   0  0  0  0  0  0  0  0  0  0  0  0
   -6.7920   18.2040  -32.5380 C   0  0  0  0  0  0  0  0  0  0  0  0
   -5.7770   17.6790  -31.7570 F   0  0  0  0  0  0  0  0  0  0  0  0
   -6.4390   18.0920  -33.8700 F   0  0  0  0  0  0  0  0  0  0  0  0
   -7.9390   17.4630  -32.3120 F   0  0  0  0  0  0  0  0  0  0  0  0
   -5.9330   20.4820  -31.8410 C   0  0  0  0  0  0  0  0  0  0  0  0
   -6.1970   21.8100  -31.4900 C   0  0  0  0  0  0  0  0  0  0  0  0
   -3.2244   22.6131  -27.7829 H   0  0  0  0  0  0  0  0  0  0  0  0
   -4.7914   22.9478  -28.5949 H   0  0  0  0  0  0  0  0  0  0  0  0
   -4.1174   21.2827  -28.5949 H   0  0  0  0  0  0  0  0  0  0  0  0
   -1.2243   22.1145  -29.2457 H   0  0  0  0  0  0  0  0  0  0  0  0
   -1.3309   22.8363  -30.8990 H   0  0  0  0  0  0  0  0  0  0  0  0
   -3.8790   26.5920  -30.5950 H   0  0  0  0  0  0  0  0  0  0  0  0
   -3.4860   24.9530  -31.1980 H   0  0  0  0  0  0  0  0  0  0  0  0
   -8.2355   24.3498  -31.0450 H   0  0  0  0  0  0  0  0  0  0  0  0
   -9.5881   21.9413  -31.8147 H   0  0  0  0  0  0  0  0  0  0  0  0
   -9.1917   19.5328  -32.4205 H   0  0  0  0  0  0  0  0  0  0  0  0
   -4.9050   20.0905  -31.8334 H   0  0  0  0  0  0  0  0  0  0  0  0
  1  2  1  0
  2  3  1  0
  3  4  1  0
  4  5  2  0
  4  6  1  0
  2  7  1  0
  7  8  2  0
  7  9  1  0
  9 10  1  0
 10 11  1  0
 11 12  1  0
 11 13  2  0
 10 14  2  0
 14 15  1  0
 15 16  2  0
 16 17  1  0
 17 18  2  0
 18 19  1  0
 19 20  1  0
 19 21  1  0
 19 22  1  0
 18 23  1  0
 23 24  2  0
 24  9  1  0
 24 15  1  0
  1 25  1  0
  1 26  1  0
  1 27  1  0
  3 28  1  0
  3 29  1  0
 12 30  1  0
 12 31  1  0
 14 32  1  0
 16 33  1  0
 17 34  1  0
 23 35  1  0
M  CHG  1   6  -1
M  END
>  <UniqueID>  (64) 
64

>  <SMILES>  (64) 
CN(CC(=O)[O-])C(=O)n1c(C(N)=O)cc2ccc(C(F)(F)F)cc21

>  <Energy>  (64) 
73.85117996741037

>  <Genealogy>  (64) 
CN(CC(=O)[O-])C(=O)n1c(C(N)=O)cc2ccc(C(F)(F)F)cc21 (protonated)
CN(CC(=O)[O-])C(=O)n1c(C(N)=O)cc2ccc(C(F)(F)F)cc21 (3D coordinates assigned)
CN(CC(=O)[O-])C(=O)n1c(C(N)=O)cc2ccc(C(F)(F)F)cc21 (optimized conformer: 73.85117996741037 kcal/mol)

>  <smiles>  (64) 
CN(CC(=O)O)C(=O)n1c(C(N)=O)cc2ccc(C(F)(F)F)cc21

>  <score_type>  (64) 
oracle

>  <origin>  (64) 
adg

>  <m_score__min__energy>  (64) 
-10.34

>  <m_primary>  (64) 
energy

$$$$
65:0
     RDKit          3D

 39 40  0  0  0  0  0  0  0  0999 V2000
   -0.9760   23.8110  -29.2540 C   0  0  0  0  0  0  0  0  0  0  0  0
   -2.0700   24.6580  -28.7470 N   0  0  0  0  0  0  0  0  0  0  0  0
   -1.6070   25.3970  -27.5630 C   0  0  0  0  0  0  0  0  0  0  0  0
   -3.2610   23.8460  -28.4110 C   0  0  0  0  0  0  0  0  0  0  0  0
   -2.9510   22.3520  -28.5000 C   0  0  0  0  0  0  0  0  0  0  0  0
   -3.5050   21.8160  -29.6970 O   0  0  0  0  0  0  0  0  0  0  0  0
   -3.8660   22.6140  -30.7880 C   0  0  0  0  0  0  0  0  0  0  0  0
   -2.9840   23.0500  -31.5770 O   0  0  0  0  0  0  0  0  0  0  0  0
   -5.2500   22.9200  -31.0160 N   0  0  0  0  0  0  0  0  0  0  0  0
   -5.8850   24.1060  -30.8010 C   0  0  0  0  0  0  0  0  0  0  0  0
   -5.2340   25.3880  -30.4590 C   0  0  0  0  0  0  0  0  0  0  0  0
   -3.8900   25.6550  -30.8500 N   0  0  0  0  0  0  0  0  0  0  0  0
   -5.8900   26.2790  -29.8560 O   0  0  0  0  0  0  0  0  0  0  0  0
   -7.2530   23.9790  -31.0290 C   0  0  0  0  0  0  0  0  0  0  0  0
   -7.4390   22.6670  -31.4020 C   0  0  0  0  0  0  0  0  0  0  0  0
   -8.6090   21.9860  -31.7220 C   0  0  0  0  0  0  0  0  0  0  0  0
   -8.5120   20.6190  -32.0310 C   0  0  0  0  0  0  0  0  0  0  0  0
   -7.2560   19.9610  -32.0270 C   0  0  0  0  0  0  0  0  0  0  0  0
   -7.1740   18.4800  -32.3000 C   0  0  0  0  0  0  0  0  0  0  0  0
   -6.2260   17.9170  -31.4660 F   0  0  0  0  0  0  0  0  0  0  0  0
   -8.3960   17.8720  -32.0680 F   0  0  0  0  0  0  0  0  0  0  0  0
   -6.8140   18.2450  -33.6150 F   0  0  0  0  0  0  0  0  0  0  0  0
   -6.0930   20.6830  -31.6720 C   0  0  0  0  0  0  0  0  0  0  0  0
   -6.2160   22.0480  -31.3870 C   0  0  0  0  0  0  0  0  0  0  0  0
   -0.4216   23.3818  -28.4064 H   0  0  0  0  0  0  0  0  0  0  0  0
   -1.3947   22.9993  -29.8670 H   0  0  0  0  0  0  0  0  0  0  0  0
   -0.2950   24.4196  -29.8670 H   0  0  0  0  0  0  0  0  0  0  0  0
   -1.9349   24.8736  -26.6527 H   0  0  0  0  0  0  0  0  0  0  0  0
   -0.5088   25.4582  -27.5753 H   0  0  0  0  0  0  0  0  0  0  0  0
   -2.0310   26.4119  -27.5753 H   0  0  0  0  0  0  0  0  0  0  0  0
   -3.5821   24.0859  -27.3866 H   0  0  0  0  0  0  0  0  0  0  0  0
   -4.0587   24.0809  -29.1311 H   0  0  0  0  0  0  0  0  0  0  0  0
   -1.8609   22.2046  -28.5039 H   0  0  0  0  0  0  0  0  0  0  0  0
   -3.3910   21.8370  -27.6333 H   0  0  0  0  0  0  0  0  0  0  0  0
   -3.1180   24.9980  -30.6020 H   0  0  0  0  0  0  0  0  0  0  0  0
   -8.0211   24.7604  -30.9318 H   0  0  0  0  0  0  0  0  0  0  0  0
   -9.5804   22.5021  -31.7328 H   0  0  0  0  0  0  0  0  0  0  0  0
   -9.4215   20.0522  -32.2791 H   0  0  0  0  0  0  0  0  0  0  0  0
   -5.1143   20.1835  -31.6210 H   0  0  0  0  0  0  0  0  0  0  0  0
  1  2  1  0
  2  3  1  0
  2  4  1  0
  4  5  1  0
  5  6  1  0
  6  7  1  0
  7  8  2  0
  7  9  1  0
  9 10  1  0
 10 11  1  0
 11 12  1  0
 11 13  2  0
 10 14  2  0
 14 15  1  0
 15 16  2  0
 16 17  1  0
 17 18  2  0
 18 19  1  0
 19 20  1  0
 19 21  1  0
 19 22  1  0
 18 23  1  0
 23 24  2  0
 24  9  1  0
 24 15  1  0
  1 25  1  0
  1 26  1  0
  1 27  1  0
  3 28  1  0
  3 29  1  0
  3 30  1  0
  4 31  1  0
  4 32  1  0
  5 33  1  0
  5 34  1  0
 12 35  1  0
 14 36  1  0
 16 37  1  0
 17 38  1  0
 23 39  1  0
M  CHG  1  12  -1
M  END
>  <UniqueID>  (65) 
65

>  <SMILES>  (65) 
CN(C)CCOC(=O)n1c(C([NH-])=O)cc2ccc(C(F)(F)F)cc21

>  <Energy>  (65) 
74.51919435956923

>  <Genealogy>  (65) 
CN(C)CCOC(=O)n1c(C([NH-])=O)cc2ccc(C(F)(F)F)cc21 (protonated)
CN(C)CCOC(=O)n1c(C([NH-])=O)cc2ccc(C(F)(F)F)cc21 (3D coordinates assigned)
CN(C)CCOC(=O)n1c(C([NH-])=O)cc2ccc(C(F)(F)F)cc21 (optimized conformer: 74.51919435956923 kcal/mol)

>  <smiles>  (65) 
CN(C)CCOC(=O)n1c(C(N)=O)cc2ccc(C(F)(F)F)cc21

>  <score_type>  (65) 
oracle

>  <origin>  (65) 
adg

>  <m_score__min__energy>  (65) 
-9.4499999999999993

>  <m_primary>  (65) 
energy

$$$$
66:0
     RDKit          3D

 42 43  0  0  0  0  0  0  0  0999 V2000
   -4.1850   22.6960  -27.5890 C   0  0  0  0  0  0  0  0  0  0  0  0
   -3.2570   22.7680  -28.5500 C   0  0  0  0  0  0  0  0  0  0  0  0
   -2.1260   23.6460  -28.4010 N   0  0  0  0  0  0  0  0  0  0  0  0
   -2.1830   24.8150  -27.5190 C   0  0  0  0  0  0  0  0  0  0  0  0
   -0.9620   23.4510  -29.2650 C   0  0  0  0  0  0  0  0  0  0  0  0
   -3.3870   21.9660  -29.7430 N   0  0  0  0  0  0  0  0  0  0  0  0
   -2.8690   20.5940  -29.7650 C   0  0  0  0  0  0  0  0  0  0  0  0
   -3.9570   22.5300  -30.9440 C   0  0  0  0  0  0  0  0  0  0  0  0
   -3.2030   22.9140  -31.8800 O   0  0  0  0  0  0  0  0  0  0  0  0
   -5.3790   22.6970  -31.0790 N   0  0  0  0  0  0  0  0  0  0  0  0
   -6.1230   23.8110  -30.8180 C   0  0  0  0  0  0  0  0  0  0  0  0
   -5.5850   25.1120  -30.3420 C   0  0  0  0  0  0  0  0  0  0  0  0
   -4.2480   25.5160  -30.6430 N   0  0  0  0  0  0  0  0  0  0  0  0
   -6.3070   25.8820  -29.6560 O   0  0  0  0  0  0  0  0  0  0  0  0
   -7.4690   23.5620  -31.0950 C   0  0  0  0  0  0  0  0  0  0  0  0
   -7.5230   22.2540  -31.5210 C   0  0  0  0  0  0  0  0  0  0  0  0
   -8.6120   21.4830  -31.9160 C   0  0  0  0  0  0  0  0  0  0  0  0
   -8.3730   20.1490  -32.2910 C   0  0  0  0  0  0  0  0  0  0  0  0
   -7.0610   19.6170  -32.2660 C   0  0  0  0  0  0  0  0  0  0  0  0
   -6.8210   18.1820  -32.6270 C   0  0  0  0  0  0  0  0  0  0  0  0
   -5.9840   20.4240  -31.8380 C   0  0  0  0  0  0  0  0  0  0  0  0
   -6.2500   21.7530  -31.4940 C   0  0  0  0  0  0  0  0  0  0  0  0
   -5.0477   22.0238  -27.7068 H   0  0  0  0  0  0  0  0  0  0  0  0
   -4.0853   23.3090  -26.6811 H   0  0  0  0  0  0  0  0  0  0  0  0
   -2.1669   24.4841  -26.4701 H   0  0  0  0  0  0  0  0  0  0  0  0
   -1.3154   25.4629  -27.7124 H   0  0  0  0  0  0  0  0  0  0  0  0
   -3.1095   25.3754  -27.7124 H   0  0  0  0  0  0  0  0  0  0  0  0
   -0.0660   23.3009  -28.6448 H   0  0  0  0  0  0  0  0  0  0  0  0
   -1.1207   22.5669  -29.9000 H   0  0  0  0  0  0  0  0  0  0  0  0
   -0.8239   24.3385  -29.9000 H   0  0  0  0  0  0  0  0  0  0  0  0
   -2.7340   20.2365  -28.7335 H   0  0  0  0  0  0  0  0  0  0  0  0
   -3.5825   19.9410  -30.2890 H   0  0  0  0  0  0  0  0  0  0  0  0
   -1.9020   20.5755  -30.2890 H   0  0  0  0  0  0  0  0  0  0  0  0
   -3.6060   24.9330  -31.2200 H   0  0  0  0  0  0  0  0  0  0  0  0
   -3.8870   26.4270  -30.2800 H   0  0  0  0  0  0  0  0  0  0  0  0
   -8.3099   24.2640  -30.9940 H   0  0  0  0  0  0  0  0  0  0  0  0
   -9.6281   21.9039  -31.9343 H   0  0  0  0  0  0  0  0  0  0  0  0
   -9.2130   19.5129  -32.6067 H   0  0  0  0  0  0  0  0  0  0  0  0
   -6.7211   17.5847  -31.7087 H   0  0  0  0  0  0  0  0  0  0  0  0
   -7.6687   17.8060  -33.2186 H   0  0  0  0  0  0  0  0  0  0  0  0
   -5.8971   18.1023  -33.2186 H   0  0  0  0  0  0  0  0  0  0  0  0
   -4.9635   20.0181  -31.7769 H   0  0  0  0  0  0  0  0  0  0  0  0
  1  2  2  0
  2  3  1  0
  3  4  1  0
  3  5  1  0
  2  6  1  0
  6  7  1  0
  6  8  1  0
  8  9  2  0
  8 10  1  0
 10 11  1  0
 11 12  1  0
 12 13  1  0
 12 14  2  0
 11 15  2  0
 15 16  1  0
 16 17  2  0
 17 18  1  0
 18 19  2  0
 19 20  1  0
 19 21  1  0
 21 22  2  0
 22 10  1  0
 22 16  1  0
  1 23  1  0
  1 24  1  0
  4 25  1  0
  4 26  1  0
  4 27  1  0
  5 28  1  0
  5 29  1  0
  5 30  1  0
  7 31  1  0
  7 32  1  0
  7 33  1  0
 13 34  1  0
 13 35  1  0
 15 36  1  0
 17 37  1  0
 18 38  1  0
 20 39  1  0
 20 40  1  0
 20 41  1  0
 21 42  1  0
M  END
>  <UniqueID>  (66) 
66

>  <SMILES>  (66) 
C=C(N(C)C)N(C)C(=O)n1c(C(N)=O)cc2ccc(C)cc21

>  <Energy>  (66) 
81.74538560548699

>  <Genealogy>  (66) 
C=C(N(C)C)N(C)C(=O)n1c(C(N)=O)cc2ccc(C)cc21 (3D coordinates assigned)
C=C(N(C)C)N(C)C(=O)n1c(C(N)=O)cc2ccc(C)cc21 (optimized conformer: 81.74538560548699 kcal/mol)

>  <smiles>  (66) 
C=C(N(C)C)N(C)C(=O)n1c(C(N)=O)cc2ccc(C)cc21

>  <score_type>  (66) 
oracle

>  <origin>  (66) 
adg

>  <m_score__min__energy>  (66) 
-8.2100000000000009

>  <m_primary>  (66) 
energy

$$$$
67:0
     RDKit          3D

 35 36  0  0  0  0  0  0  0  0999 V2000
   -3.8890   22.9720  -28.2440 C   0  0  0  0  0  0  0  0  0  0  0  0
   -3.2630   23.3020  -29.5390 N   0  0  1  0  0  0  0  0  0  0  0  0
   -1.7970   23.0830  -29.5300 C   0  0  0  0  0  0  0  0  0  0  0  0
   -0.9990   24.3290  -29.2500 C   0  0  0  0  0  0  0  0  0  0  0  0
    0.2130   24.2500  -28.9230 O   0  0  0  0  0  0  0  0  0  0  0  0
   -1.6060   25.5760  -29.3320 O   0  0  0  0  0  0  0  0  0  0  0  0
   -3.8880   22.5930  -30.6380 C   0  0  0  0  0  0  0  0  0  0  0  0
   -3.1960   21.8960  -31.4300 O   0  0  0  0  0  0  0  0  0  0  0  0
   -5.2850   22.7860  -30.9170 N   0  0  0  0  0  0  0  0  0  0  0  0
   -5.9970   23.9470  -30.8810 C   0  0  0  0  0  0  0  0  0  0  0  0
   -5.5080   25.2420  -30.3670 C   0  0  0  0  0  0  0  0  0  0  0  0
   -4.1420   25.6100  -30.5480 N   0  0  0  0  0  0  0  0  0  0  0  0
   -6.2950   26.0480  -29.8080 O   0  0  0  0  0  0  0  0  0  0  0  0
   -7.3070   23.7300  -31.3070 C   0  0  0  0  0  0  0  0  0  0  0  0
   -7.3760   22.3850  -31.5990 C   0  0  0  0  0  0  0  0  0  0  0  0
   -8.4420   21.6220  -32.0670 C   0  0  0  0  0  0  0  0  0  0  0  0
   -8.2190   20.2540  -32.3010 C   0  0  0  0  0  0  0  0  0  0  0  0
   -6.9450   19.6780  -32.0660 C   0  0  0  0  0  0  0  0  0  0  0  0
   -6.7300   18.2090  -32.2920 C   0  0  0  0  0  0  0  0  0  0  0  0
   -6.0030   17.6820  -31.2410 F   0  0  0  0  0  0  0  0  0  0  0  0
   -7.9480   17.5580  -32.3790 F   0  0  0  0  0  0  0  0  0  0  0  0
   -5.8940   20.4820  -31.5720 C   0  0  0  0  0  0  0  0  0  0  0  0
   -6.1440   21.8410  -31.3530 C   0  0  0  0  0  0  0  0  0  0  0  0
   -3.2395   23.3144  -27.4249 H   0  0  0  0  0  0  0  0  0  0  0  0
   -4.8659   23.4723  -28.1709 H   0  0  0  0  0  0  0  0  0  0  0  0
   -4.0282   21.8833  -28.1709 H   0  0  0  0  0  0  0  0  0  0  0  0
   -3.4100   24.3270  -29.6940 H   0  0  0  0  0  0  0  0  0  0  0  0
   -1.5621   22.3389  -28.7546 H   0  0  0  0  0  0  0  0  0  0  0  0
   -1.5173   22.7427  -30.5379 H   0  0  0  0  0  0  0  0  0  0  0  0
   -3.4940   25.6730  -29.7330 H   0  0  0  0  0  0  0  0  0  0  0  0
   -8.1131   24.4736  -31.3918 H   0  0  0  0  0  0  0  0  0  0  0  0
   -9.4278   22.0753  -32.2480 H   0  0  0  0  0  0  0  0  0  0  0  0
   -9.0415   19.6238  -32.6703 H   0  0  0  0  0  0  0  0  0  0  0  0
   -6.1779   18.0686  -33.2330 H   0  0  0  0  0  0  0  0  0  0  0  0
   -4.9037   20.0504  -31.3646 H   0  0  0  0  0  0  0  0  0  0  0  0
  1  2  1  0
  2  3  1  0
  3  4  1  0
  4  5  2  0
  4  6  1  0
  2  7  1  0
  7  8  2  0
  7  9  1  0
  9 10  1  0
 10 11  1  0
 11 12  1  0
 11 13  2  0
 10 14  2  0
 14 15  1  0
 15 16  2  0
 16 17  1  0
 17 18  2  0
 18 19  1  0
 19 20  1  0
 19 21  1  0
 18 22  1  0
 22 23  2  0
 23  9  1  0
 23 15  1  0
  1 24  1  0
  1 25  1  0
  1 26  1  0
  2 27  1  6
  3 28  1  0
  3 29  1  0
 12 30  1  0
 14 31  1  0
 16 32  1  0
 17 33  1  0
 19 34  1  0
 22 35  1  0
M  CHG  3   2   1   6  -1  12  -1
M  END
>  <UniqueID>  (67) 
67

>  <SMILES>  (67) 
C[N@@H+](CC(=O)[O-])C(=O)n1c(C([NH-])=O)cc2ccc(C(F)F)cc21

>  <Energy>  (67) 
78.17546241375868

>  <Genealogy>  (67) 
C[NH+](CC(=O)[O-])C(=O)n1c(C([NH-])=O)cc2ccc(C(F)F)cc21 (protonated)
C[N@@H+](CC(=O)[O-])C(=O)n1c(C([NH-])=O)cc2ccc(C(F)F)cc21 (chirality)
C[N@@H+](CC(=O)[O-])C(=O)n1c(C([NH-])=O)cc2ccc(C(F)F)cc21 (3D coordinates assigned)
C[N@@H+](CC(=O)[O-])C(=O)n1c(C([NH-])=O)cc2ccc(C(F)F)cc21 (optimized conformer: 78.17546241375868 kcal/mol)

>  <smiles>  (67) 
CN(CC(=O)O)C(=O)n1c(C(N)=O)cc2ccc(C(F)F)cc21

>  <score_type>  (67) 
oracle

>  <origin>  (67) 
adg

>  <m_score__min__energy>  (67) 
-10.52

>  <m_primary>  (67) 
energy

$$$$
68:0
     RDKit          3D

 42 43  0  0  0  0  0  0  0  0999 V2000
   -4.4320   25.5490  -27.7040 H   0  0  0  0  0  0  0  0  0  0  0  0
   -4.2150   24.5300  -27.7610 N   0  0  0  0  0  0  0  0  0  0  0  0
   -3.1080   24.1080  -28.2800 C   0  0  0  0  0  0  0  0  0  0  0  0
   -1.8610   25.3000  -28.8150 S   0  0  0  0  0  0  0  0  0  0  0  0
   -2.8130   22.6660  -28.2650 C   0  0  0  0  0  0  0  0  0  0  0  0
   -2.5334   22.2169  -27.3006 H   0  0  0  0  0  0  0  0  0  0  0  0
   -2.8580   21.8510  -29.3390 C   0  0  0  0  0  0  0  0  0  0  0  0
   -3.3990   22.3070  -30.6480 C   0  0  0  0  0  0  0  0  0  0  0  0
   -2.5920   22.5760  -31.5780 O   0  0  0  0  0  0  0  0  0  0  0  0
   -4.8190   22.4020  -30.8960 N   0  0  0  0  0  0  0  0  0  0  0  0
   -5.6040   23.5200  -30.8200 C   0  0  0  0  0  0  0  0  0  0  0  0
   -5.1850   24.8600  -30.3520 C   0  0  0  0  0  0  0  0  0  0  0  0
   -5.8970   25.5250  -29.5560 O   0  0  0  0  0  0  0  0  0  0  0  0
   -3.9710   25.4300  -30.8390 N   0  0  0  0  0  0  0  0  0  0  0  0
   -3.9430   26.4120  -31.1920 H   0  0  0  0  0  0  0  0  0  0  0  0
   -6.9100   23.2290  -31.2040 C   0  0  0  0  0  0  0  0  0  0  0  0
   -7.7635   23.9220  -31.2388 H   0  0  0  0  0  0  0  0  0  0  0  0
   -6.9090   21.8960  -31.5300 C   0  0  0  0  0  0  0  0  0  0  0  0
   -7.9450   21.0940  -32.0020 C   0  0  0  0  0  0  0  0  0  0  0  0
   -8.9592   21.4985  -32.1349 H   0  0  0  0  0  0  0  0  0  0  0  0
   -7.6560   19.7540  -32.3030 C   0  0  0  0  0  0  0  0  0  0  0  0
   -8.4546   19.0943  -32.6731 H   0  0  0  0  0  0  0  0  0  0  0  0
   -6.3480   19.2440  -32.1350 C   0  0  0  0  0  0  0  0  0  0  0  0
   -6.0520   17.8210  -32.5020 C   0  0  0  0  0  0  0  0  0  0  0  0
   -5.9279   17.2244  -31.5862 H   0  0  0  0  0  0  0  0  0  0  0  0
   -6.8848   17.4143  -33.0945 H   0  0  0  0  0  0  0  0  0  0  0  0
   -5.1261   17.7801  -33.0945 H   0  0  0  0  0  0  0  0  0  0  0  0
   -5.3180   20.0900  -31.6660 C   0  0  0  0  0  0  0  0  0  0  0  0
   -4.2899   19.7153  -31.5537 H   0  0  0  0  0  0  0  0  0  0  0  0
   -5.6360   21.4180  -31.3470 C   0  0  0  0  0  0  0  0  0  0  0  0
   -2.4330   20.4800  -29.1630 N   0  0  0  0  0  0  0  0  0  0  0  0
   -2.4070   19.8520  -29.9980 H   0  0  0  0  0  0  0  0  0  0  0  0
   -1.9860   19.8960  -27.8970 C   0  0  0  0  0  0  0  0  0  0  0  0
   -1.5985   20.6954  -27.2483 H   0  0  0  0  0  0  0  0  0  0  0  0
   -2.8407   19.3949  -27.4192 H   0  0  0  0  0  0  0  0  0  0  0  0
   -0.9080   18.8870  -28.1280 C   0  0  0  0  0  0  0  0  0  0  0  0
   -0.3860   18.2890  -27.1470 O   0  0  0  0  0  0  0  0  0  0  0  0
   -0.4850   18.6180  -29.4330 O   0  0  0  0  0  0  0  0  0  0  0  0
    0.7560   19.0870  -29.9460 C   0  0  0  0  0  0  0  0  0  0  0  0
    1.4258   19.3401  -29.1109 H   0  0  0  0  0  0  0  0  0  0  0  0
    1.2185   18.3016  -30.5619 H   0  0  0  0  0  0  0  0  0  0  0  0
    0.5835   19.9819  -30.5619 H   0  0  0  0  0  0  0  0  0  0  0  0
  1  2  1  0
  2  3  2  0
  3  4  1  0
  3  5  1  0
  5  6  1  0
  5  7  2  0
  7  8  1  0
  8  9  2  0
  8 10  1  0
 10 11  1  0
 11 12  1  0
 12 13  2  0
 12 14  1  0
 14 15  1  0
 11 16  2  0
 16 17  1  0
 16 18  1  0
 18 19  2  0
 19 20  1  0
 19 21  1  0
 21 22  1  0
 21 23  2  0
 23 24  1  0
 24 25  1  0
 24 26  1  0
 24 27  1  0
 23 28  1  0
 28 29  1  0
 28 30  2  0
  7 31  1  0
 31 32  1  0
 31 33  1  0
 33 34  1  0
 33 35  1  0
 33 36  1  0
 36 37  2  0
 36 38  1  0
 38 39  1  0
 39 40  1  0
 39 41  1  0
 39 42  1  0
 30 10  1  0
 30 18  1  0
M  CHG  2   4  -1  14  -1
M  END
>  <UniqueID>  (68) 
68

>  <SMILES>  (68) 
COC(=O)CN/C(=C/C(=N)[S-])C(=O)n1c(C([NH-])=O)cc2ccc(C)cc21

>  <Energy>  (68) 
82.49458143416273

>  <Genealogy>  (68) 
COC(=O)CN/C(=C/C(=N)[S-])C(=O)n1c(C([NH-])=O)cc2ccc(C)cc21 (protonated)
COC(=O)CN/C(=C/C(=N)[S-])C(=O)n1c(C([NH-])=O)cc2ccc(C)cc21 (cis-trans isomerization)
COC(=O)CN/C(=C/C(=N)[S-])C(=O)n1c(C([NH-])=O)cc2ccc(C)cc21 (3D coordinates assigned)
COC(=O)CN/C(=C/C(=N)[S-])C(=O)n1c(C([NH-])=O)cc2ccc(C)cc21 (optimized conformer: 82.49458143416273 kcal/mol)

>  <smiles>  (68) 
COC(=O)CN/C(=C/C(=N)S)C(=O)n1c(C(N)=O)cc2ccc(C)cc21

>  <score_type>  (68) 
oracle

>  <origin>  (68) 
adg

>  <m_score__min__energy>  (68) 
-11.41

>  <m_primary>  (68) 
energy

$$$$
69:0
     RDKit          3D

 48 50  0  0  0  0  0  0  0  0999 V2000
   -8.3180   21.4810  -31.9530 C   0  0  0  0  0  0  0  0  0  0  0  0
   -9.4650   20.5300  -32.3020 C   0  0  0  0  0  0  0  0  0  0  0  0
   -9.0090   19.3530  -33.0620 N   0  0  0  0  0  0  0  0  0  0  0  0
   -8.5880   18.2250  -32.1990 C   0  0  0  0  0  0  0  0  0  0  0  0
   -7.0670   17.9590  -32.2770 C   0  0  1  0  0  0  0  0  0  0  0  0
   -6.5320   17.9110  -33.7130 C   0  0  0  0  0  0  0  0  0  0  0  0
   -5.1160   18.4650  -33.6360 C   0  0  0  0  0  0  0  0  0  0  0  0
   -5.0480   19.2150  -32.3900 N   0  0  0  0  0  0  0  0  0  0  0  0
   -3.9170   20.0280  -31.9980 C   0  0  0  0  0  0  0  0  0  0  0  0
   -2.6370   19.8130  -32.5790 C   0  0  0  0  0  0  0  0  0  0  0  0
   -1.5300   20.5900  -32.1970 C   0  0  0  0  0  0  0  0  0  0  0  0
   -1.7260   21.5800  -31.2420 C   0  0  0  0  0  0  0  0  0  0  0  0
   -0.8250   22.4540  -30.6780 C   0  0  0  0  0  0  0  0  0  0  0  0
   -1.5650   23.2150  -29.7750 C   0  0  0  0  0  0  0  0  0  0  0  0
   -0.9980   24.3420  -29.0060 C   0  0  0  0  0  0  0  0  0  0  0  0
   -1.6690   25.5970  -28.9390 N   0  0  0  0  0  0  0  0  0  0  0  0
    0.1190   24.2100  -28.4380 O   0  0  0  0  0  0  0  0  0  0  0  0
   -2.8700   22.8190  -29.7750 N   0  0  0  0  0  0  0  0  0  0  0  0
   -3.9350   23.2900  -28.9350 C   0  0  0  0  0  0  0  0  0  0  0  0
   -3.9850   22.9290  -27.7280 O   0  0  0  0  0  0  0  0  0  0  0  0
   -4.9210   24.1280  -29.4760 O   0  0  0  0  0  0  0  0  0  0  0  0
   -4.8040   24.8360  -30.6780 C   0  0  0  0  0  0  0  0  0  0  0  0
   -3.8840   25.6770  -30.8570 O   0  0  0  0  0  0  0  0  0  0  0  0
   -5.7230   24.6060  -31.6920 O   0  0  0  0  0  0  0  0  0  0  0  0
   -2.9520   21.8190  -30.6810 C   0  0  0  0  0  0  0  0  0  0  0  0
   -4.0680   21.0490  -31.0260 C   0  0  0  0  0  0  0  0  0  0  0  0
   -6.2520   19.0560  -31.5880 C   0  0  0  0  0  0  0  0  0  0  0  0
   -8.2253   21.5579  -30.8596 H   0  0  0  0  0  0  0  0  0  0  0  0
   -7.3789   21.0929  -32.3743 H   0  0  0  0  0  0  0  0  0  0  0  0
   -8.5254   22.4758  -32.3743 H   0  0  0  0  0  0  0  0  0  0  0  0
   -9.9355   20.1870  -31.3688 H   0  0  0  0  0  0  0  0  0  0  0  0
  -10.1766   21.0815  -32.9340 H   0  0  0  0  0  0  0  0  0  0  0  0
   -9.7520   19.0710  -33.7440 H   0  0  0  0  0  0  0  0  0  0  0  0
   -8.1830   19.6540  -33.6320 H   0  0  0  0  0  0  0  0  0  0  0  0
   -8.8527   18.4592  -31.1573 H   0  0  0  0  0  0  0  0  0  0  0  0
   -9.1052   17.3209  -32.5527 H   0  0  0  0  0  0  0  0  0  0  0  0
   -6.9506   16.9840  -31.7813 H   0  0  0  0  0  0  0  0  0  0  0  0
   -6.5205   16.8759  -34.0850 H   0  0  0  0  0  0  0  0  0  0  0  0
   -7.1613   18.4917  -34.4035 H   0  0  0  0  0  0  0  0  0  0  0  0
   -4.3839   17.6441  -33.6289 H   0  0  0  0  0  0  0  0  0  0  0  0
   -4.8834   19.1006  -34.5031 H   0  0  0  0  0  0  0  0  0  0  0  0
   -2.5115   19.0272  -33.3384 H   0  0  0  0  0  0  0  0  0  0  0  0
   -0.5380   20.4195  -32.6408 H   0  0  0  0  0  0  0  0  0  0  0  0
    0.2506   22.5348  -30.8940 H   0  0  0  0  0  0  0  0  0  0  0  0
   -2.6680   25.6880  -29.2300 H   0  0  0  0  0  0  0  0  0  0  0  0
   -5.0437   21.2322  -30.5523 H   0  0  0  0  0  0  0  0  0  0  0  0
   -5.9926   18.7542  -30.5625 H   0  0  0  0  0  0  0  0  0  0  0  0
   -6.8178   19.9964  -31.5144 H   0  0  0  0  0  0  0  0  0  0  0  0
  1  2  1  0
  2  3  1  0
  3  4  1  0
  4  5  1  0
  5  6  1  0
  6  7  1  0
  7  8  1  0
  8  9  1  0
  9 10  2  0
 10 11  1  0
 11 12  2  0
 12 13  1  0
 13 14  2  0
 14 15  1  0
 15 16  1  0
 15 17  2  0
 14 18  1  0
 18 19  1  0
 19 20  2  0
 19 21  1  0
 21 22  1  0
 22 23  2  0
 22 24  1  0
 18 25  1  0
 25 26  2  0
  8 27  1  0
 27  5  1  0
 26  9  1  0
 25 12  1  0
  1 28  1  0
  1 29  1  0
  1 30  1  0
  2 31  1  0
  2 32  1  0
  3 33  1  0
  3 34  1  0
  4 35  1  0
  4 36  1  0
  5 37  1  1
  6 38  1  0
  6 39  1  0
  7 40  1  0
  7 41  1  0
 10 42  1  0
 11 43  1  0
 13 44  1  0
 16 45  1  0
 26 46  1  0
 27 47  1  0
 27 48  1  0
M  CHG  3   3   1  16  -1  24  -1
M  END
>  <UniqueID>  (69) 
69

>  <SMILES>  (69) 
CC[NH2+]C[C@H]1CCN(c2ccc3cc(C([NH-])=O)n(C(=O)OC(=O)[O-])c3c2)C1

>  <Energy>  (69) 
91.1320976809715

>  <Genealogy>  (69) 
CC[NH2+]CC1CCN(c2ccc3cc(C([NH-])=O)n(C(=O)OC(=O)[O-])c3c2)C1 (protonated)
CC[NH2+]C[C@H]1CCN(c2ccc3cc(C([NH-])=O)n(C(=O)OC(=O)[O-])c3c2)C1 (chirality)
CC[NH2+]C[C@H]1CCN(c2ccc3cc(C([NH-])=O)n(C(=O)OC(=O)[O-])c3c2)C1 (3D coordinates assigned)
CC[NH2+]C[C@H]1CCN(c2ccc3cc(C([NH-])=O)n(C(=O)OC(=O)[O-])c3c2)C1 (nonaromatic ring conformer: 91.1320976809715 kcal/mol)

>  <smiles>  (69) 
CCNCC1CCN(c2ccc3cc(C(N)=O)n(C(=O)OC(=O)O)c3c2)C1

>  <score_type>  (69) 
oracle

>  <origin>  (69) 
adg

>  <m_score__min__energy>  (69) 
-11.460000000000001

>  <m_primary>  (69) 
energy

$$$$
70:0
     RDKit          3D

 39 40  0  0  0  0  0  0  0  0999 V2000
   -6.2160   16.9180  -33.4280 C   0  0  0  0  0  0  0  0  0  0  0  0
   -6.8320   17.7090  -32.2760 C   0  0  0  0  0  0  0  0  0  0  0  0
   -7.6900   18.7800  -32.7840 N   0  0  0  0  0  0  0  0  0  0  0  0
   -7.6400   20.1520  -32.3440 C   0  0  0  0  0  0  0  0  0  0  0  0
   -8.8470   20.8910  -32.2670 C   0  0  0  0  0  0  0  0  0  0  0  0
   -8.8500   22.2300  -31.8430 C   0  0  0  0  0  0  0  0  0  0  0  0
   -7.6300   22.8100  -31.5110 C   0  0  0  0  0  0  0  0  0  0  0  0
   -7.3490   24.0770  -31.0520 C   0  0  0  0  0  0  0  0  0  0  0  0
   -5.9670   24.1080  -30.8780 C   0  0  0  0  0  0  0  0  0  0  0  0
   -5.2280   25.3240  -30.4790 C   0  0  0  0  0  0  0  0  0  0  0  0
   -3.8630   25.5050  -30.8450 N   0  0  0  0  0  0  0  0  0  0  0  0
   -5.8240   26.2370  -29.8480 O   0  0  0  0  0  0  0  0  0  0  0  0
   -5.4160   22.9050  -31.2070 N   0  0  0  0  0  0  0  0  0  0  0  0
   -4.0430   22.4980  -31.0830 C   0  0  0  0  0  0  0  0  0  0  0  0
   -3.1690   22.9860  -31.8520 O   0  0  0  0  0  0  0  0  0  0  0  0
   -3.6770   21.5900  -30.0860 O   0  0  0  0  0  0  0  0  0  0  0  0
   -2.6560   21.8590  -29.1340 C   0  0  0  0  0  0  0  0  0  0  0  0
   -2.2880   23.3020  -29.2090 C   0  0  0  0  0  0  0  0  0  0  0  0
   -1.3610   23.6710  -29.9800 O   0  0  0  0  0  0  0  0  0  0  0  0
   -3.0100   24.2360  -28.4610 O   0  0  0  0  0  0  0  0  0  0  0  0
   -4.1540   23.8820  -27.6920 C   0  0  0  0  0  0  0  0  0  0  0  0
   -6.4480   22.1220  -31.5970 C   0  0  0  0  0  0  0  0  0  0  0  0
   -6.4190   20.7820  -31.9980 C   0  0  0  0  0  0  0  0  0  0  0  0
   -5.5874   16.1109  -33.0238 H   0  0  0  0  0  0  0  0  0  0  0  0
   -7.0171   16.4849  -34.0450 H   0  0  0  0  0  0  0  0  0  0  0  0
   -5.5998   17.5885  -34.0450 H   0  0  0  0  0  0  0  0  0  0  0  0
   -7.4326   17.0303  -31.6526 H   0  0  0  0  0  0  0  0  0  0  0  0
   -6.0219   18.1569  -31.6818 H   0  0  0  0  0  0  0  0  0  0  0  0
   -8.3640   18.5270  -33.5420 H   0  0  0  0  0  0  0  0  0  0  0  0
   -9.7960   20.4084  -32.5436 H   0  0  0  0  0  0  0  0  0  0  0  0
   -9.7873   22.8018  -31.7756 H   0  0  0  0  0  0  0  0  0  0  0  0
   -8.0635   24.8916  -30.8628 H   0  0  0  0  0  0  0  0  0  0  0  0
   -3.1390   24.7970  -30.5880 H   0  0  0  0  0  0  0  0  0  0  0  0
   -3.0229   21.6243  -28.1239 H   0  0  0  0  0  0  0  0  0  0  0  0
   -1.7735   21.2394  -29.3514 H   0  0  0  0  0  0  0  0  0  0  0  0
   -3.9134   23.9565  -26.6212 H   0  0  0  0  0  0  0  0  0  0  0  0
   -4.9819   24.5660  -27.9302 H   0  0  0  0  0  0  0  0  0  0  0  0
   -4.4509   22.8500  -27.9302 H   0  0  0  0  0  0  0  0  0  0  0  0
   -5.4689   20.2295  -32.0437 H   0  0  0  0  0  0  0  0  0  0  0  0
  1  2  1  0
  2  3  1  0
  3  4  1  0
  4  5  2  0
  5  6  1  0
  6  7  2  0
  7  8  1  0
  8  9  2  0
  9 10  1  0
 10 11  1  0
 10 12  2  0
  9 13  1  0
 13 14  1  0
 14 15  2  0
 14 16  1  0
 16 17  1  0
 17 18  1  0
 18 19  2  0
 18 20  1  0
 20 21  1  0
 13 22  1  0
 22 23  2  0
 23  4  1  0
 22  7  1  0
  1 24  1  0
  1 25  1  0
  1 26  1  0
  2 27  1  0
  2 28  1  0
  3 29  1  0
  5 30  1  0
  6 31  1  0
  8 32  1  0
 11 33  1  0
 17 34  1  0
 17 35  1  0
 21 36  1  0
 21 37  1  0
 21 38  1  0
 23 39  1  0
M  CHG  1  11  -1
M  END
>  <UniqueID>  (70) 
70

>  <SMILES>  (70) 
CCNc1ccc2cc(C([NH-])=O)n(C(=O)OCC(=O)OC)c2c1

>  <Energy>  (70) 
69.39638028961957

>  <Genealogy>  (70) 
CCNc1ccc2cc(C([NH-])=O)n(C(=O)OCC(=O)OC)c2c1 (protonated)
CCNc1ccc2cc(C([NH-])=O)n(C(=O)OCC(=O)OC)c2c1 (3D coordinates assigned)
CCNc1ccc2cc(C([NH-])=O)n(C(=O)OCC(=O)OC)c2c1 (optimized conformer: 69.39638028961957 kcal/mol)

>  <smiles>  (70) 
CCNc1ccc2cc(C(N)=O)n(C(=O)OCC(=O)OC)c2c1

>  <score_type>  (70) 
oracle

>  <origin>  (70) 
adg

>  <m_score__min__energy>  (70) 
-9.8100000000000005

>  <m_primary>  (70) 
energy

$$$$
71:0
     RDKit          3D

 37 38  0  0  0  0  0  0  0  0999 V2000
   -2.8570   25.3010  -30.5360 H   0  0  0  0  0  0  0  0  0  0  0  0
   -3.8920   25.4260  -30.5960 N   0  0  0  0  0  0  0  0  0  0  0  0
   -4.7800   24.4840  -30.0000 C   0  0  0  0  0  0  0  0  0  0  0  0
   -5.2750   24.7330  -28.8690 O   0  0  0  0  0  0  0  0  0  0  0  0
   -5.1630   23.2460  -30.7100 C   0  0  0  0  0  0  0  0  0  0  0  0
   -6.3960   23.0660  -31.3340 C   0  0  0  0  0  0  0  0  0  0  0  0
   -7.2496   23.7598  -31.3365 H   0  0  0  0  0  0  0  0  0  0  0  0
   -6.3190   21.8350  -31.9470 C   0  0  0  0  0  0  0  0  0  0  0  0
   -7.2580   21.1560  -32.7110 C   0  0  0  0  0  0  0  0  0  0  0  0
   -8.2440   21.5971  -32.9191 H   0  0  0  0  0  0  0  0  0  0  0  0
   -6.9130   19.8890  -33.2110 C   0  0  0  0  0  0  0  0  0  0  0  0
   -7.6340   19.3396  -33.8341 H   0  0  0  0  0  0  0  0  0  0  0  0
   -5.6440   19.3020  -32.9250 C   0  0  0  0  0  0  0  0  0  0  0  0
   -5.2250   17.9340  -33.4840 C   0  0  0  0  0  0  0  0  0  0  0  0
   -5.3150   16.9190  -32.4110 C   0  0  0  0  0  0  0  0  0  0  0  0
   -5.3840   16.1260  -31.5710 N   0  0  0  0  0  0  0  0  0  0  0  0
   -6.1180   17.4430  -34.6440 C   0  0  0  0  0  0  0  0  0  0  0  0
   -7.0128   16.9510  -34.2350 H   0  0  0  0  0  0  0  0  0  0  0  0
   -6.4214   18.3011  -35.2617 H   0  0  0  0  0  0  0  0  0  0  0  0
   -5.5560   16.7271  -35.2617 H   0  0  0  0  0  0  0  0  0  0  0  0
   -3.7690   18.0100  -33.9730 C   0  0  0  0  0  0  0  0  0  0  0  0
   -3.0925   18.0453  -33.1063 H   0  0  0  0  0  0  0  0  0  0  0  0
   -3.5397   17.1226  -34.5812 H   0  0  0  0  0  0  0  0  0  0  0  0
   -3.6333   18.9165  -34.5812 H   0  0  0  0  0  0  0  0  0  0  0  0
   -4.7130   20.0500  -32.1540 C   0  0  0  0  0  0  0  0  0  0  0  0
   -3.7170   19.6405  -31.9296 H   0  0  0  0  0  0  0  0  0  0  0  0
   -5.0830   21.3150  -31.6850 C   0  0  0  0  0  0  0  0  0  0  0  0
   -4.3610   22.1640  -30.9220 N   0  0  0  0  0  0  0  0  0  0  0  0
   -3.0500   21.9150  -30.3930 C   0  0  0  0  0  0  0  0  0  0  0  0
   -2.7480   20.7540  -30.0040 O   0  0  0  0  0  0  0  0  0  0  0  0
   -2.0860   23.0250  -30.2600 C   0  0  0  0  0  0  0  0  0  0  0  0
   -1.5408   23.3643  -31.1531 H   0  0  0  0  0  0  0  0  0  0  0  0
   -1.8520   23.6330  -29.0910 C   0  0  0  0  0  0  0  0  0  0  0  0
   -2.3978   23.2978  -28.1967 H   0  0  0  0  0  0  0  0  0  0  0  0
   -0.8870   24.7360  -28.9660 C   0  0  0  0  0  0  0  0  0  0  0  0
    0.2760   24.5000  -28.5470 O   0  0  0  0  0  0  0  0  0  0  0  0
   -1.2390   26.0370  -29.3050 O   0  0  0  0  0  0  0  0  0  0  0  0
  1  2  1  0
  2  3  1  0
  3  4  2  0
  3  5  1  0
  5  6  2  0
  6  7  1  0
  6  8  1  0
  8  9  2  0
  9 10  1  0
  9 11  1  0
 11 12  1  0
 11 13  2  0
 13 14  1  0
 14 15  1  0
 15 16  3  0
 14 17  1  0
 17 18  1  0
 17 19  1  0
 17 20  1  0
 14 21  1  0
 21 22  1  0
 21 23  1  0
 21 24  1  0
 13 25  1  0
 25 26  1  0
 25 27  2  0
 27 28  1  0
 28 29  1  0
 29 30  2  0
 29 31  1  0
 31 32  1  0
 31 33  2  0
 33 34  1  0
 33 35  1  0
 35 36  2  0
 35 37  1  0
 28  5  1  0
 27  8  1  0
M  CHG  2   2  -1  37  -1
M  END
>  <UniqueID>  (71) 
71

>  <SMILES>  (71) 
CC(C)(C#N)c1ccc2cc(C([NH-])=O)n(C(=O)/C=C/C(=O)[O-])c2c1

>  <Energy>  (71) 
76.24780163042011

>  <Genealogy>  (71) 
CC(C)(C#N)c1ccc2cc(C([NH-])=O)n(C(=O)/C=C/C(=O)[O-])c2c1 (protonated)
CC(C)(C#N)c1ccc2cc(C([NH-])=O)n(C(=O)/C=C/C(=O)[O-])c2c1 (cis-trans isomerization)
CC(C)(C#N)c1ccc2cc(C([NH-])=O)n(C(=O)/C=C/C(=O)[O-])c2c1 (3D coordinates assigned)
CC(C)(C#N)c1ccc2cc(C([NH-])=O)n(C(=O)/C=C/C(=O)[O-])c2c1 (optimized conformer: 76.24780163042011 kcal/mol)

>  <smiles>  (71) 
CC(C)(C#N)c1ccc2cc(C(N)=O)n(C(=O)/C=C/C(=O)O)c2c1

>  <score_type>  (71) 
oracle

>  <origin>  (71) 
adg

>  <m_score__min__energy>  (71) 
-12.869999999999999

>  <m_primary>  (71) 
energy

$$$$
72:0
     RDKit          3D

 45 46  0  0  0  0  0  0  0  0999 V2000
   -2.7320   24.9240  -28.5850 N   0  0  0  0  0  0  0  0  0  0  0  0
   -1.6630   24.1900  -29.1840 C   0  0  0  0  0  0  0  0  0  0  0  0
   -0.4750   24.5370  -28.9520 O   0  0  0  0  0  0  0  0  0  0  0  0
   -1.9410   23.0120  -30.0370 C   0  0  0  0  0  0  0  0  0  0  0  0
   -0.9960   22.0330  -30.3400 C   0  0  0  0  0  0  0  0  0  0  0  0
   -1.6150   21.1930  -31.2360 C   0  0  0  0  0  0  0  0  0  0  0  0
   -1.1310   20.0560  -31.8760 C   0  0  0  0  0  0  0  0  0  0  0  0
   -1.9930   19.3760  -32.7520 C   0  0  0  0  0  0  0  0  0  0  0  0
   -3.3170   19.8350  -32.9620 C   0  0  0  0  0  0  0  0  0  0  0  0
   -4.2240   19.1060  -33.9210 C   0  0  0  0  0  0  0  0  0  0  0  0
   -5.7090   19.1910  -33.5070 C   0  0  1  0  0  0  0  0  0  0  0  0
   -6.4720   19.6840  -34.5790 O   0  0  0  0  0  0  0  0  0  0  0  0
   -6.2830   17.8360  -33.0380 C   0  0  0  0  0  0  0  0  0  0  0  0
   -7.6120   17.6750  -33.4540 O   0  0  0  0  0  0  0  0  0  0  0  0
   -3.7730   20.9920  -32.2930 C   0  0  0  0  0  0  0  0  0  0  0  0
   -2.8860   21.6630  -31.4450 C   0  0  0  0  0  0  0  0  0  0  0  0
   -3.1020   22.7810  -30.7160 N   0  0  0  0  0  0  0  0  0  0  0  0
   -4.3200   23.5420  -30.6600 C   0  0  0  0  0  0  0  0  0  0  0  0
   -4.2940   24.7890  -30.8480 O   0  0  0  0  0  0  0  0  0  0  0  0
   -5.5300   22.8940  -30.3890 O   0  0  0  0  0  0  0  0  0  0  0  0
   -6.7420   23.1690  -31.0890 C   0  0  0  0  0  0  0  0  0  0  0  0
   -6.9240   22.2020  -32.2640 C   0  0  0  0  0  0  0  0  0  0  0  0
   -8.1370   21.3290  -32.0730 C   0  0  0  0  0  0  0  0  0  0  0  0
   -8.0470   20.1250  -32.2640 O   0  0  0  0  0  0  0  0  0  0  0  0
   -9.4490   21.9230  -31.6400 C   0  0  0  0  0  0  0  0  0  0  0  0
   -9.5690   21.8850  -30.2620 F   0  0  0  0  0  0  0  0  0  0  0  0
  -10.4900   21.2070  -32.2000 F   0  0  0  0  0  0  0  0  0  0  0  0
   -9.5240   23.2390  -32.0590 F   0  0  0  0  0  0  0  0  0  0  0  0
   -2.5240   25.7290  -27.9530 H   0  0  0  0  0  0  0  0  0  0  0  0
   -3.7290   24.7010  -28.7960 H   0  0  0  0  0  0  0  0  0  0  0  0
    0.0277   21.9499  -29.9460 H   0  0  0  0  0  0  0  0  0  0  0  0
   -0.1047   19.7007  -31.7012 H   0  0  0  0  0  0  0  0  0  0  0  0
   -1.6370   18.4790  -33.2798 H   0  0  0  0  0  0  0  0  0  0  0  0
   -4.1102   19.5495  -34.9212 H   0  0  0  0  0  0  0  0  0  0  0  0
   -3.9345   18.0448  -33.9152 H   0  0  0  0  0  0  0  0  0  0  0  0
   -5.7646   19.8770  -32.6489 H   0  0  0  0  0  0  0  0  0  0  0  0
   -7.4270   19.6570  -34.3040 H   0  0  0  0  0  0  0  0  0  0  0  0
   -5.6741   17.0232  -33.4607 H   0  0  0  0  0  0  0  0  0  0  0  0
   -6.2575   17.8097  -31.9386 H   0  0  0  0  0  0  0  0  0  0  0  0
   -8.0000   18.5850  -33.5280 H   0  0  0  0  0  0  0  0  0  0  0  0
   -4.8010   21.3567  -32.4354 H   0  0  0  0  0  0  0  0  0  0  0  0
   -7.5905   23.0598  -30.3975 H   0  0  0  0  0  0  0  0  0  0  0  0
   -6.6971   24.1957  -31.4813 H   0  0  0  0  0  0  0  0  0  0  0  0
   -7.0430   22.7827  -33.1906 H   0  0  0  0  0  0  0  0  0  0  0  0
   -6.0364   21.5547  -32.3211 H   0  0  0  0  0  0  0  0  0  0  0  0
  1  2  1  0
  2  3  2  0
  2  4  1  0
  4  5  2  0
  5  6  1  0
  6  7  2  0
  7  8  1  0
  8  9  2  0
  9 10  1  0
 10 11  1  0
 11 12  1  0
 11 13  1  0
 13 14  1  0
  9 15  1  0
 15 16  2  0
 16 17  1  0
 17 18  1  0
 18 19  2  0
 18 20  1  0
 20 21  1  0
 21 22  1  0
 22 23  1  0
 23 24  2  0
 23 25  1  0
 25 26  1  0
 25 27  1  0
 25 28  1  0
 17  4  1  0
 16  6  1  0
  1 29  1  0
  1 30  1  0
  5 31  1  0
  7 32  1  0
  8 33  1  0
 10 34  1  0
 10 35  1  0
 11 36  1  1
 12 37  1  0
 13 38  1  0
 13 39  1  0
 14 40  1  0
 15 41  1  0
 21 42  1  0
 21 43  1  0
 22 44  1  0
 22 45  1  0
M  END
>  <UniqueID>  (72) 
72

>  <SMILES>  (72) 
NC(=O)c1cc2ccc(C[C@@H](O)CO)cc2n1C(=O)OCCC(=O)C(F)(F)F

>  <Energy>  (72) 
73.88823972944905

>  <Genealogy>  (72) 
NC(=O)c1cc2ccc(C[C@@H](O)CO)cc2n1C(=O)OCCC(=O)C(F)(F)F (3D coordinates assigned)
NC(=O)c1cc2ccc(C[C@@H](O)CO)cc2n1C(=O)OCCC(=O)C(F)(F)F (optimized conformer: 73.88823972944905 kcal/mol)

>  <smiles>  (72) 
NC(=O)c1cc2ccc(C[C@@H](O)CO)cc2n1C(=O)OCCC(=O)C(F)(F)F

>  <score_type>  (72) 
oracle

>  <origin>  (72) 
adg

>  <m_score__min__energy>  (72) 
-7.8099999999999996

>  <m_primary>  (72) 
energy

$$$$
73:0
     RDKit          3D

 45 46  0  0  0  0  0  0  0  0999 V2000
   -2.7470   21.2970  -28.9950 C   0  0  0  0  0  0  0  0  0  0  0  0
   -2.8400   22.5370  -29.7720 N   0  0  0  0  0  0  0  0  0  0  0  0
   -3.4340   22.5070  -31.0850 C   0  0  0  0  0  0  0  0  0  0  0  0
   -2.7000   22.3750  -32.1020 O   0  0  0  0  0  0  0  0  0  0  0  0
   -4.8490   22.6860  -31.2540 N   0  0  0  0  0  0  0  0  0  0  0  0
   -5.6090   23.7580  -30.8900 C   0  0  0  0  0  0  0  0  0  0  0  0
   -5.1040   25.0390  -30.3510 C   0  0  0  0  0  0  0  0  0  0  0  0
   -3.8940   25.6170  -30.8320 N   0  0  0  0  0  0  0  0  0  0  0  0
   -5.7710   25.6510  -29.4740 O   0  0  0  0  0  0  0  0  0  0  0  0
   -6.9530   23.5160  -31.1630 C   0  0  0  0  0  0  0  0  0  0  0  0
   -6.9930   22.2530  -31.7090 C   0  0  0  0  0  0  0  0  0  0  0  0
   -8.0740   21.5080  -32.1630 C   0  0  0  0  0  0  0  0  0  0  0  0
   -7.8240   20.2220  -32.6700 C   0  0  0  0  0  0  0  0  0  0  0  0
   -6.5030   19.6910  -32.7090 C   0  0  0  0  0  0  0  0  0  0  0  0
   -6.2530   18.3620  -33.2350 N   0  0  0  0  0  0  0  0  0  0  0  0
   -6.5070   17.1730  -32.4120 C   0  0  0  0  0  0  0  0  0  0  0  0
   -5.7500   18.1860  -34.6030 C   0  0  0  0  0  0  0  0  0  0  0  0
   -5.4340   20.4880  -32.2250 C   0  0  0  0  0  0  0  0  0  0  0  0
   -5.7130   21.7730  -31.7480 C   0  0  0  0  0  0  0  0  0  0  0  0
   -2.4510   23.7820  -29.1550 C   0  0  0  0  0  0  0  0  0  0  0  0
   -1.3170   24.2720  -29.4210 O   0  0  0  0  0  0  0  0  0  0  0  0
   -3.2990   24.4220  -28.1720 N   0  0  0  0  0  0  0  0  0  0  0  0
   -4.2630   23.4470  -27.6410 C   0  0  0  0  0  0  0  0  0  0  0  0
   -2.4920   24.9980  -27.0830 C   0  0  0  0  0  0  0  0  0  0  0  0
   -2.7648   21.5350  -27.9212 H   0  0  0  0  0  0  0  0  0  0  0  0
   -3.5988   20.6457  -29.2405 H   0  0  0  0  0  0  0  0  0  0  0  0
   -1.8076   20.7801  -29.2405 H   0  0  0  0  0  0  0  0  0  0  0  0
   -2.9670   25.2940  -30.4780 H   0  0  0  0  0  0  0  0  0  0  0  0
   -7.8024   24.1909  -30.9810 H   0  0  0  0  0  0  0  0  0  0  0  0
   -9.0960   21.9133  -32.1266 H   0  0  0  0  0  0  0  0  0  0  0  0
   -8.6622   19.6152  -33.0430 H   0  0  0  0  0  0  0  0  0  0  0  0
   -6.4490   17.4446  -31.3476 H   0  0  0  0  0  0  0  0  0  0  0  0
   -7.5095   16.7794  -32.6359 H   0  0  0  0  0  0  0  0  0  0  0  0
   -5.7528   16.4042  -32.6359 H   0  0  0  0  0  0  0  0  0  0  0  0
   -4.7122   17.8229  -34.5682 H   0  0  0  0  0  0  0  0  0  0  0  0
   -6.3771   17.4539  -35.1329 H   0  0  0  0  0  0  0  0  0  0  0  0
   -5.7838   19.1494  -35.1329 H   0  0  0  0  0  0  0  0  0  0  0  0
   -4.4038   20.1023  -32.2248 H   0  0  0  0  0  0  0  0  0  0  0  0
   -3.8450   25.1950  -28.6130 H   0  0  0  0  0  0  0  0  0  0  0  0
   -4.2401   23.4702  -26.5415 H   0  0  0  0  0  0  0  0  0  0  0  0
   -5.2737   23.7022  -27.9921 H   0  0  0  0  0  0  0  0  0  0  0  0
   -3.9964   22.4392  -27.9921 H   0  0  0  0  0  0  0  0  0  0  0  0
   -2.9153   24.6959  -26.1137 H   0  0  0  0  0  0  0  0  0  0  0  0
   -1.4572   24.6331  -27.1610 H   0  0  0  0  0  0  0  0  0  0  0  0
   -2.5008   26.0952  -27.1610 H   0  0  0  0  0  0  0  0  0  0  0  0
  1  2  1  0
  2  3  1  0
  3  4  2  0
  3  5  1  0
  5  6  1  0
  6  7  1  0
  7  8  1  0
  7  9  2  0
  6 10  2  0
 10 11  1  0
 11 12  2  0
 12 13  1  0
 13 14  2  0
 14 15  1  0
 15 16  1  0
 15 17  1  0
 14 18  1  0
 18 19  2  0
  2 20  1  0
 20 21  2  0
 20 22  1  0
 22 23  1  0
 22 24  1  0
 19  5  1  0
 19 11  1  0
  1 25  1  0
  1 26  1  0
  1 27  1  0
  8 28  1  0
 10 29  1  0
 12 30  1  0
 13 31  1  0
 16 32  1  0
 16 33  1  0
 16 34  1  0
 17 35  1  0
 17 36  1  0
 17 37  1  0
 18 38  1  0
 22 39  1  0
 23 40  1  0
 23 41  1  0
 23 42  1  0
 24 43  1  0
 24 44  1  0
 24 45  1  0
M  CHG  2   8  -1  22   1
M  END
>  <UniqueID>  (73) 
73

>  <SMILES>  (73) 
CN(C(=O)n1c(C([NH-])=O)cc2ccc(N(C)C)cc21)C(=O)[NH+](C)C

>  <Energy>  (73) 
87.5320639429596

>  <Genealogy>  (73) 
CN(C(=O)n1c(C([NH-])=O)cc2ccc(N(C)C)cc21)C(=O)[NH+](C)C (protonated)
CN(C(=O)n1c(C([NH-])=O)cc2ccc(N(C)C)cc21)C(=O)[NH+](C)C (3D coordinates assigned)
CN(C(=O)n1c(C([NH-])=O)cc2ccc(N(C)C)cc21)C(=O)[NH+](C)C (optimized conformer: 87.5320639429596 kcal/mol)

>  <smiles>  (73) 
CN(C)C(=O)N(C)C(=O)n1c(C(N)=O)cc2ccc(N(C)C)cc21

>  <score_type>  (73) 
oracle

>  <origin>  (73) 
adg

>  <m_score__min__energy>  (73) 
-9.2200000000000006

>  <m_primary>  (73) 
energy

$$$$
74:0
     RDKit          3D

 52 53  0  0  0  0  0  0  0  0999 V2000
   -7.9130   18.3290  -31.7230 C   0  0  0  0  0  0  0  0  0  0  0  0
   -9.0480   19.2960  -32.0420 C   0  0  0  0  0  0  0  0  0  0  0  0
   -8.5350   20.5080  -32.5910 O   0  0  0  0  0  0  0  0  0  0  0  0
   -8.1630   21.6110  -31.8170 C   0  0  0  0  0  0  0  0  0  0  0  0
   -8.8690   21.9810  -30.8370 O   0  0  0  0  0  0  0  0  0  0  0  0
   -6.9960   22.3000  -32.1480 O   0  0  0  0  0  0  0  0  0  0  0  0
   -6.8590   23.7120  -32.0100 C   0  0  0  0  0  0  0  0  0  0  0  0
   -5.4990   24.0700  -32.0370 O   0  0  0  0  0  0  0  0  0  0  0  0
   -5.0040   24.5610  -30.4730 P   0  0  2  0  0  0  0  0  0  0  0  0
   -6.0120   25.5490  -29.9330 O   0  0  0  0  0  0  0  0  0  0  0  0
   -3.4780   25.2980  -30.4750 O   0  0  0  0  0  0  0  0  0  0  0  0
   -4.9720   23.1070  -29.3680 C   0  0  0  0  0  0  0  0  0  0  0  0
   -3.8650   22.1110  -29.7370 C   0  0  0  0  0  0  0  0  0  0  0  0
   -3.2090   22.4170  -31.0850 C   0  0  0  0  0  0  0  0  0  0  0  0
   -4.0170   21.8810  -32.1280 O   0  0  0  0  0  0  0  0  0  0  0  0
   -4.4730   20.5600  -32.1330 C   0  0  0  0  0  0  0  0  0  0  0  0
   -5.4720   20.2330  -31.4340 O   0  0  0  0  0  0  0  0  0  0  0  0
   -3.7930   19.5740  -32.9300 N   0  0  0  0  0  0  0  0  0  0  0  0
   -4.3320   18.7850  -33.9030 C   0  0  0  0  0  0  0  0  0  0  0  0
   -5.7020   18.8900  -34.4450 C   0  0  0  0  0  0  0  0  0  0  0  0
   -6.6140   19.8780  -33.9660 N   0  0  0  0  0  0  0  0  0  0  0  0
   -6.0540   18.1290  -35.3860 O   0  0  0  0  0  0  0  0  0  0  0  0
   -3.4000   17.8600  -34.3630 C   0  0  0  0  0  0  0  0  0  0  0  0
   -2.2550   18.1100  -33.6440 C   0  0  0  0  0  0  0  0  0  0  0  0
   -1.0170   17.4780  -33.6920 C   0  0  0  0  0  0  0  0  0  0  0  0
   -0.0180   17.9180  -32.8090 C   0  0  0  0  0  0  0  0  0  0  0  0
   -0.2780   18.9580  -31.8800 C   0  0  0  0  0  0  0  0  0  0  0  0
    0.8170   19.4420  -30.9640 C   0  0  0  0  0  0  0  0  0  0  0  0
    1.0710   18.4760  -30.0090 F   0  0  0  0  0  0  0  0  0  0  0  0
    1.9790   19.6900  -31.6740 F   0  0  0  0  0  0  0  0  0  0  0  0
    0.4390   20.6140  -30.3320 F   0  0  0  0  0  0  0  0  0  0  0  0
   -1.5430   19.5910  -31.8790 C   0  0  0  0  0  0  0  0  0  0  0  0
   -2.5160   19.1470  -32.7840 C   0  0  0  0  0  0  0  0  0  0  0  0
   -7.8052   18.2372  -30.6321 H   0  0  0  0  0  0  0  0  0  0  0  0
   -8.1400   17.3425  -32.1534 H   0  0  0  0  0  0  0  0  0  0  0  0
   -6.9750   18.7098  -32.1534 H   0  0  0  0  0  0  0  0  0  0  0  0
   -9.7275   18.8285  -32.7698 H   0  0  0  0  0  0  0  0  0  0  0  0
   -9.5880   19.5283  -31.1122 H   0  0  0  0  0  0  0  0  0  0  0  0
   -7.3833   24.2112  -32.8382 H   0  0  0  0  0  0  0  0  0  0  0  0
   -7.2947   24.0241  -31.0494 H   0  0  0  0  0  0  0  0  0  0  0  0
   -4.8065   23.4517  -28.3366 H   0  0  0  0  0  0  0  0  0  0  0  0
   -5.9361   22.5877  -29.4720 H   0  0  0  0  0  0  0  0  0  0  0  0
   -3.0912   22.1420  -28.9558 H   0  0  0  0  0  0  0  0  0  0  0  0
   -4.3301   21.1173  -29.8160 H   0  0  0  0  0  0  0  0  0  0  0  0
   -3.1181   23.5059  -31.2119 H   0  0  0  0  0  0  0  0  0  0  0  0
   -2.2074   21.9636  -31.1215 H   0  0  0  0  0  0  0  0  0  0  0  0
   -6.2990   20.6210  -33.3060 H   0  0  0  0  0  0  0  0  0  0  0  0
   -7.5950   19.9080  -34.3240 H   0  0  0  0  0  0  0  0  0  0  0  0
   -3.5477   17.0924  -35.1369 H   0  0  0  0  0  0  0  0  0  0  0  0
   -0.8263   16.6583  -34.4003 H   0  0  0  0  0  0  0  0  0  0  0  0
    0.9775   17.4510  -32.8379 H   0  0  0  0  0  0  0  0  0  0  0  0
   -1.7583   20.4146  -31.1823 H   0  0  0  0  0  0  0  0  0  0  0  0
  1  2  1  0
  2  3  1  0
  3  4  1  0
  4  5  2  0
  4  6  1  0
  6  7  1  0
  7  8  1  0
  8  9  1  0
  9 10  2  0
  9 11  1  6
  9 12  1  0
 12 13  1  0
 13 14  1  0
 14 15  1  0
 15 16  1  0
 16 17  2  0
 16 18  1  0
 18 19  1  0
 19 20  1  0
 20 21  1  0
 20 22  2  0
 19 23  2  0
 23 24  1  0
 24 25  2  0
 25 26  1  0
 26 27  2  0
 27 28  1  0
 28 29  1  0
 28 30  1  0
 28 31  1  0
 27 32  1  0
 32 33  2  0
 33 18  1  0
 33 24  1  0
  1 34  1  0
  1 35  1  0
  1 36  1  0
  2 37  1  0
  2 38  1  0
  7 39  1  0
  7 40  1  0
 12 41  1  0
 12 42  1  0
 13 43  1  0
 13 44  1  0
 14 45  1  0
 14 46  1  0
 21 47  1  0
 21 48  1  0
 23 49  1  0
 25 50  1  0
 26 51  1  0
 32 52  1  0
M  CHG  1  11  -1
M  END
>  <UniqueID>  (74) 
74

>  <SMILES>  (74) 
CCOC(=O)OCO[P@](=O)([O-])CCCOC(=O)n1c(C(N)=O)cc2ccc(C(F)(F)F)cc21

>  <Energy>  (74) 
75.1827147624762

>  <Genealogy>  (74) 
CCOC(=O)OCOP(=O)([O-])CCCOC(=O)n1c(C(N)=O)cc2ccc(C(F)(F)F)cc21 (protonated)
CCOC(=O)OCO[P@](=O)([O-])CCCOC(=O)n1c(C(N)=O)cc2ccc(C(F)(F)F)cc21 (chirality)
CCOC(=O)OCO[P@](=O)([O-])CCCOC(=O)n1c(C(N)=O)cc2ccc(C(F)(F)F)cc21 (3D coordinates assigned)
CCOC(=O)OCO[P@](=O)([O-])CCCOC(=O)n1c(C(N)=O)cc2ccc(C(F)(F)F)cc21 (optimized conformer: 75.1827147624762 kcal/mol)

>  <smiles>  (74) 
CCOC(=O)OCOP(=O)(O)CCCOC(=O)n1c(C(N)=O)cc2ccc(C(F)(F)F)cc21

>  <score_type>  (74) 
oracle

>  <origin>  (74) 
adg

>  <m_score__min__energy>  (74) 
-10.26

>  <m_primary>  (74) 
energy

$$$$
75:0
     RDKit          3D

 47 49  0  0  0  0  0  0  0  0999 V2000
   -5.3240   14.3570  -34.5620 C   0  0  0  0  0  0  0  0  0  0  0  0
   -5.6030   15.7500  -34.0680 C   0  0  0  0  0  0  0  0  0  0  0  0
   -6.8520   16.0550  -33.5050 C   0  0  0  0  0  0  0  0  0  0  0  0
   -7.1260   17.3440  -33.0430 C   0  0  0  0  0  0  0  0  0  0  0  0
   -6.1540   18.3560  -33.1330 C   0  0  0  0  0  0  0  0  0  0  0  0
   -6.4470   19.7280  -32.6440 C   0  0  0  0  0  0  0  0  0  0  0  0
   -7.7880   20.1910  -32.5600 C   0  0  0  0  0  0  0  0  0  0  0  0
   -8.0730   21.4830  -32.0890 C   0  0  0  0  0  0  0  0  0  0  0  0
   -7.0060   22.2950  -31.7190 C   0  0  0  0  0  0  0  0  0  0  0  0
   -6.9990   23.5750  -31.2130 C   0  0  0  0  0  0  0  0  0  0  0  0
   -5.6560   23.8890  -31.0180 C   0  0  0  0  0  0  0  0  0  0  0  0
   -5.1870   25.2160  -30.5660 C   0  0  0  0  0  0  0  0  0  0  0  0
   -3.8610   25.6580  -30.8400 N   0  0  0  0  0  0  0  0  0  0  0  0
   -5.9850   25.9890  -29.9720 O   0  0  0  0  0  0  0  0  0  0  0  0
   -4.8640   22.8390  -31.3810 N   0  0  0  0  0  0  0  0  0  0  0  0
   -3.4370   22.7270  -31.2740 C   0  0  0  0  0  0  0  0  0  0  0  0
   -2.8680   23.0030  -30.1830 O   0  0  0  0  0  0  0  0  0  0  0  0
   -2.7000   22.2820  -32.3810 O   0  0  0  0  0  0  0  0  0  0  0  0
   -2.0380   21.0160  -32.5100 C   0  0  0  0  0  0  0  0  0  0  0  0
   -0.5310   21.3000  -32.5920 C   0  0  0  0  0  0  0  0  0  0  0  0
   -2.4800   20.3030  -33.8020 C   0  0  0  0  0  0  0  0  0  0  0  0
   -2.3130   20.1320  -31.2790 C   0  0  0  0  0  0  0  0  0  0  0  0
   -5.7050   21.8740  -31.8110 C   0  0  0  0  0  0  0  0  0  0  0  0
   -5.3910   20.5850  -32.2550 C   0  0  0  0  0  0  0  0  0  0  0  0
   -4.9040   18.0500  -33.6970 C   0  0  0  0  0  0  0  0  0  0  0  0
   -4.6250   16.7600  -34.1620 C   0  0  0  0  0  0  0  0  0  0  0  0
   -3.0420   16.4410  -34.8640 Cl  0  0  0  0  0  0  0  0  0  0  0  0
   -5.1891   13.6834  -33.7029 H   0  0  0  0  0  0  0  0  0  0  0  0
   -6.1701   14.0080  -35.1722 H   0  0  0  0  0  0  0  0  0  0  0  0
   -4.4088   14.3608  -35.1722 H   0  0  0  0  0  0  0  0  0  0  0  0
   -7.6211   15.2725  -33.4271 H   0  0  0  0  0  0  0  0  0  0  0  0
   -8.1097   17.5694  -32.6053 H   0  0  0  0  0  0  0  0  0  0  0  0
   -8.6119   19.5301  -32.8673 H   0  0  0  0  0  0  0  0  0  0  0  0
   -9.1100   21.8424  -32.0148 H   0  0  0  0  0  0  0  0  0  0  0  0
   -7.8697   24.2146  -31.0063 H   0  0  0  0  0  0  0  0  0  0  0  0
   -3.0350   25.1530  -30.4500 H   0  0  0  0  0  0  0  0  0  0  0  0
   -0.1168   21.3781  -31.5760 H   0  0  0  0  0  0  0  0  0  0  0  0
   -0.0321   20.4801  -33.1294 H   0  0  0  0  0  0  0  0  0  0  0  0
   -0.3647   22.2453  -33.1294 H   0  0  0  0  0  0  0  0  0  0  0  0
   -3.0435   19.3940  -33.5448 H   0  0  0  0  0  0  0  0  0  0  0  0
   -3.1194   20.9762  -34.3919 H   0  0  0  0  0  0  0  0  0  0  0  0
   -1.5927   20.0297  -34.3919 H   0  0  0  0  0  0  0  0  0  0  0  0
   -2.1323   20.7130  -30.3626 H   0  0  0  0  0  0  0  0  0  0  0  0
   -3.3592   19.7926  -31.2976 H   0  0  0  0  0  0  0  0  0  0  0  0
   -1.6440   19.2591  -31.2976 H   0  0  0  0  0  0  0  0  0  0  0  0
   -4.3457   20.2454  -32.3006 H   0  0  0  0  0  0  0  0  0  0  0  0
   -4.1358   18.8336  -33.7739 H   0  0  0  0  0  0  0  0  0  0  0  0
  1  2  1  0
  2  3  2  0
  3  4  1  0
  4  5  2  0
  5  6  1  0
  6  7  2  0
  7  8  1  0
  8  9  2  0
  9 10  1  0
 10 11  2  0
 11 12  1  0
 12 13  1  0
 12 14  2  0
 11 15  1  0
 15 16  1  0
 16 17  2  0
 16 18  1  0
 18 19  1  0
 19 20  1  0
 19 21  1  0
 19 22  1  0
 15 23  1  0
 23 24  2  0
  5 25  1  0
 25 26  2  0
 26 27  1  0
 26  2  1  0
 24  6  1  0
 23  9  1  0
  1 28  1  0
  1 29  1  0
  1 30  1  0
  3 31  1  0
  4 32  1  0
  7 33  1  0
  8 34  1  0
 10 35  1  0
 13 36  1  0
 20 37  1  0
 20 38  1  0
 20 39  1  0
 21 40  1  0
 21 41  1  0
 21 42  1  0
 22 43  1  0
 22 44  1  0
 22 45  1  0
 24 46  1  0
 25 47  1  0
M  CHG  1  13  -1
M  END
>  <UniqueID>  (75) 
75

>  <SMILES>  (75) 
Cc1ccc(-c2ccc3cc(C([NH-])=O)n(C(=O)OC(C)(C)C)c3c2)cc1Cl

>  <Energy>  (75) 
88.59472995429566

>  <Genealogy>  (75) 
Cc1ccc(-c2ccc3cc(C([NH-])=O)n(C(=O)OC(C)(C)C)c3c2)cc1Cl (protonated)
Cc1ccc(-c2ccc3cc(C([NH-])=O)n(C(=O)OC(C)(C)C)c3c2)cc1Cl (3D coordinates assigned)
Cc1ccc(-c2ccc3cc(C([NH-])=O)n(C(=O)OC(C)(C)C)c3c2)cc1Cl (optimized conformer: 88.59472995429566 kcal/mol)

>  <smiles>  (75) 
Cc1ccc(-c2ccc3cc(C(N)=O)n(C(=O)OC(C)(C)C)c3c2)cc1Cl

>  <score_type>  (75) 
oracle

>  <origin>  (75) 
adg

>  <m_score__min__energy>  (75) 
-11.52

>  <m_primary>  (75) 
energy

$$$$
76:0
     RDKit          3D

 48 49  0  0  0  0  0  0  0  0999 V2000
   -3.7870   18.0450  -34.0710 C   0  0  0  0  0  0  0  0  0  0  0  0
   -4.4260   16.9100  -34.7600 N   0  0  0  0  0  0  0  0  0  0  0  0
   -3.4660   16.3090  -35.7000 C   0  0  0  0  0  0  0  0  0  0  0  0
   -4.8930   15.8980  -33.7880 C   0  0  0  0  0  0  0  0  0  0  0  0
   -6.2270   16.3260  -33.1630 C   0  0  0  0  0  0  0  0  0  0  0  0
   -6.6780   17.5980  -33.7290 N   0  0  0  0  0  0  0  0  0  0  0  0
   -7.0700   18.7430  -32.9450 C   0  0  0  0  0  0  0  0  0  0  0  0
   -8.3700   18.7790  -32.3810 C   0  0  0  0  0  0  0  0  0  0  0  0
   -8.7890   19.8690  -31.6010 C   0  0  0  0  0  0  0  0  0  0  0  0
   -7.8920   20.9140  -31.4050 C   0  0  0  0  0  0  0  0  0  0  0  0
   -8.0230   22.0650  -30.6620 C   0  0  0  0  0  0  0  0  0  0  0  0
   -6.8100   22.7320  -30.8010 C   0  0  0  0  0  0  0  0  0  0  0  0
   -6.5350   24.0540  -30.2040 C   0  0  0  0  0  0  0  0  0  0  0  0
   -5.3180   24.3100  -29.5010 N   0  0  0  0  0  0  0  0  0  0  0  0
   -7.3640   24.9890  -30.3630 O   0  0  0  0  0  0  0  0  0  0  0  0
   -5.9560   22.0190  -31.5880 N   0  0  0  0  0  0  0  0  0  0  0  0
   -4.5730   22.3020  -31.8590 C   0  0  0  0  0  0  0  0  0  0  0  0
   -4.2240   22.6790  -33.0120 O   0  0  0  0  0  0  0  0  0  0  0  0
   -3.6220   22.1730  -30.8410 O   0  0  0  0  0  0  0  0  0  0  0  0
   -2.2840   22.6520  -30.9480 C   0  0  0  0  0  0  0  0  0  0  0  0
   -1.8020   23.1990  -29.6050 C   0  0  0  0  0  0  0  0  0  0  0  0
   -2.4930   24.8540  -29.3010 P   0  0  0  0  0  0  0  0  0  0  0  0
   -3.3070   24.8310  -28.0280 O   0  0  0  0  0  0  0  0  0  0  0  0
   -3.4880   25.3020  -30.5940 O   0  0  0  0  0  0  0  0  0  0  0  0
   -1.2370   25.9750  -29.1430 O   0  0  0  0  0  0  0  0  0  0  0  0
   -6.6360   20.9100  -31.9560 C   0  0  0  0  0  0  0  0  0  0  0  0
   -6.1890   19.8300  -32.7240 C   0  0  0  0  0  0  0  0  0  0  0  0
   -3.8659   17.9049  -32.9828 H   0  0  0  0  0  0  0  0  0  0  0  0
   -2.7264   18.0981  -34.3579 H   0  0  0  0  0  0  0  0  0  0  0  0
   -4.2917   18.9793  -34.3579 H   0  0  0  0  0  0  0  0  0  0  0  0
   -2.6655   15.8078  -35.1361 H   0  0  0  0  0  0  0  0  0  0  0  0
   -3.9841   15.5737  -36.3332 H   0  0  0  0  0  0  0  0  0  0  0  0
   -3.0310   17.0963  -36.3332 H   0  0  0  0  0  0  0  0  0  0  0  0
   -5.0276   14.9359  -34.3041 H   0  0  0  0  0  0  0  0  0  0  0  0
   -4.1425   15.7995  -32.9899 H   0  0  0  0  0  0  0  0  0  0  0  0
   -6.9839   15.5532  -33.3626 H   0  0  0  0  0  0  0  0  0  0  0  0
   -6.0863   16.4508  -32.0792 H   0  0  0  0  0  0  0  0  0  0  0  0
   -6.6610   17.6890  -34.7700 H   0  0  0  0  0  0  0  0  0  0  0  0
   -9.0606   17.9410  -32.5569 H   0  0  0  0  0  0  0  0  0  0  0  0
   -9.7957   19.8956  -31.1585 H   0  0  0  0  0  0  0  0  0  0  0  0
   -8.8998   22.3886  -30.0819 H   0  0  0  0  0  0  0  0  0  0  0  0
   -4.5390   23.6160  -29.4990 H   0  0  0  0  0  0  0  0  0  0  0  0
   -5.1600   25.2380  -29.0490 H   0  0  0  0  0  0  0  0  0  0  0  0
   -1.6276   21.8259  -31.2589 H   0  0  0  0  0  0  0  0  0  0  0  0
   -2.2544   23.4610  -31.6928 H   0  0  0  0  0  0  0  0  0  0  0  0
   -2.1240   22.5199  -28.8018 H   0  0  0  0  0  0  0  0  0  0  0  0
   -0.7046   23.2717  -29.6255 H   0  0  0  0  0  0  0  0  0  0  0  0
   -5.1739   19.8248  -33.1478 H   0  0  0  0  0  0  0  0  0  0  0  0
  1  2  1  0
  2  3  1  0
  2  4  1  0
  4  5  1  0
  5  6  1  0
  6  7  1  0
  7  8  2  0
  8  9  1  0
  9 10  2  0
 10 11  1  0
 11 12  2  0
 12 13  1  0
 13 14  1  0
 13 15  2  0
 12 16  1  0
 16 17  1  0
 17 18  2  0
 17 19  1  0
 19 20  1  0
 20 21  1  0
 21 22  1  0
 22 23  2  0
 22 24  1  0
 22 25  1  0
 16 26  1  0
 26 27  2  0
 27  7  1  0
 26 10  1  0
  1 28  1  0
  1 29  1  0
  1 30  1  0
  3 31  1  0
  3 32  1  0
  3 33  1  0
  4 34  1  0
  4 35  1  0
  5 36  1  0
  5 37  1  0
  6 38  1  0
  8 39  1  0
  9 40  1  0
 11 41  1  0
 14 42  1  0
 14 43  1  0
 20 44  1  0
 20 45  1  0
 21 46  1  0
 21 47  1  0
 27 48  1  0
M  CHG  2  24  -1  25  -1
M  END
>  <UniqueID>  (76) 
76

>  <SMILES>  (76) 
CN(C)CCNc1ccc2cc(C(N)=O)n(C(=O)OCCP(=O)([O-])[O-])c2c1

>  <Energy>  (76) 
76.57847004668113

>  <Genealogy>  (76) 
CN(C)CCNc1ccc2cc(C(N)=O)n(C(=O)OCCP(=O)([O-])[O-])c2c1 (protonated)
CN(C)CCNc1ccc2cc(C(N)=O)n(C(=O)OCCP(=O)([O-])[O-])c2c1 (3D coordinates assigned)
CN(C)CCNc1ccc2cc(C(N)=O)n(C(=O)OCCP(=O)([O-])[O-])c2c1 (optimized conformer: 76.57847004668113 kcal/mol)

>  <smiles>  (76) 
CN(C)CCNc1ccc2cc(C(N)=O)n(C(=O)OCCP(=O)(O)O)c2c1

>  <score_type>  (76) 
oracle

>  <origin>  (76) 
adg

>  <m_score__min__energy>  (76) 
-12.630000000000001

>  <m_primary>  (76) 
energy

$$$$
77:0
     RDKit          3D

 30 31  0  0  0  0  0  0  0  0999 V2000
   -3.8020   22.6760  -28.3800 C   0  0  0  0  0  0  0  0  0  0  0  0
   -3.2050   23.1250  -29.4930 C   0  0  0  0  0  0  0  0  0  0  0  0
   -2.0380   24.0360  -29.3920 C   0  0  0  0  0  0  0  0  0  0  0  0
   -2.1980   25.2850  -29.3600 O   0  0  0  0  0  0  0  0  0  0  0  0
   -0.7480   23.5250  -29.3140 O   0  0  0  0  0  0  0  0  0  0  0  0
   -3.7070   22.6930  -30.8220 C   0  0  0  0  0  0  0  0  0  0  0  0
   -2.8940   22.3270  -31.7140 O   0  0  0  0  0  0  0  0  0  0  0  0
   -5.1150   22.6590  -31.1080 N   0  0  0  0  0  0  0  0  0  0  0  0
   -5.9990   23.6960  -31.0660 C   0  0  0  0  0  0  0  0  0  0  0  0
   -5.7120   25.0590  -30.5740 C   0  0  0  0  0  0  0  0  0  0  0  0
   -4.4620   25.6890  -30.8430 N   0  0  0  0  0  0  0  0  0  0  0  0
   -6.5700   25.6640  -29.8770 O   0  0  0  0  0  0  0  0  0  0  0  0
   -7.2560   23.2810  -31.5060 C   0  0  0  0  0  0  0  0  0  0  0  0
   -7.1110   21.9490  -31.8220 C   0  0  0  0  0  0  0  0  0  0  0  0
   -8.0380   21.0420  -32.3290 C   0  0  0  0  0  0  0  0  0  0  0  0
   -7.6010   19.7320  -32.5930 C   0  0  0  0  0  0  0  0  0  0  0  0
   -6.2570   19.3560  -32.3430 C   0  0  0  0  0  0  0  0  0  0  0  0
   -5.7910   17.9710  -32.6750 C   0  0  0  0  0  0  0  0  0  0  0  0
   -5.3410   20.3090  -31.8470 C   0  0  0  0  0  0  0  0  0  0  0  0
   -5.8090   21.6000  -31.5770 C   0  0  0  0  0  0  0  0  0  0  0  0
   -4.6671   22.0007  -28.4541 H   0  0  0  0  0  0  0  0  0  0  0  0
   -3.4268   22.9829  -27.3926 H   0  0  0  0  0  0  0  0  0  0  0  0
   -3.8590   26.0380  -30.0650 H   0  0  0  0  0  0  0  0  0  0  0  0
   -8.1693   23.8891  -31.5839 H   0  0  0  0  0  0  0  0  0  0  0  0
   -9.0797   21.3411  -32.5171 H   0  0  0  0  0  0  0  0  0  0  0  0
   -8.3079   18.9924  -32.9970 H   0  0  0  0  0  0  0  0  0  0  0  0
   -5.6037   17.4143  -31.7449 H   0  0  0  0  0  0  0  0  0  0  0  0
   -6.5649   17.4546  -33.2619 H   0  0  0  0  0  0  0  0  0  0  0  0
   -4.8624   18.0274  -33.2619 H   0  0  0  0  0  0  0  0  0  0  0  0
   -4.2871   20.0437  -31.6772 H   0  0  0  0  0  0  0  0  0  0  0  0
  1  2  2  0
  2  3  1  0
  3  4  2  0
  3  5  1  0
  2  6  1  0
  6  7  2  0
  6  8  1  0
  8  9  1  0
  9 10  1  0
 10 11  1  0
 10 12  2  0
  9 13  2  0
 13 14  1  0
 14 15  2  0
 15 16  1  0
 16 17  2  0
 17 18  1  0
 17 19  1  0
 19 20  2  0
 20  8  1  0
 20 14  1  0
  1 21  1  0
  1 22  1  0
 11 23  1  0
 13 24  1  0
 15 25  1  0
 16 26  1  0
 18 27  1  0
 18 28  1  0
 18 29  1  0
 19 30  1  0
M  CHG  2   5  -1  11  -1
M  END
>  <UniqueID>  (77) 
77

>  <SMILES>  (77) 
C=C(C(=O)[O-])C(=O)n1c(C([NH-])=O)cc2ccc(C)cc21

>  <Energy>  (77) 
70.96950248405165

>  <Genealogy>  (77) 
C=C(C(=O)[O-])C(=O)n1c(C([NH-])=O)cc2ccc(C)cc21 (protonated)
C=C(C(=O)[O-])C(=O)n1c(C([NH-])=O)cc2ccc(C)cc21 (3D coordinates assigned)
C=C(C(=O)[O-])C(=O)n1c(C([NH-])=O)cc2ccc(C)cc21 (optimized conformer: 70.96950248405165 kcal/mol)

>  <smiles>  (77) 
C=C(C(=O)O)C(=O)n1c(C(N)=O)cc2ccc(C)cc21

>  <score_type>  (77) 
oracle

>  <origin>  (77) 
adg

>  <m_score__min__energy>  (77) 
-11.550000000000001

>  <m_primary>  (77) 
energy

$$$$
78:0
     RDKit          3D

 39 40  0  0  0  0  0  0  0  0999 V2000
   -2.7820   25.2970  -30.5580 H   0  0  0  0  0  0  0  0  0  0  0  0
   -3.8260   25.2970  -30.5240 N   0  0  0  0  0  0  0  0  0  0  0  0
   -4.5320   24.3970  -29.6720 C   0  0  0  0  0  0  0  0  0  0  0  0
   -4.2880   24.3970  -28.4370 O   0  0  0  0  0  0  0  0  0  0  0  0
   -5.5210   23.4630  -30.2470 C   0  0  0  0  0  0  0  0  0  0  0  0
   -6.8860   23.7380  -30.3410 C   0  0  0  0  0  0  0  0  0  0  0  0
   -7.4117   24.6356  -29.9834 H   0  0  0  0  0  0  0  0  0  0  0  0
   -7.4350   22.6460  -30.9770 C   0  0  0  0  0  0  0  0  0  0  0  0
   -8.7550   22.3800  -31.3220 C   0  0  0  0  0  0  0  0  0  0  0  0
   -9.5542   23.1045  -31.1069 H   0  0  0  0  0  0  0  0  0  0  0  0
   -9.0370   21.1570  -31.9540 C   0  0  0  0  0  0  0  0  0  0  0  0
  -10.0720   20.9211  -32.2423 H   0  0  0  0  0  0  0  0  0  0  0  0
   -8.0050   20.2230  -32.2250 C   0  0  0  0  0  0  0  0  0  0  0  0
   -8.3360   18.9810  -32.8730 N   0  0  0  0  0  0  0  0  0  0  0  0
   -9.1460   18.9560  -33.5320 H   0  0  0  0  0  0  0  0  0  0  0  0
   -7.5870   17.7450  -32.6740 C   0  0  0  0  0  0  0  0  0  0  0  0
   -7.4721   17.5553  -31.5966 H   0  0  0  0  0  0  0  0  0  0  0  0
   -8.1302   16.9084  -33.1377 H   0  0  0  0  0  0  0  0  0  0  0  0
   -6.5940   17.8393  -33.1377 H   0  0  0  0  0  0  0  0  0  0  0  0
   -6.6740   20.5300  -31.8530 C   0  0  0  0  0  0  0  0  0  0  0  0
   -5.8578   19.8168  -32.0404 H   0  0  0  0  0  0  0  0  0  0  0  0
   -6.4220   21.7630  -31.2410 C   0  0  0  0  0  0  0  0  0  0  0  0
   -5.2410   22.2510  -30.8040 N   0  0  0  0  0  0  0  0  0  0  0  0
   -3.9710   21.5840  -30.8630 C   0  0  0  0  0  0  0  0  0  0  0  0
   -3.5940   20.8960  -29.8740 O   0  0  0  0  0  0  0  0  0  0  0  0
   -3.1080   21.6870  -32.0700 C   0  0  0  0  0  0  0  0  0  0  0  0
   -1.7750   21.5190  -31.9510 C   0  0  0  0  0  0  0  0  0  0  0  0
   -1.3613   21.3516  -30.9456 H   0  0  0  0  0  0  0  0  0  0  0  0
   -0.8340   21.5470  -33.0990 C   0  0  0  0  0  0  0  0  0  0  0  0
   -0.1313   22.3896  -33.1784 H   0  0  0  0  0  0  0  0  0  0  0  0
   -0.7980   20.5930  -34.0470 C   0  0  0  0  0  0  0  0  0  0  0  0
   -1.8700   19.1930  -33.9920 Cl  0  0  0  0  0  0  0  0  0  0  0  0
    0.1530   20.6770  -35.1750 C   0  0  0  0  0  0  0  0  0  0  0  0
    0.4570   19.6560  -35.8490 O   0  0  0  0  0  0  0  0  0  0  0  0
    0.7270   21.8980  -35.5060 O   0  0  0  0  0  0  0  0  0  0  0  0
   -3.7530   21.9560  -33.4080 C   0  0  0  0  0  0  0  0  0  0  0  0
   -4.7581   22.3752  -33.2529 H   0  0  0  0  0  0  0  0  0  0  0  0
   -3.1397   22.6734  -33.9731 H   0  0  0  0  0  0  0  0  0  0  0  0
   -3.8312   21.0155  -33.9731 H   0  0  0  0  0  0  0  0  0  0  0  0
  1  2  1  0
  2  3  1  0
  3  4  2  0
  3  5  1  0
  5  6  2  0
  6  7  1  0
  6  8  1  0
  8  9  2  0
  9 10  1  0
  9 11  1  0
 11 12  1  0
 11 13  2  0
 13 14  1  0
 14 15  1  0
 14 16  1  0
 16 17  1  0
 16 18  1  0
 16 19  1  0
 13 20  1  0
 20 21  1  0
 20 22  2  0
 22 23  1  0
 23 24  1  0
 24 25  2  0
 24 26  1  0
 26 27  2  0
 27 28  1  0
 27 29  1  0
 29 30  1  0
 29 31  2  0
 31 32  1  0
 31 33  1  0
 33 34  2  0
 33 35  1  0
 26 36  1  0
 36 37  1  0
 36 38  1  0
 36 39  1  0
 23  5  1  0
 22  8  1  0
M  CHG  2   2  -1  35  -1
M  END
>  <UniqueID>  (78) 
78

>  <SMILES>  (78) 
CNc1ccc2cc(C([NH-])=O)n(C(=O)/C(C)=C/C=C(\Cl)C(=O)[O-])c2c1

>  <Energy>  (78) 
78.79721902508132

>  <Genealogy>  (78) 
CNc1ccc2cc(C([NH-])=O)n(C(=O)/C(C)=C/C=C(\Cl)C(=O)[O-])c2c1 (protonated)
CNc1ccc2cc(C([NH-])=O)n(C(=O)/C(C)=C/C=C(\Cl)C(=O)[O-])c2c1 (cis-trans isomerization)
CNc1ccc2cc(C([NH-])=O)n(C(=O)/C(C)=C/C=C(\Cl)C(=O)[O-])c2c1 (3D coordinates assigned)
CNc1ccc2cc(C([NH-])=O)n(C(=O)/C(C)=C/C=C(\Cl)C(=O)[O-])c2c1 (optimized conformer: 78.79721902508132 kcal/mol)

>  <smiles>  (78) 
CNc1ccc2cc(C(N)=O)n(C(=O)/C(C)=C/C=C(\Cl)C(=O)O)c2c1

>  <score_type>  (78) 
oracle

>  <origin>  (78) 
adg

>  <m_score__min__energy>  (78) 
-11.83

>  <m_primary>  (78) 
energy

$$$$
79:0
     RDKit          3D

 35 37  0  0  0  0  0  0  0  0999 V2000
   -1.3720   25.8570  -28.9810 N   0  0  0  0  0  0  0  0  0  0  0  0
   -0.8750   24.5340  -29.1580 C   0  0  0  0  0  0  0  0  0  0  0  0
    0.2500   24.2280  -28.6790 O   0  0  0  0  0  0  0  0  0  0  0  0
   -1.6830   23.5030  -29.8420 C   0  0  0  0  0  0  0  0  0  0  0  0
   -1.1530   22.3030  -30.3110 C   0  0  0  0  0  0  0  0  0  0  0  0
   -2.2290   21.5910  -30.7900 C   0  0  0  0  0  0  0  0  0  0  0  0
   -2.2770   20.3340  -31.3850 C   0  0  0  0  0  0  0  0  0  0  0  0
   -3.5250   19.8570  -31.8160 C   0  0  0  0  0  0  0  0  0  0  0  0
   -4.6970   20.6410  -31.6510 C   0  0  0  0  0  0  0  0  0  0  0  0
   -5.9720   20.1530  -32.1120 N   0  0  0  0  0  0  0  0  0  0  0  0
   -6.1790   18.7170  -32.3440 C   0  0  0  0  0  0  0  0  0  0  0  0
   -7.4780   18.3320  -31.9390 O   0  0  0  0  0  0  0  0  0  0  0  0
   -8.4460   19.0400  -32.6900 C   0  0  0  0  0  0  0  0  0  0  0  0
   -8.3810   20.5500  -32.4000 C   0  0  1  0  0  0  0  0  0  0  0  0
   -8.7780   20.8240  -31.0790 O   0  0  0  0  0  0  0  0  0  0  0  0
   -6.9640   21.0770  -32.6700 C   0  0  0  0  0  0  0  0  0  0  0  0
   -4.6050   21.9140  -31.0470 C   0  0  0  0  0  0  0  0  0  0  0  0
   -3.3510   22.3570  -30.6090 C   0  0  0  0  0  0  0  0  0  0  0  0
   -3.0320   23.5370  -30.0320 N   0  0  0  0  0  0  0  0  0  0  0  0
   -3.9270   24.6310  -29.7740 C   0  0  0  0  0  0  0  0  0  0  0  0
   -3.8930   25.6640  -30.4930 O   0  0  0  0  0  0  0  0  0  0  0  0
   -4.8210   24.5710  -28.7110 O   0  0  0  0  0  0  0  0  0  0  0  0
   -2.3980   26.0470  -28.9630 H   0  0  0  0  0  0  0  0  0  0  0  0
   -0.0983   21.9908  -30.3007 H   0  0  0  0  0  0  0  0  0  0  0  0
   -1.3650   19.7326  -31.5137 H   0  0  0  0  0  0  0  0  0  0  0  0
   -3.5955   18.8652  -32.2866 H   0  0  0  0  0  0  0  0  0  0  0  0
   -6.0553   18.5020  -33.4157 H   0  0  0  0  0  0  0  0  0  0  0  0
   -5.4409   18.1517  -31.7561 H   0  0  0  0  0  0  0  0  0  0  0  0
   -8.2618   18.8723  -33.7614 H   0  0  0  0  0  0  0  0  0  0  0  0
   -9.4434   18.6736  -32.4056 H   0  0  0  0  0  0  0  0  0  0  0  0
   -9.0804   21.0682  -33.0725 H   0  0  0  0  0  0  0  0  0  0  0  0
   -8.5400   20.0390  -30.5190 H   0  0  0  0  0  0  0  0  0  0  0  0
   -6.8090   21.1663  -33.7553 H   0  0  0  0  0  0  0  0  0  0  0  0
   -6.8480   22.0623  -32.1949 H   0  0  0  0  0  0  0  0  0  0  0  0
   -5.4985   22.5436  -30.9233 H   0  0  0  0  0  0  0  0  0  0  0  0
  1  2  1  0
  2  3  2  0
  2  4  1  0
  4  5  2  0
  5  6  1  0
  6  7  2  0
  7  8  1  0
  8  9  2  0
  9 10  1  0
 10 11  1  0
 11 12  1  0
 12 13  1  0
 13 14  1  0
 14 15  1  0
 14 16  1  0
  9 17  1  0
 17 18  2  0
 18 19  1  0
 19 20  1  0
 20 21  2  0
 20 22  1  0
 19  4  1  0
 18  6  1  0
 16 10  1  0
  1 23  1  0
  5 24  1  0
  7 25  1  0
  8 26  1  0
 11 27  1  0
 11 28  1  0
 13 29  1  0
 13 30  1  0
 14 31  1  6
 15 32  1  0
 16 33  1  0
 16 34  1  0
 17 35  1  0
M  CHG  2   1  -1  22  -1
M  END
>  <UniqueID>  (79) 
79

>  <SMILES>  (79) 
[NH-]C(=O)c1cc2ccc(N3COC[C@@H](O)C3)cc2n1C(=O)[O-]

>  <Energy>  (79) 
83.4694428746861

>  <Genealogy>  (79) 
[NH-]C(=O)c1cc2ccc(N3COC[C@@H](O)C3)cc2n1C(=O)[O-] (protonated)
[NH-]C(=O)c1cc2ccc(N3COC[C@@H](O)C3)cc2n1C(=O)[O-] (3D coordinates assigned)
[NH-]C(=O)c1cc2ccc(N3COC[C@@H](O)C3)cc2n1C(=O)[O-] (nonaromatic ring conformer: 83.4694428746861 kcal/mol)

>  <smiles>  (79) 
NC(=O)c1cc2ccc(N3COC[C@@H](O)C3)cc2n1C(=O)O

>  <score_type>  (79) 
oracle

>  <origin>  (79) 
adg

>  <m_score__min__energy>  (79) 
-10.609999999999999

>  <m_primary>  (79) 
energy

$$$$
80:0
     RDKit          3D

 50 51  0  0  0  0  0  0  0  0999 V2000
   -4.8510   15.5410  -32.3720 C   0  0  0  0  0  0  0  0  0  0  0  0
   -4.7110   16.3220  -33.6070 N   0  0  0  0  0  0  0  0  0  0  0  0
   -3.6640   15.9780  -34.5750 C   0  0  0  0  0  0  0  0  0  0  0  0
   -5.6190   17.4040  -33.9180 C   0  0  0  0  0  0  0  0  0  0  0  0
   -5.6570   17.8660  -35.0910 O   0  0  0  0  0  0  0  0  0  0  0  0
   -6.4880   18.0570  -32.8690 C   0  0  0  0  0  0  0  0  0  0  0  0
   -7.4390   19.0120  -33.4660 N   0  0  0  0  0  0  0  0  0  0  0  0
   -7.4640   20.2600  -32.7410 C   0  0  0  0  0  0  0  0  0  0  0  0
   -8.7010   20.8470  -32.3680 C   0  0  0  0  0  0  0  0  0  0  0  0
   -8.7360   22.0770  -31.6890 C   0  0  0  0  0  0  0  0  0  0  0  0
   -7.5250   22.7070  -31.4160 C   0  0  0  0  0  0  0  0  0  0  0  0
   -7.2700   23.9060  -30.7900 C   0  0  0  0  0  0  0  0  0  0  0  0
   -5.8850   24.0580  -30.8340 C   0  0  0  0  0  0  0  0  0  0  0  0
   -5.1870   25.2730  -30.3640 C   0  0  0  0  0  0  0  0  0  0  0  0
   -3.8930   25.6150  -30.8570 N   0  0  0  0  0  0  0  0  0  0  0  0
   -5.7600   26.0450  -29.5500 O   0  0  0  0  0  0  0  0  0  0  0  0
   -5.3080   22.9870  -31.4490 N   0  0  0  0  0  0  0  0  0  0  0  0
   -3.9170   22.7550  -31.7100 C   0  0  0  0  0  0  0  0  0  0  0  0
   -3.0470   23.1900  -30.9080 O   0  0  0  0  0  0  0  0  0  0  0  0
   -3.5510   22.0250  -32.8510 O   0  0  0  0  0  0  0  0  0  0  0  0
   -2.7520   20.8340  -32.8840 C   0  0  0  0  0  0  0  0  0  0  0  0
   -1.3770   21.2310  -33.4420 C   0  0  0  0  0  0  0  0  0  0  0  0
   -3.3850   19.7820  -33.8130 C   0  0  0  0  0  0  0  0  0  0  0  0
   -2.5710   20.2670  -31.4620 C   0  0  0  0  0  0  0  0  0  0  0  0
   -6.3240   22.1690  -31.7950 C   0  0  0  0  0  0  0  0  0  0  0  0
   -6.2560   20.9270  -32.4360 C   0  0  0  0  0  0  0  0  0  0  0  0
   -4.7320   16.2048  -31.5029 H   0  0  0  0  0  0  0  0  0  0  0  0
   -5.8470   15.0750  -32.3438 H   0  0  0  0  0  0  0  0  0  0  0  0
   -4.0789   14.7580  -32.3438 H   0  0  0  0  0  0  0  0  0  0  0  0
   -2.7521   15.6784  -34.0378 H   0  0  0  0  0  0  0  0  0  0  0  0
   -4.0077   15.1456  -35.2066 H   0  0  0  0  0  0  0  0  0  0  0  0
   -3.4470   16.8521  -35.2066 H   0  0  0  0  0  0  0  0  0  0  0  0
   -7.0526   17.2767  -32.3377 H   0  0  0  0  0  0  0  0  0  0  0  0
   -5.8346   18.6102  -32.1784 H   0  0  0  0  0  0  0  0  0  0  0  0
   -7.1920   19.1710  -34.4700 H   0  0  0  0  0  0  0  0  0  0  0  0
   -8.3960   18.5890  -33.4440 H   0  0  0  0  0  0  0  0  0  0  0  0
   -9.6426   20.3338  -32.6130 H   0  0  0  0  0  0  0  0  0  0  0  0
   -9.6913   22.5282  -31.3826 H   0  0  0  0  0  0  0  0  0  0  0  0
   -8.0032   24.5973  -30.3488 H   0  0  0  0  0  0  0  0  0  0  0  0
   -3.0290   25.2860  -30.3730 H   0  0  0  0  0  0  0  0  0  0  0  0
   -0.6868   21.4303  -32.6089 H   0  0  0  0  0  0  0  0  0  0  0  0
   -0.9806   20.4106  -34.0583 H   0  0  0  0  0  0  0  0  0  0  0  0
   -1.4789   22.1364  -34.0583 H   0  0  0  0  0  0  0  0  0  0  0  0
   -3.8584   18.9953  -33.2072 H   0  0  0  0  0  0  0  0  0  0  0  0
   -4.1440   20.2626  -34.4478 H   0  0  0  0  0  0  0  0  0  0  0  0
   -2.6049   19.3365  -34.4478 H   0  0  0  0  0  0  0  0  0  0  0  0
   -2.8189   21.0435  -30.7233 H   0  0  0  0  0  0  0  0  0  0  0  0
   -3.2381   19.4033  -31.3240 H   0  0  0  0  0  0  0  0  0  0  0  0
   -1.5269   19.9496  -31.3240 H   0  0  0  0  0  0  0  0  0  0  0  0
   -5.2851   20.4803  -32.6964 H   0  0  0  0  0  0  0  0  0  0  0  0
  1  2  1  0
  2  3  1  0
  2  4  1  0
  4  5  2  0
  4  6  1  0
  6  7  1  0
  7  8  1  0
  8  9  2  0
  9 10  1  0
 10 11  2  0
 11 12  1  0
 12 13  2  0
 13 14  1  0
 14 15  1  0
 14 16  2  0
 13 17  1  0
 17 18  1  0
 18 19  2  0
 18 20  1  0
 20 21  1  0
 21 22  1  0
 21 23  1  0
 21 24  1  0
 17 25  1  0
 25 26  2  0
 26  8  1  0
 25 11  1  0
  1 27  1  0
  1 28  1  0
  1 29  1  0
  3 30  1  0
  3 31  1  0
  3 32  1  0
  6 33  1  0
  6 34  1  0
  7 35  1  0
  7 36  1  0
  9 37  1  0
 10 38  1  0
 12 39  1  0
 15 40  1  0
 22 41  1  0
 22 42  1  0
 22 43  1  0
 23 44  1  0
 23 45  1  0
 23 46  1  0
 24 47  1  0
 24 48  1  0
 24 49  1  0
 26 50  1  0
M  CHG  2   7   1  15  -1
M  END
>  <UniqueID>  (80) 
80

>  <SMILES>  (80) 
CN(C)C(=O)C[NH2+]c1ccc2cc(C([NH-])=O)n(C(=O)OC(C)(C)C)c2c1

>  <Energy>  (80) 
80.89052114978543

>  <Genealogy>  (80) 
CN(C)C(=O)C[NH2+]c1ccc2cc(C([NH-])=O)n(C(=O)OC(C)(C)C)c2c1 (protonated)
CN(C)C(=O)C[NH2+]c1ccc2cc(C([NH-])=O)n(C(=O)OC(C)(C)C)c2c1 (3D coordinates assigned)
CN(C)C(=O)C[NH2+]c1ccc2cc(C([NH-])=O)n(C(=O)OC(C)(C)C)c2c1 (optimized conformer: 80.89052114978543 kcal/mol)

>  <smiles>  (80) 
CN(C)C(=O)CNc1ccc2cc(C(N)=O)n(C(=O)OC(C)(C)C)c2c1

>  <score_type>  (80) 
oracle

>  <origin>  (80) 
adg

>  <m_score__min__energy>  (80) 
-10.31

>  <m_primary>  (80) 
energy

$$$$
81:0
     RDKit          3D

 42 43  0  0  0  0  0  0  0  0999 V2000
   -1.3380   24.2890  -26.4090 C   0  0  0  0  0  0  0  0  0  0  0  0
   -2.3770   25.0050  -27.2780 C   0  0  0  0  0  0  0  0  0  0  0  0
   -3.7350   24.3160  -27.1630 C   0  0  0  0  0  0  0  0  0  0  0  0
   -1.9660   24.9920  -28.6460 O   0  0  0  0  0  0  0  0  0  0  0  0
   -1.0620   24.0620  -29.1670 C   0  0  0  0  0  0  0  0  0  0  0  0
    0.1800   24.2080  -28.9970 O   0  0  0  0  0  0  0  0  0  0  0  0
   -1.5570   22.9530  -29.8600 O   0  0  0  0  0  0  0  0  0  0  0  0
   -2.3950   21.9710  -29.2550 C   0  0  0  0  0  0  0  0  0  0  0  0
   -3.4100   21.5560  -30.1670 O   0  0  0  0  0  0  0  0  0  0  0  0
   -3.9960   22.4240  -31.0940 C   0  0  0  0  0  0  0  0  0  0  0  0
   -3.2860   23.0130  -31.9550 O   0  0  0  0  0  0  0  0  0  0  0  0
   -5.4060   22.6780  -31.0330 N   0  0  0  0  0  0  0  0  0  0  0  0
   -6.0230   23.8590  -30.7540 C   0  0  0  0  0  0  0  0  0  0  0  0
   -5.3580   25.0880  -30.2720 C   0  0  0  0  0  0  0  0  0  0  0  0
   -3.9400   25.1510  -30.1110 N   0  0  0  0  0  0  0  0  0  0  0  0
   -6.0580   26.0850  -29.9530 O   0  0  0  0  0  0  0  0  0  0  0  0
   -7.3930   23.7610  -30.9780 C   0  0  0  0  0  0  0  0  0  0  0  0
   -7.6010   22.4700  -31.4070 C   0  0  0  0  0  0  0  0  0  0  0  0
   -8.7710   21.8410  -31.8230 C   0  0  0  0  0  0  0  0  0  0  0  0
   -8.6770   20.5200  -32.2920 C   0  0  0  0  0  0  0  0  0  0  0  0
   -7.4250   19.8570  -32.3440 C   0  0  0  0  0  0  0  0  0  0  0  0
   -7.3410   18.4610  -32.8900 C   0  0  0  0  0  0  0  0  0  0  0  0
   -6.4410   18.4200  -33.9400 F   0  0  0  0  0  0  0  0  0  0  0  0
   -6.9220   17.5980  -31.8950 F   0  0  0  0  0  0  0  0  0  0  0  0
   -6.2580   20.5300  -31.9180 C   0  0  0  0  0  0  0  0  0  0  0  0
   -6.3830   21.8380  -31.4350 C   0  0  0  0  0  0  0  0  0  0  0  0
   -1.5737   24.4514  -25.3469 H   0  0  0  0  0  0  0  0  0  0  0  0
   -1.3568   23.2112  -26.6281 H   0  0  0  0  0  0  0  0  0  0  0  0
   -0.3375   24.6903  -26.6281 H   0  0  0  0  0  0  0  0  0  0  0  0
   -2.4628   26.0434  -26.9252 H   0  0  0  0  0  0  0  0  0  0  0  0
   -3.9914   24.1859  -26.1012 H   0  0  0  0  0  0  0  0  0  0  0  0
   -4.5023   24.9339  -27.6525 H   0  0  0  0  0  0  0  0  0  0  0  0
   -3.6895   23.3319  -27.6525 H   0  0  0  0  0  0  0  0  0  0  0  0
   -1.7860   21.1006  -28.9693 H   0  0  0  0  0  0  0  0  0  0  0  0
   -2.8710   22.4068  -28.3643 H   0  0  0  0  0  0  0  0  0  0  0  0
   -3.4860   26.0450  -29.8190 H   0  0  0  0  0  0  0  0  0  0  0  0
   -3.3480   24.2950  -30.1900 H   0  0  0  0  0  0  0  0  0  0  0  0
   -8.1490   24.5482  -30.8412 H   0  0  0  0  0  0  0  0  0  0  0  0
   -9.7391   22.3620  -31.7857 H   0  0  0  0  0  0  0  0  0  0  0  0
   -9.5850   19.9943  -32.6225 H   0  0  0  0  0  0  0  0  0  0  0  0
   -8.3348   18.1557  -33.2494 H   0  0  0  0  0  0  0  0  0  0  0  0
   -5.2752   20.0382  -31.9647 H   0  0  0  0  0  0  0  0  0  0  0  0
  1  2  1  0
  2  3  1  0
  2  4  1  0
  4  5  1  0
  5  6  2  0
  5  7  1  0
  7  8  1  0
  8  9  1  0
  9 10  1  0
 10 11  2  0
 10 12  1  0
 12 13  1  0
 13 14  1  0
 14 15  1  0
 14 16  2  0
 13 17  2  0
 17 18  1  0
 18 19  2  0
 19 20  1  0
 20 21  2  0
 21 22  1  0
 22 23  1  0
 22 24  1  0
 21 25  1  0
 25 26  2  0
 26 12  1  0
 26 18  1  0
  1 27  1  0
  1 28  1  0
  1 29  1  0
  2 30  1  0
  3 31  1  0
  3 32  1  0
  3 33  1  0
  8 34  1  0
  8 35  1  0
 15 36  1  0
 15 37  1  0
 17 38  1  0
 19 39  1  0
 20 40  1  0
 22 41  1  0
 25 42  1  0
M  END
>  <UniqueID>  (81) 
81

>  <SMILES>  (81) 
CC(C)OC(=O)OCOC(=O)n1c(C(N)=O)cc2ccc(C(F)F)cc21

>  <Energy>  (81) 
70.54461270163281

>  <Genealogy>  (81) 
CC(C)OC(=O)OCOC(=O)n1c(C(N)=O)cc2ccc(C(F)F)cc21 (3D coordinates assigned)
CC(C)OC(=O)OCOC(=O)n1c(C(N)=O)cc2ccc(C(F)F)cc21 (optimized conformer: 70.54461270163281 kcal/mol)

>  <smiles>  (81) 
CC(C)OC(=O)OCOC(=O)n1c(C(N)=O)cc2ccc(C(F)F)cc21

>  <score_type>  (81) 
oracle

>  <origin>  (81) 
adg

>  <m_score__min__energy>  (81) 
-8.0600000000000005

>  <m_primary>  (81) 
energy

$$$$
82:0
     RDKit          3D

 31 33  0  0  0  0  0  0  0  0999 V2000
   -6.8010   17.0380  -33.8480 C   0  0  0  0  0  0  0  0  0  0  0  0
   -6.2650   18.3770  -33.4680 C   0  0  0  0  0  0  0  0  0  0  0  0
   -6.9160   19.5360  -33.6820 N   0  0  0  0  0  0  0  0  0  0  0  0
   -6.1060   20.4840  -33.1800 C   0  0  0  0  0  0  0  0  0  0  0  0
   -4.9800   19.8570  -32.6710 C   0  0  0  0  0  0  0  0  0  0  0  0
   -3.8100   20.4830  -32.0170 C   0  0  0  0  0  0  0  0  0  0  0  0
   -2.5390   19.8500  -32.0170 C   0  0  0  0  0  0  0  0  0  0  0  0
   -1.4320   20.4610  -31.4050 C   0  0  0  0  0  0  0  0  0  0  0  0
   -1.6230   21.6960  -30.7930 C   0  0  0  0  0  0  0  0  0  0  0  0
   -0.7220   22.5140  -30.1530 C   0  0  0  0  0  0  0  0  0  0  0  0
   -1.4560   23.6260  -29.7460 C   0  0  0  0  0  0  0  0  0  0  0  0
   -0.8850   24.7250  -28.9400 C   0  0  0  0  0  0  0  0  0  0  0  0
   -1.5660   25.9690  -28.8070 N   0  0  0  0  0  0  0  0  0  0  0  0
    0.1970   24.5450  -28.3200 O   0  0  0  0  0  0  0  0  0  0  0  0
   -2.7600   23.5050  -30.1290 N   0  0  0  0  0  0  0  0  0  0  0  0
   -3.8160   24.4660  -29.9780 C   0  0  0  0  0  0  0  0  0  0  0  0
   -4.7020   24.3050  -29.0980 O   0  0  0  0  0  0  0  0  0  0  0  0
   -3.8560   25.5970  -30.7850 O   0  0  0  0  0  0  0  0  0  0  0  0
   -2.8460   22.3150  -30.7650 C   0  0  0  0  0  0  0  0  0  0  0  0
   -3.9610   21.7390  -31.3850 C   0  0  0  0  0  0  0  0  0  0  0  0
   -5.1130   18.5630  -32.8630 O   0  0  0  0  0  0  0  0  0  0  0  0
   -7.0310   16.4635  -32.9385 H   0  0  0  0  0  0  0  0  0  0  0  0
   -7.7175   17.1653  -34.4429 H   0  0  0  0  0  0  0  0  0  0  0  0
   -6.0499   16.4977  -34.4429 H   0  0  0  0  0  0  0  0  0  0  0  0
   -7.8470   19.6720  -34.1350 H   0  0  0  0  0  0  0  0  0  0  0  0
   -6.3023   21.5663  -33.1743 H   0  0  0  0  0  0  0  0  0  0  0  0
   -2.4198   18.8698  -32.5018 H   0  0  0  0  0  0  0  0  0  0  0  0
   -0.4439   19.9777  -31.4094 H   0  0  0  0  0  0  0  0  0  0  0  0
    0.3509   22.3295  -29.9957 H   0  0  0  0  0  0  0  0  0  0  0  0
   -2.5940   26.0380  -28.9710 H   0  0  0  0  0  0  0  0  0  0  0  0
   -4.9338   22.2524  -31.3807 H   0  0  0  0  0  0  0  0  0  0  0  0
  1  2  1  0
  2  3  2  0
  3  4  1  0
  4  5  2  0
  5  6  1  0
  6  7  2  0
  7  8  1  0
  8  9  2  0
  9 10  1  0
 10 11  2  0
 11 12  1  0
 12 13  1  0
 12 14  2  0
 11 15  1  0
 15 16  1  0
 16 17  2  0
 16 18  1  0
 15 19  1  0
 19 20  2  0
  5 21  1  0
 21  2  1  0
 20  6  1  0
 19  9  1  0
  1 22  1  0
  1 23  1  0
  1 24  1  0
  3 25  1  0
  4 26  1  0
  7 27  1  0
  8 28  1  0
 10 29  1  0
 13 30  1  0
 20 31  1  0
M  CHG  3   3   1  13  -1  18  -1
M  END
>  <UniqueID>  (82) 
82

>  <SMILES>  (82) 
Cc1[nH+]cc(-c2ccc3cc(C([NH-])=O)n(C(=O)[O-])c3c2)o1

>  <Energy>  (82) 
103.7369200883489

>  <Genealogy>  (82) 
Cc1[nH+]cc(-c2ccc3cc(C([NH-])=O)n(C(=O)[O-])c3c2)o1 (protonated)
Cc1[nH+]cc(-c2ccc3cc(C([NH-])=O)n(C(=O)[O-])c3c2)o1 (3D coordinates assigned)
Cc1[nH+]cc(-c2ccc3cc(C([NH-])=O)n(C(=O)[O-])c3c2)o1 (optimized conformer: 103.7369200883489 kcal/mol)

>  <smiles>  (82) 
Cc1ncc(-c2ccc3cc(C(N)=O)n(C(=O)O)c3c2)o1

>  <score_type>  (82) 
oracle

>  <origin>  (82) 
adg

>  <m_score__min__energy>  (82) 
-10.65

>  <m_primary>  (82) 
energy

$$$$
83:0
     RDKit          3D

 47 48  0  0  0  0  0  0  0  0999 V2000
   -6.2890   17.1430  -32.9960 C   0  0  0  0  0  0  0  0  0  0  0  0
   -5.5040   18.2870  -33.6740 C   0  0  0  0  0  0  0  0  0  0  0  0
   -5.7540   18.1980  -35.1980 C   0  0  0  0  0  0  0  0  0  0  0  0
   -4.0120   18.1180  -33.4440 C   0  0  0  0  0  0  0  0  0  0  0  0
   -3.5970   17.1700  -32.7200 O   0  0  0  0  0  0  0  0  0  0  0  0
   -3.0980   18.9730  -34.0710 O   0  0  0  0  0  0  0  0  0  0  0  0
   -1.7470   18.6050  -34.3230 C   0  0  0  0  0  0  0  0  0  0  0  0
   -0.9160   19.8550  -34.5860 C   0  0  0  0  0  0  0  0  0  0  0  0
   -1.5960   20.9820  -34.1030 O   0  0  0  0  0  0  0  0  0  0  0  0
   -5.9590   19.6210  -33.0570 C   0  0  0  0  0  0  0  0  0  0  0  0
   -7.3340   19.9810  -32.9390 C   0  0  0  0  0  0  0  0  0  0  0  0
   -7.7160   21.1950  -32.3500 C   0  0  0  0  0  0  0  0  0  0  0  0
   -6.7190   22.0310  -31.8630 C   0  0  0  0  0  0  0  0  0  0  0  0
   -6.8220   23.2590  -31.2550 C   0  0  0  0  0  0  0  0  0  0  0  0
   -5.5150   23.6400  -30.9830 C   0  0  0  0  0  0  0  0  0  0  0  0
   -5.1720   24.9020  -30.3120 C   0  0  0  0  0  0  0  0  0  0  0  0
   -5.7580   25.2380  -29.0540 N   0  0  0  0  0  0  0  0  0  0  0  0
   -4.3140   25.6680  -30.8250 O   0  0  0  0  0  0  0  0  0  0  0  0
   -4.6300   22.6810  -31.3790 N   0  0  0  0  0  0  0  0  0  0  0  0
   -3.2070   22.6570  -31.1320 C   0  0  0  0  0  0  0  0  0  0  0  0
   -2.6740   23.5540  -30.4250 O   0  0  0  0  0  0  0  0  0  0  0  0
   -2.4160   21.6530  -31.7090 O   0  0  0  0  0  0  0  0  0  0  0  0
   -1.8150   20.5980  -31.0080 C   0  0  0  0  0  0  0  0  0  0  0  0
   -1.6170   19.4780  -31.5570 O   0  0  0  0  0  0  0  0  0  0  0  0
   -1.4740   20.7860  -29.5640 C   0  0  0  0  0  0  0  0  0  0  0  0
   -0.7550   21.9560  -29.3910 F   0  0  0  0  0  0  0  0  0  0  0  0
   -0.7170   19.7150  -29.1290 F   0  0  0  0  0  0  0  0  0  0  0  0
   -2.6340   20.8590  -28.8130 F   0  0  0  0  0  0  0  0  0  0  0  0
   -5.3910   21.7020  -31.9290 C   0  0  0  0  0  0  0  0  0  0  0  0
   -4.9800   20.5040  -32.5260 C   0  0  0  0  0  0  0  0  0  0  0  0
   -6.2178   17.2468  -31.9032 H   0  0  0  0  0  0  0  0  0  0  0  0
   -7.3448   17.1918  -33.3009 H   0  0  0  0  0  0  0  0  0  0  0  0
   -5.8636   16.1755  -33.3009 H   0  0  0  0  0  0  0  0  0  0  0  0
   -6.7758   17.8342  -35.3813 H   0  0  0  0  0  0  0  0  0  0  0  0
   -5.6332   19.1944  -35.6482 H   0  0  0  0  0  0  0  0  0  0  0  0
   -5.0308   17.5021  -35.6482 H   0  0  0  0  0  0  0  0  0  0  0  0
   -1.3430   18.0745  -33.4482 H   0  0  0  0  0  0  0  0  0  0  0  0
   -1.7062   17.9478  -35.2041 H   0  0  0  0  0  0  0  0  0  0  0  0
    0.0532   19.7648  -34.0737 H   0  0  0  0  0  0  0  0  0  0  0  0
   -0.7517   19.9634  -35.6682 H   0  0  0  0  0  0  0  0  0  0  0  0
   -2.1150   20.6740  -33.3140 H   0  0  0  0  0  0  0  0  0  0  0  0
   -8.1072   19.2954  -33.3160 H   0  0  0  0  0  0  0  0  0  0  0  0
   -8.7764   21.4777  -32.2756 H   0  0  0  0  0  0  0  0  0  0  0  0
   -7.7419   23.8194  -31.0319 H   0  0  0  0  0  0  0  0  0  0  0  0
   -6.4180   24.5810  -28.5820 H   0  0  0  0  0  0  0  0  0  0  0  0
   -5.5070   26.1320  -28.5750 H   0  0  0  0  0  0  0  0  0  0  0  0
   -3.9115   20.2491  -32.5834 H   0  0  0  0  0  0  0  0  0  0  0  0
  1  2  1  0
  2  3  1  0
  2  4  1  0
  4  5  2  0
  4  6  1  0
  6  7  1  0
  7  8  1  0
  8  9  1  0
  2 10  1  0
 10 11  2  0
 11 12  1  0
 12 13  2  0
 13 14  1  0
 14 15  2  0
 15 16  1  0
 16 17  1  0
 16 18  2  0
 15 19  1  0
 19 20  1  0
 20 21  2  0
 20 22  1  0
 22 23  1  0
 23 24  2  0
 23 25  1  0
 25 26  1  0
 25 27  1  0
 25 28  1  0
 19 29  1  0
 29 30  2  0
 30 10  1  0
 29 13  1  0
  1 31  1  0
  1 32  1  0
  1 33  1  0
  3 34  1  0
  3 35  1  0
  3 36  1  0
  7 37  1  0
  7 38  1  0
  8 39  1  0
  8 40  1  0
  9 41  1  0
 11 42  1  0
 12 43  1  0
 14 44  1  0
 17 45  1  0
 17 46  1  0
 30 47  1  0
M  END
>  <UniqueID>  (83) 
83

>  <SMILES>  (83) 
CC(C)(C(=O)OCCO)c1ccc2cc(C(N)=O)n(C(=O)OC(=O)C(F)(F)F)c2c1

>  <Energy>  (83) 
85.94154249507625

>  <Genealogy>  (83) 
CC(C)(C(=O)OCCO)c1ccc2cc(C(N)=O)n(C(=O)OC(=O)C(F)(F)F)c2c1 (3D coordinates assigned)
CC(C)(C(=O)OCCO)c1ccc2cc(C(N)=O)n(C(=O)OC(=O)C(F)(F)F)c2c1 (optimized conformer: 85.94154249507625 kcal/mol)

>  <smiles>  (83) 
CC(C)(C(=O)OCCO)c1ccc2cc(C(N)=O)n(C(=O)OC(=O)C(F)(F)F)c2c1

>  <score_type>  (83) 
oracle

>  <origin>  (83) 
adg

>  <m_score__min__energy>  (83) 
-7.8399999999999999

>  <m_primary>  (83) 
energy

$$$$
84:0
     RDKit          3D

 39 40  0  0  0  0  0  0  0  0999 V2000
   -3.6870   24.1730  -27.5070 C   0  0  0  0  0  0  0  0  0  0  0  0
   -2.1690   24.0910  -27.3920 C   0  0  0  0  0  0  0  0  0  0  0  0
   -1.5200   24.6530  -28.6160 C   0  0  0  0  0  0  0  0  0  0  0  0
   -1.5940   25.8890  -28.8540 O   0  0  0  0  0  0  0  0  0  0  0  0
   -0.8710   23.7930  -29.5070 O   0  0  0  0  0  0  0  0  0  0  0  0
   -1.5350   22.7080  -30.1470 C   0  0  0  0  0  0  0  0  0  0  0  0
   -2.9270   22.9860  -30.2400 O   0  0  0  0  0  0  0  0  0  0  0  0
   -3.6870   22.6910  -31.3760 C   0  0  0  0  0  0  0  0  0  0  0  0
   -3.1270   22.2730  -32.4250 O   0  0  0  0  0  0  0  0  0  0  0  0
   -5.1100   22.8910  -31.3530 N   0  0  0  0  0  0  0  0  0  0  0  0
   -5.7960   23.9810  -30.9030 C   0  0  0  0  0  0  0  0  0  0  0  0
   -5.2010   25.2590  -30.4590 C   0  0  0  0  0  0  0  0  0  0  0  0
   -3.8610   25.5830  -30.8270 N   0  0  0  0  0  0  0  0  0  0  0  0
   -5.8490   26.0540  -29.7300 O   0  0  0  0  0  0  0  0  0  0  0  0
   -7.1690   23.7630  -30.9910 C   0  0  0  0  0  0  0  0  0  0  0  0
   -7.3060   22.5000  -31.5200 C   0  0  0  0  0  0  0  0  0  0  0  0
   -8.4560   21.7750  -31.8200 C   0  0  0  0  0  0  0  0  0  0  0  0
   -8.3000   20.4800  -32.3410 C   0  0  0  0  0  0  0  0  0  0  0  0
   -7.0070   19.9310  -32.5360 C   0  0  0  0  0  0  0  0  0  0  0  0
   -6.8530   18.5540  -33.1170 C   0  0  0  0  0  0  0  0  0  0  0  0
   -5.7320   18.5370  -34.1060 C   0  0  0  0  0  0  0  0  0  0  0  0
   -5.9770   18.5680  -35.3420 O   0  0  0  0  0  0  0  0  0  0  0  0
   -4.4160   18.5360  -33.6650 O   0  0  0  0  0  0  0  0  0  0  0  0
   -5.8640   20.7020  -32.2300 C   0  0  0  0  0  0  0  0  0  0  0  0
   -6.0490   21.9950  -31.7290 C   0  0  0  0  0  0  0  0  0  0  0  0
   -4.1302   24.1969  -26.5005 H   0  0  0  0  0  0  0  0  0  0  0  0
   -3.9646   25.0874  -28.0517 H   0  0  0  0  0  0  0  0  0  0  0  0
   -4.0615   23.2938  -28.0517 H   0  0  0  0  0  0  0  0  0  0  0  0
   -1.8411   24.6647  -26.5126 H   0  0  0  0  0  0  0  0  0  0  0  0
   -1.8767   23.0358  -27.2870 H   0  0  0  0  0  0  0  0  0  0  0  0
   -1.1212   22.5705  -31.1569 H   0  0  0  0  0  0  0  0  0  0  0  0
   -1.3850   21.7908  -29.5586 H   0  0  0  0  0  0  0  0  0  0  0  0
   -3.0500   25.1880  -30.3020 H   0  0  0  0  0  0  0  0  0  0  0  0
   -7.9735   24.4542  -30.6993 H   0  0  0  0  0  0  0  0  0  0  0  0
   -9.4557   22.2030  -31.6542 H   0  0  0  0  0  0  0  0  0  0  0  0
   -9.1889   19.8862  -32.6002 H   0  0  0  0  0  0  0  0  0  0  0  0
   -6.6361   17.8401  -32.3087 H   0  0  0  0  0  0  0  0  0  0  0  0
   -7.7865   18.2709  -33.6254 H   0  0  0  0  0  0  0  0  0  0  0  0
   -4.8531   20.2958  -32.3819 H   0  0  0  0  0  0  0  0  0  0  0  0
  1  2  1  0
  2  3  1  0
  3  4  2  0
  3  5  1  0
  5  6  1  0
  6  7  1  0
  7  8  1  0
  8  9  2  0
  8 10  1  0
 10 11  1  0
 11 12  1  0
 12 13  1  0
 12 14  2  0
 11 15  2  0
 15 16  1  0
 16 17  2  0
 17 18  1  0
 18 19  2  0
 19 20  1  0
 20 21  1  0
 21 22  2  0
 21 23  1  0
 19 24  1  0
 24 25  2  0
 25 10  1  0
 25 16  1  0
  1 26  1  0
  1 27  1  0
  1 28  1  0
  2 29  1  0
  2 30  1  0
  6 31  1  0
  6 32  1  0
 13 33  1  0
 15 34  1  0
 17 35  1  0
 18 36  1  0
 20 37  1  0
 20 38  1  0
 24 39  1  0
M  CHG  2  13  -1  23  -1
M  END
>  <UniqueID>  (84) 
84

>  <SMILES>  (84) 
CCC(=O)OCOC(=O)n1c(C([NH-])=O)cc2ccc(CC(=O)[O-])cc21

>  <Energy>  (84) 
68.5400670973391

>  <Genealogy>  (84) 
CCC(=O)OCOC(=O)n1c(C([NH-])=O)cc2ccc(CC(=O)[O-])cc21 (protonated)
CCC(=O)OCOC(=O)n1c(C([NH-])=O)cc2ccc(CC(=O)[O-])cc21 (3D coordinates assigned)
CCC(=O)OCOC(=O)n1c(C([NH-])=O)cc2ccc(CC(=O)[O-])cc21 (optimized conformer: 68.5400670973391 kcal/mol)

>  <smiles>  (84) 
CCC(=O)OCOC(=O)n1c(C(N)=O)cc2ccc(CC(=O)O)cc21

>  <score_type>  (84) 
oracle

>  <origin>  (84) 
adg

>  <m_score__min__energy>  (84) 
-10.24

>  <m_primary>  (84) 
energy

$$$$
85:0
     RDKit          3D

 40 41  0  0  0  0  0  0  0  0999 V2000
   -3.2230   25.1610  -30.4160 H   0  0  0  0  0  0  0  0  0  0  0  0
   -4.0530   25.6730  -30.7890 N   0  0  0  0  0  0  0  0  0  0  0  0
   -5.3750   25.3040  -30.4040 C   0  0  0  0  0  0  0  0  0  0  0  0
   -6.0520   26.0880  -29.6890 O   0  0  0  0  0  0  0  0  0  0  0  0
   -5.9270   24.0000  -30.8270 C   0  0  0  0  0  0  0  0  0  0  0  0
   -7.2540   23.8030  -31.2050 C   0  0  0  0  0  0  0  0  0  0  0  0
   -8.0624   24.5489  -31.2146 H   0  0  0  0  0  0  0  0  0  0  0  0
   -7.3380   22.4760  -31.5640 C   0  0  0  0  0  0  0  0  0  0  0  0
   -8.4250   21.7380  -32.0260 C   0  0  0  0  0  0  0  0  0  0  0  0
   -9.4126   22.2044  -32.1567 H   0  0  0  0  0  0  0  0  0  0  0  0
   -8.2210   20.3790  -32.3200 C   0  0  0  0  0  0  0  0  0  0  0  0
   -9.0561   19.7723  -32.7002 H   0  0  0  0  0  0  0  0  0  0  0  0
   -6.9490   19.7830  -32.1310 C   0  0  0  0  0  0  0  0  0  0  0  0
   -6.7300   18.3410  -32.4920 C   0  0  0  0  0  0  0  0  0  0  0  0
   -7.6858   17.8000  -32.4307 H   0  0  0  0  0  0  0  0  0  0  0  0
   -6.0071   17.8972  -31.7917 H   0  0  0  0  0  0  0  0  0  0  0  0
   -6.1930   18.2430  -33.8830 C   0  0  0  0  0  0  0  0  0  0  0  0
   -6.0960   19.2820  -34.5930 O   0  0  0  0  0  0  0  0  0  0  0  0
   -5.8560   16.9900  -34.4030 O   0  0  0  0  0  0  0  0  0  0  0  0
   -6.3370   15.7750  -33.8420 C   0  0  0  0  0  0  0  0  0  0  0  0
   -6.3104   15.8421  -32.7444 H   0  0  0  0  0  0  0  0  0  0  0  0
   -7.3714   15.6021  -34.1738 H   0  0  0  0  0  0  0  0  0  0  0  0
   -5.7012   14.9409  -34.1738 H   0  0  0  0  0  0  0  0  0  0  0  0
   -5.8690   20.5650  -31.6650 C   0  0  0  0  0  0  0  0  0  0  0  0
   -4.8734   20.1214  -31.5168 H   0  0  0  0  0  0  0  0  0  0  0  0
   -6.0990   21.9180  -31.3970 C   0  0  0  0  0  0  0  0  0  0  0  0
   -5.2190   22.8430  -30.9580 N   0  0  0  0  0  0  0  0  0  0  0  0
   -3.8480   22.6100  -30.5960 C   0  0  0  0  0  0  0  0  0  0  0  0
   -2.9350   23.1830  -31.2470 O   0  0  0  0  0  0  0  0  0  0  0  0
   -3.4720   21.7810  -29.4310 C   0  0  0  0  0  0  0  0  0  0  0  0
   -3.0656   20.7794  -29.6352 H   0  0  0  0  0  0  0  0  0  0  0  0
   -3.5850   22.1480  -28.1460 C   0  0  0  0  0  0  0  0  0  0  0  0
   -3.2217   21.4476  -27.3796 H   0  0  0  0  0  0  0  0  0  0  0  0
   -4.1750   23.4530  -27.6800 C   0  0  0  0  0  0  0  0  0  0  0  0
   -5.2618   23.4375  -27.8492 H   0  0  0  0  0  0  0  0  0  0  0  0
   -3.9541   23.5757  -26.6094 H   0  0  0  0  0  0  0  0  0  0  0  0
   -3.5930   24.5800  -28.4090 N   0  0  0  0  0  0  0  0  0  0  0  0
   -4.3260   25.3040  -28.5940 H   0  0  0  0  0  0  0  0  0  0  0  0
   -3.2180   24.2380  -29.3240 H   0  0  0  0  0  0  0  0  0  0  0  0
   -2.8110   24.9990  -27.8580 H   0  0  0  0  0  0  0  0  0  0  0  0
  1  2  1  0
  2  3  1  0
  3  4  2  0
  3  5  1  0
  5  6  2  0
  6  7  1  0
  6  8  1  0
  8  9  2  0
  9 10  1  0
  9 11  1  0
 11 12  1  0
 11 13  2  0
 13 14  1  0
 14 15  1  0
 14 16  1  0
 14 17  1  0
 17 18  2  0
 17 19  1  0
 19 20  1  0
 20 21  1  0
 20 22  1  0
 20 23  1  0
 13 24  1  0
 24 25  1  0
 24 26  2  0
 26 27  1  0
 27 28  1  0
 28 29  2  0
 28 30  1  0
 30 31  1  0
 30 32  2  0
 32 33  1  0
 32 34  1  0
 34 35  1  0
 34 36  1  0
 34 37  1  0
 37 38  1  0
 37 39  1  0
 37 40  1  0
 27  5  1  0
 26  8  1  0
M  CHG  2   2  -1  37   1
M  END
>  <UniqueID>  (85) 
85

>  <SMILES>  (85) 
COC(=O)Cc1ccc2cc(C([NH-])=O)n(C(=O)/C=C\C[NH3+])c2c1

>  <Energy>  (85) 
74.11563538832101

>  <Genealogy>  (85) 
COC(=O)Cc1ccc2cc(C([NH-])=O)n(C(=O)C=CC[NH3+])c2c1 (protonated)
COC(=O)Cc1ccc2cc(C([NH-])=O)n(C(=O)/C=C\C[NH3+])c2c1 (cis-trans isomerization)
COC(=O)Cc1ccc2cc(C([NH-])=O)n(C(=O)/C=C\C[NH3+])c2c1 (3D coordinates assigned)
COC(=O)Cc1ccc2cc(C([NH-])=O)n(C(=O)/C=C\C[NH3+])c2c1 (optimized conformer: 74.11563538832101 kcal/mol)

>  <smiles>  (85) 
COC(=O)Cc1ccc2cc(C(N)=O)n(C(=O)C=CCN)c2c1

>  <score_type>  (85) 
oracle

>  <origin>  (85) 
adg

>  <m_score__min__energy>  (85) 
-9.6899999999999995

>  <m_primary>  (85) 
energy

$$$$
86:0
     RDKit          3D

 49 50  0  0  0  0  0  0  0  0999 V2000
   -2.6970   21.1270  -33.4790 C   0  0  0  0  0  0  0  0  0  0  0  0
   -3.5640   20.0420  -33.7280 O   0  0  0  0  0  0  0  0  0  0  0  0
   -3.0330   18.8500  -33.1790 C   0  0  0  0  0  0  0  0  0  0  0  0
   -3.5140   17.6380  -33.9720 C   0  0  0  0  0  0  0  0  0  0  0  0
   -4.8420   17.3130  -33.5760 O   0  0  0  0  0  0  0  0  0  0  0  0
   -5.9350   18.1430  -33.8410 C   0  0  0  0  0  0  0  0  0  0  0  0
   -6.0450   18.7290  -34.9530 O   0  0  0  0  0  0  0  0  0  0  0  0
   -7.0040   18.3000  -32.8090 C   0  0  0  0  0  0  0  0  0  0  0  0
   -7.1250   19.7410  -32.3990 C   0  0  0  0  0  0  0  0  0  0  0  0
   -8.3680   20.4150  -32.5110 C   0  0  0  0  0  0  0  0  0  0  0  0
   -8.4940   21.7550  -32.1090 C   0  0  0  0  0  0  0  0  0  0  0  0
   -7.3660   22.3930  -31.6020 C   0  0  0  0  0  0  0  0  0  0  0  0
   -7.2250   23.6650  -31.0950 C   0  0  0  0  0  0  0  0  0  0  0  0
   -5.8960   23.7520  -30.6900 C   0  0  0  0  0  0  0  0  0  0  0  0
   -5.3000   24.9740  -30.1120 C   0  0  0  0  0  0  0  0  0  0  0  0
   -3.8930   25.2150  -30.1810 N   0  0  0  0  0  0  0  0  0  0  0  0
   -6.0500   25.8440  -29.5940 O   0  0  0  0  0  0  0  0  0  0  0  0
   -5.2400   22.5820  -30.9290 N   0  0  0  0  0  0  0  0  0  0  0  0
   -3.9200   22.2210  -30.4920 C   0  0  0  0  0  0  0  0  0  0  0  0
   -3.7530   21.2080  -29.7600 O   0  0  0  0  0  0  0  0  0  0  0  0
   -2.8270   23.0160  -30.8580 O   0  0  0  0  0  0  0  0  0  0  0  0
   -1.5720   22.9790  -30.1830 C   0  0  0  0  0  0  0  0  0  0  0  0
   -1.6180   23.8310  -28.9140 C   0  0  0  0  0  0  0  0  0  0  0  0
   -1.5980   25.2080  -29.2460 O   0  0  0  0  0  0  0  0  0  0  0  0
   -1.0340   25.9640  -28.1970 C   0  0  0  0  0  0  0  0  0  0  0  0
   -6.1550   21.7590  -31.4910 C   0  0  0  0  0  0  0  0  0  0  0  0
   -6.0070   20.4180  -31.8670 C   0  0  0  0  0  0  0  0  0  0  0  0
   -2.5860   21.2660  -32.3935 H   0  0  0  0  0  0  0  0  0  0  0  0
   -1.7129   20.9198  -33.9247 H   0  0  0  0  0  0  0  0  0  0  0  0
   -3.1162   22.0411  -33.9247 H   0  0  0  0  0  0  0  0  0  0  0  0
   -1.9344   18.8930  -33.2138 H   0  0  0  0  0  0  0  0  0  0  0  0
   -3.3750   18.7536  -32.1380 H   0  0  0  0  0  0  0  0  0  0  0  0
   -3.4980   17.8722  -35.0467 H   0  0  0  0  0  0  0  0  0  0  0  0
   -2.8512   16.7825  -33.7752 H   0  0  0  0  0  0  0  0  0  0  0  0
   -7.9634   17.9593  -33.2255 H   0  0  0  0  0  0  0  0  0  0  0  0
   -6.7413   17.6976  -31.9269 H   0  0  0  0  0  0  0  0  0  0  0  0
   -9.2415   19.8834  -32.9165 H   0  0  0  0  0  0  0  0  0  0  0  0
   -9.4549   22.2839  -32.1924 H   0  0  0  0  0  0  0  0  0  0  0  0
   -7.9970   24.4454  -31.0249 H   0  0  0  0  0  0  0  0  0  0  0  0
   -3.4850   26.0640  -29.7300 H   0  0  0  0  0  0  0  0  0  0  0  0
   -3.2680   24.6000  -30.7460 H   0  0  0  0  0  0  0  0  0  0  0  0
   -1.3379   21.9390  -29.9119 H   0  0  0  0  0  0  0  0  0  0  0  0
   -0.7974   23.3814  -30.8524 H   0  0  0  0  0  0  0  0  0  0  0  0
   -2.5400   23.6050  -28.3583 H   0  0  0  0  0  0  0  0  0  0  0  0
   -0.7388   23.5991  -28.2950 H   0  0  0  0  0  0  0  0  0  0  0  0
   -1.3485   25.5424  -27.2309 H   0  0  0  0  0  0  0  0  0  0  0  0
    0.0631   25.9325  -28.2710 H   0  0  0  0  0  0  0  0  0  0  0  0
   -1.3767   27.0066  -28.2710 H   0  0  0  0  0  0  0  0  0  0  0  0
   -5.0414   19.9043  -31.7503 H   0  0  0  0  0  0  0  0  0  0  0  0
  1  2  1  0
  2  3  1  0
  3  4  1  0
  4  5  1  0
  5  6  1  0
  6  7  2  0
  6  8  1  0
  8  9  1  0
  9 10  2  0
 10 11  1  0
 11 12  2  0
 12 13  1  0
 13 14  2  0
 14 15  1  0
 15 16  1  0
 15 17  2  0
 14 18  1  0
 18 19  1  0
 19 20  2  0
 19 21  1  0
 21 22  1  0
 22 23  1  0
 23 24  1  0
 24 25  1  0
 18 26  1  0
 26 27  2  0
 27  9  1  0
 26 12  1  0
  1 28  1  0
  1 29  1  0
  1 30  1  0
  3 31  1  0
  3 32  1  0
  4 33  1  0
  4 34  1  0
  8 35  1  0
  8 36  1  0
 10 37  1  0
 11 38  1  0
 13 39  1  0
 16 40  1  0
 16 41  1  0
 22 42  1  0
 22 43  1  0
 23 44  1  0
 23 45  1  0
 25 46  1  0
 25 47  1  0
 25 48  1  0
 27 49  1  0
M  END
>  <UniqueID>  (86) 
86

>  <SMILES>  (86) 
COCCOC(=O)Cc1ccc2cc(C(N)=O)n(C(=O)OCCOC)c2c1

>  <Energy>  (86) 
80.54959466994804

>  <Genealogy>  (86) 
COCCOC(=O)Cc1ccc2cc(C(N)=O)n(C(=O)OCCOC)c2c1 (3D coordinates assigned)
COCCOC(=O)Cc1ccc2cc(C(N)=O)n(C(=O)OCCOC)c2c1 (optimized conformer: 80.54959466994804 kcal/mol)

>  <smiles>  (86) 
COCCOC(=O)Cc1ccc2cc(C(N)=O)n(C(=O)OCCOC)c2c1

>  <score_type>  (86) 
oracle

>  <origin>  (86) 
adg

>  <m_score__min__energy>  (86) 
-8.3900000000000006

>  <m_primary>  (86) 
energy

$$$$
87:0
     RDKit          3D

 43 44  0  0  0  0  0  0  0  0999 V2000
   -7.5820   18.3770  -32.6720 C   0  0  0  0  0  0  0  0  0  0  0  0
   -7.5990   19.8350  -32.3280 C   0  0  0  0  0  0  0  0  0  0  0  0
   -8.8280   20.5400  -32.2810 C   0  0  0  0  0  0  0  0  0  0  0  0
   -8.8620   21.8980  -31.9150 C   0  0  0  0  0  0  0  0  0  0  0  0
   -7.6570   22.5160  -31.5930 C   0  0  0  0  0  0  0  0  0  0  0  0
   -7.4000   23.8050  -31.1820 C   0  0  0  0  0  0  0  0  0  0  0  0
   -6.0220   23.8610  -30.9800 C   0  0  0  0  0  0  0  0  0  0  0  0
   -5.2980   25.0880  -30.5850 C   0  0  0  0  0  0  0  0  0  0  0  0
   -3.8920   25.2110  -30.7900 N   0  0  0  0  0  0  0  0  0  0  0  0
   -5.9340   26.0550  -30.0840 O   0  0  0  0  0  0  0  0  0  0  0  0
   -5.4540   22.6530  -31.2510 N   0  0  0  0  0  0  0  0  0  0  0  0
   -4.0810   22.2640  -31.1030 C   0  0  0  0  0  0  0  0  0  0  0  0
   -3.3690   22.1120  -32.1310 O   0  0  0  0  0  0  0  0  0  0  0  0
   -3.5220   21.9860  -29.7630 C   0  0  0  0  0  0  0  0  0  0  0  0
   -3.3490   20.7830  -29.4180 O   0  0  0  0  0  0  0  0  0  0  0  0
   -3.1460   23.0710  -28.8750 N   0  0  1  0  0  0  0  0  0  0  0  0
   -4.2710   23.5230  -28.0340 C   0  0  0  0  0  0  0  0  0  0  0  0
   -1.9040   22.7800  -28.1060 C   0  0  0  0  0  0  0  0  0  0  0  0
   -0.6210   23.5790  -28.4960 C   0  0  1  0  0  0  0  0  0  0  0  0
    0.4730   23.3230  -27.4490 C   0  0  0  0  0  0  0  0  0  0  0  0
   -0.1270   23.1250  -29.7070 F   0  0  0  0  0  0  0  0  0  0  0  0
   -0.8660   25.0640  -28.5780 C   0  0  0  0  0  0  0  0  0  0  0  0
   -1.8730   25.5110  -29.1890 O   0  0  0  0  0  0  0  0  0  0  0  0
    0.0070   25.9500  -27.9600 O   0  0  0  0  0  0  0  0  0  0  0  0
   -6.4640   21.8440  -31.6290 C   0  0  0  0  0  0  0  0  0  0  0  0
   -6.3990   20.4930  -31.9810 C   0  0  0  0  0  0  0  0  0  0  0  0
   -7.5751   17.7820  -31.7468 H   0  0  0  0  0  0  0  0  0  0  0  0
   -8.4773   18.1287  -33.2609 H   0  0  0  0  0  0  0  0  0  0  0  0
   -6.6811   18.1497  -33.2609 H   0  0  0  0  0  0  0  0  0  0  0  0
   -9.7641   20.0202  -32.5331 H   0  0  0  0  0  0  0  0  0  0  0  0
   -9.8108   22.4538  -31.8843 H   0  0  0  0  0  0  0  0  0  0  0  0
   -8.1278   24.6179  -31.0427 H   0  0  0  0  0  0  0  0  0  0  0  0
   -3.4850   26.0640  -31.2300 H   0  0  0  0  0  0  0  0  0  0  0  0
   -2.9200   23.8900  -29.4880 H   0  0  0  0  0  0  0  0  0  0  0  0
   -4.0021   23.4149  -26.9729 H   0  0  0  0  0  0  0  0  0  0  0  0
   -4.4900   24.5789  -28.2511 H   0  0  0  0  0  0  0  0  0  0  0  0
   -5.1596   22.9121  -28.2511 H   0  0  0  0  0  0  0  0  0  0  0  0
   -2.1142   22.9879  -27.0465 H   0  0  0  0  0  0  0  0  0  0  0  0
   -1.6664   21.7310  -28.3367 H   0  0  0  0  0  0  0  0  0  0  0  0
    0.0458   23.4230  -26.4403 H   0  0  0  0  0  0  0  0  0  0  0  0
    0.8738   22.3068  -27.5784 H   0  0  0  0  0  0  0  0  0  0  0  0
    1.2831   24.0559  -27.5784 H   0  0  0  0  0  0  0  0  0  0  0  0
   -5.4386   19.9567  -31.9875 H   0  0  0  0  0  0  0  0  0  0  0  0
  1  2  1  0
  2  3  2  0
  3  4  1  0
  4  5  2  0
  5  6  1  0
  6  7  2  0
  7  8  1  0
  8  9  1  0
  8 10  2  0
  7 11  1  0
 11 12  1  0
 12 13  2  0
 12 14  1  0
 14 15  2  0
 14 16  1  0
 16 17  1  0
 16 18  1  0
 18 19  1  0
 19 20  1  0
 19 21  1  6
 19 22  1  0
 22 23  2  0
 22 24  1  0
 11 25  1  0
 25 26  2  0
 26  2  1  0
 25  5  1  0
  1 27  1  0
  1 28  1  0
  1 29  1  0
  3 30  1  0
  4 31  1  0
  6 32  1  0
  9 33  1  0
 16 34  1  6
 17 35  1  0
 17 36  1  0
 17 37  1  0
 18 38  1  0
 18 39  1  0
 20 40  1  0
 20 41  1  0
 20 42  1  0
 26 43  1  0
M  CHG  3   9  -1  16   1  24  -1
M  END
>  <UniqueID>  (87) 
87

>  <SMILES>  (87) 
Cc1ccc2cc(C([NH-])=O)n(C(=O)C(=O)[N@@H+](C)C[C@@](C)(F)C(=O)[O-])c2c1

>  <Energy>  (87) 
87.92122263759383

>  <Genealogy>  (87) 
Cc1ccc2cc(C([NH-])=O)n(C(=O)C(=O)[NH+](C)C[C@@](C)(F)C(=O)[O-])c2c1 (protonated)
Cc1ccc2cc(C([NH-])=O)n(C(=O)C(=O)[N@@H+](C)C[C@@](C)(F)C(=O)[O-])c2c1 (chirality)
Cc1ccc2cc(C([NH-])=O)n(C(=O)C(=O)[N@@H+](C)C[C@@](C)(F)C(=O)[O-])c2c1 (3D coordinates assigned)
Cc1ccc2cc(C([NH-])=O)n(C(=O)C(=O)[N@@H+](C)C[C@@](C)(F)C(=O)[O-])c2c1 (optimized conformer: 87.92122263759383 kcal/mol)

>  <smiles>  (87) 
Cc1ccc2cc(C(N)=O)n(C(=O)C(=O)N(C)C[C@@](C)(F)C(=O)O)c2c1

>  <score_type>  (87) 
oracle

>  <origin>  (87) 
adg

>  <m_score__min__energy>  (87) 
-11.73

>  <m_primary>  (87) 
energy

$$$$
88:0
     RDKit          3D

 55 58  0  0  0  0  0  0  0  0999 V2000
   -4.1440   23.1860  -27.8970 C   0  0  0  0  0  0  0  0  0  0  0  0
   -2.9730   22.7090  -28.7760 C   0  0  0  0  0  0  0  0  0  0  0  0
   -1.6240   23.0970  -28.1420 C   0  0  0  0  0  0  0  0  0  0  0  0
   -3.0410   21.1790  -28.9040 C   0  0  0  0  0  0  0  0  0  0  0  0
   -3.0820   23.2490  -30.1010 O   0  0  0  0  0  0  0  0  0  0  0  0
   -3.6920   22.6330  -31.2050 C   0  0  0  0  0  0  0  0  0  0  0  0
   -3.0020   22.0390  -32.0760 O   0  0  0  0  0  0  0  0  0  0  0  0
   -5.1220   22.6830  -31.3370 N   0  0  0  0  0  0  0  0  0  0  0  0
   -5.9460   23.7040  -30.9710 C   0  0  0  0  0  0  0  0  0  0  0  0
   -5.5160   25.0410  -30.5190 C   0  0  0  0  0  0  0  0  0  0  0  0
   -4.1730   25.4890  -30.7080 N   0  0  0  0  0  0  0  0  0  0  0  0
   -6.3600   25.8220  -30.0030 O   0  0  0  0  0  0  0  0  0  0  0  0
   -7.2800   23.3400  -31.1250 C   0  0  0  0  0  0  0  0  0  0  0  0
   -7.2500   22.0530  -31.6120 C   0  0  0  0  0  0  0  0  0  0  0  0
   -8.2950   21.1950  -31.9290 C   0  0  0  0  0  0  0  0  0  0  0  0
   -7.9770   19.9020  -32.3750 C   0  0  0  0  0  0  0  0  0  0  0  0
   -6.6250   19.4780  -32.4940 C   0  0  0  0  0  0  0  0  0  0  0  0
   -6.3100   18.1330  -32.9420 N   0  0  0  0  0  0  0  0  0  0  0  0
   -6.3110   17.6950  -34.3280 C   0  0  2  0  0  0  0  0  0  0  0  0
   -6.3390   16.1650  -34.2430 C   0  0  0  0  0  0  0  0  0  0  0  0
   -5.7550   15.8450  -32.8670 C   0  0  0  0  0  0  0  0  0  0  0  0
   -5.4090   17.2120  -32.2690 C   0  0  1  0  0  0  0  0  0  0  0  0
   -3.9640   17.6100  -32.6420 C   0  0  0  0  0  0  0  0  0  0  0  0
   -3.8260   17.9430  -34.0790 N   0  0  0  0  0  0  0  0  0  0  0  0
   -2.5060   18.1890  -34.5970 C   0  0  0  0  0  0  0  0  0  0  0  0
   -1.9710   19.3230  -34.4730 O   0  0  0  0  0  0  0  0  0  0  0  0
   -1.8020   17.1770  -35.2390 O   0  0  0  0  0  0  0  0  0  0  0  0
   -4.9920   18.1770  -34.9660 C   0  0  0  0  0  0  0  0  0  0  0  0
   -5.5920   20.3860  -32.1450 C   0  0  0  0  0  0  0  0  0  0  0  0
   -5.9380   21.6770  -31.7280 C   0  0  0  0  0  0  0  0  0  0  0  0
   -3.8746   23.0763  -26.8362 H   0  0  0  0  0  0  0  0  0  0  0  0
   -4.3581   24.2430  -28.1135 H   0  0  0  0  0  0  0  0  0  0  0  0
   -5.0358   22.5795  -28.1135 H   0  0  0  0  0  0  0  0  0  0  0  0
   -1.7131   23.0714  -27.0459 H   0  0  0  0  0  0  0  0  0  0  0  0
   -0.8495   22.3852  -28.4636 H   0  0  0  0  0  0  0  0  0  0  0  0
   -1.3460   24.1115  -28.4636 H   0  0  0  0  0  0  0  0  0  0  0  0
   -3.0611   20.7277  -27.9010 H   0  0  0  0  0  0  0  0  0  0  0  0
   -3.9526   20.8970  -29.4513 H   0  0  0  0  0  0  0  0  0  0  0  0
   -2.1580   20.8172  -29.4513 H   0  0  0  0  0  0  0  0  0  0  0  0
   -3.4990   24.9380  -31.2830 H   0  0  0  0  0  0  0  0  0  0  0  0
   -3.8720   26.4170  -30.3360 H   0  0  0  0  0  0  0  0  0  0  0  0
   -8.1684   23.9501  -30.9047 H   0  0  0  0  0  0  0  0  0  0  0  0
   -9.3419   21.5190  -31.8335 H   0  0  0  0  0  0  0  0  0  0  0  0
   -8.7873   19.2056  -32.6367 H   0  0  0  0  0  0  0  0  0  0  0  0
   -7.1507   18.0805  -34.9249 H   0  0  0  0  0  0  0  0  0  0  0  0
   -7.3700   15.7903  -34.3241 H   0  0  0  0  0  0  0  0  0  0  0  0
   -5.7716   15.6913  -35.0576 H   0  0  0  0  0  0  0  0  0  0  0  0
   -6.4952   15.3236  -32.2423 H   0  0  0  0  0  0  0  0  0  0  0  0
   -4.8794   15.1820  -32.9285 H   0  0  0  0  0  0  0  0  0  0  0  0
   -5.4989   17.2132  -31.1727 H   0  0  0  0  0  0  0  0  0  0  0  0
   -3.6737   18.4878  -32.0460 H   0  0  0  0  0  0  0  0  0  0  0  0
   -3.3127   16.7488  -32.4319 H   0  0  0  0  0  0  0  0  0  0  0  0
   -5.0705   19.2547  -35.1721 H   0  0  0  0  0  0  0  0  0  0  0  0
   -4.8341   17.6046  -35.8920 H   0  0  0  0  0  0  0  0  0  0  0  0
   -4.5367   20.0807  -32.2011 H   0  0  0  0  0  0  0  0  0  0  0  0
  1  2  1  0
  2  3  1  0
  2  4  1  0
  2  5  1  0
  5  6  1  0
  6  7  2  0
  6  8  1  0
  8  9  1  0
  9 10  1  0
 10 11  1  0
 10 12  2  0
  9 13  2  0
 13 14  1  0
 14 15  2  0
 15 16  1  0
 16 17  2  0
 17 18  1  0
 18 19  1  0
 19 20  1  0
 20 21  1  0
 21 22  1  0
 22 23  1  0
 23 24  1  0
 24 25  1  0
 25 26  2  0
 25 27  1  0
 24 28  1  0
 17 29  1  0
 29 30  2  0
 30  8  1  0
 30 14  1  0
 22 18  1  0
 28 19  1  0
  1 31  1  0
  1 32  1  0
  1 33  1  0
  3 34  1  0
  3 35  1  0
  3 36  1  0
  4 37  1  0
  4 38  1  0
  4 39  1  0
 11 40  1  0
 11 41  1  0
 13 42  1  0
 15 43  1  0
 16 44  1  0
 19 45  1  6
 20 46  1  0
 20 47  1  0
 21 48  1  0
 21 49  1  0
 22 50  1  1
 23 51  1  0
 23 52  1  0
 28 53  1  0
 28 54  1  0
 29 55  1  0
M  CHG  1  27  -1
M  END
>  <UniqueID>  (88) 
88

>  <SMILES>  (88) 
CC(C)(C)OC(=O)n1c(C(N)=O)cc2ccc(N3[C@@H]4CC[C@H]3CN(C(=O)[O-])C4)cc21

>  <Energy>  (88) 
107.38349967404025

>  <Genealogy>  (88) 
CC(C)(C)OC(=O)n1c(C(N)=O)cc2ccc(N3C4CCC3CN(C(=O)[O-])C4)cc21 (protonated)
CC(C)(C)OC(=O)n1c(C(N)=O)cc2ccc(N3[C@@H]4CC[C@H]3CN(C(=O)[O-])C4)cc21 (chirality)
CC(C)(C)OC(=O)n1c(C(N)=O)cc2ccc(N3[C@@H]4CC[C@H]3CN(C(=O)[O-])C4)cc21 (3D coordinates assigned)
CC(C)(C)OC(=O)n1c(C(N)=O)cc2ccc(N3[C@@H]4CC[C@H]3CN(C(=O)[O-])C4)cc21 (nonaromatic ring conformer: 107.38349967404025 kcal/mol)

>  <smiles>  (88) 
CC(C)(C)OC(=O)n1c(C(N)=O)cc2ccc(N3C4CCC3CN(C(=O)O)C4)cc21

>  <score_type>  (88) 
oracle

>  <origin>  (88) 
adg

>  <m_score__min__energy>  (88) 
-9.3699999999999992

>  <m_primary>  (88) 
energy

$$$$
89:0
     RDKit          3D

 53 55  0  0  0  0  0  0  0  0999 V2000
   -1.2170   22.8880  -28.7050 C   0  0  0  0  0  0  0  0  0  0  0  0
   -2.5920   22.5280  -29.3010 C   0  0  0  0  0  0  0  0  0  0  0  0
   -2.6420   21.0120  -29.5480 C   0  0  0  0  0  0  0  0  0  0  0  0
   -3.7240   22.9120  -28.3290 C   0  0  0  0  0  0  0  0  0  0  0  0
   -2.7770   23.1690  -30.5710 O   0  0  0  0  0  0  0  0  0  0  0  0
   -3.6080   22.7300  -31.6130 C   0  0  0  0  0  0  0  0  0  0  0  0
   -3.1200   22.2640  -32.6770 O   0  0  0  0  0  0  0  0  0  0  0  0
   -5.0320   22.8400  -31.4720 N   0  0  0  0  0  0  0  0  0  0  0  0
   -5.7410   23.9000  -30.9920 C   0  0  0  0  0  0  0  0  0  0  0  0
   -5.1720   25.1100  -30.3640 C   0  0  0  0  0  0  0  0  0  0  0  0
   -3.9390   25.6440  -30.8410 N   0  0  0  0  0  0  0  0  0  0  0  0
   -5.7800   25.7010  -29.4330 O   0  0  0  0  0  0  0  0  0  0  0  0
   -7.1100   23.6610  -31.1010 C   0  0  0  0  0  0  0  0  0  0  0  0
   -7.2180   22.4100  -31.6640 C   0  0  0  0  0  0  0  0  0  0  0  0
   -8.3500   21.6780  -32.0090 C   0  0  0  0  0  0  0  0  0  0  0  0
   -8.1650   20.4200  -32.6070 C   0  0  0  0  0  0  0  0  0  0  0  0
   -6.8600   19.9220  -32.8570 C   0  0  0  0  0  0  0  0  0  0  0  0
   -6.6830   18.6330  -33.4720 N   0  0  0  0  0  0  0  0  0  0  0  0
   -7.0690   17.4190  -32.7430 C   0  0  0  0  0  0  0  0  0  0  0  0
   -6.8590   16.1660  -33.6080 C   0  0  0  0  0  0  0  0  0  0  0  0
   -5.5050   16.0960  -34.2170 N   0  0  0  0  0  0  0  0  0  0  0  0
   -4.5490   15.3510  -33.3710 C   0  0  0  0  0  0  0  0  0  0  0  0
   -3.1430   15.7770  -33.6670 C   0  0  0  0  0  0  0  0  0  0  0  0
   -2.5750   15.4000  -34.7260 O   0  0  0  0  0  0  0  0  0  0  0  0
   -2.4640   16.5960  -32.7740 O   0  0  0  0  0  0  0  0  0  0  0  0
   -4.9400   17.4070  -34.6410 C   0  0  0  0  0  0  0  0  0  0  0  0
   -6.0040   18.5000  -34.7620 C   0  0  0  0  0  0  0  0  0  0  0  0
   -5.7350   20.6930  -32.4870 C   0  0  0  0  0  0  0  0  0  0  0  0
   -5.9500   21.9350  -31.8790 C   0  0  0  0  0  0  0  0  0  0  0  0
   -1.2779   22.8721  -27.6068 H   0  0  0  0  0  0  0  0  0  0  0  0
   -0.4684   22.1556  -29.0414 H   0  0  0  0  0  0  0  0  0  0  0  0
   -0.9234   23.8933  -29.0414 H   0  0  0  0  0  0  0  0  0  0  0  0
   -2.6594   20.4837  -28.5833 H   0  0  0  0  0  0  0  0  0  0  0  0
   -3.5488   20.7632  -30.1187 H   0  0  0  0  0  0  0  0  0  0  0  0
   -1.7535   20.7040  -30.1187 H   0  0  0  0  0  0  0  0  0  0  0  0
   -3.3738   22.7932  -27.2930 H   0  0  0  0  0  0  0  0  0  0  0  0
   -4.0147   23.9590  -28.5000 H   0  0  0  0  0  0  0  0  0  0  0  0
   -4.5917   22.2579  -28.5000 H   0  0  0  0  0  0  0  0  0  0  0  0
   -3.0250   25.2950  -30.4760 H   0  0  0  0  0  0  0  0  0  0  0  0
   -7.9298   24.3302  -30.8008 H   0  0  0  0  0  0  0  0  0  0  0  0
   -9.3592   22.0723  -31.8193 H   0  0  0  0  0  0  0  0  0  0  0  0
   -9.0409   19.8150  -32.8842 H   0  0  0  0  0  0  0  0  0  0  0  0
   -6.4556   17.3352  -31.8338 H   0  0  0  0  0  0  0  0  0  0  0  0
   -8.1356   17.4906  -32.4835 H   0  0  0  0  0  0  0  0  0  0  0  0
   -7.0051   15.2769  -32.9770 H   0  0  0  0  0  0  0  0  0  0  0  0
   -7.5864   16.2115  -34.4319 H   0  0  0  0  0  0  0  0  0  0  0  0
   -4.7719   15.5492  -32.3122 H   0  0  0  0  0  0  0  0  0  0  0  0
   -4.6474   14.2765  -33.5847 H   0  0  0  0  0  0  0  0  0  0  0  0
   -4.1930   17.7244  -33.8986 H   0  0  0  0  0  0  0  0  0  0  0  0
   -4.4928   17.2685  -35.6364 H   0  0  0  0  0  0  0  0  0  0  0  0
   -5.5268   19.4541  -35.0301 H   0  0  0  0  0  0  0  0  0  0  0  0
   -6.7302   18.2337  -35.5441 H   0  0  0  0  0  0  0  0  0  0  0  0
   -4.7148   20.3257  -32.6724 H   0  0  0  0  0  0  0  0  0  0  0  0
  1  2  1  0
  2  3  1  0
  2  4  1  0
  2  5  1  0
  5  6  1  0
  6  7  2  0
  6  8  1  0
  8  9  1  0
  9 10  1  0
 10 11  1  0
 10 12  2  0
  9 13  2  0
 13 14  1  0
 14 15  2  0
 15 16  1  0
 16 17  2  0
 17 18  1  0
 18 19  1  0
 19 20  1  0
 20 21  1  0
 21 22  1  0
 22 23  1  0
 23 24  2  0
 23 25  1  0
 21 26  1  0
 26 27  1  0
 17 28  1  0
 28 29  2  0
 29  8  1  0
 29 14  1  0
 27 18  1  0
  1 30  1  0
  1 31  1  0
  1 32  1  0
  3 33  1  0
  3 34  1  0
  3 35  1  0
  4 36  1  0
  4 37  1  0
  4 38  1  0
 11 39  1  0
 13 40  1  0
 15 41  1  0
 16 42  1  0
 19 43  1  0
 19 44  1  0
 20 45  1  0
 20 46  1  0
 22 47  1  0
 22 48  1  0
 26 49  1  0
 26 50  1  0
 27 51  1  0
 27 52  1  0
 28 53  1  0
M  CHG  2  11  -1  25  -1
M  END
>  <UniqueID>  (89) 
89

>  <SMILES>  (89) 
CC(C)(C)OC(=O)n1c(C([NH-])=O)cc2ccc(N3CCN(CC(=O)[O-])CC3)cc21

>  <Energy>  (89) 
99.86102021887383

>  <Genealogy>  (89) 
CC(C)(C)OC(=O)n1c(C([NH-])=O)cc2ccc(N3CCN(CC(=O)[O-])CC3)cc21 (protonated)
CC(C)(C)OC(=O)n1c(C([NH-])=O)cc2ccc(N3CCN(CC(=O)[O-])CC3)cc21 (3D coordinates assigned)
CC(C)(C)OC(=O)n1c(C([NH-])=O)cc2ccc(N3CCN(CC(=O)[O-])CC3)cc21 (nonaromatic ring conformer: 99.86102021887383 kcal/mol)

>  <smiles>  (89) 
CC(C)(C)OC(=O)n1c(C(N)=O)cc2ccc(N3CCN(CC(=O)O)CC3)cc21

>  <score_type>  (89) 
oracle

>  <origin>  (89) 
adg

>  <m_score__min__energy>  (89) 
-11.26

>  <m_primary>  (89) 
energy

$$$$
90:0
     RDKit          3D

 54 56  0  0  0  0  0  0  0  0999 V2000
   -4.8990   14.5730  -32.4640 C   0  0  0  0  0  0  0  0  0  0  0  0
   -4.9320   15.7590  -33.3260 N   0  0  0  0  0  0  0  0  0  0  0  0
   -6.2050   16.4630  -33.5470 C   0  0  0  0  0  0  0  0  0  0  0  0
   -6.0220   17.9940  -33.4480 C   0  0  1  0  0  0  0  0  0  0  0  0
   -5.3830   18.5840  -34.7160 C   0  0  0  0  0  0  0  0  0  0  0  0
   -4.0750   19.0010  -34.4350 O   0  0  0  0  0  0  0  0  0  0  0  0
   -7.2740   18.6870  -33.0970 N   0  0  0  0  0  0  0  0  0  0  0  0
   -7.3810   20.0020  -32.5190 C   0  0  0  0  0  0  0  0  0  0  0  0
   -8.6330   20.5710  -32.1680 C   0  0  0  0  0  0  0  0  0  0  0  0
   -8.7070   21.8570  -31.6090 C   0  0  0  0  0  0  0  0  0  0  0  0
   -7.5200   22.5520  -31.4090 C   0  0  0  0  0  0  0  0  0  0  0  0
   -7.3050   23.8030  -30.8800 C   0  0  0  0  0  0  0  0  0  0  0  0
   -5.9230   23.9800  -30.8990 C   0  0  0  0  0  0  0  0  0  0  0  0
   -5.2490   25.1600  -30.3220 C   0  0  0  0  0  0  0  0  0  0  0  0
   -4.0110   25.6310  -30.8490 N   0  0  0  0  0  0  0  0  0  0  0  0
   -5.7470   25.7320  -29.3160 O   0  0  0  0  0  0  0  0  0  0  0  0
   -5.3090   22.8850  -31.4320 N   0  0  0  0  0  0  0  0  0  0  0  0
   -3.9070   22.6910  -31.6780 C   0  0  0  0  0  0  0  0  0  0  0  0
   -3.0510   23.1610  -30.8840 O   0  0  0  0  0  0  0  0  0  0  0  0
   -3.4830   22.0010  -32.8080 O   0  0  0  0  0  0  0  0  0  0  0  0
   -6.3010   22.0200  -31.7380 C   0  0  0  0  0  0  0  0  0  0  0  0
   -6.2000   20.7530  -32.3230 C   0  0  0  0  0  0  0  0  0  0  0  0
   -3.7090   16.2180  -33.9330 C   0  0  0  0  0  0  0  0  0  0  0  0
   -3.5530   16.1240  -35.1810 O   0  0  0  0  0  0  0  0  0  0  0  0
   -2.6900   16.7640  -33.1410 O   0  0  0  0  0  0  0  0  0  0  0  0
   -1.4090   17.1290  -33.6520 C   0  0  0  0  0  0  0  0  0  0  0  0
   -1.1190   18.5740  -33.3540 C   0  0  0  0  0  0  0  0  0  0  0  0
   -1.1280   19.0470  -32.0310 C   0  0  0  0  0  0  0  0  0  0  0  0
   -0.8740   20.3980  -31.7670 C   0  0  0  0  0  0  0  0  0  0  0  0
   -0.6140   21.2810  -32.8180 C   0  0  0  0  0  0  0  0  0  0  0  0
   -0.6100   20.8170  -34.1360 C   0  0  0  0  0  0  0  0  0  0  0  0
   -0.8630   19.4680  -34.4060 C   0  0  0  0  0  0  0  0  0  0  0  0
   -4.9077   14.8858  -31.4095 H   0  0  0  0  0  0  0  0  0  0  0  0
   -5.7801   13.9468  -32.6680 H   0  0  0  0  0  0  0  0  0  0  0  0
   -3.9845   13.9968  -32.6680 H   0  0  0  0  0  0  0  0  0  0  0  0
   -6.5851   16.2112  -34.5481 H   0  0  0  0  0  0  0  0  0  0  0  0
   -6.9171   16.1466  -32.7705 H   0  0  0  0  0  0  0  0  0  0  0  0
   -5.3188   18.1681  -32.6202 H   0  0  0  0  0  0  0  0  0  0  0  0
   -5.3611   17.8178  -35.5050 H   0  0  0  0  0  0  0  0  0  0  0  0
   -5.9755   19.4464  -35.0553 H   0  0  0  0  0  0  0  0  0  0  0  0
   -3.4960   18.2060  -34.5670 H   0  0  0  0  0  0  0  0  0  0  0  0
   -8.1440   18.2900  -33.5170 H   0  0  0  0  0  0  0  0  0  0  0  0
   -9.5566   19.9976  -32.3359 H   0  0  0  0  0  0  0  0  0  0  0  0
   -9.6759   22.3014  -31.3373 H   0  0  0  0  0  0  0  0  0  0  0  0
   -8.0632   24.5133  -30.5185 H   0  0  0  0  0  0  0  0  0  0  0  0
   -3.1020   25.2950  -30.4640 H   0  0  0  0  0  0  0  0  0  0  0  0
   -5.2218   20.3499  -32.6241 H   0  0  0  0  0  0  0  0  0  0  0  0
   -0.6385   16.5001  -33.1820 H   0  0  0  0  0  0  0  0  0  0  0  0
   -1.4039   16.9811  -34.7420 H   0  0  0  0  0  0  0  0  0  0  0  0
   -1.3349   18.3547  -31.2016 H   0  0  0  0  0  0  0  0  0  0  0  0
   -0.8791   20.7651  -30.7301 H   0  0  0  0  0  0  0  0  0  0  0  0
   -0.4124   22.3418  -32.6079 H   0  0  0  0  0  0  0  0  0  0  0  0
   -0.4075   21.5138  -34.9627 H   0  0  0  0  0  0  0  0  0  0  0  0
   -0.8614   19.1067  -35.4450 H   0  0  0  0  0  0  0  0  0  0  0  0
  1  2  1  0
  2  3  1  0
  3  4  1  0
  4  5  1  0
  5  6  1  0
  4  7  1  0
  7  8  1  0
  8  9  2  0
  9 10  1  0
 10 11  2  0
 11 12  1  0
 12 13  2  0
 13 14  1  0
 14 15  1  0
 14 16  2  0
 13 17  1  0
 17 18  1  0
 18 19  2  0
 18 20  1  0
 17 21  1  0
 21 22  2  0
  2 23  1  0
 23 24  2  0
 23 25  1  0
 25 26  1  0
 26 27  1  0
 27 28  2  0
 28 29  1  0
 29 30  2  0
 30 31  1  0
 31 32  2  0
 22  8  1  0
 32 27  1  0
 21 11  1  0
  1 33  1  0
  1 34  1  0
  1 35  1  0
  3 36  1  0
  3 37  1  0
  4 38  1  1
  5 39  1  0
  5 40  1  0
  6 41  1  0
  7 42  1  0
  9 43  1  0
 10 44  1  0
 12 45  1  0
 15 46  1  0
 22 47  1  0
 26 48  1  0
 26 49  1  0
 28 50  1  0
 29 51  1  0
 30 52  1  0
 31 53  1  0
 32 54  1  0
M  CHG  2  15  -1  20  -1
M  END
>  <UniqueID>  (90) 
90

>  <SMILES>  (90) 
CN(C[C@@H](CO)Nc1ccc2cc(C([NH-])=O)n(C(=O)[O-])c2c1)C(=O)OCc1ccccc1

>  <Energy>  (90) 
89.71426696884573

>  <Genealogy>  (90) 
CN(C[C@@H](CO)Nc1ccc2cc(C([NH-])=O)n(C(=O)[O-])c2c1)C(=O)OCc1ccccc1 (protonated)
CN(C[C@@H](CO)Nc1ccc2cc(C([NH-])=O)n(C(=O)[O-])c2c1)C(=O)OCc1ccccc1 (3D coordinates assigned)
CN(C[C@@H](CO)Nc1ccc2cc(C([NH-])=O)n(C(=O)[O-])c2c1)C(=O)OCc1ccccc1 (optimized conformer: 89.71426696884573 kcal/mol)

>  <smiles>  (90) 
CN(C[C@@H](CO)Nc1ccc2cc(C(N)=O)n(C(=O)O)c2c1)C(=O)OCc1ccccc1

>  <score_type>  (90) 
oracle

>  <origin>  (90) 
adg

>  <m_score__min__energy>  (90) 
-12.42

>  <m_primary>  (90) 
energy

$$$$
91:0
     RDKit          3D

 44 45  0  0  0  0  0  0  0  0999 V2000
   -3.6980   24.4340  -27.0690 C   0  0  0  0  0  0  0  0  0  0  0  0
   -2.1930   24.7520  -26.9430 C   0  0  0  0  0  0  0  0  0  0  0  0
   -1.9860   25.8240  -25.8590 C   0  0  0  0  0  0  0  0  0  0  0  0
   -1.4450   23.4660  -26.5450 C   0  0  0  0  0  0  0  0  0  0  0  0
   -1.6410   25.2780  -28.2540 C   0  0  0  0  0  0  0  0  0  0  0  0
   -0.6130   26.0130  -28.2680 O   0  0  0  0  0  0  0  0  0  0  0  0
   -2.2350   24.8820  -29.4580 O   0  0  0  0  0  0  0  0  0  0  0  0
   -2.0490   23.5890  -30.0270 C   0  0  0  0  0  0  0  0  0  0  0  0
   -3.1330   23.2680  -30.8920 O   0  0  0  0  0  0  0  0  0  0  0  0
   -4.1320   22.3470  -30.5540 C   0  0  0  0  0  0  0  0  0  0  0  0
   -3.8300   21.2670  -29.9770 O   0  0  0  0  0  0  0  0  0  0  0  0
   -5.5060   22.6430  -30.8550 N   0  0  0  0  0  0  0  0  0  0  0  0
   -6.1350   23.8500  -30.7750 C   0  0  0  0  0  0  0  0  0  0  0  0
   -5.5500   25.0900  -30.2160 C   0  0  0  0  0  0  0  0  0  0  0  0
   -4.2410   25.5150  -30.5980 N   0  0  0  0  0  0  0  0  0  0  0  0
   -6.2170   25.8000  -29.4200 O   0  0  0  0  0  0  0  0  0  0  0  0
   -7.4560   23.7400  -31.2060 C   0  0  0  0  0  0  0  0  0  0  0  0
   -7.6180   22.4200  -31.5540 C   0  0  0  0  0  0  0  0  0  0  0  0
   -8.7390   21.7560  -32.0430 C   0  0  0  0  0  0  0  0  0  0  0  0
   -8.6180   20.3870  -32.3350 C   0  0  0  0  0  0  0  0  0  0  0  0
   -7.3830   19.7140  -32.1580 C   0  0  0  0  0  0  0  0  0  0  0  0
   -7.2770   18.2360  -32.4400 C   0  0  0  0  0  0  0  0  0  0  0  0
   -8.5020   17.6150  -32.2620 F   0  0  0  0  0  0  0  0  0  0  0  0
   -6.8630   18.0510  -33.7440 F   0  0  0  0  0  0  0  0  0  0  0  0
   -6.3630   17.6400  -31.5860 F   0  0  0  0  0  0  0  0  0  0  0  0
   -6.2730   20.4190  -31.6340 C   0  0  0  0  0  0  0  0  0  0  0  0
   -6.4270   21.7780  -31.3350 C   0  0  0  0  0  0  0  0  0  0  0  0
   -4.1384   24.3409  -26.0653 H   0  0  0  0  0  0  0  0  0  0  0  0
   -4.1998   25.2459  -27.6157 H   0  0  0  0  0  0  0  0  0  0  0  0
   -3.8285   23.4885  -27.6157 H   0  0  0  0  0  0  0  0  0  0  0  0
   -2.0752   25.3620  -24.8647 H   0  0  0  0  0  0  0  0  0  0  0  0
   -0.9855   26.2679  -25.9686 H   0  0  0  0  0  0  0  0  0  0  0  0
   -2.7493   26.6085  -25.9686 H   0  0  0  0  0  0  0  0  0  0  0  0
   -1.4017   23.3915  -25.4484 H   0  0  0  0  0  0  0  0  0  0  0  0
   -1.9759   22.5924  -26.9512 H   0  0  0  0  0  0  0  0  0  0  0  0
   -0.4232   23.4955  -26.9512 H   0  0  0  0  0  0  0  0  0  0  0  0
   -1.1109   23.5771  -30.6014 H   0  0  0  0  0  0  0  0  0  0  0  0
   -2.0055   22.8454  -29.2176 H   0  0  0  0  0  0  0  0  0  0  0  0
   -3.8540   26.4120  -30.2290 H   0  0  0  0  0  0  0  0  0  0  0  0
   -3.6350   24.9270  -31.2110 H   0  0  0  0  0  0  0  0  0  0  0  0
   -8.2093   24.5400  -31.2569 H   0  0  0  0  0  0  0  0  0  0  0  0
   -9.6904   22.2865  -32.1962 H   0  0  0  0  0  0  0  0  0  0  0  0
   -9.4919   19.8309  -32.7053 H   0  0  0  0  0  0  0  0  0  0  0  0
   -5.3120   19.9110  -31.4657 H   0  0  0  0  0  0  0  0  0  0  0  0
  1  2  1  0
  2  3  1  0
  2  4  1  0
  2  5  1  0
  5  6  2  0
  5  7  1  0
  7  8  1  0
  8  9  1  0
  9 10  1  0
 10 11  2  0
 10 12  1  0
 12 13  1  0
 13 14  1  0
 14 15  1  0
 14 16  2  0
 13 17  2  0
 17 18  1  0
 18 19  2  0
 19 20  1  0
 20 21  2  0
 21 22  1  0
 22 23  1  0
 22 24  1  0
 22 25  1  0
 21 26  1  0
 26 27  2  0
 27 12  1  0
 27 18  1  0
  1 28  1  0
  1 29  1  0
  1 30  1  0
  3 31  1  0
  3 32  1  0
  3 33  1  0
  4 34  1  0
  4 35  1  0
  4 36  1  0
  8 37  1  0
  8 38  1  0
 15 39  1  0
 15 40  1  0
 17 41  1  0
 19 42  1  0
 20 43  1  0
 26 44  1  0
M  END
>  <UniqueID>  (91) 
91

>  <SMILES>  (91) 
CC(C)(C)C(=O)OCOC(=O)n1c(C(N)=O)cc2ccc(C(F)(F)F)cc21

>  <Energy>  (91) 
74.61102033518537

>  <Genealogy>  (91) 
CC(C)(C)C(=O)OCOC(=O)n1c(C(N)=O)cc2ccc(C(F)(F)F)cc21 (3D coordinates assigned)
CC(C)(C)C(=O)OCOC(=O)n1c(C(N)=O)cc2ccc(C(F)(F)F)cc21 (optimized conformer: 74.61102033518537 kcal/mol)

>  <smiles>  (91) 
CC(C)(C)C(=O)OCOC(=O)n1c(C(N)=O)cc2ccc(C(F)(F)F)cc21

>  <score_type>  (91) 
oracle

>  <origin>  (91) 
adg

>  <m_score__min__energy>  (91) 
-9.6500000000000004

>  <m_primary>  (91) 
energy

$$$$
92:0
     RDKit          3D

 35 37  0  0  0  0  0  0  0  0999 V2000
   -6.9840   17.1280  -32.6070 C   0  0  0  0  0  0  0  0  0  0  0  0
   -7.0860   18.3160  -32.3880 C   0  0  0  0  0  0  0  0  0  0  0  0
   -7.1900   19.7350  -32.1320 C   0  0  0  0  0  0  0  0  0  0  0  0
   -8.3390   20.3970  -32.4940 C   0  0  0  0  0  0  0  0  0  0  0  0
   -8.4130   21.7450  -32.2400 C   0  0  0  0  0  0  0  0  0  0  0  0
   -7.3640   22.4010  -31.6440 C   0  0  0  0  0  0  0  0  0  0  0  0
   -7.1990   23.7110  -31.2940 C   0  0  0  0  0  0  0  0  0  0  0  0
   -5.9420   23.9010  -30.7040 C   0  0  0  0  0  0  0  0  0  0  0  0
   -5.5220   25.1970  -30.2470 C   0  0  0  0  0  0  0  0  0  0  0  0
   -6.1090   26.0350  -29.2860 N   0  0  0  0  0  0  0  0  0  0  0  0
   -4.4540   25.6810  -30.7810 O   0  0  0  0  0  0  0  0  0  0  0  0
   -5.3580   22.6920  -30.7060 N   0  0  0  0  0  0  0  0  0  0  0  0
   -4.0510   22.3990  -30.1980 C   0  0  0  0  0  0  0  0  0  0  0  0
   -3.3810   23.2220  -29.5400 O   0  0  0  0  0  0  0  0  0  0  0  0
   -3.2590   20.8100  -30.4660 S   0  0  0  0  0  0  0  0  0  0  0  0
   -2.1510   20.8910  -31.8600 C   0  0  0  0  0  0  0  0  0  0  0  0
   -0.8500   20.5150  -31.9290 N   0  0  0  0  0  0  0  0  0  0  0  0
   -0.4120   20.7620  -33.1950 C   0  0  0  0  0  0  0  0  0  0  0  0
   -1.4490   21.2870  -33.8990 N   0  0  0  0  0  0  0  0  0  0  0  0
   -2.5270   21.3760  -33.1020 C   0  0  0  0  0  0  0  0  0  0  0  0
   -3.8570   21.8960  -33.4890 C   0  0  0  0  0  0  0  0  0  0  0  0
   -6.1860   21.7700  -31.2630 C   0  0  0  0  0  0  0  0  0  0  0  0
   -6.1310   20.4180  -31.5240 C   0  0  0  0  0  0  0  0  0  0  0  0
   -6.8915   16.0501  -32.8057 H   0  0  0  0  0  0  0  0  0  0  0  0
   -9.1737   19.8637  -32.9724 H   0  0  0  0  0  0  0  0  0  0  0  0
   -9.3196   22.3034  -32.5162 H   0  0  0  0  0  0  0  0  0  0  0  0
   -7.9456   24.5032  -31.4525 H   0  0  0  0  0  0  0  0  0  0  0  0
   -5.8380   25.9830  -28.2710 H   0  0  0  0  0  0  0  0  0  0  0  0
   -6.8330   26.7260  -29.6390 H   0  0  0  0  0  0  0  0  0  0  0  0
    0.6008   20.5706  -33.5791 H   0  0  0  0  0  0  0  0  0  0  0  0
   -1.4460   21.5870  -34.9070 H   0  0  0  0  0  0  0  0  0  0  0  0
   -4.4392   22.1236  -32.5839 H   0  0  0  0  0  0  0  0  0  0  0  0
   -3.7332   22.8120  -34.0854 H   0  0  0  0  0  0  0  0  0  0  0  0
   -4.3873   21.1390  -34.0854 H   0  0  0  0  0  0  0  0  0  0  0  0
   -5.2260   19.8581  -31.2456 H   0  0  0  0  0  0  0  0  0  0  0  0
  1  2  3  0
  2  3  1  0
  3  4  2  0
  4  5  1  0
  5  6  2  0
  6  7  1  0
  7  8  2  0
  8  9  1  0
  9 10  1  0
  9 11  2  0
  8 12  1  0
 12 13  1  0
 13 14  2  0
 13 15  1  0
 15 16  1  0
 16 17  1  0
 17 18  2  0
 18 19  1  0
 19 20  1  0
 20 21  1  0
 12 22  1  0
 22 23  2  0
 23  3  1  0
 22  6  1  0
 20 16  2  0
  1 24  1  0
  4 25  1  0
  5 26  1  0
  7 27  1  0
 10 28  1  0
 10 29  1  0
 18 30  1  0
 19 31  1  0
 21 32  1  0
 21 33  1  0
 21 34  1  0
 23 35  1  0
M  END
>  <smiles>  (92) 
C#Cc1ccc2cc(C(N)=O)n(C(=O)Sc3nc[nH]c3C)c2c1

>  <score_type>  (92) 
oracle

>  <origin>  (92) 
adg

>  <m_score__min__energy>  (92) 
-9.3900000000000006

>  <m_primary>  (92) 
energy

$$$$
93:0
     RDKit          3D

 29 30  0  0  0  0  0  0  0  0999 V2000
   -3.9180   25.6610  -30.8340 N   0  0  0  0  0  0  0  0  0  0  0  0
   -5.2510   25.3220  -30.4640 C   0  0  0  0  0  0  0  0  0  0  0  0
   -5.8890   26.0840  -29.6900 O   0  0  0  0  0  0  0  0  0  0  0  0
   -5.8720   24.0630  -30.9280 C   0  0  0  0  0  0  0  0  0  0  0  0
   -7.2320   23.9350  -31.1990 C   0  0  0  0  0  0  0  0  0  0  0  0
   -7.4190   22.6080  -31.5090 C   0  0  0  0  0  0  0  0  0  0  0  0
   -8.5800   21.9260  -31.8610 C   0  0  0  0  0  0  0  0  0  0  0  0
   -8.4770   20.5560  -32.1510 C   0  0  0  0  0  0  0  0  0  0  0  0
   -7.2200   19.8980  -32.1120 C   0  0  0  0  0  0  0  0  0  0  0  0
   -7.1280   18.4190  -32.3900 C   0  0  0  0  0  0  0  0  0  0  0  0
   -8.3590   17.8110  -32.2150 F   0  0  0  0  0  0  0  0  0  0  0  0
   -6.7130   18.2280  -33.6960 F   0  0  0  0  0  0  0  0  0  0  0  0
   -6.2220   17.8160  -31.5350 F   0  0  0  0  0  0  0  0  0  0  0  0
   -6.0670   20.6210  -31.7270 C   0  0  0  0  0  0  0  0  0  0  0  0
   -6.2020   21.9820  -31.4260 C   0  0  0  0  0  0  0  0  0  0  0  0
   -5.2410   22.8630  -31.0700 N   0  0  0  0  0  0  0  0  0  0  0  0
   -3.8330   22.5970  -30.9730 C   0  0  0  0  0  0  0  0  0  0  0  0
   -3.2770   21.8510  -31.8260 O   0  0  0  0  0  0  0  0  0  0  0  0
   -3.0890   23.1890  -29.9420 O   0  0  0  0  0  0  0  0  0  0  0  0
   -3.4840   23.2510  -28.5990 C   0  0  0  0  0  0  0  0  0  0  0  0
   -4.0060   24.4710  -28.0820 N   0  0  0  0  0  0  0  0  0  0  0  0
   -3.3850   22.2460  -27.8420 O   0  0  0  0  0  0  0  0  0  0  0  0
   -3.1010   25.2990  -30.2950 H   0  0  0  0  0  0  0  0  0  0  0  0
   -7.9948   24.7270  -31.1711 H   0  0  0  0  0  0  0  0  0  0  0  0
   -9.5489   22.4445  -31.9105 H   0  0  0  0  0  0  0  0  0  0  0  0
   -9.3811   19.9860  -32.4115 H   0  0  0  0  0  0  0  0  0  0  0  0
   -5.0868   20.1257  -31.6654 H   0  0  0  0  0  0  0  0  0  0  0  0
   -4.0950   25.3070  -28.7000 H   0  0  0  0  0  0  0  0  0  0  0  0
   -4.3070   24.5390  -27.0840 H   0  0  0  0  0  0  0  0  0  0  0  0
  1  2  1  0
  2  3  2  0
  2  4  1  0
  4  5  2  0
  5  6  1  0
  6  7  2  0
  7  8  1  0
  8  9  2  0
  9 10  1  0
 10 11  1  0
 10 12  1  0
 10 13  1  0
  9 14  1  0
 14 15  2  0
 15 16  1  0
 16 17  1  0
 17 18  2  0
 17 19  1  0
 19 20  1  0
 20 21  1  0
 20 22  2  0
 16  4  1  0
 15  6  1  0
  1 23  1  0
  5 24  1  0
  7 25  1  0
  8 26  1  0
 14 27  1  0
 21 28  1  0
 21 29  1  0
M  CHG  1   1  -1
M  END
>  <UniqueID>  (93) 
92

>  <SMILES>  (93) 
[NH-]C(=O)c1cc2ccc(C(F)(F)F)cc2n1C(=O)OC(N)=O

>  <Energy>  (93) 
68.82930376182014

>  <Genealogy>  (93) 
[NH-]C(=O)c1cc2ccc(C(F)(F)F)cc2n1C(=O)OC(N)=O (protonated)
[NH-]C(=O)c1cc2ccc(C(F)(F)F)cc2n1C(=O)OC(N)=O (3D coordinates assigned)
[NH-]C(=O)c1cc2ccc(C(F)(F)F)cc2n1C(=O)OC(N)=O (optimized conformer: 68.82930376182014 kcal/mol)

>  <smiles>  (93) 
NC(=O)OC(=O)n1c(C(N)=O)cc2ccc(C(F)(F)F)cc21

>  <score_type>  (93) 
oracle

>  <origin>  (93) 
adg

>  <m_score__min__energy>  (93) 
-9.0600000000000005

>  <m_primary>  (93) 
energy

$$$$
94:0
     RDKit          3D

 39 40  0  0  0  0  0  0  0  0999 V2000
   -6.9960   23.3490  -32.0510 C   0  0  0  0  0  0  0  0  0  0  0  0
   -7.7290   22.0160  -31.9380 C   0  0  0  0  0  0  0  0  0  0  0  0
   -7.2510   21.1030  -32.9220 O   0  0  0  0  0  0  0  0  0  0  0  0
   -7.1420   19.7240  -32.7010 C   0  0  0  0  0  0  0  0  0  0  0  0
   -7.6110   19.1990  -31.6540 O   0  0  0  0  0  0  0  0  0  0  0  0
   -6.4770   18.8600  -33.7290 C   0  0  0  0  0  0  0  0  0  0  0  0
   -4.9810   19.1750  -33.8380 C   0  0  0  0  0  0  0  0  0  0  0  0
   -4.7030   20.5810  -33.5280 N   0  0  0  0  0  0  0  0  0  0  0  0
   -3.6630   20.9930  -32.6220 C   0  0  0  0  0  0  0  0  0  0  0  0
   -2.5000   20.2020  -32.4200 C   0  0  0  0  0  0  0  0  0  0  0  0
   -1.5060   20.6080  -31.5140 C   0  0  0  0  0  0  0  0  0  0  0  0
   -1.6920   21.8060  -30.8330 C   0  0  0  0  0  0  0  0  0  0  0  0
   -0.9080   22.4080  -29.8750 C   0  0  0  0  0  0  0  0  0  0  0  0
   -1.5860   23.5720  -29.5260 C   0  0  0  0  0  0  0  0  0  0  0  0
   -1.0590   24.5560  -28.5590 C   0  0  0  0  0  0  0  0  0  0  0  0
   -1.9360   25.4020  -27.8150 N   0  0  0  0  0  0  0  0  0  0  0  0
    0.1860   24.6910  -28.4300 O   0  0  0  0  0  0  0  0  0  0  0  0
   -2.7490   23.6850  -30.2280 N   0  0  0  0  0  0  0  0  0  0  0  0
   -3.7770   24.6750  -30.0540 C   0  0  0  0  0  0  0  0  0  0  0  0
   -3.8630   25.6530  -30.8420 O   0  0  0  0  0  0  0  0  0  0  0  0
   -4.6920   24.5610  -29.0130 O   0  0  0  0  0  0  0  0  0  0  0  0
   -2.7970   22.5950  -31.0290 C   0  0  0  0  0  0  0  0  0  0  0  0
   -3.8110   22.2060  -31.9130 C   0  0  0  0  0  0  0  0  0  0  0  0
   -6.7828   23.7367  -31.0439 H   0  0  0  0  0  0  0  0  0  0  0  0
   -6.0513   23.2030  -32.5953 H   0  0  0  0  0  0  0  0  0  0  0  0
   -7.6253   24.0685  -32.5953 H   0  0  0  0  0  0  0  0  0  0  0  0
   -7.5592   21.5924  -30.9372 H   0  0  0  0  0  0  0  0  0  0  0  0
   -8.8041   22.1844  -32.0989 H   0  0  0  0  0  0  0  0  0  0  0  0
   -6.6011   17.8047  -33.4446 H   0  0  0  0  0  0  0  0  0  0  0  0
   -6.9454   19.0580  -34.7044 H   0  0  0  0  0  0  0  0  0  0  0  0
   -4.4293   18.5375  -33.1315 H   0  0  0  0  0  0  0  0  0  0  0  0
   -4.6623   18.9806  -34.8727 H   0  0  0  0  0  0  0  0  0  0  0  0
   -5.3370   21.3200  -33.9100 H   0  0  0  0  0  0  0  0  0  0  0  0
   -2.3767   19.2624  -32.9786 H   0  0  0  0  0  0  0  0  0  0  0  0
   -0.6070   19.9962  -31.3482 H   0  0  0  0  0  0  0  0  0  0  0  0
    0.0494   22.0464  -29.4717 H   0  0  0  0  0  0  0  0  0  0  0  0
   -1.5480   26.0630  -27.1060 H   0  0  0  0  0  0  0  0  0  0  0  0
   -2.9580   25.4310  -28.0180 H   0  0  0  0  0  0  0  0  0  0  0  0
   -4.7046   22.8321  -32.0525 H   0  0  0  0  0  0  0  0  0  0  0  0
  1  2  1  0
  2  3  1  0
  3  4  1  0
  4  5  2  0
  4  6  1  0
  6  7  1  0
  7  8  1  0
  8  9  1  0
  9 10  2  0
 10 11  1  0
 11 12  2  0
 12 13  1  0
 13 14  2  0
 14 15  1  0
 15 16  1  0
 15 17  2  0
 14 18  1  0
 18 19  1  0
 19 20  2  0
 19 21  1  0
 18 22  1  0
 22 23  2  0
 23  9  1  0
 22 12  1  0
  1 24  1  0
  1 25  1  0
  1 26  1  0
  2 27  1  0
  2 28  1  0
  6 29  1  0
  6 30  1  0
  7 31  1  0
  7 32  1  0
  8 33  1  0
 10 34  1  0
 11 35  1  0
 13 36  1  0
 16 37  1  0
 16 38  1  0
 23 39  1  0
M  CHG  1  21  -1
M  END
>  <UniqueID>  (94) 
93

>  <SMILES>  (94) 
CCOC(=O)CCNc1ccc2cc(C(N)=O)n(C(=O)[O-])c2c1

>  <Energy>  (94) 
71.47045623553336

>  <Genealogy>  (94) 
CCOC(=O)CCNc1ccc2cc(C(N)=O)n(C(=O)[O-])c2c1 (protonated)
CCOC(=O)CCNc1ccc2cc(C(N)=O)n(C(=O)[O-])c2c1 (3D coordinates assigned)
CCOC(=O)CCNc1ccc2cc(C(N)=O)n(C(=O)[O-])c2c1 (optimized conformer: 71.47045623553336 kcal/mol)

>  <smiles>  (94) 
CCOC(=O)CCNc1ccc2cc(C(N)=O)n(C(=O)O)c2c1

>  <score_type>  (94) 
oracle

>  <origin>  (94) 
adg

>  <m_score__min__energy>  (94) 
-8.0800000000000001

>  <m_primary>  (94) 
energy

$$$$
95:0
     RDKit          3D

 35 36  0  0  0  0  0  0  0  0999 V2000
   -0.4020   22.5660  -29.1270 C   0  0  0  0  0  0  0  0  0  0  0  0
   -1.3880   23.5620  -28.5130 C   0  0  2  0  0  0  0  0  0  0  0  0
   -2.6450   23.5590  -29.2570 N   0  0  0  0  0  0  0  0  0  0  0  0
   -3.1460   22.4190  -29.9680 C   0  0  0  0  0  0  0  0  0  0  0  0
   -2.9620   21.2550  -29.5180 O   0  0  0  0  0  0  0  0  0  0  0  0
   -3.8940   22.6110  -31.2180 C   0  0  0  0  0  0  0  0  0  0  0  0
   -3.2870   22.5730  -32.3230 O   0  0  0  0  0  0  0  0  0  0  0  0
   -5.3020   22.8840  -31.1930 N   0  0  0  0  0  0  0  0  0  0  0  0
   -5.9210   24.0620  -30.9010 C   0  0  0  0  0  0  0  0  0  0  0  0
   -5.2500   25.3060  -30.4640 C   0  0  0  0  0  0  0  0  0  0  0  0
   -3.9200   25.5880  -30.8980 N   0  0  0  0  0  0  0  0  0  0  0  0
   -5.8470   26.1370  -29.7310 O   0  0  0  0  0  0  0  0  0  0  0  0
   -7.3060   23.9210  -31.0000 C   0  0  0  0  0  0  0  0  0  0  0  0
   -7.5130   22.6070  -31.3590 C   0  0  0  0  0  0  0  0  0  0  0  0
   -8.6970   21.9100  -31.5800 C   0  0  0  0  0  0  0  0  0  0  0  0
   -8.6080   20.5540  -31.9390 C   0  0  0  0  0  0  0  0  0  0  0  0
   -7.3430   19.9250  -32.0920 C   0  0  0  0  0  0  0  0  0  0  0  0
   -7.2640   18.4630  -32.4540 C   0  0  0  0  0  0  0  0  0  0  0  0
   -6.8230   18.3400  -33.7590 F   0  0  0  0  0  0  0  0  0  0  0  0
   -8.5040   17.8600  -32.3360 F   0  0  0  0  0  0  0  0  0  0  0  0
   -6.3820   17.8010  -31.6160 F   0  0  0  0  0  0  0  0  0  0  0  0
   -6.1640   20.6600  -31.8280 C   0  0  0  0  0  0  0  0  0  0  0  0
   -6.2870   22.0040  -31.4650 C   0  0  0  0  0  0  0  0  0  0  0  0
   -0.8080   24.9440  -28.5300 C   0  0  0  0  0  0  0  0  0  0  0  0
    0.3700   25.1480  -28.1340 O   0  0  0  0  0  0  0  0  0  0  0  0
   -1.5790   26.0160  -28.9610 O   0  0  0  0  0  0  0  0  0  0  0  0
    0.1271   22.0316  -28.3242 H   0  0  0  0  0  0  0  0  0  0  0  0
   -0.9504   21.8433  -29.7491 H   0  0  0  0  0  0  0  0  0  0  0  0
    0.3262   23.1071  -29.7491 H   0  0  0  0  0  0  0  0  0  0  0  0
   -1.5806   23.2586  -27.4734 H   0  0  0  0  0  0  0  0  0  0  0  0
   -3.0970   25.2890  -30.3290 H   0  0  0  0  0  0  0  0  0  0  0  0
   -8.0695   24.6940  -30.8281 H   0  0  0  0  0  0  0  0  0  0  0  0
   -9.6736   22.4056  -31.4768 H   0  0  0  0  0  0  0  0  0  0  0  0
   -9.5277   19.9733  -32.1033 H   0  0  0  0  0  0  0  0  0  0  0  0
   -5.1746   20.1856  -31.9064 H   0  0  0  0  0  0  0  0  0  0  0  0
  1  2  1  0
  2  3  1  0
  3  4  1  0
  4  5  2  0
  4  6  1  0
  6  7  2  0
  6  8  1  0
  8  9  1  0
  9 10  1  0
 10 11  1  0
 10 12  2  0
  9 13  2  0
 13 14  1  0
 14 15  2  0
 15 16  1  0
 16 17  2  0
 17 18  1  0
 18 19  1  0
 18 20  1  0
 18 21  1  0
 17 22  1  0
 22 23  2  0
  2 24  1  0
 24 25  2  0
 24 26  1  0
 23  8  1  0
 23 14  1  0
  1 27  1  0
  1 28  1  0
  1 29  1  0
  2 30  1  1
 11 31  1  0
 13 32  1  0
 15 33  1  0
 16 34  1  0
 22 35  1  0
M  CHG  3   3  -1  11  -1  26  -1
M  END
>  <UniqueID>  (95) 
94

>  <SMILES>  (95) 
C[C@H]([N-]C(=O)C(=O)n1c(C([NH-])=O)cc2ccc(C(F)(F)F)cc21)C(=O)[O-]

>  <Energy>  (95) 
70.4450329414727

>  <Genealogy>  (95) 
CC([N-]C(=O)C(=O)n1c(C([NH-])=O)cc2ccc(C(F)(F)F)cc21)C(=O)[O-] (protonated)
C[C@H]([N-]C(=O)C(=O)n1c(C([NH-])=O)cc2ccc(C(F)(F)F)cc21)C(=O)[O-] (chirality)
C[C@H]([N-]C(=O)C(=O)n1c(C([NH-])=O)cc2ccc(C(F)(F)F)cc21)C(=O)[O-] (3D coordinates assigned)
C[C@H]([N-]C(=O)C(=O)n1c(C([NH-])=O)cc2ccc(C(F)(F)F)cc21)C(=O)[O-] (optimized conformer: 70.4450329414727 kcal/mol)

>  <smiles>  (95) 
CC(NC(=O)C(=O)n1c(C(N)=O)cc2ccc(C(F)(F)F)cc21)C(=O)O

>  <score_type>  (95) 
oracle

>  <origin>  (95) 
adg

>  <m_score__min__energy>  (95) 
-13.220000000000001

>  <m_primary>  (95) 
energy

$$$$
96:0
     RDKit          3D

 49 50  0  0  0  0  0  0  0  0999 V2000
   -2.2860   20.5720  -27.1730 C   0  0  0  0  0  0  0  0  0  0  0  0
   -1.9380   21.8340  -27.4700 C   0  0  0  0  0  0  0  0  0  0  0  0
   -2.9900   22.9100  -27.4820 C   0  0  0  0  0  0  0  0  0  0  0  0
   -0.5000   22.1670  -27.7870 C   0  0  0  0  0  0  0  0  0  0  0  0
   -0.4070   22.9520  -29.0560 C   0  0  0  0  0  0  0  0  0  0  0  0
   -0.1540   24.1870  -29.0120 O   0  0  0  0  0  0  0  0  0  0  0  0
   -0.6140   22.3080  -30.2790 O   0  0  0  0  0  0  0  0  0  0  0  0
   -0.8440   20.9060  -30.3780 C   0  0  0  0  0  0  0  0  0  0  0  0
   -1.0180   20.5430  -31.7420 O   0  0  0  0  0  0  0  0  0  0  0  0
   -2.0340   21.0640  -32.5510 C   0  0  0  0  0  0  0  0  0  0  0  0
   -1.7560   21.9150  -33.4410 O   0  0  0  0  0  0  0  0  0  0  0  0
   -3.3960   20.6470  -32.3420 N   0  0  0  0  0  0  0  0  0  0  0  0
   -4.0150   19.7320  -33.3070 C   0  0  0  0  0  0  0  0  0  0  0  0
   -4.1350   21.0690  -31.1770 C   0  0  0  0  0  0  0  0  0  0  0  0
   -3.7930   20.6610  -30.0330 O   0  0  0  0  0  0  0  0  0  0  0  0
   -5.2440   21.9730  -31.3020 N   0  0  0  0  0  0  0  0  0  0  0  0
   -5.2520   23.3150  -31.0650 C   0  0  0  0  0  0  0  0  0  0  0  0
   -4.0700   24.1460  -30.7610 C   0  0  0  0  0  0  0  0  0  0  0  0
   -2.8120   23.5560  -30.4350 N   0  0  0  0  0  0  0  0  0  0  0  0
   -4.1610   25.4010  -30.8390 O   0  0  0  0  0  0  0  0  0  0  0  0
   -6.5450   23.8240  -31.1790 C   0  0  0  0  0  0  0  0  0  0  0  0
   -7.3340   22.7430  -31.5030 C   0  0  0  0  0  0  0  0  0  0  0  0
   -8.7080   22.6680  -31.7180 C   0  0  0  0  0  0  0  0  0  0  0  0
   -9.2620   21.4070  -32.0000 C   0  0  0  0  0  0  0  0  0  0  0  0
   -8.4380   20.2550  -32.0620 C   0  0  0  0  0  0  0  0  0  0  0  0
   -9.0490   18.9100  -32.3180 C   0  0  0  0  0  0  0  0  0  0  0  0
   -7.0520   20.3670  -31.8160 C   0  0  0  0  0  0  0  0  0  0  0  0
   -6.5240   21.6370  -31.5650 C   0  0  0  0  0  0  0  0  0  0  0  0
   -1.5234   19.7793  -27.1619 H   0  0  0  0  0  0  0  0  0  0  0  0
   -3.3337   20.3306  -26.9407 H   0  0  0  0  0  0  0  0  0  0  0  0
   -3.2521   23.1781  -26.4479 H   0  0  0  0  0  0  0  0  0  0  0  0
   -2.6012   23.7971  -28.0035 H   0  0  0  0  0  0  0  0  0  0  0  0
   -3.8856   22.5413  -28.0035 H   0  0  0  0  0  0  0  0  0  0  0  0
   -0.0767   22.7606  -26.9633 H   0  0  0  0  0  0  0  0  0  0  0  0
    0.0617   21.2291  -27.9092 H   0  0  0  0  0  0  0  0  0  0  0  0
    0.0184   20.3640  -29.9627 H   0  0  0  0  0  0  0  0  0  0  0  0
   -1.7514   20.6454  -29.8135 H   0  0  0  0  0  0  0  0  0  0  0  0
   -4.5520   18.9382  -32.7672 H   0  0  0  0  0  0  0  0  0  0  0  0
   -4.7225   20.2891  -33.9388 H   0  0  0  0  0  0  0  0  0  0  0  0
   -3.2347   19.2826  -33.9388 H   0  0  0  0  0  0  0  0  0  0  0  0
   -2.0030   24.1620  -30.1720 H   0  0  0  0  0  0  0  0  0  0  0  0
   -2.6470   22.5320  -30.5480 H   0  0  0  0  0  0  0  0  0  0  0  0
   -6.8663   24.8668  -31.0398 H   0  0  0  0  0  0  0  0  0  0  0  0
   -9.3398   23.5671  -31.6687 H   0  0  0  0  0  0  0  0  0  0  0  0
  -10.3441   21.3134  -32.1740 H   0  0  0  0  0  0  0  0  0  0  0  0
   -9.2717   18.4198  -31.3587 H   0  0  0  0  0  0  0  0  0  0  0  0
   -9.9795   19.0331  -32.8915 H   0  0  0  0  0  0  0  0  0  0  0  0
   -8.3441   18.2902  -32.8915 H   0  0  0  0  0  0  0  0  0  0  0  0
   -6.4044   19.4779  -31.8217 H   0  0  0  0  0  0  0  0  0  0  0  0
  1  2  2  0
  2  3  1  0
  2  4  1  0
  4  5  1  0
  5  6  2  0
  5  7  1  0
  7  8  1  0
  8  9  1  0
  9 10  1  0
 10 11  2  0
 10 12  1  0
 12 13  1  0
 12 14  1  0
 14 15  2  0
 14 16  1  0
 16 17  1  0
 17 18  1  0
 18 19  1  0
 18 20  2  0
 17 21  2  0
 21 22  1  0
 22 23  2  0
 23 24  1  0
 24 25  2  0
 25 26  1  0
 25 27  1  0
 27 28  2  0
 28 16  1  0
 28 22  1  0
  1 29  1  0
  1 30  1  0
  3 31  1  0
  3 32  1  0
  3 33  1  0
  4 34  1  0
  4 35  1  0
  8 36  1  0
  8 37  1  0
 13 38  1  0
 13 39  1  0
 13 40  1  0
 19 41  1  0
 19 42  1  0
 21 43  1  0
 23 44  1  0
 24 45  1  0
 26 46  1  0
 26 47  1  0
 26 48  1  0
 27 49  1  0
M  END
>  <UniqueID>  (96) 
95

>  <SMILES>  (96) 
C=C(C)CC(=O)OCOC(=O)N(C)C(=O)n1c(C(N)=O)cc2ccc(C)cc21

>  <Energy>  (96) 
80.31492295257551

>  <Genealogy>  (96) 
C=C(C)CC(=O)OCOC(=O)N(C)C(=O)n1c(C(N)=O)cc2ccc(C)cc21 (3D coordinates assigned)
C=C(C)CC(=O)OCOC(=O)N(C)C(=O)n1c(C(N)=O)cc2ccc(C)cc21 (optimized conformer: 80.31492295257551 kcal/mol)

>  <smiles>  (96) 
C=C(C)CC(=O)OCOC(=O)N(C)C(=O)n1c(C(N)=O)cc2ccc(C)cc21

>  <score_type>  (96) 
oracle

>  <origin>  (96) 
adg

>  <m_score__min__energy>  (96) 
-8.0500000000000007

>  <m_primary>  (96) 
energy

$$$$
97:0
     RDKit          3D

 39 40  0  0  0  0  0  0  0  0999 V2000
   -2.7460   21.0760  -28.9840 C   0  0  0  0  0  0  0  0  0  0  0  0
   -3.0120   22.4320  -29.4720 N   0  0  0  0  0  0  0  0  0  0  0  0
   -2.7840   23.5900  -28.5960 C   0  0  0  0  0  0  0  0  0  0  0  0
   -1.5460   24.3220  -29.0070 C   0  0  0  0  0  0  0  0  0  0  0  0
   -0.4400   23.7240  -29.0470 O   0  0  0  0  0  0  0  0  0  0  0  0
   -1.6090   25.6730  -29.3260 O   0  0  0  0  0  0  0  0  0  0  0  0
   -3.4550   22.6140  -30.8330 C   0  0  0  0  0  0  0  0  0  0  0  0
   -2.6130   22.7050  -31.7670 O   0  0  0  0  0  0  0  0  0  0  0  0
   -4.8510   22.7160  -31.1440 N   0  0  0  0  0  0  0  0  0  0  0  0
   -5.6600   23.8000  -30.9990 C   0  0  0  0  0  0  0  0  0  0  0  0
   -5.2460   25.1120  -30.4630 C   0  0  0  0  0  0  0  0  0  0  0  0
   -3.9870   25.6680  -30.8390 N   0  0  0  0  0  0  0  0  0  0  0  0
   -5.9930   25.7530  -29.6780 O   0  0  0  0  0  0  0  0  0  0  0  0
   -6.9550   23.4950  -31.4170 C   0  0  0  0  0  0  0  0  0  0  0  0
   -6.9070   22.1780  -31.8190 C   0  0  0  0  0  0  0  0  0  0  0  0
   -7.9030   21.3600  -32.3380 C   0  0  0  0  0  0  0  0  0  0  0  0
   -7.5590   20.0430  -32.6870 C   0  0  0  0  0  0  0  0  0  0  0  0
   -6.2300   19.5570  -32.5160 C   0  0  0  0  0  0  0  0  0  0  0  0
   -5.8830   18.1990  -32.8940 N   0  0  0  0  0  0  0  0  0  0  0  0
   -4.5280   17.8800  -33.3570 C   0  0  0  0  0  0  0  0  0  0  0  0
   -6.8810   17.1250  -32.8180 C   0  0  0  0  0  0  0  0  0  0  0  0
   -5.2510   20.4310  -31.9770 C   0  0  0  0  0  0  0  0  0  0  0  0
   -5.6270   21.7330  -31.6390 C   0  0  0  0  0  0  0  0  0  0  0  0
   -2.7459   21.0756  -27.8840 H   0  0  0  0  0  0  0  0  0  0  0  0
   -3.5276   20.3944  -29.3509 H   0  0  0  0  0  0  0  0  0  0  0  0
   -1.7649   20.7402  -29.3509 H   0  0  0  0  0  0  0  0  0  0  0  0
   -3.6459   24.2701  -28.6634 H   0  0  0  0  0  0  0  0  0  0  0  0
   -2.6609   23.2352  -27.5621 H   0  0  0  0  0  0  0  0  0  0  0  0
   -3.1110   25.1030  -30.7750 H   0  0  0  0  0  0  0  0  0  0  0  0
   -7.8286   24.1634  -31.4242 H   0  0  0  0  0  0  0  0  0  0  0  0
   -8.9295   21.7320  -32.4716 H   0  0  0  0  0  0  0  0  0  0  0  0
   -8.3294   19.3750  -33.0997 H   0  0  0  0  0  0  0  0  0  0  0  0
   -3.8707   17.7253  -32.4886 H   0  0  0  0  0  0  0  0  0  0  0  0
   -4.5544   16.9635  -33.9648 H   0  0  0  0  0  0  0  0  0  0  0  0
   -4.1428   18.7120  -33.9648 H   0  0  0  0  0  0  0  0  0  0  0  0
   -7.0937   16.8961  -31.7633 H   0  0  0  0  0  0  0  0  0  0  0  0
   -7.8065   17.4485  -33.3169 H   0  0  0  0  0  0  0  0  0  0  0  0
   -6.4906   16.2257  -33.3169 H   0  0  0  0  0  0  0  0  0  0  0  0
   -4.2159   20.0898  -31.8282 H   0  0  0  0  0  0  0  0  0  0  0  0
  1  2  1  0
  2  3  1  0
  3  4  1  0
  4  5  2  0
  4  6  1  0
  2  7  1  0
  7  8  2  0
  7  9  1  0
  9 10  1  0
 10 11  1  0
 11 12  1  0
 11 13  2  0
 10 14  2  0
 14 15  1  0
 15 16  2  0
 16 17  1  0
 17 18  2  0
 18 19  1  0
 19 20  1  0
 19 21  1  0
 18 22  1  0
 22 23  2  0
 23  9  1  0
 23 15  1  0
  1 24  1  0
  1 25  1  0
  1 26  1  0
  3 27  1  0
  3 28  1  0
 12 29  1  0
 14 30  1  0
 16 31  1  0
 17 32  1  0
 20 33  1  0
 20 34  1  0
 20 35  1  0
 21 36  1  0
 21 37  1  0
 21 38  1  0
 22 39  1  0
M  CHG  2   6  -1  12  -1
M  END
>  <UniqueID>  (97) 
96

>  <SMILES>  (97) 
CN(CC(=O)[O-])C(=O)n1c(C([NH-])=O)cc2ccc(N(C)C)cc21

>  <Energy>  (97) 
75.86175921726213

>  <Genealogy>  (97) 
CN(CC(=O)[O-])C(=O)n1c(C([NH-])=O)cc2ccc(N(C)C)cc21 (protonated)
CN(CC(=O)[O-])C(=O)n1c(C([NH-])=O)cc2ccc(N(C)C)cc21 (3D coordinates assigned)
CN(CC(=O)[O-])C(=O)n1c(C([NH-])=O)cc2ccc(N(C)C)cc21 (optimized conformer: 75.86175921726213 kcal/mol)

>  <smiles>  (97) 
CN(CC(=O)O)C(=O)n1c(C(N)=O)cc2ccc(N(C)C)cc21

>  <score_type>  (97) 
oracle

>  <origin>  (97) 
adg

>  <m_score__min__energy>  (97) 
-12.140000000000001

>  <m_primary>  (97) 
energy

$$$$
