0:0
     RDKit          3D

 39 41  0  0  0  0  0  0  0  0999 V2000
   -3.8770   23.6640  -27.6850 C   0  0  0  0  0  0  0  0  0  0  0  0
   -2.3390   23.2600  -28.5770 S   0  0  0  0  0  0  0  0  0  0  0  0
   -3.0650   21.9030  -29.5600 C   0  0  0  0  0  0  0  0  0  0  0  0
   -3.5000   22.3960  -30.9100 C   0  0  0  0  0  0  0  0  0  0  0  0
   -2.6240   22.6950  -31.7680 O   0  0  0  0  0  0  0  0  0  0  0  0
   -4.8950   22.5460  -31.2350 N   0  0  0  0  0  0  0  0  0  0  0  0
   -5.6800   23.6460  -31.0440 C   0  0  0  0  0  0  0  0  0  0  0  0
   -5.2280   24.9720  -30.5710 C   0  0  0  0  0  0  0  0  0  0  0  0
   -3.8440   25.3080  -30.5210 N   0  0  0  0  0  0  0  0  0  0  0  0
   -6.0830   25.8390  -30.2370 O   0  0  0  0  0  0  0  0  0  0  0  0
   -6.9980   23.3750  -31.4060 C   0  0  0  0  0  0  0  0  0  0  0  0
   -6.9990   22.0660  -31.8270 C   0  0  0  0  0  0  0  0  0  0  0  0
   -8.0490   21.2760  -32.2760 C   0  0  0  0  0  0  0  0  0  0  0  0
   -7.7720   19.9410  -32.6180 C   0  0  0  0  0  0  0  0  0  0  0  0
   -6.4580   19.4120  -32.4930 C   0  0  0  0  0  0  0  0  0  0  0  0
   -6.1990   17.9930  -32.8660 C   0  0  0  0  0  0  0  0  0  0  0  0
   -5.1150   17.2700  -32.3340 C   0  0  0  0  0  0  0  0  0  0  0  0
   -4.9030   15.9490  -32.7320 C   0  0  0  0  0  0  0  0  0  0  0  0
   -5.7600   15.3440  -33.6640 C   0  0  0  0  0  0  0  0  0  0  0  0
   -5.5440   13.9480  -34.1060 C   0  0  0  0  0  0  0  0  0  0  0  0
   -6.3760   13.3800  -34.8620 O   0  0  0  0  0  0  0  0  0  0  0  0
   -4.4200   13.2430  -33.6890 O   0  0  0  0  0  0  0  0  0  0  0  0
   -6.8250   16.0980  -34.1770 C   0  0  0  0  0  0  0  0  0  0  0  0
   -7.0120   17.3820  -33.7730 N   0  0  0  0  0  0  0  0  0  0  0  0
   -5.4240   20.2470  -31.9990 C   0  0  0  0  0  0  0  0  0  0  0  0
   -5.7200   21.5850  -31.7090 C   0  0  0  0  0  0  0  0  0  0  0  0
   -3.6956   23.6163  -26.6011 H   0  0  0  0  0  0  0  0  0  0  0  0
   -4.2035   24.6784  -27.9579 H   0  0  0  0  0  0  0  0  0  0  0  0
   -4.6598   22.9410  -27.9579 H   0  0  0  0  0  0  0  0  0  0  0  0
   -2.3136   21.1103  -29.6905 H   0  0  0  0  0  0  0  0  0  0  0  0
   -3.9446   21.5129  -29.0269 H   0  0  0  0  0  0  0  0  0  0  0  0
   -3.1270   24.7060  -30.9850 H   0  0  0  0  0  0  0  0  0  0  0  0
   -7.8557   24.0624  -31.3639 H   0  0  0  0  0  0  0  0  0  0  0  0
   -9.0674   21.6828  -32.3615 H   0  0  0  0  0  0  0  0  0  0  0  0
   -8.5831   19.2964  -32.9875 H   0  0  0  0  0  0  0  0  0  0  0  0
   -4.4380   17.7437  -31.6079 H   0  0  0  0  0  0  0  0  0  0  0  0
   -4.0602   15.3796  -32.3131 H   0  0  0  0  0  0  0  0  0  0  0  0
   -7.5118   15.6485  -34.9093 H   0  0  0  0  0  0  0  0  0  0  0  0
   -4.4089   19.8516  -31.8464 H   0  0  0  0  0  0  0  0  0  0  0  0
  1  2  1  0
  2  3  1  0
  3  4  1  0
  4  5  2  0
  4  6  1  0
  6  7  1  0
  7  8  1  0
  8  9  1  0
  8 10  2  0
  7 11  2  0
 11 12  1  0
 12 13  2  0
 13 14  1  0
 14 15  2  0
 15 16  1  0
 16 17  2  0
 17 18  1  0
 18 19  2  0
 19 20  1  0
 20 21  2  0
 20 22  1  0
 19 23  1  0
 23 24  2  0
 15 25  1  0
 25 26  2  0
 26  6  1  0
 26 12  1  0
 24 16  1  0
  1 27  1  0
  1 28  1  0
  1 29  1  0
  3 30  1  0
  3 31  1  0
  9 32  1  0
 11 33  1  0
 13 34  1  0
 14 35  1  0
 17 36  1  0
 18 37  1  0
 23 38  1  0
 25 39  1  0
M  CHG  2   9  -1  22  -1
M  END
>  <UniqueID>  (1) 
1

>  <SMILES>  (1) 
CSCC(=O)n1c(C([NH-])=O)cc2ccc(-c3ccc(C(=O)[O-])cn3)cc21

>  <Energy>  (1) 
82.12112783302263

>  <Genealogy>  (1) 
CSCC(=O)n1c(C([NH-])=O)cc2ccc(-c3ccc(C(=O)[O-])cn3)cc21 (protonated)
CSCC(=O)n1c(C([NH-])=O)cc2ccc(-c3ccc(C(=O)[O-])cn3)cc21 (3D coordinates assigned)
CSCC(=O)n1c(C([NH-])=O)cc2ccc(-c3ccc(C(=O)[O-])cn3)cc21 (optimized conformer: 82.12112783302263 kcal/mol)

>  <smiles>  (1) 
CSCC(=O)n1c(C(N)=O)cc2ccc(-c3ccc(C(=O)O)cn3)cc21

>  <score_type>  (1) 
oracle

>  <origin>  (1) 
adg

>  <m_score__min__energy>  (1) 
-10.640000000000001

>  <m_primary>  (1) 
energy

$$$$
1:0
     RDKit          3D

 43 46  0  0  0  0  0  0  0  0999 V2000
    0.2970   18.7310  -30.4490 C   0  0  0  0  0  0  0  0  0  0  0  0
   -0.6950   19.4460  -29.6280 N   0  0  0  0  0  0  0  0  0  0  0  0
   -1.5340   20.3660  -30.2160 C   0  0  0  0  0  0  0  0  0  0  0  0
   -1.4680   20.6020  -31.4520 O   0  0  0  0  0  0  0  0  0  0  0  0
   -2.4450   21.0450  -29.4110 C   0  0  0  0  0  0  0  0  0  0  0  0
   -3.4050   22.0210  -29.6470 C   0  0  0  0  0  0  0  0  0  0  0  0
   -3.8360   22.6370  -30.9180 C   0  0  0  0  0  0  0  0  0  0  0  0
   -2.9980   22.8820  -31.8250 O   0  0  0  0  0  0  0  0  0  0  0  0
   -5.2210   22.9370  -31.1430 N   0  0  0  0  0  0  0  0  0  0  0  0
   -5.8660   24.1170  -30.9250 C   0  0  0  0  0  0  0  0  0  0  0  0
   -5.2310   25.3900  -30.5210 C   0  0  0  0  0  0  0  0  0  0  0  0
   -3.8680   25.6640  -30.8370 N   0  0  0  0  0  0  0  0  0  0  0  0
   -5.9100   26.2610  -29.9160 O   0  0  0  0  0  0  0  0  0  0  0  0
   -7.2280   23.9850  -31.1950 C   0  0  0  0  0  0  0  0  0  0  0  0
   -7.3970   22.6760  -31.5860 C   0  0  0  0  0  0  0  0  0  0  0  0
   -8.5490   21.9950  -31.9680 C   0  0  0  0  0  0  0  0  0  0  0  0
   -8.4300   20.6360  -32.3050 C   0  0  0  0  0  0  0  0  0  0  0  0
   -7.1740   19.9820  -32.2350 C   0  0  0  0  0  0  0  0  0  0  0  0
   -7.0530   18.5400  -32.6250 C   0  0  0  0  0  0  0  0  0  0  0  0
   -8.1870   17.8580  -32.2280 F   0  0  0  0  0  0  0  0  0  0  0  0
   -6.0250   20.7090  -31.8550 C   0  0  0  0  0  0  0  0  0  0  0  0
   -6.1710   22.0650  -31.5430 C   0  0  0  0  0  0  0  0  0  0  0  0
   -3.9340   22.3120  -28.3920 C   0  0  0  0  0  0  0  0  0  0  0  0
   -3.3470   21.5770  -27.4690 O   0  0  0  0  0  0  0  0  0  0  0  0
   -2.4590   20.8200  -28.0680 C   0  0  0  0  0  0  0  0  0  0  0  0
   -1.6290   19.9230  -27.4710 N   0  0  0  0  0  0  0  0  0  0  0  0
   -1.6490   19.7440  -26.0140 C   0  0  0  0  0  0  0  0  0  0  0  0
   -0.7240   19.2500  -28.2590 C   0  0  0  0  0  0  0  0  0  0  0  0
    0.0950   18.4520  -27.7210 O   0  0  0  0  0  0  0  0  0  0  0  0
    1.0129   18.2150  -29.7924 H   0  0  0  0  0  0  0  0  0  0  0  0
   -0.2157   17.9934  -31.0839 H   0  0  0  0  0  0  0  0  0  0  0  0
    0.8346   19.4506  -31.0839 H   0  0  0  0  0  0  0  0  0  0  0  0
   -3.1680   24.8910  -30.9080 H   0  0  0  0  0  0  0  0  0  0  0  0
   -8.0025   24.7618  -31.1129 H   0  0  0  0  0  0  0  0  0  0  0  0
   -9.5229   22.5050  -32.0050 H   0  0  0  0  0  0  0  0  0  0  0  0
   -9.3196   20.0743  -32.6261 H   0  0  0  0  0  0  0  0  0  0  0  0
   -6.9428   18.4636  -33.7168 H   0  0  0  0  0  0  0  0  0  0  0  0
   -6.1713   18.1009  -32.1354 H   0  0  0  0  0  0  0  0  0  0  0  0
   -5.0401   20.2217  -31.8055 H   0  0  0  0  0  0  0  0  0  0  0  0
   -4.7274   23.0491  -28.1990 H   0  0  0  0  0  0  0  0  0  0  0  0
   -1.5397   20.7222  -25.5229 H   0  0  0  0  0  0  0  0  0  0  0  0
   -2.6037   19.2876  -25.7137 H   0  0  0  0  0  0  0  0  0  0  0  0
   -0.8185   19.0881  -25.7137 H   0  0  0  0  0  0  0  0  0  0  0  0
  1  2  1  0
  2  3  1  0
  3  4  2  0
  3  5  1  0
  5  6  1  0
  6  7  1  0
  7  8  2  0
  7  9  1  0
  9 10  1  0
 10 11  1  0
 11 12  1  0
 11 13  2  0
 10 14  2  0
 14 15  1  0
 15 16  2  0
 16 17  1  0
 17 18  2  0
 18 19  1  0
 19 20  1  0
 18 21  1  0
 21 22  2  0
  6 23  2  0
 23 24  1  0
 24 25  1  0
 25 26  1  0
 26 27  1  0
 26 28  1  0
 28 29  2  0
 28  2  1  0
 25  5  2  0
 22  9  1  0
 22 15  1  0
  1 30  1  0
  1 31  1  0
  1 32  1  0
 12 33  1  0
 14 34  1  0
 16 35  1  0
 17 36  1  0
 19 37  1  0
 19 38  1  0
 21 39  1  0
 23 40  1  0
 27 41  1  0
 27 42  1  0
 27 43  1  0
M  CHG  1  12  -1
M  END
>  <UniqueID>  (2) 
2

>  <SMILES>  (2) 
Cn1c(=O)c2c(C(=O)n3c(C([NH-])=O)cc4ccc(CF)cc43)coc2n(C)c1=O

>  <Energy>  (2) 
129.709685621439

>  <Genealogy>  (2) 
Cn1c(=O)c2c(C(=O)n3c(C([NH-])=O)cc4ccc(CF)cc43)coc2n(C)c1=O (protonated)
Cn1c(=O)c2c(C(=O)n3c(C([NH-])=O)cc4ccc(CF)cc43)coc2n(C)c1=O (3D coordinates assigned)
Cn1c(=O)c2c(C(=O)n3c(C([NH-])=O)cc4ccc(CF)cc43)coc2n(C)c1=O (optimized conformer: 129.709685621439 kcal/mol)

>  <smiles>  (2) 
Cn1c(=O)c2c(C(=O)n3c(C(N)=O)cc4ccc(CF)cc43)coc2n(C)c1=O

>  <score_type>  (2) 
oracle

>  <origin>  (2) 
adg

>  <m_score__min__energy>  (2) 
-10.85

>  <m_primary>  (2) 
energy

$$$$
2:0
     RDKit          3D

 46 47  0  0  0  0  0  0  0  0999 V2000
   -7.4120   22.6820  -29.8750 C   0  0  0  0  0  0  0  0  0  0  0  0
   -6.3600   23.7380  -30.2730 C   0  0  0  0  0  0  0  0  0  0  0  0
   -6.1780   23.7350  -31.8040 C   0  0  0  0  0  0  0  0  0  0  0  0
   -6.8770   25.1280  -29.8420 C   0  0  0  0  0  0  0  0  0  0  0  0
   -5.0100   23.4720  -29.5460 C   0  0  0  0  0  0  0  0  0  0  0  0
   -3.7990   24.0060  -30.2720 C   0  0  0  0  0  0  0  0  0  0  0  0
   -3.8380   25.1620  -30.7730 O   0  0  0  0  0  0  0  0  0  0  0  0
   -2.6220   23.1990  -30.4440 N   0  0  0  0  0  0  0  0  0  0  0  0
   -1.4110   23.3380  -29.8370 C   0  0  0  0  0  0  0  0  0  0  0  0
   -0.9970   24.4730  -28.9880 C   0  0  0  0  0  0  0  0  0  0  0  0
   -1.7750   25.6680  -28.9700 N   0  0  0  0  0  0  0  0  0  0  0  0
    0.0180   24.3850  -28.2480 O   0  0  0  0  0  0  0  0  0  0  0  0
   -0.5520   22.3110  -30.2220 C   0  0  0  0  0  0  0  0  0  0  0  0
   -1.2750   21.5450  -31.1100 C   0  0  0  0  0  0  0  0  0  0  0  0
   -0.9120   20.4020  -31.8120 C   0  0  0  0  0  0  0  0  0  0  0  0
   -1.8670   19.8150  -32.6590 C   0  0  0  0  0  0  0  0  0  0  0  0
   -3.1670   20.3780  -32.7890 C   0  0  0  0  0  0  0  0  0  0  0  0
   -4.1670   19.7950  -33.6480 N   0  0  0  0  0  0  0  0  0  0  0  0
   -4.3670   18.3580  -33.8390 C   0  0  0  0  0  0  0  0  0  0  0  0
   -5.7890   18.0580  -34.3260 C   0  0  0  0  0  0  0  0  0  0  0  0
   -6.4960   19.2970  -34.6360 N   0  0  0  0  0  0  0  0  0  0  0  0
   -3.4890   21.5470  -32.0650 C   0  0  0  0  0  0  0  0  0  0  0  0
   -2.5170   22.1090  -31.2320 C   0  0  0  0  0  0  0  0  0  0  0  0
   -7.4732   22.6206  -28.7784 H   0  0  0  0  0  0  0  0  0  0  0  0
   -8.3927   22.9701  -30.2814 H   0  0  0  0  0  0  0  0  0  0  0  0
   -7.1201   21.7024  -30.2814 H   0  0  0  0  0  0  0  0  0  0  0  0
   -5.1050   23.7173  -32.0457 H   0  0  0  0  0  0  0  0  0  0  0  0
   -6.6644   22.8448  -32.2293 H   0  0  0  0  0  0  0  0  0  0  0  0
   -6.6348   24.6408  -32.2293 H   0  0  0  0  0  0  0  0  0  0  0  0
   -6.8988   25.1867  -28.7438 H   0  0  0  0  0  0  0  0  0  0  0  0
   -6.2084   25.9068  -30.2376 H   0  0  0  0  0  0  0  0  0  0  0  0
   -7.8920   25.2805  -30.2376 H   0  0  0  0  0  0  0  0  0  0  0  0
   -5.0536   23.9452  -28.5540 H   0  0  0  0  0  0  0  0  0  0  0  0
   -4.8900   22.3798  -29.4931 H   0  0  0  0  0  0  0  0  0  0  0  0
   -2.7730   25.6630  -29.2770 H   0  0  0  0  0  0  0  0  0  0  0  0
    0.4831   22.1467  -29.8881 H   0  0  0  0  0  0  0  0  0  0  0  0
    0.0939   19.9693  -31.7076 H   0  0  0  0  0  0  0  0  0  0  0  0
   -1.6067   18.9102  -33.2278 H   0  0  0  0  0  0  0  0  0  0  0  0
   -4.8080   20.4370  -34.1680 H   0  0  0  0  0  0  0  0  0  0  0  0
   -3.6469   17.9913  -34.5853 H   0  0  0  0  0  0  0  0  0  0  0  0
   -4.2148   17.8530  -32.8737 H   0  0  0  0  0  0  0  0  0  0  0  0
   -5.7376   17.4346  -35.2308 H   0  0  0  0  0  0  0  0  0  0  0  0
   -6.3329   17.5279  -33.5302 H   0  0  0  0  0  0  0  0  0  0  0  0
   -7.3850   19.3020  -34.0870 H   0  0  0  0  0  0  0  0  0  0  0  0
   -6.7700   19.2740  -35.6450 H   0  0  0  0  0  0  0  0  0  0  0  0
   -4.4846   22.0061  -32.1547 H   0  0  0  0  0  0  0  0  0  0  0  0
  1  2  1  0
  2  3  1  0
  2  4  1  0
  2  5  1  0
  5  6  1  0
  6  7  2  0
  6  8  1  0
  8  9  1  0
  9 10  1  0
 10 11  1  0
 10 12  2  0
  9 13  2  0
 13 14  1  0
 14 15  2  0
 15 16  1  0
 16 17  2  0
 17 18  1  0
 18 19  1  0
 19 20  1  0
 20 21  1  0
 17 22  1  0
 22 23  2  0
 23  8  1  0
 23 14  1  0
  1 24  1  0
  1 25  1  0
  1 26  1  0
  3 27  1  0
  3 28  1  0
  3 29  1  0
  4 30  1  0
  4 31  1  0
  4 32  1  0
  5 33  1  0
  5 34  1  0
 11 35  1  0
 13 36  1  0
 15 37  1  0
 16 38  1  0
 18 39  1  0
 19 40  1  0
 19 41  1  0
 20 42  1  0
 20 43  1  0
 21 44  1  0
 21 45  1  0
 22 46  1  0
M  CHG  1  11  -1
M  END
>  <UniqueID>  (3) 
3

>  <SMILES>  (3) 
CC(C)(C)CC(=O)n1c(C([NH-])=O)cc2ccc(NCCN)cc21

>  <Energy>  (3) 
75.6388563129326

>  <Genealogy>  (3) 
CC(C)(C)CC(=O)n1c(C([NH-])=O)cc2ccc(NCCN)cc21 (protonated)
CC(C)(C)CC(=O)n1c(C([NH-])=O)cc2ccc(NCCN)cc21 (3D coordinates assigned)
CC(C)(C)CC(=O)n1c(C([NH-])=O)cc2ccc(NCCN)cc21 (optimized conformer: 75.6388563129326 kcal/mol)

>  <smiles>  (3) 
CC(C)(C)CC(=O)n1c(C(N)=O)cc2ccc(NCCN)cc21

>  <score_type>  (3) 
oracle

>  <origin>  (3) 
adg

>  <m_score__min__energy>  (3) 
-11.140000000000001

>  <m_primary>  (3) 
energy

$$$$
3:0
     RDKit          3D

 49 53  0  0  0  0  0  0  0  0999 V2000
   -6.4040   25.8360  -28.9790 N   0  0  0  0  0  0  0  0  0  0  0  0
   -5.9200   25.3400  -30.2280 C   0  0  0  0  0  0  0  0  0  0  0  0
   -5.1260   26.0440  -30.9060 O   0  0  0  0  0  0  0  0  0  0  0  0
   -6.2830   23.9910  -30.7060 C   0  0  0  0  0  0  0  0  0  0  0  0
   -7.5950   23.5860  -30.9250 C   0  0  0  0  0  0  0  0  0  0  0  0
   -7.5020   22.3080  -31.4260 C   0  0  0  0  0  0  0  0  0  0  0  0
   -8.5050   21.4220  -31.8050 C   0  0  0  0  0  0  0  0  0  0  0  0
   -8.1240   20.1470  -32.2520 C   0  0  0  0  0  0  0  0  0  0  0  0
   -6.7560   19.7750  -32.3040 C   0  0  0  0  0  0  0  0  0  0  0  0
   -6.3680   18.4220  -32.7640 C   0  0  0  0  0  0  0  0  0  0  0  0
   -7.2370   17.5710  -33.3710 N   0  0  0  0  0  0  0  0  0  0  0  0
   -6.4760   16.4940  -33.6100 C   0  0  0  0  0  0  0  0  0  0  0  0
   -6.8560   15.2980  -34.2100 C   0  0  0  0  0  0  0  0  0  0  0  0
   -5.8780   14.2970  -34.3510 C   0  0  0  0  0  0  0  0  0  0  0  0
   -4.5450   14.5150  -33.9080 C   0  0  0  0  0  0  0  0  0  0  0  0
   -3.4950   13.4340  -34.0770 C   0  0  0  0  0  0  0  0  0  0  0  0
   -3.3660   12.5070  -32.9240 N   0  0  0  0  0  0  0  0  0  0  0  0
   -4.5200   11.6180  -32.7430 C   0  0  0  0  0  0  0  0  0  0  0  0
   -5.3690   12.1750  -31.6080 C   0  0  0  0  0  0  0  0  0  0  0  0
   -4.4930   13.1930  -30.8980 C   0  0  0  0  0  0  0  0  0  0  0  0
   -3.1620   13.1800  -31.6370 C   0  0  0  0  0  0  0  0  0  0  0  0
   -4.2160   15.7390  -33.2780 C   0  0  0  0  0  0  0  0  0  0  0  0
   -5.2120   16.7020  -33.1590 C   0  0  0  0  0  0  0  0  0  0  0  0
   -5.1110   17.9230  -32.6140 N   0  0  0  0  0  0  0  0  0  0  0  0
   -5.7650   20.7030  -31.9070 C   0  0  0  0  0  0  0  0  0  0  0  0
   -6.1720   21.9750  -31.4850 C   0  0  0  0  0  0  0  0  0  0  0  0
   -5.4080   23.0010  -31.0420 N   0  0  0  0  0  0  0  0  0  0  0  0
   -3.9840   22.9950  -30.8470 C   0  0  0  0  0  0  0  0  0  0  0  0
   -3.3480   21.9090  -30.8020 O   0  0  0  0  0  0  0  0  0  0  0  0
   -3.2920   24.1910  -30.6980 O   0  0  0  0  0  0  0  0  0  0  0  0
   -6.1670   26.8070  -28.6730 H   0  0  0  0  0  0  0  0  0  0  0  0
   -6.9270   25.2190  -28.3200 H   0  0  0  0  0  0  0  0  0  0  0  0
   -8.5119   24.1641  -30.7376 H   0  0  0  0  0  0  0  0  0  0  0  0
   -9.5650   21.7117  -31.7559 H   0  0  0  0  0  0  0  0  0  0  0  0
   -8.8952   19.4280  -32.5656 H   0  0  0  0  0  0  0  0  0  0  0  0
   -7.8861   15.1404  -34.5622 H   0  0  0  0  0  0  0  0  0  0  0  0
   -6.1478   13.3342  -34.8095 H   0  0  0  0  0  0  0  0  0  0  0  0
   -3.7545   12.8406  -34.9661 H   0  0  0  0  0  0  0  0  0  0  0  0
   -2.5288   13.9517  -34.1684 H   0  0  0  0  0  0  0  0  0  0  0  0
   -5.1123   11.5817  -33.6692 H   0  0  0  0  0  0  0  0  0  0  0  0
   -4.1834   10.5984  -32.5039 H   0  0  0  0  0  0  0  0  0  0  0  0
   -6.2725   12.6591  -32.0072 H   0  0  0  0  0  0  0  0  0  0  0  0
   -5.7028   11.3806  -30.9242 H   0  0  0  0  0  0  0  0  0  0  0  0
   -4.9494   14.1926  -30.9480 H   0  0  0  0  0  0  0  0  0  0  0  0
   -4.3678   12.9476  -29.8331 H   0  0  0  0  0  0  0  0  0  0  0  0
   -2.8181   14.2112  -31.8052 H   0  0  0  0  0  0  0  0  0  0  0  0
   -2.4008   12.6508  -31.0449 H   0  0  0  0  0  0  0  0  0  0  0  0
   -3.2019   15.9231  -32.8937 H   0  0  0  0  0  0  0  0  0  0  0  0
   -4.6992   20.4319  -31.9292 H   0  0  0  0  0  0  0  0  0  0  0  0
  1  2  1  0
  2  3  2  0
  2  4  1  0
  4  5  2  0
  5  6  1  0
  6  7  2  0
  7  8  1  0
  8  9  2  0
  9 10  1  0
 10 11  2  0
 11 12  1  0
 12 13  2  0
 13 14  1  0
 14 15  2  0
 15 16  1  0
 16 17  1  0
 17 18  1  0
 18 19  1  0
 19 20  1  0
 20 21  1  0
 15 22  1  0
 22 23  2  0
 23 24  1  0
  9 25  1  0
 25 26  2  0
 26 27  1  0
 27 28  1  0
 28 29  2  0
 28 30  1  0
 27  4  1  0
 26  6  1  0
 24 10  1  0
 23 12  1  0
 21 17  1  0
  1 31  1  0
  1 32  1  0
  5 33  1  0
  7 34  1  0
  8 35  1  0
 13 36  1  0
 14 37  1  0
 16 38  1  0
 16 39  1  0
 18 40  1  0
 18 41  1  0
 19 42  1  0
 19 43  1  0
 20 44  1  0
 20 45  1  0
 21 46  1  0
 21 47  1  0
 22 48  1  0
 25 49  1  0
M  CHG  2  24  -1  30  -1
M  END
>  <UniqueID>  (4) 
4

>  <SMILES>  (4) 
NC(=O)c1cc2ccc(-c3nc4ccc(CN5CCCC5)cc4[n-]3)cc2n1C(=O)[O-]

>  <Energy>  (4) 
135.05932500102813

>  <Genealogy>  (4) 
NC(=O)c1cc2ccc(-c3nc4ccc(CN5CCCC5)cc4[n-]3)cc2n1C(=O)[O-] (protonated)
NC(=O)c1cc2ccc(-c3nc4ccc(CN5CCCC5)cc4[n-]3)cc2n1C(=O)[O-] (3D coordinates assigned)
NC(=O)c1cc2ccc(-c3nc4ccc(CN5CCCC5)cc4[n-]3)cc2n1C(=O)[O-] (nonaromatic ring conformer: 135.05932500102813 kcal/mol)

>  <smiles>  (4) 
NC(=O)c1cc2ccc(-c3nc4ccc(CN5CCCC5)cc4[nH]3)cc2n1C(=O)O

>  <score_type>  (4) 
oracle

>  <origin>  (4) 
adg

>  <m_score__min__energy>  (4) 
-10.56

>  <m_primary>  (4) 
energy

$$$$
4:0
     RDKit          3D

 37 39  0  0  0  0  0  0  0  0999 V2000
   -5.9300   25.3100  -29.0020 N   0  0  0  0  0  0  0  0  0  0  0  0
   -5.9350   25.0510  -30.4070 C   0  0  0  0  0  0  0  0  0  0  0  0
   -5.6290   25.9790  -31.2010 O   0  0  0  0  0  0  0  0  0  0  0  0
   -6.3170   23.7200  -30.9300 C   0  0  0  0  0  0  0  0  0  0  0  0
   -7.6290   23.3180  -31.1740 C   0  0  0  0  0  0  0  0  0  0  0  0
   -7.5300   22.0600  -31.7270 C   0  0  0  0  0  0  0  0  0  0  0  0
   -8.5230   21.1950  -32.1710 C   0  0  0  0  0  0  0  0  0  0  0  0
   -8.1290   19.9510  -32.6940 C   0  0  0  0  0  0  0  0  0  0  0  0
   -6.7570   19.5880  -32.7460 C   0  0  0  0  0  0  0  0  0  0  0  0
   -6.3450   18.2690  -33.3490 C   0  0  0  0  0  0  0  0  0  0  0  0
   -6.0920   18.4100  -34.7030 F   0  0  0  0  0  0  0  0  0  0  0  0
   -5.1980   17.8190  -32.7210 F   0  0  0  0  0  0  0  0  0  0  0  0
   -7.3450   17.3260  -33.1910 F   0  0  0  0  0  0  0  0  0  0  0  0
   -5.7760   20.5080  -32.3070 C   0  0  0  0  0  0  0  0  0  0  0  0
   -6.2000   21.7400  -31.8010 C   0  0  0  0  0  0  0  0  0  0  0  0
   -5.4440   22.7450  -31.3120 N   0  0  0  0  0  0  0  0  0  0  0  0
   -4.0110   22.7510  -31.2040 C   0  0  0  0  0  0  0  0  0  0  0  0
   -3.3170   22.6560  -32.2530 O   0  0  0  0  0  0  0  0  0  0  0  0
   -3.3330   22.8660  -29.8890 C   0  0  0  0  0  0  0  0  0  0  0  0
   -3.1330   21.7100  -29.1110 C   0  0  0  0  0  0  0  0  0  0  0  0
   -2.4770   21.7770  -27.8680 C   0  0  0  0  0  0  0  0  0  0  0  0
   -2.2660   20.5890  -27.0830 N   0  0  0  0  0  0  0  0  0  0  0  0
   -1.2480   20.4700  -26.3670 O   0  0  0  0  0  0  0  0  0  0  0  0
   -3.1810   19.5620  -27.1070 O   0  0  0  0  0  0  0  0  0  0  0  0
   -2.0260   23.0230  -27.4040 C   0  0  0  0  0  0  0  0  0  0  0  0
   -2.2340   24.1770  -28.1600 C   0  0  0  0  0  0  0  0  0  0  0  0
   -2.8890   24.1090  -29.3910 C   0  0  0  0  0  0  0  0  0  0  0  0
   -3.1120   25.2870  -30.0970 O   0  0  0  0  0  0  0  0  0  0  0  0
   -5.6920   26.2630  -28.6460 H   0  0  0  0  0  0  0  0  0  0  0  0
   -6.1150   24.5530  -28.3080 H   0  0  0  0  0  0  0  0  0  0  0  0
   -8.5489   23.8851  -30.9685 H   0  0  0  0  0  0  0  0  0  0  0  0
   -9.5852   21.4753  -32.1149 H   0  0  0  0  0  0  0  0  0  0  0  0
   -8.8915   19.2513  -33.0669 H   0  0  0  0  0  0  0  0  0  0  0  0
   -4.7058   20.2598  -32.3625 H   0  0  0  0  0  0  0  0  0  0  0  0
   -3.4952   20.7393  -29.4805 H   0  0  0  0  0  0  0  0  0  0  0  0
   -1.5050   23.0898  -26.4375 H   0  0  0  0  0  0  0  0  0  0  0  0
   -1.8792   25.1477  -27.7833 H   0  0  0  0  0  0  0  0  0  0  0  0
  1  2  1  0
  2  3  2  0
  2  4  1  0
  4  5  2  0
  5  6  1  0
  6  7  2  0
  7  8  1  0
  8  9  2  0
  9 10  1  0
 10 11  1  0
 10 12  1  0
 10 13  1  0
  9 14  1  0
 14 15  2  0
 15 16  1  0
 16 17  1  0
 17 18  2  0
 17 19  1  0
 19 20  2  0
 20 21  1  0
 21 22  1  0
 22 23  2  0
 22 24  1  0
 21 25  2  0
 25 26  1  0
 26 27  2  0
 27 28  1  0
 16  4  1  0
 27 19  1  0
 15  6  1  0
  1 29  1  0
  1 30  1  0
  5 31  1  0
  7 32  1  0
  8 33  1  0
 14 34  1  0
 20 35  1  0
 25 36  1  0
 26 37  1  0
M  CHG  3  22   1  24  -1  28  -1
M  END
>  <UniqueID>  (5) 
5

>  <SMILES>  (5) 
NC(=O)c1cc2ccc(C(F)(F)F)cc2n1C(=O)c1cc([N+](=O)[O-])ccc1[O-]

>  <Energy>  (5) 
84.32961731124908

>  <Genealogy>  (5) 
NC(=O)c1cc2ccc(C(F)(F)F)cc2n1C(=O)c1cc([N+](=O)[O-])ccc1[O-] (protonated)
NC(=O)c1cc2ccc(C(F)(F)F)cc2n1C(=O)c1cc([N+](=O)[O-])ccc1[O-] (3D coordinates assigned)
NC(=O)c1cc2ccc(C(F)(F)F)cc2n1C(=O)c1cc([N+](=O)[O-])ccc1[O-] (optimized conformer: 84.32961731124908 kcal/mol)

>  <smiles>  (5) 
NC(=O)c1cc2ccc(C(F)(F)F)cc2n1C(=O)c1cc([N+](=O)[O-])ccc1O

>  <score_type>  (5) 
oracle

>  <origin>  (5) 
adg

>  <m_score__min__energy>  (5) 
-12.52

>  <m_primary>  (5) 
energy

$$$$
5:0
     RDKit          3D

 46 47  0  0  0  0  0  0  0  0999 V2000
   -3.5760   21.9030  -32.6050 C   0  0  0  0  0  0  0  0  0  0  0  0
   -3.7100   20.4890  -32.2890 N   0  0  0  0  0  0  0  0  0  0  0  0
   -4.3860   19.5650  -33.1480 C   0  0  0  0  0  0  0  0  0  0  0  0
   -3.8140   19.1370  -34.1880 O   0  0  0  0  0  0  0  0  0  0  0  0
   -5.7120   19.1150  -32.8220 N   0  0  0  0  0  0  0  0  0  0  0  0
   -6.1910   17.8410  -32.8830 C   0  0  0  0  0  0  0  0  0  0  0  0
   -5.3930   16.6300  -33.1590 C   0  0  0  0  0  0  0  0  0  0  0  0
   -4.6460   16.4940  -34.3680 N   0  0  0  0  0  0  0  0  0  0  0  0
   -5.3280   15.7210  -32.2880 O   0  0  0  0  0  0  0  0  0  0  0  0
   -7.5530   17.8130  -32.5950 C   0  0  0  0  0  0  0  0  0  0  0  0
   -7.8970   19.1210  -32.3410 C   0  0  0  0  0  0  0  0  0  0  0  0
   -9.1300   19.6700  -32.0060 C   0  0  0  0  0  0  0  0  0  0  0  0
   -9.2020   21.0600  -31.8190 C   0  0  0  0  0  0  0  0  0  0  0  0
   -8.0500   21.8730  -31.9740 C   0  0  0  0  0  0  0  0  0  0  0  0
   -8.1380   23.3650  -31.7550 C   0  0  0  0  0  0  0  0  0  0  0  0
   -6.7580   24.0300  -31.6100 C   0  0  0  0  0  0  0  0  0  0  0  0
   -6.3310   24.2400  -30.1850 C   0  0  0  0  0  0  0  0  0  0  0  0
   -6.2100   25.4180  -29.7500 O   0  0  0  0  0  0  0  0  0  0  0  0
   -6.0250   23.1480  -29.3650 O   0  0  0  0  0  0  0  0  0  0  0  0
   -4.7150   22.5990  -29.2220 C   0  0  0  0  0  0  0  0  0  0  0  0
   -3.7900   23.5500  -28.4410 C   0  0  2  0  0  0  0  0  0  0  0  0
   -4.5440   24.4860  -27.7180 O   0  0  0  0  0  0  0  0  0  0  0  0
   -2.8310   24.2920  -29.3840 C   0  0  0  0  0  0  0  0  0  0  0  0
   -3.5120   25.2970  -30.0830 O   0  0  0  0  0  0  0  0  0  0  0  0
   -6.8200   21.2800  -32.3380 C   0  0  0  0  0  0  0  0  0  0  0  0
   -6.7690   19.8890  -32.4880 C   0  0  0  0  0  0  0  0  0  0  0  0
   -3.5210   22.4835  -31.6723 H   0  0  0  0  0  0  0  0  0  0  0  0
   -2.6587   22.0625  -33.1908 H   0  0  0  0  0  0  0  0  0  0  0  0
   -4.4470   22.2319  -33.1908 H   0  0  0  0  0  0  0  0  0  0  0  0
   -4.5350   17.2960  -35.0280 H   0  0  0  0  0  0  0  0  0  0  0  0
   -4.1240   15.6110  -34.5640 H   0  0  0  0  0  0  0  0  0  0  0  0
   -8.2130   16.9333  -32.5748 H   0  0  0  0  0  0  0  0  0  0  0  0
  -10.0211   19.0353  -31.8911 H   0  0  0  0  0  0  0  0  0  0  0  0
  -10.1625   21.5235  -31.5493 H   0  0  0  0  0  0  0  0  0  0  0  0
   -8.6568   23.8161  -32.6137 H   0  0  0  0  0  0  0  0  0  0  0  0
   -8.6848   23.5295  -30.8148 H   0  0  0  0  0  0  0  0  0  0  0  0
   -6.0117   23.3910  -32.1047 H   0  0  0  0  0  0  0  0  0  0  0  0
   -6.8330   25.0258  -32.0713 H   0  0  0  0  0  0  0  0  0  0  0  0
   -4.7844   21.6433  -28.6817 H   0  0  0  0  0  0  0  0  0  0  0  0
   -4.2905   22.4498  -30.2258 H   0  0  0  0  0  0  0  0  0  0  0  0
   -3.1988   22.9375  -27.7444 H   0  0  0  0  0  0  0  0  0  0  0  0
   -5.4890   24.3750  -28.0020 H   0  0  0  0  0  0  0  0  0  0  0  0
   -2.0216   24.7462  -28.7936 H   0  0  0  0  0  0  0  0  0  0  0  0
   -2.4155   23.5742  -30.1067 H   0  0  0  0  0  0  0  0  0  0  0  0
   -4.2710   25.5790  -29.5070 H   0  0  0  0  0  0  0  0  0  0  0  0
   -5.9237   21.8969  -32.4997 H   0  0  0  0  0  0  0  0  0  0  0  0
  1  2  1  0
  2  3  1  0
  3  4  2  0
  3  5  1  0
  5  6  1  0
  6  7  1  0
  7  8  1  0
  7  9  2  0
  6 10  2  0
 10 11  1  0
 11 12  2  0
 12 13  1  0
 13 14  2  0
 14 15  1  0
 15 16  1  0
 16 17  1  0
 17 18  2  0
 17 19  1  0
 19 20  1  0
 20 21  1  0
 21 22  1  0
 21 23  1  0
 23 24  1  0
 14 25  1  0
 25 26  2  0
 26  5  1  0
 26 11  1  0
  1 27  1  0
  1 28  1  0
  1 29  1  0
  8 30  1  0
  8 31  1  0
 10 32  1  0
 12 33  1  0
 13 34  1  0
 15 35  1  0
 15 36  1  0
 16 37  1  0
 16 38  1  0
 20 39  1  0
 20 40  1  0
 21 41  1  1
 22 42  1  0
 23 43  1  0
 23 44  1  0
 24 45  1  0
 25 46  1  0
M  CHG  1   2  -1
M  END
>  <UniqueID>  (6) 
6

>  <SMILES>  (6) 
C[N-]C(=O)n1c(C(N)=O)cc2ccc(CCC(=O)OC[C@H](O)CO)cc21

>  <Energy>  (6) 
74.38783840285723

>  <Genealogy>  (6) 
C[N-]C(=O)n1c(C(N)=O)cc2ccc(CCC(=O)OCC(O)CO)cc21 (protonated)
C[N-]C(=O)n1c(C(N)=O)cc2ccc(CCC(=O)OC[C@H](O)CO)cc21 (chirality)
C[N-]C(=O)n1c(C(N)=O)cc2ccc(CCC(=O)OC[C@H](O)CO)cc21 (3D coordinates assigned)
C[N-]C(=O)n1c(C(N)=O)cc2ccc(CCC(=O)OC[C@H](O)CO)cc21 (optimized conformer: 74.38783840285723 kcal/mol)

>  <smiles>  (6) 
CNC(=O)n1c(C(N)=O)cc2ccc(CCC(=O)OCC(O)CO)cc21

>  <score_type>  (6) 
oracle

>  <origin>  (6) 
adg

>  <m_score__min__energy>  (6) 
-8.3000000000000007

>  <m_primary>  (6) 
energy

$$$$
6:0
     RDKit          3D

 44 46  0  0  0  0  0  0  0  0999 V2000
   -3.4960   21.3200  -29.8260 C   0  0  0  0  0  0  0  0  0  0  0  0
   -3.0830   22.1570  -30.9640 N   0  0  0  0  0  0  0  0  0  0  0  0
   -1.7900   21.6990  -31.5020 C   0  0  0  0  0  0  0  0  0  0  0  0
   -4.1150   22.1330  -31.9780 C   0  0  0  0  0  0  0  0  0  0  0  0
   -3.9040   21.5760  -33.0910 O   0  0  0  0  0  0  0  0  0  0  0  0
   -5.4380   22.5980  -31.6660 N   0  0  0  0  0  0  0  0  0  0  0  0
   -5.7950   23.7750  -31.0770 C   0  0  0  0  0  0  0  0  0  0  0  0
   -4.8910   24.9080  -30.7890 C   0  0  0  0  0  0  0  0  0  0  0  0
   -3.5250   24.6630  -30.4600 N   0  0  0  0  0  0  0  0  0  0  0  0
   -5.3140   26.0940  -30.8330 O   0  0  0  0  0  0  0  0  0  0  0  0
   -7.1650   23.7900  -30.8170 C   0  0  0  0  0  0  0  0  0  0  0  0
   -7.6400   22.5790  -31.2740 C   0  0  0  0  0  0  0  0  0  0  0  0
   -8.9230   22.0380  -31.2180 C   0  0  0  0  0  0  0  0  0  0  0  0
   -9.1160   20.7340  -31.7080 C   0  0  0  0  0  0  0  0  0  0  0  0
   -8.0260   20.0010  -32.2430 C   0  0  0  0  0  0  0  0  0  0  0  0
   -8.2170   18.5830  -32.7120 C   0  0  0  0  0  0  0  0  0  0  0  0
   -6.9740   17.7800  -32.4650 C   0  0  0  0  0  0  0  0  0  0  0  0
   -6.8020   17.2140  -31.3530 O   0  0  0  0  0  0  0  0  0  0  0  0
   -5.9720   17.6610  -33.4800 N   0  0  0  0  0  0  0  0  0  0  0  0
   -4.6450   17.0390  -33.6200 C   0  0  0  0  0  0  0  0  0  0  0  0
   -4.4170   17.4670  -35.0340 C   0  0  0  0  0  0  0  0  0  0  0  0
   -5.7660   18.0880  -34.8760 C   0  0  0  0  0  0  0  0  0  0  0  0
   -6.7380   20.5810  -32.2780 C   0  0  0  0  0  0  0  0  0  0  0  0
   -6.5780   21.8810  -31.7850 C   0  0  0  0  0  0  0  0  0  0  0  0
   -3.2441   21.8306  -28.8848 H   0  0  0  0  0  0  0  0  0  0  0  0
   -4.5817   21.1493  -29.8713 H   0  0  0  0  0  0  0  0  0  0  0  0
   -2.9709   20.3545  -29.8713 H   0  0  0  0  0  0  0  0  0  0  0  0
   -2.9650   23.1380  -30.6180 H   0  0  0  0  0  0  0  0  0  0  0  0
   -1.1113   21.4586  -30.6704 H   0  0  0  0  0  0  0  0  0  0  0  0
   -1.9466   20.8016  -32.1186 H   0  0  0  0  0  0  0  0  0  0  0  0
   -1.3468   22.4948  -32.1186 H   0  0  0  0  0  0  0  0  0  0  0  0
   -2.7710   25.2970  -30.8030 H   0  0  0  0  0  0  0  0  0  0  0  0
   -7.7446   24.5978  -30.3464 H   0  0  0  0  0  0  0  0  0  0  0  0
   -9.7619   22.6152  -30.8019 H   0  0  0  0  0  0  0  0  0  0  0  0
  -10.1175   20.2802  -31.6762 H   0  0  0  0  0  0  0  0  0  0  0  0
   -9.0564   18.1298  -32.1643 H   0  0  0  0  0  0  0  0  0  0  0  0
   -8.4300   18.5891  -33.7912 H   0  0  0  0  0  0  0  0  0  0  0  0
   -3.9037   17.4593  -32.9245 H   0  0  0  0  0  0  0  0  0  0  0  0
   -4.5711   15.9629  -33.4044 H   0  0  0  0  0  0  0  0  0  0  0  0
   -3.5856   18.1703  -35.1892 H   0  0  0  0  0  0  0  0  0  0  0  0
   -4.1485   16.7788  -35.8491 H   0  0  0  0  0  0  0  0  0  0  0  0
   -5.7453   19.1822  -34.9867 H   0  0  0  0  0  0  0  0  0  0  0  0
   -6.5376   17.8027  -35.6063 H   0  0  0  0  0  0  0  0  0  0  0  0
   -5.8808   20.0235  -32.6834 H   0  0  0  0  0  0  0  0  0  0  0  0
  1  2  1  0
  2  3  1  0
  2  4  1  0
  4  5  2  0
  4  6  1  0
  6  7  1  0
  7  8  1  0
  8  9  1  0
  8 10  2  0
  7 11  2  0
 11 12  1  0
 12 13  2  0
 13 14  1  0
 14 15  2  0
 15 16  1  0
 16 17  1  0
 17 18  2  0
 17 19  1  0
 19 20  1  0
 20 21  1  0
 21 22  1  0
 15 23  1  0
 23 24  2  0
 24  6  1  0
 24 12  1  0
 22 19  1  0
  1 25  1  0
  1 26  1  0
  1 27  1  0
  2 28  1  0
  3 29  1  0
  3 30  1  0
  3 31  1  0
  9 32  1  0
 11 33  1  0
 13 34  1  0
 14 35  1  0
 16 36  1  0
 16 37  1  0
 20 38  1  0
 20 39  1  0
 21 40  1  0
 21 41  1  0
 22 42  1  0
 22 43  1  0
 23 44  1  0
M  CHG  2   2   1   9  -1
M  END
>  <UniqueID>  (7) 
7

>  <SMILES>  (7) 
C[NH+](C)C(=O)n1c(C([NH-])=O)cc2ccc(CC(=O)N3CCC3)cc21

>  <Energy>  (7) 
126.04503498871152

>  <Genealogy>  (7) 
C[NH+](C)C(=O)n1c(C([NH-])=O)cc2ccc(CC(=O)N3CCC3)cc21 (protonated)
C[NH+](C)C(=O)n1c(C([NH-])=O)cc2ccc(CC(=O)N3CCC3)cc21 (3D coordinates assigned)
C[NH+](C)C(=O)n1c(C([NH-])=O)cc2ccc(CC(=O)N3CCC3)cc21 (nonaromatic ring conformer: 126.04503498871152 kcal/mol)

>  <smiles>  (7) 
CN(C)C(=O)n1c(C(N)=O)cc2ccc(CC(=O)N3CCC3)cc21

>  <score_type>  (7) 
oracle

>  <origin>  (7) 
adg

>  <m_score__min__energy>  (7) 
-10.050000000000001

>  <m_primary>  (7) 
energy

$$$$
7:0
     RDKit          3D

 43 44  0  0  0  0  0  0  0  0999 V2000
   -3.6810   18.8500  -33.9850 C   0  0  0  0  0  0  0  0  0  0  0  0
   -2.5580   19.4530  -33.1260 C   0  0  0  0  0  0  0  0  0  0  0  0
   -2.0930   20.7720  -33.7700 C   0  0  0  0  0  0  0  0  0  0  0  0
   -1.3950   18.4450  -33.0490 C   0  0  0  0  0  0  0  0  0  0  0  0
   -3.1050   19.6900  -31.8200 O   0  0  0  0  0  0  0  0  0  0  0  0
   -2.5650   20.5300  -30.8340 C   0  0  0  0  0  0  0  0  0  0  0  0
   -1.3230   20.5770  -30.6210 O   0  0  0  0  0  0  0  0  0  0  0  0
   -3.4880   21.3410  -29.9860 C   0  0  0  0  0  0  0  0  0  0  0  0
   -3.9760   22.5250  -30.7640 C   0  0  0  0  0  0  0  0  0  0  0  0
   -3.1420   23.3340  -31.2540 O   0  0  0  0  0  0  0  0  0  0  0  0
   -5.3770   22.7090  -31.0120 N   0  0  0  0  0  0  0  0  0  0  0  0
   -6.1180   23.8300  -30.7860 C   0  0  0  0  0  0  0  0  0  0  0  0
   -5.5790   25.1290  -30.3180 C   0  0  0  0  0  0  0  0  0  0  0  0
   -4.2340   25.5160  -30.6090 N   0  0  0  0  0  0  0  0  0  0  0  0
   -6.3030   25.9050  -29.6410 O   0  0  0  0  0  0  0  0  0  0  0  0
   -7.4550   23.5980  -31.1120 C   0  0  0  0  0  0  0  0  0  0  0  0
   -7.5060   22.2900  -31.5390 C   0  0  0  0  0  0  0  0  0  0  0  0
   -8.5910   21.5250  -31.9550 C   0  0  0  0  0  0  0  0  0  0  0  0
   -8.3570   20.1830  -32.3020 C   0  0  0  0  0  0  0  0  0  0  0  0
   -7.0500   19.6340  -32.2370 C   0  0  0  0  0  0  0  0  0  0  0  0
   -6.8230   18.1770  -32.5490 C   0  0  0  0  0  0  0  0  0  0  0  0
   -6.5130   18.0420  -33.8890 F   0  0  0  0  0  0  0  0  0  0  0  0
   -5.7800   17.6720  -31.7920 F   0  0  0  0  0  0  0  0  0  0  0  0
   -7.9580   17.4350  -32.2720 F   0  0  0  0  0  0  0  0  0  0  0  0
   -5.9780   20.4400  -31.7870 C   0  0  0  0  0  0  0  0  0  0  0  0
   -6.2380   21.7750  -31.4660 C   0  0  0  0  0  0  0  0  0  0  0  0
   -4.4595   18.4320  -33.3299 H   0  0  0  0  0  0  0  0  0  0  0  0
   -4.1185   19.6345  -34.6199 H   0  0  0  0  0  0  0  0  0  0  0  0
   -3.2687   18.0520  -34.6199 H   0  0  0  0  0  0  0  0  0  0  0  0
   -1.8380   21.4952  -32.9813 H   0  0  0  0  0  0  0  0  0  0  0  0
   -1.2073   20.5829  -34.3944 H   0  0  0  0  0  0  0  0  0  0  0  0
   -2.9014   21.1802  -34.3944 H   0  0  0  0  0  0  0  0  0  0  0  0
   -1.1574   18.2391  -31.9949 H   0  0  0  0  0  0  0  0  0  0  0  0
   -1.6869   17.5095  -33.5486 H   0  0  0  0  0  0  0  0  0  0  0  0
   -0.5104   18.8669  -33.5486 H   0  0  0  0  0  0  0  0  0  0  0  0
   -4.3461   20.7225  -29.6841 H   0  0  0  0  0  0  0  0  0  0  0  0
   -2.9511   21.6883  -29.0909 H   0  0  0  0  0  0  0  0  0  0  0  0
   -3.8590   26.4180  -30.2410 H   0  0  0  0  0  0  0  0  0  0  0  0
   -3.6200   24.9400  -31.2260 H   0  0  0  0  0  0  0  0  0  0  0  0
   -8.2911   24.3095  -31.0425 H   0  0  0  0  0  0  0  0  0  0  0  0
   -9.6011   21.9570  -32.0107 H   0  0  0  0  0  0  0  0  0  0  0  0
   -9.1966   19.5512  -32.6276 H   0  0  0  0  0  0  0  0  0  0  0  0
   -4.9635   20.0256  -31.6920 H   0  0  0  0  0  0  0  0  0  0  0  0
  1  2  1  0
  2  3  1  0
  2  4  1  0
  2  5  1  0
  5  6  1  0
  6  7  2  0
  6  8  1  0
  8  9  1  0
  9 10  2  0
  9 11  1  0
 11 12  1  0
 12 13  1  0
 13 14  1  0
 13 15  2  0
 12 16  2  0
 16 17  1  0
 17 18  2  0
 18 19  1  0
 19 20  2  0
 20 21  1  0
 21 22  1  0
 21 23  1  0
 21 24  1  0
 20 25  1  0
 25 26  2  0
 26 11  1  0
 26 17  1  0
  1 27  1  0
  1 28  1  0
  1 29  1  0
  3 30  1  0
  3 31  1  0
  3 32  1  0
  4 33  1  0
  4 34  1  0
  4 35  1  0
  8 36  1  0
  8 37  1  0
 14 38  1  0
 14 39  1  0
 16 40  1  0
 18 41  1  0
 19 42  1  0
 25 43  1  0
M  END
>  <UniqueID>  (8) 
8

>  <SMILES>  (8) 
CC(C)(C)OC(=O)CC(=O)n1c(C(N)=O)cc2ccc(C(F)(F)F)cc21

>  <Energy>  (8) 
75.3426441385502

>  <Genealogy>  (8) 
CC(C)(C)OC(=O)CC(=O)n1c(C(N)=O)cc2ccc(C(F)(F)F)cc21 (3D coordinates assigned)
CC(C)(C)OC(=O)CC(=O)n1c(C(N)=O)cc2ccc(C(F)(F)F)cc21 (optimized conformer: 75.3426441385502 kcal/mol)

>  <smiles>  (8) 
CC(C)(C)OC(=O)CC(=O)n1c(C(N)=O)cc2ccc(C(F)(F)F)cc21

>  <score_type>  (8) 
oracle

>  <origin>  (8) 
adg

>  <m_score__min__energy>  (8) 
-8.8399999999999999

>  <m_primary>  (8) 
energy

$$$$
8:0
     RDKit          3D

 37 38  0  0  0  0  0  0  0  0999 V2000
   -3.8460   23.4240  -27.9920 C   0  0  0  0  0  0  0  0  0  0  0  0
   -2.9440   22.5730  -28.8780 C   0  0  0  0  0  0  0  0  0  0  0  0
   -2.8590   23.1260  -30.1890 O   0  0  0  0  0  0  0  0  0  0  0  0
   -3.6200   22.6660  -31.2710 C   0  0  0  0  0  0  0  0  0  0  0  0
   -3.0580   22.1220  -32.2600 O   0  0  0  0  0  0  0  0  0  0  0  0
   -5.0460   22.8330  -31.2590 N   0  0  0  0  0  0  0  0  0  0  0  0
   -5.7500   23.9720  -31.0010 C   0  0  0  0  0  0  0  0  0  0  0  0
   -5.1890   25.2430  -30.5000 C   0  0  0  0  0  0  0  0  0  0  0  0
   -3.8680   25.6500  -30.8490 N   0  0  0  0  0  0  0  0  0  0  0  0
   -5.8670   25.9580  -29.7150 O   0  0  0  0  0  0  0  0  0  0  0  0
   -7.1130   23.7580  -31.1940 C   0  0  0  0  0  0  0  0  0  0  0  0
   -7.2260   22.4410  -31.5750 C   0  0  0  0  0  0  0  0  0  0  0  0
   -8.3560   21.6970  -31.9000 C   0  0  0  0  0  0  0  0  0  0  0  0
   -8.1750   20.3580  -32.2860 C   0  0  0  0  0  0  0  0  0  0  0  0
   -6.8760   19.7970  -32.3560 C   0  0  0  0  0  0  0  0  0  0  0  0
   -6.6970   18.3570  -32.7480 C   0  0  0  0  0  0  0  0  0  0  0  0
   -6.1220   18.2720  -34.1250 C   0  0  0  0  0  0  0  0  0  0  0  0
   -6.1020   19.2960  -34.8610 O   0  0  0  0  0  0  0  0  0  0  0  0
   -5.5680   17.0660  -34.5650 O   0  0  0  0  0  0  0  0  0  0  0  0
   -4.1710   16.8050  -34.5250 C   0  0  0  0  0  0  0  0  0  0  0  0
   -5.7520   20.5790  -32.0070 C   0  0  0  0  0  0  0  0  0  0  0  0
   -5.9650   21.9050  -31.6080 C   0  0  0  0  0  0  0  0  0  0  0  0
   -3.6245   23.2150  -26.9350 H   0  0  0  0  0  0  0  0  0  0  0  0
   -3.6659   24.4889  -28.2008 H   0  0  0  0  0  0  0  0  0  0  0  0
   -4.8986   23.1823  -28.2008 H   0  0  0  0  0  0  0  0  0  0  0  0
   -1.9372   22.5338  -28.4366 H   0  0  0  0  0  0  0  0  0  0  0  0
   -3.3696   21.5611  -28.9478 H   0  0  0  0  0  0  0  0  0  0  0  0
   -3.0390   25.2780  -30.3370 H   0  0  0  0  0  0  0  0  0  0  0  0
   -7.9266   24.4876  -31.0683 H   0  0  0  0  0  0  0  0  0  0  0  0
   -9.3604   22.1434  -31.8561 H   0  0  0  0  0  0  0  0  0  0  0  0
   -9.0498   19.7398  -32.5361 H   0  0  0  0  0  0  0  0  0  0  0  0
   -6.0149   17.8676  -32.0372 H   0  0  0  0  0  0  0  0  0  0  0  0
   -7.6748   17.8533  -32.7323 H   0  0  0  0  0  0  0  0  0  0  0  0
   -3.8394   16.7430  -33.4780 H   0  0  0  0  0  0  0  0  0  0  0  0
   -3.9613   15.8521  -35.0330 H   0  0  0  0  0  0  0  0  0  0  0  0
   -3.6314   17.6179  -35.0330 H   0  0  0  0  0  0  0  0  0  0  0  0
   -4.7366   20.1578  -32.0475 H   0  0  0  0  0  0  0  0  0  0  0  0
  1  2  1  0
  2  3  1  0
  3  4  1  0
  4  5  2  0
  4  6  1  0
  6  7  1  0
  7  8  1  0
  8  9  1  0
  8 10  2  0
  7 11  2  0
 11 12  1  0
 12 13  2  0
 13 14  1  0
 14 15  2  0
 15 16  1  0
 16 17  1  0
 17 18  2  0
 17 19  1  0
 19 20  1  0
 15 21  1  0
 21 22  2  0
 22  6  1  0
 22 12  1  0
  1 23  1  0
  1 24  1  0
  1 25  1  0
  2 26  1  0
  2 27  1  0
  9 28  1  0
 11 29  1  0
 13 30  1  0
 14 31  1  0
 16 32  1  0
 16 33  1  0
 20 34  1  0
 20 35  1  0
 20 36  1  0
 21 37  1  0
M  CHG  1   9  -1
M  END
>  <UniqueID>  (9) 
9

>  <SMILES>  (9) 
CCOC(=O)n1c(C([NH-])=O)cc2ccc(CC(=O)OC)cc21

>  <Energy>  (9) 
68.07622222086607

>  <Genealogy>  (9) 
CCOC(=O)n1c(C([NH-])=O)cc2ccc(CC(=O)OC)cc21 (protonated)
CCOC(=O)n1c(C([NH-])=O)cc2ccc(CC(=O)OC)cc21 (3D coordinates assigned)
CCOC(=O)n1c(C([NH-])=O)cc2ccc(CC(=O)OC)cc21 (optimized conformer: 68.07622222086607 kcal/mol)

>  <smiles>  (9) 
CCOC(=O)n1c(C(N)=O)cc2ccc(CC(=O)OC)cc21

>  <score_type>  (9) 
oracle

>  <origin>  (9) 
adg

>  <m_score__min__energy>  (9) 
-9.75

>  <m_primary>  (9) 
energy

$$$$
9:0
     RDKit          3D

 24 25  0  0  0  0  0  0  0  0999 V2000
   -1.6480   25.6770  -28.9730 N   0  0  0  0  0  0  0  0  0  0  0  0
   -1.1060   24.3860  -29.2440 C   0  0  0  0  0  0  0  0  0  0  0  0
    0.0160   24.0760  -28.7630 O   0  0  0  0  0  0  0  0  0  0  0  0
   -1.8650   23.3920  -30.0310 C   0  0  0  0  0  0  0  0  0  0  0  0
   -1.3210   22.1870  -30.4690 C   0  0  0  0  0  0  0  0  0  0  0  0
   -2.3570   21.5170  -31.0760 C   0  0  0  0  0  0  0  0  0  0  0  0
   -2.3710   20.2780  -31.7090 C   0  0  0  0  0  0  0  0  0  0  0  0
   -3.5770   19.8460  -32.2870 C   0  0  0  0  0  0  0  0  0  0  0  0
   -4.7440   20.6510  -32.2160 C   0  0  0  0  0  0  0  0  0  0  0  0
   -6.0140   20.2060  -32.8950 C   0  0  0  0  0  0  0  0  0  0  0  0
   -6.8850   21.2710  -33.0450 F   0  0  0  0  0  0  0  0  0  0  0  0
   -5.7410   19.6890  -34.1500 F   0  0  0  0  0  0  0  0  0  0  0  0
   -6.6230   19.2300  -32.1290 F   0  0  0  0  0  0  0  0  0  0  0  0
   -4.6800   21.9160  -31.5860 C   0  0  0  0  0  0  0  0  0  0  0  0
   -3.4710   22.3110  -31.0010 C   0  0  0  0  0  0  0  0  0  0  0  0
   -3.1850   23.4690  -30.3650 N   0  0  0  0  0  0  0  0  0  0  0  0
   -4.0800   24.5760  -30.1740 C   0  0  0  0  0  0  0  0  0  0  0  0
   -3.8860   25.6630  -30.7780 O   0  0  0  0  0  0  0  0  0  0  0  0
   -5.1830   24.4510  -29.3390 O   0  0  0  0  0  0  0  0  0  0  0  0
   -2.6800   25.8380  -28.9820 H   0  0  0  0  0  0  0  0  0  0  0  0
   -0.2823   21.8439  -30.3537 H   0  0  0  0  0  0  0  0  0  0  0  0
   -1.4654   19.6553  -31.7556 H   0  0  0  0  0  0  0  0  0  0  0  0
   -3.6170   18.8737  -32.7999 H   0  0  0  0  0  0  0  0  0  0  0  0
   -5.5606   22.5746  -31.5564 H   0  0  0  0  0  0  0  0  0  0  0  0
  1  2  1  0
  2  3  2  0
  2  4  1  0
  4  5  2  0
  5  6  1  0
  6  7  2  0
  7  8  1  0
  8  9  2  0
  9 10  1  0
 10 11  1  0
 10 12  1  0
 10 13  1  0
  9 14  1  0
 14 15  2  0
 15 16  1  0
 16 17  1  0
 17 18  2  0
 17 19  1  0
 16  4  1  0
 15  6  1  0
  1 20  1  0
  5 21  1  0
  7 22  1  0
  8 23  1  0
 14 24  1  0
M  CHG  2   1  -1  19  -1
M  END
>  <UniqueID>  (10) 
10

>  <SMILES>  (10) 
[NH-]C(=O)c1cc2ccc(C(F)(F)F)cc2n1C(=O)[O-]

>  <Energy>  (10) 
65.22263825877855

>  <Genealogy>  (10) 
[NH-]C(=O)c1cc2ccc(C(F)(F)F)cc2n1C(=O)[O-] (protonated)
[NH-]C(=O)c1cc2ccc(C(F)(F)F)cc2n1C(=O)[O-] (3D coordinates assigned)
[NH-]C(=O)c1cc2ccc(C(F)(F)F)cc2n1C(=O)[O-] (optimized conformer: 65.22263825877855 kcal/mol)

>  <smiles>  (10) 
NC(=O)c1cc2ccc(C(F)(F)F)cc2n1C(=O)O

>  <score_type>  (10) 
oracle

>  <origin>  (10) 
adg

>  <m_score__min__energy>  (10) 
-9.7100000000000009

>  <m_primary>  (10) 
energy

$$$$
10:0
     RDKit          3D

 48 51  0  0  0  0  0  0  0  0999 V2000
   -4.8390   17.6030  -32.5260 C   0  0  0  0  0  0  0  0  0  0  0  0
   -4.4750   17.7440  -34.0220 C   0  0  0  0  0  0  0  0  0  0  0  0
   -3.7180   16.4650  -34.4510 C   0  0  0  0  0  0  0  0  0  0  0  0
   -5.7770   17.9240  -34.8420 C   0  0  0  0  0  0  0  0  0  0  0  0
   -6.1030   19.2810  -34.9990 O   0  0  0  0  0  0  0  0  0  0  0  0
   -3.6280   18.9470  -34.1790 N   0  0  0  0  0  0  0  0  0  0  0  0
   -2.9400   19.6510  -33.1260 C   0  0  0  0  0  0  0  0  0  0  0  0
   -1.6280   19.2940  -32.7150 C   0  0  0  0  0  0  0  0  0  0  0  0
   -0.9680   20.0160  -31.7060 C   0  0  0  0  0  0  0  0  0  0  0  0
   -1.6340   21.0930  -31.1320 C   0  0  0  0  0  0  0  0  0  0  0  0
   -1.2250   21.9740  -30.1560 C   0  0  0  0  0  0  0  0  0  0  0  0
   -2.2900   22.8570  -29.9850 C   0  0  0  0  0  0  0  0  0  0  0  0
   -2.3100   23.9270  -28.9660 C   0  0  0  0  0  0  0  0  0  0  0  0
   -2.4930   25.2900  -29.3360 N   0  0  0  0  0  0  0  0  0  0  0  0
   -2.2000   23.6290  -27.7460 O   0  0  0  0  0  0  0  0  0  0  0  0
   -3.3100   22.5400  -30.8320 N   0  0  0  0  0  0  0  0  0  0  0  0
   -4.5490   23.2390  -31.0280 C   0  0  0  0  0  0  0  0  0  0  0  0
   -4.5780   24.4950  -30.9420 O   0  0  0  0  0  0  0  0  0  0  0  0
   -5.7920   22.4990  -31.2800 C   0  0  0  0  0  0  0  0  0  0  0  0
   -6.9870   23.1070  -31.5140 N   0  0  0  0  0  0  0  0  0  0  0  0
   -7.8050   22.0540  -31.6840 C   0  0  0  0  0  0  0  0  0  0  0  0
   -9.1690   22.0650  -31.9590 C   0  0  0  0  0  0  0  0  0  0  0  0
   -9.8180   20.8230  -32.0960 C   0  0  0  0  0  0  0  0  0  0  0  0
   -9.0920   19.6160  -31.9570 C   0  0  0  0  0  0  0  0  0  0  0  0
   -9.7270   18.4260  -32.0920 F   0  0  0  0  0  0  0  0  0  0  0  0
   -7.7120   19.6440  -31.6790 C   0  0  0  0  0  0  0  0  0  0  0  0
   -7.1080   20.8920  -31.5500 C   0  0  0  0  0  0  0  0  0  0  0  0
   -5.8600   21.1770  -31.2980 O   0  0  0  0  0  0  0  0  0  0  0  0
   -2.8960   21.4570  -31.5210 C   0  0  0  0  0  0  0  0  0  0  0  0
   -3.5720   20.7650  -32.5300 C   0  0  0  0  0  0  0  0  0  0  0  0
   -3.9896   17.9320  -31.9094 H   0  0  0  0  0  0  0  0  0  0  0  0
   -5.7176   18.2258  -32.3021 H   0  0  0  0  0  0  0  0  0  0  0  0
   -5.0688   16.5508  -32.3021 H   0  0  0  0  0  0  0  0  0  0  0  0
   -3.3921   15.9143  -33.5563 H   0  0  0  0  0  0  0  0  0  0  0  0
   -4.3847   15.8281  -35.0509 H   0  0  0  0  0  0  0  0  0  0  0  0
   -2.8389   16.7431  -35.0509 H   0  0  0  0  0  0  0  0  0  0  0  0
   -5.6391   17.4723  -35.8354 H   0  0  0  0  0  0  0  0  0  0  0  0
   -6.5976   17.4325  -34.2988 H   0  0  0  0  0  0  0  0  0  0  0  0
   -7.0540   19.3180  -35.2830 H   0  0  0  0  0  0  0  0  0  0  0  0
   -3.6730   19.4480  -35.0970 H   0  0  0  0  0  0  0  0  0  0  0  0
   -1.1223   18.4418  -33.1925 H   0  0  0  0  0  0  0  0  0  0  0  0
    0.0450   19.7374  -31.3802 H   0  0  0  0  0  0  0  0  0  0  0  0
   -0.2622   21.9798  -29.6241 H   0  0  0  0  0  0  0  0  0  0  0  0
   -3.4440   25.6670  -29.5450 H   0  0  0  0  0  0  0  0  0  0  0  0
   -9.7208   23.0106  -32.0656 H   0  0  0  0  0  0  0  0  0  0  0  0
  -10.8960   20.7906  -32.3124 H   0  0  0  0  0  0  0  0  0  0  0  0
   -7.1330   18.7153  -31.5679 H   0  0  0  0  0  0  0  0  0  0  0  0
   -4.5748   21.0812  -32.8531 H   0  0  0  0  0  0  0  0  0  0  0  0
  1  2  1  0
  2  3  1  0
  2  4  1  0
  4  5  1  0
  2  6  1  0
  6  7  1  0
  7  8  2  0
  8  9  1  0
  9 10  2  0
 10 11  1  0
 11 12  2  0
 12 13  1  0
 13 14  1  0
 13 15  2  0
 12 16  1  0
 16 17  1  0
 17 18  2  0
 17 19  1  0
 19 20  2  0
 20 21  1  0
 21 22  2  0
 22 23  1  0
 23 24  2  0
 24 25  1  0
 24 26  1  0
 26 27  2  0
 27 28  1  0
 16 29  1  0
 29 30  2  0
 30  7  1  0
 29 10  1  0
 28 19  1  0
 27 21  1  0
  1 31  1  0
  1 32  1  0
  1 33  1  0
  3 34  1  0
  3 35  1  0
  3 36  1  0
  4 37  1  0
  4 38  1  0
  5 39  1  0
  6 40  1  0
  8 41  1  0
  9 42  1  0
 11 43  1  0
 14 44  1  0
 22 45  1  0
 23 46  1  0
 26 47  1  0
 30 48  1  0
M  CHG  1  14  -1
M  END
>  <UniqueID>  (11) 
11

>  <SMILES>  (11) 
CC(C)(CO)Nc1ccc2cc(C([NH-])=O)n(C(=O)c3nc4ccc(F)cc4o3)c2c1

>  <Energy>  (11) 
131.99955017712458

>  <Genealogy>  (11) 
CC(C)(CO)Nc1ccc2cc(C([NH-])=O)n(C(=O)c3nc4ccc(F)cc4o3)c2c1 (protonated)
CC(C)(CO)Nc1ccc2cc(C([NH-])=O)n(C(=O)c3nc4ccc(F)cc4o3)c2c1 (3D coordinates assigned)
CC(C)(CO)Nc1ccc2cc(C([NH-])=O)n(C(=O)c3nc4ccc(F)cc4o3)c2c1 (optimized conformer: 131.99955017712458 kcal/mol)

>  <smiles>  (11) 
CC(C)(CO)Nc1ccc2cc(C(N)=O)n(C(=O)c3nc4ccc(F)cc4o3)c2c1

>  <score_type>  (11) 
oracle

>  <origin>  (11) 
adg

>  <m_score__min__energy>  (11) 
-11.789999999999999

>  <m_primary>  (11) 
energy

$$$$
11:0
     RDKit          3D

 31 32  0  0  0  0  0  0  0  0999 V2000
   -8.6940   18.8630  -31.7940 C   0  0  0  0  0  0  0  0  0  0  0  0
   -7.5830   19.5840  -31.6560 C   0  0  0  0  0  0  0  0  0  0  0  0
   -6.7530   19.9980  -32.8030 C   0  0  0  0  0  0  0  0  0  0  0  0
   -7.3210   20.4030  -33.8520 O   0  0  0  0  0  0  0  0  0  0  0  0
   -5.3170   19.9380  -32.7580 N   0  0  0  0  0  0  0  0  0  0  0  0
   -4.4990   19.1760  -33.5360 C   0  0  0  0  0  0  0  0  0  0  0  0
   -4.9380   18.1320  -34.4840 C   0  0  0  0  0  0  0  0  0  0  0  0
   -6.0970   18.3070  -35.3010 N   0  0  0  0  0  0  0  0  0  0  0  0
   -4.3020   17.0460  -34.5460 O   0  0  0  0  0  0  0  0  0  0  0  0
   -3.1640   19.5130  -33.3210 C   0  0  0  0  0  0  0  0  0  0  0  0
   -3.1890   20.5160  -32.3780 C   0  0  0  0  0  0  0  0  0  0  0  0
   -2.1460   21.2380  -31.8080 C   0  0  0  0  0  0  0  0  0  0  0  0
   -2.4690   22.2520  -30.8900 C   0  0  0  0  0  0  0  0  0  0  0  0
   -3.8230   22.5380  -30.5800 C   0  0  0  0  0  0  0  0  0  0  0  0
   -4.1570   23.6100  -29.5800 C   0  0  0  0  0  0  0  0  0  0  0  0
   -3.4860   24.8910  -29.9580 C   0  0  0  0  0  0  0  0  0  0  0  0
   -3.9930   25.6350  -30.8380 O   0  0  0  0  0  0  0  0  0  0  0  0
   -2.3270   25.2890  -29.3040 O   0  0  0  0  0  0  0  0  0  0  0  0
   -4.8550   21.7820  -31.1750 C   0  0  0  0  0  0  0  0  0  0  0  0
   -4.5010   20.7610  -32.0630 C   0  0  0  0  0  0  0  0  0  0  0  0
   -9.2791   18.5790  -30.9069 H   0  0  0  0  0  0  0  0  0  0  0  0
   -9.0267   18.5514  -32.7951 H   0  0  0  0  0  0  0  0  0  0  0  0
   -7.2712   19.8833  -30.6445 H   0  0  0  0  0  0  0  0  0  0  0  0
   -6.7590   19.0980  -35.1390 H   0  0  0  0  0  0  0  0  0  0  0  0
   -6.3540   17.5810  -36.0060 H   0  0  0  0  0  0  0  0  0  0  0  0
   -2.2787   19.0717  -33.8022 H   0  0  0  0  0  0  0  0  0  0  0  0
   -1.0992   21.0219  -32.0679 H   0  0  0  0  0  0  0  0  0  0  0  0
   -1.6654   22.8283  -30.4082 H   0  0  0  0  0  0  0  0  0  0  0  0
   -5.2463   23.7619  -29.5595 H   0  0  0  0  0  0  0  0  0  0  0  0
   -3.8042   23.2981  -28.5859 H   0  0  0  0  0  0  0  0  0  0  0  0
   -5.9107   21.9902  -30.9464 H   0  0  0  0  0  0  0  0  0  0  0  0
  1  2  2  0
  2  3  1  0
  3  4  2  0
  3  5  1  0
  5  6  1  0
  6  7  1  0
  7  8  1  0
  7  9  2  0
  6 10  2  0
 10 11  1  0
 11 12  2  0
 12 13  1  0
 13 14  2  0
 14 15  1  0
 15 16  1  0
 16 17  2  0
 16 18  1  0
 14 19  1  0
 19 20  2  0
 20  5  1  0
 20 11  1  0
  1 21  1  0
  1 22  1  0
  2 23  1  0
  8 24  1  0
  8 25  1  0
 10 26  1  0
 12 27  1  0
 13 28  1  0
 15 29  1  0
 15 30  1  0
 19 31  1  0
M  CHG  1  18  -1
M  END
>  <UniqueID>  (12) 
12

>  <SMILES>  (12) 
C=CC(=O)n1c(C(N)=O)cc2ccc(CC(=O)[O-])cc21

>  <Energy>  (12) 
68.85868970370086

>  <Genealogy>  (12) 
C=CC(=O)n1c(C(N)=O)cc2ccc(CC(=O)[O-])cc21 (protonated)
C=CC(=O)n1c(C(N)=O)cc2ccc(CC(=O)[O-])cc21 (3D coordinates assigned)
C=CC(=O)n1c(C(N)=O)cc2ccc(CC(=O)[O-])cc21 (optimized conformer: 68.85868970370086 kcal/mol)

>  <smiles>  (12) 
C=CC(=O)n1c(C(N)=O)cc2ccc(CC(=O)O)cc21

>  <score_type>  (12) 
oracle

>  <origin>  (12) 
adg

>  <m_score__min__energy>  (12) 
-9.5899999999999999

>  <m_primary>  (12) 
energy

$$$$
12:0
     RDKit          3D

 46 48  0  0  0  0  0  0  0  0999 V2000
   -8.0280   22.2640  -31.9690 C   0  0  0  0  0  0  0  0  0  0  0  0
   -9.1500   21.3240  -31.5440 C   0  0  0  0  0  0  0  0  0  0  0  0
   -9.2360   20.2110  -32.4330 O   0  0  0  0  0  0  0  0  0  0  0  0
   -8.7580   18.9320  -32.1210 C   0  0  0  0  0  0  0  0  0  0  0  0
   -9.5120   18.0980  -31.5470 O   0  0  0  0  0  0  0  0  0  0  0  0
   -7.3640   18.5640  -32.4570 C   0  0  0  0  0  0  0  0  0  0  0  0
   -7.0840   17.3630  -33.1320 C   0  0  0  0  0  0  0  0  0  0  0  0
   -5.7690   17.0230  -33.4520 C   0  0  0  0  0  0  0  0  0  0  0  0
   -4.7180   17.8730  -33.1040 C   0  0  0  0  0  0  0  0  0  0  0  0
   -4.9720   19.0800  -32.4280 C   0  0  0  0  0  0  0  0  0  0  0  0
   -3.8550   19.9830  -32.0580 C   0  0  0  0  0  0  0  0  0  0  0  0
   -2.5980   19.8750  -32.7120 C   0  0  0  0  0  0  0  0  0  0  0  0
   -1.5300   20.7170  -32.3610 C   0  0  0  0  0  0  0  0  0  0  0  0
   -1.7430   21.6620  -31.3630 C   0  0  0  0  0  0  0  0  0  0  0  0
   -0.8780   22.5770  -30.8120 C   0  0  0  0  0  0  0  0  0  0  0  0
   -1.6190   23.2530  -29.8450 C   0  0  0  0  0  0  0  0  0  0  0  0
   -1.0910   24.3890  -29.0620 C   0  0  0  0  0  0  0  0  0  0  0  0
   -1.8160   25.6130  -28.9660 N   0  0  0  0  0  0  0  0  0  0  0  0
    0.0380   24.2950  -28.5110 O   0  0  0  0  0  0  0  0  0  0  0  0
   -2.8930   22.7670  -29.7940 N   0  0  0  0  0  0  0  0  0  0  0  0
   -3.9320   23.1280  -28.8720 C   0  0  0  0  0  0  0  0  0  0  0  0
   -4.2920   22.3110  -27.9820 O   0  0  0  0  0  0  0  0  0  0  0  0
   -4.5190   24.3990  -28.9580 O   0  0  0  0  0  0  0  0  0  0  0  0
   -5.0060   24.9820  -30.1360 C   0  0  0  0  0  0  0  0  0  0  0  0
   -6.4630   24.8980  -30.4390 C   0  0  0  0  0  0  0  0  0  0  0  0
   -4.2460   25.6150  -30.9180 O   0  0  0  0  0  0  0  0  0  0  0  0
   -2.9520   21.7950  -30.7330 C   0  0  0  0  0  0  0  0  0  0  0  0
   -4.0290   20.9580  -31.0480 C   0  0  0  0  0  0  0  0  0  0  0  0
   -6.3010   19.4160  -32.1100 C   0  0  0  0  0  0  0  0  0  0  0  0
   -7.5364   22.6758  -31.0753 H   0  0  0  0  0  0  0  0  0  0  0  0
   -7.2921   21.7088  -32.5692 H   0  0  0  0  0  0  0  0  0  0  0  0
   -8.4457   23.0857  -32.5692 H   0  0  0  0  0  0  0  0  0  0  0  0
   -8.9497   20.9589  -30.5259 H   0  0  0  0  0  0  0  0  0  0  0  0
  -10.1025   21.8736  -31.5704 H   0  0  0  0  0  0  0  0  0  0  0  0
   -7.9064   16.6873  -33.4096 H   0  0  0  0  0  0  0  0  0  0  0  0
   -5.5598   16.0813  -33.9806 H   0  0  0  0  0  0  0  0  0  0  0  0
   -3.6844   17.5971  -33.3601 H   0  0  0  0  0  0  0  0  0  0  0  0
   -2.4597   19.1229  -33.5027 H   0  0  0  0  0  0  0  0  0  0  0  0
   -0.5538   20.6315  -32.8607 H   0  0  0  0  0  0  0  0  0  0  0  0
    0.1766   22.7410  -31.0783 H   0  0  0  0  0  0  0  0  0  0  0  0
   -2.7960   25.6850  -29.3190 H   0  0  0  0  0  0  0  0  0  0  0  0
   -7.0319   24.8652  -29.4981 H   0  0  0  0  0  0  0  0  0  0  0  0
   -6.7679   25.7801  -31.0213 H   0  0  0  0  0  0  0  0  0  0  0  0
   -6.6645   23.9867  -31.0213 H   0  0  0  0  0  0  0  0  0  0  0  0
   -4.9898   21.0564  -30.5215 H   0  0  0  0  0  0  0  0  0  0  0  0
   -6.5110   20.3582  -31.5827 H   0  0  0  0  0  0  0  0  0  0  0  0
  1  2  1  0
  2  3  1  0
  3  4  1  0
  4  5  2  0
  4  6  1  0
  6  7  2  0
  7  8  1  0
  8  9  2  0
  9 10  1  0
 10 11  1  0
 11 12  2  0
 12 13  1  0
 13 14  2  0
 14 15  1  0
 15 16  2  0
 16 17  1  0
 17 18  1  0
 17 19  2  0
 16 20  1  0
 20 21  1  0
 21 22  2  0
 21 23  1  0
 23 24  1  0
 24 25  1  0
 24 26  2  0
 20 27  1  0
 27 28  2  0
 10 29  2  0
 29  6  1  0
 28 11  1  0
 27 14  1  0
  1 30  1  0
  1 31  1  0
  1 32  1  0
  2 33  1  0
  2 34  1  0
  7 35  1  0
  8 36  1  0
  9 37  1  0
 12 38  1  0
 13 39  1  0
 15 40  1  0
 18 41  1  0
 25 42  1  0
 25 43  1  0
 25 44  1  0
 28 45  1  0
 29 46  1  0
M  CHG  1  18  -1
M  END
>  <UniqueID>  (13) 
13

>  <SMILES>  (13) 
CCOC(=O)c1cccc(-c2ccc3cc(C([NH-])=O)n(C(=O)OC(C)=O)c3c2)c1

>  <Energy>  (13) 
88.61951769772246

>  <Genealogy>  (13) 
CCOC(=O)c1cccc(-c2ccc3cc(C([NH-])=O)n(C(=O)OC(C)=O)c3c2)c1 (protonated)
CCOC(=O)c1cccc(-c2ccc3cc(C([NH-])=O)n(C(=O)OC(C)=O)c3c2)c1 (3D coordinates assigned)
CCOC(=O)c1cccc(-c2ccc3cc(C([NH-])=O)n(C(=O)OC(C)=O)c3c2)c1 (optimized conformer: 88.61951769772246 kcal/mol)

>  <smiles>  (13) 
CCOC(=O)c1cccc(-c2ccc3cc(C(N)=O)n(C(=O)OC(C)=O)c3c2)c1

>  <score_type>  (13) 
oracle

>  <origin>  (13) 
adg

>  <m_score__min__energy>  (13) 
-11.65

>  <m_primary>  (13) 
energy

$$$$
13:0
     RDKit          3D

 45 47  0  0  0  0  0  0  0  0999 V2000
   -5.2070   23.6430  -29.6790 C   0  0  0  0  0  0  0  0  0  0  0  0
   -3.9810   24.1100  -30.3960 C   0  0  0  0  0  0  0  0  0  0  0  0
   -3.9380   25.2880  -30.8410 O   0  0  0  0  0  0  0  0  0  0  0  0
   -2.8540   23.2380  -30.5740 N   0  0  0  0  0  0  0  0  0  0  0  0
   -1.6310   23.3300  -29.9800 C   0  0  0  0  0  0  0  0  0  0  0  0
   -1.1660   24.4370  -29.1170 C   0  0  0  0  0  0  0  0  0  0  0  0
   -1.9420   25.6230  -28.9600 N   0  0  0  0  0  0  0  0  0  0  0  0
   -0.0530   24.3480  -28.5340 O   0  0  0  0  0  0  0  0  0  0  0  0
   -0.8290   22.2490  -30.3430 C   0  0  0  0  0  0  0  0  0  0  0  0
   -1.6050   21.4860  -31.1860 C   0  0  0  0  0  0  0  0  0  0  0  0
   -1.3170   20.2830  -31.8230 C   0  0  0  0  0  0  0  0  0  0  0  0
   -2.3250   19.6960  -32.6070 C   0  0  0  0  0  0  0  0  0  0  0  0
   -3.5920   20.3170  -32.7380 C   0  0  0  0  0  0  0  0  0  0  0  0
   -4.6780   19.6520  -33.5390 C   0  0  0  0  0  0  0  0  0  0  0  0
   -5.3610   18.5570  -32.7170 C   0  0  0  0  0  0  0  0  0  0  0  0
   -6.0260   19.1280  -31.6040 O   0  0  0  0  0  0  0  0  0  0  0  0
   -7.1730   19.8500  -32.0130 C   0  0  2  0  0  0  0  0  0  0  0  0
   -7.2250   21.1800  -31.2330 C   0  0  0  0  0  0  0  0  0  0  0  0
   -8.6710   21.6360  -30.9790 C   0  0  0  0  0  0  0  0  0  0  0  0
   -9.5920   21.1890  -32.1150 C   0  0  0  0  0  0  0  0  0  0  0  0
   -9.4710   19.6670  -32.3570 C   0  0  0  0  0  0  0  0  0  0  0  0
   -8.3350   19.0860  -31.7330 O   0  0  0  0  0  0  0  0  0  0  0  0
   -3.8510   21.5310  -32.0640 C   0  0  0  0  0  0  0  0  0  0  0  0
   -2.8230   22.1030  -31.3080 C   0  0  0  0  0  0  0  0  0  0  0  0
   -5.0429   23.7055  -28.5931 H   0  0  0  0  0  0  0  0  0  0  0  0
   -6.0598   24.2793  -29.9582 H   0  0  0  0  0  0  0  0  0  0  0  0
   -5.4204   22.6006  -29.9582 H   0  0  0  0  0  0  0  0  0  0  0  0
   -2.9270   25.6690  -29.3010 H   0  0  0  0  0  0  0  0  0  0  0  0
    0.2043   22.0484  -30.0237 H   0  0  0  0  0  0  0  0  0  0  0  0
   -0.3314   19.8063  -31.7163 H   0  0  0  0  0  0  0  0  0  0  0  0
   -2.1285   18.7452  -33.1240 H   0  0  0  0  0  0  0  0  0  0  0  0
   -5.4254   20.4050  -33.8295 H   0  0  0  0  0  0  0  0  0  0  0  0
   -4.2294   19.1956  -34.4337 H   0  0  0  0  0  0  0  0  0  0  0  0
   -6.0929   18.0313  -33.3479 H   0  0  0  0  0  0  0  0  0  0  0  0
   -4.6001   17.8486  -32.3576 H   0  0  0  0  0  0  0  0  0  0  0  0
   -7.1266   20.0530  -33.0931 H   0  0  0  0  0  0  0  0  0  0  0  0
   -6.7188   21.0456  -30.2657 H   0  0  0  0  0  0  0  0  0  0  0  0
   -6.7243   21.9508  -31.8372 H   0  0  0  0  0  0  0  0  0  0  0  0
   -9.0259   21.1983  -30.0343 H   0  0  0  0  0  0  0  0  0  0  0  0
   -8.6885   22.7345  -30.9242 H   0  0  0  0  0  0  0  0  0  0  0  0
  -10.6323   21.4301  -31.8512 H   0  0  0  0  0  0  0  0  0  0  0  0
   -9.2968   21.7156  -33.0346 H   0  0  0  0  0  0  0  0  0  0  0  0
  -10.3739   19.1782  -31.9624 H   0  0  0  0  0  0  0  0  0  0  0  0
   -9.3582   19.5181  -33.4410 H   0  0  0  0  0  0  0  0  0  0  0  0
   -4.8367   22.0144  -32.1321 H   0  0  0  0  0  0  0  0  0  0  0  0
  1  2  1  0
  2  3  2  0
  2  4  1  0
  4  5  1  0
  5  6  1  0
  6  7  1  0
  6  8  2  0
  5  9  2  0
  9 10  1  0
 10 11  2  0
 11 12  1  0
 12 13  2  0
 13 14  1  0
 14 15  1  0
 15 16  1  0
 16 17  1  0
 17 18  1  0
 18 19  1  0
 19 20  1  0
 20 21  1  0
 21 22  1  0
 13 23  1  0
 23 24  2  0
 24  4  1  0
 24 10  1  0
 22 17  1  0
  1 25  1  0
  1 26  1  0
  1 27  1  0
  7 28  1  0
  9 29  1  0
 11 30  1  0
 12 31  1  0
 14 32  1  0
 14 33  1  0
 15 34  1  0
 15 35  1  0
 17 36  1  6
 18 37  1  0
 18 38  1  0
 19 39  1  0
 19 40  1  0
 20 41  1  0
 20 42  1  0
 21 43  1  0
 21 44  1  0
 23 45  1  0
M  CHG  1   7  -1
M  END
>  <UniqueID>  (14) 
14

>  <SMILES>  (14) 
CC(=O)n1c(C([NH-])=O)cc2ccc(CCO[C@@H]3CCCCO3)cc21

>  <Energy>  (14) 
90.76747579837252

>  <Genealogy>  (14) 
CC(=O)n1c(C([NH-])=O)cc2ccc(CCOC3CCCCO3)cc21 (protonated)
CC(=O)n1c(C([NH-])=O)cc2ccc(CCO[C@@H]3CCCCO3)cc21 (chirality)
CC(=O)n1c(C([NH-])=O)cc2ccc(CCO[C@@H]3CCCCO3)cc21 (3D coordinates assigned)
CC(=O)n1c(C([NH-])=O)cc2ccc(CCO[C@@H]3CCCCO3)cc21 (nonaromatic ring conformer: 90.76747579837252 kcal/mol)

>  <smiles>  (14) 
CC(=O)n1c(C(N)=O)cc2ccc(CCOC3CCCCO3)cc21

>  <score_type>  (14) 
oracle

>  <origin>  (14) 
adg

>  <m_score__min__energy>  (14) 
-11.050000000000001

>  <m_primary>  (14) 
energy

$$$$
14:0
     RDKit          3D

 29 30  0  0  0  0  0  0  0  0999 V2000
   -1.7400   21.2110  -32.0110 C   0  0  0  0  0  0  0  0  0  0  0  0
   -3.0170   21.9390  -32.2860 C   0  0  0  0  0  0  0  0  0  0  0  0
   -3.4940   21.9340  -33.4530 O   0  0  0  0  0  0  0  0  0  0  0  0
   -3.7040   22.6860  -31.2170 C   0  0  0  0  0  0  0  0  0  0  0  0
   -3.0450   23.1330  -30.2390 O   0  0  0  0  0  0  0  0  0  0  0  0
   -5.1200   22.9140  -31.2780 N   0  0  0  0  0  0  0  0  0  0  0  0
   -5.8010   24.0310  -30.8990 C   0  0  0  0  0  0  0  0  0  0  0  0
   -5.1960   25.3050  -30.4550 C   0  0  0  0  0  0  0  0  0  0  0  0
   -3.8770   25.6720  -30.8510 N   0  0  0  0  0  0  0  0  0  0  0  0
   -5.8640   26.0950  -29.7360 O   0  0  0  0  0  0  0  0  0  0  0  0
   -7.1750   23.8330  -31.0320 C   0  0  0  0  0  0  0  0  0  0  0  0
   -7.3140   22.5470  -31.5060 C   0  0  0  0  0  0  0  0  0  0  0  0
   -8.4620   21.8160  -31.7890 C   0  0  0  0  0  0  0  0  0  0  0  0
   -8.3080   20.4890  -32.2250 C   0  0  0  0  0  0  0  0  0  0  0  0
   -7.0150   19.9210  -32.3800 C   0  0  0  0  0  0  0  0  0  0  0  0
   -6.8650   18.4790  -32.7910 C   0  0  0  0  0  0  0  0  0  0  0  0
   -5.9090   17.8460  -32.0150 F   0  0  0  0  0  0  0  0  0  0  0  0
   -6.4790   18.4220  -34.1170 F   0  0  0  0  0  0  0  0  0  0  0  0
   -8.0630   17.8010  -32.6410 F   0  0  0  0  0  0  0  0  0  0  0  0
   -5.8740   20.6910  -32.0560 C   0  0  0  0  0  0  0  0  0  0  0  0
   -6.0590   22.0140  -31.6420 C   0  0  0  0  0  0  0  0  0  0  0  0
   -1.5926   21.1270  -30.9242 H   0  0  0  0  0  0  0  0  0  0  0  0
   -1.7889   20.2050  -32.4533 H   0  0  0  0  0  0  0  0  0  0  0  0
   -0.8992   21.7655  -32.4533 H   0  0  0  0  0  0  0  0  0  0  0  0
   -3.0410   25.2940  -30.3530 H   0  0  0  0  0  0  0  0  0  0  0  0
   -7.9772   24.5510  -30.8064 H   0  0  0  0  0  0  0  0  0  0  0  0
   -9.4607   22.2628  -31.6751 H   0  0  0  0  0  0  0  0  0  0  0  0
   -9.1985   19.8833  -32.4488 H   0  0  0  0  0  0  0  0  0  0  0  0
   -4.8647   20.2595  -32.1279 H   0  0  0  0  0  0  0  0  0  0  0  0
  1  2  1  0
  2  3  2  0
  2  4  1  0
  4  5  2  0
  4  6  1  0
  6  7  1  0
  7  8  1  0
  8  9  1  0
  8 10  2  0
  7 11  2  0
 11 12  1  0
 12 13  2  0
 13 14  1  0
 14 15  2  0
 15 16  1  0
 16 17  1  0
 16 18  1  0
 16 19  1  0
 15 20  1  0
 20 21  2  0
 21  6  1  0
 21 12  1  0
  1 22  1  0
  1 23  1  0
  1 24  1  0
  9 25  1  0
 11 26  1  0
 13 27  1  0
 14 28  1  0
 20 29  1  0
M  CHG  1   9  -1
M  END
>  <UniqueID>  (15) 
15

>  <SMILES>  (15) 
CC(=O)C(=O)n1c(C([NH-])=O)cc2ccc(C(F)(F)F)cc21

>  <Energy>  (15) 
68.18665451373397

>  <Genealogy>  (15) 
CC(=O)C(=O)n1c(C([NH-])=O)cc2ccc(C(F)(F)F)cc21 (protonated)
CC(=O)C(=O)n1c(C([NH-])=O)cc2ccc(C(F)(F)F)cc21 (3D coordinates assigned)
CC(=O)C(=O)n1c(C([NH-])=O)cc2ccc(C(F)(F)F)cc21 (optimized conformer: 68.18665451373397 kcal/mol)

>  <smiles>  (15) 
CC(=O)C(=O)n1c(C(N)=O)cc2ccc(C(F)(F)F)cc21

>  <score_type>  (15) 
oracle

>  <origin>  (15) 
adg

>  <m_score__min__energy>  (15) 
-9.3399999999999999

>  <m_primary>  (15) 
energy

$$$$
15:0
     RDKit          3D

 34 36  0  0  0  0  0  0  0  0999 V2000
   -3.8620   25.3410  -30.5440 N   0  0  0  0  0  0  0  0  0  0  0  0
   -5.2620   25.1320  -30.3870 C   0  0  0  0  0  0  0  0  0  0  0  0
   -5.9690   26.0550  -29.9010 O   0  0  0  0  0  0  0  0  0  0  0  0
   -5.8980   23.8600  -30.7960 C   0  0  0  0  0  0  0  0  0  0  0  0
   -7.2440   23.7480  -31.1470 C   0  0  0  0  0  0  0  0  0  0  0  0
   -7.4210   22.4290  -31.4990 C   0  0  0  0  0  0  0  0  0  0  0  0
   -8.5620   21.7620  -31.9330 C   0  0  0  0  0  0  0  0  0  0  0  0
   -8.4560   20.3900  -32.2160 C   0  0  0  0  0  0  0  0  0  0  0  0
   -7.2240   19.7050  -32.0370 C   0  0  0  0  0  0  0  0  0  0  0  0
   -7.1140   18.2420  -32.3830 C   0  0  0  0  0  0  0  0  0  0  0  0
   -6.2550   17.5970  -31.5100 F   0  0  0  0  0  0  0  0  0  0  0  0
   -6.6260   18.0790  -33.6690 F   0  0  0  0  0  0  0  0  0  0  0  0
   -8.3630   17.6580  -32.2980 F   0  0  0  0  0  0  0  0  0  0  0  0
   -6.0830   20.4250  -31.6160 C   0  0  0  0  0  0  0  0  0  0  0  0
   -6.2170   21.7920  -31.3570 C   0  0  0  0  0  0  0  0  0  0  0  0
   -5.2730   22.6570  -30.9300 N   0  0  0  0  0  0  0  0  0  0  0  0
   -3.8950   22.3500  -30.6800 C   0  0  0  0  0  0  0  0  0  0  0  0
   -3.1150   22.1370  -31.6470 O   0  0  0  0  0  0  0  0  0  0  0  0
   -3.3970   22.2050  -29.2740 C   0  0  0  0  0  0  0  0  0  0  0  0
   -2.4590   23.2810  -28.9700 N   0  0  0  0  0  0  0  0  0  0  0  0
   -2.5740   24.1990  -27.9970 C   0  0  0  0  0  0  0  0  0  0  0  0
   -1.4280   24.9610  -28.0000 C   0  0  0  0  0  0  0  0  0  0  0  0
   -0.5910   24.5180  -28.9620 N   0  0  0  0  0  0  0  0  0  0  0  0
   -1.2520   23.4870  -29.5300 C   0  0  0  0  0  0  0  0  0  0  0  0
   -3.4950   26.0460  -31.2210 H   0  0  0  0  0  0  0  0  0  0  0  0
   -8.0025   24.5446  -31.1432 H   0  0  0  0  0  0  0  0  0  0  0  0
   -9.5182   22.2927  -32.0510 H   0  0  0  0  0  0  0  0  0  0  0  0
   -9.3363   19.8400  -32.5801 H   0  0  0  0  0  0  0  0  0  0  0  0
   -5.1125   19.9215  -31.4950 H   0  0  0  0  0  0  0  0  0  0  0  0
   -4.2475   22.2541  -28.5781 H   0  0  0  0  0  0  0  0  0  0  0  0
   -2.8868   21.2364  -29.1667 H   0  0  0  0  0  0  0  0  0  0  0  0
   -3.4313   24.3204  -27.3185 H   0  0  0  0  0  0  0  0  0  0  0  0
   -1.2250   25.8029  -27.3218 H   0  0  0  0  0  0  0  0  0  0  0  0
   -0.8499   22.8833  -30.3570 H   0  0  0  0  0  0  0  0  0  0  0  0
  1  2  1  0
  2  3  2  0
  2  4  1  0
  4  5  2  0
  5  6  1  0
  6  7  2  0
  7  8  1  0
  8  9  2  0
  9 10  1  0
 10 11  1  0
 10 12  1  0
 10 13  1  0
  9 14  1  0
 14 15  2  0
 15 16  1  0
 16 17  1  0
 17 18  2  0
 17 19  1  0
 19 20  1  0
 20 21  1  0
 21 22  2  0
 22 23  1  0
 23 24  2  0
 16  4  1  0
 24 20  1  0
 15  6  1  0
  1 25  1  0
  5 26  1  0
  7 27  1  0
  8 28  1  0
 14 29  1  0
 19 30  1  0
 19 31  1  0
 21 32  1  0
 22 33  1  0
 24 34  1  0
M  CHG  1   1  -1
M  END
>  <UniqueID>  (16) 
16

>  <SMILES>  (16) 
[NH-]C(=O)c1cc2ccc(C(F)(F)F)cc2n1C(=O)Cn1ccnc1

>  <Energy>  (16) 
103.34569469991975

>  <Genealogy>  (16) 
[NH-]C(=O)c1cc2ccc(C(F)(F)F)cc2n1C(=O)Cn1ccnc1 (protonated)
[NH-]C(=O)c1cc2ccc(C(F)(F)F)cc2n1C(=O)Cn1ccnc1 (3D coordinates assigned)
[NH-]C(=O)c1cc2ccc(C(F)(F)F)cc2n1C(=O)Cn1ccnc1 (optimized conformer: 103.34569469991975 kcal/mol)

>  <smiles>  (16) 
NC(=O)c1cc2ccc(C(F)(F)F)cc2n1C(=O)Cn1ccnc1

>  <score_type>  (16) 
oracle

>  <origin>  (16) 
adg

>  <m_score__min__energy>  (16) 
-10.27

>  <m_primary>  (16) 
energy

$$$$
16:0
     RDKit          3D

 41 43  0  0  0  0  0  0  0  0999 V2000
   -3.7500   17.9530  -33.4610 C   0  0  0  0  0  0  0  0  0  0  0  0
   -5.0940   17.3730  -33.3260 N   0  0  0  0  0  0  0  0  0  0  0  0
   -6.1300   18.1800  -33.9890 C   0  0  0  0  0  0  0  0  0  0  0  0
   -6.8770   18.4300  -32.6870 C   0  0  0  0  0  0  0  0  0  0  0  0
   -7.0820   19.8910  -32.3240 C   0  0  0  0  0  0  0  0  0  0  0  0
   -8.3580   20.5200  -32.3380 C   0  0  0  0  0  0  0  0  0  0  0  0
   -8.5010   21.8710  -31.9810 C   0  0  0  0  0  0  0  0  0  0  0  0
   -7.3610   22.5700  -31.5990 C   0  0  0  0  0  0  0  0  0  0  0  0
   -7.2140   23.8870  -31.2280 C   0  0  0  0  0  0  0  0  0  0  0  0
   -5.8560   24.0450  -30.9600 C   0  0  0  0  0  0  0  0  0  0  0  0
   -5.2670   25.2990  -30.4460 C   0  0  0  0  0  0  0  0  0  0  0  0
   -3.9470   25.6730  -30.8340 N   0  0  0  0  0  0  0  0  0  0  0  0
   -5.9290   26.0620  -29.6950 O   0  0  0  0  0  0  0  0  0  0  0  0
   -5.1900   22.8730  -31.1620 N   0  0  0  0  0  0  0  0  0  0  0  0
   -3.7770   22.6390  -31.0660 C   0  0  0  0  0  0  0  0  0  0  0  0
   -3.1580   22.1240  -32.0370 O   0  0  0  0  0  0  0  0  0  0  0  0
   -3.0890   23.0070  -29.9050 O   0  0  0  0  0  0  0  0  0  0  0  0
   -1.6710   23.1490  -29.8450 C   0  0  0  0  0  0  0  0  0  0  0  0
   -1.3010   24.3560  -29.0390 C   0  0  0  0  0  0  0  0  0  0  0  0
   -2.3010   25.3000  -28.6580 N   0  0  0  0  0  0  0  0  0  0  0  0
   -0.1020   24.5450  -28.7030 O   0  0  0  0  0  0  0  0  0  0  0  0
   -6.1270   21.9790  -31.5520 C   0  0  0  0  0  0  0  0  0  0  0  0
   -5.9520   20.6400  -31.9190 C   0  0  0  0  0  0  0  0  0  0  0  0
   -5.7220   17.6830  -32.0310 C   0  0  0  0  0  0  0  0  0  0  0  0
   -3.3273   18.1354  -32.4620 H   0  0  0  0  0  0  0  0  0  0  0  0
   -3.1026   17.2542  -34.0110 H   0  0  0  0  0  0  0  0  0  0  0  0
   -3.8144   18.9034  -34.0110 H   0  0  0  0  0  0  0  0  0  0  0  0
   -5.7396   19.0979  -34.4528 H   0  0  0  0  0  0  0  0  0  0  0  0
   -6.6765   17.7471  -34.8398 H   0  0  0  0  0  0  0  0  0  0  0  0
   -7.9239   18.1413  -32.5120 H   0  0  0  0  0  0  0  0  0  0  0  0
   -9.2451   19.9402  -32.6326 H   0  0  0  0  0  0  0  0  0  0  0  0
   -9.4853   22.3615  -32.0029 H   0  0  0  0  0  0  0  0  0  0  0  0
   -8.0012   24.6521  -31.1580 H   0  0  0  0  0  0  0  0  0  0  0  0
   -3.1190   25.1120  -30.5320 H   0  0  0  0  0  0  0  0  0  0  0  0
   -1.2365   22.2534  -29.3769 H   0  0  0  0  0  0  0  0  0  0  0  0
   -1.2807   23.2686  -30.8665 H   0  0  0  0  0  0  0  0  0  0  0  0
   -3.2980   25.1590  -28.9350 H   0  0  0  0  0  0  0  0  0  0  0  0
   -2.0440   26.1450  -28.1000 H   0  0  0  0  0  0  0  0  0  0  0  0
   -4.9540   20.1781  -31.8931 H   0  0  0  0  0  0  0  0  0  0  0  0
   -5.1003   18.3189  -31.3836 H   0  0  0  0  0  0  0  0  0  0  0  0
   -5.9467   16.8590  -31.3378 H   0  0  0  0  0  0  0  0  0  0  0  0
  1  2  1  0
  2  3  1  0
  3  4  1  0
  4  5  1  0
  5  6  2  0
  6  7  1  0
  7  8  2  0
  8  9  1  0
  9 10  2  0
 10 11  1  0
 11 12  1  0
 11 13  2  0
 10 14  1  0
 14 15  1  0
 15 16  2  0
 15 17  1  0
 17 18  1  0
 18 19  1  0
 19 20  1  0
 19 21  2  0
 14 22  1  0
 22 23  2  0
  4 24  1  0
 24  2  1  0
 23  5  1  0
 22  8  1  0
  1 25  1  0
  1 26  1  0
  1 27  1  0
  3 28  1  0
  3 29  1  0
  4 30  1  0
  6 31  1  0
  7 32  1  0
  9 33  1  0
 12 34  1  0
 18 35  1  0
 18 36  1  0
 20 37  1  0
 20 38  1  0
 23 39  1  0
 24 40  1  0
 24 41  1  0
M  CHG  1  12  -1
M  END
>  <UniqueID>  (17) 
17

>  <SMILES>  (17) 
CN1CC(c2ccc3cc(C([NH-])=O)n(C(=O)OCC(N)=O)c3c2)C1

>  <Energy>  (17) 
150.51486256435192

>  <Genealogy>  (17) 
CN1CC(c2ccc3cc(C([NH-])=O)n(C(=O)OCC(N)=O)c3c2)C1 (protonated)
CN1CC(c2ccc3cc(C([NH-])=O)n(C(=O)OCC(N)=O)c3c2)C1 (3D coordinates assigned)
CN1CC(c2ccc3cc(C([NH-])=O)n(C(=O)OCC(N)=O)c3c2)C1 (nonaromatic ring conformer: 150.51486256435192 kcal/mol)

>  <smiles>  (17) 
CN1CC(c2ccc3cc(C(N)=O)n(C(=O)OCC(N)=O)c3c2)C1

>  <score_type>  (17) 
oracle

>  <origin>  (17) 
adg

>  <m_score__min__energy>  (17) 
-10.779999999999999

>  <m_primary>  (17) 
energy

$$$$
17:0
     RDKit          3D

 30 31  0  0  0  0  0  0  0  0999 V2000
   -3.9450   22.7400  -28.3970 C   0  0  0  0  0  0  0  0  0  0  0  0
   -3.4610   21.8900  -29.5650 C   0  0  0  0  0  0  0  0  0  0  0  0
   -4.0180   22.4080  -30.8590 C   0  0  0  0  0  0  0  0  0  0  0  0
   -3.2460   22.6080  -31.8340 O   0  0  0  0  0  0  0  0  0  0  0  0
   -5.4100   22.7310  -30.9750 N   0  0  0  0  0  0  0  0  0  0  0  0
   -5.9960   23.9530  -30.8280 C   0  0  0  0  0  0  0  0  0  0  0  0
   -5.3040   25.2000  -30.4390 C   0  0  0  0  0  0  0  0  0  0  0  0
   -3.8900   25.3060  -30.5960 N   0  0  0  0  0  0  0  0  0  0  0  0
   -5.9480   26.1790  -29.9810 O   0  0  0  0  0  0  0  0  0  0  0  0
   -7.3690   23.8640  -31.0500 C   0  0  0  0  0  0  0  0  0  0  0  0
   -7.6060   22.5390  -31.3460 C   0  0  0  0  0  0  0  0  0  0  0  0
   -8.7960   21.8880  -31.6550 C   0  0  0  0  0  0  0  0  0  0  0  0
   -8.7390   20.5120  -31.9380 C   0  0  0  0  0  0  0  0  0  0  0  0
   -7.4990   19.8200  -31.9320 C   0  0  0  0  0  0  0  0  0  0  0  0
   -7.4580   18.3370  -32.1990 C   0  0  0  0  0  0  0  0  0  0  0  0
   -6.5490   17.7150  -31.3610 F   0  0  0  0  0  0  0  0  0  0  0  0
   -8.7130   17.8000  -31.9810 F   0  0  0  0  0  0  0  0  0  0  0  0
   -7.0820   18.0860  -33.5080 F   0  0  0  0  0  0  0  0  0  0  0  0
   -6.3160   20.5150  -31.5900 C   0  0  0  0  0  0  0  0  0  0  0  0
   -6.4070   21.8780  -31.2970 C   0  0  0  0  0  0  0  0  0  0  0  0
   -3.6681   22.2536  -27.4500 H   0  0  0  0  0  0  0  0  0  0  0  0
   -3.4777   23.7345  -28.4488 H   0  0  0  0  0  0  0  0  0  0  0  0
   -5.0387   22.8456  -28.4488 H   0  0  0  0  0  0  0  0  0  0  0  0
   -2.3622   21.9223  -29.6052 H   0  0  0  0  0  0  0  0  0  0  0  0
   -3.8051   20.8555  -29.4185 H   0  0  0  0  0  0  0  0  0  0  0  0
   -3.4730   26.0340  -31.2180 H   0  0  0  0  0  0  0  0  0  0  0  0
   -8.1068   24.6783  -30.9997 H   0  0  0  0  0  0  0  0  0  0  0  0
   -9.7514   22.4327  -31.6772 H   0  0  0  0  0  0  0  0  0  0  0  0
   -9.6656   19.9652  -32.1667 H   0  0  0  0  0  0  0  0  0  0  0  0
   -5.3473   19.9950  -31.5555 H   0  0  0  0  0  0  0  0  0  0  0  0
  1  2  1  0
  2  3  1  0
  3  4  2  0
  3  5  1  0
  5  6  1  0
  6  7  1  0
  7  8  1  0
  7  9  2  0
  6 10  2  0
 10 11  1  0
 11 12  2  0
 12 13  1  0
 13 14  2  0
 14 15  1  0
 15 16  1  0
 15 17  1  0
 15 18  1  0
 14 19  1  0
 19 20  2  0
 20  5  1  0
 20 11  1  0
  1 21  1  0
  1 22  1  0
  1 23  1  0
  2 24  1  0
  2 25  1  0
  8 26  1  0
 10 27  1  0
 12 28  1  0
 13 29  1  0
 19 30  1  0
M  CHG  1   8  -1
M  END
>  <UniqueID>  (18) 
18

>  <SMILES>  (18) 
CCC(=O)n1c(C([NH-])=O)cc2ccc(C(F)(F)F)cc21

>  <Energy>  (18) 
66.63710698647115

>  <Genealogy>  (18) 
CCC(=O)n1c(C([NH-])=O)cc2ccc(C(F)(F)F)cc21 (protonated)
CCC(=O)n1c(C([NH-])=O)cc2ccc(C(F)(F)F)cc21 (3D coordinates assigned)
CCC(=O)n1c(C([NH-])=O)cc2ccc(C(F)(F)F)cc21 (optimized conformer: 66.63710698647115 kcal/mol)

>  <smiles>  (18) 
CCC(=O)n1c(C(N)=O)cc2ccc(C(F)(F)F)cc21

>  <score_type>  (18) 
oracle

>  <origin>  (18) 
adg

>  <m_score__min__energy>  (18) 
-9.6300000000000008

>  <m_primary>  (18) 
energy

$$$$
18:0
     RDKit          3D

 31 33  0  0  0  0  0  0  0  0999 V2000
   -3.4770   15.9400  -35.3760 C   0  0  0  0  0  0  0  0  0  0  0  0
   -3.7090   17.2040  -34.6200 C   0  0  0  0  0  0  0  0  0  0  0  0
   -2.7200   18.0450  -34.2520 N   0  0  0  0  0  0  0  0  0  0  0  0
   -3.1990   19.1580  -33.6340 C   0  0  0  0  0  0  0  0  0  0  0  0
   -4.5910   19.2200  -33.5170 C   0  0  0  0  0  0  0  0  0  0  0  0
   -5.3920   20.3100  -32.9000 C   0  0  0  0  0  0  0  0  0  0  0  0
   -6.8110   20.2750  -32.9660 C   0  0  0  0  0  0  0  0  0  0  0  0
   -7.5860   21.2870  -32.3800 C   0  0  0  0  0  0  0  0  0  0  0  0
   -6.9250   22.3300  -31.7420 C   0  0  0  0  0  0  0  0  0  0  0  0
   -7.4330   23.4220  -31.0780 C   0  0  0  0  0  0  0  0  0  0  0  0
   -6.3210   24.1330  -30.6310 C   0  0  0  0  0  0  0  0  0  0  0  0
   -6.4000   25.4390  -29.9410 C   0  0  0  0  0  0  0  0  0  0  0  0
   -5.5630   26.5270  -30.3380 N   0  0  0  0  0  0  0  0  0  0  0  0
   -7.1880   25.5940  -28.9700 O   0  0  0  0  0  0  0  0  0  0  0  0
   -5.1700   23.5020  -31.0040 N   0  0  0  0  0  0  0  0  0  0  0  0
   -3.8220   23.8810  -30.6760 C   0  0  0  0  0  0  0  0  0  0  0  0
   -2.9270   23.0050  -30.5490 O   0  0  0  0  0  0  0  0  0  0  0  0
   -3.4960   25.2180  -30.4830 O   0  0  0  0  0  0  0  0  0  0  0  0
   -5.5590   22.3990  -31.6830 C   0  0  0  0  0  0  0  0  0  0  0  0
   -4.7600   21.3940  -32.2420 C   0  0  0  0  0  0  0  0  0  0  0  0
   -5.2180   17.8190  -34.2200 S   0  0  0  0  0  0  0  0  0  0  0  0
   -3.3250   15.1119  -34.6680 H   0  0  0  0  0  0  0  0  0  0  0  0
   -4.3508   15.7256  -36.0089 H   0  0  0  0  0  0  0  0  0  0  0  0
   -2.5840   16.0499  -36.0089 H   0  0  0  0  0  0  0  0  0  0  0  0
   -2.5392   19.9518  -33.2538 H   0  0  0  0  0  0  0  0  0  0  0  0
   -7.3091   19.4423  -33.4841 H   0  0  0  0  0  0  0  0  0  0  0  0
   -8.6847   21.2559  -32.4242 H   0  0  0  0  0  0  0  0  0  0  0  0
   -8.4923   23.6795  -30.9310 H   0  0  0  0  0  0  0  0  0  0  0  0
   -4.9380   26.4540  -31.1700 H   0  0  0  0  0  0  0  0  0  0  0  0
   -5.5990   27.4320  -29.8180 H   0  0  0  0  0  0  0  0  0  0  0  0
   -3.6634   21.4451  -32.1717 H   0  0  0  0  0  0  0  0  0  0  0  0
  1  2  1  0
  2  3  2  0
  3  4  1  0
  4  5  2  0
  5  6  1  0
  6  7  2  0
  7  8  1  0
  8  9  2  0
  9 10  1  0
 10 11  2  0
 11 12  1  0
 12 13  1  0
 12 14  2  0
 11 15  1  0
 15 16  1  0
 16 17  2  0
 16 18  1  0
 15 19  1  0
 19 20  2  0
  5 21  1  0
 21  2  1  0
 20  6  1  0
 19  9  1  0
  1 22  1  0
  1 23  1  0
  1 24  1  0
  4 25  1  0
  7 26  1  0
  8 27  1  0
 10 28  1  0
 13 29  1  0
 13 30  1  0
 20 31  1  0
M  CHG  1  18  -1
M  END
>  <UniqueID>  (19) 
19

>  <SMILES>  (19) 
Cc1ncc(-c2ccc3cc(C(N)=O)n(C(=O)[O-])c3c2)s1

>  <Energy>  (19) 
103.42450624979749

>  <Genealogy>  (19) 
Cc1ncc(-c2ccc3cc(C(N)=O)n(C(=O)[O-])c3c2)s1 (protonated)
Cc1ncc(-c2ccc3cc(C(N)=O)n(C(=O)[O-])c3c2)s1 (3D coordinates assigned)
Cc1ncc(-c2ccc3cc(C(N)=O)n(C(=O)[O-])c3c2)s1 (optimized conformer: 103.42450624979749 kcal/mol)

>  <smiles>  (19) 
Cc1ncc(-c2ccc3cc(C(N)=O)n(C(=O)O)c3c2)s1

>  <score_type>  (19) 
oracle

>  <origin>  (19) 
adg

>  <m_score__min__energy>  (19) 
-9.3200000000000003

>  <m_primary>  (19) 
energy

$$$$
19:0
     RDKit          3D

 38 40  0  0  0  0  0  0  0  0999 V2000
   -7.8420   18.5340  -32.3640 C   0  0  0  0  0  0  0  0  0  0  0  0
   -7.8180   19.9710  -31.9380 C   0  0  0  0  0  0  0  0  0  0  0  0
   -9.0070   20.7420  -31.9610 C   0  0  0  0  0  0  0  0  0  0  0  0
   -8.9830   22.1060  -31.6180 C   0  0  0  0  0  0  0  0  0  0  0  0
   -7.7590   22.6680  -31.2680 C   0  0  0  0  0  0  0  0  0  0  0  0
   -7.4350   23.9680  -30.9460 C   0  0  0  0  0  0  0  0  0  0  0  0
   -6.0520   23.9670  -30.7500 C   0  0  0  0  0  0  0  0  0  0  0  0
   -5.2670   25.1680  -30.3940 C   0  0  0  0  0  0  0  0  0  0  0  0
   -3.8740   25.2450  -30.6850 N   0  0  0  0  0  0  0  0  0  0  0  0
   -5.8300   26.1320  -29.8110 O   0  0  0  0  0  0  0  0  0  0  0  0
   -5.5500   22.7160  -30.9360 N   0  0  0  0  0  0  0  0  0  0  0  0
   -4.1770   22.3140  -30.9500 C   0  0  0  0  0  0  0  0  0  0  0  0
   -3.6180   21.9630  -29.8770 O   0  0  0  0  0  0  0  0  0  0  0  0
   -3.4390   22.2080  -32.2490 C   0  0  0  0  0  0  0  0  0  0  0  0
   -3.4610   20.8220  -32.7150 N   0  0  0  0  0  0  0  0  0  0  0  0
   -4.4470   20.3210  -33.4420 N   0  0  0  0  0  0  0  0  0  0  0  0
   -4.0960   19.0680  -33.7840 C   0  0  0  0  0  0  0  0  0  0  0  0
   -4.9050   18.2040  -34.5970 C   0  0  0  0  0  0  0  0  0  0  0  0
   -5.5560   17.5090  -35.2530 N   0  0  0  0  0  0  0  0  0  0  0  0
   -2.8510   18.7590  -33.2760 C   0  0  0  0  0  0  0  0  0  0  0  0
   -2.4740   19.9040  -32.6020 C   0  0  0  0  0  0  0  0  0  0  0  0
   -1.1790   20.1000  -31.8770 C   0  0  0  0  0  0  0  0  0  0  0  0
   -6.6020   21.9340  -31.2510 C   0  0  0  0  0  0  0  0  0  0  0  0
   -6.5940   20.5780  -31.5880 C   0  0  0  0  0  0  0  0  0  0  0  0
   -7.8528   17.8878  -31.4739 H   0  0  0  0  0  0  0  0  0  0  0  0
   -8.7434   18.3448  -32.9654 H   0  0  0  0  0  0  0  0  0  0  0  0
   -6.9474   18.3148  -32.9654 H   0  0  0  0  0  0  0  0  0  0  0  0
   -9.9574   20.2694  -32.2498 H   0  0  0  0  0  0  0  0  0  0  0  0
   -9.9027   22.7094  -31.6262 H   0  0  0  0  0  0  0  0  0  0  0  0
   -8.1199   24.8246  -30.8613 H   0  0  0  0  0  0  0  0  0  0  0  0
   -3.4840   26.0420  -31.2340 H   0  0  0  0  0  0  0  0  0  0  0  0
   -3.9215   22.8535  -32.9977 H   0  0  0  0  0  0  0  0  0  0  0  0
   -2.3965   22.5276  -32.1036 H   0  0  0  0  0  0  0  0  0  0  0  0
   -2.2893   17.8193  -33.3829 H   0  0  0  0  0  0  0  0  0  0  0  0
   -1.3584   20.0728  -30.7921 H   0  0  0  0  0  0  0  0  0  0  0  0
   -0.4791   19.2976  -32.1531 H   0  0  0  0  0  0  0  0  0  0  0  0
   -0.7479   21.0736  -32.1531 H   0  0  0  0  0  0  0  0  0  0  0  0
   -5.6584   19.9996  -31.5805 H   0  0  0  0  0  0  0  0  0  0  0  0
  1  2  1  0
  2  3  2  0
  3  4  1  0
  4  5  2  0
  5  6  1  0
  6  7  2  0
  7  8  1  0
  8  9  1  0
  8 10  2  0
  7 11  1  0
 11 12  1  0
 12 13  2  0
 12 14  1  0
 14 15  1  0
 15 16  1  0
 16 17  2  0
 17 18  1  0
 18 19  3  0
 17 20  1  0
 20 21  2  0
 21 22  1  0
 11 23  1  0
 23 24  2  0
 24  2  1  0
 23  5  1  0
 21 15  1  0
  1 25  1  0
  1 26  1  0
  1 27  1  0
  3 28  1  0
  4 29  1  0
  6 30  1  0
  9 31  1  0
 14 32  1  0
 14 33  1  0
 20 34  1  0
 22 35  1  0
 22 36  1  0
 22 37  1  0
 24 38  1  0
M  CHG  1   9  -1
M  END
>  <UniqueID>  (20) 
20

>  <SMILES>  (20) 
Cc1ccc2cc(C([NH-])=O)n(C(=O)Cn3nc(C#N)cc3C)c2c1

>  <Energy>  (20) 
103.55137557385024

>  <Genealogy>  (20) 
Cc1ccc2cc(C([NH-])=O)n(C(=O)Cn3nc(C#N)cc3C)c2c1 (protonated)
Cc1ccc2cc(C([NH-])=O)n(C(=O)Cn3nc(C#N)cc3C)c2c1 (3D coordinates assigned)
Cc1ccc2cc(C([NH-])=O)n(C(=O)Cn3nc(C#N)cc3C)c2c1 (optimized conformer: 103.55137557385024 kcal/mol)

>  <smiles>  (20) 
Cc1ccc2cc(C(N)=O)n(C(=O)Cn3nc(C#N)cc3C)c2c1

>  <score_type>  (20) 
oracle

>  <origin>  (20) 
adg

>  <m_score__min__energy>  (20) 
-11.17

>  <m_primary>  (20) 
energy

$$$$
20:0
     RDKit          3D

 31 32  0  0  0  0  0  0  0  0999 V2000
   -6.6110   18.0870  -33.2600 C   0  0  0  0  0  0  0  0  0  0  0  0
   -7.0030   19.4210  -32.7000 C   0  0  0  0  0  0  0  0  0  0  0  0
   -8.3680   19.7180  -32.4670 C   0  0  0  0  0  0  0  0  0  0  0  0
   -8.7460   20.9480  -31.9010 C   0  0  0  0  0  0  0  0  0  0  0  0
   -7.7390   21.8510  -31.5710 C   0  0  0  0  0  0  0  0  0  0  0  0
   -7.8180   23.0990  -30.9950 C   0  0  0  0  0  0  0  0  0  0  0  0
   -6.5010   23.5420  -30.8870 C   0  0  0  0  0  0  0  0  0  0  0  0
   -6.1130   24.8850  -30.4040 C   0  0  0  0  0  0  0  0  0  0  0  0
   -5.9480   25.1420  -29.0080 N   0  0  0  0  0  0  0  0  0  0  0  0
   -5.9480   25.8260  -31.2230 O   0  0  0  0  0  0  0  0  0  0  0  0
   -5.6420   22.6000  -31.3710 N   0  0  0  0  0  0  0  0  0  0  0  0
   -4.2060   22.6330  -31.3870 C   0  0  0  0  0  0  0  0  0  0  0  0
   -3.6000   22.6400  -32.4930 O   0  0  0  0  0  0  0  0  0  0  0  0
   -3.4310   22.4890  -30.1070 C   0  0  0  0  0  0  0  0  0  0  0  0
   -3.0520   24.0720  -29.3670 S   0  0  0  0  0  0  0  0  0  0  0  0
   -3.8380   24.2400  -28.0980 O   0  0  0  0  0  0  0  0  0  0  0  0
   -1.5830   24.1650  -29.0610 O   0  0  0  0  0  0  0  0  0  0  0  0
   -3.4710   25.2950  -30.4400 O   0  0  0  0  0  0  0  0  0  0  0  0
   -6.4140   21.5760  -31.7890 C   0  0  0  0  0  0  0  0  0  0  0  0
   -6.0070   20.3560  -32.3400 C   0  0  0  0  0  0  0  0  0  0  0  0
   -6.4059   17.3889  -32.4350 H   0  0  0  0  0  0  0  0  0  0  0  0
   -7.4314   17.6933  -33.8780 H   0  0  0  0  0  0  0  0  0  0  0  0
   -5.7080   18.1998  -33.8780 H   0  0  0  0  0  0  0  0  0  0  0  0
   -9.1393   18.9796  -32.7313 H   0  0  0  0  0  0  0  0  0  0  0  0
   -9.8045   21.1895  -31.7243 H   0  0  0  0  0  0  0  0  0  0  0  0
   -8.7282   23.6335  -30.6855 H   0  0  0  0  0  0  0  0  0  0  0  0
   -6.0160   24.3760  -28.3020 H   0  0  0  0  0  0  0  0  0  0  0  0
   -5.7100   26.1030  -28.6780 H   0  0  0  0  0  0  0  0  0  0  0  0
   -4.0277   21.8990  -29.3958 H   0  0  0  0  0  0  0  0  0  0  0  0
   -2.4798   21.9890  -30.3419 H   0  0  0  0  0  0  0  0  0  0  0  0
   -4.9406   20.1310  -32.4888 H   0  0  0  0  0  0  0  0  0  0  0  0
  1  2  1  0
  2  3  2  0
  3  4  1  0
  4  5  2  0
  5  6  1  0
  6  7  2  0
  7  8  1  0
  8  9  1  0
  8 10  2  0
  7 11  1  0
 11 12  1  0
 12 13  2  0
 12 14  1  0
 14 15  1  0
 15 16  2  0
 15 17  2  0
 15 18  1  0
 11 19  1  0
 19 20  2  0
 20  2  1  0
 19  5  1  0
  1 21  1  0
  1 22  1  0
  1 23  1  0
  3 24  1  0
  4 25  1  0
  6 26  1  0
  9 27  1  0
  9 28  1  0
 14 29  1  0
 14 30  1  0
 20 31  1  0
M  CHG  1  18  -1
M  END
>  <UniqueID>  (21) 
21

>  <SMILES>  (21) 
Cc1ccc2cc(C(N)=O)n(C(=O)CS(=O)(=O)[O-])c2c1

>  <Energy>  (21) 
66.81988695359281

>  <Genealogy>  (21) 
Cc1ccc2cc(C(N)=O)n(C(=O)CS(=O)(=O)[O-])c2c1 (protonated)
Cc1ccc2cc(C(N)=O)n(C(=O)CS(=O)(=O)[O-])c2c1 (3D coordinates assigned)
Cc1ccc2cc(C(N)=O)n(C(=O)CS(=O)(=O)[O-])c2c1 (optimized conformer: 66.81988695359281 kcal/mol)

>  <smiles>  (21) 
Cc1ccc2cc(C(N)=O)n(C(=O)CS(=O)(=O)O)c2c1

>  <score_type>  (21) 
oracle

>  <origin>  (21) 
adg

>  <m_score__min__energy>  (21) 
-10.92

>  <m_primary>  (21) 
energy

$$$$
21:0
     RDKit          3D

 29 30  0  0  0  0  0  0  0  0999 V2000
   -4.1950   25.5150  -30.6800 N   0  0  0  0  0  0  0  0  0  0  0  0
   -5.5430   25.0800  -30.4900 C   0  0  0  0  0  0  0  0  0  0  0  0
   -6.3660   25.8510  -29.9290 O   0  0  0  0  0  0  0  0  0  0  0  0
   -6.0030   23.7710  -30.9950 C   0  0  0  0  0  0  0  0  0  0  0  0
   -7.3460   23.4240  -31.1100 C   0  0  0  0  0  0  0  0  0  0  0  0
   -7.3490   22.1680  -31.6710 C   0  0  0  0  0  0  0  0  0  0  0  0
   -8.4170   21.3330  -31.9840 C   0  0  0  0  0  0  0  0  0  0  0  0
   -8.1280   20.0640  -32.5130 C   0  0  0  0  0  0  0  0  0  0  0  0
   -6.7860   19.6550  -32.7280 C   0  0  0  0  0  0  0  0  0  0  0  0
   -6.4880   18.2670  -33.2350 C   0  0  0  0  0  0  0  0  0  0  0  0
   -5.4540   17.6940  -32.5140 F   0  0  0  0  0  0  0  0  0  0  0  0
   -6.1240   18.3380  -34.5670 F   0  0  0  0  0  0  0  0  0  0  0  0
   -7.6010   17.4540  -33.1140 F   0  0  0  0  0  0  0  0  0  0  0  0
   -5.7280   20.5250  -32.3720 C   0  0  0  0  0  0  0  0  0  0  0  0
   -6.0450   21.7920  -31.8670 C   0  0  0  0  0  0  0  0  0  0  0  0
   -5.2040   22.7660  -31.4520 N   0  0  0  0  0  0  0  0  0  0  0  0
   -3.7700   22.6970  -31.4000 C   0  0  0  0  0  0  0  0  0  0  0  0
   -3.1270   22.2410  -32.3860 O   0  0  0  0  0  0  0  0  0  0  0  0
   -3.0920   23.1360  -30.2590 O   0  0  0  0  0  0  0  0  0  0  0  0
   -3.2710   22.5510  -28.9730 C   0  0  0  0  0  0  0  0  0  0  0  0
   -3.7860   23.7880  -27.7980 Cl  0  0  0  0  0  0  0  0  0  0  0  0
   -3.5370   24.9800  -31.2870 H   0  0  0  0  0  0  0  0  0  0  0  0
   -3.8770   26.4250  -30.2800 H   0  0  0  0  0  0  0  0  0  0  0  0
   -8.2185   24.0256  -30.8153 H   0  0  0  0  0  0  0  0  0  0  0  0
   -9.4558   21.6565  -31.8222 H   0  0  0  0  0  0  0  0  0  0  0  0
   -8.9516   19.3792  -32.7635 H   0  0  0  0  0  0  0  0  0  0  0  0
   -4.6798   20.2128  -32.4894 H   0  0  0  0  0  0  0  0  0  0  0  0
   -4.0398   21.7667  -29.0348 H   0  0  0  0  0  0  0  0  0  0  0  0
   -2.3163   22.1171  -28.6409 H   0  0  0  0  0  0  0  0  0  0  0  0
  1  2  1  0
  2  3  2  0
  2  4  1  0
  4  5  2  0
  5  6  1  0
  6  7  2  0
  7  8  1  0
  8  9  2  0
  9 10  1  0
 10 11  1  0
 10 12  1  0
 10 13  1  0
  9 14  1  0
 14 15  2  0
 15 16  1  0
 16 17  1  0
 17 18  2  0
 17 19  1  0
 19 20  1  0
 20 21  1  0
 16  4  1  0
 15  6  1  0
  1 22  1  0
  1 23  1  0
  5 24  1  0
  7 25  1  0
  8 26  1  0
 14 27  1  0
 20 28  1  0
 20 29  1  0
M  END
>  <UniqueID>  (22) 
22

>  <SMILES>  (22) 
NC(=O)c1cc2ccc(C(F)(F)F)cc2n1C(=O)OCCl

>  <Energy>  (22) 
67.68365127261984

>  <Genealogy>  (22) 
NC(=O)c1cc2ccc(C(F)(F)F)cc2n1C(=O)OCCl (3D coordinates assigned)
NC(=O)c1cc2ccc(C(F)(F)F)cc2n1C(=O)OCCl (optimized conformer: 67.68365127261984 kcal/mol)

>  <smiles>  (22) 
NC(=O)c1cc2ccc(C(F)(F)F)cc2n1C(=O)OCCl

>  <score_type>  (22) 
oracle

>  <origin>  (22) 
adg

>  <m_score__min__energy>  (22) 
-7.8600000000000003

>  <m_primary>  (22) 
energy

$$$$
22:0
     RDKit          3D

 43 45  0  0  0  0  0  0  0  0999 V2000
   -7.6120   23.1820  -31.7650 C   0  0  0  0  0  0  0  0  0  0  0  0
   -6.4340   23.7980  -31.8970 C   0  0  0  0  0  0  0  0  0  0  0  0
   -5.9630   24.8330  -30.9140 C   0  0  0  0  0  0  0  0  0  0  0  0
   -4.5400   24.8350  -30.8480 O   0  0  0  0  0  0  0  0  0  0  0  0
   -3.8180   24.2990  -29.7750 C   0  0  0  0  0  0  0  0  0  0  0  0
   -4.1740   24.5340  -28.5880 O   0  0  0  0  0  0  0  0  0  0  0  0
   -2.6850   23.4550  -30.0310 N   0  0  0  0  0  0  0  0  0  0  0  0
   -1.3960   23.6340  -29.6240 C   0  0  0  0  0  0  0  0  0  0  0  0
   -0.8620   24.8270  -28.9340 C   0  0  0  0  0  0  0  0  0  0  0  0
   -1.5960   26.0500  -28.9590 N   0  0  0  0  0  0  0  0  0  0  0  0
    0.2200   24.7710  -28.2910 O   0  0  0  0  0  0  0  0  0  0  0  0
   -0.6040   22.5600  -30.0240 C   0  0  0  0  0  0  0  0  0  0  0  0
   -1.4520   21.7140  -30.7020 C   0  0  0  0  0  0  0  0  0  0  0  0
   -1.1980   20.4860  -31.3030 C   0  0  0  0  0  0  0  0  0  0  0  0
   -2.2720   19.8130  -31.9080 C   0  0  0  0  0  0  0  0  0  0  0  0
   -3.5750   20.3740  -31.9020 C   0  0  0  0  0  0  0  0  0  0  0  0
   -4.6760   19.6670  -32.5050 N   0  0  0  0  0  0  0  0  0  0  0  0
   -4.4790   18.3540  -33.1340 C   0  0  0  0  0  0  0  0  0  0  0  0
   -5.1110   18.3220  -34.5400 C   0  0  0  0  0  0  0  0  0  0  0  0
   -6.1830   19.3210  -34.7230 N   0  0  0  0  0  0  0  0  0  0  0  0
   -6.9370   19.5490  -33.4860 C   0  0  0  0  0  0  0  0  0  0  0  0
   -6.0310   20.2330  -32.4580 C   0  0  0  0  0  0  0  0  0  0  0  0
   -3.7930   21.6200  -31.2710 C   0  0  0  0  0  0  0  0  0  0  0  0
   -2.7010   22.2770  -30.6920 C   0  0  0  0  0  0  0  0  0  0  0  0
   -7.9249   22.4293  -32.5036 H   0  0  0  0  0  0  0  0  0  0  0  0
   -8.2691   23.4275  -30.9177 H   0  0  0  0  0  0  0  0  0  0  0  0
   -5.7896   23.5402  -32.7504 H   0  0  0  0  0  0  0  0  0  0  0  0
   -6.3136   25.8251  -31.2346 H   0  0  0  0  0  0  0  0  0  0  0  0
   -6.3688   24.5955  -29.9196 H   0  0  0  0  0  0  0  0  0  0  0  0
   -2.6390   26.0490  -28.9670 H   0  0  0  0  0  0  0  0  0  0  0  0
    0.4708   22.4182  -29.8376 H   0  0  0  0  0  0  0  0  0  0  0  0
   -0.1861   20.0546  -31.3045 H   0  0  0  0  0  0  0  0  0  0  0  0
   -2.1010   18.8401  -32.3919 H   0  0  0  0  0  0  0  0  0  0  0  0
   -3.4009   18.1522  -33.2182 H   0  0  0  0  0  0  0  0  0  0  0  0
   -4.9637   17.5876  -32.5113 H   0  0  0  0  0  0  0  0  0  0  0  0
   -4.3222   18.5169  -35.2815 H   0  0  0  0  0  0  0  0  0  0  0  0
   -5.5664   17.3291  -34.6693 H   0  0  0  0  0  0  0  0  0  0  0  0
   -6.8450   18.9620  -35.4490 H   0  0  0  0  0  0  0  0  0  0  0  0
   -7.8036   20.1926  -33.6975 H   0  0  0  0  0  0  0  0  0  0  0  0
   -7.2864   18.5860  -33.0853 H   0  0  0  0  0  0  0  0  0  0  0  0
   -5.9811   21.3093  -32.6796 H   0  0  0  0  0  0  0  0  0  0  0  0
   -6.4486   20.0702  -31.4534 H   0  0  0  0  0  0  0  0  0  0  0  0
   -4.7989   22.0637  -31.2357 H   0  0  0  0  0  0  0  0  0  0  0  0
  1  2  2  0
  2  3  1  0
  3  4  1  0
  4  5  1  0
  5  6  2  0
  5  7  1  0
  7  8  1  0
  8  9  1  0
  9 10  1  0
  9 11  2  0
  8 12  2  0
 12 13  1  0
 13 14  2  0
 14 15  1  0
 15 16  2  0
 16 17  1  0
 17 18  1  0
 18 19  1  0
 19 20  1  0
 20 21  1  0
 21 22  1  0
 16 23  1  0
 23 24  2  0
 24  7  1  0
 24 13  1  0
 22 17  1  0
  1 25  1  0
  1 26  1  0
  2 27  1  0
  3 28  1  0
  3 29  1  0
 10 30  1  0
 12 31  1  0
 14 32  1  0
 15 33  1  0
 18 34  1  0
 18 35  1  0
 19 36  1  0
 19 37  1  0
 20 38  1  0
 21 39  1  0
 21 40  1  0
 22 41  1  0
 22 42  1  0
 23 43  1  0
M  CHG  1  10  -1
M  END
>  <UniqueID>  (23) 
23

>  <SMILES>  (23) 
C=CCOC(=O)n1c(C([NH-])=O)cc2ccc(N3CCNCC3)cc21

>  <Energy>  (23) 
87.06429906926832

>  <Genealogy>  (23) 
C=CCOC(=O)n1c(C([NH-])=O)cc2ccc(N3CCNCC3)cc21 (protonated)
C=CCOC(=O)n1c(C([NH-])=O)cc2ccc(N3CCNCC3)cc21 (3D coordinates assigned)
C=CCOC(=O)n1c(C([NH-])=O)cc2ccc(N3CCNCC3)cc21 (nonaromatic ring conformer: 87.06429906926832 kcal/mol)

>  <smiles>  (23) 
C=CCOC(=O)n1c(C(N)=O)cc2ccc(N3CCNCC3)cc21

>  <score_type>  (23) 
oracle

>  <origin>  (23) 
adg

>  <m_score__min__energy>  (23) 
-10.529999999999999

>  <m_primary>  (23) 
energy

$$$$
23:0
     RDKit          3D

 40 41  0  0  0  0  0  0  0  0999 V2000
   -2.7770   24.5070  -27.3630 C   0  0  0  0  0  0  0  0  0  0  0  0
   -1.8870   24.8350  -28.4870 N   0  0  0  0  0  0  0  0  0  0  0  0
   -1.0590   26.0020  -28.1370 C   0  0  0  0  0  0  0  0  0  0  0  0
   -1.0460   23.6680  -28.8370 C   0  0  0  0  0  0  0  0  0  0  0  0
   -1.6450   22.8870  -30.0120 C   0  0  0  0  0  0  0  0  0  0  0  0
   -3.0890   23.1120  -30.0910 N   0  0  0  0  0  0  0  0  0  0  0  0
   -3.9510   22.3350  -30.9320 C   0  0  0  0  0  0  0  0  0  0  0  0
   -3.5070   21.3240  -31.5390 O   0  0  0  0  0  0  0  0  0  0  0  0
   -5.3230   22.7220  -31.1000 N   0  0  0  0  0  0  0  0  0  0  0  0
   -5.8970   23.9260  -30.8170 C   0  0  0  0  0  0  0  0  0  0  0  0
   -5.1850   25.1480  -30.3880 C   0  0  0  0  0  0  0  0  0  0  0  0
   -3.8640   25.4290  -30.8450 N   0  0  0  0  0  0  0  0  0  0  0  0
   -5.7640   25.9750  -29.6330 O   0  0  0  0  0  0  0  0  0  0  0  0
   -7.2690   23.8790  -31.0580 C   0  0  0  0  0  0  0  0  0  0  0  0
   -7.5190   22.6000  -31.5040 C   0  0  0  0  0  0  0  0  0  0  0  0
   -8.7170   22.0000  -31.8870 C   0  0  0  0  0  0  0  0  0  0  0  0
   -8.6800   20.6520  -32.2830 C   0  0  0  0  0  0  0  0  0  0  0  0
   -7.4610   19.9280  -32.2670 C   0  0  0  0  0  0  0  0  0  0  0  0
   -7.4240   18.4970  -32.7140 C   0  0  0  0  0  0  0  0  0  0  0  0
   -8.4170   17.7860  -32.0670 F   0  0  0  0  0  0  0  0  0  0  0  0
   -6.2670   20.5740  -31.8820 C   0  0  0  0  0  0  0  0  0  0  0  0
   -6.3290   21.9230  -31.5160 C   0  0  0  0  0  0  0  0  0  0  0  0
   -2.2552   24.6993  -26.4139 H   0  0  0  0  0  0  0  0  0  0  0  0
   -3.6813   25.1309  -27.4172 H   0  0  0  0  0  0  0  0  0  0  0  0
   -3.0602   23.4455  -27.4172 H   0  0  0  0  0  0  0  0  0  0  0  0
   -0.9955   26.0915  -27.0425 H   0  0  0  0  0  0  0  0  0  0  0  0
   -0.0491   25.8732  -28.5536 H   0  0  0  0  0  0  0  0  0  0  0  0
   -1.5141   26.9127  -28.5536 H   0  0  0  0  0  0  0  0  0  0  0  0
   -0.0414   24.0198  -29.1146 H   0  0  0  0  0  0  0  0  0  0  0  0
   -0.9951   23.0004  -27.9642 H   0  0  0  0  0  0  0  0  0  0  0  0
   -1.1742   23.2225  -30.9478 H   0  0  0  0  0  0  0  0  0  0  0  0
   -1.4590   21.8137  -29.8589 H   0  0  0  0  0  0  0  0  0  0  0  0
   -3.5250   23.8050  -29.4410 H   0  0  0  0  0  0  0  0  0  0  0  0
   -3.0390   25.2930  -30.2200 H   0  0  0  0  0  0  0  0  0  0  0  0
   -7.9979   24.6914  -30.9210 H   0  0  0  0  0  0  0  0  0  0  0  0
   -9.6617   22.5635  -31.8796 H   0  0  0  0  0  0  0  0  0  0  0  0
   -9.6053   20.1540  -32.6084 H   0  0  0  0  0  0  0  0  0  0  0  0
   -7.5869   18.4481  -33.8008 H   0  0  0  0  0  0  0  0  0  0  0  0
   -6.4435   18.0621  -32.4700 H   0  0  0  0  0  0  0  0  0  0  0  0
   -5.3108   20.0303  -31.8699 H   0  0  0  0  0  0  0  0  0  0  0  0
  1  2  1  0
  2  3  1  0
  2  4  1  0
  4  5  1  0
  5  6  1  0
  6  7  1  0
  7  8  2  0
  7  9  1  0
  9 10  1  0
 10 11  1  0
 11 12  1  0
 11 13  2  0
 10 14  2  0
 14 15  1  0
 15 16  2  0
 16 17  1  0
 17 18  2  0
 18 19  1  0
 19 20  1  0
 18 21  1  0
 21 22  2  0
 22  9  1  0
 22 15  1  0
  1 23  1  0
  1 24  1  0
  1 25  1  0
  3 26  1  0
  3 27  1  0
  3 28  1  0
  4 29  1  0
  4 30  1  0
  5 31  1  0
  5 32  1  0
  6 33  1  0
 12 34  1  0
 14 35  1  0
 16 36  1  0
 17 37  1  0
 19 38  1  0
 19 39  1  0
 21 40  1  0
M  CHG  1  12  -1
M  END
>  <UniqueID>  (24) 
24

>  <SMILES>  (24) 
CN(C)CCNC(=O)n1c(C([NH-])=O)cc2ccc(CF)cc21

>  <Energy>  (24) 
74.7446621390607

>  <Genealogy>  (24) 
CN(C)CCNC(=O)n1c(C([NH-])=O)cc2ccc(CF)cc21 (protonated)
CN(C)CCNC(=O)n1c(C([NH-])=O)cc2ccc(CF)cc21 (3D coordinates assigned)
CN(C)CCNC(=O)n1c(C([NH-])=O)cc2ccc(CF)cc21 (optimized conformer: 74.7446621390607 kcal/mol)

>  <smiles>  (24) 
CN(C)CCNC(=O)n1c(C(N)=O)cc2ccc(CF)cc21

>  <score_type>  (24) 
oracle

>  <origin>  (24) 
adg

>  <m_score__min__energy>  (24) 
-9.2899999999999991

>  <m_primary>  (24) 
energy

$$$$
24:0
     RDKit          3D

 34 35  0  0  0  0  0  0  0  0999 V2000
   -2.2061   22.5066  -27.8072 H   0  0  0  0  0  0  0  0  0  0  0  0
   -2.3940   22.8680  -28.8290 C   0  0  0  0  0  0  0  0  0  0  0  0
   -1.6740   24.0800  -29.2560 C   0  0  0  0  0  0  0  0  0  0  0  0
   -0.4300   24.0710  -29.4410 O   0  0  0  0  0  0  0  0  0  0  0  0
   -2.3680   25.2770  -29.3710 O   0  0  0  0  0  0  0  0  0  0  0  0
   -3.2590   22.1660  -29.5770 C   0  0  0  0  0  0  0  0  0  0  0  0
   -3.5826   21.1904  -29.1853 H   0  0  0  0  0  0  0  0  0  0  0  0
   -3.8160   22.5860  -30.8800 C   0  0  0  0  0  0  0  0  0  0  0  0
   -3.0210   22.7730  -31.8390 O   0  0  0  0  0  0  0  0  0  0  0  0
   -5.2340   22.7190  -31.1020 N   0  0  0  0  0  0  0  0  0  0  0  0
   -5.9940   23.8490  -31.0340 C   0  0  0  0  0  0  0  0  0  0  0  0
   -5.5230   25.1760  -30.5790 C   0  0  0  0  0  0  0  0  0  0  0  0
   -6.3180   25.9660  -30.0060 O   0  0  0  0  0  0  0  0  0  0  0  0
   -4.1770   25.5900  -30.8130 N   0  0  0  0  0  0  0  0  0  0  0  0
   -3.8630   26.5420  -30.5200 H   0  0  0  0  0  0  0  0  0  0  0  0
   -3.4760   24.9420  -31.2380 H   0  0  0  0  0  0  0  0  0  0  0  0
   -7.3210   23.5650  -31.3530 C   0  0  0  0  0  0  0  0  0  0  0  0
   -8.1632   24.2714  -31.3938 H   0  0  0  0  0  0  0  0  0  0  0  0
   -7.3530   22.2130  -31.6060 C   0  0  0  0  0  0  0  0  0  0  0  0
   -8.4200   21.3950  -31.9670 C   0  0  0  0  0  0  0  0  0  0  0  0
   -9.4345   21.8040  -32.0834 H   0  0  0  0  0  0  0  0  0  0  0  0
   -8.1600   20.0300  -32.1780 C   0  0  0  0  0  0  0  0  0  0  0  0
   -8.9836   19.3554  -32.4547 H   0  0  0  0  0  0  0  0  0  0  0  0
   -6.8480   19.5140  -32.0380 C   0  0  0  0  0  0  0  0  0  0  0  0
   -6.5860   18.0470  -32.2510 C   0  0  0  0  0  0  0  0  0  0  0  0
   -5.8335   17.7091  -31.5233 H   0  0  0  0  0  0  0  0  0  0  0  0
   -7.5333   17.5044  -32.1159 H   0  0  0  0  0  0  0  0  0  0  0  0
   -6.0710   17.7680  -33.6640 C   0  0  0  0  0  0  0  0  0  0  0  0
   -6.8430   16.7800  -34.2480 F   0  0  0  0  0  0  0  0  0  0  0  0
   -4.7560   17.3380  -33.6190 F   0  0  0  0  0  0  0  0  0  0  0  0
   -6.1500   18.9120  -34.4380 F   0  0  0  0  0  0  0  0  0  0  0  0
   -5.7930   20.3740  -31.6610 C   0  0  0  0  0  0  0  0  0  0  0  0
   -4.7685   19.9914  -31.5425 H   0  0  0  0  0  0  0  0  0  0  0  0
   -6.0840   21.7250  -31.4420 C   0  0  0  0  0  0  0  0  0  0  0  0
  1  2  1  0
  2  3  1  0
  3  4  2  0
  3  5  1  0
  2  6  2  0
  6  7  1  0
  6  8  1  0
  8  9  2  0
  8 10  1  0
 10 11  1  0
 11 12  1  0
 12 13  2  0
 12 14  1  0
 14 15  1  0
 14 16  1  0
 11 17  2  0
 17 18  1  0
 17 19  1  0
 19 20  2  0
 20 21  1  0
 20 22  1  0
 22 23  1  0
 22 24  2  0
 24 25  1  0
 25 26  1  0
 25 27  1  0
 25 28  1  0
 28 29  1  0
 28 30  1  0
 28 31  1  0
 24 32  1  0
 32 33  1  0
 32 34  2  0
 34 10  1  0
 34 19  1  0
M  CHG  1   5  -1
M  END
>  <UniqueID>  (25) 
25

>  <SMILES>  (25) 
NC(=O)c1cc2ccc(CC(F)(F)F)cc2n1C(=O)/C=C\C(=O)[O-]

>  <Energy>  (25) 
76.32777626238037

>  <Genealogy>  (25) 
NC(=O)c1cc2ccc(CC(F)(F)F)cc2n1C(=O)C=CC(=O)[O-] (protonated)
NC(=O)c1cc2ccc(CC(F)(F)F)cc2n1C(=O)/C=C\C(=O)[O-] (cis-trans isomerization)
NC(=O)c1cc2ccc(CC(F)(F)F)cc2n1C(=O)/C=C\C(=O)[O-] (3D coordinates assigned)
NC(=O)c1cc2ccc(CC(F)(F)F)cc2n1C(=O)/C=C\C(=O)[O-] (optimized conformer: 76.32777626238037 kcal/mol)

>  <smiles>  (25) 
NC(=O)c1cc2ccc(CC(F)(F)F)cc2n1C(=O)C=CC(=O)O

>  <score_type>  (25) 
oracle

>  <origin>  (25) 
adg

>  <m_score__min__energy>  (25) 
-10.44

>  <m_primary>  (25) 
energy

$$$$
25:0
     RDKit          3D

 42 44  0  0  0  0  0  0  0  0999 V2000
   -2.1760   21.7660  -30.9210 C   0  0  0  0  0  0  0  0  0  0  0  0
   -3.2610   22.3340  -30.1980 O   0  0  0  0  0  0  0  0  0  0  0  0
   -4.0120   23.4080  -30.6860 C   0  0  0  0  0  0  0  0  0  0  0  0
   -3.4860   24.5480  -30.8040 O   0  0  0  0  0  0  0  0  0  0  0  0
   -5.3860   23.2060  -31.0560 N   0  0  0  0  0  0  0  0  0  0  0  0
   -6.4510   23.9930  -30.7360 C   0  0  0  0  0  0  0  0  0  0  0  0
   -6.3820   25.3200  -30.0890 C   0  0  0  0  0  0  0  0  0  0  0  0
   -5.3980   26.2810  -30.4710 N   0  0  0  0  0  0  0  0  0  0  0  0
   -7.2430   25.6290  -29.2220 O   0  0  0  0  0  0  0  0  0  0  0  0
   -7.6420   23.4020  -31.1470 C   0  0  0  0  0  0  0  0  0  0  0  0
   -7.2730   22.2210  -31.7470 C   0  0  0  0  0  0  0  0  0  0  0  0
   -8.0600   21.2260  -32.3200 C   0  0  0  0  0  0  0  0  0  0  0  0
   -7.4150   20.0880  -32.8290 C   0  0  0  0  0  0  0  0  0  0  0  0
   -6.0060   19.9610  -32.7530 C   0  0  0  0  0  0  0  0  0  0  0  0
   -5.3410   18.7500  -33.2780 C   0  0  0  0  0  0  0  0  0  0  0  0
   -4.0350   18.6290  -33.7400 C   0  0  0  0  0  0  0  0  0  0  0  0
   -3.0100   19.7130  -33.8330 C   0  0  0  0  0  0  0  0  0  0  0  0
   -3.8020   17.3560  -34.1160 N   0  0  0  0  0  0  0  0  0  0  0  0
   -4.9080   16.6630  -33.8970 N   0  0  0  0  0  0  0  0  0  0  0  0
   -5.0350   15.2400  -34.1920 C   0  0  0  0  0  0  0  0  0  0  0  0
   -5.8690   17.4730  -33.4020 C   0  0  0  0  0  0  0  0  0  0  0  0
   -7.2550   17.0340  -33.0330 C   0  0  0  0  0  0  0  0  0  0  0  0
   -5.2400   20.9910  -32.1620 C   0  0  0  0  0  0  0  0  0  0  0  0
   -5.9070   22.1230  -31.6780 C   0  0  0  0  0  0  0  0  0  0  0  0
   -1.4292   21.3750  -30.2143 H   0  0  0  0  0  0  0  0  0  0  0  0
   -2.5464   20.9461  -31.5539 H   0  0  0  0  0  0  0  0  0  0  0  0
   -1.7133   22.5375  -31.5539 H   0  0  0  0  0  0  0  0  0  0  0  0
   -4.7780   26.1200  -31.2940 H   0  0  0  0  0  0  0  0  0  0  0  0
   -5.3380   27.1950  -29.9710 H   0  0  0  0  0  0  0  0  0  0  0  0
   -8.6612   23.7956  -31.0192 H   0  0  0  0  0  0  0  0  0  0  0  0
   -9.1540   21.3284  -32.3723 H   0  0  0  0  0  0  0  0  0  0  0  0
   -8.0096   19.2865  -33.2917 H   0  0  0  0  0  0  0  0  0  0  0  0
   -2.7142   20.0258  -32.8207 H   0  0  0  0  0  0  0  0  0  0  0  0
   -2.1281   19.3384  -34.3734 H   0  0  0  0  0  0  0  0  0  0  0  0
   -3.4333   20.5725  -34.3734 H   0  0  0  0  0  0  0  0  0  0  0  0
   -5.0856   14.6734  -33.2505 H   0  0  0  0  0  0  0  0  0  0  0  0
   -5.9522   15.0666  -34.7740 H   0  0  0  0  0  0  0  0  0  0  0  0
   -4.1630   14.9069  -34.7740 H   0  0  0  0  0  0  0  0  0  0  0  0
   -7.3506   17.0037  -31.9376 H   0  0  0  0  0  0  0  0  0  0  0  0
   -7.9866   17.7444  -33.4454 H   0  0  0  0  0  0  0  0  0  0  0  0
   -7.4442   16.0319  -33.4454 H   0  0  0  0  0  0  0  0  0  0  0  0
   -4.1461   20.9055  -32.0841 H   0  0  0  0  0  0  0  0  0  0  0  0
  1  2  1  0
  2  3  1  0
  3  4  2  0
  3  5  1  0
  5  6  1  0
  6  7  1  0
  7  8  1  0
  7  9  2  0
  6 10  2  0
 10 11  1  0
 11 12  2  0
 12 13  1  0
 13 14  2  0
 14 15  1  0
 15 16  1  0
 16 17  1  0
 16 18  2  0
 18 19  1  0
 19 20  1  0
 19 21  1  0
 21 22  1  0
 14 23  1  0
 23 24  2  0
 24  5  1  0
 24 11  1  0
 21 15  2  0
  1 25  1  0
  1 26  1  0
  1 27  1  0
  8 28  1  0
  8 29  1  0
 10 30  1  0
 12 31  1  0
 13 32  1  0
 17 33  1  0
 17 34  1  0
 17 35  1  0
 20 36  1  0
 20 37  1  0
 20 38  1  0
 22 39  1  0
 22 40  1  0
 22 41  1  0
 23 42  1  0
M  END
>  <UniqueID>  (26) 
26

>  <SMILES>  (26) 
COC(=O)n1c(C(N)=O)cc2ccc(-c3c(C)nn(C)c3C)cc21

>  <Energy>  (26) 
113.88025085606195

>  <Genealogy>  (26) 
COC(=O)n1c(C(N)=O)cc2ccc(-c3c(C)nn(C)c3C)cc21 (3D coordinates assigned)
COC(=O)n1c(C(N)=O)cc2ccc(-c3c(C)nn(C)c3C)cc21 (optimized conformer: 113.88025085606195 kcal/mol)

>  <smiles>  (26) 
COC(=O)n1c(C(N)=O)cc2ccc(-c3c(C)nn(C)c3C)cc21

>  <score_type>  (26) 
oracle

>  <origin>  (26) 
adg

>  <m_score__min__energy>  (26) 
-8.7599999999999998

>  <m_primary>  (26) 
energy

$$$$
26:0
     RDKit          3D

 49 51  0  0  0  0  0  0  0  0999 V2000
   -0.7700   18.6550  -27.5110 C   0  0  0  0  0  0  0  0  0  0  0  0
   -1.9180   19.5860  -27.5770 N   0  0  0  0  0  0  0  0  0  0  0  0
   -2.7610   19.3440  -26.3840 C   0  0  0  0  0  0  0  0  0  0  0  0
   -1.5120   21.0300  -27.6570 C   0  0  1  0  0  0  0  0  0  0  0  0
   -0.8040   21.4290  -28.9800 C   0  0  0  0  0  0  0  0  0  0  0  0
   -1.7330   21.4040  -30.2090 C   0  0  0  0  0  0  0  0  0  0  0  0
   -3.1980   21.8030  -29.8960 C   0  0  2  0  0  0  0  0  0  0  0  0
   -3.8620   22.4200  -31.1130 C   0  0  0  0  0  0  0  0  0  0  0  0
   -3.1740   22.6720  -32.1400 O   0  0  0  0  0  0  0  0  0  0  0  0
   -5.2720   22.6830  -31.1420 N   0  0  0  0  0  0  0  0  0  0  0  0
   -5.9110   23.8560  -30.8790 C   0  0  0  0  0  0  0  0  0  0  0  0
   -5.2620   25.1110  -30.4480 C   0  0  0  0  0  0  0  0  0  0  0  0
   -3.8600   25.2880  -30.6410 N   0  0  0  0  0  0  0  0  0  0  0  0
   -5.9350   26.0330  -29.9210 O   0  0  0  0  0  0  0  0  0  0  0  0
   -7.2880   23.7050  -31.0440 C   0  0  0  0  0  0  0  0  0  0  0  0
   -7.4670   22.3890  -31.4110 C   0  0  0  0  0  0  0  0  0  0  0  0
   -8.6350   21.6830  -31.6850 C   0  0  0  0  0  0  0  0  0  0  0  0
   -8.5190   20.3250  -32.0330 C   0  0  0  0  0  0  0  0  0  0  0  0
   -7.2440   19.7050  -32.1240 C   0  0  0  0  0  0  0  0  0  0  0  0
   -7.1390   18.2390  -32.4610 C   0  0  0  0  0  0  0  0  0  0  0  0
   -8.3590   17.6310  -32.2370 F   0  0  0  0  0  0  0  0  0  0  0  0
   -6.7870   18.0710  -33.7900 F   0  0  0  0  0  0  0  0  0  0  0  0
   -6.1780   17.6240  -31.6780 F   0  0  0  0  0  0  0  0  0  0  0  0
   -6.0820   20.4520  -31.8150 C   0  0  0  0  0  0  0  0  0  0  0  0
   -6.2340   21.7950  -31.4600 C   0  0  0  0  0  0  0  0  0  0  0  0
   -3.2660   22.7120  -28.6540 C   0  0  2  0  0  0  0  0  0  0  0  0
   -2.5530   23.8810  -28.8780 F   0  0  0  0  0  0  0  0  0  0  0  0
   -2.7220   21.9920  -27.4000 C   0  0  0  0  0  0  0  0  0  0  0  0
   -0.5214   18.4534  -26.4586 H   0  0  0  0  0  0  0  0  0  0  0  0
   -1.0333   17.7121  -28.0127 H   0  0  0  0  0  0  0  0  0  0  0  0
    0.0982   19.1073  -28.0127 H   0  0  0  0  0  0  0  0  0  0  0  0
   -2.4780   19.3310  -28.4240 H   0  0  0  0  0  0  0  0  0  0  0  0
   -2.1666   19.5146  -25.4743 H   0  0  0  0  0  0  0  0  0  0  0  0
   -3.6191   20.0321  -26.3957 H   0  0  0  0  0  0  0  0  0  0  0  0
   -3.1235   18.3055  -26.3957 H   0  0  0  0  0  0  0  0  0  0  0  0
   -0.7696   21.1445  -26.8534 H   0  0  0  0  0  0  0  0  0  0  0  0
   -0.4043   22.4476  -28.8670 H   0  0  0  0  0  0  0  0  0  0  0  0
   -0.0126   20.6863  -29.1589 H   0  0  0  0  0  0  0  0  0  0  0  0
   -1.3355   22.1046  -30.9581 H   0  0  0  0  0  0  0  0  0  0  0  0
   -1.7550   20.3659  -30.5721 H   0  0  0  0  0  0  0  0  0  0  0  0
   -3.7677   20.8940  -29.6529 H   0  0  0  0  0  0  0  0  0  0  0  0
   -3.4960   26.0470  -31.2580 H   0  0  0  0  0  0  0  0  0  0  0  0
   -8.0647   24.4723  -30.9098 H   0  0  0  0  0  0  0  0  0  0  0  0
   -9.6188   22.1722  -31.6310 H   0  0  0  0  0  0  0  0  0  0  0  0
   -9.4257   19.7365  -32.2370 H   0  0  0  0  0  0  0  0  0  0  0  0
   -5.0856   19.9875  -31.8533 H   0  0  0  0  0  0  0  0  0  0  0  0
   -4.3223   22.9598  -28.4730 H   0  0  0  0  0  0  0  0  0  0  0  0
   -2.4005   22.7587  -26.6797 H   0  0  0  0  0  0  0  0  0  0  0  0
   -3.5425   21.3594  -27.0304 H   0  0  0  0  0  0  0  0  0  0  0  0
  1  2  1  0
  2  3  1  0
  2  4  1  0
  4  5  1  0
  5  6  1  0
  6  7  1  0
  7  8  1  0
  8  9  2  0
  8 10  1  0
 10 11  1  0
 11 12  1  0
 12 13  1  0
 12 14  2  0
 11 15  2  0
 15 16  1  0
 16 17  2  0
 17 18  1  0
 18 19  2  0
 19 20  1  0
 20 21  1  0
 20 22  1  0
 20 23  1  0
 19 24  1  0
 24 25  2  0
  7 26  1  0
 26 27  1  0
 26 28  1  0
 28  4  1  0
 25 10  1  0
 25 16  1  0
  1 29  1  0
  1 30  1  0
  1 31  1  0
  2 32  1  0
  3 33  1  0
  3 34  1  0
  3 35  1  0
  4 36  1  1
  5 37  1  0
  5 38  1  0
  6 39  1  0
  6 40  1  0
  7 41  1  1
 13 42  1  0
 15 43  1  0
 17 44  1  0
 18 45  1  0
 24 46  1  0
 26 47  1  1
 28 48  1  0
 28 49  1  0
M  CHG  2   2   1  13  -1
M  END
>  <UniqueID>  (27) 
27

>  <SMILES>  (27) 
C[NH+](C)[C@H]1CC[C@H](C(=O)n2c(C([NH-])=O)cc3ccc(C(F)(F)F)cc32)C(F)C1

>  <Energy>  (27) 
104.57311924877865

>  <Genealogy>  (27) 
C[NH+](C)C1CCC(C(=O)n2c(C([NH-])=O)cc3ccc(C(F)(F)F)cc32)C(F)C1 (protonated)
C[NH+](C)[C@H]1CC[C@H](C(=O)n2c(C([NH-])=O)cc3ccc(C(F)(F)F)cc32)C(F)C1 (chirality)
C[NH+](C)[C@H]1CC[C@H](C(=O)n2c(C([NH-])=O)cc3ccc(C(F)(F)F)cc32)C(F)C1 (3D coordinates assigned)
C[NH+](C)[C@H]1CC[C@H](C(=O)n2c(C([NH-])=O)cc3ccc(C(F)(F)F)cc32)C(F)C1 (nonaromatic ring conformer: 104.57311924877865 kcal/mol)

>  <smiles>  (27) 
CN(C)C1CCC(C(=O)n2c(C(N)=O)cc3ccc(C(F)(F)F)cc32)C(F)C1

>  <score_type>  (27) 
oracle

>  <origin>  (27) 
adg

>  <m_score__min__energy>  (27) 
-11

>  <m_primary>  (27) 
energy

$$$$
27:0
     RDKit          3D

 53 56  0  0  0  0  0  0  0  0999 V2000
   -1.2270   12.3310  -33.5640 C   0  0  0  0  0  0  0  0  0  0  0  0
   -1.0170   12.9820  -34.9450 C   0  0  0  0  0  0  0  0  0  0  0  0
   -0.5420   14.4400  -34.7940 C   0  0  0  0  0  0  0  0  0  0  0  0
    0.0550   12.1880  -35.7090 C   0  0  0  0  0  0  0  0  0  0  0  0
   -2.2230   12.9200  -35.7210 O   0  0  0  0  0  0  0  0  0  0  0  0
   -3.5320   12.8480  -35.2190 C   0  0  0  0  0  0  0  0  0  0  0  0
   -4.1190   11.7350  -35.1020 O   0  0  0  0  0  0  0  0  0  0  0  0
   -4.2040   14.0650  -34.8360 N   0  0  0  0  0  0  0  0  0  0  0  0
   -3.8810   14.4730  -33.4500 C   0  0  0  0  0  0  0  0  0  0  0  0
   -3.6530   15.9410  -33.5220 C   0  0  0  0  0  0  0  0  0  0  0  0
   -3.6280   16.3470  -34.7670 C   0  0  0  0  0  0  0  0  0  0  0  0
   -4.1680   17.7300  -34.9000 C   0  0  0  0  0  0  0  0  0  0  0  0
   -4.5200   18.0880  -33.5280 N   0  0  0  0  0  0  0  0  0  0  0  0
   -5.0860   19.3550  -33.1250 C   0  0  0  0  0  0  0  0  0  0  0  0
   -6.4500   19.6520  -33.3870 C   0  0  0  0  0  0  0  0  0  0  0  0
   -7.0060   20.8860  -33.0110 C   0  0  0  0  0  0  0  0  0  0  0  0
   -6.1840   21.8030  -32.3680 C   0  0  0  0  0  0  0  0  0  0  0  0
   -6.4580   23.0760  -31.9230 C   0  0  0  0  0  0  0  0  0  0  0  0
   -5.2660   23.5390  -31.3690 C   0  0  0  0  0  0  0  0  0  0  0  0
   -5.1410   24.8460  -30.6920 C   0  0  0  0  0  0  0  0  0  0  0  0
   -3.9650   25.6380  -30.8380 N   0  0  0  0  0  0  0  0  0  0  0  0
   -6.0650   25.2480  -29.9360 O   0  0  0  0  0  0  0  0  0  0  0  0
   -4.2910   22.5910  -31.4760 N   0  0  0  0  0  0  0  0  0  0  0  0
   -2.9070   22.7050  -31.1060 C   0  0  0  0  0  0  0  0  0  0  0  0
   -2.0080   22.2550  -31.8630 O   0  0  0  0  0  0  0  0  0  0  0  0
   -2.5500   23.2900  -29.8970 O   0  0  0  0  0  0  0  0  0  0  0  0
   -4.8710   21.5340  -32.0880 C   0  0  0  0  0  0  0  0  0  0  0  0
   -4.2850   20.3220  -32.4680 C   0  0  0  0  0  0  0  0  0  0  0  0
   -4.2150   16.9850  -32.6190 C   0  0  0  0  0  0  0  0  0  0  0  0
   -3.8340   15.2080  -35.7000 C   0  0  0  0  0  0  0  0  0  0  0  0
   -0.9917   13.0606  -32.7751 H   0  0  0  0  0  0  0  0  0  0  0  0
   -2.2744   12.0096  -33.4656 H   0  0  0  0  0  0  0  0  0  0  0  0
   -0.5648   11.4582  -33.4656 H   0  0  0  0  0  0  0  0  0  0  0  0
   -0.4605   14.6903  -33.7260 H   0  0  0  0  0  0  0  0  0  0  0  0
    0.4407   14.5571  -35.2741 H   0  0  0  0  0  0  0  0  0  0  0  0
   -1.2672   15.1135  -35.2741 H   0  0  0  0  0  0  0  0  0  0  0  0
    0.7249   11.6919  -34.9913 H   0  0  0  0  0  0  0  0  0  0  0  0
   -0.4310   11.4303  -36.3412 H   0  0  0  0  0  0  0  0  0  0  0  0
    0.6382   12.8737  -36.3412 H   0  0  0  0  0  0  0  0  0  0  0  0
   -5.2390   13.9160  -34.9060 H   0  0  0  0  0  0  0  0  0  0  0  0
   -4.7190   14.2449  -32.7750 H   0  0  0  0  0  0  0  0  0  0  0  0
   -3.0039   13.9383  -33.0565 H   0  0  0  0  0  0  0  0  0  0  0  0
   -3.4057   18.4135  -35.3021 H   0  0  0  0  0  0  0  0  0  0  0  0
   -5.0197   17.7942  -35.5931 H   0  0  0  0  0  0  0  0  0  0  0  0
   -7.0801   18.9049  -33.8917 H   0  0  0  0  0  0  0  0  0  0  0  0
   -8.0606   21.1192  -33.2194 H   0  0  0  0  0  0  0  0  0  0  0  0
   -7.4150   23.6141  -31.9903 H   0  0  0  0  0  0  0  0  0  0  0  0
   -3.0410   25.2960  -30.4930 H   0  0  0  0  0  0  0  0  0  0  0  0
   -3.2231   20.1234  -32.2609 H   0  0  0  0  0  0  0  0  0  0  0  0
   -3.4770   17.2904  -31.8627 H   0  0  0  0  0  0  0  0  0  0  0  0
   -5.0927   16.6379  -32.0540 H   0  0  0  0  0  0  0  0  0  0  0  0
   -4.6427   15.4325  -36.4110 H   0  0  0  0  0  0  0  0  0  0  0  0
   -2.9358   14.9982  -36.2994 H   0  0  0  0  0  0  0  0  0  0  0  0
  1  2  1  0
  2  3  1  0
  2  4  1  0
  2  5  1  0
  5  6  1  0
  6  7  2  0
  6  8  1  0
  8  9  1  0
  9 10  1  0
 10 11  2  0
 11 12  1  0
 12 13  1  0
 13 14  1  0
 14 15  2  0
 15 16  1  0
 16 17  2  0
 17 18  1  0
 18 19  2  0
 19 20  1  0
 20 21  1  0
 20 22  2  0
 19 23  1  0
 23 24  1  0
 24 25  2  0
 24 26  1  0
 23 27  1  0
 27 28  2  0
 13 29  1  0
 11 30  1  0
 30  8  1  0
 29 10  1  0
 28 14  1  0
 27 17  1  0
  1 31  1  0
  1 32  1  0
  1 33  1  0
  3 34  1  0
  3 35  1  0
  3 36  1  0
  4 37  1  0
  4 38  1  0
  4 39  1  0
  8 40  1  0
  9 41  1  0
  9 42  1  0
 12 43  1  0
 12 44  1  0
 15 45  1  0
 16 46  1  0
 18 47  1  0
 21 48  1  0
 28 49  1  0
 29 50  1  0
 29 51  1  0
 30 52  1  0
 30 53  1  0
M  CHG  3   8   1  21  -1  26  -1
M  END
>  <UniqueID>  (28) 
28

>  <SMILES>  (28) 
CC(C)(C)OC(=O)[NH+]1CC2=C(CN(c3ccc4cc(C([NH-])=O)n(C(=O)[O-])c4c3)C2)C1

>  <Energy>  (28) 
118.45560923167504

>  <Genealogy>  (28) 
CC(C)(C)OC(=O)[NH+]1CC2=C(CN(c3ccc4cc(C([NH-])=O)n(C(=O)[O-])c4c3)C2)C1 (protonated)
CC(C)(C)OC(=O)[NH+]1CC2=C(CN(c3ccc4cc(C([NH-])=O)n(C(=O)[O-])c4c3)C2)C1 (3D coordinates assigned)
CC(C)(C)OC(=O)[NH+]1CC2=C(CN(c3ccc4cc(C([NH-])=O)n(C(=O)[O-])c4c3)C2)C1 (nonaromatic ring conformer: 118.45560923167504 kcal/mol)

>  <smiles>  (28) 
CC(C)(C)OC(=O)N1CC2=C(C1)CN(c1ccc3cc(C(N)=O)n(C(=O)O)c3c1)C2

>  <score_type>  (28) 
oracle

>  <origin>  (28) 
adg

>  <m_score__min__energy>  (28) 
-10.210000000000001

>  <m_primary>  (28) 
energy

$$$$
28:0
     RDKit          3D

 49 52  0  0  0  0  0  0  0  0999 V2000
   -0.7980   25.2780  -27.5880 C   0  0  0  0  0  0  0  0  0  0  0  0
   -1.9020   24.9560  -28.5080 N   0  0  0  0  0  0  0  0  0  0  0  0
   -3.1140   24.5950  -27.7590 C   0  0  0  0  0  0  0  0  0  0  0  0
   -3.1160   23.0880  -27.5710 C   0  0  0  0  0  0  0  0  0  0  0  0
   -2.2070   22.5470  -28.6690 C   0  0  1  0  0  0  0  0  0  0  0  0
   -2.9090   21.5950  -29.6650 C   0  0  0  0  0  0  0  0  0  0  0  0
   -3.3800   22.2470  -30.9440 C   0  0  0  0  0  0  0  0  0  0  0  0
   -2.5370   22.6750  -31.7770 O   0  0  0  0  0  0  0  0  0  0  0  0
   -4.7840   22.4310  -31.1990 N   0  0  0  0  0  0  0  0  0  0  0  0
   -5.5450   23.5330  -30.9390 C   0  0  0  0  0  0  0  0  0  0  0  0
   -5.0670   24.8090  -30.3640 C   0  0  0  0  0  0  0  0  0  0  0  0
   -3.8700   25.4040  -30.8590 N   0  0  0  0  0  0  0  0  0  0  0  0
   -5.6950   25.3770  -29.4340 O   0  0  0  0  0  0  0  0  0  0  0  0
   -6.8680   23.3100  -31.3190 C   0  0  0  0  0  0  0  0  0  0  0  0
   -6.8980   22.0260  -31.8080 C   0  0  0  0  0  0  0  0  0  0  0  0
   -7.9640   21.2780  -32.2940 C   0  0  0  0  0  0  0  0  0  0  0  0
   -7.7160   19.9550  -32.6920 C   0  0  0  0  0  0  0  0  0  0  0  0
   -6.4140   19.3940  -32.5880 C   0  0  0  0  0  0  0  0  0  0  0  0
   -6.1650   17.9900  -33.0000 C   0  0  0  0  0  0  0  0  0  0  0  0
   -6.4610   17.3980  -34.2200 C   0  0  0  0  0  0  0  0  0  0  0  0
   -6.0690   16.1080  -34.2020 N   0  0  0  0  0  0  0  0  0  0  0  0
   -5.5490   15.8670  -33.0100 N   0  0  0  0  0  0  0  0  0  0  0  0
   -4.9470   14.5970  -32.6300 C   0  0  0  0  0  0  0  0  0  0  0  0
   -5.5760   16.9820  -32.2570 C   0  0  0  0  0  0  0  0  0  0  0  0
   -5.3580   20.1900  -32.0830 C   0  0  0  0  0  0  0  0  0  0  0  0
   -5.6300   21.5140  -31.7200 C   0  0  0  0  0  0  0  0  0  0  0  0
   -1.5740   23.7790  -29.3280 C   0  0  0  0  0  0  0  0  0  0  0  0
   -1.1451   25.1768  -26.5491 H   0  0  0  0  0  0  0  0  0  0  0  0
    0.0393   24.5867  -27.7639 H   0  0  0  0  0  0  0  0  0  0  0  0
   -0.4636   26.3111  -27.7639 H   0  0  0  0  0  0  0  0  0  0  0  0
   -3.1098   25.0938  -26.7786 H   0  0  0  0  0  0  0  0  0  0  0  0
   -4.0124   24.9135  -28.3080 H   0  0  0  0  0  0  0  0  0  0  0  0
   -2.7224   22.8225  -26.5787 H   0  0  0  0  0  0  0  0  0  0  0  0
   -4.1305   22.6673  -27.6327 H   0  0  0  0  0  0  0  0  0  0  0  0
   -1.4352   21.8904  -28.2410 H   0  0  0  0  0  0  0  0  0  0  0  0
   -2.2017   20.7952  -29.9296 H   0  0  0  0  0  0  0  0  0  0  0  0
   -3.8119   21.2270  -29.1557 H   0  0  0  0  0  0  0  0  0  0  0  0
   -2.9650   25.2950  -30.3500 H   0  0  0  0  0  0  0  0  0  0  0  0
   -7.7102   24.0136  -31.2433 H   0  0  0  0  0  0  0  0  0  0  0  0
   -8.9730   21.7104  -32.3647 H   0  0  0  0  0  0  0  0  0  0  0  0
   -8.5400   19.3443  -33.0896 H   0  0  0  0  0  0  0  0  0  0  0  0
   -6.9415   17.9035  -35.0707 H   0  0  0  0  0  0  0  0  0  0  0  0
   -4.9113   14.5218  -31.5332 H   0  0  0  0  0  0  0  0  0  0  0  0
   -5.5490   13.7702  -33.0349 H   0  0  0  0  0  0  0  0  0  0  0  0
   -3.9258   14.5396  -33.0349 H   0  0  0  0  0  0  0  0  0  0  0  0
   -5.1958   17.0759  -31.2291 H   0  0  0  0  0  0  0  0  0  0  0  0
   -4.3442   19.7763  -31.9780 H   0  0  0  0  0  0  0  0  0  0  0  0
   -0.4824   23.6540  -29.3808 H   0  0  0  0  0  0  0  0  0  0  0  0
   -1.9621   23.9063  -30.3494 H   0  0  0  0  0  0  0  0  0  0  0  0
  1  2  1  0
  2  3  1  0
  3  4  1  0
  4  5  1  0
  5  6  1  0
  6  7  1  0
  7  8  2  0
  7  9  1  0
  9 10  1  0
 10 11  1  0
 11 12  1  0
 11 13  2  0
 10 14  2  0
 14 15  1  0
 15 16  2  0
 16 17  1  0
 17 18  2  0
 18 19  1  0
 19 20  1  0
 20 21  2  0
 21 22  1  0
 22 23  1  0
 22 24  1  0
 18 25  1  0
 25 26  2  0
  5 27  1  0
 27  2  1  0
 26  9  1  0
 26 15  1  0
 24 19  2  0
  1 28  1  0
  1 29  1  0
  1 30  1  0
  3 31  1  0
  3 32  1  0
  4 33  1  0
  4 34  1  0
  5 35  1  1
  6 36  1  0
  6 37  1  0
 12 38  1  0
 14 39  1  0
 16 40  1  0
 17 41  1  0
 20 42  1  0
 23 43  1  0
 23 44  1  0
 23 45  1  0
 24 46  1  0
 25 47  1  0
 27 48  1  0
 27 49  1  0
M  CHG  1  12  -1
M  END
>  <UniqueID>  (29) 
29

>  <SMILES>  (29) 
CN1CC[C@@H](CC(=O)n2c(C([NH-])=O)cc3ccc(-c4cnn(C)c4)cc32)C1

>  <Energy>  (29) 
125.1255475194966

>  <Genealogy>  (29) 
CN1CCC(CC(=O)n2c(C([NH-])=O)cc3ccc(-c4cnn(C)c4)cc32)C1 (protonated)
CN1CC[C@@H](CC(=O)n2c(C([NH-])=O)cc3ccc(-c4cnn(C)c4)cc32)C1 (chirality)
CN1CC[C@@H](CC(=O)n2c(C([NH-])=O)cc3ccc(-c4cnn(C)c4)cc32)C1 (3D coordinates assigned)
CN1CC[C@@H](CC(=O)n2c(C([NH-])=O)cc3ccc(-c4cnn(C)c4)cc32)C1 (nonaromatic ring conformer: 125.1255475194966 kcal/mol)

>  <smiles>  (29) 
CN1CCC(CC(=O)n2c(C(N)=O)cc3ccc(-c4cnn(C)c4)cc32)C1

>  <score_type>  (29) 
oracle

>  <origin>  (29) 
adg

>  <m_score__min__energy>  (29) 
-12.039999999999999

>  <m_primary>  (29) 
energy

$$$$
29:0
     RDKit          3D

 33 34  0  0  0  0  0  0  0  0999 V2000
   -3.3020   18.7300  -33.8240 C   0  0  0  0  0  0  0  0  0  0  0  0
   -4.5400   17.9620  -33.7660 N   0  0  0  0  0  0  0  0  0  0  0  0
   -5.8360   18.4770  -34.0920 C   0  0  0  0  0  0  0  0  0  0  0  0
   -6.0570   18.8570  -35.2720 O   0  0  0  0  0  0  0  0  0  0  0  0
   -6.9510   18.5460  -33.0830 C   0  0  0  0  0  0  0  0  0  0  0  0
   -7.0820   19.9380  -32.5250 C   0  0  0  0  0  0  0  0  0  0  0  0
   -8.3680   20.4780  -32.2640 C   0  0  0  0  0  0  0  0  0  0  0  0
   -8.5060   21.7670  -31.7240 C   0  0  0  0  0  0  0  0  0  0  0  0
   -7.3480   22.4950  -31.4640 C   0  0  0  0  0  0  0  0  0  0  0  0
   -7.1910   23.7500  -30.9220 C   0  0  0  0  0  0  0  0  0  0  0  0
   -5.8150   23.9650  -30.8800 C   0  0  0  0  0  0  0  0  0  0  0  0
   -5.2020   25.2350  -30.4410 C   0  0  0  0  0  0  0  0  0  0  0  0
   -3.8810   25.5900  -30.8450 N   0  0  0  0  0  0  0  0  0  0  0  0
   -5.8680   26.0370  -29.7310 O   0  0  0  0  0  0  0  0  0  0  0  0
   -5.1480   22.8810  -31.3670 N   0  0  0  0  0  0  0  0  0  0  0  0
   -3.7300   22.6580  -31.4110 C   0  0  0  0  0  0  0  0  0  0  0  0
   -3.1030   21.9370  -32.5620 C   0  0  0  0  0  0  0  0  0  0  0  0
   -2.9940   23.1340  -30.5060 O   0  0  0  0  0  0  0  0  0  0  0  0
   -6.1000   21.9930  -31.7250 C   0  0  0  0  0  0  0  0  0  0  0  0
   -5.9310   20.7090  -32.2520 C   0  0  0  0  0  0  0  0  0  0  0  0
   -2.9556   18.9449  -32.8023 H   0  0  0  0  0  0  0  0  0  0  0  0
   -2.5347   18.1490  -34.3567 H   0  0  0  0  0  0  0  0  0  0  0  0
   -3.4817   19.6755  -34.3567 H   0  0  0  0  0  0  0  0  0  0  0  0
   -7.8958   18.2622  -33.5697 H   0  0  0  0  0  0  0  0  0  0  0  0
   -6.7228   17.8555  -32.2577 H   0  0  0  0  0  0  0  0  0  0  0  0
   -9.2650   19.8815  -32.4867 H   0  0  0  0  0  0  0  0  0  0  0  0
   -9.4996   22.1890  -31.5127 H   0  0  0  0  0  0  0  0  0  0  0  0
   -7.9836   24.4376  -30.5919 H   0  0  0  0  0  0  0  0  0  0  0  0
   -3.0520   25.2870  -30.2900 H   0  0  0  0  0  0  0  0  0  0  0  0
   -2.4257   21.1581  -32.1817 H   0  0  0  0  0  0  0  0  0  0  0  0
   -3.8889   21.4720  -33.1753 H   0  0  0  0  0  0  0  0  0  0  0  0
   -2.5334   22.6507  -33.1753 H   0  0  0  0  0  0  0  0  0  0  0  0
   -4.9254   20.3090  -32.4492 H   0  0  0  0  0  0  0  0  0  0  0  0
  1  2  1  0
  2  3  1  0
  3  4  2  0
  3  5  1  0
  5  6  1  0
  6  7  2  0
  7  8  1  0
  8  9  2  0
  9 10  1  0
 10 11  2  0
 11 12  1  0
 12 13  1  0
 12 14  2  0
 11 15  1  0
 15 16  1  0
 16 17  1  0
 16 18  2  0
 15 19  1  0
 19 20  2  0
 20  6  1  0
 19  9  1  0
  1 21  1  0
  1 22  1  0
  1 23  1  0
  5 24  1  0
  5 25  1  0
  7 26  1  0
  8 27  1  0
 10 28  1  0
 13 29  1  0
 17 30  1  0
 17 31  1  0
 17 32  1  0
 20 33  1  0
M  CHG  2   2  -1  13  -1
M  END
>  <UniqueID>  (30) 
30

>  <SMILES>  (30) 
C[N-]C(=O)Cc1ccc2cc(C([NH-])=O)n(C(C)=O)c2c1

>  <Energy>  (30) 
68.5157470309484

>  <Genealogy>  (30) 
C[N-]C(=O)Cc1ccc2cc(C([NH-])=O)n(C(C)=O)c2c1 (protonated)
C[N-]C(=O)Cc1ccc2cc(C([NH-])=O)n(C(C)=O)c2c1 (3D coordinates assigned)
C[N-]C(=O)Cc1ccc2cc(C([NH-])=O)n(C(C)=O)c2c1 (optimized conformer: 68.5157470309484 kcal/mol)

>  <smiles>  (30) 
CNC(=O)Cc1ccc2cc(C(N)=O)n(C(C)=O)c2c1

>  <score_type>  (30) 
oracle

>  <origin>  (30) 
adg

>  <m_score__min__energy>  (30) 
-10

>  <m_primary>  (30) 
energy

$$$$
30:0
     RDKit          3D

 38 39  0  0  0  0  0  0  0  0999 V2000
   -6.0990   17.1270  -31.1620 C   0  0  0  0  0  0  0  0  0  0  0  0
   -6.8020   17.4260  -32.2590 C   0  0  0  0  0  0  0  0  0  0  0  0
   -6.1250   16.9160  -33.9760 Br  0  0  0  0  0  0  0  0  0  0  0  0
   -8.1020   18.1830  -32.1700 C   0  0  0  0  0  0  0  0  0  0  0  0
   -8.1410   19.2770  -33.1510 N   0  0  0  0  0  0  0  0  0  0  0  0
   -7.9540   20.5410  -32.4860 C   0  0  0  0  0  0  0  0  0  0  0  0
   -9.0690   21.2450  -31.9590 C   0  0  0  0  0  0  0  0  0  0  0  0
   -8.9010   22.4870  -31.3270 C   0  0  0  0  0  0  0  0  0  0  0  0
   -7.6130   23.0110  -31.2510 C   0  0  0  0  0  0  0  0  0  0  0  0
   -7.1670   24.1830  -30.6830 C   0  0  0  0  0  0  0  0  0  0  0  0
   -5.7910   24.1980  -30.9010 C   0  0  0  0  0  0  0  0  0  0  0  0
   -4.9220   25.3340  -30.5250 C   0  0  0  0  0  0  0  0  0  0  0  0
   -3.5710   25.0960  -30.1420 N   0  0  0  0  0  0  0  0  0  0  0  0
   -5.3710   26.5100  -30.5040 O   0  0  0  0  0  0  0  0  0  0  0  0
   -5.4000   23.0760  -31.5710 N   0  0  0  0  0  0  0  0  0  0  0  0
   -4.0690   22.6860  -31.9430 C   0  0  0  0  0  0  0  0  0  0  0  0
   -3.1040   22.9080  -31.1600 O   0  0  0  0  0  0  0  0  0  0  0  0
   -3.8520   22.0340  -33.1600 O   0  0  0  0  0  0  0  0  0  0  0  0
   -2.7990   21.0970  -33.3570 C   0  0  0  0  0  0  0  0  0  0  0  0
   -3.3690   19.6870  -33.3520 C   0  0  0  0  0  0  0  0  0  0  0  0
   -4.6550   19.7010  -33.8610 F   0  0  0  0  0  0  0  0  0  0  0  0
   -6.5290   22.3610  -31.7790 C   0  0  0  0  0  0  0  0  0  0  0  0
   -6.6630   21.1130  -32.3960 C   0  0  0  0  0  0  0  0  0  0  0  0
   -6.4781   17.4150  -30.1704 H   0  0  0  0  0  0  0  0  0  0  0  0
   -5.1414   16.5930  -31.2510 H   0  0  0  0  0  0  0  0  0  0  0  0
   -8.9350   17.4923  -32.3676 H   0  0  0  0  0  0  0  0  0  0  0  0
   -8.1898   18.6127  -31.1612 H   0  0  0  0  0  0  0  0  0  0  0  0
   -9.0620   19.2790  -33.6500 H   0  0  0  0  0  0  0  0  0  0  0  0
   -7.3870   19.1360  -33.8640 H   0  0  0  0  0  0  0  0  0  0  0  0
  -10.0763   20.8119  -32.0471 H   0  0  0  0  0  0  0  0  0  0  0  0
   -9.7599   23.0294  -30.9050 H   0  0  0  0  0  0  0  0  0  0  0  0
   -7.7689   24.9454  -30.1669 H   0  0  0  0  0  0  0  0  0  0  0  0
   -2.8060   25.0790  -30.8520 H   0  0  0  0  0  0  0  0  0  0  0  0
   -2.3105   21.2918  -34.3232 H   0  0  0  0  0  0  0  0  0  0  0  0
   -2.0616   21.1978  -32.5470 H   0  0  0  0  0  0  0  0  0  0  0  0
   -2.7372   19.0352  -33.9733 H   0  0  0  0  0  0  0  0  0  0  0  0
   -3.3904   19.3070  -32.3200 H   0  0  0  0  0  0  0  0  0  0  0  0
   -5.7854   20.5885  -32.8018 H   0  0  0  0  0  0  0  0  0  0  0  0
  1  2  2  0
  2  3  1  0
  2  4  1  0
  4  5  1  0
  5  6  1  0
  6  7  2  0
  7  8  1  0
  8  9  2  0
  9 10  1  0
 10 11  2  0
 11 12  1  0
 12 13  1  0
 12 14  2  0
 11 15  1  0
 15 16  1  0
 16 17  2  0
 16 18  1  0
 18 19  1  0
 19 20  1  0
 20 21  1  0
 15 22  1  0
 22 23  2  0
 23  6  1  0
 22  9  1  0
  1 24  1  0
  1 25  1  0
  4 26  1  0
  4 27  1  0
  5 28  1  0
  5 29  1  0
  7 30  1  0
  8 31  1  0
 10 32  1  0
 13 33  1  0
 19 34  1  0
 19 35  1  0
 20 36  1  0
 20 37  1  0
 23 38  1  0
M  CHG  2   5   1  13  -1
M  END
>  <UniqueID>  (31) 
31

>  <SMILES>  (31) 
C=C(Br)C[NH2+]c1ccc2cc(C([NH-])=O)n(C(=O)OCCF)c2c1

>  <Energy>  (31) 
69.08128396030277

>  <Genealogy>  (31) 
C=C(Br)C[NH2+]c1ccc2cc(C([NH-])=O)n(C(=O)OCCF)c2c1 (protonated)
C=C(Br)C[NH2+]c1ccc2cc(C([NH-])=O)n(C(=O)OCCF)c2c1 (3D coordinates assigned)
C=C(Br)C[NH2+]c1ccc2cc(C([NH-])=O)n(C(=O)OCCF)c2c1 (optimized conformer: 69.08128396030277 kcal/mol)

>  <smiles>  (31) 
C=C(Br)CNc1ccc2cc(C(N)=O)n(C(=O)OCCF)c2c1

>  <score_type>  (31) 
oracle

>  <origin>  (31) 
adg

>  <m_score__min__energy>  (31) 
-9.8300000000000001

>  <m_primary>  (31) 
energy

$$$$
31:0
     RDKit          3D

 48 49  0  0  0  0  0  0  0  0999 V2000
   -2.9180   20.3870  -33.5850 C   0  0  0  0  0  0  0  0  0  0  0  0
   -3.3670   19.0090  -33.1120 C   0  0  0  0  0  0  0  0  0  0  0  0
   -4.1200   18.3500  -34.1270 O   0  0  0  0  0  0  0  0  0  0  0  0
   -5.3530   17.7290  -33.8910 C   0  0  0  0  0  0  0  0  0  0  0  0
   -6.2470   17.7110  -34.7800 O   0  0  0  0  0  0  0  0  0  0  0  0
   -5.5950   17.0520  -32.5770 C   0  0  0  0  0  0  0  0  0  0  0  0
   -6.8240   17.6350  -31.8720 C   0  0  0  0  0  0  0  0  0  0  0  0
   -7.4640   18.6800  -32.6770 N   0  0  0  0  0  0  0  0  0  0  0  0
   -7.4570   20.0710  -32.3050 C   0  0  0  0  0  0  0  0  0  0  0  0
   -8.6710   20.8030  -32.3420 C   0  0  0  0  0  0  0  0  0  0  0  0
   -8.7050   22.1610  -31.9820 C   0  0  0  0  0  0  0  0  0  0  0  0
   -7.5140   22.7600  -31.5820 C   0  0  0  0  0  0  0  0  0  0  0  0
   -7.2570   24.0570  -31.1990 C   0  0  0  0  0  0  0  0  0  0  0  0
   -5.8920   24.0960  -30.9170 C   0  0  0  0  0  0  0  0  0  0  0  0
   -5.1950   25.2990  -30.4130 C   0  0  0  0  0  0  0  0  0  0  0  0
   -3.8710   25.6150  -30.8390 N   0  0  0  0  0  0  0  0  0  0  0  0
   -5.7640   26.0440  -29.5710 O   0  0  0  0  0  0  0  0  0  0  0  0
   -5.3300   22.8710  -31.1200 N   0  0  0  0  0  0  0  0  0  0  0  0
   -3.9450   22.5120  -30.9960 C   0  0  0  0  0  0  0  0  0  0  0  0
   -3.1180   22.9290  -31.8510 O   0  0  0  0  0  0  0  0  0  0  0  0
   -3.4650   21.7530  -29.7840 C   0  0  0  0  0  0  0  0  0  0  0  0
   -3.1930   22.6540  -28.5680 C   0  0  0  0  0  0  0  0  0  0  0  0
   -1.8190   23.3250  -28.6290 C   0  0  0  0  0  0  0  0  0  0  0  0
   -1.9010   24.4830  -29.4110 O   0  0  0  0  0  0  0  0  0  0  0  0
   -6.3340   22.0670  -31.5280 C   0  0  0  0  0  0  0  0  0  0  0  0
   -6.2670   20.7220  -31.9000 C   0  0  0  0  0  0  0  0  0  0  0  0
   -2.7103   21.0244  -32.7128 H   0  0  0  0  0  0  0  0  0  0  0  0
   -2.0059   20.2872  -34.1917 H   0  0  0  0  0  0  0  0  0  0  0  0
   -3.7138   20.8437  -34.1917 H   0  0  0  0  0  0  0  0  0  0  0  0
   -2.4811   18.4040  -32.8690 H   0  0  0  0  0  0  0  0  0  0  0  0
   -4.0019   19.1295  -32.2218 H   0  0  0  0  0  0  0  0  0  0  0  0
   -5.7569   15.9780  -32.7511 H   0  0  0  0  0  0  0  0  0  0  0  0
   -4.7162   17.2125  -31.9352 H   0  0  0  0  0  0  0  0  0  0  0  0
   -7.5494   16.8276  -31.6935 H   0  0  0  0  0  0  0  0  0  0  0  0
   -6.4950   18.0849  -30.9237 H   0  0  0  0  0  0  0  0  0  0  0  0
   -7.9650   18.4090  -33.5540 H   0  0  0  0  0  0  0  0  0  0  0  0
   -9.5980   20.3014  -32.6565 H   0  0  0  0  0  0  0  0  0  0  0  0
   -9.6440   22.7330  -32.0153 H   0  0  0  0  0  0  0  0  0  0  0  0
   -7.9760   24.8867  -31.1300 H   0  0  0  0  0  0  0  0  0  0  0  0
   -3.1450   24.8700  -30.9360 H   0  0  0  0  0  0  0  0  0  0  0  0
   -4.2333   21.0161  -29.5071 H   0  0  0  0  0  0  0  0  0  0  0  0
   -2.5112   21.2769  -30.0555 H   0  0  0  0  0  0  0  0  0  0  0  0
   -3.9656   23.4360  -28.5290 H   0  0  0  0  0  0  0  0  0  0  0  0
   -3.2140   22.0182  -27.6706 H   0  0  0  0  0  0  0  0  0  0  0  0
   -1.4952   23.5912  -27.6120 H   0  0  0  0  0  0  0  0  0  0  0  0
   -1.0910   22.6314  -29.0751 H   0  0  0  0  0  0  0  0  0  0  0  0
   -2.3060   24.2030  -30.2740 H   0  0  0  0  0  0  0  0  0  0  0  0
   -5.3098   20.1804  -31.8786 H   0  0  0  0  0  0  0  0  0  0  0  0
  1  2  1  0
  2  3  1  0
  3  4  1  0
  4  5  2  0
  4  6  1  0
  6  7  1  0
  7  8  1  0
  8  9  1  0
  9 10  2  0
 10 11  1  0
 11 12  2  0
 12 13  1  0
 13 14  2  0
 14 15  1  0
 15 16  1  0
 15 17  2  0
 14 18  1  0
 18 19  1  0
 19 20  2  0
 19 21  1  0
 21 22  1  0
 22 23  1  0
 23 24  1  0
 18 25  1  0
 25 26  2  0
 26  9  1  0
 25 12  1  0
  1 27  1  0
  1 28  1  0
  1 29  1  0
  2 30  1  0
  2 31  1  0
  6 32  1  0
  6 33  1  0
  7 34  1  0
  7 35  1  0
  8 36  1  0
 10 37  1  0
 11 38  1  0
 13 39  1  0
 16 40  1  0
 21 41  1  0
 21 42  1  0
 22 43  1  0
 22 44  1  0
 23 45  1  0
 23 46  1  0
 24 47  1  0
 26 48  1  0
M  CHG  1  16  -1
M  END
>  <UniqueID>  (32) 
32

>  <SMILES>  (32) 
CCOC(=O)CCNc1ccc2cc(C([NH-])=O)n(C(=O)CCCO)c2c1

>  <Energy>  (32) 
74.91339187428

>  <Genealogy>  (32) 
CCOC(=O)CCNc1ccc2cc(C([NH-])=O)n(C(=O)CCCO)c2c1 (protonated)
CCOC(=O)CCNc1ccc2cc(C([NH-])=O)n(C(=O)CCCO)c2c1 (3D coordinates assigned)
CCOC(=O)CCNc1ccc2cc(C([NH-])=O)n(C(=O)CCCO)c2c1 (optimized conformer: 74.91339187428 kcal/mol)

>  <smiles>  (32) 
CCOC(=O)CCNc1ccc2cc(C(N)=O)n(C(=O)CCCO)c2c1

>  <score_type>  (32) 
oracle

>  <origin>  (32) 
adg

>  <m_score__min__energy>  (32) 
-10.52

>  <m_primary>  (32) 
energy

$$$$
32:0
     RDKit          3D

 50 53  0  0  0  0  0  0  0  0999 V2000
   -4.2520   25.6200  -30.4690 N   0  0  0  0  0  0  0  0  0  0  0  0
   -5.5450   25.1090  -30.1530 C   0  0  0  0  0  0  0  0  0  0  0  0
   -6.2760   25.7370  -29.3420 O   0  0  0  0  0  0  0  0  0  0  0  0
   -6.0170   23.8560  -30.7770 C   0  0  0  0  0  0  0  0  0  0  0  0
   -7.3450   23.6000  -31.1140 C   0  0  0  0  0  0  0  0  0  0  0  0
   -7.3400   22.3440  -31.6810 C   0  0  0  0  0  0  0  0  0  0  0  0
   -8.3860   21.5900  -32.2040 C   0  0  0  0  0  0  0  0  0  0  0  0
   -8.0840   20.3200  -32.7260 C   0  0  0  0  0  0  0  0  0  0  0  0
   -6.7550   19.8230  -32.7100 C   0  0  0  0  0  0  0  0  0  0  0  0
   -6.4550   18.5130  -33.2380 N   0  0  0  0  0  0  0  0  0  0  0  0
   -6.0280   18.3120  -34.6200 C   0  0  0  0  0  0  0  0  0  0  0  0
   -4.5850   17.8030  -34.6220 C   0  0  0  0  0  0  0  0  0  0  0  0
   -4.3800   16.6480  -33.7210 N   0  0  0  0  0  0  0  0  0  0  0  0
   -4.8110   15.3570  -34.2650 C   0  0  0  0  0  0  0  0  0  0  0  0
   -5.1440   14.4630  -33.0690 C   0  0  0  0  0  0  0  0  0  0  0  0
   -4.9560   15.3370  -31.8350 C   0  0  0  0  0  0  0  0  0  0  0  0
   -4.9600   16.7620  -32.3720 C   0  0  2  0  0  0  0  0  0  0  0  0
   -6.3970   17.3360  -32.3750 C   0  0  0  0  0  0  0  0  0  0  0  0
   -5.7210   20.6230  -32.1740 C   0  0  0  0  0  0  0  0  0  0  0  0
   -6.0510   21.8840  -31.6700 C   0  0  0  0  0  0  0  0  0  0  0  0
   -5.2310   22.8000  -31.1220 N   0  0  0  0  0  0  0  0  0  0  0  0
   -3.8140   22.6750  -30.9550 C   0  0  0  0  0  0  0  0  0  0  0  0
   -3.0710   22.5960  -31.9700 O   0  0  0  0  0  0  0  0  0  0  0  0
   -3.2190   22.5990  -29.5850 C   0  0  0  0  0  0  0  0  0  0  0  0
   -1.9730   23.4390  -29.5120 C   0  0  0  0  0  0  0  0  0  0  0  0
   -2.0750   24.6490  -29.3680 O   0  0  0  0  0  0  0  0  0  0  0  0
   -0.6080   22.8240  -29.6170 C   0  0  0  0  0  0  0  0  0  0  0  0
    0.3170   23.6410  -28.9880 F   0  0  0  0  0  0  0  0  0  0  0  0
   -3.5020   25.6690  -29.7440 H   0  0  0  0  0  0  0  0  0  0  0  0
   -8.2118   24.2596  -30.9602 H   0  0  0  0  0  0  0  0  0  0  0  0
   -9.4163   21.9753  -32.2089 H   0  0  0  0  0  0  0  0  0  0  0  0
   -8.8888   19.7033  -33.1526 H   0  0  0  0  0  0  0  0  0  0  0  0
   -6.6816   17.5719  -35.1048 H   0  0  0  0  0  0  0  0  0  0  0  0
   -6.0898   19.2616  -35.1718 H   0  0  0  0  0  0  0  0  0  0  0  0
   -4.3212   17.5002  -35.6461 H   0  0  0  0  0  0  0  0  0  0  0  0
   -3.9461   18.6217  -34.2593 H   0  0  0  0  0  0  0  0  0  0  0  0
   -5.7010   15.4906  -34.8975 H   0  0  0  0  0  0  0  0  0  0  0  0
   -4.0227   14.9075  -34.8867 H   0  0  0  0  0  0  0  0  0  0  0  0
   -6.1833   14.1084  -33.1330 H   0  0  0  0  0  0  0  0  0  0  0  0
   -4.5000   13.5718  -33.0369 H   0  0  0  0  0  0  0  0  0  0  0  0
   -5.7814   15.1875  -31.1234 H   0  0  0  0  0  0  0  0  0  0  0  0
   -4.0305   15.0981  -31.2906 H   0  0  0  0  0  0  0  0  0  0  0  0
   -4.3790   17.4631  -31.7549 H   0  0  0  0  0  0  0  0  0  0  0  0
   -7.0948   16.5728  -32.7500 H   0  0  0  0  0  0  0  0  0  0  0  0
   -6.6775   17.6213  -31.3504 H   0  0  0  0  0  0  0  0  0  0  0  0
   -4.6820   20.2622  -32.1539 H   0  0  0  0  0  0  0  0  0  0  0  0
   -3.9498   22.9685  -28.8505 H   0  0  0  0  0  0  0  0  0  0  0  0
   -2.9600   21.5530  -29.3638 H   0  0  0  0  0  0  0  0  0  0  0  0
   -0.6130   21.8360  -29.1335 H   0  0  0  0  0  0  0  0  0  0  0  0
   -0.3371   22.7125  -30.6773 H   0  0  0  0  0  0  0  0  0  0  0  0
  1  2  1  0
  2  3  2  0
  2  4  1  0
  4  5  2  0
  5  6  1  0
  6  7  2  0
  7  8  1  0
  8  9  2  0
  9 10  1  0
 10 11  1  0
 11 12  1  0
 12 13  1  0
 13 14  1  0
 14 15  1  0
 15 16  1  0
 16 17  1  0
 17 18  1  0
  9 19  1  0
 19 20  2  0
 20 21  1  0
 21 22  1  0
 22 23  2  0
 22 24  1  0
 24 25  1  0
 25 26  2  0
 25 27  1  0
 27 28  1  0
 21  4  1  0
 20  6  1  0
 18 10  1  0
 17 13  1  0
  1 29  1  0
  5 30  1  0
  7 31  1  0
  8 32  1  0
 11 33  1  0
 11 34  1  0
 12 35  1  0
 12 36  1  0
 14 37  1  0
 14 38  1  0
 15 39  1  0
 15 40  1  0
 16 41  1  0
 16 42  1  0
 17 43  1  1
 18 44  1  0
 18 45  1  0
 19 46  1  0
 24 47  1  0
 24 48  1  0
 27 49  1  0
 27 50  1  0
M  CHG  1   1  -1
M  END
>  <UniqueID>  (33) 
33

>  <SMILES>  (33) 
[NH-]C(=O)c1cc2ccc(N3CCN4CCC[C@@H]4C3)cc2n1C(=O)CC(=O)CF

>  <Energy>  (33) 
98.56393588855228

>  <Genealogy>  (33) 
[NH-]C(=O)c1cc2ccc(N3CCN4CCCC4C3)cc2n1C(=O)CC(=O)CF (protonated)
[NH-]C(=O)c1cc2ccc(N3CCN4CCC[C@@H]4C3)cc2n1C(=O)CC(=O)CF (chirality)
[NH-]C(=O)c1cc2ccc(N3CCN4CCC[C@@H]4C3)cc2n1C(=O)CC(=O)CF (3D coordinates assigned)
[NH-]C(=O)c1cc2ccc(N3CCN4CCC[C@@H]4C3)cc2n1C(=O)CC(=O)CF (nonaromatic ring conformer: 98.56393588855228 kcal/mol)

>  <smiles>  (33) 
NC(=O)c1cc2ccc(N3CCN4CCCC4C3)cc2n1C(=O)CC(=O)CF

>  <score_type>  (33) 
oracle

>  <origin>  (33) 
adg

>  <m_score__min__energy>  (33) 
-11.06

>  <m_primary>  (33) 
energy

$$$$
33:0
     RDKit          3D

 32 33  0  0  0  0  0  0  0  0999 V2000
   -9.2350   22.0670  -31.9340 C   0  0  0  0  0  0  0  0  0  0  0  0
   -8.3550   23.0310  -31.6690 C   0  0  0  0  0  0  0  0  0  0  0  0
   -7.2810   22.8730  -30.6700 C   0  0  0  0  0  0  0  0  0  0  0  0
   -7.5290   23.0070  -29.4400 O   0  0  0  0  0  0  0  0  0  0  0  0
   -5.9470   22.5460  -31.0910 N   0  0  0  0  0  0  0  0  0  0  0  0
   -4.8360   23.3290  -30.9980 C   0  0  0  0  0  0  0  0  0  0  0  0
   -4.7730   24.6450  -30.3220 C   0  0  0  0  0  0  0  0  0  0  0  0
   -5.4510   24.8690  -29.0850 N   0  0  0  0  0  0  0  0  0  0  0  0
   -4.1310   25.5940  -30.8460 O   0  0  0  0  0  0  0  0  0  0  0  0
   -3.7390   22.6840  -31.5660 C   0  0  0  0  0  0  0  0  0  0  0  0
   -4.2190   21.4760  -32.0210 C   0  0  0  0  0  0  0  0  0  0  0  0
   -3.5610   20.4390  -32.6740 C   0  0  0  0  0  0  0  0  0  0  0  0
   -4.3140   19.3140  -33.0500 C   0  0  0  0  0  0  0  0  0  0  0  0
   -5.7100   19.2550  -32.7930 C   0  0  0  0  0  0  0  0  0  0  0  0
   -6.5030   18.0260  -33.1730 C   0  0  0  0  0  0  0  0  0  0  0  0
   -7.9490   18.1630  -32.7020 C   0  0  0  0  0  0  0  0  0  0  0  0
   -6.4890   17.8530  -34.5480 F   0  0  0  0  0  0  0  0  0  0  0  0
   -5.9450   16.8950  -32.5990 F   0  0  0  0  0  0  0  0  0  0  0  0
   -6.3360   20.3230  -32.1100 C   0  0  0  0  0  0  0  0  0  0  0  0
   -5.5560   21.4190  -31.7260 C   0  0  0  0  0  0  0  0  0  0  0  0
  -10.0193   22.2303  -32.6878 H   0  0  0  0  0  0  0  0  0  0  0  0
   -9.1775   21.1075  -31.3991 H   0  0  0  0  0  0  0  0  0  0  0  0
   -8.4320   23.9820  -32.2163 H   0  0  0  0  0  0  0  0  0  0  0  0
   -5.9390   24.0950  -28.5830 H   0  0  0  0  0  0  0  0  0  0  0  0
   -5.4280   25.8120  -28.6390 H   0  0  0  0  0  0  0  0  0  0  0  0
   -2.7077   23.0602  -31.6361 H   0  0  0  0  0  0  0  0  0  0  0  0
   -2.4839   20.4979  -32.8895 H   0  0  0  0  0  0  0  0  0  0  0  0
   -3.8169   18.4691  -33.5491 H   0  0  0  0  0  0  0  0  0  0  0  0
   -7.9778   18.1657  -31.6024 H   0  0  0  0  0  0  0  0  0  0  0  0
   -8.3708   19.1051  -33.0822 H   0  0  0  0  0  0  0  0  0  0  0  0
   -8.5402   17.3168  -33.0822 H   0  0  0  0  0  0  0  0  0  0  0  0
   -7.4124   20.2928  -31.8855 H   0  0  0  0  0  0  0  0  0  0  0  0
  1  2  2  0
  2  3  1  0
  3  4  2  0
  3  5  1  0
  5  6  1  0
  6  7  1  0
  7  8  1  0
  7  9  2  0
  6 10  2  0
 10 11  1  0
 11 12  2  0
 12 13  1  0
 13 14  2  0
 14 15  1  0
 15 16  1  0
 15 17  1  0
 15 18  1  0
 14 19  1  0
 19 20  2  0
 20  5  1  0
 20 11  1  0
  1 21  1  0
  1 22  1  0
  2 23  1  0
  8 24  1  0
  8 25  1  0
 10 26  1  0
 12 27  1  0
 13 28  1  0
 16 29  1  0
 16 30  1  0
 16 31  1  0
 19 32  1  0
M  END
>  <UniqueID>  (34) 
34

>  <SMILES>  (34) 
C=CC(=O)n1c(C(N)=O)cc2ccc(C(C)(F)F)cc21

>  <Energy>  (34) 
68.29639626746935

>  <Genealogy>  (34) 
C=CC(=O)n1c(C(N)=O)cc2ccc(C(C)(F)F)cc21 (3D coordinates assigned)
C=CC(=O)n1c(C(N)=O)cc2ccc(C(C)(F)F)cc21 (optimized conformer: 68.29639626746935 kcal/mol)

>  <smiles>  (34) 
C=CC(=O)n1c(C(N)=O)cc2ccc(C(C)(F)F)cc21

>  <score_type>  (34) 
oracle

>  <origin>  (34) 
adg

>  <m_score__min__energy>  (34) 
-7.7300000000000004

>  <m_primary>  (34) 
energy

$$$$
34:0
     RDKit          3D

 49 51  0  0  0  0  0  0  0  0999 V2000
   -1.7010   25.6350  -28.9700 N   0  0  0  0  0  0  0  0  0  0  0  0
   -0.9930   24.4160  -29.1750 C   0  0  0  0  0  0  0  0  0  0  0  0
    0.0950   24.2250  -28.5680 O   0  0  0  0  0  0  0  0  0  0  0  0
   -1.5440   23.3530  -30.0400 C   0  0  0  0  0  0  0  0  0  0  0  0
   -0.7950   22.2650  -30.4870 C   0  0  0  0  0  0  0  0  0  0  0  0
   -1.6800   21.4720  -31.1780 C   0  0  0  0  0  0  0  0  0  0  0  0
   -1.4700   20.2690  -31.8450 C   0  0  0  0  0  0  0  0  0  0  0  0
   -2.5620   19.6800  -32.5050 C   0  0  0  0  0  0  0  0  0  0  0  0
   -3.8410   20.3020  -32.4900 C   0  0  0  0  0  0  0  0  0  0  0  0
   -4.9720   19.7250  -33.1690 N   0  0  0  0  0  0  0  0  0  0  0  0
   -5.1570   18.2940  -33.4160 C   0  0  0  0  0  0  0  0  0  0  0  0
   -5.8620   17.6000  -32.2390 C   0  0  0  0  0  0  0  0  0  0  0  0
   -7.2620   18.1860  -31.9550 C   0  0  2  0  0  0  0  0  0  0  0  0
   -8.0750   18.1410  -33.1030 O   0  0  0  0  0  0  0  0  0  0  0  0
   -7.1560   19.6320  -31.4340 C   0  0  0  0  0  0  0  0  0  0  0  0
   -7.6960   20.5800  -32.4370 N   0  0  0  0  0  0  0  0  0  0  0  0
   -9.1690   20.7290  -32.3410 C   0  0  0  0  0  0  0  0  0  0  0  0
   -9.5850   21.9010  -31.4280 C   0  0  0  0  0  0  0  0  0  0  0  0
   -8.5850   22.1620  -30.4670 O   0  0  0  0  0  0  0  0  0  0  0  0
   -7.4250   22.6770  -31.0990 C   0  0  0  0  0  0  0  0  0  0  0  0
   -7.0310   21.8950  -32.3750 C   0  0  0  0  0  0  0  0  0  0  0  0
   -4.0070   21.5280  -31.8080 C   0  0  0  0  0  0  0  0  0  0  0  0
   -2.9070   22.0810  -31.1430 C   0  0  0  0  0  0  0  0  0  0  0  0
   -2.8400   23.2400  -30.4510 N   0  0  0  0  0  0  0  0  0  0  0  0
   -3.9060   24.1870  -30.2740 C   0  0  0  0  0  0  0  0  0  0  0  0
   -3.8540   25.3150  -30.8290 O   0  0  0  0  0  0  0  0  0  0  0  0
   -5.0180   23.8560  -29.5090 O   0  0  0  0  0  0  0  0  0  0  0  0
   -2.7340   25.6870  -29.1180 H   0  0  0  0  0  0  0  0  0  0  0  0
    0.2767   22.0805  -30.3217 H   0  0  0  0  0  0  0  0  0  0  0  0
   -0.4784   19.7930  -31.8554 H   0  0  0  0  0  0  0  0  0  0  0  0
   -2.4261   18.7279  -33.0388 H   0  0  0  0  0  0  0  0  0  0  0  0
   -5.7330   20.3640  -33.4960 H   0  0  0  0  0  0  0  0  0  0  0  0
   -5.7661   18.1646  -34.3228 H   0  0  0  0  0  0  0  0  0  0  0  0
   -4.1644   17.8362  -33.5392 H   0  0  0  0  0  0  0  0  0  0  0  0
   -5.9689   16.5306  -32.4736 H   0  0  0  0  0  0  0  0  0  0  0  0
   -5.2463   17.7595  -31.3415 H   0  0  0  0  0  0  0  0  0  0  0  0
   -7.7303   17.5657  -31.1766 H   0  0  0  0  0  0  0  0  0  0  0  0
   -8.0480   19.0400  -33.5260 H   0  0  0  0  0  0  0  0  0  0  0  0
   -7.7307   19.7246  -30.5006 H   0  0  0  0  0  0  0  0  0  0  0  0
   -6.0979   19.8697  -31.2497 H   0  0  0  0  0  0  0  0  0  0  0  0
   -9.5722   20.9064  -33.3489 H   0  0  0  0  0  0  0  0  0  0  0  0
   -9.5711   19.8039  -31.9022 H   0  0  0  0  0  0  0  0  0  0  0  0
   -9.7395   22.8004  -32.0422 H   0  0  0  0  0  0  0  0  0  0  0  0
  -10.5154   21.6313  -30.9069 H   0  0  0  0  0  0  0  0  0  0  0  0
   -7.6127   23.7252  -31.3748 H   0  0  0  0  0  0  0  0  0  0  0  0
   -6.5931   22.5814  -30.3857 H   0  0  0  0  0  0  0  0  0  0  0  0
   -7.3220   22.4834  -33.2576 H   0  0  0  0  0  0  0  0  0  0  0  0
   -5.9439   21.7284  -32.3527 H   0  0  0  0  0  0  0  0  0  0  0  0
   -4.9817   22.0378  -31.7999 H   0  0  0  0  0  0  0  0  0  0  0  0
  1  2  1  0
  2  3  2  0
  2  4  1  0
  4  5  2  0
  5  6  1  0
  6  7  2  0
  7  8  1  0
  8  9  2  0
  9 10  1  0
 10 11  1  0
 11 12  1  0
 12 13  1  0
 13 14  1  0
 13 15  1  0
 15 16  1  0
 16 17  1  0
 17 18  1  0
 18 19  1  0
 19 20  1  0
 20 21  1  0
  9 22  1  0
 22 23  2  0
 23 24  1  0
 24 25  1  0
 25 26  2  0
 25 27  1  0
 24  4  1  0
 23  6  1  0
 21 16  1  0
  1 28  1  0
  5 29  1  0
  7 30  1  0
  8 31  1  0
 10 32  1  0
 11 33  1  0
 11 34  1  0
 12 35  1  0
 12 36  1  0
 13 37  1  1
 14 38  1  0
 15 39  1  0
 15 40  1  0
 17 41  1  0
 17 42  1  0
 18 43  1  0
 18 44  1  0
 20 45  1  0
 20 46  1  0
 21 47  1  0
 21 48  1  0
 22 49  1  0
M  CHG  2   1  -1  27  -1
M  END
>  <UniqueID>  (35) 
35

>  <SMILES>  (35) 
[NH-]C(=O)c1cc2ccc(NCC[C@H](O)CN3CCOCC3)cc2n1C(=O)[O-]

>  <Energy>  (35) 
98.17019959985598

>  <Genealogy>  (35) 
[NH-]C(=O)c1cc2ccc(NCC[C@H](O)CN3CCOCC3)cc2n1C(=O)[O-] (protonated)
[NH-]C(=O)c1cc2ccc(NCC[C@H](O)CN3CCOCC3)cc2n1C(=O)[O-] (3D coordinates assigned)
[NH-]C(=O)c1cc2ccc(NCC[C@H](O)CN3CCOCC3)cc2n1C(=O)[O-] (nonaromatic ring conformer: 98.17019959985598 kcal/mol)

>  <smiles>  (35) 
NC(=O)c1cc2ccc(NCC[C@H](O)CN3CCOCC3)cc2n1C(=O)O

>  <score_type>  (35) 
oracle

>  <origin>  (35) 
adg

>  <m_score__min__energy>  (35) 
-11.65

>  <m_primary>  (35) 
energy

$$$$
35:0
     RDKit          3D

 43 45  0  0  0  0  0  0  0  0999 V2000
   -8.5510   18.5800  -31.6380 C   0  0  0  0  0  0  0  0  0  0  0  0
   -8.5310   19.7180  -32.5610 N   0  0  0  0  0  0  0  0  0  0  0  0
   -9.6430   20.6540  -32.3170 C   0  0  0  0  0  0  0  0  0  0  0  0
   -9.1850   21.9720  -31.6790 C   0  0  0  0  0  0  0  0  0  0  0  0
   -7.8030   22.1860  -31.9350 O   0  0  0  0  0  0  0  0  0  0  0  0
   -6.8890   22.5620  -30.9480 C   0  0  0  0  0  0  0  0  0  0  0  0
   -7.3000   23.0570  -29.8610 O   0  0  0  0  0  0  0  0  0  0  0  0
   -5.4790   22.4080  -31.1830 N   0  0  0  0  0  0  0  0  0  0  0  0
   -4.4920   23.3260  -30.9680 C   0  0  0  0  0  0  0  0  0  0  0  0
   -4.6620   24.6360  -30.3020 C   0  0  0  0  0  0  0  0  0  0  0  0
   -5.3970   24.7410  -29.0810 N   0  0  0  0  0  0  0  0  0  0  0  0
   -4.1910   25.6790  -30.8250 O   0  0  0  0  0  0  0  0  0  0  0  0
   -3.2570   22.8180  -31.3680 C   0  0  0  0  0  0  0  0  0  0  0  0
   -3.5170   21.5500  -31.8320 C   0  0  0  0  0  0  0  0  0  0  0  0
   -2.6490   20.5910  -32.3440 C   0  0  0  0  0  0  0  0  0  0  0  0
   -3.1900   19.3630  -32.7550 C   0  0  0  0  0  0  0  0  0  0  0  0
   -4.5850   19.1140  -32.6580 C   0  0  0  0  0  0  0  0  0  0  0  0
   -5.1490   17.8110  -33.0940 C   0  0  0  0  0  0  0  0  0  0  0  0
   -6.3170   17.7600  -33.8740 C   0  0  0  0  0  0  0  0  0  0  0  0
   -6.8250   16.5240  -34.2800 C   0  0  0  0  0  0  0  0  0  0  0  0
   -6.1940   15.3750  -33.9230 N   0  0  0  0  0  0  0  0  0  0  0  0
   -5.0630   15.3890  -33.1700 C   0  0  0  0  0  0  0  0  0  0  0  0
   -4.4650   14.2210  -32.8310 F   0  0  0  0  0  0  0  0  0  0  0  0
   -4.5210   16.6030  -32.7420 C   0  0  0  0  0  0  0  0  0  0  0  0
   -5.4340   20.1180  -32.1360 C   0  0  0  0  0  0  0  0  0  0  0  0
   -4.8640   21.3250  -31.7120 C   0  0  0  0  0  0  0  0  0  0  0  0
   -8.5445   18.9484  -30.6015 H   0  0  0  0  0  0  0  0  0  0  0  0
   -9.4597   17.9845  -31.8098 H   0  0  0  0  0  0  0  0  0  0  0  0
   -7.6637   17.9529  -31.8098 H   0  0  0  0  0  0  0  0  0  0  0  0
   -8.5620   19.3560  -33.5430 H   0  0  0  0  0  0  0  0  0  0  0  0
  -10.1292   20.8794  -33.2776 H   0  0  0  0  0  0  0  0  0  0  0  0
  -10.3342   20.1688  -31.6122 H   0  0  0  0  0  0  0  0  0  0  0  0
   -9.7665   22.8032  -32.1044 H   0  0  0  0  0  0  0  0  0  0  0  0
   -9.3453   21.9199  -30.5920 H   0  0  0  0  0  0  0  0  0  0  0  0
   -5.7600   23.8930  -28.5910 H   0  0  0  0  0  0  0  0  0  0  0  0
   -5.5460   25.6750  -28.6370 H   0  0  0  0  0  0  0  0  0  0  0  0
   -2.2814   23.3241  -31.3222 H   0  0  0  0  0  0  0  0  0  0  0  0
   -1.5700   20.7894  -32.4244 H   0  0  0  0  0  0  0  0  0  0  0  0
   -2.5257   18.5839  -33.1571 H   0  0  0  0  0  0  0  0  0  0  0  0
   -6.8289   18.6896  -34.1635 H   0  0  0  0  0  0  0  0  0  0  0  0
   -7.7389   16.4807  -34.8907 H   0  0  0  0  0  0  0  0  0  0  0  0
   -3.6060   16.6142  -32.1316 H   0  0  0  0  0  0  0  0  0  0  0  0
   -6.5194   19.9541  -32.0646 H   0  0  0  0  0  0  0  0  0  0  0  0
  1  2  1  0
  2  3  1  0
  3  4  1  0
  4  5  1  0
  5  6  1  0
  6  7  2  0
  6  8  1  0
  8  9  1  0
  9 10  1  0
 10 11  1  0
 10 12  2  0
  9 13  2  0
 13 14  1  0
 14 15  2  0
 15 16  1  0
 16 17  2  0
 17 18  1  0
 18 19  2  0
 19 20  1  0
 20 21  2  0
 21 22  1  0
 22 23  1  0
 22 24  2  0
 17 25  1  0
 25 26  2  0
 26  8  1  0
 26 14  1  0
 24 18  1  0
  1 27  1  0
  1 28  1  0
  1 29  1  0
  2 30  1  0
  3 31  1  0
  3 32  1  0
  4 33  1  0
  4 34  1  0
 11 35  1  0
 11 36  1  0
 13 37  1  0
 15 38  1  0
 16 39  1  0
 19 40  1  0
 20 41  1  0
 24 42  1  0
 25 43  1  0
M  END
>  <UniqueID>  (36) 
36

>  <SMILES>  (36) 
CNCCOC(=O)n1c(C(N)=O)cc2ccc(-c3ccnc(F)c3)cc21

>  <Energy>  (36) 
85.91201171001408

>  <Genealogy>  (36) 
CNCCOC(=O)n1c(C(N)=O)cc2ccc(-c3ccnc(F)c3)cc21 (3D coordinates assigned)
CNCCOC(=O)n1c(C(N)=O)cc2ccc(-c3ccnc(F)c3)cc21 (optimized conformer: 85.91201171001408 kcal/mol)

>  <smiles>  (36) 
CNCCOC(=O)n1c(C(N)=O)cc2ccc(-c3ccnc(F)c3)cc21

>  <score_type>  (36) 
oracle

>  <origin>  (36) 
adg

>  <m_score__min__energy>  (36) 
-9.2599999999999998

>  <m_primary>  (36) 
energy

$$$$
36:0
     RDKit          3D

 41 42  0  0  0  0  0  0  0  0999 V2000
   -6.0830   18.1650  -34.0260 C   0  0  0  0  0  0  0  0  0  0  0  0
   -6.7860   18.2190  -32.6740 C   0  0  0  0  0  0  0  0  0  0  0  0
   -7.0310   19.6450  -32.2590 C   0  0  0  0  0  0  0  0  0  0  0  0
   -8.3320   20.2010  -32.3560 C   0  0  0  0  0  0  0  0  0  0  0  0
   -8.5640   21.5440  -32.0110 C   0  0  0  0  0  0  0  0  0  0  0  0
   -7.4810   22.3030  -31.5810 C   0  0  0  0  0  0  0  0  0  0  0  0
   -7.4140   23.6290  -31.2110 C   0  0  0  0  0  0  0  0  0  0  0  0
   -6.0740   23.8580  -30.8940 C   0  0  0  0  0  0  0  0  0  0  0  0
   -5.5420   25.1360  -30.3720 C   0  0  0  0  0  0  0  0  0  0  0  0
   -4.2130   25.5590  -30.6810 N   0  0  0  0  0  0  0  0  0  0  0  0
   -6.2690   25.8770  -29.6560 O   0  0  0  0  0  0  0  0  0  0  0  0
   -5.3480   22.7170  -31.0640 N   0  0  0  0  0  0  0  0  0  0  0  0
   -3.9330   22.5430  -30.9110 C   0  0  0  0  0  0  0  0  0  0  0  0
   -3.1400   23.2960  -31.5370 O   0  0  0  0  0  0  0  0  0  0  0  0
   -3.3920   21.5570  -29.9190 C   0  0  0  0  0  0  0  0  0  0  0  0
   -3.2000   22.2340  -28.5550 C   0  0  0  0  0  0  0  0  0  0  0  0
   -1.9080   23.0630  -28.4830 C   0  0  0  0  0  0  0  0  0  0  0  0
   -2.1670   24.5380  -28.1740 C   0  0  0  0  0  0  0  0  0  0  0  0
   -2.2370   25.2580  -29.3740 O   0  0  0  0  0  0  0  0  0  0  0  0
   -6.2200   21.7780  -31.4820 C   0  0  0  0  0  0  0  0  0  0  0  0
   -5.9540   20.4490  -31.8260 C   0  0  0  0  0  0  0  0  0  0  0  0
   -4.9971   18.0816  -33.8716 H   0  0  0  0  0  0  0  0  0  0  0  0
   -6.4412   17.2917  -34.5909 H   0  0  0  0  0  0  0  0  0  0  0  0
   -6.3036   19.0827  -34.5909 H   0  0  0  0  0  0  0  0  0  0  0  0
   -7.7495   17.6933  -32.7466 H   0  0  0  0  0  0  0  0  0  0  0  0
   -6.1443   17.7368  -31.9219 H   0  0  0  0  0  0  0  0  0  0  0  0
   -9.1673   19.5757  -32.7044 H   0  0  0  0  0  0  0  0  0  0  0  0
   -9.5712   21.9810  -32.0791 H   0  0  0  0  0  0  0  0  0  0  0  0
   -8.2411   24.3532  -31.1735 H   0  0  0  0  0  0  0  0  0  0  0  0
   -3.8640   26.4810  -30.3350 H   0  0  0  0  0  0  0  0  0  0  0  0
   -3.5550   24.9490  -31.2140 H   0  0  0  0  0  0  0  0  0  0  0  0
   -4.0991   20.7209  -29.8141 H   0  0  0  0  0  0  0  0  0  0  0  0
   -2.4210   21.1828  -30.2756 H   0  0  0  0  0  0  0  0  0  0  0  0
   -4.0561   22.8990  -28.3682 H   0  0  0  0  0  0  0  0  0  0  0  0
   -3.1293   21.4406  -27.7964 H   0  0  0  0  0  0  0  0  0  0  0  0
   -1.2663   22.6458  -27.6930 H   0  0  0  0  0  0  0  0  0  0  0  0
   -1.4257   23.0111  -29.4703 H   0  0  0  0  0  0  0  0  0  0  0  0
   -3.1177   24.6378  -27.6298 H   0  0  0  0  0  0  0  0  0  0  0  0
   -1.3486   24.9336  -27.5546 H   0  0  0  0  0  0  0  0  0  0  0  0
   -2.1350   24.5890  -30.1020 H   0  0  0  0  0  0  0  0  0  0  0  0
   -4.9344   20.0413  -31.7611 H   0  0  0  0  0  0  0  0  0  0  0  0
  1  2  1  0
  2  3  1  0
  3  4  2  0
  4  5  1  0
  5  6  2  0
  6  7  1  0
  7  8  2  0
  8  9  1  0
  9 10  1  0
  9 11  2  0
  8 12  1  0
 12 13  1  0
 13 14  2  0
 13 15  1  0
 15 16  1  0
 16 17  1  0
 17 18  1  0
 18 19  1  0
 12 20  1  0
 20 21  2  0
 21  3  1  0
 20  6  1  0
  1 22  1  0
  1 23  1  0
  1 24  1  0
  2 25  1  0
  2 26  1  0
  4 27  1  0
  5 28  1  0
  7 29  1  0
 10 30  1  0
 10 31  1  0
 15 32  1  0
 15 33  1  0
 16 34  1  0
 16 35  1  0
 17 36  1  0
 17 37  1  0
 18 38  1  0
 18 39  1  0
 19 40  1  0
 21 41  1  0
M  END
>  <UniqueID>  (37) 
37

>  <SMILES>  (37) 
CCc1ccc2cc(C(N)=O)n(C(=O)CCCCO)c2c1

>  <Energy>  (37) 
69.62555954220691

>  <Genealogy>  (37) 
CCc1ccc2cc(C(N)=O)n(C(=O)CCCCO)c2c1 (3D coordinates assigned)
CCc1ccc2cc(C(N)=O)n(C(=O)CCCCO)c2c1 (optimized conformer: 69.62555954220691 kcal/mol)

>  <smiles>  (37) 
CCc1ccc2cc(C(N)=O)n(C(=O)CCCCO)c2c1

>  <score_type>  (37) 
oracle

>  <origin>  (37) 
adg

>  <m_score__min__energy>  (37) 
-8.5500000000000007

>  <m_primary>  (37) 
energy

$$$$
37:0
     RDKit          3D

 39 40  0  0  0  0  0  0  0  0999 V2000
    0.2800   24.1830  -28.2200 C   0  0  0  0  0  0  0  0  0  0  0  0
   -1.1870   24.4190  -28.6370 C   0  0  0  0  0  0  0  0  0  0  0  0
   -2.0530   24.5060  -27.3700 C   0  0  0  0  0  0  0  0  0  0  0  0
   -1.3090   25.6440  -29.3220 O   0  0  0  0  0  0  0  0  0  0  0  0
   -1.7140   23.2590  -29.5210 C   0  0  0  0  0  0  0  0  0  0  0  0
   -3.1510   23.3760  -29.7770 N   0  0  0  0  0  0  0  0  0  0  0  0
   -3.8040   22.7300  -30.8800 C   0  0  0  0  0  0  0  0  0  0  0  0
   -3.1370   22.0450  -31.7030 O   0  0  0  0  0  0  0  0  0  0  0  0
   -5.2250   22.8570  -31.0470 N   0  0  0  0  0  0  0  0  0  0  0  0
   -5.9960   23.9610  -30.8320 C   0  0  0  0  0  0  0  0  0  0  0  0
   -5.5310   25.2480  -30.2740 C   0  0  0  0  0  0  0  0  0  0  0  0
   -4.1910   25.6770  -30.5030 N   0  0  0  0  0  0  0  0  0  0  0  0
   -6.3090   25.9850  -29.6150 O   0  0  0  0  0  0  0  0  0  0  0  0
   -7.3250   23.6960  -31.1560 C   0  0  0  0  0  0  0  0  0  0  0  0
   -7.3450   22.3860  -31.5790 C   0  0  0  0  0  0  0  0  0  0  0  0
   -8.4010   21.6110  -32.0470 C   0  0  0  0  0  0  0  0  0  0  0  0
   -8.1230   20.2960  -32.4560 C   0  0  0  0  0  0  0  0  0  0  0  0
   -6.8050   19.7760  -32.3840 C   0  0  0  0  0  0  0  0  0  0  0  0
   -6.5090   18.3850  -32.8840 C   0  0  0  0  0  0  0  0  0  0  0  0
   -5.4710   17.8490  -32.1450 F   0  0  0  0  0  0  0  0  0  0  0  0
   -7.6220   17.5720  -32.7550 F   0  0  0  0  0  0  0  0  0  0  0  0
   -6.1450   18.4130  -34.2190 F   0  0  0  0  0  0  0  0  0  0  0  0
   -5.7550   20.6050  -31.9250 C   0  0  0  0  0  0  0  0  0  0  0  0
   -6.0640   21.9030  -31.5040 C   0  0  0  0  0  0  0  0  0  0  0  0
    0.3519   24.1714  -27.1224 H   0  0  0  0  0  0  0  0  0  0  0  0
    0.6242   23.2179  -28.6202 H   0  0  0  0  0  0  0  0  0  0  0  0
    0.9095   24.9914  -28.6202 H   0  0  0  0  0  0  0  0  0  0  0  0
   -1.4090   24.4413  -26.4806 H   0  0  0  0  0  0  0  0  0  0  0  0
   -2.5951   25.4631  -27.3614 H   0  0  0  0  0  0  0  0  0  0  0  0
   -2.7746   23.6758  -27.3614 H   0  0  0  0  0  0  0  0  0  0  0  0
   -2.1950   25.6660  -29.7690 H   0  0  0  0  0  0  0  0  0  0  0  0
   -1.1794   23.2734  -30.4822 H   0  0  0  0  0  0  0  0  0  0  0  0
   -1.5395   22.3151  -28.9838 H   0  0  0  0  0  0  0  0  0  0  0  0
   -3.7150   24.0030  -29.1610 H   0  0  0  0  0  0  0  0  0  0  0  0
   -3.4880   25.6790  -29.7300 H   0  0  0  0  0  0  0  0  0  0  0  0
   -8.1779   24.3873  -31.0882 H   0  0  0  0  0  0  0  0  0  0  0  0
   -9.4228   22.0155  -32.0954 H   0  0  0  0  0  0  0  0  0  0  0  0
   -8.9372   19.6618  -32.8367 H   0  0  0  0  0  0  0  0  0  0  0  0
   -4.7185   20.2374  -31.8996 H   0  0  0  0  0  0  0  0  0  0  0  0
  1  2  1  0
  2  3  1  0
  2  4  1  0
  2  5  1  0
  5  6  1  0
  6  7  1  0
  7  8  2  0
  7  9  1  0
  9 10  1  0
 10 11  1  0
 11 12  1  0
 11 13  2  0
 10 14  2  0
 14 15  1  0
 15 16  2  0
 16 17  1  0
 17 18  2  0
 18 19  1  0
 19 20  1  0
 19 21  1  0
 19 22  1  0
 18 23  1  0
 23 24  2  0
 24  9  1  0
 24 15  1  0
  1 25  1  0
  1 26  1  0
  1 27  1  0
  3 28  1  0
  3 29  1  0
  3 30  1  0
  4 31  1  0
  5 32  1  0
  5 33  1  0
  6 34  1  0
 12 35  1  0
 14 36  1  0
 16 37  1  0
 17 38  1  0
 23 39  1  0
M  CHG  1  12  -1
M  END
>  <UniqueID>  (38) 
38

>  <SMILES>  (38) 
CC(C)(O)CNC(=O)n1c(C([NH-])=O)cc2ccc(C(F)(F)F)cc21

>  <Energy>  (38) 
73.64114569715525

>  <Genealogy>  (38) 
CC(C)(O)CNC(=O)n1c(C([NH-])=O)cc2ccc(C(F)(F)F)cc21 (protonated)
CC(C)(O)CNC(=O)n1c(C([NH-])=O)cc2ccc(C(F)(F)F)cc21 (3D coordinates assigned)
CC(C)(O)CNC(=O)n1c(C([NH-])=O)cc2ccc(C(F)(F)F)cc21 (optimized conformer: 73.64114569715525 kcal/mol)

>  <smiles>  (38) 
CC(C)(O)CNC(=O)n1c(C(N)=O)cc2ccc(C(F)(F)F)cc21

>  <score_type>  (38) 
oracle

>  <origin>  (38) 
adg

>  <m_score__min__energy>  (38) 
-10.720000000000001

>  <m_primary>  (38) 
energy

$$$$
38:0
     RDKit          3D

 43 44  0  0  0  0  0  0  0  0999 V2000
   -3.1140   25.0920  -30.5360 H   0  0  0  0  0  0  0  0  0  0  0  0
   -3.9280   25.6700  -30.8390 N   0  0  0  0  0  0  0  0  0  0  0  0
   -5.2600   25.3090  -30.4810 C   0  0  0  0  0  0  0  0  0  0  0  0
   -5.9310   26.0840  -29.7490 O   0  0  0  0  0  0  0  0  0  0  0  0
   -5.8520   24.0290  -30.9280 C   0  0  0  0  0  0  0  0  0  0  0  0
   -7.1960   23.8760  -31.2650 C   0  0  0  0  0  0  0  0  0  0  0  0
   -7.9714   24.6560  -31.2845 H   0  0  0  0  0  0  0  0  0  0  0  0
   -7.3470   22.5430  -31.5680 C   0  0  0  0  0  0  0  0  0  0  0  0
   -8.4740   21.8410  -31.9840 C   0  0  0  0  0  0  0  0  0  0  0  0
   -9.4460   22.3440  -32.0949 H   0  0  0  0  0  0  0  0  0  0  0  0
   -8.3330   20.4710  -32.2580 C   0  0  0  0  0  0  0  0  0  0  0  0
   -9.2088   19.8892  -32.5813 H   0  0  0  0  0  0  0  0  0  0  0  0
   -7.0730   19.8260  -32.1230 C   0  0  0  0  0  0  0  0  0  0  0  0
   -6.9450   18.3490  -32.4550 C   0  0  2  0  0  0  0  0  0  0  0  0
   -7.9527   17.9728  -32.6852 H   0  0  0  0  0  0  0  0  0  0  0  0
   -6.4250   17.5440  -31.2520 C   0  0  0  0  0  0  0  0  0  0  0  0
   -6.7412   18.0335  -30.3190 H   0  0  0  0  0  0  0  0  0  0  0  0
   -6.8354   16.5241  -31.2883 H   0  0  0  0  0  0  0  0  0  0  0  0
   -5.3265   17.4987  -31.2883 H   0  0  0  0  0  0  0  0  0  0  0  0
   -6.0780   18.1270  -33.7100 C   0  0  0  0  0  0  0  0  0  0  0  0
   -6.1490   19.2140  -34.5640 F   0  0  0  0  0  0  0  0  0  0  0  0
   -6.5080   16.9960  -34.3860 F   0  0  0  0  0  0  0  0  0  0  0  0
   -4.7580   17.9370  -33.3400 F   0  0  0  0  0  0  0  0  0  0  0  0
   -5.9480   20.5810  -31.7090 C   0  0  0  0  0  0  0  0  0  0  0  0
   -4.9571   20.1116  -31.6207 H   0  0  0  0  0  0  0  0  0  0  0  0
   -6.1260   21.9370  -31.4150 C   0  0  0  0  0  0  0  0  0  0  0  0
   -5.2010   22.8350  -31.0120 N   0  0  0  0  0  0  0  0  0  0  0  0
   -3.8000   22.5810  -30.8110 C   0  0  0  0  0  0  0  0  0  0  0  0
   -2.9590   23.0980  -31.5940 O   0  0  0  0  0  0  0  0  0  0  0  0
   -3.3190   21.6380  -29.7820 C   0  0  0  0  0  0  0  0  0  0  0  0
   -3.9021   20.7171  -29.6339 H   0  0  0  0  0  0  0  0  0  0  0  0
   -2.2340   21.8050  -29.0120 C   0  0  0  0  0  0  0  0  0  0  0  0
   -2.0722   21.0738  -28.2063 H   0  0  0  0  0  0  0  0  0  0  0  0
   -1.2190   22.9060  -29.1550 C   0  0  0  0  0  0  0  0  0  0  0  0
   -0.3017   22.6229  -28.6180 H   0  0  0  0  0  0  0  0  0  0  0  0
   -1.0065   23.0532  -30.2242 H   0  0  0  0  0  0  0  0  0  0  0  0
   -1.8440   24.4350  -28.4800 S   0  0  0  0  0  0  0  0  0  0  0  0
   -1.3690   25.5800  -29.3280 O   0  0  0  0  0  0  0  0  0  0  0  0
   -3.3490   24.4250  -28.4630 O   0  0  0  0  0  0  0  0  0  0  0  0
   -1.2440   24.6480  -26.8220 C   0  0  0  0  0  0  0  0  0  0  0  0
   -2.0325   24.3681  -26.1079 H   0  0  0  0  0  0  0  0  0  0  0  0
   -0.3635   24.0075  -26.6656 H   0  0  0  0  0  0  0  0  0  0  0  0
   -0.9644   25.7003  -26.6656 H   0  0  0  0  0  0  0  0  0  0  0  0
  1  2  1  0
  2  3  1  0
  3  4  2  0
  3  5  1  0
  5  6  2  0
  6  7  1  0
  6  8  1  0
  8  9  2  0
  9 10  1  0
  9 11  1  0
 11 12  1  0
 11 13  2  0
 13 14  1  0
 14 15  1  6
 14 16  1  0
 16 17  1  0
 16 18  1  0
 16 19  1  0
 14 20  1  0
 20 21  1  0
 20 22  1  0
 20 23  1  0
 13 24  1  0
 24 25  1  0
 24 26  2  0
 26 27  1  0
 27 28  1  0
 28 29  2  0
 28 30  1  0
 30 31  1  0
 30 32  2  0
 32 33  1  0
 32 34  1  0
 34 35  1  0
 34 36  1  0
 34 37  1  0
 37 38  2  0
 37 39  2  0
 37 40  1  0
 40 41  1  0
 40 42  1  0
 40 43  1  0
 27  5  1  0
 26  8  1  0
M  CHG  1   2  -1
M  END
>  <UniqueID>  (39) 
39

>  <SMILES>  (39) 
C[C@@H](c1ccc2cc(C([NH-])=O)n(C(=O)/C=C\CS(C)(=O)=O)c2c1)C(F)(F)F

>  <Energy>  (39) 
74.9789941647841

>  <Genealogy>  (39) 
CC(c1ccc2cc(C([NH-])=O)n(C(=O)C=CCS(C)(=O)=O)c2c1)C(F)(F)F (protonated)
C[C@@H](c1ccc2cc(C([NH-])=O)n(C(=O)C=CCS(C)(=O)=O)c2c1)C(F)(F)F (chirality)
C[C@@H](c1ccc2cc(C([NH-])=O)n(C(=O)/C=C\CS(C)(=O)=O)c2c1)C(F)(F)F (cis-trans isomerization)
C[C@@H](c1ccc2cc(C([NH-])=O)n(C(=O)/C=C\CS(C)(=O)=O)c2c1)C(F)(F)F (3D coordinates assigned)
C[C@@H](c1ccc2cc(C([NH-])=O)n(C(=O)/C=C\CS(C)(=O)=O)c2c1)C(F)(F)F (optimized conformer: 74.9789941647841 kcal/mol)

>  <smiles>  (39) 
CC(c1ccc2cc(C(N)=O)n(C(=O)C=CCS(C)(=O)=O)c2c1)C(F)(F)F

>  <score_type>  (39) 
oracle

>  <origin>  (39) 
adg

>  <m_score__min__energy>  (39) 
-11.710000000000001

>  <m_primary>  (39) 
energy

$$$$
39:0
     RDKit          3D

 60 61  0  0  0  0  0  0  0  0999 V2000
   -4.0190   17.0700  -35.0140 C   0  0  0  0  0  0  0  0  0  0  0  0
   -3.0970   17.1080  -33.9340 O   0  0  0  0  0  0  0  0  0  0  0  0
   -2.6810   18.3040  -33.3380 C   0  0  0  0  0  0  0  0  0  0  0  0
   -3.4170   19.3310  -33.3930 O   0  0  0  0  0  0  0  0  0  0  0  0
   -1.4240   18.3380  -32.6350 N   0  0  1  0  0  0  0  0  0  0  0  0
   -0.8810   16.9870  -32.3980 C   0  0  0  0  0  0  0  0  0  0  0  0
   -0.4520   19.2570  -33.2760 C   0  0  0  0  0  0  0  0  0  0  0  0
   -0.2410   20.6130  -32.5520 C   0  0  0  0  0  0  0  0  0  0  0  0
   -1.5620   21.2590  -32.0920 C   0  0  0  0  0  0  0  0  0  0  0  0
   -1.7850   21.0570  -30.5780 C   0  0  1  0  0  0  0  0  0  0  0  0
   -3.2610   21.3100  -30.2090 C   0  0  0  0  0  0  0  0  0  0  0  0
   -3.7830   22.5830  -30.8180 C   0  0  0  0  0  0  0  0  0  0  0  0
   -2.9650   23.4520  -31.2230 O   0  0  0  0  0  0  0  0  0  0  0  0
   -5.1920   22.8070  -30.9800 N   0  0  0  0  0  0  0  0  0  0  0  0
   -5.8970   23.9470  -30.7290 C   0  0  0  0  0  0  0  0  0  0  0  0
   -5.3210   25.2500  -30.3420 C   0  0  0  0  0  0  0  0  0  0  0  0
   -4.0480   25.6430  -30.8480 N   0  0  0  0  0  0  0  0  0  0  0  0
   -5.9180   25.9990  -29.5260 O   0  0  0  0  0  0  0  0  0  0  0  0
   -7.2460   23.7600  -31.0230 C   0  0  0  0  0  0  0  0  0  0  0  0
   -7.3420   22.4690  -31.4870 C   0  0  0  0  0  0  0  0  0  0  0  0
   -8.4450   21.7680  -31.9660 C   0  0  0  0  0  0  0  0  0  0  0  0
   -8.2470   20.4480  -32.4040 C   0  0  0  0  0  0  0  0  0  0  0  0
   -6.9630   19.8450  -32.3380 C   0  0  0  0  0  0  0  0  0  0  0  0
   -6.7590   18.4440  -32.8540 C   0  0  0  0  0  0  0  0  0  0  0  0
   -7.9120   17.7100  -32.6460 F   0  0  0  0  0  0  0  0  0  0  0  0
   -5.7100   17.8290  -32.1940 F   0  0  0  0  0  0  0  0  0  0  0  0
   -6.4720   18.4530  -34.2080 F   0  0  0  0  0  0  0  0  0  0  0  0
   -5.8630   20.6000  -31.8680 C   0  0  0  0  0  0  0  0  0  0  0  0
   -6.0890   21.9160  -31.4510 C   0  0  0  0  0  0  0  0  0  0  0  0
   -1.4660   19.7140  -30.2560 O   0  0  0  0  0  0  0  0  0  0  0  0
   -0.7440   19.5940  -28.6820 Si  0  0  0  0  0  3  0  0  0  0  0  0
    0.2750   18.0320  -28.5940 C   0  0  0  0  0  0  0  0  0  0  0  0
   -2.0680   19.5470  -27.3680 C   0  0  0  0  0  0  0  0  0  0  0  0
   -5.0448   17.0277  -34.6191 H   0  0  0  0  0  0  0  0  0  0  0  0
   -3.9001   17.9738  -35.6296 H   0  0  0  0  0  0  0  0  0  0  0  0
   -3.8261   16.1790  -35.6296 H   0  0  0  0  0  0  0  0  0  0  0  0
   -1.6220   18.7360  -31.6870 H   0  0  0  0  0  0  0  0  0  0  0  0
   -0.8082   16.8058  -31.3155 H   0  0  0  0  0  0  0  0  0  0  0  0
   -1.5483   16.2390  -32.8509 H   0  0  0  0  0  0  0  0  0  0  0  0
    0.1184   16.9088  -32.8509 H   0  0  0  0  0  0  0  0  0  0  0  0
    0.5195   18.7434  -33.3245 H   0  0  0  0  0  0  0  0  0  0  0  0
   -0.8721   19.5023  -34.2626 H   0  0  0  0  0  0  0  0  0  0  0  0
    0.3934   20.4446  -31.6693 H   0  0  0  0  0  0  0  0  0  0  0  0
    0.2303   21.3006  -33.2697 H   0  0  0  0  0  0  0  0  0  0  0  0
   -1.5289   22.3369  -32.3091 H   0  0  0  0  0  0  0  0  0  0  0  0
   -2.3910   20.7795  -32.6331 H   0  0  0  0  0  0  0  0  0  0  0  0
   -1.1500   21.7624  -30.0220 H   0  0  0  0  0  0  0  0  0  0  0  0
   -3.8676   20.4674  -30.5725 H   0  0  0  0  0  0  0  0  0  0  0  0
   -3.3268   21.4043  -29.1150 H   0  0  0  0  0  0  0  0  0  0  0  0
   -3.1670   25.2850  -30.4180 H   0  0  0  0  0  0  0  0  0  0  0  0
   -8.0610   24.4898  -30.9083 H   0  0  0  0  0  0  0  0  0  0  0  0
   -9.4411   22.2333  -32.0005 H   0  0  0  0  0  0  0  0  0  0  0  0
   -9.0968   19.8746  -32.8029 H   0  0  0  0  0  0  0  0  0  0  0  0
   -4.8543   20.1628  -31.8313 H   0  0  0  0  0  0  0  0  0  0  0  0
    0.4484   17.7662  -27.5408 H   0  0  0  0  0  0  0  0  0  0  0  0
   -0.2638   17.2140  -29.0947 H   0  0  0  0  0  0  0  0  0  0  0  0
    1.2407   18.1955  -29.0947 H   0  0  0  0  0  0  0  0  0  0  0  0
   -1.5983   19.5637  -26.3735 H   0  0  0  0  0  0  0  0  0  0  0  0
   -2.7250   20.4224  -27.4780 H   0  0  0  0  0  0  0  0  0  0  0  0
   -2.6612   18.6272  -27.4780 H   0  0  0  0  0  0  0  0  0  0  0  0
  1  2  1  0
  2  3  1  0
  3  4  2  0
  3  5  1  0
  5  6  1  0
  5  7  1  0
  7  8  1  0
  8  9  1  0
  9 10  1  0
 10 11  1  0
 11 12  1  0
 12 13  2  0
 12 14  1  0
 14 15  1  0
 15 16  1  0
 16 17  1  0
 16 18  2  0
 15 19  2  0
 19 20  1  0
 20 21  2  0
 21 22  1  0
 22 23  2  0
 23 24  1  0
 24 25  1  0
 24 26  1  0
 24 27  1  0
 23 28  1  0
 28 29  2  0
 10 30  1  0
 30 31  1  0
 31 32  1  0
 31 33  1  0
 29 14  1  0
 29 20  1  0
  1 34  1  0
  1 35  1  0
  1 36  1  0
  5 37  1  1
  6 38  1  0
  6 39  1  0
  6 40  1  0
  7 41  1  0
  7 42  1  0
  8 43  1  0
  8 44  1  0
  9 45  1  0
  9 46  1  0
 10 47  1  1
 11 48  1  0
 11 49  1  0
 17 50  1  0
 19 51  1  0
 21 52  1  0
 22 53  1  0
 28 54  1  0
 32 55  1  0
 32 56  1  0
 32 57  1  0
 33 58  1  0
 33 59  1  0
 33 60  1  0
M  CHG  2   5   1  17  -1
M  RAD  1  31   2
M  END
>  <UniqueID>  (40) 
40

>  <SMILES>  (40) 
COC(=O)[N@@H+](C)CCC[C@@H](CC(=O)n1c(C([NH-])=O)cc2ccc(C(F)(F)F)cc21)O[Si](C)C

>  <Energy>  (40) 
89.1447791949295

>  <Genealogy>  (40) 
COC(=O)[NH+](C)CCCC(CC(=O)n1c(C([NH-])=O)cc2ccc(C(F)(F)F)cc21)O[Si](C)C (protonated)
COC(=O)[N@@H+](C)CCC[C@@H](CC(=O)n1c(C([NH-])=O)cc2ccc(C(F)(F)F)cc21)O[Si](C)C (chirality)
COC(=O)[N@@H+](C)CCC[C@@H](CC(=O)n1c(C([NH-])=O)cc2ccc(C(F)(F)F)cc21)O[Si](C)C (3D coordinates assigned)
COC(=O)[N@@H+](C)CCC[C@@H](CC(=O)n1c(C([NH-])=O)cc2ccc(C(F)(F)F)cc21)O[Si](C)C (optimized conformer: 89.1447791949295 kcal/mol)

>  <smiles>  (40) 
COC(=O)N(C)CCCC(CC(=O)n1c(C(N)=O)cc2ccc(C(F)(F)F)cc21)O[Si](C)C

>  <score_type>  (40) 
oracle

>  <origin>  (40) 
adg

>  <m_score__min__energy>  (40) 
-10.73

>  <m_primary>  (40) 
energy

$$$$
40:0
     RDKit          3D

 35 37  0  0  0  0  0  0  0  0999 V2000
   -7.4360   17.4090  -32.3610 C   0  0  0  0  0  0  0  0  0  0  0  0
   -6.8370   18.5660  -33.0380 N   0  0  0  0  0  0  0  0  0  0  0  0
   -6.0050   18.3370  -34.2270 C   0  0  0  0  0  0  0  0  0  0  0  0
   -7.0600   19.9110  -32.5410 C   0  0  0  0  0  0  0  0  0  0  0  0
   -8.3740   20.4600  -32.4910 C   0  0  0  0  0  0  0  0  0  0  0  0
   -8.5990   21.7640  -32.0180 C   0  0  0  0  0  0  0  0  0  0  0  0
   -7.5020   22.5040  -31.5950 C   0  0  0  0  0  0  0  0  0  0  0  0
   -7.4330   23.7900  -31.1060 C   0  0  0  0  0  0  0  0  0  0  0  0
   -6.0810   24.0120  -30.8460 C   0  0  0  0  0  0  0  0  0  0  0  0
   -5.5590   25.2530  -30.2350 C   0  0  0  0  0  0  0  0  0  0  0  0
   -4.2240   25.6870  -30.4820 N   0  0  0  0  0  0  0  0  0  0  0  0
   -6.2910   25.9230  -29.4580 O   0  0  0  0  0  0  0  0  0  0  0  0
   -5.3480   22.9110  -31.1720 N   0  0  0  0  0  0  0  0  0  0  0  0
   -3.9230   22.7470  -31.1170 C   0  0  0  0  0  0  0  0  0  0  0  0
   -3.2890   22.4760  -32.1720 O   0  0  0  0  0  0  0  0  0  0  0  0
   -3.1950   22.9410  -29.8500 C   0  0  0  0  0  0  0  0  0  0  0  0
   -3.4230   22.1730  -28.7110 C   0  0  0  0  0  0  0  0  0  0  0  0
   -2.3840   22.7230  -27.5100 S   0  0  0  0  0  0  0  0  0  0  0  0
   -1.6870   23.9040  -28.4810 C   0  0  0  0  0  0  0  0  0  0  0  0
   -2.2320   23.8940  -29.7170 N   0  0  0  0  0  0  0  0  0  0  0  0
   -6.2320   21.9960  -31.6210 C   0  0  0  0  0  0  0  0  0  0  0  0
   -5.9720   20.7090  -32.0960 C   0  0  0  0  0  0  0  0  0  0  0  0
   -7.3657   17.5447  -31.2717 H   0  0  0  0  0  0  0  0  0  0  0  0
   -8.4931   17.3207  -32.6521 H   0  0  0  0  0  0  0  0  0  0  0  0
   -6.8979   16.4948  -32.6521 H   0  0  0  0  0  0  0  0  0  0  0  0
   -4.9881   18.0571  -33.9146 H   0  0  0  0  0  0  0  0  0  0  0  0
   -6.4403   17.5253  -34.8283 H   0  0  0  0  0  0  0  0  0  0  0  0
   -5.9636   19.2572  -34.8283 H   0  0  0  0  0  0  0  0  0  0  0  0
   -9.2268   19.8527  -32.8284 H   0  0  0  0  0  0  0  0  0  0  0  0
   -9.6141   22.1864  -31.9837 H   0  0  0  0  0  0  0  0  0  0  0  0
   -8.2662   24.4917  -30.9533 H   0  0  0  0  0  0  0  0  0  0  0  0
   -3.5000   25.6530  -29.7320 H   0  0  0  0  0  0  0  0  0  0  0  0
   -4.1514   21.3544  -28.6148 H   0  0  0  0  0  0  0  0  0  0  0  0
   -0.8938   24.5925  -28.1542 H   0  0  0  0  0  0  0  0  0  0  0  0
   -4.9435   20.3200  -32.1251 H   0  0  0  0  0  0  0  0  0  0  0  0
  1  2  1  0
  2  3  1  0
  2  4  1  0
  4  5  2  0
  5  6  1  0
  6  7  2  0
  7  8  1  0
  8  9  2  0
  9 10  1  0
 10 11  1  0
 10 12  2  0
  9 13  1  0
 13 14  1  0
 14 15  2  0
 14 16  1  0
 16 17  2  0
 17 18  1  0
 18 19  1  0
 19 20  2  0
 13 21  1  0
 21 22  2  0
 22  4  1  0
 21  7  1  0
 20 16  1  0
  1 23  1  0
  1 24  1  0
  1 25  1  0
  3 26  1  0
  3 27  1  0
  3 28  1  0
  5 29  1  0
  6 30  1  0
  8 31  1  0
 11 32  1  0
 17 33  1  0
 19 34  1  0
 22 35  1  0
M  CHG  1  11  -1
M  END
>  <UniqueID>  (41) 
41

>  <SMILES>  (41) 
CN(C)c1ccc2cc(C([NH-])=O)n(C(=O)c3cscn3)c2c1

>  <Energy>  (41) 
107.62716117315263

>  <Genealogy>  (41) 
CN(C)c1ccc2cc(C([NH-])=O)n(C(=O)c3cscn3)c2c1 (protonated)
CN(C)c1ccc2cc(C([NH-])=O)n(C(=O)c3cscn3)c2c1 (3D coordinates assigned)
CN(C)c1ccc2cc(C([NH-])=O)n(C(=O)c3cscn3)c2c1 (optimized conformer: 107.62716117315263 kcal/mol)

>  <smiles>  (41) 
CN(C)c1ccc2cc(C(N)=O)n(C(=O)c3cscn3)c2c1

>  <score_type>  (41) 
oracle

>  <origin>  (41) 
adg

>  <m_score__min__energy>  (41) 
-9.9499999999999993

>  <m_primary>  (41) 
energy

$$$$
41:0
     RDKit          3D

 28 29  0  0  0  0  0  0  0  0999 V2000
   -5.8510   25.2950  -28.9770 N   0  0  0  0  0  0  0  0  0  0  0  0
   -5.3810   24.8590  -30.2530 C   0  0  0  0  0  0  0  0  0  0  0  0
   -4.4950   25.5320  -30.8460 O   0  0  0  0  0  0  0  0  0  0  0  0
   -5.8660   23.6050  -30.8600 C   0  0  0  0  0  0  0  0  0  0  0  0
   -7.2110   23.2530  -30.9180 C   0  0  0  0  0  0  0  0  0  0  0  0
   -7.2490   22.0720  -31.6250 C   0  0  0  0  0  0  0  0  0  0  0  0
   -8.3310   21.2730  -31.9780 C   0  0  0  0  0  0  0  0  0  0  0  0
   -8.0720   20.0910  -32.6910 C   0  0  0  0  0  0  0  0  0  0  0  0
   -6.7430   19.7230  -33.0210 C   0  0  0  0  0  0  0  0  0  0  0  0
   -6.4780   18.4620  -33.8010 C   0  0  0  0  0  0  0  0  0  0  0  0
   -6.3560   17.2580  -32.8690 C   0  0  0  0  0  0  0  0  0  0  0  0
   -6.9180   16.1390  -33.4580 F   0  0  0  0  0  0  0  0  0  0  0  0
   -7.0160   17.5230  -31.6840 F   0  0  0  0  0  0  0  0  0  0  0  0
   -5.6700   20.5640  -32.6530 C   0  0  0  0  0  0  0  0  0  0  0  0
   -5.9600   21.7450  -31.9600 C   0  0  0  0  0  0  0  0  0  0  0  0
   -5.0970   22.6740  -31.4920 N   0  0  0  0  0  0  0  0  0  0  0  0
   -3.6630   22.6050  -31.5490 C   0  0  0  0  0  0  0  0  0  0  0  0
   -3.0930   22.1400  -32.5720 O   0  0  0  0  0  0  0  0  0  0  0  0
   -2.6590   23.1250  -30.1450 S   0  0  0  0  0  0  0  0  0  0  0  0
   -6.4610   24.6840  -28.3890 H   0  0  0  0  0  0  0  0  0  0  0  0
   -5.5240   26.2050  -28.5810 H   0  0  0  0  0  0  0  0  0  0  0  0
   -8.0629   23.8017  -30.4900 H   0  0  0  0  0  0  0  0  0  0  0  0
   -9.3583   21.5580  -31.7071 H   0  0  0  0  0  0  0  0  0  0  0  0
   -8.9081   19.4446  -32.9963 H   0  0  0  0  0  0  0  0  0  0  0  0
   -7.3081   18.2915  -34.5023 H   0  0  0  0  0  0  0  0  0  0  0  0
   -5.5305   18.5801  -34.3472 H   0  0  0  0  0  0  0  0  0  0  0  0
   -5.2905   17.0685  -32.6718 H   0  0  0  0  0  0  0  0  0  0  0  0
   -4.6328   20.2978  -32.9045 H   0  0  0  0  0  0  0  0  0  0  0  0
  1  2  1  0
  2  3  2  0
  2  4  1  0
  4  5  2  0
  5  6  1  0
  6  7  2  0
  7  8  1  0
  8  9  2  0
  9 10  1  0
 10 11  1  0
 11 12  1  0
 11 13  1  0
  9 14  1  0
 14 15  2  0
 15 16  1  0
 16 17  1  0
 17 18  2  0
 17 19  1  0
 16  4  1  0
 15  6  1  0
  1 20  1  0
  1 21  1  0
  5 22  1  0
  7 23  1  0
  8 24  1  0
 10 25  1  0
 10 26  1  0
 11 27  1  0
 14 28  1  0
M  CHG  1  19  -1
M  END
>  <UniqueID>  (42) 
42

>  <SMILES>  (42) 
NC(=O)c1cc2ccc(CC(F)F)cc2n1C(=O)[S-]

>  <Energy>  (42) 
66.15062800141561

>  <Genealogy>  (42) 
NC(=O)c1cc2ccc(CC(F)F)cc2n1C(=O)[S-] (protonated)
NC(=O)c1cc2ccc(CC(F)F)cc2n1C(=O)[S-] (3D coordinates assigned)
NC(=O)c1cc2ccc(CC(F)F)cc2n1C(=O)[S-] (optimized conformer: 66.15062800141561 kcal/mol)

>  <smiles>  (42) 
NC(=O)c1cc2ccc(CC(F)F)cc2n1C(=O)S

>  <score_type>  (42) 
oracle

>  <origin>  (42) 
adg

>  <m_score__min__energy>  (42) 
-8.1699999999999999

>  <m_primary>  (42) 
energy

$$$$
42:0
     RDKit          3D

 45 47  0  0  0  0  0  0  0  0999 V2000
   -4.9730   14.6560  -32.2810 C   0  0  0  0  0  0  0  0  0  0  0  0
   -5.3420   16.0280  -32.7380 C   0  0  0  0  0  0  0  0  0  0  0  0
   -5.6660   17.0970  -31.9230 C   0  0  0  0  0  0  0  0  0  0  0  0
   -5.8400   18.1590  -32.7960 C   0  0  0  0  0  0  0  0  0  0  0  0
   -6.2010   19.5370  -32.3940 C   0  0  0  0  0  0  0  0  0  0  0  0
   -7.5450   19.9840  -32.4540 C   0  0  0  0  0  0  0  0  0  0  0  0
   -7.8820   21.2970  -32.0820 C   0  0  0  0  0  0  0  0  0  0  0  0
   -6.8560   22.1430  -31.6730 C   0  0  0  0  0  0  0  0  0  0  0  0
   -6.9010   23.4500  -31.2420 C   0  0  0  0  0  0  0  0  0  0  0  0
   -5.5790   23.7900  -30.9560 C   0  0  0  0  0  0  0  0  0  0  0  0
   -5.1560   25.1280  -30.4900 C   0  0  0  0  0  0  0  0  0  0  0  0
   -3.8780   25.6580  -30.8350 N   0  0  0  0  0  0  0  0  0  0  0  0
   -5.9430   25.8250  -29.7950 O   0  0  0  0  0  0  0  0  0  0  0  0
   -4.7530   22.7360  -31.2080 N   0  0  0  0  0  0  0  0  0  0  0  0
   -3.3380   22.6560  -30.9820 C   0  0  0  0  0  0  0  0  0  0  0  0
   -2.8570   23.1910  -29.9480 O   0  0  0  0  0  0  0  0  0  0  0  0
   -2.4710   21.9390  -31.9490 C   0  0  0  0  0  0  0  0  0  0  0  0
   -2.8180   21.9330  -33.1620 O   0  0  0  0  0  0  0  0  0  0  0  0
   -1.2570   21.2510  -31.5640 N   0  0  0  0  0  0  0  0  0  0  0  0
   -0.6760   20.2800  -32.4980 C   0  0  0  0  0  0  0  0  0  0  0  0
   -0.5550   21.5590  -30.3140 C   0  0  0  0  0  0  0  0  0  0  0  0
   -5.5490   21.7360  -31.6400 C   0  0  0  0  0  0  0  0  0  0  0  0
   -5.1860   20.4310  -31.9860 C   0  0  0  0  0  0  0  0  0  0  0  0
   -5.6370   17.7200  -34.0610 N   0  0  0  0  0  0  0  0  0  0  0  0
   -5.7480   18.4800  -35.3040 C   0  0  0  0  0  0  0  0  0  0  0  0
   -5.3170   16.4360  -34.0190 N   0  0  0  0  0  0  0  0  0  0  0  0
   -4.9648   14.6256  -31.1814 H   0  0  0  0  0  0  0  0  0  0  0  0
   -5.7084   13.9323  -32.6624 H   0  0  0  0  0  0  0  0  0  0  0  0
   -3.9738   14.3989  -32.6624 H   0  0  0  0  0  0  0  0  0  0  0  0
   -5.7637   17.1030  -30.8274 H   0  0  0  0  0  0  0  0  0  0  0  0
   -8.3325   19.2960  -32.7953 H   0  0  0  0  0  0  0  0  0  0  0  0
   -8.9250   21.6450  -32.1133 H   0  0  0  0  0  0  0  0  0  0  0  0
   -7.7904   24.0898  -31.1441 H   0  0  0  0  0  0  0  0  0  0  0  0
   -3.0080   25.2990  -30.3830 H   0  0  0  0  0  0  0  0  0  0  0  0
   -0.1918   19.4708  -31.9316 H   0  0  0  0  0  0  0  0  0  0  0  0
   -1.4710   19.8594  -33.1313 H   0  0  0  0  0  0  0  0  0  0  0  0
    0.0704   20.7818  -33.1313 H   0  0  0  0  0  0  0  0  0  0  0  0
   -1.1890   21.2808  -29.4592 H   0  0  0  0  0  0  0  0  0  0  0  0
    0.3862   20.9912  -30.2725 H   0  0  0  0  0  0  0  0  0  0  0  0
   -0.3355   22.6361  -30.2725 H   0  0  0  0  0  0  0  0  0  0  0  0
   -4.1354   20.1081  -31.9416 H   0  0  0  0  0  0  0  0  0  0  0  0
   -5.9034   19.5437  -35.0708 H   0  0  0  0  0  0  0  0  0  0  0  0
   -4.8234   18.3640  -35.8885 H   0  0  0  0  0  0  0  0  0  0  0  0
   -6.6008   18.1044  -35.8885 H   0  0  0  0  0  0  0  0  0  0  0  0
   -5.0880   15.8480  -34.8520 H   0  0  0  0  0  0  0  0  0  0  0  0
  1  2  1  0
  2  3  1  0
  3  4  2  0
  4  5  1  0
  5  6  2  0
  6  7  1  0
  7  8  2  0
  8  9  1  0
  9 10  2  0
 10 11  1  0
 11 12  1  0
 11 13  2  0
 10 14  1  0
 14 15  1  0
 15 16  2  0
 15 17  1  0
 17 18  2  0
 17 19  1  0
 19 20  1  0
 19 21  1  0
 14 22  1  0
 22 23  2  0
  4 24  1  0
 24 25  1  0
 24 26  1  0
 26  2  2  0
 23  5  1  0
 22  8  1  0
  1 27  1  0
  1 28  1  0
  1 29  1  0
  3 30  1  0
  6 31  1  0
  7 32  1  0
  9 33  1  0
 12 34  1  0
 20 35  1  0
 20 36  1  0
 20 37  1  0
 21 38  1  0
 21 39  1  0
 21 40  1  0
 23 41  1  0
 25 42  1  0
 25 43  1  0
 25 44  1  0
 26 45  1  0
M  CHG  2  12  -1  26   1
M  END
>  <UniqueID>  (43) 
43

>  <SMILES>  (43) 
Cc1cc(-c2ccc3cc(C([NH-])=O)n(C(=O)C(=O)N(C)C)c3c2)n(C)[nH+]1

>  <Energy>  (43) 
120.42541363513739

>  <Genealogy>  (43) 
Cc1cc(-c2ccc3cc(C([NH-])=O)n(C(=O)C(=O)N(C)C)c3c2)n(C)[nH+]1 (protonated)
Cc1cc(-c2ccc3cc(C([NH-])=O)n(C(=O)C(=O)N(C)C)c3c2)n(C)[nH+]1 (3D coordinates assigned)
Cc1cc(-c2ccc3cc(C([NH-])=O)n(C(=O)C(=O)N(C)C)c3c2)n(C)[nH+]1 (optimized conformer: 120.42541363513739 kcal/mol)

>  <smiles>  (43) 
Cc1cc(-c2ccc3cc(C(N)=O)n(C(=O)C(=O)N(C)C)c3c2)n(C)n1

>  <score_type>  (43) 
oracle

>  <origin>  (43) 
adg

>  <m_score__min__energy>  (43) 
-10.67

>  <m_primary>  (43) 
energy

$$$$
43:0
     RDKit          3D

 38 40  0  0  0  0  0  0  0  0999 V2000
   -3.8760   25.6490  -30.8580 N   0  0  0  0  0  0  0  0  0  0  0  0
   -5.1540   25.1660  -30.4510 C   0  0  0  0  0  0  0  0  0  0  0  0
   -5.8280   25.8320  -29.6200 O   0  0  0  0  0  0  0  0  0  0  0  0
   -5.6530   23.8770  -30.9720 C   0  0  0  0  0  0  0  0  0  0  0  0
   -7.0060   23.5790  -31.1120 C   0  0  0  0  0  0  0  0  0  0  0  0
   -7.0470   22.3370  -31.7050 C   0  0  0  0  0  0  0  0  0  0  0  0
   -8.1390   21.5540  -32.0680 C   0  0  0  0  0  0  0  0  0  0  0  0
   -7.8850   20.2980  -32.6400 C   0  0  0  0  0  0  0  0  0  0  0  0
   -6.5570   19.8410  -32.8310 C   0  0  0  0  0  0  0  0  0  0  0  0
   -6.3170   18.5460  -33.4140 N   0  0  0  0  0  0  0  0  0  0  0  0
   -5.7460   18.4430  -34.7610 C   0  0  0  0  0  0  0  0  0  0  0  0
   -4.9740   17.1270  -34.8930 C   0  0  0  0  0  0  0  0  0  0  0  0
   -5.7820   16.0300  -34.5140 O   0  0  0  0  0  0  0  0  0  0  0  0
   -6.0990   16.1210  -33.1380 C   0  0  0  0  0  0  0  0  0  0  0  0
   -6.9650   17.3530  -32.8590 C   0  0  0  0  0  0  0  0  0  0  0  0
   -5.4740   20.6700  -32.4540 C   0  0  0  0  0  0  0  0  0  0  0  0
   -5.7550   21.9240  -31.9010 C   0  0  0  0  0  0  0  0  0  0  0  0
   -4.8860   22.8580  -31.4530 N   0  0  0  0  0  0  0  0  0  0  0  0
   -3.4540   22.7480  -31.4260 C   0  0  0  0  0  0  0  0  0  0  0  0
   -2.8410   22.2660  -32.4180 O   0  0  0  0  0  0  0  0  0  0  0  0
   -2.7460   23.1550  -30.2900 O   0  0  0  0  0  0  0  0  0  0  0  0
   -1.4340   22.6940  -29.9920 C   0  0  0  0  0  0  0  0  0  0  0  0
   -0.6320   23.7600  -29.6230 F   0  0  0  0  0  0  0  0  0  0  0  0
   -2.9990   25.2850  -30.4200 H   0  0  0  0  0  0  0  0  0  0  0  0
   -7.8607   24.2033  -30.8124 H   0  0  0  0  0  0  0  0  0  0  0  0
   -9.1685   21.9085  -31.9115 H   0  0  0  0  0  0  0  0  0  0  0  0
   -8.7277   19.6597  -32.9442 H   0  0  0  0  0  0  0  0  0  0  0  0
   -6.5560   18.4683  -35.5048 H   0  0  0  0  0  0  0  0  0  0  0  0
   -5.0614   19.2867  -34.9329 H   0  0  0  0  0  0  0  0  0  0  0  0
   -4.6580   16.9977  -35.9387 H   0  0  0  0  0  0  0  0  0  0  0  0
   -4.0973   17.1647  -34.2296 H   0  0  0  0  0  0  0  0  0  0  0  0
   -6.6485   15.2178  -32.8341 H   0  0  0  0  0  0  0  0  0  0  0  0
   -5.1636   16.2111  -32.5662 H   0  0  0  0  0  0  0  0  0  0  0  0
   -7.9514   17.2208  -33.3275 H   0  0  0  0  0  0  0  0  0  0  0  0
   -7.0867   17.4755  -31.7726 H   0  0  0  0  0  0  0  0  0  0  0  0
   -4.4351   20.3362  -32.5925 H   0  0  0  0  0  0  0  0  0  0  0  0
   -1.4810   21.9698  -29.1654 H   0  0  0  0  0  0  0  0  0  0  0  0
   -1.0081   22.2127  -30.8847 H   0  0  0  0  0  0  0  0  0  0  0  0
  1  2  1  0
  2  3  2  0
  2  4  1  0
  4  5  2  0
  5  6  1  0
  6  7  2  0
  7  8  1  0
  8  9  2  0
  9 10  1  0
 10 11  1  0
 11 12  1  0
 12 13  1  0
 13 14  1  0
 14 15  1  0
  9 16  1  0
 16 17  2  0
 17 18  1  0
 18 19  1  0
 19 20  2  0
 19 21  1  0
 21 22  1  0
 22 23  1  0
 18  4  1  0
 17  6  1  0
 15 10  1  0
  1 24  1  0
  5 25  1  0
  7 26  1  0
  8 27  1  0
 11 28  1  0
 11 29  1  0
 12 30  1  0
 12 31  1  0
 14 32  1  0
 14 33  1  0
 15 34  1  0
 15 35  1  0
 16 36  1  0
 22 37  1  0
 22 38  1  0
M  CHG  1   1  -1
M  END
>  <UniqueID>  (44) 
44

>  <SMILES>  (44) 
[NH-]C(=O)c1cc2ccc(N3CCOCC3)cc2n1C(=O)OCF

>  <Energy>  (44) 
81.56725632030229

>  <Genealogy>  (44) 
[NH-]C(=O)c1cc2ccc(N3CCOCC3)cc2n1C(=O)OCF (protonated)
[NH-]C(=O)c1cc2ccc(N3CCOCC3)cc2n1C(=O)OCF (3D coordinates assigned)
[NH-]C(=O)c1cc2ccc(N3CCOCC3)cc2n1C(=O)OCF (nonaromatic ring conformer: 81.56725632030229 kcal/mol)

>  <smiles>  (44) 
NC(=O)c1cc2ccc(N3CCOCC3)cc2n1C(=O)OCF

>  <score_type>  (44) 
oracle

>  <origin>  (44) 
adg

>  <m_score__min__energy>  (44) 
-9.5800000000000001

>  <m_primary>  (44) 
energy

$$$$
44:0
     RDKit          3D

 34 35  0  0  0  0  0  0  0  0999 V2000
   -5.1410   16.4470  -32.8090 C   0  0  0  0  0  0  0  0  0  0  0  0
   -5.1770   17.4150  -33.8500 O   0  0  0  0  0  0  0  0  0  0  0  0
   -6.1320   18.4330  -33.8970 C   0  0  0  0  0  0  0  0  0  0  0  0
   -6.1200   19.2860  -34.8270 O   0  0  0  0  0  0  0  0  0  0  0  0
   -7.1470   18.5410  -32.8050 C   0  0  0  0  0  0  0  0  0  0  0  0
   -7.2400   19.9630  -32.3300 C   0  0  0  0  0  0  0  0  0  0  0  0
   -8.5060   20.5440  -32.0680 C   0  0  0  0  0  0  0  0  0  0  0  0
   -8.6040   21.8660  -31.6030 C   0  0  0  0  0  0  0  0  0  0  0  0
   -7.4240   22.5730  -31.3930 C   0  0  0  0  0  0  0  0  0  0  0  0
   -7.2320   23.8680  -30.9710 C   0  0  0  0  0  0  0  0  0  0  0  0
   -5.8510   24.0480  -30.9450 C   0  0  0  0  0  0  0  0  0  0  0  0
   -5.2010   25.2830  -30.4600 C   0  0  0  0  0  0  0  0  0  0  0  0
   -3.8680   25.6100  -30.8440 N   0  0  0  0  0  0  0  0  0  0  0  0
   -5.8140   26.0360  -29.6560 O   0  0  0  0  0  0  0  0  0  0  0  0
   -5.2130   22.9110  -31.3450 N   0  0  0  0  0  0  0  0  0  0  0  0
   -3.8030   22.7220  -31.5460 C   0  0  0  0  0  0  0  0  0  0  0  0
   -2.9840   23.1140  -30.6690 O   0  0  0  0  0  0  0  0  0  0  0  0
   -3.3460   22.0820  -32.7020 O   0  0  0  0  0  0  0  0  0  0  0  0
   -2.7790   20.7780  -32.6840 C   0  0  0  0  0  0  0  0  0  0  0  0
   -6.1900   22.0170  -31.6140 C   0  0  0  0  0  0  0  0  0  0  0  0
   -6.0620   20.7090  -32.0950 C   0  0  0  0  0  0  0  0  0  0  0  0
   -5.1599   16.9561  -31.8341 H   0  0  0  0  0  0  0  0  0  0  0  0
   -6.0151   15.7847  -32.8938 H   0  0  0  0  0  0  0  0  0  0  0  0
   -4.2201   15.8514  -32.8938 H   0  0  0  0  0  0  0  0  0  0  0  0
   -8.1275   18.2191  -33.1857 H   0  0  0  0  0  0  0  0  0  0  0  0
   -6.8441   17.8985  -31.9651 H   0  0  0  0  0  0  0  0  0  0  0  0
   -9.4203   19.9543  -32.2303 H   0  0  0  0  0  0  0  0  0  0  0  0
   -9.5835   22.3281  -31.4108 H   0  0  0  0  0  0  0  0  0  0  0  0
   -8.0053   24.6053  -30.7094 H   0  0  0  0  0  0  0  0  0  0  0  0
   -3.0500   25.2540  -30.3010 H   0  0  0  0  0  0  0  0  0  0  0  0
   -2.6380   20.4538  -31.6423 H   0  0  0  0  0  0  0  0  0  0  0  0
   -3.4538   20.0776  -33.1979 H   0  0  0  0  0  0  0  0  0  0  0  0
   -1.8065   20.7939  -33.1979 H   0  0  0  0  0  0  0  0  0  0  0  0
   -5.0704   20.2725  -32.2854 H   0  0  0  0  0  0  0  0  0  0  0  0
  1  2  1  0
  2  3  1  0
  3  4  2  0
  3  5  1  0
  5  6  1  0
  6  7  2  0
  7  8  1  0
  8  9  2  0
  9 10  1  0
 10 11  2  0
 11 12  1  0
 12 13  1  0
 12 14  2  0
 11 15  1  0
 15 16  1  0
 16 17  2  0
 16 18  1  0
 18 19  1  0
 15 20  1  0
 20 21  2  0
 21  6  1  0
 20  9  1  0
  1 22  1  0
  1 23  1  0
  1 24  1  0
  5 25  1  0
  5 26  1  0
  7 27  1  0
  8 28  1  0
 10 29  1  0
 13 30  1  0
 19 31  1  0
 19 32  1  0
 19 33  1  0
 21 34  1  0
M  CHG  1  13  -1
M  END
>  <UniqueID>  (45) 
45

>  <SMILES>  (45) 
COC(=O)Cc1ccc2cc(C([NH-])=O)n(C(=O)OC)c2c1

>  <Energy>  (45) 
67.19193469496848

>  <Genealogy>  (45) 
COC(=O)Cc1ccc2cc(C([NH-])=O)n(C(=O)OC)c2c1 (protonated)
COC(=O)Cc1ccc2cc(C([NH-])=O)n(C(=O)OC)c2c1 (3D coordinates assigned)
COC(=O)Cc1ccc2cc(C([NH-])=O)n(C(=O)OC)c2c1 (optimized conformer: 67.19193469496848 kcal/mol)

>  <smiles>  (45) 
COC(=O)Cc1ccc2cc(C(N)=O)n(C(=O)OC)c2c1

>  <score_type>  (45) 
oracle

>  <origin>  (45) 
adg

>  <m_score__min__energy>  (45) 
-9.6999999999999993

>  <m_primary>  (45) 
energy

$$$$
45:0
     RDKit          3D

 45 46  0  0  0  0  0  0  0  0999 V2000
   -3.8610   25.5890  -30.8030 N   0  0  0  0  0  0  0  0  0  0  0  0
   -5.2600   25.3900  -30.6140 C   0  0  0  0  0  0  0  0  0  0  0  0
   -5.9450   26.2960  -30.0720 O   0  0  0  0  0  0  0  0  0  0  0  0
   -5.9020   24.1170  -30.9990 C   0  0  0  0  0  0  0  0  0  0  0  0
   -7.2790   23.9550  -31.1170 C   0  0  0  0  0  0  0  0  0  0  0  0
   -7.4640   22.6270  -31.4280 C   0  0  0  0  0  0  0  0  0  0  0  0
   -8.6350   21.9250  -31.6920 C   0  0  0  0  0  0  0  0  0  0  0  0
   -8.5270   20.5720  -32.0520 C   0  0  0  0  0  0  0  0  0  0  0  0
   -7.2550   19.9470  -32.1530 C   0  0  0  0  0  0  0  0  0  0  0  0
   -7.1200   18.5730  -32.5640 N   0  0  0  0  0  0  0  0  0  0  0  0
   -6.3580   17.5800  -31.8010 C   0  0  0  0  0  0  0  0  0  0  0  0
   -6.0510   16.3450  -32.6490 C   0  0  0  0  0  0  0  0  0  0  0  0
   -6.3720   16.6070  -33.9990 O   0  0  0  0  0  0  0  0  0  0  0  0
   -5.1860   16.8190  -34.7340 C   0  0  0  0  0  0  0  0  0  0  0  0
   -4.9240   18.3190  -34.8550 C   0  0  0  0  0  0  0  0  0  0  0  0
   -6.1340   19.0270  -34.9060 O   0  0  0  0  0  0  0  0  0  0  0  0
   -6.0920   20.6940  -31.8640 C   0  0  0  0  0  0  0  0  0  0  0  0
   -6.2310   22.0360  -31.4920 C   0  0  0  0  0  0  0  0  0  0  0  0
   -5.2600   22.9380  -31.2290 N   0  0  0  0  0  0  0  0  0  0  0  0
   -3.8450   22.7180  -31.3340 C   0  0  0  0  0  0  0  0  0  0  0  0
   -3.3210   22.5280  -32.4640 O   0  0  0  0  0  0  0  0  0  0  0  0
   -3.0490   22.7680  -30.1820 O   0  0  0  0  0  0  0  0  0  0  0  0
   -3.5400   23.1280  -28.8900 C   0  0  1  0  0  0  0  0  0  0  0  0
   -3.3780   22.0490  -28.0400 F   0  0  0  0  0  0  0  0  0  0  0  0
   -2.7600   24.3180  -28.3270 C   0  0  0  0  0  0  0  0  0  0  0  0
   -1.8980   24.8580  -29.2910 O   0  0  0  0  0  0  0  0  0  0  0  0
   -3.2220   24.7830  -30.9900 H   0  0  0  0  0  0  0  0  0  0  0  0
   -8.0546   24.7245  -30.9890 H   0  0  0  0  0  0  0  0  0  0  0  0
   -9.6172   22.4152  -31.6209 H   0  0  0  0  0  0  0  0  0  0  0  0
   -9.4371   19.9896  -32.2581 H   0  0  0  0  0  0  0  0  0  0  0  0
   -7.6170   18.2710  -33.4320 H   0  0  0  0  0  0  0  0  0  0  0  0
   -5.4113   18.0318  -31.4698 H   0  0  0  0  0  0  0  0  0  0  0  0
   -6.9626   17.2668  -30.9370 H   0  0  0  0  0  0  0  0  0  0  0  0
   -4.9814   16.1013  -32.5674 H   0  0  0  0  0  0  0  0  0  0  0  0
   -6.6501   15.4957  -32.2887 H   0  0  0  0  0  0  0  0  0  0  0  0
   -4.3425   16.3400  -34.2153 H   0  0  0  0  0  0  0  0  0  0  0  0
   -5.2938   16.3831  -35.7382 H   0  0  0  0  0  0  0  0  0  0  0  0
   -4.3437   18.6565  -33.9836 H   0  0  0  0  0  0  0  0  0  0  0  0
   -4.3620   18.5082  -35.7815 H   0  0  0  0  0  0  0  0  0  0  0  0
   -6.8380   18.3720  -35.1600 H   0  0  0  0  0  0  0  0  0  0  0  0
   -5.0967   20.2304  -31.9299 H   0  0  0  0  0  0  0  0  0  0  0  0
   -4.6008   23.4061  -28.9751 H   0  0  0  0  0  0  0  0  0  0  0  0
   -3.4707   25.0937  -28.0057 H   0  0  0  0  0  0  0  0  0  0  0  0
   -2.1572   23.9692  -27.4755 H   0  0  0  0  0  0  0  0  0  0  0  0
   -2.2180   24.5250  -30.1720 H   0  0  0  0  0  0  0  0  0  0  0  0
  1  2  1  0
  2  3  2  0
  2  4  1  0
  4  5  2  0
  5  6  1  0
  6  7  2  0
  7  8  1  0
  8  9  2  0
  9 10  1  0
 10 11  1  0
 11 12  1  0
 12 13  1  0
 13 14  1  0
 14 15  1  0
 15 16  1  0
  9 17  1  0
 17 18  2  0
 18 19  1  0
 19 20  1  0
 20 21  2  0
 20 22  1  0
 22 23  1  0
 23 24  1  0
 23 25  1  0
 25 26  1  0
 19  4  1  0
 18  6  1  0
  1 27  1  0
  5 28  1  0
  7 29  1  0
  8 30  1  0
 10 31  1  0
 11 32  1  0
 11 33  1  0
 12 34  1  0
 12 35  1  0
 14 36  1  0
 14 37  1  0
 15 38  1  0
 15 39  1  0
 16 40  1  0
 17 41  1  0
 23 42  1  6
 25 43  1  0
 25 44  1  0
 26 45  1  0
M  CHG  1   1  -1
M  END
>  <UniqueID>  (46) 
46

>  <SMILES>  (46) 
[NH-]C(=O)c1cc2ccc(NCCOCCO)cc2n1C(=O)O[C@@H](F)CO

>  <Energy>  (46) 
77.05563271566463

>  <Genealogy>  (46) 
[NH-]C(=O)c1cc2ccc(NCCOCCO)cc2n1C(=O)OC(F)CO (protonated)
[NH-]C(=O)c1cc2ccc(NCCOCCO)cc2n1C(=O)O[C@@H](F)CO (chirality)
[NH-]C(=O)c1cc2ccc(NCCOCCO)cc2n1C(=O)O[C@@H](F)CO (3D coordinates assigned)
[NH-]C(=O)c1cc2ccc(NCCOCCO)cc2n1C(=O)O[C@@H](F)CO (optimized conformer: 77.05563271566463 kcal/mol)

>  <smiles>  (46) 
NC(=O)c1cc2ccc(NCCOCCO)cc2n1C(=O)OC(F)CO

>  <score_type>  (46) 
oracle

>  <origin>  (46) 
adg

>  <m_score__min__energy>  (46) 
-9.0500000000000007

>  <m_primary>  (46) 
energy

$$$$
46:0
     RDKit          3D

 37 39  0  0  0  0  0  0  0  0999 V2000
   -4.2290   25.6000  -30.7690 N   0  0  0  0  0  0  0  0  0  0  0  0
   -5.5730   25.2370  -30.4370 C   0  0  0  0  0  0  0  0  0  0  0  0
   -6.2730   26.0340  -29.7550 O   0  0  0  0  0  0  0  0  0  0  0  0
   -6.1420   23.9300  -30.8290 C   0  0  0  0  0  0  0  0  0  0  0  0
   -7.4940   23.7240  -31.1010 C   0  0  0  0  0  0  0  0  0  0  0  0
   -7.5990   22.3900  -31.4340 C   0  0  0  0  0  0  0  0  0  0  0  0
   -8.7030   21.6540  -31.8490 C   0  0  0  0  0  0  0  0  0  0  0  0
   -8.5020   20.3080  -32.2020 C   0  0  0  0  0  0  0  0  0  0  0  0
   -7.2100   19.7200  -32.1230 C   0  0  0  0  0  0  0  0  0  0  0  0
   -6.9920   18.2990  -32.5780 C   0  0  0  0  0  0  0  0  0  0  0  0
   -8.1270   17.5360  -32.3490 F   0  0  0  0  0  0  0  0  0  0  0  0
   -6.7080   18.2890  -33.9330 F   0  0  0  0  0  0  0  0  0  0  0  0
   -5.9330   17.7240  -31.8920 F   0  0  0  0  0  0  0  0  0  0  0  0
   -6.1120   20.5080  -31.7120 C   0  0  0  0  0  0  0  0  0  0  0  0
   -6.3460   21.8400  -31.3580 C   0  0  0  0  0  0  0  0  0  0  0  0
   -5.4430   22.7700  -30.9880 N   0  0  0  0  0  0  0  0  0  0  0  0
   -4.0220   22.5890  -30.9910 C   0  0  0  0  0  0  0  0  0  0  0  0
   -3.3790   22.7140  -32.0660 O   0  0  0  0  0  0  0  0  0  0  0  0
   -3.2860   22.4010  -29.7010 C   0  0  0  0  0  0  0  0  0  0  0  0
   -1.9800   23.0430  -29.7860 N   0  0  0  0  0  0  0  0  0  0  0  0
   -1.6590   24.2670  -29.1160 C   0  0  0  0  0  0  0  0  0  0  0  0
   -2.3480   25.3020  -29.3210 O   0  0  0  0  0  0  0  0  0  0  0  0
   -0.5300   24.3170  -28.1810 C   0  0  0  0  0  0  0  0  0  0  0  0
   -0.5890   24.1970  -26.8080 C   0  0  0  0  0  0  0  0  0  0  0  0
    0.6600   24.2970  -26.3080 N   0  0  0  0  0  0  0  0  0  0  0  0
    1.4150   24.4800  -27.4130 C   0  0  0  0  0  0  0  0  0  0  0  0
    2.6670   24.6160  -27.3750 O   0  0  0  0  0  0  0  0  0  0  0  0
    0.7220   24.4950  -28.5270 O   0  0  0  0  0  0  0  0  0  0  0  0
   -3.8690   26.5460  -30.5180 H   0  0  0  0  0  0  0  0  0  0  0  0
   -3.5630   24.9160  -31.1860 H   0  0  0  0  0  0  0  0  0  0  0  0
   -8.3040   24.4671  -31.0589 H   0  0  0  0  0  0  0  0  0  0  0  0
   -9.7025   22.1105  -31.8996 H   0  0  0  0  0  0  0  0  0  0  0  0
   -9.3546   19.7026  -32.5434 H   0  0  0  0  0  0  0  0  0  0  0  0
   -5.0978   20.0840  -31.6715 H   0  0  0  0  0  0  0  0  0  0  0  0
   -3.8634   22.8525  -28.8808 H   0  0  0  0  0  0  0  0  0  0  0  0
   -3.1532   21.3260  -29.5091 H   0  0  0  0  0  0  0  0  0  0  0  0
   -1.5045   24.0447  -26.2176 H   0  0  0  0  0  0  0  0  0  0  0  0
  1  2  1  0
  2  3  2  0
  2  4  1  0
  4  5  2  0
  5  6  1  0
  6  7  2  0
  7  8  1  0
  8  9  2  0
  9 10  1  0
 10 11  1  0
 10 12  1  0
 10 13  1  0
  9 14  1  0
 14 15  2  0
 15 16  1  0
 16 17  1  0
 17 18  2  0
 17 19  1  0
 19 20  1  0
 20 21  1  0
 21 22  2  0
 21 23  1  0
 23 24  2  0
 24 25  1  0
 25 26  1  0
 26 27  2  0
 26 28  1  0
 16  4  1  0
 28 23  1  0
 15  6  1  0
  1 29  1  0
  1 30  1  0
  5 31  1  0
  7 32  1  0
  8 33  1  0
 14 34  1  0
 19 35  1  0
 19 36  1  0
 24 37  1  0
M  CHG  2  20  -1  25  -1
M  END
>  <UniqueID>  (47) 
47

>  <SMILES>  (47) 
NC(=O)c1cc2ccc(C(F)(F)F)cc2n1C(=O)C[N-]C(=O)c1c[n-]c(=O)o1

>  <Energy>  (47) 
106.28607282963755

>  <Genealogy>  (47) 
NC(=O)c1cc2ccc(C(F)(F)F)cc2n1C(=O)C[N-]C(=O)c1c[n-]c(=O)o1 (protonated)
NC(=O)c1cc2ccc(C(F)(F)F)cc2n1C(=O)C[N-]C(=O)c1c[n-]c(=O)o1 (3D coordinates assigned)
NC(=O)c1cc2ccc(C(F)(F)F)cc2n1C(=O)C[N-]C(=O)c1c[n-]c(=O)o1 (optimized conformer: 106.28607282963755 kcal/mol)

>  <smiles>  (47) 
NC(=O)c1cc2ccc(C(F)(F)F)cc2n1C(=O)CNC(=O)c1c[nH]c(=O)o1

>  <score_type>  (47) 
oracle

>  <origin>  (47) 
adg

>  <m_score__min__energy>  (47) 
-10.08

>  <m_primary>  (47) 
energy

$$$$
47:0
     RDKit          3D

 35 36  0  0  0  0  0  0  0  0999 V2000
   -4.2040   22.7960  -28.0800 C   0  0  0  0  0  0  0  0  0  0  0  0
   -3.2730   23.2360  -29.1300 N   0  0  0  0  0  0  0  0  0  0  0  0
   -1.9190   23.4200  -28.5820 C   0  0  0  0  0  0  0  0  0  0  0  0
   -3.2560   22.2700  -30.2080 C   0  0  0  0  0  0  0  0  0  0  0  0
   -2.5430   21.2320  -30.1140 O   0  0  0  0  0  0  0  0  0  0  0  0
   -4.1030   22.4470  -31.4070 C   0  0  0  0  0  0  0  0  0  0  0  0
   -3.6010   22.3420  -32.5570 O   0  0  0  0  0  0  0  0  0  0  0  0
   -5.5020   22.7490  -31.2730 N   0  0  0  0  0  0  0  0  0  0  0  0
   -6.0650   23.9400  -30.9300 C   0  0  0  0  0  0  0  0  0  0  0  0
   -5.3320   25.1560  -30.5210 C   0  0  0  0  0  0  0  0  0  0  0  0
   -3.9210   25.2320  -30.7090 N   0  0  0  0  0  0  0  0  0  0  0  0
   -5.9430   26.1400  -30.0240 O   0  0  0  0  0  0  0  0  0  0  0  0
   -7.4560   23.8490  -30.9670 C   0  0  0  0  0  0  0  0  0  0  0  0
   -7.7270   22.5530  -31.3490 C   0  0  0  0  0  0  0  0  0  0  0  0
   -8.9460   21.9170  -31.5630 C   0  0  0  0  0  0  0  0  0  0  0  0
   -8.9250   20.5770  -31.9840 C   0  0  0  0  0  0  0  0  0  0  0  0
   -7.6930   19.9040  -32.1910 C   0  0  0  0  0  0  0  0  0  0  0  0
   -7.6920   18.4760  -32.6550 C   0  0  0  0  0  0  0  0  0  0  0  0
   -6.4720   17.8910  -32.3660 F   0  0  0  0  0  0  0  0  0  0  0  0
   -8.6970   17.7760  -32.0120 F   0  0  0  0  0  0  0  0  0  0  0  0
   -6.4760   20.5840  -31.9670 C   0  0  0  0  0  0  0  0  0  0  0  0
   -6.5290   21.9120  -31.5300 C   0  0  0  0  0  0  0  0  0  0  0  0
   -3.7667   23.0027  -27.0921 H   0  0  0  0  0  0  0  0  0  0  0  0
   -5.1546   23.3401  -28.1813 H   0  0  0  0  0  0  0  0  0  0  0  0
   -4.3871   21.7161  -28.1813 H   0  0  0  0  0  0  0  0  0  0  0  0
   -3.5960   24.1670  -29.4830 H   0  0  0  0  0  0  0  0  0  0  0  0
   -1.9643   23.4138  -27.4830 H   0  0  0  0  0  0  0  0  0  0  0  0
   -1.2696   22.6019  -28.9268 H   0  0  0  0  0  0  0  0  0  0  0  0
   -1.5115   24.3818  -28.9268 H   0  0  0  0  0  0  0  0  0  0  0  0
   -3.4910   26.0290  -31.2290 H   0  0  0  0  0  0  0  0  0  0  0  0
   -8.1825   24.6430  -30.7396 H   0  0  0  0  0  0  0  0  0  0  0  0
   -9.8970   22.4473  -31.4073 H   0  0  0  0  0  0  0  0  0  0  0  0
   -9.8723   20.0445  -32.1548 H   0  0  0  0  0  0  0  0  0  0  0  0
   -7.8629   18.4515  -33.7414 H   0  0  0  0  0  0  0  0  0  0  0  0
   -5.5110   20.0825  -32.1319 H   0  0  0  0  0  0  0  0  0  0  0  0
  1  2  1  0
  2  3  1  0
  2  4  1  0
  4  5  2  0
  4  6  1  0
  6  7  2  0
  6  8  1  0
  8  9  1  0
  9 10  1  0
 10 11  1  0
 10 12  2  0
  9 13  2  0
 13 14  1  0
 14 15  2  0
 15 16  1  0
 16 17  2  0
 17 18  1  0
 18 19  1  0
 18 20  1  0
 17 21  1  0
 21 22  2  0
 22  8  1  0
 22 14  1  0
  1 23  1  0
  1 24  1  0
  1 25  1  0
  2 26  1  0
  3 27  1  0
  3 28  1  0
  3 29  1  0
 11 30  1  0
 13 31  1  0
 15 32  1  0
 16 33  1  0
 18 34  1  0
 21 35  1  0
M  CHG  2   2   1  11  -1
M  END
>  <UniqueID>  (48) 
48

>  <SMILES>  (48) 
C[NH+](C)C(=O)C(=O)n1c(C([NH-])=O)cc2ccc(C(F)F)cc21

>  <Energy>  (48) 
74.68155579880455

>  <Genealogy>  (48) 
C[NH+](C)C(=O)C(=O)n1c(C([NH-])=O)cc2ccc(C(F)F)cc21 (protonated)
C[NH+](C)C(=O)C(=O)n1c(C([NH-])=O)cc2ccc(C(F)F)cc21 (3D coordinates assigned)
C[NH+](C)C(=O)C(=O)n1c(C([NH-])=O)cc2ccc(C(F)F)cc21 (optimized conformer: 74.68155579880455 kcal/mol)

>  <smiles>  (48) 
CN(C)C(=O)C(=O)n1c(C(N)=O)cc2ccc(C(F)F)cc21

>  <score_type>  (48) 
oracle

>  <origin>  (48) 
adg

>  <m_score__min__energy>  (48) 
-8.3200000000000003

>  <m_primary>  (48) 
energy

$$$$
48:0
     RDKit          3D

 40 41  0  0  0  0  0  0  0  0999 V2000
   -9.0890   21.2970  -31.5300 C   0  0  0  0  0  0  0  0  0  0  0  0
   -8.7560   20.1410  -32.4570 C   0  0  0  0  0  0  0  0  0  0  0  0
   -7.4850   20.3640  -33.0570 O   0  0  0  0  0  0  0  0  0  0  0  0
   -6.3250   19.7230  -32.6190 C   0  0  0  0  0  0  0  0  0  0  0  0
   -6.3470   19.0000  -31.5820 O   0  0  0  0  0  0  0  0  0  0  0  0
   -5.0730   19.8580  -33.4360 C   0  0  0  0  0  0  0  0  0  0  0  0
   -3.9260   20.4070  -32.6290 C   0  0  0  0  0  0  0  0  0  0  0  0
   -2.6610   19.7650  -32.6550 C   0  0  0  0  0  0  0  0  0  0  0  0
   -1.5710   20.3020  -31.9480 C   0  0  0  0  0  0  0  0  0  0  0  0
   -1.7730   21.4830  -31.2380 C   0  0  0  0  0  0  0  0  0  0  0  0
   -0.8880   22.2420  -30.5030 C   0  0  0  0  0  0  0  0  0  0  0  0
   -1.6280   23.3330  -30.0480 C   0  0  0  0  0  0  0  0  0  0  0  0
   -1.0860   24.3770  -29.1540 C   0  0  0  0  0  0  0  0  0  0  0  0
   -1.7970   25.6000  -28.9780 N   0  0  0  0  0  0  0  0  0  0  0  0
    0.0120   24.2100  -28.5590 O   0  0  0  0  0  0  0  0  0  0  0  0
   -2.9150   23.2520  -30.4880 N   0  0  0  0  0  0  0  0  0  0  0  0
   -3.9790   24.1960  -30.3020 C   0  0  0  0  0  0  0  0  0  0  0  0
   -3.8890   25.3460  -30.8110 O   0  0  0  0  0  0  0  0  0  0  0  0
   -5.1460   23.8750  -29.4170 C   0  0  0  0  0  0  0  0  0  0  0  0
   -6.6630   24.6520  -30.0740 S   0  0  0  0  0  0  0  0  0  0  0  0
   -6.6550   23.7690  -31.6660 C   0  0  0  0  0  0  0  0  0  0  0  0
   -2.9890   22.1130  -31.2050 C   0  0  0  0  0  0  0  0  0  0  0  0
   -4.0890   21.6050  -31.9030 C   0  0  0  0  0  0  0  0  0  0  0  0
   -8.9942   20.9678  -30.4847 H   0  0  0  0  0  0  0  0  0  0  0  0
   -8.3940   22.1288  -31.7169 H   0  0  0  0  0  0  0  0  0  0  0  0
  -10.1201   21.6316  -31.7169 H   0  0  0  0  0  0  0  0  0  0  0  0
   -8.7299   19.2046  -31.8804 H   0  0  0  0  0  0  0  0  0  0  0  0
   -9.5236   20.0677  -33.2415 H   0  0  0  0  0  0  0  0  0  0  0  0
   -4.7927   18.8668  -33.8219 H   0  0  0  0  0  0  0  0  0  0  0  0
   -5.2779   20.5623  -34.2558 H   0  0  0  0  0  0  0  0  0  0  0  0
   -2.5319   18.8385  -33.2337 H   0  0  0  0  0  0  0  0  0  0  0  0
   -0.5896   19.8051  -31.9553 H   0  0  0  0  0  0  0  0  0  0  0  0
    0.1753   22.0320  -30.3153 H   0  0  0  0  0  0  0  0  0  0  0  0
   -2.8040   25.6790  -29.2420 H   0  0  0  0  0  0  0  0  0  0  0  0
   -5.2835   22.7844  -29.3773 H   0  0  0  0  0  0  0  0  0  0  0  0
   -4.9501   24.2641  -28.4069 H   0  0  0  0  0  0  0  0  0  0  0  0
   -6.6452   22.6843  -31.4836 H   0  0  0  0  0  0  0  0  0  0  0  0
   -7.5556   24.0365  -32.2382 H   0  0  0  0  0  0  0  0  0  0  0  0
   -5.7594   24.0527  -32.2382 H   0  0  0  0  0  0  0  0  0  0  0  0
   -5.0572   22.1268  -31.8862 H   0  0  0  0  0  0  0  0  0  0  0  0
  1  2  1  0
  2  3  1  0
  3  4  1  0
  4  5  2  0
  4  6  1  0
  6  7  1  0
  7  8  2  0
  8  9  1  0
  9 10  2  0
 10 11  1  0
 11 12  2  0
 12 13  1  0
 13 14  1  0
 13 15  2  0
 12 16  1  0
 16 17  1  0
 17 18  2  0
 17 19  1  0
 19 20  1  0
 20 21  1  0
 16 22  1  0
 22 23  2  0
 23  7  1  0
 22 10  1  0
  1 24  1  0
  1 25  1  0
  1 26  1  0
  2 27  1  0
  2 28  1  0
  6 29  1  0
  6 30  1  0
  8 31  1  0
  9 32  1  0
 11 33  1  0
 14 34  1  0
 19 35  1  0
 19 36  1  0
 21 37  1  0
 21 38  1  0
 21 39  1  0
 23 40  1  0
M  CHG  1  14  -1
M  END
>  <UniqueID>  (49) 
49

>  <SMILES>  (49) 
CCOC(=O)Cc1ccc2cc(C([NH-])=O)n(C(=O)CSC)c2c1

>  <Energy>  (49) 
68.61861333114999

>  <Genealogy>  (49) 
CCOC(=O)Cc1ccc2cc(C([NH-])=O)n(C(=O)CSC)c2c1 (protonated)
CCOC(=O)Cc1ccc2cc(C([NH-])=O)n(C(=O)CSC)c2c1 (3D coordinates assigned)
CCOC(=O)Cc1ccc2cc(C([NH-])=O)n(C(=O)CSC)c2c1 (optimized conformer: 68.61861333114999 kcal/mol)

>  <smiles>  (49) 
CCOC(=O)Cc1ccc2cc(C(N)=O)n(C(=O)CSC)c2c1

>  <score_type>  (49) 
oracle

>  <origin>  (49) 
adg

>  <m_score__min__energy>  (49) 
-10.050000000000001

>  <m_primary>  (49) 
energy

$$$$
49:0
     RDKit          3D

 44 46  0  0  0  0  0  0  0  0999 V2000
   -6.1880   15.6850  -33.9640 C   0  0  0  0  0  0  0  0  0  0  0  0
   -6.1460   16.8550  -34.7690 O   0  0  0  0  0  0  0  0  0  0  0  0
   -5.7110   18.0790  -34.2630 C   0  0  0  0  0  0  0  0  0  0  0  0
   -6.3480   19.2430  -34.4620 N   0  0  0  0  0  0  0  0  0  0  0  0
   -5.6540   20.1810  -33.8420 N   0  0  0  0  0  0  0  0  0  0  0  0
   -4.6040   19.5430  -33.2780 C   0  0  0  0  0  0  0  0  0  0  0  0
   -3.5560   20.2070  -32.4790 C   0  0  0  0  0  0  0  0  0  0  0  0
   -2.2920   19.5910  -32.2980 C   0  0  0  0  0  0  0  0  0  0  0  0
   -1.2950   20.2130  -31.5280 C   0  0  0  0  0  0  0  0  0  0  0  0
   -1.5860   21.4500  -30.9590 C   0  0  0  0  0  0  0  0  0  0  0  0
   -0.8180   22.2540  -30.1500 C   0  0  0  0  0  0  0  0  0  0  0  0
   -1.6150   23.3620  -29.8660 C   0  0  0  0  0  0  0  0  0  0  0  0
   -1.1450   24.5240  -29.0850 C   0  0  0  0  0  0  0  0  0  0  0  0
   -1.9760   25.6760  -28.9560 N   0  0  0  0  0  0  0  0  0  0  0  0
   -0.0310   24.4990  -28.4960 O   0  0  0  0  0  0  0  0  0  0  0  0
   -2.8300   23.2430  -30.4720 N   0  0  0  0  0  0  0  0  0  0  0  0
   -3.9540   24.1310  -30.3640 C   0  0  0  0  0  0  0  0  0  0  0  0
   -3.8670   25.3040  -30.8160 O   0  0  0  0  0  0  0  0  0  0  0  0
   -5.1420   23.6710  -29.7770 O   0  0  0  0  0  0  0  0  0  0  0  0
   -6.4700   23.8500  -30.2890 C   0  0  0  0  0  0  0  0  0  0  0  0
   -6.4620   23.8530  -31.8310 C   0  0  0  0  0  0  0  0  0  0  0  0
   -7.4110   22.7530  -29.7540 C   0  0  0  0  0  0  0  0  0  0  0  0
   -6.9670   25.2170  -29.7940 C   0  0  0  0  0  0  0  0  0  0  0  0
   -2.7960   22.0680  -31.1390 C   0  0  0  0  0  0  0  0  0  0  0  0
   -3.8140   21.4640  -31.8850 C   0  0  0  0  0  0  0  0  0  0  0  0
   -4.6340   18.2520  -33.5350 O   0  0  0  0  0  0  0  0  0  0  0  0
   -6.1778   15.9703  -32.9017 H   0  0  0  0  0  0  0  0  0  0  0  0
   -7.1069   15.1217  -34.1835 H   0  0  0  0  0  0  0  0  0  0  0  0
   -5.3118   15.0572  -34.1835 H   0  0  0  0  0  0  0  0  0  0  0  0
   -7.2270   19.4020  -35.0020 H   0  0  0  0  0  0  0  0  0  0  0  0
   -2.0898   18.6159  -32.7653 H   0  0  0  0  0  0  0  0  0  0  0  0
   -0.3144   19.7373  -31.3792 H   0  0  0  0  0  0  0  0  0  0  0  0
    0.2076   22.0634  -29.8010 H   0  0  0  0  0  0  0  0  0  0  0  0
   -2.9570   25.6720  -29.3140 H   0  0  0  0  0  0  0  0  0  0  0  0
   -5.4891   24.2179  -32.1919 H   0  0  0  0  0  0  0  0  0  0  0  0
   -6.6302   22.8307  -32.2005 H   0  0  0  0  0  0  0  0  0  0  0  0
   -7.2610   24.5126  -32.2005 H   0  0  0  0  0  0  0  0  0  0  0  0
   -7.4005   22.7653  -28.6541 H   0  0  0  0  0  0  0  0  0  0  0  0
   -8.4338   22.9401  -30.1130 H   0  0  0  0  0  0  0  0  0  0  0  0
   -7.0704   21.7706  -30.1130 H   0  0  0  0  0  0  0  0  0  0  0  0
   -6.9714   25.2292  -28.6941 H   0  0  0  0  0  0  0  0  0  0  0  0
   -6.2986   26.0071  -30.1668 H   0  0  0  0  0  0  0  0  0  0  0  0
   -7.9868   25.3933  -30.1668 H   0  0  0  0  0  0  0  0  0  0  0  0
   -4.7909   21.9549  -32.0064 H   0  0  0  0  0  0  0  0  0  0  0  0
  1  2  1  0
  2  3  1  0
  3  4  2  0
  4  5  1  0
  5  6  2  0
  6  7  1  0
  7  8  2  0
  8  9  1  0
  9 10  2  0
 10 11  1  0
 11 12  2  0
 12 13  1  0
 13 14  1  0
 13 15  2  0
 12 16  1  0
 16 17  1  0
 17 18  2  0
 17 19  1  0
 19 20  1  0
 20 21  1  0
 20 22  1  0
 20 23  1  0
 16 24  1  0
 24 25  2  0
  6 26  1  0
 26  3  1  0
 25  7  1  0
 24 10  1  0
  1 27  1  0
  1 28  1  0
  1 29  1  0
  4 30  1  0
  8 31  1  0
  9 32  1  0
 11 33  1  0
 14 34  1  0
 21 35  1  0
 21 36  1  0
 21 37  1  0
 22 38  1  0
 22 39  1  0
 22 40  1  0
 23 41  1  0
 23 42  1  0
 23 43  1  0
 25 44  1  0
M  CHG  2   4   1  14  -1
M  END
>  <UniqueID>  (50) 
50

>  <SMILES>  (50) 
COc1[nH+]nc(-c2ccc3cc(C([NH-])=O)n(C(=O)OC(C)(C)C)c3c2)o1

>  <Energy>  (50) 
113.01654639417929

>  <Genealogy>  (50) 
COc1[nH+]nc(-c2ccc3cc(C([NH-])=O)n(C(=O)OC(C)(C)C)c3c2)o1 (protonated)
COc1[nH+]nc(-c2ccc3cc(C([NH-])=O)n(C(=O)OC(C)(C)C)c3c2)o1 (3D coordinates assigned)
COc1[nH+]nc(-c2ccc3cc(C([NH-])=O)n(C(=O)OC(C)(C)C)c3c2)o1 (optimized conformer: 113.01654639417929 kcal/mol)

>  <smiles>  (50) 
COc1nnc(-c2ccc3cc(C(N)=O)n(C(=O)OC(C)(C)C)c3c2)o1

>  <score_type>  (50) 
oracle

>  <origin>  (50) 
adg

>  <m_score__min__energy>  (50) 
-10.720000000000001

>  <m_primary>  (50) 
energy

$$$$
51:0
     RDKit          3D

 47 50  0  0  0  0  0  0  0  0999 V2000
   -6.6120   16.8610  -33.8110 C   0  0  0  0  0  0  0  0  0  0  0  0
   -5.8800   18.1080  -33.6360 N   0  0  0  0  0  0  0  0  0  0  0  0
   -4.8490   18.3020  -32.7940 C   0  0  0  0  0  0  0  0  0  0  0  0
   -4.4740   19.6330  -32.8730 C   0  0  0  0  0  0  0  0  0  0  0  0
   -3.3870   20.3150  -32.1280 C   0  0  0  0  0  0  0  0  0  0  0  0
   -2.1270   19.6810  -31.9470 C   0  0  0  0  0  0  0  0  0  0  0  0
   -1.0950   20.3150  -31.2340 C   0  0  0  0  0  0  0  0  0  0  0  0
   -1.3420   21.5840  -30.7190 C   0  0  0  0  0  0  0  0  0  0  0  0
   -0.5390   22.4090  -29.9630 C   0  0  0  0  0  0  0  0  0  0  0  0
   -1.3110   23.5410  -29.7120 C   0  0  0  0  0  0  0  0  0  0  0  0
   -0.8660   24.6560  -28.8540 C   0  0  0  0  0  0  0  0  0  0  0  0
   -1.6590   25.8320  -28.6960 N   0  0  0  0  0  0  0  0  0  0  0  0
    0.2550   24.5870  -28.2850 O   0  0  0  0  0  0  0  0  0  0  0  0
   -2.5400   23.4180  -30.2840 N   0  0  0  0  0  0  0  0  0  0  0  0
   -3.6820   24.2640  -30.0990 C   0  0  0  0  0  0  0  0  0  0  0  0
   -3.8320   25.2840  -30.8230 O   0  0  0  0  0  0  0  0  0  0  0  0
   -4.7430   23.8920  -29.1050 C   0  0  0  0  0  0  0  0  0  0  0  0
   -6.0540   23.5000  -29.7900 C   0  0  0  0  0  0  0  0  0  0  0  0
   -5.9100   23.5460  -31.2490 N   0  0  0  0  0  0  0  0  0  0  0  0
   -7.1620   23.1190  -31.8720 C   0  0  0  0  0  0  0  0  0  0  0  0
   -7.3470   21.6110  -31.8430 C   0  0  0  0  0  0  0  0  0  0  0  0
   -8.1490   22.4950  -30.9000 C   0  0  0  0  0  0  0  0  0  0  0  0
   -2.5460   22.2130  -30.8870 C   0  0  0  0  0  0  0  0  0  0  0  0
   -3.5940   21.6050  -31.5830 C   0  0  0  0  0  0  0  0  0  0  0  0
   -5.3510   20.1890  -33.7940 C   0  0  0  0  0  0  0  0  0  0  0  0
   -6.2010   19.2430  -34.2340 N   0  0  0  0  0  0  0  0  0  0  0  0
   -6.8594   16.4396  -32.8255 H   0  0  0  0  0  0  0  0  0  0  0  0
   -7.5393   17.0555  -34.3698 H   0  0  0  0  0  0  0  0  0  0  0  0
   -5.9902   16.1461  -34.3698 H   0  0  0  0  0  0  0  0  0  0  0  0
   -4.3847   17.5370  -32.1543 H   0  0  0  0  0  0  0  0  0  0  0  0
   -1.9577   18.6802  -32.3710 H   0  0  0  0  0  0  0  0  0  0  0  0
   -0.1220   19.8233  -31.0876 H   0  0  0  0  0  0  0  0  0  0  0  0
    0.4911   22.2155  -29.6290 H   0  0  0  0  0  0  0  0  0  0  0  0
   -1.3500   26.5850  -28.0420 H   0  0  0  0  0  0  0  0  0  0  0  0
   -2.4680   26.0230  -29.3240 H   0  0  0  0  0  0  0  0  0  0  0  0
   -4.3865   23.0411  -28.5059 H   0  0  0  0  0  0  0  0  0  0  0  0
   -4.9386   24.7691  -28.4707 H   0  0  0  0  0  0  0  0  0  0  0  0
   -6.3291   22.4792  -29.4862 H   0  0  0  0  0  0  0  0  0  0  0  0
   -6.8370   24.2115  -29.4891 H   0  0  0  0  0  0  0  0  0  0  0  0
   -5.7550   24.5410  -31.5310 H   0  0  0  0  0  0  0  0  0  0  0  0
   -7.2220   23.9048  -32.6394 H   0  0  0  0  0  0  0  0  0  0  0  0
   -7.8482   21.1020  -32.6795 H   0  0  0  0  0  0  0  0  0  0  0  0
   -6.6774   20.7472  -31.7189 H   0  0  0  0  0  0  0  0  0  0  0  0
   -9.2303   22.6254  -31.0545 H   0  0  0  0  0  0  0  0  0  0  0  0
   -8.2998   22.5354  -29.8111 H   0  0  0  0  0  0  0  0  0  0  0  0
   -4.5595   22.1179  -31.7049 H   0  0  0  0  0  0  0  0  0  0  0  0
   -5.3512   21.2411  -34.1149 H   0  0  0  0  0  0  0  0  0  0  0  0
  1  2  1  0
  2  3  1  0
  3  4  2  0
  4  5  1  0
  5  6  2  0
  6  7  1  0
  7  8  2  0
  8  9  1  0
  9 10  2  0
 10 11  1  0
 11 12  1  0
 11 13  2  0
 10 14  1  0
 14 15  1  0
 15 16  2  0
 15 17  1  0
 17 18  1  0
 18 19  1  0
 19 20  1  0
 20 21  1  0
 21 22  1  0
 14 23  1  0
 23 24  2  0
  4 25  1  0
 25 26  2  0
 26  2  1  0
 24  5  1  0
 23  8  1  0
 22 20  1  0
  1 27  1  0
  1 28  1  0
  1 29  1  0
  3 30  1  0
  6 31  1  0
  7 32  1  0
  9 33  1  0
 12 34  1  0
 12 35  1  0
 17 36  1  0
 17 37  1  0
 18 38  1  0
 18 39  1  0
 19 40  1  0
 20 41  1  0
 21 42  1  0
 21 43  1  0
 22 44  1  0
 22 45  1  0
 24 46  1  0
 25 47  1  0
M  END
>  <UniqueID>  (51) 
51

>  <SMILES>  (51) 
Cn1cc(-c2ccc3cc(C(N)=O)n(C(=O)CCNC4CC4)c3c2)cn1

>  <Energy>  (51) 
381.6235641173952

>  <Genealogy>  (51) 
Cn1cc(-c2ccc3cc(C(N)=O)n(C(=O)CCNC4CC4)c3c2)cn1 (3D coordinates assigned)
Cn1cc(-c2ccc3cc(C(N)=O)n(C(=O)CCNC4CC4)c3c2)cn1 (nonaromatic ring conformer: 381.6235641173952 kcal/mol)

>  <smiles>  (51) 
Cn1cc(-c2ccc3cc(C(N)=O)n(C(=O)CCNC4CC4)c3c2)cn1

>  <score_type>  (51) 
oracle

>  <origin>  (51) 
adg

>  <m_score__min__energy>  (51) 
-9.7200000000000006

>  <m_primary>  (51) 
energy

$$$$
52:0
     RDKit          3D

 53 55  0  0  0  0  0  0  0  0999 V2000
   -6.3310   23.5720  -32.2820 C   0  0  0  0  0  0  0  0  0  0  0  0
   -7.1770   24.1160  -31.1320 C   0  0  0  0  0  0  0  0  0  0  0  0
   -6.3450   24.3390  -29.8620 C   0  0  0  0  0  0  0  0  0  0  0  0
   -5.1340   23.5220  -29.8710 N   0  0  0  0  0  0  0  0  0  0  0  0
   -3.8830   23.9970  -30.3840 C   0  0  0  0  0  0  0  0  0  0  0  0
   -3.7810   25.1720  -30.8300 O   0  0  0  0  0  0  0  0  0  0  0  0
   -2.7340   23.1370  -30.3850 N   0  0  0  0  0  0  0  0  0  0  0  0
   -1.5470   23.3270  -29.7440 C   0  0  0  0  0  0  0  0  0  0  0  0
   -1.1550   24.5330  -28.9840 C   0  0  0  0  0  0  0  0  0  0  0  0
   -1.9980   25.6810  -28.9420 N   0  0  0  0  0  0  0  0  0  0  0  0
   -0.0430   24.5610  -28.3910 O   0  0  0  0  0  0  0  0  0  0  0  0
   -0.6990   22.2420  -29.9620 C   0  0  0  0  0  0  0  0  0  0  0  0
   -1.4070   21.3790  -30.7690 C   0  0  0  0  0  0  0  0  0  0  0  0
   -1.0470   20.1430  -31.2990 C   0  0  0  0  0  0  0  0  0  0  0  0
   -1.9890   19.4690  -32.0940 C   0  0  0  0  0  0  0  0  0  0  0  0
   -3.2650   20.0360  -32.3350 C   0  0  0  0  0  0  0  0  0  0  0  0
   -4.2460   19.3230  -33.1730 C   0  0  0  0  0  0  0  0  0  0  0  0
   -3.7720   18.5610  -34.2530 C   0  0  0  0  0  0  0  0  0  0  0  0
   -4.6610   17.8670  -35.0750 C   0  0  0  0  0  0  0  0  0  0  0  0
   -6.0320   17.9220  -34.8240 C   0  0  0  0  0  0  0  0  0  0  0  0
   -6.5180   18.6660  -33.7480 C   0  0  0  0  0  0  0  0  0  0  0  0
   -5.6390   19.3740  -32.9110 C   0  0  0  0  0  0  0  0  0  0  0  0
   -6.2190   20.1150  -31.7230 C   0  0  0  0  0  0  0  0  0  0  0  0
   -7.6970   20.0920  -31.7630 N   0  0  0  0  0  0  0  0  0  0  0  0
   -8.2370   21.1870  -30.9430 C   0  0  0  0  0  0  0  0  0  0  0  0
   -8.2170   18.8050  -31.2680 C   0  0  0  0  0  0  0  0  0  0  0  0
   -3.6020   21.2820  -31.7670 C   0  0  0  0  0  0  0  0  0  0  0  0
   -2.6350   21.9430  -31.0050 C   0  0  0  0  0  0  0  0  0  0  0  0
   -5.4714   23.0192  -31.8752 H   0  0  0  0  0  0  0  0  0  0  0  0
   -6.9420   22.8971  -32.8994 H   0  0  0  0  0  0  0  0  0  0  0  0
   -5.9705   24.4080  -32.8994 H   0  0  0  0  0  0  0  0  0  0  0  0
   -7.6198   25.0749  -31.4395 H   0  0  0  0  0  0  0  0  0  0  0  0
   -7.9557   23.3738  -30.9022 H   0  0  0  0  0  0  0  0  0  0  0  0
   -6.0611   25.4000  -29.8012 H   0  0  0  0  0  0  0  0  0  0  0  0
   -6.9534   24.0488  -28.9927 H   0  0  0  0  0  0  0  0  0  0  0  0
   -5.1860   22.5530  -29.4850 H   0  0  0  0  0  0  0  0  0  0  0  0
   -2.9680   25.6490  -29.3270 H   0  0  0  0  0  0  0  0  0  0  0  0
    0.3202   22.1042  -29.5719 H   0  0  0  0  0  0  0  0  0  0  0  0
   -0.0562   19.7079  -31.1015 H   0  0  0  0  0  0  0  0  0  0  0  0
   -1.7339   18.4932  -32.5330 H   0  0  0  0  0  0  0  0  0  0  0  0
   -2.6915   18.5107  -34.4527 H   0  0  0  0  0  0  0  0  0  0  0  0
   -4.2803   17.2763  -35.9213 H   0  0  0  0  0  0  0  0  0  0  0  0
   -6.7315   17.3778  -35.4755 H   0  0  0  0  0  0  0  0  0  0  0  0
   -7.6001   18.6985  -33.5531 H   0  0  0  0  0  0  0  0  0  0  0  0
   -5.8754   19.6345  -30.7950 H   0  0  0  0  0  0  0  0  0  0  0  0
   -5.8806   21.1610  -31.7593 H   0  0  0  0  0  0  0  0  0  0  0  0
   -8.1159   20.9414  -29.8776 H   0  0  0  0  0  0  0  0  0  0  0  0
   -7.6940   22.1165  -31.1690 H   0  0  0  0  0  0  0  0  0  0  0  0
   -9.3050   21.3221  -31.1690 H   0  0  0  0  0  0  0  0  0  0  0  0
   -8.2159   18.8078  -30.1680 H   0  0  0  0  0  0  0  0  0  0  0  0
   -9.2444   18.6598  -31.6333 H   0  0  0  0  0  0  0  0  0  0  0  0
   -7.5789   17.9868  -31.6333 H   0  0  0  0  0  0  0  0  0  0  0  0
   -4.5988   21.7215  -31.9196 H   0  0  0  0  0  0  0  0  0  0  0  0
  1  2  1  0
  2  3  1  0
  3  4  1  0
  4  5  1  0
  5  6  2  0
  5  7  1  0
  7  8  1  0
  8  9  1  0
  9 10  1  0
  9 11  2  0
  8 12  2  0
 12 13  1  0
 13 14  2  0
 14 15  1  0
 15 16  2  0
 16 17  1  0
 17 18  2  0
 18 19  1  0
 19 20  2  0
 20 21  1  0
 21 22  2  0
 22 23  1  0
 23 24  1  0
 24 25  1  0
 24 26  1  0
 16 27  1  0
 27 28  2  0
 28  7  1  0
 28 13  1  0
 22 17  1  0
  1 29  1  0
  1 30  1  0
  1 31  1  0
  2 32  1  0
  2 33  1  0
  3 34  1  0
  3 35  1  0
  4 36  1  0
 10 37  1  0
 12 38  1  0
 14 39  1  0
 15 40  1  0
 18 41  1  0
 19 42  1  0
 20 43  1  0
 21 44  1  0
 23 45  1  0
 23 46  1  0
 25 47  1  0
 25 48  1  0
 25 49  1  0
 26 50  1  0
 26 51  1  0
 26 52  1  0
 27 53  1  0
M  CHG  1  10  -1
M  END
>  <UniqueID>  (52) 
52

>  <SMILES>  (52) 
CCCNC(=O)n1c(C([NH-])=O)cc2ccc(-c3ccccc3CN(C)C)cc21

>  <Energy>  (52) 
93.94592686373083

>  <Genealogy>  (52) 
CCCNC(=O)n1c(C([NH-])=O)cc2ccc(-c3ccccc3CN(C)C)cc21 (protonated)
CCCNC(=O)n1c(C([NH-])=O)cc2ccc(-c3ccccc3CN(C)C)cc21 (3D coordinates assigned)
CCCNC(=O)n1c(C([NH-])=O)cc2ccc(-c3ccccc3CN(C)C)cc21 (optimized conformer: 93.94592686373083 kcal/mol)

>  <smiles>  (52) 
CCCNC(=O)n1c(C(N)=O)cc2ccc(-c3ccccc3CN(C)C)cc21

>  <score_type>  (52) 
oracle

>  <origin>  (52) 
adg

>  <m_score__min__energy>  (52) 
-11.609999999999999

>  <m_primary>  (52) 
energy

$$$$
53:0
     RDKit          3D

 36 37  0  0  0  0  0  0  0  0999 V2000
   -4.1880   25.5140  -30.7310 N   0  0  0  0  0  0  0  0  0  0  0  0
   -5.5090   25.0340  -30.4750 C   0  0  0  0  0  0  0  0  0  0  0  0
   -6.2640   25.6880  -29.7070 O   0  0  0  0  0  0  0  0  0  0  0  0
   -5.9810   23.7550  -31.0400 C   0  0  0  0  0  0  0  0  0  0  0  0
   -7.3260   23.4520  -31.2220 C   0  0  0  0  0  0  0  0  0  0  0  0
   -7.3450   22.1660  -31.7110 C   0  0  0  0  0  0  0  0  0  0  0  0
   -8.4230   21.3650  -32.0720 C   0  0  0  0  0  0  0  0  0  0  0  0
   -8.1510   20.0830  -32.5790 C   0  0  0  0  0  0  0  0  0  0  0  0
   -6.8150   19.6360  -32.7420 C   0  0  0  0  0  0  0  0  0  0  0  0
   -6.5370   18.2460  -33.2550 C   0  0  0  0  0  0  0  0  0  0  0  0
   -5.4730   17.7080  -32.5550 F   0  0  0  0  0  0  0  0  0  0  0  0
   -7.6440   17.4320  -33.0890 F   0  0  0  0  0  0  0  0  0  0  0  0
   -6.2210   18.2750  -34.6020 F   0  0  0  0  0  0  0  0  0  0  0  0
   -5.7460   20.4730  -32.3420 C   0  0  0  0  0  0  0  0  0  0  0  0
   -6.0450   21.7370  -31.8190 C   0  0  0  0  0  0  0  0  0  0  0  0
   -5.1930   22.7060  -31.4110 N   0  0  0  0  0  0  0  0  0  0  0  0
   -3.7580   22.6860  -31.4870 C   0  0  0  0  0  0  0  0  0  0  0  0
   -3.1820   22.2520  -32.5220 O   0  0  0  0  0  0  0  0  0  0  0  0
   -3.0020   23.1480  -30.4060 O   0  0  0  0  0  0  0  0  0  0  0  0
   -2.0230   22.3510  -29.7480 C   0  0  0  0  0  0  0  0  0  0  0  0
   -1.3960   23.1370  -28.5940 C   0  0  0  0  0  0  0  0  0  0  0  0
   -1.0920   24.5930  -28.9720 C   0  0  0  0  0  0  0  0  0  0  0  0
   -2.2630   25.2780  -29.3310 O   0  0  0  0  0  0  0  0  0  0  0  0
   -3.4880   24.9220  -31.2300 H   0  0  0  0  0  0  0  0  0  0  0  0
   -3.8860   26.4430  -30.3610 H   0  0  0  0  0  0  0  0  0  0  0  0
   -8.1901   24.1016  -31.0185 H   0  0  0  0  0  0  0  0  0  0  0  0
   -9.4571   21.7241  -31.9639 H   0  0  0  0  0  0  0  0  0  0  0  0
   -8.9839   19.4185  -32.8526 H   0  0  0  0  0  0  0  0  0  0  0  0
   -4.7029   20.1378  -32.4399 H   0  0  0  0  0  0  0  0  0  0  0  0
   -2.4995   21.4418  -29.3527 H   0  0  0  0  0  0  0  0  0  0  0  0
   -1.2370   22.0782  -30.4676 H   0  0  0  0  0  0  0  0  0  0  0  0
   -2.0934   23.1315  -27.7434 H   0  0  0  0  0  0  0  0  0  0  0  0
   -0.4425   22.6519  -28.3381 H   0  0  0  0  0  0  0  0  0  0  0  0
   -0.6300   25.0985  -28.1112 H   0  0  0  0  0  0  0  0  0  0  0  0
   -0.4089   24.5942  -29.8342 H   0  0  0  0  0  0  0  0  0  0  0  0
   -3.0230   24.7560  -28.9600 H   0  0  0  0  0  0  0  0  0  0  0  0
  1  2  1  0
  2  3  2  0
  2  4  1  0
  4  5  2  0
  5  6  1  0
  6  7  2  0
  7  8  1  0
  8  9  2  0
  9 10  1  0
 10 11  1  0
 10 12  1  0
 10 13  1  0
  9 14  1  0
 14 15  2  0
 15 16  1  0
 16 17  1  0
 17 18  2  0
 17 19  1  0
 19 20  1  0
 20 21  1  0
 21 22  1  0
 22 23  1  0
 16  4  1  0
 15  6  1  0
  1 24  1  0
  1 25  1  0
  5 26  1  0
  7 27  1  0
  8 28  1  0
 14 29  1  0
 20 30  1  0
 20 31  1  0
 21 32  1  0
 21 33  1  0
 22 34  1  0
 22 35  1  0
 23 36  1  0
M  END
>  <UniqueID>  (53) 
53

>  <SMILES>  (53) 
NC(=O)c1cc2ccc(C(F)(F)F)cc2n1C(=O)OCCCO

>  <Energy>  (53) 
69.49769543089634

>  <Genealogy>  (53) 
NC(=O)c1cc2ccc(C(F)(F)F)cc2n1C(=O)OCCCO (3D coordinates assigned)
NC(=O)c1cc2ccc(C(F)(F)F)cc2n1C(=O)OCCCO (optimized conformer: 69.49769543089634 kcal/mol)

>  <smiles>  (53) 
NC(=O)c1cc2ccc(C(F)(F)F)cc2n1C(=O)OCCCO

>  <score_type>  (53) 
oracle

>  <origin>  (53) 
adg

>  <m_score__min__energy>  (53) 
-7.8700000000000001

>  <m_primary>  (53) 
energy

$$$$
54:0
     RDKit          3D

 32 33  0  0  0  0  0  0  0  0999 V2000
   -5.5500   18.0980  -35.1970 N   0  0  0  0  0  0  0  0  0  0  0  0
   -6.0750   18.1080  -34.1650 C   0  0  0  0  0  0  0  0  0  0  0  0
   -6.7400   18.1210  -32.8600 C   0  0  0  0  0  0  0  0  0  0  0  0
   -7.0240   19.5360  -32.4420 C   0  0  0  0  0  0  0  0  0  0  0  0
   -8.3540   20.0260  -32.4450 C   0  0  0  0  0  0  0  0  0  0  0  0
   -8.6330   21.3430  -32.0410 C   0  0  0  0  0  0  0  0  0  0  0  0
   -7.5680   22.1370  -31.6240 C   0  0  0  0  0  0  0  0  0  0  0  0
   -7.5470   23.4500  -31.2080 C   0  0  0  0  0  0  0  0  0  0  0  0
   -6.2110   23.7250  -30.9260 C   0  0  0  0  0  0  0  0  0  0  0  0
   -5.7390   25.0240  -30.4010 C   0  0  0  0  0  0  0  0  0  0  0  0
   -6.1320   25.4920  -29.1100 N   0  0  0  0  0  0  0  0  0  0  0  0
   -5.0090   25.7530  -31.1230 O   0  0  0  0  0  0  0  0  0  0  0  0
   -5.4370   22.6320  -31.1680 N   0  0  0  0  0  0  0  0  0  0  0  0
   -4.0050   22.5320  -31.1240 C   0  0  0  0  0  0  0  0  0  0  0  0
   -3.3390   22.6310  -32.1900 O   0  0  0  0  0  0  0  0  0  0  0  0
   -3.2860   22.4240  -29.8130 C   0  0  0  0  0  0  0  0  0  0  0  0
   -2.2980   23.5380  -29.6900 C   0  0  0  0  0  0  0  0  0  0  0  0
   -2.7380   24.8910  -29.7750 N   0  0  0  0  0  0  0  0  0  0  0  0
   -1.0730   23.2830  -29.5530 O   0  0  0  0  0  0  0  0  0  0  0  0
   -6.2800   21.6680  -31.5900 C   0  0  0  0  0  0  0  0  0  0  0  0
   -5.9690   20.3680  -32.0020 C   0  0  0  0  0  0  0  0  0  0  0  0
   -7.6863   17.5643  -32.9278 H   0  0  0  0  0  0  0  0  0  0  0  0
   -6.0823   17.6495  -32.1149 H   0  0  0  0  0  0  0  0  0  0  0  0
   -9.1757   19.3692  -32.7666 H   0  0  0  0  0  0  0  0  0  0  0  0
   -9.6610   21.7343  -32.0539 H   0  0  0  0  0  0  0  0  0  0  0  0
   -8.4028   24.1352  -31.1178 H   0  0  0  0  0  0  0  0  0  0  0  0
   -5.7410   26.3850  -28.7370 H   0  0  0  0  0  0  0  0  0  0  0  0
   -6.8780   25.0110  -28.5620 H   0  0  0  0  0  0  0  0  0  0  0  0
   -4.0134   22.4873  -28.9902 H   0  0  0  0  0  0  0  0  0  0  0  0
   -2.7579   21.4603  -29.7643 H   0  0  0  0  0  0  0  0  0  0  0  0
   -3.0390   25.3010  -30.6860 H   0  0  0  0  0  0  0  0  0  0  0  0
   -4.9315   20.0028  -31.9841 H   0  0  0  0  0  0  0  0  0  0  0  0
  1  2  3  0
  2  3  1  0
  3  4  1  0
  4  5  2  0
  5  6  1  0
  6  7  2  0
  7  8  1  0
  8  9  2  0
  9 10  1  0
 10 11  1  0
 10 12  2  0
  9 13  1  0
 13 14  1  0
 14 15  2  0
 14 16  1  0
 16 17  1  0
 17 18  1  0
 17 19  2  0
 13 20  1  0
 20 21  2  0
 21  4  1  0
 20  7  1  0
  3 22  1  0
  3 23  1  0
  5 24  1  0
  6 25  1  0
  8 26  1  0
 11 27  1  0
 11 28  1  0
 16 29  1  0
 16 30  1  0
 18 31  1  0
 21 32  1  0
M  CHG  1  18  -1
M  END
>  <UniqueID>  (54) 
54

>  <SMILES>  (54) 
N#CCc1ccc2cc(C(N)=O)n(C(=O)CC([NH-])=O)c2c1

>  <Energy>  (54) 
67.79318507510048

>  <Genealogy>  (54) 
N#CCc1ccc2cc(C(N)=O)n(C(=O)CC([NH-])=O)c2c1 (protonated)
N#CCc1ccc2cc(C(N)=O)n(C(=O)CC([NH-])=O)c2c1 (3D coordinates assigned)
N#CCc1ccc2cc(C(N)=O)n(C(=O)CC([NH-])=O)c2c1 (optimized conformer: 67.79318507510048 kcal/mol)

>  <smiles>  (54) 
N#CCc1ccc2cc(C(N)=O)n(C(=O)CC(N)=O)c2c1

>  <score_type>  (54) 
oracle

>  <origin>  (54) 
adg

>  <m_score__min__energy>  (54) 
-10.970000000000001

>  <m_primary>  (54) 
energy

$$$$
55:0
     RDKit          3D

 42 43  0  0  0  0  0  0  0  0999 V2000
   -4.2140   25.5550  -30.4970 N   0  0  0  0  0  0  0  0  0  0  0  0
   -5.4960   25.0360  -30.1350 C   0  0  0  0  0  0  0  0  0  0  0  0
   -6.2000   25.6670  -29.3030 O   0  0  0  0  0  0  0  0  0  0  0  0
   -5.9860   23.7610  -30.7010 C   0  0  0  0  0  0  0  0  0  0  0  0
   -7.3200   23.5070  -31.0170 C   0  0  0  0  0  0  0  0  0  0  0  0
   -7.3250   22.2600  -31.6020 C   0  0  0  0  0  0  0  0  0  0  0  0
   -8.3840   21.5050  -32.0950 C   0  0  0  0  0  0  0  0  0  0  0  0
   -8.0990   20.2350  -32.6220 C   0  0  0  0  0  0  0  0  0  0  0  0
   -6.7660   19.7480  -32.6630 C   0  0  0  0  0  0  0  0  0  0  0  0
   -6.4810   18.3600  -33.1780 C   0  0  0  0  0  0  0  0  0  0  0  0
   -6.1170   18.4340  -34.5090 F   0  0  0  0  0  0  0  0  0  0  0  0
   -5.4520   17.7740  -32.4600 F   0  0  0  0  0  0  0  0  0  0  0  0
   -7.6010   17.5550  -33.0600 F   0  0  0  0  0  0  0  0  0  0  0  0
   -5.7200   20.5380  -32.1310 C   0  0  0  0  0  0  0  0  0  0  0  0
   -6.0350   21.8030  -31.6230 C   0  0  0  0  0  0  0  0  0  0  0  0
   -5.2020   22.7090  -31.0710 N   0  0  0  0  0  0  0  0  0  0  0  0
   -3.7900   22.5430  -30.8670 C   0  0  0  0  0  0  0  0  0  0  0  0
   -3.0120   23.5110  -31.0880 O   0  0  0  0  0  0  0  0  0  0  0  0
   -3.2220   21.1870  -30.5440 C   0  0  0  0  0  0  0  0  0  0  0  0
   -2.9520   21.0240  -29.0470 C   0  0  0  0  0  0  0  0  0  0  0  0
   -1.4240   21.8330  -28.6070 S   0  0  0  0  0  0  0  0  0  0  0  0
   -0.9010   22.8550  -29.8360 O   0  0  0  0  0  0  0  0  0  0  0  0
   -1.5180   22.6670  -27.0260 C   0  0  0  0  0  0  0  0  0  0  0  0
   -2.2430   24.0130  -27.1120 C   0  0  0  0  0  0  0  0  0  0  0  0
   -1.2050   25.2990  -27.8870 S   0  0  0  0  0  0  0  0  0  0  0  0
   -2.1250   25.3120  -29.3400 O   0  0  0  0  0  0  0  0  0  0  0  0
   -3.6270   25.0930  -31.2240 H   0  0  0  0  0  0  0  0  0  0  0  0
   -3.8660   26.4380  -30.0610 H   0  0  0  0  0  0  0  0  0  0  0  0
   -8.1846   24.1629  -30.8373 H   0  0  0  0  0  0  0  0  0  0  0  0
   -9.4138   21.8911  -32.0727 H   0  0  0  0  0  0  0  0  0  0  0  0
   -8.9181   19.6102  -33.0076 H   0  0  0  0  0  0  0  0  0  0  0  0
   -4.6846   20.1669  -32.1171 H   0  0  0  0  0  0  0  0  0  0  0  0
   -3.9391   20.4160  -30.8621 H   0  0  0  0  0  0  0  0  0  0  0  0
   -2.2652   21.0822  -31.0766 H   0  0  0  0  0  0  0  0  0  0  0  0
   -3.7787   21.4735  -28.4773 H   0  0  0  0  0  0  0  0  0  0  0  0
   -2.8729   19.9527  -28.8103 H   0  0  0  0  0  0  0  0  0  0  0  0
   -1.7090   23.3480  -30.1220 H   0  0  0  0  0  0  0  0  0  0  0  0
   -2.0579   22.0207  -26.3184 H   0  0  0  0  0  0  0  0  0  0  0  0
   -0.4887   22.8640  -26.6917 H   0  0  0  0  0  0  0  0  0  0  0  0
   -3.1575   23.8864  -27.7100 H   0  0  0  0  0  0  0  0  0  0  0  0
   -2.4796   24.3381  -26.0881 H   0  0  0  0  0  0  0  0  0  0  0  0
   -2.4080   24.3710  -29.4660 H   0  0  0  0  0  0  0  0  0  0  0  0
  1  2  1  0
  2  3  2  0
  2  4  1  0
  4  5  2  0
  5  6  1  0
  6  7  2  0
  7  8  1  0
  8  9  2  0
  9 10  1  0
 10 11  1  0
 10 12  1  0
 10 13  1  0
  9 14  1  0
 14 15  2  0
 15 16  1  0
 16 17  1  0
 17 18  2  0
 17 19  1  0
 19 20  1  0
 20 21  1  0
 21 22  1  6
 21 23  1  0
 23 24  1  0
 24 25  1  0
 25 26  1  0
 16  4  1  0
 15  6  1  0
  1 27  1  0
  1 28  1  0
  5 29  1  0
  7 30  1  0
  8 31  1  0
 14 32  1  0
 19 33  1  0
 19 34  1  0
 20 35  1  0
 20 36  1  0
 22 37  1  0
 23 38  1  0
 23 39  1  0
 24 40  1  0
 24 41  1  0
 26 42  1  0
M  CHG  1  21   1
M  END
>  <UniqueID>  (55) 
55

>  <SMILES>  (55) 
NC(=O)c1cc2ccc(C(F)(F)F)cc2n1C(=O)CC[S@@+](O)CCSO

>  <Energy>  (55) 
70.59634223083636

>  <Genealogy>  (55) 
NC(=O)c1cc2ccc(C(F)(F)F)cc2n1C(=O)CC[S+](O)CCSO (protonated)
NC(=O)c1cc2ccc(C(F)(F)F)cc2n1C(=O)CC[S@@+](O)CCSO (chirality)
NC(=O)c1cc2ccc(C(F)(F)F)cc2n1C(=O)CC[S@@+](O)CCSO (3D coordinates assigned)
NC(=O)c1cc2ccc(C(F)(F)F)cc2n1C(=O)CC[S@@+](O)CCSO (optimized conformer: 70.59634223083636 kcal/mol)

>  <smiles>  (55) 
NC(=O)c1cc2ccc(C(F)(F)F)cc2n1C(=O)CC[S+]([O-])CCSO

>  <score_type>  (55) 
oracle

>  <origin>  (55) 
adg

>  <m_score__min__energy>  (55) 
-7.96

>  <m_primary>  (55) 
energy

$$$$
56:0
     RDKit          3D

 36 38  0  0  0  0  0  0  0  0999 V2000
   -6.1140   25.6660  -29.1620 N   0  0  0  0  0  0  0  0  0  0  0  0
   -5.5270   25.0880  -30.3270 C   0  0  0  0  0  0  0  0  0  0  0  0
   -4.5150   25.6360  -30.8420 O   0  0  0  0  0  0  0  0  0  0  0  0
   -6.0530   23.8410  -30.9160 C   0  0  0  0  0  0  0  0  0  0  0  0
   -7.4110   23.5770  -31.0770 C   0  0  0  0  0  0  0  0  0  0  0  0
   -7.4770   22.2980  -31.5790 C   0  0  0  0  0  0  0  0  0  0  0  0
   -8.5820   21.5080  -31.8760 C   0  0  0  0  0  0  0  0  0  0  0  0
   -8.3540   20.1920  -32.3140 C   0  0  0  0  0  0  0  0  0  0  0  0
   -7.0330   19.6920  -32.4510 C   0  0  0  0  0  0  0  0  0  0  0  0
   -6.8010   18.2620  -32.8650 C   0  0  0  0  0  0  0  0  0  0  0  0
   -7.9370   17.5000  -32.6470 F   0  0  0  0  0  0  0  0  0  0  0  0
   -6.4840   18.2220  -34.2090 F   0  0  0  0  0  0  0  0  0  0  0  0
   -5.7630   17.7050  -32.1390 F   0  0  0  0  0  0  0  0  0  0  0  0
   -5.9380   20.5180  -32.1070 C   0  0  0  0  0  0  0  0  0  0  0  0
   -6.1950   21.8290  -31.6970 C   0  0  0  0  0  0  0  0  0  0  0  0
   -5.3070   22.7730  -31.3140 N   0  0  0  0  0  0  0  0  0  0  0  0
   -3.9000   22.5760  -31.1020 C   0  0  0  0  0  0  0  0  0  0  0  0
   -3.1680   22.2890  -32.0880 O   0  0  0  0  0  0  0  0  0  0  0  0
   -3.2790   22.6220  -29.7220 C   0  0  2  0  0  0  0  0  0  0  0  0
   -4.2470   22.7230  -28.5750 C   0  0  0  0  0  0  0  0  0  0  0  0
   -3.4200   23.4240  -27.5180 C   0  0  0  0  0  0  0  0  0  0  0  0
   -2.4200   24.1960  -28.1450 O   0  0  0  0  0  0  0  0  0  0  0  0
   -2.3870   23.8340  -29.5080 C   0  0  0  0  0  0  0  0  0  0  0  0
   -5.7740   26.5880  -28.8070 H   0  0  0  0  0  0  0  0  0  0  0  0
   -6.7890   25.1300  -28.5770 H   0  0  0  0  0  0  0  0  0  0  0  0
   -8.2522   24.2487  -30.8507 H   0  0  0  0  0  0  0  0  0  0  0  0
   -9.6040   21.9011  -31.7713 H   0  0  0  0  0  0  0  0  0  0  0  0
   -9.2090   19.5425  -32.5532 H   0  0  0  0  0  0  0  0  0  0  0  0
   -4.9074   20.1373  -32.1609 H   0  0  0  0  0  0  0  0  0  0  0  0
   -2.7418   21.6621  -29.7125 H   0  0  0  0  0  0  0  0  0  0  0  0
   -5.1302   23.3183  -28.8499 H   0  0  0  0  0  0  0  0  0  0  0  0
   -4.6479   21.7518  -28.2492 H   0  0  0  0  0  0  0  0  0  0  0  0
   -4.0688   24.0797  -26.9188 H   0  0  0  0  0  0  0  0  0  0  0  0
   -2.9510   22.6765  -26.8612 H   0  0  0  0  0  0  0  0  0  0  0  0
   -2.7508   24.6720  -30.1207 H   0  0  0  0  0  0  0  0  0  0  0  0
   -1.3552   23.5916  -29.8024 H   0  0  0  0  0  0  0  0  0  0  0  0
  1  2  1  0
  2  3  2  0
  2  4  1  0
  4  5  2  0
  5  6  1  0
  6  7  2  0
  7  8  1  0
  8  9  2  0
  9 10  1  0
 10 11  1  0
 10 12  1  0
 10 13  1  0
  9 14  1  0
 14 15  2  0
 15 16  1  0
 16 17  1  0
 17 18  2  0
 17 19  1  0
 19 20  1  0
 20 21  1  0
 21 22  1  0
 22 23  1  0
 16  4  1  0
 23 19  1  0
 15  6  1  0
  1 24  1  0
  1 25  1  0
  5 26  1  0
  7 27  1  0
  8 28  1  0
 14 29  1  0
 19 30  1  1
 20 31  1  0
 20 32  1  0
 21 33  1  0
 21 34  1  0
 23 35  1  0
 23 36  1  0
M  END
>  <UniqueID>  (56) 
56

>  <SMILES>  (56) 
NC(=O)c1cc2ccc(C(F)(F)F)cc2n1C(=O)[C@@H]1CCOC1

>  <Energy>  (56) 
81.52909618295266

>  <Genealogy>  (56) 
NC(=O)c1cc2ccc(C(F)(F)F)cc2n1C(=O)[C@@H]1CCOC1 (chirality)
NC(=O)c1cc2ccc(C(F)(F)F)cc2n1C(=O)[C@@H]1CCOC1 (3D coordinates assigned)
NC(=O)c1cc2ccc(C(F)(F)F)cc2n1C(=O)[C@@H]1CCOC1 (nonaromatic ring conformer: 81.52909618295266 kcal/mol)

>  <smiles>  (56) 
NC(=O)c1cc2ccc(C(F)(F)F)cc2n1C(=O)C1CCOC1

>  <score_type>  (56) 
oracle

>  <origin>  (56) 
adg

>  <m_score__min__energy>  (56) 
-8.8300000000000001

>  <m_primary>  (56) 
energy

$$$$
57:0
     RDKit          3D

 51 53  0  0  0  0  0  0  0  0999 V2000
   -2.9790   25.6230  -29.3430 H   0  0  0  0  0  0  0  0  0  0  0  0
   -3.3270   24.9300  -30.0420 N   0  0  0  0  0  0  0  0  0  0  0  0
   -4.6580   25.0010  -30.5470 C   0  0  0  0  0  0  0  0  0  0  0  0
   -5.1520   26.1280  -30.8210 O   0  0  0  0  0  0  0  0  0  0  0  0
   -5.4520   23.7770  -30.7760 C   0  0  0  0  0  0  0  0  0  0  0  0
   -6.8090   23.6620  -30.4710 C   0  0  0  0  0  0  0  0  0  0  0  0
   -7.4543   24.4220  -30.0062 H   0  0  0  0  0  0  0  0  0  0  0  0
   -7.1690   22.3960  -30.8750 C   0  0  0  0  0  0  0  0  0  0  0  0
   -8.3940   21.7420  -30.7930 C   0  0  0  0  0  0  0  0  0  0  0  0
   -9.2773   22.2432  -30.3703 H   0  0  0  0  0  0  0  0  0  0  0  0
   -8.4680   20.4210  -31.2670 C   0  0  0  0  0  0  0  0  0  0  0  0
   -9.4207   19.8746  -31.2055 H   0  0  0  0  0  0  0  0  0  0  0  0
   -7.3290   19.7830  -31.8240 C   0  0  0  0  0  0  0  0  0  0  0  0
   -7.4080   18.3490  -32.2800 C   0  0  0  0  0  0  0  0  0  0  0  0
   -6.6510   17.5330  -31.4580 F   0  0  0  0  0  0  0  0  0  0  0  0
   -8.7170   17.8990  -32.2500 F   0  0  0  0  0  0  0  0  0  0  0  0
   -6.9300   18.2550  -33.5740 F   0  0  0  0  0  0  0  0  0  0  0  0
   -6.0960   20.4750  -31.8650 C   0  0  0  0  0  0  0  0  0  0  0  0
   -5.1901   19.9886  -32.2558 H   0  0  0  0  0  0  0  0  0  0  0  0
   -6.0560   21.7920  -31.3970 C   0  0  0  0  0  0  0  0  0  0  0  0
   -4.9980   22.6270  -31.3480 N   0  0  0  0  0  0  0  0  0  0  0  0
   -3.6510   22.3130  -31.7380 C   0  0  0  0  0  0  0  0  0  0  0  0
   -3.3460   22.3150  -32.9610 O   0  0  0  0  0  0  0  0  0  0  0  0
   -2.6130   21.9920  -30.7420 C   0  0  0  0  0  0  0  0  0  0  0  0
   -1.8691   22.7610  -30.4867 H   0  0  0  0  0  0  0  0  0  0  0  0
   -2.5410   20.8020  -30.1370 C   0  0  0  0  0  0  0  0  0  0  0  0
   -3.2943   20.0336  -30.3653 H   0  0  0  0  0  0  0  0  0  0  0  0
   -1.4520   20.4960  -29.1530 C   0  0  0  0  0  0  0  0  0  0  0  0
   -0.6401   21.2286  -29.2718 H   0  0  0  0  0  0  0  0  0  0  0  0
   -1.0758   19.4798  -29.3425 H   0  0  0  0  0  0  0  0  0  0  0  0
   -1.9680   20.5640  -27.7780 N   0  0  0  0  0  0  0  0  0  0  0  0
   -1.7140   21.7220  -26.9600 C   0  0  0  0  0  0  0  0  0  0  0  0
   -2.5860   22.6290  -26.8600 O   0  0  0  0  0  0  0  0  0  0  0  0
   -0.4990   21.8360  -26.2740 O   0  0  0  0  0  0  0  0  0  0  0  0
    0.5140   22.7740  -26.6270 C   0  0  0  0  0  0  0  0  0  0  0  0
    1.0561   22.4074  -27.5112 H   0  0  0  0  0  0  0  0  0  0  0  0
    1.2076   22.8877  -25.7808 H   0  0  0  0  0  0  0  0  0  0  0  0
   -0.0980   24.1060  -26.9390 C   0  0  0  0  0  0  0  0  0  0  0  0
   -0.3020   24.5610  -28.1530 O   0  0  0  0  0  0  0  0  0  0  0  0
   -0.8490   25.7460  -28.0050 C   0  0  0  0  0  0  0  0  0  0  0  0
   -1.1850   26.4840  -28.9680 O   0  0  0  0  0  0  0  0  0  0  0  0
   -1.0070   26.0770  -26.7450 O   0  0  0  0  0  0  0  0  0  0  0  0
   -0.5430   25.0660  -26.0470 C   0  0  0  0  0  0  0  0  0  0  0  0
   -0.5220   25.0030  -24.5570 C   0  0  0  0  0  0  0  0  0  0  0  0
   -0.8445   25.9704  -24.1445 H   0  0  0  0  0  0  0  0  0  0  0  0
   -1.2051   24.2120  -24.2138 H   0  0  0  0  0  0  0  0  0  0  0  0
    0.4990   24.7801  -24.2138 H   0  0  0  0  0  0  0  0  0  0  0  0
   -2.7520   19.4590  -27.2240 C   0  0  0  0  0  0  0  0  0  0  0  0
   -2.7213   19.5023  -26.1253 H   0  0  0  0  0  0  0  0  0  0  0  0
   -3.7945   19.5419  -27.5652 H   0  0  0  0  0  0  0  0  0  0  0  0
   -2.3295   18.5024  -27.5652 H   0  0  0  0  0  0  0  0  0  0  0  0
  1  2  1  0
  2  3  1  0
  3  4  2  0
  3  5  1  0
  5  6  2  0
  6  7  1  0
  6  8  1  0
  8  9  2  0
  9 10  1  0
  9 11  1  0
 11 12  1  0
 11 13  2  0
 13 14  1  0
 14 15  1  0
 14 16  1  0
 14 17  1  0
 13 18  1  0
 18 19  1  0
 18 20  2  0
 20 21  1  0
 21 22  1  0
 22 23  2  0
 22 24  1  0
 24 25  1  0
 24 26  2  0
 26 27  1  0
 26 28  1  0
 28 29  1  0
 28 30  1  0
 28 31  1  0
 31 32  1  0
 32 33  2  0
 32 34  1  0
 34 35  1  0
 35 36  1  0
 35 37  1  0
 35 38  1  0
 38 39  1  0
 39 40  1  0
 40 41  2  0
 40 42  1  0
 42 43  1  0
 43 44  1  0
 44 45  1  0
 44 46  1  0
 44 47  1  0
 31 48  1  0
 48 49  1  0
 48 50  1  0
 48 51  1  0
 21  5  1  0
 43 38  2  0
 20  8  1  0
M  CHG  1   2  -1
M  END
>  <UniqueID>  (57) 
57

>  <SMILES>  (57) 
Cc1oc(=O)oc1COC(=O)N(C)C/C=C/C(=O)n1c(C([NH-])=O)cc2ccc(C(F)(F)F)cc21

>  <Energy>  (57) 
116.70098140207205

>  <Genealogy>  (57) 
Cc1oc(=O)oc1COC(=O)N(C)CC=CC(=O)n1c(C([NH-])=O)cc2ccc(C(F)(F)F)cc21 (protonated)
Cc1oc(=O)oc1COC(=O)N(C)C/C=C/C(=O)n1c(C([NH-])=O)cc2ccc(C(F)(F)F)cc21 (cis-trans isomerization)
Cc1oc(=O)oc1COC(=O)N(C)C/C=C/C(=O)n1c(C([NH-])=O)cc2ccc(C(F)(F)F)cc21 (3D coordinates assigned)
Cc1oc(=O)oc1COC(=O)N(C)C/C=C/C(=O)n1c(C([NH-])=O)cc2ccc(C(F)(F)F)cc21 (optimized conformer: 116.70098140207205 kcal/mol)

>  <smiles>  (57) 
Cc1oc(=O)oc1COC(=O)N(C)CC=CC(=O)n1c(C(N)=O)cc2ccc(C(F)(F)F)cc21

>  <score_type>  (57) 
oracle

>  <origin>  (57) 
adg

>  <m_score__min__energy>  (57) 
-11.449999999999999

>  <m_primary>  (57) 
energy

$$$$
58:0
     RDKit          3D

 41 43  0  0  0  0  0  0  0  0999 V2000
   -3.3860   22.2170  -30.2450 C   0  0  0  0  0  0  0  0  0  0  0  0
   -4.2690   22.4370  -31.4310 C   0  0  0  0  0  0  0  0  0  0  0  0
   -3.7870   22.3240  -32.5890 O   0  0  0  0  0  0  0  0  0  0  0  0
   -5.6320   22.8550  -31.2650 N   0  0  0  0  0  0  0  0  0  0  0  0
   -6.1010   24.0830  -30.9070 C   0  0  0  0  0  0  0  0  0  0  0  0
   -5.2790   25.2240  -30.4530 C   0  0  0  0  0  0  0  0  0  0  0  0
   -3.8820   25.2750  -30.7260 N   0  0  0  0  0  0  0  0  0  0  0  0
   -5.8110   26.1490  -29.7820 O   0  0  0  0  0  0  0  0  0  0  0  0
   -7.4940   24.1060  -30.9490 C   0  0  0  0  0  0  0  0  0  0  0  0
   -7.8680   22.8380  -31.3370 C   0  0  0  0  0  0  0  0  0  0  0  0
   -9.1330   22.3040  -31.5540 C   0  0  0  0  0  0  0  0  0  0  0  0
   -9.2190   20.9680  -31.9810 C   0  0  0  0  0  0  0  0  0  0  0  0
   -8.0460   20.1960  -32.1790 C   0  0  0  0  0  0  0  0  0  0  0  0
   -8.1460   18.7850  -32.6980 C   0  0  0  0  0  0  0  0  0  0  0  0
   -7.1490   17.8510  -31.9980 C   0  0  0  0  0  0  0  0  0  0  0  0
   -6.0280   17.4390  -32.9180 C   0  0  0  0  0  0  0  0  0  0  0  0
   -5.8080   18.1170  -34.1250 C   0  0  0  0  0  0  0  0  0  0  0  0
   -4.8240   17.7110  -34.9680 N   0  0  0  0  0  0  0  0  0  0  0  0
   -4.0300   16.6450  -34.6840 C   0  0  0  0  0  0  0  0  0  0  0  0
   -4.2120   15.9220  -33.4920 C   0  0  0  0  0  0  0  0  0  0  0  0
   -3.3620   14.7550  -33.1740 C   0  0  0  0  0  0  0  0  0  0  0  0
   -3.5580   14.0870  -32.1240 O   0  0  0  0  0  0  0  0  0  0  0  0
   -2.3340   14.3790  -34.0310 O   0  0  0  0  0  0  0  0  0  0  0  0
   -5.2250   16.3310  -32.6110 C   0  0  0  0  0  0  0  0  0  0  0  0
   -6.7780   20.7760  -31.9530 C   0  0  0  0  0  0  0  0  0  0  0  0
   -6.7250   22.1040  -31.5190 C   0  0  0  0  0  0  0  0  0  0  0  0
   -3.9678   22.3620  -29.3228 H   0  0  0  0  0  0  0  0  0  0  0  0
   -2.9874   21.1921  -30.2698 H   0  0  0  0  0  0  0  0  0  0  0  0
   -2.5531   22.9351  -30.2698 H   0  0  0  0  0  0  0  0  0  0  0  0
   -3.4720   26.0520  -31.2910 H   0  0  0  0  0  0  0  0  0  0  0  0
   -8.1543   24.9557  -30.7209 H   0  0  0  0  0  0  0  0  0  0  0  0
  -10.0384   22.9084  -31.3964 H   0  0  0  0  0  0  0  0  0  0  0  0
  -10.2055   20.5167  -32.1634 H   0  0  0  0  0  0  0  0  0  0  0  0
   -9.1662   18.4125  -32.5238 H   0  0  0  0  0  0  0  0  0  0  0  0
   -7.9089   18.7969  -33.7721 H   0  0  0  0  0  0  0  0  0  0  0  0
   -6.7226   18.3725  -31.1284 H   0  0  0  0  0  0  0  0  0  0  0  0
   -7.6890   16.9438  -31.6890 H   0  0  0  0  0  0  0  0  0  0  0  0
   -6.4348   18.9811  -34.3902 H   0  0  0  0  0  0  0  0  0  0  0  0
   -3.2412   16.3465  -35.3902 H   0  0  0  0  0  0  0  0  0  0  0  0
   -5.3901   15.7791  -31.6739 H   0  0  0  0  0  0  0  0  0  0  0  0
   -5.8562   20.1978  -32.1143 H   0  0  0  0  0  0  0  0  0  0  0  0
  1  2  1  0
  2  3  2  0
  2  4  1  0
  4  5  1  0
  5  6  1  0
  6  7  1  0
  6  8  2  0
  5  9  2  0
  9 10  1  0
 10 11  2  0
 11 12  1  0
 12 13  2  0
 13 14  1  0
 14 15  1  0
 15 16  1  0
 16 17  2  0
 17 18  1  0
 18 19  2  0
 19 20  1  0
 20 21  1  0
 21 22  2  0
 21 23  1  0
 20 24  2  0
 13 25  1  0
 25 26  2  0
 26  4  1  0
 26 10  1  0
 24 16  1  0
  1 27  1  0
  1 28  1  0
  1 29  1  0
  7 30  1  0
  9 31  1  0
 11 32  1  0
 12 33  1  0
 14 34  1  0
 14 35  1  0
 15 36  1  0
 15 37  1  0
 17 38  1  0
 19 39  1  0
 24 40  1  0
 25 41  1  0
M  CHG  2   7  -1  23  -1
M  END
>  <UniqueID>  (58) 
58

>  <SMILES>  (58) 
CC(=O)n1c(C([NH-])=O)cc2ccc(CCc3cncc(C(=O)[O-])c3)cc21

>  <Energy>  (58) 
79.99048795864547

>  <Genealogy>  (58) 
CC(=O)n1c(C([NH-])=O)cc2ccc(CCc3cncc(C(=O)[O-])c3)cc21 (protonated)
CC(=O)n1c(C([NH-])=O)cc2ccc(CCc3cncc(C(=O)[O-])c3)cc21 (3D coordinates assigned)
CC(=O)n1c(C([NH-])=O)cc2ccc(CCc3cncc(C(=O)[O-])c3)cc21 (optimized conformer: 79.99048795864547 kcal/mol)

>  <smiles>  (58) 
CC(=O)n1c(C(N)=O)cc2ccc(CCc3cncc(C(=O)O)c3)cc21

>  <score_type>  (58) 
oracle

>  <origin>  (58) 
adg

>  <m_score__min__energy>  (58) 
-11.59

>  <m_primary>  (58) 
energy

$$$$
59:0
     RDKit          3D

 46 48  0  0  0  0  0  0  0  0999 V2000
   -4.1970   24.4240  -27.1080 C   0  0  0  0  0  0  0  0  0  0  0  0
   -2.7720   24.9130  -27.3190 C   0  0  0  0  0  0  0  0  0  0  0  0
   -2.3710   24.6440  -28.6580 O   0  0  0  0  0  0  0  0  0  0  0  0
   -1.3210   23.7740  -28.9710 C   0  0  0  0  0  0  0  0  0  0  0  0
   -0.1440   24.2090  -29.0920 O   0  0  0  0  0  0  0  0  0  0  0  0
   -1.6020   22.3180  -29.1960 C   0  0  0  0  0  0  0  0  0  0  0  0
   -3.0910   22.0480  -29.4410 C   0  0  0  0  0  0  0  0  0  0  0  0
   -3.5680   22.6770  -30.7230 C   0  0  0  0  0  0  0  0  0  0  0  0
   -2.7260   23.0490  -31.5820 O   0  0  0  0  0  0  0  0  0  0  0  0
   -4.9710   22.8010  -31.0040 N   0  0  0  0  0  0  0  0  0  0  0  0
   -5.7470   23.9140  -30.8690 C   0  0  0  0  0  0  0  0  0  0  0  0
   -5.2780   25.2470  -30.4330 C   0  0  0  0  0  0  0  0  0  0  0  0
   -3.9560   25.6740  -30.7550 N   0  0  0  0  0  0  0  0  0  0  0  0
   -6.0250   26.0060  -29.7600 O   0  0  0  0  0  0  0  0  0  0  0  0
   -7.0590   23.6430  -31.2530 C   0  0  0  0  0  0  0  0  0  0  0  0
   -7.0640   22.3190  -31.6250 C   0  0  0  0  0  0  0  0  0  0  0  0
   -8.1060   21.5220  -32.0860 C   0  0  0  0  0  0  0  0  0  0  0  0
   -7.8290   20.1760  -32.3760 C   0  0  0  0  0  0  0  0  0  0  0  0
   -6.5240   19.6470  -32.1900 C   0  0  0  0  0  0  0  0  0  0  0  0
   -6.2410   18.2220  -32.4960 C   0  0  0  0  0  0  0  0  0  0  0  0
   -6.3230   17.7390  -33.8120 C   0  0  0  0  0  0  0  0  0  0  0  0
   -6.0580   16.3970  -34.0830 C   0  0  0  0  0  0  0  0  0  0  0  0
   -5.7070   15.5440  -33.0360 C   0  0  0  0  0  0  0  0  0  0  0  0
   -5.6290   16.0190  -31.7630 N   0  0  0  0  0  0  0  0  0  0  0  0
   -5.8850   17.3240  -31.4740 C   0  0  0  0  0  0  0  0  0  0  0  0
   -5.4950   20.4900  -31.7120 C   0  0  0  0  0  0  0  0  0  0  0  0
   -5.7940   21.8320  -31.4600 C   0  0  0  0  0  0  0  0  0  0  0  0
   -4.4044   24.3528  -26.0301 H   0  0  0  0  0  0  0  0  0  0  0  0
   -4.9000   25.1323  -27.5707 H   0  0  0  0  0  0  0  0  0  0  0  0
   -4.3170   23.4333  -27.5707 H   0  0  0  0  0  0  0  0  0  0  0  0
   -2.7247   25.9961  -27.1327 H   0  0  0  0  0  0  0  0  0  0  0  0
   -2.0987   24.3913  -26.6230 H   0  0  0  0  0  0  0  0  0  0  0  0
   -1.0312   21.9782  -30.0727 H   0  0  0  0  0  0  0  0  0  0  0  0
   -1.3040   21.7719  -28.2888 H   0  0  0  0  0  0  0  0  0  0  0  0
   -3.2518   20.9612  -29.4959 H   0  0  0  0  0  0  0  0  0  0  0  0
   -3.6606   22.4896  -28.6100 H   0  0  0  0  0  0  0  0  0  0  0  0
   -3.1420   25.0270  -30.6470 H   0  0  0  0  0  0  0  0  0  0  0  0
   -7.9099   24.3401  -31.2576 H   0  0  0  0  0  0  0  0  0  0  0  0
   -9.1173   21.9335  -32.2196 H   0  0  0  0  0  0  0  0  0  0  0  0
   -8.6317   19.5242  -32.7514 H   0  0  0  0  0  0  0  0  0  0  0  0
   -6.5968   18.4206  -34.6308 H   0  0  0  0  0  0  0  0  0  0  0  0
   -6.1250   16.0146  -35.1122 H   0  0  0  0  0  0  0  0  0  0  0  0
   -5.4927   14.4846  -33.2401 H   0  0  0  0  0  0  0  0  0  0  0  0
   -5.3650   15.3670  -30.9910 H   0  0  0  0  0  0  0  0  0  0  0  0
   -5.8130   17.6784  -30.4351 H   0  0  0  0  0  0  0  0  0  0  0  0
   -4.4812   20.0985  -31.5421 H   0  0  0  0  0  0  0  0  0  0  0  0
  1  2  1  0
  2  3  1  0
  3  4  1  0
  4  5  2  0
  4  6  1  0
  6  7  1  0
  7  8  1  0
  8  9  2  0
  8 10  1  0
 10 11  1  0
 11 12  1  0
 12 13  1  0
 12 14  2  0
 11 15  2  0
 15 16  1  0
 16 17  2  0
 17 18  1  0
 18 19  2  0
 19 20  1  0
 20 21  2  0
 21 22  1  0
 22 23  2  0
 23 24  1  0
 24 25  2  0
 19 26  1  0
 26 27  2  0
 27 10  1  0
 27 16  1  0
 25 20  1  0
  1 28  1  0
  1 29  1  0
  1 30  1  0
  2 31  1  0
  2 32  1  0
  6 33  1  0
  6 34  1  0
  7 35  1  0
  7 36  1  0
 13 37  1  0
 15 38  1  0
 17 39  1  0
 18 40  1  0
 21 41  1  0
 22 42  1  0
 23 43  1  0
 24 44  1  0
 25 45  1  0
 26 46  1  0
M  CHG  2  13  -1  24   1
M  END
>  <UniqueID>  (59) 
59

>  <SMILES>  (59) 
CCOC(=O)CCC(=O)n1c(C([NH-])=O)cc2ccc(-c3ccc[nH+]c3)cc21

>  <Energy>  (59) 
80.34558890037756

>  <Genealogy>  (59) 
CCOC(=O)CCC(=O)n1c(C([NH-])=O)cc2ccc(-c3ccc[nH+]c3)cc21 (protonated)
CCOC(=O)CCC(=O)n1c(C([NH-])=O)cc2ccc(-c3ccc[nH+]c3)cc21 (3D coordinates assigned)
CCOC(=O)CCC(=O)n1c(C([NH-])=O)cc2ccc(-c3ccc[nH+]c3)cc21 (optimized conformer: 80.34558890037756 kcal/mol)

>  <smiles>  (59) 
CCOC(=O)CCC(=O)n1c(C(N)=O)cc2ccc(-c3cccnc3)cc21

>  <score_type>  (59) 
oracle

>  <origin>  (59) 
adg

>  <m_score__min__energy>  (59) 
-10.84

>  <m_primary>  (59) 
energy

$$$$
60:0
     RDKit          3D

 39 40  0  0  0  0  0  0  0  0999 V2000
   -3.7550   24.8800  -26.6470 C   0  0  0  0  0  0  0  0  0  0  0  0
   -4.2120   23.8500  -27.6740 C   0  0  0  0  0  0  0  0  0  0  0  0
   -3.1710   23.5770  -28.6090 O   0  0  0  0  0  0  0  0  0  0  0  0
   -3.2280   22.5400  -29.5490 C   0  0  0  0  0  0  0  0  0  0  0  0
   -3.5500   21.3730  -29.1880 O   0  0  0  0  0  0  0  0  0  0  0  0
   -2.9110   22.8190  -30.9290 N   0  0  1  0  0  0  0  0  0  0  0  0
   -1.7550   22.0250  -31.3650 C   0  0  0  0  0  0  0  0  0  0  0  0
   -4.0420   22.5610  -31.7910 C   0  0  0  0  0  0  0  0  0  0  0  0
   -3.8680   22.2270  -32.9970 O   0  0  0  0  0  0  0  0  0  0  0  0
   -5.3730   22.8350  -31.3290 N   0  0  0  0  0  0  0  0  0  0  0  0
   -5.8810   24.0180  -30.8860 C   0  0  0  0  0  0  0  0  0  0  0  0
   -5.1060   25.2480  -30.6280 C   0  0  0  0  0  0  0  0  0  0  0  0
   -3.6970   25.2780  -30.8330 N   0  0  0  0  0  0  0  0  0  0  0  0
   -5.6880   26.2730  -30.1870 O   0  0  0  0  0  0  0  0  0  0  0  0
   -7.2470   23.8970  -30.6380 C   0  0  0  0  0  0  0  0  0  0  0  0
   -7.5600   22.5900  -30.9430 C   0  0  0  0  0  0  0  0  0  0  0  0
   -8.7760   21.9190  -30.8820 C   0  0  0  0  0  0  0  0  0  0  0  0
   -8.8040   20.5700  -31.2770 C   0  0  0  0  0  0  0  0  0  0  0  0
   -7.6290   19.9250  -31.7450 C   0  0  0  0  0  0  0  0  0  0  0  0
   -7.6650   18.4670  -32.1260 C   0  0  0  0  0  0  0  0  0  0  0  0
   -8.9460   17.9580  -31.9910 F   0  0  0  0  0  0  0  0  0  0  0  0
   -6.8200   17.7280  -31.3150 F   0  0  0  0  0  0  0  0  0  0  0  0
   -7.2620   18.3290  -33.4400 F   0  0  0  0  0  0  0  0  0  0  0  0
   -6.4070   20.6360  -31.7680 C   0  0  0  0  0  0  0  0  0  0  0  0
   -6.4090   21.9730  -31.3580 C   0  0  0  0  0  0  0  0  0  0  0  0
   -3.9284   24.4891  -25.6335 H   0  0  0  0  0  0  0  0  0  0  0  0
   -2.6825   25.0827  -26.7833 H   0  0  0  0  0  0  0  0  0  0  0  0
   -4.3244   25.8112  -26.7833 H   0  0  0  0  0  0  0  0  0  0  0  0
   -4.4853   22.9192  -27.1554 H   0  0  0  0  0  0  0  0  0  0  0  0
   -5.0799   24.2521  -28.2173 H   0  0  0  0  0  0  0  0  0  0  0  0
   -2.6510   23.8300  -31.0080 H   0  0  0  0  0  0  0  0  0  0  0  0
   -1.2126   21.6525  -30.4835 H   0  0  0  0  0  0  0  0  0  0  0  0
   -2.1018   21.1736  -31.9690 H   0  0  0  0  0  0  0  0  0  0  0  0
   -1.0848   22.6543  -31.9690 H   0  0  0  0  0  0  0  0  0  0  0  0
   -3.0350   25.2680  -30.0250 H   0  0  0  0  0  0  0  0  0  0  0  0
   -7.9305   24.6790  -30.2756 H   0  0  0  0  0  0  0  0  0  0  0  0
   -9.6877   22.4276  -30.5355 H   0  0  0  0  0  0  0  0  0  0  0  0
   -9.7477   20.0075  -31.2228 H   0  0  0  0  0  0  0  0  0  0  0  0
   -5.4780   20.1496  -32.1001 H   0  0  0  0  0  0  0  0  0  0  0  0
  1  2  1  0
  2  3  1  0
  3  4  1  0
  4  5  2  0
  4  6  1  0
  6  7  1  0
  6  8  1  0
  8  9  2  0
  8 10  1  0
 10 11  1  0
 11 12  1  0
 12 13  1  0
 12 14  2  0
 11 15  2  0
 15 16  1  0
 16 17  2  0
 17 18  1  0
 18 19  2  0
 19 20  1  0
 20 21  1  0
 20 22  1  0
 20 23  1  0
 19 24  1  0
 24 25  2  0
 25 10  1  0
 25 16  1  0
  1 26  1  0
  1 27  1  0
  1 28  1  0
  2 29  1  0
  2 30  1  0
  6 31  1  1
  7 32  1  0
  7 33  1  0
  7 34  1  0
 13 35  1  0
 15 36  1  0
 17 37  1  0
 18 38  1  0
 24 39  1  0
M  CHG  2   6   1  13  -1
M  END
>  <UniqueID>  (60) 
60

>  <SMILES>  (60) 
CCOC(=O)[NH+](C)C(=O)n1c(C([NH-])=O)cc2ccc(C(F)(F)F)cc21

>  <Energy>  (60) 
77.88529856789063

>  <Genealogy>  (60) 
CCOC(=O)[NH+](C)C(=O)n1c(C([NH-])=O)cc2ccc(C(F)(F)F)cc21 (protonated)
CCOC(=O)[NH+](C)C(=O)n1c(C([NH-])=O)cc2ccc(C(F)(F)F)cc21 (3D coordinates assigned)
CCOC(=O)[NH+](C)C(=O)n1c(C([NH-])=O)cc2ccc(C(F)(F)F)cc21 (optimized conformer: 77.88529856789063 kcal/mol)

>  <smiles>  (60) 
CCOC(=O)N(C)C(=O)n1c(C(N)=O)cc2ccc(C(F)(F)F)cc21

>  <score_type>  (60) 
oracle

>  <origin>  (60) 
adg

>  <m_score__min__energy>  (60) 
-8.7200000000000006

>  <m_primary>  (60) 
energy

$$$$
61:0
     RDKit          3D

 40 41  0  0  0  0  0  0  0  0999 V2000
   -6.4750   17.5690  -31.6910 C   0  0  0  0  0  0  0  0  0  0  0  0
   -6.9070   18.4760  -32.8390 C   0  0  0  0  0  0  0  0  0  0  0  0
   -7.0850   19.8900  -32.3570 C   0  0  0  0  0  0  0  0  0  0  0  0
   -8.3710   20.4850  -32.3610 C   0  0  0  0  0  0  0  0  0  0  0  0
   -8.5430   21.8240  -31.9720 C   0  0  0  0  0  0  0  0  0  0  0  0
   -7.4120   22.5450  -31.6040 C   0  0  0  0  0  0  0  0  0  0  0  0
   -7.2860   23.8520  -31.1840 C   0  0  0  0  0  0  0  0  0  0  0  0
   -5.9250   24.0340  -30.9490 C   0  0  0  0  0  0  0  0  0  0  0  0
   -5.3330   25.2990  -30.4650 C   0  0  0  0  0  0  0  0  0  0  0  0
   -4.0120   25.6630  -30.8620 N   0  0  0  0  0  0  0  0  0  0  0  0
   -5.9790   26.0640  -29.7010 O   0  0  0  0  0  0  0  0  0  0  0  0
   -5.2350   22.8940  -31.2330 N   0  0  0  0  0  0  0  0  0  0  0  0
   -3.8270   22.6620  -31.0740 C   0  0  0  0  0  0  0  0  0  0  0  0
   -3.1140   22.5390  -32.1070 O   0  0  0  0  0  0  0  0  0  0  0  0
   -3.2190   22.5650  -29.7650 N   0  0  0  0  0  0  0  0  0  0  0  0
   -4.0850   22.3560  -28.5990 C   0  0  0  0  0  0  0  0  0  0  0  0
   -1.7680   22.7070  -29.5550 C   0  0  0  0  0  0  0  0  0  0  0  0
   -1.4570   23.5290  -28.2970 C   0  0  0  0  0  0  0  0  0  0  0  0
   -0.9220   24.8840  -28.6380 C   0  0  0  0  0  0  0  0  0  0  0  0
   -1.6000   25.6740  -29.3460 O   0  0  0  0  0  0  0  0  0  0  0  0
    0.3380   25.2690  -28.1930 O   0  0  0  0  0  0  0  0  0  0  0  0
   -6.1590   21.9860  -31.6100 C   0  0  0  0  0  0  0  0  0  0  0  0
   -5.9590   20.6520  -31.9750 C   0  0  0  0  0  0  0  0  0  0  0  0
   -6.7068   18.0556  -30.7321 H   0  0  0  0  0  0  0  0  0  0  0  0
   -7.0142   16.6125  -31.7566 H   0  0  0  0  0  0  0  0  0  0  0  0
   -5.3925   17.3849  -31.7566 H   0  0  0  0  0  0  0  0  0  0  0  0
   -6.1377   18.4559  -33.6250 H   0  0  0  0  0  0  0  0  0  0  0  0
   -7.8662   18.1130  -33.2367 H   0  0  0  0  0  0  0  0  0  0  0  0
   -9.2439   19.8922  -32.6720 H   0  0  0  0  0  0  0  0  0  0  0  0
   -9.5405   22.2874  -31.9589 H   0  0  0  0  0  0  0  0  0  0  0  0
   -8.0892   24.5934  -31.0607 H   0  0  0  0  0  0  0  0  0  0  0  0
   -3.1790   25.2850  -30.3620 H   0  0  0  0  0  0  0  0  0  0  0  0
   -3.5003   22.4971  -27.6780 H   0  0  0  0  0  0  0  0  0  0  0  0
   -4.9126   23.0802  -28.6225 H   0  0  0  0  0  0  0  0  0  0  0  0
   -4.4912   21.3340  -28.6225 H   0  0  0  0  0  0  0  0  0  0  0  0
   -1.3234   21.7067  -29.4467 H   0  0  0  0  0  0  0  0  0  0  0  0
   -1.3446   23.2333  -30.4232 H   0  0  0  0  0  0  0  0  0  0  0  0
   -2.3807   23.6477  -27.7116 H   0  0  0  0  0  0  0  0  0  0  0  0
   -0.6894   22.9934  -27.7192 H   0  0  0  0  0  0  0  0  0  0  0  0
   -4.9527   20.2079  -31.9651 H   0  0  0  0  0  0  0  0  0  0  0  0
  1  2  1  0
  2  3  1  0
  3  4  2  0
  4  5  1  0
  5  6  2  0
  6  7  1  0
  7  8  2  0
  8  9  1  0
  9 10  1  0
  9 11  2  0
  8 12  1  0
 12 13  1  0
 13 14  2  0
 13 15  1  0
 15 16  1  0
 15 17  1  0
 17 18  1  0
 18 19  1  0
 19 20  2  0
 19 21  1  0
 12 22  1  0
 22 23  2  0
 23  3  1  0
 22  6  1  0
  1 24  1  0
  1 25  1  0
  1 26  1  0
  2 27  1  0
  2 28  1  0
  4 29  1  0
  5 30  1  0
  7 31  1  0
 10 32  1  0
 16 33  1  0
 16 34  1  0
 16 35  1  0
 17 36  1  0
 17 37  1  0
 18 38  1  0
 18 39  1  0
 23 40  1  0
M  CHG  2  10  -1  21  -1
M  END
>  <UniqueID>  (61) 
61

>  <SMILES>  (61) 
CCc1ccc2cc(C([NH-])=O)n(C(=O)N(C)CCC(=O)[O-])c2c1

>  <Energy>  (61) 
71.16477863435108

>  <Genealogy>  (61) 
CCc1ccc2cc(C([NH-])=O)n(C(=O)N(C)CCC(=O)[O-])c2c1 (protonated)
CCc1ccc2cc(C([NH-])=O)n(C(=O)N(C)CCC(=O)[O-])c2c1 (3D coordinates assigned)
CCc1ccc2cc(C([NH-])=O)n(C(=O)N(C)CCC(=O)[O-])c2c1 (optimized conformer: 71.16477863435108 kcal/mol)

>  <smiles>  (61) 
CCc1ccc2cc(C(N)=O)n(C(=O)N(C)CCC(=O)O)c2c1

>  <score_type>  (61) 
oracle

>  <origin>  (61) 
adg

>  <m_score__min__energy>  (61) 
-12.6

>  <m_primary>  (61) 
energy

$$$$
62:0
     RDKit          3D

 39 41  0  0  0  0  0  0  0  0999 V2000
   -3.0680   17.1230  -34.4740 C   0  0  0  0  0  0  0  0  0  0  0  0
   -4.1260   16.5240  -35.2920 N   0  0  0  0  0  0  0  0  0  0  0  0
   -5.4450   17.0960  -34.9680 C   0  0  1  0  0  0  0  0  0  0  0  0
   -6.1740   16.3450  -33.8460 C   0  0  0  0  0  0  0  0  0  0  0  0
   -6.9420   17.4130  -33.0790 C   0  0  0  0  0  0  0  0  0  0  0  0
   -6.3100   18.6800  -33.4180 N   0  0  0  0  0  0  0  0  0  0  0  0
   -6.6350   19.9390  -32.7830 C   0  0  0  0  0  0  0  0  0  0  0  0
   -7.9910   20.3090  -32.5630 C   0  0  0  0  0  0  0  0  0  0  0  0
   -8.3170   21.5230  -31.9380 C   0  0  0  0  0  0  0  0  0  0  0  0
   -7.2770   22.3580  -31.5490 C   0  0  0  0  0  0  0  0  0  0  0  0
   -7.3090   23.5720  -30.9010 C   0  0  0  0  0  0  0  0  0  0  0  0
   -5.9760   23.9460  -30.7560 C   0  0  0  0  0  0  0  0  0  0  0  0
   -5.5530   25.2360  -30.1760 C   0  0  0  0  0  0  0  0  0  0  0  0
   -6.1540   25.7430  -28.9830 N   0  0  0  0  0  0  0  0  0  0  0  0
   -4.6090   25.8760  -30.7110 O   0  0  0  0  0  0  0  0  0  0  0  0
   -5.1510   22.9970  -31.2780 N   0  0  0  0  0  0  0  0  0  0  0  0
   -3.7170   22.9470  -31.2190 C   0  0  0  0  0  0  0  0  0  0  0  0
   -3.0680   22.3310  -32.1060 O   0  0  0  0  0  0  0  0  0  0  0  0
   -2.8230   23.7090  -29.8490 S   0  0  0  0  0  0  0  0  0  0  0  0
   -5.9640   22.0330  -31.7650 C   0  0  0  0  0  0  0  0  0  0  0  0
   -5.6070   20.8220  -32.3670 C   0  0  0  0  0  0  0  0  0  0  0  0
   -5.3080   18.5310  -34.4650 C   0  0  0  0  0  0  0  0  0  0  0  0
   -3.3071   16.9877  -33.4089 H   0  0  0  0  0  0  0  0  0  0  0  0
   -2.1089   16.6339  -34.6995 H   0  0  0  0  0  0  0  0  0  0  0  0
   -2.9939   18.1971  -34.6995 H   0  0  0  0  0  0  0  0  0  0  0  0
   -3.9000   16.6950  -36.3000 H   0  0  0  0  0  0  0  0  0  0  0  0
   -6.0140   17.0264  -35.9068 H   0  0  0  0  0  0  0  0  0  0  0  0
   -6.8660   15.6008  -34.2671 H   0  0  0  0  0  0  0  0  0  0  0  0
   -5.4741   15.7982  -33.1970 H   0  0  0  0  0  0  0  0  0  0  0  0
   -7.9986   17.4185  -33.3850 H   0  0  0  0  0  0  0  0  0  0  0  0
   -6.9184   17.2272  -31.9951 H   0  0  0  0  0  0  0  0  0  0  0  0
   -8.7962   19.6335  -32.8876 H   0  0  0  0  0  0  0  0  0  0  0  0
   -9.3655   21.8050  -31.7614 H   0  0  0  0  0  0  0  0  0  0  0  0
   -8.1981   24.1279  -30.5687 H   0  0  0  0  0  0  0  0  0  0  0  0
   -6.8220   25.1660  -28.4280 H   0  0  0  0  0  0  0  0  0  0  0  0
   -5.8680   26.6750  -28.6090 H   0  0  0  0  0  0  0  0  0  0  0  0
   -4.5490   20.5599  -32.5148 H   0  0  0  0  0  0  0  0  0  0  0  0
   -5.4979   19.2432  -35.2815 H   0  0  0  0  0  0  0  0  0  0  0  0
   -4.2946   18.7338  -34.0884 H   0  0  0  0  0  0  0  0  0  0  0  0
  1  2  1  0
  2  3  1  0
  3  4  1  0
  4  5  1  0
  5  6  1  0
  6  7  1  0
  7  8  2  0
  8  9  1  0
  9 10  2  0
 10 11  1  0
 11 12  2  0
 12 13  1  0
 13 14  1  0
 13 15  2  0
 12 16  1  0
 16 17  1  0
 17 18  2  0
 17 19  1  0
 16 20  1  0
 20 21  2  0
  6 22  1  0
 22  3  1  0
 21  7  1  0
 20 10  1  0
  1 23  1  0
  1 24  1  0
  1 25  1  0
  2 26  1  0
  3 27  1  6
  4 28  1  0
  4 29  1  0
  5 30  1  0
  5 31  1  0
  8 32  1  0
  9 33  1  0
 11 34  1  0
 14 35  1  0
 14 36  1  0
 21 37  1  0
 22 38  1  0
 22 39  1  0
M  CHG  1  19  -1
M  END
>  <UniqueID>  (62) 
62

>  <SMILES>  (62) 
CN[C@H]1CCN(c2ccc3cc(C(N)=O)n(C(=O)[S-])c3c2)C1

>  <Energy>  (62) 
82.9833181763405

>  <Genealogy>  (62) 
CNC1CCN(c2ccc3cc(C(N)=O)n(C(=O)[S-])c3c2)C1 (protonated)
CN[C@H]1CCN(c2ccc3cc(C(N)=O)n(C(=O)[S-])c3c2)C1 (chirality)
CN[C@H]1CCN(c2ccc3cc(C(N)=O)n(C(=O)[S-])c3c2)C1 (3D coordinates assigned)
CN[C@H]1CCN(c2ccc3cc(C(N)=O)n(C(=O)[S-])c3c2)C1 (nonaromatic ring conformer: 82.9833181763405 kcal/mol)

>  <smiles>  (62) 
CNC1CCN(c2ccc3cc(C(N)=O)n(C(=O)S)c3c2)C1

>  <score_type>  (62) 
oracle

>  <origin>  (62) 
adg

>  <m_score__min__energy>  (62) 
-9.3599999999999994

>  <m_primary>  (62) 
energy

$$$$
63:0
     RDKit          3D

 43 45  0  0  0  0  0  0  0  0999 V2000
   -1.5750   26.1340  -28.6180 N   0  0  0  0  0  0  0  0  0  0  0  0
   -0.7490   24.9730  -28.5890 C   0  0  0  0  0  0  0  0  0  0  0  0
    0.2600   24.9550  -27.8340 O   0  0  0  0  0  0  0  0  0  0  0  0
   -1.0900   23.7750  -29.3840 C   0  0  0  0  0  0  0  0  0  0  0  0
   -0.1720   22.7690  -29.6820 C   0  0  0  0  0  0  0  0  0  0  0  0
   -0.8910   21.8050  -30.3500 C   0  0  0  0  0  0  0  0  0  0  0  0
   -0.4750   20.5900  -30.8880 C   0  0  0  0  0  0  0  0  0  0  0  0
   -1.4300   19.8040  -31.5540 C   0  0  0  0  0  0  0  0  0  0  0  0
   -2.7670   20.2490  -31.6730 C   0  0  0  0  0  0  0  0  0  0  0  0
   -3.7330   19.4390  -32.3670 C   0  0  0  0  0  0  0  0  0  0  0  0
   -4.5390   18.7580  -32.9480 C   0  0  0  0  0  0  0  0  0  0  0  0
   -5.5300   17.9330  -33.6580 C   0  0  0  0  0  0  0  0  0  0  0  0
   -6.9070   18.4390  -33.4560 N   0  0  2  0  0  0  0  0  0  0  0  0
   -6.8660   19.8720  -33.0940 C   0  0  0  0  0  0  0  0  0  0  0  0
   -8.2790   20.4960  -33.0860 C   0  0  0  0  0  0  0  0  0  0  0  0
   -9.3770   19.4710  -32.7600 C   0  0  0  0  0  0  0  0  0  0  0  0
   -8.8480   18.3840  -31.8140 C   0  0  1  0  0  0  0  0  0  0  0  0
   -9.8660   17.4800  -31.4660 O   0  0  0  0  0  0  0  0  0  0  0  0
   -7.6270   17.6440  -32.4210 C   0  0  0  0  0  0  0  0  0  0  0  0
   -3.1570   21.4840  -31.1160 C   0  0  0  0  0  0  0  0  0  0  0  0
   -2.1900   22.2400  -30.4420 C   0  0  0  0  0  0  0  0  0  0  0  0
   -2.3270   23.4510  -29.8570 N   0  0  0  0  0  0  0  0  0  0  0  0
   -3.5200   24.2520  -29.8320 C   0  0  0  0  0  0  0  0  0  0  0  0
   -3.6190   25.2660  -30.5720 O   0  0  0  0  0  0  0  0  0  0  0  0
   -4.5850   23.9000  -29.0140 O   0  0  0  0  0  0  0  0  0  0  0  0
   -2.5710   26.0770  -28.9260 H   0  0  0  0  0  0  0  0  0  0  0  0
    0.8998   22.7501  -29.4353 H   0  0  0  0  0  0  0  0  0  0  0  0
    0.5689   20.2560  -30.7944 H   0  0  0  0  0  0  0  0  0  0  0  0
   -1.1359   18.8360  -31.9858 H   0  0  0  0  0  0  0  0  0  0  0  0
   -5.2996   17.9452  -34.7335 H   0  0  0  0  0  0  0  0  0  0  0  0
   -5.4772   16.9104  -33.2560 H   0  0  0  0  0  0  0  0  0  0  0  0
   -7.4190   18.3500  -34.3690 H   0  0  0  0  0  0  0  0  0  0  0  0
   -6.4245   19.9747  -32.0917 H   0  0  0  0  0  0  0  0  0  0  0  0
   -6.2605   20.4000  -33.8454 H   0  0  0  0  0  0  0  0  0  0  0  0
   -8.3070   21.2945  -32.3300 H   0  0  0  0  0  0  0  0  0  0  0  0
   -8.4765   20.8854  -34.0956 H   0  0  0  0  0  0  0  0  0  0  0  0
  -10.2207   19.9876  -32.2790 H   0  0  0  0  0  0  0  0  0  0  0  0
   -9.7020   18.9942  -33.6965 H   0  0  0  0  0  0  0  0  0  0  0  0
   -8.5068   18.8826  -30.8948 H   0  0  0  0  0  0  0  0  0  0  0  0
  -10.2320   17.7640  -30.5870 H   0  0  0  0  0  0  0  0  0  0  0  0
   -6.9227   17.4094  -31.6093 H   0  0  0  0  0  0  0  0  0  0  0  0
   -8.0091   16.7385  -32.9150 H   0  0  0  0  0  0  0  0  0  0  0  0
   -4.1924   21.8438  -31.2083 H   0  0  0  0  0  0  0  0  0  0  0  0
  1  2  1  0
  2  3  2  0
  2  4  1  0
  4  5  2  0
  5  6  1  0
  6  7  2  0
  7  8  1  0
  8  9  2  0
  9 10  1  0
 10 11  3  0
 11 12  1  0
 12 13  1  0
 13 14  1  0
 14 15  1  0
 15 16  1  0
 16 17  1  0
 17 18  1  0
 17 19  1  0
  9 20  1  0
 20 21  2  0
 21 22  1  0
 22 23  1  0
 23 24  2  0
 23 25  1  0
 22  4  1  0
 21  6  1  0
 19 13  1  0
  1 26  1  0
  5 27  1  0
  7 28  1  0
  8 29  1  0
 12 30  1  0
 12 31  1  0
 13 32  1  6
 14 33  1  0
 14 34  1  0
 15 35  1  0
 15 36  1  0
 16 37  1  0
 16 38  1  0
 17 39  1  1
 18 40  1  0
 19 41  1  0
 19 42  1  0
 20 43  1  0
M  CHG  3   1  -1  13   1  25  -1
M  END
>  <UniqueID>  (63) 
63

>  <SMILES>  (63) 
[NH-]C(=O)c1cc2ccc(C#CC[N@@H+]3CCC[C@@H](O)C3)cc2n1C(=O)[O-]

>  <Energy>  (63) 
87.87411036744379

>  <Genealogy>  (63) 
[NH-]C(=O)c1cc2ccc(C#CC[NH+]3CCCC(O)C3)cc2n1C(=O)[O-] (protonated)
[NH-]C(=O)c1cc2ccc(C#CC[N@@H+]3CCC[C@@H](O)C3)cc2n1C(=O)[O-] (chirality)
[NH-]C(=O)c1cc2ccc(C#CC[N@@H+]3CCC[C@@H](O)C3)cc2n1C(=O)[O-] (3D coordinates assigned)
[NH-]C(=O)c1cc2ccc(C#CC[N@@H+]3CCC[C@@H](O)C3)cc2n1C(=O)[O-] (nonaromatic ring conformer: 87.87411036744379 kcal/mol)

>  <smiles>  (63) 
NC(=O)c1cc2ccc(C#CCN3CCCC(O)C3)cc2n1C(=O)O

>  <score_type>  (63) 
oracle

>  <origin>  (63) 
adg

>  <m_score__min__energy>  (63) 
-10.93

>  <m_primary>  (63) 
energy

$$$$
64:0
     RDKit          3D

 39 41  0  0  0  0  0  0  0  0999 V2000
   -0.9080   25.3350  -28.2490 C   0  0  0  0  0  0  0  0  0  0  0  0
   -2.0130   24.9680  -29.0440 O   0  0  0  0  0  0  0  0  0  0  0  0
   -2.9280   24.1870  -28.2950 C   0  0  0  0  0  0  0  0  0  0  0  0
   -3.3220   22.9430  -29.0850 C   0  0  0  0  0  0  0  0  0  0  0  0
   -2.8350   23.0510  -30.4180 O   0  0  0  0  0  0  0  0  0  0  0  0
   -3.6040   22.7330  -31.5400 C   0  0  0  0  0  0  0  0  0  0  0  0
   -3.0470   22.3290  -32.5970 O   0  0  0  0  0  0  0  0  0  0  0  0
   -5.0360   22.8320  -31.4730 N   0  0  0  0  0  0  0  0  0  0  0  0
   -5.7870   23.9010  -31.0790 C   0  0  0  0  0  0  0  0  0  0  0  0
   -5.2750   25.1500  -30.4770 C   0  0  0  0  0  0  0  0  0  0  0  0
   -4.0040   25.6750  -30.8470 N   0  0  0  0  0  0  0  0  0  0  0  0
   -5.9470   25.7300  -29.5830 O   0  0  0  0  0  0  0  0  0  0  0  0
   -7.1440   23.6280  -31.2310 C   0  0  0  0  0  0  0  0  0  0  0  0
   -7.2060   22.3430  -31.7190 C   0  0  0  0  0  0  0  0  0  0  0  0
   -8.3110   21.5660  -32.0490 C   0  0  0  0  0  0  0  0  0  0  0  0
   -8.0810   20.2710  -32.5450 C   0  0  0  0  0  0  0  0  0  0  0  0
   -6.7610   19.7800  -32.7100 C   0  0  0  0  0  0  0  0  0  0  0  0
   -6.5540   18.4090  -33.2320 C   0  0  0  0  0  0  0  0  0  0  0  0
   -5.6160   18.0050  -34.1680 C   0  0  0  0  0  0  0  0  0  0  0  0
   -5.8020   16.6490  -34.3250 C   0  0  0  0  0  0  0  0  0  0  0  0
   -6.8360   16.3040  -33.4810 C   0  0  0  0  0  0  0  0  0  0  0  0
   -7.2620   17.3700  -32.8450 O   0  0  0  0  0  0  0  0  0  0  0  0
   -5.6640   20.6090  -32.3740 C   0  0  0  0  0  0  0  0  0  0  0  0
   -5.9230   21.8850  -31.8580 C   0  0  0  0  0  0  0  0  0  0  0  0
   -1.1756   25.2461  -27.1858 H   0  0  0  0  0  0  0  0  0  0  0  0
   -0.0600   24.6702  -28.4705 H   0  0  0  0  0  0  0  0  0  0  0  0
   -0.6262   26.3750  -28.4705 H   0  0  0  0  0  0  0  0  0  0  0  0
   -2.4576   23.8833  -27.3482 H   0  0  0  0  0  0  0  0  0  0  0  0
   -3.8286   24.7843  -28.0898 H   0  0  0  0  0  0  0  0  0  0  0  0
   -2.8872   22.0527  -28.6072 H   0  0  0  0  0  0  0  0  0  0  0  0
   -4.4181   22.8527  -29.1023 H   0  0  0  0  0  0  0  0  0  0  0  0
   -3.1210   25.2050  -30.5460 H   0  0  0  0  0  0  0  0  0  0  0  0
   -7.9877   24.2978  -31.0081 H   0  0  0  0  0  0  0  0  0  0  0  0
   -9.3334   21.9527  -31.9257 H   0  0  0  0  0  0  0  0  0  0  0  0
   -8.9356   19.6305  -32.8084 H   0  0  0  0  0  0  0  0  0  0  0  0
   -4.8754   18.6367  -34.6803 H   0  0  0  0  0  0  0  0  0  0  0  0
   -5.2391   15.9772  -34.9897 H   0  0  0  0  0  0  0  0  0  0  0  0
   -7.2424   15.2891  -33.3591 H   0  0  0  0  0  0  0  0  0  0  0  0
   -4.6308   20.2588  -32.5151 H   0  0  0  0  0  0  0  0  0  0  0  0
  1  2  1  0
  2  3  1  0
  3  4  1  0
  4  5  1  0
  5  6  1  0
  6  7  2  0
  6  8  1  0
  8  9  1  0
  9 10  1  0
 10 11  1  0
 10 12  2  0
  9 13  2  0
 13 14  1  0
 14 15  2  0
 15 16  1  0
 16 17  2  0
 17 18  1  0
 18 19  2  0
 19 20  1  0
 20 21  2  0
 21 22  1  0
 17 23  1  0
 23 24  2  0
 24  8  1  0
 24 14  1  0
 22 18  1  0
  1 25  1  0
  1 26  1  0
  1 27  1  0
  3 28  1  0
  3 29  1  0
  4 30  1  0
  4 31  1  0
 11 32  1  0
 13 33  1  0
 15 34  1  0
 16 35  1  0
 19 36  1  0
 20 37  1  0
 21 38  1  0
 23 39  1  0
M  CHG  1  11  -1
M  END
>  <UniqueID>  (64) 
64

>  <SMILES>  (64) 
COCCOC(=O)n1c(C([NH-])=O)cc2ccc(-c3ccco3)cc21

>  <Energy>  (64) 
104.58911879486871

>  <Genealogy>  (64) 
COCCOC(=O)n1c(C([NH-])=O)cc2ccc(-c3ccco3)cc21 (protonated)
COCCOC(=O)n1c(C([NH-])=O)cc2ccc(-c3ccco3)cc21 (3D coordinates assigned)
COCCOC(=O)n1c(C([NH-])=O)cc2ccc(-c3ccco3)cc21 (optimized conformer: 104.58911879486871 kcal/mol)

>  <smiles>  (64) 
COCCOC(=O)n1c(C(N)=O)cc2ccc(-c3ccco3)cc21

>  <score_type>  (64) 
oracle

>  <origin>  (64) 
adg

>  <m_score__min__energy>  (64) 
-10.42

>  <m_primary>  (64) 
energy

$$$$
65:0
     RDKit          3D

 56 57  0  0  0  0  0  0  0  0999 V2000
   -2.6140   18.8980  -25.9760 C   0  0  0  0  0  0  0  0  0  0  0  0
   -2.0360   19.7850  -26.7900 C   0  0  0  0  0  0  0  0  0  0  0  0
   -2.6830   20.1770  -28.0880 C   0  0  0  0  0  0  0  0  0  0  0  0
   -1.8260   21.1110  -28.8200 N   0  0  0  0  0  0  0  0  0  0  0  0
   -2.2570   22.4240  -29.1980 C   0  0  0  0  0  0  0  0  0  0  0  0
   -1.1700   23.6490  -29.2200 S   0  0  0  0  0  0  0  0  0  0  0  0
   -3.6200   22.6980  -29.5430 N   0  0  0  0  0  0  0  0  0  0  0  0
   -4.3940   21.8480  -30.4010 C   0  0  0  0  0  0  0  0  0  0  0  0
   -3.9070   20.7700  -30.8420 O   0  0  0  0  0  0  0  0  0  0  0  0
   -5.7230   22.2320  -30.7820 N   0  0  0  0  0  0  0  0  0  0  0  0
   -6.2920   23.4680  -30.6950 C   0  0  0  0  0  0  0  0  0  0  0  0
   -5.5970   24.6990  -30.2480 C   0  0  0  0  0  0  0  0  0  0  0  0
   -6.1020   25.4730  -29.1560 N   0  0  0  0  0  0  0  0  0  0  0  0
   -4.5550   25.0900  -30.8390 O   0  0  0  0  0  0  0  0  0  0  0  0
   -7.6070   23.4300  -31.1590 C   0  0  0  0  0  0  0  0  0  0  0  0
   -7.8260   22.1210  -31.5310 C   0  0  0  0  0  0  0  0  0  0  0  0
   -8.9660   21.5170  -32.0560 C   0  0  0  0  0  0  0  0  0  0  0  0
   -8.9120   20.1400  -32.3330 C   0  0  0  0  0  0  0  0  0  0  0  0
   -7.7300   19.3960  -32.0810 C   0  0  0  0  0  0  0  0  0  0  0  0
   -7.6810   17.9170  -32.3820 C   0  0  0  0  0  0  0  0  0  0  0  0
   -6.8570   17.5210  -33.6380 C   0  0  2  0  0  0  0  0  0  0  0  0
   -6.1180   16.1610  -33.5230 C   0  0  0  0  0  0  0  0  0  0  0  0
   -5.1980   16.0130  -32.3070 C   0  0  0  0  0  0  0  0  0  0  0  0
   -5.9790   18.6350  -34.1510 C   0  0  0  0  0  0  0  0  0  0  0  0
   -6.4890   19.6820  -34.6380 O   0  0  0  0  0  0  0  0  0  0  0  0
   -4.5880   18.5090  -34.0450 O   0  0  0  0  0  0  0  0  0  0  0  0
   -3.7400   19.5580  -33.5800 C   0  0  0  0  0  0  0  0  0  0  0  0
   -2.4170   18.9950  -33.0650 C   0  0  0  0  0  0  0  0  0  0  0  0
   -6.6060   20.0410  -31.5180 C   0  0  0  0  0  0  0  0  0  0  0  0
   -6.6770   21.4190  -31.2860 C   0  0  0  0  0  0  0  0  0  0  0  0
   -2.1272   18.6217  -25.0291 H   0  0  0  0  0  0  0  0  0  0  0  0
   -3.5769   18.4437  -26.2524 H   0  0  0  0  0  0  0  0  0  0  0  0
   -1.0731   20.2347  -26.5062 H   0  0  0  0  0  0  0  0  0  0  0  0
   -2.8445   19.2770  -28.6995 H   0  0  0  0  0  0  0  0  0  0  0  0
   -3.6455   20.6653  -27.8754 H   0  0  0  0  0  0  0  0  0  0  0  0
   -0.8190   20.8600  -28.9400 H   0  0  0  0  0  0  0  0  0  0  0  0
   -4.0190   23.6250  -29.2690 H   0  0  0  0  0  0  0  0  0  0  0  0
   -6.9170   25.1520  -28.5900 H   0  0  0  0  0  0  0  0  0  0  0  0
   -5.6210   26.3570  -28.8760 H   0  0  0  0  0  0  0  0  0  0  0  0
   -8.3183   24.2671  -31.2159 H   0  0  0  0  0  0  0  0  0  0  0  0
   -9.8795   22.0991  -32.2477 H   0  0  0  0  0  0  0  0  0  0  0  0
   -9.7953   19.6337  -32.7495 H   0  0  0  0  0  0  0  0  0  0  0  0
   -7.2403   17.4078  -31.5122 H   0  0  0  0  0  0  0  0  0  0  0  0
   -8.7178   17.6152  -32.5914 H   0  0  0  0  0  0  0  0  0  0  0  0
   -7.6150   17.3526  -34.4171 H   0  0  0  0  0  0  0  0  0  0  0  0
   -6.8765   15.3659  -33.4733 H   0  0  0  0  0  0  0  0  0  0  0  0
   -5.4655   16.0954  -34.4061 H   0  0  0  0  0  0  0  0  0  0  0  0
   -5.7905   16.1083  -31.3852 H   0  0  0  0  0  0  0  0  0  0  0  0
   -4.7141   15.0255  -32.3314 H   0  0  0  0  0  0  0  0  0  0  0  0
   -4.4288   16.7990  -32.3314 H   0  0  0  0  0  0  0  0  0  0  0  0
   -3.5385   20.2533  -34.4082 H   0  0  0  0  0  0  0  0  0  0  0  0
   -4.2458   20.0823  -32.7558 H   0  0  0  0  0  0  0  0  0  0  0  0
   -2.4212   18.9968  -31.9650 H   0  0  0  0  0  0  0  0  0  0  0  0
   -2.2902   17.9649  -33.4295 H   0  0  0  0  0  0  0  0  0  0  0  0
   -1.5868   19.6178  -33.4295 H   0  0  0  0  0  0  0  0  0  0  0  0
   -5.6973   19.4737  -31.2682 H   0  0  0  0  0  0  0  0  0  0  0  0
  1  2  2  0
  2  3  1  0
  3  4  1  0
  4  5  1  0
  5  6  2  0
  5  7  1  0
  7  8  1  0
  8  9  2  0
  8 10  1  0
 10 11  1  0
 11 12  1  0
 12 13  1  0
 12 14  2  0
 11 15  2  0
 15 16  1  0
 16 17  2  0
 17 18  1  0
 18 19  2  0
 19 20  1  0
 20 21  1  0
 21 22  1  0
 22 23  1  0
 21 24  1  0
 24 25  2  0
 24 26  1  0
 26 27  1  0
 27 28  1  0
 19 29  1  0
 29 30  2  0
 30 10  1  0
 30 16  1  0
  1 31  1  0
  1 32  1  0
  2 33  1  0
  3 34  1  0
  3 35  1  0
  4 36  1  0
  7 37  1  0
 13 38  1  0
 13 39  1  0
 15 40  1  0
 17 41  1  0
 18 42  1  0
 20 43  1  0
 20 44  1  0
 21 45  1  6
 22 46  1  0
 22 47  1  0
 23 48  1  0
 23 49  1  0
 23 50  1  0
 27 51  1  0
 27 52  1  0
 28 53  1  0
 28 54  1  0
 28 55  1  0
 29 56  1  0
M  END
>  <UniqueID>  (65) 
65

>  <SMILES>  (65) 
C=CCNC(=S)NC(=O)n1c(C(N)=O)cc2ccc(C[C@H](CC)C(=O)OCC)cc21

>  <Energy>  (65) 
89.01956471242836

>  <Genealogy>  (65) 
C=CCNC(=S)NC(=O)n1c(C(N)=O)cc2ccc(C[C@H](CC)C(=O)OCC)cc21 (chirality)
C=CCNC(=S)NC(=O)n1c(C(N)=O)cc2ccc(C[C@H](CC)C(=O)OCC)cc21 (3D coordinates assigned)
C=CCNC(=S)NC(=O)n1c(C(N)=O)cc2ccc(C[C@H](CC)C(=O)OCC)cc21 (optimized conformer: 89.01956471242836 kcal/mol)

>  <smiles>  (65) 
C=CCNC(=S)NC(=O)n1c(C(N)=O)cc2ccc(CC(CC)C(=O)OCC)cc21

>  <score_type>  (65) 
oracle

>  <origin>  (65) 
adg

>  <m_score__min__energy>  (65) 
-9.6199999999999992

>  <m_primary>  (65) 
energy

$$$$
66:0
     RDKit          3D

 38 40  0  0  0  0  0  0  0  0999 V2000
   -1.6850   25.6880  -28.9610 N   0  0  0  0  0  0  0  0  0  0  0  0
   -1.1140   24.4080  -29.2140 C   0  0  0  0  0  0  0  0  0  0  0  0
   -0.0250   24.0980  -28.6610 O   0  0  0  0  0  0  0  0  0  0  0  0
   -1.8070   23.4200  -30.0680 C   0  0  0  0  0  0  0  0  0  0  0  0
   -1.2080   22.2470  -30.5220 C   0  0  0  0  0  0  0  0  0  0  0  0
   -2.1960   21.5710  -31.1980 C   0  0  0  0  0  0  0  0  0  0  0  0
   -2.1470   20.3540  -31.8710 C   0  0  0  0  0  0  0  0  0  0  0  0
   -3.3130   19.9110  -32.5170 C   0  0  0  0  0  0  0  0  0  0  0  0
   -4.5050   20.6810  -32.4800 C   0  0  0  0  0  0  0  0  0  0  0  0
   -5.7280   20.1870  -33.2400 C   0  0  2  0  0  0  0  0  0  0  0  0
   -6.9900   21.0330  -32.9280 C   0  0  0  0  0  0  0  0  0  0  0  0
   -7.7350   20.7310  -31.6060 C   0  0  0  0  0  0  0  0  0  0  0  0
   -8.4090   21.9420  -30.9460 C   0  0  0  0  0  0  0  0  0  0  0  0
   -9.5400   21.5590  -30.2530 F   0  0  0  0  0  0  0  0  0  0  0  0
   -8.7470   22.8920  -31.8930 F   0  0  0  0  0  0  0  0  0  0  0  0
   -7.5260   22.5130  -30.0470 F   0  0  0  0  0  0  0  0  0  0  0  0
   -5.9540   18.6960  -33.1370 C   0  0  0  0  0  0  0  0  0  0  0  0
   -6.0630   18.0380  -31.9610 N   0  0  0  0  0  0  0  0  0  0  0  0
   -6.3770   16.8210  -32.2810 O   0  0  0  0  0  0  0  0  0  0  0  0
   -6.4820   16.7340  -33.5820 C   0  0  0  0  0  0  0  0  0  0  0  0
   -6.7850   15.6760  -34.1920 O   0  0  0  0  0  0  0  0  0  0  0  0
   -6.2440   17.9050  -34.1950 N   0  0  0  0  0  0  0  0  0  0  0  0
   -4.5060   21.9220  -31.7950 C   0  0  0  0  0  0  0  0  0  0  0  0
   -3.3360   22.3280  -31.1450 C   0  0  0  0  0  0  0  0  0  0  0  0
   -3.1130   23.4710  -30.4580 N   0  0  0  0  0  0  0  0  0  0  0  0
   -4.0490   24.5450  -30.2690 C   0  0  0  0  0  0  0  0  0  0  0  0
   -3.8690   25.6540  -30.8370 O   0  0  0  0  0  0  0  0  0  0  0  0
   -5.1770   24.3620  -29.4780 O   0  0  0  0  0  0  0  0  0  0  0  0
   -2.7180   25.8350  -29.0070 H   0  0  0  0  0  0  0  0  0  0  0  0
   -0.1657   21.9292  -30.3715 H   0  0  0  0  0  0  0  0  0  0  0  0
   -1.2234   19.7571  -31.8963 H   0  0  0  0  0  0  0  0  0  0  0  0
   -3.3023   18.9540  -33.0592 H   0  0  0  0  0  0  0  0  0  0  0  0
   -5.5065   20.3484  -34.3053 H   0  0  0  0  0  0  0  0  0  0  0  0
   -6.6822   22.0887  -32.9006 H   0  0  0  0  0  0  0  0  0  0  0  0
   -7.7066   20.7765  -33.7221 H   0  0  0  0  0  0  0  0  0  0  0  0
   -8.5121   19.9815  -31.8165 H   0  0  0  0  0  0  0  0  0  0  0  0
   -6.9701   20.3823  -30.8966 H   0  0  0  0  0  0  0  0  0  0  0  0
   -5.4074   22.5521  -31.7751 H   0  0  0  0  0  0  0  0  0  0  0  0
  1  2  1  0
  2  3  2  0
  2  4  1  0
  4  5  2  0
  5  6  1  0
  6  7  2  0
  7  8  1  0
  8  9  2  0
  9 10  1  0
 10 11  1  0
 11 12  1  0
 12 13  1  0
 13 14  1  0
 13 15  1  0
 13 16  1  0
 10 17  1  0
 17 18  2  0
 18 19  1  0
 19 20  1  0
 20 21  2  0
 20 22  1  0
  9 23  1  0
 23 24  2  0
 24 25  1  0
 25 26  1  0
 26 27  2  0
 26 28  1  0
 25  4  1  0
 24  6  1  0
 22 17  1  0
  1 29  1  0
  5 30  1  0
  7 31  1  0
  8 32  1  0
 10 33  1  6
 11 34  1  0
 11 35  1  0
 12 36  1  0
 12 37  1  0
 23 38  1  0
M  CHG  3   1  -1  22  -1  28  -1
M  END
>  <UniqueID>  (66) 
66

>  <SMILES>  (66) 
[NH-]C(=O)c1cc2ccc([C@H](CCC(F)(F)F)c3noc(=O)[n-]3)cc2n1C(=O)[O-]

>  <Energy>  (66) 
116.28505097772354

>  <Genealogy>  (66) 
[NH-]C(=O)c1cc2ccc(C(CCC(F)(F)F)c3noc(=O)[n-]3)cc2n1C(=O)[O-] (protonated)
[NH-]C(=O)c1cc2ccc([C@H](CCC(F)(F)F)c3noc(=O)[n-]3)cc2n1C(=O)[O-] (chirality)
[NH-]C(=O)c1cc2ccc([C@H](CCC(F)(F)F)c3noc(=O)[n-]3)cc2n1C(=O)[O-] (3D coordinates assigned)
[NH-]C(=O)c1cc2ccc([C@H](CCC(F)(F)F)c3noc(=O)[n-]3)cc2n1C(=O)[O-] (optimized conformer: 116.28505097772354 kcal/mol)

>  <smiles>  (66) 
NC(=O)c1cc2ccc(C(CCC(F)(F)F)c3noc(=O)[nH]3)cc2n1C(=O)O

>  <score_type>  (66) 
oracle

>  <origin>  (66) 
adg

>  <m_score__min__energy>  (66) 
-11.789999999999999

>  <m_primary>  (66) 
energy

$$$$
67:0
     RDKit          3D

 63 64  0  0  0  0  0  0  0  0999 V2000
    0.3440   21.5060  -35.9530 C   0  0  0  0  0  0  0  0  0  0  0  0
    0.3860   22.1100  -34.6800 O   0  0  0  0  0  0  0  0  0  0  0  0
    0.1440   21.1490  -33.6690 C   0  0  0  0  0  0  0  0  0  0  0  0
   -0.6290   19.9560  -34.2370 C   0  0  0  0  0  0  0  0  0  0  0  0
   -2.0380   20.1540  -34.1110 O   0  0  0  0  0  0  0  0  0  0  0  0
   -2.9200   19.1510  -33.6990 C   0  0  0  0  0  0  0  0  0  0  0  0
   -3.3410   19.1140  -32.5080 O   0  0  0  0  0  0  0  0  0  0  0  0
   -3.3380   18.1940  -34.6310 O   0  0  0  0  0  0  0  0  0  0  0  0
   -3.9810   16.9720  -34.2660 C   0  0  2  0  0  0  0  0  0  0  0  0
   -3.4190   15.8200  -35.1000 C   0  0  0  0  0  0  0  0  0  0  0  0
   -5.3800   17.1060  -34.5130 O   0  0  0  0  0  0  0  0  0  0  0  0
   -6.1110   18.2530  -34.1860 C   0  0  0  0  0  0  0  0  0  0  0  0
   -6.1150   19.2570  -34.9530 O   0  0  0  0  0  0  0  0  0  0  0  0
   -6.8720   18.3010  -32.9000 C   0  0  0  0  0  0  0  0  0  0  0  0
   -7.0800   19.7280  -32.4770 C   0  0  0  0  0  0  0  0  0  0  0  0
   -8.3890   20.2710  -32.4060 C   0  0  0  0  0  0  0  0  0  0  0  0
   -8.5920   21.5940  -31.9770 C   0  0  0  0  0  0  0  0  0  0  0  0
   -7.4730   22.3430  -31.6190 C   0  0  0  0  0  0  0  0  0  0  0  0
   -7.3830   23.6320  -31.1410 C   0  0  0  0  0  0  0  0  0  0  0  0
   -6.0230   23.8530  -30.9260 C   0  0  0  0  0  0  0  0  0  0  0  0
   -5.4650   25.1430  -30.4620 C   0  0  0  0  0  0  0  0  0  0  0  0
   -4.0650   25.3870  -30.5670 N   0  0  0  0  0  0  0  0  0  0  0  0
   -6.2090   26.0280  -29.9590 O   0  0  0  0  0  0  0  0  0  0  0  0
   -5.3020   22.7480  -31.2630 N   0  0  0  0  0  0  0  0  0  0  0  0
   -3.8830   22.5560  -31.1330 C   0  0  0  0  0  0  0  0  0  0  0  0
   -3.2690   21.9210  -32.0320 O   0  0  0  0  0  0  0  0  0  0  0  0
   -3.1900   23.0110  -29.9450 N   0  0  1  0  0  0  0  0  0  0  0  0
   -3.8120   22.4360  -28.7390 C   0  0  0  0  0  0  0  0  0  0  0  0
   -1.7180   22.7970  -30.0190 C   0  0  0  0  0  0  0  0  0  0  0  0
   -0.8480   23.8720  -29.3270 C   0  0  0  0  0  0  0  0  0  0  0  0
   -1.5800   25.0650  -29.1150 O   0  0  0  0  0  0  0  0  0  0  0  0
   -1.7910   25.2800  -27.7380 C   0  0  0  0  0  0  0  0  0  0  0  0
   -6.2020   21.8330  -31.6830 C   0  0  0  0  0  0  0  0  0  0  0  0
   -5.9710   20.5170  -32.0950 C   0  0  0  0  0  0  0  0  0  0  0  0
    0.2681   20.4146  -35.8387 H   0  0  0  0  0  0  0  0  0  0  0  0
   -0.5304   21.8783  -36.5068 H   0  0  0  0  0  0  0  0  0  0  0  0
    1.2615   21.7537  -36.5068 H   0  0  0  0  0  0  0  0  0  0  0  0
    1.1053   20.7984  -33.2653 H   0  0  0  0  0  0  0  0  0  0  0  0
   -0.4550   21.6141  -32.8722 H   0  0  0  0  0  0  0  0  0  0  0  0
   -0.3759   19.8366  -35.3008 H   0  0  0  0  0  0  0  0  0  0  0  0
   -0.3491   19.0549  -33.6716 H   0  0  0  0  0  0  0  0  0  0  0  0
   -3.8032   16.7577  -33.2018 H   0  0  0  0  0  0  0  0  0  0  0  0
   -3.0363   15.0354  -34.4307 H   0  0  0  0  0  0  0  0  0  0  0  0
   -4.2155   15.4042  -35.7346 H   0  0  0  0  0  0  0  0  0  0  0  0
   -2.6010   16.1917  -35.7346 H   0  0  0  0  0  0  0  0  0  0  0  0
   -7.8496   17.8159  -33.0373 H   0  0  0  0  0  0  0  0  0  0  0  0
   -6.2992   17.7744  -32.1224 H   0  0  0  0  0  0  0  0  0  0  0  0
   -9.2525   19.6511  -32.6892 H   0  0  0  0  0  0  0  0  0  0  0  0
   -9.6029   22.0247  -31.9255 H   0  0  0  0  0  0  0  0  0  0  0  0
   -8.2088   24.3373  -30.9660 H   0  0  0  0  0  0  0  0  0  0  0  0
   -3.4970   25.6160  -29.7230 H   0  0  0  0  0  0  0  0  0  0  0  0
   -3.3330   24.0470  -29.8770 H   0  0  0  0  0  0  0  0  0  0  0  0
   -3.3436   22.8690  -27.8429 H   0  0  0  0  0  0  0  0  0  0  0  0
   -4.8880   22.6644  -28.7370 H   0  0  0  0  0  0  0  0  0  0  0  0
   -3.6687   21.3454  -28.7370 H   0  0  0  0  0  0  0  0  0  0  0  0
   -1.4935   21.8275  -29.5502 H   0  0  0  0  0  0  0  0  0  0  0  0
   -1.4614   22.8462  -31.0875 H   0  0  0  0  0  0  0  0  0  0  0  0
   -0.5040   23.4849  -28.3565 H   0  0  0  0  0  0  0  0  0  0  0  0
    0.0079   24.1000  -29.9793 H   0  0  0  0  0  0  0  0  0  0  0  0
   -1.1363   24.6128  -27.1582 H   0  0  0  0  0  0  0  0  0  0  0  0
   -1.5597   26.3266  -27.4906 H   0  0  0  0  0  0  0  0  0  0  0  0
   -2.8417   25.0684  -27.4906 H   0  0  0  0  0  0  0  0  0  0  0  0
   -4.9511   20.1056  -32.1212 H   0  0  0  0  0  0  0  0  0  0  0  0
  1  2  1  0
  2  3  1  0
  3  4  1  0
  4  5  1  0
  5  6  1  0
  6  7  2  0
  6  8  1  0
  8  9  1  0
  9 10  1  0
  9 11  1  0
 11 12  1  0
 12 13  2  0
 12 14  1  0
 14 15  1  0
 15 16  2  0
 16 17  1  0
 17 18  2  0
 18 19  1  0
 19 20  2  0
 20 21  1  0
 21 22  1  0
 21 23  2  0
 20 24  1  0
 24 25  1  0
 25 26  2  0
 25 27  1  0
 27 28  1  0
 27 29  1  0
 29 30  1  0
 30 31  1  0
 31 32  1  0
 24 33  1  0
 33 34  2  0
 34 15  1  0
 33 18  1  0
  1 35  1  0
  1 36  1  0
  1 37  1  0
  3 38  1  0
  3 39  1  0
  4 40  1  0
  4 41  1  0
  9 42  1  1
 10 43  1  0
 10 44  1  0
 10 45  1  0
 14 46  1  0
 14 47  1  0
 16 48  1  0
 17 49  1  0
 19 50  1  0
 22 51  1  0
 27 52  1  1
 28 53  1  0
 28 54  1  0
 28 55  1  0
 29 56  1  0
 29 57  1  0
 30 58  1  0
 30 59  1  0
 32 60  1  0
 32 61  1  0
 32 62  1  0
 34 63  1  0
M  CHG  2  22  -1  27   1
M  END
>  <UniqueID>  (67) 
67

>  <SMILES>  (67) 
COCCOC(=O)O[C@H](C)OC(=O)Cc1ccc2cc(C([NH-])=O)n(C(=O)[N@@H+](C)CCOC)c2c1

>  <Energy>  (67) 
101.95568659280714

>  <Genealogy>  (67) 
COCCOC(=O)OC(C)OC(=O)Cc1ccc2cc(C([NH-])=O)n(C(=O)[NH+](C)CCOC)c2c1 (protonated)
COCCOC(=O)O[C@H](C)OC(=O)Cc1ccc2cc(C([NH-])=O)n(C(=O)[N@@H+](C)CCOC)c2c1 (chirality)
COCCOC(=O)O[C@H](C)OC(=O)Cc1ccc2cc(C([NH-])=O)n(C(=O)[N@@H+](C)CCOC)c2c1 (3D coordinates assigned)
COCCOC(=O)O[C@H](C)OC(=O)Cc1ccc2cc(C([NH-])=O)n(C(=O)[N@@H+](C)CCOC)c2c1 (optimized conformer: 101.95568659280714 kcal/mol)

>  <smiles>  (67) 
COCCOC(=O)OC(C)OC(=O)Cc1ccc2cc(C(N)=O)n(C(=O)N(C)CCOC)c2c1

>  <score_type>  (67) 
oracle

>  <origin>  (67) 
adg

>  <m_score__min__energy>  (67) 
-9.1799999999999997

>  <m_primary>  (67) 
energy

$$$$
68:0
     RDKit          3D

 40 43  0  0  0  0  0  0  0  0999 V2000
   -3.8690   25.2990  -30.6100 N   0  0  0  0  0  0  0  0  0  0  0  0
   -5.2680   25.1040  -30.4150 C   0  0  0  0  0  0  0  0  0  0  0  0
   -5.9650   26.0520  -29.9650 O   0  0  0  0  0  0  0  0  0  0  0  0
   -5.9120   23.8230  -30.7660 C   0  0  0  0  0  0  0  0  0  0  0  0
   -7.2930   23.6350  -30.8090 C   0  0  0  0  0  0  0  0  0  0  0  0
   -7.4720   22.3380  -31.2400 C   0  0  0  0  0  0  0  0  0  0  0  0
   -8.6410   21.6120  -31.4430 C   0  0  0  0  0  0  0  0  0  0  0  0
   -8.5220   20.2760  -31.8630 C   0  0  0  0  0  0  0  0  0  0  0  0
   -7.2460   19.6950  -32.0870 C   0  0  0  0  0  0  0  0  0  0  0  0
   -7.1310   18.2450  -32.4810 C   0  0  0  0  0  0  0  0  0  0  0  0
   -6.1520   17.6410  -31.7140 F   0  0  0  0  0  0  0  0  0  0  0  0
   -6.7930   18.1270  -33.8170 F   0  0  0  0  0  0  0  0  0  0  0  0
   -8.3320   17.5870  -32.2790 F   0  0  0  0  0  0  0  0  0  0  0  0
   -6.0810   20.4610  -31.8450 C   0  0  0  0  0  0  0  0  0  0  0  0
   -6.2320   21.7890  -31.4370 C   0  0  0  0  0  0  0  0  0  0  0  0
   -5.2670   22.6840  -31.1460 N   0  0  0  0  0  0  0  0  0  0  0  0
   -3.8560   22.4300  -31.1590 C   0  0  0  0  0  0  0  0  0  0  0  0
   -3.2080   22.6110  -32.2250 O   0  0  0  0  0  0  0  0  0  0  0  0
   -3.1880   21.8360  -29.9400 C   0  0  1  0  0  0  0  0  0  0  0  0
   -1.6880   22.1810  -29.8650 C   0  0  0  0  0  0  0  0  0  0  0  0
   -1.5690   22.8030  -28.4570 C   0  0  1  0  0  0  0  0  0  0  0  0
   -2.8370   23.6100  -28.3730 C   0  0  0  0  0  0  0  0  0  0  0  0
   -3.7190   22.4050  -28.6020 C   0  0  2  0  0  0  0  0  0  0  0  0
   -3.2010   21.4910  -27.4820 C   0  0  0  0  0  0  0  0  0  0  0  0
   -1.7540   21.7600  -27.4310 N   0  0  0  0  0  0  0  0  0  0  0  0
   -3.5140   26.0500  -31.2420 H   0  0  0  0  0  0  0  0  0  0  0  0
   -8.0738   24.3664  -30.5533 H   0  0  0  0  0  0  0  0  0  0  0  0
   -9.6280   22.0693  -31.2799 H   0  0  0  0  0  0  0  0  0  0  0  0
   -9.4286   19.6731  -32.0201 H   0  0  0  0  0  0  0  0  0  0  0  0
   -5.0809   20.0218  -31.9749 H   0  0  0  0  0  0  0  0  0  0  0  0
   -3.3937   20.7617  -30.0564 H   0  0  0  0  0  0  0  0  0  0  0  0
   -1.0657   21.2786  -29.9567 H   0  0  0  0  0  0  0  0  0  0  0  0
   -1.3457   22.8450  -30.6725 H   0  0  0  0  0  0  0  0  0  0  0  0
   -0.6135   23.3279  -28.3103 H   0  0  0  0  0  0  0  0  0  0  0  0
   -2.9895   24.0822  -27.3913 H   0  0  0  0  0  0  0  0  0  0  0  0
   -2.9525   24.4820  -29.0335 H   0  0  0  0  0  0  0  0  0  0  0  0
   -4.8096   22.5475  -28.6163 H   0  0  0  0  0  0  0  0  0  0  0  0
   -3.6778   21.7417  -26.5229 H   0  0  0  0  0  0  0  0  0  0  0  0
   -3.4244   20.4303  -27.6688 H   0  0  0  0  0  0  0  0  0  0  0  0
   -1.2220   20.8960  -27.6900 H   0  0  0  0  0  0  0  0  0  0  0  0
  1  2  1  0
  2  3  2  0
  2  4  1  0
  4  5  2  0
  5  6  1  0
  6  7  2  0
  7  8  1  0
  8  9  2  0
  9 10  1  0
 10 11  1  0
 10 12  1  0
 10 13  1  0
  9 14  1  0
 14 15  2  0
 15 16  1  0
 16 17  1  0
 17 18  2  0
 17 19  1  0
 19 20  1  0
 20 21  1  0
 21 22  1  0
 22 23  1  0
 23 24  1  0
 24 25  1  0
 16  4  1  0
 23 19  1  0
 15  6  1  0
 25 21  1  0
  1 26  1  0
  5 27  1  0
  7 28  1  0
  8 29  1  0
 14 30  1  0
 19 31  1  1
 20 32  1  0
 20 33  1  0
 21 34  1  6
 22 35  1  0
 22 36  1  0
 23 37  1  6
 24 38  1  0
 24 39  1  0
 25 40  1  0
M  CHG  1   1  -1
M  END
>  <UniqueID>  (68) 
68

>  <SMILES>  (68) 
[NH-]C(=O)c1cc2ccc(C(F)(F)F)cc2n1C(=O)[C@H]1C[C@H]2CC1CN2

>  <Energy>  (68) 
110.00156225441259

>  <Genealogy>  (68) 
[NH-]C(=O)c1cc2ccc(C(F)(F)F)cc2n1C(=O)C1CC2CC1CN2 (protonated)
[NH-]C(=O)c1cc2ccc(C(F)(F)F)cc2n1C(=O)[C@H]1C[C@H]2CC1CN2 (chirality)
[NH-]C(=O)c1cc2ccc(C(F)(F)F)cc2n1C(=O)[C@H]1C[C@H]2CC1CN2 (3D coordinates assigned)
[NH-]C(=O)c1cc2ccc(C(F)(F)F)cc2n1C(=O)[C@H]1C[C@H]2CC1CN2 (nonaromatic ring conformer: 110.00156225441259 kcal/mol)

>  <smiles>  (68) 
NC(=O)c1cc2ccc(C(F)(F)F)cc2n1C(=O)C1CC2CC1CN2

>  <score_type>  (68) 
oracle

>  <origin>  (68) 
adg

>  <m_score__min__energy>  (68) 
-10.75

>  <m_primary>  (68) 
energy

$$$$
69:0
     RDKit          3D

 45 46  0  0  0  0  0  0  0  0999 V2000
   -7.3370   19.8280  -32.8990 C   0  0  0  0  0  0  0  0  0  0  0  0
   -5.8800   19.9830  -33.3440 C   0  0  0  0  0  0  0  0  0  0  0  0
   -5.1480   20.9130  -32.4580 N   0  0  0  0  0  0  0  0  0  0  0  0
   -5.8800   21.6810  -31.4370 C   0  0  0  0  0  0  0  0  0  0  0  0
   -5.4930   23.1620  -31.4930 C   0  0  0  0  0  0  0  0  0  0  0  0
   -5.7740   23.6720  -32.7670 O   0  0  0  0  0  0  0  0  0  0  0  0
   -3.7680   21.2370  -32.7600 C   0  0  0  0  0  0  0  0  0  0  0  0
   -3.4910   21.8950  -33.8040 O   0  0  0  0  0  0  0  0  0  0  0  0
   -2.6880   20.6840  -31.9990 N   0  0  0  0  0  0  0  0  0  0  0  0
   -1.5870   20.0780  -32.5230 C   0  0  0  0  0  0  0  0  0  0  0  0
   -1.3860   19.7570  -33.9570 C   0  0  0  0  0  0  0  0  0  0  0  0
   -1.2140   20.7850  -34.9270 N   0  0  0  0  0  0  0  0  0  0  0  0
   -1.3840   18.5540  -34.3330 O   0  0  0  0  0  0  0  0  0  0  0  0
   -0.5590   20.0230  -31.5840 C   0  0  0  0  0  0  0  0  0  0  0  0
   -1.0560   20.6370  -30.4630 C   0  0  0  0  0  0  0  0  0  0  0  0
   -0.4060   20.9790  -29.2820 C   0  0  0  0  0  0  0  0  0  0  0  0
   -1.1050   21.7600  -28.3520 C   0  0  0  0  0  0  0  0  0  0  0  0
   -2.4290   22.1970  -28.6220 C   0  0  0  0  0  0  0  0  0  0  0  0
   -3.1570   23.0650  -27.6270 C   0  0  0  0  0  0  0  0  0  0  0  0
   -3.9240   24.2160  -28.2960 C   0  0  0  0  0  0  0  0  0  0  0  0
   -3.1680   24.9260  -29.3810 C   0  0  0  0  0  0  0  0  0  0  0  0
   -1.9660   25.2690  -29.2260 O   0  0  0  0  0  0  0  0  0  0  0  0
   -3.8460   25.3040  -30.5330 O   0  0  0  0  0  0  0  0  0  0  0  0
   -3.0510   21.8410  -29.8410 C   0  0  0  0  0  0  0  0  0  0  0  0
   -2.3410   21.0390  -30.7360 C   0  0  0  0  0  0  0  0  0  0  0  0
   -7.3862   19.8228  -31.8001 H   0  0  0  0  0  0  0  0  0  0  0  0
   -7.9307   20.6680  -33.2886 H   0  0  0  0  0  0  0  0  0  0  0  0
   -7.7407   18.8818  -33.2886 H   0  0  0  0  0  0  0  0  0  0  0  0
   -5.3893   18.9989  -33.3157 H   0  0  0  0  0  0  0  0  0  0  0  0
   -5.8686   20.3920  -34.3651 H   0  0  0  0  0  0  0  0  0  0  0  0
   -6.9607   21.5831  -31.6173 H   0  0  0  0  0  0  0  0  0  0  0  0
   -5.6215   21.2852  -30.4438 H   0  0  0  0  0  0  0  0  0  0  0  0
   -6.0689   23.7198  -30.7399 H   0  0  0  0  0  0  0  0  0  0  0  0
   -4.4178   23.2673  -31.2857 H   0  0  0  0  0  0  0  0  0  0  0  0
   -5.1690   23.2000  -33.4020 H   0  0  0  0  0  0  0  0  0  0  0  0
   -1.5520   21.7530  -34.7320 H   0  0  0  0  0  0  0  0  0  0  0  0
   -0.8820   20.5540  -35.8920 H   0  0  0  0  0  0  0  0  0  0  0  0
    0.4397   19.5807  -31.7143 H   0  0  0  0  0  0  0  0  0  0  0  0
    0.6239   20.6470  -29.0843 H   0  0  0  0  0  0  0  0  0  0  0  0
   -0.6232   22.0375  -27.4029 H   0  0  0  0  0  0  0  0  0  0  0  0
   -3.8726   22.4405  -27.0721 H   0  0  0  0  0  0  0  0  0  0  0  0
   -2.4041   23.5101  -26.9599 H   0  0  0  0  0  0  0  0  0  0  0  0
   -4.8459   23.8050  -28.7332 H   0  0  0  0  0  0  0  0  0  0  0  0
   -4.1132   24.9618  -27.5098 H   0  0  0  0  0  0  0  0  0  0  0  0
   -4.0679   22.1871  -30.0778 H   0  0  0  0  0  0  0  0  0  0  0  0
  1  2  1  0
  2  3  1  0
  3  4  1  0
  4  5  1  0
  5  6  1  0
  3  7  1  0
  7  8  2  0
  7  9  1  0
  9 10  1  0
 10 11  1  0
 11 12  1  0
 11 13  2  0
 10 14  2  0
 14 15  1  0
 15 16  2  0
 16 17  1  0
 17 18  2  0
 18 19  1  0
 19 20  1  0
 20 21  1  0
 21 22  2  0
 21 23  1  0
 18 24  1  0
 24 25  2  0
 25  9  1  0
 25 15  1  0
  1 26  1  0
  1 27  1  0
  1 28  1  0
  2 29  1  0
  2 30  1  0
  4 31  1  0
  4 32  1  0
  5 33  1  0
  5 34  1  0
  6 35  1  0
 12 36  1  0
 12 37  1  0
 14 38  1  0
 16 39  1  0
 17 40  1  0
 19 41  1  0
 19 42  1  0
 20 43  1  0
 20 44  1  0
 24 45  1  0
M  CHG  1  23  -1
M  END
>  <UniqueID>  (69) 
69

>  <SMILES>  (69) 
CCN(CCO)C(=O)n1c(C(N)=O)cc2ccc(CCC(=O)[O-])cc21

>  <Energy>  (69) 
87.13042041154692

>  <Genealogy>  (69) 
CCN(CCO)C(=O)n1c(C(N)=O)cc2ccc(CCC(=O)[O-])cc21 (protonated)
CCN(CCO)C(=O)n1c(C(N)=O)cc2ccc(CCC(=O)[O-])cc21 (3D coordinates assigned)
CCN(CCO)C(=O)n1c(C(N)=O)cc2ccc(CCC(=O)[O-])cc21 (optimized conformer: 87.13042041154692 kcal/mol)

>  <smiles>  (69) 
CCN(CCO)C(=O)n1c(C(N)=O)cc2ccc(CCC(=O)O)cc21

>  <score_type>  (69) 
oracle

>  <origin>  (69) 
adg

>  <m_score__min__energy>  (69) 
-9.6500000000000004

>  <m_primary>  (69) 
energy

$$$$
70:0
     RDKit          3D

 44 45  0  0  0  0  0  0  0  0999 V2000
   -3.8460   24.5140  -27.0610 C   0  0  0  0  0  0  0  0  0  0  0  0
   -3.4080   23.7740  -28.2590 N   0  0  0  0  0  0  0  0  0  0  0  0
   -1.9460   23.8860  -28.3910 C   0  0  0  0  0  0  0  0  0  0  0  0
   -3.8080   22.3530  -28.1810 C   0  0  0  0  0  0  0  0  0  0  0  0
   -2.8160   21.4690  -28.9480 C   0  0  0  0  0  0  0  0  0  0  0  0
   -3.2100   21.3690  -30.3610 N   0  0  0  0  0  0  0  0  0  0  0  0
   -3.0480   20.1040  -31.0850 C   0  0  0  0  0  0  0  0  0  0  0  0
   -3.8430   22.4860  -31.0160 C   0  0  0  0  0  0  0  0  0  0  0  0
   -3.1410   23.3650  -31.5860 O   0  0  0  0  0  0  0  0  0  0  0  0
   -5.2720   22.6210  -31.0220 N   0  0  0  0  0  0  0  0  0  0  0  0
   -6.0010   23.7400  -30.7610 C   0  0  0  0  0  0  0  0  0  0  0  0
   -5.4640   25.0250  -30.2660 C   0  0  0  0  0  0  0  0  0  0  0  0
   -4.1950   25.5220  -30.6980 N   0  0  0  0  0  0  0  0  0  0  0  0
   -6.1200   25.6800  -29.4130 O   0  0  0  0  0  0  0  0  0  0  0  0
   -7.3470   23.5240  -31.0480 C   0  0  0  0  0  0  0  0  0  0  0  0
   -7.4190   22.2250  -31.5000 C   0  0  0  0  0  0  0  0  0  0  0  0
   -8.5070   21.4990  -31.9730 C   0  0  0  0  0  0  0  0  0  0  0  0
   -8.2750   20.1960  -32.4440 C   0  0  0  0  0  0  0  0  0  0  0  0
   -6.9690   19.6410  -32.4320 C   0  0  0  0  0  0  0  0  0  0  0  0
   -6.7220   18.2660  -32.9990 C   0  0  0  0  0  0  0  0  0  0  0  0
   -5.6420   17.6670  -32.3730 F   0  0  0  0  0  0  0  0  0  0  0  0
   -6.4520   18.3370  -34.3540 F   0  0  0  0  0  0  0  0  0  0  0  0
   -7.8450   17.4850  -32.8030 F   0  0  0  0  0  0  0  0  0  0  0  0
   -5.8860   20.4230  -31.9720 C   0  0  0  0  0  0  0  0  0  0  0  0
   -6.1510   21.7070  -31.4840 C   0  0  0  0  0  0  0  0  0  0  0  0
   -3.5258   23.9730  -26.1584 H   0  0  0  0  0  0  0  0  0  0  0  0
   -3.3966   25.5180  -27.0655 H   0  0  0  0  0  0  0  0  0  0  0  0
   -4.9424   24.6030  -27.0655 H   0  0  0  0  0  0  0  0  0  0  0  0
   -1.4892   23.9210  -27.3910 H   0  0  0  0  0  0  0  0  0  0  0  0
   -1.5596   23.0148  -28.9403 H   0  0  0  0  0  0  0  0  0  0  0  0
   -1.6968   24.8059  -28.9403 H   0  0  0  0  0  0  0  0  0  0  0  0
   -3.8295   22.0410  -27.1264 H   0  0  0  0  0  0  0  0  0  0  0  0
   -4.8050   22.2403  -28.6320 H   0  0  0  0  0  0  0  0  0  0  0  0
   -1.8104   21.9099  -28.8818 H   0  0  0  0  0  0  0  0  0  0  0  0
   -2.8156   20.4625  -28.5041 H   0  0  0  0  0  0  0  0  0  0  0  0
   -2.9425   19.2799  -30.3641 H   0  0  0  0  0  0  0  0  0  0  0  0
   -3.9309   19.9276  -31.7170 H   0  0  0  0  0  0  0  0  0  0  0  0
   -2.1491   20.1557  -31.7170 H   0  0  0  0  0  0  0  0  0  0  0  0
   -3.8670   26.4600  -30.3810 H   0  0  0  0  0  0  0  0  0  0  0  0
   -3.5350   24.9250  -31.2430 H   0  0  0  0  0  0  0  0  0  0  0  0
   -8.1758   24.2387  -30.9372 H   0  0  0  0  0  0  0  0  0  0  0  0
   -9.5182   21.9319  -31.9781 H   0  0  0  0  0  0  0  0  0  0  0  0
   -9.1157   19.5988  -32.8267 H   0  0  0  0  0  0  0  0  0  0  0  0
   -4.8584   20.0314  -31.9970 H   0  0  0  0  0  0  0  0  0  0  0  0
  1  2  1  0
  2  3  1  0
  2  4  1  0
  4  5  1  0
  5  6  1  0
  6  7  1  0
  6  8  1  0
  8  9  2  0
  8 10  1  0
 10 11  1  0
 11 12  1  0
 12 13  1  0
 12 14  2  0
 11 15  2  0
 15 16  1  0
 16 17  2  0
 17 18  1  0
 18 19  2  0
 19 20  1  0
 20 21  1  0
 20 22  1  0
 20 23  1  0
 19 24  1  0
 24 25  2  0
 25 10  1  0
 25 16  1  0
  1 26  1  0
  1 27  1  0
  1 28  1  0
  3 29  1  0
  3 30  1  0
  3 31  1  0
  4 32  1  0
  4 33  1  0
  5 34  1  0
  5 35  1  0
  7 36  1  0
  7 37  1  0
  7 38  1  0
 13 39  1  0
 13 40  1  0
 15 41  1  0
 17 42  1  0
 18 43  1  0
 24 44  1  0
M  END
>  <UniqueID>  (70) 
70

>  <SMILES>  (70) 
CN(C)CCN(C)C(=O)n1c(C(N)=O)cc2ccc(C(F)(F)F)cc21

>  <Energy>  (70) 
80.86985758967607

>  <Genealogy>  (70) 
CN(C)CCN(C)C(=O)n1c(C(N)=O)cc2ccc(C(F)(F)F)cc21 (3D coordinates assigned)
CN(C)CCN(C)C(=O)n1c(C(N)=O)cc2ccc(C(F)(F)F)cc21 (optimized conformer: 80.86985758967607 kcal/mol)

>  <smiles>  (70) 
CN(C)CCN(C)C(=O)n1c(C(N)=O)cc2ccc(C(F)(F)F)cc21

>  <score_type>  (70) 
oracle

>  <origin>  (70) 
adg

>  <m_score__min__energy>  (70) 
-8.1699999999999999

>  <m_primary>  (70) 
energy

$$$$
71:0
     RDKit          3D

 46 48  0  0  0  0  0  0  0  0999 V2000
   -3.9280   25.2340  -30.8440 N   0  0  0  0  0  0  0  0  0  0  0  0
   -5.3260   25.1850  -30.5690 C   0  0  0  0  0  0  0  0  0  0  0  0
   -5.8970   26.2050  -30.1020 O   0  0  0  0  0  0  0  0  0  0  0  0
   -6.1170   23.9750  -30.8720 C   0  0  0  0  0  0  0  0  0  0  0  0
   -7.5100   23.9340  -30.8320 C   0  0  0  0  0  0  0  0  0  0  0  0
   -7.8510   22.6750  -31.2700 C   0  0  0  0  0  0  0  0  0  0  0  0
   -9.1030   22.0920  -31.4480 C   0  0  0  0  0  0  0  0  0  0  0  0
   -9.1540   20.7670  -31.9180 C   0  0  0  0  0  0  0  0  0  0  0  0
   -7.9600   20.0490  -32.1830 C   0  0  0  0  0  0  0  0  0  0  0  0
   -8.0250   18.6430  -32.7120 C   0  0  0  0  0  0  0  0  0  0  0  0
   -6.6500   18.1670  -33.0710 C   0  0  0  0  0  0  0  0  0  0  0  0
   -5.9500   17.5850  -32.1990 O   0  0  0  0  0  0  0  0  0  0  0  0
   -6.1610   18.3240  -34.4120 N   0  0  0  0  0  0  0  0  0  0  0  0
   -4.8390   17.8390  -34.8270 C   0  0  0  0  0  0  0  0  0  0  0  0
   -3.7150   18.6250  -34.1120 C   0  0  0  0  0  0  0  0  0  0  0  0
   -2.3960   17.8260  -34.0290 C   0  0  0  0  0  0  0  0  0  0  0  0
   -2.2910   16.8280  -35.1030 N   0  0  0  0  0  0  0  0  0  0  0  0
   -3.3370   15.7910  -34.9950 C   0  0  0  0  0  0  0  0  0  0  0  0
   -4.7070   16.3380  -34.5320 C   0  0  0  0  0  0  0  0  0  0  0  0
   -6.7070   20.6770  -31.9980 C   0  0  0  0  0  0  0  0  0  0  0  0
   -6.6900   22.0010  -31.5480 C   0  0  0  0  0  0  0  0  0  0  0  0
   -5.6180   22.7830  -31.3050 N   0  0  0  0  0  0  0  0  0  0  0  0
   -4.2440   22.3890  -31.4380 C   0  0  0  0  0  0  0  0  0  0  0  0
   -3.4620   22.5150  -30.4570 O   0  0  0  0  0  0  0  0  0  0  0  0
   -3.7000   21.9710  -32.7710 C   0  0  0  0  0  0  0  0  0  0  0  0
   -2.1040   21.1930  -32.5890 Cl  0  0  0  0  0  0  0  0  0  0  0  0
   -3.5000   26.0550  -31.3250 H   0  0  0  0  0  0  0  0  0  0  0  0
   -8.1918   24.7377  -30.5171 H   0  0  0  0  0  0  0  0  0  0  0  0
  -10.0245   22.6508  -31.2277 H   0  0  0  0  0  0  0  0  0  0  0  0
  -10.1285   20.2836  -32.0814 H   0  0  0  0  0  0  0  0  0  0  0  0
   -8.4494   17.9829  -31.9412 H   0  0  0  0  0  0  0  0  0  0  0  0
   -8.6600   18.6238  -33.6100 H   0  0  0  0  0  0  0  0  0  0  0  0
   -6.7870   18.7850  -35.1110 H   0  0  0  0  0  0  0  0  0  0  0  0
   -4.7374   17.9998  -35.9104 H   0  0  0  0  0  0  0  0  0  0  0  0
   -3.5288   19.5569  -34.6659 H   0  0  0  0  0  0  0  0  0  0  0  0
   -4.0495   18.8261  -33.0836 H   0  0  0  0  0  0  0  0  0  0  0  0
   -1.5509   18.5255  -34.1097 H   0  0  0  0  0  0  0  0  0  0  0  0
   -2.3799   17.2938  -33.0664 H   0  0  0  0  0  0  0  0  0  0  0  0
   -2.3780   17.3130  -36.0270 H   0  0  0  0  0  0  0  0  0  0  0  0
   -3.4653   15.3227  -35.9820 H   0  0  0  0  0  0  0  0  0  0  0  0
   -3.0018   15.0737  -34.2313 H   0  0  0  0  0  0  0  0  0  0  0  0
   -5.5056   15.7976  -35.0612 H   0  0  0  0  0  0  0  0  0  0  0  0
   -4.7898   16.1900  -33.4452 H   0  0  0  0  0  0  0  0  0  0  0  0
   -5.7700   20.1383  -32.2026 H   0  0  0  0  0  0  0  0  0  0  0  0
   -4.3969   21.2593  -33.2378 H   0  0  0  0  0  0  0  0  0  0  0  0
   -3.5863   22.8653  -33.4014 H   0  0  0  0  0  0  0  0  0  0  0  0
  1  2  1  0
  2  3  2  0
  2  4  1  0
  4  5  2  0
  5  6  1  0
  6  7  2  0
  7  8  1  0
  8  9  2  0
  9 10  1  0
 10 11  1  0
 11 12  2  0
 11 13  1  0
 13 14  1  0
 14 15  1  0
 15 16  1  0
 16 17  1  0
 17 18  1  0
 18 19  1  0
  9 20  1  0
 20 21  2  0
 21 22  1  0
 22 23  1  0
 23 24  2  0
 23 25  1  0
 25 26  1  0
 22  4  1  0
 21  6  1  0
 19 14  1  0
  1 27  1  0
  5 28  1  0
  7 29  1  0
  8 30  1  0
 10 31  1  0
 10 32  1  0
 13 33  1  0
 14 34  1  0
 15 35  1  0
 15 36  1  0
 16 37  1  0
 16 38  1  0
 17 39  1  0
 18 40  1  0
 18 41  1  0
 19 42  1  0
 19 43  1  0
 20 44  1  0
 25 45  1  0
 25 46  1  0
M  CHG  1   1  -1
M  END
>  <UniqueID>  (71) 
71

>  <SMILES>  (71) 
[NH-]C(=O)c1cc2ccc(CC(=O)NC3CCNCC3)cc2n1C(=O)CCl

>  <Energy>  (71) 
87.20687959093426

>  <Genealogy>  (71) 
[NH-]C(=O)c1cc2ccc(CC(=O)NC3CCNCC3)cc2n1C(=O)CCl (protonated)
[NH-]C(=O)c1cc2ccc(CC(=O)NC3CCNCC3)cc2n1C(=O)CCl (3D coordinates assigned)
[NH-]C(=O)c1cc2ccc(CC(=O)NC3CCNCC3)cc2n1C(=O)CCl (nonaromatic ring conformer: 87.20687959093426 kcal/mol)

>  <smiles>  (71) 
NC(=O)c1cc2ccc(CC(=O)NC3CCNCC3)cc2n1C(=O)CCl

>  <score_type>  (71) 
oracle

>  <origin>  (71) 
adg

>  <m_score__min__energy>  (71) 
-11.69

>  <m_primary>  (71) 
energy

$$$$
72:0
     RDKit          3D

 42 44  0  0  0  0  0  0  0  0999 V2000
   -1.2360   25.8720  -29.0020 N   0  0  0  0  0  0  0  0  0  0  0  0
   -1.5270   24.5870  -28.4550 C   0  0  0  0  0  0  0  0  0  0  0  0
   -1.7580   24.4790  -27.2230 O   0  0  0  0  0  0  0  0  0  0  0  0
   -1.5990   23.4090  -29.3460 C   0  0  0  0  0  0  0  0  0  0  0  0
   -0.7060   22.3430  -29.2800 C   0  0  0  0  0  0  0  0  0  0  0  0
   -1.0490   21.5130  -30.3230 C   0  0  0  0  0  0  0  0  0  0  0  0
   -0.4880   20.3050  -30.7260 C   0  0  0  0  0  0  0  0  0  0  0  0
   -1.0590   19.6520  -31.8320 C   0  0  0  0  0  0  0  0  0  0  0  0
   -2.1800   20.2060  -32.4980 C   0  0  0  0  0  0  0  0  0  0  0  0
   -2.7600   19.5160  -33.7020 C   0  0  0  0  0  0  0  0  0  0  0  0
   -4.1760   19.0920  -33.4230 C   0  0  0  0  0  0  0  0  0  0  0  0
   -4.9990   19.8710  -32.5960 C   0  0  0  0  0  0  0  0  0  0  0  0
   -6.3010   19.4560  -32.3040 C   0  0  0  0  0  0  0  0  0  0  0  0
   -6.8010   18.2560  -32.8240 C   0  0  0  0  0  0  0  0  0  0  0  0
   -8.1160   17.8910  -32.4890 O   0  0  0  0  0  0  0  0  0  0  0  0
   -8.9680   18.5670  -31.5610 C   0  0  0  0  0  0  0  0  0  0  0  0
   -9.3850   19.9360  -32.0970 C   0  0  0  0  0  0  0  0  0  0  0  0
   -9.1160   20.0300  -33.4660 O   0  0  0  0  0  0  0  0  0  0  0  0
   -5.9690   17.4640  -33.6400 C   0  0  0  0  0  0  0  0  0  0  0  0
   -4.6680   17.8800  -33.9340 C   0  0  0  0  0  0  0  0  0  0  0  0
   -2.7160   21.4390  -32.0650 C   0  0  0  0  0  0  0  0  0  0  0  0
   -2.1160   22.0770  -30.9730 C   0  0  0  0  0  0  0  0  0  0  0  0
   -2.4680   23.2430  -30.3830 N   0  0  0  0  0  0  0  0  0  0  0  0
   -3.5770   24.0820  -30.7450 C   0  0  0  0  0  0  0  0  0  0  0  0
   -3.5550   25.3140  -30.4840 O   0  0  0  0  0  0  0  0  0  0  0  0
   -4.6730   23.5490  -31.4120 O   0  0  0  0  0  0  0  0  0  0  0  0
   -1.2390   26.0280  -30.0350 H   0  0  0  0  0  0  0  0  0  0  0  0
    0.1026   22.1953  -28.5490 H   0  0  0  0  0  0  0  0  0  0  0  0
    0.3746   19.8749  -30.1960 H   0  0  0  0  0  0  0  0  0  0  0  0
   -0.6313   18.7016  -32.1839 H   0  0  0  0  0  0  0  0  0  0  0  0
   -2.7491   20.2071  -34.5577 H   0  0  0  0  0  0  0  0  0  0  0  0
   -2.1564   18.6256  -33.9321 H   0  0  0  0  0  0  0  0  0  0  0  0
   -4.6175   20.8131  -32.1754 H   0  0  0  0  0  0  0  0  0  0  0  0
   -6.9393   20.0781  -31.6594 H   0  0  0  0  0  0  0  0  0  0  0  0
   -9.8681   17.9583  -31.3899 H   0  0  0  0  0  0  0  0  0  0  0  0
   -8.4163   18.7122  -30.6205 H   0  0  0  0  0  0  0  0  0  0  0  0
  -10.4630   20.0770  -31.9296 H   0  0  0  0  0  0  0  0  0  0  0  0
   -8.8137   20.7134  -31.5686 H   0  0  0  0  0  0  0  0  0  0  0  0
   -8.8300   19.1240  -33.7520 H   0  0  0  0  0  0  0  0  0  0  0  0
   -6.3454   16.5141  -34.0473 H   0  0  0  0  0  0  0  0  0  0  0  0
   -4.0248   17.2540  -34.5700 H   0  0  0  0  0  0  0  0  0  0  0  0
   -3.5830   21.8865  -32.5730 H   0  0  0  0  0  0  0  0  0  0  0  0
  1  2  1  0
  2  3  2  0
  2  4  1  0
  4  5  2  0
  5  6  1  0
  6  7  2  0
  7  8  1  0
  8  9  2  0
  9 10  1  0
 10 11  1  0
 11 12  2  0
 12 13  1  0
 13 14  2  0
 14 15  1  0
 15 16  1  0
 16 17  1  0
 17 18  1  0
 14 19  1  0
 19 20  2  0
  9 21  1  0
 21 22  2  0
 22 23  1  0
 23 24  1  0
 24 25  2  0
 24 26  1  0
 23  4  1  0
 22  6  1  0
 20 11  1  0
  1 27  1  0
  5 28  1  0
  7 29  1  0
  8 30  1  0
 10 31  1  0
 10 32  1  0
 12 33  1  0
 13 34  1  0
 16 35  1  0
 16 36  1  0
 17 37  1  0
 17 38  1  0
 18 39  1  0
 19 40  1  0
 20 41  1  0
 21 42  1  0
M  CHG  2   1  -1  26  -1
M  END
>  <UniqueID>  (72) 
72

>  <SMILES>  (72) 
[NH-]C(=O)c1cc2ccc(Cc3ccc(OCCO)cc3)cc2n1C(=O)[O-]

>  <Energy>  (72) 
81.09799526919429

>  <Genealogy>  (72) 
[NH-]C(=O)c1cc2ccc(Cc3ccc(OCCO)cc3)cc2n1C(=O)[O-] (protonated)
[NH-]C(=O)c1cc2ccc(Cc3ccc(OCCO)cc3)cc2n1C(=O)[O-] (3D coordinates assigned)
[NH-]C(=O)c1cc2ccc(Cc3ccc(OCCO)cc3)cc2n1C(=O)[O-] (optimized conformer: 81.09799526919429 kcal/mol)

>  <smiles>  (72) 
NC(=O)c1cc2ccc(Cc3ccc(OCCO)cc3)cc2n1C(=O)O

>  <score_type>  (72) 
oracle

>  <origin>  (72) 
adg

>  <m_score__min__energy>  (72) 
-11.710000000000001

>  <m_primary>  (72) 
energy

$$$$
73:0
     RDKit          3D

 44 46  0  0  0  0  0  0  0  0999 V2000
   -3.6040   25.2870  -30.2220 N   0  0  0  0  0  0  0  0  0  0  0  0
   -5.0060   25.3820  -30.4600 C   0  0  0  0  0  0  0  0  0  0  0  0
   -5.5520   26.5180  -30.4780 O   0  0  0  0  0  0  0  0  0  0  0  0
   -5.8260   24.1730  -30.6950 C   0  0  0  0  0  0  0  0  0  0  0  0
   -7.2190   24.1800  -30.7570 C   0  0  0  0  0  0  0  0  0  0  0  0
   -7.5780   22.8870  -31.0700 C   0  0  0  0  0  0  0  0  0  0  0  0
   -8.8330   22.3390  -31.3190 C   0  0  0  0  0  0  0  0  0  0  0  0
   -8.9000   20.9840  -31.6810 C   0  0  0  0  0  0  0  0  0  0  0  0
   -7.7240   20.1950  -31.7660 C   0  0  0  0  0  0  0  0  0  0  0  0
   -7.8020   18.7660  -32.2430 C   0  0  0  0  0  0  0  0  0  0  0  0
   -7.1350   17.9540  -31.3430 F   0  0  0  0  0  0  0  0  0  0  0  0
   -7.2120   18.6370  -33.4880 F   0  0  0  0  0  0  0  0  0  0  0  0
   -9.1190   18.3480  -32.3390 F   0  0  0  0  0  0  0  0  0  0  0  0
   -6.4670   20.7940  -31.5160 C   0  0  0  0  0  0  0  0  0  0  0  0
   -6.4310   22.1480  -31.1740 C   0  0  0  0  0  0  0  0  0  0  0  0
   -5.3480   22.9230  -30.9480 N   0  0  0  0  0  0  0  0  0  0  0  0
   -3.9750   22.5150  -31.0530 C   0  0  0  0  0  0  0  0  0  0  0  0
   -3.3710   22.6490  -32.1500 O   0  0  0  0  0  0  0  0  0  0  0  0
   -3.2420   21.9560  -29.8670 C   0  0  0  0  0  0  0  0  0  0  0  0
   -2.4740   23.0070  -29.1990 N   0  0  0  0  0  0  0  0  0  0  0  0
   -1.0430   22.9580  -29.0900 C   0  0  0  0  0  0  0  0  0  0  0  0
   -0.4470   21.8460  -29.1090 O   0  0  0  0  0  0  0  0  0  0  0  0
   -0.2340   24.2180  -28.9210 C   0  0  2  0  0  0  0  0  0  0  0  0
    0.7570   24.0870  -27.7420 C   0  0  0  0  0  0  0  0  0  0  0  0
    1.3390   25.4030  -27.4680 N   0  0  0  0  0  0  0  0  0  0  0  0
    0.3030   26.4050  -27.1390 C   0  0  0  0  0  0  0  0  0  0  0  0
   -1.1110   25.9930  -27.6020 C   0  0  0  0  0  0  0  0  0  0  0  0
   -1.0860   25.3640  -28.8740 O   0  0  0  0  0  0  0  0  0  0  0  0
   -3.1790   25.6750  -29.3490 H   0  0  0  0  0  0  0  0  0  0  0  0
   -7.8893   25.0363  -30.5912 H   0  0  0  0  0  0  0  0  0  0  0  0
   -9.7446   22.9489  -31.2348 H   0  0  0  0  0  0  0  0  0  0  0  0
   -9.8767   20.5285  -31.9015 H   0  0  0  0  0  0  0  0  0  0  0  0
   -5.5395   20.2072  -31.5892 H   0  0  0  0  0  0  0  0  0  0  0  0
   -3.9691   21.5326  -29.1584 H   0  0  0  0  0  0  0  0  0  0  0  0
   -2.5501   21.1736  -30.2121 H   0  0  0  0  0  0  0  0  0  0  0  0
   -2.9740   23.8940  -28.9690 H   0  0  0  0  0  0  0  0  0  0  0  0
    0.4024   24.3717  -29.8050 H   0  0  0  0  0  0  0  0  0  0  0  0
    0.2249   23.7248  -26.8500 H   0  0  0  0  0  0  0  0  0  0  0  0
    1.5524   23.3721  -27.9992 H   0  0  0  0  0  0  0  0  0  0  0  0
    1.9920   25.3030  -26.6500 H   0  0  0  0  0  0  0  0  0  0  0  0
    0.2865   26.5455  -26.0481 H   0  0  0  0  0  0  0  0  0  0  0  0
    0.5640   27.3316  -27.6712 H   0  0  0  0  0  0  0  0  0  0  0  0
   -1.5368   25.2938  -26.8672 H   0  0  0  0  0  0  0  0  0  0  0  0
   -1.7235   26.9031  -27.6823 H   0  0  0  0  0  0  0  0  0  0  0  0
  1  2  1  0
  2  3  2  0
  2  4  1  0
  4  5  2  0
  5  6  1  0
  6  7  2  0
  7  8  1  0
  8  9  2  0
  9 10  1  0
 10 11  1  0
 10 12  1  0
 10 13  1  0
  9 14  1  0
 14 15  2  0
 15 16  1  0
 16 17  1  0
 17 18  2  0
 17 19  1  0
 19 20  1  0
 20 21  1  0
 21 22  2  0
 21 23  1  0
 23 24  1  0
 24 25  1  0
 25 26  1  0
 26 27  1  0
 27 28  1  0
 16  4  1  0
 28 23  1  0
 15  6  1  0
  1 29  1  0
  5 30  1  0
  7 31  1  0
  8 32  1  0
 14 33  1  0
 19 34  1  0
 19 35  1  0
 20 36  1  0
 23 37  1  6
 24 38  1  0
 24 39  1  0
 25 40  1  0
 26 41  1  0
 26 42  1  0
 27 43  1  0
 27 44  1  0
M  CHG  1   1  -1
M  END
>  <UniqueID>  (73) 
73

>  <SMILES>  (73) 
[NH-]C(=O)c1cc2ccc(C(F)(F)F)cc2n1C(=O)CNC(=O)[C@@H]1CNCCO1

>  <Energy>  (73) 
91.3622798897813

>  <Genealogy>  (73) 
[NH-]C(=O)c1cc2ccc(C(F)(F)F)cc2n1C(=O)CNC(=O)[C@@H]1CNCCO1 (protonated)
[NH-]C(=O)c1cc2ccc(C(F)(F)F)cc2n1C(=O)CNC(=O)[C@@H]1CNCCO1 (3D coordinates assigned)
[NH-]C(=O)c1cc2ccc(C(F)(F)F)cc2n1C(=O)CNC(=O)[C@@H]1CNCCO1 (nonaromatic ring conformer: 91.3622798897813 kcal/mol)

>  <smiles>  (73) 
NC(=O)c1cc2ccc(C(F)(F)F)cc2n1C(=O)CNC(=O)[C@@H]1CNCCO1

>  <score_type>  (73) 
oracle

>  <origin>  (73) 
adg

>  <m_score__min__energy>  (73) 
-10.69

>  <m_primary>  (73) 
energy

$$$$
74:0
     RDKit          3D

 35 38  0  0  0  0  0  0  0  0999 V2000
   -6.0290   25.3000  -29.0660 N   0  0  0  0  0  0  0  0  0  0  0  0
   -5.8770   25.0050  -30.4550 C   0  0  0  0  0  0  0  0  0  0  0  0
   -5.3050   25.8420  -31.2040 O   0  0  0  0  0  0  0  0  0  0  0  0
   -6.3300   23.7180  -31.0210 C   0  0  0  0  0  0  0  0  0  0  0  0
   -7.6660   23.3260  -31.0740 C   0  0  0  0  0  0  0  0  0  0  0  0
   -7.6570   22.0890  -31.6800 C   0  0  0  0  0  0  0  0  0  0  0  0
   -8.7080   21.2260  -31.9640 C   0  0  0  0  0  0  0  0  0  0  0  0
   -8.4030   19.9860  -32.5510 C   0  0  0  0  0  0  0  0  0  0  0  0
   -7.0620   19.6190  -32.8300 C   0  0  0  0  0  0  0  0  0  0  0  0
   -6.8240   18.2540  -33.4540 C   0  0  0  0  0  0  0  0  0  0  0  0
   -5.4760   17.5940  -33.1980 C   0  0  0  0  0  0  0  0  0  0  0  0
   -5.7940   18.1700  -34.5730 C   0  0  0  0  0  0  0  0  0  0  0  0
   -6.0180   20.5280  -32.5150 C   0  0  0  0  0  0  0  0  0  0  0  0
   -6.3560   21.7680  -31.9600 C   0  0  0  0  0  0  0  0  0  0  0  0
   -5.5280   22.7630  -31.5680 N   0  0  0  0  0  0  0  0  0  0  0  0
   -4.0930   22.7400  -31.5870 C   0  0  0  0  0  0  0  0  0  0  0  0
   -3.4900   22.1660  -32.5340 O   0  0  0  0  0  0  0  0  0  0  0  0
   -3.3190   23.3520  -30.4960 C   0  0  0  0  0  0  0  0  0  0  0  0
   -2.7040   22.6920  -29.4540 C   0  0  0  0  0  0  0  0  0  0  0  0
   -2.1290   23.7060  -28.7190 C   0  0  0  0  0  0  0  0  0  0  0  0
   -2.4000   24.8900  -29.3020 N   0  0  0  0  0  0  0  0  0  0  0  0
   -3.1140   24.6400  -30.3600 O   0  0  0  0  0  0  0  0  0  0  0  0
   -6.3150   24.5650  -28.3840 H   0  0  0  0  0  0  0  0  0  0  0  0
   -5.7530   26.2390  -28.6980 H   0  0  0  0  0  0  0  0  0  0  0  0
   -8.5407   23.8848  -30.7098 H   0  0  0  0  0  0  0  0  0  0  0  0
   -9.7474   21.5048  -31.7363 H   0  0  0  0  0  0  0  0  0  0  0  0
   -9.2175   19.2891  -32.7979 H   0  0  0  0  0  0  0  0  0  0  0  0
   -7.8741   17.9478  -33.3375 H   0  0  0  0  0  0  0  0  0  0  0  0
   -4.7352   18.0885  -32.5524 H   0  0  0  0  0  0  0  0  0  0  0  0
   -5.1489   16.6133  -32.8221 H   0  0  0  0  0  0  0  0  0  0  0  0
   -5.2829   19.0803  -34.9198 H   0  0  0  0  0  0  0  0  0  0  0  0
   -5.7917   17.7775  -35.6006 H   0  0  0  0  0  0  0  0  0  0  0  0
   -4.9668   20.2639  -32.7028 H   0  0  0  0  0  0  0  0  0  0  0  0
   -2.6782   21.6103  -29.2557 H   0  0  0  0  0  0  0  0  0  0  0  0
   -1.5405   23.5699  -27.7997 H   0  0  0  0  0  0  0  0  0  0  0  0
  1  2  1  0
  2  3  2  0
  2  4  1  0
  4  5  2  0
  5  6  1  0
  6  7  2  0
  7  8  1  0
  8  9  2  0
  9 10  1  0
 10 11  1  0
 11 12  1  0
  9 13  1  0
 13 14  2  0
 14 15  1  0
 15 16  1  0
 16 17  2  0
 16 18  1  0
 18 19  2  0
 19 20  1  0
 20 21  2  0
 21 22  1  0
 15  4  1  0
 22 18  1  0
 14  6  1  0
 12 10  1  0
  1 23  1  0
  1 24  1  0
  5 25  1  0
  7 26  1  0
  8 27  1  0
 10 28  1  0
 11 29  1  0
 11 30  1  0
 12 31  1  0
 12 32  1  0
 13 33  1  0
 19 34  1  0
 20 35  1  0
M  END
>  <UniqueID>  (74) 
74

>  <SMILES>  (74) 
NC(=O)c1cc2ccc(C3CC3)cc2n1C(=O)c1ccno1

>  <Energy>  (74) 
375.5282799422486

>  <Genealogy>  (74) 
NC(=O)c1cc2ccc(C3CC3)cc2n1C(=O)c1ccno1 (3D coordinates assigned)
NC(=O)c1cc2ccc(C3CC3)cc2n1C(=O)c1ccno1 (nonaromatic ring conformer: 375.5282799422486 kcal/mol)

>  <smiles>  (74) 
NC(=O)c1cc2ccc(C3CC3)cc2n1C(=O)c1ccno1

>  <score_type>  (74) 
oracle

>  <origin>  (74) 
adg

>  <m_score__min__energy>  (74) 
-9.75

>  <m_primary>  (74) 
energy

$$$$
75:0
     RDKit          3D

 44 45  0  0  0  0  0  0  0  0999 V2000
   -7.2580   22.8700  -30.3750 C   0  0  0  0  0  0  0  0  0  0  0  0
   -7.3750   21.9820  -31.5790 C   0  0  0  0  0  0  0  0  0  0  0  0
   -7.3390   22.4770  -32.6970 O   0  0  0  0  0  0  0  0  0  0  0  0
   -7.6040   20.4940  -31.4240 C   0  0  0  0  0  0  0  0  0  0  0  0
   -8.0260   19.8720  -32.7070 N   0  0  2  0  0  0  0  0  0  0  0  0
   -9.4800   19.6350  -32.7350 C   0  0  0  0  0  0  0  0  0  0  0  0
   -7.2510   18.6450  -33.0480 C   0  0  0  0  0  0  0  0  0  0  0  0
   -5.7080   18.7720  -32.8580 C   0  0  0  0  0  0  0  0  0  0  0  0
   -5.1630   20.0860  -33.4500 C   0  0  0  0  0  0  0  0  0  0  0  0
   -4.0060   20.6080  -32.6360 C   0  0  0  0  0  0  0  0  0  0  0  0
   -2.7800   19.8960  -32.6170 C   0  0  0  0  0  0  0  0  0  0  0  0
   -1.6810   20.3770  -31.8840 C   0  0  0  0  0  0  0  0  0  0  0  0
   -1.8280   21.5810  -31.2050 C   0  0  0  0  0  0  0  0  0  0  0  0
   -0.9300   22.2650  -30.4120 C   0  0  0  0  0  0  0  0  0  0  0  0
   -1.6050   23.4080  -29.9850 C   0  0  0  0  0  0  0  0  0  0  0  0
   -0.9790   24.4520  -29.1460 C   0  0  0  0  0  0  0  0  0  0  0  0
   -1.6100   25.7130  -28.9610 N   0  0  0  0  0  0  0  0  0  0  0  0
    0.1490   24.2410  -28.6220 O   0  0  0  0  0  0  0  0  0  0  0  0
   -2.8750   23.4290  -30.4870 N   0  0  0  0  0  0  0  0  0  0  0  0
   -3.9090   24.3890  -30.2130 C   0  0  0  0  0  0  0  0  0  0  0  0
   -4.8230   24.1280  -29.3860 O   0  0  0  0  0  0  0  0  0  0  0  0
   -3.8860   25.6400  -30.8260 O   0  0  0  0  0  0  0  0  0  0  0  0
   -2.9980   22.3010  -31.2320 C   0  0  0  0  0  0  0  0  0  0  0  0
   -4.1190   21.8320  -31.9290 C   0  0  0  0  0  0  0  0  0  0  0  0
   -7.3381   22.2620  -29.4618 H   0  0  0  0  0  0  0  0  0  0  0  0
   -6.2846   23.3821  -30.3903 H   0  0  0  0  0  0  0  0  0  0  0  0
   -8.0655   23.6168  -30.3903 H   0  0  0  0  0  0  0  0  0  0  0  0
   -6.6693   20.0214  -31.0879 H   0  0  0  0  0  0  0  0  0  0  0  0
   -8.4059   20.3428  -30.6864 H   0  0  0  0  0  0  0  0  0  0  0  0
   -7.8390   20.5680  -33.4730 H   0  0  0  0  0  0  0  0  0  0  0  0
   -9.8613   19.5729  -31.7051 H   0  0  0  0  0  0  0  0  0  0  0  0
   -9.9766   20.4641  -33.2604 H   0  0  0  0  0  0  0  0  0  0  0  0
   -9.6876   18.6912  -33.2604 H   0  0  0  0  0  0  0  0  0  0  0  0
   -7.6084   17.8254  -32.4072 H   0  0  0  0  0  0  0  0  0  0  0  0
   -7.4170   18.4619  -34.1199 H   0  0  0  0  0  0  0  0  0  0  0  0
   -5.4785   18.7442  -31.7826 H   0  0  0  0  0  0  0  0  0  0  0  0
   -5.2291   17.9349  -33.3871 H   0  0  0  0  0  0  0  0  0  0  0  0
   -4.8240   19.9027  -34.4803 H   0  0  0  0  0  0  0  0  0  0  0  0
   -5.9673   20.8362  -33.4360 H   0  0  0  0  0  0  0  0  0  0  0  0
   -2.6877   18.9568  -33.1821 H   0  0  0  0  0  0  0  0  0  0  0  0
   -0.7343   19.8180  -31.8489 H   0  0  0  0  0  0  0  0  0  0  0  0
    0.1014   21.9707  -30.1679 H   0  0  0  0  0  0  0  0  0  0  0  0
   -2.6470   25.8080  -29.0410 H   0  0  0  0  0  0  0  0  0  0  0  0
   -5.0620   22.3983  -31.9279 H   0  0  0  0  0  0  0  0  0  0  0  0
  1  2  1  0
  2  3  2  0
  2  4  1  0
  4  5  1  0
  5  6  1  0
  5  7  1  0
  7  8  1  0
  8  9  1  0
  9 10  1  0
 10 11  2  0
 11 12  1  0
 12 13  2  0
 13 14  1  0
 14 15  2  0
 15 16  1  0
 16 17  1  0
 16 18  2  0
 15 19  1  0
 19 20  1  0
 20 21  2  0
 20 22  1  0
 19 23  1  0
 23 24  2  0
 24 10  1  0
 23 13  1  0
  1 25  1  0
  1 26  1  0
  1 27  1  0
  4 28  1  0
  4 29  1  0
  5 30  1  6
  6 31  1  0
  6 32  1  0
  6 33  1  0
  7 34  1  0
  7 35  1  0
  8 36  1  0
  8 37  1  0
  9 38  1  0
  9 39  1  0
 11 40  1  0
 12 41  1  0
 14 42  1  0
 17 43  1  0
 24 44  1  0
M  CHG  3   5   1  17  -1  22  -1
M  END
>  <UniqueID>  (75) 
75

>  <SMILES>  (75) 
CC(=O)C[N@H+](C)CCCc1ccc2cc(C([NH-])=O)n(C(=O)[O-])c2c1

>  <Energy>  (75) 
86.40976234513221

>  <Genealogy>  (75) 
CC(=O)C[NH+](C)CCCc1ccc2cc(C([NH-])=O)n(C(=O)[O-])c2c1 (protonated)
CC(=O)C[N@H+](C)CCCc1ccc2cc(C([NH-])=O)n(C(=O)[O-])c2c1 (chirality)
CC(=O)C[N@H+](C)CCCc1ccc2cc(C([NH-])=O)n(C(=O)[O-])c2c1 (3D coordinates assigned)
CC(=O)C[N@H+](C)CCCc1ccc2cc(C([NH-])=O)n(C(=O)[O-])c2c1 (optimized conformer: 86.40976234513221 kcal/mol)

>  <smiles>  (75) 
CC(=O)CN(C)CCCc1ccc2cc(C(N)=O)n(C(=O)O)c2c1

>  <score_type>  (75) 
oracle

>  <origin>  (75) 
adg

>  <m_score__min__energy>  (75) 
-11.210000000000001

>  <m_primary>  (75) 
energy

$$$$
76:0
     RDKit          3D

 44 46  0  0  0  0  0  0  0  0999 V2000
   -3.8960   25.2450  -30.7470 N   0  0  0  0  0  0  0  0  0  0  0  0
   -5.2830   25.2140  -30.4170 C   0  0  0  0  0  0  0  0  0  0  0  0
   -5.7910   26.1820  -29.7930 O   0  0  0  0  0  0  0  0  0  0  0  0
   -6.0960   24.0320  -30.7720 C   0  0  0  0  0  0  0  0  0  0  0  0
   -7.4850   24.0650  -30.8930 C   0  0  0  0  0  0  0  0  0  0  0  0
   -7.8430   22.8050  -31.3170 C   0  0  0  0  0  0  0  0  0  0  0  0
   -9.1010   22.2780  -31.5950 C   0  0  0  0  0  0  0  0  0  0  0  0
   -9.1790   20.9350  -31.9950 C   0  0  0  0  0  0  0  0  0  0  0  0
   -8.0080   20.1430  -32.0940 C   0  0  0  0  0  0  0  0  0  0  0  0
   -8.1000   18.7110  -32.5450 C   0  0  0  0  0  0  0  0  0  0  0  0
   -6.9740   17.8790  -31.9260 C   0  0  0  0  0  0  0  0  0  0  0  0
   -5.9650   17.4920  -32.9740 C   0  0  0  0  0  0  0  0  0  0  0  0
   -5.9720   18.1080  -34.2330 C   0  0  0  0  0  0  0  0  0  0  0  0
   -5.0100   17.7620  -35.1830 C   0  0  0  0  0  0  0  0  0  0  0  0
   -4.0400   16.8110  -34.8610 C   0  0  0  0  0  0  0  0  0  0  0  0
   -4.0350   16.2300  -33.6310 N   0  0  0  0  0  0  0  0  0  0  0  0
   -4.9640   16.5500  -32.6890 C   0  0  0  0  0  0  0  0  0  0  0  0
   -6.7470   20.7150  -31.8160 C   0  0  0  0  0  0  0  0  0  0  0  0
   -6.6980   22.0620  -31.4370 C   0  0  0  0  0  0  0  0  0  0  0  0
   -5.6160   22.8010  -31.1050 N   0  0  0  0  0  0  0  0  0  0  0  0
   -4.2570   22.3410  -31.0390 C   0  0  0  0  0  0  0  0  0  0  0  0
   -3.8340   21.7790  -29.9930 O   0  0  0  0  0  0  0  0  0  0  0  0
   -3.4060   22.5330  -32.1350 O   0  0  0  0  0  0  0  0  0  0  0  0
   -2.5950   21.5020  -32.6960 C   0  0  0  0  0  0  0  0  0  0  0  0
   -3.4530   20.3330  -33.1750 C   0  0  0  0  0  0  0  0  0  0  0  0
   -2.7570   19.5940  -34.1140 F   0  0  0  0  0  0  0  0  0  0  0  0
   -4.6120   20.8180  -33.7520 F   0  0  0  0  0  0  0  0  0  0  0  0
   -3.7900   19.5150  -32.1120 F   0  0  0  0  0  0  0  0  0  0  0  0
   -3.4870   26.0500  -31.2710 H   0  0  0  0  0  0  0  0  0  0  0  0
   -8.1522   24.9162  -30.6924 H   0  0  0  0  0  0  0  0  0  0  0  0
  -10.0067   22.8955  -31.5039 H   0  0  0  0  0  0  0  0  0  0  0  0
  -10.1577   20.4933  -32.2338 H   0  0  0  0  0  0  0  0  0  0  0  0
   -9.0698   18.2954  -32.2340 H   0  0  0  0  0  0  0  0  0  0  0  0
   -8.0058   18.6769  -33.6404 H   0  0  0  0  0  0  0  0  0  0  0  0
   -6.4749   18.4705  -31.1443 H   0  0  0  0  0  0  0  0  0  0  0  0
   -7.4051   16.9642  -31.4932 H   0  0  0  0  0  0  0  0  0  0  0  0
   -6.7350   18.8634  -34.4720 H   0  0  0  0  0  0  0  0  0  0  0  0
   -5.0160   18.2343  -36.1764 H   0  0  0  0  0  0  0  0  0  0  0  0
   -3.2782   16.5309  -35.6034 H   0  0  0  0  0  0  0  0  0  0  0  0
   -3.3000   15.5230  -33.4040 H   0  0  0  0  0  0  0  0  0  0  0  0
   -4.9302   16.0686  -31.7005 H   0  0  0  0  0  0  0  0  0  0  0  0
   -5.8268   20.1175  -31.8952 H   0  0  0  0  0  0  0  0  0  0  0  0
   -2.0334   21.9099  -33.5494 H   0  0  0  0  0  0  0  0  0  0  0  0
   -1.9051   21.1369  -31.9209 H   0  0  0  0  0  0  0  0  0  0  0  0
  1  2  1  0
  2  3  2  0
  2  4  1  0
  4  5  2  0
  5  6  1  0
  6  7  2  0
  7  8  1  0
  8  9  2  0
  9 10  1  0
 10 11  1  0
 11 12  1  0
 12 13  2  0
 13 14  1  0
 14 15  2  0
 15 16  1  0
 16 17  2  0
  9 18  1  0
 18 19  2  0
 19 20  1  0
 20 21  1  0
 21 22  2  0
 21 23  1  0
 23 24  1  0
 24 25  1  0
 25 26  1  0
 25 27  1  0
 25 28  1  0
 20  4  1  0
 19  6  1  0
 17 12  1  0
  1 29  1  0
  5 30  1  0
  7 31  1  0
  8 32  1  0
 10 33  1  0
 10 34  1  0
 11 35  1  0
 11 36  1  0
 13 37  1  0
 14 38  1  0
 15 39  1  0
 16 40  1  0
 17 41  1  0
 18 42  1  0
 24 43  1  0
 24 44  1  0
M  CHG  2   1  -1  16   1
M  END
>  <UniqueID>  (76) 
76

>  <SMILES>  (76) 
[NH-]C(=O)c1cc2ccc(CCc3ccc[nH+]c3)cc2n1C(=O)OCC(F)(F)F

>  <Energy>  (76) 
78.44372296234958

>  <Genealogy>  (76) 
[NH-]C(=O)c1cc2ccc(CCc3ccc[nH+]c3)cc2n1C(=O)OCC(F)(F)F (protonated)
[NH-]C(=O)c1cc2ccc(CCc3ccc[nH+]c3)cc2n1C(=O)OCC(F)(F)F (3D coordinates assigned)
[NH-]C(=O)c1cc2ccc(CCc3ccc[nH+]c3)cc2n1C(=O)OCC(F)(F)F (optimized conformer: 78.44372296234958 kcal/mol)

>  <smiles>  (76) 
NC(=O)c1cc2ccc(CCc3cccnc3)cc2n1C(=O)OCC(F)(F)F

>  <score_type>  (76) 
oracle

>  <origin>  (76) 
adg

>  <m_score__min__energy>  (76) 
-10.26

>  <m_primary>  (76) 
energy

$$$$
77:0
     RDKit          3D

 32 34  0  0  0  0  0  0  0  0999 V2000
   -3.4850   16.1510  -35.2640 C   0  0  0  0  0  0  0  0  0  0  0  0
   -3.5170   17.4560  -34.6180 N   0  0  0  0  0  0  0  0  0  0  0  0
   -4.6240   18.1150  -34.2340 C   0  0  0  0  0  0  0  0  0  0  0  0
   -4.2320   19.2780  -33.5910 C   0  0  0  0  0  0  0  0  0  0  0  0
   -5.1040   20.3220  -32.9940 C   0  0  0  0  0  0  0  0  0  0  0  0
   -6.5130   20.2590  -33.1530 C   0  0  0  0  0  0  0  0  0  0  0  0
   -7.3460   21.2470  -32.6050 C   0  0  0  0  0  0  0  0  0  0  0  0
   -6.7510   22.2820  -31.8940 C   0  0  0  0  0  0  0  0  0  0  0  0
   -7.3200   23.3810  -31.2930 C   0  0  0  0  0  0  0  0  0  0  0  0
   -6.2560   24.0900  -30.7430 C   0  0  0  0  0  0  0  0  0  0  0  0
   -6.4270   25.3220  -29.9470 C   0  0  0  0  0  0  0  0  0  0  0  0
   -5.6530   26.4910  -30.2180 N   0  0  0  0  0  0  0  0  0  0  0  0
   -7.2300   25.3240  -28.9760 O   0  0  0  0  0  0  0  0  0  0  0  0
   -5.0730   23.4650  -31.0040 N   0  0  0  0  0  0  0  0  0  0  0  0
   -3.7500   23.9400  -30.7040 C   0  0  0  0  0  0  0  0  0  0  0  0
   -2.7840   23.1360  -30.6430 O   0  0  0  0  0  0  0  0  0  0  0  0
   -3.5220   25.2920  -30.4770 O   0  0  0  0  0  0  0  0  0  0  0  0
   -5.3950   22.3560  -31.7090 C   0  0  0  0  0  0  0  0  0  0  0  0
   -4.5380   21.3970  -32.2640 C   0  0  0  0  0  0  0  0  0  0  0  0
   -2.8440   19.2410  -33.6180 C   0  0  0  0  0  0  0  0  0  0  0  0
   -2.4360   18.1190  -34.2410 N   0  0  0  0  0  0  0  0  0  0  0  0
   -3.4657   15.3626  -34.4971 H   0  0  0  0  0  0  0  0  0  0  0  0
   -4.3805   16.0304  -35.8914 H   0  0  0  0  0  0  0  0  0  0  0  0
   -2.5847   16.0744  -35.8914 H   0  0  0  0  0  0  0  0  0  0  0  0
   -5.6608   17.7878  -34.4012 H   0  0  0  0  0  0  0  0  0  0  0  0
   -6.9585   19.4240  -33.7137 H   0  0  0  0  0  0  0  0  0  0  0  0
   -8.4375   21.2032  -32.7346 H   0  0  0  0  0  0  0  0  0  0  0  0
   -8.3876   23.6433  -31.2552 H   0  0  0  0  0  0  0  0  0  0  0  0
   -5.8150   27.3650  -29.6700 H   0  0  0  0  0  0  0  0  0  0  0  0
   -4.8630   26.4690  -30.8990 H   0  0  0  0  0  0  0  0  0  0  0  0
   -3.4484   21.4766  -32.1359 H   0  0  0  0  0  0  0  0  0  0  0  0
   -2.1802   20.0097  -33.1956 H   0  0  0  0  0  0  0  0  0  0  0  0
  1  2  1  0
  2  3  1  0
  3  4  2  0
  4  5  1  0
  5  6  2  0
  6  7  1  0
  7  8  2  0
  8  9  1  0
  9 10  2  0
 10 11  1  0
 11 12  1  0
 11 13  2  0
 10 14  1  0
 14 15  1  0
 15 16  2  0
 15 17  1  0
 14 18  1  0
 18 19  2  0
  4 20  1  0
 20 21  2  0
 21  2  1  0
 19  5  1  0
 18  8  1  0
  1 22  1  0
  1 23  1  0
  1 24  1  0
  3 25  1  0
  6 26  1  0
  7 27  1  0
  9 28  1  0
 12 29  1  0
 12 30  1  0
 19 31  1  0
 20 32  1  0
M  CHG  1  17  -1
M  END
>  <UniqueID>  (77) 
77

>  <SMILES>  (77) 
Cn1cc(-c2ccc3cc(C(N)=O)n(C(=O)[O-])c3c2)cn1

>  <Energy>  (77) 
105.6967249379451

>  <Genealogy>  (77) 
Cn1cc(-c2ccc3cc(C(N)=O)n(C(=O)[O-])c3c2)cn1 (protonated)
Cn1cc(-c2ccc3cc(C(N)=O)n(C(=O)[O-])c3c2)cn1 (3D coordinates assigned)
Cn1cc(-c2ccc3cc(C(N)=O)n(C(=O)[O-])c3c2)cn1 (optimized conformer: 105.6967249379451 kcal/mol)

>  <smiles>  (77) 
Cn1cc(-c2ccc3cc(C(N)=O)n(C(=O)O)c3c2)cn1

>  <score_type>  (77) 
oracle

>  <origin>  (77) 
adg

>  <m_score__min__energy>  (77) 
-8.9199999999999999

>  <m_primary>  (77) 
energy

$$$$
78:0
     RDKit          3D

 44 46  0  0  0  0  0  0  0  0999 V2000
   -7.5970   18.4400  -32.6400 C   0  0  0  0  0  0  0  0  0  0  0  0
   -7.6010   19.8980  -32.2940 C   0  0  0  0  0  0  0  0  0  0  0  0
   -8.8210   20.6150  -32.2340 C   0  0  0  0  0  0  0  0  0  0  0  0
   -8.8360   21.9760  -31.8850 C   0  0  0  0  0  0  0  0  0  0  0  0
   -7.6200   22.5870  -31.5910 C   0  0  0  0  0  0  0  0  0  0  0  0
   -7.3430   23.8870  -31.2310 C   0  0  0  0  0  0  0  0  0  0  0  0
   -5.9610   23.9330  -31.0500 C   0  0  0  0  0  0  0  0  0  0  0  0
   -5.2430   25.1130  -30.5320 C   0  0  0  0  0  0  0  0  0  0  0  0
   -3.8640   25.3000  -30.8400 N   0  0  0  0  0  0  0  0  0  0  0  0
   -5.8470   25.9820  -29.8470 O   0  0  0  0  0  0  0  0  0  0  0  0
   -5.4060   22.7140  -31.3080 N   0  0  0  0  0  0  0  0  0  0  0  0
   -4.0160   22.3540  -31.3040 C   0  0  0  0  0  0  0  0  0  0  0  0
   -3.3680   22.3780  -32.3850 O   0  0  0  0  0  0  0  0  0  0  0  0
   -3.3020   22.0110  -30.0170 C   0  0  0  0  0  0  0  0  0  0  0  0
   -2.6280   23.1640  -29.3840 N   0  0  0  0  0  0  0  0  0  0  0  0
   -3.2990   23.6270  -28.1480 C   0  0  0  0  0  0  0  0  0  0  0  0
   -2.4800   24.7150  -27.4140 C   0  0  0  0  0  0  0  0  0  0  0  0
   -1.4490   25.3710  -28.3450 C   0  0  0  0  0  0  0  0  0  0  0  0
   -0.7150   26.4170  -27.6310 N   0  0  0  0  0  0  0  0  0  0  0  0
   -0.4860   24.3110  -28.9390 C   0  0  0  0  0  0  0  0  0  0  0  0
   -1.1820   22.9600  -29.1830 C   0  0  0  0  0  0  0  0  0  0  0  0
   -6.4350   21.9000  -31.6210 C   0  0  0  0  0  0  0  0  0  0  0  0
   -6.3890   20.5460  -31.9700 C   0  0  0  0  0  0  0  0  0  0  0  0
   -7.5954   17.8438  -31.7156 H   0  0  0  0  0  0  0  0  0  0  0  0
   -8.4945   18.2005  -33.2292 H   0  0  0  0  0  0  0  0  0  0  0  0
   -6.6982   18.2054  -33.2292 H   0  0  0  0  0  0  0  0  0  0  0  0
   -9.7663   20.1012  -32.4629 H   0  0  0  0  0  0  0  0  0  0  0  0
   -9.7790   22.5410  -31.8453 H   0  0  0  0  0  0  0  0  0  0  0  0
   -8.0593   24.7132  -31.1116 H   0  0  0  0  0  0  0  0  0  0  0  0
   -3.2380   24.4840  -31.0210 H   0  0  0  0  0  0  0  0  0  0  0  0
   -4.0399   21.6082  -29.3076 H   0  0  0  0  0  0  0  0  0  0  0  0
   -2.5190   21.2808  -30.2694 H   0  0  0  0  0  0  0  0  0  0  0  0
   -4.2829   24.0417  -28.4126 H   0  0  0  0  0  0  0  0  0  0  0  0
   -3.3981   22.7643  -27.4728 H   0  0  0  0  0  0  0  0  0  0  0  0
   -3.1675   25.4886  -27.0412 H   0  0  0  0  0  0  0  0  0  0  0  0
   -1.9391   24.2371  -26.5839 H   0  0  0  0  0  0  0  0  0  0  0  0
   -1.9827   25.8393  -29.1852 H   0  0  0  0  0  0  0  0  0  0  0  0
   -0.4720   27.1880  -28.2950 H   0  0  0  0  0  0  0  0  0  0  0  0
   -1.3430   26.8220  -26.8980 H   0  0  0  0  0  0  0  0  0  0  0  0
   -0.0952   24.6855  -29.8966 H   0  0  0  0  0  0  0  0  0  0  0  0
    0.3225   24.1461  -28.2116 H   0  0  0  0  0  0  0  0  0  0  0  0
   -0.7534   22.4865  -30.0786 H   0  0  0  0  0  0  0  0  0  0  0  0
   -1.0281   22.3124  -28.3072 H   0  0  0  0  0  0  0  0  0  0  0  0
   -5.4339   20.0006  -31.9914 H   0  0  0  0  0  0  0  0  0  0  0  0
  1  2  1  0
  2  3  2  0
  3  4  1  0
  4  5  2  0
  5  6  1  0
  6  7  2  0
  7  8  1  0
  8  9  1  0
  8 10  2  0
  7 11  1  0
 11 12  1  0
 12 13  2  0
 12 14  1  0
 14 15  1  0
 15 16  1  0
 16 17  1  0
 17 18  1  0
 18 19  1  0
 18 20  1  0
 20 21  1  0
 11 22  1  0
 22 23  2  0
 23  2  1  0
 22  5  1  0
 21 15  1  0
  1 24  1  0
  1 25  1  0
  1 26  1  0
  3 27  1  0
  4 28  1  0
  6 29  1  0
  9 30  1  0
 14 31  1  0
 14 32  1  0
 16 33  1  0
 16 34  1  0
 17 35  1  0
 17 36  1  0
 18 37  1  0
 19 38  1  0
 19 39  1  0
 20 40  1  0
 20 41  1  0
 21 42  1  0
 21 43  1  0
 23 44  1  0
M  CHG  1   9  -1
M  END
>  <UniqueID>  (78) 
78

>  <SMILES>  (78) 
Cc1ccc2cc(C([NH-])=O)n(C(=O)CN3CCC(N)CC3)c2c1

>  <Energy>  (78) 
89.93273656177638

>  <Genealogy>  (78) 
Cc1ccc2cc(C([NH-])=O)n(C(=O)CN3CCC(N)CC3)c2c1 (protonated)
Cc1ccc2cc(C([NH-])=O)n(C(=O)CN3CCC(N)CC3)c2c1 (3D coordinates assigned)
Cc1ccc2cc(C([NH-])=O)n(C(=O)CN3CCC(N)CC3)c2c1 (nonaromatic ring conformer: 89.93273656177638 kcal/mol)

>  <smiles>  (78) 
Cc1ccc2cc(C(N)=O)n(C(=O)CN3CCC(N)CC3)c2c1

>  <score_type>  (78) 
oracle

>  <origin>  (78) 
adg

>  <m_score__min__energy>  (78) 
-10.720000000000001

>  <m_primary>  (78) 
energy

$$$$
79:0
     RDKit          3D

 31 33  0  0  0  0  0  0  0  0999 V2000
   -1.2600   25.2370  -29.2100 N   0  0  0  0  0  0  0  0  0  0  0  0
   -0.9650   23.8420  -29.3040 C   0  0  0  0  0  0  0  0  0  0  0  0
    0.0100   23.3760  -28.6570 O   0  0  0  0  0  0  0  0  0  0  0  0
   -1.8140   22.9440  -30.1170 C   0  0  0  0  0  0  0  0  0  0  0  0
   -1.3670   21.7440  -30.6680 C   0  0  0  0  0  0  0  0  0  0  0  0
   -2.4180   21.2750  -31.4220 C   0  0  0  0  0  0  0  0  0  0  0  0
   -2.5250   20.1140  -32.1800 C   0  0  0  0  0  0  0  0  0  0  0  0
   -3.7410   19.8660  -32.8370 C   0  0  0  0  0  0  0  0  0  0  0  0
   -4.8300   20.7730  -32.7220 C   0  0  0  0  0  0  0  0  0  0  0  0
   -6.1590   20.5220  -33.4100 C   0  0  0  0  0  0  0  0  0  0  0  0
   -6.3990   19.0830  -33.8390 C   0  0  0  0  0  0  0  0  0  0  0  0
   -7.5230   18.9110  -32.9150 N   0  0  0  0  0  0  0  0  0  0  0  0
   -7.3360   20.2950  -32.4730 C   0  0  0  0  0  0  0  0  0  0  0  0
   -4.6780   21.9420  -31.9410 C   0  0  0  0  0  0  0  0  0  0  0  0
   -3.4470   22.1720  -31.3120 C   0  0  0  0  0  0  0  0  0  0  0  0
   -3.0920   23.2050  -30.5130 N   0  0  0  0  0  0  0  0  0  0  0  0
   -3.9250   24.3030  -30.1060 C   0  0  0  0  0  0  0  0  0  0  0  0
   -4.7100   24.1810  -29.1300 O   0  0  0  0  0  0  0  0  0  0  0  0
   -3.8620   25.5180  -30.7760 O   0  0  0  0  0  0  0  0  0  0  0  0
   -2.0250   25.6680  -29.7720 H   0  0  0  0  0  0  0  0  0  0  0  0
   -0.6770   25.8550  -28.6020 H   0  0  0  0  0  0  0  0  0  0  0  0
   -0.3830   21.2723  -30.5294 H   0  0  0  0  0  0  0  0  0  0  0  0
   -1.6827   19.4113  -32.2624 H   0  0  0  0  0  0  0  0  0  0  0  0
   -3.8525   18.9584  -33.4485 H   0  0  0  0  0  0  0  0  0  0  0  0
   -6.1089   21.3608  -34.1199 H   0  0  0  0  0  0  0  0  0  0  0  0
   -6.6842   18.9844  -34.8968 H   0  0  0  0  0  0  0  0  0  0  0  0
   -5.5621   18.3707  -33.7919 H   0  0  0  0  0  0  0  0  0  0  0  0
   -8.4070   18.8580  -33.4740 H   0  0  0  0  0  0  0  0  0  0  0  0
   -8.1981   20.9430  -32.6896 H   0  0  0  0  0  0  0  0  0  0  0  0
   -7.2033   20.4940  -31.3993 H   0  0  0  0  0  0  0  0  0  0  0  0
   -5.5079   22.6553  -31.8296 H   0  0  0  0  0  0  0  0  0  0  0  0
  1  2  1  0
  2  3  2  0
  2  4  1  0
  4  5  2  0
  5  6  1  0
  6  7  2  0
  7  8  1  0
  8  9  2  0
  9 10  1  0
 10 11  1  0
 11 12  1  0
 12 13  1  0
  9 14  1  0
 14 15  2  0
 15 16  1  0
 16 17  1  0
 17 18  2  0
 17 19  1  0
 16  4  1  0
 15  6  1  0
 13 10  1  0
  1 20  1  0
  1 21  1  0
  5 22  1  0
  7 23  1  0
  8 24  1  0
 10 25  1  0
 11 26  1  0
 11 27  1  0
 12 28  1  0
 13 29  1  0
 13 30  1  0
 14 31  1  0
M  CHG  1  19  -1
M  END
>  <UniqueID>  (79) 
79

>  <SMILES>  (79) 
NC(=O)c1cc2ccc(C3CNC3)cc2n1C(=O)[O-]

>  <Energy>  (79) 
140.26315363337682

>  <Genealogy>  (79) 
NC(=O)c1cc2ccc(C3CNC3)cc2n1C(=O)[O-] (protonated)
NC(=O)c1cc2ccc(C3CNC3)cc2n1C(=O)[O-] (3D coordinates assigned)
NC(=O)c1cc2ccc(C3CNC3)cc2n1C(=O)[O-] (nonaromatic ring conformer: 140.26315363337682 kcal/mol)

>  <smiles>  (79) 
NC(=O)c1cc2ccc(C3CNC3)cc2n1C(=O)O

>  <score_type>  (79) 
oracle

>  <origin>  (79) 
adg

>  <m_score__min__energy>  (79) 
-8.6199999999999992

>  <m_primary>  (79) 
energy

$$$$
80:0
     RDKit          3D

 48 50  0  0  0  0  0  0  0  0999 V2000
   -8.4360   18.1760  -32.3820 C   0  0  0  0  0  0  0  0  0  0  0  0
   -8.2570   19.6190  -32.0250 C   0  0  0  0  0  0  0  0  0  0  0  0
   -9.3770   20.4850  -31.9560 C   0  0  0  0  0  0  0  0  0  0  0  0
   -9.2200   21.8330  -31.5950 C   0  0  0  0  0  0  0  0  0  0  0  0
   -7.9350   22.2840  -31.3030 C   0  0  0  0  0  0  0  0  0  0  0  0
   -7.4980   23.5290  -30.9150 C   0  0  0  0  0  0  0  0  0  0  0  0
   -6.1200   23.4010  -30.7370 C   0  0  0  0  0  0  0  0  0  0  0  0
   -5.2260   24.5130  -30.3310 C   0  0  0  0  0  0  0  0  0  0  0  0
   -5.1280   24.9090  -28.9600 N   0  0  0  0  0  0  0  0  0  0  0  0
   -4.5360   25.1220  -31.1900 O   0  0  0  0  0  0  0  0  0  0  0  0
   -5.7260   22.1260  -31.0140 N   0  0  0  0  0  0  0  0  0  0  0  0
   -4.4030   21.5690  -30.9500 C   0  0  0  0  0  0  0  0  0  0  0  0
   -3.9120   21.2710  -29.8290 O   0  0  0  0  0  0  0  0  0  0  0  0
   -3.6490   21.3110  -32.1550 N   0  0  0  0  0  0  0  0  0  0  0  0
   -2.1870   21.3840  -32.0900 C   0  0  0  0  0  0  0  0  0  0  0  0
   -4.3200   20.9180  -33.4080 C   0  0  0  0  0  0  0  0  0  0  0  0
   -4.5730   19.3950  -33.5240 C   0  0  1  0  0  0  0  0  0  0  0  0
   -5.7350   18.9880  -34.4060 C   0  0  0  0  0  0  0  0  0  0  0  0
   -5.4260   17.5440  -34.7610 C   0  0  0  0  0  0  0  0  0  0  0  0
   -3.9580   17.3840  -34.7140 N   0  0  0  0  0  0  0  0  0  0  0  0
   -3.5740   16.1590  -33.9930 C   0  0  0  0  0  0  0  0  0  0  0  0
   -3.4020   18.5890  -34.0730 C   0  0  0  0  0  0  0  0  0  0  0  0
   -6.8470   21.4560  -31.3560 C   0  0  0  0  0  0  0  0  0  0  0  0
   -6.9740   20.1070  -31.7000 C   0  0  0  0  0  0  0  0  0  0  0  0
   -8.5103   17.5772  -31.4622 H   0  0  0  0  0  0  0  0  0  0  0  0
   -9.3559   18.0559  -32.9730 H   0  0  0  0  0  0  0  0  0  0  0  0
   -7.5733   17.8348  -32.9730 H   0  0  0  0  0  0  0  0  0  0  0  0
  -10.3799   20.0970  -32.1877 H   0  0  0  0  0  0  0  0  0  0  0  0
  -10.0845   22.5113  -31.5444 H   0  0  0  0  0  0  0  0  0  0  0  0
   -8.1064   24.4346  -30.7746 H   0  0  0  0  0  0  0  0  0  0  0  0
   -4.4700   25.6700  -28.6820 H   0  0  0  0  0  0  0  0  0  0  0  0
   -5.7430   24.4870  -28.2290 H   0  0  0  0  0  0  0  0  0  0  0  0
   -1.8671   21.4000  -31.0377 H   0  0  0  0  0  0  0  0  0  0  0  0
   -1.7534   20.5064  -32.5918 H   0  0  0  0  0  0  0  0  0  0  0  0
   -1.8430   22.3004  -32.5918 H   0  0  0  0  0  0  0  0  0  0  0  0
   -5.2887   21.4365  -33.4612 H   0  0  0  0  0  0  0  0  0  0  0  0
   -3.6499   21.1977  -34.2343 H   0  0  0  0  0  0  0  0  0  0  0  0
   -4.7736   19.1682  -32.4665 H   0  0  0  0  0  0  0  0  0  0  0  0
   -6.6872   19.0631  -33.8604 H   0  0  0  0  0  0  0  0  0  0  0  0
   -5.8451   19.6314  -35.2914 H   0  0  0  0  0  0  0  0  0  0  0  0
   -5.9017   16.8680  -34.0353 H   0  0  0  0  0  0  0  0  0  0  0  0
   -5.8126   17.2977  -35.7610 H   0  0  0  0  0  0  0  0  0  0  0  0
   -3.6303   16.3385  -32.9092 H   0  0  0  0  0  0  0  0  0  0  0  0
   -4.2594   15.3430  -34.2656 H   0  0  0  0  0  0  0  0  0  0  0  0
   -2.5454   15.8803  -34.2656 H   0  0  0  0  0  0  0  0  0  0  0  0
   -2.7267   18.3014  -33.2537 H   0  0  0  0  0  0  0  0  0  0  0  0
   -2.8269   19.1840  -34.7977 H   0  0  0  0  0  0  0  0  0  0  0  0
   -6.0967   19.4436  -31.7168 H   0  0  0  0  0  0  0  0  0  0  0  0
  1  2  1  0
  2  3  2  0
  3  4  1  0
  4  5  2  0
  5  6  1  0
  6  7  2  0
  7  8  1  0
  8  9  1  0
  8 10  2  0
  7 11  1  0
 11 12  1  0
 12 13  2  0
 12 14  1  0
 14 15  1  0
 14 16  1  0
 16 17  1  0
 17 18  1  0
 18 19  1  0
 19 20  1  0
 20 21  1  0
 20 22  1  0
 11 23  1  0
 23 24  2  0
 24  2  1  0
 23  5  1  0
 22 17  1  0
  1 25  1  0
  1 26  1  0
  1 27  1  0
  3 28  1  0
  4 29  1  0
  6 30  1  0
  9 31  1  0
  9 32  1  0
 15 33  1  0
 15 34  1  0
 15 35  1  0
 16 36  1  0
 16 37  1  0
 17 38  1  1
 18 39  1  0
 18 40  1  0
 19 41  1  0
 19 42  1  0
 21 43  1  0
 21 44  1  0
 21 45  1  0
 22 46  1  0
 22 47  1  0
 24 48  1  0
M  END
>  <UniqueID>  (80) 
80

>  <SMILES>  (80) 
Cc1ccc2cc(C(N)=O)n(C(=O)N(C)C[C@H]3CCN(C)C3)c2c1

>  <Energy>  (80) 
90.2304260348629

>  <Genealogy>  (80) 
Cc1ccc2cc(C(N)=O)n(C(=O)N(C)C[C@H]3CCN(C)C3)c2c1 (chirality)
Cc1ccc2cc(C(N)=O)n(C(=O)N(C)C[C@H]3CCN(C)C3)c2c1 (3D coordinates assigned)
Cc1ccc2cc(C(N)=O)n(C(=O)N(C)C[C@H]3CCN(C)C3)c2c1 (nonaromatic ring conformer: 90.2304260348629 kcal/mol)

>  <smiles>  (80) 
Cc1ccc2cc(C(N)=O)n(C(=O)N(C)CC3CCN(C)C3)c2c1

>  <score_type>  (80) 
oracle

>  <origin>  (80) 
adg

>  <m_score__min__energy>  (80) 
-9.1999999999999993

>  <m_primary>  (80) 
energy

$$$$
81:0
     RDKit          3D

 44 46  0  0  0  0  0  0  0  0999 V2000
   -1.7580   17.7150  -33.5720 C   0  0  0  0  0  0  0  0  0  0  0  0
   -2.4480   17.7690  -34.8150 O   0  0  0  0  0  0  0  0  0  0  0  0
   -3.5330   16.9380  -35.1140 C   0  0  0  0  0  0  0  0  0  0  0  0
   -3.4210   16.0510  -36.0040 O   0  0  0  0  0  0  0  0  0  0  0  0
   -4.8090   17.1020  -34.3840 C   0  0  0  0  0  0  0  0  0  0  0  0
   -5.6840   16.0170  -34.2230 C   0  0  0  0  0  0  0  0  0  0  0  0
   -6.8560   16.1750  -33.5550 N   0  0  0  0  0  0  0  0  0  0  0  0
   -7.2270   17.3700  -33.0250 C   0  0  0  0  0  0  0  0  0  0  0  0
   -6.3920   18.4910  -33.1510 C   0  0  0  0  0  0  0  0  0  0  0  0
   -6.7870   19.7990  -32.5710 C   0  0  0  0  0  0  0  0  0  0  0  0
   -8.1490   20.1980  -32.5670 C   0  0  0  0  0  0  0  0  0  0  0  0
   -8.5300   21.4470  -32.0500 C   0  0  0  0  0  0  0  0  0  0  0  0
   -7.5380   22.2630  -31.5190 C   0  0  0  0  0  0  0  0  0  0  0  0
   -7.6230   23.5450  -31.0280 C   0  0  0  0  0  0  0  0  0  0  0  0
   -6.3200   23.8970  -30.6860 C   0  0  0  0  0  0  0  0  0  0  0  0
   -5.9550   25.2360  -30.1720 C   0  0  0  0  0  0  0  0  0  0  0  0
   -4.9640   26.0440  -30.8070 N   0  0  0  0  0  0  0  0  0  0  0  0
   -6.5050   25.6590  -29.1200 O   0  0  0  0  0  0  0  0  0  0  0  0
   -5.4610   22.8690  -30.9460 N   0  0  0  0  0  0  0  0  0  0  0  0
   -4.0270   22.8750  -30.8210 C   0  0  0  0  0  0  0  0  0  0  0  0
   -3.4010   23.9680  -30.8740 O   0  0  0  0  0  0  0  0  0  0  0  0
   -3.2610   21.6030  -30.5950 C   0  0  0  0  0  0  0  0  0  0  0  0
   -1.8400   21.5040  -31.7380 S   0  0  0  0  0  0  0  0  0  0  0  0
   -2.8370   21.2010  -33.2340 C   0  0  0  0  0  0  0  0  0  0  0  0
   -6.2220   21.8830  -31.4760 C   0  0  0  0  0  0  0  0  0  0  0  0
   -5.8080   20.6650  -32.0290 C   0  0  0  0  0  0  0  0  0  0  0  0
   -5.1760   18.3440  -33.8390 C   0  0  0  0  0  0  0  0  0  0  0  0
   -2.4835   17.7718  -32.7471 H   0  0  0  0  0  0  0  0  0  0  0  0
   -1.1986   16.7703  -33.5039 H   0  0  0  0  0  0  0  0  0  0  0  0
   -1.0584   18.5611  -33.5039 H   0  0  0  0  0  0  0  0  0  0  0  0
   -5.4196   15.0339  -34.6397 H   0  0  0  0  0  0  0  0  0  0  0  0
   -8.1865   17.4592  -32.4946 H   0  0  0  0  0  0  0  0  0  0  0  0
   -8.9150   19.5212  -32.9735 H   0  0  0  0  0  0  0  0  0  0  0  0
   -9.5815   21.7697  -32.0649 H   0  0  0  0  0  0  0  0  0  0  0  0
   -8.5284   24.1615  -30.9269 H   0  0  0  0  0  0  0  0  0  0  0  0
   -4.3520   25.6630  -31.5570 H   0  0  0  0  0  0  0  0  0  0  0  0
   -4.7700   27.0070  -30.4540 H   0  0  0  0  0  0  0  0  0  0  0  0
   -2.8944   21.5800  -29.5581 H   0  0  0  0  0  0  0  0  0  0  0  0
   -3.9275   20.7475  -30.7793 H   0  0  0  0  0  0  0  0  0  0  0  0
   -3.8517   20.8926  -32.9421 H   0  0  0  0  0  0  0  0  0  0  0  0
   -2.8916   22.1231  -33.8313 H   0  0  0  0  0  0  0  0  0  0  0  0
   -2.3692   20.4045  -33.8313 H   0  0  0  0  0  0  0  0  0  0  0  0
   -4.7437   20.3872  -32.0418 H   0  0  0  0  0  0  0  0  0  0  0  0
   -4.5054   19.2086  -33.9520 H   0  0  0  0  0  0  0  0  0  0  0  0
  1  2  1  0
  2  3  1  0
  3  4  2  0
  3  5  1  0
  5  6  2  0
  6  7  1  0
  7  8  2  0
  8  9  1  0
  9 10  1  0
 10 11  2  0
 11 12  1  0
 12 13  2  0
 13 14  1  0
 14 15  2  0
 15 16  1  0
 16 17  1  0
 16 18  2  0
 15 19  1  0
 19 20  1  0
 20 21  2  0
 20 22  1  0
 22 23  1  0
 23 24  1  0
 19 25  1  0
 25 26  2  0
  9 27  2  0
 27  5  1  0
 26 10  1  0
 25 13  1  0
  1 28  1  0
  1 29  1  0
  1 30  1  0
  6 31  1  0
  8 32  1  0
 11 33  1  0
 12 34  1  0
 14 35  1  0
 17 36  1  0
 17 37  1  0
 22 38  1  0
 22 39  1  0
 24 40  1  0
 24 41  1  0
 24 42  1  0
 26 43  1  0
 27 44  1  0
M  END
>  <UniqueID>  (81) 
81

>  <SMILES>  (81) 
COC(=O)c1cncc(-c2ccc3cc(C(N)=O)n(C(=O)CSC)c3c2)c1

>  <Energy>  (81) 
87.1025228631283

>  <Genealogy>  (81) 
COC(=O)c1cncc(-c2ccc3cc(C(N)=O)n(C(=O)CSC)c3c2)c1 (3D coordinates assigned)
COC(=O)c1cncc(-c2ccc3cc(C(N)=O)n(C(=O)CSC)c3c2)c1 (optimized conformer: 87.1025228631283 kcal/mol)

>  <smiles>  (81) 
COC(=O)c1cncc(-c2ccc3cc(C(N)=O)n(C(=O)CSC)c3c2)c1

>  <score_type>  (81) 
oracle

>  <origin>  (81) 
adg

>  <m_score__min__energy>  (81) 
-9.1699999999999999

>  <m_primary>  (81) 
energy

$$$$
82:0
     RDKit          3D

 54 57  0  0  0  0  0  0  0  0999 V2000
    1.5050   24.7880  -26.4750 C   0  0  0  0  0  0  0  0  0  0  0  0
    0.9050   25.0970  -27.7280 O   0  0  0  0  0  0  0  0  0  0  0  0
   -0.4770   25.2600  -27.8840 C   0  0  0  0  0  0  0  0  0  0  0  0
   -1.0630   26.2400  -27.3390 O   0  0  0  0  0  0  0  0  0  0  0  0
   -1.2230   24.3060  -28.6680 N   0  0  0  0  0  0  0  0  0  0  0  0
   -0.4910   23.2640  -29.4050 C   0  0  0  0  0  0  0  0  0  0  0  0
   -1.4320   22.4250  -30.2790 C   0  0  0  0  0  0  0  0  0  0  0  0
   -2.6230   21.9110  -29.4590 C   0  0  0  0  0  0  0  0  0  0  0  0
   -3.5390   21.2640  -30.3430 O   0  0  0  0  0  0  0  0  0  0  0  0
   -4.2510   21.9360  -31.3400 C   0  0  0  0  0  0  0  0  0  0  0  0
   -3.6740   22.2930  -32.4040 O   0  0  0  0  0  0  0  0  0  0  0  0
   -5.6540   22.1980  -31.1610 N   0  0  0  0  0  0  0  0  0  0  0  0
   -6.2480   23.3830  -30.8440 C   0  0  0  0  0  0  0  0  0  0  0  0
   -5.5500   24.6120  -30.4160 C   0  0  0  0  0  0  0  0  0  0  0  0
   -5.8860   25.2660  -29.1910 N   0  0  0  0  0  0  0  0  0  0  0  0
   -4.6800   25.1240  -31.1700 O   0  0  0  0  0  0  0  0  0  0  0  0
   -7.6340   23.2810  -30.9460 C   0  0  0  0  0  0  0  0  0  0  0  0
   -7.8750   21.9820  -31.3320 C   0  0  0  0  0  0  0  0  0  0  0  0
   -9.0780   21.3440  -31.6260 C   0  0  0  0  0  0  0  0  0  0  0  0
   -9.0280   20.0120  -32.0690 C   0  0  0  0  0  0  0  0  0  0  0  0
   -7.7840   19.3460  -32.2080 C   0  0  0  0  0  0  0  0  0  0  0  0
   -7.7250   17.9320  -32.7170 C   0  0  0  0  0  0  0  0  0  0  0  0
   -6.4380   17.6860  -33.3650 N   0  0  0  0  0  0  0  0  0  0  0  0
   -6.0420   18.1890  -34.5500 C   0  0  0  0  0  0  0  0  0  0  0  0
   -4.7370   17.8000  -34.7710 C   0  0  0  0  0  0  0  0  0  0  0  0
   -4.3950   17.0590  -33.6520 C   0  0  0  0  0  0  0  0  0  0  0  0
   -5.4450   17.0090  -32.8060 N   0  0  0  0  0  0  0  0  0  0  0  0
   -6.5850   20.0250  -31.9020 C   0  0  0  0  0  0  0  0  0  0  0  0
   -6.6650   21.3490  -31.4530 C   0  0  0  0  0  0  0  0  0  0  0  0
   -3.3440   23.0420  -28.6730 C   0  0  0  0  0  0  0  0  0  0  0  0
   -2.6820   24.4210  -28.8150 C   0  0  0  0  0  0  0  0  0  0  0  0
    0.8478   25.1264  -25.6604 H   0  0  0  0  0  0  0  0  0  0  0  0
    1.6542   23.7009  -26.3981 H   0  0  0  0  0  0  0  0  0  0  0  0
    2.4767   25.2978  -26.3981 H   0  0  0  0  0  0  0  0  0  0  0  0
    0.2614   23.7434  -30.0485 H   0  0  0  0  0  0  0  0  0  0  0  0
   -0.0133   22.5958  -28.6734 H   0  0  0  0  0  0  0  0  0  0  0  0
   -1.8051   23.0461  -31.1067 H   0  0  0  0  0  0  0  0  0  0  0  0
   -0.8740   21.5614  -30.6700 H   0  0  0  0  0  0  0  0  0  0  0  0
   -2.2412   21.2042  -28.7076 H   0  0  0  0  0  0  0  0  0  0  0  0
   -6.7170   24.9710  -28.6310 H   0  0  0  0  0  0  0  0  0  0  0  0
   -5.3620   26.1180  -28.8910 H   0  0  0  0  0  0  0  0  0  0  0  0
   -8.3769   24.0702  -30.7581 H   0  0  0  0  0  0  0  0  0  0  0  0
  -10.0388   21.8679  -31.5145 H   0  0  0  0  0  0  0  0  0  0  0  0
   -9.9610   19.4815  -32.3099 H   0  0  0  0  0  0  0  0  0  0  0  0
   -7.8470   17.2362  -31.8738 H   0  0  0  0  0  0  0  0  0  0  0  0
   -8.5322   17.7780  -33.4483 H   0  0  0  0  0  0  0  0  0  0  0  0
   -6.6541   18.8044  -35.2257 H   0  0  0  0  0  0  0  0  0  0  0  0
   -4.1071   18.0280  -35.6435 H   0  0  0  0  0  0  0  0  0  0  0  0
   -3.4178   16.5843  -33.4795 H   0  0  0  0  0  0  0  0  0  0  0  0
   -5.6110   19.5261  -32.0136 H   0  0  0  0  0  0  0  0  0  0  0  0
   -4.3778   23.1149  -29.0418 H   0  0  0  0  0  0  0  0  0  0  0  0
   -3.2926   22.7722  -27.6078 H   0  0  0  0  0  0  0  0  0  0  0  0
   -2.9150   24.8346  -29.8073 H   0  0  0  0  0  0  0  0  0  0  0  0
   -3.0690   25.0857  -28.0286 H   0  0  0  0  0  0  0  0  0  0  0  0
  1  2  1  0
  2  3  1  0
  3  4  2  0
  3  5  1  0
  5  6  1  0
  6  7  1  0
  7  8  1  0
  8  9  1  0
  9 10  1  0
 10 11  2  0
 10 12  1  0
 12 13  1  0
 13 14  1  0
 14 15  1  0
 14 16  2  0
 13 17  2  0
 17 18  1  0
 18 19  2  0
 19 20  1  0
 20 21  2  0
 21 22  1  0
 22 23  1  0
 23 24  1  0
 24 25  2  0
 25 26  1  0
 26 27  2  0
 21 28  1  0
 28 29  2  0
  8 30  1  0
 30 31  1  0
 31  5  1  0
 29 12  1  0
 29 18  1  0
 27 23  1  0
  1 32  1  0
  1 33  1  0
  1 34  1  0
  6 35  1  0
  6 36  1  0
  7 37  1  0
  7 38  1  0
  8 39  1  0
 15 40  1  0
 15 41  1  0
 17 42  1  0
 19 43  1  0
 20 44  1  0
 22 45  1  0
 22 46  1  0
 24 47  1  0
 25 48  1  0
 26 49  1  0
 28 50  1  0
 30 51  1  0
 30 52  1  0
 31 53  1  0
 31 54  1  0
M  END
>  <UniqueID>  (82) 
82

>  <SMILES>  (82) 
COC(=O)N1CCC(OC(=O)n2c(C(N)=O)cc3ccc(Cn4cccn4)cc32)CC1

>  <Energy>  (82) 
120.5015034757402

>  <Genealogy>  (82) 
COC(=O)N1CCC(OC(=O)n2c(C(N)=O)cc3ccc(Cn4cccn4)cc32)CC1 (3D coordinates assigned)
COC(=O)N1CCC(OC(=O)n2c(C(N)=O)cc3ccc(Cn4cccn4)cc32)CC1 (nonaromatic ring conformer: 120.5015034757402 kcal/mol)

>  <smiles>  (82) 
COC(=O)N1CCC(OC(=O)n2c(C(N)=O)cc3ccc(Cn4cccn4)cc32)CC1

>  <score_type>  (82) 
oracle

>  <origin>  (82) 
adg

>  <m_score__min__energy>  (82) 
-10.32

>  <m_primary>  (82) 
energy

$$$$
83:0
     RDKit          3D

 31 32  0  0  0  0  0  0  0  0999 V2000
   -4.1770   25.5300  -30.6200 N   0  0  0  0  0  0  0  0  0  0  0  0
   -5.5450   25.1360  -30.5170 C   0  0  0  0  0  0  0  0  0  0  0  0
   -6.3870   25.9490  -30.0510 O   0  0  0  0  0  0  0  0  0  0  0  0
   -6.0020   23.8180  -31.0020 C   0  0  0  0  0  0  0  0  0  0  0  0
   -7.3420   23.4870  -31.1690 C   0  0  0  0  0  0  0  0  0  0  0  0
   -7.3380   22.2140  -31.6940 C   0  0  0  0  0  0  0  0  0  0  0  0
   -8.4020   21.3940  -32.0560 C   0  0  0  0  0  0  0  0  0  0  0  0
   -8.1080   20.1100  -32.5460 C   0  0  0  0  0  0  0  0  0  0  0  0
   -6.7640   19.6610  -32.6400 C   0  0  0  0  0  0  0  0  0  0  0  0
   -6.4600   18.2940  -33.2010 C   0  0  0  0  0  0  0  0  0  0  0  0
   -6.0920   18.4200  -34.5270 F   0  0  0  0  0  0  0  0  0  0  0  0
   -5.4250   17.6980  -32.5000 F   0  0  0  0  0  0  0  0  0  0  0  0
   -7.5700   17.4710  -33.1160 F   0  0  0  0  0  0  0  0  0  0  0  0
   -5.7110   20.5340  -32.2830 C   0  0  0  0  0  0  0  0  0  0  0  0
   -6.0330   21.8140  -31.8190 C   0  0  0  0  0  0  0  0  0  0  0  0
   -5.1980   22.7900  -31.3940 N   0  0  0  0  0  0  0  0  0  0  0  0
   -3.7680   22.7050  -31.2750 C   0  0  0  0  0  0  0  0  0  0  0  0
   -3.0660   22.4690  -32.2960 O   0  0  0  0  0  0  0  0  0  0  0  0
   -3.1620   22.8830  -30.0260 O   0  0  0  0  0  0  0  0  0  0  0  0
   -1.7490   22.8860  -29.8360 C   0  0  0  0  0  0  0  0  0  0  0  0
   -1.2960   24.2200  -29.3340 C   0  0  0  0  0  0  0  0  0  0  0  0
   -0.1140   24.3730  -28.9260 O   0  0  0  0  0  0  0  0  0  0  0  0
   -2.1650   25.3030  -29.3450 O   0  0  0  0  0  0  0  0  0  0  0  0
   -3.4870   24.9560  -31.1550 H   0  0  0  0  0  0  0  0  0  0  0  0
   -3.8650   26.4490  -30.2330 H   0  0  0  0  0  0  0  0  0  0  0  0
   -8.2179   24.1089  -30.9324 H   0  0  0  0  0  0  0  0  0  0  0  0
   -9.4418   21.7401  -31.9616 H   0  0  0  0  0  0  0  0  0  0  0  0
   -8.9271   19.4462  -32.8598 H   0  0  0  0  0  0  0  0  0  0  0  0
   -4.6620   20.2141  -32.3681 H   0  0  0  0  0  0  0  0  0  0  0  0
   -1.4798   22.1117  -29.1026 H   0  0  0  0  0  0  0  0  0  0  0  0
   -1.2579   22.6801  -30.7985 H   0  0  0  0  0  0  0  0  0  0  0  0
  1  2  1  0
  2  3  2  0
  2  4  1  0
  4  5  2  0
  5  6  1  0
  6  7  2  0
  7  8  1  0
  8  9  2  0
  9 10  1  0
 10 11  1  0
 10 12  1  0
 10 13  1  0
  9 14  1  0
 14 15  2  0
 15 16  1  0
 16 17  1  0
 17 18  2  0
 17 19  1  0
 19 20  1  0
 20 21  1  0
 21 22  2  0
 21 23  1  0
 16  4  1  0
 15  6  1  0
  1 24  1  0
  1 25  1  0
  5 26  1  0
  7 27  1  0
  8 28  1  0
 14 29  1  0
 20 30  1  0
 20 31  1  0
M  CHG  1  23  -1
M  END
>  <UniqueID>  (83) 
83

>  <SMILES>  (83) 
NC(=O)c1cc2ccc(C(F)(F)F)cc2n1C(=O)OCC(=O)[O-]

>  <Energy>  (83) 
69.12755782278535

>  <Genealogy>  (83) 
NC(=O)c1cc2ccc(C(F)(F)F)cc2n1C(=O)OCC(=O)[O-] (protonated)
NC(=O)c1cc2ccc(C(F)(F)F)cc2n1C(=O)OCC(=O)[O-] (3D coordinates assigned)
NC(=O)c1cc2ccc(C(F)(F)F)cc2n1C(=O)OCC(=O)[O-] (optimized conformer: 69.12755782278535 kcal/mol)

>  <smiles>  (83) 
NC(=O)c1cc2ccc(C(F)(F)F)cc2n1C(=O)OCC(=O)O

>  <score_type>  (83) 
oracle

>  <origin>  (83) 
adg

>  <m_score__min__energy>  (83) 
-9.9900000000000002

>  <m_primary>  (83) 
energy

$$$$
84:0
     RDKit          3D

 29 31  0  0  0  0  0  0  0  0999 V2000
   -3.8680   25.6680  -30.8530 N   0  0  0  0  0  0  0  0  0  0  0  0
   -5.1340   25.1830  -30.4150 C   0  0  0  0  0  0  0  0  0  0  0  0
   -5.8260   25.8860  -29.6310 O   0  0  0  0  0  0  0  0  0  0  0  0
   -5.6690   23.8980  -30.9110 C   0  0  0  0  0  0  0  0  0  0  0  0
   -7.0300   23.6110  -30.9780 C   0  0  0  0  0  0  0  0  0  0  0  0
   -7.1130   22.3740  -31.5740 C   0  0  0  0  0  0  0  0  0  0  0  0
   -8.2290   21.6020  -31.8780 C   0  0  0  0  0  0  0  0  0  0  0  0
   -8.0200   20.3450  -32.4690 C   0  0  0  0  0  0  0  0  0  0  0  0
   -6.7070   19.8760  -32.7370 C   0  0  0  0  0  0  0  0  0  0  0  0
   -6.4980   18.5400  -33.3510 C   0  0  0  0  0  0  0  0  0  0  0  0
   -7.2060   17.4150  -32.9020 C   0  0  0  0  0  0  0  0  0  0  0  0
   -7.0000   16.2030  -33.4790 N   0  0  0  0  0  0  0  0  0  0  0  0
   -6.1100   16.0530  -34.4920 C   0  0  0  0  0  0  0  0  0  0  0  0
   -5.4100   17.1240  -34.9450 N   0  0  0  0  0  0  0  0  0  0  0  0
   -5.5850   18.3560  -34.4010 C   0  0  0  0  0  0  0  0  0  0  0  0
   -5.5980   20.6930  -32.4100 C   0  0  0  0  0  0  0  0  0  0  0  0
   -5.8380   21.9490  -31.8390 C   0  0  0  0  0  0  0  0  0  0  0  0
   -4.9370   22.8740  -31.4360 N   0  0  0  0  0  0  0  0  0  0  0  0
   -3.5070   22.7430  -31.4650 C   0  0  0  0  0  0  0  0  0  0  0  0
   -2.9350   22.2320  -32.4630 O   0  0  0  0  0  0  0  0  0  0  0  0
   -2.7430   23.1530  -30.3800 O   0  0  0  0  0  0  0  0  0  0  0  0
   -2.9800   25.2920  -30.4530 H   0  0  0  0  0  0  0  0  0  0  0  0
   -7.8621   24.2399  -30.6285 H   0  0  0  0  0  0  0  0  0  0  0  0
   -9.2448   21.9648  -31.6622 H   0  0  0  0  0  0  0  0  0  0  0  0
   -8.8846   19.7160  -32.7275 H   0  0  0  0  0  0  0  0  0  0  0  0
   -7.9302   17.5150  -32.0801 H   0  0  0  0  0  0  0  0  0  0  0  0
   -5.9557   15.0631  -34.9463 H   0  0  0  0  0  0  0  0  0  0  0  0
   -5.0098   19.2117  -34.7842 H   0  0  0  0  0  0  0  0  0  0  0  0
   -4.5707   20.3489  -32.6002 H   0  0  0  0  0  0  0  0  0  0  0  0
  1  2  1  0
  2  3  2  0
  2  4  1  0
  4  5  2  0
  5  6  1  0
  6  7  2  0
  7  8  1  0
  8  9  2  0
  9 10  1  0
 10 11  2  0
 11 12  1  0
 12 13  2  0
 13 14  1  0
 14 15  2  0
  9 16  1  0
 16 17  2  0
 17 18  1  0
 18 19  1  0
 19 20  2  0
 19 21  1  0
 18  4  1  0
 17  6  1  0
 15 10  1  0
  1 22  1  0
  5 23  1  0
  7 24  1  0
  8 25  1  0
 11 26  1  0
 13 27  1  0
 15 28  1  0
 16 29  1  0
M  CHG  2   1  -1  21  -1
M  END
>  <UniqueID>  (84) 
84

>  <SMILES>  (84) 
[NH-]C(=O)c1cc2ccc(-c3cncnc3)cc2n1C(=O)[O-]

>  <Energy>  (84) 
78.47612337599786

>  <Genealogy>  (84) 
[NH-]C(=O)c1cc2ccc(-c3cncnc3)cc2n1C(=O)[O-] (protonated)
[NH-]C(=O)c1cc2ccc(-c3cncnc3)cc2n1C(=O)[O-] (3D coordinates assigned)
[NH-]C(=O)c1cc2ccc(-c3cncnc3)cc2n1C(=O)[O-] (optimized conformer: 78.47612337599786 kcal/mol)

>  <smiles>  (84) 
NC(=O)c1cc2ccc(-c3cncnc3)cc2n1C(=O)O

>  <score_type>  (84) 
oracle

>  <origin>  (84) 
adg

>  <m_score__min__energy>  (84) 
-10.66

>  <m_primary>  (84) 
energy

$$$$
85:0
     RDKit          3D

 46 48  0  0  0  0  0  0  0  0999 V2000
   -2.5970   16.8210  -34.9550 C   0  0  0  0  0  0  0  0  0  0  0  0
   -3.9010   17.1240  -35.4360 O   0  0  0  0  0  0  0  0  0  0  0  0
   -5.0050   17.2650  -34.5900 C   0  0  0  0  0  0  0  0  0  0  0  0
   -5.3010   18.5210  -34.0490 C   0  0  0  0  0  0  0  0  0  0  0  0
   -6.4120   18.6740  -33.2010 C   0  0  0  0  0  0  0  0  0  0  0  0
   -6.7380   19.9960  -32.6120 C   0  0  0  0  0  0  0  0  0  0  0  0
   -8.0870   20.4320  -32.5250 C   0  0  0  0  0  0  0  0  0  0  0  0
   -8.4030   21.6870  -31.9760 C   0  0  0  0  0  0  0  0  0  0  0  0
   -7.3570   22.4830  -31.5190 C   0  0  0  0  0  0  0  0  0  0  0  0
   -7.3760   23.7370  -30.9500 C   0  0  0  0  0  0  0  0  0  0  0  0
   -6.0400   24.0490  -30.6860 C   0  0  0  0  0  0  0  0  0  0  0  0
   -5.5850   25.2770  -29.9900 C   0  0  0  0  0  0  0  0  0  0  0  0
   -6.1620   25.6840  -28.7480 N   0  0  0  0  0  0  0  0  0  0  0  0
   -4.6590   25.9730  -30.4850 O   0  0  0  0  0  0  0  0  0  0  0  0
   -5.2340   23.0230  -31.0850 N   0  0  0  0  0  0  0  0  0  0  0  0
   -3.8020   22.9360  -31.0150 C   0  0  0  0  0  0  0  0  0  0  0  0
   -3.1250   23.9810  -30.8150 O   0  0  0  0  0  0  0  0  0  0  0  0
   -3.1040   21.6080  -31.0710 C   0  0  0  0  0  0  0  0  0  0  0  0
   -2.1010   21.6120  -32.1550 N   0  0  0  0  0  0  0  0  0  0  0  0
   -0.8960   20.8620  -31.7590 C   0  0  0  0  0  0  0  0  0  0  0  0
   -2.6690   21.0250  -33.3780 C   0  0  0  0  0  0  0  0  0  0  0  0
   -6.0530   22.0750  -31.5840 C   0  0  0  0  0  0  0  0  0  0  0  0
   -5.7050   20.8370  -32.1330 C   0  0  0  0  0  0  0  0  0  0  0  0
   -7.2040   17.5480  -32.9160 C   0  0  0  0  0  0  0  0  0  0  0  0
   -6.8740   16.3090  -33.4720 C   0  0  0  0  0  0  0  0  0  0  0  0
   -5.7940   16.1940  -34.2880 N   0  0  0  0  0  0  0  0  0  0  0  0
   -2.6025   16.8223  -33.8550 H   0  0  0  0  0  0  0  0  0  0  0  0
   -2.2934   15.8284  -35.3190 H   0  0  0  0  0  0  0  0  0  0  0  0
   -1.8868   17.5781  -35.3190 H   0  0  0  0  0  0  0  0  0  0  0  0
   -4.6657   19.3870  -34.2867 H   0  0  0  0  0  0  0  0  0  0  0  0
   -8.8937   19.7802  -32.8914 H   0  0  0  0  0  0  0  0  0  0  0  0
   -9.4462   22.0296  -31.9096 H   0  0  0  0  0  0  0  0  0  0  0  0
   -8.2580   24.3619  -30.7461 H   0  0  0  0  0  0  0  0  0  0  0  0
   -5.7760   26.5130  -28.2460 H   0  0  0  0  0  0  0  0  0  0  0  0
   -6.9190   25.1380  -28.2850 H   0  0  0  0  0  0  0  0  0  0  0  0
   -2.6021   21.4191  -30.1106 H   0  0  0  0  0  0  0  0  0  0  0  0
   -3.8442   20.8180  -31.2658 H   0  0  0  0  0  0  0  0  0  0  0  0
   -0.8328   20.8226  -30.6615 H   0  0  0  0  0  0  0  0  0  0  0  0
   -0.9524   19.8392  -32.1599 H   0  0  0  0  0  0  0  0  0  0  0  0
   -0.0033   21.3643  -32.1599 H   0  0  0  0  0  0  0  0  0  0  0  0
   -3.4103   20.2589  -33.1069 H   0  0  0  0  0  0  0  0  0  0  0  0
   -3.1562   21.8131  -33.9709 H   0  0  0  0  0  0  0  0  0  0  0  0
   -1.8653   20.5640  -33.9709 H   0  0  0  0  0  0  0  0  0  0  0  0
   -4.6522   20.5236  -32.1914 H   0  0  0  0  0  0  0  0  0  0  0  0
   -8.0803   17.6418  -32.2577 H   0  0  0  0  0  0  0  0  0  0  0  0
   -7.4898   15.4254  -33.2485 H   0  0  0  0  0  0  0  0  0  0  0  0
  1  2  1  0
  2  3  1  0
  3  4  2  0
  4  5  1  0
  5  6  1  0
  6  7  2  0
  7  8  1  0
  8  9  2  0
  9 10  1  0
 10 11  2  0
 11 12  1  0
 12 13  1  0
 12 14  2  0
 11 15  1  0
 15 16  1  0
 16 17  2  0
 16 18  1  0
 18 19  1  0
 19 20  1  0
 19 21  1  0
 15 22  1  0
 22 23  2  0
  5 24  2  0
 24 25  1  0
 25 26  2  0
 26  3  1  0
 23  6  1  0
 22  9  1  0
  1 27  1  0
  1 28  1  0
  1 29  1  0
  4 30  1  0
  7 31  1  0
  8 32  1  0
 10 33  1  0
 13 34  1  0
 13 35  1  0
 18 36  1  0
 18 37  1  0
 20 38  1  0
 20 39  1  0
 20 40  1  0
 21 41  1  0
 21 42  1  0
 21 43  1  0
 23 44  1  0
 24 45  1  0
 25 46  1  0
M  END
>  <UniqueID>  (85) 
85

>  <SMILES>  (85) 
COc1cc(-c2ccc3cc(C(N)=O)n(C(=O)CN(C)C)c3c2)ccn1

>  <Energy>  (85) 
90.45486610710438

>  <Genealogy>  (85) 
COc1cc(-c2ccc3cc(C(N)=O)n(C(=O)CN(C)C)c3c2)ccn1 (3D coordinates assigned)
COc1cc(-c2ccc3cc(C(N)=O)n(C(=O)CN(C)C)c3c2)ccn1 (optimized conformer: 90.45486610710438 kcal/mol)

>  <smiles>  (85) 
COc1cc(-c2ccc3cc(C(N)=O)n(C(=O)CN(C)C)c3c2)ccn1

>  <score_type>  (85) 
oracle

>  <origin>  (85) 
adg

>  <m_score__min__energy>  (85) 
-9.3800000000000008

>  <m_primary>  (85) 
energy

$$$$
86:0
     RDKit          3D

 38 39  0  0  0  0  0  0  0  0999 V2000
   -2.3000   24.9310  -27.5740 C   0  0  0  0  0  0  0  0  0  0  0  0
   -1.8550   25.0390  -28.9100 O   0  0  0  0  0  0  0  0  0  0  0  0
   -0.9190   24.0190  -29.2030 C   0  0  0  0  0  0  0  0  0  0  0  0
   -1.5710   22.9070  -30.0300 C   0  0  0  0  0  0  0  0  0  0  0  0
   -3.0110   23.1250  -30.1540 N   0  0  0  0  0  0  0  0  0  0  0  0
   -3.8030   22.5060  -31.1780 C   0  0  0  0  0  0  0  0  0  0  0  0
   -3.2670   21.7270  -32.0130 O   0  0  0  0  0  0  0  0  0  0  0  0
   -5.2090   22.7780  -31.2610 N   0  0  0  0  0  0  0  0  0  0  0  0
   -5.8590   23.9230  -30.9090 C   0  0  0  0  0  0  0  0  0  0  0  0
   -5.2190   25.1770  -30.4590 C   0  0  0  0  0  0  0  0  0  0  0  0
   -3.8740   25.4630  -30.8390 N   0  0  0  0  0  0  0  0  0  0  0  0
   -5.8380   25.9890  -29.7220 O   0  0  0  0  0  0  0  0  0  0  0  0
   -7.2340   23.7770  -31.0890 C   0  0  0  0  0  0  0  0  0  0  0  0
   -7.4060   22.4970  -31.5670 C   0  0  0  0  0  0  0  0  0  0  0  0
   -8.5720   21.8130  -31.8980 C   0  0  0  0  0  0  0  0  0  0  0  0
   -8.4540   20.4820  -32.3320 C   0  0  0  0  0  0  0  0  0  0  0  0
   -7.1810   19.8630  -32.4280 C   0  0  0  0  0  0  0  0  0  0  0  0
   -7.0710   18.4250  -32.8500 C   0  0  0  0  0  0  0  0  0  0  0  0
   -5.9000   18.2460  -33.7620 C   0  0  0  0  0  0  0  0  0  0  0  0
   -4.8270   17.7550  -33.3260 O   0  0  0  0  0  0  0  0  0  0  0  0
   -5.9780   18.6680  -35.0830 O   0  0  0  0  0  0  0  0  0  0  0  0
   -6.0210   20.5870  -32.0710 C   0  0  0  0  0  0  0  0  0  0  0  0
   -6.1690   21.9160  -31.6610 C   0  0  0  0  0  0  0  0  0  0  0  0
   -1.4621   25.1343  -26.8909 H   0  0  0  0  0  0  0  0  0  0  0  0
   -3.1041   25.6601  -27.3953 H   0  0  0  0  0  0  0  0  0  0  0  0
   -2.6804   23.9145  -27.3953 H   0  0  0  0  0  0  0  0  0  0  0  0
   -0.0824   24.4495  -29.7728 H   0  0  0  0  0  0  0  0  0  0  0  0
   -0.5561   23.5899  -28.2574 H   0  0  0  0  0  0  0  0  0  0  0  0
   -1.1211   22.8936  -31.0337 H   0  0  0  0  0  0  0  0  0  0  0  0
   -1.4036   21.9463  -29.5210 H   0  0  0  0  0  0  0  0  0  0  0  0
   -3.4750   23.7720  -29.4780 H   0  0  0  0  0  0  0  0  0  0  0  0
   -3.0840   25.3020  -30.1760 H   0  0  0  0  0  0  0  0  0  0  0  0
   -8.0155   24.5254  -30.8912 H   0  0  0  0  0  0  0  0  0  0  0  0
   -9.5556   22.2995  -31.8221 H   0  0  0  0  0  0  0  0  0  0  0  0
   -9.3573   19.9143  -32.6000 H   0  0  0  0  0  0  0  0  0  0  0  0
   -6.9384   17.7934  -31.9592 H   0  0  0  0  0  0  0  0  0  0  0  0
   -7.9892   18.1342  -33.3813 H   0  0  0  0  0  0  0  0  0  0  0  0
   -5.0272   20.1174  -32.1145 H   0  0  0  0  0  0  0  0  0  0  0  0
  1  2  1  0
  2  3  1  0
  3  4  1  0
  4  5  1  0
  5  6  1  0
  6  7  2  0
  6  8  1  0
  8  9  1  0
  9 10  1  0
 10 11  1  0
 10 12  2  0
  9 13  2  0
 13 14  1  0
 14 15  2  0
 15 16  1  0
 16 17  2  0
 17 18  1  0
 18 19  1  0
 19 20  2  0
 19 21  1  0
 17 22  1  0
 22 23  2  0
 23  8  1  0
 23 14  1  0
  1 24  1  0
  1 25  1  0
  1 26  1  0
  3 27  1  0
  3 28  1  0
  4 29  1  0
  4 30  1  0
  5 31  1  0
 11 32  1  0
 13 33  1  0
 15 34  1  0
 16 35  1  0
 18 36  1  0
 18 37  1  0
 22 38  1  0
M  CHG  2  11  -1  21  -1
M  END
>  <UniqueID>  (86) 
86

>  <SMILES>  (86) 
COCCNC(=O)n1c(C([NH-])=O)cc2ccc(CC(=O)[O-])cc21

>  <Energy>  (86) 
73.19527466817992

>  <Genealogy>  (86) 
COCCNC(=O)n1c(C([NH-])=O)cc2ccc(CC(=O)[O-])cc21 (protonated)
COCCNC(=O)n1c(C([NH-])=O)cc2ccc(CC(=O)[O-])cc21 (3D coordinates assigned)
COCCNC(=O)n1c(C([NH-])=O)cc2ccc(CC(=O)[O-])cc21 (optimized conformer: 73.19527466817992 kcal/mol)

>  <smiles>  (86) 
COCCNC(=O)n1c(C(N)=O)cc2ccc(CC(=O)O)cc21

>  <score_type>  (86) 
oracle

>  <origin>  (86) 
adg

>  <m_score__min__energy>  (86) 
-9.9199999999999999

>  <m_primary>  (86) 
energy

$$$$
87:0
     RDKit          3D

 41 43  0  0  0  0  0  0  0  0999 V2000
   -3.9400   25.6280  -30.8490 N   0  0  0  0  0  0  0  0  0  0  0  0
   -5.2410   25.2850  -30.3800 C   0  0  0  0  0  0  0  0  0  0  0  0
   -5.8290   26.0520  -29.5730 O   0  0  0  0  0  0  0  0  0  0  0  0
   -5.8740   24.0250  -30.8230 C   0  0  0  0  0  0  0  0  0  0  0  0
   -7.2250   23.9070  -31.1400 C   0  0  0  0  0  0  0  0  0  0  0  0
   -7.3940   22.6000  -31.5380 C   0  0  0  0  0  0  0  0  0  0  0  0
   -8.5470   21.9250  -31.9250 C   0  0  0  0  0  0  0  0  0  0  0  0
   -8.4380   20.5580  -32.2350 C   0  0  0  0  0  0  0  0  0  0  0  0
   -7.1840   19.8980  -32.1660 C   0  0  0  0  0  0  0  0  0  0  0  0
   -7.0850   18.4180  -32.4340 C   0  0  0  0  0  0  0  0  0  0  0  0
   -8.3220   17.8140  -32.2920 F   0  0  0  0  0  0  0  0  0  0  0  0
   -6.2050   17.8160  -31.5510 F   0  0  0  0  0  0  0  0  0  0  0  0
   -6.6340   18.2200  -33.7250 F   0  0  0  0  0  0  0  0  0  0  0  0
   -6.0420   20.6180  -31.7500 C   0  0  0  0  0  0  0  0  0  0  0  0
   -6.1770   21.9770  -31.4570 C   0  0  0  0  0  0  0  0  0  0  0  0
   -5.2320   22.8370  -31.0190 N   0  0  0  0  0  0  0  0  0  0  0  0
   -3.8610   22.5340  -30.7200 C   0  0  0  0  0  0  0  0  0  0  0  0
   -2.9500   23.2670  -31.1930 O   0  0  0  0  0  0  0  0  0  0  0  0
   -3.5090   21.2740  -29.9780 C   0  0  0  0  0  0  0  0  0  0  0  0
   -2.7000   21.6010  -28.3650 S   0  0  0  0  0  0  0  0  0  0  0  0
   -3.6630   23.0910  -27.8970 C   0  0  0  0  0  0  0  0  0  0  0  0
   -2.7740   24.2630  -27.5650 C   0  0  0  0  0  0  0  0  0  0  0  0
   -1.7350   24.6440  -28.4350 C   0  0  0  0  0  0  0  0  0  0  0  0
   -0.9050   25.7220  -28.1130 C   0  0  0  0  0  0  0  0  0  0  0  0
   -1.0860   26.4120  -26.9120 C   0  0  0  0  0  0  0  0  0  0  0  0
   -2.0870   26.0150  -26.0230 C   0  0  0  0  0  0  0  0  0  0  0  0
   -2.9190   24.9380  -26.3400 C   0  0  0  0  0  0  0  0  0  0  0  0
   -3.0850   25.2750  -30.3650 H   0  0  0  0  0  0  0  0  0  0  0  0
   -7.9939   24.6917  -31.0842 H   0  0  0  0  0  0  0  0  0  0  0  0
   -9.5145   22.4448  -31.9866 H   0  0  0  0  0  0  0  0  0  0  0  0
   -9.3341   19.9945  -32.5341 H   0  0  0  0  0  0  0  0  0  0  0  0
   -5.0662   20.1185  -31.6587 H   0  0  0  0  0  0  0  0  0  0  0  0
   -4.4316   20.7023  -29.7989 H   0  0  0  0  0  0  0  0  0  0  0  0
   -2.7950   20.7128  -30.5987 H   0  0  0  0  0  0  0  0  0  0  0  0
   -4.3163   23.3688  -28.7372 H   0  0  0  0  0  0  0  0  0  0  0  0
   -4.2484   22.8461  -26.9985 H   0  0  0  0  0  0  0  0  0  0  0  0
   -1.5754   24.0911  -29.3724 H   0  0  0  0  0  0  0  0  0  0  0  0
   -0.1079   26.0274  -28.8068 H   0  0  0  0  0  0  0  0  0  0  0  0
   -0.4401   27.2679  -26.6666 H   0  0  0  0  0  0  0  0  0  0  0  0
   -2.2208   26.5509  -25.0717 H   0  0  0  0  0  0  0  0  0  0  0  0
   -3.6922   24.6162  -25.6268 H   0  0  0  0  0  0  0  0  0  0  0  0
  1  2  1  0
  2  3  2  0
  2  4  1  0
  4  5  2  0
  5  6  1  0
  6  7  2  0
  7  8  1  0
  8  9  2  0
  9 10  1  0
 10 11  1  0
 10 12  1  0
 10 13  1  0
  9 14  1  0
 14 15  2  0
 15 16  1  0
 16 17  1  0
 17 18  2  0
 17 19  1  0
 19 20  1  0
 20 21  1  0
 21 22  1  0
 22 23  2  0
 23 24  1  0
 24 25  2  0
 25 26  1  0
 26 27  2  0
 16  4  1  0
 27 22  1  0
 15  6  1  0
  1 28  1  0
  5 29  1  0
  7 30  1  0
  8 31  1  0
 14 32  1  0
 19 33  1  0
 19 34  1  0
 21 35  1  0
 21 36  1  0
 23 37  1  0
 24 38  1  0
 25 39  1  0
 26 40  1  0
 27 41  1  0
M  CHG  1   1  -1
M  END
>  <UniqueID>  (87) 
87

>  <SMILES>  (87) 
[NH-]C(=O)c1cc2ccc(C(F)(F)F)cc2n1C(=O)CSCc1ccccc1

>  <Energy>  (87) 
80.4783513150381

>  <Genealogy>  (87) 
[NH-]C(=O)c1cc2ccc(C(F)(F)F)cc2n1C(=O)CSCc1ccccc1 (protonated)
[NH-]C(=O)c1cc2ccc(C(F)(F)F)cc2n1C(=O)CSCc1ccccc1 (3D coordinates assigned)
[NH-]C(=O)c1cc2ccc(C(F)(F)F)cc2n1C(=O)CSCc1ccccc1 (optimized conformer: 80.4783513150381 kcal/mol)

>  <smiles>  (87) 
NC(=O)c1cc2ccc(C(F)(F)F)cc2n1C(=O)CSCc1ccccc1

>  <score_type>  (87) 
oracle

>  <origin>  (87) 
adg

>  <m_score__min__energy>  (87) 
-11.51

>  <m_primary>  (87) 
energy

$$$$
88:0
     RDKit          3D

 54 55  0  0  0  0  0  0  0  0999 V2000
   -4.0870   18.7140  -33.6170 C   0  0  0  0  0  0  0  0  0  0  0  0
   -4.9810   17.7840  -34.3260 N   0  0  0  0  0  0  0  0  0  0  0  0
   -4.2220   17.0620  -35.3600 C   0  0  0  0  0  0  0  0  0  0  0  0
   -5.6170   16.8280  -33.3910 C   0  0  0  0  0  0  0  0  0  0  0  0
   -6.5220   17.5430  -32.3720 C   0  0  0  0  0  0  0  0  0  0  0  0
   -7.5530   18.4840  -33.0200 C   0  0  0  0  0  0  0  0  0  0  0  0
   -7.5270   19.8700  -32.4300 C   0  0  0  0  0  0  0  0  0  0  0  0
   -8.7060   20.6570  -32.4000 C   0  0  0  0  0  0  0  0  0  0  0  0
   -8.6760   21.9740  -31.9140 C   0  0  0  0  0  0  0  0  0  0  0  0
   -7.4600   22.4750  -31.4600 C   0  0  0  0  0  0  0  0  0  0  0  0
   -7.1360   23.7260  -30.9880 C   0  0  0  0  0  0  0  0  0  0  0  0
   -5.7690   23.6790  -30.7200 C   0  0  0  0  0  0  0  0  0  0  0  0
   -5.0070   24.8060  -30.1430 C   0  0  0  0  0  0  0  0  0  0  0  0
   -3.8850   25.3380  -30.8450 N   0  0  0  0  0  0  0  0  0  0  0  0
   -5.3510   25.3240  -29.0480 O   0  0  0  0  0  0  0  0  0  0  0  0
   -5.2690   22.4460  -31.0130 N   0  0  0  0  0  0  0  0  0  0  0  0
   -3.9010   22.0140  -30.9590 C   0  0  0  0  0  0  0  0  0  0  0  0
   -3.5980   20.8460  -31.3270 O   0  0  0  0  0  0  0  0  0  0  0  0
   -2.8860   22.9010  -30.4710 N   0  0  0  0  0  0  0  0  0  0  0  0
   -1.5290   22.4520  -30.1650 C   0  0  0  0  0  0  0  0  0  0  0  0
   -0.8590   23.4300  -29.1790 C   0  0  0  0  0  0  0  0  0  0  0  0
   -1.7030   24.5820  -28.7920 N   0  0  0  0  0  0  0  0  0  0  0  0
   -2.7160   24.2380  -27.7810 C   0  0  0  0  0  0  0  0  0  0  0  0
   -0.9190   25.7570  -28.3810 C   0  0  0  0  0  0  0  0  0  0  0  0
   -6.3150   21.7200  -31.4630 C   0  0  0  0  0  0  0  0  0  0  0  0
   -6.3130   20.4090  -31.9520 C   0  0  0  0  0  0  0  0  0  0  0  0
   -4.2105   18.5855  -32.5315 H   0  0  0  0  0  0  0  0  0  0  0  0
   -3.0437   18.5033  -33.8948 H   0  0  0  0  0  0  0  0  0  0  0  0
   -4.3387   19.7481  -33.8948 H   0  0  0  0  0  0  0  0  0  0  0  0
   -3.5051   16.3800  -34.8795 H   0  0  0  0  0  0  0  0  0  0  0  0
   -4.9159   16.4825  -35.9866 H   0  0  0  0  0  0  0  0  0  0  0  0
   -3.6778   17.7840  -35.9866 H   0  0  0  0  0  0  0  0  0  0  0  0
   -6.2243   16.1155  -33.9685 H   0  0  0  0  0  0  0  0  0  0  0  0
   -4.8205   16.3097  -32.8370 H   0  0  0  0  0  0  0  0  0  0  0  0
   -7.0628   16.7808  -31.7918 H   0  0  0  0  0  0  0  0  0  0  0  0
   -5.8699   18.1639  -31.7401 H   0  0  0  0  0  0  0  0  0  0  0  0
   -7.3366   18.5555  -34.0961 H   0  0  0  0  0  0  0  0  0  0  0  0
   -8.5515   18.0621  -32.8329 H   0  0  0  0  0  0  0  0  0  0  0  0
   -9.6539   20.2315  -32.7612 H   0  0  0  0  0  0  0  0  0  0  0  0
   -9.5864   22.5910  -31.8928 H   0  0  0  0  0  0  0  0  0  0  0  0
   -7.8127   24.5823  -30.8511 H   0  0  0  0  0  0  0  0  0  0  0  0
   -2.9260   25.2920  -30.4350 H   0  0  0  0  0  0  0  0  0  0  0  0
   -3.1210   23.9120  -30.3450 H   0  0  0  0  0  0  0  0  0  0  0  0
   -1.5702   21.4501  -29.7127 H   0  0  0  0  0  0  0  0  0  0  0  0
   -0.9419   22.4181  -31.0946 H   0  0  0  0  0  0  0  0  0  0  0  0
   -0.5973   22.8735  -28.2669 H   0  0  0  0  0  0  0  0  0  0  0  0
    0.0194   23.8440  -29.6958 H   0  0  0  0  0  0  0  0  0  0  0  0
   -2.2938   24.3814  -26.7754 H   0  0  0  0  0  0  0  0  0  0  0  0
   -3.5944   24.8882  -27.9060 H   0  0  0  0  0  0  0  0  0  0  0  0
   -3.0168   23.1873  -27.9060 H   0  0  0  0  0  0  0  0  0  0  0  0
   -0.8844   25.8088  -27.2828 H   0  0  0  0  0  0  0  0  0  0  0  0
    0.1039   25.6719  -28.7765 H   0  0  0  0  0  0  0  0  0  0  0  0
   -1.3903   26.6689  -28.7765 H   0  0  0  0  0  0  0  0  0  0  0  0
   -5.3884   19.8132  -31.9637 H   0  0  0  0  0  0  0  0  0  0  0  0
  1  2  1  0
  2  3  1  0
  2  4  1  0
  4  5  1  0
  5  6  1  0
  6  7  1  0
  7  8  2  0
  8  9  1  0
  9 10  2  0
 10 11  1  0
 11 12  2  0
 12 13  1  0
 13 14  1  0
 13 15  2  0
 12 16  1  0
 16 17  1  0
 17 18  2  0
 17 19  1  0
 19 20  1  0
 20 21  1  0
 21 22  1  0
 22 23  1  0
 22 24  1  0
 16 25  1  0
 25 26  2  0
 26  7  1  0
 25 10  1  0
  1 27  1  0
  1 28  1  0
  1 29  1  0
  3 30  1  0
  3 31  1  0
  3 32  1  0
  4 33  1  0
  4 34  1  0
  5 35  1  0
  5 36  1  0
  6 37  1  0
  6 38  1  0
  8 39  1  0
  9 40  1  0
 11 41  1  0
 14 42  1  0
 19 43  1  0
 20 44  1  0
 20 45  1  0
 21 46  1  0
 21 47  1  0
 23 48  1  0
 23 49  1  0
 23 50  1  0
 24 51  1  0
 24 52  1  0
 24 53  1  0
 26 54  1  0
M  CHG  1  14  -1
M  END
>  <UniqueID>  (88) 
88

>  <SMILES>  (88) 
CN(C)CCCc1ccc2cc(C([NH-])=O)n(C(=O)NCCN(C)C)c2c1

>  <Energy>  (88) 
86.30279692536357

>  <Genealogy>  (88) 
CN(C)CCCc1ccc2cc(C([NH-])=O)n(C(=O)NCCN(C)C)c2c1 (protonated)
CN(C)CCCc1ccc2cc(C([NH-])=O)n(C(=O)NCCN(C)C)c2c1 (3D coordinates assigned)
CN(C)CCCc1ccc2cc(C([NH-])=O)n(C(=O)NCCN(C)C)c2c1 (optimized conformer: 86.30279692536357 kcal/mol)

>  <smiles>  (88) 
CN(C)CCCc1ccc2cc(C(N)=O)n(C(=O)NCCN(C)C)c2c1

>  <score_type>  (88) 
oracle

>  <origin>  (88) 
adg

>  <m_score__min__energy>  (88) 
-10.23

>  <m_primary>  (88) 
energy

$$$$
89:0
     RDKit          3D

 37 39  0  0  0  0  0  0  0  0999 V2000
   -6.2160   25.7260  -28.8950 N   0  0  0  0  0  0  0  0  0  0  0  0
   -5.5120   25.2310  -30.0360 C   0  0  0  0  0  0  0  0  0  0  0  0
   -4.5600   25.9040  -30.5130 O   0  0  0  0  0  0  0  0  0  0  0  0
   -5.9220   23.9800  -30.7030 C   0  0  0  0  0  0  0  0  0  0  0  0
   -7.2260   23.7270  -31.1210 C   0  0  0  0  0  0  0  0  0  0  0  0
   -7.2040   22.4480  -31.6280 C   0  0  0  0  0  0  0  0  0  0  0  0
   -8.2250   21.6950  -32.1950 C   0  0  0  0  0  0  0  0  0  0  0  0
   -7.9120   20.4130  -32.6730 C   0  0  0  0  0  0  0  0  0  0  0  0
   -6.5870   19.9080  -32.5890 C   0  0  0  0  0  0  0  0  0  0  0  0
   -6.2650   18.5570  -33.1120 C   0  0  0  0  0  0  0  0  0  0  0  0
   -7.1910   17.5050  -32.9910 C   0  0  0  0  0  0  0  0  0  0  0  0
   -6.8850   16.2330  -33.4820 C   0  0  0  0  0  0  0  0  0  0  0  0
   -5.6550   15.9940  -34.1020 C   0  0  0  0  0  0  0  0  0  0  0  0
   -5.3710   14.7550  -34.5740 F   0  0  0  0  0  0  0  0  0  0  0  0
   -4.7250   17.0330  -34.2290 C   0  0  0  0  0  0  0  0  0  0  0  0
   -3.1800   16.7460  -35.0100 Cl  0  0  0  0  0  0  0  0  0  0  0  0
   -5.0290   18.3080  -33.7370 C   0  0  0  0  0  0  0  0  0  0  0  0
   -5.5760   20.7090  -32.0070 C   0  0  0  0  0  0  0  0  0  0  0  0
   -5.9210   21.9750  -31.5190 C   0  0  0  0  0  0  0  0  0  0  0  0
   -5.1200   22.9070  -30.9520 N   0  0  0  0  0  0  0  0  0  0  0  0
   -3.6960   22.8290  -30.7790 C   0  0  0  0  0  0  0  0  0  0  0  0
   -2.9600   22.4940  -31.7480 O   0  0  0  0  0  0  0  0  0  0  0  0
   -3.1320   23.1200  -29.5320 O   0  0  0  0  0  0  0  0  0  0  0  0
   -1.9860   23.9510  -29.3640 C   0  0  0  0  0  0  0  0  0  0  0  0
   -2.3720   25.2960  -29.2830 O   0  0  0  0  0  0  0  0  0  0  0  0
   -5.8860   26.5910  -28.4120 H   0  0  0  0  0  0  0  0  0  0  0  0
   -7.1060   25.2850  -28.5770 H   0  0  0  0  0  0  0  0  0  0  0  0
   -8.0898   24.4052  -31.0591 H   0  0  0  0  0  0  0  0  0  0  0  0
   -9.2483   22.0919  -32.2671 H   0  0  0  0  0  0  0  0  0  0  0  0
   -8.7028   19.7915  -33.1183 H   0  0  0  0  0  0  0  0  0  0  0  0
   -8.1622   17.6848  -32.5068 H   0  0  0  0  0  0  0  0  0  0  0  0
   -7.6149   15.4164  -33.3802 H   0  0  0  0  0  0  0  0  0  0  0  0
   -4.2959   19.1216  -33.8398 H   0  0  0  0  0  0  0  0  0  0  0  0
   -4.5404   20.3444  -31.9394 H   0  0  0  0  0  0  0  0  0  0  0  0
   -1.4632   23.6665  -28.4389 H   0  0  0  0  0  0  0  0  0  0  0  0
   -1.3178   23.8204  -30.2279 H   0  0  0  0  0  0  0  0  0  0  0  0
   -3.2770   25.3090  -28.8770 H   0  0  0  0  0  0  0  0  0  0  0  0
  1  2  1  0
  2  3  2  0
  2  4  1  0
  4  5  2  0
  5  6  1  0
  6  7  2  0
  7  8  1  0
  8  9  2  0
  9 10  1  0
 10 11  2  0
 11 12  1  0
 12 13  2  0
 13 14  1  0
 13 15  1  0
 15 16  1  0
 15 17  2  0
  9 18  1  0
 18 19  2  0
 19 20  1  0
 20 21  1  0
 21 22  2  0
 21 23  1  0
 23 24  1  0
 24 25  1  0
 20  4  1  0
 19  6  1  0
 17 10  1  0
  1 26  1  0
  1 27  1  0
  5 28  1  0
  7 29  1  0
  8 30  1  0
 11 31  1  0
 12 32  1  0
 17 33  1  0
 18 34  1  0
 24 35  1  0
 24 36  1  0
 25 37  1  0
M  END
>  <UniqueID>  (89) 
89

>  <SMILES>  (89) 
NC(=O)c1cc2ccc(-c3ccc(F)c(Cl)c3)cc2n1C(=O)OCO

>  <Energy>  (89) 
83.09446830016806

>  <Genealogy>  (89) 
NC(=O)c1cc2ccc(-c3ccc(F)c(Cl)c3)cc2n1C(=O)OCO (3D coordinates assigned)
NC(=O)c1cc2ccc(-c3ccc(F)c(Cl)c3)cc2n1C(=O)OCO (optimized conformer: 83.09446830016806 kcal/mol)

>  <smiles>  (89) 
NC(=O)c1cc2ccc(-c3ccc(F)c(Cl)c3)cc2n1C(=O)OCO

>  <score_type>  (89) 
oracle

>  <origin>  (89) 
adg

>  <m_score__min__energy>  (89) 
-9.3800000000000008

>  <m_primary>  (89) 
energy

$$$$
90:0
     RDKit          3D

 45 47  0  0  0  0  0  0  0  0999 V2000
   -4.5960   13.8240  -31.5570 C   0  0  0  0  0  0  0  0  0  0  0  0
   -3.8110   14.1340  -32.7430 N   0  0  0  0  0  0  0  0  0  0  0  0
   -3.7400   15.4480  -33.3010 C   0  0  0  0  0  0  0  0  0  0  0  0
   -2.6680   15.8610  -33.8200 O   0  0  0  0  0  0  0  0  0  0  0  0
   -4.9230   16.3200  -33.2710 C   0  0  0  0  0  0  0  0  0  0  0  0
   -4.9530   17.6440  -32.8490 C   0  0  0  0  0  0  0  0  0  0  0  0
   -6.2320   18.2280  -32.9250 C   0  0  0  0  0  0  0  0  0  0  0  0
   -6.5190   19.6300  -32.5290 C   0  0  0  0  0  0  0  0  0  0  0  0
   -7.8200   20.1750  -32.7010 C   0  0  0  0  0  0  0  0  0  0  0  0
   -8.1050   21.4980  -32.3210 C   0  0  0  0  0  0  0  0  0  0  0  0
   -7.0730   22.2580  -31.7810 C   0  0  0  0  0  0  0  0  0  0  0  0
   -7.0740   23.5520  -31.3110 C   0  0  0  0  0  0  0  0  0  0  0  0
   -5.7720   23.7880  -30.8740 C   0  0  0  0  0  0  0  0  0  0  0  0
   -5.3090   25.0790  -30.3230 C   0  0  0  0  0  0  0  0  0  0  0  0
   -4.1120   25.6750  -30.8210 N   0  0  0  0  0  0  0  0  0  0  0  0
   -5.9500   25.6590  -29.4080 O   0  0  0  0  0  0  0  0  0  0  0  0
   -4.9990   22.6850  -31.0690 N   0  0  0  0  0  0  0  0  0  0  0  0
   -3.6150   22.5140  -30.7320 C   0  0  0  0  0  0  0  0  0  0  0  0
   -2.7360   23.1850  -31.3380 O   0  0  0  0  0  0  0  0  0  0  0  0
   -3.1990   21.5000  -29.7070 C   0  0  0  0  0  0  0  0  0  0  0  0
   -2.6960   22.2010  -28.4390 C   0  0  0  0  0  0  0  0  0  0  0  0
   -3.5980   23.3730  -28.0390 C   0  0  0  0  0  0  0  0  0  0  0  0
   -3.1040   24.6270  -28.6040 N   0  0  0  0  0  0  0  0  0  0  0  0
   -5.8090   21.7560  -31.6200 C   0  0  0  0  0  0  0  0  0  0  0  0
   -5.4990   20.4380  -31.9710 C   0  0  0  0  0  0  0  0  0  0  0  0
   -7.2030   17.3500  -33.4070 C   0  0  0  0  0  0  0  0  0  0  0  0
   -6.4740   15.8710  -33.7370 S   0  0  0  0  0  0  0  0  0  0  0  0
   -4.0078   14.0563  -30.6569 H   0  0  0  0  0  0  0  0  0  0  0  0
   -5.5166   14.4261  -31.5589 H   0  0  0  0  0  0  0  0  0  0  0  0
   -4.8568   12.7554  -31.5589 H   0  0  0  0  0  0  0  0  0  0  0  0
   -4.0638   18.1833  -32.4904 H   0  0  0  0  0  0  0  0  0  0  0  0
   -8.6152   19.5529  -33.1376 H   0  0  0  0  0  0  0  0  0  0  0  0
   -9.1133   21.9193  -32.4469 H   0  0  0  0  0  0  0  0  0  0  0  0
   -7.9227   24.2514  -31.2858 H   0  0  0  0  0  0  0  0  0  0  0  0
   -3.1830   25.2250  -30.6630 H   0  0  0  0  0  0  0  0  0  0  0  0
   -4.0611   20.8656  -29.4533 H   0  0  0  0  0  0  0  0  0  0  0  0
   -2.3873   20.8842  -30.1216 H   0  0  0  0  0  0  0  0  0  0  0  0
   -2.6729   21.4725  -27.6151 H   0  0  0  0  0  0  0  0  0  0  0  0
   -1.6912   22.5985  -28.6446 H   0  0  0  0  0  0  0  0  0  0  0  0
   -4.6165   23.1869  -28.4106 H   0  0  0  0  0  0  0  0  0  0  0  0
   -3.5990   23.4577  -26.9423 H   0  0  0  0  0  0  0  0  0  0  0  0
   -3.9110   25.2880  -28.6650 H   0  0  0  0  0  0  0  0  0  0  0  0
   -2.7940   24.4440  -29.5860 H   0  0  0  0  0  0  0  0  0  0  0  0
   -4.4858   20.0383  -31.8170 H   0  0  0  0  0  0  0  0  0  0  0  0
   -8.2682   17.5859  -33.5478 H   0  0  0  0  0  0  0  0  0  0  0  0
  1  2  1  0
  2  3  1  0
  3  4  2  0
  3  5  1  0
  5  6  2  0
  6  7  1  0
  7  8  1  0
  8  9  2  0
  9 10  1  0
 10 11  2  0
 11 12  1  0
 12 13  2  0
 13 14  1  0
 14 15  1  0
 14 16  2  0
 13 17  1  0
 17 18  1  0
 18 19  2  0
 18 20  1  0
 20 21  1  0
 21 22  1  0
 22 23  1  0
 17 24  1  0
 24 25  2  0
  7 26  2  0
 26 27  1  0
 27  5  1  0
 25  8  1  0
 24 11  1  0
  1 28  1  0
  1 29  1  0
  1 30  1  0
  6 31  1  0
  9 32  1  0
 10 33  1  0
 12 34  1  0
 15 35  1  0
 20 36  1  0
 20 37  1  0
 21 38  1  0
 21 39  1  0
 22 40  1  0
 22 41  1  0
 23 42  1  0
 23 43  1  0
 25 44  1  0
 26 45  1  0
M  CHG  2   2  -1  15  -1
M  END
>  <UniqueID>  (90) 
90

>  <SMILES>  (90) 
C[N-]C(=O)c1cc(-c2ccc3cc(C([NH-])=O)n(C(=O)CCCN)c3c2)cs1

>  <Energy>  (90) 
105.95497456323147

>  <Genealogy>  (90) 
C[N-]C(=O)c1cc(-c2ccc3cc(C([NH-])=O)n(C(=O)CCCN)c3c2)cs1 (protonated)
C[N-]C(=O)c1cc(-c2ccc3cc(C([NH-])=O)n(C(=O)CCCN)c3c2)cs1 (3D coordinates assigned)
C[N-]C(=O)c1cc(-c2ccc3cc(C([NH-])=O)n(C(=O)CCCN)c3c2)cs1 (optimized conformer: 105.95497456323147 kcal/mol)

>  <smiles>  (90) 
CNC(=O)c1cc(-c2ccc3cc(C(N)=O)n(C(=O)CCCN)c3c2)cs1

>  <score_type>  (90) 
oracle

>  <origin>  (90) 
adg

>  <m_score__min__energy>  (90) 
-10.699999999999999

>  <m_primary>  (90) 
energy

$$$$
91:0
     RDKit          3D

 53 57  0  0  0  0  0  0  0  0999 V2000
   -3.9450   24.9280  -27.0650 N   0  0  0  0  0  0  0  0  0  0  0  0
   -2.7350   24.2780  -27.4570 C   0  0  0  0  0  0  0  0  0  0  0  0
   -1.6520   24.5690  -26.8790 O   0  0  0  0  0  0  0  0  0  0  0  0
   -2.7250   23.3470  -28.5920 C   0  0  0  0  0  0  0  0  0  0  0  0
   -2.0800   22.1160  -28.5620 C   0  0  0  0  0  0  0  0  0  0  0  0
   -2.3190   21.5540  -29.7930 C   0  0  0  0  0  0  0  0  0  0  0  0
   -1.8970   20.3350  -30.3160 C   0  0  0  0  0  0  0  0  0  0  0  0
   -2.2780   20.0150  -31.6280 C   0  0  0  0  0  0  0  0  0  0  0  0
   -3.0620   20.9140  -32.3920 C   0  0  0  0  0  0  0  0  0  0  0  0
   -3.4720   20.5450  -33.7980 C   0  0  0  0  0  0  0  0  0  0  0  0
   -4.8100   19.7590  -33.8260 C   0  0  1  0  0  0  0  0  0  0  0  0
   -4.5460   18.2380  -33.9910 C   0  0  0  0  0  0  0  0  0  0  0  0
   -5.5960   17.2630  -33.4210 C   0  0  1  0  0  0  0  0  0  0  0  0
   -5.3870   17.0130  -31.9150 C   0  0  0  0  0  0  0  0  0  0  0  0
   -6.0210   18.1080  -31.0520 C   0  0  1  0  0  0  0  0  0  0  0  0
   -5.3580   19.4880  -31.2720 C   0  0  0  0  0  0  0  0  0  0  0  0
   -5.7160   20.1660  -32.6240 C   0  0  2  0  0  0  0  0  0  0  0  0
   -7.2170   20.0380  -32.9650 C   0  0  0  0  0  0  0  0  0  0  0  0
   -7.7550   18.6030  -32.7950 C   0  0  1  0  0  0  0  0  0  0  0  0
   -9.1340   18.5880  -33.0810 O   0  0  0  0  0  0  0  0  0  0  0  0
   -7.0630   17.6170  -33.7750 C   0  0  0  0  0  0  0  0  0  0  0  0
   -7.5250   18.1620  -31.3380 C   0  0  0  0  0  0  0  0  0  0  0  0
   -3.4780   22.1390  -31.8250 C   0  0  0  0  0  0  0  0  0  0  0  0
   -3.0950   22.4290  -30.5110 C   0  0  0  0  0  0  0  0  0  0  0  0
   -3.3620   23.5360  -29.7810 N   0  0  0  0  0  0  0  0  0  0  0  0
   -4.2690   24.6000  -30.1230 C   0  0  0  0  0  0  0  0  0  0  0  0
   -3.8870   25.5650  -30.8340 O   0  0  0  0  0  0  0  0  0  0  0  0
   -5.5710   24.6000  -29.6400 O   0  0  0  0  0  0  0  0  0  0  0  0
   -4.8260   24.7850  -27.6070 H   0  0  0  0  0  0  0  0  0  0  0  0
   -3.9530   25.5670  -26.2390 H   0  0  0  0  0  0  0  0  0  0  0  0
   -1.5024   21.6844  -27.7313 H   0  0  0  0  0  0  0  0  0  0  0  0
   -1.2837   19.6438  -29.7192 H   0  0  0  0  0  0  0  0  0  0  0  0
   -1.9648   19.0565  -32.0676 H   0  0  0  0  0  0  0  0  0  0  0  0
   -3.5890   21.4665  -34.3872 H   0  0  0  0  0  0  0  0  0  0  0  0
   -2.6892   19.8986  -34.2216 H   0  0  0  0  0  0  0  0  0  0  0  0
   -5.3970   20.0352  -34.7143 H   0  0  0  0  0  0  0  0  0  0  0  0
   -4.4592   18.0345  -35.0685 H   0  0  0  0  0  0  0  0  0  0  0  0
   -3.6387   18.0472  -33.3991 H   0  0  0  0  0  0  0  0  0  0  0  0
   -5.4186   16.3091  -33.9392 H   0  0  0  0  0  0  0  0  0  0  0  0
   -5.8407   16.0465  -31.6503 H   0  0  0  0  0  0  0  0  0  0  0  0
   -4.3044   17.0146  -31.7200 H   0  0  0  0  0  0  0  0  0  0  0  0
   -5.8560   17.8561  -29.9940 H   0  0  0  0  0  0  0  0  0  0  0  0
   -5.6760   20.1558  -30.4578 H   0  0  0  0  0  0  0  0  0  0  0  0
   -4.2718   19.3149  -31.2864 H   0  0  0  0  0  0  0  0  0  0  0  0
   -5.4970   21.2311  -32.4577 H   0  0  0  0  0  0  0  0  0  0  0  0
   -7.7852   20.7060  -32.3010 H   0  0  0  0  0  0  0  0  0  0  0  0
   -7.3375   20.3105  -34.0239 H   0  0  0  0  0  0  0  0  0  0  0  0
   -9.3590   19.4210  -33.5740 H   0  0  0  0  0  0  0  0  0  0  0  0
   -7.6455   16.6840  -33.7883 H   0  0  0  0  0  0  0  0  0  0  0  0
   -7.0299   18.1252  -34.7500 H   0  0  0  0  0  0  0  0  0  0  0  0
   -8.0020   18.8824  -30.6572 H   0  0  0  0  0  0  0  0  0  0  0  0
   -7.9636   17.1652  -31.1831 H   0  0  0  0  0  0  0  0  0  0  0  0
   -4.0887   22.8483  -32.4029 H   0  0  0  0  0  0  0  0  0  0  0  0
  1  2  1  0
  2  3  2  0
  2  4  1  0
  4  5  2  0
  5  6  1  0
  6  7  2  0
  7  8  1  0
  8  9  2  0
  9 10  1  0
 10 11  1  0
 11 12  1  0
 12 13  1  0
 13 14  1  0
 14 15  1  0
 15 16  1  0
 16 17  1  0
 17 18  1  0
 18 19  1  0
 19 20  1  6
 19 21  1  0
 19 22  1  0
  9 23  1  0
 23 24  2  0
 24 25  1  0
 25 26  1  0
 26 27  2  0
 26 28  1  0
 25  4  1  0
 24  6  1  0
 17 11  1  0
 21 13  1  0
 22 15  1  0
  1 29  1  0
  1 30  1  0
  5 31  1  0
  7 32  1  0
  8 33  1  0
 10 34  1  0
 10 35  1  0
 11 36  1  6
 12 37  1  0
 12 38  1  0
 13 39  1  6
 14 40  1  0
 14 41  1  0
 15 42  1  1
 16 43  1  0
 16 44  1  0
 17 45  1  1
 18 46  1  0
 18 47  1  0
 20 48  1  0
 21 49  1  0
 21 50  1  0
 22 51  1  0
 22 52  1  0
 23 53  1  0
M  CHG  1  28  -1
M  END
>  <UniqueID>  (91) 
91

>  <SMILES>  (91) 
NC(=O)c1cc2ccc(C[C@H]3C[C@H]4CC5CC3CC(O)(C5)C4)cc2n1C(=O)[O-]

>  <Energy>  (91) 
109.73654659326746

>  <Genealogy>  (91) 
NC(=O)c1cc2ccc(CC3CC4CC5CC3CC(O)(C4)C5)cc2n1C(=O)[O-] (protonated)
NC(=O)c1cc2ccc(C[C@H]3C[C@H]4CC5CC3CC(O)(C5)C4)cc2n1C(=O)[O-] (chirality)
NC(=O)c1cc2ccc(C[C@H]3C[C@H]4CC5CC3CC(O)(C5)C4)cc2n1C(=O)[O-] (3D coordinates assigned)
NC(=O)c1cc2ccc(C[C@H]3C[C@H]4CC5CC3CC(O)(C5)C4)cc2n1C(=O)[O-] (nonaromatic ring conformer: 109.73654659326746 kcal/mol)

>  <smiles>  (91) 
NC(=O)c1cc2ccc(CC3CC4CC5CC3CC(O)(C4)C5)cc2n1C(=O)O

>  <score_type>  (91) 
oracle

>  <origin>  (91) 
adg

>  <m_score__min__energy>  (91) 
-9.9900000000000002

>  <m_primary>  (91) 
energy

$$$$
92:0
     RDKit          3D

 47 49  0  0  0  0  0  0  0  0999 V2000
   -3.3890   16.1140  -35.3190 C   0  0  0  0  0  0  0  0  0  0  0  0
   -4.2620   16.4710  -34.1950 N   0  0  0  0  0  0  0  0  0  0  0  0
   -5.5880   16.9160  -34.6670 C   0  0  1  0  0  0  0  0  0  0  0  0
   -6.7010   16.3030  -33.8060 C   0  0  0  0  0  0  0  0  0  0  0  0
   -7.0550   17.3530  -32.7640 C   0  0  0  0  0  0  0  0  0  0  0  0
   -6.5530   18.6150  -33.2840 N   0  0  0  0  0  0  0  0  0  0  0  0
   -6.8270   19.9010  -32.6810 C   0  0  0  0  0  0  0  0  0  0  0  0
   -8.1670   20.3290  -32.4680 C   0  0  0  0  0  0  0  0  0  0  0  0
   -8.4430   21.5800  -31.8930 C   0  0  0  0  0  0  0  0  0  0  0  0
   -7.3680   22.3830  -31.5290 C   0  0  0  0  0  0  0  0  0  0  0  0
   -7.3550   23.6470  -30.9840 C   0  0  0  0  0  0  0  0  0  0  0  0
   -6.0090   23.9690  -30.8390 C   0  0  0  0  0  0  0  0  0  0  0  0
   -5.5360   25.2260  -30.2250 C   0  0  0  0  0  0  0  0  0  0  0  0
   -6.1160   25.7260  -29.0200 N   0  0  0  0  0  0  0  0  0  0  0  0
   -4.6410   25.8990  -30.8040 O   0  0  0  0  0  0  0  0  0  0  0  0
   -5.2190   22.9530  -31.2880 N   0  0  0  0  0  0  0  0  0  0  0  0
   -3.7870   22.9430  -31.4050 C   0  0  0  0  0  0  0  0  0  0  0  0
   -3.0980   23.8120  -30.8010 O   0  0  0  0  0  0  0  0  0  0  0  0
   -3.1600   21.9750  -32.1950 O   0  0  0  0  0  0  0  0  0  0  0  0
   -1.8300   21.5280  -31.9580 C   0  0  0  0  0  0  0  0  0  0  0  0
   -1.2540   20.9600  -33.2510 C   0  0  0  0  0  0  0  0  0  0  0  0
   -2.1310   19.9150  -33.7890 C   0  0  0  0  0  0  0  0  0  0  0  0
   -2.8220   19.0900  -34.2140 N   0  0  0  0  0  0  0  0  0  0  0  0
   -6.0690   21.9870  -31.7050 C   0  0  0  0  0  0  0  0  0  0  0  0
   -5.7640   20.7560  -32.2970 C   0  0  0  0  0  0  0  0  0  0  0  0
   -5.7590   18.4320  -34.4900 C   0  0  0  0  0  0  0  0  0  0  0  0
   -2.4355   15.7241  -34.9332 H   0  0  0  0  0  0  0  0  0  0  0  0
   -3.8785   15.3438  -35.9332 H   0  0  0  0  0  0  0  0  0  0  0  0
   -3.1986   17.0065  -35.9332 H   0  0  0  0  0  0  0  0  0  0  0  0
   -3.7860   17.2670  -33.7090 H   0  0  0  0  0  0  0  0  0  0  0  0
   -5.6535   16.6127  -35.7223 H   0  0  0  0  0  0  0  0  0  0  0  0
   -7.5789   16.0697  -34.4264 H   0  0  0  0  0  0  0  0  0  0  0  0
   -6.3740   15.3641  -33.3354 H   0  0  0  0  0  0  0  0  0  0  0  0
   -8.1451   17.4026  -32.6257 H   0  0  0  0  0  0  0  0  0  0  0  0
   -6.6138   17.1153  -31.7848 H   0  0  0  0  0  0  0  0  0  0  0  0
   -8.9989   19.6704  -32.7580 H   0  0  0  0  0  0  0  0  0  0  0  0
   -9.4789   21.9147  -31.7353 H   0  0  0  0  0  0  0  0  0  0  0  0
   -8.2227   24.2692  -30.7197 H   0  0  0  0  0  0  0  0  0  0  0  0
   -5.7420   26.5960  -28.5790 H   0  0  0  0  0  0  0  0  0  0  0  0
   -6.9690   25.2870  -28.6090 H   0  0  0  0  0  0  0  0  0  0  0  0
   -1.2124   22.3733  -31.6202 H   0  0  0  0  0  0  0  0  0  0  0  0
   -1.8348   20.7486  -31.1818 H   0  0  0  0  0  0  0  0  0  0  0  0
   -1.1586   21.7686  -33.9906 H   0  0  0  0  0  0  0  0  0  0  0  0
   -0.2677   20.5218  -33.0385 H   0  0  0  0  0  0  0  0  0  0  0  0
   -4.7181   20.4575  -32.4613 H   0  0  0  0  0  0  0  0  0  0  0  0
   -6.2809   18.8605  -35.3584 H   0  0  0  0  0  0  0  0  0  0  0  0
   -4.7855   18.9375  -34.4085 H   0  0  0  0  0  0  0  0  0  0  0  0
  1  2  1  0
  2  3  1  0
  3  4  1  0
  4  5  1  0
  5  6  1  0
  6  7  1  0
  7  8  2  0
  8  9  1  0
  9 10  2  0
 10 11  1  0
 11 12  2  0
 12 13  1  0
 13 14  1  0
 13 15  2  0
 12 16  1  0
 16 17  1  0
 17 18  2  0
 17 19  1  0
 19 20  1  0
 20 21  1  0
 21 22  1  0
 22 23  3  0
 16 24  1  0
 24 25  2  0
  6 26  1  0
 26  3  1  0
 25  7  1  0
 24 10  1  0
  1 27  1  0
  1 28  1  0
  1 29  1  0
  2 30  1  0
  3 31  1  6
  4 32  1  0
  4 33  1  0
  5 34  1  0
  5 35  1  0
  8 36  1  0
  9 37  1  0
 11 38  1  0
 14 39  1  0
 14 40  1  0
 20 41  1  0
 20 42  1  0
 21 43  1  0
 21 44  1  0
 25 45  1  0
 26 46  1  0
 26 47  1  0
M  END
>  <UniqueID>  (92) 
92

>  <SMILES>  (92) 
CN[C@H]1CCN(c2ccc3cc(C(N)=O)n(C(=O)OCCC#N)c3c2)C1

>  <Energy>  (92) 
84.18318040720142

>  <Genealogy>  (92) 
CN[C@H]1CCN(c2ccc3cc(C(N)=O)n(C(=O)OCCC#N)c3c2)C1 (chirality)
CN[C@H]1CCN(c2ccc3cc(C(N)=O)n(C(=O)OCCC#N)c3c2)C1 (3D coordinates assigned)
CN[C@H]1CCN(c2ccc3cc(C(N)=O)n(C(=O)OCCC#N)c3c2)C1 (nonaromatic ring conformer: 84.18318040720142 kcal/mol)

>  <smiles>  (92) 
CNC1CCN(c2ccc3cc(C(N)=O)n(C(=O)OCCC#N)c3c2)C1

>  <score_type>  (92) 
oracle

>  <origin>  (92) 
adg

>  <m_score__min__energy>  (92) 
-9.3000000000000007

>  <m_primary>  (92) 
energy

$$$$
93:0
     RDKit          3D

 40 41  0  0  0  0  0  0  0  0999 V2000
   -2.6160   23.3170  -27.8820 C   0  0  0  0  0  0  0  0  0  0  0  0
   -1.7740   23.8050  -28.9870 N   0  0  0  0  0  0  0  0  0  0  0  0
   -0.8970   24.8810  -28.4930 C   0  0  0  0  0  0  0  0  0  0  0  0
   -0.9820   22.6920  -29.5540 C   0  0  0  0  0  0  0  0  0  0  0  0
   -1.6280   22.1660  -30.8410 C   0  0  0  0  0  0  0  0  0  0  0  0
   -3.0570   21.9540  -30.6400 N   0  0  0  0  0  0  0  0  0  0  0  0
   -4.0320   22.0940  -31.6770 C   0  0  0  0  0  0  0  0  0  0  0  0
   -3.7120   21.8900  -32.8800 O   0  0  0  0  0  0  0  0  0  0  0  0
   -5.3770   22.4810  -31.3500 N   0  0  0  0  0  0  0  0  0  0  0  0
   -5.8290   23.7310  -31.0470 C   0  0  0  0  0  0  0  0  0  0  0  0
   -4.9880   24.9290  -30.8410 C   0  0  0  0  0  0  0  0  0  0  0  0
   -3.5950   24.8140  -30.5510 N   0  0  0  0  0  0  0  0  0  0  0  0
   -5.5200   26.0700  -30.8700 O   0  0  0  0  0  0  0  0  0  0  0  0
   -7.2140   23.7350  -30.9170 C   0  0  0  0  0  0  0  0  0  0  0  0
   -7.6030   22.4340  -31.1400 C   0  0  0  0  0  0  0  0  0  0  0  0
   -8.8770   21.8750  -31.1670 C   0  0  0  0  0  0  0  0  0  0  0  0
   -8.9910   20.5100  -31.4780 C   0  0  0  0  0  0  0  0  0  0  0  0
   -7.8390   19.7290  -31.7520 C   0  0  0  0  0  0  0  0  0  0  0  0
   -7.9800   18.2820  -32.1530 C   0  0  0  0  0  0  0  0  0  0  0  0
   -7.1600   17.4790  -31.3800 F   0  0  0  0  0  0  0  0  0  0  0  0
   -9.2940   17.8880  -31.9770 F   0  0  0  0  0  0  0  0  0  0  0  0
   -7.6310   18.1070  -33.4800 F   0  0  0  0  0  0  0  0  0  0  0  0
   -6.5640   20.3420  -31.7420 C   0  0  0  0  0  0  0  0  0  0  0  0
   -6.4770   21.6970  -31.4020 C   0  0  0  0  0  0  0  0  0  0  0  0
   -2.1523   23.5857  -26.9214 H   0  0  0  0  0  0  0  0  0  0  0  0
   -3.6127   23.7774  -27.9496 H   0  0  0  0  0  0  0  0  0  0  0  0
   -2.7120   22.2233  -27.9496 H   0  0  0  0  0  0  0  0  0  0  0  0
   -0.8984   24.8792  -27.3930 H   0  0  0  0  0  0  0  0  0  0  0  0
    0.1273   24.7161  -28.8586 H   0  0  0  0  0  0  0  0  0  0  0  0
   -1.2651   25.8510  -28.8586 H   0  0  0  0  0  0  0  0  0  0  0  0
    0.0332   23.0501  -29.7801 H   0  0  0  0  0  0  0  0  0  0  0  0
   -0.9443   21.8750  -28.8185 H   0  0  0  0  0  0  0  0  0  0  0  0
   -1.4798   22.8994  -31.6474 H   0  0  0  0  0  0  0  0  0  0  0  0
   -1.1588   21.2086  -31.1115 H   0  0  0  0  0  0  0  0  0  0  0  0
   -3.0080   25.6730  -30.4530 H   0  0  0  0  0  0  0  0  0  0  0  0
   -3.1590   23.8880  -30.3440 H   0  0  0  0  0  0  0  0  0  0  0  0
   -7.8602   24.5945  -30.6854 H   0  0  0  0  0  0  0  0  0  0  0  0
   -9.7676   22.4835  -30.9514 H   0  0  0  0  0  0  0  0  0  0  0  0
   -9.9855   20.0410  -31.5095 H   0  0  0  0  0  0  0  0  0  0  0  0
   -5.6614   19.7667  -31.9957 H   0  0  0  0  0  0  0  0  0  0  0  0
  1  2  1  0
  2  3  1  0
  2  4  1  0
  4  5  1  0
  5  6  1  0
  6  7  1  0
  7  8  2  0
  7  9  1  0
  9 10  1  0
 10 11  1  0
 11 12  1  0
 11 13  2  0
 10 14  2  0
 14 15  1  0
 15 16  2  0
 16 17  1  0
 17 18  2  0
 18 19  1  0
 19 20  1  0
 19 21  1  0
 19 22  1  0
 18 23  1  0
 23 24  2  0
 24  9  1  0
 24 15  1  0
  1 25  1  0
  1 26  1  0
  1 27  1  0
  3 28  1  0
  3 29  1  0
  3 30  1  0
  4 31  1  0
  4 32  1  0
  5 33  1  0
  5 34  1  0
 12 35  1  0
 12 36  1  0
 14 37  1  0
 16 38  1  0
 17 39  1  0
 23 40  1  0
M  CHG  1   6  -1
M  END
>  <UniqueID>  (93) 
93

>  <SMILES>  (93) 
CN(C)CC[N-]C(=O)n1c(C(N)=O)cc2ccc(C(F)(F)F)cc21

>  <Energy>  (93) 
76.9799281367658

>  <Genealogy>  (93) 
CN(C)CC[N-]C(=O)n1c(C(N)=O)cc2ccc(C(F)(F)F)cc21 (protonated)
CN(C)CC[N-]C(=O)n1c(C(N)=O)cc2ccc(C(F)(F)F)cc21 (3D coordinates assigned)
CN(C)CC[N-]C(=O)n1c(C(N)=O)cc2ccc(C(F)(F)F)cc21 (optimized conformer: 76.9799281367658 kcal/mol)

>  <smiles>  (93) 
CN(C)CCNC(=O)n1c(C(N)=O)cc2ccc(C(F)(F)F)cc21

>  <score_type>  (93) 
oracle

>  <origin>  (93) 
adg

>  <m_score__min__energy>  (93) 
-8.3900000000000006

>  <m_primary>  (93) 
energy

$$$$
94:0
     RDKit          3D

 35 38  0  0  0  0  0  0  0  0999 V2000
   -4.2420   25.6990  -30.5350 N   0  0  0  0  0  0  0  0  0  0  0  0
   -5.5640   25.2100  -30.3240 C   0  0  0  0  0  0  0  0  0  0  0  0
   -6.3830   25.9110  -29.6720 O   0  0  0  0  0  0  0  0  0  0  0  0
   -5.9530   23.8860  -30.8510 C   0  0  0  0  0  0  0  0  0  0  0  0
   -7.2530   23.5530  -31.2310 C   0  0  0  0  0  0  0  0  0  0  0  0
   -7.1750   22.2620  -31.7040 C   0  0  0  0  0  0  0  0  0  0  0  0
   -8.1710   21.4260  -32.1980 C   0  0  0  0  0  0  0  0  0  0  0  0
   -7.8080   20.1280  -32.5920 C   0  0  0  0  0  0  0  0  0  0  0  0
   -6.4630   19.6820  -32.4780 C   0  0  0  0  0  0  0  0  0  0  0  0
   -6.0880   18.3070  -32.8930 C   0  0  0  0  0  0  0  0  0  0  0  0
   -5.7390   18.0250  -34.2250 C   0  0  0  0  0  0  0  0  0  0  0  0
   -5.3910   16.7260  -34.6000 C   0  0  0  0  0  0  0  0  0  0  0  0
   -5.3920   15.7140  -33.6410 C   0  0  0  0  0  0  0  0  0  0  0  0
   -5.7290   15.9950  -32.3550 N   0  0  0  0  0  0  0  0  0  0  0  0
   -6.0750   17.2510  -31.9640 C   0  0  0  0  0  0  0  0  0  0  0  0
   -5.4820   20.5630  -31.9630 C   0  0  0  0  0  0  0  0  0  0  0  0
   -5.8720   21.8560  -31.5990 C   0  0  0  0  0  0  0  0  0  0  0  0
   -5.1090   22.8430  -31.0830 N   0  0  0  0  0  0  0  0  0  0  0  0
   -3.7050   22.7690  -30.7870 C   0  0  0  0  0  0  0  0  0  0  0  0
   -2.9320   22.1750  -31.5860 O   0  0  0  0  0  0  0  0  0  0  0  0
   -3.1640   23.3800  -29.5600 C   0  0  0  0  0  0  0  0  0  0  0  0
   -3.6110   23.0460  -28.2790 C   0  0  0  0  0  0  0  0  0  0  0  0
   -2.7000   24.0050  -27.2650 S   0  0  0  0  0  0  0  0  0  0  0  0
   -1.8010   24.7920  -28.4130 N   0  0  0  0  0  0  0  0  0  0  0  0
   -2.1840   24.3340  -29.6010 N   0  0  0  0  0  0  0  0  0  0  0  0
   -3.5310   25.6740  -29.7700 H   0  0  0  0  0  0  0  0  0  0  0  0
   -8.1498   24.1867  -31.1666 H   0  0  0  0  0  0  0  0  0  0  0  0
   -9.2123   21.7715  -32.2777 H   0  0  0  0  0  0  0  0  0  0  0  0
   -8.5737   19.4480  -32.9937 H   0  0  0  0  0  0  0  0  0  0  0  0
   -5.7401   18.8303  -34.9743 H   0  0  0  0  0  0  0  0  0  0  0  0
   -5.1186   16.5031  -35.6422 H   0  0  0  0  0  0  0  0  0  0  0  0
   -5.1197   14.6870  -33.9257 H   0  0  0  0  0  0  0  0  0  0  0  0
   -6.3462   17.4420  -30.9152 H   0  0  0  0  0  0  0  0  0  0  0  0
   -4.4370   20.2382  -31.8516 H   0  0  0  0  0  0  0  0  0  0  0  0
   -4.3869   22.3168  -28.0029 H   0  0  0  0  0  0  0  0  0  0  0  0
  1  2  1  0
  2  3  2  0
  2  4  1  0
  4  5  2  0
  5  6  1  0
  6  7  2  0
  7  8  1  0
  8  9  2  0
  9 10  1  0
 10 11  2  0
 11 12  1  0
 12 13  2  0
 13 14  1  0
 14 15  2  0
  9 16  1  0
 16 17  2  0
 17 18  1  0
 18 19  1  0
 19 20  2  0
 19 21  1  0
 21 22  2  0
 22 23  1  0
 23 24  1  0
 24 25  2  0
 18  4  1  0
 25 21  1  0
 17  6  1  0
 15 10  1  0
  1 26  1  0
  5 27  1  0
  7 28  1  0
  8 29  1  0
 11 30  1  0
 12 31  1  0
 13 32  1  0
 15 33  1  0
 16 34  1  0
 22 35  1  0
M  CHG  1   1  -1
M  END
>  <UniqueID>  (94) 
94

>  <SMILES>  (94) 
[NH-]C(=O)c1cc2ccc(-c3cccnc3)cc2n1C(=O)c1csnn1

>  <Energy>  (94) 
121.40773486703614

>  <Genealogy>  (94) 
[NH-]C(=O)c1cc2ccc(-c3cccnc3)cc2n1C(=O)c1csnn1 (protonated)
[NH-]C(=O)c1cc2ccc(-c3cccnc3)cc2n1C(=O)c1csnn1 (3D coordinates assigned)
[NH-]C(=O)c1cc2ccc(-c3cccnc3)cc2n1C(=O)c1csnn1 (optimized conformer: 121.40773486703614 kcal/mol)

>  <smiles>  (94) 
NC(=O)c1cc2ccc(-c3cccnc3)cc2n1C(=O)c1csnn1

>  <score_type>  (94) 
oracle

>  <origin>  (94) 
adg

>  <m_score__min__energy>  (94) 
-11.529999999999999

>  <m_primary>  (94) 
energy

$$$$
95:0
     RDKit          3D

 35 36  0  0  0  0  0  0  0  0999 V2000
   -3.2450   20.6730  -33.1920 C   0  0  0  0  0  0  0  0  0  0  0  0
   -3.8080   21.8810  -33.1960 C   0  0  0  0  0  0  0  0  0  0  0  0
   -4.0460   22.6560  -31.9640 C   0  0  0  0  0  0  0  0  0  0  0  0
   -3.0560   23.0730  -31.3060 O   0  0  0  0  0  0  0  0  0  0  0  0
   -5.3740   22.9370  -31.4910 N   0  0  0  0  0  0  0  0  0  0  0  0
   -5.8100   24.0630  -30.8590 C   0  0  0  0  0  0  0  0  0  0  0  0
   -5.0060   25.2780  -30.6130 C   0  0  0  0  0  0  0  0  0  0  0  0
   -3.6620   25.1600  -30.1530 N   0  0  0  0  0  0  0  0  0  0  0  0
   -5.4990   26.4230  -30.7900 O   0  0  0  0  0  0  0  0  0  0  0  0
   -7.1540   23.9350  -30.5100 C   0  0  0  0  0  0  0  0  0  0  0  0
   -7.5270   22.6830  -30.9460 C   0  0  0  0  0  0  0  0  0  0  0  0
   -8.7540   22.0320  -30.8670 C   0  0  0  0  0  0  0  0  0  0  0  0
   -8.8480   20.7350  -31.4020 C   0  0  0  0  0  0  0  0  0  0  0  0
   -7.7170   20.1110  -31.9850 C   0  0  0  0  0  0  0  0  0  0  0  0
   -7.8390   18.7440  -32.5990 C   0  0  0  0  0  0  0  0  0  0  0  0
   -6.4970   18.2780  -33.0740 C   0  0  0  0  0  0  0  0  0  0  0  0
   -5.7110   17.7160  -32.2630 O   0  0  0  0  0  0  0  0  0  0  0  0
   -6.1300   18.4250  -34.4520 N   0  0  0  0  0  0  0  0  0  0  0  0
   -4.8640   17.9210  -34.9670 C   0  0  0  0  0  0  0  0  0  0  0  0
   -6.4880   20.8040  -32.0480 C   0  0  0  0  0  0  0  0  0  0  0  0
   -6.4310   22.1010  -31.5280 C   0  0  0  0  0  0  0  0  0  0  0  0
   -3.0893   20.1357  -34.1391 H   0  0  0  0  0  0  0  0  0  0  0  0
   -2.9361   20.2133  -32.2416 H   0  0  0  0  0  0  0  0  0  0  0  0
   -4.1080   22.3188  -34.1595 H   0  0  0  0  0  0  0  0  0  0  0  0
   -2.8590   25.2290  -30.8170 H   0  0  0  0  0  0  0  0  0  0  0  0
   -7.7828   24.6766  -29.9956 H   0  0  0  0  0  0  0  0  0  0  0  0
   -9.6240   22.5171  -30.4003 H   0  0  0  0  0  0  0  0  0  0  0  0
   -9.8084   20.1997  -31.3677 H   0  0  0  0  0  0  0  0  0  0  0  0
   -8.2249   18.0395  -31.8475 H   0  0  0  0  0  0  0  0  0  0  0  0
   -8.5300   18.7907  -33.4536 H   0  0  0  0  0  0  0  0  0  0  0  0
   -6.7890   18.8970  -35.1110 H   0  0  0  0  0  0  0  0  0  0  0  0
   -4.2047   17.6585  -34.1265 H   0  0  0  0  0  0  0  0  0  0  0  0
   -5.0479   17.0275  -35.5817 H   0  0  0  0  0  0  0  0  0  0  0  0
   -4.3835   18.6964  -35.5817 H   0  0  0  0  0  0  0  0  0  0  0  0
   -5.5985   20.3356  -32.4946 H   0  0  0  0  0  0  0  0  0  0  0  0
  1  2  2  0
  2  3  1  0
  3  4  2  0
  3  5  1  0
  5  6  1  0
  6  7  1  0
  7  8  1  0
  7  9  2  0
  6 10  2  0
 10 11  1  0
 11 12  2  0
 12 13  1  0
 13 14  2  0
 14 15  1  0
 15 16  1  0
 16 17  2  0
 16 18  1  0
 18 19  1  0
 14 20  1  0
 20 21  2  0
 21  5  1  0
 21 11  1  0
  1 22  1  0
  1 23  1  0
  2 24  1  0
  8 25  1  0
 10 26  1  0
 12 27  1  0
 13 28  1  0
 15 29  1  0
 15 30  1  0
 18 31  1  0
 19 32  1  0
 19 33  1  0
 19 34  1  0
 20 35  1  0
M  CHG  1   8  -1
M  END
>  <UniqueID>  (95) 
95

>  <SMILES>  (95) 
C=CC(=O)n1c(C([NH-])=O)cc2ccc(CC(=O)NC)cc21

>  <Energy>  (95) 
67.48600679041262

>  <Genealogy>  (95) 
C=CC(=O)n1c(C([NH-])=O)cc2ccc(CC(=O)NC)cc21 (protonated)
C=CC(=O)n1c(C([NH-])=O)cc2ccc(CC(=O)NC)cc21 (3D coordinates assigned)
C=CC(=O)n1c(C([NH-])=O)cc2ccc(CC(=O)NC)cc21 (optimized conformer: 67.48600679041262 kcal/mol)

>  <smiles>  (95) 
C=CC(=O)n1c(C(N)=O)cc2ccc(CC(=O)NC)cc21

>  <score_type>  (95) 
oracle

>  <origin>  (95) 
adg

>  <m_score__min__energy>  (95) 
-10.68

>  <m_primary>  (95) 
energy

$$$$
96:0
     RDKit          3D

 42 44  0  0  0  0  0  0  0  0999 V2000
   -1.2670   22.9460  -30.0280 C   0  0  0  0  0  0  0  0  0  0  0  0
   -2.7170   23.0320  -30.1550 N   0  0  0  0  0  0  0  0  0  0  0  0
   -3.4110   22.4880  -31.2840 C   0  0  0  0  0  0  0  0  0  0  0  0
   -2.7640   21.9870  -32.2430 O   0  0  0  0  0  0  0  0  0  0  0  0
   -4.8440   22.5450  -31.3440 N   0  0  0  0  0  0  0  0  0  0  0  0
   -5.6530   23.6090  -31.0750 C   0  0  0  0  0  0  0  0  0  0  0  0
   -5.2220   24.9000  -30.4990 C   0  0  0  0  0  0  0  0  0  0  0  0
   -3.8560   25.3040  -30.5440 N   0  0  0  0  0  0  0  0  0  0  0  0
   -6.0660   25.6390  -29.9240 O   0  0  0  0  0  0  0  0  0  0  0  0
   -6.9830   23.2900  -31.3400 C   0  0  0  0  0  0  0  0  0  0  0  0
   -6.9650   21.9830  -31.7720 C   0  0  0  0  0  0  0  0  0  0  0  0
   -8.0100   21.1590  -32.1780 C   0  0  0  0  0  0  0  0  0  0  0  0
   -7.6970   19.8560  -32.5980 C   0  0  0  0  0  0  0  0  0  0  0  0
   -6.3500   19.4000  -32.6120 C   0  0  0  0  0  0  0  0  0  0  0  0
   -6.0110   17.9980  -33.0750 C   0  0  1  0  0  0  0  0  0  0  0  0
   -7.2400   17.0810  -33.0250 C   0  0  0  0  0  0  0  0  0  0  0  0
   -5.3880   18.0310  -34.4450 C   0  0  0  0  0  0  0  0  0  0  0  0
   -6.0250   18.5020  -35.4280 O   0  0  0  0  0  0  0  0  0  0  0  0
   -4.0430   17.5760  -34.6140 N   0  0  0  0  0  0  0  0  0  0  0  0
   -2.9910   17.8880  -33.6570 C   0  0  0  0  0  0  0  0  0  0  0  0
   -2.4800   19.3140  -33.7610 C   0  0  0  0  0  0  0  0  0  0  0  0
   -1.6540   18.1630  -34.3180 C   0  0  0  0  0  0  0  0  0  0  0  0
   -5.3180   20.2700  -32.1910 C   0  0  0  0  0  0  0  0  0  0  0  0
   -5.6630   21.5570  -31.7640 C   0  0  0  0  0  0  0  0  0  0  0  0
   -0.9925   22.9297  -28.9629 H   0  0  0  0  0  0  0  0  0  0  0  0
   -0.9105   22.0251  -30.5126 H   0  0  0  0  0  0  0  0  0  0  0  0
   -0.8041   23.8183  -30.5126 H   0  0  0  0  0  0  0  0  0  0  0  0
   -3.2600   23.5160  -29.4050 H   0  0  0  0  0  0  0  0  0  0  0  0
   -3.5380   26.0500  -31.2010 H   0  0  0  0  0  0  0  0  0  0  0  0
   -7.8608   23.9434  -31.2279 H   0  0  0  0  0  0  0  0  0  0  0  0
   -9.0500   21.5174  -32.1702 H   0  0  0  0  0  0  0  0  0  0  0  0
   -8.5031   19.1802  -32.9199 H   0  0  0  0  0  0  0  0  0  0  0  0
   -5.2700   17.5739  -32.3814 H   0  0  0  0  0  0  0  0  0  0  0  0
   -7.5066   16.8821  -31.9765 H   0  0  0  0  0  0  0  0  0  0  0  0
   -8.0844   17.5716  -33.5313 H   0  0  0  0  0  0  0  0  0  0  0  0
   -7.0102   16.1319  -33.5313 H   0  0  0  0  0  0  0  0  0  0  0  0
   -3.3417   17.2467  -32.8350 H   0  0  0  0  0  0  0  0  0  0  0  0
   -2.9663   20.0244  -34.4457 H   0  0  0  0  0  0  0  0  0  0  0  0
   -2.2966   20.1296  -33.0461 H   0  0  0  0  0  0  0  0  0  0  0  0
   -1.5427   18.0416  -35.4056 H   0  0  0  0  0  0  0  0  0  0  0  0
   -0.6252   17.8018  -34.1726 H   0  0  0  0  0  0  0  0  0  0  0  0
   -4.2679   19.9425  -32.1990 H   0  0  0  0  0  0  0  0  0  0  0  0
  1  2  1  0
  2  3  1  0
  3  4  2  0
  3  5  1  0
  5  6  1  0
  6  7  1  0
  7  8  1  0
  7  9  2  0
  6 10  2  0
 10 11  1  0
 11 12  2  0
 12 13  1  0
 13 14  2  0
 14 15  1  0
 15 16  1  0
 15 17  1  0
 17 18  2  0
 17 19  1  0
 19 20  1  0
 20 21  1  0
 21 22  1  0
 14 23  1  0
 23 24  2  0
 24  5  1  0
 24 11  1  0
 22 20  1  0
  1 25  1  0
  1 26  1  0
  1 27  1  0
  2 28  1  0
  8 29  1  0
 10 30  1  0
 12 31  1  0
 13 32  1  0
 15 33  1  1
 16 34  1  0
 16 35  1  0
 16 36  1  0
 20 37  1  0
 21 38  1  0
 21 39  1  0
 22 40  1  0
 22 41  1  0
 23 42  1  0
M  CHG  2   8  -1  19  -1
M  END
>  <UniqueID>  (96) 
96

>  <SMILES>  (96) 
CNC(=O)n1c(C([NH-])=O)cc2ccc([C@@H](C)C(=O)[N-]C3CC3)cc21

>  <Energy>  (96) 
340.53470573641334

>  <Genealogy>  (96) 
CNC(=O)n1c(C([NH-])=O)cc2ccc(C(C)C(=O)[N-]C3CC3)cc21 (protonated)
CNC(=O)n1c(C([NH-])=O)cc2ccc([C@@H](C)C(=O)[N-]C3CC3)cc21 (chirality)
CNC(=O)n1c(C([NH-])=O)cc2ccc([C@@H](C)C(=O)[N-]C3CC3)cc21 (3D coordinates assigned)
CNC(=O)n1c(C([NH-])=O)cc2ccc([C@@H](C)C(=O)[N-]C3CC3)cc21 (nonaromatic ring conformer: 340.53470573641334 kcal/mol)

>  <smiles>  (96) 
CNC(=O)n1c(C(N)=O)cc2ccc(C(C)C(=O)NC3CC3)cc21

>  <score_type>  (96) 
oracle

>  <origin>  (96) 
adg

>  <m_score__min__energy>  (96) 
-10.58

>  <m_primary>  (96) 
energy

$$$$
