0:0
     RDKit          3D

 24 25  0  0  0  0  0  0  0  0999 V2000
   -3.9220   25.6480  -30.8430 N   0  0  0  0  0  0  0  0  0  0  0  0
   -5.2100   25.2650  -30.3690 C   0  0  0  0  0  0  0  0  0  0  0  0
   -5.7860   25.9760  -29.5050 O   0  0  0  0  0  0  0  0  0  0  0  0
   -5.8720   24.0670  -30.9260 C   0  0  0  0  0  0  0  0  0  0  0  0
   -7.2570   23.9140  -30.9840 C   0  0  0  0  0  0  0  0  0  0  0  0
   -7.4630   22.6440  -31.4720 C   0  0  0  0  0  0  0  0  0  0  0  0
   -8.6510   21.9690  -31.7410 C   0  0  0  0  0  0  0  0  0  0  0  0
   -8.5650   20.6690  -32.2650 C   0  0  0  0  0  0  0  0  0  0  0  0
   -7.3050   20.0750  -32.5170 C   0  0  0  0  0  0  0  0  0  0  0  0
   -7.2310   18.7560  -33.0610 N   0  0  0  0  0  0  0  0  0  0  0  0
   -6.1200   20.7880  -32.2330 C   0  0  0  0  0  0  0  0  0  0  0  0
   -6.2350   22.0760  -31.6960 C   0  0  0  0  0  0  0  0  0  0  0  0
   -5.2470   22.9390  -31.3690 N   0  0  0  0  0  0  0  0  0  0  0  0
   -3.8370   22.7200  -31.5350 C   0  0  0  0  0  0  0  0  0  0  0  0
   -2.9220   23.1250  -30.5180 N   0  0  0  0  0  0  0  0  0  0  0  0
   -3.3970   22.1970  -32.5930 O   0  0  0  0  0  0  0  0  0  0  0  0
   -3.0540   25.2990  -30.3810 H   0  0  0  0  0  0  0  0  0  0  0  0
   -8.0220   24.6517  -30.7000 H   0  0  0  0  0  0  0  0  0  0  0  0
   -9.6265   22.4396  -31.5490 H   0  0  0  0  0  0  0  0  0  0  0  0
   -9.4854   20.1069  -32.4817 H   0  0  0  0  0  0  0  0  0  0  0  0
   -6.5170   18.0750  -32.7190 H   0  0  0  0  0  0  0  0  0  0  0  0
   -7.8900   18.4490  -33.8130 H   0  0  0  0  0  0  0  0  0  0  0  0
   -5.1329   20.3436  -32.4284 H   0  0  0  0  0  0  0  0  0  0  0  0
   -2.4900   24.0750  -30.5330 H   0  0  0  0  0  0  0  0  0  0  0  0
  1  2  1  0
  2  3  2  0
  2  4  1  0
  4  5  2  0
  5  6  1  0
  6  7  2  0
  7  8  1  0
  8  9  2  0
  9 10  1  0
  9 11  1  0
 11 12  2  0
 12 13  1  0
 13 14  1  0
 14 15  1  0
 14 16  2  0
 13  4  1  0
 12  6  1  0
  1 17  1  0
  5 18  1  0
  7 19  1  0
  8 20  1  0
 10 21  1  0
 10 22  1  0
 11 23  1  0
 15 24  1  0
M  CHG  2   1  -1  15  -1
M  END
>  <UniqueID>  (1) 
1

>  <SMILES>  (1) 
[NH-]C(=O)c1cc2ccc(N)cc2n1C([NH-])=O

>  <Energy>  (1) 
62.75284457073142

>  <Genealogy>  (1) 
[NH-]C(=O)c1cc2ccc(N)cc2n1C([NH-])=O (protonated)
[NH-]C(=O)c1cc2ccc(N)cc2n1C([NH-])=O (3D coordinates assigned)
[NH-]C(=O)c1cc2ccc(N)cc2n1C([NH-])=O (optimized conformer: 62.75284457073142 kcal/mol)

>  <smiles>  (1) 
NC(=O)c1cc2ccc(N)cc2n1C(N)=O

>  <score_type>  (1) 
oracle

>  <origin>  (1) 
adg

>  <m_score__min__energy>  (1) 
-8.7699999999999996

>  <m_primary>  (1) 
energy

$$$$
1:0
     RDKit          3D

 55 57  0  0  0  0  0  0  0  0999 V2000
   -4.5350   13.6570  -31.2660 C   0  0  0  0  0  0  0  0  0  0  0  0
   -3.9460   13.5880  -32.5590 O   0  0  0  0  0  0  0  0  0  0  0  0
   -3.2150   14.6440  -33.1100 C   0  0  0  0  0  0  0  0  0  0  0  0
   -1.9560   14.5820  -33.1640 O   0  0  0  0  0  0  0  0  0  0  0  0
   -3.9110   15.8220  -33.6570 C   0  0  0  0  0  0  0  0  0  0  0  0
   -3.2920   16.6800  -34.5770 C   0  0  0  0  0  0  0  0  0  0  0  0
   -3.9590   17.7780  -35.0220 N   0  0  0  0  0  0  0  0  0  0  0  0
   -5.2120   18.0690  -34.5840 C   0  0  0  0  0  0  0  0  0  0  0  0
   -5.8360   17.2200  -33.6570 C   0  0  0  0  0  0  0  0  0  0  0  0
   -7.2310   17.4980  -33.1560 C   0  0  0  0  0  0  0  0  0  0  0  0
   -7.2420   18.0880  -31.7330 C   0  0  0  0  0  0  0  0  0  0  0  0
   -7.3200   19.5950  -31.7480 C   0  0  0  0  0  0  0  0  0  0  0  0
   -8.5490   20.2370  -32.0450 C   0  0  0  0  0  0  0  0  0  0  0  0
   -8.6660   21.6340  -31.9610 C   0  0  0  0  0  0  0  0  0  0  0  0
   -7.5460   22.3600  -31.5650 C   0  0  0  0  0  0  0  0  0  0  0  0
   -7.4000   23.7110  -31.3550 C   0  0  0  0  0  0  0  0  0  0  0  0
   -6.0910   23.8730  -30.9110 C   0  0  0  0  0  0  0  0  0  0  0  0
   -5.5490   25.1640  -30.4430 C   0  0  0  0  0  0  0  0  0  0  0  0
   -4.2250   25.5750  -30.7830 N   0  0  0  0  0  0  0  0  0  0  0  0
   -6.2420   25.8860  -29.6790 O   0  0  0  0  0  0  0  0  0  0  0  0
   -5.4420   22.6750  -30.8690 N   0  0  0  0  0  0  0  0  0  0  0  0
   -4.0600   22.4480  -30.5420 C   0  0  0  0  0  0  0  0  0  0  0  0
   -3.4290   23.2930  -29.8530 O   0  0  0  0  0  0  0  0  0  0  0  0
   -3.4280   21.2840  -31.0070 O   0  0  0  0  0  0  0  0  0  0  0  0
   -2.9370   21.0510  -32.3350 C   0  0  0  0  0  0  0  0  0  0  0  0
   -1.4590   21.4720  -32.4480 C   0  0  0  0  0  0  0  0  0  0  0  0
   -3.0460   19.5410  -32.6000 C   0  0  0  0  0  0  0  0  0  0  0  0
   -3.7950   21.8030  -33.3720 C   0  0  0  0  0  0  0  0  0  0  0  0
   -6.3490   21.7560  -31.2710 C   0  0  0  0  0  0  0  0  0  0  0  0
   -6.1940   20.3690  -31.3840 C   0  0  0  0  0  0  0  0  0  0  0  0
   -5.1710   16.1120  -33.2360 N   0  0  0  0  0  0  0  0  0  0  0  0
   -3.7506   13.5651  -30.5004 H   0  0  0  0  0  0  0  0  0  0  0  0
   -5.0505   14.6217  -31.1489 H   0  0  0  0  0  0  0  0  0  0  0  0
   -5.2595   12.8376  -31.1489 H   0  0  0  0  0  0  0  0  0  0  0  0
   -2.2744   16.4664  -34.9360 H   0  0  0  0  0  0  0  0  0  0  0  0
   -5.7337   18.9641  -34.9536 H   0  0  0  0  0  0  0  0  0  0  0  0
   -7.7143   18.2132  -33.8378 H   0  0  0  0  0  0  0  0  0  0  0  0
   -7.7709   16.5402  -33.1240 H   0  0  0  0  0  0  0  0  0  0  0  0
   -8.1136   17.6924  -31.1910 H   0  0  0  0  0  0  0  0  0  0  0  0
   -6.3026   17.8007  -31.2381 H   0  0  0  0  0  0  0  0  0  0  0  0
   -9.4195   19.6347  -32.3442 H   0  0  0  0  0  0  0  0  0  0  0  0
   -9.6134   22.1390  -32.2007 H   0  0  0  0  0  0  0  0  0  0  0  0
   -8.1560   24.4957  -31.5057 H   0  0  0  0  0  0  0  0  0  0  0  0
   -3.8760   26.5170  -30.4960 H   0  0  0  0  0  0  0  0  0  0  0  0
   -3.5660   24.9160  -31.2510 H   0  0  0  0  0  0  0  0  0  0  0  0
   -1.0342   21.5930  -31.4406 H   0  0  0  0  0  0  0  0  0  0  0  0
   -0.8978   20.6980  -32.9920 H   0  0  0  0  0  0  0  0  0  0  0  0
   -1.3899   22.4255  -32.9920 H   0  0  0  0  0  0  0  0  0  0  0  0
   -3.0849   19.0024  -31.6417 H   0  0  0  0  0  0  0  0  0  0  0  0
   -3.9614   19.3346  -33.1740 H   0  0  0  0  0  0  0  0  0  0  0  0
   -2.1698   19.2053  -33.1740 H   0  0  0  0  0  0  0  0  0  0  0  0
   -4.5236   22.4416  -32.8512 H   0  0  0  0  0  0  0  0  0  0  0  0
   -3.1448   22.4274  -34.0023 H   0  0  0  0  0  0  0  0  0  0  0  0
   -4.3287   21.0765  -34.0023 H   0  0  0  0  0  0  0  0  0  0  0  0
   -5.2205   19.8933  -31.1943 H   0  0  0  0  0  0  0  0  0  0  0  0
  1  2  1  0
  2  3  1  0
  3  4  2  0
  3  5  1  0
  5  6  2  0
  6  7  1  0
  7  8  2  0
  8  9  1  0
  9 10  1  0
 10 11  1  0
 11 12  1  0
 12 13  2  0
 13 14  1  0
 14 15  2  0
 15 16  1  0
 16 17  2  0
 17 18  1  0
 18 19  1  0
 18 20  2  0
 17 21  1  0
 21 22  1  0
 22 23  2  0
 22 24  1  0
 24 25  1  0
 25 26  1  0
 25 27  1  0
 25 28  1  0
 21 29  1  0
 29 30  2  0
  9 31  2  0
 31  5  1  0
 30 12  1  0
 29 15  1  0
  1 32  1  0
  1 33  1  0
  1 34  1  0
  6 35  1  0
  8 36  1  0
 10 37  1  0
 10 38  1  0
 11 39  1  0
 11 40  1  0
 13 41  1  0
 14 42  1  0
 16 43  1  0
 19 44  1  0
 19 45  1  0
 26 46  1  0
 26 47  1  0
 26 48  1  0
 27 49  1  0
 27 50  1  0
 27 51  1  0
 28 52  1  0
 28 53  1  0
 28 54  1  0
 30 55  1  0
M  END
>  <UniqueID>  (2) 
2

>  <SMILES>  (2) 
COC(=O)c1cncc(CCc2ccc3cc(C(N)=O)n(C(=O)OC(C)(C)C)c3c2)n1

>  <Energy>  (2) 
85.23212580701272

>  <Genealogy>  (2) 
COC(=O)c1cncc(CCc2ccc3cc(C(N)=O)n(C(=O)OC(C)(C)C)c3c2)n1 (3D coordinates assigned)
COC(=O)c1cncc(CCc2ccc3cc(C(N)=O)n(C(=O)OC(C)(C)C)c3c2)n1 (optimized conformer: 85.23212580701272 kcal/mol)

>  <smiles>  (2) 
COC(=O)c1cncc(CCc2ccc3cc(C(N)=O)n(C(=O)OC(C)(C)C)c3c2)n1

>  <score_type>  (2) 
oracle

>  <origin>  (2) 
adg

>  <m_score__min__energy>  (2) 
-9.5

>  <m_primary>  (2) 
energy

$$$$
2:0
     RDKit          3D

 81 85  0  0  0  0  0  0  0  0999 V2000
   -2.6800   20.1020  -27.9740 C   0  0  0  0  0  0  0  0  0  0  0  0
   -2.6230   21.4310  -28.7500 C   0  0  0  0  0  0  0  0  0  0  0  0
   -3.4880   22.4730  -28.0220 C   0  0  0  0  0  0  0  0  0  0  0  0
   -1.1750   21.9570  -28.8260 C   0  0  0  0  0  0  0  0  0  0  0  0
   -3.1740   21.2710  -30.0660 O   0  0  0  0  0  0  0  0  0  0  0  0
   -3.6080   22.3000  -30.9170 C   0  0  0  0  0  0  0  0  0  0  0  0
   -2.7790   23.0210  -31.5330 O   0  0  0  0  0  0  0  0  0  0  0  0
   -5.0170   22.5300  -31.0890 N   0  0  0  0  0  0  0  0  0  0  0  0
   -5.7200   23.6550  -30.7720 C   0  0  0  0  0  0  0  0  0  0  0  0
   -5.1490   24.9400  -30.3210 C   0  0  0  0  0  0  0  0  0  0  0  0
   -3.8950   25.3800  -30.8410 N   0  0  0  0  0  0  0  0  0  0  0  0
   -5.7310   25.6320  -29.4440 O   0  0  0  0  0  0  0  0  0  0  0  0
   -7.0750   23.4770  -31.0420 C   0  0  0  0  0  0  0  0  0  0  0  0
   -7.1810   22.2040  -31.5530 C   0  0  0  0  0  0  0  0  0  0  0  0
   -8.2980   21.5190  -32.0140 C   0  0  0  0  0  0  0  0  0  0  0  0
   -8.1180   20.2120  -32.4940 C   0  0  0  0  0  0  0  0  0  0  0  0
   -6.8360   19.6020  -32.4850 C   0  0  0  0  0  0  0  0  0  0  0  0
   -6.6340   18.1860  -33.0050 C   0  0  2  0  0  0  0  0  0  0  0  0
   -5.7980   17.3220  -32.0180 C   0  0  0  0  0  0  0  0  0  0  0  0
   -4.7210   16.4920  -32.7260 C   0  0  0  0  0  0  0  0  0  0  0  0
   -3.8170   17.4300  -33.5480 C   0  0  1  0  0  0  0  0  0  0  0  0
   -2.5250   16.7950  -33.9620 N   0  0  0  0  0  0  0  0  0  0  0  0
   -2.7210   15.4030  -34.4050 C   0  0  0  0  0  0  0  0  0  0  0  0
   -2.2530   14.4860  -33.2840 C   0  0  0  0  0  0  0  0  0  0  0  0
   -1.3860   15.3460  -32.3820 C   0  0  0  0  0  0  0  0  0  0  0  0
   -1.3550   16.7200  -33.0520 C   0  0  2  0  0  0  0  0  0  0  0  0
   -1.1390   17.9340  -32.1030 C   0  0  0  0  0  0  0  0  0  0  0  0
   -0.9360   19.2460  -32.7660 N   0  0  0  0  0  0  0  0  0  0  0  0
    0.1610   20.0690  -32.2280 C   0  0  0  0  0  0  0  0  0  0  0  0
    0.6170   21.1040  -33.2750 C   0  0  0  0  0  0  0  0  0  0  0  0
   -0.4880   21.4620  -34.2900 C   0  0  0  0  0  0  0  0  0  0  0  0
   -0.4400   20.5670  -35.3720 O   0  0  0  0  0  0  0  0  0  0  0  0
   -1.8740   21.4090  -33.6250 C   0  0  0  0  0  0  0  0  0  0  0  0
   -2.1720   20.0180  -33.0240 C   0  0  0  0  0  0  0  0  0  0  0  0
   -4.5940   18.1870  -34.6580 C   0  0  0  0  0  0  0  0  0  0  0  0
   -6.1290   18.1660  -34.4740 C   0  0  0  0  0  0  0  0  0  0  0  0
   -5.7240   20.3390  -32.0120 C   0  0  0  0  0  0  0  0  0  0  0  0
   -5.9280   21.6510  -31.5670 C   0  0  0  0  0  0  0  0  0  0  0  0
   -2.6712   20.3077  -26.8934 H   0  0  0  0  0  0  0  0  0  0  0  0
   -3.6021   19.5630  -28.2371 H   0  0  0  0  0  0  0  0  0  0  0  0
   -1.8074   19.4860  -28.2371 H   0  0  0  0  0  0  0  0  0  0  0  0
   -3.3806   22.3437  -26.9349 H   0  0  0  0  0  0  0  0  0  0  0  0
   -3.1601   23.4841  -28.3051 H   0  0  0  0  0  0  0  0  0  0  0  0
   -4.5422   22.3367  -28.3051 H   0  0  0  0  0  0  0  0  0  0  0  0
   -0.7828   22.0995  -27.8082 H   0  0  0  0  0  0  0  0  0  0  0  0
   -0.5481   21.2291  -29.3620 H   0  0  0  0  0  0  0  0  0  0  0  0
   -1.1615   22.9175  -29.3620 H   0  0  0  0  0  0  0  0  0  0  0  0
   -3.0000   24.9390  -30.5300 H   0  0  0  0  0  0  0  0  0  0  0  0
   -7.8877   24.2006  -30.8809 H   0  0  0  0  0  0  0  0  0  0  0  0
   -9.2936   21.9865  -32.0033 H   0  0  0  0  0  0  0  0  0  0  0  0
   -8.9821   19.6529  -32.8824 H   0  0  0  0  0  0  0  0  0  0  0  0
   -7.6187   17.6975  -33.0463 H   0  0  0  0  0  0  0  0  0  0  0  0
   -5.3085   17.9894  -31.2935 H   0  0  0  0  0  0  0  0  0  0  0  0
   -6.4868   16.6211  -31.5238 H   0  0  0  0  0  0  0  0  0  0  0  0
   -4.1153   15.9601  -31.9775 H   0  0  0  0  0  0  0  0  0  0  0  0
   -5.1984   15.7601  -33.3941 H   0  0  0  0  0  0  0  0  0  0  0  0
   -3.4855   18.2331  -32.8734 H   0  0  0  0  0  0  0  0  0  0  0  0
   -3.7858   15.2238  -34.6147 H   0  0  0  0  0  0  0  0  0  0  0  0
   -2.1483   15.2087  -35.3238 H   0  0  0  0  0  0  0  0  0  0  0  0
   -3.1152   14.0929  -32.7254 H   0  0  0  0  0  0  0  0  0  0  0  0
   -1.6979   13.6201  -33.6739 H   0  0  0  0  0  0  0  0  0  0  0  0
   -1.8260   15.4165  -31.3763 H   0  0  0  0  0  0  0  0  0  0  0  0
   -0.3773   14.9255  -32.2568 H   0  0  0  0  0  0  0  0  0  0  0  0
   -0.4358   16.8132  -33.6489 H   0  0  0  0  0  0  0  0  0  0  0  0
   -2.0240   18.0170  -31.4550 H   0  0  0  0  0  0  0  0  0  0  0  0
   -0.2045   17.7261  -31.5612 H   0  0  0  0  0  0  0  0  0  0  0  0
   -0.1879   20.5943  -31.3267 H   0  0  0  0  0  0  0  0  0  0  0  0
    1.0095   19.4150  -31.9786 H   0  0  0  0  0  0  0  0  0  0  0  0
    0.9221   22.0217  -32.7508 H   0  0  0  0  0  0  0  0  0  0  0  0
    1.4491   20.6569  -33.8387 H   0  0  0  0  0  0  0  0  0  0  0  0
   -0.3173   22.4863  -34.6530 H   0  0  0  0  0  0  0  0  0  0  0  0
   -0.5810   19.6570  -34.9980 H   0  0  0  0  0  0  0  0  0  0  0  0
   -1.9116   22.1591  -32.8213 H   0  0  0  0  0  0  0  0  0  0  0  0
   -2.6302   21.6159  -34.3965 H   0  0  0  0  0  0  0  0  0  0  0  0
   -2.7122   20.1501  -32.0749 H   0  0  0  0  0  0  0  0  0  0  0  0
   -2.7758   19.4568  -33.7524 H   0  0  0  0  0  0  0  0  0  0  0  0
   -4.2599   19.2350  -34.6614 H   0  0  0  0  0  0  0  0  0  0  0  0
   -4.3790   17.6721  -35.6060 H   0  0  0  0  0  0  0  0  0  0  0  0
   -6.5423   19.0481  -34.9850 H   0  0  0  0  0  0  0  0  0  0  0  0
   -6.4671   17.2069  -34.8932 H   0  0  0  0  0  0  0  0  0  0  0  0
   -4.7199   19.8902  -31.9943 H   0  0  0  0  0  0  0  0  0  0  0  0
  1  2  1  0
  2  3  1  0
  2  4  1  0
  2  5  1  0
  5  6  1  0
  6  7  2  0
  6  8  1  0
  8  9  1  0
  9 10  1  0
 10 11  1  0
 10 12  2  0
  9 13  2  0
 13 14  1  0
 14 15  2  0
 15 16  1  0
 16 17  2  0
 17 18  1  0
 18 19  1  0
 19 20  1  0
 20 21  1  0
 21 22  1  0
 22 23  1  0
 23 24  1  0
 24 25  1  0
 25 26  1  0
 26 27  1  0
 27 28  1  0
 28 29  1  0
 29 30  1  0
 30 31  1  0
 31 32  1  0
 31 33  1  0
 33 34  1  0
 21 35  1  0
 35 36  1  0
 17 37  1  0
 37 38  2  0
 38  8  1  0
 38 14  1  0
 36 18  1  0
 26 22  1  0
 34 28  1  0
  1 39  1  0
  1 40  1  0
  1 41  1  0
  3 42  1  0
  3 43  1  0
  3 44  1  0
  4 45  1  0
  4 46  1  0
  4 47  1  0
 11 48  1  0
 13 49  1  0
 15 50  1  0
 16 51  1  0
 18 52  1  6
 19 53  1  0
 19 54  1  0
 20 55  1  0
 20 56  1  0
 21 57  1  1
 23 58  1  0
 23 59  1  0
 24 60  1  0
 24 61  1  0
 25 62  1  0
 25 63  1  0
 26 64  1  6
 27 65  1  0
 27 66  1  0
 29 67  1  0
 29 68  1  0
 30 69  1  0
 30 70  1  0
 31 71  1  0
 32 72  1  0
 33 73  1  0
 33 74  1  0
 34 75  1  0
 34 76  1  0
 35 77  1  0
 35 78  1  0
 36 79  1  0
 36 80  1  0
 37 81  1  0
M  CHG  1  11  -1
M  END
>  <UniqueID>  (3) 
3

>  <SMILES>  (3) 
CC(C)(C)OC(=O)n1c(C([NH-])=O)cc2ccc(C3CCC(N4CCC[C@@H]4CN4CCC(O)CC4)CC3)cc21

>  <Energy>  (3) 
157.0200990281601

>  <Genealogy>  (3) 
CC(C)(C)OC(=O)n1c(C([NH-])=O)cc2ccc(C3CCC(N4CCC[C@@H]4CN4CCC(O)CC4)CC3)cc21 (protonated)
CC(C)(C)OC(=O)n1c(C([NH-])=O)cc2ccc(C3CCC(N4CCC[C@@H]4CN4CCC(O)CC4)CC3)cc21 (3D coordinates assigned)
CC(C)(C)OC(=O)n1c(C([NH-])=O)cc2ccc(C3CCC(N4CCC[C@@H]4CN4CCC(O)CC4)CC3)cc21 (nonaromatic ring conformer: 157.0200990281601 kcal/mol)

>  <smiles>  (3) 
CC(C)(C)OC(=O)n1c(C(N)=O)cc2ccc(C3CCC(N4CCC[C@@H]4CN4CCC(O)CC4)CC3)cc21

>  <score_type>  (3) 
oracle

>  <origin>  (3) 
adg

>  <m_score__min__energy>  (3) 
-13.699999999999999

>  <m_primary>  (3) 
energy

$$$$
3:0
     RDKit          3D

 62 67  0  0  0  0  0  0  0  0999 V2000
   -0.8880   29.2820  -25.2270 C   0  0  0  0  0  0  0  0  0  0  0  0
    0.1340   28.3080  -24.8040 N   0  0  0  0  0  0  0  0  0  0  0  0
    0.8220   27.6880  -25.9690 C   0  0  0  0  0  0  0  0  0  0  0  0
    0.4140   26.2260  -26.2300 C   0  0  0  0  0  0  0  0  0  0  0  0
   -0.9910   26.0180  -25.8680 N   0  0  0  0  0  0  0  0  0  0  0  0
   -1.9340   25.4740  -26.8110 C   0  0  0  0  0  0  0  0  0  0  0  0
   -3.1930   25.0200  -26.3970 C   0  0  0  0  0  0  0  0  0  0  0  0
   -4.0690   24.5210  -27.3050 N   0  0  0  0  0  0  0  0  0  0  0  0
   -3.7590   24.4560  -28.6280 C   0  0  0  0  0  0  0  0  0  0  0  0
   -4.7340   23.9050  -29.6020 C   0  0  0  0  0  0  0  0  0  0  0  0
   -5.8610   24.6720  -30.0080 C   0  0  0  0  0  0  0  0  0  0  0  0
   -6.7910   24.1560  -30.9300 C   0  0  0  0  0  0  0  0  0  0  0  0
   -6.5690   22.8760  -31.4260 C   0  0  0  0  0  0  0  0  0  0  0  0
   -7.3190   22.1950  -32.3050 N   0  0  0  0  0  0  0  0  0  0  0  0
   -6.6440   21.0220  -32.4150 C   0  0  0  0  0  0  0  0  0  0  0  0
   -7.0740   19.9750  -33.2960 N   0  0  0  0  0  0  0  0  0  0  0  0
   -6.2540   18.8570  -33.6760 C   0  0  0  0  0  0  0  0  0  0  0  0
   -6.8510   17.5790  -33.8110 C   0  0  0  0  0  0  0  0  0  0  0  0
   -6.0780   16.4590  -34.1590 C   0  0  0  0  0  0  0  0  0  0  0  0
   -4.7140   16.6450  -34.3620 C   0  0  0  0  0  0  0  0  0  0  0  0
   -3.7340   15.7300  -34.6700 C   0  0  0  0  0  0  0  0  0  0  0  0
   -2.5520   16.4640  -34.7270 C   0  0  0  0  0  0  0  0  0  0  0  0
   -1.2500   15.8750  -35.0990 C   0  0  0  0  0  0  0  0  0  0  0  0
   -0.2880   16.6200  -35.8470 N   0  0  0  0  0  0  0  0  0  0  0  0
   -1.0050   14.6750  -34.8000 O   0  0  0  0  0  0  0  0  0  0  0  0
   -2.7850   17.7770  -34.4480 N   0  0  0  0  0  0  0  0  0  0  0  0
   -1.8120   18.8270  -34.2960 C   0  0  0  0  0  0  0  0  0  0  0  0
   -2.2330   20.1820  -34.1510 N   0  0  0  0  0  0  0  0  0  0  0  0
   -0.5810   18.5580  -34.3070 O   0  0  0  0  0  0  0  0  0  0  0  0
   -4.1170   17.8730  -34.2320 C   0  0  0  0  0  0  0  0  0  0  0  0
   -4.8590   19.0020  -33.8630 C   0  0  0  0  0  0  0  0  0  0  0  0
   -5.5100   20.9470  -31.6670 N   0  0  0  0  0  0  0  0  0  0  0  0
   -5.4950   22.1340  -31.0470 C   0  0  0  0  0  0  0  0  0  0  0  0
   -4.5520   22.6070  -30.1390 C   0  0  0  0  0  0  0  0  0  0  0  0
   -2.5460   24.9060  -29.0510 N   0  0  0  0  0  0  0  0  0  0  0  0
   -1.6360   25.4090  -28.1790 C   0  0  0  0  0  0  0  0  0  0  0  0
   -1.4230   26.3760  -24.5130 C   0  0  0  0  0  0  0  0  0  0  0  0
   -0.4090   27.3210  -23.8470 C   0  0  0  0  0  0  0  0  0  0  0  0
   -1.3577   29.7297  -24.3388 H   0  0  0  0  0  0  0  0  0  0  0  0
   -0.4149   30.0718  -25.8290 H   0  0  0  0  0  0  0  0  0  0  0  0
   -1.6542   28.7715  -25.8290 H   0  0  0  0  0  0  0  0  0  0  0  0
    0.5848   28.2790  -26.8659 H   0  0  0  0  0  0  0  0  0  0  0  0
    1.8976   27.6827  -25.7385 H   0  0  0  0  0  0  0  0  0  0  0  0
    0.5519   25.9956  -27.2967 H   0  0  0  0  0  0  0  0  0  0  0  0
    1.0434   25.5639  -25.6172 H   0  0  0  0  0  0  0  0  0  0  0  0
   -3.4718   25.0682  -25.3340 H   0  0  0  0  0  0  0  0  0  0  0  0
   -6.0076   25.6814  -29.5961 H   0  0  0  0  0  0  0  0  0  0  0  0
   -7.6639   24.7453  -31.2474 H   0  0  0  0  0  0  0  0  0  0  0  0
   -8.0050   20.0870  -33.7570 H   0  0  0  0  0  0  0  0  0  0  0  0
   -7.9316   17.4627  -33.6414 H   0  0  0  0  0  0  0  0  0  0  0  0
   -6.5369   15.4652  -34.2677 H   0  0  0  0  0  0  0  0  0  0  0  0
   -3.8576   14.6496  -34.8358 H   0  0  0  0  0  0  0  0  0  0  0  0
   -0.5200   17.5580  -36.2400 H   0  0  0  0  0  0  0  0  0  0  0  0
    0.6390   16.1980  -36.0750 H   0  0  0  0  0  0  0  0  0  0  0  0
   -2.2640   20.8240  -34.9740 H   0  0  0  0  0  0  0  0  0  0  0  0
   -4.3696   19.9770  -33.7221 H   0  0  0  0  0  0  0  0  0  0  0  0
   -3.6895   21.9900  -29.8466 H   0  0  0  0  0  0  0  0  0  0  0  0
   -0.6627   25.7664  -28.5465 H   0  0  0  0  0  0  0  0  0  0  0  0
   -2.4009   26.8769  -24.5670 H   0  0  0  0  0  0  0  0  0  0  0  0
   -1.4953   25.4573  -23.9123 H   0  0  0  0  0  0  0  0  0  0  0  0
   -0.9083   27.8579  -23.0270 H   0  0  0  0  0  0  0  0  0  0  0  0
    0.4277   26.7138  -23.4712 H   0  0  0  0  0  0  0  0  0  0  0  0
  1  2  1  0
  2  3  1  0
  3  4  1  0
  4  5  1  0
  5  6  1  0
  6  7  2  0
  7  8  1  0
  8  9  2  0
  9 10  1  0
 10 11  2  0
 11 12  1  0
 12 13  2  0
 13 14  1  0
 14 15  2  0
 15 16  1  0
 16 17  1  0
 17 18  2  0
 18 19  1  0
 19 20  2  0
 20 21  1  0
 21 22  2  0
 22 23  1  0
 23 24  1  0
 23 25  2  0
 22 26  1  0
 26 27  1  0
 27 28  1  0
 27 29  2  0
 26 30  1  0
 30 31  2  0
 15 32  1  0
 32 33  1  0
 33 34  2  0
  9 35  1  0
 35 36  2  0
  5 37  1  0
 37 38  1  0
 38  2  1  0
 36  6  1  0
 34 10  1  0
 33 13  1  0
 31 17  1  0
 30 20  1  0
  1 39  1  0
  1 40  1  0
  1 41  1  0
  3 42  1  0
  3 43  1  0
  4 44  1  0
  4 45  1  0
  7 46  1  0
 11 47  1  0
 12 48  1  0
 16 49  1  0
 18 50  1  0
 19 51  1  0
 21 52  1  0
 24 53  1  0
 24 54  1  0
 28 55  1  0
 31 56  1  0
 34 57  1  0
 36 58  1  0
 37 59  1  0
 37 60  1  0
 38 61  1  0
 38 62  1  0
M  CHG  2  28  -1  32  -1
M  END
>  <UniqueID>  (4) 
4

>  <SMILES>  (4) 
CN1CCN(c2cnc(-c3ccc4nc(Nc5ccc6cc(C(N)=O)n(C([NH-])=O)c6c5)[n-]c4c3)nc2)CC1

>  <Energy>  (4) 
160.73887953053804

>  <Genealogy>  (4) 
CN1CCN(c2cnc(-c3ccc4nc(Nc5ccc6cc(C(N)=O)n(C([NH-])=O)c6c5)[n-]c4c3)nc2)CC1 (protonated)
CN1CCN(c2cnc(-c3ccc4nc(Nc5ccc6cc(C(N)=O)n(C([NH-])=O)c6c5)[n-]c4c3)nc2)CC1 (3D coordinates assigned)
CN1CCN(c2cnc(-c3ccc4nc(Nc5ccc6cc(C(N)=O)n(C([NH-])=O)c6c5)[n-]c4c3)nc2)CC1 (nonaromatic ring conformer: 160.73887953053804 kcal/mol)

>  <smiles>  (4) 
CN1CCN(c2cnc(-c3ccc4nc(Nc5ccc6cc(C(N)=O)n(C(N)=O)c6c5)[nH]c4c3)nc2)CC1

>  <score_type>  (4) 
oracle

>  <origin>  (4) 
adg

>  <m_score__min__energy>  (4) 
-9.9100000000000001

>  <m_primary>  (4) 
energy

$$$$
4:0
     RDKit          3D

 66 68  0  0  0  0  0  0  0  0999 V2000
   -4.8330   12.7730  -31.3840 C   0  0  0  0  0  0  0  0  0  0  0  0
   -5.2490   13.2650  -32.6550 O   0  0  0  0  0  0  0  0  0  0  0  0
   -5.0300   14.5760  -33.1060 C   0  0  0  0  0  0  0  0  0  0  0  0
   -3.8400   15.2790  -32.8390 C   0  0  0  0  0  0  0  0  0  0  0  0
   -3.6700   16.5820  -33.3140 C   0  0  0  0  0  0  0  0  0  0  0  0
   -4.6820   17.2040  -34.0610 C   0  0  0  0  0  0  0  0  0  0  0  0
   -4.4930   18.6100  -34.5760 C   0  0  0  0  0  0  0  0  0  0  0  0
   -4.7720   19.6070  -33.5250 N   0  0  0  0  0  0  0  0  0  0  0  0
   -6.1420   20.1360  -33.4110 C   0  0  0  0  0  0  0  0  0  0  0  0
   -7.0450   19.1330  -32.7330 C   0  0  0  0  0  0  0  0  0  0  0  0
   -8.2540   19.4540  -32.2200 C   0  0  0  0  0  0  0  0  0  0  0  0
   -9.1110   18.3810  -31.6030 C   0  0  0  0  0  0  0  0  0  0  0  0
   -8.8110   20.8520  -32.3240 C   0  0  0  0  0  0  0  0  0  0  0  0
   -3.6900   20.2030  -32.7670 C   0  0  0  0  0  0  0  0  0  0  0  0
   -2.4300   19.5520  -32.6680 C   0  0  0  0  0  0  0  0  0  0  0  0
   -1.3780   20.1170  -31.9310 C   0  0  0  0  0  0  0  0  0  0  0  0
   -1.6030   21.3360  -31.3000 C   0  0  0  0  0  0  0  0  0  0  0  0
   -0.7740   22.0820  -30.4930 C   0  0  0  0  0  0  0  0  0  0  0  0
   -1.5300   23.1900  -30.1100 C   0  0  0  0  0  0  0  0  0  0  0  0
   -0.9970   24.2960  -29.2880 C   0  0  0  0  0  0  0  0  0  0  0  0
   -1.6220   25.5780  -29.2910 N   0  0  0  0  0  0  0  0  0  0  0  0
    0.0540   24.1230  -28.6170 O   0  0  0  0  0  0  0  0  0  0  0  0
   -2.7790   23.1250  -30.6550 N   0  0  0  0  0  0  0  0  0  0  0  0
   -3.8930   23.9950  -30.4010 C   0  0  0  0  0  0  0  0  0  0  0  0
   -3.8030   25.2210  -30.6800 O   0  0  0  0  0  0  0  0  0  0  0  0
   -5.0800   23.4590  -29.8800 O   0  0  0  0  0  0  0  0  0  0  0  0
   -6.4110   23.7260  -30.3480 C   0  0  0  0  0  0  0  0  0  0  0  0
   -6.8160   25.1010  -29.7990 C   0  0  0  0  0  0  0  0  0  0  0  0
   -6.4500   23.7770  -31.8870 C   0  0  0  0  0  0  0  0  0  0  0  0
   -7.3910   22.6640  -29.8130 C   0  0  0  0  0  0  0  0  0  0  0  0
   -2.8040   21.9860  -31.3830 C   0  0  0  0  0  0  0  0  0  0  0  0
   -3.8750   21.4390  -32.0970 C   0  0  0  0  0  0  0  0  0  0  0  0
   -5.8730   16.5040  -34.3180 C   0  0  0  0  0  0  0  0  0  0  0  0
   -6.0390   15.2000  -33.8480 C   0  0  0  0  0  0  0  0  0  0  0  0
   -5.3232   13.3528  -30.5880 H   0  0  0  0  0  0  0  0  0  0  0  0
   -5.1132   11.7133  -31.2914 H   0  0  0  0  0  0  0  0  0  0  0  0
   -3.7415   12.8731  -31.2914 H   0  0  0  0  0  0  0  0  0  0  0  0
   -3.0407   14.8006  -32.2540 H   0  0  0  0  0  0  0  0  0  0  0  0
   -2.7367   17.1238  -33.1010 H   0  0  0  0  0  0  0  0  0  0  0  0
   -3.4542   18.7301  -34.9174 H   0  0  0  0  0  0  0  0  0  0  0  0
   -5.1963   18.7737  -35.4058 H   0  0  0  0  0  0  0  0  0  0  0  0
   -6.1233   21.0632  -32.8195 H   0  0  0  0  0  0  0  0  0  0  0  0
   -6.5298   20.3362  -34.4207 H   0  0  0  0  0  0  0  0  0  0  0  0
   -6.7024   18.0908  -32.6527 H   0  0  0  0  0  0  0  0  0  0  0  0
   -9.0545   18.4518  -30.5067 H   0  0  0  0  0  0  0  0  0  0  0  0
  -10.1541   18.5141  -31.9257 H   0  0  0  0  0  0  0  0  0  0  0  0
   -8.7506   17.3931  -31.9257 H   0  0  0  0  0  0  0  0  0  0  0  0
   -8.9729   21.2582  -31.3147 H   0  0  0  0  0  0  0  0  0  0  0  0
   -8.0988   21.4910  -32.8666 H   0  0  0  0  0  0  0  0  0  0  0  0
   -9.7675   20.8262  -32.8666 H   0  0  0  0  0  0  0  0  0  0  0  0
   -2.2772   18.5893  -33.1777 H   0  0  0  0  0  0  0  0  0  0  0  0
   -0.4043   19.6109  -31.8546 H   0  0  0  0  0  0  0  0  0  0  0  0
    0.2641   21.8530  -30.2102 H   0  0  0  0  0  0  0  0  0  0  0  0
   -2.6630   25.6680  -29.3320 H   0  0  0  0  0  0  0  0  0  0  0  0
   -6.8079   25.0736  -28.6994 H   0  0  0  0  0  0  0  0  0  0  0  0
   -6.1036   25.8611  -30.1521 H   0  0  0  0  0  0  0  0  0  0  0  0
   -7.8267   25.3536  -30.1521 H   0  0  0  0  0  0  0  0  0  0  0  0
   -7.0887   24.6122  -32.2101 H   0  0  0  0  0  0  0  0  0  0  0  0
   -5.4311   23.9232  -32.2750 H   0  0  0  0  0  0  0  0  0  0  0  0
   -6.8580   22.8320  -32.2750 H   0  0  0  0  0  0  0  0  0  0  0  0
   -7.3800   22.6759  -28.7131 H   0  0  0  0  0  0  0  0  0  0  0  0
   -8.4063   22.8881  -30.1720 H   0  0  0  0  0  0  0  0  0  0  0  0
   -7.0862   21.6699  -30.1720 H   0  0  0  0  0  0  0  0  0  0  0  0
   -4.8438   21.9584  -32.1381 H   0  0  0  0  0  0  0  0  0  0  0  0
   -6.6782   16.9857  -34.8921 H   0  0  0  0  0  0  0  0  0  0  0  0
   -6.9717   14.6580  -34.0630 H   0  0  0  0  0  0  0  0  0  0  0  0
  1  2  1  0
  2  3  1  0
  3  4  2  0
  4  5  1  0
  5  6  2  0
  6  7  1  0
  7  8  1  0
  8  9  1  0
  9 10  1  0
 10 11  2  3
 11 12  1  0
 11 13  1  0
  8 14  1  0
 14 15  2  0
 15 16  1  0
 16 17  2  0
 17 18  1  0
 18 19  2  0
 19 20  1  0
 20 21  1  0
 20 22  2  0
 19 23  1  0
 23 24  1  0
 24 25  2  0
 24 26  1  0
 26 27  1  0
 27 28  1  0
 27 29  1  0
 27 30  1  0
 23 31  1  0
 31 32  2  0
  6 33  1  0
 33 34  2  0
 34  3  1  0
 32 14  1  0
 31 17  1  0
  1 35  1  0
  1 36  1  0
  1 37  1  0
  4 38  1  0
  5 39  1  0
  7 40  1  0
  7 41  1  0
  9 42  1  0
  9 43  1  0
 10 44  1  0
 12 45  1  0
 12 46  1  0
 12 47  1  0
 13 48  1  0
 13 49  1  0
 13 50  1  0
 15 51  1  0
 16 52  1  0
 18 53  1  0
 21 54  1  0
 28 55  1  0
 28 56  1  0
 28 57  1  0
 29 58  1  0
 29 59  1  0
 29 60  1  0
 30 61  1  0
 30 62  1  0
 30 63  1  0
 32 64  1  0
 33 65  1  0
 34 66  1  0
M  CHG  1  21  -1
M  END
>  <UniqueID>  (5) 
5

>  <SMILES>  (5) 
COc1ccc(CN(CC=C(C)C)c2ccc3cc(C([NH-])=O)n(C(=O)OC(C)(C)C)c3c2)cc1

>  <Energy>  (5) 
99.93146537838435

>  <Genealogy>  (5) 
COc1ccc(CN(CC=C(C)C)c2ccc3cc(C([NH-])=O)n(C(=O)OC(C)(C)C)c3c2)cc1 (protonated)
COc1ccc(CN(CC=C(C)C)c2ccc3cc(C([NH-])=O)n(C(=O)OC(C)(C)C)c3c2)cc1 (3D coordinates assigned)
COc1ccc(CN(CC=C(C)C)c2ccc3cc(C([NH-])=O)n(C(=O)OC(C)(C)C)c3c2)cc1 (optimized conformer: 99.93146537838435 kcal/mol)

>  <smiles>  (5) 
COc1ccc(CN(CC=C(C)C)c2ccc3cc(C(N)=O)n(C(=O)OC(C)(C)C)c3c2)cc1

>  <score_type>  (5) 
oracle

>  <origin>  (5) 
adg

>  <m_score__min__energy>  (5) 
-12.67

>  <m_primary>  (5) 
energy

$$$$
5:0
     RDKit          3D

 38 39  0  0  0  0  0  0  0  0999 V2000
   -6.6220   18.1980  -32.7560 C   0  0  0  0  0  0  0  0  0  0  0  0
   -6.8990   19.6000  -32.3020 C   0  0  0  0  0  0  0  0  0  0  0  0
   -8.2150   20.1210  -32.3720 C   0  0  0  0  0  0  0  0  0  0  0  0
   -8.4830   21.4410  -31.9710 C   0  0  0  0  0  0  0  0  0  0  0  0
   -7.4170   22.2170  -31.5260 C   0  0  0  0  0  0  0  0  0  0  0  0
   -7.3990   23.5130  -31.0650 C   0  0  0  0  0  0  0  0  0  0  0  0
   -6.0650   23.7780  -30.7560 C   0  0  0  0  0  0  0  0  0  0  0  0
   -5.5670   25.0980  -30.3080 C   0  0  0  0  0  0  0  0  0  0  0  0
   -4.2350   25.5150  -30.6100 N   0  0  0  0  0  0  0  0  0  0  0  0
   -6.3070   25.8560  -29.6280 O   0  0  0  0  0  0  0  0  0  0  0  0
   -5.2910   22.6850  -31.0150 N   0  0  0  0  0  0  0  0  0  0  0  0
   -3.8820   22.5320  -30.7850 C   0  0  0  0  0  0  0  0  0  0  0  0
   -3.0590   22.9500  -31.6450 O   0  0  0  0  0  0  0  0  0  0  0  0
   -3.4380   21.9330  -29.5970 O   0  0  0  0  0  0  0  0  0  0  0  0
   -2.9620   22.6120  -28.4250 C   0  0  0  0  0  0  0  0  0  0  0  0
   -4.1150   23.3550  -27.7230 C   0  0  0  0  0  0  0  0  0  0  0  0
   -1.9190   23.6400  -28.8900 C   0  0  0  0  0  0  0  0  0  0  0  0
   -2.2860   21.6190  -27.4620 C   0  0  0  0  0  0  0  0  0  0  0  0
   -6.1330   21.7390  -31.4850 C   0  0  0  0  0  0  0  0  0  0  0  0
   -5.8390   20.4210  -31.8600 C   0  0  0  0  0  0  0  0  0  0  0  0
   -6.4934   17.5471  -31.8786 H   0  0  0  0  0  0  0  0  0  0  0  0
   -7.4658   17.8351  -33.3612 H   0  0  0  0  0  0  0  0  0  0  0  0
   -5.7036   18.1833  -33.3612 H   0  0  0  0  0  0  0  0  0  0  0  0
   -9.0336   19.4869  -32.7433 H   0  0  0  0  0  0  0  0  0  0  0  0
   -9.5041   21.8483  -32.0078 H   0  0  0  0  0  0  0  0  0  0  0  0
   -8.2553   24.1957  -30.9619 H   0  0  0  0  0  0  0  0  0  0  0  0
   -3.6100   24.9410  -31.2180 H   0  0  0  0  0  0  0  0  0  0  0  0
   -3.8810   26.4320  -30.2560 H   0  0  0  0  0  0  0  0  0  0  0  0
   -3.9922   23.2759  -26.6327 H   0  0  0  0  0  0  0  0  0  0  0  0
   -4.1014   24.4147  -28.0176 H   0  0  0  0  0  0  0  0  0  0  0  0
   -5.0745   22.9048  -28.0176 H   0  0  0  0  0  0  0  0  0  0  0  0
   -1.4466   24.1056  -28.0125 H   0  0  0  0  0  0  0  0  0  0  0  0
   -1.1514   23.1355  -29.4952 H   0  0  0  0  0  0  0  0  0  0  0  0
   -2.4123   24.4148  -29.4952 H   0  0  0  0  0  0  0  0  0  0  0  0
   -2.4901   21.9187  -26.4235 H   0  0  0  0  0  0  0  0  0  0  0  0
   -2.6849   20.6090  -27.6372 H   0  0  0  0  0  0  0  0  0  0  0  0
   -1.2000   21.6198  -27.6372 H   0  0  0  0  0  0  0  0  0  0  0  0
   -4.8096   20.0364  -31.8112 H   0  0  0  0  0  0  0  0  0  0  0  0
  1  2  1  0
  2  3  2  0
  3  4  1  0
  4  5  2  0
  5  6  1  0
  6  7  2  0
  7  8  1  0
  8  9  1  0
  8 10  2  0
  7 11  1  0
 11 12  1  0
 12 13  2  0
 12 14  1  0
 14 15  1  0
 15 16  1  0
 15 17  1  0
 15 18  1  0
 11 19  1  0
 19 20  2  0
 20  2  1  0
 19  5  1  0
  1 21  1  0
  1 22  1  0
  1 23  1  0
  3 24  1  0
  4 25  1  0
  6 26  1  0
  9 27  1  0
  9 28  1  0
 16 29  1  0
 16 30  1  0
 16 31  1  0
 17 32  1  0
 17 33  1  0
 17 34  1  0
 18 35  1  0
 18 36  1  0
 18 37  1  0
 20 38  1  0
M  END
>  <UniqueID>  (6) 
6

>  <SMILES>  (6) 
Cc1ccc2cc(C(N)=O)n(C(=O)OC(C)(C)C)c2c1

>  <Energy>  (6) 
70.78035602649508

>  <Genealogy>  (6) 
Cc1ccc2cc(C(N)=O)n(C(=O)OC(C)(C)C)c2c1 (3D coordinates assigned)
Cc1ccc2cc(C(N)=O)n(C(=O)OC(C)(C)C)c2c1 (optimized conformer: 70.78035602649508 kcal/mol)

>  <smiles>  (6) 
Cc1ccc2cc(C(N)=O)n(C(=O)OC(C)(C)C)c2c1

>  <score_type>  (6) 
oracle

>  <origin>  (6) 
adg

>  <m_score__min__energy>  (6) 
-8.5500000000000007

>  <m_primary>  (6) 
energy

$$$$
6:0
     RDKit          3D

 25 26  0  0  0  0  0  0  0  0999 V2000
   -6.9030   18.5860  -33.0790 C   0  0  0  0  0  0  0  0  0  0  0  0
   -7.0440   19.9820  -32.5480 C   0  0  0  0  0  0  0  0  0  0  0  0
   -8.3280   20.5020  -32.2510 C   0  0  0  0  0  0  0  0  0  0  0  0
   -8.4690   21.7890  -31.7060 C   0  0  0  0  0  0  0  0  0  0  0  0
   -7.3130   22.5250  -31.4640 C   0  0  0  0  0  0  0  0  0  0  0  0
   -7.1620   23.7770  -30.9130 C   0  0  0  0  0  0  0  0  0  0  0  0
   -5.7870   24.0060  -30.8870 C   0  0  0  0  0  0  0  0  0  0  0  0
   -5.1840   25.2780  -30.4380 C   0  0  0  0  0  0  0  0  0  0  0  0
   -3.8690   25.6510  -30.8420 N   0  0  0  0  0  0  0  0  0  0  0  0
   -5.8560   26.0680  -29.7230 O   0  0  0  0  0  0  0  0  0  0  0  0
   -5.1150   22.9350  -31.3970 N   0  0  0  0  0  0  0  0  0  0  0  0
   -3.6930   22.7420  -31.4690 C   0  0  0  0  0  0  0  0  0  0  0  0
   -2.8570   23.1500  -30.3880 N   0  0  0  0  0  0  0  0  0  0  0  0
   -3.1750   22.2240  -32.4940 O   0  0  0  0  0  0  0  0  0  0  0  0
   -6.0630   22.0380  -31.7480 C   0  0  0  0  0  0  0  0  0  0  0  0
   -5.8920   20.7510  -32.2730 C   0  0  0  0  0  0  0  0  0  0  0  0
   -6.8317   17.8796  -32.2388 H   0  0  0  0  0  0  0  0  0  0  0  0
   -7.7806   18.3372  -33.6938 H   0  0  0  0  0  0  0  0  0  0  0  0
   -5.9934   18.5177  -33.6938 H   0  0  0  0  0  0  0  0  0  0  0  0
   -9.2222   19.8927  -32.4489 H   0  0  0  0  0  0  0  0  0  0  0  0
   -9.4625   22.2023  -31.4776 H   0  0  0  0  0  0  0  0  0  0  0  0
   -7.9573   24.4534  -30.5666 H   0  0  0  0  0  0  0  0  0  0  0  0
   -3.0300   25.3070  -30.3240 H   0  0  0  0  0  0  0  0  0  0  0  0
   -2.4360   24.1050  -30.3650 H   0  0  0  0  0  0  0  0  0  0  0  0
   -4.8863   20.3495  -32.4662 H   0  0  0  0  0  0  0  0  0  0  0  0
  1  2  1  0
  2  3  2  0
  3  4  1  0
  4  5  2  0
  5  6  1  0
  6  7  2  0
  7  8  1  0
  8  9  1  0
  8 10  2  0
  7 11  1  0
 11 12  1  0
 12 13  1  0
 12 14  2  0
 11 15  1  0
 15 16  2  0
 16  2  1  0
 15  5  1  0
  1 17  1  0
  1 18  1  0
  1 19  1  0
  3 20  1  0
  4 21  1  0
  6 22  1  0
  9 23  1  0
 13 24  1  0
 16 25  1  0
M  CHG  2   9  -1  13  -1
M  END
>  <UniqueID>  (7) 
7

>  <SMILES>  (7) 
Cc1ccc2cc(C([NH-])=O)n(C([NH-])=O)c2c1

>  <Energy>  (7) 
64.18654104680353

>  <Genealogy>  (7) 
Cc1ccc2cc(C([NH-])=O)n(C([NH-])=O)c2c1 (protonated)
Cc1ccc2cc(C([NH-])=O)n(C([NH-])=O)c2c1 (3D coordinates assigned)
Cc1ccc2cc(C([NH-])=O)n(C([NH-])=O)c2c1 (optimized conformer: 64.18654104680353 kcal/mol)

>  <smiles>  (7) 
Cc1ccc2cc(C(N)=O)n(C(N)=O)c2c1

>  <score_type>  (7) 
oracle

>  <origin>  (7) 
adg

>  <m_score__min__energy>  (7) 
-9.3499999999999996

>  <m_primary>  (7) 
energy

$$$$
7:0
     RDKit          3D

 39 41  0  0  0  0  0  0  0  0999 V2000
   -3.6740   15.1250  -34.3710 C   0  0  0  0  0  0  0  0  0  0  0  0
   -4.2580   16.4690  -34.6780 C   0  0  0  0  0  0  0  0  0  0  0  0
   -3.8770   17.0830  -35.7120 O   0  0  0  0  0  0  0  0  0  0  0  0
   -5.2310   17.0710  -33.8070 N   0  0  0  0  0  0  0  0  0  0  0  0
   -5.6990   16.4670  -32.5700 C   0  0  0  0  0  0  0  0  0  0  0  0
   -6.5910   17.5120  -31.9100 C   0  0  0  0  0  0  0  0  0  0  0  0
   -6.9350   18.5200  -33.0150 C   0  0  1  0  0  0  0  0  0  0  0  0
   -7.0590   19.9440  -32.5060 C   0  0  0  0  0  0  0  0  0  0  0  0
   -8.3440   20.5230  -32.3420 C   0  0  0  0  0  0  0  0  0  0  0  0
   -8.4860   21.8420  -31.8820 C   0  0  0  0  0  0  0  0  0  0  0  0
   -7.3310   22.5580  -31.5870 C   0  0  0  0  0  0  0  0  0  0  0  0
   -7.1800   23.8540  -31.1500 C   0  0  0  0  0  0  0  0  0  0  0  0
   -5.8050   24.0460  -31.0290 C   0  0  0  0  0  0  0  0  0  0  0  0
   -5.2020   25.2840  -30.4960 C   0  0  0  0  0  0  0  0  0  0  0  0
   -3.8740   25.6630  -30.8480 N   0  0  0  0  0  0  0  0  0  0  0  0
   -5.8500   25.9920  -29.6800 O   0  0  0  0  0  0  0  0  0  0  0  0
   -5.1320   22.9160  -31.3860 N   0  0  0  0  0  0  0  0  0  0  0  0
   -3.7110   22.7320  -31.4910 C   0  0  0  0  0  0  0  0  0  0  0  0
   -2.8530   23.1510  -30.4330 N   0  0  0  0  0  0  0  0  0  0  0  0
   -3.2140   22.2270  -32.5320 O   0  0  0  0  0  0  0  0  0  0  0  0
   -6.0810   22.0130  -31.7210 C   0  0  0  0  0  0  0  0  0  0  0  0
   -5.9080   20.7080  -32.1930 C   0  0  0  0  0  0  0  0  0  0  0  0
   -5.8520   18.3540  -34.0850 C   0  0  0  0  0  0  0  0  0  0  0  0
   -3.6157   14.9909  -33.2808 H   0  0  0  0  0  0  0  0  0  0  0  0
   -4.3123   14.3404  -34.8033 H   0  0  0  0  0  0  0  0  0  0  0  0
   -2.6649   15.0563  -34.8033 H   0  0  0  0  0  0  0  0  0  0  0  0
   -6.2727   15.5529  -32.7830 H   0  0  0  0  0  0  0  0  0  0  0  0
   -4.8615   16.1789  -31.9176 H   0  0  0  0  0  0  0  0  0  0  0  0
   -7.5064   17.0436  -31.5193 H   0  0  0  0  0  0  0  0  0  0  0  0
   -6.0889   17.9965  -31.0597 H   0  0  0  0  0  0  0  0  0  0  0  0
   -7.9317   18.3167  -33.4336 H   0  0  0  0  0  0  0  0  0  0  0  0
   -9.2405   19.9309  -32.5783 H   0  0  0  0  0  0  0  0  0  0  0  0
   -9.4807   22.2952  -31.7587 H   0  0  0  0  0  0  0  0  0  0  0  0
   -7.9759   24.5838  -30.9406 H   0  0  0  0  0  0  0  0  0  0  0  0
   -3.0520   25.2950  -30.3200 H   0  0  0  0  0  0  0  0  0  0  0  0
   -2.4310   24.1060  -30.4310 H   0  0  0  0  0  0  0  0  0  0  0  0
   -4.9006   20.2843  -32.3184 H   0  0  0  0  0  0  0  0  0  0  0  0
   -6.2998   18.3555  -35.0897 H   0  0  0  0  0  0  0  0  0  0  0  0
   -5.1220   19.1765  -34.0603 H   0  0  0  0  0  0  0  0  0  0  0  0
  1  2  1  0
  2  3  2  0
  2  4  1  0
  4  5  1  0
  5  6  1  0
  6  7  1  0
  7  8  1  0
  8  9  2  0
  9 10  1  0
 10 11  2  0
 11 12  1  0
 12 13  2  0
 13 14  1  0
 14 15  1  0
 14 16  2  0
 13 17  1  0
 17 18  1  0
 18 19  1  0
 18 20  2  0
 17 21  1  0
 21 22  2  0
  7 23  1  0
 23  4  1  0
 22  8  1  0
 21 11  1  0
  1 24  1  0
  1 25  1  0
  1 26  1  0
  5 27  1  0
  5 28  1  0
  6 29  1  0
  6 30  1  0
  7 31  1  6
  9 32  1  0
 10 33  1  0
 12 34  1  0
 15 35  1  0
 19 36  1  0
 22 37  1  0
 23 38  1  0
 23 39  1  0
M  CHG  2  15  -1  19  -1
M  END
>  <UniqueID>  (8) 
8

>  <SMILES>  (8) 
CC(=O)N1CC[C@@H](c2ccc3cc(C([NH-])=O)n(C([NH-])=O)c3c2)C1

>  <Energy>  (8) 
79.48882524399644

>  <Genealogy>  (8) 
CC(=O)N1CC[C@@H](c2ccc3cc(C([NH-])=O)n(C([NH-])=O)c3c2)C1 (protonated)
CC(=O)N1CC[C@@H](c2ccc3cc(C([NH-])=O)n(C([NH-])=O)c3c2)C1 (3D coordinates assigned)
CC(=O)N1CC[C@@H](c2ccc3cc(C([NH-])=O)n(C([NH-])=O)c3c2)C1 (nonaromatic ring conformer: 79.48882524399644 kcal/mol)

>  <smiles>  (8) 
CC(=O)N1CC[C@@H](c2ccc3cc(C(N)=O)n(C(N)=O)c3c2)C1

>  <score_type>  (8) 
oracle

>  <origin>  (8) 
adg

>  <m_score__min__energy>  (8) 
-11.48

>  <m_primary>  (8) 
energy

$$$$
8:0
     RDKit          3D

 48 50  0  0  0  0  0  0  0  0999 V2000
   -3.9340   25.6060  -30.8460 N   0  0  0  0  0  0  0  0  0  0  0  0
   -5.2480   25.3250  -30.3690 C   0  0  0  0  0  0  0  0  0  0  0  0
   -5.7700   26.0910  -29.5170 O   0  0  0  0  0  0  0  0  0  0  0  0
   -5.9930   24.1670  -30.9050 C   0  0  0  0  0  0  0  0  0  0  0  0
   -7.3830   24.0700  -30.8810 C   0  0  0  0  0  0  0  0  0  0  0  0
   -7.6710   22.8250  -31.3890 C   0  0  0  0  0  0  0  0  0  0  0  0
   -8.9000   22.2110  -31.6110 C   0  0  0  0  0  0  0  0  0  0  0  0
   -8.9020   20.9270  -32.1800 C   0  0  0  0  0  0  0  0  0  0  0  0
   -7.6880   20.2800  -32.5110 C   0  0  0  0  0  0  0  0  0  0  0  0
   -7.7270   18.9800  -33.1250 N   0  0  0  0  0  0  0  0  0  0  0  0
   -6.5760   18.1390  -33.3160 C   0  0  0  0  0  0  0  0  0  0  0  0
   -5.8930   17.6400  -32.1990 C   0  0  0  0  0  0  0  0  0  0  0  0
   -4.7650   16.8320  -32.3620 C   0  0  0  0  0  0  0  0  0  0  0  0
   -4.2930   16.5220  -33.6470 C   0  0  0  0  0  0  0  0  0  0  0  0
   -3.1340   15.6800  -33.8160 N   0  0  0  0  0  0  0  0  0  0  0  0
   -3.3050   14.2370  -34.0470 C   0  0  0  0  0  0  0  0  0  0  0  0
   -4.5620   13.7150  -33.3500 C   0  0  0  0  0  0  0  0  0  0  0  0
   -4.2340   13.3520  -31.6350 Cl  0  0  0  0  0  0  0  0  0  0  0  0
   -1.7860   16.2690  -33.7610 C   0  0  0  0  0  0  0  0  0  0  0  0
   -1.7060   17.5370  -34.6130 C   0  0  0  0  0  0  0  0  0  0  0  0
   -1.9620   18.9900  -33.6130 Cl  0  0  0  0  0  0  0  0  0  0  0  0
   -4.9600   17.0440  -34.7660 C   0  0  0  0  0  0  0  0  0  0  0  0
   -6.0870   17.8520  -34.6020 C   0  0  0  0  0  0  0  0  0  0  0  0
   -6.4590   20.9470  -32.2940 C   0  0  0  0  0  0  0  0  0  0  0  0
   -6.4850   22.2160  -31.7040 C   0  0  0  0  0  0  0  0  0  0  0  0
   -5.4440   23.0280  -31.4150 N   0  0  0  0  0  0  0  0  0  0  0  0
   -4.0540   22.7490  -31.6540 C   0  0  0  0  0  0  0  0  0  0  0  0
   -3.0760   23.0850  -30.6740 N   0  0  0  0  0  0  0  0  0  0  0  0
   -3.6940   22.1950  -32.7260 O   0  0  0  0  0  0  0  0  0  0  0  0
   -3.0920   25.2660  -30.3320 H   0  0  0  0  0  0  0  0  0  0  0  0
   -8.0982   24.8285  -30.5301 H   0  0  0  0  0  0  0  0  0  0  0  0
   -9.8414   22.7161  -31.3488 H   0  0  0  0  0  0  0  0  0  0  0  0
   -9.8586   20.4184  -32.3706 H   0  0  0  0  0  0  0  0  0  0  0  0
   -8.6510   18.6270  -33.4630 H   0  0  0  0  0  0  0  0  0  0  0  0
   -6.2473   17.8860  -31.1871 H   0  0  0  0  0  0  0  0  0  0  0  0
   -4.2436   16.4364  -31.4779 H   0  0  0  0  0  0  0  0  0  0  0  0
   -3.3909   14.0536  -35.1282 H   0  0  0  0  0  0  0  0  0  0  0  0
   -2.4317   13.7104  -33.6347 H   0  0  0  0  0  0  0  0  0  0  0  0
   -5.3516   14.4784  -33.4120 H   0  0  0  0  0  0  0  0  0  0  0  0
   -4.8827   12.7893  -33.8502 H   0  0  0  0  0  0  0  0  0  0  0  0
   -1.5460   16.5211  -32.7175 H   0  0  0  0  0  0  0  0  0  0  0  0
   -1.0671   15.5359  -34.1557 H   0  0  0  0  0  0  0  0  0  0  0  0
   -0.7131   17.5933  -35.0831 H   0  0  0  0  0  0  0  0  0  0  0  0
   -2.4921   17.4952  -35.3813 H   0  0  0  0  0  0  0  0  0  0  0  0
   -4.5931   16.8155  -35.7775 H   0  0  0  0  0  0  0  0  0  0  0  0
   -6.5953   18.2665  -35.4850 H   0  0  0  0  0  0  0  0  0  0  0  0
   -5.5060   20.4794  -32.5821 H   0  0  0  0  0  0  0  0  0  0  0  0
   -3.2080   23.9070  -30.0440 H   0  0  0  0  0  0  0  0  0  0  0  0
  1  2  1  0
  2  3  2  0
  2  4  1  0
  4  5  2  0
  5  6  1  0
  6  7  2  0
  7  8  1  0
  8  9  2  0
  9 10  1  0
 10 11  1  0
 11 12  2  0
 12 13  1  0
 13 14  2  0
 14 15  1  0
 15 16  1  0
 16 17  1  0
 17 18  1  0
 15 19  1  0
 19 20  1  0
 20 21  1  0
 14 22  1  0
 22 23  2  0
  9 24  1  0
 24 25  2  0
 25 26  1  0
 26 27  1  0
 27 28  1  0
 27 29  2  0
 26  4  1  0
 25  6  1  0
 23 11  1  0
  1 30  1  0
  5 31  1  0
  7 32  1  0
  8 33  1  0
 10 34  1  0
 12 35  1  0
 13 36  1  0
 16 37  1  0
 16 38  1  0
 17 39  1  0
 17 40  1  0
 19 41  1  0
 19 42  1  0
 20 43  1  0
 20 44  1  0
 22 45  1  0
 23 46  1  0
 24 47  1  0
 28 48  1  0
M  CHG  2   1  -1  28  -1
M  END
>  <UniqueID>  (9) 
9

>  <SMILES>  (9) 
[NH-]C(=O)c1cc2ccc(Nc3ccc(N(CCCl)CCCl)cc3)cc2n1C([NH-])=O

>  <Energy>  (9) 
91.05455692552772

>  <Genealogy>  (9) 
[NH-]C(=O)c1cc2ccc(Nc3ccc(N(CCCl)CCCl)cc3)cc2n1C([NH-])=O (protonated)
[NH-]C(=O)c1cc2ccc(Nc3ccc(N(CCCl)CCCl)cc3)cc2n1C([NH-])=O (3D coordinates assigned)
[NH-]C(=O)c1cc2ccc(Nc3ccc(N(CCCl)CCCl)cc3)cc2n1C([NH-])=O (optimized conformer: 91.05455692552772 kcal/mol)

>  <smiles>  (9) 
NC(=O)c1cc2ccc(Nc3ccc(N(CCCl)CCCl)cc3)cc2n1C(N)=O

>  <score_type>  (9) 
oracle

>  <origin>  (9) 
adg

>  <m_score__min__energy>  (9) 
-11.41

>  <m_primary>  (9) 
energy

$$$$
9:0
     RDKit          3D

 36 38  0  0  0  0  0  0  0  0999 V2000
   -4.0860   25.3870  -30.8440 N   0  0  0  0  0  0  0  0  0  0  0  0
   -4.1280   24.0270  -30.4160 C   0  0  0  0  0  0  0  0  0  0  0  0
   -5.1780   23.5760  -29.8860 O   0  0  0  0  0  0  0  0  0  0  0  0
   -2.9750   23.1820  -30.5730 N   0  0  0  0  0  0  0  0  0  0  0  0
   -1.7920   23.2600  -29.8990 C   0  0  0  0  0  0  0  0  0  0  0  0
   -1.3860   24.3460  -28.9870 C   0  0  0  0  0  0  0  0  0  0  0  0
   -2.3400   25.2750  -28.4710 N   0  0  0  0  0  0  0  0  0  0  0  0
   -0.1670   24.4920  -28.7020 O   0  0  0  0  0  0  0  0  0  0  0  0
   -0.9650   22.1900  -30.2300 C   0  0  0  0  0  0  0  0  0  0  0  0
   -1.6760   21.4520  -31.1490 C   0  0  0  0  0  0  0  0  0  0  0  0
   -1.3320   20.2770  -31.8100 C   0  0  0  0  0  0  0  0  0  0  0  0
   -2.2750   19.7150  -32.6860 C   0  0  0  0  0  0  0  0  0  0  0  0
   -3.5420   20.3220  -32.8700 C   0  0  0  0  0  0  0  0  0  0  0  0
   -4.5320   19.7250  -33.8320 C   0  0  0  0  0  0  0  0  0  0  0  0
   -5.8170   19.4040  -33.1200 C   0  0  0  0  0  0  0  0  0  0  0  0
   -6.0020   18.1440  -32.5260 C   0  0  0  0  0  0  0  0  0  0  0  0
   -7.2110   17.8340  -31.8950 C   0  0  0  0  0  0  0  0  0  0  0  0
   -8.2460   18.7730  -31.8620 C   0  0  0  0  0  0  0  0  0  0  0  0
   -9.4180   18.4690  -31.2520 F   0  0  0  0  0  0  0  0  0  0  0  0
   -8.0730   20.0240  -32.4620 C   0  0  0  0  0  0  0  0  0  0  0  0
   -6.8660   20.3380  -33.0930 C   0  0  0  0  0  0  0  0  0  0  0  0
   -3.8520   21.5190  -32.1880 C   0  0  0  0  0  0  0  0  0  0  0  0
   -2.8860   22.0690  -31.3370 C   0  0  0  0  0  0  0  0  0  0  0  0
   -3.4140   25.6970  -31.5810 H   0  0  0  0  0  0  0  0  0  0  0  0
   -2.0410   26.0150  -27.7980 H   0  0  0  0  0  0  0  0  0  0  0  0
   -3.3250   25.2830  -28.8150 H   0  0  0  0  0  0  0  0  0  0  0  0
    0.0418   21.9793  -29.8402 H   0  0  0  0  0  0  0  0  0  0  0  0
   -0.3521   19.8030  -31.6514 H   0  0  0  0  0  0  0  0  0  0  0  0
   -2.0275   18.7944  -33.2348 H   0  0  0  0  0  0  0  0  0  0  0  0
   -4.7336   20.4443  -34.6394 H   0  0  0  0  0  0  0  0  0  0  0  0
   -4.1122   18.7987  -34.2513 H   0  0  0  0  0  0  0  0  0  0  0  0
   -5.1932   17.3991  -32.5574 H   0  0  0  0  0  0  0  0  0  0  0  0
   -7.3477   16.8495  -31.4238 H   0  0  0  0  0  0  0  0  0  0  0  0
   -8.8881   20.7623  -32.4374 H   0  0  0  0  0  0  0  0  0  0  0  0
   -6.7369   21.3205  -33.5704 H   0  0  0  0  0  0  0  0  0  0  0  0
   -4.8285   22.0073  -32.3221 H   0  0  0  0  0  0  0  0  0  0  0  0
  1  2  1  0
  2  3  2  0
  2  4  1  0
  4  5  1  0
  5  6  1  0
  6  7  1  0
  6  8  2  0
  5  9  2  0
  9 10  1  0
 10 11  2  0
 11 12  1  0
 12 13  2  0
 13 14  1  0
 14 15  1  0
 15 16  2  0
 16 17  1  0
 17 18  2  0
 18 19  1  0
 18 20  1  0
 20 21  2  0
 13 22  1  0
 22 23  2  0
 23  4  1  0
 23 10  1  0
 21 15  1  0
  1 24  1  0
  7 25  1  0
  7 26  1  0
  9 27  1  0
 11 28  1  0
 12 29  1  0
 14 30  1  0
 14 31  1  0
 16 32  1  0
 17 33  1  0
 20 34  1  0
 21 35  1  0
 22 36  1  0
M  CHG  1   1  -1
M  END
>  <UniqueID>  (10) 
10

>  <SMILES>  (10) 
[NH-]C(=O)n1c(C(N)=O)cc2ccc(Cc3ccc(F)cc3)cc21

>  <Energy>  (10) 
76.68236559602043

>  <Genealogy>  (10) 
[NH-]C(=O)n1c(C(N)=O)cc2ccc(Cc3ccc(F)cc3)cc21 (protonated)
[NH-]C(=O)n1c(C(N)=O)cc2ccc(Cc3ccc(F)cc3)cc21 (3D coordinates assigned)
[NH-]C(=O)n1c(C(N)=O)cc2ccc(Cc3ccc(F)cc3)cc21 (optimized conformer: 76.68236559602043 kcal/mol)

>  <smiles>  (10) 
NC(=O)c1cc2ccc(Cc3ccc(F)cc3)cc2n1C(N)=O

>  <score_type>  (10) 
oracle

>  <origin>  (10) 
adg

>  <m_score__min__energy>  (10) 
-9.5899999999999999

>  <m_primary>  (10) 
energy

$$$$
10:0
     RDKit          3D

 45 47  0  0  0  0  0  0  0  0999 V2000
   -6.9230   25.1780  -29.8330 C   0  0  0  0  0  0  0  0  0  0  0  0
   -6.4470   23.8090  -30.3430 C   0  0  0  0  0  0  0  0  0  0  0  0
   -6.4470   23.8260  -31.8850 C   0  0  0  0  0  0  0  0  0  0  0  0
   -7.4000   22.7210  -29.8120 C   0  0  0  0  0  0  0  0  0  0  0  0
   -5.1200   23.6080  -29.8400 O   0  0  0  0  0  0  0  0  0  0  0  0
   -3.9320   24.1050  -30.3990 C   0  0  0  0  0  0  0  0  0  0  0  0
   -3.8630   25.2910  -30.8220 O   0  0  0  0  0  0  0  0  0  0  0  0
   -2.7900   23.2420  -30.5130 N   0  0  0  0  0  0  0  0  0  0  0  0
   -1.5820   23.3770  -29.8980 C   0  0  0  0  0  0  0  0  0  0  0  0
   -1.1410   24.5380  -29.0980 C   0  0  0  0  0  0  0  0  0  0  0  0
   -1.9930   25.6740  -28.9650 N   0  0  0  0  0  0  0  0  0  0  0  0
   -0.0330   24.5250  -28.4990 O   0  0  0  0  0  0  0  0  0  0  0  0
   -0.7610   22.2900  -30.1900 C   0  0  0  0  0  0  0  0  0  0  0  0
   -1.5070   21.4810  -31.0160 C   0  0  0  0  0  0  0  0  0  0  0  0
   -1.1880   20.2600  -31.5990 C   0  0  0  0  0  0  0  0  0  0  0  0
   -2.1650   19.6270  -32.3850 C   0  0  0  0  0  0  0  0  0  0  0  0
   -3.4440   20.2200  -32.5700 C   0  0  0  0  0  0  0  0  0  0  0  0
   -4.4650   19.5820  -33.3600 N   0  0  0  0  0  0  0  0  0  0  0  0
   -5.7520   20.2090  -33.6630 C   0  0  0  0  0  0  0  0  0  0  0  0
   -6.8470   19.5860  -32.8540 C   0  0  0  0  0  0  0  0  0  0  0  0
   -6.9310   18.2490  -32.4870 C   0  0  0  0  0  0  0  0  0  0  0  0
   -8.0680   17.9150  -31.8200 N   0  0  0  0  0  0  0  0  0  0  0  0
   -8.8980   18.9690  -31.6640 C   0  0  0  0  0  0  0  0  0  0  0  0
   -8.2530   20.3600  -32.3560 S   0  0  0  0  0  0  0  0  0  0  0  0
   -3.7270   21.4620  -31.9580 C   0  0  0  0  0  0  0  0  0  0  0  0
   -2.7280   22.0770  -31.1960 C   0  0  0  0  0  0  0  0  0  0  0  0
   -6.9235   25.1795  -28.7330 H   0  0  0  0  0  0  0  0  0  0  0  0
   -6.2448   25.9622  -30.2004 H   0  0  0  0  0  0  0  0  0  0  0  0
   -7.9414   25.3723  -30.2004 H   0  0  0  0  0  0  0  0  0  0  0  0
   -5.4099   23.8300  -32.2516 H   0  0  0  0  0  0  0  0  0  0  0  0
   -6.9655   22.9320  -32.2615 H   0  0  0  0  0  0  0  0  0  0  0  0
   -6.9655   24.7281  -32.2417 H   0  0  0  0  0  0  0  0  0  0  0  0
   -7.3913   22.7309  -28.7121 H   0  0  0  0  0  0  0  0  0  0  0  0
   -8.4202   22.9194  -30.1724 H   0  0  0  0  0  0  0  0  0  0  0  0
   -7.0689   21.7359  -30.1724 H   0  0  0  0  0  0  0  0  0  0  0  0
   -2.9620   25.6650  -29.3500 H   0  0  0  0  0  0  0  0  0  0  0  0
    0.2656   22.1155  -29.8355 H   0  0  0  0  0  0  0  0  0  0  0  0
   -0.1989   19.8027  -31.4491 H   0  0  0  0  0  0  0  0  0  0  0  0
   -1.9382   18.6623  -32.8625 H   0  0  0  0  0  0  0  0  0  0  0  0
   -4.2710   18.6230  -33.7330 H   0  0  0  0  0  0  0  0  0  0  0  0
   -5.6952   21.2821  -33.4281 H   0  0  0  0  0  0  0  0  0  0  0  0
   -5.9740   20.0635  -34.7305 H   0  0  0  0  0  0  0  0  0  0  0  0
   -6.1411   17.5189  -32.7174 H   0  0  0  0  0  0  0  0  0  0  0  0
   -9.8699   18.9237  -31.1509 H   0  0  0  0  0  0  0  0  0  0  0  0
   -4.7126   21.9354  -32.0784 H   0  0  0  0  0  0  0  0  0  0  0  0
  1  2  1  0
  2  3  1  0
  2  4  1  0
  2  5  1  0
  5  6  1  0
  6  7  2  0
  6  8  1  0
  8  9  1  0
  9 10  1  0
 10 11  1  0
 10 12  2  0
  9 13  2  0
 13 14  1  0
 14 15  2  0
 15 16  1  0
 16 17  2  0
 17 18  1  0
 18 19  1  0
 19 20  1  0
 20 21  2  0
 21 22  1  0
 22 23  2  0
 23 24  1  0
 17 25  1  0
 25 26  2  0
 26  8  1  0
 26 14  1  0
 24 20  1  0
  1 27  1  0
  1 28  1  0
  1 29  1  0
  3 30  1  0
  3 31  1  0
  3 32  1  0
  4 33  1  0
  4 34  1  0
  4 35  1  0
 11 36  1  0
 13 37  1  0
 15 38  1  0
 16 39  1  0
 18 40  1  0
 19 41  1  0
 19 42  1  0
 21 43  1  0
 23 44  1  0
 25 45  1  0
M  CHG  1  11  -1
M  END
>  <UniqueID>  (11) 
11

>  <SMILES>  (11) 
CC(C)(C)OC(=O)n1c(C([NH-])=O)cc2ccc(NCc3cncs3)cc21

>  <Energy>  (11) 
109.4382580935388

>  <Genealogy>  (11) 
CC(C)(C)OC(=O)n1c(C([NH-])=O)cc2ccc(NCc3cncs3)cc21 (protonated)
CC(C)(C)OC(=O)n1c(C([NH-])=O)cc2ccc(NCc3cncs3)cc21 (3D coordinates assigned)
CC(C)(C)OC(=O)n1c(C([NH-])=O)cc2ccc(NCc3cncs3)cc21 (optimized conformer: 109.4382580935388 kcal/mol)

>  <smiles>  (11) 
CC(C)(C)OC(=O)n1c(C(N)=O)cc2ccc(NCc3cncs3)cc21

>  <score_type>  (11) 
oracle

>  <origin>  (11) 
adg

>  <m_score__min__energy>  (11) 
-11.19

>  <m_primary>  (11) 
energy

$$$$
11:0
     RDKit          3D

 29 30  0  0  0  0  0  0  0  0999 V2000
   -6.8090   17.7030  -32.0140 C   0  0  0  0  0  0  0  0  0  0  0  0
   -7.7730   18.6530  -32.7150 C   0  0  0  0  0  0  0  0  0  0  0  0
   -7.6900   20.0320  -32.1170 C   0  0  0  0  0  0  0  0  0  0  0  0
   -8.8330   20.6170  -31.5200 C   0  0  0  0  0  0  0  0  0  0  0  0
   -8.7740   21.9140  -30.9780 C   0  0  0  0  0  0  0  0  0  0  0  0
   -7.5670   22.6010  -31.0640 C   0  0  0  0  0  0  0  0  0  0  0  0
   -7.2290   23.8580  -30.6160 C   0  0  0  0  0  0  0  0  0  0  0  0
   -5.8930   24.0310  -30.9740 C   0  0  0  0  0  0  0  0  0  0  0  0
   -5.1480   25.2890  -30.7660 C   0  0  0  0  0  0  0  0  0  0  0  0
   -3.7530   25.2480  -30.4720 N   0  0  0  0  0  0  0  0  0  0  0  0
   -5.7360   26.4010  -30.8110 O   0  0  0  0  0  0  0  0  0  0  0  0
   -5.4230   22.9210  -31.6110 N   0  0  0  0  0  0  0  0  0  0  0  0
   -4.0890   22.6740  -32.0850 C   0  0  0  0  0  0  0  0  0  0  0  0
   -3.8610   22.3110  -33.4460 N   0  0  0  0  0  0  0  0  0  0  0  0
   -3.1100   22.8130  -31.3050 O   0  0  0  0  0  0  0  0  0  0  0  0
   -6.4600   22.0580  -31.6630 C   0  0  0  0  0  0  0  0  0  0  0  0
   -6.4850   20.7650  -32.1970 C   0  0  0  0  0  0  0  0  0  0  0  0
   -6.9168   17.8093  -30.9245 H   0  0  0  0  0  0  0  0  0  0  0  0
   -7.0377   16.6674  -32.3058 H   0  0  0  0  0  0  0  0  0  0  0  0
   -5.7768   17.9468  -32.3058 H   0  0  0  0  0  0  0  0  0  0  0  0
   -7.5148   18.7064  -33.7829 H   0  0  0  0  0  0  0  0  0  0  0  0
   -8.7978   18.2738  -32.5887 H   0  0  0  0  0  0  0  0  0  0  0  0
   -9.7760   20.0520  -31.4796 H   0  0  0  0  0  0  0  0  0  0  0  0
   -9.6541   22.3705  -30.5014 H   0  0  0  0  0  0  0  0  0  0  0  0
   -7.8758   24.5739  -30.0877 H   0  0  0  0  0  0  0  0  0  0  0  0
   -3.0590   24.9730  -31.2010 H   0  0  0  0  0  0  0  0  0  0  0  0
   -2.8920   22.1180  -33.7860 H   0  0  0  0  0  0  0  0  0  0  0  0
   -4.6520   22.2750  -34.1260 H   0  0  0  0  0  0  0  0  0  0  0  0
   -5.5901   20.3307  -32.6667 H   0  0  0  0  0  0  0  0  0  0  0  0
  1  2  1  0
  2  3  1  0
  3  4  2  0
  4  5  1  0
  5  6  2  0
  6  7  1  0
  7  8  2  0
  8  9  1  0
  9 10  1  0
  9 11  2  0
  8 12  1  0
 12 13  1  0
 13 14  1  0
 13 15  2  0
 12 16  1  0
 16 17  2  0
 17  3  1  0
 16  6  1  0
  1 18  1  0
  1 19  1  0
  1 20  1  0
  2 21  1  0
  2 22  1  0
  4 23  1  0
  5 24  1  0
  7 25  1  0
 10 26  1  0
 14 27  1  0
 14 28  1  0
 17 29  1  0
M  CHG  1  10  -1
M  END
>  <UniqueID>  (12) 
12

>  <SMILES>  (12) 
CCc1ccc2cc(C([NH-])=O)n(C(N)=O)c2c1

>  <Energy>  (12) 
64.089508712431

>  <Genealogy>  (12) 
CCc1ccc2cc(C([NH-])=O)n(C(N)=O)c2c1 (protonated)
CCc1ccc2cc(C([NH-])=O)n(C(N)=O)c2c1 (3D coordinates assigned)
CCc1ccc2cc(C([NH-])=O)n(C(N)=O)c2c1 (optimized conformer: 64.089508712431 kcal/mol)

>  <smiles>  (12) 
CCc1ccc2cc(C(N)=O)n(C(N)=O)c2c1

>  <score_type>  (12) 
oracle

>  <origin>  (12) 
adg

>  <m_score__min__energy>  (12) 
-9.8499999999999996

>  <m_primary>  (12) 
energy

$$$$
12:0
     RDKit          3D

 49 52  0  0  0  0  0  0  0  0999 V2000
   -1.7900   21.1720  -32.3560 C   0  0  0  0  0  0  0  0  0  0  0  0
   -2.7500   22.2140  -32.4860 O   0  0  0  0  0  0  0  0  0  0  0  0
   -3.4040   22.7790  -31.3880 C   0  0  0  0  0  0  0  0  0  0  0  0
   -2.7380   23.2330  -30.4170 O   0  0  0  0  0  0  0  0  0  0  0  0
   -4.8400   22.8210  -31.3550 N   0  0  0  0  0  0  0  0  0  0  0  0
   -5.6360   23.8770  -31.0240 C   0  0  0  0  0  0  0  0  0  0  0  0
   -5.1760   25.1710  -30.4770 C   0  0  0  0  0  0  0  0  0  0  0  0
   -3.8800   25.6610  -30.8120 N   0  0  0  0  0  0  0  0  0  0  0  0
   -5.9300   25.8670  -29.7480 O   0  0  0  0  0  0  0  0  0  0  0  0
   -6.9790   23.5470  -31.1910 C   0  0  0  0  0  0  0  0  0  0  0  0
   -6.9830   22.2430  -31.6310 C   0  0  0  0  0  0  0  0  0  0  0  0
   -8.0490   21.4160  -31.9680 C   0  0  0  0  0  0  0  0  0  0  0  0
   -7.7600   20.1200  -32.4220 C   0  0  0  0  0  0  0  0  0  0  0  0
   -6.4190   19.6730  -32.5400 C   0  0  0  0  0  0  0  0  0  0  0  0
   -6.1290   18.3050  -33.0360 C   0  0  0  0  0  0  0  0  0  0  0  0
   -7.1470   17.3390  -33.0870 C   0  0  0  0  0  0  0  0  0  0  0  0
   -6.8670   16.0590  -33.5600 C   0  0  0  0  0  0  0  0  0  0  0  0
   -5.5730   15.7390  -33.9850 C   0  0  0  0  0  0  0  0  0  0  0  0
   -5.2670   14.4590  -34.4640 C   0  0  0  0  0  0  0  0  0  0  0  0
   -3.9590   14.1500  -34.8860 C   0  0  0  0  0  0  0  0  0  0  0  0
   -3.6140   12.8790  -35.3730 O   0  0  0  0  0  0  0  0  0  0  0  0
   -3.5090   12.5440  -36.7540 C   0  0  0  0  0  0  0  0  0  0  0  0
   -2.9570   15.1310  -34.8240 C   0  0  0  0  0  0  0  0  0  0  0  0
   -1.6640   14.7890  -35.2520 O   0  0  0  0  0  0  0  0  0  0  0  0
   -0.8970   15.5400  -36.1860 C   0  0  0  0  0  0  0  0  0  0  0  0
   -3.2660   16.4180  -34.3410 C   0  0  0  0  0  0  0  0  0  0  0  0
   -4.5690   16.7280  -33.9220 C   0  0  0  0  0  0  0  0  0  0  0  0
   -4.8690   17.9750  -33.4540 N   0  0  0  0  0  0  0  0  0  0  0  0
   -5.3620   20.5470  -32.1890 C   0  0  0  0  0  0  0  0  0  0  0  0
   -5.6810   21.8270  -31.7220 C   0  0  0  0  0  0  0  0  0  0  0  0
   -1.6068   20.9732  -31.2897 H   0  0  0  0  0  0  0  0  0  0  0  0
   -2.1710   20.2601  -32.8389 H   0  0  0  0  0  0  0  0  0  0  0  0
   -0.8499   21.4772  -32.8389 H   0  0  0  0  0  0  0  0  0  0  0  0
   -3.0280   25.2970  -30.3300 H   0  0  0  0  0  0  0  0  0  0  0  0
   -7.8514   24.1920  -31.0096 H   0  0  0  0  0  0  0  0  0  0  0  0
   -9.0878   21.7673  -31.8813 H   0  0  0  0  0  0  0  0  0  0  0  0
   -8.5839   19.4421  -32.6898 H   0  0  0  0  0  0  0  0  0  0  0  0
   -8.1642   17.5927  -32.7539 H   0  0  0  0  0  0  0  0  0  0  0  0
   -7.6626   15.3004  -33.5993 H   0  0  0  0  0  0  0  0  0  0  0  0
   -6.0526   13.6905  -34.5110 H   0  0  0  0  0  0  0  0  0  0  0  0
   -3.1814   11.4987  -36.8538 H   0  0  0  0  0  0  0  0  0  0  0  0
   -4.4893   12.6687  -37.2371 H   0  0  0  0  0  0  0  0  0  0  0  0
   -2.7753   13.2060  -37.2371 H   0  0  0  0  0  0  0  0  0  0  0  0
   -0.2129   16.2098  -35.6443 H   0  0  0  0  0  0  0  0  0  0  0  0
   -0.3142   14.8537  -36.8179 H   0  0  0  0  0  0  0  0  0  0  0  0
   -1.5709   16.1371  -36.8179 H   0  0  0  0  0  0  0  0  0  0  0  0
   -2.4798   17.1858  -34.2919 H   0  0  0  0  0  0  0  0  0  0  0  0
   -4.1080   18.6910  -33.3930 H   0  0  0  0  0  0  0  0  0  0  0  0
   -4.3136   20.2271  -32.2813 H   0  0  0  0  0  0  0  0  0  0  0  0
  1  2  1  0
  2  3  1  0
  3  4  2  0
  3  5  1  0
  5  6  1  0
  6  7  1  0
  7  8  1  0
  7  9  2  0
  6 10  2  0
 10 11  1  0
 11 12  2  0
 12 13  1  0
 13 14  2  0
 14 15  1  0
 15 16  2  0
 16 17  1  0
 17 18  2  0
 18 19  1  0
 19 20  2  0
 20 21  1  0
 21 22  1  0
 20 23  1  0
 23 24  1  0
 24 25  1  0
 23 26  2  0
 26 27  1  0
 27 28  2  0
 14 29  1  0
 29 30  2  0
 30  5  1  0
 30 11  1  0
 28 15  1  0
 27 18  1  0
  1 31  1  0
  1 32  1  0
  1 33  1  0
  8 34  1  0
 10 35  1  0
 12 36  1  0
 13 37  1  0
 16 38  1  0
 17 39  1  0
 19 40  1  0
 22 41  1  0
 22 42  1  0
 22 43  1  0
 25 44  1  0
 25 45  1  0
 25 46  1  0
 26 47  1  0
 28 48  1  0
 29 49  1  0
M  CHG  2   8  -1  28   1
M  END
>  <UniqueID>  (13) 
13

>  <SMILES>  (13) 
COC(=O)n1c(C([NH-])=O)cc2ccc(-c3ccc4cc(OC)c(OC)cc4[nH+]3)cc21

>  <Energy>  (13) 
97.41283939144436

>  <Genealogy>  (13) 
COC(=O)n1c(C([NH-])=O)cc2ccc(-c3ccc4cc(OC)c(OC)cc4[nH+]3)cc21 (protonated)
COC(=O)n1c(C([NH-])=O)cc2ccc(-c3ccc4cc(OC)c(OC)cc4[nH+]3)cc21 (3D coordinates assigned)
COC(=O)n1c(C([NH-])=O)cc2ccc(-c3ccc4cc(OC)c(OC)cc4[nH+]3)cc21 (optimized conformer: 97.41283939144436 kcal/mol)

>  <smiles>  (13) 
COC(=O)n1c(C(N)=O)cc2ccc(-c3ccc4cc(OC)c(OC)cc4n3)cc21

>  <score_type>  (13) 
oracle

>  <origin>  (13) 
adg

>  <m_score__min__energy>  (13) 
-9.5600000000000005

>  <m_primary>  (13) 
energy

$$$$
13:0
     RDKit          3D

 48 50  0  0  0  0  0  0  0  0999 V2000
   -2.6220   20.0880  -27.2330 C   0  0  0  0  0  0  0  0  0  0  0  0
   -2.0740   20.6030  -28.5690 C   0  0  0  0  0  0  0  0  0  0  0  0
   -0.6960   20.0000  -28.8680 C   0  0  0  0  0  0  0  0  0  0  0  0
   -2.0250   22.1200  -28.5890 C   0  0  0  0  0  0  0  0  0  0  0  0
   -1.1940   22.8100  -27.6850 C   0  0  0  0  0  0  0  0  0  0  0  0
   -1.1280   24.2060  -27.7100 C   0  0  0  0  0  0  0  0  0  0  0  0
   -1.8960   24.9300  -28.6260 C   0  0  0  0  0  0  0  0  0  0  0  0
   -2.7490   24.2640  -29.5160 C   0  0  0  0  0  0  0  0  0  0  0  0
   -3.4990   25.0300  -30.4670 N   0  0  0  0  0  0  0  0  0  0  0  0
   -4.9270   25.0730  -30.5630 C   0  0  0  0  0  0  0  0  0  0  0  0
   -5.4650   26.0080  -31.2110 O   0  0  0  0  0  0  0  0  0  0  0  0
   -5.8020   24.1250  -29.7920 C   0  0  0  0  0  0  0  0  0  0  0  0
   -6.2490   23.0030  -30.6860 C   0  0  0  0  0  0  0  0  0  0  0  0
   -7.6300   22.7280  -30.8540 C   0  0  0  0  0  0  0  0  0  0  0  0
   -8.0530   21.6700  -31.6740 C   0  0  0  0  0  0  0  0  0  0  0  0
   -7.0760   20.8930  -32.2920 C   0  0  0  0  0  0  0  0  0  0  0  0
   -7.2100   19.8310  -33.1570 C   0  0  0  0  0  0  0  0  0  0  0  0
   -5.9090   19.4450  -33.4680 C   0  0  0  0  0  0  0  0  0  0  0  0
   -5.5920   18.2920  -34.3380 C   0  0  0  0  0  0  0  0  0  0  0  0
   -4.3130   18.1590  -34.9580 N   0  0  0  0  0  0  0  0  0  0  0  0
   -6.4480   17.3790  -34.4870 O   0  0  0  0  0  0  0  0  0  0  0  0
   -5.0030   20.2420  -32.8320 N   0  0  0  0  0  0  0  0  0  0  0  0
   -3.5730   20.2330  -32.9830 C   0  0  0  0  0  0  0  0  0  0  0  0
   -2.8910   21.3930  -33.4550 N   0  0  0  0  0  0  0  0  0  0  0  0
   -2.9130   19.2000  -32.6910 O   0  0  0  0  0  0  0  0  0  0  0  0
   -5.7340   21.1230  -32.1140 C   0  0  0  0  0  0  0  0  0  0  0  0
   -5.2850   22.1890  -31.3240 C   0  0  0  0  0  0  0  0  0  0  0  0
   -2.7910   22.8590  -29.5130 C   0  0  0  0  0  0  0  0  0  0  0  0
   -2.0945   20.5837  -26.4048 H   0  0  0  0  0  0  0  0  0  0  0  0
   -3.6974   20.3099  -27.1678 H   0  0  0  0  0  0  0  0  0  0  0  0
   -2.4673   19.0009  -27.1678 H   0  0  0  0  0  0  0  0  0  0  0  0
   -2.7615   20.2790  -29.3642 H   0  0  0  0  0  0  0  0  0  0  0  0
   -0.1813   19.7748  -27.9223 H   0  0  0  0  0  0  0  0  0  0  0  0
   -0.8192   19.0735  -29.4481 H   0  0  0  0  0  0  0  0  0  0  0  0
   -0.0991   20.7192  -29.4481 H   0  0  0  0  0  0  0  0  0  0  0  0
   -0.5936   22.2471  -26.9552 H   0  0  0  0  0  0  0  0  0  0  0  0
   -0.4695   24.7364  -27.0064 H   0  0  0  0  0  0  0  0  0  0  0  0
   -1.8305   26.0278  -28.6484 H   0  0  0  0  0  0  0  0  0  0  0  0
   -5.2353   23.7127  -28.9442 H   0  0  0  0  0  0  0  0  0  0  0  0
   -6.6844   24.6664  -29.4200 H   0  0  0  0  0  0  0  0  0  0  0  0
   -8.3764   23.3492  -30.3372 H   0  0  0  0  0  0  0  0  0  0  0  0
   -9.1225   21.4611  -31.8238 H   0  0  0  0  0  0  0  0  0  0  0  0
   -8.1451   19.3829  -33.5242 H   0  0  0  0  0  0  0  0  0  0  0  0
   -3.5240   18.8020  -34.7210 H   0  0  0  0  0  0  0  0  0  0  0  0
   -4.1290   17.3570  -35.5970 H   0  0  0  0  0  0  0  0  0  0  0  0
   -2.7030   21.5270  -34.4710 H   0  0  0  0  0  0  0  0  0  0  0  0
   -4.2099   22.3877  -31.2031 H   0  0  0  0  0  0  0  0  0  0  0  0
   -3.4276   22.3313  -30.2385 H   0  0  0  0  0  0  0  0  0  0  0  0
  1  2  1  0
  2  3  1  0
  2  4  1  0
  4  5  2  0
  5  6  1  0
  6  7  2  0
  7  8  1  0
  8  9  1  0
  9 10  1  0
 10 11  2  0
 10 12  1  0
 12 13  1  0
 13 14  2  0
 14 15  1  0
 15 16  2  0
 16 17  1  0
 17 18  2  0
 18 19  1  0
 19 20  1  0
 19 21  2  0
 18 22  1  0
 22 23  1  0
 23 24  1  0
 23 25  2  0
 22 26  1  0
 26 27  2  0
  8 28  2  0
 28  4  1  0
 27 13  1  0
 26 16  1  0
  1 29  1  0
  1 30  1  0
  1 31  1  0
  2 32  1  0
  3 33  1  0
  3 34  1  0
  3 35  1  0
  5 36  1  0
  6 37  1  0
  7 38  1  0
 12 39  1  0
 12 40  1  0
 14 41  1  0
 15 42  1  0
 17 43  1  0
 20 44  1  0
 20 45  1  0
 24 46  1  0
 27 47  1  0
 28 48  1  0
M  CHG  2   9  -1  24  -1
M  END
>  <UniqueID>  (14) 
14

>  <SMILES>  (14) 
CC(C)c1cccc([N-]C(=O)Cc2ccc3cc(C(N)=O)n(C([NH-])=O)c3c2)c1

>  <Energy>  (14) 
89.11473484115936

>  <Genealogy>  (14) 
CC(C)c1cccc([N-]C(=O)Cc2ccc3cc(C(N)=O)n(C([NH-])=O)c3c2)c1 (protonated)
CC(C)c1cccc([N-]C(=O)Cc2ccc3cc(C(N)=O)n(C([NH-])=O)c3c2)c1 (3D coordinates assigned)
CC(C)c1cccc([N-]C(=O)Cc2ccc3cc(C(N)=O)n(C([NH-])=O)c3c2)c1 (optimized conformer: 89.11473484115936 kcal/mol)

>  <smiles>  (14) 
CC(C)c1cccc(NC(=O)Cc2ccc3cc(C(N)=O)n(C(N)=O)c3c2)c1

>  <score_type>  (14) 
oracle

>  <origin>  (14) 
adg

>  <m_score__min__energy>  (14) 
-10.93

>  <m_primary>  (14) 
energy

$$$$
14:0
     RDKit          3D

 40 42  0  0  0  0  0  0  0  0999 V2000
   -7.6950   18.1870  -31.9530 C   0  0  0  0  0  0  0  0  0  0  0  0
   -7.7100   19.6830  -31.8460 C   0  0  0  0  0  0  0  0  0  0  0  0
   -8.7930   20.4230  -32.3810 C   0  0  0  0  0  0  0  0  0  0  0  0
   -8.7940   21.8280  -32.3310 C   0  0  0  0  0  0  0  0  0  0  0  0
   -7.7010   22.4600  -31.7440 C   0  0  0  0  0  0  0  0  0  0  0  0
   -7.4280   23.8010  -31.5940 C   0  0  0  0  0  0  0  0  0  0  0  0
   -6.1860   23.8570  -30.9620 C   0  0  0  0  0  0  0  0  0  0  0  0
   -5.5390   25.1180  -30.5470 C   0  0  0  0  0  0  0  0  0  0  0  0
   -4.1460   25.3360  -30.7630 N   0  0  0  0  0  0  0  0  0  0  0  0
   -6.2150   26.0030  -29.9580 O   0  0  0  0  0  0  0  0  0  0  0  0
   -5.7110   22.6000  -30.7350 N   0  0  0  0  0  0  0  0  0  0  0  0
   -4.4410   22.2250  -30.1790 C   0  0  0  0  0  0  0  0  0  0  0  0
   -3.8970   21.1450  -30.5370 O   0  0  0  0  0  0  0  0  0  0  0  0
   -3.8010   23.0720  -29.2150 N   0  0  0  0  0  0  0  0  0  0  0  0
   -2.5680   22.6830  -28.5200 C   0  0  0  0  0  0  0  0  0  0  0  0
   -2.4490   23.4340  -27.1830 C   0  0  0  0  0  0  0  0  0  0  0  0
   -2.1460   24.9360  -27.3930 C   0  0  0  0  0  0  0  0  0  0  0  0
   -1.8940   25.2660  -28.7500 O   0  0  0  0  0  0  0  0  0  0  0  0
   -0.8660   24.4410  -29.2650 C   0  0  0  0  0  0  0  0  0  0  0  0
   -1.3310   22.9770  -29.3940 C   0  0  0  0  0  0  0  0  0  0  0  0
   -6.6490   21.7570  -31.2200 C   0  0  0  0  0  0  0  0  0  0  0  0
   -6.6110   20.3600  -31.2760 C   0  0  0  0  0  0  0  0  0  0  0  0
   -7.6906   17.7473  -30.9447 H   0  0  0  0  0  0  0  0  0  0  0  0
   -8.5898   17.8493  -32.4964 H   0  0  0  0  0  0  0  0  0  0  0  0
   -6.7936   17.8673  -32.4964 H   0  0  0  0  0  0  0  0  0  0  0  0
   -9.6410   19.8934  -32.8398 H   0  0  0  0  0  0  0  0  0  0  0  0
   -9.6319   22.4097  -32.7427 H   0  0  0  0  0  0  0  0  0  0  0  0
   -8.0561   24.6484  -31.9063 H   0  0  0  0  0  0  0  0  0  0  0  0
   -3.5280   25.6670  -29.9890 H   0  0  0  0  0  0  0  0  0  0  0  0
   -4.2160   24.0170  -29.0450 H   0  0  0  0  0  0  0  0  0  0  0  0
   -2.6128   21.6015  -28.3244 H   0  0  0  0  0  0  0  0  0  0  0  0
   -3.3969   23.3354  -26.6336 H   0  0  0  0  0  0  0  0  0  0  0  0
   -1.6158   22.9931  -26.6161 H   0  0  0  0  0  0  0  0  0  0  0  0
   -3.0107   25.5201  -27.0449 H   0  0  0  0  0  0  0  0  0  0  0  0
   -1.2354   25.1710  -26.8225 H   0  0  0  0  0  0  0  0  0  0  0  0
   -0.5730   24.8122  -30.2581 H   0  0  0  0  0  0  0  0  0  0  0  0
   -0.0147   24.4737  -28.5691 H   0  0  0  0  0  0  0  0  0  0  0  0
   -1.5836   22.7762  -30.4456 H   0  0  0  0  0  0  0  0  0  0  0  0
   -0.5111   22.3291  -29.0504 H   0  0  0  0  0  0  0  0  0  0  0  0
   -5.7464   19.8032  -30.8856 H   0  0  0  0  0  0  0  0  0  0  0  0
  1  2  1  0
  2  3  2  0
  3  4  1  0
  4  5  2  0
  5  6  1  0
  6  7  2  0
  7  8  1  0
  8  9  1  0
  8 10  2  0
  7 11  1  0
 11 12  1  0
 12 13  2  0
 12 14  1  0
 14 15  1  0
 15 16  1  0
 16 17  1  0
 17 18  1  0
 18 19  1  0
 19 20  1  0
 11 21  1  0
 21 22  2  0
 22  2  1  0
 21  5  1  0
 20 15  1  0
  1 23  1  0
  1 24  1  0
  1 25  1  0
  3 26  1  0
  4 27  1  0
  6 28  1  0
  9 29  1  0
 14 30  1  0
 15 31  1  0
 16 32  1  0
 16 33  1  0
 17 34  1  0
 17 35  1  0
 19 36  1  0
 19 37  1  0
 20 38  1  0
 20 39  1  0
 22 40  1  0
M  CHG  1   9  -1
M  END
>  <UniqueID>  (15) 
15

>  <SMILES>  (15) 
Cc1ccc2cc(C([NH-])=O)n(C(=O)NC3CCOCC3)c2c1

>  <Energy>  (15) 
84.08083075679184

>  <Genealogy>  (15) 
Cc1ccc2cc(C([NH-])=O)n(C(=O)NC3CCOCC3)c2c1 (protonated)
Cc1ccc2cc(C([NH-])=O)n(C(=O)NC3CCOCC3)c2c1 (3D coordinates assigned)
Cc1ccc2cc(C([NH-])=O)n(C(=O)NC3CCOCC3)c2c1 (nonaromatic ring conformer: 84.08083075679184 kcal/mol)

>  <smiles>  (15) 
Cc1ccc2cc(C(N)=O)n(C(=O)NC3CCOCC3)c2c1

>  <score_type>  (15) 
oracle

>  <origin>  (15) 
adg

>  <m_score__min__energy>  (15) 
-10.210000000000001

>  <m_primary>  (15) 
energy

$$$$
15:0
     RDKit          3D

 41 42  0  0  0  0  0  0  0  0999 V2000
   -1.1220   21.3680  -33.1980 C   0  0  0  0  0  0  0  0  0  0  0  0
   -2.5100   20.9240  -32.6980 C   0  0  0  0  0  0  0  0  0  0  0  0
   -2.4050   20.2710  -31.3070 C   0  0  0  0  0  0  0  0  0  0  0  0
   -3.0900   19.8990  -33.6840 C   0  0  0  0  0  0  0  0  0  0  0  0
   -3.4150   22.0360  -32.6650 O   0  0  0  0  0  0  0  0  0  0  0  0
   -3.8430   22.7290  -31.5220 C   0  0  0  0  0  0  0  0  0  0  0  0
   -3.0170   23.1310  -30.6600 O   0  0  0  0  0  0  0  0  0  0  0  0
   -5.2460   22.9550  -31.3240 N   0  0  0  0  0  0  0  0  0  0  0  0
   -5.8540   24.0490  -30.7830 C   0  0  0  0  0  0  0  0  0  0  0  0
   -5.1920   25.3170  -30.4120 C   0  0  0  0  0  0  0  0  0  0  0  0
   -3.8680   25.6100  -30.8480 N   0  0  0  0  0  0  0  0  0  0  0  0
   -5.8230   26.1750  -29.7390 O   0  0  0  0  0  0  0  0  0  0  0  0
   -7.2310   23.8510  -30.7010 C   0  0  0  0  0  0  0  0  0  0  0  0
   -7.4510   22.5960  -31.2230 C   0  0  0  0  0  0  0  0  0  0  0  0
   -8.6400   21.8910  -31.3910 C   0  0  0  0  0  0  0  0  0  0  0  0
   -8.5670   20.6010  -31.9440 C   0  0  0  0  0  0  0  0  0  0  0  0
   -7.3170   20.0380  -32.2990 C   0  0  0  0  0  0  0  0  0  0  0  0
   -7.2530   18.6620  -32.9110 C   0  0  0  0  0  0  0  0  0  0  0  0
   -5.9910   18.4920  -33.7620 C   0  0  0  0  0  0  0  0  0  0  0  0
   -6.1070   19.1850  -34.9770 O   0  0  0  0  0  0  0  0  0  0  0  0
   -6.1330   20.7860  -32.1210 C   0  0  0  0  0  0  0  0  0  0  0  0
   -6.2380   22.0770  -31.5900 C   0  0  0  0  0  0  0  0  0  0  0  0
   -0.4711   21.5762  -32.3360 H   0  0  0  0  0  0  0  0  0  0  0  0
   -0.6783   20.5670  -33.8075 H   0  0  0  0  0  0  0  0  0  0  0  0
   -1.2256   22.2778  -33.8075 H   0  0  0  0  0  0  0  0  0  0  0  0
   -2.5287   21.0403  -30.5305 H   0  0  0  0  0  0  0  0  0  0  0  0
   -3.1924   19.5106  -31.1985 H   0  0  0  0  0  0  0  0  0  0  0  0
   -1.4189   19.7958  -31.1985 H   0  0  0  0  0  0  0  0  0  0  0  0
   -3.5563   19.0749  -33.1242 H   0  0  0  0  0  0  0  0  0  0  0  0
   -3.8462   20.3863  -34.3170 H   0  0  0  0  0  0  0  0  0  0  0  0
   -2.2828   19.5017  -34.3170 H   0  0  0  0  0  0  0  0  0  0  0  0
   -3.0380   25.2730  -30.3120 H   0  0  0  0  0  0  0  0  0  0  0  0
   -7.9825   24.5491  -30.3036 H   0  0  0  0  0  0  0  0  0  0  0  0
   -9.6058   22.3298  -31.1001 H   0  0  0  0  0  0  0  0  0  0  0  0
   -9.4895   20.0232  -32.1026 H   0  0  0  0  0  0  0  0  0  0  0  0
   -7.2471   17.9116  -32.1067 H   0  0  0  0  0  0  0  0  0  0  0  0
   -8.1311   18.5284  -33.5599 H   0  0  0  0  0  0  0  0  0  0  0  0
   -5.1265   18.8834  -33.2057 H   0  0  0  0  0  0  0  0  0  0  0  0
   -5.8566   17.4222  -33.9800 H   0  0  0  0  0  0  0  0  0  0  0  0
   -7.0370   19.5290  -35.0200 H   0  0  0  0  0  0  0  0  0  0  0  0
   -5.1535   20.3654  -32.3925 H   0  0  0  0  0  0  0  0  0  0  0  0
  1  2  1  0
  2  3  1  0
  2  4  1  0
  2  5  1  0
  5  6  1  0
  6  7  2  0
  6  8  1  0
  8  9  1  0
  9 10  1  0
 10 11  1  0
 10 12  2  0
  9 13  2  0
 13 14  1  0
 14 15  2  0
 15 16  1  0
 16 17  2  0
 17 18  1  0
 18 19  1  0
 19 20  1  0
 17 21  1  0
 21 22  2  0
 22  8  1  0
 22 14  1  0
  1 23  1  0
  1 24  1  0
  1 25  1  0
  3 26  1  0
  3 27  1  0
  3 28  1  0
  4 29  1  0
  4 30  1  0
  4 31  1  0
 11 32  1  0
 13 33  1  0
 15 34  1  0
 16 35  1  0
 18 36  1  0
 18 37  1  0
 19 38  1  0
 19 39  1  0
 20 40  1  0
 21 41  1  0
M  CHG  1  11  -1
M  END
>  <UniqueID>  (16) 
16

>  <SMILES>  (16) 
CC(C)(C)OC(=O)n1c(C([NH-])=O)cc2ccc(CCO)cc21

>  <Energy>  (16) 
71.93172579563564

>  <Genealogy>  (16) 
CC(C)(C)OC(=O)n1c(C([NH-])=O)cc2ccc(CCO)cc21 (protonated)
CC(C)(C)OC(=O)n1c(C([NH-])=O)cc2ccc(CCO)cc21 (3D coordinates assigned)
CC(C)(C)OC(=O)n1c(C([NH-])=O)cc2ccc(CCO)cc21 (optimized conformer: 71.93172579563564 kcal/mol)

>  <smiles>  (16) 
CC(C)(C)OC(=O)n1c(C(N)=O)cc2ccc(CCO)cc21

>  <score_type>  (16) 
oracle

>  <origin>  (16) 
adg

>  <m_score__min__energy>  (16) 
-10.390000000000001

>  <m_primary>  (16) 
energy

$$$$
16:0
     RDKit          3D

 64 68  0  0  0  0  0  0  0  0999 V2000
   -4.1200   18.9860  -33.5550 C   0  0  0  0  0  0  0  0  0  0  0  0
   -4.0130   17.4970  -33.3620 C   0  0  0  0  0  0  0  0  0  0  0  0
   -5.1230   16.6490  -33.1940 C   0  0  0  0  0  0  0  0  0  0  0  0
   -6.5450   17.0340  -33.2240 C   0  0  0  0  0  0  0  0  0  0  0  0
   -7.2670   16.6360  -34.1780 O   0  0  0  0  0  0  0  0  0  0  0  0
   -7.1180   17.8330  -32.1690 N   0  0  0  0  0  0  0  0  0  0  0  0
   -8.5680   17.8920  -31.9900 C   0  0  0  0  0  0  0  0  0  0  0  0
   -9.1250   19.1660  -32.6400 C   0  0  0  0  0  0  0  0  0  0  0  0
   -8.3040   20.4560  -32.3580 C   0  0  0  0  0  0  0  0  0  0  0  0
   -8.8790   21.2670  -31.2610 N   0  0  0  0  0  0  0  0  0  0  0  0
   -7.9610   22.2320  -30.6410 C   0  0  0  0  0  0  0  0  0  0  0  0
   -7.7630   23.4350  -31.5620 C   0  0  0  0  0  0  0  0  0  0  0  0
   -8.9700   23.7700  -32.1510 F   0  0  0  0  0  0  0  0  0  0  0  0
   -7.3010   24.5200  -30.8370 F   0  0  0  0  0  0  0  0  0  0  0  0
   -6.8490   23.1260  -32.5550 F   0  0  0  0  0  0  0  0  0  0  0  0
   -6.7660   20.2480  -32.2630 C   0  0  0  0  0  0  0  0  0  0  0  0
   -6.3620   18.9380  -31.5780 C   0  0  0  0  0  0  0  0  0  0  0  0
   -4.5980   15.0660  -32.9070 S   0  0  0  0  0  0  0  0  0  0  0  0
   -2.9720   15.4440  -33.0020 C   0  0  0  0  0  0  0  0  0  0  0  0
   -1.9390   14.5890  -32.8170 N   0  0  0  0  0  0  0  0  0  0  0  0
   -0.6690   15.0700  -32.8820 C   0  0  0  0  0  0  0  0  0  0  0  0
   -0.4450   16.3950  -33.1240 N   0  0  0  0  0  0  0  0  0  0  0  0
   -1.4720   17.2720  -33.3170 C   0  0  0  0  0  0  0  0  0  0  0  0
   -1.1770   18.6490  -33.5560 N   0  0  0  0  0  0  0  0  0  0  0  0
   -1.0740   19.6130  -32.4930 C   0  0  0  0  0  0  0  0  0  0  0  0
    0.0250   19.5480  -31.6020 C   0  0  0  0  0  0  0  0  0  0  0  0
    0.1690   20.4890  -30.5670 C   0  0  0  0  0  0  0  0  0  0  0  0
   -0.7900   21.4920  -30.4610 C   0  0  0  0  0  0  0  0  0  0  0  0
   -0.8970   22.5260  -29.5580 C   0  0  0  0  0  0  0  0  0  0  0  0
   -2.0430   23.2270  -29.9330 C   0  0  0  0  0  0  0  0  0  0  0  0
   -2.4810   24.4820  -29.2860 C   0  0  0  0  0  0  0  0  0  0  0  0
   -1.6180   25.6150  -29.2230 N   0  0  0  0  0  0  0  0  0  0  0  0
   -3.6160   24.5400  -28.7420 O   0  0  0  0  0  0  0  0  0  0  0  0
   -2.6260   22.6420  -31.0170 N   0  0  0  0  0  0  0  0  0  0  0  0
   -3.8510   23.0120  -31.6700 C   0  0  0  0  0  0  0  0  0  0  0  0
   -4.2310   22.3940  -32.8990 N   0  0  0  0  0  0  0  0  0  0  0  0
   -4.5780   23.9150  -31.1760 O   0  0  0  0  0  0  0  0  0  0  0  0
   -1.8470   21.5830  -31.3280 C   0  0  0  0  0  0  0  0  0  0  0  0
   -2.0290   20.6480  -32.3510 C   0  0  0  0  0  0  0  0  0  0  0  0
   -2.7920   16.7920  -33.2540 C   0  0  0  0  0  0  0  0  0  0  0  0
   -4.1556   19.4813  -32.5735 H   0  0  0  0  0  0  0  0  0  0  0  0
   -3.2455   19.3468  -34.1163 H   0  0  0  0  0  0  0  0  0  0  0  0
   -5.0371   19.2180  -34.1163 H   0  0  0  0  0  0  0  0  0  0  0  0
   -9.0294   17.0112  -32.4605 H   0  0  0  0  0  0  0  0  0  0  0  0
   -8.7992   17.9042  -30.9146 H   0  0  0  0  0  0  0  0  0  0  0  0
   -9.1537   19.0101  -33.7285 H   0  0  0  0  0  0  0  0  0  0  0  0
  -10.1189   19.3294  -32.1979 H   0  0  0  0  0  0  0  0  0  0  0  0
   -8.4106   21.0651  -33.2677 H   0  0  0  0  0  0  0  0  0  0  0  0
   -9.6940   21.8000  -31.6470 H   0  0  0  0  0  0  0  0  0  0  0  0
   -8.3829   22.5722  -29.6838 H   0  0  0  0  0  0  0  0  0  0  0  0
   -6.9892   21.7457  -30.4701 H   0  0  0  0  0  0  0  0  0  0  0  0
   -6.3520   20.2489  -33.2821 H   0  0  0  0  0  0  0  0  0  0  0  0
   -6.3684   21.0683  -31.6473 H   0  0  0  0  0  0  0  0  0  0  0  0
   -5.2851   18.7650  -31.7209 H   0  0  0  0  0  0  0  0  0  0  0  0
   -6.5802   19.0011  -30.5017 H   0  0  0  0  0  0  0  0  0  0  0  0
    0.1823   14.3883  -32.7389 H   0  0  0  0  0  0  0  0  0  0  0  0
   -0.9810   18.9440  -34.5390 H   0  0  0  0  0  0  0  0  0  0  0  0
    0.7748   18.7520  -31.7210 H   0  0  0  0  0  0  0  0  0  0  0  0
    1.0128   20.4341  -29.8635 H   0  0  0  0  0  0  0  0  0  0  0  0
   -0.2221   22.7513  -28.7191 H   0  0  0  0  0  0  0  0  0  0  0  0
   -1.2330   26.0450  -30.0930 H   0  0  0  0  0  0  0  0  0  0  0  0
   -5.1260   22.6560  -33.3670 H   0  0  0  0  0  0  0  0  0  0  0  0
   -3.6030   21.6960  -33.3580 H   0  0  0  0  0  0  0  0  0  0  0  0
   -2.8928   20.7149  -33.0288 H   0  0  0  0  0  0  0  0  0  0  0  0
  1  2  1  0
  2  3  2  0
  3  4  1  0
  4  5  2  0
  4  6  1  0
  6  7  1  0
  7  8  1  0
  8  9  1  0
  9 10  1  0
 10 11  1  0
 11 12  1  0
 12 13  1  0
 12 14  1  0
 12 15  1  0
  9 16  1  0
 16 17  1  0
  3 18  1  0
 18 19  1  0
 19 20  2  0
 20 21  1  0
 21 22  2  0
 22 23  1  0
 23 24  1  0
 24 25  1  0
 25 26  2  0
 26 27  1  0
 27 28  2  0
 28 29  1  0
 29 30  2  0
 30 31  1  0
 31 32  1  0
 31 33  2  0
 30 34  1  0
 34 35  1  0
 35 36  1  0
 35 37  2  0
 34 38  1  0
 38 39  2  0
 23 40  2  0
 40  2  1  0
 17  6  1  0
 40 19  1  0
 39 25  1  0
 38 28  1  0
  1 41  1  0
  1 42  1  0
  1 43  1  0
  7 44  1  0
  7 45  1  0
  8 46  1  0
  8 47  1  0
  9 48  1  0
 10 49  1  0
 11 50  1  0
 11 51  1  0
 16 52  1  0
 16 53  1  0
 17 54  1  0
 17 55  1  0
 21 56  1  0
 24 57  1  0
 26 58  1  0
 27 59  1  0
 29 60  1  0
 32 61  1  0
 36 62  1  0
 36 63  1  0
 39 64  1  0
M  CHG  1  32  -1
M  END
>  <UniqueID>  (17) 
17

>  <SMILES>  (17) 
Cc1c(C(=O)N2CCC(NCC(F)(F)F)CC2)sc2ncnc(Nc3ccc4cc(C([NH-])=O)n(C(N)=O)c4c3)c12

>  <Energy>  (17) 
159.64481074770399

>  <Genealogy>  (17) 
Cc1c(C(=O)N2CCC(NCC(F)(F)F)CC2)sc2ncnc(Nc3ccc4cc(C([NH-])=O)n(C(N)=O)c4c3)c12 (protonated)
Cc1c(C(=O)N2CCC(NCC(F)(F)F)CC2)sc2ncnc(Nc3ccc4cc(C([NH-])=O)n(C(N)=O)c4c3)c12 (3D coordinates assigned)
Cc1c(C(=O)N2CCC(NCC(F)(F)F)CC2)sc2ncnc(Nc3ccc4cc(C([NH-])=O)n(C(N)=O)c4c3)c12 (nonaromatic ring conformer: 159.64481074770399 kcal/mol)

>  <smiles>  (17) 
Cc1c(C(=O)N2CCC(NCC(F)(F)F)CC2)sc2ncnc(Nc3ccc4cc(C(N)=O)n(C(N)=O)c4c3)c12

>  <score_type>  (17) 
oracle

>  <origin>  (17) 
adg

>  <m_score__min__energy>  (17) 
-12.07

>  <m_primary>  (17) 
energy

$$$$
17:0
     RDKit          3D

 45 48  0  0  0  0  0  0  0  0999 V2000
   -9.5180   21.9260  -32.1700 C   0  0  0  0  0  0  0  0  0  0  0  0
   -8.3600   21.3200  -31.3600 C   0  0  1  0  0  0  0  0  0  0  0  0
   -7.7230   20.1070  -32.0180 C   0  0  0  0  0  0  0  0  0  0  0  0
   -8.0170   18.8270  -31.5170 C   0  0  0  0  0  0  0  0  0  0  0  0
   -7.4190   17.6910  -32.0680 C   0  0  0  0  0  0  0  0  0  0  0  0
   -6.5020   17.8100  -33.1240 C   0  0  0  0  0  0  0  0  0  0  0  0
   -5.8670   16.6060  -33.7060 C   0  0  0  0  0  0  0  0  0  0  0  0
   -6.5230   15.4410  -33.8990 N   0  0  0  0  0  0  0  0  0  0  0  0
   -5.5970   14.6290  -34.4370 C   0  0  0  0  0  0  0  0  0  0  0  0
   -4.4120   15.3120  -34.5570 C   0  0  0  0  0  0  0  0  0  0  0  0
   -4.5740   16.5640  -34.0970 N   0  0  0  0  0  0  0  0  0  0  0  0
   -6.1900   19.0880  -33.6150 C   0  0  0  0  0  0  0  0  0  0  0  0
   -6.7880   20.2250  -33.0640 C   0  0  0  0  0  0  0  0  0  0  0  0
   -7.3090   22.3610  -31.0250 C   0  0  0  0  0  0  0  0  0  0  0  0
   -7.5810   23.7480  -31.1680 C   0  0  0  0  0  0  0  0  0  0  0  0
   -6.5970   24.7080  -30.8830 C   0  0  0  0  0  0  0  0  0  0  0  0
   -5.3520   24.2600  -30.4570 C   0  0  0  0  0  0  0  0  0  0  0  0
   -4.2170   24.9680  -30.1360 C   0  0  0  0  0  0  0  0  0  0  0  0
   -3.2680   24.0090  -29.7870 C   0  0  0  0  0  0  0  0  0  0  0  0
   -1.9190   24.3400  -29.2840 C   0  0  0  0  0  0  0  0  0  0  0  0
   -1.5690   25.6810  -28.9540 N   0  0  0  0  0  0  0  0  0  0  0  0
   -1.0500   23.4330  -29.1860 O   0  0  0  0  0  0  0  0  0  0  0  0
   -3.7940   22.7560  -29.8980 N   0  0  0  0  0  0  0  0  0  0  0  0
   -3.1280   21.4980  -29.7130 C   0  0  0  0  0  0  0  0  0  0  0  0
   -2.2930   21.2820  -28.5750 N   0  0  0  0  0  0  0  0  0  0  0  0
   -3.2500   20.5890  -30.5760 O   0  0  0  0  0  0  0  0  0  0  0  0
   -5.0710   22.9280  -30.3040 C   0  0  0  0  0  0  0  0  0  0  0  0
   -6.0270   21.9480  -30.5930 C   0  0  0  0  0  0  0  0  0  0  0  0
  -10.2782   22.3238  -31.4816 H   0  0  0  0  0  0  0  0  0  0  0  0
   -9.1357   22.7396  -32.8039 H   0  0  0  0  0  0  0  0  0  0  0  0
   -9.9686   21.1481  -32.8039 H   0  0  0  0  0  0  0  0  0  0  0  0
   -8.8146   20.9624  -30.4243 H   0  0  0  0  0  0  0  0  0  0  0  0
   -8.7253   18.7187  -30.6824 H   0  0  0  0  0  0  0  0  0  0  0  0
   -7.6686   16.6958  -31.6713 H   0  0  0  0  0  0  0  0  0  0  0  0
   -5.7623   13.5829  -34.7341 H   0  0  0  0  0  0  0  0  0  0  0  0
   -3.4776   14.8994  -34.9652 H   0  0  0  0  0  0  0  0  0  0  0  0
   -5.4696   19.1952  -34.4394 H   0  0  0  0  0  0  0  0  0  0  0  0
   -6.5258   21.2207  -33.4510 H   0  0  0  0  0  0  0  0  0  0  0  0
   -8.5756   24.0740  -31.5064 H   0  0  0  0  0  0  0  0  0  0  0  0
   -6.8050   25.7825  -30.9935 H   0  0  0  0  0  0  0  0  0  0  0  0
   -4.0862   26.0601  -30.1515 H   0  0  0  0  0  0  0  0  0  0  0  0
   -1.2240   26.3420  -29.6850 H   0  0  0  0  0  0  0  0  0  0  0  0
   -1.8200   20.3630  -28.4360 H   0  0  0  0  0  0  0  0  0  0  0  0
   -2.1210   22.0510  -27.8900 H   0  0  0  0  0  0  0  0  0  0  0  0
   -5.7868   20.8798  -30.4866 H   0  0  0  0  0  0  0  0  0  0  0  0
  1  2  1  0
  2  3  1  0
  3  4  2  0
  4  5  1  0
  5  6  2  0
  6  7  1  0
  7  8  2  0
  8  9  1  0
  9 10  2  0
 10 11  1  0
  6 12  1  0
 12 13  2  0
  2 14  1  0
 14 15  2  0
 15 16  1  0
 16 17  2  0
 17 18  1  0
 18 19  2  0
 19 20  1  0
 20 21  1  0
 20 22  2  0
 19 23  1  0
 23 24  1  0
 24 25  1  0
 24 26  2  0
 23 27  1  0
 27 28  2  0
 13  3  1  0
 28 14  1  0
 11  7  1  0
 27 17  1  0
  1 29  1  0
  1 30  1  0
  1 31  1  0
  2 32  1  1
  4 33  1  0
  5 34  1  0
  9 35  1  0
 10 36  1  0
 12 37  1  0
 13 38  1  0
 15 39  1  0
 16 40  1  0
 18 41  1  0
 21 42  1  0
 25 43  1  0
 25 44  1  0
 28 45  1  0
M  CHG  2  11  -1  21  -1
M  END
>  <UniqueID>  (18) 
18

>  <SMILES>  (18) 
C[C@@H](c1ccc(-c2ncc[n-]2)cc1)c1ccc2cc(C([NH-])=O)n(C(N)=O)c2c1

>  <Energy>  (18) 
116.52597064653783

>  <Genealogy>  (18) 
CC(c1ccc(-c2ncc[n-]2)cc1)c1ccc2cc(C([NH-])=O)n(C(N)=O)c2c1 (protonated)
C[C@@H](c1ccc(-c2ncc[n-]2)cc1)c1ccc2cc(C([NH-])=O)n(C(N)=O)c2c1 (chirality)
C[C@@H](c1ccc(-c2ncc[n-]2)cc1)c1ccc2cc(C([NH-])=O)n(C(N)=O)c2c1 (3D coordinates assigned)
C[C@@H](c1ccc(-c2ncc[n-]2)cc1)c1ccc2cc(C([NH-])=O)n(C(N)=O)c2c1 (optimized conformer: 116.52597064653783 kcal/mol)

>  <smiles>  (18) 
CC(c1ccc(-c2ncc[nH]2)cc1)c1ccc2cc(C(N)=O)n(C(N)=O)c2c1

>  <score_type>  (18) 
oracle

>  <origin>  (18) 
adg

>  <m_score__min__energy>  (18) 
-10.94

>  <m_primary>  (18) 
energy

$$$$
18:0
     RDKit          3D

 41 43  0  0  0  0  0  0  0  0999 V2000
   -5.5670   14.9130  -34.2740 C   0  0  0  0  0  0  0  0  0  0  0  0
   -5.4260   16.6640  -33.9870 S   0  0  0  0  0  0  0  0  0  0  0  0
   -3.9910   16.9950  -33.6930 O   0  0  0  0  0  0  0  0  0  0  0  0
   -5.8580   17.4320  -35.2050 O   0  0  0  0  0  0  0  0  0  0  0  0
   -6.3910   17.1250  -32.6230 N   0  0  0  0  0  0  0  0  0  0  0  0
   -7.1100   18.3590  -32.4710 C   0  0  0  0  0  0  0  0  0  0  0  0
   -8.4310   18.3860  -31.9830 C   0  0  0  0  0  0  0  0  0  0  0  0
   -9.0870   19.6040  -31.7860 C   0  0  0  0  0  0  0  0  0  0  0  0
   -8.4340   20.8040  -32.0620 C   0  0  0  0  0  0  0  0  0  0  0  0
   -7.1260   20.7930  -32.5510 C   0  0  0  0  0  0  0  0  0  0  0  0
   -6.4630   19.5780  -32.7810 C   0  0  0  0  0  0  0  0  0  0  0  0
   -5.1190   19.6080  -33.2900 N   0  0  0  0  0  0  0  0  0  0  0  0
   -4.0060   20.2080  -32.6010 C   0  0  0  0  0  0  0  0  0  0  0  0
   -2.7480   19.5600  -32.6260 C   0  0  0  0  0  0  0  0  0  0  0  0
   -1.6420   20.1110  -31.9570 C   0  0  0  0  0  0  0  0  0  0  0  0
   -1.8230   21.3100  -31.2750 C   0  0  0  0  0  0  0  0  0  0  0  0
   -0.9310   22.0510  -30.5350 C   0  0  0  0  0  0  0  0  0  0  0  0
   -1.6550   23.1500  -30.0750 C   0  0  0  0  0  0  0  0  0  0  0  0
   -1.0530   24.2550  -29.3000 C   0  0  0  0  0  0  0  0  0  0  0  0
   -1.6510   25.5500  -29.3290 N   0  0  0  0  0  0  0  0  0  0  0  0
   -0.0340   24.0640  -28.5850 O   0  0  0  0  0  0  0  0  0  0  0  0
   -2.9460   23.0860  -30.5080 N   0  0  0  0  0  0  0  0  0  0  0  0
   -4.0180   24.0010  -30.2260 C   0  0  0  0  0  0  0  0  0  0  0  0
   -3.9960   25.3200  -30.7650 N   0  0  0  0  0  0  0  0  0  0  0  0
   -4.9900   23.6370  -29.5120 O   0  0  0  0  0  0  0  0  0  0  0  0
   -3.0320   21.9540  -31.2410 C   0  0  0  0  0  0  0  0  0  0  0  0
   -4.1570   21.4110  -31.8710 C   0  0  0  0  0  0  0  0  0  0  0  0
   -5.6095   14.3856  -33.3096 H   0  0  0  0  0  0  0  0  0  0  0  0
   -6.4846   14.7077  -34.8449 H   0  0  0  0  0  0  0  0  0  0  0  0
   -4.6941   14.5635  -34.8449 H   0  0  0  0  0  0  0  0  0  0  0  0
   -8.9493   17.4428  -31.7556 H   0  0  0  0  0  0  0  0  0  0  0  0
  -10.1214   19.6158  -31.4121 H   0  0  0  0  0  0  0  0  0  0  0  0
   -8.9497   21.7611  -31.8944 H   0  0  0  0  0  0  0  0  0  0  0  0
   -6.6119   21.7434  -32.7573 H   0  0  0  0  0  0  0  0  0  0  0  0
   -4.9260   19.0900  -34.1760 H   0  0  0  0  0  0  0  0  0  0  0  0
   -2.6348   18.6139  -33.1756 H   0  0  0  0  0  0  0  0  0  0  0  0
   -0.6630   19.6097  -31.9721 H   0  0  0  0  0  0  0  0  0  0  0  0
    0.1287   21.8244  -30.3463 H   0  0  0  0  0  0  0  0  0  0  0  0
   -2.6890   25.6620  -29.3170 H   0  0  0  0  0  0  0  0  0  0  0  0
   -3.0980   25.7710  -31.0460 H   0  0  0  0  0  0  0  0  0  0  0  0
   -5.1360   21.9075  -31.8006 H   0  0  0  0  0  0  0  0  0  0  0  0
  1  2  1  0
  2  3  2  0
  2  4  2  0
  2  5  1  0
  5  6  1  0
  6  7  2  0
  7  8  1  0
  8  9  2  0
  9 10  1  0
 10 11  2  0
 11 12  1  0
 12 13  1  0
 13 14  2  0
 14 15  1  0
 15 16  2  0
 16 17  1  0
 17 18  2  0
 18 19  1  0
 19 20  1  0
 19 21  2  0
 18 22  1  0
 22 23  1  0
 23 24  1  0
 23 25  2  0
 22 26  1  0
 26 27  2  0
 11  6  1  0
 27 13  1  0
 26 16  1  0
  1 28  1  0
  1 29  1  0
  1 30  1  0
  7 31  1  0
  8 32  1  0
  9 33  1  0
 10 34  1  0
 12 35  1  0
 14 36  1  0
 15 37  1  0
 17 38  1  0
 20 39  1  0
 24 40  1  0
 27 41  1  0
M  CHG  3   5  -1  20  -1  24  -1
M  END
>  <UniqueID>  (19) 
19

>  <SMILES>  (19) 
CS(=O)(=O)[N-]c1ccccc1Nc1ccc2cc(C([NH-])=O)n(C([NH-])=O)c2c1

>  <Energy>  (19) 
87.06591830418151

>  <Genealogy>  (19) 
CS(=O)(=O)[N-]c1ccccc1Nc1ccc2cc(C([NH-])=O)n(C([NH-])=O)c2c1 (protonated)
CS(=O)(=O)[N-]c1ccccc1Nc1ccc2cc(C([NH-])=O)n(C([NH-])=O)c2c1 (3D coordinates assigned)
CS(=O)(=O)[N-]c1ccccc1Nc1ccc2cc(C([NH-])=O)n(C([NH-])=O)c2c1 (optimized conformer: 87.06591830418151 kcal/mol)

>  <smiles>  (19) 
CS(=O)(=O)Nc1ccccc1Nc1ccc2cc(C(N)=O)n(C(N)=O)c2c1

>  <score_type>  (19) 
oracle

>  <origin>  (19) 
adg

>  <m_score__min__energy>  (19) 
-12.43

>  <m_primary>  (19) 
energy

$$$$
19:0
     RDKit          3D

 37 39  0  0  0  0  0  0  0  0999 V2000
   -9.4050   21.8460  -31.6400 C   0  0  0  0  0  0  0  0  0  0  0  0
   -8.5950   20.6550  -32.0440 C   0  0  0  0  0  0  0  0  0  0  0  0
   -8.9940   19.3680  -31.6700 C   0  0  0  0  0  0  0  0  0  0  0  0
   -8.1960   18.2890  -32.0480 C   0  0  0  0  0  0  0  0  0  0  0  0
   -7.0600   18.5010  -32.7610 N   0  0  0  0  0  0  0  0  0  0  0  0
   -6.6870   19.7580  -33.1230 C   0  0  0  0  0  0  0  0  0  0  0  0
   -5.4070   19.9740  -33.8660 C   0  0  0  0  0  0  0  0  0  0  0  0
   -4.3200   20.3800  -32.9100 C   0  0  0  0  0  0  0  0  0  0  0  0
   -3.1240   19.6230  -32.8320 C   0  0  0  0  0  0  0  0  0  0  0  0
   -2.0810   20.0210  -31.9790 C   0  0  0  0  0  0  0  0  0  0  0  0
   -2.2610   21.1750  -31.2220 C   0  0  0  0  0  0  0  0  0  0  0  0
   -1.4060   21.7970  -30.3420 C   0  0  0  0  0  0  0  0  0  0  0  0
   -2.0950   22.9210  -29.8890 C   0  0  0  0  0  0  0  0  0  0  0  0
   -1.5840   23.8350  -28.8430 C   0  0  0  0  0  0  0  0  0  0  0  0
   -1.5780   25.2490  -29.0510 N   0  0  0  0  0  0  0  0  0  0  0  0
   -1.1200   23.3710  -27.7690 O   0  0  0  0  0  0  0  0  0  0  0  0
   -3.3260   22.9920  -30.4690 N   0  0  0  0  0  0  0  0  0  0  0  0
   -4.3080   24.0310  -30.3200 C   0  0  0  0  0  0  0  0  0  0  0  0
   -3.9710   25.3870  -30.6090 N   0  0  0  0  0  0  0  0  0  0  0  0
   -5.4810   23.7480  -29.9560 O   0  0  0  0  0  0  0  0  0  0  0  0
   -3.4140   21.9150  -31.2820 C   0  0  0  0  0  0  0  0  0  0  0  0
   -4.4620   21.5520  -32.1350 C   0  0  0  0  0  0  0  0  0  0  0  0
   -7.4470   20.8240  -32.7530 N   0  0  0  0  0  0  0  0  0  0  0  0
   -9.4460   21.9063  -30.5424 H   0  0  0  0  0  0  0  0  0  0  0  0
   -8.9396   22.7588  -32.0403 H   0  0  0  0  0  0  0  0  0  0  0  0
  -10.4250   21.7486  -32.0403 H   0  0  0  0  0  0  0  0  0  0  0  0
   -9.9160   19.2106  -31.0911 H   0  0  0  0  0  0  0  0  0  0  0  0
   -8.4868   17.2656  -31.7685 H   0  0  0  0  0  0  0  0  0  0  0  0
   -5.1175   19.0411  -34.3719 H   0  0  0  0  0  0  0  0  0  0  0  0
   -5.5510   20.7721  -34.6092 H   0  0  0  0  0  0  0  0  0  0  0  0
   -3.0116   18.7163  -33.4445 H   0  0  0  0  0  0  0  0  0  0  0  0
   -1.1505   19.4383  -31.9115 H   0  0  0  0  0  0  0  0  0  0  0  0
   -0.3935   21.4756  -30.0564 H   0  0  0  0  0  0  0  0  0  0  0  0
   -2.0020   25.6740  -29.9040 H   0  0  0  0  0  0  0  0  0  0  0  0
   -1.1790   25.8830  -28.3240 H   0  0  0  0  0  0  0  0  0  0  0  0
   -3.9090   25.7260  -31.5930 H   0  0  0  0  0  0  0  0  0  0  0  0
   -5.3736   22.1641  -32.2003 H   0  0  0  0  0  0  0  0  0  0  0  0
  1  2  1  0
  2  3  2  0
  3  4  1  0
  4  5  2  0
  5  6  1  0
  6  7  1  0
  7  8  1  0
  8  9  2  0
  9 10  1  0
 10 11  2  0
 11 12  1  0
 12 13  2  0
 13 14  1  0
 14 15  1  0
 14 16  2  0
 13 17  1  0
 17 18  1  0
 18 19  1  0
 18 20  2  0
 17 21  1  0
 21 22  2  0
  6 23  2  0
 23  2  1  0
 22  8  1  0
 21 11  1  0
  1 24  1  0
  1 25  1  0
  1 26  1  0
  3 27  1  0
  4 28  1  0
  7 29  1  0
  7 30  1  0
  9 31  1  0
 10 32  1  0
 12 33  1  0
 15 34  1  0
 15 35  1  0
 19 36  1  0
 22 37  1  0
M  CHG  1  19  -1
M  END
>  <UniqueID>  (20) 
20

>  <SMILES>  (20) 
Cc1ccnc(Cc2ccc3cc(C(N)=O)n(C([NH-])=O)c3c2)n1

>  <Energy>  (20) 
75.93225926192154

>  <Genealogy>  (20) 
Cc1ccnc(Cc2ccc3cc(C(N)=O)n(C([NH-])=O)c3c2)n1 (protonated)
Cc1ccnc(Cc2ccc3cc(C(N)=O)n(C([NH-])=O)c3c2)n1 (3D coordinates assigned)
Cc1ccnc(Cc2ccc3cc(C(N)=O)n(C([NH-])=O)c3c2)n1 (optimized conformer: 75.93225926192154 kcal/mol)

>  <smiles>  (20) 
Cc1ccnc(Cc2ccc3cc(C(N)=O)n(C(N)=O)c3c2)n1

>  <score_type>  (20) 
oracle

>  <origin>  (20) 
adg

>  <m_score__min__energy>  (20) 
-9.6199999999999992

>  <m_primary>  (20) 
energy

$$$$
20:0
     RDKit          3D

 77 81  0  0  0  0  0  0  0  0999 V2000
    0.7990   19.2130  -28.2020 C   0  0  0  0  0  0  0  0  0  0  0  0
   -0.2760   19.7880  -29.1450 C   0  0  0  0  0  0  0  0  0  0  0  0
   -0.4770   18.8690  -30.3630 C   0  0  0  0  0  0  0  0  0  0  0  0
   -1.6050   19.8950  -28.3810 C   0  0  0  0  0  0  0  0  0  0  0  0
    0.0780   21.1140  -29.5590 O   0  0  0  0  0  0  0  0  0  0  0  0
   -0.6740   21.9600  -30.3880 C   0  0  0  0  0  0  0  0  0  0  0  0
   -0.5610   21.8880  -31.6390 O   0  0  0  0  0  0  0  0  0  0  0  0
   -1.5580   22.9370  -29.8010 N   0  0  0  0  0  0  0  0  0  0  0  0
   -1.2660   23.8010  -28.7860 C   0  0  0  0  0  0  0  0  0  0  0  0
   -0.0090   23.8470  -28.0300 C   0  0  0  0  0  0  0  0  0  0  0  0
    0.5260   22.6680  -27.4330 N   0  0  0  0  0  0  0  0  0  0  0  0
    0.5540   24.9570  -27.8290 O   0  0  0  0  0  0  0  0  0  0  0  0
   -2.3050   24.7020  -28.5840 C   0  0  0  0  0  0  0  0  0  0  0  0
   -3.2720   24.3490  -29.4960 C   0  0  0  0  0  0  0  0  0  0  0  0
   -4.5360   24.8900  -29.7100 C   0  0  0  0  0  0  0  0  0  0  0  0
   -5.3450   24.3090  -30.7010 C   0  0  0  0  0  0  0  0  0  0  0  0
   -4.8700   23.2200  -31.4770 C   0  0  0  0  0  0  0  0  0  0  0  0
   -5.6970   22.5910  -32.4710 N   0  0  0  0  0  0  0  0  0  0  0  0
   -6.8680   21.8110  -32.1700 C   0  0  0  0  0  0  0  0  0  0  0  0
   -6.8810   20.4660  -32.3910 N   0  0  0  0  0  0  0  0  0  0  0  0
   -7.9660   19.7070  -32.0820 C   0  0  0  0  0  0  0  0  0  0  0  0
   -7.9590   18.3050  -32.3850 N   0  0  0  0  0  0  0  0  0  0  0  0
   -6.8050   17.5950  -32.8630 C   0  0  0  0  0  0  0  0  0  0  0  0
   -6.1070   16.7010  -32.0340 C   0  0  0  0  0  0  0  0  0  0  0  0
   -4.9740   16.0360  -32.5100 C   0  0  0  0  0  0  0  0  0  0  0  0
   -4.5170   16.2550  -33.8250 C   0  0  0  0  0  0  0  0  0  0  0  0
   -3.4020   15.5870  -34.3570 O   0  0  0  0  0  0  0  0  0  0  0  0
   -2.0740   15.7030  -33.8530 C   0  0  0  0  0  0  0  0  0  0  0  0
   -1.9970   16.9190  -32.9110 C   0  0  0  0  0  0  0  0  0  0  0  0
   -2.4070   18.1960  -33.5380 N   0  0  0  0  0  0  0  0  0  0  0  0
   -1.3070   18.8930  -34.2430 C   0  0  0  0  0  0  0  0  0  0  0  0
   -1.2890   20.3990  -33.9440 C   0  0  0  0  0  0  0  0  0  0  0  0
   -2.5630   20.9700  -34.1710 O   0  0  0  0  0  0  0  0  0  0  0  0
   -3.5910   20.3600  -33.3850 C   0  0  0  0  0  0  0  0  0  0  0  0
   -3.1930   19.0630  -32.6470 C   0  0  0  0  0  0  0  0  0  0  0  0
   -5.1990   17.1710  -34.6380 C   0  0  0  0  0  0  0  0  0  0  0  0
   -4.7620   17.4120  -35.9010 F   0  0  0  0  0  0  0  0  0  0  0  0
   -6.3270   17.8430  -34.1570 C   0  0  0  0  0  0  0  0  0  0  0  0
   -9.0700   20.2960  -31.5460 N   0  0  0  0  0  0  0  0  0  0  0  0
   -9.0990   21.6300  -31.2910 C   0  0  0  0  0  0  0  0  0  0  0  0
   -7.9910   22.4190  -31.5950 C   0  0  0  0  0  0  0  0  0  0  0  0
   -8.0170   23.7540  -31.3490 F   0  0  0  0  0  0  0  0  0  0  0  0
   -3.5870   22.6880  -31.2170 C   0  0  0  0  0  0  0  0  0  0  0  0
   -2.7990   23.2850  -30.2220 C   0  0  0  0  0  0  0  0  0  0  0  0
    0.4952   19.3755  -27.1573 H   0  0  0  0  0  0  0  0  0  0  0  0
    0.9109   18.1346  -28.3878 H   0  0  0  0  0  0  0  0  0  0  0  0
    1.7581   19.7185  -28.3878 H   0  0  0  0  0  0  0  0  0  0  0  0
   -0.7003   17.8482  -30.0193 H   0  0  0  0  0  0  0  0  0  0  0  0
   -1.3146   19.2429  -30.9702 H   0  0  0  0  0  0  0  0  0  0  0  0
    0.4402   18.8591  -30.9702 H   0  0  0  0  0  0  0  0  0  0  0  0
   -1.4082   19.8792  -27.2989 H   0  0  0  0  0  0  0  0  0  0  0  0
   -2.1070   20.8365  -28.6486 H   0  0  0  0  0  0  0  0  0  0  0  0
   -2.2512   19.0460  -28.6486 H   0  0  0  0  0  0  0  0  0  0  0  0
    1.4340   22.7060  -26.9130 H   0  0  0  0  0  0  0  0  0  0  0  0
    0.0060   21.7640  -27.4820 H   0  0  0  0  0  0  0  0  0  0  0  0
   -2.3452   25.5217  -27.8516 H   0  0  0  0  0  0  0  0  0  0  0  0
   -4.8916   25.7478  -29.1203 H   0  0  0  0  0  0  0  0  0  0  0  0
   -6.3570   24.7024  -30.8772 H   0  0  0  0  0  0  0  0  0  0  0  0
   -5.4610   22.7570  -33.4740 H   0  0  0  0  0  0  0  0  0  0  0  0
   -8.8090   17.7510  -32.1240 H   0  0  0  0  0  0  0  0  0  0  0  0
   -6.4540   16.5237  -31.0053 H   0  0  0  0  0  0  0  0  0  0  0  0
   -4.4351   15.3367  -31.8538 H   0  0  0  0  0  0  0  0  0  0  0  0
   -1.8093   14.7904  -33.2988 H   0  0  0  0  0  0  0  0  0  0  0  0
   -1.3709   15.8362  -34.6884 H   0  0  0  0  0  0  0  0  0  0  0  0
   -2.6542   16.7306  -32.0492 H   0  0  0  0  0  0  0  0  0  0  0  0
   -0.9412   17.0313  -32.6235 H   0  0  0  0  0  0  0  0  0  0  0  0
   -0.3490   18.4569  -33.9235 H   0  0  0  0  0  0  0  0  0  0  0  0
   -1.4642   18.7652  -35.3242 H   0  0  0  0  0  0  0  0  0  0  0  0
   -1.0058   20.5548  -32.8926 H   0  0  0  0  0  0  0  0  0  0  0  0
   -0.5610   20.8830  -34.6116 H   0  0  0  0  0  0  0  0  0  0  0  0
   -3.9174   21.0909  -32.6305 H   0  0  0  0  0  0  0  0  0  0  0  0
   -4.3780   20.0692  -34.0964 H   0  0  0  0  0  0  0  0  0  0  0  0
   -2.5905   19.3177  -31.7626 H   0  0  0  0  0  0  0  0  0  0  0  0
   -4.1044   18.5302  -32.3379 H   0  0  0  0  0  0  0  0  0  0  0  0
   -6.8432   18.5719  -34.7991 H   0  0  0  0  0  0  0  0  0  0  0  0
   -9.9951   22.0866  -30.8455 H   0  0  0  0  0  0  0  0  0  0  0  0
   -3.2135   21.8225  -31.7839 H   0  0  0  0  0  0  0  0  0  0  0  0
  1  2  1  0
  2  3  1  0
  2  4  1  0
  2  5  1  0
  5  6  1  0
  6  7  2  0
  6  8  1  0
  8  9  1  0
  9 10  1  0
 10 11  1  0
 10 12  2  0
  9 13  2  0
 13 14  1  0
 14 15  2  0
 15 16  1  0
 16 17  2  0
 17 18  1  0
 18 19  1  0
 19 20  2  0
 20 21  1  0
 21 22  1  0
 22 23  1  0
 23 24  2  0
 24 25  1  0
 25 26  2  0
 26 27  1  0
 27 28  1  0
 28 29  1  0
 29 30  1  0
 30 31  1  0
 31 32  1  0
 32 33  1  0
 33 34  1  0
 34 35  1  0
 26 36  1  0
 36 37  1  0
 36 38  2  0
 21 39  2  0
 39 40  1  0
 40 41  2  0
 41 42  1  0
 17 43  1  0
 43 44  2  0
 44  8  1  0
 44 14  1  0
 41 19  1  0
 38 23  1  0
 35 30  1  0
  1 45  1  0
  1 46  1  0
  1 47  1  0
  3 48  1  0
  3 49  1  0
  3 50  1  0
  4 51  1  0
  4 52  1  0
  4 53  1  0
 11 54  1  0
 11 55  1  0
 13 56  1  0
 15 57  1  0
 16 58  1  0
 18 59  1  0
 22 60  1  0
 24 61  1  0
 25 62  1  0
 28 63  1  0
 28 64  1  0
 29 65  1  0
 29 66  1  0
 31 67  1  0
 31 68  1  0
 32 69  1  0
 32 70  1  0
 34 71  1  0
 34 72  1  0
 35 73  1  0
 35 74  1  0
 38 75  1  0
 40 76  1  0
 43 77  1  0
M  END
>  <UniqueID>  (21) 
21

>  <SMILES>  (21) 
CC(C)(C)OC(=O)n1c(C(N)=O)cc2ccc(Nc3nc(Nc4ccc(OCCN5CCOCC5)c(F)c4)ncc3F)cc21

>  <Energy>  (21) 
142.38208551522106

>  <Genealogy>  (21) 
CC(C)(C)OC(=O)n1c(C(N)=O)cc2ccc(Nc3nc(Nc4ccc(OCCN5CCOCC5)c(F)c4)ncc3F)cc21 (3D coordinates assigned)
CC(C)(C)OC(=O)n1c(C(N)=O)cc2ccc(Nc3nc(Nc4ccc(OCCN5CCOCC5)c(F)c4)ncc3F)cc21 (nonaromatic ring conformer: 142.38208551522106 kcal/mol)

>  <smiles>  (21) 
CC(C)(C)OC(=O)n1c(C(N)=O)cc2ccc(Nc3nc(Nc4ccc(OCCN5CCOCC5)c(F)c4)ncc3F)cc21

>  <score_type>  (21) 
oracle

>  <origin>  (21) 
adg

>  <m_score__min__energy>  (21) 
-11.18

>  <m_primary>  (21) 
energy

$$$$
21:0
     RDKit          3D

 32 34  0  0  0  0  0  0  0  0999 V2000
   -5.4350   14.3700  -34.5220 C   0  0  0  0  0  0  0  0  0  0  0  0
   -5.6930   15.7440  -33.9980 C   0  0  0  0  0  0  0  0  0  0  0  0
   -4.7290   16.6980  -34.0870 N   0  0  0  0  0  0  0  0  0  0  0  0
   -4.9530   17.9630  -33.6470 C   0  0  0  0  0  0  0  0  0  0  0  0
   -6.1980   18.3110  -33.1030 C   0  0  0  0  0  0  0  0  0  0  0  0
   -6.4670   19.6890  -32.6180 C   0  0  0  0  0  0  0  0  0  0  0  0
   -7.7970   20.1820  -32.5610 C   0  0  0  0  0  0  0  0  0  0  0  0
   -8.0620   21.4870  -32.1160 C   0  0  0  0  0  0  0  0  0  0  0  0
   -6.9860   22.2760  -31.7270 C   0  0  0  0  0  0  0  0  0  0  0  0
   -6.9570   23.5770  -31.2830 C   0  0  0  0  0  0  0  0  0  0  0  0
   -5.6140   23.8600  -31.0480 C   0  0  0  0  0  0  0  0  0  0  0  0
   -5.1400   25.1350  -30.4720 C   0  0  0  0  0  0  0  0  0  0  0  0
   -3.8630   25.6660  -30.8180 N   0  0  0  0  0  0  0  0  0  0  0  0
   -5.8510   25.7380  -29.6240 O   0  0  0  0  0  0  0  0  0  0  0  0
   -4.8390   22.7780  -31.3450 N   0  0  0  0  0  0  0  0  0  0  0  0
   -3.4050   22.6950  -31.3310 C   0  0  0  0  0  0  0  0  0  0  0  0
   -2.7500   23.1550  -30.3580 O   0  0  0  0  0  0  0  0  0  0  0  0
   -2.7270   22.0840  -32.3790 O   0  0  0  0  0  0  0  0  0  0  0  0
   -5.6950   21.8150  -31.7580 C   0  0  0  0  0  0  0  0  0  0  0  0
   -5.3980   20.5250  -32.2150 C   0  0  0  0  0  0  0  0  0  0  0  0
   -7.1810   17.3110  -33.0380 C   0  0  0  0  0  0  0  0  0  0  0  0
   -6.9110   16.0590  -33.4870 N   0  0  0  0  0  0  0  0  0  0  0  0
   -5.3045   13.6748  -33.6796 H   0  0  0  0  0  0  0  0  0  0  0  0
   -6.2879   14.0457  -35.1362 H   0  0  0  0  0  0  0  0  0  0  0  0
   -4.5225   14.3772  -35.1362 H   0  0  0  0  0  0  0  0  0  0  0  0
   -4.1554   18.7172  -33.7175 H   0  0  0  0  0  0  0  0  0  0  0  0
   -8.6303   19.5335  -32.8693 H   0  0  0  0  0  0  0  0  0  0  0  0
   -9.0911   21.8736  -32.0764 H   0  0  0  0  0  0  0  0  0  0  0  0
   -7.8141   24.2520  -31.1429 H   0  0  0  0  0  0  0  0  0  0  0  0
   -2.9920   25.2950  -30.3780 H   0  0  0  0  0  0  0  0  0  0  0  0
   -4.3580   20.1695  -32.2598 H   0  0  0  0  0  0  0  0  0  0  0  0
   -8.1726   17.5427  -32.6221 H   0  0  0  0  0  0  0  0  0  0  0  0
  1  2  1  0
  2  3  2  0
  3  4  1  0
  4  5  2  0
  5  6  1  0
  6  7  2  0
  7  8  1  0
  8  9  2  0
  9 10  1  0
 10 11  2  0
 11 12  1  0
 12 13  1  0
 12 14  2  0
 11 15  1  0
 15 16  1  0
 16 17  2  0
 16 18  1  0
 15 19  1  0
 19 20  2  0
  5 21  1  0
 21 22  2  0
 22  2  1  0
 20  6  1  0
 19  9  1  0
  1 23  1  0
  1 24  1  0
  1 25  1  0
  4 26  1  0
  7 27  1  0
  8 28  1  0
 10 29  1  0
 13 30  1  0
 20 31  1  0
 21 32  1  0
M  CHG  2  13  -1  18  -1
M  END
>  <UniqueID>  (22) 
22

>  <SMILES>  (22) 
Cc1ncc(-c2ccc3cc(C([NH-])=O)n(C(=O)[O-])c3c2)cn1

>  <Energy>  (22) 
79.51672135996228

>  <Genealogy>  (22) 
Cc1ncc(-c2ccc3cc(C([NH-])=O)n(C(=O)[O-])c3c2)cn1 (protonated)
Cc1ncc(-c2ccc3cc(C([NH-])=O)n(C(=O)[O-])c3c2)cn1 (3D coordinates assigned)
Cc1ncc(-c2ccc3cc(C([NH-])=O)n(C(=O)[O-])c3c2)cn1 (optimized conformer: 79.51672135996228 kcal/mol)

>  <smiles>  (22) 
Cc1ncc(-c2ccc3cc(C(N)=O)n(C(=O)O)c3c2)cn1

>  <score_type>  (22) 
oracle

>  <origin>  (22) 
adg

>  <m_score__min__energy>  (22) 
-10.800000000000001

>  <m_primary>  (22) 
energy

$$$$
22:0
     RDKit          3D

 55 58  0  0  0  0  0  0  0  0999 V2000
   -1.4120   25.9070  -28.9640 N   0  0  0  0  0  0  0  0  0  0  0  0
   -1.8530   24.6300  -28.5070 C   0  0  0  0  0  0  0  0  0  0  0  0
   -2.3360   24.5210  -27.3510 O   0  0  0  0  0  0  0  0  0  0  0  0
   -1.7780   23.4610  -29.4090 C   0  0  0  0  0  0  0  0  0  0  0  0
   -0.7740   22.4970  -29.3340 C   0  0  0  0  0  0  0  0  0  0  0  0
   -1.0040   21.6490  -30.3920 C   0  0  0  0  0  0  0  0  0  0  0  0
   -0.3150   20.5070  -30.7910 C   0  0  0  0  0  0  0  0  0  0  0  0
   -0.7910   19.8100  -31.9140 C   0  0  0  0  0  0  0  0  0  0  0  0
   -1.9400   20.2550  -32.6130 C   0  0  0  0  0  0  0  0  0  0  0  0
   -2.3990   19.5060  -33.7530 N   0  0  0  0  0  0  0  0  0  0  0  0
   -3.6600   18.8260  -33.8010 C   0  0  0  0  0  0  0  0  0  0  0  0
   -4.7950   19.5500  -33.6430 N   0  0  0  0  0  0  0  0  0  0  0  0
   -6.0190   18.9730  -33.7160 C   0  0  0  0  0  0  0  0  0  0  0  0
   -7.2190   19.7480  -33.5710 N   0  0  0  0  0  0  0  0  0  0  0  0
   -7.8910   20.0750  -32.3000 C   0  0  2  0  0  0  0  0  0  0  0  0
   -9.3840   20.4330  -32.5140 C   0  0  0  0  0  0  0  0  0  0  0  0
   -9.8560   21.5420  -31.5740 C   0  0  0  0  0  0  0  0  0  0  0  0
   -9.0230   22.8100  -31.7820 C   0  0  0  0  0  0  0  0  0  0  0  0
   -7.5000   22.5750  -31.6730 C   0  0  0  0  0  0  0  0  0  0  0  0
   -7.0920   21.1030  -31.4400 C   0  0  2  0  0  0  0  0  0  0  0  0
   -5.6490   20.9420  -31.6350 N   0  0  0  0  0  0  0  0  0  0  0  0
   -6.1060   17.6410  -33.9640 N   0  0  0  0  0  0  0  0  0  0  0  0
   -5.0100   16.8970  -34.1080 N   0  0  0  0  0  0  0  0  0  0  0  0
   -3.7640   17.4360  -34.0230 C   0  0  0  0  0  0  0  0  0  0  0  0
   -2.5890   16.5390  -34.1240 C   0  0  0  0  0  0  0  0  0  0  0  0
   -2.7500   15.1240  -34.0150 N   0  0  0  0  0  0  0  0  0  0  0  0
   -1.4320   17.0140  -34.2750 O   0  0  0  0  0  0  0  0  0  0  0  0
   -2.6200   21.4150  -32.1680 C   0  0  0  0  0  0  0  0  0  0  0  0
   -2.1110   22.1010  -31.0590 C   0  0  0  0  0  0  0  0  0  0  0  0
   -2.6020   23.2120  -30.4660 N   0  0  0  0  0  0  0  0  0  0  0  0
   -3.7870   23.9280  -30.8490 C   0  0  0  0  0  0  0  0  0  0  0  0
   -3.9570   25.2920  -30.4710 N   0  0  0  0  0  0  0  0  0  0  0  0
   -4.6980   23.3440  -31.4950 O   0  0  0  0  0  0  0  0  0  0  0  0
   -1.2450   26.0850  -29.9790 H   0  0  0  0  0  0  0  0  0  0  0  0
    0.0310   22.4290  -28.5874 H   0  0  0  0  0  0  0  0  0  0  0  0
    0.5745   20.1612  -30.2440 H   0  0  0  0  0  0  0  0  0  0  0  0
   -0.2644   18.9065  -32.2552 H   0  0  0  0  0  0  0  0  0  0  0  0
   -1.7150   19.2920  -34.5140 H   0  0  0  0  0  0  0  0  0  0  0  0
   -7.6650   20.1010  -34.4480 H   0  0  0  0  0  0  0  0  0  0  0  0
   -7.8974   19.1620  -31.6864 H   0  0  0  0  0  0  0  0  0  0  0  0
   -9.5220   20.7674  -33.5528 H   0  0  0  0  0  0  0  0  0  0  0  0
   -9.9796   19.5336  -32.2985 H   0  0  0  0  0  0  0  0  0  0  0  0
  -10.9133   21.7654  -31.7794 H   0  0  0  0  0  0  0  0  0  0  0  0
   -9.7358   21.2032  -30.5344 H   0  0  0  0  0  0  0  0  0  0  0  0
   -9.2423   23.2097  -32.7831 H   0  0  0  0  0  0  0  0  0  0  0  0
   -9.2989   23.5119  -30.9812 H   0  0  0  0  0  0  0  0  0  0  0  0
   -7.0322   22.9170  -32.6080 H   0  0  0  0  0  0  0  0  0  0  0  0
   -7.1600   23.1365  -30.7903 H   0  0  0  0  0  0  0  0  0  0  0  0
   -7.3530   20.8731  -30.3964 H   0  0  0  0  0  0  0  0  0  0  0  0
   -5.3790   21.4170  -32.5270 H   0  0  0  0  0  0  0  0  0  0  0  0
   -5.1550   21.4600  -30.8720 H   0  0  0  0  0  0  0  0  0  0  0  0
   -3.6940   14.6920  -33.9100 H   0  0  0  0  0  0  0  0  0  0  0  0
   -1.9170   14.4970  -34.0630 H   0  0  0  0  0  0  0  0  0  0  0  0
   -3.5263   21.7684  -32.6815 H   0  0  0  0  0  0  0  0  0  0  0  0
   -3.4710   25.6810  -29.6330 H   0  0  0  0  0  0  0  0  0  0  0  0
  1  2  1  0
  2  3  2  0
  2  4  1  0
  4  5  2  0
  5  6  1  0
  6  7  2  0
  7  8  1  0
  8  9  2  0
  9 10  1  0
 10 11  1  0
 11 12  2  0
 12 13  1  0
 13 14  1  0
 14 15  1  0
 15 16  1  0
 16 17  1  0
 17 18  1  0
 18 19  1  0
 19 20  1  0
 20 21  1  0
 13 22  2  0
 22 23  1  0
 23 24  2  0
 24 25  1  0
 25 26  1  0
 25 27  2  0
  9 28  1  0
 28 29  2  0
 29 30  1  0
 30 31  1  0
 31 32  1  0
 31 33  2  0
 30  4  1  0
 29  6  1  0
 24 11  1  0
 20 15  1  0
  1 34  1  0
  5 35  1  0
  7 36  1  0
  8 37  1  0
 10 38  1  0
 14 39  1  0
 15 40  1  1
 16 41  1  0
 16 42  1  0
 17 43  1  0
 17 44  1  0
 18 45  1  0
 18 46  1  0
 19 47  1  0
 19 48  1  0
 20 49  1  1
 21 50  1  0
 21 51  1  0
 26 52  1  0
 26 53  1  0
 28 54  1  0
 32 55  1  0
M  CHG  2   1  -1  32  -1
M  END
>  <UniqueID>  (23) 
23

>  <SMILES>  (23) 
[NH-]C(=O)c1cc2ccc(Nc3nc(N[C@@H]4CCCC[C@@H]4N)nnc3C(N)=O)cc2n1C([NH-])=O

>  <Energy>  (23) 
111.04113918892563

>  <Genealogy>  (23) 
[NH-]C(=O)c1cc2ccc(Nc3nc(N[C@@H]4CCCC[C@@H]4N)nnc3C(N)=O)cc2n1C([NH-])=O (protonated)
[NH-]C(=O)c1cc2ccc(Nc3nc(N[C@@H]4CCCC[C@@H]4N)nnc3C(N)=O)cc2n1C([NH-])=O (3D coordinates assigned)
[NH-]C(=O)c1cc2ccc(Nc3nc(N[C@@H]4CCCC[C@@H]4N)nnc3C(N)=O)cc2n1C([NH-])=O (nonaromatic ring conformer: 111.04113918892563 kcal/mol)

>  <smiles>  (23) 
NC(=O)c1nnc(N[C@@H]2CCCC[C@@H]2N)nc1Nc1ccc2cc(C(N)=O)n(C(N)=O)c2c1

>  <score_type>  (23) 
oracle

>  <origin>  (23) 
adg

>  <m_score__min__energy>  (23) 
-13.24

>  <m_primary>  (23) 
energy

$$$$
23:0
     RDKit          3D

 55 57  0  0  0  0  0  0  0  0999 V2000
   -6.5620   23.8440  -31.9160 C   0  0  0  0  0  0  0  0  0  0  0  0
   -6.4320   23.8610  -30.3800 C   0  0  0  0  0  0  0  0  0  0  0  0
   -6.7030   25.2840  -29.8690 C   0  0  0  0  0  0  0  0  0  0  0  0
   -7.4500   22.9000  -29.7360 C   0  0  0  0  0  0  0  0  0  0  0  0
   -5.0980   23.5190  -29.9800 O   0  0  0  0  0  0  0  0  0  0  0  0
   -3.9080   24.0730  -30.4790 C   0  0  0  0  0  0  0  0  0  0  0  0
   -3.8600   25.2760  -30.8520 O   0  0  0  0  0  0  0  0  0  0  0  0
   -2.7470   23.2360  -30.6010 N   0  0  0  0  0  0  0  0  0  0  0  0
   -1.5160   23.4120  -30.0410 C   0  0  0  0  0  0  0  0  0  0  0  0
   -1.1460   24.4610  -29.0680 C   0  0  0  0  0  0  0  0  0  0  0  0
   -1.9390   25.6420  -28.9620 N   0  0  0  0  0  0  0  0  0  0  0  0
   -0.1190   24.3410  -28.3490 O   0  0  0  0  0  0  0  0  0  0  0  0
   -0.6450   22.4060  -30.4550 C   0  0  0  0  0  0  0  0  0  0  0  0
   -1.3870   21.5990  -31.2890 C   0  0  0  0  0  0  0  0  0  0  0  0
   -1.0200   20.4550  -31.9900 C   0  0  0  0  0  0  0  0  0  0  0  0
   -1.9870   19.8420  -32.8050 C   0  0  0  0  0  0  0  0  0  0  0  0
   -3.2930   20.3820  -32.9150 C   0  0  0  0  0  0  0  0  0  0  0  0
   -4.2470   19.7360  -33.7810 N   0  0  0  0  0  0  0  0  0  0  0  0
   -5.6970   19.9450  -33.7240 C   0  0  0  0  0  0  0  0  0  0  0  0
   -6.4280   18.7110  -33.1750 C   0  0  0  0  0  0  0  0  0  0  0  0
   -7.0170   18.9940  -31.8420 N   0  0  0  0  0  0  0  0  0  0  0  0
   -7.1740   20.4430  -31.5750 C   0  0  0  0  0  0  0  0  0  0  0  0
   -8.5110   21.0030  -32.1030 C   0  0  0  0  0  0  0  0  0  0  0  0
   -9.0840   20.1370  -33.0570 O   0  0  0  0  0  0  0  0  0  0  0  0
   -9.4550   18.9190  -32.4350 C   0  0  0  0  0  0  0  0  0  0  0  0
   -8.2980   18.2910  -31.6240 C   0  0  0  0  0  0  0  0  0  0  0  0
   -3.6290   21.5420  -32.1740 C   0  0  0  0  0  0  0  0  0  0  0  0
   -2.6510   22.1210  -31.3590 C   0  0  0  0  0  0  0  0  0  0  0  0
   -7.6175   23.7060  -32.1931 H   0  0  0  0  0  0  0  0  0  0  0  0
   -6.1971   24.7975  -32.3254 H   0  0  0  0  0  0  0  0  0  0  0  0
   -5.9642   23.0164  -32.3254 H   0  0  0  0  0  0  0  0  0  0  0  0
   -6.7031   25.2848  -28.7690 H   0  0  0  0  0  0  0  0  0  0  0  0
   -5.9177   25.9612  -30.2360 H   0  0  0  0  0  0  0  0  0  0  0  0
   -7.6822   25.6251  -30.2360 H   0  0  0  0  0  0  0  0  0  0  0  0
   -7.3771   22.9689  -28.6406 H   0  0  0  0  0  0  0  0  0  0  0  0
   -8.4664   23.1757  -30.0539 H   0  0  0  0  0  0  0  0  0  0  0  0
   -7.2333   21.8695  -30.0539 H   0  0  0  0  0  0  0  0  0  0  0  0
   -2.9120   25.6720  -29.3410 H   0  0  0  0  0  0  0  0  0  0  0  0
    0.4116   22.2825  -30.1750 H   0  0  0  0  0  0  0  0  0  0  0  0
   -0.0035   20.0425  -31.9089 H   0  0  0  0  0  0  0  0  0  0  0  0
   -1.7271   18.9314  -33.3647 H   0  0  0  0  0  0  0  0  0  0  0  0
   -3.8940   19.0540  -34.4910 H   0  0  0  0  0  0  0  0  0  0  0  0
   -5.9078   20.8042  -33.0704 H   0  0  0  0  0  0  0  0  0  0  0  0
   -6.0571   20.1298  -34.7468 H   0  0  0  0  0  0  0  0  0  0  0  0
   -7.2315   18.4289  -33.8713 H   0  0  0  0  0  0  0  0  0  0  0  0
   -5.7032   17.8900  -33.0720 H   0  0  0  0  0  0  0  0  0  0  0  0
   -7.1277   20.6079  -30.4884 H   0  0  0  0  0  0  0  0  0  0  0  0
   -6.3626   20.9680  -32.1004 H   0  0  0  0  0  0  0  0  0  0  0  0
   -9.2085   21.1211  -31.2606 H   0  0  0  0  0  0  0  0  0  0  0  0
   -8.3172   21.9730  -32.5842 H   0  0  0  0  0  0  0  0  0  0  0  0
  -10.2977   19.1127  -31.7551 H   0  0  0  0  0  0  0  0  0  0  0  0
   -9.7302   18.2090  -33.2288 H   0  0  0  0  0  0  0  0  0  0  0  0
   -8.5496   18.3371  -30.5542 H   0  0  0  0  0  0  0  0  0  0  0  0
   -8.1743   17.2516  -31.9621 H   0  0  0  0  0  0  0  0  0  0  0  0
   -4.6370   21.9776  -32.2383 H   0  0  0  0  0  0  0  0  0  0  0  0
  1  2  1  0
  2  3  1  0
  2  4  1  0
  2  5  1  0
  5  6  1  0
  6  7  2  0
  6  8  1  0
  8  9  1  0
  9 10  1  0
 10 11  1  0
 10 12  2  0
  9 13  2  0
 13 14  1  0
 14 15  2  0
 15 16  1  0
 16 17  2  0
 17 18  1  0
 18 19  1  0
 19 20  1  0
 20 21  1  0
 21 22  1  0
 22 23  1  0
 23 24  1  0
 24 25  1  0
 25 26  1  0
 17 27  1  0
 27 28  2  0
 28  8  1  0
 28 14  1  0
 26 21  1  0
  1 29  1  0
  1 30  1  0
  1 31  1  0
  3 32  1  0
  3 33  1  0
  3 34  1  0
  4 35  1  0
  4 36  1  0
  4 37  1  0
 11 38  1  0
 13 39  1  0
 15 40  1  0
 16 41  1  0
 18 42  1  0
 19 43  1  0
 19 44  1  0
 20 45  1  0
 20 46  1  0
 22 47  1  0
 22 48  1  0
 23 49  1  0
 23 50  1  0
 25 51  1  0
 25 52  1  0
 26 53  1  0
 26 54  1  0
 27 55  1  0
M  CHG  1  11  -1
M  END
>  <UniqueID>  (24) 
24

>  <SMILES>  (24) 
CC(C)(C)OC(=O)n1c(C([NH-])=O)cc2ccc(NCCN3CCOCC3)cc21

>  <Energy>  (24) 
100.24678674783037

>  <Genealogy>  (24) 
CC(C)(C)OC(=O)n1c(C([NH-])=O)cc2ccc(NCCN3CCOCC3)cc21 (protonated)
CC(C)(C)OC(=O)n1c(C([NH-])=O)cc2ccc(NCCN3CCOCC3)cc21 (3D coordinates assigned)
CC(C)(C)OC(=O)n1c(C([NH-])=O)cc2ccc(NCCN3CCOCC3)cc21 (nonaromatic ring conformer: 100.24678674783037 kcal/mol)

>  <smiles>  (24) 
CC(C)(C)OC(=O)n1c(C(N)=O)cc2ccc(NCCN3CCOCC3)cc21

>  <score_type>  (24) 
oracle

>  <origin>  (24) 
adg

>  <m_score__min__energy>  (24) 
-11.24

>  <m_primary>  (24) 
energy

$$$$
24:0
     RDKit          3D

 35 37  0  0  0  0  0  0  0  0999 V2000
   -1.6410   25.6730  -28.9610 N   0  0  0  0  0  0  0  0  0  0  0  0
   -1.1110   24.3840  -29.2590 C   0  0  0  0  0  0  0  0  0  0  0  0
    0.0830   24.1230  -28.9580 O   0  0  0  0  0  0  0  0  0  0  0  0
   -1.9500   23.3860  -29.9550 C   0  0  0  0  0  0  0  0  0  0  0  0
   -1.4560   22.1830  -30.4550 C   0  0  0  0  0  0  0  0  0  0  0  0
   -2.5570   21.5080  -30.9330 C   0  0  0  0  0  0  0  0  0  0  0  0
   -2.6450   20.2620  -31.5440 C   0  0  0  0  0  0  0  0  0  0  0  0
   -3.9120   19.8210  -31.9620 C   0  0  0  0  0  0  0  0  0  0  0  0
   -5.0600   20.6310  -31.7720 C   0  0  0  0  0  0  0  0  0  0  0  0
   -6.3510   20.1650  -32.2100 N   0  0  0  0  0  0  0  0  0  0  0  0
   -6.4710   18.8650  -32.8790 C   0  0  0  0  0  0  0  0  0  0  0  0
   -7.8700   18.2900  -32.6380 C   0  0  0  0  0  0  0  0  0  0  0  0
   -8.8680   19.2290  -32.9950 O   0  0  0  0  0  0  0  0  0  0  0  0
   -8.7930   20.3550  -32.1430 C   0  0  0  0  0  0  0  0  0  0  0  0
   -7.4710   21.1020  -32.3420 C   0  0  0  0  0  0  0  0  0  0  0  0
   -4.9290   21.8900  -31.1420 C   0  0  0  0  0  0  0  0  0  0  0  0
   -3.6570   22.2970  -30.7220 C   0  0  0  0  0  0  0  0  0  0  0  0
   -3.3020   23.4560  -30.1260 N   0  0  0  0  0  0  0  0  0  0  0  0
   -4.1750   24.5540  -29.8120 C   0  0  0  0  0  0  0  0  0  0  0  0
   -4.2460   25.6860  -30.6750 N   0  0  0  0  0  0  0  0  0  0  0  0
   -4.9070   24.5060  -28.7870 O   0  0  0  0  0  0  0  0  0  0  0  0
   -2.6680   25.8530  -29.0020 H   0  0  0  0  0  0  0  0  0  0  0  0
   -0.4094   21.8445  -30.4657 H   0  0  0  0  0  0  0  0  0  0  0  0
   -1.7501   19.6405  -31.6955 H   0  0  0  0  0  0  0  0  0  0  0  0
   -4.0143   18.8365  -32.4419 H   0  0  0  0  0  0  0  0  0  0  0  0
   -6.3090   18.9930  -33.9595 H   0  0  0  0  0  0  0  0  0  0  0  0
   -5.7174   18.1743  -32.4728 H   0  0  0  0  0  0  0  0  0  0  0  0
   -7.9960   17.3814  -33.2452 H   0  0  0  0  0  0  0  0  0  0  0  0
   -7.9746   18.0536  -31.5688 H   0  0  0  0  0  0  0  0  0  0  0  0
   -9.6283   21.0342  -32.3689 H   0  0  0  0  0  0  0  0  0  0  0  0
   -8.8496   20.0114  -31.0996 H   0  0  0  0  0  0  0  0  0  0  0  0
   -7.4535   21.5542  -33.3446 H   0  0  0  0  0  0  0  0  0  0  0  0
   -7.3790   21.8903  -31.5804 H   0  0  0  0  0  0  0  0  0  0  0  0
   -5.8063   22.5349  -30.9855 H   0  0  0  0  0  0  0  0  0  0  0  0
   -3.6670   25.7360  -31.5420 H   0  0  0  0  0  0  0  0  0  0  0  0
  1  2  1  0
  2  3  2  0
  2  4  1  0
  4  5  2  0
  5  6  1  0
  6  7  2  0
  7  8  1  0
  8  9  2  0
  9 10  1  0
 10 11  1  0
 11 12  1  0
 12 13  1  0
 13 14  1  0
 14 15  1  0
  9 16  1  0
 16 17  2  0
 17 18  1  0
 18 19  1  0
 19 20  1  0
 19 21  2  0
 18  4  1  0
 17  6  1  0
 15 10  1  0
  1 22  1  0
  5 23  1  0
  7 24  1  0
  8 25  1  0
 11 26  1  0
 11 27  1  0
 12 28  1  0
 12 29  1  0
 14 30  1  0
 14 31  1  0
 15 32  1  0
 15 33  1  0
 16 34  1  0
 20 35  1  0
M  CHG  2   1  -1  20  -1
M  END
>  <UniqueID>  (25) 
25

>  <SMILES>  (25) 
[NH-]C(=O)c1cc2ccc(N3CCOCC3)cc2n1C([NH-])=O

>  <Energy>  (25) 
80.71711312959992

>  <Genealogy>  (25) 
[NH-]C(=O)c1cc2ccc(N3CCOCC3)cc2n1C([NH-])=O (protonated)
[NH-]C(=O)c1cc2ccc(N3CCOCC3)cc2n1C([NH-])=O (3D coordinates assigned)
[NH-]C(=O)c1cc2ccc(N3CCOCC3)cc2n1C([NH-])=O (nonaromatic ring conformer: 80.71711312959992 kcal/mol)

>  <smiles>  (25) 
NC(=O)c1cc2ccc(N3CCOCC3)cc2n1C(N)=O

>  <score_type>  (25) 
oracle

>  <origin>  (25) 
adg

>  <m_score__min__energy>  (25) 
-10.83

>  <m_primary>  (25) 
energy

$$$$
25:0
     RDKit          3D

 53 57  0  0  0  0  0  0  0  0999 V2000
   -2.9760   21.1280  -28.8710 C   0  0  0  0  0  0  0  0  0  0  0  0
   -2.1600   21.4900  -30.1250 C   0  0  0  0  0  0  0  0  0  0  0  0
   -1.1260   22.5730  -29.7470 C   0  0  0  0  0  0  0  0  0  0  0  0
   -1.4560   20.2230  -30.6530 C   0  0  0  0  0  0  0  0  0  0  0  0
   -3.0880   21.9820  -31.1030 O   0  0  0  0  0  0  0  0  0  0  0  0
   -3.9080   23.1170  -30.9890 C   0  0  0  0  0  0  0  0  0  0  0  0
   -3.4030   24.2350  -30.7140 O   0  0  0  0  0  0  0  0  0  0  0  0
   -5.3390   22.9910  -31.1440 N   0  0  0  0  0  0  0  0  0  0  0  0
   -6.2900   23.8910  -30.7520 C   0  0  0  0  0  0  0  0  0  0  0  0
   -6.0440   25.2580  -30.2580 C   0  0  0  0  0  0  0  0  0  0  0  0
   -6.4810   25.6630  -28.9620 N   0  0  0  0  0  0  0  0  0  0  0  0
   -5.3630   26.0570  -30.9590 O   0  0  0  0  0  0  0  0  0  0  0  0
   -7.5690   23.3740  -30.9280 C   0  0  0  0  0  0  0  0  0  0  0  0
   -7.3830   22.1270  -31.4700 C   0  0  0  0  0  0  0  0  0  0  0  0
   -8.3240   21.1770  -31.8500 C   0  0  0  0  0  0  0  0  0  0  0  0
   -7.8610   19.9660  -32.3860 C   0  0  0  0  0  0  0  0  0  0  0  0
   -6.4720   19.7220  -32.5320 C   0  0  0  0  0  0  0  0  0  0  0  0
   -5.9870   18.4530  -33.1300 C   0  0  0  0  0  0  0  0  0  0  0  0
   -6.8800   17.3460  -33.3020 C   0  0  0  0  0  0  0  0  0  0  0  0
   -6.4330   16.1250  -33.8640 C   0  0  0  0  0  0  0  0  0  0  0  0
   -5.0920   16.0430  -34.2330 C   0  0  0  0  0  0  0  0  0  0  0  0
   -4.4200   15.0790  -34.8260 O   0  0  0  0  0  0  0  0  0  0  0  0
   -3.1880   15.5570  -34.9900 C   0  0  0  0  0  0  0  0  0  0  0  0
   -2.2650   14.9260  -35.5660 O   0  0  0  0  0  0  0  0  0  0  0  0
   -3.0440   16.8080  -34.4880 N   0  0  0  0  0  0  0  0  0  0  0  0
   -4.2560   17.0860  -34.0350 C   0  0  0  0  0  0  0  0  0  0  0  0
   -4.6300   18.2930  -33.5110 C   0  0  0  0  0  0  0  0  0  0  0  0
   -3.6330   19.2770  -33.3990 O   0  0  0  0  0  0  0  0  0  0  0  0
   -2.2320   18.9570  -33.5690 C   0  0  0  0  0  0  0  0  0  0  0  0
   -1.9870   17.8140  -34.6010 C   0  0  0  0  0  0  0  0  0  0  0  0
   -5.5440   20.7040  -32.1110 C   0  0  0  0  0  0  0  0  0  0  0  0
   -6.0310   21.9130  -31.5930 C   0  0  0  0  0  0  0  0  0  0  0  0
   -2.3981   21.3844  -27.9708 H   0  0  0  0  0  0  0  0  0  0  0  0
   -3.9207   21.6914  -28.8730 H   0  0  0  0  0  0  0  0  0  0  0  0
   -3.1923   20.0495  -28.8730 H   0  0  0  0  0  0  0  0  0  0  0  0
   -1.0558   22.6465  -28.6517 H   0  0  0  0  0  0  0  0  0  0  0  0
   -0.1432   22.3017  -30.1600 H   0  0  0  0  0  0  0  0  0  0  0  0
   -1.4425   23.5422  -30.1600 H   0  0  0  0  0  0  0  0  0  0  0  0
   -1.1163   19.6116  -29.8040 H   0  0  0  0  0  0  0  0  0  0  0  0
   -2.1600   19.6408  -31.2657 H   0  0  0  0  0  0  0  0  0  0  0  0
   -0.5898   20.5132  -31.2657 H   0  0  0  0  0  0  0  0  0  0  0  0
   -6.4040   26.6650  -28.6780 H   0  0  0  0  0  0  0  0  0  0  0  0
   -6.8660   24.9720  -28.2780 H   0  0  0  0  0  0  0  0  0  0  0  0
   -8.5251   23.8605  -30.6848 H   0  0  0  0  0  0  0  0  0  0  0  0
   -9.4008   21.3693  -31.7338 H   0  0  0  0  0  0  0  0  0  0  0  0
   -8.5838   19.1971  -32.6965 H   0  0  0  0  0  0  0  0  0  0  0  0
   -7.9308   17.4459  -32.9923 H   0  0  0  0  0  0  0  0  0  0  0  0
   -7.1175   15.2753  -34.0036 H   0  0  0  0  0  0  0  0  0  0  0  0
   -1.7061   19.8593  -33.9144 H   0  0  0  0  0  0  0  0  0  0  0  0
   -1.8548   18.6076  -32.5966 H   0  0  0  0  0  0  0  0  0  0  0  0
   -1.9896   18.2336  -35.6178 H   0  0  0  0  0  0  0  0  0  0  0  0
   -1.0143   17.3428  -34.3965 H   0  0  0  0  0  0  0  0  0  0  0  0
   -4.4618   20.5226  -32.1885 H   0  0  0  0  0  0  0  0  0  0  0  0
  1  2  1  0
  2  3  1  0
  2  4  1  0
  2  5  1  0
  5  6  1  0
  6  7  2  0
  6  8  1  0
  8  9  1  0
  9 10  1  0
 10 11  1  0
 10 12  2  0
  9 13  2  0
 13 14  1  0
 14 15  2  0
 15 16  1  0
 16 17  2  0
 17 18  1  0
 18 19  2  0
 19 20  1  0
 20 21  2  0
 21 22  1  0
 22 23  1  0
 23 24  2  0
 23 25  1  0
 25 26  1  0
 26 27  2  0
 27 28  1  0
 28 29  1  0
 29 30  1  0
 17 31  1  0
 31 32  2  0
 32  8  1  0
 32 14  1  0
 27 18  1  0
 26 21  1  0
 30 25  1  0
  1 33  1  0
  1 34  1  0
  1 35  1  0
  3 36  1  0
  3 37  1  0
  3 38  1  0
  4 39  1  0
  4 40  1  0
  4 41  1  0
 11 42  1  0
 11 43  1  0
 13 44  1  0
 15 45  1  0
 16 46  1  0
 19 47  1  0
 20 48  1  0
 29 49  1  0
 29 50  1  0
 30 51  1  0
 30 52  1  0
 31 53  1  0
M  END
>  <UniqueID>  (26) 
26

>  <SMILES>  (26) 
CC(C)(C)OC(=O)n1c(C(N)=O)cc2ccc(-c3ccc4oc(=O)n5c4c3OCC5)cc21

>  <Energy>  (26) 
150.2963927036789

>  <Genealogy>  (26) 
CC(C)(C)OC(=O)n1c(C(N)=O)cc2ccc(-c3ccc4oc(=O)n5c4c3OCC5)cc21 (3D coordinates assigned)
CC(C)(C)OC(=O)n1c(C(N)=O)cc2ccc(-c3ccc4oc(=O)n5c4c3OCC5)cc21 (nonaromatic ring conformer: 150.2963927036789 kcal/mol)

>  <smiles>  (26) 
CC(C)(C)OC(=O)n1c(C(N)=O)cc2ccc(-c3ccc4oc(=O)n5c4c3OCC5)cc21

>  <score_type>  (26) 
oracle

>  <origin>  (26) 
adg

>  <m_score__min__energy>  (26) 
-10.4

>  <m_primary>  (26) 
energy

$$$$
26:0
     RDKit          3D

 47 49  0  0  0  0  0  0  0  0999 V2000
   -3.0560   19.5000  -32.7190 C   0  0  0  0  0  0  0  0  0  0  0  0
   -3.0390   20.9930  -32.3400 C   0  0  0  0  0  0  0  0  0  0  0  0
   -3.8240   21.8270  -33.3700 C   0  0  0  0  0  0  0  0  0  0  0  0
   -1.5830   21.4800  -32.3120 C   0  0  0  0  0  0  0  0  0  0  0  0
   -3.5720   21.1820  -31.0220 O   0  0  0  0  0  0  0  0  0  0  0  0
   -4.0610   22.3820  -30.4860 C   0  0  0  0  0  0  0  0  0  0  0  0
   -3.3210   23.1330  -29.7950 O   0  0  0  0  0  0  0  0  0  0  0  0
   -5.4130   22.7770  -30.7640 N   0  0  0  0  0  0  0  0  0  0  0  0
   -5.9230   24.0390  -30.8370 C   0  0  0  0  0  0  0  0  0  0  0  0
   -5.2190   25.2830  -30.4610 C   0  0  0  0  0  0  0  0  0  0  0  0
   -3.8660   25.5050  -30.8450 N   0  0  0  0  0  0  0  0  0  0  0  0
   -5.8070   26.1410  -29.7490 O   0  0  0  0  0  0  0  0  0  0  0  0
   -7.2530   24.0050  -31.2500 C   0  0  0  0  0  0  0  0  0  0  0  0
   -7.5490   22.6720  -31.4210 C   0  0  0  0  0  0  0  0  0  0  0  0
   -8.7260   22.0610  -31.8470 C   0  0  0  0  0  0  0  0  0  0  0  0
   -8.7330   20.6620  -31.9740 C   0  0  0  0  0  0  0  0  0  0  0  0
   -7.5740   19.9030  -31.6730 C   0  0  0  0  0  0  0  0  0  0  0  0
   -7.5750   18.4090  -31.8500 C   0  0  0  0  0  0  0  0  0  0  0  0
   -6.4710   17.9930  -32.7870 C   0  0  0  0  0  0  0  0  0  0  0  0
   -6.3410   18.6150  -34.0410 C   0  0  0  0  0  0  0  0  0  0  0  0
   -5.3440   18.2080  -34.9310 C   0  0  0  0  0  0  0  0  0  0  0  0
   -4.4740   17.1730  -34.5820 C   0  0  0  0  0  0  0  0  0  0  0  0
   -4.6000   16.5410  -33.3420 C   0  0  0  0  0  0  0  0  0  0  0  0
   -3.7570   15.5320  -33.0110 F   0  0  0  0  0  0  0  0  0  0  0  0
   -5.5970   16.9430  -32.4460 C   0  0  0  0  0  0  0  0  0  0  0  0
   -5.7130   16.3100  -31.2510 F   0  0  0  0  0  0  0  0  0  0  0  0
   -6.3990   20.5590  -31.2480 C   0  0  0  0  0  0  0  0  0  0  0  0
   -6.4230   21.9510  -31.1190 C   0  0  0  0  0  0  0  0  0  0  0  0
   -3.0630   18.8895  -31.8040 H   0  0  0  0  0  0  0  0  0  0  0  0
   -3.9567   19.2824  -33.3118 H   0  0  0  0  0  0  0  0  0  0  0  0
   -2.1605   19.2620  -33.3118 H   0  0  0  0  0  0  0  0  0  0  0  0
   -4.4862   22.5305  -32.8440 H   0  0  0  0  0  0  0  0  0  0  0  0
   -3.1192   22.3886  -34.0007 H   0  0  0  0  0  0  0  0  0  0  0  0
   -4.4272   21.1575  -34.0007 H   0  0  0  0  0  0  0  0  0  0  0  0
   -1.2533   21.5903  -31.2684 H   0  0  0  0  0  0  0  0  0  0  0  0
   -0.9415   20.7475  -32.8238 H   0  0  0  0  0  0  0  0  0  0  0  0
   -1.5113   22.4511  -32.8238 H   0  0  0  0  0  0  0  0  0  0  0  0
   -3.0780   25.2730  -30.2000 H   0  0  0  0  0  0  0  0  0  0  0  0
   -7.9244   24.8622  -31.4063 H   0  0  0  0  0  0  0  0  0  0  0  0
   -9.6224   22.6556  -32.0769 H   0  0  0  0  0  0  0  0  0  0  0  0
   -9.6468   20.1503  -32.3103 H   0  0  0  0  0  0  0  0  0  0  0  0
   -7.4222   17.9277  -30.8728 H   0  0  0  0  0  0  0  0  0  0  0  0
   -8.5411   18.0996  -32.2754 H   0  0  0  0  0  0  0  0  0  0  0  0
   -7.0280   19.4265  -34.3230 H   0  0  0  0  0  0  0  0  0  0  0  0
   -5.2442   18.7035  -35.9080 H   0  0  0  0  0  0  0  0  0  0  0  0
   -3.6889   16.8549  -35.2837 H   0  0  0  0  0  0  0  0  0  0  0  0
   -5.4857   19.9886  -31.0235 H   0  0  0  0  0  0  0  0  0  0  0  0
  1  2  1  0
  2  3  1  0
  2  4  1  0
  2  5  1  0
  5  6  1  0
  6  7  2  0
  6  8  1  0
  8  9  1  0
  9 10  1  0
 10 11  1  0
 10 12  2  0
  9 13  2  0
 13 14  1  0
 14 15  2  0
 15 16  1  0
 16 17  2  0
 17 18  1  0
 18 19  1  0
 19 20  2  0
 20 21  1  0
 21 22  2  0
 22 23  1  0
 23 24  1  0
 23 25  2  0
 25 26  1  0
 17 27  1  0
 27 28  2  0
 28  8  1  0
 28 14  1  0
 25 19  1  0
  1 29  1  0
  1 30  1  0
  1 31  1  0
  3 32  1  0
  3 33  1  0
  3 34  1  0
  4 35  1  0
  4 36  1  0
  4 37  1  0
 11 38  1  0
 13 39  1  0
 15 40  1  0
 16 41  1  0
 18 42  1  0
 18 43  1  0
 20 44  1  0
 21 45  1  0
 22 46  1  0
 27 47  1  0
M  CHG  1  11  -1
M  END
>  <UniqueID>  (27) 
27

>  <SMILES>  (27) 
CC(C)(C)OC(=O)n1c(C([NH-])=O)cc2ccc(Cc3cccc(F)c3F)cc21

>  <Energy>  (27) 
82.03903323547777

>  <Genealogy>  (27) 
CC(C)(C)OC(=O)n1c(C([NH-])=O)cc2ccc(Cc3cccc(F)c3F)cc21 (protonated)
CC(C)(C)OC(=O)n1c(C([NH-])=O)cc2ccc(Cc3cccc(F)c3F)cc21 (3D coordinates assigned)
CC(C)(C)OC(=O)n1c(C([NH-])=O)cc2ccc(Cc3cccc(F)c3F)cc21 (optimized conformer: 82.03903323547777 kcal/mol)

>  <smiles>  (27) 
CC(C)(C)OC(=O)n1c(C(N)=O)cc2ccc(Cc3cccc(F)c3F)cc21

>  <score_type>  (27) 
oracle

>  <origin>  (27) 
adg

>  <m_score__min__energy>  (27) 
-11.699999999999999

>  <m_primary>  (27) 
energy

$$$$
27:0
     RDKit          3D

 42 44  0  0  0  0  0  0  0  0999 V2000
   -9.8400   21.5800  -31.2970 C   0  0  0  0  0  0  0  0  0  0  0  0
   -9.4660   20.3630  -31.9340 O   0  0  0  0  0  0  0  0  0  0  0  0
   -8.1610   20.0530  -32.3440 C   0  0  0  0  0  0  0  0  0  0  0  0
   -7.2240   21.0900  -32.4210 C   0  0  0  0  0  0  0  0  0  0  0  0
   -5.9110   20.8330  -32.8220 C   0  0  0  0  0  0  0  0  0  0  0  0
   -5.5110   19.5270  -33.1470 C   0  0  0  0  0  0  0  0  0  0  0  0
   -4.0950   19.2560  -33.5820 C   0  0  0  0  0  0  0  0  0  0  0  0
   -3.3320   20.5020  -33.6690 N   0  0  0  0  0  0  0  0  0  0  0  0
   -2.5270   21.0420  -32.6030 C   0  0  0  0  0  0  0  0  0  0  0  0
   -1.2500   20.5050  -32.2870 C   0  0  0  0  0  0  0  0  0  0  0  0
   -0.4890   21.0350  -31.2310 C   0  0  0  0  0  0  0  0  0  0  0  0
   -1.0190   22.1050  -30.5180 C   0  0  0  0  0  0  0  0  0  0  0  0
   -0.5090   22.7830  -29.4340 C   0  0  0  0  0  0  0  0  0  0  0  0
   -1.4630   23.7470  -29.1240 C   0  0  0  0  0  0  0  0  0  0  0  0
   -1.2850   24.7490  -28.0550 C   0  0  0  0  0  0  0  0  0  0  0  0
   -2.4030   25.2790  -27.3430 N   0  0  0  0  0  0  0  0  0  0  0  0
   -0.1300   25.1880  -27.8030 O   0  0  0  0  0  0  0  0  0  0  0  0
   -2.5280   23.6640  -29.9700 N   0  0  0  0  0  0  0  0  0  0  0  0
   -3.7610   24.3990  -29.9010 C   0  0  0  0  0  0  0  0  0  0  0  0
   -4.0380   25.4280  -30.8490 N   0  0  0  0  0  0  0  0  0  0  0  0
   -4.6010   24.1490  -28.9960 O   0  0  0  0  0  0  0  0  0  0  0  0
   -2.2370   22.6540  -30.8230 C   0  0  0  0  0  0  0  0  0  0  0  0
   -3.0250   22.1320  -31.8560 C   0  0  0  0  0  0  0  0  0  0  0  0
   -6.4510   18.4870  -33.0830 C   0  0  0  0  0  0  0  0  0  0  0  0
   -7.7650   18.7450  -32.6810 C   0  0  0  0  0  0  0  0  0  0  0  0
   -9.8000   21.4499  -30.2055 H   0  0  0  0  0  0  0  0  0  0  0  0
   -9.1460   22.3791  -31.5967 H   0  0  0  0  0  0  0  0  0  0  0  0
  -10.8630   21.8514  -31.5967 H   0  0  0  0  0  0  0  0  0  0  0  0
   -7.5244   22.1164  -32.1634 H   0  0  0  0  0  0  0  0  0  0  0  0
   -5.1864   21.6583  -32.8835 H   0  0  0  0  0  0  0  0  0  0  0  0
   -3.6144   18.5888  -32.8513 H   0  0  0  0  0  0  0  0  0  0  0  0
   -4.1149   18.7839  -34.5754 H   0  0  0  0  0  0  0  0  0  0  0  0
   -3.4240   21.0550  -34.5520 H   0  0  0  0  0  0  0  0  0  0  0  0
   -0.8525   19.6650  -32.8755 H   0  0  0  0  0  0  0  0  0  0  0  0
    0.4958   20.6163  -30.9762 H   0  0  0  0  0  0  0  0  0  0  0  0
    0.4478   22.6015  -28.9225 H   0  0  0  0  0  0  0  0  0  0  0  0
   -3.3810   25.0600  -27.6360 H   0  0  0  0  0  0  0  0  0  0  0  0
   -2.2560   25.9590  -26.5650 H   0  0  0  0  0  0  0  0  0  0  0  0
   -3.2670   26.0000  -31.2610 H   0  0  0  0  0  0  0  0  0  0  0  0
   -4.0120   22.5623  -32.0811 H   0  0  0  0  0  0  0  0  0  0  0  0
   -6.1523   17.4627  -33.3507 H   0  0  0  0  0  0  0  0  0  0  0  0
   -8.4928   17.9219  -32.6278 H   0  0  0  0  0  0  0  0  0  0  0  0
  1  2  1  0
  2  3  1  0
  3  4  2  0
  4  5  1  0
  5  6  2  0
  6  7  1  0
  7  8  1  0
  8  9  1  0
  9 10  2  0
 10 11  1  0
 11 12  2  0
 12 13  1  0
 13 14  2  0
 14 15  1  0
 15 16  1  0
 15 17  2  0
 14 18  1  0
 18 19  1  0
 19 20  1  0
 19 21  2  0
 18 22  1  0
 22 23  2  0
  6 24  1  0
 24 25  2  0
 25  3  1  0
 23  9  1  0
 22 12  1  0
  1 26  1  0
  1 27  1  0
  1 28  1  0
  4 29  1  0
  5 30  1  0
  7 31  1  0
  7 32  1  0
  8 33  1  0
 10 34  1  0
 11 35  1  0
 13 36  1  0
 16 37  1  0
 16 38  1  0
 20 39  1  0
 23 40  1  0
 24 41  1  0
 25 42  1  0
M  CHG  1  20  -1
M  END
>  <UniqueID>  (28) 
28

>  <SMILES>  (28) 
COc1ccc(CNc2ccc3cc(C(N)=O)n(C([NH-])=O)c3c2)cc1

>  <Energy>  (28) 
82.60673605772278

>  <Genealogy>  (28) 
COc1ccc(CNc2ccc3cc(C(N)=O)n(C([NH-])=O)c3c2)cc1 (protonated)
COc1ccc(CNc2ccc3cc(C(N)=O)n(C([NH-])=O)c3c2)cc1 (3D coordinates assigned)
COc1ccc(CNc2ccc3cc(C(N)=O)n(C([NH-])=O)c3c2)cc1 (optimized conformer: 82.60673605772278 kcal/mol)

>  <smiles>  (28) 
COc1ccc(CNc2ccc3cc(C(N)=O)n(C(N)=O)c3c2)cc1

>  <score_type>  (28) 
oracle

>  <origin>  (28) 
adg

>  <m_score__min__energy>  (28) 
-9.2300000000000004

>  <m_primary>  (28) 
energy

$$$$
28:0
     RDKit          3D

 34 35  0  0  0  0  0  0  0  0999 V2000
   -2.8910   19.6600  -33.7920 C   0  0  0  0  0  0  0  0  0  0  0  0
   -2.3660   20.7560  -32.8660 C   0  0  0  0  0  0  0  0  0  0  0  0
   -0.9500   21.1770  -33.2700 C   0  0  0  0  0  0  0  0  0  0  0  0
   -3.2460   21.8780  -32.9340 O   0  0  0  0  0  0  0  0  0  0  0  0
   -3.7660   22.5230  -31.8050 C   0  0  0  0  0  0  0  0  0  0  0  0
   -2.9900   23.0360  -30.9550 O   0  0  0  0  0  0  0  0  0  0  0  0
   -5.1890   22.5830  -31.6120 N   0  0  0  0  0  0  0  0  0  0  0  0
   -5.8850   23.4980  -30.8800 C   0  0  0  0  0  0  0  0  0  0  0  0
   -5.3290   24.7200  -30.2680 C   0  0  0  0  0  0  0  0  0  0  0  0
   -5.7530   25.1600  -28.9760 N   0  0  0  0  0  0  0  0  0  0  0  0
   -4.4200   25.3550  -30.8680 O   0  0  0  0  0  0  0  0  0  0  0  0
   -7.2350   23.1630  -30.8240 C   0  0  0  0  0  0  0  0  0  0  0  0
   -7.3530   22.0100  -31.5660 C   0  0  0  0  0  0  0  0  0  0  0  0
   -8.4770   21.2350  -31.8390 C   0  0  0  0  0  0  0  0  0  0  0  0
   -8.3040   20.0730  -32.6090 C   0  0  0  0  0  0  0  0  0  0  0  0
   -7.0200   19.7030  -33.0750 C   0  0  0  0  0  0  0  0  0  0  0  0
   -6.8560   18.5070  -33.8420 N   0  0  0  0  0  0  0  0  0  0  0  0
   -5.9010   20.5090  -32.7760 C   0  0  0  0  0  0  0  0  0  0  0  0
   -6.1050   21.6770  -32.0280 C   0  0  0  0  0  0  0  0  0  0  0  0
   -3.2885   18.8301  -33.1893 H   0  0  0  0  0  0  0  0  0  0  0  0
   -3.6912   20.0684  -34.4267 H   0  0  0  0  0  0  0  0  0  0  0  0
   -2.0712   19.2924  -34.4267 H   0  0  0  0  0  0  0  0  0  0  0  0
   -2.3262   20.3706  -31.8365 H   0  0  0  0  0  0  0  0  0  0  0  0
   -0.3488   21.3558  -32.3664 H   0  0  0  0  0  0  0  0  0  0  0  0
   -0.4861   20.3779  -33.8669 H   0  0  0  0  0  0  0  0  0  0  0  0
   -0.9981   22.0997  -33.8669 H   0  0  0  0  0  0  0  0  0  0  0  0
   -5.3710   26.0430  -28.5700 H   0  0  0  0  0  0  0  0  0  0  0  0
   -6.3710   24.5650  -28.3830 H   0  0  0  0  0  0  0  0  0  0  0  0
   -8.0360   23.7041  -30.2990 H   0  0  0  0  0  0  0  0  0  0  0  0
   -9.4697   21.5237  -31.4633 H   0  0  0  0  0  0  0  0  0  0  0  0
   -9.1740   19.4452  -32.8519 H   0  0  0  0  0  0  0  0  0  0  0  0
   -6.7090   17.5860  -33.3720 H   0  0  0  0  0  0  0  0  0  0  0  0
   -6.8750   18.5350  -34.8860 H   0  0  0  0  0  0  0  0  0  0  0  0
   -4.8949   20.2282  -33.1208 H   0  0  0  0  0  0  0  0  0  0  0  0
  1  2  1  0
  2  3  1  0
  2  4  1  0
  4  5  1  0
  5  6  2  0
  5  7  1  0
  7  8  1  0
  8  9  1  0
  9 10  1  0
  9 11  2  0
  8 12  2  0
 12 13  1  0
 13 14  2  0
 14 15  1  0
 15 16  2  0
 16 17  1  0
 16 18  1  0
 18 19  2  0
 19  7  1  0
 19 13  1  0
  1 20  1  0
  1 21  1  0
  1 22  1  0
  2 23  1  0
  3 24  1  0
  3 25  1  0
  3 26  1  0
 10 27  1  0
 10 28  1  0
 12 29  1  0
 14 30  1  0
 15 31  1  0
 17 32  1  0
 17 33  1  0
 18 34  1  0
M  END
>  <UniqueID>  (29) 
29

>  <SMILES>  (29) 
CC(C)OC(=O)n1c(C(N)=O)cc2ccc(N)cc21

>  <Energy>  (29) 
66.27079526689973

>  <Genealogy>  (29) 
CC(C)OC(=O)n1c(C(N)=O)cc2ccc(N)cc21 (3D coordinates assigned)
CC(C)OC(=O)n1c(C(N)=O)cc2ccc(N)cc21 (optimized conformer: 66.27079526689973 kcal/mol)

>  <smiles>  (29) 
CC(C)OC(=O)n1c(C(N)=O)cc2ccc(N)cc21

>  <score_type>  (29) 
oracle

>  <origin>  (29) 
adg

>  <m_score__min__energy>  (29) 
-7.6699999999999999

>  <m_primary>  (29) 
energy

$$$$
29:0
     RDKit          3D

 64 67  0  0  0  0  0  0  0  0999 V2000
   -4.6450   13.3500  -31.2760 C   0  0  0  0  0  0  0  0  0  0  0  0
   -3.8640   12.9750  -32.5490 C   0  0  0  0  0  0  0  0  0  0  0  0
   -2.7910   14.0440  -32.8060 C   0  0  0  0  0  0  0  0  0  0  0  0
   -3.1750   11.6070  -32.3830 C   0  0  0  0  0  0  0  0  0  0  0  0
   -4.7340   12.9680  -33.6910 O   0  0  0  0  0  0  0  0  0  0  0  0
   -5.7140   13.9270  -34.0000 C   0  0  0  0  0  0  0  0  0  0  0  0
   -6.8750   13.5690  -34.3410 O   0  0  0  0  0  0  0  0  0  0  0  0
   -5.3930   15.3280  -33.9200 N   0  0  0  0  0  0  0  0  0  0  0  0
   -4.5710   15.9220  -34.9610 C   0  0  0  0  0  0  0  0  0  0  0  0
   -4.1800   17.2000  -34.9060 C   0  0  0  0  0  0  0  0  0  0  0  0
   -4.6020   18.0110  -33.7700 C   0  0  0  0  0  0  0  0  0  0  0  0
   -4.2690   19.2880  -33.5230 N   0  0  0  0  0  0  0  0  0  0  0  0
   -4.8750   19.6140  -32.3570 C   0  0  0  0  0  0  0  0  0  0  0  0
   -4.7560   20.9360  -31.6950 C   0  0  0  0  0  0  0  0  0  0  0  0
   -5.8210   21.8740  -31.7610 C   0  0  0  0  0  0  0  0  0  0  0  0
   -5.7160   23.1260  -31.1360 C   0  0  0  0  0  0  0  0  0  0  0  0
   -4.5460   23.4150  -30.4420 C   0  0  0  0  0  0  0  0  0  0  0  0
   -4.1770   24.5550  -29.7660 C   0  0  0  0  0  0  0  0  0  0  0  0
   -2.9020   24.2920  -29.2690 C   0  0  0  0  0  0  0  0  0  0  0  0
   -2.1610   25.2280  -28.3990 C   0  0  0  0  0  0  0  0  0  0  0  0
   -1.2320   26.1600  -28.9470 N   0  0  0  0  0  0  0  0  0  0  0  0
   -2.3130   25.1710  -27.1490 O   0  0  0  0  0  0  0  0  0  0  0  0
   -2.4950   23.0430  -29.6320 N   0  0  0  0  0  0  0  0  0  0  0  0
   -1.2120   22.4390  -29.4030 C   0  0  0  0  0  0  0  0  0  0  0  0
   -0.1630   23.1080  -29.6030 O   0  0  0  0  0  0  0  0  0  0  0  0
   -1.1470   21.1170  -28.9360 O   0  0  0  0  0  0  0  0  0  0  0  0
   -1.5770   20.6460  -27.6510 C   0  0  0  0  0  0  0  0  0  0  0  0
   -3.1160   20.6080  -27.5710 C   0  0  0  0  0  0  0  0  0  0  0  0
   -1.0510   21.6410  -26.6060 C   0  0  0  0  0  0  0  0  0  0  0  0
   -0.9830   19.2550  -27.3580 C   0  0  0  0  0  0  0  0  0  0  0  0
   -3.5140   22.5190  -30.3490 C   0  0  0  0  0  0  0  0  0  0  0  0
   -3.5810   21.2710  -30.9810 C   0  0  0  0  0  0  0  0  0  0  0  0
   -5.6010   18.5270  -31.8710 C   0  0  0  0  0  0  0  0  0  0  0  0
   -5.4050   17.5150  -32.7870 C   0  0  0  0  0  0  0  0  0  0  0  0
   -5.9350   16.1170  -32.7890 C   0  0  0  0  0  0  0  0  0  0  0  0
   -4.0581   13.0682  -30.3894 H   0  0  0  0  0  0  0  0  0  0  0  0
   -4.8287   14.4345  -31.2646 H   0  0  0  0  0  0  0  0  0  0  0  0
   -5.6062   12.8152  -31.2646 H   0  0  0  0  0  0  0  0  0  0  0  0
   -2.4120   14.4216  -31.8449 H   0  0  0  0  0  0  0  0  0  0  0  0
   -1.9625   13.6016  -33.3786 H   0  0  0  0  0  0  0  0  0  0  0  0
   -3.2303   14.8742  -33.3786 H   0  0  0  0  0  0  0  0  0  0  0  0
   -3.0613   11.3812  -31.3124 H   0  0  0  0  0  0  0  0  0  0  0  0
   -3.7880   10.8275  -32.8590 H   0  0  0  0  0  0  0  0  0  0  0  0
   -2.1837   11.6355  -32.8590 H   0  0  0  0  0  0  0  0  0  0  0  0
   -4.2621   15.3041  -35.8170 H   0  0  0  0  0  0  0  0  0  0  0  0
   -3.5532   17.6302  -35.7011 H   0  0  0  0  0  0  0  0  0  0  0  0
   -3.6730   19.8950  -34.1270 H   0  0  0  0  0  0  0  0  0  0  0  0
   -6.7392   21.6156  -32.3088 H   0  0  0  0  0  0  0  0  0  0  0  0
   -6.5354   23.8576  -31.1933 H   0  0  0  0  0  0  0  0  0  0  0  0
   -4.7635   25.4776  -29.6439 H   0  0  0  0  0  0  0  0  0  0  0  0
   -0.9920   26.1450  -29.9640 H   0  0  0  0  0  0  0  0  0  0  0  0
   -3.4283   20.6003  -26.5163 H   0  0  0  0  0  0  0  0  0  0  0  0
   -3.5311   21.4962  -28.0698 H   0  0  0  0  0  0  0  0  0  0  0  0
   -3.4868   19.7004  -28.0698 H   0  0  0  0  0  0  0  0  0  0  0  0
   -1.2552   21.2547  -25.5965 H   0  0  0  0  0  0  0  0  0  0  0  0
    0.0335   21.7707  -26.7365 H   0  0  0  0  0  0  0  0  0  0  0  0
   -1.5545   22.6102  -26.7365 H   0  0  0  0  0  0  0  0  0  0  0  0
   -0.9191   19.1053  -26.2701 H   0  0  0  0  0  0  0  0  0  0  0  0
   -1.6289   18.4805  -27.7973 H   0  0  0  0  0  0  0  0  0  0  0  0
    0.0231   19.1860  -27.7973 H   0  0  0  0  0  0  0  0  0  0  0  0
   -2.7383   20.5663  -30.9236 H   0  0  0  0  0  0  0  0  0  0  0  0
   -6.2029   18.4856  -30.9512 H   0  0  0  0  0  0  0  0  0  0  0  0
   -5.6532   15.6274  -31.8451 H   0  0  0  0  0  0  0  0  0  0  0  0
   -7.0287   16.1646  -32.8966 H   0  0  0  0  0  0  0  0  0  0  0  0
  1  2  1  0
  2  3  1  0
  2  4  1  0
  2  5  1  0
  5  6  1  0
  6  7  2  0
  6  8  1  0
  8  9  1  0
  9 10  2  0
 10 11  1  0
 11 12  1  0
 12 13  1  0
 13 14  1  0
 14 15  2  0
 15 16  1  0
 16 17  2  0
 17 18  1  0
 18 19  2  0
 19 20  1  0
 20 21  1  0
 20 22  2  0
 19 23  1  0
 23 24  1  0
 24 25  2  0
 24 26  1  0
 26 27  1  0
 27 28  1  0
 27 29  1  0
 27 30  1  0
 23 31  1  0
 31 32  2  0
 13 33  2  0
 33 34  1  0
 34 35  1  0
 35  8  1  0
 34 11  2  0
 32 14  1  0
 31 17  1  0
  1 36  1  0
  1 37  1  0
  1 38  1  0
  3 39  1  0
  3 40  1  0
  3 41  1  0
  4 42  1  0
  4 43  1  0
  4 44  1  0
  9 45  1  0
 10 46  1  0
 12 47  1  0
 15 48  1  0
 16 49  1  0
 18 50  1  0
 21 51  1  0
 28 52  1  0
 28 53  1  0
 28 54  1  0
 29 55  1  0
 29 56  1  0
 29 57  1  0
 30 58  1  0
 30 59  1  0
 30 60  1  0
 32 61  1  0
 33 62  1  0
 35 63  1  0
 35 64  1  0
M  CHG  1  21  -1
M  END
>  <UniqueID>  (30) 
30

>  <SMILES>  (30) 
CC(C)(C)OC(=O)N1C=Cc2[nH]c(-c3ccc4cc(C([NH-])=O)n(C(=O)OC(C)(C)C)c4c3)cc2C1

>  <Energy>  (30) 
128.58146824601099

>  <Genealogy>  (30) 
CC(C)(C)OC(=O)N1C=Cc2[nH]c(-c3ccc4cc(C([NH-])=O)n(C(=O)OC(C)(C)C)c4c3)cc2C1 (protonated)
CC(C)(C)OC(=O)N1C=Cc2[nH]c(-c3ccc4cc(C([NH-])=O)n(C(=O)OC(C)(C)C)c4c3)cc2C1 (3D coordinates assigned)
CC(C)(C)OC(=O)N1C=Cc2[nH]c(-c3ccc4cc(C([NH-])=O)n(C(=O)OC(C)(C)C)c4c3)cc2C1 (nonaromatic ring conformer: 128.58146824601099 kcal/mol)

>  <smiles>  (30) 
CC(C)(C)OC(=O)N1C=Cc2[nH]c(-c3ccc4cc(C(N)=O)n(C(=O)OC(C)(C)C)c4c3)cc2C1

>  <score_type>  (30) 
oracle

>  <origin>  (30) 
adg

>  <m_score__min__energy>  (30) 
-10.98

>  <m_primary>  (30) 
energy

$$$$
30:0
     RDKit          3D

 63 66  0  0  0  0  0  0  0  0999 V2000
    3.1840   21.0340  -36.0100 C   0  0  0  0  0  0  0  0  0  0  0  0
    1.9070   21.4220  -36.5020 O   0  0  0  0  0  0  0  0  0  0  0  0
    0.8830   21.8840  -35.6670 C   0  0  0  0  0  0  0  0  0  0  0  0
    0.6480   23.1200  -35.5800 O   0  0  0  0  0  0  0  0  0  0  0  0
    0.0720   20.9170  -34.8950 C   0  0  0  0  0  0  0  0  0  0  0  0
   -0.5400   21.3070  -33.6930 C   0  0  0  0  0  0  0  0  0  0  0  0
   -1.2740   20.3880  -32.9410 C   0  0  0  0  0  0  0  0  0  0  0  0
   -1.4250   19.0570  -33.3770 C   0  0  0  0  0  0  0  0  0  0  0  0
   -2.0750   18.0680  -32.5460 N   0  0  0  0  0  0  0  0  0  0  0  0
   -3.3150   17.6340  -33.1260 C   0  0  0  0  0  0  0  0  0  0  0  0
   -3.3230   16.6730  -34.0890 N   0  0  0  0  0  0  0  0  0  0  0  0
   -4.4830   16.2910  -34.6830 C   0  0  0  0  0  0  0  0  0  0  0  0
   -5.6860   16.8960  -34.3190 C   0  0  0  0  0  0  0  0  0  0  0  0
   -6.8430   16.5230  -34.9200 F   0  0  0  0  0  0  0  0  0  0  0  0
   -5.6660   17.8960  -33.3360 C   0  0  0  0  0  0  0  0  0  0  0  0
   -6.8890   18.5340  -32.9250 N   0  0  0  0  0  0  0  0  0  0  0  0
   -6.9770   19.8260  -32.2940 C   0  0  0  0  0  0  0  0  0  0  0  0
   -8.2370   20.2740  -31.8270 C   0  0  0  0  0  0  0  0  0  0  0  0
   -8.3810   21.5410  -31.2440 C   0  0  0  0  0  0  0  0  0  0  0  0
   -7.2530   22.3480  -31.1480 C   0  0  0  0  0  0  0  0  0  0  0  0
   -7.1150   23.6110  -30.6210 C   0  0  0  0  0  0  0  0  0  0  0  0
   -5.7730   23.9370  -30.7890 C   0  0  0  0  0  0  0  0  0  0  0  0
   -5.2120   25.2600  -30.4480 C   0  0  0  0  0  0  0  0  0  0  0  0
   -3.8930   25.6020  -30.8670 N   0  0  0  0  0  0  0  0  0  0  0  0
   -5.8690   26.0770  -29.7480 O   0  0  0  0  0  0  0  0  0  0  0  0
   -5.0990   22.9110  -31.3860 N   0  0  0  0  0  0  0  0  0  0  0  0
   -3.6770   22.8060  -31.5860 C   0  0  0  0  0  0  0  0  0  0  0  0
   -3.2290   22.3370  -32.6660 O   0  0  0  0  0  0  0  0  0  0  0  0
   -2.8050   23.2060  -30.5620 O   0  0  0  0  0  0  0  0  0  0  0  0
   -2.5920   22.5420  -29.3080 C   0  0  0  0  0  0  0  0  0  0  0  0
   -2.8810   21.0500  -29.5290 C   0  0  0  0  0  0  0  0  0  0  0  0
   -1.1270   22.7040  -28.8690 C   0  0  0  0  0  0  0  0  0  0  0  0
   -3.5480   23.0770  -28.2220 C   0  0  0  0  0  0  0  0  0  0  0  0
   -6.0250   21.9470  -31.6090 C   0  0  0  0  0  0  0  0  0  0  0  0
   -5.8540   20.6850  -32.1940 C   0  0  0  0  0  0  0  0  0  0  0  0
   -4.4830   18.2280  -32.7560 N   0  0  0  0  0  0  0  0  0  0  0  0
   -0.8140   18.6710  -34.5830 C   0  0  0  0  0  0  0  0  0  0  0  0
   -0.0810   19.5910  -35.3370 C   0  0  0  0  0  0  0  0  0  0  0  0
    3.1700   21.0383  -34.9101 H   0  0  0  0  0  0  0  0  0  0  0  0
    3.4237   20.0225  -36.3697 H   0  0  0  0  0  0  0  0  0  0  0  0
    3.9459   21.7412  -36.3697 H   0  0  0  0  0  0  0  0  0  0  0  0
   -0.4403   22.3445  -33.3412 H   0  0  0  0  0  0  0  0  0  0  0  0
   -1.7399   20.7069  -31.9970 H   0  0  0  0  0  0  0  0  0  0  0  0
   -1.4640   17.2270  -32.4200 H   0  0  0  0  0  0  0  0  0  0  0  0
   -2.2500   18.4870  -31.6030 H   0  0  0  0  0  0  0  0  0  0  0  0
   -4.4739   15.5041  -35.4516 H   0  0  0  0  0  0  0  0  0  0  0  0
   -7.7780   17.9920  -33.0290 H   0  0  0  0  0  0  0  0  0  0  0  0
   -9.1151   19.6185  -31.9231 H   0  0  0  0  0  0  0  0  0  0  0  0
   -9.3575   21.8863  -30.8736 H   0  0  0  0  0  0  0  0  0  0  0  0
   -7.8995   24.2318  -30.1636 H   0  0  0  0  0  0  0  0  0  0  0  0
   -3.0590   25.2940  -30.3190 H   0  0  0  0  0  0  0  0  0  0  0  0
   -2.9784   20.5473  -28.5555 H   0  0  0  0  0  0  0  0  0  0  0  0
   -3.8176   20.9378  -30.0949 H   0  0  0  0  0  0  0  0  0  0  0  0
   -2.0541   20.5962  -30.0949 H   0  0  0  0  0  0  0  0  0  0  0  0
   -1.0720   22.7101  -27.7704 H   0  0  0  0  0  0  0  0  0  0  0  0
   -0.5319   21.8662  -29.2613 H   0  0  0  0  0  0  0  0  0  0  0  0
   -0.7293   23.6516  -29.2613 H   0  0  0  0  0  0  0  0  0  0  0  0
   -3.1381   22.8476  -27.2273 H   0  0  0  0  0  0  0  0  0  0  0  0
   -3.6552   24.1662  -28.3321 H   0  0  0  0  0  0  0  0  0  0  0  0
   -4.5324   22.5987  -28.3321 H   0  0  0  0  0  0  0  0  0  0  0  0
   -4.8692   20.3679  -32.5676 H   0  0  0  0  0  0  0  0  0  0  0  0
   -0.9141   17.6342  -34.9365 H   0  0  0  0  0  0  0  0  0  0  0  0
    0.3803   19.2753  -36.2844 H   0  0  0  0  0  0  0  0  0  0  0  0
  1  2  1  0
  2  3  1  0
  3  4  2  0
  3  5  1  0
  5  6  2  0
  6  7  1  0
  7  8  2  0
  8  9  1  0
  9 10  1  0
 10 11  2  0
 11 12  1  0
 12 13  2  0
 13 14  1  0
 13 15  1  0
 15 16  1  0
 16 17  1  0
 17 18  2  0
 18 19  1  0
 19 20  2  0
 20 21  1  0
 21 22  2  0
 22 23  1  0
 23 24  1  0
 23 25  2  0
 22 26  1  0
 26 27  1  0
 27 28  2  0
 27 29  1  0
 29 30  1  0
 30 31  1  0
 30 32  1  0
 30 33  1  0
 26 34  1  0
 34 35  2  0
 15 36  2  0
  8 37  1  0
 37 38  2  0
 38  5  1  0
 36 10  1  0
 35 17  1  0
 34 20  1  0
  1 39  1  0
  1 40  1  0
  1 41  1  0
  6 42  1  0
  7 43  1  0
  9 44  1  0
  9 45  1  0
 12 46  1  0
 16 47  1  0
 18 48  1  0
 19 49  1  0
 21 50  1  0
 24 51  1  0
 31 52  1  0
 31 53  1  0
 31 54  1  0
 32 55  1  0
 32 56  1  0
 32 57  1  0
 33 58  1  0
 33 59  1  0
 33 60  1  0
 35 61  1  0
 37 62  1  0
 38 63  1  0
M  CHG  2   9   1  24  -1
M  END
>  <UniqueID>  (31) 
31

>  <SMILES>  (31) 
COC(=O)c1ccc([NH2+]c2ncc(F)c(Nc3ccc4cc(C([NH-])=O)n(C(=O)OC(C)(C)C)c4c3)n2)cc1

>  <Energy>  (31) 
104.51560932369152

>  <Genealogy>  (31) 
COC(=O)c1ccc([NH2+]c2ncc(F)c(Nc3ccc4cc(C([NH-])=O)n(C(=O)OC(C)(C)C)c4c3)n2)cc1 (protonated)
COC(=O)c1ccc([NH2+]c2ncc(F)c(Nc3ccc4cc(C([NH-])=O)n(C(=O)OC(C)(C)C)c4c3)n2)cc1 (3D coordinates assigned)
COC(=O)c1ccc([NH2+]c2ncc(F)c(Nc3ccc4cc(C([NH-])=O)n(C(=O)OC(C)(C)C)c4c3)n2)cc1 (optimized conformer: 104.51560932369152 kcal/mol)

>  <smiles>  (31) 
COC(=O)c1ccc(Nc2ncc(F)c(Nc3ccc4cc(C(N)=O)n(C(=O)OC(C)(C)C)c4c3)n2)cc1

>  <score_type>  (31) 
oracle

>  <origin>  (31) 
adg

>  <m_score__min__energy>  (31) 
-11.609999999999999

>  <m_primary>  (31) 
energy

$$$$
31:0
     RDKit          3D

 30 32  0  0  0  0  0  0  0  0999 V2000
   -5.7100   18.1650  -35.5060 N   0  0  0  0  0  0  0  0  0  0  0  0
   -5.1490   18.2410  -34.1960 C   0  0  0  0  0  0  0  0  0  0  0  0
   -4.2420   17.4330  -33.8660 O   0  0  0  0  0  0  0  0  0  0  0  0
   -5.6040   19.2910  -33.2620 C   0  0  0  0  0  0  0  0  0  0  0  0
   -6.9270   19.4250  -32.8440 C   0  0  0  0  0  0  0  0  0  0  0  0
   -6.9500   20.5590  -32.0650 C   0  0  0  0  0  0  0  0  0  0  0  0
   -8.0070   21.1520  -31.3790 C   0  0  0  0  0  0  0  0  0  0  0  0
   -7.7370   22.3030  -30.6220 C   0  0  0  0  0  0  0  0  0  0  0  0
   -6.4260   22.8400  -30.5660 C   0  0  0  0  0  0  0  0  0  0  0  0
   -6.1390   24.0410  -29.7090 C   0  0  0  0  0  0  0  0  0  0  0  0
   -4.7030   24.0390  -29.2840 C   0  0  0  0  0  0  0  0  0  0  0  0
   -4.0780   23.1690  -27.9820 S   0  0  0  0  0  0  0  0  0  0  0  0
   -2.5390   23.8120  -28.1870 C   0  0  0  0  0  0  0  0  0  0  0  0
   -1.5490   23.5220  -27.4680 O   0  0  0  0  0  0  0  0  0  0  0  0
   -2.4720   24.6870  -29.2120 N   0  0  0  0  0  0  0  0  0  0  0  0
   -3.6810   24.8190  -29.8190 C   0  0  0  0  0  0  0  0  0  0  0  0
   -3.8670   25.6790  -30.8940 O   0  0  0  0  0  0  0  0  0  0  0  0
   -5.3780   22.2050  -31.2670 C   0  0  0  0  0  0  0  0  0  0  0  0
   -5.6780   21.0680  -32.0260 C   0  0  0  0  0  0  0  0  0  0  0  0
   -4.8370   20.2990  -32.7540 N   0  0  0  0  0  0  0  0  0  0  0  0
   -3.4170   20.4740  -32.8870 C   0  0  0  0  0  0  0  0  0  0  0  0
   -2.6300   19.5360  -32.5960 O   0  0  0  0  0  0  0  0  0  0  0  0
   -2.8990   21.6720  -33.3660 O   0  0  0  0  0  0  0  0  0  0  0  0
   -6.5010   18.7840  -35.7870 H   0  0  0  0  0  0  0  0  0  0  0  0
   -7.7729   18.7646  -33.0856 H   0  0  0  0  0  0  0  0  0  0  0  0
   -9.0222   20.7314  -31.4288 H   0  0  0  0  0  0  0  0  0  0  0  0
   -8.5505   22.7930  -30.0669 H   0  0  0  0  0  0  0  0  0  0  0  0
   -6.3471   24.9558  -30.2833 H   0  0  0  0  0  0  0  0  0  0  0  0
   -6.7790   24.0064  -28.8150 H   0  0  0  0  0  0  0  0  0  0  0  0
   -4.3504   22.5944  -31.2179 H   0  0  0  0  0  0  0  0  0  0  0  0
  1  2  1  0
  2  3  2  0
  2  4  1  0
  4  5  2  0
  5  6  1  0
  6  7  2  0
  7  8  1  0
  8  9  2  0
  9 10  1  0
 10 11  1  0
 11 12  1  0
 12 13  1  0
 13 14  2  0
 13 15  1  0
 15 16  1  0
 16 17  1  0
  9 18  1  0
 18 19  2  0
 19 20  1  0
 20 21  1  0
 21 22  2  0
 21 23  1  0
 20  4  1  0
 19  6  1  0
 16 11  2  0
  1 24  1  0
  5 25  1  0
  7 26  1  0
  8 27  1  0
 10 28  1  0
 10 29  1  0
 18 30  1  0
M  CHG  4   1  -1  15  -1  17  -1  23  -1
M  END
>  <UniqueID>  (32) 
32

>  <SMILES>  (32) 
[NH-]C(=O)c1cc2ccc(Cc3sc(=O)[n-]c3[O-])cc2n1C(=O)[O-]

>  <Energy>  (32) 
101.13984323682314

>  <Genealogy>  (32) 
[NH-]C(=O)c1cc2ccc(Cc3sc(=O)[n-]c3[O-])cc2n1C(=O)[O-] (protonated)
[NH-]C(=O)c1cc2ccc(Cc3sc(=O)[n-]c3[O-])cc2n1C(=O)[O-] (3D coordinates assigned)
[NH-]C(=O)c1cc2ccc(Cc3sc(=O)[n-]c3[O-])cc2n1C(=O)[O-] (optimized conformer: 101.13984323682314 kcal/mol)

>  <smiles>  (32) 
NC(=O)c1cc2ccc(Cc3sc(=O)[nH]c3O)cc2n1C(=O)O

>  <score_type>  (32) 
oracle

>  <origin>  (32) 
adg

>  <m_score__min__energy>  (32) 
-11.720000000000001

>  <m_primary>  (32) 
energy

$$$$
32:0
     RDKit          3D

 63 65  0  0  0  0  0  0  0  0999 V2000
   -3.9420   23.1410  -28.0680 C   0  0  0  0  0  0  0  0  0  0  0  0
   -2.9120   22.4470  -28.9440 C   0  0  0  0  0  0  0  0  0  0  0  0
   -2.7990   23.1380  -30.1830 O   0  0  0  0  0  0  0  0  0  0  0  0
   -3.4550   22.7230  -31.3450 C   0  0  0  0  0  0  0  0  0  0  0  0
   -2.7960   22.2560  -32.3140 O   0  0  0  0  0  0  0  0  0  0  0  0
   -4.8870   22.8050  -31.4210 N   0  0  0  0  0  0  0  0  0  0  0  0
   -5.6860   23.8670  -31.1180 C   0  0  0  0  0  0  0  0  0  0  0  0
   -5.2450   25.1410  -30.5100 C   0  0  0  0  0  0  0  0  0  0  0  0
   -3.9590   25.6700  -30.8270 N   0  0  0  0  0  0  0  0  0  0  0  0
   -6.0040   25.7860  -29.7410 O   0  0  0  0  0  0  0  0  0  0  0  0
   -7.0200   23.5670  -31.3830 C   0  0  0  0  0  0  0  0  0  0  0  0
   -7.0170   22.2740  -31.8540 C   0  0  0  0  0  0  0  0  0  0  0  0
   -8.0730   21.4720  -32.2740 C   0  0  0  0  0  0  0  0  0  0  0  0
   -7.7760   20.1790  -32.7350 C   0  0  0  0  0  0  0  0  0  0  0  0
   -6.4350   19.7160  -32.7820 C   0  0  0  0  0  0  0  0  0  0  0  0
   -6.1290   18.3510  -33.2730 C   0  0  0  0  0  0  0  0  0  0  0  0
   -7.0010   17.2900  -32.9730 C   0  0  0  0  0  0  0  0  0  0  0  0
   -6.7380   16.0040  -33.4470 C   0  0  0  0  0  0  0  0  0  0  0  0
   -5.6070   15.7610  -34.2270 C   0  0  0  0  0  0  0  0  0  0  0  0
   -4.7240   16.8060  -34.5390 C   0  0  0  0  0  0  0  0  0  0  0  0
   -3.5080   16.5210  -35.3870 C   0  0  0  0  0  0  0  0  0  0  0  0
   -2.5780   17.5800  -35.3270 O   0  0  0  0  0  0  0  0  0  0  0  0
   -1.3810   17.3470  -34.0790 Si  0  0  0  0  0  4  0  0  0  0  0  0
    0.2400   16.6950  -34.7660 C   0  0  0  0  0  0  0  0  0  0  0  0
   -2.0120   16.1370  -32.7950 C   0  0  0  0  0  0  0  0  0  0  0  0
   -1.0990   19.0480  -33.2740 C   0  0  0  0  0  0  0  0  0  0  0  0
    0.2860   19.1090  -32.6080 C   0  0  0  0  0  0  0  0  0  0  0  0
   -1.1950   20.1370  -34.3570 C   0  0  0  0  0  0  0  0  0  0  0  0
   -2.1890   19.2870  -32.2130 C   0  0  0  0  0  0  0  0  0  0  0  0
   -4.9780   18.1000  -34.0450 C   0  0  0  0  0  0  0  0  0  0  0  0
   -4.1010   19.1050  -34.3000 F   0  0  0  0  0  0  0  0  0  0  0  0
   -5.3900   20.5600  -32.3410 C   0  0  0  0  0  0  0  0  0  0  0  0
   -5.7180   21.8360  -31.8670 C   0  0  0  0  0  0  0  0  0  0  0  0
   -3.6948   22.9744  -27.0092 H   0  0  0  0  0  0  0  0  0  0  0  0
   -3.9365   24.2203  -28.2804 H   0  0  0  0  0  0  0  0  0  0  0  0
   -4.9402   22.7306  -28.2804 H   0  0  0  0  0  0  0  0  0  0  0  0
   -1.9374   22.4472  -28.4340 H   0  0  0  0  0  0  0  0  0  0  0  0
   -3.2286   21.4102  -29.1304 H   0  0  0  0  0  0  0  0  0  0  0  0
   -3.0940   25.2760  -30.3950 H   0  0  0  0  0  0  0  0  0  0  0  0
   -7.8912   24.2242  -31.2451 H   0  0  0  0  0  0  0  0  0  0  0  0
   -9.1095   21.8394  -32.2459 H   0  0  0  0  0  0  0  0  0  0  0  0
   -8.5916   19.5178  -33.0632 H   0  0  0  0  0  0  0  0  0  0  0  0
   -7.8961   17.4745  -32.3609 H   0  0  0  0  0  0  0  0  0  0  0  0
   -7.4246   15.1794  -33.2049 H   0  0  0  0  0  0  0  0  0  0  0  0
   -5.4066   14.7455  -34.5991 H   0  0  0  0  0  0  0  0  0  0  0  0
   -3.0264   15.6010  -35.0241 H   0  0  0  0  0  0  0  0  0  0  0  0
   -3.8339   16.4057  -36.4313 H   0  0  0  0  0  0  0  0  0  0  0  0
    0.9087   16.4260  -33.9350 H   0  0  0  0  0  0  0  0  0  0  0  0
    0.0454   15.8052  -35.3828 H   0  0  0  0  0  0  0  0  0  0  0  0
    0.7157   17.4717  -35.3828 H   0  0  0  0  0  0  0  0  0  0  0  0
   -1.8069   16.5304  -31.7884 H   0  0  0  0  0  0  0  0  0  0  0  0
   -3.0961   16.0004  -32.9214 H   0  0  0  0  0  0  0  0  0  0  0  0
   -1.5034   15.1699  -32.9214 H   0  0  0  0  0  0  0  0  0  0  0  0
    0.1675   19.1038  -31.5144 H   0  0  0  0  0  0  0  0  0  0  0  0
    0.8800   18.2361  -32.9166 H   0  0  0  0  0  0  0  0  0  0  0  0
    0.8010   20.0307  -32.9166 H   0  0  0  0  0  0  0  0  0  0  0  0
   -1.2820   21.1235  -33.8783 H   0  0  0  0  0  0  0  0  0  0  0  0
   -0.2912   20.1118  -34.9834 H   0  0  0  0  0  0  0  0  0  0  0  0
   -2.0805   19.9541  -34.9834 H   0  0  0  0  0  0  0  0  0  0  0  0
   -1.7505   19.1909  -31.2088 H   0  0  0  0  0  0  0  0  0  0  0  0
   -2.6052   20.2977  -32.3361 H   0  0  0  0  0  0  0  0  0  0  0  0
   -2.9899   18.5431  -32.3361 H   0  0  0  0  0  0  0  0  0  0  0  0
   -4.3436   20.2221  -32.3696 H   0  0  0  0  0  0  0  0  0  0  0  0
  1  2  1  0
  2  3  1  0
  3  4  1  0
  4  5  2  0
  4  6  1  0
  6  7  1  0
  7  8  1  0
  8  9  1  0
  8 10  2  0
  7 11  2  0
 11 12  1  0
 12 13  2  0
 13 14  1  0
 14 15  2  0
 15 16  1  0
 16 17  2  0
 17 18  1  0
 18 19  2  0
 19 20  1  0
 20 21  1  0
 21 22  1  0
 22 23  1  0
 23 24  1  0
 23 25  1  0
 23 26  1  0
 26 27  1  0
 26 28  1  0
 26 29  1  0
 20 30  2  0
 30 31  1  0
 15 32  1  0
 32 33  2  0
 33  6  1  0
 33 12  1  0
 30 16  1  0
  1 34  1  0
  1 35  1  0
  1 36  1  0
  2 37  1  0
  2 38  1  0
  9 39  1  0
 11 40  1  0
 13 41  1  0
 14 42  1  0
 17 43  1  0
 18 44  1  0
 19 45  1  0
 21 46  1  0
 21 47  1  0
 24 48  1  0
 24 49  1  0
 24 50  1  0
 25 51  1  0
 25 52  1  0
 25 53  1  0
 27 54  1  0
 27 55  1  0
 27 56  1  0
 28 57  1  0
 28 58  1  0
 28 59  1  0
 29 60  1  0
 29 61  1  0
 29 62  1  0
 32 63  1  0
M  CHG  1   9  -1
M  END
>  <UniqueID>  (33) 
33

>  <SMILES>  (33) 
CCOC(=O)n1c(C([NH-])=O)cc2ccc(-c3cccc(CO[Si](C)(C)C(C)(C)C)c3F)cc21

>  <Energy>  (33) 
88.41183917914613

>  <Genealogy>  (33) 
CCOC(=O)n1c(C([NH-])=O)cc2ccc(-c3cccc(CO[Si](C)(C)C(C)(C)C)c3F)cc21 (protonated)
CCOC(=O)n1c(C([NH-])=O)cc2ccc(-c3cccc(CO[Si](C)(C)C(C)(C)C)c3F)cc21 (3D coordinates assigned)
CCOC(=O)n1c(C([NH-])=O)cc2ccc(-c3cccc(CO[Si](C)(C)C(C)(C)C)c3F)cc21 (optimized conformer: 88.41183917914613 kcal/mol)

>  <smiles>  (33) 
CCOC(=O)n1c(C(N)=O)cc2ccc(-c3cccc(CO[Si](C)(C)C(C)(C)C)c3F)cc21

>  <score_type>  (33) 
oracle

>  <origin>  (33) 
adg

>  <m_score__min__energy>  (33) 
-11.44

>  <m_primary>  (33) 
energy

$$$$
33:0
     RDKit          3D

 67 70  0  0  0  0  0  0  0  0999 V2000
    4.4270   23.0190  -35.3610 C   0  0  0  0  0  0  0  0  0  0  0  0
    3.5750   23.8180  -36.3650 C   0  0  0  0  0  0  0  0  0  0  0  0
    4.4300   24.2760  -37.5630 C   0  0  0  0  0  0  0  0  0  0  0  0
    3.0070   25.0580  -35.6600 C   0  0  0  0  0  0  0  0  0  0  0  0
    2.4540   23.0390  -36.8120 O   0  0  0  0  0  0  0  0  0  0  0  0
    1.3870   22.5830  -36.0190 C   0  0  0  0  0  0  0  0  0  0  0  0
    0.5930   23.4040  -35.4830 O   0  0  0  0  0  0  0  0  0  0  0  0
    1.2190   21.1710  -35.7920 N   0  0  0  0  0  0  0  0  0  0  0  0
    2.4150   20.3030  -35.7940 C   0  0  0  0  0  0  0  0  0  0  0  0
    2.0880   18.8750  -36.2600 C   0  0  0  0  0  0  0  0  0  0  0  0
    0.8640   18.3900  -35.5620 C   0  0  0  0  0  0  0  0  0  0  0  0
    0.5000   17.1040  -35.3860 N   0  0  0  0  0  0  0  0  0  0  0  0
   -0.6920   17.0950  -34.8020 N   0  0  0  0  0  0  0  0  0  0  0  0
   -1.0860   18.3740  -34.6110 C   0  0  0  0  0  0  0  0  0  0  0  0
   -2.3790   18.7360  -34.0940 N   0  0  0  0  0  0  0  0  0  0  0  0
   -2.2680   19.7220  -33.0470 C   0  0  0  0  0  0  0  0  0  0  0  0
   -1.0840   19.8130  -32.2670 C   0  0  0  0  0  0  0  0  0  0  0  0
   -0.9510   20.7970  -31.2720 C   0  0  0  0  0  0  0  0  0  0  0  0
   -2.0150   21.6740  -31.0800 C   0  0  0  0  0  0  0  0  0  0  0  0
   -2.1580   22.7190  -30.1930 C   0  0  0  0  0  0  0  0  0  0  0  0
   -3.4180   23.2600  -30.4580 C   0  0  0  0  0  0  0  0  0  0  0  0
   -3.9480   24.4640  -29.7820 C   0  0  0  0  0  0  0  0  0  0  0  0
   -4.1950   25.6670  -30.5050 N   0  0  0  0  0  0  0  0  0  0  0  0
   -4.1560   24.4410  -28.5400 O   0  0  0  0  0  0  0  0  0  0  0  0
   -4.0270   22.5740  -31.4650 N   0  0  0  0  0  0  0  0  0  0  0  0
   -5.3170   22.7990  -32.0450 C   0  0  0  0  0  0  0  0  0  0  0  0
   -5.5500   23.8790  -32.6520 O   0  0  0  0  0  0  0  0  0  0  0  0
   -6.3080   21.8160  -31.9020 O   0  0  0  0  0  0  0  0  0  0  0  0
   -7.5650   21.9610  -31.2290 C   0  0  0  0  0  0  0  0  0  0  0  0
   -8.3670   23.0220  -31.9940 C   0  0  0  0  0  0  0  0  0  0  0  0
   -8.3450   20.6330  -31.2530 C   0  0  0  0  0  0  0  0  0  0  0  0
   -7.3580   22.4440  -29.7800 C   0  0  0  0  0  0  0  0  0  0  0  0
   -3.1590   21.6090  -31.8330 C   0  0  0  0  0  0  0  0  0  0  0  0
   -3.3300   20.6260  -32.8100 C   0  0  0  0  0  0  0  0  0  0  0  0
   -0.1200   19.2260  -35.1160 C   0  0  0  0  0  0  0  0  0  0  0  0
   -0.0370   20.7200  -35.1580 C   0  0  0  0  0  0  0  0  0  0  0  0
    4.1367   23.2912  -34.3355 H   0  0  0  0  0  0  0  0  0  0  0  0
    4.2620   21.9424  -35.5152 H   0  0  0  0  0  0  0  0  0  0  0  0
    5.4908   23.2527  -35.5152 H   0  0  0  0  0  0  0  0  0  0  0  0
    5.3439   24.7655  -37.1954 H   0  0  0  0  0  0  0  0  0  0  0  0
    4.7022   23.4029  -38.1743 H   0  0  0  0  0  0  0  0  0  0  0  0
    3.8540   24.9864  -38.1743 H   0  0  0  0  0  0  0  0  0  0  0  0
    3.0697   24.9212  -34.5703 H   0  0  0  0  0  0  0  0  0  0  0  0
    3.5887   25.9447  -35.9523 H   0  0  0  0  0  0  0  0  0  0  0  0
    1.9556   25.1966  -35.9523 H   0  0  0  0  0  0  0  0  0  0  0  0
    3.1662   20.7347  -36.4717 H   0  0  0  0  0  0  0  0  0  0  0  0
    2.7957   20.2459  -34.7636 H   0  0  0  0  0  0  0  0  0  0  0  0
    1.9144   18.8750  -37.3462 H   0  0  0  0  0  0  0  0  0  0  0  0
    2.9319   18.2106  -36.0223 H   0  0  0  0  0  0  0  0  0  0  0  0
   -2.9620   19.0890  -34.8860 H   0  0  0  0  0  0  0  0  0  0  0  0
   -2.8460   17.8860  -33.7000 H   0  0  0  0  0  0  0  0  0  0  0  0
   -0.2612   19.1047  -32.4439 H   0  0  0  0  0  0  0  0  0  0  0  0
   -0.0365   20.8716  -30.6652 H   0  0  0  0  0  0  0  0  0  0  0  0
   -1.4335   23.0556  -29.4368 H   0  0  0  0  0  0  0  0  0  0  0  0
   -3.5190   26.0190  -31.2180 H   0  0  0  0  0  0  0  0  0  0  0  0
   -8.8705   23.6880  -31.2778 H   0  0  0  0  0  0  0  0  0  0  0  0
   -7.6863   23.6109  -32.6263 H   0  0  0  0  0  0  0  0  0  0  0  0
   -9.1192   22.5277  -32.6263 H   0  0  0  0  0  0  0  0  0  0  0  0
   -8.5389   20.3029  -30.2217 H   0  0  0  0  0  0  0  0  0  0  0  0
   -9.3010   20.7787  -31.7772 H   0  0  0  0  0  0  0  0  0  0  0  0
   -7.7521   19.8690  -31.7772 H   0  0  0  0  0  0  0  0  0  0  0  0
   -7.6928   21.6628  -29.0817 H   0  0  0  0  0  0  0  0  0  0  0  0
   -6.2912   22.6532  -29.6121 H   0  0  0  0  0  0  0  0  0  0  0  0
   -7.9423   23.3608  -29.6121 H   0  0  0  0  0  0  0  0  0  0  0  0
   -4.2674   20.5563  -33.3813 H   0  0  0  0  0  0  0  0  0  0  0  0
   -0.8891   21.1100  -35.7340 H   0  0  0  0  0  0  0  0  0  0  0  0
   -0.0593   21.0978  -34.1252 H   0  0  0  0  0  0  0  0  0  0  0  0
  1  2  1  0
  2  3  1  0
  2  4  1  0
  2  5  1  0
  5  6  1  0
  6  7  2  0
  6  8  1  0
  8  9  1  0
  9 10  1  0
 10 11  1  0
 11 12  1  0
 12 13  1  0
 13 14  2  0
 14 15  1  0
 15 16  1  0
 16 17  2  0
 17 18  1  0
 18 19  2  0
 19 20  1  0
 20 21  2  0
 21 22  1  0
 22 23  1  0
 22 24  2  0
 21 25  1  0
 25 26  1  0
 26 27  2  0
 26 28  1  0
 28 29  1  0
 29 30  1  0
 29 31  1  0
 29 32  1  0
 25 33  1  0
 33 34  2  0
 14 35  1  0
 35 36  1  0
 36  8  1  0
 35 11  2  0
 34 16  1  0
 33 19  1  0
  1 37  1  0
  1 38  1  0
  1 39  1  0
  3 40  1  0
  3 41  1  0
  3 42  1  0
  4 43  1  0
  4 44  1  0
  4 45  1  0
  9 46  1  0
  9 47  1  0
 10 48  1  0
 10 49  1  0
 15 50  1  0
 15 51  1  0
 17 52  1  0
 18 53  1  0
 20 54  1  0
 23 55  1  0
 30 56  1  0
 30 57  1  0
 30 58  1  0
 31 59  1  0
 31 60  1  0
 31 61  1  0
 32 62  1  0
 32 63  1  0
 32 64  1  0
 34 65  1  0
 36 66  1  0
 36 67  1  0
M  CHG  3  12  -1  15   1  23  -1
M  END
>  <UniqueID>  (34) 
34

>  <SMILES>  (34) 
CC(C)(C)OC(=O)N1CCc2[n-]nc([NH2+]c3ccc4cc(C([NH-])=O)n(C(=O)OC(C)(C)C)c4c3)c2C1

>  <Energy>  (34) 
133.56439203404383

>  <Genealogy>  (34) 
CC(C)(C)OC(=O)N1CCc2[n-]nc([NH2+]c3ccc4cc(C([NH-])=O)n(C(=O)OC(C)(C)C)c4c3)c2C1 (protonated)
CC(C)(C)OC(=O)N1CCc2[n-]nc([NH2+]c3ccc4cc(C([NH-])=O)n(C(=O)OC(C)(C)C)c4c3)c2C1 (3D coordinates assigned)
CC(C)(C)OC(=O)N1CCc2[n-]nc([NH2+]c3ccc4cc(C([NH-])=O)n(C(=O)OC(C)(C)C)c4c3)c2C1 (nonaromatic ring conformer: 133.56439203404383 kcal/mol)

>  <smiles>  (34) 
CC(C)(C)OC(=O)N1CCc2[nH]nc(Nc3ccc4cc(C(N)=O)n(C(=O)OC(C)(C)C)c4c3)c2C1

>  <score_type>  (34) 
oracle

>  <origin>  (34) 
adg

>  <m_score__min__energy>  (34) 
-10.630000000000001

>  <m_primary>  (34) 
energy

$$$$
34:0
     RDKit          3D

 62 65  0  0  0  0  0  0  0  0999 V2000
   -4.2980   14.0540  -31.9670 C   0  0  0  0  0  0  0  0  0  0  0  0
   -3.1620   14.2540  -32.9890 C   0  0  0  0  0  0  0  0  0  0  0  0
   -2.1280   13.1200  -32.8500 C   0  0  0  0  0  0  0  0  0  0  0  0
   -2.4790   15.6110  -32.7410 C   0  0  0  0  0  0  0  0  0  0  0  0
   -3.8560   14.2350  -34.6490 S   0  0  0  0  0  0  0  0  0  0  0  0
   -2.9770   15.0300  -35.5750 O   0  0  0  0  0  0  0  0  0  0  0  0
   -3.9510   12.8190  -35.1440 O   0  0  0  0  0  0  0  0  0  0  0  0
   -5.4220   14.9280  -34.6030 O   0  0  0  0  0  0  0  0  0  0  0  0
   -5.7150   16.2080  -34.1140 C   0  0  0  0  0  0  0  0  0  0  0  0
   -5.0190   17.3580  -34.5210 C   0  0  0  0  0  0  0  0  0  0  0  0
   -5.3570   18.6110  -33.9970 C   0  0  0  0  0  0  0  0  0  0  0  0
   -6.4040   18.7340  -33.0740 C   0  0  0  0  0  0  0  0  0  0  0  0
   -6.7920   20.0600  -32.5540 C   0  0  0  0  0  0  0  0  0  0  0  0
   -8.1600   20.4200  -32.4600 C   0  0  0  0  0  0  0  0  0  0  0  0
   -8.5340   21.6780  -31.9620 C   0  0  0  0  0  0  0  0  0  0  0  0
   -7.5230   22.5510  -31.5660 C   0  0  0  0  0  0  0  0  0  0  0  0
   -7.6150   23.8080  -31.0150 C   0  0  0  0  0  0  0  0  0  0  0  0
   -6.3020   24.1880  -30.7590 C   0  0  0  0  0  0  0  0  0  0  0  0
   -5.9470   25.4750  -30.1410 C   0  0  0  0  0  0  0  0  0  0  0  0
   -6.3170   25.7610  -28.7940 N   0  0  0  0  0  0  0  0  0  0  0  0
   -5.3730   26.3590  -30.8300 O   0  0  0  0  0  0  0  0  0  0  0  0
   -5.4230   23.2250  -31.1620 N   0  0  0  0  0  0  0  0  0  0  0  0
   -3.9830   23.3030  -31.1680 C   0  0  0  0  0  0  0  0  0  0  0  0
   -3.2990   22.4300  -31.7670 O   0  0  0  0  0  0  0  0  0  0  0  0
   -3.3130   24.3580  -30.4690 N   0  0  0  0  0  0  0  0  0  0  0  0
   -2.6650   24.1900  -29.1720 C   0  0  0  0  0  0  0  0  0  0  0  0
   -3.5210   23.3570  -28.2280 C   0  0  0  0  0  0  0  0  0  0  0  0
   -2.5400   22.6700  -27.2920 C   0  0  0  0  0  0  0  0  0  0  0  0
   -1.2020   22.6130  -28.0290 C   0  0  0  0  0  0  0  0  0  0  0  0
   -1.3660   23.4120  -29.3190 C   0  0  0  0  0  0  0  0  0  0  0  0
   -6.1930   22.2210  -31.6490 C   0  0  0  0  0  0  0  0  0  0  0  0
   -5.7950   20.9690  -32.1360 C   0  0  0  0  0  0  0  0  0  0  0  0
   -7.1030   17.5880  -32.6740 C   0  0  0  0  0  0  0  0  0  0  0  0
   -6.7510   16.3350  -33.1840 C   0  0  0  0  0  0  0  0  0  0  0  0
   -3.8909   14.1257  -30.9476 H   0  0  0  0  0  0  0  0  0  0  0  0
   -5.0627   14.8313  -32.1120 H   0  0  0  0  0  0  0  0  0  0  0  0
   -4.7512   13.0622  -32.1120 H   0  0  0  0  0  0  0  0  0  0  0  0
   -1.9450   12.9193  -31.7841 H   0  0  0  0  0  0  0  0  0  0  0  0
   -2.5141   12.2104  -33.3334 H   0  0  0  0  0  0  0  0  0  0  0  0
   -1.1868   13.4207  -33.3334 H   0  0  0  0  0  0  0  0  0  0  0  0
   -2.3914   15.7850  -31.6584 H   0  0  0  0  0  0  0  0  0  0  0  0
   -1.4765   15.6051  -33.1937 H   0  0  0  0  0  0  0  0  0  0  0  0
   -3.0810   16.4127  -33.1937 H   0  0  0  0  0  0  0  0  0  0  0  0
   -4.2043   17.2735  -35.2552 H   0  0  0  0  0  0  0  0  0  0  0  0
   -4.7975   19.5043  -34.3116 H   0  0  0  0  0  0  0  0  0  0  0  0
   -8.9347   19.7077  -32.7799 H   0  0  0  0  0  0  0  0  0  0  0  0
   -9.5930   21.9658  -31.8867 H   0  0  0  0  0  0  0  0  0  0  0  0
   -8.5294   24.3873  -30.8192 H   0  0  0  0  0  0  0  0  0  0  0  0
   -6.0620   26.6760  -28.3590 H   0  0  0  0  0  0  0  0  0  0  0  0
   -6.8770   25.0730  -28.2400 H   0  0  0  0  0  0  0  0  0  0  0  0
   -2.5012   25.2044  -28.7794 H   0  0  0  0  0  0  0  0  0  0  0  0
   -4.2069   24.0026  -27.6599 H   0  0  0  0  0  0  0  0  0  0  0  0
   -4.1425   22.6312  -28.7730 H   0  0  0  0  0  0  0  0  0  0  0  0
   -2.4364   23.2464  -26.3608 H   0  0  0  0  0  0  0  0  0  0  0  0
   -2.8880   21.6620  -27.0220 H   0  0  0  0  0  0  0  0  0  0  0  0
   -0.4100   23.0571  -27.4081 H   0  0  0  0  0  0  0  0  0  0  0  0
   -0.9186   21.5726  -28.2462 H   0  0  0  0  0  0  0  0  0  0  0  0
   -0.5201   24.1029  -29.4501 H   0  0  0  0  0  0  0  0  0  0  0  0
   -1.3901   22.7528  -30.1993 H   0  0  0  0  0  0  0  0  0  0  0  0
   -4.7299   20.7000  -32.1916 H   0  0  0  0  0  0  0  0  0  0  0  0
   -7.9319   17.6743  -31.9560 H   0  0  0  0  0  0  0  0  0  0  0  0
   -7.2951   15.4392  -32.8499 H   0  0  0  0  0  0  0  0  0  0  0  0
  1  2  1  0
  2  3  1  0
  2  4  1  0
  2  5  1  0
  5  6  2  0
  5  7  2  0
  5  8  1  0
  8  9  1  0
  9 10  2  0
 10 11  1  0
 11 12  2  0
 12 13  1  0
 13 14  2  0
 14 15  1  0
 15 16  2  0
 16 17  1  0
 17 18  2  0
 18 19  1  0
 19 20  1  0
 19 21  2  0
 18 22  1  0
 22 23  1  0
 23 24  2  0
 23 25  1  0
 25 26  1  0
 26 27  1  0
 27 28  1  0
 28 29  1  0
 29 30  1  0
 22 31  1  0
 31 32  2  0
 12 33  1  0
 33 34  2  0
 34  9  1  0
 32 13  1  0
 31 16  1  0
 30 26  1  0
  1 35  1  0
  1 36  1  0
  1 37  1  0
  3 38  1  0
  3 39  1  0
  3 40  1  0
  4 41  1  0
  4 42  1  0
  4 43  1  0
 10 44  1  0
 11 45  1  0
 14 46  1  0
 15 47  1  0
 17 48  1  0
 20 49  1  0
 20 50  1  0
 26 51  1  0
 27 52  1  0
 27 53  1  0
 28 54  1  0
 28 55  1  0
 29 56  1  0
 29 57  1  0
 30 58  1  0
 30 59  1  0
 32 60  1  0
 33 61  1  0
 34 62  1  0
M  CHG  1  25  -1
M  END
>  <UniqueID>  (35) 
35

>  <SMILES>  (35) 
CC(C)(C)S(=O)(=O)Oc1ccc(-c2ccc3cc(C(N)=O)n(C(=O)[N-]C4CCCC4)c3c2)cc1

>  <Energy>  (35) 
101.36356902331471

>  <Genealogy>  (35) 
CC(C)(C)S(=O)(=O)Oc1ccc(-c2ccc3cc(C(N)=O)n(C(=O)[N-]C4CCCC4)c3c2)cc1 (protonated)
CC(C)(C)S(=O)(=O)Oc1ccc(-c2ccc3cc(C(N)=O)n(C(=O)[N-]C4CCCC4)c3c2)cc1 (3D coordinates assigned)
CC(C)(C)S(=O)(=O)Oc1ccc(-c2ccc3cc(C(N)=O)n(C(=O)[N-]C4CCCC4)c3c2)cc1 (nonaromatic ring conformer: 101.36356902331471 kcal/mol)

>  <smiles>  (35) 
CC(C)(C)S(=O)(=O)Oc1ccc(-c2ccc3cc(C(N)=O)n(C(=O)NC4CCCC4)c3c2)cc1

>  <score_type>  (35) 
oracle

>  <origin>  (35) 
adg

>  <m_score__min__energy>  (35) 
-11.699999999999999

>  <m_primary>  (35) 
energy

$$$$
35:0
     RDKit          3D

 33 35  0  0  0  0  0  0  0  0999 V2000
   -3.8690   25.3010  -30.5730 N   0  0  0  0  0  0  0  0  0  0  0  0
   -5.2720   25.1610  -30.3640 C   0  0  0  0  0  0  0  0  0  0  0  0
   -5.9040   26.0900  -29.7940 O   0  0  0  0  0  0  0  0  0  0  0  0
   -5.9970   23.9590  -30.8300 C   0  0  0  0  0  0  0  0  0  0  0  0
   -7.3850   23.8920  -30.9490 C   0  0  0  0  0  0  0  0  0  0  0  0
   -7.6470   22.6380  -31.4540 C   0  0  0  0  0  0  0  0  0  0  0  0
   -8.8620   22.0280  -31.7590 C   0  0  0  0  0  0  0  0  0  0  0  0
   -8.8310   20.7100  -32.2460 C   0  0  0  0  0  0  0  0  0  0  0  0
   -7.6000   20.0310  -32.4120 C   0  0  0  0  0  0  0  0  0  0  0  0
   -7.5840   18.6870  -32.9010 N   0  0  0  0  0  0  0  0  0  0  0  0
   -6.3890   20.6790  -32.0900 C   0  0  0  0  0  0  0  0  0  0  0  0
   -6.4480   21.9960  -31.6220 C   0  0  0  0  0  0  0  0  0  0  0  0
   -5.4270   22.7960  -31.2490 N   0  0  0  0  0  0  0  0  0  0  0  0
   -4.0380   22.4350  -31.2110 C   0  0  0  0  0  0  0  0  0  0  0  0
   -3.4090   22.3000  -32.2950 O   0  0  0  0  0  0  0  0  0  0  0  0
   -3.3390   22.2330  -29.9180 C   0  0  0  0  0  0  0  0  0  0  0  0
   -2.8170   20.9700  -29.5860 C   0  0  0  0  0  0  0  0  0  0  0  0
   -2.1570   20.7960  -28.3690 C   0  0  0  0  0  0  0  0  0  0  0  0
   -2.0250   21.8710  -27.4910 C   0  0  0  0  0  0  0  0  0  0  0  0
   -2.5620   23.1100  -27.8440 C   0  0  0  0  0  0  0  0  0  0  0  0
   -3.2040   23.2660  -29.0340 N   0  0  0  0  0  0  0  0  0  0  0  0
   -3.4930   26.0210  -31.2280 H   0  0  0  0  0  0  0  0  0  0  0  0
   -8.1150   24.6743  -30.6938 H   0  0  0  0  0  0  0  0  0  0  0  0
   -9.8147   22.5608  -31.6230 H   0  0  0  0  0  0  0  0  0  0  0  0
   -9.7724   20.2011  -32.5006 H   0  0  0  0  0  0  0  0  0  0  0  0
   -8.1550   18.4150  -33.7320 H   0  0  0  0  0  0  0  0  0  0  0  0
   -7.0020   17.9560  -32.4360 H   0  0  0  0  0  0  0  0  0  0  0  0
   -5.4244   20.1627  -32.2038 H   0  0  0  0  0  0  0  0  0  0  0  0
   -2.9283   20.1248  -30.2812 H   0  0  0  0  0  0  0  0  0  0  0  0
   -1.7417   19.8128  -28.1029 H   0  0  0  0  0  0  0  0  0  0  0  0
   -1.5035   21.7441  -26.5308 H   0  0  0  0  0  0  0  0  0  0  0  0
   -2.4660   23.9641  -27.1575 H   0  0  0  0  0  0  0  0  0  0  0  0
   -3.6040   24.2060  -29.2520 H   0  0  0  0  0  0  0  0  0  0  0  0
  1  2  1  0
  2  3  2  0
  2  4  1  0
  4  5  2  0
  5  6  1  0
  6  7  2  0
  7  8  1  0
  8  9  2  0
  9 10  1  0
  9 11  1  0
 11 12  2  0
 12 13  1  0
 13 14  1  0
 14 15  2  0
 14 16  1  0
 16 17  2  0
 17 18  1  0
 18 19  2  0
 19 20  1  0
 20 21  2  0
 13  4  1  0
 21 16  1  0
 12  6  1  0
  1 22  1  0
  5 23  1  0
  7 24  1  0
  8 25  1  0
 10 26  1  0
 10 27  1  0
 11 28  1  0
 17 29  1  0
 18 30  1  0
 19 31  1  0
 20 32  1  0
 21 33  1  0
M  CHG  2   1  -1  21   1
M  END
>  <UniqueID>  (36) 
36

>  <SMILES>  (36) 
[NH-]C(=O)c1cc2ccc(N)cc2n1C(=O)c1cccc[nH+]1

>  <Energy>  (36) 
75.72871272363997

>  <Genealogy>  (36) 
[NH-]C(=O)c1cc2ccc(N)cc2n1C(=O)c1cccc[nH+]1 (protonated)
[NH-]C(=O)c1cc2ccc(N)cc2n1C(=O)c1cccc[nH+]1 (3D coordinates assigned)
[NH-]C(=O)c1cc2ccc(N)cc2n1C(=O)c1cccc[nH+]1 (optimized conformer: 75.72871272363997 kcal/mol)

>  <smiles>  (36) 
NC(=O)c1cc2ccc(N)cc2n1C(=O)c1ccccn1

>  <score_type>  (36) 
oracle

>  <origin>  (36) 
adg

>  <m_score__min__energy>  (36) 
-8.8100000000000005

>  <m_primary>  (36) 
energy

$$$$
36:0
     RDKit          3D

 49 52  0  0  0  0  0  0  0  0999 V2000
    1.7550   23.4680  -36.8230 N   0  0  0  0  0  0  0  0  0  0  0  0
    1.5240   22.5090  -35.7950 C   0  0  0  0  0  0  0  0  0  0  0  0
    2.0540   22.6620  -34.6630 O   0  0  0  0  0  0  0  0  0  0  0  0
    0.6100   21.3500  -36.0450 C   0  0  0  0  0  0  0  0  0  0  0  0
    0.3550   20.6170  -34.8040 N   0  0  0  0  0  0  0  0  0  0  0  0
   -0.8670   19.8970  -34.5510 C   0  0  0  0  0  0  0  0  0  0  0  0
   -1.9700   20.5820  -34.0220 C   0  0  0  0  0  0  0  0  0  0  0  0
   -3.1680   19.9120  -33.7650 C   0  0  0  0  0  0  0  0  0  0  0  0
   -3.2920   18.5350  -34.0250 C   0  0  0  0  0  0  0  0  0  0  0  0
   -4.5850   17.8470  -33.7640 C   0  0  0  0  0  0  0  0  0  0  0  0
   -4.8050   16.5050  -34.1130 C   0  0  0  0  0  0  0  0  0  0  0  0
   -6.0510   15.9390  -33.8420 C   0  0  0  0  0  0  0  0  0  0  0  0
   -7.0220   16.6790  -33.2490 N   0  0  0  0  0  0  0  0  0  0  0  0
   -6.8040   17.9780  -32.9120 C   0  0  0  0  0  0  0  0  0  0  0  0
   -7.8400   18.7260  -32.2580 N   0  0  0  0  0  0  0  0  0  0  0  0
   -7.7470   20.1260  -31.9410 C   0  0  0  0  0  0  0  0  0  0  0  0
   -8.9260   20.9100  -31.9300 C   0  0  0  0  0  0  0  0  0  0  0  0
   -8.8760   22.2820  -31.6330 C   0  0  0  0  0  0  0  0  0  0  0  0
   -7.6330   22.8430  -31.3540 C   0  0  0  0  0  0  0  0  0  0  0  0
   -7.2950   24.1430  -31.0550 C   0  0  0  0  0  0  0  0  0  0  0  0
   -5.9130   24.1360  -30.8820 C   0  0  0  0  0  0  0  0  0  0  0  0
   -5.1430   25.3200  -30.4520 C   0  0  0  0  0  0  0  0  0  0  0  0
   -3.7190   25.2820  -30.3730 N   0  0  0  0  0  0  0  0  0  0  0  0
   -5.7520   26.3660  -30.1000 O   0  0  0  0  0  0  0  0  0  0  0  0
   -5.4130   22.8820  -31.0770 N   0  0  0  0  0  0  0  0  0  0  0  0
   -4.0370   22.4710  -31.0620 C   0  0  0  0  0  0  0  0  0  0  0  0
   -3.6480   21.5770  -30.2640 O   0  0  0  0  0  0  0  0  0  0  0  0
   -3.1250   23.0390  -31.9430 O   0  0  0  0  0  0  0  0  0  0  0  0
   -6.4800   22.1030  -31.3620 C   0  0  0  0  0  0  0  0  0  0  0  0
   -6.4990   20.7410  -31.6840 C   0  0  0  0  0  0  0  0  0  0  0  0
   -5.5890   18.5380  -33.1580 N   0  0  0  0  0  0  0  0  0  0  0  0
   -2.1880   17.8500  -34.5680 C   0  0  0  0  0  0  0  0  0  0  0  0
   -0.9890   18.5210  -34.8240 C   0  0  0  0  0  0  0  0  0  0  0  0
    0.9740   23.8010  -37.4310 H   0  0  0  0  0  0  0  0  0  0  0  0
   -0.3437   21.7221  -36.4474 H   0  0  0  0  0  0  0  0  0  0  0  0
    1.0884   20.6706  -36.7658 H   0  0  0  0  0  0  0  0  0  0  0  0
    1.0900   20.6120  -34.0600 H   0  0  0  0  0  0  0  0  0  0  0  0
   -1.8909   21.6579  -33.8073 H   0  0  0  0  0  0  0  0  0  0  0  0
   -4.0244   20.4672  -33.3546 H   0  0  0  0  0  0  0  0  0  0  0  0
   -4.0111   15.9119  -34.5904 H   0  0  0  0  0  0  0  0  0  0  0  0
   -6.2470   14.8902  -34.1096 H   0  0  0  0  0  0  0  0  0  0  0  0
   -8.6610   18.1920  -31.8920 H   0  0  0  0  0  0  0  0  0  0  0  0
   -9.8936   20.4386  -32.1570 H   0  0  0  0  0  0  0  0  0  0  0  0
   -9.7902   22.8937  -31.6213 H   0  0  0  0  0  0  0  0  0  0  0  0
   -7.9728   25.0052  -30.9705 H   0  0  0  0  0  0  0  0  0  0  0  0
   -3.1400   25.1010  -31.2220 H   0  0  0  0  0  0  0  0  0  0  0  0
   -5.5651   20.1621  -31.7361 H   0  0  0  0  0  0  0  0  0  0  0  0
   -2.2701   16.7764  -34.7929 H   0  0  0  0  0  0  0  0  0  0  0  0
   -0.1338   17.9698  -35.2421 H   0  0  0  0  0  0  0  0  0  0  0  0
  1  2  1  0
  2  3  2  0
  2  4  1  0
  4  5  1  0
  5  6  1  0
  6  7  2  0
  7  8  1  0
  8  9  2  0
  9 10  1  0
 10 11  2  0
 11 12  1  0
 12 13  2  0
 13 14  1  0
 14 15  1  0
 15 16  1  0
 16 17  2  0
 17 18  1  0
 18 19  2  0
 19 20  1  0
 20 21  2  0
 21 22  1  0
 22 23  1  0
 22 24  2  0
 21 25  1  0
 25 26  1  0
 26 27  2  0
 26 28  1  0
 25 29  1  0
 29 30  2  0
 14 31  2  0
  9 32  1  0
 32 33  2  0
 33  6  1  0
 31 10  1  0
 30 16  1  0
 29 19  1  0
  1 34  1  0
  4 35  1  0
  4 36  1  0
  5 37  1  0
  7 38  1  0
  8 39  1  0
 11 40  1  0
 12 41  1  0
 15 42  1  0
 17 43  1  0
 18 44  1  0
 20 45  1  0
 23 46  1  0
 30 47  1  0
 32 48  1  0
 33 49  1  0
M  CHG  3   1  -1  23  -1  28  -1
M  END
>  <UniqueID>  (37) 
37

>  <SMILES>  (37) 
[NH-]C(=O)CNc1ccc(-c2ccnc(Nc3ccc4cc(C([NH-])=O)n(C(=O)[O-])c4c3)n2)cc1

>  <Energy>  (37) 
99.01817181686694

>  <Genealogy>  (37) 
[NH-]C(=O)CNc1ccc(-c2ccnc(Nc3ccc4cc(C([NH-])=O)n(C(=O)[O-])c4c3)n2)cc1 (protonated)
[NH-]C(=O)CNc1ccc(-c2ccnc(Nc3ccc4cc(C([NH-])=O)n(C(=O)[O-])c4c3)n2)cc1 (3D coordinates assigned)
[NH-]C(=O)CNc1ccc(-c2ccnc(Nc3ccc4cc(C([NH-])=O)n(C(=O)[O-])c4c3)n2)cc1 (optimized conformer: 99.01817181686694 kcal/mol)

>  <smiles>  (37) 
NC(=O)CNc1ccc(-c2ccnc(Nc3ccc4cc(C(N)=O)n(C(=O)O)c4c3)n2)cc1

>  <score_type>  (37) 
oracle

>  <origin>  (37) 
adg

>  <m_score__min__energy>  (37) 
-13.07

>  <m_primary>  (37) 
energy

$$$$
37:0
     RDKit          3D

 69 72  0  0  0  0  0  0  0  0999 V2000
    0.9180   19.3520  -32.2570 C   0  0  0  0  0  0  0  0  0  0  0  0
   -0.4820   18.7260  -32.4000 C   0  0  0  0  0  0  0  0  0  0  0  0
   -0.4730   17.2590  -31.9320 C   0  0  0  0  0  0  0  0  0  0  0  0
   -1.4700   19.5160  -31.5290 C   0  0  0  0  0  0  0  0  0  0  0  0
   -0.9380   18.8230  -33.7560 O   0  0  0  0  0  0  0  0  0  0  0  0
   -2.2180   19.2130  -34.1760 C   0  0  0  0  0  0  0  0  0  0  0  0
   -2.5060   20.4300  -34.3310 O   0  0  0  0  0  0  0  0  0  0  0  0
   -3.2040   18.2030  -34.4180 N   0  0  0  0  0  0  0  0  0  0  0  0
   -4.5360   18.4930  -34.9500 C   0  0  0  0  0  0  0  0  0  0  0  0
   -5.6550   18.3760  -33.8900 C   0  0  2  0  0  0  0  0  0  0  0  0
   -5.9980   19.6940  -33.2050 C   0  0  0  0  0  0  0  0  0  0  0  0
   -7.3640   20.0280  -32.9930 C   0  0  0  0  0  0  0  0  0  0  0  0
   -7.7290   21.2290  -32.3650 C   0  0  0  0  0  0  0  0  0  0  0  0
   -6.7120   22.0780  -31.9410 C   0  0  0  0  0  0  0  0  0  0  0  0
   -6.7840   23.2720  -31.2600 C   0  0  0  0  0  0  0  0  0  0  0  0
   -5.4610   23.6520  -31.0450 C   0  0  0  0  0  0  0  0  0  0  0  0
   -5.0720   24.9210  -30.3940 C   0  0  0  0  0  0  0  0  0  0  0  0
   -3.8870   25.5980  -30.8060 N   0  0  0  0  0  0  0  0  0  0  0  0
   -5.7610   25.4030  -29.4580 O   0  0  0  0  0  0  0  0  0  0  0  0
   -4.6070   22.7290  -31.5700 N   0  0  0  0  0  0  0  0  0  0  0  0
   -3.1780   22.6760  -31.4320 C   0  0  0  0  0  0  0  0  0  0  0  0
   -2.4820   22.1860  -32.3620 O   0  0  0  0  0  0  0  0  0  0  0  0
   -2.5720   23.1910  -30.2740 O   0  0  0  0  0  0  0  0  0  0  0  0
   -2.5170   22.5440  -28.9920 C   0  0  0  0  0  0  0  0  0  0  0  0
   -3.0770   21.1110  -29.0800 C   0  0  0  0  0  0  0  0  0  0  0  0
   -1.0730   22.5330  -28.4580 C   0  0  0  0  0  0  0  0  0  0  0  0
   -3.3970   23.3550  -28.0280 C   0  0  0  0  0  0  0  0  0  0  0  0
   -5.3900   21.7780  -32.1260 C   0  0  0  0  0  0  0  0  0  0  0  0
   -4.9970   20.5930  -32.7570 C   0  0  0  0  0  0  0  0  0  0  0  0
   -5.4480   17.2290  -32.9230 C   0  0  0  0  0  0  0  0  0  0  0  0
   -5.9870   17.1540  -31.6330 C   0  0  0  0  0  0  0  0  0  0  0  0
   -5.6930   15.9680  -31.0480 N   0  0  0  0  0  0  0  0  0  0  0  0
   -4.9810   15.2890  -31.9580 C   0  0  0  0  0  0  0  0  0  0  0  0
   -4.4880   14.0340  -31.8280 N   0  0  0  0  0  0  0  0  0  0  0  0
   -3.8040   13.4930  -32.8820 C   0  0  0  0  0  0  0  0  0  0  0  0
   -3.6370   14.2390  -34.0720 C   0  0  0  0  0  0  0  0  0  0  0  0
   -4.1530   15.4990  -34.1660 N   0  0  0  0  0  0  0  0  0  0  0  0
   -4.8150   16.0100  -33.1000 C   0  0  0  0  0  0  0  0  0  0  0  0
    1.1634   19.4617  -31.1903 H   0  0  0  0  0  0  0  0  0  0  0  0
    1.6619   18.7008  -32.7393 H   0  0  0  0  0  0  0  0  0  0  0  0
    0.9286   20.3406  -32.7393 H   0  0  0  0  0  0  0  0  0  0  0  0
   -0.4728   17.2249  -30.8325 H   0  0  0  0  0  0  0  0  0  0  0  0
   -1.3680   16.7466  -32.3146 H   0  0  0  0  0  0  0  0  0  0  0  0
    0.4282   16.7576  -32.3146 H   0  0  0  0  0  0  0  0  0  0  0  0
   -1.2465   19.3373  -30.4669 H   0  0  0  0  0  0  0  0  0  0  0  0
   -1.3747   20.5897  -31.7482 H   0  0  0  0  0  0  0  0  0  0  0  0
   -2.4964   19.1868  -31.7482 H   0  0  0  0  0  0  0  0  0  0  0  0
   -3.0170   17.2420  -34.0580 H   0  0  0  0  0  0  0  0  0  0  0  0
   -4.5376   19.5185  -35.3480 H   0  0  0  0  0  0  0  0  0  0  0  0
   -4.7457   17.7461  -35.7299 H   0  0  0  0  0  0  0  0  0  0  0  0
   -6.5583   18.1161  -34.4615 H   0  0  0  0  0  0  0  0  0  0  0  0
   -8.1483   19.3329  -33.3271 H   0  0  0  0  0  0  0  0  0  0  0  0
   -8.7865   21.4907  -32.2128 H   0  0  0  0  0  0  0  0  0  0  0  0
   -7.6920   23.8109  -30.9515 H   0  0  0  0  0  0  0  0  0  0  0  0
   -2.9470   25.2820  -30.4810 H   0  0  0  0  0  0  0  0  0  0  0  0
   -3.2318   20.7149  -28.0655 H   0  0  0  0  0  0  0  0  0  0  0  0
   -4.0360   21.1245  -29.6186 H   0  0  0  0  0  0  0  0  0  0  0  0
   -2.3629   20.4707  -29.6186 H   0  0  0  0  0  0  0  0  0  0  0  0
   -1.0888   22.5331  -27.3581 H   0  0  0  0  0  0  0  0  0  0  0  0
   -0.5561   21.6309  -28.8172 H   0  0  0  0  0  0  0  0  0  0  0  0
   -0.5424   23.4271  -28.8172 H   0  0  0  0  0  0  0  0  0  0  0  0
   -3.1286   23.1076  -26.9903 H   0  0  0  0  0  0  0  0  0  0  0  0
   -3.2375   24.4294  -28.2018 H   0  0  0  0  0  0  0  0  0  0  0  0
   -4.4548   23.1085  -28.2018 H   0  0  0  0  0  0  0  0  0  0  0  0
   -3.9313   20.3628  -32.9030 H   0  0  0  0  0  0  0  0  0  0  0  0
   -6.5729   17.9539  -31.1566 H   0  0  0  0  0  0  0  0  0  0  0  0
   -5.9800   15.6460  -30.0970 H   0  0  0  0  0  0  0  0  0  0  0  0
   -3.3844   12.4791  -32.8041 H   0  0  0  0  0  0  0  0  0  0  0  0
   -3.0911   13.8035  -34.9219 H   0  0  0  0  0  0  0  0  0  0  0  0
  1  2  1  0
  2  3  1  0
  2  4  1  0
  2  5  1  0
  5  6  1  0
  6  7  2  0
  6  8  1  0
  8  9  1  0
  9 10  1  0
 10 11  1  0
 11 12  2  0
 12 13  1  0
 13 14  2  0
 14 15  1  0
 15 16  2  0
 16 17  1  0
 17 18  1  0
 17 19  2  0
 16 20  1  0
 20 21  1  0
 21 22  2  0
 21 23  1  0
 23 24  1  0
 24 25  1  0
 24 26  1  0
 24 27  1  0
 20 28  1  0
 28 29  2  0
 10 30  1  0
 30 31  2  0
 31 32  1  0
 32 33  1  0
 33 34  2  0
 34 35  1  0
 35 36  2  0
 36 37  1  0
 37 38  2  0
 29 11  1  0
 38 30  1  0
 28 14  1  0
 38 33  1  0
  1 39  1  0
  1 40  1  0
  1 41  1  0
  3 42  1  0
  3 43  1  0
  3 44  1  0
  4 45  1  0
  4 46  1  0
  4 47  1  0
  8 48  1  0
  9 49  1  0
  9 50  1  0
 10 51  1  6
 12 52  1  0
 13 53  1  0
 15 54  1  0
 18 55  1  0
 25 56  1  0
 25 57  1  0
 25 58  1  0
 26 59  1  0
 26 60  1  0
 26 61  1  0
 27 62  1  0
 27 63  1  0
 27 64  1  0
 29 65  1  0
 31 66  1  0
 32 67  1  0
 35 68  1  0
 36 69  1  0
M  CHG  1  18  -1
M  END
>  <UniqueID>  (38) 
38

>  <SMILES>  (38) 
CC(C)(C)OC(=O)NC[C@H](c1ccc2cc(C([NH-])=O)n(C(=O)OC(C)(C)C)c2c1)c1c[nH]c2nccnc12

>  <Energy>  (38) 
135.14356919506497

>  <Genealogy>  (38) 
CC(C)(C)OC(=O)NCC(c1ccc2cc(C([NH-])=O)n(C(=O)OC(C)(C)C)c2c1)c1c[nH]c2nccnc12 (protonated)
CC(C)(C)OC(=O)NC[C@H](c1ccc2cc(C([NH-])=O)n(C(=O)OC(C)(C)C)c2c1)c1c[nH]c2nccnc12 (chirality)
CC(C)(C)OC(=O)NC[C@H](c1ccc2cc(C([NH-])=O)n(C(=O)OC(C)(C)C)c2c1)c1c[nH]c2nccnc12 (3D coordinates assigned)
CC(C)(C)OC(=O)NC[C@H](c1ccc2cc(C([NH-])=O)n(C(=O)OC(C)(C)C)c2c1)c1c[nH]c2nccnc12 (optimized conformer: 135.14356919506497 kcal/mol)

>  <smiles>  (38) 
CC(C)(C)OC(=O)NCC(c1ccc2cc(C(N)=O)n(C(=O)OC(C)(C)C)c2c1)c1c[nH]c2nccnc12

>  <score_type>  (38) 
oracle

>  <origin>  (38) 
adg

>  <m_score__min__energy>  (38) 
-12.23

>  <m_primary>  (38) 
energy

$$$$
38:0
     RDKit          3D

 52 55  0  0  0  0  0  0  0  0999 V2000
   -4.0840   24.5430  -26.9460 C   0  0  0  0  0  0  0  0  0  0  0  0
   -2.7280   25.2010  -26.7540 C   0  0  0  0  0  0  0  0  0  0  0  0
   -2.0120   25.1940  -27.9850 O   0  0  0  0  0  0  0  0  0  0  0  0
   -1.2580   24.0980  -28.4140 C   0  0  0  0  0  0  0  0  0  0  0  0
   -0.1550   24.2780  -28.9970 O   0  0  0  0  0  0  0  0  0  0  0  0
   -1.7630   22.7250  -28.2380 C   0  0  0  0  0  0  0  0  0  0  0  0
   -1.4660   22.0160  -27.1130 N   0  0  0  0  0  0  0  0  0  0  0  0
   -1.9170   20.7430  -27.1650 C   0  0  0  0  0  0  0  0  0  0  0  0
   -2.7050   20.4320  -28.6170 S   0  0  0  0  0  0  0  0  0  0  0  0
   -2.4830   21.9920  -29.1900 C   0  0  0  0  0  0  0  0  0  0  0  0
   -2.9780   22.4480  -30.4520 N   0  0  0  0  0  0  0  0  0  0  0  0
   -3.8830   23.5440  -30.6150 C   0  0  0  0  0  0  0  0  0  0  0  0
   -3.4560   24.7230  -30.4890 O   0  0  0  0  0  0  0  0  0  0  0  0
   -5.2810   23.2980  -30.8670 N   0  0  0  0  0  0  0  0  0  0  0  0
   -6.3370   24.0930  -30.5300 C   0  0  0  0  0  0  0  0  0  0  0  0
   -6.2510   25.4390  -29.9420 C   0  0  0  0  0  0  0  0  0  0  0  0
   -5.3250   26.3970  -30.4510 N   0  0  0  0  0  0  0  0  0  0  0  0
   -7.0530   25.7700  -29.0300 O   0  0  0  0  0  0  0  0  0  0  0  0
   -7.5450   23.4590  -30.7970 C   0  0  0  0  0  0  0  0  0  0  0  0
   -7.2020   22.2470  -31.3480 C   0  0  0  0  0  0  0  0  0  0  0  0
   -8.0130   21.2310  -31.8420 C   0  0  0  0  0  0  0  0  0  0  0  0
   -7.3920   20.1040  -32.4010 C   0  0  0  0  0  0  0  0  0  0  0  0
   -5.9790   20.0110  -32.4640 C   0  0  0  0  0  0  0  0  0  0  0  0
   -5.3540   18.8670  -33.0770 N   0  0  0  0  0  0  0  0  0  0  0  0
   -4.0340   18.9940  -33.7060 C   0  0  0  0  0  0  0  0  0  0  0  0
   -3.7470   17.7870  -34.6100 C   0  0  0  0  0  0  0  0  0  0  0  0
   -4.9550   17.4020  -35.3500 N   0  0  0  0  0  0  0  0  0  0  0  0
   -6.0400   16.9340  -34.4630 C   0  0  0  0  0  0  0  0  0  0  0  0
   -6.0000   17.5500  -33.0490 C   0  0  0  0  0  0  0  0  0  0  0  0
   -5.1880   21.0680  -31.9570 C   0  0  0  0  0  0  0  0  0  0  0  0
   -5.8320   22.1720  -31.3840 C   0  0  0  0  0  0  0  0  0  0  0  0
   -4.5291   24.3270  -25.9636 H   0  0  0  0  0  0  0  0  0  0  0  0
   -4.7444   25.2208  -27.5067 H   0  0  0  0  0  0  0  0  0  0  0  0
   -3.9602   23.6048  -27.5067 H   0  0  0  0  0  0  0  0  0  0  0  0
   -2.8696   26.2392  -26.4193 H   0  0  0  0  0  0  0  0  0  0  0  0
   -2.1566   24.6434  -25.9973 H   0  0  0  0  0  0  0  0  0  0  0  0
   -1.7853   20.0048  -26.3602 H   0  0  0  0  0  0  0  0  0  0  0  0
   -5.2610   27.3470  -30.0220 H   0  0  0  0  0  0  0  0  0  0  0  0
   -4.7420   26.1820  -31.2910 H   0  0  0  0  0  0  0  0  0  0  0  0
   -8.5578   23.8443  -30.6080 H   0  0  0  0  0  0  0  0  0  0  0  0
   -9.1093   21.3087  -31.7958 H   0  0  0  0  0  0  0  0  0  0  0  0
   -8.0089   19.2829  -32.7950 H   0  0  0  0  0  0  0  0  0  0  0  0
   -4.0087   19.9125  -34.3107 H   0  0  0  0  0  0  0  0  0  0  0  0
   -3.2683   19.0360  -32.9174 H   0  0  0  0  0  0  0  0  0  0  0  0
   -2.9530   18.0501  -35.3244 H   0  0  0  0  0  0  0  0  0  0  0  0
   -3.4277   16.9408  -33.9840 H   0  0  0  0  0  0  0  0  0  0  0  0
   -5.2940   18.2350  -35.8880 H   0  0  0  0  0  0  0  0  0  0  0  0
   -7.0030   17.1936  -34.9269 H   0  0  0  0  0  0  0  0  0  0  0  0
   -5.9086   15.8485  -34.3426 H   0  0  0  0  0  0  0  0  0  0  0  0
   -7.0280   17.6596  -32.6733 H   0  0  0  0  0  0  0  0  0  0  0  0
   -5.4223   16.8859  -32.3893 H   0  0  0  0  0  0  0  0  0  0  0  0
   -4.0902   21.0241  -32.0115 H   0  0  0  0  0  0  0  0  0  0  0  0
  1  2  1  0
  2  3  1  0
  3  4  1  0
  4  5  2  0
  4  6  1  0
  6  7  1  0
  7  8  2  0
  8  9  1  0
  9 10  1  0
 10 11  1  0
 11 12  1  0
 12 13  2  0
 12 14  1  0
 14 15  1  0
 15 16  1  0
 16 17  1  0
 16 18  2  0
 15 19  2  0
 19 20  1  0
 20 21  2  0
 21 22  1  0
 22 23  2  0
 23 24  1  0
 24 25  1  0
 25 26  1  0
 26 27  1  0
 27 28  1  0
 28 29  1  0
 23 30  1  0
 30 31  2  0
 10  6  2  0
 31 14  1  0
 31 20  1  0
 29 24  1  0
  1 32  1  0
  1 33  1  0
  1 34  1  0
  2 35  1  0
  2 36  1  0
  8 37  1  0
 17 38  1  0
 17 39  1  0
 19 40  1  0
 21 41  1  0
 22 42  1  0
 25 43  1  0
 25 44  1  0
 26 45  1  0
 26 46  1  0
 27 47  1  0
 28 48  1  0
 28 49  1  0
 29 50  1  0
 29 51  1  0
 30 52  1  0
M  CHG  1  11  -1
M  END
>  <UniqueID>  (39) 
39

>  <SMILES>  (39) 
CCOC(=O)c1ncsc1[N-]C(=O)n1c(C(N)=O)cc2ccc(N3CCNCC3)cc21

>  <Energy>  (39) 
134.2070028831969

>  <Genealogy>  (39) 
CCOC(=O)c1ncsc1[N-]C(=O)n1c(C(N)=O)cc2ccc(N3CCNCC3)cc21 (protonated)
CCOC(=O)c1ncsc1[N-]C(=O)n1c(C(N)=O)cc2ccc(N3CCNCC3)cc21 (3D coordinates assigned)
CCOC(=O)c1ncsc1[N-]C(=O)n1c(C(N)=O)cc2ccc(N3CCNCC3)cc21 (nonaromatic ring conformer: 134.2070028831969 kcal/mol)

>  <smiles>  (39) 
CCOC(=O)c1ncsc1NC(=O)n1c(C(N)=O)cc2ccc(N3CCNCC3)cc21

>  <score_type>  (39) 
oracle

>  <origin>  (39) 
adg

>  <m_score__min__energy>  (39) 
-11.26

>  <m_primary>  (39) 
energy

$$$$
39:0
     RDKit          3D

 40 41  0  0  0  0  0  0  0  0999 V2000
   -2.8300   21.2620  -28.9810 C   0  0  0  0  0  0  0  0  0  0  0  0
   -2.8460   22.8000  -28.9410 C   0  0  0  0  0  0  0  0  0  0  0  0
   -4.0110   23.2690  -28.0460 C   0  0  0  0  0  0  0  0  0  0  0  0
   -1.4910   23.2900  -28.3850 C   0  0  0  0  0  0  0  0  0  0  0  0
   -3.0470   23.2540  -30.2880 O   0  0  0  0  0  0  0  0  0  0  0  0
   -3.8070   22.6160  -31.2820 C   0  0  0  0  0  0  0  0  0  0  0  0
   -3.2360   22.0230  -32.2400 O   0  0  0  0  0  0  0  0  0  0  0  0
   -5.2490   22.6790  -31.2200 N   0  0  0  0  0  0  0  0  0  0  0  0
   -6.0090   23.7790  -30.9380 C   0  0  0  0  0  0  0  0  0  0  0  0
   -5.5190   25.0670  -30.4050 C   0  0  0  0  0  0  0  0  0  0  0  0
   -4.1920   25.5250  -30.6870 N   0  0  0  0  0  0  0  0  0  0  0  0
   -6.2650   25.7450  -29.6420 O   0  0  0  0  0  0  0  0  0  0  0  0
   -7.3560   23.5340  -31.1850 C   0  0  0  0  0  0  0  0  0  0  0  0
   -7.4150   22.2270  -31.6040 C   0  0  0  0  0  0  0  0  0  0  0  0
   -8.5190   21.4680  -31.9820 C   0  0  0  0  0  0  0  0  0  0  0  0
   -8.3000   20.1390  -32.3810 C   0  0  0  0  0  0  0  0  0  0  0  0
   -6.9900   19.6040  -32.4140 C   0  0  0  0  0  0  0  0  0  0  0  0
   -6.7740   18.1650  -32.7950 C   0  0  0  0  0  0  0  0  0  0  0  0
   -5.9470   18.0710  -34.0440 C   0  0  0  0  0  0  0  0  0  0  0  0
   -6.0780   18.8940  -34.9370 O   0  0  0  0  0  0  0  0  0  0  0  0
   -5.8900   20.4060  -32.0280 C   0  0  0  0  0  0  0  0  0  0  0  0
   -6.1350   21.7270  -31.6170 C   0  0  0  0  0  0  0  0  0  0  0  0
   -2.8259   20.8685  -27.9538 H   0  0  0  0  0  0  0  0  0  0  0  0
   -3.7244   20.8996  -29.5089 H   0  0  0  0  0  0  0  0  0  0  0  0
   -1.9282   20.9183  -29.5089 H   0  0  0  0  0  0  0  0  0  0  0  0
   -3.7297   23.1557  -26.9886 H   0  0  0  0  0  0  0  0  0  0  0  0
   -4.2318   24.3261  -28.2555 H   0  0  0  0  0  0  0  0  0  0  0  0
   -4.9026   22.6597  -28.2555 H   0  0  0  0  0  0  0  0  0  0  0  0
   -1.5204   23.2794  -27.2854 H   0  0  0  0  0  0  0  0  0  0  0  0
   -0.6883   22.6252  -28.7368 H   0  0  0  0  0  0  0  0  0  0  0  0
   -1.2992   24.3144  -28.7368 H   0  0  0  0  0  0  0  0  0  0  0  0
   -3.8650   26.4500  -30.3240 H   0  0  0  0  0  0  0  0  0  0  0  0
   -3.5260   24.9220  -31.2220 H   0  0  0  0  0  0  0  0  0  0  0  0
   -8.1945   24.2366  -31.0695 H   0  0  0  0  0  0  0  0  0  0  0  0
   -9.5322   21.8960  -31.9687 H   0  0  0  0  0  0  0  0  0  0  0  0
   -9.1539   19.5087  -32.6703 H   0  0  0  0  0  0  0  0  0  0  0  0
   -6.2529   17.6478  -31.9759 H   0  0  0  0  0  0  0  0  0  0  0  0
   -7.7513   17.6948  -32.9789 H   0  0  0  0  0  0  0  0  0  0  0  0
   -5.2177   17.2551  -34.1560 H   0  0  0  0  0  0  0  0  0  0  0  0
   -4.8662   20.0043  -32.0492 H   0  0  0  0  0  0  0  0  0  0  0  0
  1  2  1  0
  2  3  1  0
  2  4  1  0
  2  5  1  0
  5  6  1  0
  6  7  2  0
  6  8  1  0
  8  9  1  0
  9 10  1  0
 10 11  1  0
 10 12  2  0
  9 13  2  0
 13 14  1  0
 14 15  2  0
 15 16  1  0
 16 17  2  0
 17 18  1  0
 18 19  1  0
 19 20  2  0
 17 21  1  0
 21 22  2  0
 22  8  1  0
 22 14  1  0
  1 23  1  0
  1 24  1  0
  1 25  1  0
  3 26  1  0
  3 27  1  0
  3 28  1  0
  4 29  1  0
  4 30  1  0
  4 31  1  0
 11 32  1  0
 11 33  1  0
 13 34  1  0
 15 35  1  0
 16 36  1  0
 18 37  1  0
 18 38  1  0
 19 39  1  0
 21 40  1  0
M  END
>  <UniqueID>  (40) 
40

>  <SMILES>  (40) 
CC(C)(C)OC(=O)n1c(C(N)=O)cc2ccc(CC=O)cc21

>  <Energy>  (40) 
73.3957120075311

>  <Genealogy>  (40) 
CC(C)(C)OC(=O)n1c(C(N)=O)cc2ccc(CC=O)cc21 (3D coordinates assigned)
CC(C)(C)OC(=O)n1c(C(N)=O)cc2ccc(CC=O)cc21 (optimized conformer: 73.3957120075311 kcal/mol)

>  <smiles>  (40) 
CC(C)(C)OC(=O)n1c(C(N)=O)cc2ccc(CC=O)cc21

>  <score_type>  (40) 
oracle

>  <origin>  (40) 
adg

>  <m_score__min__energy>  (40) 
-8.7300000000000004

>  <m_primary>  (40) 
energy

$$$$
40:0
     RDKit          3D

 41 43  0  0  0  0  0  0  0  0999 V2000
   -6.4880   16.0990  -33.8560 C   0  0  0  0  0  0  0  0  0  0  0  0
   -7.2480   16.7430  -32.8380 O   0  0  0  0  0  0  0  0  0  0  0  0
   -7.2650   18.1280  -32.6190 C   0  0  0  0  0  0  0  0  0  0  0  0
   -8.4420   18.8900  -32.7070 C   0  0  0  0  0  0  0  0  0  0  0  0
   -8.4090   20.2670  -32.4820 C   0  0  0  0  0  0  0  0  0  0  0  0
   -7.1990   20.9140  -32.1640 C   0  0  0  0  0  0  0  0  0  0  0  0
   -7.1360   22.3030  -31.9650 O   0  0  0  0  0  0  0  0  0  0  0  0
   -8.2630   23.1720  -31.9560 C   0  0  0  0  0  0  0  0  0  0  0  0
   -6.0170   20.1490  -32.0600 C   0  0  0  0  0  0  0  0  0  0  0  0
   -4.7240   20.7840  -31.7070 C   0  0  0  0  0  0  0  0  0  0  0  0
   -3.5160   20.3010  -32.2730 C   0  0  0  0  0  0  0  0  0  0  0  0
   -2.2810   20.8830  -31.9370 C   0  0  0  0  0  0  0  0  0  0  0  0
   -2.2850   21.9440  -31.0370 C   0  0  0  0  0  0  0  0  0  0  0  0
   -1.2380   22.6770  -30.5260 C   0  0  0  0  0  0  0  0  0  0  0  0
   -1.8210   23.6050  -29.6650 C   0  0  0  0  0  0  0  0  0  0  0  0
   -1.0630   24.6640  -28.9670 C   0  0  0  0  0  0  0  0  0  0  0  0
   -1.6110   25.9760  -28.8610 N   0  0  0  0  0  0  0  0  0  0  0  0
    0.0500   24.4150  -28.4360 O   0  0  0  0  0  0  0  0  0  0  0  0
   -3.1750   23.4440  -29.6380 N   0  0  0  0  0  0  0  0  0  0  0  0
   -4.1340   24.1570  -28.8400 C   0  0  0  0  0  0  0  0  0  0  0  0
   -3.7190   24.8690  -27.6750 N   0  0  0  0  0  0  0  0  0  0  0  0
   -5.3550   24.1270  -29.1490 O   0  0  0  0  0  0  0  0  0  0  0  0
   -3.4420   22.4290  -30.4870 C   0  0  0  0  0  0  0  0  0  0  0  0
   -4.6830   21.8590  -30.7900 C   0  0  0  0  0  0  0  0  0  0  0  0
   -6.0630   18.7650  -32.2980 C   0  0  0  0  0  0  0  0  0  0  0  0
   -5.7268   15.4540  -33.3927 H   0  0  0  0  0  0  0  0  0  0  0  0
   -7.1557   15.4876  -34.4807 H   0  0  0  0  0  0  0  0  0  0  0  0
   -5.9945   16.8580  -34.4807 H   0  0  0  0  0  0  0  0  0  0  0  0
   -9.3946   18.3988  -32.9545 H   0  0  0  0  0  0  0  0  0  0  0  0
   -9.3372   20.8529  -32.5537 H   0  0  0  0  0  0  0  0  0  0  0  0
   -8.5482   23.3919  -30.9166 H   0  0  0  0  0  0  0  0  0  0  0  0
   -8.0075   24.1092  -32.4722 H   0  0  0  0  0  0  0  0  0  0  0  0
   -9.1044   22.6866  -32.4722 H   0  0  0  0  0  0  0  0  0  0  0  0
   -3.5460   19.4614  -32.9830 H   0  0  0  0  0  0  0  0  0  0  0  0
   -1.3415   20.5113  -32.3719 H   0  0  0  0  0  0  0  0  0  0  0  0
   -0.1678   22.5560  -30.7498 H   0  0  0  0  0  0  0  0  0  0  0  0
   -1.1570   26.7870  -29.3360 H   0  0  0  0  0  0  0  0  0  0  0  0
   -2.7260   24.8330  -27.3560 H   0  0  0  0  0  0  0  0  0  0  0  0
   -4.4160   25.3990  -27.1050 H   0  0  0  0  0  0  0  0  0  0  0  0
   -5.6052   22.2384  -30.3256 H   0  0  0  0  0  0  0  0  0  0  0  0
   -5.1382   18.1733  -32.2306 H   0  0  0  0  0  0  0  0  0  0  0  0
  1  2  1  0
  2  3  1  0
  3  4  2  0
  4  5  1  0
  5  6  2  0
  6  7  1  0
  7  8  1  0
  6  9  1  0
  9 10  1  0
 10 11  2  0
 11 12  1  0
 12 13  2  0
 13 14  1  0
 14 15  2  0
 15 16  1  0
 16 17  1  0
 16 18  2  0
 15 19  1  0
 19 20  1  0
 20 21  1  0
 20 22  2  0
 19 23  1  0
 23 24  2  0
  9 25  2  0
 25  3  1  0
 24 10  1  0
 23 13  1  0
  1 26  1  0
  1 27  1  0
  1 28  1  0
  4 29  1  0
  5 30  1  0
  8 31  1  0
  8 32  1  0
  8 33  1  0
 11 34  1  0
 12 35  1  0
 14 36  1  0
 17 37  1  0
 21 38  1  0
 21 39  1  0
 24 40  1  0
 25 41  1  0
M  CHG  1  17  -1
M  END
>  <UniqueID>  (41) 
41

>  <SMILES>  (41) 
COc1ccc(OC)c(-c2ccc3cc(C([NH-])=O)n(C(N)=O)c3c2)c1

>  <Energy>  (41) 
86.70988695334967

>  <Genealogy>  (41) 
COc1ccc(OC)c(-c2ccc3cc(C([NH-])=O)n(C(N)=O)c3c2)c1 (protonated)
COc1ccc(OC)c(-c2ccc3cc(C([NH-])=O)n(C(N)=O)c3c2)c1 (3D coordinates assigned)
COc1ccc(OC)c(-c2ccc3cc(C([NH-])=O)n(C(N)=O)c3c2)c1 (optimized conformer: 86.70988695334967 kcal/mol)

>  <smiles>  (41) 
COc1ccc(OC)c(-c2ccc3cc(C(N)=O)n(C(N)=O)c3c2)c1

>  <score_type>  (41) 
oracle

>  <origin>  (41) 
adg

>  <m_score__min__energy>  (41) 
-10.199999999999999

>  <m_primary>  (41) 
energy

$$$$
41:0
     RDKit          3D

 51 53  0  0  0  0  0  0  0  0999 V2000
   -4.2650   16.7660  -32.7330 C   0  0  0  0  0  0  0  0  0  0  0  0
   -5.0630   16.5470  -33.9520 N   0  0  0  0  0  0  0  0  0  0  0  0
   -4.8970   17.6560  -34.9290 C   0  0  0  0  0  0  0  0  0  0  0  0
   -6.0990   18.6180  -34.9910 C   0  0  0  0  0  0  0  0  0  0  0  0
   -6.7470   18.7070  -33.6790 N   0  0  0  0  0  0  0  0  0  0  0  0
   -6.9030   19.9710  -33.0060 C   0  0  0  0  0  0  0  0  0  0  0  0
   -8.1940   20.4300  -32.6400 C   0  0  0  0  0  0  0  0  0  0  0  0
   -8.3570   21.6460  -31.9560 C   0  0  0  0  0  0  0  0  0  0  0  0
   -7.2160   22.3820  -31.6520 C   0  0  0  0  0  0  0  0  0  0  0  0
   -7.0830   23.5670  -30.9660 C   0  0  0  0  0  0  0  0  0  0  0  0
   -5.7140   23.8250  -30.9360 C   0  0  0  0  0  0  0  0  0  0  0  0
   -5.1300   25.0520  -30.3560 C   0  0  0  0  0  0  0  0  0  0  0  0
   -3.9050   25.5860  -30.8500 N   0  0  0  0  0  0  0  0  0  0  0  0
   -5.7470   25.6660  -29.4440 O   0  0  0  0  0  0  0  0  0  0  0  0
   -5.0260   22.8350  -31.5710 N   0  0  0  0  0  0  0  0  0  0  0  0
   -3.6030   22.6770  -31.6660 C   0  0  0  0  0  0  0  0  0  0  0  0
   -2.8610   23.1400  -30.7580 O   0  0  0  0  0  0  0  0  0  0  0  0
   -3.0550   22.0290  -32.7840 O   0  0  0  0  0  0  0  0  0  0  0  0
   -2.2470   20.8420  -32.7690 C   0  0  0  0  0  0  0  0  0  0  0  0
   -0.7870   21.1780  -33.1280 C   0  0  0  0  0  0  0  0  0  0  0  0
   -2.3240   20.1490  -31.3960 C   0  0  0  0  0  0  0  0  0  0  0  0
   -2.8160   19.8950  -33.8360 C   0  0  0  0  0  0  0  0  0  0  0  0
   -5.9610   21.9600  -32.0060 C   0  0  0  0  0  0  0  0  0  0  0  0
   -5.7680   20.7440  -32.6710 C   0  0  0  0  0  0  0  0  0  0  0  0
   -7.1980   17.4690  -33.0360 C   0  0  0  0  0  0  0  0  0  0  0  0
   -6.4780   16.2490  -33.6390 C   0  0  0  0  0  0  0  0  0  0  0  0
   -4.8939   16.5934  -31.8471 H   0  0  0  0  0  0  0  0  0  0  0  0
   -3.4150   16.0679  -32.7209 H   0  0  0  0  0  0  0  0  0  0  0  0
   -3.8904   17.8002  -32.7209 H   0  0  0  0  0  0  0  0  0  0  0  0
   -4.0045   18.2344  -34.6482 H   0  0  0  0  0  0  0  0  0  0  0  0
   -4.8054   17.1947  -35.9234 H   0  0  0  0  0  0  0  0  0  0  0  0
   -5.7495   19.6167  -35.2917 H   0  0  0  0  0  0  0  0  0  0  0  0
   -6.8253   18.2367  -35.7239 H   0  0  0  0  0  0  0  0  0  0  0  0
   -9.0779   19.8268  -32.8947 H   0  0  0  0  0  0  0  0  0  0  0  0
   -9.3563   22.0055  -31.6694 H   0  0  0  0  0  0  0  0  0  0  0  0
   -7.8868   24.1806  -30.5331 H   0  0  0  0  0  0  0  0  0  0  0  0
   -2.9870   25.2780  -30.4590 H   0  0  0  0  0  0  0  0  0  0  0  0
   -0.2040   21.3122  -32.2049 H   0  0  0  0  0  0  0  0  0  0  0  0
   -0.3558   20.3556  -33.7177 H   0  0  0  0  0  0  0  0  0  0  0  0
   -0.7587   22.1061  -33.7177 H   0  0  0  0  0  0  0  0  0  0  0  0
   -2.2402   20.9030  -30.5995 H   0  0  0  0  0  0  0  0  0  0  0  0
   -3.2860   19.6237  -31.3039 H   0  0  0  0  0  0  0  0  0  0  0  0
   -1.5007   19.4253  -31.3039 H   0  0  0  0  0  0  0  0  0  0  0  0
   -3.3229   19.0514  -33.3447 H   0  0  0  0  0  0  0  0  0  0  0  0
   -3.5362   20.4403  -34.4637 H   0  0  0  0  0  0  0  0  0  0  0  0
   -1.9964   19.5151  -34.4637 H   0  0  0  0  0  0  0  0  0  0  0  0
   -4.7559   20.3975  -32.9272 H   0  0  0  0  0  0  0  0  0  0  0  0
   -6.9798   17.5212  -31.9591 H   0  0  0  0  0  0  0  0  0  0  0  0
   -8.2799   17.3585  -33.2013 H   0  0  0  0  0  0  0  0  0  0  0  0
   -6.5163   15.4200  -32.9170 H   0  0  0  0  0  0  0  0  0  0  0  0
   -6.9868   15.9799  -34.5764 H   0  0  0  0  0  0  0  0  0  0  0  0
  1  2  1  0
  2  3  1  0
  3  4  1  0
  4  5  1  0
  5  6  1  0
  6  7  2  0
  7  8  1  0
  8  9  2  0
  9 10  1  0
 10 11  2  0
 11 12  1  0
 12 13  1  0
 12 14  2  0
 11 15  1  0
 15 16  1  0
 16 17  2  0
 16 18  1  0
 18 19  1  0
 19 20  1  0
 19 21  1  0
 19 22  1  0
 15 23  1  0
 23 24  2  0
  5 25  1  0
 25 26  1  0
 26  2  1  0
 24  6  1  0
 23  9  1  0
  1 27  1  0
  1 28  1  0
  1 29  1  0
  3 30  1  0
  3 31  1  0
  4 32  1  0
  4 33  1  0
  7 34  1  0
  8 35  1  0
 10 36  1  0
 13 37  1  0
 20 38  1  0
 20 39  1  0
 20 40  1  0
 21 41  1  0
 21 42  1  0
 21 43  1  0
 22 44  1  0
 22 45  1  0
 22 46  1  0
 24 47  1  0
 25 48  1  0
 25 49  1  0
 26 50  1  0
 26 51  1  0
M  CHG  1  13  -1
M  END
>  <UniqueID>  (42) 
42

>  <SMILES>  (42) 
CN1CCN(c2ccc3cc(C([NH-])=O)n(C(=O)OC(C)(C)C)c3c2)CC1

>  <Energy>  (42) 
96.95879826819562

>  <Genealogy>  (42) 
CN1CCN(c2ccc3cc(C([NH-])=O)n(C(=O)OC(C)(C)C)c3c2)CC1 (protonated)
CN1CCN(c2ccc3cc(C([NH-])=O)n(C(=O)OC(C)(C)C)c3c2)CC1 (3D coordinates assigned)
CN1CCN(c2ccc3cc(C([NH-])=O)n(C(=O)OC(C)(C)C)c3c2)CC1 (nonaromatic ring conformer: 96.95879826819562 kcal/mol)

>  <smiles>  (42) 
CN1CCN(c2ccc3cc(C(N)=O)n(C(=O)OC(C)(C)C)c3c2)CC1

>  <score_type>  (42) 
oracle

>  <origin>  (42) 
adg

>  <m_score__min__energy>  (42) 
-10.99

>  <m_primary>  (42) 
energy

$$$$
42:0
     RDKit          3D

 50 54  0  0  0  0  0  0  0  0999 V2000
   -2.6790   23.3460  -30.4350 N   0  0  0  0  0  0  0  0  0  0  0  0
   -3.9080   24.0360  -30.6620 C   0  0  0  0  0  0  0  0  0  0  0  0
   -3.9440   25.2870  -30.5120 O   0  0  0  0  0  0  0  0  0  0  0  0
   -5.1240   23.2980  -31.0760 C   0  0  0  0  0  0  0  0  0  0  0  0
   -6.3570   23.8980  -31.3380 C   0  0  0  0  0  0  0  0  0  0  0  0
   -7.2150   22.8610  -31.6280 C   0  0  0  0  0  0  0  0  0  0  0  0
   -8.5680   22.8800  -31.9600 C   0  0  0  0  0  0  0  0  0  0  0  0
   -9.1980   21.6510  -32.2280 C   0  0  0  0  0  0  0  0  0  0  0  0
   -8.4640   20.4410  -32.1780 C   0  0  0  0  0  0  0  0  0  0  0  0
   -9.1060   19.1990  -32.4760 N   0  0  0  0  0  0  0  0  0  0  0  0
   -7.0930   20.4620  -31.8420 C   0  0  0  0  0  0  0  0  0  0  0  0
   -6.5020   21.6940  -31.5440 C   0  0  0  0  0  0  0  0  0  0  0  0
   -5.2220   21.9440  -31.1910 N   0  0  0  0  0  0  0  0  0  0  0  0
   -4.1880   20.9670  -30.9800 C   0  0  0  0  0  0  0  0  0  0  0  0
   -3.8640   20.6470  -29.8040 O   0  0  0  0  0  0  0  0  0  0  0  0
   -3.5120   20.3360  -32.1330 C   0  0  0  0  0  0  0  0  0  0  0  0
   -4.1520   19.3590  -32.9130 C   0  0  0  0  0  0  0  0  0  0  0  0
   -3.4610   18.7670  -33.9730 C   0  0  0  0  0  0  0  0  0  0  0  0
   -2.1490   19.1530  -34.2510 C   0  0  0  0  0  0  0  0  0  0  0  0
   -1.5450   20.1350  -33.4620 C   0  0  0  0  0  0  0  0  0  0  0  0
    0.1380   20.6610  -33.7860 S   0  0  0  0  0  0  0  0  0  0  0  0
    0.8300   19.9180  -32.2700 C   0  0  0  0  0  0  0  0  0  0  0  0
    0.2190   20.5400  -31.0530 C   0  0  0  0  0  0  0  0  0  0  0  0
   -0.1220   21.8780  -30.8900 C   0  0  0  0  0  0  0  0  0  0  0  0
   -0.6440   22.0710  -29.6910 O   0  0  0  0  0  0  0  0  0  0  0  0
   -0.6500   20.9150  -29.0680 C   0  0  0  0  0  0  0  0  0  0  0  0
   -1.1130   20.6470  -27.7820 C   0  0  0  0  0  0  0  0  0  0  0  0
   -1.0180   19.3280  -27.3120 C   0  0  0  0  0  0  0  0  0  0  0  0
   -0.4560   18.3180  -28.1230 C   0  0  0  0  0  0  0  0  0  0  0  0
    0.0030   18.6160  -29.4190 C   0  0  0  0  0  0  0  0  0  0  0  0
   -0.1160   19.9330  -29.8620 C   0  0  0  0  0  0  0  0  0  0  0  0
   -2.2360   20.7000  -32.4380 N   0  0  0  0  0  0  0  0  0  0  0  0
   -1.8220   23.8720  -30.1530 H   0  0  0  0  0  0  0  0  0  0  0  0
   -2.6280   22.3050  -30.4810 H   0  0  0  0  0  0  0  0  0  0  0  0
   -6.5931   24.9722  -31.3172 H   0  0  0  0  0  0  0  0  0  0  0  0
   -9.1262   23.8265  -32.0110 H   0  0  0  0  0  0  0  0  0  0  0  0
  -10.2689   21.6298  -32.4783 H   0  0  0  0  0  0  0  0  0  0  0  0
   -9.5370   18.6230  -31.7170 H   0  0  0  0  0  0  0  0  0  0  0  0
   -9.1680   18.8540  -33.4620 H   0  0  0  0  0  0  0  0  0  0  0  0
   -6.5046   19.5330  -31.8153 H   0  0  0  0  0  0  0  0  0  0  0  0
   -5.1879   19.0627  -32.6913 H   0  0  0  0  0  0  0  0  0  0  0  0
   -3.9505   17.9974  -34.5879 H   0  0  0  0  0  0  0  0  0  0  0  0
   -1.5968   18.6894  -35.0818 H   0  0  0  0  0  0  0  0  0  0  0  0
    0.6203   18.8382  -32.2683 H   0  0  0  0  0  0  0  0  0  0  0  0
    1.9156   20.0945  -32.2518 H   0  0  0  0  0  0  0  0  0  0  0  0
    0.0217   22.6618  -31.6483 H   0  0  0  0  0  0  0  0  0  0  0  0
   -1.5395   21.4437  -27.1548 H   0  0  0  0  0  0  0  0  0  0  0  0
   -1.3839   19.0793  -26.3049 H   0  0  0  0  0  0  0  0  0  0  0  0
   -0.3765   17.2904  -27.7386 H   0  0  0  0  0  0  0  0  0  0  0  0
    0.4406   17.8371  -30.0608 H   0  0  0  0  0  0  0  0  0  0  0  0
  1  2  1  0
  2  3  2  0
  2  4  1  0
  4  5  2  0
  5  6  1  0
  6  7  2  0
  7  8  1  0
  8  9  2  0
  9 10  1  0
  9 11  1  0
 11 12  2  0
 12 13  1  0
 13 14  1  0
 14 15  2  0
 14 16  1  0
 16 17  2  0
 17 18  1  0
 18 19  2  0
 19 20  1  0
 20 21  1  0
 21 22  1  0
 22 23  1  0
 23 24  2  0
 24 25  1  0
 25 26  1  0
 26 27  2  0
 27 28  1  0
 28 29  2  0
 29 30  1  0
 30 31  2  0
 20 32  2  0
 13  4  1  0
 32 16  1  0
 12  6  1  0
 31 23  1  0
 31 26  1  0
  1 33  1  0
  1 34  1  0
  5 35  1  0
  7 36  1  0
  8 37  1  0
 10 38  1  0
 10 39  1  0
 11 40  1  0
 17 41  1  0
 18 42  1  0
 19 43  1  0
 22 44  1  0
 22 45  1  0
 24 46  1  0
 27 47  1  0
 28 48  1  0
 29 49  1  0
 30 50  1  0
M  END
>  <UniqueID>  (43) 
43

>  <SMILES>  (43) 
NC(=O)c1cc2ccc(N)cc2n1C(=O)c1cccc(SCc2coc3ccccc23)n1

>  <Energy>  (43) 
121.79432981850121

>  <Genealogy>  (43) 
NC(=O)c1cc2ccc(N)cc2n1C(=O)c1cccc(SCc2coc3ccccc23)n1 (3D coordinates assigned)
NC(=O)c1cc2ccc(N)cc2n1C(=O)c1cccc(SCc2coc3ccccc23)n1 (optimized conformer: 121.79432981850121 kcal/mol)

>  <smiles>  (43) 
NC(=O)c1cc2ccc(N)cc2n1C(=O)c1cccc(SCc2coc3ccccc23)n1

>  <score_type>  (43) 
oracle

>  <origin>  (43) 
adg

>  <m_score__min__energy>  (43) 
-10.970000000000001

>  <m_primary>  (43) 
energy

$$$$
43:0
     RDKit          3D

 35 37  0  0  0  0  0  0  0  0999 V2000
   -3.2830   15.4000  -34.8510 C   0  0  0  0  0  0  0  0  0  0  0  0
   -3.9660   16.6140  -34.2680 C   0  0  0  0  0  0  0  0  0  0  0  0
   -3.2590   17.8260  -34.1050 C   0  0  0  0  0  0  0  0  0  0  0  0
   -1.5660   17.9890  -34.5650 Cl  0  0  0  0  0  0  0  0  0  0  0  0
   -3.9040   18.9520  -33.5830 C   0  0  0  0  0  0  0  0  0  0  0  0
   -5.2610   18.9060  -33.2330 C   0  0  0  0  0  0  0  0  0  0  0  0
   -5.9380   20.1060  -32.6800 C   0  0  0  0  0  0  0  0  0  0  0  0
   -7.3540   20.2120  -32.7200 C   0  0  0  0  0  0  0  0  0  0  0  0
   -8.0070   21.3350  -32.1890 C   0  0  0  0  0  0  0  0  0  0  0  0
   -7.2260   22.3430  -31.6340 C   0  0  0  0  0  0  0  0  0  0  0  0
   -7.6030   23.5160  -31.0220 C   0  0  0  0  0  0  0  0  0  0  0  0
   -6.4130   24.1300  -30.6420 C   0  0  0  0  0  0  0  0  0  0  0  0
   -6.3560   25.4590  -30.0020 C   0  0  0  0  0  0  0  0  0  0  0  0
   -5.4430   26.4590  -30.4550 N   0  0  0  0  0  0  0  0  0  0  0  0
   -7.1650   25.7360  -29.0770 O   0  0  0  0  0  0  0  0  0  0  0  0
   -5.3420   23.3650  -30.9900 N   0  0  0  0  0  0  0  0  0  0  0  0
   -3.9610   23.6000  -30.6630 C   0  0  0  0  0  0  0  0  0  0  0  0
   -3.1730   22.6340  -30.4870 O   0  0  0  0  0  0  0  0  0  0  0  0
   -3.4830   24.8980  -30.5330 O   0  0  0  0  0  0  0  0  0  0  0  0
   -5.8570   22.2720  -31.6010 C   0  0  0  0  0  0  0  0  0  0  0  0
   -5.1800   21.1530  -32.1040 C   0  0  0  0  0  0  0  0  0  0  0  0
   -5.9720   17.7110  -33.4240 C   0  0  0  0  0  0  0  0  0  0  0  0
   -5.3410   16.5770  -33.9450 C   0  0  0  0  0  0  0  0  0  0  0  0
   -6.3200   15.1330  -34.1880 Cl  0  0  0  0  0  0  0  0  0  0  0  0
   -2.9208   14.7562  -34.0359 H   0  0  0  0  0  0  0  0  0  0  0  0
   -3.9981   14.8393  -35.4709 H   0  0  0  0  0  0  0  0  0  0  0  0
   -2.4326   15.7201  -35.4709 H   0  0  0  0  0  0  0  0  0  0  0  0
   -3.3393   19.8859  -33.4452 H   0  0  0  0  0  0  0  0  0  0  0  0
   -7.9463   19.4034  -33.1731 H   0  0  0  0  0  0  0  0  0  0  0  0
   -9.1038   21.4155  -32.2111 H   0  0  0  0  0  0  0  0  0  0  0  0
   -8.6261   23.8889  -30.8663 H   0  0  0  0  0  0  0  0  0  0  0  0
   -5.3910   27.3810  -29.9670 H   0  0  0  0  0  0  0  0  0  0  0  0
   -4.8780   26.3210  -31.3210 H   0  0  0  0  0  0  0  0  0  0  0  0
   -4.0830   21.0898  -32.0522 H   0  0  0  0  0  0  0  0  0  0  0  0
   -7.0390   17.6659  -33.1605 H   0  0  0  0  0  0  0  0  0  0  0  0
  1  2  1  0
  2  3  2  0
  3  4  1  0
  3  5  1  0
  5  6  2  0
  6  7  1  0
  7  8  2  0
  8  9  1  0
  9 10  2  0
 10 11  1  0
 11 12  2  0
 12 13  1  0
 13 14  1  0
 13 15  2  0
 12 16  1  0
 16 17  1  0
 17 18  2  0
 17 19  1  0
 16 20  1  0
 20 21  2  0
  6 22  1  0
 22 23  2  0
 23 24  1  0
 23  2  1  0
 21  7  1  0
 20 10  1  0
  1 25  1  0
  1 26  1  0
  1 27  1  0
  5 28  1  0
  8 29  1  0
  9 30  1  0
 11 31  1  0
 14 32  1  0
 14 33  1  0
 21 34  1  0
 22 35  1  0
M  CHG  1  19  -1
M  END
>  <UniqueID>  (44) 
44

>  <SMILES>  (44) 
Cc1c(Cl)cc(-c2ccc3cc(C(N)=O)n(C(=O)[O-])c3c2)cc1Cl

>  <Energy>  (44) 
85.65479966196202

>  <Genealogy>  (44) 
Cc1c(Cl)cc(-c2ccc3cc(C(N)=O)n(C(=O)[O-])c3c2)cc1Cl (protonated)
Cc1c(Cl)cc(-c2ccc3cc(C(N)=O)n(C(=O)[O-])c3c2)cc1Cl (3D coordinates assigned)
Cc1c(Cl)cc(-c2ccc3cc(C(N)=O)n(C(=O)[O-])c3c2)cc1Cl (optimized conformer: 85.65479966196202 kcal/mol)

>  <smiles>  (44) 
Cc1c(Cl)cc(-c2ccc3cc(C(N)=O)n(C(=O)O)c3c2)cc1Cl

>  <score_type>  (44) 
oracle

>  <origin>  (44) 
adg

>  <m_score__min__energy>  (44) 
-10.390000000000001

>  <m_primary>  (44) 
energy

$$$$
44:0
     RDKit          3D

 23 24  0  0  0  0  0  0  0  0999 V2000
   -1.9830   25.2610  -29.3420 N   0  0  0  0  0  0  0  0  0  0  0  0
   -1.7950   23.8510  -29.4440 C   0  0  0  0  0  0  0  0  0  0  0  0
   -0.9070   23.2950  -28.7440 O   0  0  0  0  0  0  0  0  0  0  0  0
   -2.6640   23.0290  -30.3110 C   0  0  0  0  0  0  0  0  0  0  0  0
   -2.3060   21.7650  -30.7750 C   0  0  0  0  0  0  0  0  0  0  0  0
   -3.4060   21.3020  -31.4590 C   0  0  0  0  0  0  0  0  0  0  0  0
   -3.5990   20.1000  -32.1360 C   0  0  0  0  0  0  0  0  0  0  0  0
   -4.8300   19.8990  -32.7810 C   0  0  0  0  0  0  0  0  0  0  0  0
   -5.8330   20.8960  -32.7440 C   0  0  0  0  0  0  0  0  0  0  0  0
   -7.0780   20.6830  -33.4150 N   0  0  0  0  0  0  0  0  0  0  0  0
   -5.6040   22.1020  -32.0500 C   0  0  0  0  0  0  0  0  0  0  0  0
   -4.3750   22.2710  -31.4000 C   0  0  0  0  0  0  0  0  0  0  0  0
   -3.9330   23.3400  -30.7000 N   0  0  0  0  0  0  0  0  0  0  0  0
   -4.6310   24.5810  -30.5070 C   0  0  0  0  0  0  0  0  0  0  0  0
   -4.1050   25.6690  -30.8610 O   0  0  0  0  0  0  0  0  0  0  0  0
   -5.8820   24.5960  -29.9020 O   0  0  0  0  0  0  0  0  0  0  0  0
   -2.9410   25.6740  -29.3190 H   0  0  0  0  0  0  0  0  0  0  0  0
   -1.3471   21.2471  -30.6260 H   0  0  0  0  0  0  0  0  0  0  0  0
   -2.8117   19.3323  -32.1645 H   0  0  0  0  0  0  0  0  0  0  0  0
   -5.0161   18.9582  -33.3197 H   0  0  0  0  0  0  0  0  0  0  0  0
   -7.9340   21.2140  -33.1360 H   0  0  0  0  0  0  0  0  0  0  0  0
   -7.1540   19.9930  -34.1950 H   0  0  0  0  0  0  0  0  0  0  0  0
   -6.3710   22.8899  -32.0199 H   0  0  0  0  0  0  0  0  0  0  0  0
  1  2  1  0
  2  3  2  0
  2  4  1  0
  4  5  2  0
  5  6  1  0
  6  7  2  0
  7  8  1  0
  8  9  2  0
  9 10  1  0
  9 11  1  0
 11 12  2  0
 12 13  1  0
 13 14  1  0
 14 15  2  0
 14 16  1  0
 13  4  1  0
 12  6  1  0
  1 17  1  0
  5 18  1  0
  7 19  1  0
  8 20  1  0
 10 21  1  0
 10 22  1  0
 11 23  1  0
M  CHG  2   1  -1  16  -1
M  END
>  <UniqueID>  (45) 
45

>  <SMILES>  (45) 
[NH-]C(=O)c1cc2ccc(N)cc2n1C(=O)[O-]

>  <Energy>  (45) 
62.76577769123371

>  <Genealogy>  (45) 
[NH-]C(=O)c1cc2ccc(N)cc2n1C(=O)[O-] (protonated)
[NH-]C(=O)c1cc2ccc(N)cc2n1C(=O)[O-] (3D coordinates assigned)
[NH-]C(=O)c1cc2ccc(N)cc2n1C(=O)[O-] (optimized conformer: 62.76577769123371 kcal/mol)

>  <smiles>  (45) 
NC(=O)c1cc2ccc(N)cc2n1C(=O)O

>  <score_type>  (45) 
oracle

>  <origin>  (45) 
adg

>  <m_score__min__energy>  (45) 
-9.2100000000000009

>  <m_primary>  (45) 
energy

$$$$
45:0
     RDKit          3D

 53 56  0  0  0  0  0  0  0  0999 V2000
   -3.3410   24.5050  -30.5020 N   0  0  0  0  0  0  0  0  0  0  0  0
   -3.9810   23.2670  -30.8250 C   0  0  0  0  0  0  0  0  0  0  0  0
   -3.2880   22.2260  -30.9750 O   0  0  0  0  0  0  0  0  0  0  0  0
   -5.4060   23.2190  -31.0150 N   0  0  0  0  0  0  0  0  0  0  0  0
   -6.3290   24.1730  -30.6930 C   0  0  0  0  0  0  0  0  0  0  0  0
   -6.0220   25.5210  -30.1450 C   0  0  0  0  0  0  0  0  0  0  0  0
   -6.4830   25.9200  -28.8400 N   0  0  0  0  0  0  0  0  0  0  0  0
   -5.3600   26.3440  -30.8340 O   0  0  0  0  0  0  0  0  0  0  0  0
   -7.6130   23.7280  -31.0230 C   0  0  0  0  0  0  0  0  0  0  0  0
   -7.4440   22.4700  -31.5540 C   0  0  0  0  0  0  0  0  0  0  0  0
   -8.3890   21.5610  -32.0230 C   0  0  0  0  0  0  0  0  0  0  0  0
   -7.9310   20.3140  -32.4810 C   0  0  0  0  0  0  0  0  0  0  0  0
   -6.5480   19.9930  -32.4570 C   0  0  0  0  0  0  0  0  0  0  0  0
   -6.0960   18.6890  -32.8860 N   0  0  0  0  0  0  0  0  0  0  0  0
   -6.1650   17.5530  -31.9610 C   0  0  0  0  0  0  0  0  0  0  0  0
   -5.1700   16.4660  -32.3740 C   0  0  0  0  0  0  0  0  0  0  0  0
   -5.4140   16.0080  -33.7600 N   0  0  0  0  0  0  0  0  0  0  0  0
   -4.3210   15.1180  -34.2110 C   0  0  0  0  0  0  0  0  0  0  0  0
   -3.1400   15.9040  -34.7090 C   0  0  0  0  0  0  0  0  0  0  0  0
   -2.9490   16.0610  -35.9450 O   0  0  0  0  0  0  0  0  0  0  0  0
   -2.2970   16.5630  -33.7580 N   0  0  0  0  0  0  0  0  0  0  0  0
   -1.9440   17.9550  -33.7570 C   0  0  0  0  0  0  0  0  0  0  0  0
   -0.9390   18.4720  -34.5970 C   0  0  0  0  0  0  0  0  0  0  0  0
   -0.6280   19.8320  -34.5680 C   0  0  0  0  0  0  0  0  0  0  0  0
   -1.2970   20.6870  -33.6870 C   0  0  0  0  0  0  0  0  0  0  0  0
   -2.2780   20.1760  -32.8320 C   0  0  0  0  0  0  0  0  0  0  0  0
   -2.5960   18.8140  -32.8630 C   0  0  0  0  0  0  0  0  0  0  0  0
   -5.6820   17.1070  -34.7330 C   0  0  0  0  0  0  0  0  0  0  0  0
   -5.4170   18.5160  -34.1790 C   0  0  0  0  0  0  0  0  0  0  0  0
   -5.6200   20.9500  -31.9780 C   0  0  0  0  0  0  0  0  0  0  0  0
   -6.1040   22.1880  -31.5410 C   0  0  0  0  0  0  0  0  0  0  0  0
   -3.4560   25.3500  -31.1090 H   0  0  0  0  0  0  0  0  0  0  0  0
   -7.0580   25.2940  -28.2280 H   0  0  0  0  0  0  0  0  0  0  0  0
   -6.2160   26.8570  -28.4590 H   0  0  0  0  0  0  0  0  0  0  0  0
   -8.5602   24.2704  -30.8866 H   0  0  0  0  0  0  0  0  0  0  0  0
   -9.4601   21.8112  -32.0346 H   0  0  0  0  0  0  0  0  0  0  0  0
   -8.6530   19.5772  -32.8629 H   0  0  0  0  0  0  0  0  0  0  0  0
   -5.9234   17.8981  -30.9449 H   0  0  0  0  0  0  0  0  0  0  0  0
   -7.1817   17.1338  -31.9867 H   0  0  0  0  0  0  0  0  0  0  0  0
   -4.1494   16.8705  -32.3053 H   0  0  0  0  0  0  0  0  0  0  0  0
   -5.2961   15.6070  -31.6986 H   0  0  0  0  0  0  0  0  0  0  0  0
   -4.0014   14.4887  -33.3673 H   0  0  0  0  0  0  0  0  0  0  0  0
   -4.6985   14.5005  -35.0393 H   0  0  0  0  0  0  0  0  0  0  0  0
   -0.3966   17.8007  -35.2791 H   0  0  0  0  0  0  0  0  0  0  0  0
    0.1454   20.2324  -35.2399 H   0  0  0  0  0  0  0  0  0  0  0  0
   -1.0521   21.7592  -33.6666 H   0  0  0  0  0  0  0  0  0  0  0  0
   -2.8008   20.8461  -32.1336 H   0  0  0  0  0  0  0  0  0  0  0  0
   -3.3622   18.4155  -32.1817 H   0  0  0  0  0  0  0  0  0  0  0  0
   -5.0379   16.9548  -35.6116 H   0  0  0  0  0  0  0  0  0  0  0  0
   -6.7535   17.0592  -34.9773 H   0  0  0  0  0  0  0  0  0  0  0  0
   -4.3344   18.6551  -34.0424 H   0  0  0  0  0  0  0  0  0  0  0  0
   -5.8043   19.2602  -34.8904 H   0  0  0  0  0  0  0  0  0  0  0  0
   -4.5436   20.7251  -31.9502 H   0  0  0  0  0  0  0  0  0  0  0  0
  1  2  1  0
  2  3  2  0
  2  4  1  0
  4  5  1  0
  5  6  1  0
  6  7  1  0
  6  8  2  0
  5  9  2  0
  9 10  1  0
 10 11  2  0
 11 12  1  0
 12 13  2  0
 13 14  1  0
 14 15  1  0
 15 16  1  0
 16 17  1  0
 17 18  1  0
 18 19  1  0
 19 20  2  0
 19 21  1  0
 21 22  1  0
 22 23  2  0
 23 24  1  0
 24 25  2  0
 25 26  1  0
 26 27  2  0
 17 28  1  0
 28 29  1  0
 13 30  1  0
 30 31  2  0
 31  4  1  0
 31 10  1  0
 29 14  1  0
 27 22  1  0
  1 32  1  0
  7 33  1  0
  7 34  1  0
  9 35  1  0
 11 36  1  0
 12 37  1  0
 15 38  1  0
 15 39  1  0
 16 40  1  0
 16 41  1  0
 18 42  1  0
 18 43  1  0
 23 44  1  0
 24 45  1  0
 25 46  1  0
 26 47  1  0
 27 48  1  0
 28 49  1  0
 28 50  1  0
 29 51  1  0
 29 52  1  0
 30 53  1  0
M  CHG  2   1  -1  21  -1
M  END
>  <UniqueID>  (46) 
46

>  <SMILES>  (46) 
[NH-]C(=O)n1c(C(N)=O)cc2ccc(N3CCN(CC(=O)[N-]c4ccccc4)CC3)cc21

>  <Energy>  (46) 
110.46150202270061

>  <Genealogy>  (46) 
[NH-]C(=O)n1c(C(N)=O)cc2ccc(N3CCN(CC(=O)[N-]c4ccccc4)CC3)cc21 (protonated)
[NH-]C(=O)n1c(C(N)=O)cc2ccc(N3CCN(CC(=O)[N-]c4ccccc4)CC3)cc21 (3D coordinates assigned)
[NH-]C(=O)n1c(C(N)=O)cc2ccc(N3CCN(CC(=O)[N-]c4ccccc4)CC3)cc21 (nonaromatic ring conformer: 110.46150202270061 kcal/mol)

>  <smiles>  (46) 
NC(=O)c1cc2ccc(N3CCN(CC(=O)Nc4ccccc4)CC3)cc2n1C(N)=O

>  <score_type>  (46) 
oracle

>  <origin>  (46) 
adg

>  <m_score__min__energy>  (46) 
-10

>  <m_primary>  (46) 
energy

$$$$
46:0
     RDKit          3D

 57 59  0  0  0  0  0  0  0  0999 V2000
   -4.3700   24.4560  -27.4230 C   0  0  0  0  0  0  0  0  0  0  0  0
   -3.8770   23.8200  -28.7320 C   0  0  1  0  0  0  0  0  0  0  0  0
   -3.2120   24.8510  -29.6080 C   0  0  0  0  0  0  0  0  0  0  0  0
   -2.0660   25.2950  -29.3290 O   0  0  0  0  0  0  0  0  0  0  0  0
   -3.8630   25.3160  -30.7450 O   0  0  0  0  0  0  0  0  0  0  0  0
   -3.0160   22.5280  -28.5210 C   0  0  1  0  0  0  0  0  0  0  0  0
   -2.9180   21.7710  -29.8430 C   0  0  0  0  0  0  0  0  0  0  0  0
   -1.6790   21.6380  -30.5280 C   0  0  0  0  0  0  0  0  0  0  0  0
   -1.6020   20.9470  -31.7480 C   0  0  0  0  0  0  0  0  0  0  0  0
   -2.7750   20.4160  -32.2740 C   0  0  0  0  0  0  0  0  0  0  0  0
   -2.9770   19.6800  -33.4180 C   0  0  0  0  0  0  0  0  0  0  0  0
   -4.3420   19.4080  -33.4440 C   0  0  0  0  0  0  0  0  0  0  0  0
   -5.0070   18.6850  -34.5460 C   0  0  0  0  0  0  0  0  0  0  0  0
   -6.3810   18.9160  -34.8620 N   0  0  0  0  0  0  0  0  0  0  0  0
   -4.3370   17.8870  -35.2540 O   0  0  0  0  0  0  0  0  0  0  0  0
   -4.9580   19.9430  -32.3530 N   0  0  0  0  0  0  0  0  0  0  0  0
   -6.3320   19.7940  -31.9630 C   0  0  0  0  0  0  0  0  0  0  0  0
   -6.6610   18.8660  -31.1760 O   0  0  0  0  0  0  0  0  0  0  0  0
   -7.2910   20.6880  -32.4630 O   0  0  0  0  0  0  0  0  0  0  0  0
   -7.7690   21.8750  -31.8150 C   0  0  0  0  0  0  0  0  0  0  0  0
   -7.1740   23.0730  -32.5710 C   0  0  0  0  0  0  0  0  0  0  0  0
   -7.2880   21.9230  -30.3520 C   0  0  0  0  0  0  0  0  0  0  0  0
   -9.3060   21.9510  -31.8860 C   0  0  0  0  0  0  0  0  0  0  0  0
   -3.9850   20.5600  -31.6470 C   0  0  0  0  0  0  0  0  0  0  0  0
   -4.0880   21.2230  -30.4180 C   0  0  0  0  0  0  0  0  0  0  0  0
   -1.6090   22.7520  -27.8730 C   0  0  2  0  0  0  0  0  0  0  0  0
   -1.1610   21.5740  -27.0620 C   0  0  0  0  0  0  0  0  0  0  0  0
   -0.6830   21.9240  -25.8820 C   0  0  0  0  0  0  0  0  0  0  0  0
   -0.7380   23.3900  -25.6690 C   0  0  0  0  0  0  0  0  0  0  0  0
   -1.5650   23.9040  -26.8490 C   0  0  0  0  0  0  0  0  0  0  0  0
   -3.9464   23.9095  -26.5675 H   0  0  0  0  0  0  0  0  0  0  0  0
   -4.0484   25.5072  -27.3822 H   0  0  0  0  0  0  0  0  0  0  0  0
   -5.4681   24.4067  -27.3822 H   0  0  0  0  0  0  0  0  0  0  0  0
   -4.7654   23.4575  -29.2698 H   0  0  0  0  0  0  0  0  0  0  0  0
   -3.5457   21.9238  -27.7697 H   0  0  0  0  0  0  0  0  0  0  0  0
   -0.7696   22.0819  -30.0968 H   0  0  0  0  0  0  0  0  0  0  0  0
   -0.6422   20.8291  -32.2723 H   0  0  0  0  0  0  0  0  0  0  0  0
   -2.2211   19.3719  -34.1553 H   0  0  0  0  0  0  0  0  0  0  0  0
   -6.8460   18.3610  -35.6140 H   0  0  0  0  0  0  0  0  0  0  0  0
   -6.9150   19.6930  -34.4140 H   0  0  0  0  0  0  0  0  0  0  0  0
   -6.8050   23.8159  -31.8485 H   0  0  0  0  0  0  0  0  0  0  0  0
   -6.3411   22.7309  -33.2028 H   0  0  0  0  0  0  0  0  0  0  0  0
   -7.9499   23.5299  -33.2028 H   0  0  0  0  0  0  0  0  0  0  0  0
   -8.1534   21.8366  -29.6785 H   0  0  0  0  0  0  0  0  0  0  0  0
   -6.5944   21.0896  -30.1665 H   0  0  0  0  0  0  0  0  0  0  0  0
   -6.7728   22.8770  -30.1665 H   0  0  0  0  0  0  0  0  0  0  0  0
   -9.7196   21.9714  -30.8669 H   0  0  0  0  0  0  0  0  0  0  0  0
   -9.6036   22.8650  -32.4209 H   0  0  0  0  0  0  0  0  0  0  0  0
   -9.6923   21.0709  -32.4209 H   0  0  0  0  0  0  0  0  0  0  0  0
   -5.0593   21.3157  -29.9101 H   0  0  0  0  0  0  0  0  0  0  0  0
   -0.9758   22.9537  -28.7496 H   0  0  0  0  0  0  0  0  0  0  0  0
   -1.2235   20.5328  -27.4112 H   0  0  0  0  0  0  0  0  0  0  0  0
   -0.2896   21.2106  -25.1428 H   0  0  0  0  0  0  0  0  0  0  0  0
   -1.2290   23.6283  -24.7140 H   0  0  0  0  0  0  0  0  0  0  0  0
    0.2606   23.8487  -25.6198 H   0  0  0  0  0  0  0  0  0  0  0  0
   -2.5825   24.1609  -26.5192 H   0  0  0  0  0  0  0  0  0  0  0  0
   -1.1234   24.8125  -27.2843 H   0  0  0  0  0  0  0  0  0  0  0  0
  1  2  1  0
  2  3  1  0
  3  4  2  0
  3  5  1  0
  2  6  1  0
  6  7  1  0
  7  8  2  0
  8  9  1  0
  9 10  2  0
 10 11  1  0
 11 12  2  0
 12 13  1  0
 13 14  1  0
 13 15  2  0
 12 16  1  0
 16 17  1  0
 17 18  2  0
 17 19  1  0
 19 20  1  0
 20 21  1  0
 20 22  1  0
 20 23  1  0
 16 24  1  0
 24 25  2  0
  6 26  1  0
 26 27  1  0
 27 28  2  0
 28 29  1  0
 29 30  1  0
 25  7  1  0
 30 26  1  0
 24 10  1  0
  1 31  1  0
  1 32  1  0
  1 33  1  0
  2 34  1  6
  6 35  1  1
  8 36  1  0
  9 37  1  0
 11 38  1  0
 14 39  1  0
 14 40  1  0
 21 41  1  0
 21 42  1  0
 21 43  1  0
 22 44  1  0
 22 45  1  0
 22 46  1  0
 23 47  1  0
 23 48  1  0
 23 49  1  0
 25 50  1  0
 26 51  1  6
 27 52  1  0
 28 53  1  0
 29 54  1  0
 29 55  1  0
 30 56  1  0
 30 57  1  0
M  CHG  1   5  -1
M  END
>  <UniqueID>  (47) 
47

>  <SMILES>  (47) 
C[C@@H](C(=O)[O-])[C@@H](c1ccc2cc(C(N)=O)n(C(=O)OC(C)(C)C)c2c1)[C@@H]1C=CCC1

>  <Energy>  (47) 
99.0767641598484

>  <Genealogy>  (47) 
CC(C(=O)[O-])[C@@H](c1ccc2cc(C(N)=O)n(C(=O)OC(C)(C)C)c2c1)C1C=CCC1 (protonated)
C[C@@H](C(=O)[O-])[C@@H](c1ccc2cc(C(N)=O)n(C(=O)OC(C)(C)C)c2c1)[C@@H]1C=CCC1 (chirality)
C[C@@H](C(=O)[O-])[C@@H](c1ccc2cc(C(N)=O)n(C(=O)OC(C)(C)C)c2c1)[C@@H]1C=CCC1 (3D coordinates assigned)
C[C@@H](C(=O)[O-])[C@@H](c1ccc2cc(C(N)=O)n(C(=O)OC(C)(C)C)c2c1)[C@@H]1C=CCC1 (nonaromatic ring conformer: 99.0767641598484 kcal/mol)

>  <smiles>  (47) 
CC(C(=O)O)[C@@H](c1ccc2cc(C(N)=O)n(C(=O)OC(C)(C)C)c2c1)C1C=CCC1

>  <score_type>  (47) 
oracle

>  <origin>  (47) 
adg

>  <m_score__min__energy>  (47) 
-11.210000000000001

>  <m_primary>  (47) 
energy

$$$$
47:0
     RDKit          3D

 79 84  0  0  0  0  0  0  0  0999 V2000
   -4.1450   14.7040  -32.7000 C   0  0  0  0  0  0  0  0  0  0  0  0
   -5.1360   15.6060  -33.4620 C   0  0  0  0  0  0  0  0  0  0  0  0
   -4.4290   16.1850  -34.6990 C   0  0  0  0  0  0  0  0  0  0  0  0
   -6.3690   14.8020  -33.9200 C   0  0  0  0  0  0  0  0  0  0  0  0
   -5.5340   16.7170  -32.6470 O   0  0  0  0  0  0  0  0  0  0  0  0
   -6.4320   17.7360  -33.0060 C   0  0  0  0  0  0  0  0  0  0  0  0
   -7.5650   17.4630  -33.4820 O   0  0  0  0  0  0  0  0  0  0  0  0
   -6.0550   19.1070  -32.8010 N   0  0  0  0  0  0  0  0  0  0  0  0
   -6.8650   20.1430  -32.4400 C   0  0  0  0  0  0  0  0  0  0  0  0
   -8.2510   20.0270  -31.9450 C   0  0  0  0  0  0  0  0  0  0  0  0
   -9.2510   19.3660  -32.7200 N   0  0  0  0  0  0  0  0  0  0  0  0
   -8.5430   20.4600  -30.7970 O   0  0  0  0  0  0  0  0  0  0  0  0
   -6.1710   21.3510  -32.4930 C   0  0  0  0  0  0  0  0  0  0  0  0
   -4.8940   21.0190  -32.8840 C   0  0  0  0  0  0  0  0  0  0  0  0
   -3.7880   21.8330  -33.0990 C   0  0  0  0  0  0  0  0  0  0  0  0
   -2.5890   21.2220  -33.5020 C   0  0  0  0  0  0  0  0  0  0  0  0
   -2.5190   19.8160  -33.6920 C   0  0  0  0  0  0  0  0  0  0  0  0
   -1.2710   19.1930  -34.0690 N   0  0  0  0  0  0  0  0  0  0  0  0
   -1.1290   17.8600  -33.5210 C   0  0  0  0  0  0  0  0  0  0  0  0
   -1.3580   16.7110  -34.3210 C   0  0  0  0  0  0  0  0  0  0  0  0
   -1.1030   15.4220  -33.8130 C   0  0  0  0  0  0  0  0  0  0  0  0
   -0.5910   15.2590  -32.5600 N   0  0  0  0  0  0  0  0  0  0  0  0
   -0.3490   16.3490  -31.7930 C   0  0  0  0  0  0  0  0  0  0  0  0
    0.2370   16.3260  -30.5860 N   0  0  0  0  0  0  0  0  0  0  0  0
    0.3900   17.6170  -30.2290 C   0  0  0  0  0  0  0  0  0  0  0  0
   -0.1180   18.4600  -31.2140 C   0  0  0  0  0  0  0  0  0  0  0  0
   -0.0150   19.9280  -31.1780 C   0  0  0  0  0  0  0  0  0  0  0  0
    0.9950   20.4650  -31.7050 O   0  0  0  0  0  0  0  0  0  0  0  0
   -1.0180   20.7430  -30.5330 N   0  0  0  0  0  0  0  0  0  0  0  0
   -2.0110   20.1230  -29.6360 C   0  0  0  0  0  0  0  0  0  0  0  0
   -3.1430   21.0950  -29.2850 C   0  0  0  0  0  0  0  0  0  0  0  0
   -2.5810   22.4380  -28.7430 C   0  0  0  0  0  0  0  0  0  0  0  0
   -3.6170   23.4920  -28.5550 N   0  0  0  0  0  0  0  0  0  0  0  0
   -4.9800   23.0370  -28.8540 C   0  0  0  0  0  0  0  0  0  0  0  0
   -5.3950   23.6370  -30.1880 C   0  0  0  0  0  0  0  0  0  0  0  0
   -4.4270   24.7720  -30.4550 C   0  0  0  0  0  0  0  0  0  0  0  0
   -3.3990   24.7230  -29.3310 C   0  0  0  0  0  0  0  0  0  0  0  0
   -1.3920   22.9870  -29.5820 C   0  0  0  0  0  0  0  0  0  0  0  0
   -1.1200   22.1760  -30.8530 C   0  0  0  0  0  0  0  0  0  0  0  0
   -0.5910   17.6300  -32.2310 C   0  0  0  0  0  0  0  0  0  0  0  0
   -3.6750   19.0240  -33.4850 C   0  0  0  0  0  0  0  0  0  0  0  0
   -4.8490   19.6580  -33.0620 C   0  0  0  0  0  0  0  0  0  0  0  0
   -4.2884   14.8345  -31.6172 H   0  0  0  0  0  0  0  0  0  0  0  0
   -4.3243   13.6527  -32.9695 H   0  0  0  0  0  0  0  0  0  0  0  0
   -3.1152   14.9811  -32.9695 H   0  0  0  0  0  0  0  0  0  0  0  0
   -3.6151   16.8516  -34.3777 H   0  0  0  0  0  0  0  0  0  0  0  0
   -4.0141   15.3639  -35.3020 H   0  0  0  0  0  0  0  0  0  0  0  0
   -5.1522   16.7536  -35.3020 H   0  0  0  0  0  0  0  0  0  0  0  0
   -6.9204   14.4425  -33.0387 H   0  0  0  0  0  0  0  0  0  0  0  0
   -7.0238   15.4472  -34.5241 H   0  0  0  0  0  0  0  0  0  0  0  0
   -6.0427   13.9426  -34.5241 H   0  0  0  0  0  0  0  0  0  0  0  0
   -9.0420   19.0250  -33.6830 H   0  0  0  0  0  0  0  0  0  0  0  0
   -6.5609   22.3551  -32.2699 H   0  0  0  0  0  0  0  0  0  0  0  0
   -3.8497   22.9222  -32.9579 H   0  0  0  0  0  0  0  0  0  0  0  0
   -1.6945   21.8391  -33.6723 H   0  0  0  0  0  0  0  0  0  0  0  0
   -0.5190   19.8200  -33.7170 H   0  0  0  0  0  0  0  0  0  0  0  0
   -1.1720   19.1380  -35.1100 H   0  0  0  0  0  0  0  0  0  0  0  0
   -1.7379   16.8276  -35.3467 H   0  0  0  0  0  0  0  0  0  0  0  0
   -1.3189   14.5392  -34.4328 H   0  0  0  0  0  0  0  0  0  0  0  0
    0.5480   15.4830  -30.0520 H   0  0  0  0  0  0  0  0  0  0  0  0
    0.8518   17.9571  -29.2903 H   0  0  0  0  0  0  0  0  0  0  0  0
   -2.4400   19.2412  -30.1344 H   0  0  0  0  0  0  0  0  0  0  0  0
   -1.5009   19.8396  -28.7035 H   0  0  0  0  0  0  0  0  0  0  0  0
   -3.7387   21.2935  -30.1882 H   0  0  0  0  0  0  0  0  0  0  0  0
   -3.7662   20.6368  -28.5029 H   0  0  0  0  0  0  0  0  0  0  0  0
   -2.1975   22.1813  -27.7445 H   0  0  0  0  0  0  0  0  0  0  0  0
   -5.0016   21.9390  -28.9159 H   0  0  0  0  0  0  0  0  0  0  0  0
   -5.6716   23.3562  -28.0604 H   0  0  0  0  0  0  0  0  0  0  0  0
   -5.3271   22.8814  -30.9845 H   0  0  0  0  0  0  0  0  0  0  0  0
   -6.4357   23.9925  -30.1635 H   0  0  0  0  0  0  0  0  0  0  0  0
   -3.9349   24.6331  -31.4289 H   0  0  0  0  0  0  0  0  0  0  0  0
   -4.9438   25.7426  -30.4853 H   0  0  0  0  0  0  0  0  0  0  0  0
   -2.3843   24.7196  -29.7556 H   0  0  0  0  0  0  0  0  0  0  0  0
   -3.5078   25.6036  -28.6809 H   0  0  0  0  0  0  0  0  0  0  0  0
   -1.6186   24.0238  -29.8715 H   0  0  0  0  0  0  0  0  0  0  0  0
   -0.4917   22.9187  -28.9537 H   0  0  0  0  0  0  0  0  0  0  0  0
   -1.9437   22.3309  -31.5654 H   0  0  0  0  0  0  0  0  0  0  0  0
   -0.1706   22.5121  -31.2954 H   0  0  0  0  0  0  0  0  0  0  0  0
   -3.6507   17.9371  -33.6526 H   0  0  0  0  0  0  0  0  0  0  0  0
  1  2  1  0
  2  3  1  0
  2  4  1  0
  2  5  1  0
  5  6  1  0
  6  7  2  0
  6  8  1  0
  8  9  1  0
  9 10  1  0
 10 11  1  0
 10 12  2  0
  9 13  2  0
 13 14  1  0
 14 15  2  0
 15 16  1  0
 16 17  2  0
 17 18  1  0
 18 19  1  0
 19 20  2  0
 20 21  1  0
 21 22  2  0
 22 23  1  0
 23 24  1  0
 24 25  1  0
 25 26  2  0
 26 27  1  0
 27 28  2  0
 27 29  1  0
 29 30  1  0
 30 31  1  0
 31 32  1  0
 32 33  1  0
 33 34  1  0
 34 35  1  0
 35 36  1  0
 36 37  1  0
 32 38  1  0
 38 39  1  0
 26 40  1  0
 17 41  1  0
 41 42  2  0
 42  8  1  0
 42 14  1  0
 40 19  1  0
 40 23  2  0
 39 29  1  0
 37 33  1  0
  1 43  1  0
  1 44  1  0
  1 45  1  0
  3 46  1  0
  3 47  1  0
  3 48  1  0
  4 49  1  0
  4 50  1  0
  4 51  1  0
 11 52  1  0
 13 53  1  0
 15 54  1  0
 16 55  1  0
 18 56  1  0
 18 57  1  0
 20 58  1  0
 21 59  1  0
 24 60  1  0
 25 61  1  0
 30 62  1  0
 30 63  1  0
 31 64  1  0
 31 65  1  0
 32 66  1  0
 34 67  1  0
 34 68  1  0
 35 69  1  0
 35 70  1  0
 36 71  1  0
 36 72  1  0
 37 73  1  0
 37 74  1  0
 38 75  1  0
 38 76  1  0
 39 77  1  0
 39 78  1  0
 41 79  1  0
M  CHG  2  11  -1  18   1
M  END
>  <UniqueID>  (48) 
48

>  <SMILES>  (48) 
CC(C)(C)OC(=O)n1c(C([NH-])=O)cc2ccc([NH2+]c3ccnc4[nH]cc(C(=O)N5CCC(N6CCCC6)CC5)c34)cc21

>  <Energy>  (48) 
172.67885742561916

>  <Genealogy>  (48) 
CC(C)(C)OC(=O)n1c(C([NH-])=O)cc2ccc([NH2+]c3ccnc4[nH]cc(C(=O)N5CCC(N6CCCC6)CC5)c34)cc21 (protonated)
CC(C)(C)OC(=O)n1c(C([NH-])=O)cc2ccc([NH2+]c3ccnc4[nH]cc(C(=O)N5CCC(N6CCCC6)CC5)c34)cc21 (3D coordinates assigned)
CC(C)(C)OC(=O)n1c(C([NH-])=O)cc2ccc([NH2+]c3ccnc4[nH]cc(C(=O)N5CCC(N6CCCC6)CC5)c34)cc21 (nonaromatic ring conformer: 172.67885742561916 kcal/mol)

>  <smiles>  (48) 
CC(C)(C)OC(=O)n1c(C(N)=O)cc2ccc(Nc3ccnc4[nH]cc(C(=O)N5CCC(N6CCCC6)CC5)c34)cc21

>  <score_type>  (48) 
oracle

>  <origin>  (48) 
adg

>  <m_score__min__energy>  (48) 
-11.77

>  <m_primary>  (48) 
energy

$$$$
48:0
     RDKit          3D

 52 56  0  0  0  0  0  0  0  0999 V2000
   -1.3060   12.6590  -38.5640 C   0  0  0  0  0  0  0  0  0  0  0  0
   -1.4360   11.4700  -37.5890 C   0  0  0  0  0  0  0  0  0  0  0  0
   -2.5970   11.4810  -36.6640 N   0  0  0  0  0  0  0  0  0  0  0  0
   -3.6630   12.4280  -37.0540 C   0  0  0  0  0  0  0  0  0  0  0  0
   -3.4590   13.2270  -35.7880 C   0  0  0  0  0  0  0  0  0  0  0  0
   -2.3990   12.2220  -35.4000 C   0  0  0  0  0  0  0  0  0  0  0  0
   -3.1840   14.6840  -35.8160 C   0  0  0  0  0  0  0  0  0  0  0  0
   -4.3070   15.0340  -34.9120 N   0  0  0  0  0  0  0  0  0  0  0  0
   -4.8550   16.2210  -34.3430 C   0  0  0  0  0  0  0  0  0  0  0  0
   -6.0720   16.1860  -33.6620 C   0  0  0  0  0  0  0  0  0  0  0  0
   -6.5810   17.3640  -33.1190 C   0  0  0  0  0  0  0  0  0  0  0  0
   -5.8580   18.5600  -33.2620 C   0  0  0  0  0  0  0  0  0  0  0  0
   -6.3500   19.8480  -32.7100 C   0  0  0  0  0  0  0  0  0  0  0  0
   -7.7320   20.1810  -32.7340 C   0  0  0  0  0  0  0  0  0  0  0  0
   -8.1860   21.4040  -32.2150 C   0  0  0  0  0  0  0  0  0  0  0  0
   -7.2480   22.2690  -31.6630 C   0  0  0  0  0  0  0  0  0  0  0  0
   -7.4100   23.5230  -31.1170 C   0  0  0  0  0  0  0  0  0  0  0  0
   -6.1320   23.9280  -30.7360 C   0  0  0  0  0  0  0  0  0  0  0  0
   -5.8500   25.2030  -30.0450 C   0  0  0  0  0  0  0  0  0  0  0  0
   -4.8160   26.0580  -30.5260 N   0  0  0  0  0  0  0  0  0  0  0  0
   -6.5300   25.5600  -29.0470 O   0  0  0  0  0  0  0  0  0  0  0  0
   -5.2170   22.9620  -31.0350 N   0  0  0  0  0  0  0  0  0  0  0  0
   -3.7940   23.0120  -30.8470 C   0  0  0  0  0  0  0  0  0  0  0  0
   -3.0440   21.8070  -30.6990 N   0  0  0  0  0  0  0  0  0  0  0  0
   -3.2010   24.1230  -30.8170 O   0  0  0  0  0  0  0  0  0  0  0  0
   -5.9160   21.9550  -31.6030 C   0  0  0  0  0  0  0  0  0  0  0  0
   -5.4300   20.7540  -32.1310 C   0  0  0  0  0  0  0  0  0  0  0  0
   -4.6800   18.5290  -33.9470 N   0  0  0  0  0  0  0  0  0  0  0  0
   -4.1950   17.4010  -34.4670 N   0  0  0  0  0  0  0  0  0  0  0  0
   -4.5830   13.5770  -34.8840 C   0  0  0  0  0  0  0  0  0  0  0  0
   -1.2039   13.5929  -37.9918 H   0  0  0  0  0  0  0  0  0  0  0  0
   -0.4179   12.5182  -39.1976 H   0  0  0  0  0  0  0  0  0  0  0  0
   -2.2035   12.7134  -39.1976 H   0  0  0  0  0  0  0  0  0  0  0  0
   -1.5006   10.5521  -38.1917 H   0  0  0  0  0  0  0  0  0  0  0  0
   -0.5516   11.5361  -36.9383 H   0  0  0  0  0  0  0  0  0  0  0  0
   -3.4439   12.9895  -37.9742 H   0  0  0  0  0  0  0  0  0  0  0  0
   -4.6647   12.0496  -37.3058 H   0  0  0  0  0  0  0  0  0  0  0  0
   -1.3938   12.6555  -35.2915 H   0  0  0  0  0  0  0  0  0  0  0  0
   -2.4735   11.6926  -34.4386 H   0  0  0  0  0  0  0  0  0  0  0  0
   -2.1993   14.9446  -35.4006 H   0  0  0  0  0  0  0  0  0  0  0  0
   -3.1379   15.1807  -36.7964 H   0  0  0  0  0  0  0  0  0  0  0  0
   -6.6231   15.2400  -33.5550 H   0  0  0  0  0  0  0  0  0  0  0  0
   -7.5413   17.3575  -32.5826 H   0  0  0  0  0  0  0  0  0  0  0  0
   -8.4543   19.4718  -33.1644 H   0  0  0  0  0  0  0  0  0  0  0  0
   -9.2529   21.6701  -32.2443 H   0  0  0  0  0  0  0  0  0  0  0  0
   -8.3487   24.0855  -31.0053 H   0  0  0  0  0  0  0  0  0  0  0  0
   -3.8630   26.0410  -30.1000 H   0  0  0  0  0  0  0  0  0  0  0  0
   -3.5260   20.8820  -30.6540 H   0  0  0  0  0  0  0  0  0  0  0  0
   -2.0050   21.8420  -30.5940 H   0  0  0  0  0  0  0  0  0  0  0  0
   -4.3559   20.5191  -32.0968 H   0  0  0  0  0  0  0  0  0  0  0  0
   -4.4814   13.1384  -33.8804 H   0  0  0  0  0  0  0  0  0  0  0  0
   -5.5921   13.2381  -35.1612 H   0  0  0  0  0  0  0  0  0  0  0  0
  1  2  1  0
  2  3  1  0
  3  4  1  0
  4  5  1  0
  5  6  1  0
  5  7  1  0
  7  8  1  0
  8  9  1  0
  9 10  2  0
 10 11  1  0
 11 12  2  0
 12 13  1  0
 13 14  2  0
 14 15  1  0
 15 16  2  0
 16 17  1  0
 17 18  2  0
 18 19  1  0
 19 20  1  0
 19 21  2  0
 18 22  1  0
 22 23  1  0
 23 24  1  0
 23 25  2  0
 22 26  1  0
 26 27  2  0
 12 28  1  0
 28 29  2  0
  8 30  1  0
  6  3  1  0
 29  9  1  0
 30  5  1  0
 27 13  1  0
 26 16  1  0
  1 31  1  0
  1 32  1  0
  1 33  1  0
  2 34  1  0
  2 35  1  0
  4 36  1  0
  4 37  1  0
  6 38  1  0
  6 39  1  0
  7 40  1  0
  7 41  1  0
 10 42  1  0
 11 43  1  0
 14 44  1  0
 15 45  1  0
 17 46  1  0
 20 47  1  0
 24 48  1  0
 24 49  1  0
 27 50  1  0
 30 51  1  0
 30 52  1  0
M  CHG  1  20  -1
M  END
>  <UniqueID>  (49) 
49

>  <SMILES>  (49) 
CCN1CC2(C1)CN(c1ccc(-c3ccc4cc(C([NH-])=O)n(C(N)=O)c4c3)nn1)C2

>  <Energy>  (49) 
233.7824286785938

>  <Genealogy>  (49) 
CCN1CC2(C1)CN(c1ccc(-c3ccc4cc(C([NH-])=O)n(C(N)=O)c4c3)nn1)C2 (protonated)
CCN1CC2(C1)CN(c1ccc(-c3ccc4cc(C([NH-])=O)n(C(N)=O)c4c3)nn1)C2 (3D coordinates assigned)
CCN1CC2(C1)CN(c1ccc(-c3ccc4cc(C([NH-])=O)n(C(N)=O)c4c3)nn1)C2 (nonaromatic ring conformer: 233.7824286785938 kcal/mol)

>  <smiles>  (49) 
CCN1CC2(C1)CN(c1ccc(-c3ccc4cc(C(N)=O)n(C(N)=O)c4c3)nn1)C2

>  <score_type>  (49) 
oracle

>  <origin>  (49) 
adg

>  <m_score__min__energy>  (49) 
-9.3599999999999994

>  <m_primary>  (49) 
energy

$$$$
49:0
     RDKit          3D

 51 52  0  0  0  0  0  0  0  0999 V2000
   -2.7790   21.9180  -32.4180 C   0  0  0  0  0  0  0  0  0  0  0  0
   -2.6410   20.5490  -33.1100 C   0  0  0  0  0  0  0  0  0  0  0  0
   -1.4950   20.6200  -34.1300 C   0  0  0  0  0  0  0  0  0  0  0  0
   -2.3210   19.4480  -32.0800 C   0  0  0  0  0  0  0  0  0  0  0  0
   -3.8350   20.2270  -33.8370 O   0  0  0  0  0  0  0  0  0  0  0  0
   -4.5070   18.9960  -33.8340 C   0  0  0  0  0  0  0  0  0  0  0  0
   -3.9710   17.9650  -34.3230 O   0  0  0  0  0  0  0  0  0  0  0  0
   -5.8230   18.9130  -33.2670 N   0  0  0  0  0  0  0  0  0  0  0  0
   -6.6650   17.8420  -33.2640 C   0  0  0  0  0  0  0  0  0  0  0  0
   -6.3310   16.4790  -33.7270 C   0  0  0  0  0  0  0  0  0  0  0  0
   -5.0440   15.9090  -33.4880 N   0  0  0  0  0  0  0  0  0  0  0  0
   -7.2160   15.7870  -34.2980 O   0  0  0  0  0  0  0  0  0  0  0  0
   -7.8930   18.1830  -32.7050 C   0  0  0  0  0  0  0  0  0  0  0  0
   -7.7750   19.5070  -32.3490 C   0  0  0  0  0  0  0  0  0  0  0  0
   -8.6990   20.3590  -31.7530 C   0  0  0  0  0  0  0  0  0  0  0  0
   -8.3150   21.6910  -31.5240 C   0  0  0  0  0  0  0  0  0  0  0  0
   -7.0290   22.1480  -31.9060 C   0  0  0  0  0  0  0  0  0  0  0  0
   -6.6210   23.5790  -31.6460 C   0  0  0  0  0  0  0  0  0  0  0  0
   -5.2230   23.7000  -31.0110 C   0  0  2  0  0  0  0  0  0  0  0  0
   -5.0820   22.7410  -29.9140 N   0  0  0  0  0  0  0  0  0  0  0  0
   -3.9010   22.5370  -29.1260 C   0  0  0  0  0  0  0  0  0  0  0  0
   -3.1470   21.5690  -29.4050 O   0  0  0  0  0  0  0  0  0  0  0  0
   -3.4980   23.4800  -28.0220 C   0  0  0  0  0  0  0  0  0  0  0  0
   -4.4580   24.5740  -27.8920 N   0  0  0  0  0  0  0  0  0  0  0  0
   -4.9640   25.1010  -30.5300 C   0  0  0  0  0  0  0  0  0  0  0  0
   -3.8730   25.6770  -30.7850 O   0  0  0  0  0  0  0  0  0  0  0  0
   -5.9170   25.7520  -29.7560 O   0  0  0  0  0  0  0  0  0  0  0  0
   -6.1180   21.2530  -32.5110 C   0  0  0  0  0  0  0  0  0  0  0  0
   -6.5180   19.9260  -32.7020 C   0  0  0  0  0  0  0  0  0  0  0  0
   -2.7651   21.7803  -31.3267 H   0  0  0  0  0  0  0  0  0  0  0  0
   -1.9416   22.5658  -32.7165 H   0  0  0  0  0  0  0  0  0  0  0  0
   -3.7288   22.3857  -32.7165 H   0  0  0  0  0  0  0  0  0  0  0  0
   -0.5339   20.6795  -33.5982 H   0  0  0  0  0  0  0  0  0  0  0  0
   -1.5096   19.7192  -34.7612 H   0  0  0  0  0  0  0  0  0  0  0  0
   -1.6207   21.5121  -34.7612 H   0  0  0  0  0  0  0  0  0  0  0  0
   -2.4383   19.8516  -31.0635 H   0  0  0  0  0  0  0  0  0  0  0  0
   -3.0106   18.6026  -32.2207 H   0  0  0  0  0  0  0  0  0  0  0  0
   -1.2857   19.1040  -32.2207 H   0  0  0  0  0  0  0  0  0  0  0  0
   -4.8120   14.9630  -33.8620 H   0  0  0  0  0  0  0  0  0  0  0  0
   -4.3510   16.3830  -32.8660 H   0  0  0  0  0  0  0  0  0  0  0  0
   -8.7708   17.5328  -32.5754 H   0  0  0  0  0  0  0  0  0  0  0  0
   -9.6997   20.0009  -31.4696 H   0  0  0  0  0  0  0  0  0  0  0  0
   -9.0194   22.3859  -31.0435 H   0  0  0  0  0  0  0  0  0  0  0  0
   -6.6199   24.1225  -32.6023 H   0  0  0  0  0  0  0  0  0  0  0  0
   -7.3439   24.0031  -30.9336 H   0  0  0  0  0  0  0  0  0  0  0  0
   -4.4733   23.4677  -31.7817 H   0  0  0  0  0  0  0  0  0  0  0  0
   -3.4540   22.9253  -27.0731 H   0  0  0  0  0  0  0  0  0  0  0  0
   -2.5131   23.9048  -28.2658 H   0  0  0  0  0  0  0  0  0  0  0  0
   -4.1580   25.3590  -28.5150 H   0  0  0  0  0  0  0  0  0  0  0  0
   -5.3940   24.2470  -28.2230 H   0  0  0  0  0  0  0  0  0  0  0  0
   -5.1192   21.5913  -32.8240 H   0  0  0  0  0  0  0  0  0  0  0  0
  1  2  1  0
  2  3  1  0
  2  4  1  0
  2  5  1  0
  5  6  1  0
  6  7  2  0
  6  8  1  0
  8  9  1  0
  9 10  1  0
 10 11  1  0
 10 12  2  0
  9 13  2  0
 13 14  1  0
 14 15  2  0
 15 16  1  0
 16 17  2  0
 17 18  1  0
 18 19  1  0
 19 20  1  0
 20 21  1  0
 21 22  2  0
 21 23  1  0
 23 24  1  0
 19 25  1  0
 25 26  2  0
 25 27  1  0
 17 28  1  0
 28 29  2  0
 29  8  1  0
 29 14  1  0
  1 30  1  0
  1 31  1  0
  1 32  1  0
  3 33  1  0
  3 34  1  0
  3 35  1  0
  4 36  1  0
  4 37  1  0
  4 38  1  0
 11 39  1  0
 11 40  1  0
 13 41  1  0
 15 42  1  0
 16 43  1  0
 18 44  1  0
 18 45  1  0
 19 46  1  6
 23 47  1  0
 23 48  1  0
 24 49  1  0
 24 50  1  0
 28 51  1  0
M  CHG  2  20  -1  27  -1
M  END
>  <UniqueID>  (50) 
50

>  <SMILES>  (50) 
CC(C)(C)OC(=O)n1c(C(N)=O)cc2ccc(C[C@H]([N-]C(=O)CN)C(=O)[O-])cc21

>  <Energy>  (50) 
79.20704660563851

>  <Genealogy>  (50) 
CC(C)(C)OC(=O)n1c(C(N)=O)cc2ccc(C[C@H]([N-]C(=O)CN)C(=O)[O-])cc21 (protonated)
CC(C)(C)OC(=O)n1c(C(N)=O)cc2ccc(C[C@H]([N-]C(=O)CN)C(=O)[O-])cc21 (3D coordinates assigned)
CC(C)(C)OC(=O)n1c(C(N)=O)cc2ccc(C[C@H]([N-]C(=O)CN)C(=O)[O-])cc21 (optimized conformer: 79.20704660563851 kcal/mol)

>  <smiles>  (50) 
CC(C)(C)OC(=O)n1c(C(N)=O)cc2ccc(C[C@H](NC(=O)CN)C(=O)O)cc21

>  <score_type>  (50) 
oracle

>  <origin>  (50) 
adg

>  <m_score__min__energy>  (50) 
-12.35

>  <m_primary>  (50) 
energy

$$$$
50:0
     RDKit          3D

 76 80  0  0  0  0  0  0  0  0999 V2000
   -7.7740   12.8520  -35.1310 C   0  0  0  0  0  0  0  0  0  0  0  0
   -7.0700   13.4530  -34.0520 O   0  0  0  0  0  0  0  0  0  0  0  0
   -6.1070   14.4640  -34.1980 C   0  0  0  0  0  0  0  0  0  0  0  0
   -6.3390   15.7850  -33.7680 C   0  0  0  0  0  0  0  0  0  0  0  0
   -5.3670   16.7830  -33.9680 C   0  0  0  0  0  0  0  0  0  0  0  0
   -5.5450   18.1200  -33.5550 C   0  0  0  0  0  0  0  0  0  0  0  0
   -6.7260   18.5530  -32.8640 N   0  0  0  0  0  0  0  0  0  0  0  0
   -6.9360   19.8910  -32.3790 C   0  0  0  0  0  0  0  0  0  0  0  0
   -8.2370   20.4600  -32.3060 C   0  0  0  0  0  0  0  0  0  0  0  0
   -8.4180   21.7770  -31.8520 C   0  0  0  0  0  0  0  0  0  0  0  0
   -7.2900   22.5060  -31.4920 C   0  0  0  0  0  0  0  0  0  0  0  0
   -7.1780   23.7990  -31.0340 C   0  0  0  0  0  0  0  0  0  0  0  0
   -5.8130   24.0140  -30.8590 C   0  0  0  0  0  0  0  0  0  0  0  0
   -5.2340   25.3260  -30.5060 C   0  0  0  0  0  0  0  0  0  0  0  0
   -3.8790   25.6140  -30.8390 N   0  0  0  0  0  0  0  0  0  0  0  0
   -5.9060   26.1740  -29.8660 O   0  0  0  0  0  0  0  0  0  0  0  0
   -5.1070   22.8920  -31.1790 N   0  0  0  0  0  0  0  0  0  0  0  0
   -3.6900   22.6900  -31.0640 C   0  0  0  0  0  0  0  0  0  0  0  0
   -3.0960   23.0080  -29.9990 O   0  0  0  0  0  0  0  0  0  0  0  0
   -2.9800   22.1520  -32.1500 O   0  0  0  0  0  0  0  0  0  0  0  0
   -1.8490   21.2700  -32.0760 C   0  0  0  0  0  0  0  0  0  0  0  0
   -1.2230   21.0740  -33.4680 C   0  0  0  0  0  0  0  0  0  0  0  0
   -2.3650   19.9140  -31.5690 C   0  0  0  0  0  0  0  0  0  0  0  0
   -0.8070   21.8090  -31.0790 C   0  0  0  0  0  0  0  0  0  0  0  0
   -6.0260   21.9800  -31.5710 C   0  0  0  0  0  0  0  0  0  0  0  0
   -5.8190   20.6640  -31.9980 C   0  0  0  0  0  0  0  0  0  0  0  0
   -4.5440   19.0190  -33.7530 N   0  0  0  0  0  0  0  0  0  0  0  0
   -3.3850   18.6670  -34.3660 C   0  0  0  0  0  0  0  0  0  0  0  0
   -3.1920   17.3900  -34.7750 N   0  0  0  0  0  0  0  0  0  0  0  0
   -4.1450   16.4410  -34.5840 C   0  0  0  0  0  0  0  0  0  0  0  0
   -3.9040   15.1270  -34.9850 C   0  0  0  0  0  0  0  0  0  0  0  0
   -4.8750   14.1300  -34.7840 C   0  0  0  0  0  0  0  0  0  0  0  0
   -4.6620   12.8000  -35.1820 O   0  0  0  0  0  0  0  0  0  0  0  0
   -4.0880   11.7820  -34.3570 C   0  0  0  0  0  0  0  0  0  0  0  0
   -3.8350   12.3180  -32.9450 C   0  0  0  0  0  0  0  0  0  0  0  0
   -2.3440   12.5430  -32.6490 C   0  0  0  0  0  0  0  0  0  0  0  0
   -1.8520   13.7910  -33.2660 N   0  0  0  0  0  0  0  0  0  0  0  0
   -0.4320   13.6970  -33.6100 C   0  0  0  0  0  0  0  0  0  0  0  0
    0.0930   15.1160  -33.6600 C   0  0  0  0  0  0  0  0  0  0  0  0
   -0.8160   15.9010  -32.7320 C   0  0  0  0  0  0  0  0  0  0  0  0
   -1.9600   14.9580  -32.3800 C   0  0  0  0  0  0  0  0  0  0  0  0
   -8.5542   12.1859  -34.7340 H   0  0  0  0  0  0  0  0  0  0  0  0
   -8.2394   13.6356  -35.7469 H   0  0  0  0  0  0  0  0  0  0  0  0
   -7.0731   12.2694  -35.7469 H   0  0  0  0  0  0  0  0  0  0  0  0
   -7.2874   16.0387  -33.2719 H   0  0  0  0  0  0  0  0  0  0  0  0
   -7.3980   17.8090  -32.5680 H   0  0  0  0  0  0  0  0  0  0  0  0
   -9.1102   19.8631  -32.6080 H   0  0  0  0  0  0  0  0  0  0  0  0
   -9.4230   22.2188  -31.7833 H   0  0  0  0  0  0  0  0  0  0  0  0
   -7.9942   24.5121  -30.8459 H   0  0  0  0  0  0  0  0  0  0  0  0
   -3.0940   25.1710  -30.3140 H   0  0  0  0  0  0  0  0  0  0  0  0
   -0.1786   20.7470  -33.3576 H   0  0  0  0  0  0  0  0  0  0  0  0
   -1.7898   20.3103  -34.0207 H   0  0  0  0  0  0  0  0  0  0  0  0
   -1.2531   22.0246  -34.0207 H   0  0  0  0  0  0  0  0  0  0  0  0
   -2.3664   19.9102  -30.4690 H   0  0  0  0  0  0  0  0  0  0  0  0
   -3.3884   19.7500  -31.9376 H   0  0  0  0  0  0  0  0  0  0  0  0
   -1.7095   19.1112  -31.9376 H   0  0  0  0  0  0  0  0  0  0  0  0
   -1.1554   21.6288  -30.0513 H   0  0  0  0  0  0  0  0  0  0  0  0
    0.1521   21.2939  -31.2367 H   0  0  0  0  0  0  0  0  0  0  0  0
   -0.6732   22.8894  -31.2367 H   0  0  0  0  0  0  0  0  0  0  0  0
   -4.8047   20.2400  -32.0360 H   0  0  0  0  0  0  0  0  0  0  0  0
   -2.6007   19.4205  -34.5310 H   0  0  0  0  0  0  0  0  0  0  0  0
   -2.9471   14.8687  -35.4621 H   0  0  0  0  0  0  0  0  0  0  0  0
   -4.7789   10.9279  -34.3019 H   0  0  0  0  0  0  0  0  0  0  0  0
   -3.1299   11.4659  -34.7954 H   0  0  0  0  0  0  0  0  0  0  0  0
   -4.3635   13.2763  -32.8334 H   0  0  0  0  0  0  0  0  0  0  0  0
   -4.2023   11.5628  -32.2345 H   0  0  0  0  0  0  0  0  0  0  0  0
   -2.2008   12.6021  -31.5600 H   0  0  0  0  0  0  0  0  0  0  0  0
   -1.7771   11.7013  -33.0735 H   0  0  0  0  0  0  0  0  0  0  0  0
    0.1069   13.1192  -32.8447 H   0  0  0  0  0  0  0  0  0  0  0  0
   -0.2891   13.1858  -34.5735 H   0  0  0  0  0  0  0  0  0  0  0  0
    1.1342   15.1562  -33.3073 H   0  0  0  0  0  0  0  0  0  0  0  0
    0.0921   15.5223  -34.6822 H   0  0  0  0  0  0  0  0  0  0  0  0
   -0.2716   16.1992  -31.8239 H   0  0  0  0  0  0  0  0  0  0  0  0
   -1.1818   16.8234  -33.2067 H   0  0  0  0  0  0  0  0  0  0  0  0
   -1.8779   14.6421  -31.3295 H   0  0  0  0  0  0  0  0  0  0  0  0
   -2.9311   15.4578  -32.5106 H   0  0  0  0  0  0  0  0  0  0  0  0
  1  2  1  0
  2  3  1  0
  3  4  2  0
  4  5  1  0
  5  6  2  0
  6  7  1  0
  7  8  1  0
  8  9  2  0
  9 10  1  0
 10 11  2  0
 11 12  1  0
 12 13  2  0
 13 14  1  0
 14 15  1  0
 14 16  2  0
 13 17  1  0
 17 18  1  0
 18 19  2  0
 18 20  1  0
 20 21  1  0
 21 22  1  0
 21 23  1  0
 21 24  1  0
 17 25  1  0
 25 26  2  0
  6 27  1  0
 27 28  2  0
 28 29  1  0
 29 30  2  0
 30 31  1  0
 31 32  2  0
 32 33  1  0
 33 34  1  0
 34 35  1  0
 35 36  1  0
 36 37  1  0
 37 38  1  0
 38 39  1  0
 39 40  1  0
 40 41  1  0
 32  3  1  0
 41 37  1  0
 30  5  1  0
 26  8  1  0
 25 11  1  0
  1 42  1  0
  1 43  1  0
  1 44  1  0
  4 45  1  0
  7 46  1  0
  9 47  1  0
 10 48  1  0
 12 49  1  0
 15 50  1  0
 22 51  1  0
 22 52  1  0
 22 53  1  0
 23 54  1  0
 23 55  1  0
 23 56  1  0
 24 57  1  0
 24 58  1  0
 24 59  1  0
 26 60  1  0
 28 61  1  0
 31 62  1  0
 34 63  1  0
 34 64  1  0
 35 65  1  0
 35 66  1  0
 36 67  1  0
 36 68  1  0
 38 69  1  0
 38 70  1  0
 39 71  1  0
 39 72  1  0
 40 73  1  0
 40 74  1  0
 41 75  1  0
 41 76  1  0
M  CHG  1  15  -1
M  END
>  <UniqueID>  (51) 
51

>  <SMILES>  (51) 
COc1cc2c(Nc3ccc4cc(C([NH-])=O)n(C(=O)OC(C)(C)C)c4c3)ncnc2cc1OCCCN1CCCC1

>  <Energy>  (51) 
127.63029556118124

>  <Genealogy>  (51) 
COc1cc2c(Nc3ccc4cc(C([NH-])=O)n(C(=O)OC(C)(C)C)c4c3)ncnc2cc1OCCCN1CCCC1 (protonated)
COc1cc2c(Nc3ccc4cc(C([NH-])=O)n(C(=O)OC(C)(C)C)c4c3)ncnc2cc1OCCCN1CCCC1 (3D coordinates assigned)
COc1cc2c(Nc3ccc4cc(C([NH-])=O)n(C(=O)OC(C)(C)C)c4c3)ncnc2cc1OCCCN1CCCC1 (nonaromatic ring conformer: 127.63029556118124 kcal/mol)

>  <smiles>  (51) 
COc1cc2c(Nc3ccc4cc(C(N)=O)n(C(=O)OC(C)(C)C)c4c3)ncnc2cc1OCCCN1CCCC1

>  <score_type>  (51) 
oracle

>  <origin>  (51) 
adg

>  <m_score__min__energy>  (51) 
-11.6

>  <m_primary>  (51) 
energy

$$$$
51:0
     RDKit          3D

 61 64  0  0  0  0  0  0  0  0999 V2000
   -0.3190   21.2640  -34.3200 C   0  0  0  0  0  0  0  0  0  0  0  0
   -1.1520   20.3910  -34.3110 C   0  0  0  0  0  0  0  0  0  0  0  0
   -2.1720   19.3340  -34.3000 C   0  0  0  0  0  0  0  0  0  0  0  0
   -2.7400   19.1830  -32.9460 N   0  0  0  0  0  0  0  0  0  0  0  0
   -2.2320   20.0090  -31.8760 C   0  0  0  0  0  0  0  0  0  0  0  0
   -1.1450   19.5670  -31.0750 C   0  0  0  0  0  0  0  0  0  0  0  0
   -0.6680   20.3550  -30.0140 C   0  0  0  0  0  0  0  0  0  0  0  0
   -1.2810   21.5840  -29.7860 C   0  0  0  0  0  0  0  0  0  0  0  0
   -1.0160   22.5430  -28.8370 C   0  0  0  0  0  0  0  0  0  0  0  0
   -1.9120   23.5790  -29.0960 C   0  0  0  0  0  0  0  0  0  0  0  0
   -1.8830   24.8640  -28.3690 C   0  0  0  0  0  0  0  0  0  0  0  0
   -1.3410   26.0380  -28.9660 N   0  0  0  0  0  0  0  0  0  0  0  0
   -2.2860   24.9140  -27.1760 O   0  0  0  0  0  0  0  0  0  0  0  0
   -2.7150   23.2630  -30.1530 N   0  0  0  0  0  0  0  0  0  0  0  0
   -3.7690   24.0460  -30.7420 C   0  0  0  0  0  0  0  0  0  0  0  0
   -3.8620   25.2760  -30.4810 O   0  0  0  0  0  0  0  0  0  0  0  0
   -4.6970   23.4190  -31.5880 O   0  0  0  0  0  0  0  0  0  0  0  0
   -6.0570   23.0840  -31.2820 C   0  0  0  0  0  0  0  0  0  0  0  0
   -6.3360   23.5900  -29.8570 C   0  0  0  0  0  0  0  0  0  0  0  0
   -7.0310   23.7840  -32.2520 C   0  0  0  0  0  0  0  0  0  0  0  0
   -6.2510   21.5590  -31.3170 C   0  0  0  0  0  0  0  0  0  0  0  0
   -2.3150   22.0380  -30.5620 C   0  0  0  0  0  0  0  0  0  0  0  0
   -2.8340   21.2550  -31.5990 C   0  0  0  0  0  0  0  0  0  0  0  0
   -3.9120   18.3150  -32.6830 C   0  0  1  0  0  0  0  0  0  0  0  0
   -5.2210   19.0170  -33.1010 C   0  0  0  0  0  0  0  0  0  0  0  0
   -5.5300   18.8310  -34.5860 C   0  0  0  0  0  0  0  0  0  0  0  0
   -5.6670   17.3460  -34.9290 C   0  0  0  0  0  0  0  0  0  0  0  0
   -4.5180   16.5190  -34.4010 C   0  0  0  0  0  0  0  0  0  0  0  0
   -4.2720   15.2560  -34.9600 C   0  0  0  0  0  0  0  0  0  0  0  0
   -3.2620   14.4470  -34.4460 C   0  0  0  0  0  0  0  0  0  0  0  0
   -2.5100   14.8990  -33.3640 C   0  0  0  0  0  0  0  0  0  0  0  0
   -2.7570   16.1210  -32.8190 N   0  0  0  0  0  0  0  0  0  0  0  0
   -3.7380   16.9410  -33.3010 C   0  0  0  0  0  0  0  0  0  0  0  0
    0.4404   22.0598  -34.3282 H   0  0  0  0  0  0  0  0  0  0  0  0
   -2.9757   19.5982  -35.0031 H   0  0  0  0  0  0  0  0  0  0  0  0
   -1.7055   18.3840  -34.5999 H   0  0  0  0  0  0  0  0  0  0  0  0
   -0.6716   18.5972  -31.2878 H   0  0  0  0  0  0  0  0  0  0  0  0
    0.1646   20.0113  -29.3826 H   0  0  0  0  0  0  0  0  0  0  0  0
   -0.2573   22.5015  -28.0416 H   0  0  0  0  0  0  0  0  0  0  0  0
   -1.2120   26.1030  -30.0030 H   0  0  0  0  0  0  0  0  0  0  0  0
   -5.9385   22.8690  -29.1275 H   0  0  0  0  0  0  0  0  0  0  0  0
   -5.8480   24.5651  -29.7121 H   0  0  0  0  0  0  0  0  0  0  0  0
   -7.4211   23.6978  -29.7121 H   0  0  0  0  0  0  0  0  0  0  0  0
   -7.7921   24.3310  -31.6762 H   0  0  0  0  0  0  0  0  0  0  0  0
   -6.4736   24.4894  -32.8858 H   0  0  0  0  0  0  0  0  0  0  0  0
   -7.5219   23.0308  -32.8858 H   0  0  0  0  0  0  0  0  0  0  0  0
   -6.3002   21.1719  -30.2885 H   0  0  0  0  0  0  0  0  0  0  0  0
   -7.1867   21.3204  -31.8438 H   0  0  0  0  0  0  0  0  0  0  0  0
   -5.4048   21.0937  -31.8438 H   0  0  0  0  0  0  0  0  0  0  0  0
   -3.6953   21.6042  -32.1874 H   0  0  0  0  0  0  0  0  0  0  0  0
   -3.9845   18.1444  -31.5987 H   0  0  0  0  0  0  0  0  0  0  0  0
   -6.0505   18.5987  -32.5120 H   0  0  0  0  0  0  0  0  0  0  0  0
   -5.0995   20.0943  -32.9148 H   0  0  0  0  0  0  0  0  0  0  0  0
   -6.4724   19.3452  -34.8257 H   0  0  0  0  0  0  0  0  0  0  0  0
   -4.7030   19.2547  -35.1747 H   0  0  0  0  0  0  0  0  0  0  0  0
   -6.6030   16.9684  -34.4916 H   0  0  0  0  0  0  0  0  0  0  0  0
   -5.6660   17.2560  -36.0253 H   0  0  0  0  0  0  0  0  0  0  0  0
   -4.8789   14.9037  -35.8071 H   0  0  0  0  0  0  0  0  0  0  0  0
   -3.0600   13.4610  -34.8898 H   0  0  0  0  0  0  0  0  0  0  0  0
   -1.7129   14.2651  -32.9483 H   0  0  0  0  0  0  0  0  0  0  0  0
   -2.1670   16.4360  -32.0170 H   0  0  0  0  0  0  0  0  0  0  0  0
  1  2  3  0
  2  3  1  0
  3  4  1  0
  4  5  1  0
  5  6  2  0
  6  7  1  0
  7  8  2  0
  8  9  1  0
  9 10  2  0
 10 11  1  0
 11 12  1  0
 11 13  2  0
 10 14  1  0
 14 15  1  0
 15 16  2  0
 15 17  1  0
 17 18  1  0
 18 19  1  0
 18 20  1  0
 18 21  1  0
 14 22  1  0
 22 23  2  0
  4 24  1  0
 24 25  1  0
 25 26  1  0
 26 27  1  0
 27 28  1  0
 28 29  2  0
 29 30  1  0
 30 31  2  0
 31 32  1  0
 32 33  2  0
 23  5  1  0
 33 24  1  0
 22  8  1  0
 33 28  1  0
  1 34  1  0
  3 35  1  0
  3 36  1  0
  6 37  1  0
  7 38  1  0
  9 39  1  0
 12 40  1  0
 19 41  1  0
 19 42  1  0
 19 43  1  0
 20 44  1  0
 20 45  1  0
 20 46  1  0
 21 47  1  0
 21 48  1  0
 21 49  1  0
 23 50  1  0
 24 51  1  1
 25 52  1  0
 25 53  1  0
 26 54  1  0
 26 55  1  0
 27 56  1  0
 27 57  1  0
 29 58  1  0
 30 59  1  0
 31 60  1  0
 32 61  1  0
M  CHG  2  12  -1  32   1
M  END
>  <UniqueID>  (52) 
52

>  <SMILES>  (52) 
C#CCN(c1ccc2cc(C([NH-])=O)n(C(=O)OC(C)(C)C)c2c1)[C@H]1CCCc2ccc[nH+]c21

>  <Energy>  (52) 
100.0323602174671

>  <Genealogy>  (52) 
C#CCN(c1ccc2cc(C([NH-])=O)n(C(=O)OC(C)(C)C)c2c1)[C@H]1CCCc2ccc[nH+]c21 (protonated)
C#CCN(c1ccc2cc(C([NH-])=O)n(C(=O)OC(C)(C)C)c2c1)[C@H]1CCCc2ccc[nH+]c21 (3D coordinates assigned)
C#CCN(c1ccc2cc(C([NH-])=O)n(C(=O)OC(C)(C)C)c2c1)[C@H]1CCCc2ccc[nH+]c21 (nonaromatic ring conformer: 100.0323602174671 kcal/mol)

>  <smiles>  (52) 
C#CCN(c1ccc2cc(C(N)=O)n(C(=O)OC(C)(C)C)c2c1)[C@H]1CCCc2cccnc21

>  <score_type>  (52) 
oracle

>  <origin>  (52) 
adg

>  <m_score__min__energy>  (52) 
-11.550000000000001

>  <m_primary>  (52) 
energy

$$$$
52:0
     RDKit          3D

 57 60  0  0  0  0  0  0  0  0999 V2000
   -6.4860   24.9300  -29.8930 C   0  0  0  0  0  0  0  0  0  0  0  0
   -6.2490   23.5400  -30.5150 C   0  0  0  0  0  0  0  0  0  0  0  0
   -6.3050   23.6620  -32.0470 C   0  0  0  0  0  0  0  0  0  0  0  0
   -7.3350   22.5470  -30.0570 C   0  0  0  0  0  0  0  0  0  0  0  0
   -4.9410   23.0550  -30.1770 O   0  0  0  0  0  0  0  0  0  0  0  0
   -3.7220   23.6970  -30.4420 C   0  0  0  0  0  0  0  0  0  0  0  0
   -3.6930   24.8970  -30.8260 O   0  0  0  0  0  0  0  0  0  0  0  0
   -2.4940   22.9670  -30.2940 N   0  0  0  0  0  0  0  0  0  0  0  0
   -1.4710   23.2250  -29.4300 C   0  0  0  0  0  0  0  0  0  0  0  0
   -1.3480   24.4180  -28.5680 C   0  0  0  0  0  0  0  0  0  0  0  0
   -1.9430   25.6510  -28.9730 N   0  0  0  0  0  0  0  0  0  0  0  0
   -0.7570   24.3520  -27.4570 O   0  0  0  0  0  0  0  0  0  0  0  0
   -0.4940   22.2340  -29.5170 C   0  0  0  0  0  0  0  0  0  0  0  0
   -0.9490   21.3560  -30.4740 C   0  0  0  0  0  0  0  0  0  0  0  0
   -0.3850   20.1730  -30.9440 C   0  0  0  0  0  0  0  0  0  0  0  0
   -1.0980   19.4440  -31.9100 C   0  0  0  0  0  0  0  0  0  0  0  0
   -2.3480   19.9090  -32.3890 C   0  0  0  0  0  0  0  0  0  0  0  0
   -3.1060   19.1090  -33.3740 C   0  0  0  0  0  0  0  0  0  0  0  0
   -2.4120   18.1310  -34.1060 C   0  0  0  0  0  0  0  0  0  0  0  0
   -3.0810   17.3220  -35.0280 C   0  0  0  0  0  0  0  0  0  0  0  0
   -4.4500   17.4820  -35.2310 C   0  0  0  0  0  0  0  0  0  0  0  0
   -5.1540   18.4570  -34.5220 C   0  0  0  0  0  0  0  0  0  0  0  0
   -4.4990   19.2840  -33.5890 C   0  0  0  0  0  0  0  0  0  0  0  0
   -5.2980   20.3910  -32.9350 C   0  0  0  0  0  0  0  0  0  0  0  0
   -6.6430   19.8750  -32.4970 C   0  0  0  0  0  0  0  0  0  0  0  0
   -7.8060   20.6330  -32.7300 C   0  0  0  0  0  0  0  0  0  0  0  0
   -9.0480   20.1750  -32.2770 C   0  0  0  0  0  0  0  0  0  0  0  0
   -9.1370   18.9650  -31.5810 C   0  0  0  0  0  0  0  0  0  0  0  0
   -7.9860   18.2070  -31.3430 C   0  0  0  0  0  0  0  0  0  0  0  0
   -6.7430   18.6570  -31.8010 C   0  0  0  0  0  0  0  0  0  0  0  0
   -2.9000   21.1020  -31.8720 C   0  0  0  0  0  0  0  0  0  0  0  0
   -2.1590   21.8200  -30.9270 C   0  0  0  0  0  0  0  0  0  0  0  0
   -6.4720   24.8481  -28.7961 H   0  0  0  0  0  0  0  0  0  0  0  0
   -5.6922   25.6180  -30.2195 H   0  0  0  0  0  0  0  0  0  0  0  0
   -7.4629   25.3161  -30.2195 H   0  0  0  0  0  0  0  0  0  0  0  0
   -6.7493   24.6300  -32.3217 H   0  0  0  0  0  0  0  0  0  0  0  0
   -5.2866   23.5963  -32.4575 H   0  0  0  0  0  0  0  0  0  0  0  0
   -6.9191   22.8469  -32.4575 H   0  0  0  0  0  0  0  0  0  0  0  0
   -7.3659   22.5187  -28.9578 H   0  0  0  0  0  0  0  0  0  0  0  0
   -8.3132   22.8696  -30.4432 H   0  0  0  0  0  0  0  0  0  0  0  0
   -7.1010   21.5439  -30.4432 H   0  0  0  0  0  0  0  0  0  0  0  0
   -2.9250   25.6800  -29.3270 H   0  0  0  0  0  0  0  0  0  0  0  0
    0.4418   22.1680  -28.9426 H   0  0  0  0  0  0  0  0  0  0  0  0
    0.5879   19.8205  -30.5708 H   0  0  0  0  0  0  0  0  0  0  0  0
   -0.6819   18.5028  -32.2986 H   0  0  0  0  0  0  0  0  0  0  0  0
   -1.3307   18.0009  -33.9516 H   0  0  0  0  0  0  0  0  0  0  0  0
   -2.5267   16.5586  -35.5937 H   0  0  0  0  0  0  0  0  0  0  0  0
   -4.9771   16.8390  -35.9512 H   0  0  0  0  0  0  0  0  0  0  0  0
   -6.2334   18.5808  -34.6942 H   0  0  0  0  0  0  0  0  0  0  0  0
   -4.7495   20.7651  -32.0580 H   0  0  0  0  0  0  0  0  0  0  0  0
   -5.4454   21.2036  -33.6616 H   0  0  0  0  0  0  0  0  0  0  0  0
   -7.7381   21.5888  -33.2702 H   0  0  0  0  0  0  0  0  0  0  0  0
   -9.9552   20.7670  -32.4684 H   0  0  0  0  0  0  0  0  0  0  0  0
  -10.1134   18.6092  -31.2204 H   0  0  0  0  0  0  0  0  0  0  0  0
   -8.0581   17.2559  -30.7951 H   0  0  0  0  0  0  0  0  0  0  0  0
   -5.8405   18.0559  -31.6160 H   0  0  0  0  0  0  0  0  0  0  0  0
   -3.8868   21.4573  -32.2037 H   0  0  0  0  0  0  0  0  0  0  0  0
  1  2  1  0
  2  3  1  0
  2  4  1  0
  2  5  1  0
  5  6  1  0
  6  7  2  0
  6  8  1  0
  8  9  1  0
  9 10  1  0
 10 11  1  0
 10 12  2  0
  9 13  2  0
 13 14  1  0
 14 15  2  0
 15 16  1  0
 16 17  2  0
 17 18  1  0
 18 19  2  0
 19 20  1  0
 20 21  2  0
 21 22  1  0
 22 23  2  0
 23 24  1  0
 24 25  1  0
 25 26  2  0
 26 27  1  0
 27 28  2  0
 28 29  1  0
 29 30  2  0
 17 31  1  0
 31 32  2  0
 32  8  1  0
 32 14  1  0
 23 18  1  0
 30 25  1  0
  1 33  1  0
  1 34  1  0
  1 35  1  0
  3 36  1  0
  3 37  1  0
  3 38  1  0
  4 39  1  0
  4 40  1  0
  4 41  1  0
 11 42  1  0
 13 43  1  0
 15 44  1  0
 16 45  1  0
 19 46  1  0
 20 47  1  0
 21 48  1  0
 22 49  1  0
 24 50  1  0
 24 51  1  0
 26 52  1  0
 27 53  1  0
 28 54  1  0
 29 55  1  0
 30 56  1  0
 31 57  1  0
M  CHG  1  11  -1
M  END
>  <UniqueID>  (53) 
53

>  <SMILES>  (53) 
CC(C)(C)OC(=O)n1c(C([NH-])=O)cc2ccc(-c3ccccc3Cc3ccccc3)cc21

>  <Energy>  (53) 
101.80613030338766

>  <Genealogy>  (53) 
CC(C)(C)OC(=O)n1c(C([NH-])=O)cc2ccc(-c3ccccc3Cc3ccccc3)cc21 (protonated)
CC(C)(C)OC(=O)n1c(C([NH-])=O)cc2ccc(-c3ccccc3Cc3ccccc3)cc21 (3D coordinates assigned)
CC(C)(C)OC(=O)n1c(C([NH-])=O)cc2ccc(-c3ccccc3Cc3ccccc3)cc21 (optimized conformer: 101.80613030338766 kcal/mol)

>  <smiles>  (53) 
CC(C)(C)OC(=O)n1c(C(N)=O)cc2ccc(-c3ccccc3Cc3ccccc3)cc21

>  <score_type>  (53) 
oracle

>  <origin>  (53) 
adg

>  <m_score__min__energy>  (53) 
-13.15

>  <m_primary>  (53) 
energy

$$$$
53:0
     RDKit          3D

 45 48  0  0  0  0  0  0  0  0999 V2000
   -6.8630   24.2170  -29.9150 C   0  0  0  0  0  0  0  0  0  0  0  0
   -7.0430   23.0550  -30.8300 C   0  0  0  0  0  0  0  0  0  0  0  0
   -7.4410   21.8340  -30.4130 N   0  0  0  0  0  0  0  0  0  0  0  0
   -7.5980   20.9710  -31.4530 C   0  0  0  0  0  0  0  0  0  0  0  0
   -8.0670   19.5630  -31.2490 C   0  0  0  0  0  0  0  0  0  0  0  0
   -6.9350   18.6410  -31.2920 N   0  0  0  0  0  0  0  0  0  0  0  0
   -6.0680   18.5300  -32.4280 C   0  0  0  0  0  0  0  0  0  0  0  0
   -6.5490   18.1090  -33.6290 N   0  0  0  0  0  0  0  0  0  0  0  0
   -5.7340   18.0060  -34.7100 C   0  0  0  0  0  0  0  0  0  0  0  0
   -4.3830   18.3290  -34.5980 C   0  0  0  0  0  0  0  0  0  0  0  0
   -3.8950   18.7480  -33.3550 C   0  0  0  0  0  0  0  0  0  0  0  0
   -2.5120   19.1130  -33.2120 N   0  0  0  0  0  0  0  0  0  0  0  0
   -1.9990   19.9080  -32.1290 C   0  0  0  0  0  0  0  0  0  0  0  0
   -0.9780   19.3760  -31.3050 C   0  0  0  0  0  0  0  0  0  0  0  0
   -0.4720   20.1120  -30.2200 C   0  0  0  0  0  0  0  0  0  0  0  0
   -1.0090   21.3740  -29.9820 C   0  0  0  0  0  0  0  0  0  0  0  0
   -0.7260   22.2810  -28.9880 C   0  0  0  0  0  0  0  0  0  0  0  0
   -1.5770   23.3600  -29.2200 C   0  0  0  0  0  0  0  0  0  0  0  0
   -1.5400   24.6070  -28.4280 C   0  0  0  0  0  0  0  0  0  0  0  0
   -1.1880   25.8500  -29.0310 N   0  0  0  0  0  0  0  0  0  0  0  0
   -1.7730   24.5670  -27.1900 O   0  0  0  0  0  0  0  0  0  0  0  0
   -2.3620   23.1250  -30.3080 N   0  0  0  0  0  0  0  0  0  0  0  0
   -3.4240   23.9470  -30.8210 C   0  0  0  0  0  0  0  0  0  0  0  0
   -4.3170   23.4480  -31.5560 O   0  0  0  0  0  0  0  0  0  0  0  0
   -3.4930   25.2930  -30.4850 O   0  0  0  0  0  0  0  0  0  0  0  0
   -1.9990   21.9050  -30.7660 C   0  0  0  0  0  0  0  0  0  0  0  0
   -2.5370   21.1850  -31.8390 C   0  0  0  0  0  0  0  0  0  0  0  0
   -4.7530   18.8490  -32.3030 N   0  0  0  0  0  0  0  0  0  0  0  0
   -7.3500   21.5110  -32.7130 C   0  0  0  0  0  0  0  0  0  0  0  0
   -6.9130   23.1210  -32.5030 S   0  0  0  0  0  0  0  0  0  0  0  0
   -6.9162   23.8736  -28.8713 H   0  0  0  0  0  0  0  0  0  0  0  0
   -5.8824   24.6802  -30.0991 H   0  0  0  0  0  0  0  0  0  0  0  0
   -7.6575   24.9552  -30.0991 H   0  0  0  0  0  0  0  0  0  0  0  0
   -8.5627   19.4837  -30.2702 H   0  0  0  0  0  0  0  0  0  0  0  0
   -8.7729   19.3010  -32.0509 H   0  0  0  0  0  0  0  0  0  0  0  0
   -6.7550   18.0320  -30.4620 H   0  0  0  0  0  0  0  0  0  0  0  0
   -6.1402   17.6675  -35.6746 H   0  0  0  0  0  0  0  0  0  0  0  0
   -3.7142   18.2562  -35.4683 H   0  0  0  0  0  0  0  0  0  0  0  0
   -1.8550   18.8570  -33.9830 H   0  0  0  0  0  0  0  0  0  0  0  0
   -0.5759   18.3743  -31.5167 H   0  0  0  0  0  0  0  0  0  0  0  0
    0.3233   19.7037  -29.5791 H   0  0  0  0  0  0  0  0  0  0  0  0
    0.0146   22.1770  -28.1813 H   0  0  0  0  0  0  0  0  0  0  0  0
   -1.2260   25.9740  -30.0660 H   0  0  0  0  0  0  0  0  0  0  0  0
   -3.3575   21.6011  -32.4420 H   0  0  0  0  0  0  0  0  0  0  0  0
   -7.4264   20.9795  -33.6730 H   0  0  0  0  0  0  0  0  0  0  0  0
  1  2  1  0
  2  3  2  0
  3  4  1  0
  4  5  1  0
  5  6  1  0
  6  7  1  0
  7  8  2  0
  8  9  1  0
  9 10  2  0
 10 11  1  0
 11 12  1  0
 12 13  1  0
 13 14  2  0
 14 15  1  0
 15 16  2  0
 16 17  1  0
 17 18  2  0
 18 19  1  0
 19 20  1  0
 19 21  2  0
 18 22  1  0
 22 23  1  0
 23 24  2  0
 23 25  1  0
 22 26  1  0
 26 27  2  0
 11 28  2  0
  4 29  2  0
 29 30  1  0
 30  2  1  0
 28  7  1  0
 27 13  1  0
 26 16  1  0
  1 31  1  0
  1 32  1  0
  1 33  1  0
  5 34  1  0
  5 35  1  0
  6 36  1  0
  9 37  1  0
 10 38  1  0
 12 39  1  0
 14 40  1  0
 15 41  1  0
 17 42  1  0
 20 43  1  0
 27 44  1  0
 29 45  1  0
M  CHG  2  20  -1  25  -1
M  END
>  <UniqueID>  (54) 
54

>  <SMILES>  (54) 
Cc1nc(CNc2nccc(Nc3ccc4cc(C([NH-])=O)n(C(=O)[O-])c4c3)n2)cs1

>  <Energy>  (54) 
117.98361878249612

>  <Genealogy>  (54) 
Cc1nc(CNc2nccc(Nc3ccc4cc(C([NH-])=O)n(C(=O)[O-])c4c3)n2)cs1 (protonated)
Cc1nc(CNc2nccc(Nc3ccc4cc(C([NH-])=O)n(C(=O)[O-])c4c3)n2)cs1 (3D coordinates assigned)
Cc1nc(CNc2nccc(Nc3ccc4cc(C([NH-])=O)n(C(=O)[O-])c4c3)n2)cs1 (optimized conformer: 117.98361878249612 kcal/mol)

>  <smiles>  (54) 
Cc1nc(CNc2nccc(Nc3ccc4cc(C(N)=O)n(C(=O)O)c4c3)n2)cs1

>  <score_type>  (54) 
oracle

>  <origin>  (54) 
adg

>  <m_score__min__energy>  (54) 
-12.949999999999999

>  <m_primary>  (54) 
energy

$$$$
54:0
     RDKit          3D

 43 45  0  0  0  0  0  0  0  0999 V2000
   -2.9130   15.9540  -35.1830 C   0  0  0  0  0  0  0  0  0  0  0  0
   -4.0530   16.7540  -35.4830 O   0  0  0  0  0  0  0  0  0  0  0  0
   -5.1020   17.0090  -34.5850 C   0  0  0  0  0  0  0  0  0  0  0  0
   -5.3620   18.2930  -34.0740 C   0  0  0  0  0  0  0  0  0  0  0  0
   -6.4260   18.5010  -33.1800 C   0  0  0  0  0  0  0  0  0  0  0  0
   -6.7110   19.8520  -32.6350 C   0  0  0  0  0  0  0  0  0  0  0  0
   -8.0480   20.3180  -32.5260 C   0  0  0  0  0  0  0  0  0  0  0  0
   -8.3280   21.5910  -32.0030 C   0  0  0  0  0  0  0  0  0  0  0  0
   -7.2550   22.3860  -31.6110 C   0  0  0  0  0  0  0  0  0  0  0  0
   -7.2400   23.6330  -31.0280 C   0  0  0  0  0  0  0  0  0  0  0  0
   -5.8930   23.9230  -30.8150 C   0  0  0  0  0  0  0  0  0  0  0  0
   -5.4120   25.1690  -30.1810 C   0  0  0  0  0  0  0  0  0  0  0  0
   -6.1050   25.7630  -29.0820 N   0  0  0  0  0  0  0  0  0  0  0  0
   -4.3480   25.7000  -30.5950 O   0  0  0  0  0  0  0  0  0  0  0  0
   -5.1110   22.8990  -31.2550 N   0  0  0  0  0  0  0  0  0  0  0  0
   -3.6960   22.7430  -31.0750 C   0  0  0  0  0  0  0  0  0  0  0  0
   -2.9670   22.5340  -32.0830 O   0  0  0  0  0  0  0  0  0  0  0  0
   -3.1070   22.8080  -29.7610 N   0  0  0  0  0  0  0  0  0  0  0  0
   -1.6550   22.9560  -29.6310 C   0  0  0  0  0  0  0  0  0  0  0  0
   -3.9470   22.6340  -28.5720 C   0  0  0  0  0  0  0  0  0  0  0  0
   -5.9580   21.9630  -31.7280 C   0  0  0  0  0  0  0  0  0  0  0  0
   -5.6500   20.6890  -32.2160 C   0  0  0  0  0  0  0  0  0  0  0  0
   -7.2150   17.3990  -32.8140 C   0  0  0  0  0  0  0  0  0  0  0  0
   -6.9470   16.1650  -33.3170 N   0  0  0  0  0  0  0  0  0  0  0  0
   -5.9230   15.9480  -34.1820 C   0  0  0  0  0  0  0  0  0  0  0  0
   -5.7170   14.7850  -34.6200 O   0  0  0  0  0  0  0  0  0  0  0  0
   -2.7984   15.8736  -34.0920 H   0  0  0  0  0  0  0  0  0  0  0  0
   -3.0461   14.9502  -35.6127 H   0  0  0  0  0  0  0  0  0  0  0  0
   -2.0143   16.4206  -35.6127 H   0  0  0  0  0  0  0  0  0  0  0  0
   -4.7284   19.1400  -34.3760 H   0  0  0  0  0  0  0  0  0  0  0  0
   -8.8758   19.6730  -32.8558 H   0  0  0  0  0  0  0  0  0  0  0  0
   -9.3637   21.9488  -31.9062 H   0  0  0  0  0  0  0  0  0  0  0  0
   -8.1058   24.2655  -30.7826 H   0  0  0  0  0  0  0  0  0  0  0  0
   -5.7810   26.6770  -28.6940 H   0  0  0  0  0  0  0  0  0  0  0  0
   -6.8680   25.2570  -28.5820 H   0  0  0  0  0  0  0  0  0  0  0  0
   -1.3832   22.9837  -28.5655 H   0  0  0  0  0  0  0  0  0  0  0  0
   -1.1548   22.1042  -30.1150 H   0  0  0  0  0  0  0  0  0  0  0  0
   -1.3370   23.8912  -30.1150 H   0  0  0  0  0  0  0  0  0  0  0  0
   -3.3335   22.7611  -27.6679 H   0  0  0  0  0  0  0  0  0  0  0  0
   -4.7510   23.3847  -28.5780 H   0  0  0  0  0  0  0  0  0  0  0  0
   -4.3867   21.6257  -28.5780 H   0  0  0  0  0  0  0  0  0  0  0  0
   -4.6065   20.3455  -32.2728 H   0  0  0  0  0  0  0  0  0  0  0  0
   -8.0546   17.5349  -32.1164 H   0  0  0  0  0  0  0  0  0  0  0  0
  1  2  1  0
  2  3  1  0
  3  4  2  0
  4  5  1  0
  5  6  1  0
  6  7  2  0
  7  8  1  0
  8  9  2  0
  9 10  1  0
 10 11  2  0
 11 12  1  0
 12 13  1  0
 12 14  2  0
 11 15  1  0
 15 16  1  0
 16 17  2  0
 16 18  1  0
 18 19  1  0
 18 20  1  0
 15 21  1  0
 21 22  2  0
  5 23  2  0
 23 24  1  0
 24 25  1  0
 25 26  2  0
 25  3  1  0
 22  6  1  0
 21  9  1  0
  1 27  1  0
  1 28  1  0
  1 29  1  0
  4 30  1  0
  7 31  1  0
  8 32  1  0
 10 33  1  0
 13 34  1  0
 13 35  1  0
 19 36  1  0
 19 37  1  0
 19 38  1  0
 20 39  1  0
 20 40  1  0
 20 41  1  0
 22 42  1  0
 23 43  1  0
M  CHG  1  24  -1
M  END
>  <UniqueID>  (55) 
55

>  <SMILES>  (55) 
COc1cc(-c2ccc3cc(C(N)=O)n(C(=O)N(C)C)c3c2)c[n-]c1=O

>  <Energy>  (55) 
88.6722177367627

>  <Genealogy>  (55) 
COc1cc(-c2ccc3cc(C(N)=O)n(C(=O)N(C)C)c3c2)c[n-]c1=O (protonated)
COc1cc(-c2ccc3cc(C(N)=O)n(C(=O)N(C)C)c3c2)c[n-]c1=O (3D coordinates assigned)
COc1cc(-c2ccc3cc(C(N)=O)n(C(=O)N(C)C)c3c2)c[n-]c1=O (optimized conformer: 88.6722177367627 kcal/mol)

>  <smiles>  (55) 
COc1cc(-c2ccc3cc(C(N)=O)n(C(=O)N(C)C)c3c2)c[nH]c1=O

>  <score_type>  (55) 
oracle

>  <origin>  (55) 
adg

>  <m_score__min__energy>  (55) 
-9.0899999999999999

>  <m_primary>  (55) 
energy

$$$$
55:0
     RDKit          3D

 37 38  0  0  0  0  0  0  0  0999 V2000
   -2.4160   20.3890  -31.2740 C   0  0  0  0  0  0  0  0  0  0  0  0
   -2.5090   20.9210  -32.7120 C   0  0  0  0  0  0  0  0  0  0  0  0
   -3.2220   19.8720  -33.5870 C   0  0  0  0  0  0  0  0  0  0  0  0
   -1.0840   21.1860  -33.2360 C   0  0  0  0  0  0  0  0  0  0  0  0
   -3.2680   22.1380  -32.6650 O   0  0  0  0  0  0  0  0  0  0  0  0
   -3.7780   22.7550  -31.5140 C   0  0  0  0  0  0  0  0  0  0  0  0
   -3.0110   23.1450  -30.5920 O   0  0  0  0  0  0  0  0  0  0  0  0
   -5.1940   22.9690  -31.3970 N   0  0  0  0  0  0  0  0  0  0  0  0
   -5.8310   24.0450  -30.8530 C   0  0  0  0  0  0  0  0  0  0  0  0
   -5.1920   25.3070  -30.4280 C   0  0  0  0  0  0  0  0  0  0  0  0
   -3.8710   25.6380  -30.8480 N   0  0  0  0  0  0  0  0  0  0  0  0
   -5.8400   26.1270  -29.7240 O   0  0  0  0  0  0  0  0  0  0  0  0
   -7.2070   23.8320  -30.8190 C   0  0  0  0  0  0  0  0  0  0  0  0
   -7.3980   22.5860  -31.3690 C   0  0  0  0  0  0  0  0  0  0  0  0
   -8.5740   21.8700  -31.5780 C   0  0  0  0  0  0  0  0  0  0  0  0
   -8.4720   20.5880  -32.1410 C   0  0  0  0  0  0  0  0  0  0  0  0
   -7.2060   20.0410  -32.4670 C   0  0  0  0  0  0  0  0  0  0  0  0
   -7.1130   18.6790  -33.0900 C   0  0  0  0  0  0  0  0  0  0  0  0
   -6.4860   17.5160  -31.8960 Cl  0  0  0  0  0  0  0  0  0  0  0  0
   -6.0360   20.8020  -32.2550 C   0  0  0  0  0  0  0  0  0  0  0  0
   -6.1680   22.0850  -31.7090 C   0  0  0  0  0  0  0  0  0  0  0  0
   -2.5610   21.2184  -30.5661 H   0  0  0  0  0  0  0  0  0  0  0  0
   -3.1949   19.6292  -31.1131 H   0  0  0  0  0  0  0  0  0  0  0  0
   -1.4255   19.9385  -31.1131 H   0  0  0  0  0  0  0  0  0  0  0  0
   -3.7227   19.1353  -32.9415 H   0  0  0  0  0  0  0  0  0  0  0  0
   -3.9689   20.3708  -34.2220 H   0  0  0  0  0  0  0  0  0  0  0  0
   -2.4833   19.3610  -34.2220 H   0  0  0  0  0  0  0  0  0  0  0  0
   -0.3983   21.3135  -32.3853 H   0  0  0  0  0  0  0  0  0  0  0  0
   -0.7541   20.3338  -33.8483 H   0  0  0  0  0  0  0  0  0  0  0  0
   -1.0825   22.0998  -33.8483 H   0  0  0  0  0  0  0  0  0  0  0  0
   -3.0370   25.2840  -30.3300 H   0  0  0  0  0  0  0  0  0  0  0  0
   -7.9778   24.5157  -30.4338 H   0  0  0  0  0  0  0  0  0  0  0  0
   -9.5523   22.2957  -31.3103 H   0  0  0  0  0  0  0  0  0  0  0  0
   -9.3836   20.0024  -32.3309 H   0  0  0  0  0  0  0  0  0  0  0  0
   -8.1118   18.3597  -33.4222 H   0  0  0  0  0  0  0  0  0  0  0  0
   -6.4323   18.7184  -33.9532 H   0  0  0  0  0  0  0  0  0  0  0  0
   -5.0459   20.3976  -32.5121 H   0  0  0  0  0  0  0  0  0  0  0  0
  1  2  1  0
  2  3  1  0
  2  4  1  0
  2  5  1  0
  5  6  1  0
  6  7  2  0
  6  8  1  0
  8  9  1  0
  9 10  1  0
 10 11  1  0
 10 12  2  0
  9 13  2  0
 13 14  1  0
 14 15  2  0
 15 16  1  0
 16 17  2  0
 17 18  1  0
 18 19  1  0
 17 20  1  0
 20 21  2  0
 21  8  1  0
 21 14  1  0
  1 22  1  0
  1 23  1  0
  1 24  1  0
  3 25  1  0
  3 26  1  0
  3 27  1  0
  4 28  1  0
  4 29  1  0
  4 30  1  0
 11 31  1  0
 13 32  1  0
 15 33  1  0
 16 34  1  0
 18 35  1  0
 18 36  1  0
 20 37  1  0
M  CHG  1  11  -1
M  END
>  <UniqueID>  (56) 
56

>  <SMILES>  (56) 
CC(C)(C)OC(=O)n1c(C([NH-])=O)cc2ccc(CCl)cc21

>  <Energy>  (56) 
70.12914550470688

>  <Genealogy>  (56) 
CC(C)(C)OC(=O)n1c(C([NH-])=O)cc2ccc(CCl)cc21 (protonated)
CC(C)(C)OC(=O)n1c(C([NH-])=O)cc2ccc(CCl)cc21 (3D coordinates assigned)
CC(C)(C)OC(=O)n1c(C([NH-])=O)cc2ccc(CCl)cc21 (optimized conformer: 70.12914550470688 kcal/mol)

>  <smiles>  (56) 
CC(C)(C)OC(=O)n1c(C(N)=O)cc2ccc(CCl)cc21

>  <score_type>  (56) 
oracle

>  <origin>  (56) 
adg

>  <m_score__min__energy>  (56) 
-10.08

>  <m_primary>  (56) 
energy

$$$$
56:0
     RDKit          3D

 37 38  0  0  0  0  0  0  0  0999 V2000
   -4.0670   22.8840  -28.4900 C   0  0  0  0  0  0  0  0  0  0  0  0
   -2.8210   22.9340  -29.3990 C   0  0  0  0  0  0  0  0  0  0  0  0
   -1.7240   23.8180  -28.7670 C   0  0  0  0  0  0  0  0  0  0  0  0
   -2.2720   21.5090  -29.5770 C   0  0  0  0  0  0  0  0  0  0  0  0
   -3.1730   23.4130  -30.7050 O   0  0  0  0  0  0  0  0  0  0  0  0
   -4.0390   22.7950  -31.6200 C   0  0  0  0  0  0  0  0  0  0  0  0
   -3.5640   22.1360  -32.5860 O   0  0  0  0  0  0  0  0  0  0  0  0
   -5.4730   22.8750  -31.4360 N   0  0  0  0  0  0  0  0  0  0  0  0
   -6.1850   23.9540  -30.9900 C   0  0  0  0  0  0  0  0  0  0  0  0
   -5.6210   25.1950  -30.4250 C   0  0  0  0  0  0  0  0  0  0  0  0
   -4.2590   25.5530  -30.6650 N   0  0  0  0  0  0  0  0  0  0  0  0
   -6.3270   25.9060  -29.6580 O   0  0  0  0  0  0  0  0  0  0  0  0
   -7.5510   23.7220  -31.0680 C   0  0  0  0  0  0  0  0  0  0  0  0
   -7.6730   22.4430  -31.5540 C   0  0  0  0  0  0  0  0  0  0  0  0
   -8.8220   21.6960  -31.8000 C   0  0  0  0  0  0  0  0  0  0  0  0
   -8.6700   20.3890  -32.2880 C   0  0  0  0  0  0  0  0  0  0  0  0
   -7.3820   19.8570  -32.5170 C   0  0  0  0  0  0  0  0  0  0  0  0
   -7.2400   18.5230  -33.0120 N   0  0  0  0  0  0  0  0  0  0  0  0
   -6.2370   20.6390  -32.2550 C   0  0  0  0  0  0  0  0  0  0  0  0
   -6.4100   21.9470  -31.7720 C   0  0  0  0  0  0  0  0  0  0  0  0
   -3.7526   22.8966  -27.4359 H   0  0  0  0  0  0  0  0  0  0  0  0
   -4.7043   23.7573  -28.6930 H   0  0  0  0  0  0  0  0  0  0  0  0
   -4.6323   21.9625  -28.6930 H   0  0  0  0  0  0  0  0  0  0  0  0
   -1.7940   23.7616  -27.6707 H   0  0  0  0  0  0  0  0  0  0  0  0
   -0.7347   23.4618  -29.0900 H   0  0  0  0  0  0  0  0  0  0  0  0
   -1.8618   24.8604  -29.0900 H   0  0  0  0  0  0  0  0  0  0  0  0
   -2.0979   21.0571  -28.5893 H   0  0  0  0  0  0  0  0  0  0  0  0
   -3.0007   20.9023  -30.1345 H   0  0  0  0  0  0  0  0  0  0  0  0
   -1.3246   21.5481  -30.1345 H   0  0  0  0  0  0  0  0  0  0  0  0
   -3.8610   26.4280  -30.2550 H   0  0  0  0  0  0  0  0  0  0  0  0
   -3.6410   24.9340  -31.2380 H   0  0  0  0  0  0  0  0  0  0  0  0
   -8.3623   24.4141  -30.7984 H   0  0  0  0  0  0  0  0  0  0  0  0
   -9.8210   22.1185  -31.6169 H   0  0  0  0  0  0  0  0  0  0  0  0
   -9.5594   19.7752  -32.4934 H   0  0  0  0  0  0  0  0  0  0  0  0
   -6.6410   17.8270  -32.5140 H   0  0  0  0  0  0  0  0  0  0  0  0
   -7.7410   18.2160  -33.8760 H   0  0  0  0  0  0  0  0  0  0  0  0
   -5.2291   20.2327  -32.4255 H   0  0  0  0  0  0  0  0  0  0  0  0
  1  2  1  0
  2  3  1  0
  2  4  1  0
  2  5  1  0
  5  6  1  0
  6  7  2  0
  6  8  1  0
  8  9  1  0
  9 10  1  0
 10 11  1  0
 10 12  2  0
  9 13  2  0
 13 14  1  0
 14 15  2  0
 15 16  1  0
 16 17  2  0
 17 18  1  0
 17 19  1  0
 19 20  2  0
 20  8  1  0
 20 14  1  0
  1 21  1  0
  1 22  1  0
  1 23  1  0
  3 24  1  0
  3 25  1  0
  3 26  1  0
  4 27  1  0
  4 28  1  0
  4 29  1  0
 11 30  1  0
 11 31  1  0
 13 32  1  0
 15 33  1  0
 16 34  1  0
 18 35  1  0
 18 36  1  0
 19 37  1  0
M  END
>  <UniqueID>  (57) 
57

>  <SMILES>  (57) 
CC(C)(C)OC(=O)n1c(C(N)=O)cc2ccc(N)cc21

>  <Energy>  (57) 
73.28612119005402

>  <Genealogy>  (57) 
CC(C)(C)OC(=O)n1c(C(N)=O)cc2ccc(N)cc21 (3D coordinates assigned)
CC(C)(C)OC(=O)n1c(C(N)=O)cc2ccc(N)cc21 (optimized conformer: 73.28612119005402 kcal/mol)

>  <smiles>  (57) 
CC(C)(C)OC(=O)n1c(C(N)=O)cc2ccc(N)cc21

>  <score_type>  (57) 
oracle

>  <origin>  (57) 
adg

>  <m_score__min__energy>  (57) 
-7.9299999999999997

>  <m_primary>  (57) 
energy

$$$$
57:0
     RDKit          3D

 39 40  0  0  0  0  0  0  0  0999 V2000
   -6.4710   17.7970  -32.5160 C   0  0  0  0  0  0  0  0  0  0  0  0
   -7.3470   18.8460  -33.0260 N   0  0  0  0  0  0  0  0  0  0  0  0
   -7.4170   20.1680  -32.4610 C   0  0  0  0  0  0  0  0  0  0  0  0
   -8.6600   20.7640  -32.1150 C   0  0  0  0  0  0  0  0  0  0  0  0
   -8.7080   22.0510  -31.5540 C   0  0  0  0  0  0  0  0  0  0  0  0
   -7.5060   22.7230  -31.3580 C   0  0  0  0  0  0  0  0  0  0  0  0
   -7.2640   23.9600  -30.8080 C   0  0  0  0  0  0  0  0  0  0  0  0
   -5.8810   24.1190  -30.8490 C   0  0  0  0  0  0  0  0  0  0  0  0
   -5.1910   25.3560  -30.4250 C   0  0  0  0  0  0  0  0  0  0  0  0
   -3.8640   25.6390  -30.8580 N   0  0  0  0  0  0  0  0  0  0  0  0
   -5.8000   26.1970  -29.7110 O   0  0  0  0  0  0  0  0  0  0  0  0
   -5.2890   23.0190  -31.3940 N   0  0  0  0  0  0  0  0  0  0  0  0
   -3.8840   22.7500  -31.5170 C   0  0  0  0  0  0  0  0  0  0  0  0
   -3.4500   22.1470  -32.5340 O   0  0  0  0  0  0  0  0  0  0  0  0
   -3.0150   23.1430  -30.4870 O   0  0  0  0  0  0  0  0  0  0  0  0
   -2.9080   22.5430  -29.1870 C   0  0  0  0  0  0  0  0  0  0  0  0
   -1.6500   23.1230  -28.5240 C   0  0  0  0  0  0  0  0  0  0  0  0
   -2.7480   21.0150  -29.3050 C   0  0  0  0  0  0  0  0  0  0  0  0
   -4.1350   22.8950  -28.3250 C   0  0  0  0  0  0  0  0  0  0  0  0
   -6.2980   22.1740  -31.7020 C   0  0  0  0  0  0  0  0  0  0  0  0
   -6.2200   20.8860  -32.2450 C   0  0  0  0  0  0  0  0  0  0  0  0
   -6.4832   17.8116  -31.4162 H   0  0  0  0  0  0  0  0  0  0  0  0
   -6.8240   16.8185  -32.8736 H   0  0  0  0  0  0  0  0  0  0  0  0
   -5.4452   17.9699  -32.8736 H   0  0  0  0  0  0  0  0  0  0  0  0
   -7.9530   18.6140  -33.8460 H   0  0  0  0  0  0  0  0  0  0  0  0
   -9.5951   20.2112  -32.2885 H   0  0  0  0  0  0  0  0  0  0  0  0
   -9.6672   22.5134  -31.2780 H   0  0  0  0  0  0  0  0  0  0  0  0
   -8.0056   24.6728  -30.4183 H   0  0  0  0  0  0  0  0  0  0  0  0
   -3.0380   25.2990  -30.3180 H   0  0  0  0  0  0  0  0  0  0  0  0
   -1.7562   23.0740  -27.4302 H   0  0  0  0  0  0  0  0  0  0  0  0
   -0.7703   22.5396  -28.8334 H   0  0  0  0  0  0  0  0  0  0  0  0
   -1.5224   24.1708  -28.8334 H   0  0  0  0  0  0  0  0  0  0  0  0
   -2.7017   20.5724  -28.2990 H   0  0  0  0  0  0  0  0  0  0  0  0
   -3.6073   20.5974  -29.8501 H   0  0  0  0  0  0  0  0  0  0  0  0
   -1.8208   20.7844  -29.8501 H   0  0  0  0  0  0  0  0  0  0  0  0
   -3.8692   22.8187  -27.2603 H   0  0  0  0  0  0  0  0  0  0  0  0
   -4.4584   23.9221  -28.5495 H   0  0  0  0  0  0  0  0  0  0  0  0
   -4.9537   22.1955  -28.5495 H   0  0  0  0  0  0  0  0  0  0  0  0
   -5.2460   20.4420  -32.4984 H   0  0  0  0  0  0  0  0  0  0  0  0
  1  2  1  0
  2  3  1  0
  3  4  2  0
  4  5  1  0
  5  6  2  0
  6  7  1  0
  7  8  2  0
  8  9  1  0
  9 10  1  0
  9 11  2  0
  8 12  1  0
 12 13  1  0
 13 14  2  0
 13 15  1  0
 15 16  1  0
 16 17  1  0
 16 18  1  0
 16 19  1  0
 12 20  1  0
 20 21  2  0
 21  3  1  0
 20  6  1  0
  1 22  1  0
  1 23  1  0
  1 24  1  0
  2 25  1  0
  4 26  1  0
  5 27  1  0
  7 28  1  0
 10 29  1  0
 17 30  1  0
 17 31  1  0
 17 32  1  0
 18 33  1  0
 18 34  1  0
 18 35  1  0
 19 36  1  0
 19 37  1  0
 19 38  1  0
 21 39  1  0
M  CHG  1  10  -1
M  END
>  <UniqueID>  (58) 
58

>  <SMILES>  (58) 
CNc1ccc2cc(C([NH-])=O)n(C(=O)OC(C)(C)C)c2c1

>  <Energy>  (58) 
71.73886102033356

>  <Genealogy>  (58) 
CNc1ccc2cc(C([NH-])=O)n(C(=O)OC(C)(C)C)c2c1 (protonated)
CNc1ccc2cc(C([NH-])=O)n(C(=O)OC(C)(C)C)c2c1 (3D coordinates assigned)
CNc1ccc2cc(C([NH-])=O)n(C(=O)OC(C)(C)C)c2c1 (optimized conformer: 71.73886102033356 kcal/mol)

>  <smiles>  (58) 
CNc1ccc2cc(C(N)=O)n(C(=O)OC(C)(C)C)c2c1

>  <score_type>  (58) 
oracle

>  <origin>  (58) 
adg

>  <m_score__min__energy>  (58) 
-10.07

>  <m_primary>  (58) 
energy

$$$$
58:0
     RDKit          3D

 66 70  0  0  0  0  0  0  0  0999 V2000
   -0.8880   21.8890  -27.9870 C   0  0  0  0  0  0  0  0  0  0  0  0
   -1.9980   21.0550  -28.6450 C   0  0  0  0  0  0  0  0  0  0  0  0
   -1.4100   20.3180  -29.8640 C   0  0  0  0  0  0  0  0  0  0  0  0
   -2.5440   20.0500  -27.6130 C   0  0  0  0  0  0  0  0  0  0  0  0
   -3.0280   21.9680  -29.0530 O   0  0  0  0  0  0  0  0  0  0  0  0
   -3.1240   22.6210  -30.2900 C   0  0  0  0  0  0  0  0  0  0  0  0
   -2.1160   23.1990  -30.7770 O   0  0  0  0  0  0  0  0  0  0  0  0
   -4.3700   22.6040  -31.0220 N   0  0  0  0  0  0  0  0  0  0  0  0
   -5.3190   23.5860  -31.0630 C   0  0  0  0  0  0  0  0  0  0  0  0
   -5.2080   24.9330  -30.4810 C   0  0  0  0  0  0  0  0  0  0  0  0
   -3.9650   25.6300  -30.5060 N   0  0  0  0  0  0  0  0  0  0  0  0
   -6.2350   25.5040  -30.0310 O   0  0  0  0  0  0  0  0  0  0  0  0
   -6.4560   23.1550  -31.7350 C   0  0  0  0  0  0  0  0  0  0  0  0
   -6.1740   21.8740  -32.1390 C   0  0  0  0  0  0  0  0  0  0  0  0
   -6.9530   20.9800  -32.8670 C   0  0  0  0  0  0  0  0  0  0  0  0
   -6.4090   19.7210  -33.1650 C   0  0  0  0  0  0  0  0  0  0  0  0
   -5.0990   19.3860  -32.7460 C   0  0  0  0  0  0  0  0  0  0  0  0
   -4.5230   18.0630  -33.0540 C   0  0  0  0  0  0  0  0  0  0  0  0
   -3.1680   17.9090  -33.0580 N   0  0  0  0  0  0  0  0  0  0  0  0
   -2.5760   16.7170  -33.3700 C   0  0  0  0  0  0  0  0  0  0  0  0
   -1.1370   16.5990  -33.3580 N   0  0  0  0  0  0  0  0  0  0  0  0
   -0.3870   16.6940  -32.0920 C   0  0  0  0  0  0  0  0  0  0  0  0
    0.2920   18.0680  -31.9110 C   0  0  0  0  0  0  0  0  0  0  0  0
    1.0610   18.5830  -33.1440 C   0  0  0  0  0  0  0  0  0  0  0  0
    0.2240   18.7730  -34.3440 N   0  0  0  0  0  0  0  0  0  0  0  0
   -1.0380   19.0560  -33.9410 F   0  0  0  0  0  0  0  0  0  0  0  0
    0.1580   17.6270  -35.2710 C   0  0  0  0  0  0  0  0  0  0  0  0
   -0.4380   16.3540  -34.6360 C   0  0  0  0  0  0  0  0  0  0  0  0
   -3.3570   15.6510  -33.7130 N   0  0  0  0  0  0  0  0  0  0  0  0
   -4.7060   15.7790  -33.7240 C   0  0  0  0  0  0  0  0  0  0  0  0
   -5.3140   16.9580  -33.3990 C   0  0  0  0  0  0  0  0  0  0  0  0
   -6.7880   16.8740  -33.5640 C   0  0  0  0  0  0  0  0  0  0  0  0
   -7.0170   15.4670  -34.1520 C   0  0  0  0  0  0  0  0  0  0  0  0
   -5.6650   14.7310  -34.1300 C   0  0  0  0  0  0  0  0  0  0  0  0
   -4.3430   20.3120  -31.9940 C   0  0  0  0  0  0  0  0  0  0  0  0
   -4.9120   21.5590  -31.7000 C   0  0  0  0  0  0  0  0  0  0  0  0
   -0.9782   21.8212  -26.8928 H   0  0  0  0  0  0  0  0  0  0  0  0
    0.0940   21.5034  -28.2986 H   0  0  0  0  0  0  0  0  0  0  0  0
   -0.9851   22.9395  -28.2986 H   0  0  0  0  0  0  0  0  0  0  0  0
   -0.7585   19.5014  -29.5195 H   0  0  0  0  0  0  0  0  0  0  0  0
   -2.2280   19.9031  -30.4713 H   0  0  0  0  0  0  0  0  0  0  0  0
   -0.8238   21.0234  -30.4713 H   0  0  0  0  0  0  0  0  0  0  0  0
   -2.3423   20.4213  -26.5974 H   0  0  0  0  0  0  0  0  0  0  0  0
   -3.6290   19.9343  -27.7524 H   0  0  0  0  0  0  0  0  0  0  0  0
   -2.0506   19.0768  -27.7524 H   0  0  0  0  0  0  0  0  0  0  0  0
   -3.0840   25.1450  -30.7860 H   0  0  0  0  0  0  0  0  0  0  0  0
   -7.3842   23.7199  -31.9066 H   0  0  0  0  0  0  0  0  0  0  0  0
   -7.9657   21.2521  -33.1993 H   0  0  0  0  0  0  0  0  0  0  0  0
   -7.0055   18.9886  -33.7288 H   0  0  0  0  0  0  0  0  0  0  0  0
   -1.0833   16.5314  -31.2561 H   0  0  0  0  0  0  0  0  0  0  0  0
    0.4038   15.9297  -32.1130 H   0  0  0  0  0  0  0  0  0  0  0  0
   -0.4874   18.8037  -31.6633 H   0  0  0  0  0  0  0  0  0  0  0  0
    1.0398   17.9385  -31.1147 H   0  0  0  0  0  0  0  0  0  0  0  0
    1.5184   19.5496  -32.8861 H   0  0  0  0  0  0  0  0  0  0  0  0
    1.8047   17.8128  -33.3966 H   0  0  0  0  0  0  0  0  0  0  0  0
   -0.4653   17.9111  -36.1317 H   0  0  0  0  0  0  0  0  0  0  0  0
    1.1911   17.3886  -35.5639 H   0  0  0  0  0  0  0  0  0  0  0  0
   -1.1551   15.9152  -35.3454 H   0  0  0  0  0  0  0  0  0  0  0  0
    0.4032   15.6795  -34.4180 H   0  0  0  0  0  0  0  0  0  0  0  0
   -7.2968   16.9804  -32.5946 H   0  0  0  0  0  0  0  0  0  0  0  0
   -7.1886   17.6721  -34.2063 H   0  0  0  0  0  0  0  0  0  0  0  0
   -7.7522   14.9205  -33.5430 H   0  0  0  0  0  0  0  0  0  0  0  0
   -7.4048   15.5346  -35.1791 H   0  0  0  0  0  0  0  0  0  0  0  0
   -5.6781   13.9070  -33.4014 H   0  0  0  0  0  0  0  0  0  0  0  0
   -5.4124   14.2717  -35.0971 H   0  0  0  0  0  0  0  0  0  0  0  0
   -3.3301   20.0603  -31.6467 H   0  0  0  0  0  0  0  0  0  0  0  0
  1  2  1  0
  2  3  1  0
  2  4  1  0
  2  5  1  0
  5  6  1  0
  6  7  2  0
  6  8  1  0
  8  9  1  0
  9 10  1  0
 10 11  1  0
 10 12  2  0
  9 13  2  0
 13 14  1  0
 14 15  2  0
 15 16  1  0
 16 17  2  0
 17 18  1  0
 18 19  2  0
 19 20  1  0
 20 21  1  0
 21 22  1  0
 22 23  1  0
 23 24  1  0
 24 25  1  0
 25 26  1  0
 25 27  1  0
 27 28  1  0
 20 29  2  0
 29 30  1  0
 30 31  2  0
 31 32  1  0
 32 33  1  0
 33 34  1  0
 17 35  1  0
 35 36  2  0
 36  8  1  0
 36 14  1  0
 31 18  1  0
 28 21  1  0
 34 30  1  0
  1 37  1  0
  1 38  1  0
  1 39  1  0
  3 40  1  0
  3 41  1  0
  3 42  1  0
  4 43  1  0
  4 44  1  0
  4 45  1  0
 11 46  1  0
 13 47  1  0
 15 48  1  0
 16 49  1  0
 22 50  1  0
 22 51  1  0
 23 52  1  0
 23 53  1  0
 24 54  1  0
 24 55  1  0
 27 56  1  0
 27 57  1  0
 28 58  1  0
 28 59  1  0
 32 60  1  0
 32 61  1  0
 33 62  1  0
 33 63  1  0
 34 64  1  0
 34 65  1  0
 35 66  1  0
M  CHG  1  11  -1
M  END
>  <UniqueID>  (59) 
59

>  <SMILES>  (59) 
CC(C)(C)OC(=O)n1c(C([NH-])=O)cc2ccc(-c3nc(N4CCCN(F)CC4)nc4c3CCC4)cc21

>  <Energy>  (59) 
133.1618188373423

>  <Genealogy>  (59) 
CC(C)(C)OC(=O)n1c(C([NH-])=O)cc2ccc(-c3nc(N4CCCN(F)CC4)nc4c3CCC4)cc21 (protonated)
CC(C)(C)OC(=O)n1c(C([NH-])=O)cc2ccc(-c3nc(N4CCCN(F)CC4)nc4c3CCC4)cc21 (3D coordinates assigned)
CC(C)(C)OC(=O)n1c(C([NH-])=O)cc2ccc(-c3nc(N4CCCN(F)CC4)nc4c3CCC4)cc21 (nonaromatic ring conformer: 133.1618188373423 kcal/mol)

>  <smiles>  (59) 
CC(C)(C)OC(=O)n1c(C(N)=O)cc2ccc(-c3nc(N4CCCN(F)CC4)nc4c3CCC4)cc21

>  <score_type>  (59) 
oracle

>  <origin>  (59) 
adg

>  <m_score__min__energy>  (59) 
-10.130000000000001

>  <m_primary>  (59) 
energy

$$$$
59:0
     RDKit          3D

 35 37  0  0  0  0  0  0  0  0999 V2000
   -7.4050   18.1210  -32.5180 C   0  0  0  0  0  0  0  0  0  0  0  0
   -8.0130   19.4840  -32.4370 C   0  0  0  0  0  0  0  0  0  0  0  0
   -9.3110   19.7330  -32.6950 N   0  0  0  0  0  0  0  0  0  0  0  0
   -9.4960   21.0110  -32.5290 O   0  0  0  0  0  0  0  0  0  0  0  0
   -8.3850   21.6120  -32.1690 C   0  0  0  0  0  0  0  0  0  0  0  0
   -8.2820   23.0780  -31.9020 C   0  0  0  0  0  0  0  0  0  0  0  0
   -7.3770   20.6670  -32.0920 C   0  0  0  0  0  0  0  0  0  0  0  0
   -5.9590   20.8710  -31.7250 C   0  0  0  0  0  0  0  0  0  0  0  0
   -5.0080   19.8490  -31.9630 C   0  0  0  0  0  0  0  0  0  0  0  0
   -3.6630   20.0240  -31.6040 C   0  0  0  0  0  0  0  0  0  0  0  0
   -3.2950   21.2320  -31.0190 C   0  0  0  0  0  0  0  0  0  0  0  0
   -2.0730   21.6460  -30.5420 C   0  0  0  0  0  0  0  0  0  0  0  0
   -2.2880   22.9290  -30.0480 C   0  0  0  0  0  0  0  0  0  0  0  0
   -1.2160   23.7710  -29.4800 C   0  0  0  0  0  0  0  0  0  0  0  0
   -1.3800   25.1830  -29.3360 N   0  0  0  0  0  0  0  0  0  0  0  0
   -0.1150   23.2440  -29.1680 O   0  0  0  0  0  0  0  0  0  0  0  0
   -3.5930   23.2930  -30.2010 N   0  0  0  0  0  0  0  0  0  0  0  0
   -4.2270   24.4870  -29.7110 C   0  0  0  0  0  0  0  0  0  0  0  0
   -4.2510   25.6700  -30.5060 N   0  0  0  0  0  0  0  0  0  0  0  0
   -4.7590   24.4970  -28.5690 O   0  0  0  0  0  0  0  0  0  0  0  0
   -4.1980   22.2410  -30.7990 C   0  0  0  0  0  0  0  0  0  0  0  0
   -5.5490   22.0830  -31.1260 C   0  0  0  0  0  0  0  0  0  0  0  0
   -7.2330   17.7353  -31.5023 H   0  0  0  0  0  0  0  0  0  0  0  0
   -8.0875   17.4464  -33.0557 H   0  0  0  0  0  0  0  0  0  0  0  0
   -6.4471   18.1782  -33.0557 H   0  0  0  0  0  0  0  0  0  0  0  0
   -8.2697   23.2529  -30.8161 H   0  0  0  0  0  0  0  0  0  0  0  0
   -7.3543   23.4674  -32.3467 H   0  0  0  0  0  0  0  0  0  0  0  0
   -9.1462   23.5933  -32.3467 H   0  0  0  0  0  0  0  0  0  0  0  0
   -5.3273   18.9078  -32.4344 H   0  0  0  0  0  0  0  0  0  0  0  0
   -2.9218   19.2304  -31.7796 H   0  0  0  0  0  0  0  0  0  0  0  0
   -1.1279   21.0832  -30.5495 H   0  0  0  0  0  0  0  0  0  0  0  0
   -0.6270   25.7550  -28.8940 H   0  0  0  0  0  0  0  0  0  0  0  0
   -2.2060   25.6740  -29.7430 H   0  0  0  0  0  0  0  0  0  0  0  0
   -3.7720   25.7030  -31.4330 H   0  0  0  0  0  0  0  0  0  0  0  0
   -6.2750   22.8837  -30.9215 H   0  0  0  0  0  0  0  0  0  0  0  0
  1  2  1  0
  2  3  2  0
  3  4  1  0
  4  5  1  0
  5  6  1  0
  5  7  2  0
  7  8  1  0
  8  9  2  0
  9 10  1  0
 10 11  2  0
 11 12  1  0
 12 13  2  0
 13 14  1  0
 14 15  1  0
 14 16  2  0
 13 17  1  0
 17 18  1  0
 18 19  1  0
 18 20  2  0
 17 21  1  0
 21 22  2  0
  7  2  1  0
 22  8  1  0
 21 11  1  0
  1 23  1  0
  1 24  1  0
  1 25  1  0
  6 26  1  0
  6 27  1  0
  6 28  1  0
  9 29  1  0
 10 30  1  0
 12 31  1  0
 15 32  1  0
 15 33  1  0
 19 34  1  0
 22 35  1  0
M  CHG  1  19  -1
M  END
>  <UniqueID>  (60) 
60

>  <SMILES>  (60) 
Cc1noc(C)c1-c1ccc2cc(C(N)=O)n(C([NH-])=O)c2c1

>  <Energy>  (60) 
110.43819490831571

>  <Genealogy>  (60) 
Cc1noc(C)c1-c1ccc2cc(C(N)=O)n(C([NH-])=O)c2c1 (protonated)
Cc1noc(C)c1-c1ccc2cc(C(N)=O)n(C([NH-])=O)c2c1 (3D coordinates assigned)
Cc1noc(C)c1-c1ccc2cc(C(N)=O)n(C([NH-])=O)c2c1 (optimized conformer: 110.43819490831571 kcal/mol)

>  <smiles>  (60) 
Cc1noc(C)c1-c1ccc2cc(C(N)=O)n(C(N)=O)c2c1

>  <score_type>  (60) 
oracle

>  <origin>  (60) 
adg

>  <m_score__min__energy>  (60) 
-9.4700000000000006

>  <m_primary>  (60) 
energy

$$$$
60:0
     RDKit          3D

 68 73  0  0  0  0  0  0  0  0999 V2000
   -7.6090   23.4240  -32.1090 C   0  0  0  0  0  0  0  0  0  0  0  0
   -6.2240   23.4620  -31.6550 N   0  0  0  0  0  0  0  0  0  0  0  0
   -5.6860   24.5320  -31.0910 N   0  0  0  0  0  0  0  0  0  0  0  0
   -4.4080   24.2290  -30.8040 C   0  0  0  0  0  0  0  0  0  0  0  0
   -3.5120   25.1410  -30.1640 N   0  0  0  0  0  0  0  0  0  0  0  0
   -2.5020   24.7710  -29.2180 C   0  0  0  0  0  0  0  0  0  0  0  0
   -1.3530   25.2710  -29.3490 O   0  0  0  0  0  0  0  0  0  0  0  0
   -2.8100   23.8780  -28.0230 C   0  0  0  0  0  0  0  0  0  0  0  0
   -2.2980   22.4560  -27.9870 C   0  0  0  0  0  0  0  0  0  0  0  0
   -3.1690   21.4060  -27.5980 C   0  0  0  0  0  0  0  0  0  0  0  0
   -2.7270   20.0700  -27.5980 C   0  0  0  0  0  0  0  0  0  0  0  0
   -1.4140   19.8210  -27.9870 C   0  0  0  0  0  0  0  0  0  0  0  0
   -0.5730   20.8180  -28.3620 C   0  0  0  0  0  0  0  0  0  0  0  0
   -0.9720   22.1510  -28.3780 C   0  0  0  0  0  0  0  0  0  0  0  0
    0.6570   20.2850  -28.6940 O   0  0  0  0  0  0  0  0  0  0  0  0
    0.5870   18.8650  -28.5000 C   0  0  0  0  0  0  0  0  0  0  0  0
    1.4890   18.4710  -27.5300 F   0  0  0  0  0  0  0  0  0  0  0  0
    0.8390   18.2060  -29.6870 F   0  0  0  0  0  0  0  0  0  0  0  0
   -0.7550   18.6090  -28.0620 O   0  0  0  0  0  0  0  0  0  0  0  0
   -4.2420   24.0010  -27.4980 C   0  0  0  0  0  0  0  0  0  0  0  0
   -3.0880   24.5670  -26.6870 C   0  0  0  0  0  0  0  0  0  0  0  0
   -4.1050   22.9460  -31.2170 C   0  0  0  0  0  0  0  0  0  0  0  0
   -5.2990   22.4730  -31.7260 C   0  0  0  0  0  0  0  0  0  0  0  0
   -5.5200   21.0980  -32.2240 C   0  0  0  0  0  0  0  0  0  0  0  0
   -6.8340   20.5730  -32.2750 C   0  0  0  0  0  0  0  0  0  0  0  0
   -7.0740   19.2910  -32.7970 C   0  0  0  0  0  0  0  0  0  0  0  0
   -5.9850   18.5600  -33.2600 C   0  0  0  0  0  0  0  0  0  0  0  0
   -5.9460   17.3170  -33.8410 C   0  0  0  0  0  0  0  0  0  0  0  0
   -4.6090   17.0990  -34.1480 C   0  0  0  0  0  0  0  0  0  0  0  0
   -4.1360   15.8810  -34.8250 C   0  0  0  0  0  0  0  0  0  0  0  0
   -3.2410   15.9660  -35.9350 N   0  0  0  0  0  0  0  0  0  0  0  0
   -4.5920   14.7600  -34.4750 O   0  0  0  0  0  0  0  0  0  0  0  0
   -3.8350   18.1490  -33.7470 N   0  0  0  0  0  0  0  0  0  0  0  0
   -2.3920   18.2200  -33.7450 C   0  0  0  0  0  0  0  0  0  0  0  0
   -1.7390   17.7770  -34.7270 O   0  0  0  0  0  0  0  0  0  0  0  0
   -1.7210   18.8140  -32.6670 O   0  0  0  0  0  0  0  0  0  0  0  0
   -0.9760   20.0390  -32.6930 C   0  0  0  0  0  0  0  0  0  0  0  0
    0.5350   19.7580  -32.6000 C   0  0  0  0  0  0  0  0  0  0  0  0
   -1.4290   20.9720  -31.5540 C   0  0  0  0  0  0  0  0  0  0  0  0
   -1.2710   20.7200  -34.0380 C   0  0  0  0  0  0  0  0  0  0  0  0
   -4.7020   19.0470  -33.2180 C   0  0  0  0  0  0  0  0  0  0  0  0
   -4.4420   20.3330  -32.7220 C   0  0  0  0  0  0  0  0  0  0  0  0
   -8.2801   23.4056  -31.2376 H   0  0  0  0  0  0  0  0  0  0  0  0
   -7.8205   24.3167  -32.7159 H   0  0  0  0  0  0  0  0  0  0  0  0
   -7.7713   22.5211  -32.7159 H   0  0  0  0  0  0  0  0  0  0  0  0
   -4.2001   21.6385  -27.2934 H   0  0  0  0  0  0  0  0  0  0  0  0
   -3.3969   19.2498  -27.3005 H   0  0  0  0  0  0  0  0  0  0  0  0
   -0.2765   22.9456  -28.6859 H   0  0  0  0  0  0  0  0  0  0  0  0
   -4.9520   24.6807  -27.9920 H   0  0  0  0  0  0  0  0  0  0  0  0
   -5.0592   23.2927  -27.2967 H   0  0  0  0  0  0  0  0  0  0  0  0
   -2.9639   25.6560  -26.5943 H   0  0  0  0  0  0  0  0  0  0  0  0
   -2.7261   24.4370  -25.6564 H   0  0  0  0  0  0  0  0  0  0  0  0
   -3.1391   22.4234  -31.1551 H   0  0  0  0  0  0  0  0  0  0  0  0
   -7.6756   21.1752  -31.9020 H   0  0  0  0  0  0  0  0  0  0  0  0
   -8.0926   18.8777  -32.8383 H   0  0  0  0  0  0  0  0  0  0  0  0
   -6.7924   16.6387  -34.0243 H   0  0  0  0  0  0  0  0  0  0  0  0
   -2.9210   15.1000  -36.4210 H   0  0  0  0  0  0  0  0  0  0  0  0
   -2.9340   16.8940  -36.3030 H   0  0  0  0  0  0  0  0  0  0  0  0
    0.8332   19.7025  -31.5427 H   0  0  0  0  0  0  0  0  0  0  0  0
    0.7614   18.8023  -33.0954 H   0  0  0  0  0  0  0  0  0  0  0  0
    1.0898   20.5684  -33.0954 H   0  0  0  0  0  0  0  0  0  0  0  0
   -1.2019   20.5043  -30.5846 H   0  0  0  0  0  0  0  0  0  0  0  0
   -0.8963   21.9313  -31.6320 H   0  0  0  0  0  0  0  0  0  0  0  0
   -2.5122   21.1467  -31.6320 H   0  0  0  0  0  0  0  0  0  0  0  0
   -1.7023   21.7158  -33.8580 H   0  0  0  0  0  0  0  0  0  0  0  0
   -0.3368   20.8229  -34.6096 H   0  0  0  0  0  0  0  0  0  0  0  0
   -1.9851   20.1089  -34.6096 H   0  0  0  0  0  0  0  0  0  0  0  0
   -3.4191   20.7377  -32.7209 H   0  0  0  0  0  0  0  0  0  0  0  0
  1  2  1  0
  2  3  1  0
  3  4  2  0
  4  5  1  0
  5  6  1  0
  6  7  2  0
  6  8  1  0
  8  9  1  0
  9 10  2  0
 10 11  1  0
 11 12  2  0
 12 13  1  0
 13 14  2  0
 13 15  1  0
 15 16  1  0
 16 17  1  0
 16 18  1  0
 16 19  1  0
  8 20  1  0
 20 21  1  0
  4 22  1  0
 22 23  2  0
 23 24  1  0
 24 25  2  0
 25 26  1  0
 26 27  2  0
 27 28  1  0
 28 29  2  0
 29 30  1  0
 30 31  1  0
 30 32  2  0
 29 33  1  0
 33 34  1  0
 34 35  2  0
 34 36  1  0
 36 37  1  0
 37 38  1  0
 37 39  1  0
 37 40  1  0
 33 41  1  0
 41 42  2  0
 23  2  1  0
 42 24  1  0
 21  8  1  0
 41 27  1  0
 14  9  1  0
 19 12  1  0
  1 43  1  0
  1 44  1  0
  1 45  1  0
 10 46  1  0
 11 47  1  0
 14 48  1  0
 20 49  1  0
 20 50  1  0
 21 51  1  0
 21 52  1  0
 22 53  1  0
 25 54  1  0
 26 55  1  0
 28 56  1  0
 31 57  1  0
 31 58  1  0
 38 59  1  0
 38 60  1  0
 38 61  1  0
 39 62  1  0
 39 63  1  0
 39 64  1  0
 40 65  1  0
 40 66  1  0
 40 67  1  0
 42 68  1  0
M  CHG  1   5  -1
M  END
>  <UniqueID>  (61) 
61

>  <SMILES>  (61) 
Cn1nc([N-]C(=O)C2(c3ccc4c(c3)OC(F)(F)O4)CC2)cc1-c1ccc2cc(C(N)=O)n(C(=O)OC(C)(C)C)c2c1

>  <Energy>  (61) 
442.7382903990428

>  <Genealogy>  (61) 
Cn1nc([N-]C(=O)C2(c3ccc4c(c3)OC(F)(F)O4)CC2)cc1-c1ccc2cc(C(N)=O)n(C(=O)OC(C)(C)C)c2c1 (protonated)
Cn1nc([N-]C(=O)C2(c3ccc4c(c3)OC(F)(F)O4)CC2)cc1-c1ccc2cc(C(N)=O)n(C(=O)OC(C)(C)C)c2c1 (3D coordinates assigned)
Cn1nc([N-]C(=O)C2(c3ccc4c(c3)OC(F)(F)O4)CC2)cc1-c1ccc2cc(C(N)=O)n(C(=O)OC(C)(C)C)c2c1 (nonaromatic ring conformer: 442.7382903990428 kcal/mol)

>  <smiles>  (61) 
Cn1nc(NC(=O)C2(c3ccc4c(c3)OC(F)(F)O4)CC2)cc1-c1ccc2cc(C(N)=O)n(C(=O)OC(C)(C)C)c2c1

>  <score_type>  (61) 
oracle

>  <origin>  (61) 
adg

>  <m_score__min__energy>  (61) 
-11.380000000000001

>  <m_primary>  (61) 
energy

$$$$
61:0
     RDKit          3D

 45 47  0  0  0  0  0  0  0  0999 V2000
   -2.5330   20.1930  -31.2380 C   0  0  0  0  0  0  0  0  0  0  0  0
   -2.1950   21.0060  -32.4960 C   0  0  0  0  0  0  0  0  0  0  0  0
   -0.6840   21.3040  -32.5040 C   0  0  0  0  0  0  0  0  0  0  0  0
   -2.5960   20.1900  -33.7400 C   0  0  0  0  0  0  0  0  0  0  0  0
   -2.9490   22.2240  -32.4270 O   0  0  0  0  0  0  0  0  0  0  0  0
   -3.6900   22.6860  -31.3290 C   0  0  0  0  0  0  0  0  0  0  0  0
   -3.1160   23.0480  -30.2680 O   0  0  0  0  0  0  0  0  0  0  0  0
   -5.1230   22.7410  -31.4190 N   0  0  0  0  0  0  0  0  0  0  0  0
   -5.9440   23.7480  -31.0080 C   0  0  0  0  0  0  0  0  0  0  0  0
   -5.5110   25.0720  -30.5180 C   0  0  0  0  0  0  0  0  0  0  0  0
   -4.1580   25.5070  -30.6580 N   0  0  0  0  0  0  0  0  0  0  0  0
   -6.3610   25.8530  -30.0160 O   0  0  0  0  0  0  0  0  0  0  0  0
   -7.2800   23.3850  -31.1620 C   0  0  0  0  0  0  0  0  0  0  0  0
   -7.2520   22.1180  -31.6980 C   0  0  0  0  0  0  0  0  0  0  0  0
   -8.3000   21.2710  -32.0430 C   0  0  0  0  0  0  0  0  0  0  0  0
   -7.9810   19.9980  -32.5440 C   0  0  0  0  0  0  0  0  0  0  0  0
   -6.6300   19.5870  -32.6800 C   0  0  0  0  0  0  0  0  0  0  0  0
   -6.3020   18.2340  -33.1980 C   0  0  0  0  0  0  0  0  0  0  0  0
   -5.1240   17.9980  -33.9250 C   0  0  0  0  0  0  0  0  0  0  0  0
   -4.8480   16.7530  -34.3910 N   0  0  0  0  0  0  0  0  0  0  0  0
   -5.6930   15.7150  -34.1640 C   0  0  0  0  0  0  0  0  0  0  0  0
   -5.3800   14.4170  -34.6620 N   0  0  0  0  0  0  0  0  0  0  0  0
   -6.8390   15.9160  -33.4620 N   0  0  0  0  0  0  0  0  0  0  0  0
   -7.1590   17.1440  -32.9800 C   0  0  0  0  0  0  0  0  0  0  0  0
   -5.5930   20.4790  -32.3130 C   0  0  0  0  0  0  0  0  0  0  0  0
   -5.9390   21.7510  -31.8420 C   0  0  0  0  0  0  0  0  0  0  0  0
   -2.2875   20.7834  -30.3429 H   0  0  0  0  0  0  0  0  0  0  0  0
   -3.6061   19.9514  -31.2349 H   0  0  0  0  0  0  0  0  0  0  0  0
   -1.9475   19.2618  -31.2349 H   0  0  0  0  0  0  0  0  0  0  0  0
   -0.3190   21.3760  -31.4688 H   0  0  0  0  0  0  0  0  0  0  0  0
   -0.1531   20.4933  -33.0244 H   0  0  0  0  0  0  0  0  0  0  0  0
   -0.5007   22.2556  -33.0244 H   0  0  0  0  0  0  0  0  0  0  0  0
   -3.0607   19.2444  -33.4241 H   0  0  0  0  0  0  0  0  0  0  0  0
   -3.3129   20.7677  -34.3420 H   0  0  0  0  0  0  0  0  0  0  0  0
   -1.7007   19.9754  -34.3420 H   0  0  0  0  0  0  0  0  0  0  0  0
   -3.8620   26.4290  -30.2670 H   0  0  0  0  0  0  0  0  0  0  0  0
   -3.4700   24.9610  -31.2230 H   0  0  0  0  0  0  0  0  0  0  0  0
   -8.1677   23.9834  -30.9092 H   0  0  0  0  0  0  0  0  0  0  0  0
   -9.3468   21.5884  -31.9270 H   0  0  0  0  0  0  0  0  0  0  0  0
   -8.7893   19.3109  -32.8347 H   0  0  0  0  0  0  0  0  0  0  0  0
   -4.4232   18.8238  -34.1174 H   0  0  0  0  0  0  0  0  0  0  0  0
   -4.4320   14.0060  -34.5090 H   0  0  0  0  0  0  0  0  0  0  0  0
   -6.0950   13.8640  -35.1850 H   0  0  0  0  0  0  0  0  0  0  0  0
   -8.0932   17.2853  -32.4166 H   0  0  0  0  0  0  0  0  0  0  0  0
   -4.5381   20.1787  -32.3963 H   0  0  0  0  0  0  0  0  0  0  0  0
  1  2  1  0
  2  3  1  0
  2  4  1  0
  2  5  1  0
  5  6  1  0
  6  7  2  0
  6  8  1  0
  8  9  1  0
  9 10  1  0
 10 11  1  0
 10 12  2  0
  9 13  2  0
 13 14  1  0
 14 15  2  0
 15 16  1  0
 16 17  2  0
 17 18  1  0
 18 19  2  0
 19 20  1  0
 20 21  2  0
 21 22  1  0
 21 23  1  0
 23 24  2  0
 17 25  1  0
 25 26  2  0
 26  8  1  0
 26 14  1  0
 24 18  1  0
  1 27  1  0
  1 28  1  0
  1 29  1  0
  3 30  1  0
  3 31  1  0
  3 32  1  0
  4 33  1  0
  4 34  1  0
  4 35  1  0
 11 36  1  0
 11 37  1  0
 13 38  1  0
 15 39  1  0
 16 40  1  0
 19 41  1  0
 22 42  1  0
 22 43  1  0
 24 44  1  0
 25 45  1  0
M  END
>  <UniqueID>  (62) 
62

>  <SMILES>  (62) 
CC(C)(C)OC(=O)n1c(C(N)=O)cc2ccc(-c3cnc(N)nc3)cc21

>  <Energy>  (62) 
86.01814514469775

>  <Genealogy>  (62) 
CC(C)(C)OC(=O)n1c(C(N)=O)cc2ccc(-c3cnc(N)nc3)cc21 (3D coordinates assigned)
CC(C)(C)OC(=O)n1c(C(N)=O)cc2ccc(-c3cnc(N)nc3)cc21 (optimized conformer: 86.01814514469775 kcal/mol)

>  <smiles>  (62) 
CC(C)(C)OC(=O)n1c(C(N)=O)cc2ccc(-c3cnc(N)nc3)cc21

>  <score_type>  (62) 
oracle

>  <origin>  (62) 
adg

>  <m_score__min__energy>  (62) 
-9.1899999999999995

>  <m_primary>  (62) 
energy

$$$$
62:0
     RDKit          3D

 61 64  0  0  0  0  0  0  0  0999 V2000
   -1.7970   22.6290  -29.0880 C   0  0  0  0  0  0  0  0  0  0  0  0
   -3.0490   21.7900  -28.7900 C   0  0  0  0  0  0  0  0  0  0  0  0
   -2.6540   20.6220  -27.8660 C   0  0  0  0  0  0  0  0  0  0  0  0
   -4.1000   22.6880  -28.1110 C   0  0  0  0  0  0  0  0  0  0  0  0
   -3.5390   21.3000  -30.0460 O   0  0  0  0  0  0  0  0  0  0  0  0
   -3.9940   22.0770  -31.1230 C   0  0  0  0  0  0  0  0  0  0  0  0
   -3.1870   22.5340  -31.9750 O   0  0  0  0  0  0  0  0  0  0  0  0
   -5.3990   22.3410  -31.2570 N   0  0  0  0  0  0  0  0  0  0  0  0
   -6.0650   23.4770  -30.9040 C   0  0  0  0  0  0  0  0  0  0  0  0
   -5.4320   24.7390  -30.4620 C   0  0  0  0  0  0  0  0  0  0  0  0
   -5.8200   25.3580  -29.2330 N   0  0  0  0  0  0  0  0  0  0  0  0
   -4.5650   25.2990  -31.1830 O   0  0  0  0  0  0  0  0  0  0  0  0
   -7.4350   23.3220  -31.1010 C   0  0  0  0  0  0  0  0  0  0  0  0
   -7.5910   22.0450  -31.5910 C   0  0  0  0  0  0  0  0  0  0  0  0
   -8.7490   21.3560  -31.9370 C   0  0  0  0  0  0  0  0  0  0  0  0
   -8.6180   20.0280  -32.3750 C   0  0  0  0  0  0  0  0  0  0  0  0
   -7.3420   19.4160  -32.4560 C   0  0  0  0  0  0  0  0  0  0  0  0
   -7.2220   17.9660  -32.8480 C   0  0  0  0  0  0  0  0  0  0  0  0
   -6.4920   17.7990  -34.1910 C   0  0  0  0  0  0  0  0  0  0  0  0
   -4.9950   17.6460  -34.0080 C   0  0  0  0  0  0  0  0  0  0  0  0
   -4.2000   18.8050  -34.0500 C   0  0  0  0  0  0  0  0  0  0  0  0
   -2.8210   18.7350  -33.8520 C   0  0  0  0  0  0  0  0  0  0  0  0
   -2.0720   19.8640  -33.9000 F   0  0  0  0  0  0  0  0  0  0  0  0
   -2.2110   17.5060  -33.6080 C   0  0  0  0  0  0  0  0  0  0  0  0
   -2.9820   16.3380  -33.5430 C   0  0  0  0  0  0  0  0  0  0  0  0
   -4.3770   16.3960  -33.7380 C   0  0  0  0  0  0  0  0  0  0  0  0
   -5.1290   15.0830  -33.6860 C   0  0  0  0  0  0  0  0  0  0  0  0
   -4.6720   14.2550  -32.4750 C   0  0  0  0  0  0  0  0  0  0  0  0
   -3.1330   14.1430  -32.3280 C   0  0  0  0  0  0  0  0  0  0  0  0
   -2.3300   14.9990  -33.3240 C   0  0  0  0  0  0  0  0  0  0  0  0
   -6.1890   20.1460  -32.0920 C   0  0  0  0  0  0  0  0  0  0  0  0
   -6.3470   21.4730  -31.6750 C   0  0  0  0  0  0  0  0  0  0  0  0
   -1.3311   22.9412  -28.1417 H   0  0  0  0  0  0  0  0  0  0  0  0
   -1.0818   22.0271  -29.6678 H   0  0  0  0  0  0  0  0  0  0  0  0
   -2.0817   23.5194  -29.6678 H   0  0  0  0  0  0  0  0  0  0  0  0
   -2.7592   20.9332  -26.8162 H   0  0  0  0  0  0  0  0  0  0  0  0
   -3.3112   19.7617  -28.0611 H   0  0  0  0  0  0  0  0  0  0  0  0
   -1.6096   20.3372  -28.0611 H   0  0  0  0  0  0  0  0  0  0  0  0
   -4.0026   22.6048  -27.0185 H   0  0  0  0  0  0  0  0  0  0  0  0
   -3.9406   23.7331  -28.4148 H   0  0  0  0  0  0  0  0  0  0  0  0
   -5.1075   22.3675  -28.4148 H   0  0  0  0  0  0  0  0  0  0  0  0
   -6.4980   24.9000  -28.5860 H   0  0  0  0  0  0  0  0  0  0  0  0
   -5.3920   26.2670  -28.9480 H   0  0  0  0  0  0  0  0  0  0  0  0
   -8.2247   24.0626  -30.9064 H   0  0  0  0  0  0  0  0  0  0  0  0
   -9.7363   21.8363  -31.8696 H   0  0  0  0  0  0  0  0  0  0  0  0
   -9.5146   19.4571  -32.6580 H   0  0  0  0  0  0  0  0  0  0  0  0
   -6.6604   17.4310  -32.0680 H   0  0  0  0  0  0  0  0  0  0  0  0
   -8.2365   17.5545  -32.9554 H   0  0  0  0  0  0  0  0  0  0  0  0
   -6.8812   16.9037  -34.6979 H   0  0  0  0  0  0  0  0  0  0  0  0
   -6.6705   18.7043  -34.7898 H   0  0  0  0  0  0  0  0  0  0  0  0
   -4.6719   19.7800  -34.2416 H   0  0  0  0  0  0  0  0  0  0  0  0
   -1.1215   17.4528  -33.4661 H   0  0  0  0  0  0  0  0  0  0  0  0
   -6.2070   15.2852  -33.6015 H   0  0  0  0  0  0  0  0  0  0  0  0
   -4.9232   14.5158  -34.6058 H   0  0  0  0  0  0  0  0  0  0  0  0
   -5.0725   14.7248  -31.5646 H   0  0  0  0  0  0  0  0  0  0  0  0
   -5.0507   13.2337  -32.6285 H   0  0  0  0  0  0  0  0  0  0  0  0
   -2.8619   14.4571  -31.3093 H   0  0  0  0  0  0  0  0  0  0  0  0
   -2.8752   13.0947  -32.5394 H   0  0  0  0  0  0  0  0  0  0  0  0
   -1.3161   15.1547  -32.9268 H   0  0  0  0  0  0  0  0  0  0  0  0
   -2.2931   14.4688  -34.2871 H   0  0  0  0  0  0  0  0  0  0  0  0
   -5.1919   19.6835  -32.1351 H   0  0  0  0  0  0  0  0  0  0  0  0
  1  2  1  0
  2  3  1  0
  2  4  1  0
  2  5  1  0
  5  6  1  0
  6  7  2  0
  6  8  1  0
  8  9  1  0
  9 10  1  0
 10 11  1  0
 10 12  2  0
  9 13  2  0
 13 14  1  0
 14 15  2  0
 15 16  1  0
 16 17  2  0
 17 18  1  0
 18 19  1  0
 19 20  1  0
 20 21  2  0
 21 22  1  0
 22 23  1  0
 22 24  2  0
 24 25  1  0
 25 26  2  0
 26 27  1  0
 27 28  1  0
 28 29  1  0
 29 30  1  0
 17 31  1  0
 31 32  2  0
 32  8  1  0
 32 14  1  0
 26 20  1  0
 30 25  1  0
  1 33  1  0
  1 34  1  0
  1 35  1  0
  3 36  1  0
  3 37  1  0
  3 38  1  0
  4 39  1  0
  4 40  1  0
  4 41  1  0
 11 42  1  0
 11 43  1  0
 13 44  1  0
 15 45  1  0
 16 46  1  0
 18 47  1  0
 18 48  1  0
 19 49  1  0
 19 50  1  0
 21 51  1  0
 24 52  1  0
 27 53  1  0
 27 54  1  0
 28 55  1  0
 28 56  1  0
 29 57  1  0
 29 58  1  0
 30 59  1  0
 30 60  1  0
 31 61  1  0
M  END
>  <UniqueID>  (63) 
63

>  <SMILES>  (63) 
CC(C)(C)OC(=O)n1c(C(N)=O)cc2ccc(CCc3cc(F)cc4c3CCCC4)cc21

>  <Energy>  (63) 
99.7561205839316

>  <Genealogy>  (63) 
CC(C)(C)OC(=O)n1c(C(N)=O)cc2ccc(CCc3cc(F)cc4c3CCCC4)cc21 (3D coordinates assigned)
CC(C)(C)OC(=O)n1c(C(N)=O)cc2ccc(CCc3cc(F)cc4c3CCCC4)cc21 (nonaromatic ring conformer: 99.7561205839316 kcal/mol)

>  <smiles>  (63) 
CC(C)(C)OC(=O)n1c(C(N)=O)cc2ccc(CCc3cc(F)cc4c3CCCC4)cc21

>  <score_type>  (63) 
oracle

>  <origin>  (63) 
adg

>  <m_score__min__energy>  (63) 
-10.82

>  <m_primary>  (63) 
energy

$$$$
63:0
     RDKit          3D

 63 65  0  0  0  0  0  0  0  0999 V2000
   -9.4700   20.7660  -32.1460 C   0  0  0  0  0  0  0  0  0  0  0  0
   -8.2830   21.6860  -32.0370 C   0  0  0  0  0  0  0  0  0  0  0  0
   -8.4980   23.0580  -31.8470 C   0  0  0  0  0  0  0  0  0  0  0  0
   -7.4480   23.9090  -31.7040 N   0  0  0  0  0  0  0  0  0  0  0  0
   -6.1590   23.4810  -31.7400 C   0  0  0  0  0  0  0  0  0  0  0  0
   -5.1090   24.4460  -31.5900 N   0  0  0  0  0  0  0  0  0  0  0  0
   -4.8130   25.1890  -30.4020 C   0  0  0  0  0  0  0  0  0  0  0  0
   -5.7620   25.6860  -29.7420 O   0  0  0  0  0  0  0  0  0  0  0  0
   -3.4860   25.2970  -29.9580 O   0  0  0  0  0  0  0  0  0  0  0  0
   -2.8190   24.4060  -29.0520 C   0  0  0  0  0  0  0  0  0  0  0  0
   -1.4870   25.0190  -28.5720 C   0  0  0  0  0  0  0  0  0  0  0  0
   -3.7280   24.0690  -27.8560 C   0  0  0  0  0  0  0  0  0  0  0  0
   -2.5200   23.1140  -29.8300 C   0  0  0  0  0  0  0  0  0  0  0  0
   -5.8930   22.1250  -31.9840 C   0  0  0  0  0  0  0  0  0  0  0  0
   -6.9500   21.2170  -32.1330 C   0  0  0  0  0  0  0  0  0  0  0  0
   -6.6320   19.7950  -32.3960 C   0  0  0  0  0  0  0  0  0  0  0  0
   -7.5070   18.7810  -31.9390 C   0  0  0  0  0  0  0  0  0  0  0  0
   -7.2170   17.4290  -32.1760 C   0  0  0  0  0  0  0  0  0  0  0  0
   -6.0470   17.1230  -32.8700 C   0  0  0  0  0  0  0  0  0  0  0  0
   -5.5350   15.9000  -33.2240 C   0  0  0  0  0  0  0  0  0  0  0  0
   -4.3530   16.1790  -33.9000 C   0  0  0  0  0  0  0  0  0  0  0  0
   -3.5210   15.1330  -34.5230 C   0  0  0  0  0  0  0  0  0  0  0  0
   -2.1180   15.0680  -34.2660 N   0  0  0  0  0  0  0  0  0  0  0  0
   -4.0430   14.3310  -35.3430 O   0  0  0  0  0  0  0  0  0  0  0  0
   -4.1170   17.5230  -33.9460 N   0  0  0  0  0  0  0  0  0  0  0  0
   -2.9240   18.1740  -34.4390 C   0  0  0  0  0  0  0  0  0  0  0  0
   -1.9850   17.4930  -34.9400 O   0  0  0  0  0  0  0  0  0  0  0  0
   -2.8290   19.5730  -34.3940 O   0  0  0  0  0  0  0  0  0  0  0  0
   -2.0630   20.3490  -33.4590 C   0  0  0  0  0  0  0  0  0  0  0  0
   -0.7250   20.8020  -34.0810 C   0  0  0  0  0  0  0  0  0  0  0  0
   -1.7640   19.4390  -32.2550 C   0  0  0  0  0  0  0  0  0  0  0  0
   -2.8830   21.5620  -32.9810 C   0  0  0  0  0  0  0  0  0  0  0  0
   -5.1770   18.0910  -33.3140 C   0  0  0  0  0  0  0  0  0  0  0  0
   -5.4420   19.4490  -33.0760 C   0  0  0  0  0  0  0  0  0  0  0  0
   -9.8184   20.4960  -31.1382 H   0  0  0  0  0  0  0  0  0  0  0  0
  -10.2796   21.2748  -32.6897 H   0  0  0  0  0  0  0  0  0  0  0  0
   -9.1792   19.8551  -32.6897 H   0  0  0  0  0  0  0  0  0  0  0  0
   -9.5255   23.4493  -31.8133 H   0  0  0  0  0  0  0  0  0  0  0  0
   -1.4635   25.0298  -27.4723 H   0  0  0  0  0  0  0  0  0  0  0  0
   -0.6484   24.4162  -28.9507 H   0  0  0  0  0  0  0  0  0  0  0  0
   -1.3994   26.0480  -28.9507 H   0  0  0  0  0  0  0  0  0  0  0  0
   -3.1891   24.2688  -26.9181 H   0  0  0  0  0  0  0  0  0  0  0  0
   -4.6344   24.6908  -27.8977 H   0  0  0  0  0  0  0  0  0  0  0  0
   -4.0100   23.0066  -27.8977 H   0  0  0  0  0  0  0  0  0  0  0  0
   -2.3304   22.2946  -29.1210 H   0  0  0  0  0  0  0  0  0  0  0  0
   -3.3829   22.8590  -30.4628 H   0  0  0  0  0  0  0  0  0  0  0  0
   -1.6328   23.2640  -30.4628 H   0  0  0  0  0  0  0  0  0  0  0  0
   -4.8531   21.7742  -32.0584 H   0  0  0  0  0  0  0  0  0  0  0  0
   -8.4220   19.0551  -31.3935 H   0  0  0  0  0  0  0  0  0  0  0  0
   -7.8920   16.6346  -31.8250 H   0  0  0  0  0  0  0  0  0  0  0  0
   -5.9677   14.9101  -33.0170 H   0  0  0  0  0  0  0  0  0  0  0  0
   -1.6550   15.7770  -33.6560 H   0  0  0  0  0  0  0  0  0  0  0  0
   -1.5530   14.2800  -34.6600 H   0  0  0  0  0  0  0  0  0  0  0  0
   -0.0113   21.0436  -33.2796 H   0  0  0  0  0  0  0  0  0  0  0  0
   -0.3171   19.9919  -34.7033 H   0  0  0  0  0  0  0  0  0  0  0  0
   -0.8931   21.6933  -34.7033 H   0  0  0  0  0  0  0  0  0  0  0  0
   -1.9461   19.9932  -31.3224 H   0  0  0  0  0  0  0  0  0  0  0  0
   -2.4193   18.5563  -32.2909 H   0  0  0  0  0  0  0  0  0  0  0  0
   -0.7128   19.1170  -32.2909 H   0  0  0  0  0  0  0  0  0  0  0  0
   -2.8980   21.5841  -31.8813 H   0  0  0  0  0  0  0  0  0  0  0  0
   -2.4243   22.4871  -33.3601 H   0  0  0  0  0  0  0  0  0  0  0  0
   -3.9124   21.4811  -33.3601 H   0  0  0  0  0  0  0  0  0  0  0  0
   -4.7394   20.2262  -33.4111 H   0  0  0  0  0  0  0  0  0  0  0  0
  1  2  1  0
  2  3  2  0
  3  4  1  0
  4  5  2  0
  5  6  1  0
  6  7  1  0
  7  8  2  0
  7  9  1  0
  9 10  1  0
 10 11  1  0
 10 12  1  0
 10 13  1  0
  5 14  1  0
 14 15  2  0
 15 16  1  0
 16 17  2  0
 17 18  1  0
 18 19  2  0
 19 20  1  0
 20 21  2  0
 21 22  1  0
 22 23  1  0
 22 24  2  0
 21 25  1  0
 25 26  1  0
 26 27  2  0
 26 28  1  0
 28 29  1  0
 29 30  1  0
 29 31  1  0
 29 32  1  0
 25 33  1  0
 33 34  2  0
 15  2  1  0
 34 16  1  0
 33 19  1  0
  1 35  1  0
  1 36  1  0
  1 37  1  0
  3 38  1  0
 11 39  1  0
 11 40  1  0
 11 41  1  0
 12 42  1  0
 12 43  1  0
 12 44  1  0
 13 45  1  0
 13 46  1  0
 13 47  1  0
 14 48  1  0
 17 49  1  0
 18 50  1  0
 20 51  1  0
 23 52  1  0
 23 53  1  0
 30 54  1  0
 30 55  1  0
 30 56  1  0
 31 57  1  0
 31 58  1  0
 31 59  1  0
 32 60  1  0
 32 61  1  0
 32 62  1  0
 34 63  1  0
M  CHG  1   6  -1
M  END
>  <UniqueID>  (64) 
64

>  <SMILES>  (64) 
Cc1cnc([N-]C(=O)OC(C)(C)C)cc1-c1ccc2cc(C(N)=O)n(C(=O)OC(C)(C)C)c2c1

>  <Energy>  (64) 
105.18813769340493

>  <Genealogy>  (64) 
Cc1cnc([N-]C(=O)OC(C)(C)C)cc1-c1ccc2cc(C(N)=O)n(C(=O)OC(C)(C)C)c2c1 (protonated)
Cc1cnc([N-]C(=O)OC(C)(C)C)cc1-c1ccc2cc(C(N)=O)n(C(=O)OC(C)(C)C)c2c1 (3D coordinates assigned)
Cc1cnc([N-]C(=O)OC(C)(C)C)cc1-c1ccc2cc(C(N)=O)n(C(=O)OC(C)(C)C)c2c1 (optimized conformer: 105.18813769340493 kcal/mol)

>  <smiles>  (64) 
Cc1cnc(NC(=O)OC(C)(C)C)cc1-c1ccc2cc(C(N)=O)n(C(=O)OC(C)(C)C)c2c1

>  <score_type>  (64) 
oracle

>  <origin>  (64) 
adg

>  <m_score__min__energy>  (64) 
-10.41

>  <m_primary>  (64) 
energy

$$$$
64:0
     RDKit          3D

 63 66  0  0  0  0  0  0  0  0999 V2000
   -2.8650   18.1780  -34.3300 C   0  0  0  0  0  0  0  0  0  0  0  0
   -3.8670   17.3760  -35.1790 C   0  0  0  0  0  0  0  0  0  0  0  0
   -5.1380   17.0430  -34.4950 N   0  0  0  0  0  0  0  0  0  0  0  0
   -4.9740   16.4970  -33.1400 C   0  0  0  0  0  0  0  0  0  0  0  0
   -5.5640   17.5130  -32.1680 C   0  0  2  0  0  0  0  0  0  0  0  0
   -6.1370   16.8600  -30.9060 C   0  0  0  0  0  0  0  0  0  0  0  0
   -6.6270   18.2300  -32.9950 C   0  0  1  0  0  0  0  0  0  0  0  0
   -6.8910   19.6500  -32.5230 C   0  0  0  0  0  0  0  0  0  0  0  0
   -8.1880   20.2070  -32.6610 C   0  0  0  0  0  0  0  0  0  0  0  0
   -8.4480   21.5290  -32.2610 C   0  0  0  0  0  0  0  0  0  0  0  0
   -7.3990   22.2670  -31.7230 C   0  0  0  0  0  0  0  0  0  0  0  0
   -7.3500   23.5880  -31.3400 C   0  0  0  0  0  0  0  0  0  0  0  0
   -6.0290   23.8100  -30.9530 C   0  0  0  0  0  0  0  0  0  0  0  0
   -5.5290   25.1100  -30.4610 C   0  0  0  0  0  0  0  0  0  0  0  0
   -4.2040   25.5570  -30.7560 N   0  0  0  0  0  0  0  0  0  0  0  0
   -6.2650   25.8160  -29.7200 O   0  0  0  0  0  0  0  0  0  0  0  0
   -5.2930   22.6720  -31.0850 N   0  0  0  0  0  0  0  0  0  0  0  0
   -3.8680   22.5420  -30.9990 C   0  0  0  0  0  0  0  0  0  0  0  0
   -3.1230   23.3760  -31.5830 O   0  0  0  0  0  0  0  0  0  0  0  0
   -3.3140   21.5150  -30.2270 O   0  0  0  0  0  0  0  0  0  0  0  0
   -1.9160   21.2450  -30.1700 C   0  0  0  0  0  0  0  0  0  0  0  0
   -1.0930   22.5400  -30.0550 C   0  0  0  0  0  0  0  0  0  0  0  0
   -0.9630   22.9890  -28.6480 N   0  0  0  0  0  0  0  0  0  0  0  0
   -0.2080   24.2620  -28.5310 C   0  0  0  0  0  0  0  0  0  0  0  0
   -1.1260   25.5040  -28.5250 C   0  0  0  0  0  0  0  0  0  0  0  0
   -2.3360   25.2340  -29.1950 O   0  0  0  0  0  0  0  0  0  0  0  0
   -3.0990   24.2910  -28.4590 C   0  0  0  0  0  0  0  0  0  0  0  0
   -2.2600   23.0960  -27.9460 C   0  0  0  0  0  0  0  0  0  0  0  0
   -6.1460   21.7380  -31.5570 C   0  0  0  0  0  0  0  0  0  0  0  0
   -5.8580   20.4300  -31.9510 C   0  0  0  0  0  0  0  0  0  0  0  0
   -6.1110   18.1480  -34.4350 C   0  0  0  0  0  0  0  0  0  0  0  0
   -3.0730   18.0115  -33.2627 H   0  0  0  0  0  0  0  0  0  0  0  0
   -1.8417   17.8467  -34.5602 H   0  0  0  0  0  0  0  0  0  0  0  0
   -2.9641   19.2491  -34.5602 H   0  0  0  0  0  0  0  0  0  0  0  0
   -4.1060   17.9676  -36.0751 H   0  0  0  0  0  0  0  0  0  0  0  0
   -3.3793   16.4169  -35.4077 H   0  0  0  0  0  0  0  0  0  0  0  0
   -3.9067   16.3436  -32.9225 H   0  0  0  0  0  0  0  0  0  0  0  0
   -5.4837   15.5267  -33.0465 H   0  0  0  0  0  0  0  0  0  0  0  0
   -4.8049   18.2042  -31.7730 H   0  0  0  0  0  0  0  0  0  0  0  0
   -5.7107   17.3458  -30.0159 H   0  0  0  0  0  0  0  0  0  0  0  0
   -7.2309   16.9751  -30.8980 H   0  0  0  0  0  0  0  0  0  0  0  0
   -5.8808   15.7903  -30.8980 H   0  0  0  0  0  0  0  0  0  0  0  0
   -7.6153   17.7575  -32.8946 H   0  0  0  0  0  0  0  0  0  0  0  0
   -8.9993   19.5976  -33.0858 H   0  0  0  0  0  0  0  0  0  0  0  0
   -9.4511   21.9669  -32.3702 H   0  0  0  0  0  0  0  0  0  0  0  0
   -8.1766   24.3138  -31.3393 H   0  0  0  0  0  0  0  0  0  0  0  0
   -3.8740   26.4800  -30.4020 H   0  0  0  0  0  0  0  0  0  0  0  0
   -3.5090   24.9250  -31.2090 H   0  0  0  0  0  0  0  0  0  0  0  0
   -1.7101   20.6123  -29.2941 H   0  0  0  0  0  0  0  0  0  0  0  0
   -1.6260   20.7347  -31.1003 H   0  0  0  0  0  0  0  0  0  0  0  0
   -0.0883   22.3605  -30.4654 H   0  0  0  0  0  0  0  0  0  0  0  0
   -1.6160   23.3275  -30.6173 H   0  0  0  0  0  0  0  0  0  0  0  0
    0.3664   24.2450  -27.5930 H   0  0  0  0  0  0  0  0  0  0  0  0
    0.4485   24.3397  -29.4102 H   0  0  0  0  0  0  0  0  0  0  0  0
   -1.3448   25.7859  -27.4845 H   0  0  0  0  0  0  0  0  0  0  0  0
   -0.6111   26.3261  -29.0437 H   0  0  0  0  0  0  0  0  0  0  0  0
   -3.5457   24.8019  -27.5933 H   0  0  0  0  0  0  0  0  0  0  0  0
   -3.8630   23.8863  -29.1390 H   0  0  0  0  0  0  0  0  0  0  0  0
   -2.0719   23.2296  -26.8705 H   0  0  0  0  0  0  0  0  0  0  0  0
   -2.8281   22.1739  -28.1386 H   0  0  0  0  0  0  0  0  0  0  0  0
   -4.8482   20.0140  -31.8194 H   0  0  0  0  0  0  0  0  0  0  0  0
   -5.6229   19.0936  -34.7134 H   0  0  0  0  0  0  0  0  0  0  0  0
   -6.9414   17.9712  -35.1345 H   0  0  0  0  0  0  0  0  0  0  0  0
  1  2  1  0
  2  3  1  0
  3  4  1  0
  4  5  1  0
  5  6  1  0
  5  7  1  0
  7  8  1  0
  8  9  2  0
  9 10  1  0
 10 11  2  0
 11 12  1  0
 12 13  2  0
 13 14  1  0
 14 15  1  0
 14 16  2  0
 13 17  1  0
 17 18  1  0
 18 19  2  0
 18 20  1  0
 20 21  1  0
 21 22  1  0
 22 23  1  0
 23 24  1  0
 24 25  1  0
 25 26  1  0
 26 27  1  0
 27 28  1  0
 17 29  1  0
 29 30  2  0
  7 31  1  0
 31  3  1  0
 30  8  1  0
 29 11  1  0
 28 23  1  0
  1 32  1  0
  1 33  1  0
  1 34  1  0
  2 35  1  0
  2 36  1  0
  4 37  1  0
  4 38  1  0
  5 39  1  1
  6 40  1  0
  6 41  1  0
  6 42  1  0
  7 43  1  6
  9 44  1  0
 10 45  1  0
 12 46  1  0
 15 47  1  0
 15 48  1  0
 21 49  1  0
 21 50  1  0
 22 51  1  0
 22 52  1  0
 24 53  1  0
 24 54  1  0
 25 55  1  0
 25 56  1  0
 27 57  1  0
 27 58  1  0
 28 59  1  0
 28 60  1  0
 30 61  1  0
 31 62  1  0
 31 63  1  0
M  END
>  <UniqueID>  (65) 
65

>  <SMILES>  (65) 
CCN1C[C@H](c2ccc3cc(C(N)=O)n(C(=O)OCCN4CCOCC4)c3c2)[C@@H](C)C1

>  <Energy>  (65) 
116.58263817807541

>  <Genealogy>  (65) 
CCN1C[C@H](c2ccc3cc(C(N)=O)n(C(=O)OCCN4CCOCC4)c3c2)[C@@H](C)C1 (chirality)
CCN1C[C@H](c2ccc3cc(C(N)=O)n(C(=O)OCCN4CCOCC4)c3c2)[C@@H](C)C1 (3D coordinates assigned)
CCN1C[C@H](c2ccc3cc(C(N)=O)n(C(=O)OCCN4CCOCC4)c3c2)[C@@H](C)C1 (nonaromatic ring conformer: 116.58263817807541 kcal/mol)

>  <smiles>  (65) 
CCN1CC(C)C(c2ccc3cc(C(N)=O)n(C(=O)OCCN4CCOCC4)c3c2)C1

>  <score_type>  (65) 
oracle

>  <origin>  (65) 
adg

>  <m_score__min__energy>  (65) 
-10.27

>  <m_primary>  (65) 
energy

$$$$
65:0
     RDKit          3D

 42 44  0  0  0  0  0  0  0  0999 V2000
   -5.4280   25.6940  -30.4690 C   0  0  0  0  0  0  0  0  0  0  0  0
   -4.0780   25.2440  -30.4890 O   0  0  0  0  0  0  0  0  0  0  0  0
   -3.6770   23.9070  -30.3210 C   0  0  0  0  0  0  0  0  0  0  0  0
   -4.0190   22.9080  -31.2540 C   0  0  0  0  0  0  0  0  0  0  0  0
   -3.5960   21.5790  -31.0760 C   0  0  0  0  0  0  0  0  0  0  0  0
   -3.9610   20.5320  -32.0650 C   0  0  0  0  0  0  0  0  0  0  0  0
   -5.2810   20.4610  -32.5800 C   0  0  0  0  0  0  0  0  0  0  0  0
   -5.6330   19.4840  -33.5260 C   0  0  0  0  0  0  0  0  0  0  0  0
   -4.6520   18.5860  -33.9310 C   0  0  0  0  0  0  0  0  0  0  0  0
   -4.7160   17.5630  -34.8490 C   0  0  0  0  0  0  0  0  0  0  0  0
   -3.4400   17.0030  -34.8680 C   0  0  0  0  0  0  0  0  0  0  0  0
   -3.0730   15.8090  -35.6630 C   0  0  0  0  0  0  0  0  0  0  0  0
   -1.8370   15.7610  -36.3800 N   0  0  0  0  0  0  0  0  0  0  0  0
   -3.8630   14.8310  -35.7370 O   0  0  0  0  0  0  0  0  0  0  0  0
   -2.6200   17.6550  -33.9960 N   0  0  0  0  0  0  0  0  0  0  0  0
   -1.2200   17.4160  -33.7640 C   0  0  0  0  0  0  0  0  0  0  0  0
   -0.7790   16.8660  -32.5260 N   0  0  0  0  0  0  0  0  0  0  0  0
   -0.3750   17.6950  -34.6560 O   0  0  0  0  0  0  0  0  0  0  0  0
   -3.3760   18.6220  -33.4300 C   0  0  0  0  0  0  0  0  0  0  0  0
   -2.9930   19.5980  -32.5040 C   0  0  0  0  0  0  0  0  0  0  0  0
   -2.8180   21.2570  -29.9530 C   0  0  0  0  0  0  0  0  0  0  0  0
   -2.4760   22.2390  -29.0230 C   0  0  0  0  0  0  0  0  0  0  0  0
   -2.9100   23.5630  -29.1890 C   0  0  0  0  0  0  0  0  0  0  0  0
   -2.5010   24.6090  -28.1850 C   0  0  0  0  0  0  0  0  0  0  0  0
   -1.2130   25.2460  -28.5990 C   0  0  0  0  0  0  0  0  0  0  0  0
   -1.2080   26.4090  -29.0810 O   0  0  0  0  0  0  0  0  0  0  0  0
   -0.0230   24.5370  -28.4970 O   0  0  0  0  0  0  0  0  0  0  0  0
   -5.7620   25.8053  -29.4269 H   0  0  0  0  0  0  0  0  0  0  0  0
   -5.4987   26.6643  -30.9823 H   0  0  0  0  0  0  0  0  0  0  0  0
   -6.0668   24.9602  -30.9823 H   0  0  0  0  0  0  0  0  0  0  0  0
   -4.6250   23.1714  -32.1334 H   0  0  0  0  0  0  0  0  0  0  0  0
   -6.0383   21.1800  -32.2342 H   0  0  0  0  0  0  0  0  0  0  0  0
   -6.6533   19.4311  -33.9337 H   0  0  0  0  0  0  0  0  0  0  0  0
   -5.5891   17.2530  -35.4420 H   0  0  0  0  0  0  0  0  0  0  0  0
   -1.1310   16.5240  -36.2980 H   0  0  0  0  0  0  0  0  0  0  0  0
   -1.6070   14.9300  -36.9690 H   0  0  0  0  0  0  0  0  0  0  0  0
   -0.1950   17.4260  -31.8680 H   0  0  0  0  0  0  0  0  0  0  0  0
   -1.9611   19.6385  -32.1251 H   0  0  0  0  0  0  0  0  0  0  0  0
   -2.4753   20.2223  -29.8051 H   0  0  0  0  0  0  0  0  0  0  0  0
   -1.8602   21.9728  -28.1512 H   0  0  0  0  0  0  0  0  0  0  0  0
   -3.2839   25.3792  -28.1232 H   0  0  0  0  0  0  0  0  0  0  0  0
   -2.3661   24.1312  -27.2034 H   0  0  0  0  0  0  0  0  0  0  0  0
  1  2  1  0
  2  3  1  0
  3  4  2  0
  4  5  1  0
  5  6  1  0
  6  7  2  0
  7  8  1  0
  8  9  2  0
  9 10  1  0
 10 11  2  0
 11 12  1  0
 12 13  1  0
 12 14  2  0
 11 15  1  0
 15 16  1  0
 16 17  1  0
 16 18  2  0
 15 19  1  0
 19 20  2  0
  5 21  2  0
 21 22  1  0
 22 23  2  0
 23 24  1  0
 24 25  1  0
 25 26  2  0
 25 27  1  0
 23  3  1  0
 20  6  1  0
 19  9  1  0
  1 28  1  0
  1 29  1  0
  1 30  1  0
  4 31  1  0
  7 32  1  0
  8 33  1  0
 10 34  1  0
 13 35  1  0
 13 36  1  0
 17 37  1  0
 20 38  1  0
 21 39  1  0
 22 40  1  0
 24 41  1  0
 24 42  1  0
M  CHG  2  17  -1  27  -1
M  END
>  <UniqueID>  (66) 
66

>  <SMILES>  (66) 
COc1cc(-c2ccc3cc(C(N)=O)n(C([NH-])=O)c3c2)ccc1CC(=O)[O-]

>  <Energy>  (66) 
86.75117619729566

>  <Genealogy>  (66) 
COc1cc(-c2ccc3cc(C(N)=O)n(C([NH-])=O)c3c2)ccc1CC(=O)[O-] (protonated)
COc1cc(-c2ccc3cc(C(N)=O)n(C([NH-])=O)c3c2)ccc1CC(=O)[O-] (3D coordinates assigned)
COc1cc(-c2ccc3cc(C(N)=O)n(C([NH-])=O)c3c2)ccc1CC(=O)[O-] (optimized conformer: 86.75117619729566 kcal/mol)

>  <smiles>  (66) 
COc1cc(-c2ccc3cc(C(N)=O)n(C(N)=O)c3c2)ccc1CC(=O)O

>  <score_type>  (66) 
oracle

>  <origin>  (66) 
adg

>  <m_score__min__energy>  (66) 
-9.4399999999999995

>  <m_primary>  (66) 
energy

$$$$
66:0
     RDKit          3D

 56 59  0  0  0  0  0  0  0  0999 V2000
   -2.9570   21.7930  -31.9140 C   0  0  0  0  0  0  0  0  0  0  0  0
   -3.7180   22.6090  -30.9170 C   0  0  0  0  0  0  0  0  0  0  0  0
   -3.1060   23.1190  -29.9420 O   0  0  0  0  0  0  0  0  0  0  0  0
   -5.1310   22.8220  -31.0640 N   0  0  0  0  0  0  0  0  0  0  0  0
   -5.8160   23.9890  -30.9010 C   0  0  0  0  0  0  0  0  0  0  0  0
   -5.2430   25.2690  -30.4380 C   0  0  0  0  0  0  0  0  0  0  0  0
   -3.9170   25.6330  -30.8190 N   0  0  0  0  0  0  0  0  0  0  0  0
   -5.9170   26.0590  -29.7270 O   0  0  0  0  0  0  0  0  0  0  0  0
   -7.1700   23.8030  -31.1750 C   0  0  0  0  0  0  0  0  0  0  0  0
   -7.2950   22.4740  -31.5140 C   0  0  0  0  0  0  0  0  0  0  0  0
   -8.4180   21.7500  -31.9000 C   0  0  0  0  0  0  0  0  0  0  0  0
   -8.2480   20.3940  -32.2240 C   0  0  0  0  0  0  0  0  0  0  0  0
   -6.9670   19.7880  -32.1480 C   0  0  0  0  0  0  0  0  0  0  0  0
   -6.7830   18.4040  -32.4880 N   0  0  0  0  0  0  0  0  0  0  0  0
   -5.5540   17.8700  -32.9980 C   0  0  0  0  0  0  0  0  0  0  0  0
   -4.4280   18.6190  -32.9590 N   0  0  0  0  0  0  0  0  0  0  0  0
   -3.2460   18.1280  -33.4030 C   0  0  0  0  0  0  0  0  0  0  0  0
   -3.1530   16.8170  -33.9090 C   0  0  0  0  0  0  0  0  0  0  0  0
   -4.3440   16.0370  -33.9320 C   0  0  0  0  0  0  0  0  0  0  0  0
   -5.4950   16.6000  -33.4720 N   0  0  0  0  0  0  0  0  0  0  0  0
   -4.3980   14.6800  -34.4500 N   0  0  0  0  0  0  0  0  0  0  0  0
   -5.5790   13.8430  -34.1310 C   0  0  0  0  0  0  0  0  0  0  0  0
   -5.9510   12.9460  -35.3180 C   0  0  0  0  0  0  0  0  0  0  0  0
   -5.3780   13.0180  -32.8530 C   0  0  0  0  0  0  0  0  0  0  0  0
   -3.4790   14.2740  -35.5290 C   0  0  0  0  0  0  0  0  0  0  0  0
   -2.1160   13.8580  -34.9700 C   0  0  0  0  0  0  0  0  0  0  0  0
   -1.2550   13.6160  -36.0260 F   0  0  0  0  0  0  0  0  0  0  0  0
   -2.2420   12.6950  -34.2330 F   0  0  0  0  0  0  0  0  0  0  0  0
   -1.5280   14.9350  -34.1150 C   0  0  0  0  0  0  0  0  0  0  0  0
   -0.6380   14.6450  -33.2700 O   0  0  0  0  0  0  0  0  0  0  0  0
   -1.8710   16.3050  -34.3410 N   0  0  0  0  0  0  0  0  0  0  0  0
   -0.8050   17.2020  -34.7940 C   0  0  0  0  0  0  0  0  0  0  0  0
   -5.8480   20.5610  -31.7770 C   0  0  0  0  0  0  0  0  0  0  0  0
   -6.0490   21.9050  -31.4420 C   0  0  0  0  0  0  0  0  0  0  0  0
   -2.2992   21.0877  -31.3850 H   0  0  0  0  0  0  0  0  0  0  0  0
   -3.6630   21.2332  -32.5450 H   0  0  0  0  0  0  0  0  0  0  0  0
   -2.3493   22.4583  -32.5450 H   0  0  0  0  0  0  0  0  0  0  0  0
   -3.0890   25.2600  -30.3020 H   0  0  0  0  0  0  0  0  0  0  0  0
   -7.9691   24.5576  -31.1300 H   0  0  0  0  0  0  0  0  0  0  0  0
   -9.4090   22.2248  -31.9500 H   0  0  0  0  0  0  0  0  0  0  0  0
   -9.1158   19.7962  -32.5396 H   0  0  0  0  0  0  0  0  0  0  0  0
   -7.6180   17.7750  -32.4760 H   0  0  0  0  0  0  0  0  0  0  0  0
   -2.3474   18.7614  -33.3678 H   0  0  0  0  0  0  0  0  0  0  0  0
   -6.4190   14.5269  -33.9394 H   0  0  0  0  0  0  0  0  0  0  0  0
   -6.3474   11.9901  -34.9451 H   0  0  0  0  0  0  0  0  0  0  0  0
   -6.7158   13.4463  -35.9301 H   0  0  0  0  0  0  0  0  0  0  0  0
   -5.0566   12.7582  -35.9301 H   0  0  0  0  0  0  0  0  0  0  0  0
   -5.5344   13.6601  -31.9737 H   0  0  0  0  0  0  0  0  0  0  0  0
   -6.1003   12.1886  -32.8346 H   0  0  0  0  0  0  0  0  0  0  0  0
   -4.3551   12.6138  -32.8346 H   0  0  0  0  0  0  0  0  0  0  0  0
   -3.9178   13.4246  -36.0730 H   0  0  0  0  0  0  0  0  0  0  0  0
   -3.3318   15.1319  -36.2015 H   0  0  0  0  0  0  0  0  0  0  0  0
   -0.2928   17.6330  -33.9211 H   0  0  0  0  0  0  0  0  0  0  0  0
   -0.0826   16.6361  -35.4005 H   0  0  0  0  0  0  0  0  0  0  0  0
   -1.2391   18.0105  -35.4005 H   0  0  0  0  0  0  0  0  0  0  0  0
   -4.8412   20.1186  -31.7514 H   0  0  0  0  0  0  0  0  0  0  0  0
  1  2  1  0
  2  3  2  0
  2  4  1  0
  4  5  1  0
  5  6  1  0
  6  7  1  0
  6  8  2  0
  5  9  2  0
  9 10  1  0
 10 11  2  0
 11 12  1  0
 12 13  2  0
 13 14  1  0
 14 15  1  0
 15 16  2  0
 16 17  1  0
 17 18  2  0
 18 19  1  0
 19 20  2  0
 19 21  1  0
 21 22  1  0
 22 23  1  0
 22 24  1  0
 21 25  1  0
 25 26  1  0
 26 27  1  0
 26 28  1  0
 26 29  1  0
 29 30  2  0
 29 31  1  0
 31 32  1  0
 13 33  1  0
 33 34  2  0
 34  4  1  0
 34 10  1  0
 20 15  1  0
 31 18  1  0
  1 35  1  0
  1 36  1  0
  1 37  1  0
  7 38  1  0
  9 39  1  0
 11 40  1  0
 12 41  1  0
 14 42  1  0
 17 43  1  0
 22 44  1  0
 23 45  1  0
 23 46  1  0
 23 47  1  0
 24 48  1  0
 24 49  1  0
 24 50  1  0
 25 51  1  0
 25 52  1  0
 32 53  1  0
 32 54  1  0
 32 55  1  0
 33 56  1  0
M  CHG  1   7  -1
M  END
>  <UniqueID>  (67) 
67

>  <SMILES>  (67) 
CC(=O)n1c(C([NH-])=O)cc2ccc(Nc3ncc4c(n3)N(C(C)C)CC(F)(F)C(=O)N4C)cc21

>  <Energy>  (67) 
112.04732670585905

>  <Genealogy>  (67) 
CC(=O)n1c(C([NH-])=O)cc2ccc(Nc3ncc4c(n3)N(C(C)C)CC(F)(F)C(=O)N4C)cc21 (protonated)
CC(=O)n1c(C([NH-])=O)cc2ccc(Nc3ncc4c(n3)N(C(C)C)CC(F)(F)C(=O)N4C)cc21 (3D coordinates assigned)
CC(=O)n1c(C([NH-])=O)cc2ccc(Nc3ncc4c(n3)N(C(C)C)CC(F)(F)C(=O)N4C)cc21 (nonaromatic ring conformer: 112.04732670585905 kcal/mol)

>  <smiles>  (67) 
CC(=O)n1c(C(N)=O)cc2ccc(Nc3ncc4c(n3)N(C(C)C)CC(F)(F)C(=O)N4C)cc21

>  <score_type>  (67) 
oracle

>  <origin>  (67) 
adg

>  <m_score__min__energy>  (67) 
-10.02

>  <m_primary>  (67) 
energy

$$$$
67:0
     RDKit          3D

 27 28  0  0  0  0  0  0  0  0999 V2000
   -3.2910   22.2050  -29.7420 C   0  0  0  0  0  0  0  0  0  0  0  0
   -4.0190   22.3910  -31.0340 C   0  0  0  0  0  0  0  0  0  0  0  0
   -3.3800   22.3190  -32.1180 O   0  0  0  0  0  0  0  0  0  0  0  0
   -5.4140   22.7280  -31.0510 N   0  0  0  0  0  0  0  0  0  0  0  0
   -5.9860   23.9520  -30.8650 C   0  0  0  0  0  0  0  0  0  0  0  0
   -5.2840   25.1830  -30.4500 C   0  0  0  0  0  0  0  0  0  0  0  0
   -3.8760   25.3170  -30.6190 N   0  0  0  0  0  0  0  0  0  0  0  0
   -5.9310   26.1160  -29.9020 O   0  0  0  0  0  0  0  0  0  0  0  0
   -7.3670   23.8740  -31.0410 C   0  0  0  0  0  0  0  0  0  0  0  0
   -7.6250   22.5530  -31.3330 C   0  0  0  0  0  0  0  0  0  0  0  0
   -8.8300   21.9100  -31.5920 C   0  0  0  0  0  0  0  0  0  0  0  0
   -8.7960   20.5340  -31.8740 C   0  0  0  0  0  0  0  0  0  0  0  0
   -7.5620   19.8310  -31.9120 C   0  0  0  0  0  0  0  0  0  0  0  0
   -7.5440   18.3470  -32.1730 C   0  0  0  0  0  0  0  0  0  0  0  0
   -8.7990   17.7990  -31.9680 F   0  0  0  0  0  0  0  0  0  0  0  0
   -6.6520   17.7120  -31.3250 F   0  0  0  0  0  0  0  0  0  0  0  0
   -7.1610   18.1190  -33.4810 F   0  0  0  0  0  0  0  0  0  0  0  0
   -6.3610   20.5180  -31.6180 C   0  0  0  0  0  0  0  0  0  0  0  0
   -6.4290   21.8850  -31.3300 C   0  0  0  0  0  0  0  0  0  0  0  0
   -3.9810   22.3813  -28.9037 H   0  0  0  0  0  0  0  0  0  0  0  0
   -2.9004   21.1782  -29.6857 H   0  0  0  0  0  0  0  0  0  0  0  0
   -2.4558   22.9186  -29.6857 H   0  0  0  0  0  0  0  0  0  0  0  0
   -3.4770   26.0490  -31.2480 H   0  0  0  0  0  0  0  0  0  0  0  0
   -8.0961   24.6940  -30.9631 H   0  0  0  0  0  0  0  0  0  0  0  0
   -9.7814   22.4619  -31.5766 H   0  0  0  0  0  0  0  0  0  0  0  0
   -9.7352   19.9951  -32.0675 H   0  0  0  0  0  0  0  0  0  0  0  0
   -5.3962   19.9896  -31.6159 H   0  0  0  0  0  0  0  0  0  0  0  0
  1  2  1  0
  2  3  2  0
  2  4  1  0
  4  5  1  0
  5  6  1  0
  6  7  1  0
  6  8  2  0
  5  9  2  0
  9 10  1  0
 10 11  2  0
 11 12  1  0
 12 13  2  0
 13 14  1  0
 14 15  1  0
 14 16  1  0
 14 17  1  0
 13 18  1  0
 18 19  2  0
 19  4  1  0
 19 10  1  0
  1 20  1  0
  1 21  1  0
  1 22  1  0
  7 23  1  0
  9 24  1  0
 11 25  1  0
 12 26  1  0
 18 27  1  0
M  CHG  1   7  -1
M  END
>  <UniqueID>  (68) 
68

>  <SMILES>  (68) 
CC(=O)n1c(C([NH-])=O)cc2ccc(C(F)(F)F)cc21

>  <Energy>  (68) 
67.18738616592398

>  <Genealogy>  (68) 
CC(=O)n1c(C([NH-])=O)cc2ccc(C(F)(F)F)cc21 (protonated)
CC(=O)n1c(C([NH-])=O)cc2ccc(C(F)(F)F)cc21 (3D coordinates assigned)
CC(=O)n1c(C([NH-])=O)cc2ccc(C(F)(F)F)cc21 (optimized conformer: 67.18738616592398 kcal/mol)

>  <smiles>  (68) 
CC(=O)n1c(C(N)=O)cc2ccc(C(F)(F)F)cc21

>  <score_type>  (68) 
oracle

>  <origin>  (68) 
adg

>  <m_score__min__energy>  (68) 
-9.5600000000000005

>  <m_primary>  (68) 
energy

$$$$
68:0
     RDKit          3D

 47 49  0  0  0  0  0  0  0  0999 V2000
   -5.3630   14.1610  -34.0390 C   0  0  0  0  0  0  0  0  0  0  0  0
   -5.6200   15.5780  -33.6160 C   0  0  0  0  0  0  0  0  0  0  0  0
   -6.1620   16.4980  -34.5240 C   0  0  0  0  0  0  0  0  0  0  0  0
   -6.4340   17.8090  -34.1220 C   0  0  0  0  0  0  0  0  0  0  0  0
   -6.1820   18.2180  -32.7990 C   0  0  0  0  0  0  0  0  0  0  0  0
   -6.4710   19.6090  -32.3710 C   0  0  0  0  0  0  0  0  0  0  0  0
   -7.8100   20.0810  -32.3230 C   0  0  0  0  0  0  0  0  0  0  0  0
   -8.0940   21.4000  -31.9330 C   0  0  0  0  0  0  0  0  0  0  0  0
   -7.0280   22.2240  -31.5870 C   0  0  0  0  0  0  0  0  0  0  0  0
   -7.0190   23.5450  -31.2040 C   0  0  0  0  0  0  0  0  0  0  0  0
   -5.6780   23.8590  -30.9960 C   0  0  0  0  0  0  0  0  0  0  0  0
   -5.2190   25.1700  -30.4930 C   0  0  0  0  0  0  0  0  0  0  0  0
   -3.9290   25.6740  -30.8310 N   0  0  0  0  0  0  0  0  0  0  0  0
   -5.9560   25.8340  -29.7160 O   0  0  0  0  0  0  0  0  0  0  0  0
   -4.8880   22.7770  -31.2490 N   0  0  0  0  0  0  0  0  0  0  0  0
   -3.4530   22.7220  -31.2510 C   0  0  0  0  0  0  0  0  0  0  0  0
   -2.8490   22.2530  -32.2530 O   0  0  0  0  0  0  0  0  0  0  0  0
   -2.7430   23.2120  -30.1450 O   0  0  0  0  0  0  0  0  0  0  0  0
   -2.7910   22.6980  -28.8060 C   0  0  0  0  0  0  0  0  0  0  0  0
   -3.0670   21.1900  -28.9100 C   0  0  0  0  0  0  0  0  0  0  0  0
   -3.9330   23.3600  -28.0130 C   0  0  0  0  0  0  0  0  0  0  0  0
   -1.4420   22.9080  -28.0930 C   0  0  0  0  0  0  0  0  0  0  0  0
   -5.7310   21.7840  -31.6090 C   0  0  0  0  0  0  0  0  0  0  0  0
   -5.4150   20.4810  -32.0120 C   0  0  0  0  0  0  0  0  0  0  0  0
   -5.6550   17.2850  -31.8880 C   0  0  0  0  0  0  0  0  0  0  0  0
   -5.3820   15.9740  -32.2930 C   0  0  0  0  0  0  0  0  0  0  0  0
   -5.2481   13.5273  -33.1473 H   0  0  0  0  0  0  0  0  0  0  0  0
   -6.2100   13.7984  -34.6399 H   0  0  0  0  0  0  0  0  0  0  0  0
   -4.4426   14.1189  -34.6399 H   0  0  0  0  0  0  0  0  0  0  0  0
   -6.3743   16.1870  -35.5576 H   0  0  0  0  0  0  0  0  0  0  0  0
   -6.8483   18.5267  -34.8454 H   0  0  0  0  0  0  0  0  0  0  0  0
   -8.6344   19.4052  -32.5946 H   0  0  0  0  0  0  0  0  0  0  0  0
   -9.1292   21.7707  -31.9021 H   0  0  0  0  0  0  0  0  0  0  0  0
   -7.8862   24.2116  -31.0869 H   0  0  0  0  0  0  0  0  0  0  0  0
   -3.0680   25.2990  -30.3730 H   0  0  0  0  0  0  0  0  0  0  0  0
   -3.1455   20.7611  -27.9001 H   0  0  0  0  0  0  0  0  0  0  0  0
   -4.0100   21.0264  -29.4522 H   0  0  0  0  0  0  0  0  0  0  0  0
   -2.2431   20.7030  -29.4522 H   0  0  0  0  0  0  0  0  0  0  0  0
   -3.7429   23.2498  -26.9352 H   0  0  0  0  0  0  0  0  0  0  0  0
   -3.9855   24.4286  -28.2687 H   0  0  0  0  0  0  0  0  0  0  0  0
   -4.8864   22.8745  -28.2687 H   0  0  0  0  0  0  0  0  0  0  0  0
   -1.5952   22.8841  -27.0040 H   0  0  0  0  0  0  0  0  0  0  0  0
   -0.7455   22.1075  -28.3829 H   0  0  0  0  0  0  0  0  0  0  0  0
   -1.0218   23.8824  -28.3829 H   0  0  0  0  0  0  0  0  0  0  0  0
   -4.3691   20.1422  -32.0489 H   0  0  0  0  0  0  0  0  0  0  0  0
   -5.4560   17.5883  -30.8495 H   0  0  0  0  0  0  0  0  0  0  0  0
   -4.9785   15.2505  -31.5693 H   0  0  0  0  0  0  0  0  0  0  0  0
  1  2  1  0
  2  3  2  0
  3  4  1  0
  4  5  2  0
  5  6  1  0
  6  7  2  0
  7  8  1  0
  8  9  2  0
  9 10  1  0
 10 11  2  0
 11 12  1  0
 12 13  1  0
 12 14  2  0
 11 15  1  0
 15 16  1  0
 16 17  2  0
 16 18  1  0
 18 19  1  0
 19 20  1  0
 19 21  1  0
 19 22  1  0
 15 23  1  0
 23 24  2  0
  5 25  1  0
 25 26  2  0
 26  2  1  0
 24  6  1  0
 23  9  1  0
  1 27  1  0
  1 28  1  0
  1 29  1  0
  3 30  1  0
  4 31  1  0
  7 32  1  0
  8 33  1  0
 10 34  1  0
 13 35  1  0
 20 36  1  0
 20 37  1  0
 20 38  1  0
 21 39  1  0
 21 40  1  0
 21 41  1  0
 22 42  1  0
 22 43  1  0
 22 44  1  0
 24 45  1  0
 25 46  1  0
 26 47  1  0
M  CHG  1  13  -1
M  END
>  <UniqueID>  (69) 
69

>  <SMILES>  (69) 
Cc1ccc(-c2ccc3cc(C([NH-])=O)n(C(=O)OC(C)(C)C)c3c2)cc1

>  <Energy>  (69) 
87.73847310651483

>  <Genealogy>  (69) 
Cc1ccc(-c2ccc3cc(C([NH-])=O)n(C(=O)OC(C)(C)C)c3c2)cc1 (protonated)
Cc1ccc(-c2ccc3cc(C([NH-])=O)n(C(=O)OC(C)(C)C)c3c2)cc1 (3D coordinates assigned)
Cc1ccc(-c2ccc3cc(C([NH-])=O)n(C(=O)OC(C)(C)C)c3c2)cc1 (optimized conformer: 87.73847310651483 kcal/mol)

>  <smiles>  (69) 
Cc1ccc(-c2ccc3cc(C(N)=O)n(C(=O)OC(C)(C)C)c3c2)cc1

>  <score_type>  (69) 
oracle

>  <origin>  (69) 
adg

>  <m_score__min__energy>  (69) 
-11.17

>  <m_primary>  (69) 
energy

$$$$
69:0
     RDKit          3D

 47 49  0  0  0  0  0  0  0  0999 V2000
   -1.2050   22.5540  -30.0600 C   0  0  0  0  0  0  0  0  0  0  0  0
   -2.5390   22.4650  -30.0690 C   0  0  0  0  0  0  0  0  0  0  0  0
   -3.2750   22.3150  -28.7710 C   0  0  0  0  0  0  0  0  0  0  0  0
   -3.3040   22.4950  -31.3240 C   0  0  0  0  0  0  0  0  0  0  0  0
   -2.7010   22.2520  -32.4010 O   0  0  0  0  0  0  0  0  0  0  0  0
   -4.7440   22.5320  -31.3050 N   0  0  0  0  0  0  0  0  0  0  0  0
   -5.5630   23.5590  -30.9400 C   0  0  0  0  0  0  0  0  0  0  0  0
   -5.1510   24.8530  -30.3770 C   0  0  0  0  0  0  0  0  0  0  0  0
   -3.8050   25.2990  -30.4880 N   0  0  0  0  0  0  0  0  0  0  0  0
   -5.9810   25.5720  -29.7520 O   0  0  0  0  0  0  0  0  0  0  0  0
   -6.8930   23.2570  -31.2610 C   0  0  0  0  0  0  0  0  0  0  0  0
   -6.8560   21.9970  -31.8190 C   0  0  0  0  0  0  0  0  0  0  0  0
   -7.8810   21.2280  -32.3590 C   0  0  0  0  0  0  0  0  0  0  0  0
   -7.5430   19.9860  -32.9300 C   0  0  0  0  0  0  0  0  0  0  0  0
   -6.1930   19.5460  -32.9770 C   0  0  0  0  0  0  0  0  0  0  0  0
   -5.8530   18.2790  -33.5950 N   0  0  0  0  0  0  0  0  0  0  0  0
   -4.7100   18.1470  -34.5030 C   0  0  0  0  0  0  0  0  0  0  0  0
   -4.0720   16.7380  -34.3770 C   0  0  1  0  0  0  0  0  0  0  0  0
   -3.0820   16.6970  -33.2110 C   0  0  0  0  0  0  0  0  0  0  0  0
   -4.9850   15.6530  -34.2090 O   0  0  0  0  0  0  0  0  0  0  0  0
   -6.3400   16.0000  -34.4200 C   0  0  1  0  0  0  0  0  0  0  0  0
   -7.2120   14.7560  -34.2070 C   0  0  0  0  0  0  0  0  0  0  0  0
   -6.7540   17.1290  -33.4500 C   0  0  0  0  0  0  0  0  0  0  0  0
   -5.1810   20.3660  -32.4190 C   0  0  0  0  0  0  0  0  0  0  0  0
   -5.5460   21.5850  -31.8300 C   0  0  0  0  0  0  0  0  0  0  0  0
   -0.6547   22.6643  -31.0061 H   0  0  0  0  0  0  0  0  0  0  0  0
   -0.6577   22.5170  -29.1065 H   0  0  0  0  0  0  0  0  0  0  0  0
   -2.5754   22.4576  -27.9342 H   0  0  0  0  0  0  0  0  0  0  0  0
   -4.0741   23.0688  -28.7134 H   0  0  0  0  0  0  0  0  0  0  0  0
   -3.7154   21.3086  -28.7134 H   0  0  0  0  0  0  0  0  0  0  0  0
   -3.5260   25.9940  -31.2260 H   0  0  0  0  0  0  0  0  0  0  0  0
   -7.7781   23.8904  -31.1017 H   0  0  0  0  0  0  0  0  0  0  0  0
   -8.9234   21.5789  -32.3407 H   0  0  0  0  0  0  0  0  0  0  0  0
   -8.3360   19.3470  -33.3458 H   0  0  0  0  0  0  0  0  0  0  0  0
   -5.0511   18.2982  -35.5378 H   0  0  0  0  0  0  0  0  0  0  0  0
   -3.9563   18.9026  -34.2364 H   0  0  0  0  0  0  0  0  0  0  0  0
   -3.5804   16.5902  -35.3499 H   0  0  0  0  0  0  0  0  0  0  0  0
   -3.6344   16.7199  -32.2600 H   0  0  0  0  0  0  0  0  0  0  0  0
   -2.4871   15.7734  -33.2674 H   0  0  0  0  0  0  0  0  0  0  0  0
   -2.4128   17.5682  -33.2674 H   0  0  0  0  0  0  0  0  0  0  0  0
   -6.4764   16.3655  -35.4485 H   0  0  0  0  0  0  0  0  0  0  0  0
   -7.3378   14.5766  -33.1290 H   0  0  0  0  0  0  0  0  0  0  0  0
   -8.1972   14.9152  -34.6696 H   0  0  0  0  0  0  0  0  0  0  0  0
   -6.7263   13.8842  -34.6696 H   0  0  0  0  0  0  0  0  0  0  0  0
   -7.7835   17.4433  -33.6768 H   0  0  0  0  0  0  0  0  0  0  0  0
   -6.6940   16.7545  -32.4175 H   0  0  0  0  0  0  0  0  0  0  0  0
   -4.1272   20.0517  -32.4474 H   0  0  0  0  0  0  0  0  0  0  0  0
  1  2  2  0
  2  3  1  0
  2  4  1  0
  4  5  2  0
  4  6  1  0
  6  7  1  0
  7  8  1  0
  8  9  1  0
  8 10  2  0
  7 11  2  0
 11 12  1  0
 12 13  2  0
 13 14  1  0
 14 15  2  0
 15 16  1  0
 16 17  1  0
 17 18  1  0
 18 19  1  0
 18 20  1  0
 20 21  1  0
 21 22  1  0
 21 23  1  0
 15 24  1  0
 24 25  2  0
 25  6  1  0
 25 12  1  0
 23 16  1  0
  1 26  1  0
  1 27  1  0
  3 28  1  0
  3 29  1  0
  3 30  1  0
  9 31  1  0
 11 32  1  0
 13 33  1  0
 14 34  1  0
 17 35  1  0
 17 36  1  0
 18 37  1  6
 19 38  1  0
 19 39  1  0
 19 40  1  0
 21 41  1  6
 22 42  1  0
 22 43  1  0
 22 44  1  0
 23 45  1  0
 23 46  1  0
 24 47  1  0
M  CHG  1   9  -1
M  END
>  <UniqueID>  (70) 
70

>  <SMILES>  (70) 
C=C(C)C(=O)n1c(C([NH-])=O)cc2ccc(N3C[C@@H](C)O[C@@H](C)C3)cc21

>  <Energy>  (70) 
102.75736351428895

>  <Genealogy>  (70) 
C=C(C)C(=O)n1c(C([NH-])=O)cc2ccc(N3CC(C)OC(C)C3)cc21 (protonated)
C=C(C)C(=O)n1c(C([NH-])=O)cc2ccc(N3C[C@@H](C)O[C@@H](C)C3)cc21 (chirality)
C=C(C)C(=O)n1c(C([NH-])=O)cc2ccc(N3C[C@@H](C)O[C@@H](C)C3)cc21 (3D coordinates assigned)
C=C(C)C(=O)n1c(C([NH-])=O)cc2ccc(N3C[C@@H](C)O[C@@H](C)C3)cc21 (nonaromatic ring conformer: 102.75736351428895 kcal/mol)

>  <smiles>  (70) 
C=C(C)C(=O)n1c(C(N)=O)cc2ccc(N3CC(C)OC(C)C3)cc21

>  <score_type>  (70) 
oracle

>  <origin>  (70) 
adg

>  <m_score__min__energy>  (70) 
-11.34

>  <m_primary>  (70) 
energy

$$$$
70:0
     RDKit          3D

 71 75  0  0  0  0  0  0  0  0999 V2000
   -3.4620   12.6760  -32.7790 C   0  0  0  0  0  0  0  0  0  0  0  0
   -4.1250   12.2850  -34.0360 N   0  0  0  0  0  0  0  0  0  0  0  0
   -3.5700   13.0090  -35.2000 C   0  0  0  0  0  0  0  0  0  0  0  0
   -3.8960   14.5110  -35.1450 C   0  0  0  0  0  0  0  0  0  0  0  0
   -5.2490   14.7300  -34.6250 N   0  0  0  0  0  0  0  0  0  0  0  0
   -5.6320   16.0250  -34.1230 C   0  0  0  0  0  0  0  0  0  0  0  0
   -6.8640   16.2010  -33.4740 C   0  0  0  0  0  0  0  0  0  0  0  0
   -7.2370   17.4580  -32.9910 C   0  0  0  0  0  0  0  0  0  0  0  0
   -6.3880   18.5670  -33.1540 C   0  0  0  0  0  0  0  0  0  0  0  0
   -6.7740   19.8980  -32.6190 C   0  0  0  0  0  0  0  0  0  0  0  0
   -8.1410   20.2680  -32.5240 C   0  0  0  0  0  0  0  0  0  0  0  0
   -8.5140   21.5190  -32.0050 C   0  0  0  0  0  0  0  0  0  0  0  0
   -7.5050   22.3750  -31.5740 C   0  0  0  0  0  0  0  0  0  0  0  0
   -7.5840   23.6480  -31.0570 C   0  0  0  0  0  0  0  0  0  0  0  0
   -6.2650   24.0280  -30.8150 C   0  0  0  0  0  0  0  0  0  0  0  0
   -5.8810   25.3290  -30.2300 C   0  0  0  0  0  0  0  0  0  0  0  0
   -6.4780   25.8050  -29.0230 N   0  0  0  0  0  0  0  0  0  0  0  0
   -5.0440   26.0540  -30.8310 O   0  0  0  0  0  0  0  0  0  0  0  0
   -5.4060   23.0330  -31.1720 N   0  0  0  0  0  0  0  0  0  0  0  0
   -3.9710   23.0960  -31.2100 C   0  0  0  0  0  0  0  0  0  0  0  0
   -3.3880   24.1290  -30.7820 O   0  0  0  0  0  0  0  0  0  0  0  0
   -3.1690   21.9680  -31.7400 C   0  0  0  0  0  0  0  0  0  0  0  0
   -3.0780   21.7470  -33.1200 C   0  0  0  0  0  0  0  0  0  0  0  0
   -2.3530   20.6630  -33.6230 C   0  0  0  0  0  0  0  0  0  0  0  0
   -1.6880   19.7670  -32.7550 C   0  0  0  0  0  0  0  0  0  0  0  0
   -0.8980   18.5430  -33.2630 C   0  0  0  0  0  0  0  0  0  0  0  0
    0.4210   18.3080  -32.4890 C   0  0  0  0  0  0  0  0  0  0  0  0
   -0.5400   18.7450  -34.7500 C   0  0  0  0  0  0  0  0  0  0  0  0
   -1.7610   17.2710  -33.1110 C   0  0  0  0  0  0  0  0  0  0  0  0
   -1.7690   20.0170  -31.3670 C   0  0  0  0  0  0  0  0  0  0  0  0
   -2.4940   21.1010  -30.8690 C   0  0  0  0  0  0  0  0  0  0  0  0
   -6.1820   22.0310  -31.6430 C   0  0  0  0  0  0  0  0  0  0  0  0
   -5.7790   20.8050  -32.1840 C   0  0  0  0  0  0  0  0  0  0  0  0
   -5.1610   18.3900  -33.8180 C   0  0  0  0  0  0  0  0  0  0  0  0
   -4.7880   17.1320  -34.2980 C   0  0  0  0  0  0  0  0  0  0  0  0
   -6.2010   13.6150  -34.6450 C   0  0  0  0  0  0  0  0  0  0  0  0
   -5.6050   12.3850  -33.9340 C   0  0  0  0  0  0  0  0  0  0  0  0
   -4.0589   12.3240  -31.9247 H   0  0  0  0  0  0  0  0  0  0  0  0
   -2.4599   12.2243  -32.7371 H   0  0  0  0  0  0  0  0  0  0  0  0
   -3.3724   13.7715  -32.7371 H   0  0  0  0  0  0  0  0  0  0  0  0
   -2.4774   12.8817  -35.2110 H   0  0  0  0  0  0  0  0  0  0  0  0
   -4.0250   12.5929  -36.1110 H   0  0  0  0  0  0  0  0  0  0  0  0
   -3.1711   15.0138  -34.4880 H   0  0  0  0  0  0  0  0  0  0  0  0
   -3.8382   14.9224  -36.1635 H   0  0  0  0  0  0  0  0  0  0  0  0
   -7.5406   15.3434  -33.3447 H   0  0  0  0  0  0  0  0  0  0  0  0
   -8.2028   17.5810  -32.4790 H   0  0  0  0  0  0  0  0  0  0  0  0
   -8.9182   19.5663  -32.8610 H   0  0  0  0  0  0  0  0  0  0  0  0
   -9.5720   21.8131  -31.9412 H   0  0  0  0  0  0  0  0  0  0  0  0
   -8.4935   24.2391  -30.8739 H   0  0  0  0  0  0  0  0  0  0  0  0
   -7.3080   25.3300  -28.6060 H   0  0  0  0  0  0  0  0  0  0  0  0
   -6.1400   26.6910  -28.5870 H   0  0  0  0  0  0  0  0  0  0  0  0
   -3.5825   22.4339  -33.8155 H   0  0  0  0  0  0  0  0  0  0  0  0
   -2.2991   20.5048  -34.7102 H   0  0  0  0  0  0  0  0  0  0  0  0
    0.2228   18.3433  -31.4076 H   0  0  0  0  0  0  0  0  0  0  0  0
    0.8314   17.3226  -32.7546 H   0  0  0  0  0  0  0  0  0  0  0  0
    1.1465   19.0910  -32.7546 H   0  0  0  0  0  0  0  0  0  0  0  0
    0.4157   19.2842  -34.8271 H   0  0  0  0  0  0  0  0  0  0  0  0
   -0.4488   17.7652  -35.2416 H   0  0  0  0  0  0  0  0  0  0  0  0
   -1.3316   19.3296  -35.2416 H   0  0  0  0  0  0  0  0  0  0  0  0
   -1.9086   17.0535  -32.0429 H   0  0  0  0  0  0  0  0  0  0  0  0
   -2.7377   17.4311  -33.5909 H   0  0  0  0  0  0  0  0  0  0  0  0
   -1.2513   16.4226  -33.5909 H   0  0  0  0  0  0  0  0  0  0  0  0
   -1.2515   19.3455  -30.6661 H   0  0  0  0  0  0  0  0  0  0  0  0
   -2.5361   21.2765  -29.7839 H   0  0  0  0  0  0  0  0  0  0  0  0
   -4.7119   20.5519  -32.2692 H   0  0  0  0  0  0  0  0  0  0  0  0
   -4.4892   19.2493  -33.9607 H   0  0  0  0  0  0  0  0  0  0  0  0
   -3.8259   17.0086  -34.8167 H   0  0  0  0  0  0  0  0  0  0  0  0
   -7.1248   13.9183  -34.1307 H   0  0  0  0  0  0  0  0  0  0  0  0
   -6.4187   13.3513  -35.6905 H   0  0  0  0  0  0  0  0  0  0  0  0
   -5.8755   12.4364  -32.8690 H   0  0  0  0  0  0  0  0  0  0  0  0
   -6.0190   11.4970  -34.4341 H   0  0  0  0  0  0  0  0  0  0  0  0
  1  2  1  0
  2  3  1  0
  3  4  1  0
  4  5  1  0
  5  6  1  0
  6  7  2  0
  7  8  1  0
  8  9  2  0
  9 10  1  0
 10 11  2  0
 11 12  1  0
 12 13  2  0
 13 14  1  0
 14 15  2  0
 15 16  1  0
 16 17  1  0
 16 18  2  0
 15 19  1  0
 19 20  1  0
 20 21  2  0
 20 22  1  0
 22 23  2  0
 23 24  1  0
 24 25  2  0
 25 26  1  0
 26 27  1  0
 26 28  1  0
 26 29  1  0
 25 30  1  0
 30 31  2  0
 19 32  1  0
 32 33  2  0
  9 34  1  0
 34 35  2  0
  5 36  1  0
 36 37  1  0
 37  2  1  0
 35  6  1  0
 33 10  1  0
 32 13  1  0
 31 22  1  0
  1 38  1  0
  1 39  1  0
  1 40  1  0
  3 41  1  0
  3 42  1  0
  4 43  1  0
  4 44  1  0
  7 45  1  0
  8 46  1  0
 11 47  1  0
 12 48  1  0
 14 49  1  0
 17 50  1  0
 17 51  1  0
 23 52  1  0
 24 53  1  0
 27 54  1  0
 27 55  1  0
 27 56  1  0
 28 57  1  0
 28 58  1  0
 28 59  1  0
 29 60  1  0
 29 61  1  0
 29 62  1  0
 30 63  1  0
 31 64  1  0
 33 65  1  0
 34 66  1  0
 35 67  1  0
 36 68  1  0
 36 69  1  0
 37 70  1  0
 37 71  1  0
M  END
>  <UniqueID>  (71) 
71

>  <SMILES>  (71) 
CN1CCN(c2ccc(-c3ccc4cc(C(N)=O)n(C(=O)c5ccc(C(C)(C)C)cc5)c4c3)cc2)CC1

>  <Energy>  (71) 
134.63734787362097

>  <Genealogy>  (71) 
CN1CCN(c2ccc(-c3ccc4cc(C(N)=O)n(C(=O)c5ccc(C(C)(C)C)cc5)c4c3)cc2)CC1 (3D coordinates assigned)
CN1CCN(c2ccc(-c3ccc4cc(C(N)=O)n(C(=O)c5ccc(C(C)(C)C)cc5)c4c3)cc2)CC1 (nonaromatic ring conformer: 134.63734787362097 kcal/mol)

>  <smiles>  (71) 
CN1CCN(c2ccc(-c3ccc4cc(C(N)=O)n(C(=O)c5ccc(C(C)(C)C)cc5)c4c3)cc2)CC1

>  <score_type>  (71) 
oracle

>  <origin>  (71) 
adg

>  <m_score__min__energy>  (71) 
-11.539999999999999

>  <m_primary>  (71) 
energy

$$$$
71:0
     RDKit          3D

 30 31  0  0  0  0  0  0  0  0999 V2000
   -3.5500   19.8230  -33.4680 C   0  0  0  0  0  0  0  0  0  0  0  0
   -2.7750   21.1300  -33.3520 C   0  0  0  0  0  0  0  0  0  0  0  0
   -3.6620   22.2200  -33.1060 O   0  0  0  0  0  0  0  0  0  0  0  0
   -4.0230   22.6450  -31.8220 C   0  0  0  0  0  0  0  0  0  0  0  0
   -3.1630   22.6970  -30.9010 O   0  0  0  0  0  0  0  0  0  0  0  0
   -5.3880   22.9960  -31.5470 N   0  0  0  0  0  0  0  0  0  0  0  0
   -5.8580   24.1270  -30.9490 C   0  0  0  0  0  0  0  0  0  0  0  0
   -5.0590   25.3200  -30.5990 C   0  0  0  0  0  0  0  0  0  0  0  0
   -3.6430   25.2410  -30.4580 N   0  0  0  0  0  0  0  0  0  0  0  0
   -5.6290   26.4370  -30.4690 O   0  0  0  0  0  0  0  0  0  0  0  0
   -7.2390   24.0540  -30.7810 C   0  0  0  0  0  0  0  0  0  0  0  0
   -7.6070   22.8370  -31.3070 C   0  0  0  0  0  0  0  0  0  0  0  0
   -8.8620   22.2420  -31.3960 C   0  0  0  0  0  0  0  0  0  0  0  0
   -8.9440   20.9590  -31.9640 C   0  0  0  0  0  0  0  0  0  0  0  0
   -7.7790   20.3000  -32.4220 C   0  0  0  0  0  0  0  0  0  0  0  0
   -7.8740   18.9890  -32.9880 N   0  0  0  0  0  0  0  0  0  0  0  0
   -6.5220   20.9320  -32.3170 C   0  0  0  0  0  0  0  0  0  0  0  0
   -6.4710   22.2170  -31.7630 C   0  0  0  0  0  0  0  0  0  0  0  0
   -3.7767   19.4406  -32.4618 H   0  0  0  0  0  0  0  0  0  0  0  0
   -4.4889   20.0006  -34.0129 H   0  0  0  0  0  0  0  0  0  0  0  0
   -2.9438   19.0844  -34.0129 H   0  0  0  0  0  0  0  0  0  0  0  0
   -2.0582   21.0527  -32.5212 H   0  0  0  0  0  0  0  0  0  0  0  0
   -2.2434   21.3120  -34.2977 H   0  0  0  0  0  0  0  0  0  0  0  0
   -3.0480   24.8420  -31.2180 H   0  0  0  0  0  0  0  0  0  0  0  0
   -7.8959   24.8091  -30.3246 H   0  0  0  0  0  0  0  0  0  0  0  0
   -9.7620   22.7599  -31.0330 H   0  0  0  0  0  0  0  0  0  0  0  0
   -9.9219   20.4633  -32.0531 H   0  0  0  0  0  0  0  0  0  0  0  0
   -8.5110   18.8010  -33.7930 H   0  0  0  0  0  0  0  0  0  0  0  0
   -7.3080   18.1990  -32.6040 H   0  0  0  0  0  0  0  0  0  0  0  0
   -5.6064   20.4287  -32.6612 H   0  0  0  0  0  0  0  0  0  0  0  0
  1  2  1  0
  2  3  1  0
  3  4  1  0
  4  5  2  0
  4  6  1  0
  6  7  1  0
  7  8  1  0
  8  9  1  0
  8 10  2  0
  7 11  2  0
 11 12  1  0
 12 13  2  0
 13 14  1  0
 14 15  2  0
 15 16  1  0
 15 17  1  0
 17 18  2  0
 18  6  1  0
 18 12  1  0
  1 19  1  0
  1 20  1  0
  1 21  1  0
  2 22  1  0
  2 23  1  0
  9 24  1  0
 11 25  1  0
 13 26  1  0
 14 27  1  0
 16 28  1  0
 16 29  1  0
 17 30  1  0
M  CHG  1   9  -1
M  END
>  <UniqueID>  (72) 
72

>  <SMILES>  (72) 
CCOC(=O)n1c(C([NH-])=O)cc2ccc(N)cc21

>  <Energy>  (72) 
64.73799638543088

>  <Genealogy>  (72) 
CCOC(=O)n1c(C([NH-])=O)cc2ccc(N)cc21 (protonated)
CCOC(=O)n1c(C([NH-])=O)cc2ccc(N)cc21 (3D coordinates assigned)
CCOC(=O)n1c(C([NH-])=O)cc2ccc(N)cc21 (optimized conformer: 64.73799638543088 kcal/mol)

>  <smiles>  (72) 
CCOC(=O)n1c(C(N)=O)cc2ccc(N)cc21

>  <score_type>  (72) 
oracle

>  <origin>  (72) 
adg

>  <m_score__min__energy>  (72) 
-8.5099999999999998

>  <m_primary>  (72) 
energy

$$$$
72:0
     RDKit          3D

 55 58  0  0  0  0  0  0  0  0999 V2000
   -1.1670   21.6310  -26.6300 C   0  0  0  0  0  0  0  0  0  0  0  0
   -0.5910   21.8210  -27.9580 N   0  0  0  0  0  0  0  0  0  0  0  0
   -1.3140   21.5830  -29.1800 C   0  0  0  0  0  0  0  0  0  0  0  0
   -2.4880   20.8080  -29.2070 C   0  0  0  0  0  0  0  0  0  0  0  0
   -3.1680   20.5940  -30.4090 C   0  0  0  0  0  0  0  0  0  0  0  0
   -2.6940   21.1540  -31.6080 C   0  0  0  0  0  0  0  0  0  0  0  0
   -3.4220   20.9290  -32.8800 C   0  0  0  0  0  0  0  0  0  0  0  0
   -2.7770   20.7650  -33.9520 O   0  0  0  0  0  0  0  0  0  0  0  0
   -4.8580   20.8780  -32.9150 N   0  0  0  0  0  0  0  0  0  0  0  0
   -5.6420   19.8900  -33.4310 C   0  0  0  0  0  0  0  0  0  0  0  0
   -5.1670   18.7290  -34.2120 C   0  0  0  0  0  0  0  0  0  0  0  0
   -3.8380   18.2360  -34.0590 N   0  0  0  0  0  0  0  0  0  0  0  0
   -5.9360   18.1830  -35.0490 O   0  0  0  0  0  0  0  0  0  0  0  0
   -6.9860   20.1460  -33.1620 C   0  0  0  0  0  0  0  0  0  0  0  0
   -6.9990   21.3290  -32.4580 C   0  0  0  0  0  0  0  0  0  0  0  0
   -8.0660   22.0370  -31.9120 C   0  0  0  0  0  0  0  0  0  0  0  0
   -7.7790   23.2130  -31.1990 C   0  0  0  0  0  0  0  0  0  0  0  0
   -6.4410   23.6590  -31.0460 C   0  0  0  0  0  0  0  0  0  0  0  0
   -6.1400   24.8950  -30.2390 C   0  0  0  0  0  0  0  0  0  0  0  0
   -4.9770   25.6830  -30.8420 C   0  0  0  0  0  0  0  0  0  0  0  0
   -3.7060   25.0890  -30.4440 N   0  0  0  0  0  0  0  0  0  0  0  0
   -3.5380   24.3390  -29.2390 C   0  0  0  0  0  0  0  0  0  0  0  0
   -4.1180   23.2250  -29.1100 O   0  0  0  0  0  0  0  0  0  0  0  0
   -2.6910   24.8680  -28.1440 C   0  0  0  0  0  0  0  0  0  0  0  0
   -1.3950   25.3470  -28.4100 C   0  0  0  0  0  0  0  0  0  0  0  0
   -0.6010   25.8550  -27.3760 C   0  0  0  0  0  0  0  0  0  0  0  0
   -1.0910   25.8930  -26.0680 C   0  0  0  0  0  0  0  0  0  0  0  0
   -0.0950   26.5350  -24.7740 Cl  0  0  0  0  0  0  0  0  0  0  0  0
   -2.3770   25.4190  -25.7920 C   0  0  0  0  0  0  0  0  0  0  0  0
   -3.1740   24.9090  -26.8220 C   0  0  0  0  0  0  0  0  0  0  0  0
   -5.3830   22.9050  -31.6020 C   0  0  0  0  0  0  0  0  0  0  0  0
   -5.7010   21.7470  -32.3200 C   0  0  0  0  0  0  0  0  0  0  0  0
   -1.5170   21.9220  -31.5810 C   0  0  0  0  0  0  0  0  0  0  0  0
   -0.8360   22.1340  -30.3790 C   0  0  0  0  0  0  0  0  0  0  0  0
   -0.4158   21.8788  -25.8656 H   0  0  0  0  0  0  0  0  0  0  0  0
   -2.0410   22.2885  -26.5119 H   0  0  0  0  0  0  0  0  0  0  0  0
   -1.4783   20.5826  -26.5119 H   0  0  0  0  0  0  0  0  0  0  0  0
    0.4010   22.1490  -28.0130 H   0  0  0  0  0  0  0  0  0  0  0  0
   -2.8733   20.3675  -28.2756 H   0  0  0  0  0  0  0  0  0  0  0  0
   -4.0820   19.9821  -30.4169 H   0  0  0  0  0  0  0  0  0  0  0  0
   -3.0340   18.7010  -34.5370 H   0  0  0  0  0  0  0  0  0  0  0  0
   -7.8522   19.5327  -33.4510 H   0  0  0  0  0  0  0  0  0  0  0  0
   -9.1014   21.6866  -32.0350 H   0  0  0  0  0  0  0  0  0  0  0  0
   -8.6005   23.7941  -30.7546 H   0  0  0  0  0  0  0  0  0  0  0  0
   -7.0340   25.5356  -30.2179 H   0  0  0  0  0  0  0  0  0  0  0  0
   -5.8588   24.5853  -29.2217 H   0  0  0  0  0  0  0  0  0  0  0  0
   -5.0576   25.6675  -31.9389 H   0  0  0  0  0  0  0  0  0  0  0  0
   -5.0185   26.7198  -30.4770 H   0  0  0  0  0  0  0  0  0  0  0  0
   -1.0035   25.3219  -29.4377 H   0  0  0  0  0  0  0  0  0  0  0  0
    0.4117   26.2255  -27.5934 H   0  0  0  0  0  0  0  0  0  0  0  0
   -2.7629   25.4472  -24.7623 H   0  0  0  0  0  0  0  0  0  0  0  0
   -4.1848   24.5375  -26.5978 H   0  0  0  0  0  0  0  0  0  0  0  0
   -4.3370   23.2202  -31.4737 H   0  0  0  0  0  0  0  0  0  0  0  0
   -1.1290   22.3594  -32.5128 H   0  0  0  0  0  0  0  0  0  0  0  0
    0.0831   22.7383  -30.3727 H   0  0  0  0  0  0  0  0  0  0  0  0
  1  2  1  0
  2  3  1  0
  3  4  2  0
  4  5  1  0
  5  6  2  0
  6  7  1  0
  7  8  2  0
  7  9  1  0
  9 10  1  0
 10 11  1  0
 11 12  1  0
 11 13  2  0
 10 14  2  0
 14 15  1  0
 15 16  2  0
 16 17  1  0
 17 18  2  0
 18 19  1  0
 19 20  1  0
 20 21  1  0
 21 22  1  0
 22 23  2  0
 22 24  1  0
 24 25  2  0
 25 26  1  0
 26 27  2  0
 27 28  1  0
 27 29  1  0
 29 30  2  0
 18 31  1  0
 31 32  2  0
  6 33  1  0
 33 34  2  0
 34  3  1  0
 32  9  1  0
 32 15  1  0
 30 24  1  0
  1 35  1  0
  1 36  1  0
  1 37  1  0
  2 38  1  0
  4 39  1  0
  5 40  1  0
 12 41  1  0
 14 42  1  0
 16 43  1  0
 17 44  1  0
 19 45  1  0
 19 46  1  0
 20 47  1  0
 20 48  1  0
 25 49  1  0
 26 50  1  0
 29 51  1  0
 30 52  1  0
 31 53  1  0
 33 54  1  0
 34 55  1  0
M  CHG  2  12  -1  21  -1
M  END
>  <UniqueID>  (73) 
73

>  <SMILES>  (73) 
CNc1ccc(C(=O)n2c(C([NH-])=O)cc3ccc(CC[N-]C(=O)c4ccc(Cl)cc4)cc32)cc1

>  <Energy>  (73) 
94.14171747867934

>  <Genealogy>  (73) 
CNc1ccc(C(=O)n2c(C([NH-])=O)cc3ccc(CC[N-]C(=O)c4ccc(Cl)cc4)cc32)cc1 (protonated)
CNc1ccc(C(=O)n2c(C([NH-])=O)cc3ccc(CC[N-]C(=O)c4ccc(Cl)cc4)cc32)cc1 (3D coordinates assigned)
CNc1ccc(C(=O)n2c(C([NH-])=O)cc3ccc(CC[N-]C(=O)c4ccc(Cl)cc4)cc32)cc1 (optimized conformer: 94.14171747867934 kcal/mol)

>  <smiles>  (73) 
CNc1ccc(C(=O)n2c(C(N)=O)cc3ccc(CCNC(=O)c4ccc(Cl)cc4)cc32)cc1

>  <score_type>  (73) 
oracle

>  <origin>  (73) 
adg

>  <m_score__min__energy>  (73) 
-12.43

>  <m_primary>  (73) 
energy

$$$$
73:0
     RDKit          3D

 64 67  0  0  0  0  0  0  0  0999 V2000
   -4.5120   17.0080  -34.7120 C   0  0  0  0  0  0  0  0  0  0  0  0
   -5.5780   16.3450  -33.8200 C   0  0  0  0  0  0  0  0  0  0  0  0
   -5.7310   14.8500  -34.1740 C   0  0  0  0  0  0  0  0  0  0  0  0
   -5.1400   16.4640  -32.3500 C   0  0  0  0  0  0  0  0  0  0  0  0
   -6.8340   17.0300  -33.9460 O   0  0  0  0  0  0  0  0  0  0  0  0
   -7.4100   17.8890  -32.9950 C   0  0  0  0  0  0  0  0  0  0  0  0
   -8.3350   17.4870  -32.2410 O   0  0  0  0  0  0  0  0  0  0  0  0
   -6.9460   19.2370  -32.8760 N   0  0  0  0  0  0  0  0  0  0  0  0
   -5.7520   19.6480  -33.2890 N   0  0  0  0  0  0  0  0  0  0  0  0
   -5.6520   20.9760  -33.0240 C   0  0  0  0  0  0  0  0  0  0  0  0
   -4.5170   21.7710  -33.4170 N   0  0  0  0  0  0  0  0  0  0  0  0
   -3.4080   21.6060  -32.5040 C   0  0  0  0  0  0  0  0  0  0  0  0
   -2.6950   20.3750  -32.4300 C   0  0  0  0  0  0  0  0  0  0  0  0
   -1.6560   20.1990  -31.5000 C   0  0  0  0  0  0  0  0  0  0  0  0
   -1.3680   21.2510  -30.6350 C   0  0  0  0  0  0  0  0  0  0  0  0
   -0.4560   21.3310  -29.6060 C   0  0  0  0  0  0  0  0  0  0  0  0
   -0.6350   22.5980  -29.0510 C   0  0  0  0  0  0  0  0  0  0  0  0
    0.1860   23.1300  -27.9410 C   0  0  0  0  0  0  0  0  0  0  0  0
    0.9840   24.2990  -28.1150 N   0  0  0  0  0  0  0  0  0  0  0  0
    0.2090   22.5230  -26.8340 O   0  0  0  0  0  0  0  0  0  0  0  0
   -1.6190   23.2710  -29.7110 N   0  0  0  0  0  0  0  0  0  0  0  0
   -2.1680   24.5600  -29.4100 C   0  0  0  0  0  0  0  0  0  0  0  0
   -1.4270   25.4500  -28.9080 O   0  0  0  0  0  0  0  0  0  0  0  0
   -3.5280   24.8000  -29.6630 O   0  0  0  0  0  0  0  0  0  0  0  0
   -4.6270   24.3910  -28.8300 C   0  0  0  0  0  0  0  0  0  0  0  0
   -4.1730   24.5500  -27.3720 C   0  0  0  0  0  0  0  0  0  0  0  0
   -5.0010   22.9140  -29.0810 C   0  0  0  0  0  0  0  0  0  0  0  0
   -5.8420   25.3070  -29.0790 C   0  0  0  0  0  0  0  0  0  0  0  0
   -2.0560   22.4360  -30.6760 C   0  0  0  0  0  0  0  0  0  0  0  0
   -3.1000   22.6380  -31.5840 C   0  0  0  0  0  0  0  0  0  0  0  0
   -6.8300   21.4180  -32.4320 C   0  0  0  0  0  0  0  0  0  0  0  0
   -7.3100   22.6480  -31.9660 C   0  0  0  0  0  0  0  0  0  0  0  0
   -6.3490   24.1150  -31.9710 Cl  0  0  0  0  0  0  0  0  0  0  0  0
   -8.6170   22.6730  -31.4490 C   0  0  0  0  0  0  0  0  0  0  0  0
   -9.3880   21.4900  -31.4130 C   0  0  0  0  0  0  0  0  0  0  0  0
   -8.8690   20.3090  -31.8700 N   0  0  0  0  0  0  0  0  0  0  0  0
   -7.6050   20.2920  -32.3640 C   0  0  0  0  0  0  0  0  0  0  0  0
   -3.7481   17.4831  -34.0790 H   0  0  0  0  0  0  0  0  0  0  0  0
   -4.0389   16.2446  -35.3471 H   0  0  0  0  0  0  0  0  0  0  0  0
   -4.9876   17.7699  -35.3471 H   0  0  0  0  0  0  0  0  0  0  0  0
   -5.7915   14.2584  -33.2486 H   0  0  0  0  0  0  0  0  0  0  0  0
   -6.6487   14.7047  -34.7628 H   0  0  0  0  0  0  0  0  0  0  0  0
   -4.8618   14.5218  -34.7628 H   0  0  0  0  0  0  0  0  0  0  0  0
   -5.9919   16.2326  -31.6937 H   0  0  0  0  0  0  0  0  0  0  0  0
   -4.3220   15.7555  -32.1526 H   0  0  0  0  0  0  0  0  0  0  0  0
   -4.7930   17.4890  -32.1526 H   0  0  0  0  0  0  0  0  0  0  0  0
   -4.7900   22.7810  -33.4210 H   0  0  0  0  0  0  0  0  0  0  0  0
   -4.2480   21.5100  -34.3940 H   0  0  0  0  0  0  0  0  0  0  0  0
   -2.9610   19.5517  -33.1093 H   0  0  0  0  0  0  0  0  0  0  0  0
   -1.0875   19.2583  -31.4569 H   0  0  0  0  0  0  0  0  0  0  0  0
    0.2612   20.5595  -29.2892 H   0  0  0  0  0  0  0  0  0  0  0  0
    0.5500   25.2440  -28.1850 H   0  0  0  0  0  0  0  0  0  0  0  0
   -4.9941   24.2624  -26.6989 H   0  0  0  0  0  0  0  0  0  0  0  0
   -3.3029   23.9031  -27.1863 H   0  0  0  0  0  0  0  0  0  0  0  0
   -3.8967   25.5984  -27.1863 H   0  0  0  0  0  0  0  0  0  0  0  0
   -5.1312   22.3999  -28.1173 H   0  0  0  0  0  0  0  0  0  0  0  0
   -5.9398   22.8655  -29.6523 H   0  0  0  0  0  0  0  0  0  0  0  0
   -4.1985   22.4245  -29.6523 H   0  0  0  0  0  0  0  0  0  0  0  0
   -6.2647   25.6257  -28.1147 H   0  0  0  0  0  0  0  0  0  0  0  0
   -5.5234   26.1916  -29.6500 H   0  0  0  0  0  0  0  0  0  0  0  0
   -6.6048   24.7573  -29.6500 H   0  0  0  0  0  0  0  0  0  0  0  0
   -3.6702   23.5787  -31.5838 H   0  0  0  0  0  0  0  0  0  0  0  0
   -9.0401   23.6157  -31.0717 H   0  0  0  0  0  0  0  0  0  0  0  0
  -10.4130   21.5182  -31.0148 H   0  0  0  0  0  0  0  0  0  0  0  0
  1  2  1  0
  2  3  1  0
  2  4  1  0
  2  5  1  0
  5  6  1  0
  6  7  2  0
  6  8  1  0
  8  9  1  0
  9 10  2  0
 10 11  1  0
 11 12  1  0
 12 13  2  0
 13 14  1  0
 14 15  2  0
 15 16  1  0
 16 17  2  0
 17 18  1  0
 18 19  1  0
 18 20  2  0
 17 21  1  0
 21 22  1  0
 22 23  2  0
 22 24  1  0
 24 25  1  0
 25 26  1  0
 25 27  1  0
 25 28  1  0
 21 29  1  0
 29 30  2  0
 10 31  1  0
 31 32  2  0
 32 33  1  0
 32 34  1  0
 34 35  2  0
 35 36  1  0
 36 37  2  0
 37  8  1  0
 30 12  1  0
 37 31  1  0
 29 15  1  0
  1 38  1  0
  1 39  1  0
  1 40  1  0
  3 41  1  0
  3 42  1  0
  3 43  1  0
  4 44  1  0
  4 45  1  0
  4 46  1  0
 11 47  1  0
 11 48  1  0
 13 49  1  0
 14 50  1  0
 16 51  1  0
 19 52  1  0
 26 53  1  0
 26 54  1  0
 26 55  1  0
 27 56  1  0
 27 57  1  0
 27 58  1  0
 28 59  1  0
 28 60  1  0
 28 61  1  0
 30 62  1  0
 34 63  1  0
 35 64  1  0
M  CHG  2  11   1  19  -1
M  END
>  <UniqueID>  (74) 
74

>  <SMILES>  (74) 
CC(C)(C)OC(=O)n1nc([NH2+]c2ccc3cc(C([NH-])=O)n(C(=O)OC(C)(C)C)c3c2)c2c(Cl)ccnc21

>  <Energy>  (74) 
143.2038616549883

>  <Genealogy>  (74) 
CC(C)(C)OC(=O)n1nc([NH2+]c2ccc3cc(C([NH-])=O)n(C(=O)OC(C)(C)C)c3c2)c2c(Cl)ccnc21 (protonated)
CC(C)(C)OC(=O)n1nc([NH2+]c2ccc3cc(C([NH-])=O)n(C(=O)OC(C)(C)C)c3c2)c2c(Cl)ccnc21 (3D coordinates assigned)
CC(C)(C)OC(=O)n1nc([NH2+]c2ccc3cc(C([NH-])=O)n(C(=O)OC(C)(C)C)c3c2)c2c(Cl)ccnc21 (optimized conformer: 143.2038616549883 kcal/mol)

>  <smiles>  (74) 
CC(C)(C)OC(=O)n1nc(Nc2ccc3cc(C(N)=O)n(C(=O)OC(C)(C)C)c3c2)c2c(Cl)ccnc21

>  <score_type>  (74) 
oracle

>  <origin>  (74) 
adg

>  <m_score__min__energy>  (74) 
-11.06

>  <m_primary>  (74) 
energy

$$$$
74:0
     RDKit          3D

 45 47  0  0  0  0  0  0  0  0999 V2000
   -1.3040   25.9440  -28.7830 N   0  0  0  0  0  0  0  0  0  0  0  0
   -1.1080   24.5390  -28.6360 C   0  0  0  0  0  0  0  0  0  0  0  0
   -0.6030   24.0960  -27.5710 O   0  0  0  0  0  0  0  0  0  0  0  0
   -1.5410   23.5960  -29.6890 C   0  0  0  0  0  0  0  0  0  0  0  0
   -0.7310   22.5740  -30.1790 C   0  0  0  0  0  0  0  0  0  0  0  0
   -1.5190   21.8770  -31.0650 C   0  0  0  0  0  0  0  0  0  0  0  0
   -1.2130   20.7730  -31.8550 C   0  0  0  0  0  0  0  0  0  0  0  0
   -2.2120   20.2780  -32.7090 C   0  0  0  0  0  0  0  0  0  0  0  0
   -3.4920   20.8910  -32.7600 C   0  0  0  0  0  0  0  0  0  0  0  0
   -4.4940   20.4020  -33.6740 N   0  0  0  0  0  0  0  0  0  0  0  0
   -5.2590   19.3150  -33.0460 C   0  0  0  0  0  0  0  0  0  0  0  0
   -6.6090   19.8130  -32.5970 C   0  0  0  0  0  0  0  0  0  0  0  0
   -6.7980   21.1780  -32.3250 C   0  0  0  0  0  0  0  0  0  0  0  0
   -8.0380   21.6500  -31.8670 C   0  0  0  0  0  0  0  0  0  0  0  0
   -8.2460   23.1200  -31.6170 C   0  0  0  0  0  0  0  0  0  0  0  0
   -6.9030   23.8470  -31.5260 C   0  0  0  0  0  0  0  0  0  0  0  0
   -6.9380   24.8330  -30.4510 N   0  0  0  0  0  0  0  0  0  0  0  0
   -9.0990   20.7470  -31.6940 C   0  0  0  0  0  0  0  0  0  0  0  0
   -8.9120   19.3850  -31.9460 C   0  0  0  0  0  0  0  0  0  0  0  0
   -7.6720   18.9150  -32.3890 C   0  0  0  0  0  0  0  0  0  0  0  0
   -7.5090   17.5870  -32.6150 F   0  0  0  0  0  0  0  0  0  0  0  0
   -3.7580   22.0200  -31.9500 C   0  0  0  0  0  0  0  0  0  0  0  0
   -2.7500   22.4780  -31.0950 C   0  0  0  0  0  0  0  0  0  0  0  0
   -2.7800   23.5400  -30.2570 N   0  0  0  0  0  0  0  0  0  0  0  0
   -3.8710   24.4590  -30.0890 C   0  0  0  0  0  0  0  0  0  0  0  0
   -4.7770   24.2240  -29.2470 O   0  0  0  0  0  0  0  0  0  0  0  0
   -3.9230   25.6300  -30.8350 O   0  0  0  0  0  0  0  0  0  0  0  0
   -1.2120   26.4030  -29.7160 H   0  0  0  0  0  0  0  0  0  0  0  0
    0.3165   22.3681  -29.9136 H   0  0  0  0  0  0  0  0  0  0  0  0
   -0.2196   20.3027  -31.8119 H   0  0  0  0  0  0  0  0  0  0  0  0
   -2.0007   19.4060  -33.3453 H   0  0  0  0  0  0  0  0  0  0  0  0
   -5.1400   21.1820  -33.9390 H   0  0  0  0  0  0  0  0  0  0  0  0
   -4.0340   20.0520  -34.5470 H   0  0  0  0  0  0  0  0  0  0  0  0
   -5.3965   18.5015  -33.7735 H   0  0  0  0  0  0  0  0  0  0  0  0
   -4.7044   18.9489  -32.1694 H   0  0  0  0  0  0  0  0  0  0  0  0
   -5.9669   21.8833  -32.4722 H   0  0  0  0  0  0  0  0  0  0  0  0
   -8.8331   23.5475  -32.4432 H   0  0  0  0  0  0  0  0  0  0  0  0
   -8.7817   23.2450  -30.6644 H   0  0  0  0  0  0  0  0  0  0  0  0
   -6.1066   23.1158  -31.3232 H   0  0  0  0  0  0  0  0  0  0  0  0
   -6.7063   24.3603  -32.4788 H   0  0  0  0  0  0  0  0  0  0  0  0
   -6.0630   25.4050  -30.5030 H   0  0  0  0  0  0  0  0  0  0  0  0
   -6.8990   24.3160  -29.5440 H   0  0  0  0  0  0  0  0  0  0  0  0
  -10.0809   21.1127  -31.3590 H   0  0  0  0  0  0  0  0  0  0  0  0
   -9.7432   18.6805  -31.7953 H   0  0  0  0  0  0  0  0  0  0  0  0
   -4.7341   22.5256  -31.9915 H   0  0  0  0  0  0  0  0  0  0  0  0
  1  2  1  0
  2  3  2  0
  2  4  1  0
  4  5  2  0
  5  6  1  0
  6  7  2  0
  7  8  1  0
  8  9  2  0
  9 10  1  0
 10 11  1  0
 11 12  1  0
 12 13  2  0
 13 14  1  0
 14 15  1  0
 15 16  1  0
 16 17  1  0
 14 18  2  0
 18 19  1  0
 19 20  2  0
 20 21  1  0
  9 22  1  0
 22 23  2  0
 23 24  1  0
 24 25  1  0
 25 26  2  0
 25 27  1  0
 24  4  1  0
 23  6  1  0
 20 12  1  0
  1 28  1  0
  5 29  1  0
  7 30  1  0
  8 31  1  0
 10 32  1  0
 10 33  1  0
 11 34  1  0
 11 35  1  0
 13 36  1  0
 15 37  1  0
 15 38  1  0
 16 39  1  0
 16 40  1  0
 17 41  1  0
 17 42  1  0
 18 43  1  0
 19 44  1  0
 22 45  1  0
M  CHG  3   1  -1  10   1  27  -1
M  END
>  <UniqueID>  (75) 
75

>  <SMILES>  (75) 
[NH-]C(=O)c1cc2ccc([NH2+]Cc3cc(CCN)ccc3F)cc2n1C(=O)[O-]

>  <Energy>  (75) 
83.2879137564974

>  <Genealogy>  (75) 
[NH-]C(=O)c1cc2ccc([NH2+]Cc3cc(CCN)ccc3F)cc2n1C(=O)[O-] (protonated)
[NH-]C(=O)c1cc2ccc([NH2+]Cc3cc(CCN)ccc3F)cc2n1C(=O)[O-] (3D coordinates assigned)
[NH-]C(=O)c1cc2ccc([NH2+]Cc3cc(CCN)ccc3F)cc2n1C(=O)[O-] (optimized conformer: 83.2879137564974 kcal/mol)

>  <smiles>  (75) 
NCCc1ccc(F)c(CNc2ccc3cc(C(N)=O)n(C(=O)O)c3c2)c1

>  <score_type>  (75) 
oracle

>  <origin>  (75) 
adg

>  <m_score__min__energy>  (75) 
-11.470000000000001

>  <m_primary>  (75) 
energy

$$$$
75:0
     RDKit          3D

 47 50  0  0  0  0  0  0  0  0999 V2000
   -3.8800   25.6590  -30.8410 N   0  0  0  0  0  0  0  0  0  0  0  0
   -5.1960   25.2400  -30.4880 C   0  0  0  0  0  0  0  0  0  0  0  0
   -5.9260   26.0090  -29.8070 O   0  0  0  0  0  0  0  0  0  0  0  0
   -5.6750   23.9020  -30.8930 C   0  0  0  0  0  0  0  0  0  0  0  0
   -7.0210   23.5830  -31.0610 C   0  0  0  0  0  0  0  0  0  0  0  0
   -7.0340   22.2850  -31.5210 C   0  0  0  0  0  0  0  0  0  0  0  0
   -8.1060   21.4640  -31.8470 C   0  0  0  0  0  0  0  0  0  0  0  0
   -7.8290   20.1550  -32.2750 C   0  0  0  0  0  0  0  0  0  0  0  0
   -6.4900   19.6820  -32.3640 C   0  0  0  0  0  0  0  0  0  0  0  0
   -6.2140   18.3300  -32.7970 N   0  0  0  0  0  0  0  0  0  0  0  0
   -5.9730   17.2190  -31.8890 C   0  0  0  0  0  0  0  0  0  0  0  0
   -5.5480   16.0490  -32.7640 C   0  0  0  0  0  0  0  0  0  0  0  0
   -6.0020   16.4040  -34.1760 C   0  0  1  0  0  0  0  0  0  0  0  0
   -7.2320   15.8200  -34.4320 F   0  0  0  0  0  0  0  0  0  0  0  0
   -6.1370   17.9210  -34.1930 C   0  0  0  0  0  0  0  0  0  0  0  0
   -5.4290   20.5570  -32.0200 C   0  0  0  0  0  0  0  0  0  0  0  0
   -5.7360   21.8600  -31.6150 C   0  0  0  0  0  0  0  0  0  0  0  0
   -4.8890   22.8390  -31.2290 N   0  0  0  0  0  0  0  0  0  0  0  0
   -3.4580   22.7480  -31.1520 C   0  0  0  0  0  0  0  0  0  0  0  0
   -2.8560   23.1690  -30.1280 O   0  0  0  0  0  0  0  0  0  0  0  0
   -2.7220   22.1690  -32.2350 N   0  0  0  0  0  0  0  0  0  0  0  0
   -1.5590   21.3090  -32.0490 C   0  0  0  0  0  0  0  0  0  0  0  0
   -1.8060   19.9580  -32.6690 C   0  0  0  0  0  0  0  0  0  0  0  0
   -2.7730   19.8100  -33.6790 C   0  0  0  0  0  0  0  0  0  0  0  0
   -3.0240   18.5520  -34.2340 C   0  0  0  0  0  0  0  0  0  0  0  0
   -2.3180   17.4340  -33.7840 C   0  0  0  0  0  0  0  0  0  0  0  0
   -1.3580   17.5690  -32.7760 C   0  0  0  0  0  0  0  0  0  0  0  0
   -0.4820   16.1550  -32.2160 Cl  0  0  0  0  0  0  0  0  0  0  0  0
   -1.1020   18.8290  -32.2160 C   0  0  0  0  0  0  0  0  0  0  0  0
   -0.1740   18.9510  -31.2320 F   0  0  0  0  0  0  0  0  0  0  0  0
   -3.0450   25.2760  -30.3450 H   0  0  0  0  0  0  0  0  0  0  0  0
   -7.8889   24.2305  -30.8673 H   0  0  0  0  0  0  0  0  0  0  0  0
   -9.1413   21.8281  -31.7722 H   0  0  0  0  0  0  0  0  0  0  0  0
   -8.6593   19.4860  -32.5453 H   0  0  0  0  0  0  0  0  0  0  0  0
   -5.1745   17.4736  -31.1765 H   0  0  0  0  0  0  0  0  0  0  0  0
   -6.8700   16.9774  -31.2999 H   0  0  0  0  0  0  0  0  0  0  0  0
   -4.4557   15.9233  -32.7325 H   0  0  0  0  0  0  0  0  0  0  0  0
   -5.9916   15.1028  -32.4206 H   0  0  0  0  0  0  0  0  0  0  0  0
   -5.2934   16.0473  -34.9380 H   0  0  0  0  0  0  0  0  0  0  0  0
   -5.2616   18.3777  -34.6779 H   0  0  0  0  0  0  0  0  0  0  0  0
   -7.0250   18.2414  -34.7576 H   0  0  0  0  0  0  0  0  0  0  0  0
   -4.3839   20.2175  -32.0707 H   0  0  0  0  0  0  0  0  0  0  0  0
   -0.6837   21.7734  -32.5266 H   0  0  0  0  0  0  0  0  0  0  0  0
   -1.3757   21.1814  -30.9719 H   0  0  0  0  0  0  0  0  0  0  0  0
   -3.3339   20.6873  -34.0336 H   0  0  0  0  0  0  0  0  0  0  0  0
   -3.7789   18.4422  -35.0266 H   0  0  0  0  0  0  0  0  0  0  0  0
   -2.5174   16.4454  -34.2233 H   0  0  0  0  0  0  0  0  0  0  0  0
  1  2  1  0
  2  3  2  0
  2  4  1  0
  4  5  2  0
  5  6  1  0
  6  7  2  0
  7  8  1  0
  8  9  2  0
  9 10  1  0
 10 11  1  0
 11 12  1  0
 12 13  1  0
 13 14  1  0
 13 15  1  0
  9 16  1  0
 16 17  2  0
 17 18  1  0
 18 19  1  0
 19 20  2  0
 19 21  1  0
 21 22  1  0
 22 23  1  0
 23 24  2  0
 24 25  1  0
 25 26  2  0
 26 27  1  0
 27 28  1  0
 27 29  2  0
 29 30  1  0
 18  4  1  0
 29 23  1  0
 17  6  1  0
 15 10  1  0
  1 31  1  0
  5 32  1  0
  7 33  1  0
  8 34  1  0
 11 35  1  0
 11 36  1  0
 12 37  1  0
 12 38  1  0
 13 39  1  6
 15 40  1  0
 15 41  1  0
 16 42  1  0
 22 43  1  0
 22 44  1  0
 24 45  1  0
 25 46  1  0
 26 47  1  0
M  CHG  2   1  -1  21  -1
M  END
>  <UniqueID>  (76) 
76

>  <SMILES>  (76) 
[NH-]C(=O)c1cc2ccc(N3CC[C@@H](F)C3)cc2n1C(=O)[N-]Cc1cccc(Cl)c1F

>  <Energy>  (76) 
88.96084436571158

>  <Genealogy>  (76) 
[NH-]C(=O)c1cc2ccc(N3CCC(F)C3)cc2n1C(=O)[N-]Cc1cccc(Cl)c1F (protonated)
[NH-]C(=O)c1cc2ccc(N3CC[C@@H](F)C3)cc2n1C(=O)[N-]Cc1cccc(Cl)c1F (chirality)
[NH-]C(=O)c1cc2ccc(N3CC[C@@H](F)C3)cc2n1C(=O)[N-]Cc1cccc(Cl)c1F (3D coordinates assigned)
[NH-]C(=O)c1cc2ccc(N3CC[C@@H](F)C3)cc2n1C(=O)[N-]Cc1cccc(Cl)c1F (nonaromatic ring conformer: 88.96084436571158 kcal/mol)

>  <smiles>  (76) 
NC(=O)c1cc2ccc(N3CCC(F)C3)cc2n1C(=O)NCc1cccc(Cl)c1F

>  <score_type>  (76) 
oracle

>  <origin>  (76) 
adg

>  <m_score__min__energy>  (76) 
-12.550000000000001

>  <m_primary>  (76) 
energy

$$$$
76:0
     RDKit          3D

 72 77  0  0  0  0  0  0  0  0999 V2000
   -7.2470   19.5320  -33.0480 C   0  0  0  0  0  0  0  0  0  0  0  0
   -6.2140   18.4700  -33.2860 C   0  0  0  0  0  0  0  0  0  0  0  0
   -5.6160   18.3300  -34.5480 C   0  0  0  0  0  0  0  0  0  0  0  0
   -4.6830   17.3150  -34.7790 C   0  0  0  0  0  0  0  0  0  0  0  0
   -4.3510   16.4170  -33.7550 C   0  0  0  0  0  0  0  0  0  0  0  0
   -3.1810   15.1330  -34.0270 S   0  0  0  0  0  0  0  0  0  0  0  0
   -3.0890   14.8000  -35.4900 O   0  0  0  0  0  0  0  0  0  0  0  0
   -3.6150   13.9010  -33.2840 O   0  0  0  0  0  0  0  0  0  0  0  0
   -1.6280   15.6450  -33.4620 N   0  0  0  0  0  0  0  0  0  0  0  0
   -1.0000   15.2320  -32.3370 C   0  0  0  0  0  0  0  0  0  0  0  0
    0.2330   15.8710  -32.2180 C   0  0  0  0  0  0  0  0  0  0  0  0
    1.1860   15.7560  -31.0690 C   0  0  0  0  0  0  0  0  0  0  0  0
    0.8010   16.6820  -30.0100 N   0  0  0  0  0  0  0  0  0  0  0  0
    0.0110   17.7580  -30.1370 C   0  0  0  0  0  0  0  0  0  0  0  0
   -0.1310   18.2840  -28.8690 C   0  0  0  0  0  0  0  0  0  0  0  0
   -0.9100   19.4780  -28.4780 C   0  0  0  0  0  0  0  0  0  0  0  0
   -1.0840   19.8030  -27.1100 C   0  0  0  0  0  0  0  0  0  0  0  0
   -1.8080   20.9480  -26.7290 C   0  0  0  0  0  0  0  0  0  0  0  0
   -2.3440   21.7450  -27.7360 C   0  0  0  0  0  0  0  0  0  0  0  0
   -3.0970   22.8940  -27.6540 C   0  0  0  0  0  0  0  0  0  0  0  0
   -3.3700   23.2570  -28.9710 C   0  0  0  0  0  0  0  0  0  0  0  0
   -4.0920   24.4930  -29.3430 C   0  0  0  0  0  0  0  0  0  0  0  0
   -3.6190   25.2940  -30.4250 N   0  0  0  0  0  0  0  0  0  0  0  0
   -5.1380   24.8380  -28.7360 O   0  0  0  0  0  0  0  0  0  0  0  0
   -2.8130   22.3600  -29.8360 N   0  0  0  0  0  0  0  0  0  0  0  0
   -2.8990   22.3280  -31.2690 C   0  0  0  0  0  0  0  0  0  0  0  0
   -3.8310   22.9420  -31.8570 O   0  0  0  0  0  0  0  0  0  0  0  0
   -1.9690   21.5670  -31.9930 O   0  0  0  0  0  0  0  0  0  0  0  0
   -2.2650   20.5790  -32.9900 C   0  0  0  0  0  0  0  0  0  0  0  0
   -1.3150   20.8290  -34.1720 C   0  0  0  0  0  0  0  0  0  0  0  0
   -2.0060   19.1640  -32.4400 C   0  0  0  0  0  0  0  0  0  0  0  0
   -3.7190   20.7190  -33.4800 C   0  0  0  0  0  0  0  0  0  0  0  0
   -2.1850   21.4480  -29.0630 C   0  0  0  0  0  0  0  0  0  0  0  0
   -1.4850   20.3080  -29.4690 C   0  0  0  0  0  0  0  0  0  0  0  0
    0.5760   17.5120  -28.0150 N   0  0  0  0  0  0  0  0  0  0  0  0
    1.1230   16.5430  -28.7350 N   0  0  0  0  0  0  0  0  0  0  0  0
    0.3290   16.7150  -33.3110 C   0  0  0  0  0  0  0  0  0  0  0  0
    1.3080   17.6180  -33.7180 C   0  0  0  0  0  0  0  0  0  0  0  0
    1.0660   18.3490  -34.8940 C   0  0  0  0  0  0  0  0  0  0  0  0
   -0.1360   18.1490  -35.6110 C   0  0  0  0  0  0  0  0  0  0  0  0
   -1.0650   17.2480  -35.1720 N   0  0  0  0  0  0  0  0  0  0  0  0
   -0.8170   16.5470  -34.0380 C   0  0  0  0  0  0  0  0  0  0  0  0
   -4.9530   16.5480  -32.4960 C   0  0  0  0  0  0  0  0  0  0  0  0
   -5.8860   17.5640  -32.2650 C   0  0  0  0  0  0  0  0  0  0  0  0
   -7.3847   19.6736  -31.9659 H   0  0  0  0  0  0  0  0  0  0  0  0
   -6.9130   20.4767  -33.5018 H   0  0  0  0  0  0  0  0  0  0  0  0
   -8.2006   19.2242  -33.5018 H   0  0  0  0  0  0  0  0  0  0  0  0
   -5.8829   19.0227  -35.3597 H   0  0  0  0  0  0  0  0  0  0  0  0
   -4.2081   17.2207  -35.7667 H   0  0  0  0  0  0  0  0  0  0  0  0
   -1.4031   14.4999  -31.6218 H   0  0  0  0  0  0  0  0  0  0  0  0
    1.1652   14.7275  -30.6795 H   0  0  0  0  0  0  0  0  0  0  0  0
    2.2009   16.0025  -31.4143 H   0  0  0  0  0  0  0  0  0  0  0  0
   -0.4346   18.1441  -31.0657 H   0  0  0  0  0  0  0  0  0  0  0  0
   -0.6482   19.1530  -26.3370 H   0  0  0  0  0  0  0  0  0  0  0  0
   -1.9459   21.2050  -25.6684 H   0  0  0  0  0  0  0  0  0  0  0  0
   -3.4164   23.4163  -26.7401 H   0  0  0  0  0  0  0  0  0  0  0  0
   -3.0870   24.8690  -31.2180 H   0  0  0  0  0  0  0  0  0  0  0  0
   -0.3170   21.0916  -33.7911 H   0  0  0  0  0  0  0  0  0  0  0  0
   -1.2455   19.9186  -34.7854 H   0  0  0  0  0  0  0  0  0  0  0  0
   -1.7026   21.6557  -34.7854 H   0  0  0  0  0  0  0  0  0  0  0  0
   -2.0110   19.1914  -31.3404 H   0  0  0  0  0  0  0  0  0  0  0  0
   -2.7945   18.4832  -32.7934 H   0  0  0  0  0  0  0  0  0  0  0  0
   -1.0275   18.8067  -32.7934 H   0  0  0  0  0  0  0  0  0  0  0  0
   -4.3933   20.7839  -32.6134 H   0  0  0  0  0  0  0  0  0  0  0  0
   -3.8148   21.6305  -34.0882 H   0  0  0  0  0  0  0  0  0  0  0  0
   -3.9870   19.8425  -34.0882 H   0  0  0  0  0  0  0  0  0  0  0  0
   -1.3834   20.0616  -30.5362 H   0  0  0  0  0  0  0  0  0  0  0  0
    2.2349   17.7540  -33.1414 H   0  0  0  0  0  0  0  0  0  0  0  0
    1.8096   19.0745  -35.2554 H   0  0  0  0  0  0  0  0  0  0  0  0
   -0.3250   18.7234  -36.5299 H   0  0  0  0  0  0  0  0  0  0  0  0
   -4.6909   15.8498  -31.6874 H   0  0  0  0  0  0  0  0  0  0  0  0
   -6.3650   17.6536  -31.2788 H   0  0  0  0  0  0  0  0  0  0  0  0
  1  2  1  0
  2  3  2  0
  3  4  1  0
  4  5  2  0
  5  6  1  0
  6  7  2  0
  6  8  2  0
  6  9  1  0
  9 10  1  0
 10 11  2  0
 11 12  1  0
 12 13  1  0
 13 14  1  0
 14 15  2  0
 15 16  1  0
 16 17  2  0
 17 18  1  0
 18 19  2  0
 19 20  1  0
 20 21  2  0
 21 22  1  0
 22 23  1  0
 22 24  2  0
 21 25  1  0
 25 26  1  0
 26 27  2  0
 26 28  1  0
 28 29  1  0
 29 30  1  0
 29 31  1  0
 29 32  1  0
 25 33  1  0
 33 34  2  0
 15 35  1  0
 35 36  2  0
 11 37  1  0
 37 38  2  0
 38 39  1  0
 39 40  2  0
 40 41  1  0
 41 42  2  0
  5 43  1  0
 43 44  2  0
 44  2  1  0
 42  9  1  0
 36 13  1  0
 42 37  1  0
 34 16  1  0
 33 19  1  0
  1 45  1  0
  1 46  1  0
  1 47  1  0
  3 48  1  0
  4 49  1  0
 10 50  1  0
 12 51  1  0
 12 52  1  0
 14 53  1  0
 17 54  1  0
 18 55  1  0
 20 56  1  0
 23 57  1  0
 30 58  1  0
 30 59  1  0
 30 60  1  0
 31 61  1  0
 31 62  1  0
 31 63  1  0
 32 64  1  0
 32 65  1  0
 32 66  1  0
 34 67  1  0
 38 68  1  0
 39 69  1  0
 40 70  1  0
 43 71  1  0
 44 72  1  0
M  CHG  1  23  -1
M  END
>  <UniqueID>  (77) 
77

>  <SMILES>  (77) 
Cc1ccc(S(=O)(=O)n2cc(Cn3cc(-c4ccc5cc(C([NH-])=O)n(C(=O)OC(C)(C)C)c5c4)nn3)c3cccnc32)cc1

>  <Energy>  (77) 
182.7245184832357

>  <Genealogy>  (77) 
Cc1ccc(S(=O)(=O)n2cc(Cn3cc(-c4ccc5cc(C([NH-])=O)n(C(=O)OC(C)(C)C)c5c4)nn3)c3cccnc32)cc1 (protonated)
Cc1ccc(S(=O)(=O)n2cc(Cn3cc(-c4ccc5cc(C([NH-])=O)n(C(=O)OC(C)(C)C)c5c4)nn3)c3cccnc32)cc1 (3D coordinates assigned)
Cc1ccc(S(=O)(=O)n2cc(Cn3cc(-c4ccc5cc(C([NH-])=O)n(C(=O)OC(C)(C)C)c5c4)nn3)c3cccnc32)cc1 (optimized conformer: 182.7245184832357 kcal/mol)

>  <smiles>  (77) 
Cc1ccc(S(=O)(=O)n2cc(Cn3cc(-c4ccc5cc(C(N)=O)n(C(=O)OC(C)(C)C)c5c4)nn3)c3cccnc32)cc1

>  <score_type>  (77) 
oracle

>  <origin>  (77) 
adg

>  <m_score__min__energy>  (77) 
-13.06

>  <m_primary>  (77) 
energy

$$$$
77:0
     RDKit          3D

 44 46  0  0  0  0  0  0  0  0999 V2000
   -7.6330   22.3360  -30.1280 C   0  0  0  0  0  0  0  0  0  0  0  0
   -8.5510   22.6820  -31.2230 N   0  0  0  0  0  0  0  0  0  0  0  0
   -7.8460   23.4170  -32.2860 C   0  0  0  0  0  0  0  0  0  0  0  0
   -9.2870   21.5070  -31.7380 C   0  0  0  0  0  0  0  0  0  0  0  0
   -8.3920   20.3710  -32.1770 C   0  0  0  0  0  0  0  0  0  0  0  0
   -8.8420   19.0440  -32.1390 C   0  0  0  0  0  0  0  0  0  0  0  0
   -7.9920   18.0210  -32.5650 C   0  0  0  0  0  0  0  0  0  0  0  0
   -6.7110   18.3270  -33.0250 C   0  0  0  0  0  0  0  0  0  0  0  0
   -6.2850   19.6610  -33.0420 C   0  0  0  0  0  0  0  0  0  0  0  0
   -4.9830   19.9940  -33.5510 N   0  0  0  0  0  0  0  0  0  0  0  0
   -3.9340   20.5460  -32.7410 C   0  0  0  0  0  0  0  0  0  0  0  0
   -2.7020   19.8580  -32.6370 C   0  0  0  0  0  0  0  0  0  0  0  0
   -1.6550   20.3760  -31.8570 C   0  0  0  0  0  0  0  0  0  0  0  0
   -1.8780   21.5670  -31.1740 C   0  0  0  0  0  0  0  0  0  0  0  0
   -1.0310   22.3000  -30.3740 C   0  0  0  0  0  0  0  0  0  0  0  0
   -1.7800   23.3950  -29.9530 C   0  0  0  0  0  0  0  0  0  0  0  0
   -1.2680   24.4160  -29.0170 C   0  0  0  0  0  0  0  0  0  0  0  0
   -2.1100   25.4610  -28.5290 N   0  0  0  0  0  0  0  0  0  0  0  0
   -0.0820   24.3320  -28.6000 O   0  0  0  0  0  0  0  0  0  0  0  0
   -3.0360   23.3510  -30.4780 N   0  0  0  0  0  0  0  0  0  0  0  0
   -4.0630   24.3510  -30.3640 C   0  0  0  0  0  0  0  0  0  0  0  0
   -3.8710   25.5150  -30.8010 O   0  0  0  0  0  0  0  0  0  0  0  0
   -5.2780   24.0420  -29.7660 O   0  0  0  0  0  0  0  0  0  0  0  0
   -3.0800   22.2250  -31.2260 C   0  0  0  0  0  0  0  0  0  0  0  0
   -4.1320   21.7420  -32.0150 C   0  0  0  0  0  0  0  0  0  0  0  0
   -7.1360   20.6420  -32.6280 N   0  0  0  0  0  0  0  0  0  0  0  0
   -8.1268   22.5221  -29.1629 H   0  0  0  0  0  0  0  0  0  0  0  0
   -7.3594   21.2731  -30.2009 H   0  0  0  0  0  0  0  0  0  0  0  0
   -6.7259   22.9539  -30.2009 H   0  0  0  0  0  0  0  0  0  0  0  0
   -7.1520   24.1405  -31.8333 H   0  0  0  0  0  0  0  0  0  0  0  0
   -7.2814   22.7081  -32.9095 H   0  0  0  0  0  0  0  0  0  0  0  0
   -8.5778   23.9516  -32.9095 H   0  0  0  0  0  0  0  0  0  0  0  0
   -9.9511   21.1378  -30.9426 H   0  0  0  0  0  0  0  0  0  0  0  0
   -9.8409   21.8407  -32.6278 H   0  0  0  0  0  0  0  0  0  0  0  0
   -9.8543   18.8108  -31.7773 H   0  0  0  0  0  0  0  0  0  0  0  0
   -8.3322   16.9753  -32.5378 H   0  0  0  0  0  0  0  0  0  0  0  0
   -6.0407   17.5267  -33.3717 H   0  0  0  0  0  0  0  0  0  0  0  0
   -4.8210   19.9240  -34.5820 H   0  0  0  0  0  0  0  0  0  0  0  0
   -2.5627   18.9074  -33.1727 H   0  0  0  0  0  0  0  0  0  0  0  0
   -0.6883   19.8557  -31.7884 H   0  0  0  0  0  0  0  0  0  0  0  0
    0.0145   22.0696  -30.1214 H   0  0  0  0  0  0  0  0  0  0  0  0
   -3.1360   25.4610  -28.7210 H   0  0  0  0  0  0  0  0  0  0  0  0
   -1.7200   26.1960  -27.8990 H   0  0  0  0  0  0  0  0  0  0  0  0
   -5.0894   22.2810  -32.0681 H   0  0  0  0  0  0  0  0  0  0  0  0
  1  2  1  0
  2  3  1  0
  2  4  1  0
  4  5  1  0
  5  6  2  0
  6  7  1  0
  7  8  2  0
  8  9  1  0
  9 10  1  0
 10 11  1  0
 11 12  2  0
 12 13  1  0
 13 14  2  0
 14 15  1  0
 15 16  2  0
 16 17  1  0
 17 18  1  0
 17 19  2  0
 16 20  1  0
 20 21  1  0
 21 22  2  0
 21 23  1  0
 20 24  1  0
 24 25  2  0
  9 26  2  0
 26  5  1  0
 25 11  1  0
 24 14  1  0
  1 27  1  0
  1 28  1  0
  1 29  1  0
  3 30  1  0
  3 31  1  0
  3 32  1  0
  4 33  1  0
  4 34  1  0
  6 35  1  0
  7 36  1  0
  8 37  1  0
 10 38  1  0
 12 39  1  0
 13 40  1  0
 15 41  1  0
 18 42  1  0
 18 43  1  0
 25 44  1  0
M  CHG  1  23  -1
M  END
>  <UniqueID>  (78) 
78

>  <SMILES>  (78) 
CN(C)Cc1cccc(Nc2ccc3cc(C(N)=O)n(C(=O)[O-])c3c2)n1

>  <Energy>  (78) 
90.31643902969904

>  <Genealogy>  (78) 
CN(C)Cc1cccc(Nc2ccc3cc(C(N)=O)n(C(=O)[O-])c3c2)n1 (protonated)
CN(C)Cc1cccc(Nc2ccc3cc(C(N)=O)n(C(=O)[O-])c3c2)n1 (3D coordinates assigned)
CN(C)Cc1cccc(Nc2ccc3cc(C(N)=O)n(C(=O)[O-])c3c2)n1 (optimized conformer: 90.31643902969904 kcal/mol)

>  <smiles>  (78) 
CN(C)Cc1cccc(Nc2ccc3cc(C(N)=O)n(C(=O)O)c3c2)n1

>  <score_type>  (78) 
oracle

>  <origin>  (78) 
adg

>  <m_score__min__energy>  (78) 
-10.050000000000001

>  <m_primary>  (78) 
energy

$$$$
78:0
     RDKit          3D

 48 51  0  0  0  0  0  0  0  0999 V2000
   -0.8770   17.6460  -33.4910 C   0  0  0  0  0  0  0  0  0  0  0  0
   -0.3330   16.2260  -33.3570 C   0  0  0  0  0  0  0  0  0  0  0  0
   -0.9600   15.3340  -34.3580 N   0  0  0  0  0  0  0  0  0  0  0  0
   -1.8470   14.3350  -33.7270 C   0  0  0  0  0  0  0  0  0  0  0  0
   -3.1200   14.9890  -33.1760 C   0  0  0  0  0  0  0  0  0  0  0  0
   -3.7150   15.8960  -34.1630 N   0  0  0  0  0  0  0  0  0  0  0  0
   -4.9350   16.5850  -33.8260 C   0  0  0  0  0  0  0  0  0  0  0  0
   -4.9620   17.8610  -33.3800 N   0  0  0  0  0  0  0  0  0  0  0  0
   -6.2260   18.2980  -33.1180 C   0  0  0  0  0  0  0  0  0  0  0  0
   -6.4780   19.6730  -32.6140 C   0  0  0  0  0  0  0  0  0  0  0  0
   -7.8140   20.1400  -32.4940 C   0  0  0  0  0  0  0  0  0  0  0  0
   -8.0870   21.4380  -32.0300 C   0  0  0  0  0  0  0  0  0  0  0  0
   -7.0120   22.2470  -31.6830 C   0  0  0  0  0  0  0  0  0  0  0  0
   -6.9920   23.5450  -31.2300 C   0  0  0  0  0  0  0  0  0  0  0  0
   -5.6460   23.8540  -31.0500 C   0  0  0  0  0  0  0  0  0  0  0  0
   -5.1720   25.1400  -30.4960 C   0  0  0  0  0  0  0  0  0  0  0  0
   -3.8980   25.6520  -30.8810 N   0  0  0  0  0  0  0  0  0  0  0  0
   -5.8920   25.8090  -29.7100 O   0  0  0  0  0  0  0  0  0  0  0  0
   -4.8630   22.7880  -31.3820 N   0  0  0  0  0  0  0  0  0  0  0  0
   -3.4280   22.7190  -31.3900 C   0  0  0  0  0  0  0  0  0  0  0  0
   -2.6790   23.2220  -30.2860 N   0  0  0  0  0  0  0  0  0  0  0  0
   -2.8230   22.2070  -32.3690 O   0  0  0  0  0  0  0  0  0  0  0  0
   -5.7160   21.8120  -31.7680 C   0  0  0  0  0  0  0  0  0  0  0  0
   -5.4120   20.5310  -32.2450 C   0  0  0  0  0  0  0  0  0  0  0  0
   -7.2240   17.3460  -33.3550 C   0  0  0  0  0  0  0  0  0  0  0  0
   -6.4860   15.9390  -33.9050 S   0  0  0  0  0  0  0  0  0  0  0  0
   -3.1490   15.9500  -35.5170 C   0  0  0  0  0  0  0  0  0  0  0  0
   -1.6140   16.0880  -35.4640 C   0  0  0  0  0  0  0  0  0  0  0  0
   -1.0402   18.0721  -32.4901 H   0  0  0  0  0  0  0  0  0  0  0  0
   -0.1527   18.2659  -34.0397 H   0  0  0  0  0  0  0  0  0  0  0  0
   -1.8301   17.6233  -34.0397 H   0  0  0  0  0  0  0  0  0  0  0  0
    0.7555   16.2389  -33.5151 H   0  0  0  0  0  0  0  0  0  0  0  0
   -0.5655   15.8495  -32.3499 H   0  0  0  0  0  0  0  0  0  0  0  0
   -2.1275   13.5806  -34.4768 H   0  0  0  0  0  0  0  0  0  0  0  0
   -1.3057   13.8696  -32.8901 H   0  0  0  0  0  0  0  0  0  0  0  0
   -3.8479   14.2036  -32.9246 H   0  0  0  0  0  0  0  0  0  0  0  0
   -2.8555   15.5706  -32.2806 H   0  0  0  0  0  0  0  0  0  0  0  0
   -8.6470   19.4760  -32.7682 H   0  0  0  0  0  0  0  0  0  0  0  0
   -9.1212   21.8028  -31.9440 H   0  0  0  0  0  0  0  0  0  0  0  0
   -7.8563   24.2007  -31.0482 H   0  0  0  0  0  0  0  0  0  0  0  0
   -3.0210   25.3010  -30.4350 H   0  0  0  0  0  0  0  0  0  0  0  0
   -2.3660   24.2170  -30.2600 H   0  0  0  0  0  0  0  0  0  0  0  0
   -4.3673   20.1975  -32.3315 H   0  0  0  0  0  0  0  0  0  0  0  0
   -8.3041   17.4928  -33.2071 H   0  0  0  0  0  0  0  0  0  0  0  0
   -3.4097   15.0260  -36.0539 H   0  0  0  0  0  0  0  0  0  0  0  0
   -3.5639   16.8256  -36.0378 H   0  0  0  0  0  0  0  0  0  0  0  0
   -1.2039   15.7230  -36.4172 H   0  0  0  0  0  0  0  0  0  0  0  0
   -1.4034   17.1522  -35.2821 H   0  0  0  0  0  0  0  0  0  0  0  0
  1  2  1  0
  2  3  1  0
  3  4  1  0
  4  5  1  0
  5  6  1  0
  6  7  1  0
  7  8  2  0
  8  9  1  0
  9 10  1  0
 10 11  2  0
 11 12  1  0
 12 13  2  0
 13 14  1  0
 14 15  2  0
 15 16  1  0
 16 17  1  0
 16 18  2  0
 15 19  1  0
 19 20  1  0
 20 21  1  0
 20 22  2  0
 19 23  1  0
 23 24  2  0
  9 25  2  0
 25 26  1  0
  6 27  1  0
 27 28  1  0
 28  3  1  0
 26  7  1  0
 24 10  1  0
 23 13  1  0
  1 29  1  0
  1 30  1  0
  1 31  1  0
  2 32  1  0
  2 33  1  0
  4 34  1  0
  4 35  1  0
  5 36  1  0
  5 37  1  0
 11 38  1  0
 12 39  1  0
 14 40  1  0
 17 41  1  0
 21 42  1  0
 24 43  1  0
 25 44  1  0
 27 45  1  0
 27 46  1  0
 28 47  1  0
 28 48  1  0
M  CHG  2  17  -1  21  -1
M  END
>  <UniqueID>  (79) 
79

>  <SMILES>  (79) 
CCN1CCN(c2nc(-c3ccc4cc(C([NH-])=O)n(C([NH-])=O)c4c3)cs2)CC1

>  <Energy>  (79) 
128.51038531594938

>  <Genealogy>  (79) 
CCN1CCN(c2nc(-c3ccc4cc(C([NH-])=O)n(C([NH-])=O)c4c3)cs2)CC1 (protonated)
CCN1CCN(c2nc(-c3ccc4cc(C([NH-])=O)n(C([NH-])=O)c4c3)cs2)CC1 (3D coordinates assigned)
CCN1CCN(c2nc(-c3ccc4cc(C([NH-])=O)n(C([NH-])=O)c4c3)cs2)CC1 (nonaromatic ring conformer: 128.51038531594938 kcal/mol)

>  <smiles>  (79) 
CCN1CCN(c2nc(-c3ccc4cc(C(N)=O)n(C(N)=O)c4c3)cs2)CC1

>  <score_type>  (79) 
oracle

>  <origin>  (79) 
adg

>  <m_score__min__energy>  (79) 
-11.380000000000001

>  <m_primary>  (79) 
energy

$$$$
79:0
     RDKit          3D

 48 51  0  0  0  0  0  0  0  0999 V2000
   -6.4800   17.4340  -31.0350 C   0  0  0  0  0  0  0  0  0  0  0  0
   -5.4340   17.6110  -32.1480 C   0  0  1  0  0  0  0  0  0  0  0  0
   -5.2360   16.2670  -32.8780 C   0  0  0  0  0  0  0  0  0  0  0  0
   -4.4120   16.4230  -34.0160 O   0  0  0  0  0  0  0  0  0  0  0  0
   -5.0770   17.2260  -34.9680 C   0  0  0  0  0  0  0  0  0  0  0  0
   -5.2300   18.6550  -34.4490 C   0  0  0  0  0  0  0  0  0  0  0  0
   -5.8370   18.6550  -33.1130 N   0  0  0  0  0  0  0  0  0  0  0  0
   -6.4050   19.8970  -32.6620 C   0  0  0  0  0  0  0  0  0  0  0  0
   -7.7940   20.1500  -32.7970 C   0  0  0  0  0  0  0  0  0  0  0  0
   -8.3490   21.3580  -32.3430 C   0  0  0  0  0  0  0  0  0  0  0  0
   -7.4970   22.2830  -31.7450 C   0  0  0  0  0  0  0  0  0  0  0  0
   -7.7620   23.5310  -31.2270 C   0  0  0  0  0  0  0  0  0  0  0  0
   -6.5360   24.0070  -30.7600 C   0  0  0  0  0  0  0  0  0  0  0  0
   -6.3490   25.3020  -30.0650 C   0  0  0  0  0  0  0  0  0  0  0  0
   -5.3480   26.2270  -30.4950 N   0  0  0  0  0  0  0  0  0  0  0  0
   -7.0860   25.6070  -29.0910 O   0  0  0  0  0  0  0  0  0  0  0  0
   -5.5570   23.0830  -30.9740 N   0  0  0  0  0  0  0  0  0  0  0  0
   -4.1530   23.2150  -30.6910 C   0  0  0  0  0  0  0  0  0  0  0  0
   -3.5100   24.1660  -31.2110 O   0  0  0  0  0  0  0  0  0  0  0  0
   -3.4570   22.2480  -29.8070 C   0  0  0  0  0  0  0  0  0  0  0  0
   -2.5140   21.3510  -30.3390 C   0  0  0  0  0  0  0  0  0  0  0  0
   -1.8680   20.4290  -29.5100 C   0  0  0  0  0  0  0  0  0  0  0  0
   -2.1490   20.3980  -28.1410 C   0  0  0  0  0  0  0  0  0  0  0  0
   -1.3400   19.2380  -27.1050 Cl  0  0  0  0  0  0  0  0  0  0  0  0
   -3.0750   21.2940  -27.6010 C   0  0  0  0  0  0  0  0  0  0  0  0
   -3.7230   22.2180  -28.4260 C   0  0  0  0  0  0  0  0  0  0  0  0
   -6.1580   22.0400  -31.5870 C   0  0  0  0  0  0  0  0  0  0  0  0
   -5.5740   20.8590  -32.0520 C   0  0  0  0  0  0  0  0  0  0  0  0
   -5.9893   17.5170  -30.0540 H   0  0  0  0  0  0  0  0  0  0  0  0
   -7.2494   18.2147  -31.1274 H   0  0  0  0  0  0  0  0  0  0  0  0
   -6.9497   16.4436  -31.1274 H   0  0  0  0  0  0  0  0  0  0  0  0
   -4.4885   17.9321  -31.6865 H   0  0  0  0  0  0  0  0  0  0  0  0
   -4.7655   15.5499  -32.1893 H   0  0  0  0  0  0  0  0  0  0  0  0
   -6.2194   15.8993  -33.2062 H   0  0  0  0  0  0  0  0  0  0  0  0
   -4.4937   17.2400  -35.9005 H   0  0  0  0  0  0  0  0  0  0  0  0
   -6.0766   16.8054  -35.1523 H   0  0  0  0  0  0  0  0  0  0  0  0
   -4.2387   19.1289  -34.3961 H   0  0  0  0  0  0  0  0  0  0  0  0
   -5.8821   19.2147  -35.1357 H   0  0  0  0  0  0  0  0  0  0  0  0
   -8.4429   19.3930  -33.2617 H   0  0  0  0  0  0  0  0  0  0  0  0
   -9.4231   21.5667  -32.4563 H   0  0  0  0  0  0  0  0  0  0  0  0
   -8.7342   24.0442  -31.1893 H   0  0  0  0  0  0  0  0  0  0  0  0
   -4.6710   25.9870  -31.2520 H   0  0  0  0  0  0  0  0  0  0  0  0
   -5.2530   27.1510  -30.0180 H   0  0  0  0  0  0  0  0  0  0  0  0
   -2.2831   21.3748  -31.4142 H   0  0  0  0  0  0  0  0  0  0  0  0
   -1.1368   19.7263  -29.9361 H   0  0  0  0  0  0  0  0  0  0  0  0
   -3.2949   21.2723  -26.5234 H   0  0  0  0  0  0  0  0  0  0  0  0
   -4.4451   22.9257  -27.9927 H   0  0  0  0  0  0  0  0  0  0  0  0
   -4.4933   20.6841  -31.9449 H   0  0  0  0  0  0  0  0  0  0  0  0
  1  2  1  0
  2  3  1  0
  3  4  1  0
  4  5  1  0
  5  6  1  0
  6  7  1  0
  7  8  1  0
  8  9  2  0
  9 10  1  0
 10 11  2  0
 11 12  1  0
 12 13  2  0
 13 14  1  0
 14 15  1  0
 14 16  2  0
 13 17  1  0
 17 18  1  0
 18 19  2  0
 18 20  1  0
 20 21  2  0
 21 22  1  0
 22 23  2  0
 23 24  1  0
 23 25  1  0
 25 26  2  0
 17 27  1  0
 27 28  2  0
  7  2  1  0
 28  8  1  0
 27 11  1  0
 26 20  1  0
  1 29  1  0
  1 30  1  0
  1 31  1  0
  2 32  1  1
  3 33  1  0
  3 34  1  0
  5 35  1  0
  5 36  1  0
  6 37  1  0
  6 38  1  0
  9 39  1  0
 10 40  1  0
 12 41  1  0
 15 42  1  0
 15 43  1  0
 21 44  1  0
 22 45  1  0
 25 46  1  0
 26 47  1  0
 28 48  1  0
M  END
>  <UniqueID>  (80) 
80

>  <SMILES>  (80) 
C[C@H]1COCCN1c1ccc2cc(C(N)=O)n(C(=O)c3ccc(Cl)cc3)c2c1

>  <Energy>  (80) 
97.10855742949363

>  <Genealogy>  (80) 
C[C@H]1COCCN1c1ccc2cc(C(N)=O)n(C(=O)c3ccc(Cl)cc3)c2c1 (chirality)
C[C@H]1COCCN1c1ccc2cc(C(N)=O)n(C(=O)c3ccc(Cl)cc3)c2c1 (3D coordinates assigned)
C[C@H]1COCCN1c1ccc2cc(C(N)=O)n(C(=O)c3ccc(Cl)cc3)c2c1 (nonaromatic ring conformer: 97.10855742949363 kcal/mol)

>  <smiles>  (80) 
CC1COCCN1c1ccc2cc(C(N)=O)n(C(=O)c3ccc(Cl)cc3)c2c1

>  <score_type>  (80) 
oracle

>  <origin>  (80) 
adg

>  <m_score__min__energy>  (80) 
-10.35

>  <m_primary>  (80) 
energy

$$$$
80:0
     RDKit          3D

 35 37  0  0  0  0  0  0  0  0999 V2000
   -3.8970   25.6490  -30.8350 N   0  0  0  0  0  0  0  0  0  0  0  0
   -5.1770   25.1250  -30.4900 C   0  0  0  0  0  0  0  0  0  0  0  0
   -5.9140   25.7690  -29.6960 O   0  0  0  0  0  0  0  0  0  0  0  0
   -5.6280   23.8160  -31.0080 C   0  0  0  0  0  0  0  0  0  0  0  0
   -6.9700   23.4750  -31.1630 C   0  0  0  0  0  0  0  0  0  0  0  0
   -6.9670   22.1640  -31.5840 C   0  0  0  0  0  0  0  0  0  0  0  0
   -8.0300   21.3260  -31.9020 C   0  0  0  0  0  0  0  0  0  0  0  0
   -7.7350   20.0250  -32.3420 C   0  0  0  0  0  0  0  0  0  0  0  0
   -6.3900   19.5870  -32.4640 C   0  0  0  0  0  0  0  0  0  0  0  0
   -6.0890   18.2140  -32.9430 C   0  0  0  0  0  0  0  0  0  0  0  0
   -4.7620   17.7600  -33.0250 C   0  0  0  0  0  0  0  0  0  0  0  0
   -4.4780   16.4680  -33.4750 C   0  0  0  0  0  0  0  0  0  0  0  0
   -5.5180   15.5940  -33.8360 C   0  0  0  0  0  0  0  0  0  0  0  0
   -5.2100   14.2180  -34.3680 C   0  0  0  0  0  0  0  0  0  0  0  0
   -6.3310   13.6580  -34.9570 F   0  0  0  0  0  0  0  0  0  0  0  0
   -4.7980   13.4090  -33.3250 F   0  0  0  0  0  0  0  0  0  0  0  0
   -4.2060   14.2750  -35.3180 F   0  0  0  0  0  0  0  0  0  0  0  0
   -6.8440   16.0550  -33.7790 C   0  0  0  0  0  0  0  0  0  0  0  0
   -7.1270   17.3480  -33.3290 C   0  0  0  0  0  0  0  0  0  0  0  0
   -5.3380   20.4730  -32.1310 C   0  0  0  0  0  0  0  0  0  0  0  0
   -5.6620   21.7560  -31.6770 C   0  0  0  0  0  0  0  0  0  0  0  0
   -4.8260   22.7600  -31.3270 N   0  0  0  0  0  0  0  0  0  0  0  0
   -3.3910   22.7290  -31.3770 C   0  0  0  0  0  0  0  0  0  0  0  0
   -2.6230   23.2410  -30.2920 N   0  0  0  0  0  0  0  0  0  0  0  0
   -2.8050   22.2360  -32.3780 O   0  0  0  0  0  0  0  0  0  0  0  0
   -3.0310   25.3040  -30.3650 H   0  0  0  0  0  0  0  0  0  0  0  0
   -7.8458   24.1167  -30.9865 H   0  0  0  0  0  0  0  0  0  0  0  0
   -9.0705   21.6714  -31.8118 H   0  0  0  0  0  0  0  0  0  0  0  0
   -8.5556   19.3376  -32.5950 H   0  0  0  0  0  0  0  0  0  0  0  0
   -3.9387   18.4281  -32.7321 H   0  0  0  0  0  0  0  0  0  0  0  0
   -3.4329   16.1324  -33.5473 H   0  0  0  0  0  0  0  0  0  0  0  0
   -7.6657   15.3935  -34.0908 H   0  0  0  0  0  0  0  0  0  0  0  0
   -8.1709   17.6907  -33.2765 H   0  0  0  0  0  0  0  0  0  0  0  0
   -4.2880   20.1596  -32.2271 H   0  0  0  0  0  0  0  0  0  0  0  0
   -2.3260   24.2410  -30.2700 H   0  0  0  0  0  0  0  0  0  0  0  0
  1  2  1  0
  2  3  2  0
  2  4  1  0
  4  5  2  0
  5  6  1  0
  6  7  2  0
  7  8  1  0
  8  9  2  0
  9 10  1  0
 10 11  2  0
 11 12  1  0
 12 13  2  0
 13 14  1  0
 14 15  1  0
 14 16  1  0
 14 17  1  0
 13 18  1  0
 18 19  2  0
  9 20  1  0
 20 21  2  0
 21 22  1  0
 22 23  1  0
 23 24  1  0
 23 25  2  0
 22  4  1  0
 21  6  1  0
 19 10  1  0
  1 26  1  0
  5 27  1  0
  7 28  1  0
  8 29  1  0
 11 30  1  0
 12 31  1  0
 18 32  1  0
 19 33  1  0
 20 34  1  0
 24 35  1  0
M  CHG  2   1  -1  24  -1
M  END
>  <UniqueID>  (81) 
81

>  <SMILES>  (81) 
[NH-]C(=O)c1cc2ccc(-c3ccc(C(F)(F)F)cc3)cc2n1C([NH-])=O

>  <Energy>  (81) 
83.02626579450698

>  <Genealogy>  (81) 
[NH-]C(=O)c1cc2ccc(-c3ccc(C(F)(F)F)cc3)cc2n1C([NH-])=O (protonated)
[NH-]C(=O)c1cc2ccc(-c3ccc(C(F)(F)F)cc3)cc2n1C([NH-])=O (3D coordinates assigned)
[NH-]C(=O)c1cc2ccc(-c3ccc(C(F)(F)F)cc3)cc2n1C([NH-])=O (optimized conformer: 83.02626579450698 kcal/mol)

>  <smiles>  (81) 
NC(=O)c1cc2ccc(-c3ccc(C(F)(F)F)cc3)cc2n1C(N)=O

>  <score_type>  (81) 
oracle

>  <origin>  (81) 
adg

>  <m_score__min__energy>  (81) 
-10.48

>  <m_primary>  (81) 
energy

$$$$
81:0
     RDKit          3D

 74 79  0  0  0  0  0  0  0  0999 V2000
   -1.6360   21.9460  -30.6640 C   0  0  0  0  0  0  0  0  0  0  0  0
   -2.4170   22.8380  -29.7320 C   0  0  0  0  0  0  0  0  0  0  0  0
   -1.7770   23.2820  -28.5640 C   0  0  0  0  0  0  0  0  0  0  0  0
   -2.4190   24.1420  -27.6680 C   0  0  0  0  0  0  0  0  0  0  0  0
   -1.7100   24.6390  -26.4570 C   0  0  0  0  0  0  0  0  0  0  0  0
   -0.7590   23.8310  -25.8010 C   0  0  0  0  0  0  0  0  0  0  0  0
   -0.0970   24.2980  -24.6620 C   0  0  0  0  0  0  0  0  0  0  0  0
   -0.3710   25.5740  -24.1640 C   0  0  0  0  0  0  0  0  0  0  0  0
   -1.3120   26.3850  -24.8030 C   0  0  0  0  0  0  0  0  0  0  0  0
   -1.9780   25.9230  -25.9430 C   0  0  0  0  0  0  0  0  0  0  0  0
   -3.7280   24.5530  -27.9460 C   0  0  0  0  0  0  0  0  0  0  0  0
   -4.3950   24.1330  -29.1070 C   0  0  0  0  0  0  0  0  0  0  0  0
   -5.7820   24.6730  -29.3510 C   0  0  0  0  0  0  0  0  0  0  0  0
   -3.7570   23.2300  -30.0020 C   0  0  0  0  0  0  0  0  0  0  0  0
   -4.5790   22.6610  -31.4860 S   0  0  0  0  0  0  0  0  0  0  0  0
   -3.6110   22.3310  -32.5870 O   0  0  0  0  0  0  0  0  0  0  0  0
   -5.4980   23.7260  -32.0170 O   0  0  0  0  0  0  0  0  0  0  0  0
   -5.5120   21.2570  -31.1020 N   0  0  0  0  0  0  0  0  0  0  0  0
   -6.8810   21.1450  -31.4920 C   0  0  0  0  0  0  0  0  0  0  0  0
   -7.7950   22.1060  -31.0400 C   0  0  0  0  0  0  0  0  0  0  0  0
   -9.1360   22.0390  -31.4190 C   0  0  0  0  0  0  0  0  0  0  0  0
   -9.5750   21.0110  -32.2540 C   0  0  0  0  0  0  0  0  0  0  0  0
   -8.6740   20.0470  -32.7150 C   0  0  0  0  0  0  0  0  0  0  0  0
   -7.3180   20.0980  -32.3390 C   0  0  0  0  0  0  0  0  0  0  0  0
   -6.3790   19.0750  -32.8670 C   0  0  0  0  0  0  0  0  0  0  0  0
   -6.8560   17.7850  -33.2150 C   0  0  0  0  0  0  0  0  0  0  0  0
   -5.9940   16.8280  -33.7700 C   0  0  0  0  0  0  0  0  0  0  0  0
   -4.6610   17.1780  -33.9560 C   0  0  0  0  0  0  0  0  0  0  0  0
   -3.6520   16.4870  -34.5810 C   0  0  0  0  0  0  0  0  0  0  0  0
   -2.5510   17.3390  -34.5550 C   0  0  0  0  0  0  0  0  0  0  0  0
   -1.2570   16.9980  -35.1870 C   0  0  0  0  0  0  0  0  0  0  0  0
   -0.4360   17.9920  -35.8050 N   0  0  0  0  0  0  0  0  0  0  0  0
   -0.8480   15.8080  -35.1440 O   0  0  0  0  0  0  0  0  0  0  0  0
   -2.8600   18.5100  -33.9260 N   0  0  0  0  0  0  0  0  0  0  0  0
   -2.0300   19.6840  -33.8110 C   0  0  0  0  0  0  0  0  0  0  0  0
   -2.4670   20.7910  -34.2290 O   0  0  0  0  0  0  0  0  0  0  0  0
   -0.7050   19.6440  -33.1390 C   0  0  0  0  0  0  0  0  0  0  0  0
   -0.6080   18.9360  -31.9280 C   0  0  0  0  0  0  0  0  0  0  0  0
    0.6300   18.7370  -31.3140 C   0  0  0  0  0  0  0  0  0  0  0  0
    1.7890   19.2390  -31.9000 C   0  0  0  0  0  0  0  0  0  0  0  0
    1.7140   19.9650  -33.0880 C   0  0  0  0  0  0  0  0  0  0  0  0
    0.4760   20.1980  -33.7130 C   0  0  0  0  0  0  0  0  0  0  0  0
    0.4660   21.0390  -34.9310 C   0  0  0  0  0  0  0  0  0  0  0  0
    0.6260   22.2850  -34.8530 O   0  0  0  0  0  0  0  0  0  0  0  0
    0.3440   20.4490  -36.1840 O   0  0  0  0  0  0  0  0  0  0  0  0
   -4.1670   18.4020  -33.5840 C   0  0  0  0  0  0  0  0  0  0  0  0
   -5.0110   19.3810  -33.0430 C   0  0  0  0  0  0  0  0  0  0  0  0
   -1.0239   21.2469  -30.0753 H   0  0  0  0  0  0  0  0  0  0  0  0
   -2.3329   21.3786  -31.2983 H   0  0  0  0  0  0  0  0  0  0  0  0
   -0.9815   22.5619  -31.2983 H   0  0  0  0  0  0  0  0  0  0  0  0
   -0.7514   22.9470  -28.3498 H   0  0  0  0  0  0  0  0  0  0  0  0
   -0.5364   22.8258  -26.1883 H   0  0  0  0  0  0  0  0  0  0  0  0
    0.6418   23.6589  -24.1564 H   0  0  0  0  0  0  0  0  0  0  0  0
    0.1539   25.9400  -23.2692 H   0  0  0  0  0  0  0  0  0  0  0  0
   -1.5296   27.3887  -24.4090 H   0  0  0  0  0  0  0  0  0  0  0  0
   -2.7168   26.5673  -26.4421 H   0  0  0  0  0  0  0  0  0  0  0  0
   -4.2446   25.2192  -27.2395 H   0  0  0  0  0  0  0  0  0  0  0  0
   -6.2755   24.8651  -28.3869 H   0  0  0  0  0  0  0  0  0  0  0  0
   -5.7152   25.6108  -29.9220 H   0  0  0  0  0  0  0  0  0  0  0  0
   -6.3669   23.9369  -29.9220 H   0  0  0  0  0  0  0  0  0  0  0  0
   -7.4530   22.9185  -30.3821 H   0  0  0  0  0  0  0  0  0  0  0  0
   -9.8475   22.7969  -31.0594 H   0  0  0  0  0  0  0  0  0  0  0  0
  -10.6331   20.9591  -32.5503 H   0  0  0  0  0  0  0  0  0  0  0  0
   -9.0270   19.2423  -33.3767 H   0  0  0  0  0  0  0  0  0  0  0  0
   -7.9135   17.5326  -33.0477 H   0  0  0  0  0  0  0  0  0  0  0  0
   -6.3615   15.8297  -34.0500 H   0  0  0  0  0  0  0  0  0  0  0  0
   -3.7028   15.4757  -35.0107 H   0  0  0  0  0  0  0  0  0  0  0  0
    0.4460   17.7120  -36.2880 H   0  0  0  0  0  0  0  0  0  0  0  0
   -0.6570   19.0080  -35.7280 H   0  0  0  0  0  0  0  0  0  0  0  0
   -1.5182   18.5342  -31.4589 H   0  0  0  0  0  0  0  0  0  0  0  0
    0.6899   18.1827  -30.3657 H   0  0  0  0  0  0  0  0  0  0  0  0
    2.7653   19.0626  -31.4250 H   0  0  0  0  0  0  0  0  0  0  0  0
    2.6346   20.3604  -33.5420 H   0  0  0  0  0  0  0  0  0  0  0  0
   -4.6163   20.3682  -32.7609 H   0  0  0  0  0  0  0  0  0  0  0  0
  1  2  1  0
  2  3  2  0
  3  4  1  0
  4  5  1  0
  5  6  2  0
  6  7  1  0
  7  8  2  0
  8  9  1  0
  9 10  2  0
  4 11  2  0
 11 12  1  0
 12 13  1  0
 12 14  2  0
 14 15  1  0
 15 16  2  0
 15 17  2  0
 15 18  1  0
 18 19  1  0
 19 20  2  0
 20 21  1  0
 21 22  2  0
 22 23  1  0
 23 24  2  0
 24 25  1  0
 25 26  2  0
 26 27  1  0
 27 28  2  0
 28 29  1  0
 29 30  2  0
 30 31  1  0
 31 32  1  0
 31 33  2  0
 30 34  1  0
 34 35  1  0
 35 36  2  0
 35 37  1  0
 37 38  2  0
 38 39  1  0
 39 40  2  0
 40 41  1  0
 41 42  2  0
 42 43  1  0
 43 44  2  0
 43 45  1  0
 34 46  1  0
 46 47  2  0
 14  2  1  0
 24 19  1  0
 47 25  1  0
 10  5  1  0
 46 28  1  0
 42 37  1  0
  1 48  1  0
  1 49  1  0
  1 50  1  0
  3 51  1  0
  6 52  1  0
  7 53  1  0
  8 54  1  0
  9 55  1  0
 10 56  1  0
 11 57  1  0
 13 58  1  0
 13 59  1  0
 13 60  1  0
 20 61  1  0
 21 62  1  0
 22 63  1  0
 23 64  1  0
 26 65  1  0
 27 66  1  0
 29 67  1  0
 32 68  1  0
 32 69  1  0
 38 70  1  0
 39 71  1  0
 40 72  1  0
 41 73  1  0
 47 74  1  0
M  CHG  2  18  -1  45  -1
M  END
>  <UniqueID>  (82) 
82

>  <SMILES>  (82) 
Cc1cc(-c2ccccc2)cc(C)c1S(=O)(=O)[N-]c1ccccc1-c1ccc2cc(C(N)=O)n(C(=O)c3ccccc3C(=O)[O-])c2c1

>  <Energy>  (82) 
146.8634127140546

>  <Genealogy>  (82) 
Cc1cc(-c2ccccc2)cc(C)c1S(=O)(=O)[N-]c1ccccc1-c1ccc2cc(C(N)=O)n(C(=O)c3ccccc3C(=O)[O-])c2c1 (protonated)
Cc1cc(-c2ccccc2)cc(C)c1S(=O)(=O)[N-]c1ccccc1-c1ccc2cc(C(N)=O)n(C(=O)c3ccccc3C(=O)[O-])c2c1 (3D coordinates assigned)
Cc1cc(-c2ccccc2)cc(C)c1S(=O)(=O)[N-]c1ccccc1-c1ccc2cc(C(N)=O)n(C(=O)c3ccccc3C(=O)[O-])c2c1 (optimized conformer: 146.8634127140546 kcal/mol)

>  <smiles>  (82) 
Cc1cc(-c2ccccc2)cc(C)c1S(=O)(=O)Nc1ccccc1-c1ccc2cc(C(N)=O)n(C(=O)c3ccccc3C(=O)O)c2c1

>  <score_type>  (82) 
oracle

>  <origin>  (82) 
adg

>  <m_score__min__energy>  (82) 
-14.85

>  <m_primary>  (82) 
energy

$$$$
82:0
     RDKit          3D

 54 57  0  0  0  0  0  0  0  0999 V2000
   -3.8520   25.0080  -30.8450 N   0  0  0  0  0  0  0  0  0  0  0  0
   -4.6670   24.2480  -29.9540 C   0  0  0  0  0  0  0  0  0  0  0  0
   -4.4290   24.2840  -28.7180 O   0  0  0  0  0  0  0  0  0  0  0  0
   -5.7540   23.4040  -30.4910 C   0  0  0  0  0  0  0  0  0  0  0  0
   -7.0920   23.7940  -30.5150 C   0  0  0  0  0  0  0  0  0  0  0  0
   -7.7590   22.7720  -31.1550 C   0  0  0  0  0  0  0  0  0  0  0  0
   -9.1130   22.6270  -31.4440 C   0  0  0  0  0  0  0  0  0  0  0  0
   -9.5260   21.4490  -32.0890 C   0  0  0  0  0  0  0  0  0  0  0  0
   -8.5870   20.4450  -32.4240 C   0  0  0  0  0  0  0  0  0  0  0  0
   -9.0210   19.2450  -33.0680 N   0  0  0  0  0  0  0  0  0  0  0  0
   -7.2220   20.6250  -32.1160 C   0  0  0  0  0  0  0  0  0  0  0  0
   -6.8360   21.8160  -31.4900 C   0  0  0  0  0  0  0  0  0  0  0  0
   -5.6010   22.1890  -31.0900 N   0  0  0  0  0  0  0  0  0  0  0  0
   -4.3970   21.4180  -31.2290 C   0  0  0  0  0  0  0  0  0  0  0  0
   -4.3740   20.2190  -30.8420 O   0  0  0  0  0  0  0  0  0  0  0  0
   -3.2180   22.0270  -31.7770 N   0  0  0  0  0  0  0  0  0  0  0  0
   -2.0750   21.2960  -32.2510 C   0  0  0  0  0  0  0  0  0  0  0  0
   -2.1800   20.3640  -33.2990 C   0  0  0  0  0  0  0  0  0  0  0  0
   -1.0460   19.6910  -33.7610 C   0  0  0  0  0  0  0  0  0  0  0  0
    0.2130   19.9560  -33.2100 C   0  0  0  0  0  0  0  0  0  0  0  0
    1.3490   19.2360  -33.7050 N   0  0  0  0  0  0  0  0  0  0  0  0
    2.5070   19.8090  -34.3290 C   0  0  0  0  0  0  0  0  0  0  0  0
    3.5220   20.0890  -33.6330 O   0  0  0  0  0  0  0  0  0  0  0  0
    2.4880   20.1940  -35.7940 C   0  0  0  0  0  0  0  0  0  0  0  0
    1.0690   20.0440  -36.4130 C   0  0  0  0  0  0  0  0  0  0  0  0
    0.2560   21.3540  -36.4580 C   0  0  0  0  0  0  0  0  0  0  0  0
    0.6700   22.3270  -35.3520 C   0  0  0  0  0  0  0  0  0  0  0  0
    2.1500   22.7320  -35.4860 C   0  0  0  0  0  0  0  0  0  0  0  0
    3.0470   21.6100  -36.0540 C   0  0  0  0  0  0  0  0  0  0  0  0
    0.3190   20.8820  -32.1580 C   0  0  0  0  0  0  0  0  0  0  0  0
   -0.8140   21.5560  -31.6940 C   0  0  0  0  0  0  0  0  0  0  0  0
   -2.8850   25.2940  -30.5740 H   0  0  0  0  0  0  0  0  0  0  0  0
   -7.5238   24.7208  -30.1092 H   0  0  0  0  0  0  0  0  0  0  0  0
   -9.8371   23.4104  -31.1757 H   0  0  0  0  0  0  0  0  0  0  0  0
  -10.5884   21.3061  -32.3356 H   0  0  0  0  0  0  0  0  0  0  0  0
   -8.8550   18.3130  -32.6290 H   0  0  0  0  0  0  0  0  0  0  0  0
   -9.5150   19.2820  -33.9870 H   0  0  0  0  0  0  0  0  0  0  0  0
   -6.4808   19.8501  -32.3613 H   0  0  0  0  0  0  0  0  0  0  0  0
   -3.1660   23.0710  -31.7640 H   0  0  0  0  0  0  0  0  0  0  0  0
   -3.1598   20.1639  -33.7573 H   0  0  0  0  0  0  0  0  0  0  0  0
   -1.1436   18.9464  -34.5648 H   0  0  0  0  0  0  0  0  0  0  0  0
    3.1620   19.4844  -36.2962 H   0  0  0  0  0  0  0  0  0  0  0  0
    1.1794   19.6712  -37.4420 H   0  0  0  0  0  0  0  0  0  0  0  0
    0.5137   19.3500  -35.7649 H   0  0  0  0  0  0  0  0  0  0  0  0
    0.4155   21.8370  -37.4333 H   0  0  0  0  0  0  0  0  0  0  0  0
   -0.8036   21.1003  -36.3066 H   0  0  0  0  0  0  0  0  0  0  0  0
    0.0445   23.2296  -35.4165 H   0  0  0  0  0  0  0  0  0  0  0  0
    0.5340   21.8270  -34.3817 H   0  0  0  0  0  0  0  0  0  0  0  0
    2.2136   23.6016  -36.1566 H   0  0  0  0  0  0  0  0  0  0  0  0
    2.5165   22.9579  -34.4738 H   0  0  0  0  0  0  0  0  0  0  0  0
    3.1418   21.7544  -37.1403 H   0  0  0  0  0  0  0  0  0  0  0  0
    4.0182   21.6772  -35.5420 H   0  0  0  0  0  0  0  0  0  0  0  0
    1.2987   21.0772  -31.6975 H   0  0  0  0  0  0  0  0  0  0  0  0
   -0.7162   22.2959  -30.8860 H   0  0  0  0  0  0  0  0  0  0  0  0
  1  2  1  0
  2  3  2  0
  2  4  1  0
  4  5  2  0
  5  6  1  0
  6  7  2  0
  7  8  1  0
  8  9  2  0
  9 10  1  0
  9 11  1  0
 11 12  2  0
 12 13  1  0
 13 14  1  0
 14 15  2  0
 14 16  1  0
 16 17  1  0
 17 18  2  0
 18 19  1  0
 19 20  2  0
 20 21  1  0
 21 22  1  0
 22 23  2  0
 22 24  1  0
 24 25  1  0
 25 26  1  0
 26 27  1  0
 27 28  1  0
 28 29  1  0
 20 30  1  0
 30 31  2  0
 13  4  1  0
 31 17  1  0
 12  6  1  0
 29 24  1  0
  1 32  1  0
  5 33  1  0
  7 34  1  0
  8 35  1  0
 10 36  1  0
 10 37  1  0
 11 38  1  0
 16 39  1  0
 18 40  1  0
 19 41  1  0
 24 42  1  0
 25 43  1  0
 25 44  1  0
 26 45  1  0
 26 46  1  0
 27 47  1  0
 27 48  1  0
 28 49  1  0
 28 50  1  0
 29 51  1  0
 29 52  1  0
 30 53  1  0
 31 54  1  0
M  CHG  2   1  -1  21  -1
M  END
>  <UniqueID>  (83) 
83

>  <SMILES>  (83) 
[NH-]C(=O)c1cc2ccc(N)cc2n1C(=O)Nc1ccc([N-]C(=O)C2CCCCC2)cc1

>  <Energy>  (83) 
105.98203783443962

>  <Genealogy>  (83) 
[NH-]C(=O)c1cc2ccc(N)cc2n1C(=O)Nc1ccc([N-]C(=O)C2CCCCC2)cc1 (protonated)
[NH-]C(=O)c1cc2ccc(N)cc2n1C(=O)Nc1ccc([N-]C(=O)C2CCCCC2)cc1 (3D coordinates assigned)
[NH-]C(=O)c1cc2ccc(N)cc2n1C(=O)Nc1ccc([N-]C(=O)C2CCCCC2)cc1 (nonaromatic ring conformer: 105.98203783443962 kcal/mol)

>  <smiles>  (83) 
NC(=O)c1cc2ccc(N)cc2n1C(=O)Nc1ccc(NC(=O)C2CCCCC2)cc1

>  <score_type>  (83) 
oracle

>  <origin>  (83) 
adg

>  <m_score__min__energy>  (83) 
-11.66

>  <m_primary>  (83) 
energy

$$$$
83:0
     RDKit          3D

 49 53  0  0  0  0  0  0  0  0999 V2000
    0.4130   18.9300  -31.1820 N   0  0  0  0  0  0  0  0  0  0  0  0
   -0.3480   19.2480  -30.0160 C   0  0  0  0  0  0  0  0  0  0  0  0
   -0.4850   18.3810  -29.1130 O   0  0  0  0  0  0  0  0  0  0  0  0
   -1.0280   20.5520  -29.8800 C   0  0  0  0  0  0  0  0  0  0  0  0
   -0.9610   21.3310  -28.7290 C   0  0  0  0  0  0  0  0  0  0  0  0
   -1.7600   22.4220  -28.9830 C   0  0  0  0  0  0  0  0  0  0  0  0
   -2.0410   23.5270  -28.1860 C   0  0  0  0  0  0  0  0  0  0  0  0
   -2.8680   24.5300  -28.7180 C   0  0  0  0  0  0  0  0  0  0  0  0
   -3.3860   24.4140  -30.0290 C   0  0  0  0  0  0  0  0  0  0  0  0
   -4.2150   25.4500  -30.5630 N   0  0  0  0  0  0  0  0  0  0  0  0
   -3.0790   23.2820  -30.8120 C   0  0  0  0  0  0  0  0  0  0  0  0
   -2.2690   22.2850  -30.2510 C   0  0  0  0  0  0  0  0  0  0  0  0
   -1.8260   21.1380  -30.8170 N   0  0  0  0  0  0  0  0  0  0  0  0
   -2.0340   20.7040  -32.1720 C   0  0  0  0  0  0  0  0  0  0  0  0
   -1.6840   19.5460  -32.5300 O   0  0  0  0  0  0  0  0  0  0  0  0
   -2.6260   21.5720  -33.0920 O   0  0  0  0  0  0  0  0  0  0  0  0
   -4.0090   21.5270  -33.4250 C   0  0  0  0  0  0  0  0  0  0  0  0
   -4.7900   20.8470  -32.2950 C   0  0  0  0  0  0  0  0  0  0  0  0
   -6.0860   21.5670  -32.0230 C   0  0  0  0  0  0  0  0  0  0  0  0
   -6.2610   22.8720  -31.5560 C   0  0  0  0  0  0  0  0  0  0  0  0
   -7.5680   23.3490  -31.3600 C   0  0  0  0  0  0  0  0  0  0  0  0
   -8.6770   22.5190  -31.6230 C   0  0  0  0  0  0  0  0  0  0  0  0
   -8.4860   21.2060  -32.0820 C   0  0  0  0  0  0  0  0  0  0  0  0
   -7.1790   20.7570  -32.2740 C   0  0  0  0  0  0  0  0  0  0  0  0
   -6.6970   19.4610  -32.6990 C   0  0  0  0  0  0  0  0  0  0  0  0
   -7.4080   18.3050  -33.0230 C   0  0  0  0  0  0  0  0  0  0  0  0
   -6.6830   17.1510  -33.3590 C   0  0  0  0  0  0  0  0  0  0  0  0
   -5.2750   17.1690  -33.3520 C   0  0  0  0  0  0  0  0  0  0  0  0
   -4.5800   18.3430  -33.0160 C   0  0  0  0  0  0  0  0  0  0  0  0
   -5.3130   19.4920  -32.7040 C   0  0  0  0  0  0  0  0  0  0  0  0
    0.9260   18.0210  -31.2420 H   0  0  0  0  0  0  0  0  0  0  0  0
    0.4170   19.5620  -32.0130 H   0  0  0  0  0  0  0  0  0  0  0  0
   -0.3911   21.1198  -27.8121 H   0  0  0  0  0  0  0  0  0  0  0  0
   -1.6281   23.6127  -27.1700 H   0  0  0  0  0  0  0  0  0  0  0  0
   -3.1148   25.4129  -28.1101 H   0  0  0  0  0  0  0  0  0  0  0  0
   -4.2060   25.6700  -31.5840 H   0  0  0  0  0  0  0  0  0  0  0  0
   -4.8440   26.0050  -29.9410 H   0  0  0  0  0  0  0  0  0  0  0  0
   -3.4655   23.1839  -31.8372 H   0  0  0  0  0  0  0  0  0  0  0  0
   -4.3851   22.5512  -33.5647 H   0  0  0  0  0  0  0  0  0  0  0  0
   -4.1415   20.9551  -34.3552 H   0  0  0  0  0  0  0  0  0  0  0  0
   -4.0818   20.8233  -31.4537 H   0  0  0  0  0  0  0  0  0  0  0  0
   -5.3925   23.5136  -31.3458 H   0  0  0  0  0  0  0  0  0  0  0  0
   -7.7269   24.3759  -30.9993 H   0  0  0  0  0  0  0  0  0  0  0  0
   -9.6965   22.9019  -31.4679 H   0  0  0  0  0  0  0  0  0  0  0  0
   -9.3442   20.5485  -32.2849 H   0  0  0  0  0  0  0  0  0  0  0  0
   -8.5080   18.2982  -33.0153 H   0  0  0  0  0  0  0  0  0  0  0  0
   -7.2173   16.2282  -33.6291 H   0  0  0  0  0  0  0  0  0  0  0  0
   -4.7156   16.2580  -33.6113 H   0  0  0  0  0  0  0  0  0  0  0  0
   -3.4802   18.3578  -32.9987 H   0  0  0  0  0  0  0  0  0  0  0  0
  1  2  1  0
  2  3  2  0
  2  4  1  0
  4  5  2  0
  5  6  1  0
  6  7  2  0
  7  8  1  0
  8  9  2  0
  9 10  1  0
  9 11  1  0
 11 12  2  0
 12 13  1  0
 13 14  1  0
 14 15  2  0
 14 16  1  0
 16 17  1  0
 17 18  1  0
 18 19  1  0
 19 20  2  0
 20 21  1  0
 21 22  2  0
 22 23  1  0
 23 24  2  0
 24 25  1  0
 25 26  2  0
 26 27  1  0
 27 28  2  0
 28 29  1  0
 29 30  2  0
 13  4  1  0
 30 18  1  0
 12  6  1  0
 24 19  1  0
 30 25  1  0
  1 31  1  0
  1 32  1  0
  5 33  1  0
  7 34  1  0
  8 35  1  0
 10 36  1  0
 10 37  1  0
 11 38  1  0
 17 39  1  0
 17 40  1  0
 18 41  1  0
 20 42  1  0
 21 43  1  0
 22 44  1  0
 23 45  1  0
 26 46  1  0
 27 47  1  0
 28 48  1  0
 29 49  1  0
M  END
>  <UniqueID>  (84) 
84

>  <SMILES>  (84) 
NC(=O)c1cc2ccc(N)cc2n1C(=O)OCC1c2ccccc2-c2ccccc21

>  <Energy>  (84) 
111.71440116347017

>  <Genealogy>  (84) 
NC(=O)c1cc2ccc(N)cc2n1C(=O)OCC1c2ccccc2-c2ccccc21 (3D coordinates assigned)
NC(=O)c1cc2ccc(N)cc2n1C(=O)OCC1c2ccccc2-c2ccccc21 (nonaromatic ring conformer: 111.71440116347017 kcal/mol)

>  <smiles>  (84) 
NC(=O)c1cc2ccc(N)cc2n1C(=O)OCC1c2ccccc2-c2ccccc21

>  <score_type>  (84) 
oracle

>  <origin>  (84) 
adg

>  <m_score__min__energy>  (84) 
-10.35

>  <m_primary>  (84) 
energy

$$$$
84:0
     RDKit          3D

 48 50  0  0  0  0  0  0  0  0999 V2000
   -6.5630   23.8270  -31.8460 C   0  0  0  0  0  0  0  0  0  0  0  0
   -6.4720   23.8420  -30.3090 C   0  0  0  0  0  0  0  0  0  0  0  0
   -6.9170   25.2060  -29.7480 C   0  0  0  0  0  0  0  0  0  0  0  0
   -7.3940   22.7510  -29.7440 C   0  0  0  0  0  0  0  0  0  0  0  0
   -5.1390   23.5340  -29.8780 O   0  0  0  0  0  0  0  0  0  0  0  0
   -3.9480   23.9910  -30.4600 C   0  0  0  0  0  0  0  0  0  0  0  0
   -3.8090   25.2010  -30.7820 O   0  0  0  0  0  0  0  0  0  0  0  0
   -2.8590   23.0730  -30.6470 N   0  0  0  0  0  0  0  0  0  0  0  0
   -1.6300   23.0910  -30.0570 C   0  0  0  0  0  0  0  0  0  0  0  0
   -1.0910   24.1740  -29.2080 C   0  0  0  0  0  0  0  0  0  0  0  0
   -1.6000   25.5000  -29.3430 N   0  0  0  0  0  0  0  0  0  0  0  0
   -0.2120   23.9360  -28.3390 O   0  0  0  0  0  0  0  0  0  0  0  0
   -0.8960   21.9650  -30.4240 C   0  0  0  0  0  0  0  0  0  0  0  0
   -1.7180   21.2520  -31.2690 C   0  0  0  0  0  0  0  0  0  0  0  0
   -1.5030   20.0400  -31.9180 C   0  0  0  0  0  0  0  0  0  0  0  0
   -2.5450   19.5190  -32.7050 C   0  0  0  0  0  0  0  0  0  0  0  0
   -3.7790   20.2060  -32.8150 C   0  0  0  0  0  0  0  0  0  0  0  0
   -4.8810   19.6480  -33.6830 C   0  0  0  0  0  0  0  0  0  0  0  0
   -6.1160   19.4560  -32.9150 N   0  0  0  0  0  0  0  0  0  0  0  0
   -7.0560   20.3970  -32.7130 C   0  0  0  0  0  0  0  0  0  0  0  0
   -8.0180   19.8750  -31.8820 C   0  0  0  0  0  0  0  0  0  0  0  0
   -7.6910   18.6100  -31.5530 N   0  0  0  0  0  0  0  0  0  0  0  0
   -6.5250   18.3810  -32.1960 C   0  0  0  0  0  0  0  0  0  0  0  0
   -5.8060   17.0920  -32.0860 C   0  0  0  0  0  0  0  0  0  0  0  0
   -5.7490   16.4030  -30.8350 N   0  0  0  0  0  0  0  0  0  0  0  0
   -5.2440   16.5820  -33.0900 O   0  0  0  0  0  0  0  0  0  0  0  0
   -3.9510   21.4440  -32.1560 C   0  0  0  0  0  0  0  0  0  0  0  0
   -2.8940   21.9440  -31.3880 C   0  0  0  0  0  0  0  0  0  0  0  0
   -7.6061   23.6551  -32.1499 H   0  0  0  0  0  0  0  0  0  0  0  0
   -6.2200   24.7938  -32.2431 H   0  0  0  0  0  0  0  0  0  0  0  0
   -5.9279   23.0214  -32.2431 H   0  0  0  0  0  0  0  0  0  0  0  0
   -6.9058   25.1716  -28.6486 H   0  0  0  0  0  0  0  0  0  0  0  0
   -6.2276   25.9887  -30.0974 H   0  0  0  0  0  0  0  0  0  0  0  0
   -7.9353   25.4316  -30.0974 H   0  0  0  0  0  0  0  0  0  0  0  0
   -7.3679   22.7819  -28.6447 H   0  0  0  0  0  0  0  0  0  0  0  0
   -8.4232   22.9246  -30.0913 H   0  0  0  0  0  0  0  0  0  0  0  0
   -7.0512   21.7652  -30.0913 H   0  0  0  0  0  0  0  0  0  0  0  0
   -2.6280   25.6820  -29.3410 H   0  0  0  0  0  0  0  0  0  0  0  0
    0.1236   21.7012  -30.1064 H   0  0  0  0  0  0  0  0  0  0  0  0
   -0.5467   19.5057  -31.8183 H   0  0  0  0  0  0  0  0  0  0  0  0
   -2.4007   18.5690  -33.2404 H   0  0  0  0  0  0  0  0  0  0  0  0
   -5.0770   20.3483  -34.5083 H   0  0  0  0  0  0  0  0  0  0  0  0
   -4.5573   18.6712  -34.0716 H   0  0  0  0  0  0  0  0  0  0  0  0
   -7.0548   21.4108  -33.1400 H   0  0  0  0  0  0  0  0  0  0  0  0
   -8.9168   20.4080  -31.5383 H   0  0  0  0  0  0  0  0  0  0  0  0
   -5.2450   15.4910  -30.7630 H   0  0  0  0  0  0  0  0  0  0  0  0
   -6.1990   16.7950  -29.9790 H   0  0  0  0  0  0  0  0  0  0  0  0
   -4.8948   22.0021  -32.2448 H   0  0  0  0  0  0  0  0  0  0  0  0
  1  2  1  0
  2  3  1  0
  2  4  1  0
  2  5  1  0
  5  6  1  0
  6  7  2  0
  6  8  1  0
  8  9  1  0
  9 10  1  0
 10 11  1  0
 10 12  2  0
  9 13  2  0
 13 14  1  0
 14 15  2  0
 15 16  1  0
 16 17  2  0
 17 18  1  0
 18 19  1  0
 19 20  1  0
 20 21  2  0
 21 22  1  0
 22 23  2  0
 23 24  1  0
 24 25  1  0
 24 26  2  0
 17 27  1  0
 27 28  2  0
 28  8  1  0
 28 14  1  0
 23 19  1  0
  1 29  1  0
  1 30  1  0
  1 31  1  0
  3 32  1  0
  3 33  1  0
  3 34  1  0
  4 35  1  0
  4 36  1  0
  4 37  1  0
 11 38  1  0
 13 39  1  0
 15 40  1  0
 16 41  1  0
 18 42  1  0
 18 43  1  0
 20 44  1  0
 21 45  1  0
 25 46  1  0
 25 47  1  0
 27 48  1  0
M  CHG  1  11  -1
M  END
>  <UniqueID>  (85) 
85

>  <SMILES>  (85) 
CC(C)(C)OC(=O)n1c(C([NH-])=O)cc2ccc(Cn3ccnc3C(N)=O)cc21

>  <Energy>  (85) 
110.69893544206006

>  <Genealogy>  (85) 
CC(C)(C)OC(=O)n1c(C([NH-])=O)cc2ccc(Cn3ccnc3C(N)=O)cc21 (protonated)
CC(C)(C)OC(=O)n1c(C([NH-])=O)cc2ccc(Cn3ccnc3C(N)=O)cc21 (3D coordinates assigned)
CC(C)(C)OC(=O)n1c(C([NH-])=O)cc2ccc(Cn3ccnc3C(N)=O)cc21 (optimized conformer: 110.69893544206006 kcal/mol)

>  <smiles>  (85) 
CC(C)(C)OC(=O)n1c(C(N)=O)cc2ccc(Cn3ccnc3C(N)=O)cc21

>  <score_type>  (85) 
oracle

>  <origin>  (85) 
adg

>  <m_score__min__energy>  (85) 
-11.550000000000001

>  <m_primary>  (85) 
energy

$$$$
85:0
     RDKit          3D

 50 52  0  0  0  0  0  0  0  0999 V2000
   -3.7110   21.9980  -33.1800 C   0  0  0  0  0  0  0  0  0  0  0  0
   -2.8840   20.9510  -32.4200 C   0  0  0  0  0  0  0  0  0  0  0  0
   -2.4920   21.5300  -31.0470 C   0  0  0  0  0  0  0  0  0  0  0  0
   -1.6290   20.6140  -33.2460 C   0  0  0  0  0  0  0  0  0  0  0  0
   -3.7120   19.7910  -32.2620 O   0  0  0  0  0  0  0  0  0  0  0  0
   -4.5570   19.2330  -33.2350 C   0  0  0  0  0  0  0  0  0  0  0  0
   -4.1240   18.9540  -34.3850 O   0  0  0  0  0  0  0  0  0  0  0  0
   -5.9390   19.0010  -32.9190 N   0  0  0  0  0  0  0  0  0  0  0  0
   -6.6300   17.8300  -33.0160 C   0  0  0  0  0  0  0  0  0  0  0  0
   -6.1320   16.5780  -33.6220 C   0  0  0  0  0  0  0  0  0  0  0  0
   -4.7580   16.2240  -33.4880 N   0  0  0  0  0  0  0  0  0  0  0  0
   -6.9140   15.7980  -34.2260 O   0  0  0  0  0  0  0  0  0  0  0  0
   -7.9270   17.9870  -32.5300 C   0  0  0  0  0  0  0  0  0  0  0  0
   -8.0120   19.3020  -32.1350 C   0  0  0  0  0  0  0  0  0  0  0  0
   -9.0710   19.9970  -31.5570 C   0  0  0  0  0  0  0  0  0  0  0  0
   -8.8660   21.3430  -31.2140 C   0  0  0  0  0  0  0  0  0  0  0  0
   -7.6170   21.9680  -31.4560 C   0  0  0  0  0  0  0  0  0  0  0  0
   -7.3940   23.3960  -31.0370 C   0  0  0  0  0  0  0  0  0  0  0  0
   -5.9730   23.8440  -31.3900 C   0  0  0  0  0  0  0  0  0  0  0  0
   -5.0590   23.6980  -30.2000 C   0  0  0  0  0  0  0  0  0  0  0  0
   -5.2840   22.6680  -29.2710 C   0  0  0  0  0  0  0  0  0  0  0  0
   -4.4630   22.5400  -28.1470 C   0  0  0  0  0  0  0  0  0  0  0  0
   -3.4190   23.4430  -27.9340 C   0  0  0  0  0  0  0  0  0  0  0  0
   -3.1970   24.4800  -28.8440 C   0  0  0  0  0  0  0  0  0  0  0  0
   -4.0140   24.6160  -29.9720 C   0  0  0  0  0  0  0  0  0  0  0  0
   -3.7840   25.6640  -30.8560 O   0  0  0  0  0  0  0  0  0  0  0  0
   -6.5620   21.2290  -32.0330 C   0  0  0  0  0  0  0  0  0  0  0  0
   -6.7990   19.8930  -32.3800 C   0  0  0  0  0  0  0  0  0  0  0  0
   -4.2267   22.6508  -32.4603 H   0  0  0  0  0  0  0  0  0  0  0  0
   -3.0446   22.6033  -33.8121 H   0  0  0  0  0  0  0  0  0  0  0  0
   -4.4542   21.4899  -33.8121 H   0  0  0  0  0  0  0  0  0  0  0  0
   -2.9168   20.9025  -30.2496 H   0  0  0  0  0  0  0  0  0  0  0  0
   -1.3959   21.5469  -30.9556 H   0  0  0  0  0  0  0  0  0  0  0  0
   -2.8834   22.5539  -30.9556 H   0  0  0  0  0  0  0  0  0  0  0  0
   -0.7928   20.3895  -32.5675 H   0  0  0  0  0  0  0  0  0  0  0  0
   -1.8317   19.7385  -33.8803 H   0  0  0  0  0  0  0  0  0  0  0  0
   -1.3659   21.4733  -33.8803 H   0  0  0  0  0  0  0  0  0  0  0  0
   -4.0030   16.9220  -33.6700 H   0  0  0  0  0  0  0  0  0  0  0  0
   -8.7153   17.2218  -32.4742 H   0  0  0  0  0  0  0  0  0  0  0  0
  -10.0386   19.5066  -31.3747 H   0  0  0  0  0  0  0  0  0  0  0  0
   -9.6826   21.9181  -30.7530 H   0  0  0  0  0  0  0  0  0  0  0  0
   -8.1167   24.0425  -31.5564 H   0  0  0  0  0  0  0  0  0  0  0  0
   -7.5303   23.4722  -29.9481 H   0  0  0  0  0  0  0  0  0  0  0  0
   -5.5932   23.2242  -32.2156 H   0  0  0  0  0  0  0  0  0  0  0  0
   -5.9991   24.9022  -31.6891 H   0  0  0  0  0  0  0  0  0  0  0  0
   -6.1101   21.9591  -29.4291 H   0  0  0  0  0  0  0  0  0  0  0  0
   -4.6396   21.7261  -27.4284 H   0  0  0  0  0  0  0  0  0  0  0  0
   -2.7720   23.3380  -27.0506 H   0  0  0  0  0  0  0  0  0  0  0  0
   -2.3765   25.1924  -28.6729 H   0  0  0  0  0  0  0  0  0  0  0  0
   -5.5786   21.6906  -32.2058 H   0  0  0  0  0  0  0  0  0  0  0  0
  1  2  1  0
  2  3  1  0
  2  4  1  0
  2  5  1  0
  5  6  1  0
  6  7  2  0
  6  8  1  0
  8  9  1  0
  9 10  1  0
 10 11  1  0
 10 12  2  0
  9 13  2  0
 13 14  1  0
 14 15  2  0
 15 16  1  0
 16 17  2  0
 17 18  1  0
 18 19  1  0
 19 20  1  0
 20 21  2  0
 21 22  1  0
 22 23  2  0
 23 24  1  0
 24 25  2  0
 25 26  1  0
 17 27  1  0
 27 28  2  0
 28  8  1  0
 28 14  1  0
 25 20  1  0
  1 29  1  0
  1 30  1  0
  1 31  1  0
  3 32  1  0
  3 33  1  0
  3 34  1  0
  4 35  1  0
  4 36  1  0
  4 37  1  0
 11 38  1  0
 13 39  1  0
 15 40  1  0
 16 41  1  0
 18 42  1  0
 18 43  1  0
 19 44  1  0
 19 45  1  0
 21 46  1  0
 22 47  1  0
 23 48  1  0
 24 49  1  0
 27 50  1  0
M  CHG  2  11  -1  26  -1
M  END
>  <UniqueID>  (86) 
86

>  <SMILES>  (86) 
CC(C)(C)OC(=O)n1c(C([NH-])=O)cc2ccc(CCc3ccccc3[O-])cc21

>  <Energy>  (86) 
83.18831464873026

>  <Genealogy>  (86) 
CC(C)(C)OC(=O)n1c(C([NH-])=O)cc2ccc(CCc3ccccc3[O-])cc21 (protonated)
CC(C)(C)OC(=O)n1c(C([NH-])=O)cc2ccc(CCc3ccccc3[O-])cc21 (3D coordinates assigned)
CC(C)(C)OC(=O)n1c(C([NH-])=O)cc2ccc(CCc3ccccc3[O-])cc21 (optimized conformer: 83.18831464873026 kcal/mol)

>  <smiles>  (86) 
CC(C)(C)OC(=O)n1c(C(N)=O)cc2ccc(CCc3ccccc3O)cc21

>  <score_type>  (86) 
oracle

>  <origin>  (86) 
adg

>  <m_score__min__energy>  (86) 
-11.99

>  <m_primary>  (86) 
energy

$$$$
