0:0
     RDKit          3D

 45 47  0  0  0  0  0  0  0  0999 V2000
    0.9770   22.5250  -27.1890 C   0  0  0  0  0  0  0  0  0  0  0  0
   -0.0910   23.4410  -27.6870 C   0  0  0  0  0  0  0  0  0  0  0  0
    0.1200   24.6510  -28.1520 O   0  0  0  0  0  0  0  0  0  0  0  0
   -1.0610   25.1190  -28.4830 C   0  0  0  0  0  0  0  0  0  0  0  0
   -1.2470   26.2650  -28.9690 O   0  0  0  0  0  0  0  0  0  0  0  0
   -2.0280   24.2620  -28.2510 O   0  0  0  0  0  0  0  0  0  0  0  0
   -1.4520   23.1960  -27.7480 C   0  0  0  0  0  0  0  0  0  0  0  0
   -2.1840   21.9580  -27.3270 C   0  0  0  0  0  0  0  0  0  0  0  0
   -3.3410   21.7710  -28.1370 O   0  0  0  0  0  0  0  0  0  0  0  0
   -3.2810   21.4320  -29.4960 C   0  0  0  0  0  0  0  0  0  0  0  0
   -3.4920   20.2400  -29.8620 O   0  0  0  0  0  0  0  0  0  0  0  0
   -2.9650   22.4510  -30.4670 N   0  0  1  0  0  0  0  0  0  0  0  0
   -1.6170   22.2450  -31.0140 C   0  0  0  0  0  0  0  0  0  0  0  0
   -3.9360   22.4710  -31.5370 C   0  0  0  0  0  0  0  0  0  0  0  0
   -3.5750   22.2960  -32.7350 O   0  0  0  0  0  0  0  0  0  0  0  0
   -5.2950   22.8430  -31.2660 N   0  0  0  0  0  0  0  0  0  0  0  0
   -5.7780   24.0670  -30.9140 C   0  0  0  0  0  0  0  0  0  0  0  0
   -4.9600   25.2550  -30.6010 C   0  0  0  0  0  0  0  0  0  0  0  0
   -3.5460   25.2090  -30.7660 N   0  0  0  0  0  0  0  0  0  0  0  0
   -5.5030   26.3220  -30.2120 O   0  0  0  0  0  0  0  0  0  0  0  0
   -7.1690   24.0330  -30.8220 C   0  0  0  0  0  0  0  0  0  0  0  0
   -7.5230   22.7380  -31.1270 C   0  0  0  0  0  0  0  0  0  0  0  0
   -8.7790   22.1420  -31.1990 C   0  0  0  0  0  0  0  0  0  0  0  0
   -8.8440   20.7850  -31.5610 C   0  0  0  0  0  0  0  0  0  0  0  0
   -7.6620   20.0550  -31.8470 C   0  0  0  0  0  0  0  0  0  0  0  0
   -7.7370   18.6090  -32.2440 C   0  0  0  0  0  0  0  0  0  0  0  0
   -7.1470   18.4340  -33.4820 F   0  0  0  0  0  0  0  0  0  0  0  0
   -9.0610   18.2120  -32.3090 F   0  0  0  0  0  0  0  0  0  0  0  0
   -6.4060   20.6940  -31.7630 C   0  0  0  0  0  0  0  0  0  0  0  0
   -6.3730   22.0400  -31.3900 C   0  0  0  0  0  0  0  0  0  0  0  0
    0.9767   22.5253  -26.0890 H   0  0  0  0  0  0  0  0  0  0  0  0
    0.7860   21.5056  -27.5555 H   0  0  0  0  0  0  0  0  0  0  0  0
    1.9554   22.8691  -27.5555 H   0  0  0  0  0  0  0  0  0  0  0  0
   -1.5196   21.0882  -27.4362 H   0  0  0  0  0  0  0  0  0  0  0  0
   -2.4943   22.0641  -26.2770 H   0  0  0  0  0  0  0  0  0  0  0  0
   -2.9740   23.3790  -29.9840 H   0  0  0  0  0  0  0  0  0  0  0  0
   -0.8989   22.1353  -30.1880 H   0  0  0  0  0  0  0  0  0  0  0  0
   -1.6071   21.3349  -31.6318 H   0  0  0  0  0  0  0  0  0  0  0  0
   -1.3358   23.1106  -31.6318 H   0  0  0  0  0  0  0  0  0  0  0  0
   -2.9070   25.2830  -29.9440 H   0  0  0  0  0  0  0  0  0  0  0  0
   -7.8406   24.8642  -30.5612 H   0  0  0  0  0  0  0  0  0  0  0  0
   -9.6921   22.7148  -30.9795 H   0  0  0  0  0  0  0  0  0  0  0  0
   -9.8215   20.2843  -31.6231 H   0  0  0  0  0  0  0  0  0  0  0  0
   -7.2068   18.0021  -31.4953 H   0  0  0  0  0  0  0  0  0  0  0  0
   -5.4780   20.1467  -31.9853 H   0  0  0  0  0  0  0  0  0  0  0  0
  1  2  1  0
  2  3  1  0
  3  4  1  0
  4  5  2  0
  4  6  1  0
  6  7  1  0
  7  8  1  0
  8  9  1  0
  9 10  1  0
 10 11  2  0
 10 12  1  0
 12 13  1  0
 12 14  1  0
 14 15  2  0
 14 16  1  0
 16 17  1  0
 17 18  1  0
 18 19  1  0
 18 20  2  0
 17 21  2  0
 21 22  1  0
 22 23  2  0
 23 24  1  0
 24 25  2  0
 25 26  1  0
 26 27  1  0
 26 28  1  0
 25 29  1  0
 29 30  2  0
  7  2  2  0
 30 16  1  0
 30 22  1  0
  1 31  1  0
  1 32  1  0
  1 33  1  0
  8 34  1  0
  8 35  1  0
 12 36  1  1
 13 37  1  0
 13 38  1  0
 13 39  1  0
 19 40  1  0
 21 41  1  0
 23 42  1  0
 24 43  1  0
 26 44  1  0
 29 45  1  0
M  CHG  2  12   1  19  -1
M  END
>  <UniqueID>  (1) 
1

>  <SMILES>  (1) 
Cc1oc(=O)oc1COC(=O)[NH+](C)C(=O)n1c(C([NH-])=O)cc2ccc(C(F)F)cc21

>  <Energy>  (1) 
117.6639966648941

>  <Genealogy>  (1) 
Cc1oc(=O)oc1COC(=O)[NH+](C)C(=O)n1c(C([NH-])=O)cc2ccc(C(F)F)cc21 (protonated)
Cc1oc(=O)oc1COC(=O)[NH+](C)C(=O)n1c(C([NH-])=O)cc2ccc(C(F)F)cc21 (3D coordinates assigned)
Cc1oc(=O)oc1COC(=O)[NH+](C)C(=O)n1c(C([NH-])=O)cc2ccc(C(F)F)cc21 (optimized conformer: 117.6639966648941 kcal/mol)

>  <smiles>  (1) 
Cc1oc(=O)oc1COC(=O)N(C)C(=O)n1c(C(N)=O)cc2ccc(C(F)F)cc21

>  <score_type>  (1) 
oracle

>  <origin>  (1) 
adg

>  <m_score__min__energy>  (1) 
-9.2400000000000002

>  <m_primary>  (1) 
energy

$$$$
1:0
     RDKit          3D

 43 44  0  0  0  0  0  0  0  0999 V2000
   -5.1360   16.2440  -32.7810 C   0  0  0  0  0  0  0  0  0  0  0  0
   -5.1090   17.2340  -33.8620 N   0  0  0  0  0  0  0  0  0  0  0  0
   -4.0800   17.1560  -34.9050 C   0  0  0  0  0  0  0  0  0  0  0  0
   -6.0960   18.2860  -33.9270 C   0  0  0  0  0  0  0  0  0  0  0  0
   -6.0810   19.0920  -34.9000 O   0  0  0  0  0  0  0  0  0  0  0  0
   -7.1680   18.4160  -32.8690 C   0  0  0  0  0  0  0  0  0  0  0  0
   -7.3410   19.8370  -32.3960 C   0  0  0  0  0  0  0  0  0  0  0  0
   -8.6260   20.4360  -32.3990 C   0  0  0  0  0  0  0  0  0  0  0  0
   -8.7930   21.7740  -32.0070 C   0  0  0  0  0  0  0  0  0  0  0  0
   -7.6610   22.4860  -31.6170 C   0  0  0  0  0  0  0  0  0  0  0  0
   -7.5330   23.8000  -31.2330 C   0  0  0  0  0  0  0  0  0  0  0  0
   -6.1760   23.9800  -30.9840 C   0  0  0  0  0  0  0  0  0  0  0  0
   -5.6020   25.2480  -30.4880 C   0  0  0  0  0  0  0  0  0  0  0  0
   -4.2460   25.6020  -30.7610 N   0  0  0  0  0  0  0  0  0  0  0  0
   -6.3050   26.0040  -29.7670 O   0  0  0  0  0  0  0  0  0  0  0  0
   -5.4860   22.8280  -31.2150 N   0  0  0  0  0  0  0  0  0  0  0  0
   -4.0610   22.6490  -31.1930 C   0  0  0  0  0  0  0  0  0  0  0  0
   -3.4750   22.1180  -32.1770 O   0  0  0  0  0  0  0  0  0  0  0  0
   -3.3260   23.0630  -30.0750 O   0  0  0  0  0  0  0  0  0  0  0  0
   -1.9030   23.0130  -30.0070 C   0  0  0  0  0  0  0  0  0  0  0  0
   -1.3540   24.2640  -29.3190 C   0  0  0  0  0  0  0  0  0  0  0  0
   -2.3070   25.2910  -29.3460 O   0  0  0  0  0  0  0  0  0  0  0  0
   -6.4110   21.9200  -31.6000 C   0  0  0  0  0  0  0  0  0  0  0  0
   -6.2140   20.5940  -32.0070 C   0  0  0  0  0  0  0  0  0  0  0  0
   -5.1219   16.7608  -31.8101 H   0  0  0  0  0  0  0  0  0  0  0  0
   -6.0510   15.6387  -32.8609 H   0  0  0  0  0  0  0  0  0  0  0  0
   -4.2554   15.5897  -32.8609 H   0  0  0  0  0  0  0  0  0  0  0  0
   -3.0877   17.0808  -34.4362 H   0  0  0  0  0  0  0  0  0  0  0  0
   -4.2583   16.2688  -35.5304 H   0  0  0  0  0  0  0  0  0  0  0  0
   -4.1225   18.0599  -35.5304 H   0  0  0  0  0  0  0  0  0  0  0  0
   -8.1224   18.0649  -33.2884 H   0  0  0  0  0  0  0  0  0  0  0  0
   -6.8600   17.8103  -32.0040 H   0  0  0  0  0  0  0  0  0  0  0  0
   -9.5008   19.8468  -32.7115 H   0  0  0  0  0  0  0  0  0  0  0  0
   -9.7869   22.2453  -32.0079 H   0  0  0  0  0  0  0  0  0  0  0  0
   -8.3331   24.5494  -31.1420 H   0  0  0  0  0  0  0  0  0  0  0  0
   -3.5910   24.9250  -31.2110 H   0  0  0  0  0  0  0  0  0  0  0  0
   -3.8700   26.5220  -30.4370 H   0  0  0  0  0  0  0  0  0  0  0  0
   -1.5992   22.1233  -29.4360 H   0  0  0  0  0  0  0  0  0  0  0  0
   -1.5000   22.9641  -31.0294 H   0  0  0  0  0  0  0  0  0  0  0  0
   -1.1075   24.0249  -28.2740 H   0  0  0  0  0  0  0  0  0  0  0  0
   -0.4516   24.5987  -29.8516 H   0  0  0  0  0  0  0  0  0  0  0  0
   -3.1400   24.9140  -28.9620 H   0  0  0  0  0  0  0  0  0  0  0  0
   -5.2063   20.1533  -32.0232 H   0  0  0  0  0  0  0  0  0  0  0  0
  1  2  1  0
  2  3  1  0
  2  4  1  0
  4  5  2  0
  4  6  1  0
  6  7  1  0
  7  8  2  0
  8  9  1  0
  9 10  2  0
 10 11  1  0
 11 12  2  0
 12 13  1  0
 13 14  1  0
 13 15  2  0
 12 16  1  0
 16 17  1  0
 17 18  2  0
 17 19  1  0
 19 20  1  0
 20 21  1  0
 21 22  1  0
 16 23  1  0
 23 24  2  0
 24  7  1  0
 23 10  1  0
  1 25  1  0
  1 26  1  0
  1 27  1  0
  3 28  1  0
  3 29  1  0
  3 30  1  0
  6 31  1  0
  6 32  1  0
  8 33  1  0
  9 34  1  0
 11 35  1  0
 14 36  1  0
 14 37  1  0
 20 38  1  0
 20 39  1  0
 21 40  1  0
 21 41  1  0
 22 42  1  0
 24 43  1  0
M  END
>  <UniqueID>  (2) 
2

>  <SMILES>  (2) 
CN(C)C(=O)Cc1ccc2cc(C(N)=O)n(C(=O)OCCO)c2c1

>  <Energy>  (2) 
75.87348351996064

>  <Genealogy>  (2) 
CN(C)C(=O)Cc1ccc2cc(C(N)=O)n(C(=O)OCCO)c2c1 (3D coordinates assigned)
CN(C)C(=O)Cc1ccc2cc(C(N)=O)n(C(=O)OCCO)c2c1 (optimized conformer: 75.87348351996064 kcal/mol)

>  <smiles>  (2) 
CN(C)C(=O)Cc1ccc2cc(C(N)=O)n(C(=O)OCCO)c2c1

>  <score_type>  (2) 
oracle

>  <origin>  (2) 
adg

>  <m_score__min__energy>  (2) 
-9

>  <m_primary>  (2) 
energy

$$$$
2:0
     RDKit          3D

 42 43  0  0  0  0  0  0  0  0999 V2000
   -4.1430   24.1640  -27.4710 C   0  0  0  0  0  0  0  0  0  0  0  0
   -3.8600   22.8800  -28.2410 C   0  0  0  0  0  0  0  0  0  0  0  0
   -3.1430   23.1700  -29.4920 N   0  0  0  0  0  0  0  0  0  0  0  0
   -1.9060   23.9090  -29.4390 C   0  0  0  0  0  0  0  0  0  0  0  0
   -0.8020   23.3040  -29.4560 O   0  0  0  0  0  0  0  0  0  0  0  0
   -1.9110   25.2950  -29.3370 O   0  0  0  0  0  0  0  0  0  0  0  0
   -3.6920   22.7210  -30.7520 C   0  0  0  0  0  0  0  0  0  0  0  0
   -2.9280   22.2540  -31.6410 O   0  0  0  0  0  0  0  0  0  0  0  0
   -5.1040   22.7750  -31.0160 N   0  0  0  0  0  0  0  0  0  0  0  0
   -5.9420   23.8450  -30.9130 C   0  0  0  0  0  0  0  0  0  0  0  0
   -5.5440   25.2220  -30.5570 C   0  0  0  0  0  0  0  0  0  0  0  0
   -4.2190   25.6720  -30.8310 N   0  0  0  0  0  0  0  0  0  0  0  0
   -6.3560   26.0020  -29.9960 O   0  0  0  0  0  0  0  0  0  0  0  0
   -7.2440   23.4760  -31.2460 C   0  0  0  0  0  0  0  0  0  0  0  0
   -7.1710   22.1400  -31.5740 C   0  0  0  0  0  0  0  0  0  0  0  0
   -8.1680   21.2590  -31.9760 C   0  0  0  0  0  0  0  0  0  0  0  0
   -7.8060   19.9260  -32.2360 C   0  0  0  0  0  0  0  0  0  0  0  0
   -6.4580   19.4950  -32.0990 C   0  0  0  0  0  0  0  0  0  0  0  0
   -6.0490   18.1310  -32.3380 N   0  0  0  0  0  0  0  0  0  0  0  0
   -5.6790   17.5190  -33.6240 C   0  0  0  0  0  0  0  0  0  0  0  0
   -5.7230   18.5200  -34.7850 C   0  0  0  0  0  0  0  0  0  0  0  0
   -6.4880   16.2480  -33.9040 C   0  0  0  0  0  0  0  0  0  0  0  0
   -5.4810   20.4250  -31.6740 C   0  0  0  0  0  0  0  0  0  0  0  0
   -5.8690   21.7450  -31.4310 C   0  0  0  0  0  0  0  0  0  0  0  0
   -4.0983   23.9612  -26.3908 H   0  0  0  0  0  0  0  0  0  0  0  0
   -3.3904   24.9222  -27.7332 H   0  0  0  0  0  0  0  0  0  0  0  0
   -5.1446   24.5356  -27.7332 H   0  0  0  0  0  0  0  0  0  0  0  0
   -3.2445   22.2140  -27.6184 H   0  0  0  0  0  0  0  0  0  0  0  0
   -4.8174   22.3971  -28.4865 H   0  0  0  0  0  0  0  0  0  0  0  0
   -3.4900   25.6840  -30.0840 H   0  0  0  0  0  0  0  0  0  0  0  0
   -8.1392   24.1153  -31.2468 H   0  0  0  0  0  0  0  0  0  0  0  0
   -9.2095   21.5950  -32.0874 H   0  0  0  0  0  0  0  0  0  0  0  0
   -8.5763   19.2062  -32.5498 H   0  0  0  0  0  0  0  0  0  0  0  0
   -5.8370   17.5530  -31.4920 H   0  0  0  0  0  0  0  0  0  0  0  0
   -4.6275   17.2077  -33.5384 H   0  0  0  0  0  0  0  0  0  0  0  0
   -5.7680   19.5437  -34.3850 H   0  0  0  0  0  0  0  0  0  0  0  0
   -4.8190   18.4066  -35.4014 H   0  0  0  0  0  0  0  0  0  0  0  0
   -6.6136   18.3277  -35.4014 H   0  0  0  0  0  0  0  0  0  0  0  0
   -6.7833   15.7840  -32.9514 H   0  0  0  0  0  0  0  0  0  0  0  0
   -7.3884   16.5061  -34.4808 H   0  0  0  0  0  0  0  0  0  0  0  0
   -5.8730   15.5415  -34.4808 H   0  0  0  0  0  0  0  0  0  0  0  0
   -4.4346   20.1147  -31.5372 H   0  0  0  0  0  0  0  0  0  0  0  0
  1  2  1  0
  2  3  1  0
  3  4  1  0
  4  5  2  0
  4  6  1  0
  3  7  1  0
  7  8  2  0
  7  9  1  0
  9 10  1  0
 10 11  1  0
 11 12  1  0
 11 13  2  0
 10 14  2  0
 14 15  1  0
 15 16  2  0
 16 17  1  0
 17 18  2  0
 18 19  1  0
 19 20  1  0
 20 21  1  0
 20 22  1  0
 18 23  1  0
 23 24  2  0
 24  9  1  0
 24 15  1  0
  1 25  1  0
  1 26  1  0
  1 27  1  0
  2 28  1  0
  2 29  1  0
 12 30  1  0
 14 31  1  0
 16 32  1  0
 17 33  1  0
 19 34  1  0
 20 35  1  0
 21 36  1  0
 21 37  1  0
 21 38  1  0
 22 39  1  0
 22 40  1  0
 22 41  1  0
 23 42  1  0
M  CHG  2   6  -1  12  -1
M  END
>  <UniqueID>  (3) 
3

>  <SMILES>  (3) 
CCN(C(=O)[O-])C(=O)n1c(C([NH-])=O)cc2ccc(NC(C)C)cc21

>  <Energy>  (3) 
81.32456365150269

>  <Genealogy>  (3) 
CCN(C(=O)[O-])C(=O)n1c(C([NH-])=O)cc2ccc(NC(C)C)cc21 (protonated)
CCN(C(=O)[O-])C(=O)n1c(C([NH-])=O)cc2ccc(NC(C)C)cc21 (3D coordinates assigned)
CCN(C(=O)[O-])C(=O)n1c(C([NH-])=O)cc2ccc(NC(C)C)cc21 (optimized conformer: 81.32456365150269 kcal/mol)

>  <smiles>  (3) 
CCN(C(=O)O)C(=O)n1c(C(N)=O)cc2ccc(NC(C)C)cc21

>  <score_type>  (3) 
oracle

>  <origin>  (3) 
adg

>  <m_score__min__energy>  (3) 
-11.890000000000001

>  <m_primary>  (3) 
energy

$$$$
3:0
     RDKit          3D

 36 37  0  0  0  0  0  0  0  0999 V2000
   -6.9030   17.1860  -32.6370 C   0  0  0  0  0  0  0  0  0  0  0  0
   -6.4320   18.3970  -33.3210 N   0  0  0  0  0  0  0  0  0  0  0  0
   -5.7250   18.2640  -34.6000 C   0  0  0  0  0  0  0  0  0  0  0  0
   -6.6510   19.7040  -32.7320 C   0  0  0  0  0  0  0  0  0  0  0  0
   -7.9700   20.2060  -32.5480 C   0  0  0  0  0  0  0  0  0  0  0  0
   -8.1910   21.4720  -31.9800 C   0  0  0  0  0  0  0  0  0  0  0  0
   -7.0830   22.2240  -31.6110 C   0  0  0  0  0  0  0  0  0  0  0  0
   -7.0140   23.4670  -31.0250 C   0  0  0  0  0  0  0  0  0  0  0  0
   -5.6530   23.7280  -30.8720 C   0  0  0  0  0  0  0  0  0  0  0  0
   -5.1220   24.9960  -30.3300 C   0  0  0  0  0  0  0  0  0  0  0  0
   -3.9190   25.5670  -30.8390 N   0  0  0  0  0  0  0  0  0  0  0  0
   -5.7560   25.6030  -29.4250 O   0  0  0  0  0  0  0  0  0  0  0  0
   -4.9120   22.6850  -31.3440 N   0  0  0  0  0  0  0  0  0  0  0  0
   -3.4810   22.5440  -31.3040 C   0  0  0  0  0  0  0  0  0  0  0  0
   -2.8530   22.2860  -32.3660 O   0  0  0  0  0  0  0  0  0  0  0  0
   -2.7120   22.7300  -30.0300 C   0  0  0  0  0  0  0  0  0  0  0  0
   -1.6210   23.5930  -30.2500 O   0  0  0  0  0  0  0  0  0  0  0  0
   -1.2870   24.4160  -28.7970 P   0  0  0  0  0  0  0  0  0  0  0  0
   -2.1350   23.8300  -27.6930 O   0  0  0  0  0  0  0  0  0  0  0  0
   -1.6550   26.0590  -28.9630 O   0  0  0  0  0  0  0  0  0  0  0  0
    0.3470   24.2420  -28.3910 O   0  0  0  0  0  0  0  0  0  0  0  0
   -5.8030   21.7720  -31.7900 C   0  0  0  0  0  0  0  0  0  0  0  0
   -5.5520   20.5080  -32.3320 C   0  0  0  0  0  0  0  0  0  0  0  0
   -6.8455   17.3338  -31.5485 H   0  0  0  0  0  0  0  0  0  0  0  0
   -7.9452   16.9841  -32.9251 H   0  0  0  0  0  0  0  0  0  0  0  0
   -6.2711   16.3329  -32.9251 H   0  0  0  0  0  0  0  0  0  0  0  0
   -4.6600   18.0637  -34.4112 H   0  0  0  0  0  0  0  0  0  0  0  0
   -6.1586   17.4317  -35.1738 H   0  0  0  0  0  0  0  0  0  0  0  0
   -5.8265   19.1970  -35.1738 H   0  0  0  0  0  0  0  0  0  0  0  0
   -8.8301   19.5931  -32.8554 H   0  0  0  0  0  0  0  0  0  0  0  0
   -9.2111   21.8561  -31.8320 H   0  0  0  0  0  0  0  0  0  0  0  0
   -7.8540   24.1167  -30.7382 H   0  0  0  0  0  0  0  0  0  0  0  0
   -2.9860   25.2690  -30.4760 H   0  0  0  0  0  0  0  0  0  0  0  0
   -3.3726   23.1649  -29.2655 H   0  0  0  0  0  0  0  0  0  0  0  0
   -2.3381   21.7540  -29.6870 H   0  0  0  0  0  0  0  0  0  0  0  0
   -4.5207   20.1430  -32.4464 H   0  0  0  0  0  0  0  0  0  0  0  0
  1  2  1  0
  2  3  1  0
  2  4  1  0
  4  5  2  0
  5  6  1  0
  6  7  2  0
  7  8  1  0
  8  9  2  0
  9 10  1  0
 10 11  1  0
 10 12  2  0
  9 13  1  0
 13 14  1  0
 14 15  2  0
 14 16  1  0
 16 17  1  0
 17 18  1  0
 18 19  2  0
 18 20  1  0
 18 21  1  0
 13 22  1  0
 22 23  2  0
 23  4  1  0
 22  7  1  0
  1 24  1  0
  1 25  1  0
  1 26  1  0
  3 27  1  0
  3 28  1  0
  3 29  1  0
  5 30  1  0
  6 31  1  0
  8 32  1  0
 11 33  1  0
 16 34  1  0
 16 35  1  0
 23 36  1  0
M  CHG  3  11  -1  20  -1  21  -1
M  END
>  <UniqueID>  (4) 
4

>  <SMILES>  (4) 
CN(C)c1ccc2cc(C([NH-])=O)n(C(=O)COP(=O)([O-])[O-])c2c1

>  <Energy>  (4) 
74.49454197948076

>  <Genealogy>  (4) 
CN(C)c1ccc2cc(C([NH-])=O)n(C(=O)COP(=O)([O-])[O-])c2c1 (protonated)
CN(C)c1ccc2cc(C([NH-])=O)n(C(=O)COP(=O)([O-])[O-])c2c1 (3D coordinates assigned)
CN(C)c1ccc2cc(C([NH-])=O)n(C(=O)COP(=O)([O-])[O-])c2c1 (optimized conformer: 74.49454197948076 kcal/mol)

>  <smiles>  (4) 
CN(C)c1ccc2cc(C(N)=O)n(C(=O)COP(=O)(O)O)c2c1

>  <score_type>  (4) 
oracle

>  <origin>  (4) 
adg

>  <m_score__min__energy>  (4) 
-13.77

>  <m_primary>  (4) 
energy

$$$$
4:0
     RDKit          3D

 43 44  0  0  0  0  0  0  0  0999 V2000
   -7.4600   18.5980  -32.5260 C   0  0  0  0  0  0  0  0  0  0  0  0
   -7.4330   20.0320  -32.0880 C   0  0  0  0  0  0  0  0  0  0  0  0
   -8.6290   20.6710  -31.6750 C   0  0  0  0  0  0  0  0  0  0  0  0
   -8.6120   22.0060  -31.2350 C   0  0  0  0  0  0  0  0  0  0  0  0
   -7.3860   22.6650  -31.2000 C   0  0  0  0  0  0  0  0  0  0  0  0
   -7.0880   23.9600  -30.8480 C   0  0  0  0  0  0  0  0  0  0  0  0
   -5.7100   24.0830  -31.0210 C   0  0  0  0  0  0  0  0  0  0  0  0
   -4.9530   25.3070  -30.6870 C   0  0  0  0  0  0  0  0  0  0  0  0
   -3.6250   25.2350  -30.1790 N   0  0  0  0  0  0  0  0  0  0  0  0
   -5.5010   26.4320  -30.8090 O   0  0  0  0  0  0  0  0  0  0  0  0
   -5.1800   22.9080  -31.4670 N   0  0  0  0  0  0  0  0  0  0  0  0
   -3.8280   22.6530  -31.8800 C   0  0  0  0  0  0  0  0  0  0  0  0
   -3.6070   22.0800  -32.9820 O   0  0  0  0  0  0  0  0  0  0  0  0
   -2.7630   23.0750  -31.0720 O   0  0  0  0  0  0  0  0  0  0  0  0
   -1.9210   22.1760  -30.3590 C   0  0  0  0  0  0  0  0  0  0  0  0
   -2.1150   22.3500  -28.8740 C   0  0  0  0  0  0  0  0  0  0  0  0
   -1.6480   21.5050  -28.1250 O   0  0  0  0  0  0  0  0  0  0  0  0
   -2.8440   23.4870  -28.3410 N   0  0  1  0  0  0  0  0  0  0  0  0
   -4.1410   23.0740  -27.7740 C   0  0  0  0  0  0  0  0  0  0  0  0
   -2.0140   24.2800  -27.3980 C   0  0  0  0  0  0  0  0  0  0  0  0
   -1.4600   25.5990  -27.9700 C   0  0  0  0  0  0  0  0  0  0  0  0
   -1.2160   25.4440  -29.3410 O   0  0  0  0  0  0  0  0  0  0  0  0
   -6.2170   22.0510  -31.5690 C   0  0  0  0  0  0  0  0  0  0  0  0
   -6.2060   20.7280  -32.0280 C   0  0  0  0  0  0  0  0  0  0  0  0
   -7.4723   17.9445  -31.6412 H   0  0  0  0  0  0  0  0  0  0  0  0
   -8.3617   18.4157  -33.1290 H   0  0  0  0  0  0  0  0  0  0  0  0
   -6.5658   18.3819  -33.1290 H   0  0  0  0  0  0  0  0  0  0  0  0
   -9.5791   20.1172  -31.6990 H   0  0  0  0  0  0  0  0  0  0  0  0
   -9.5381   22.5140  -30.9280 H   0  0  0  0  0  0  0  0  0  0  0  0
   -7.7883   24.7349  -30.5030 H   0  0  0  0  0  0  0  0  0  0  0  0
   -2.8030   25.2620  -30.8210 H   0  0  0  0  0  0  0  0  0  0  0  0
   -2.1720   21.1425  -30.6399 H   0  0  0  0  0  0  0  0  0  0  0  0
   -0.8718   22.3889  -30.6119 H   0  0  0  0  0  0  0  0  0  0  0  0
   -3.0710   24.1310  -29.1360 H   0  0  0  0  0  0  0  0  0  0  0  0
   -4.0835   23.0923  -26.6757 H   0  0  0  0  0  0  0  0  0  0  0  0
   -4.9260   23.7666  -28.1117 H   0  0  0  0  0  0  0  0  0  0  0  0
   -4.3810   22.0550  -28.1117 H   0  0  0  0  0  0  0  0  0  0  0  0
   -2.6311   24.5212  -26.5199 H   0  0  0  0  0  0  0  0  0  0  0  0
   -1.1395   23.6569  -27.1590 H   0  0  0  0  0  0  0  0  0  0  0  0
   -2.1946   26.4032  -27.8163 H   0  0  0  0  0  0  0  0  0  0  0  0
   -0.5224   25.8579  -27.4563 H   0  0  0  0  0  0  0  0  0  0  0  0
   -2.0620   25.6740  -29.8030 H   0  0  0  0  0  0  0  0  0  0  0  0
   -5.2666   20.2440  -32.3336 H   0  0  0  0  0  0  0  0  0  0  0  0
  1  2  1  0
  2  3  2  0
  3  4  1  0
  4  5  2  0
  5  6  1  0
  6  7  2  0
  7  8  1  0
  8  9  1  0
  8 10  2  0
  7 11  1  0
 11 12  1  0
 12 13  2  0
 12 14  1  0
 14 15  1  0
 15 16  1  0
 16 17  2  0
 16 18  1  0
 18 19  1  0
 18 20  1  0
 20 21  1  0
 21 22  1  0
 11 23  1  0
 23 24  2  0
 24  2  1  0
 23  5  1  0
  1 25  1  0
  1 26  1  0
  1 27  1  0
  3 28  1  0
  4 29  1  0
  6 30  1  0
  9 31  1  0
 15 32  1  0
 15 33  1  0
 18 34  1  6
 19 35  1  0
 19 36  1  0
 19 37  1  0
 20 38  1  0
 20 39  1  0
 21 40  1  0
 21 41  1  0
 22 42  1  0
 24 43  1  0
M  CHG  2   9  -1  18   1
M  END
>  <UniqueID>  (5) 
5

>  <SMILES>  (5) 
Cc1ccc2cc(C([NH-])=O)n(C(=O)OCC(=O)[N@@H+](C)CCO)c2c1

>  <Energy>  (5) 
80.82156614162575

>  <Genealogy>  (5) 
Cc1ccc2cc(C([NH-])=O)n(C(=O)OCC(=O)[NH+](C)CCO)c2c1 (protonated)
Cc1ccc2cc(C([NH-])=O)n(C(=O)OCC(=O)[N@@H+](C)CCO)c2c1 (chirality)
Cc1ccc2cc(C([NH-])=O)n(C(=O)OCC(=O)[N@@H+](C)CCO)c2c1 (3D coordinates assigned)
Cc1ccc2cc(C([NH-])=O)n(C(=O)OCC(=O)[N@@H+](C)CCO)c2c1 (optimized conformer: 80.82156614162575 kcal/mol)

>  <smiles>  (5) 
Cc1ccc2cc(C(N)=O)n(C(=O)OCC(=O)N(C)CCO)c2c1

>  <score_type>  (5) 
oracle

>  <origin>  (5) 
adg

>  <m_score__min__energy>  (5) 
-9.0099999999999998

>  <m_primary>  (5) 
energy

$$$$
5:0
     RDKit          3D

 44 45  0  0  0  0  0  0  0  0999 V2000
   -8.0860   18.3490  -31.8800 C   0  0  0  0  0  0  0  0  0  0  0  0
   -8.1120   19.7640  -32.2850 N   0  0  0  0  0  0  0  0  0  0  0  0
   -9.4500   20.1590  -32.7540 C   0  0  0  0  0  0  0  0  0  0  0  0
   -7.5500   20.6780  -31.2640 C   0  0  0  0  0  0  0  0  0  0  0  0
   -7.7880   22.1770  -31.5230 C   0  0  0  0  0  0  0  0  0  0  0  0
   -7.5360   22.9240  -30.3530 O   0  0  0  0  0  0  0  0  0  0  0  0
   -6.6840   24.0200  -30.6280 C   0  0  0  0  0  0  0  0  0  0  0  0
   -5.4650   24.0230  -29.6900 C   0  0  0  0  0  0  0  0  0  0  0  0
   -4.1830   24.3330  -30.4190 C   0  0  0  0  0  0  0  0  0  0  0  0
   -4.0000   25.4950  -30.8720 O   0  0  0  0  0  0  0  0  0  0  0  0
   -3.1790   23.3250  -30.6260 N   0  0  0  0  0  0  0  0  0  0  0  0
   -1.9260   23.2580  -30.0920 C   0  0  0  0  0  0  0  0  0  0  0  0
   -1.2620   24.3200  -29.3090 C   0  0  0  0  0  0  0  0  0  0  0  0
   -1.9770   25.5060  -28.9700 N   0  0  0  0  0  0  0  0  0  0  0  0
   -0.0800   24.1730  -28.9000 O   0  0  0  0  0  0  0  0  0  0  0  0
   -1.2920   22.0790  -30.4770 C   0  0  0  0  0  0  0  0  0  0  0  0
   -2.1940   21.4280  -31.2870 C   0  0  0  0  0  0  0  0  0  0  0  0
   -2.0930   20.1990  -31.9330 C   0  0  0  0  0  0  0  0  0  0  0  0
   -3.1980   19.7570  -32.6820 C   0  0  0  0  0  0  0  0  0  0  0  0
   -4.3700   20.5440  -32.7670 C   0  0  0  0  0  0  0  0  0  0  0  0
   -5.4920   20.0780  -33.5210 N   0  0  0  0  0  0  0  0  0  0  0  0
   -4.4360   21.7870  -32.1020 C   0  0  0  0  0  0  0  0  0  0  0  0
   -3.3200   22.2040  -31.3680 C   0  0  0  0  0  0  0  0  0  0  0  0
   -8.0848   18.2818  -30.7821 H   0  0  0  0  0  0  0  0  0  0  0  0
   -8.9749   17.8374  -32.2777 H   0  0  0  0  0  0  0  0  0  0  0  0
   -7.1789   17.8704  -32.2777 H   0  0  0  0  0  0  0  0  0  0  0  0
  -10.1003   20.3510  -31.8878 H   0  0  0  0  0  0  0  0  0  0  0  0
   -9.3706   21.0720  -33.3624 H   0  0  0  0  0  0  0  0  0  0  0  0
   -9.8792   19.3492  -33.3624 H   0  0  0  0  0  0  0  0  0  0  0  0
   -8.0028   20.4243  -30.2941 H   0  0  0  0  0  0  0  0  0  0  0  0
   -6.4600   20.5330  -31.2918 H   0  0  0  0  0  0  0  0  0  0  0  0
   -7.1144   22.5181  -32.3230 H   0  0  0  0  0  0  0  0  0  0  0  0
   -8.8360   22.3255  -31.8225 H   0  0  0  0  0  0  0  0  0  0  0  0
   -6.3359   23.9520  -31.6692 H   0  0  0  0  0  0  0  0  0  0  0  0
   -7.2492   24.9502  -30.4692 H   0  0  0  0  0  0  0  0  0  0  0  0
   -5.6209   24.7827  -28.9099 H   0  0  0  0  0  0  0  0  0  0  0  0
   -5.3710   23.0161  -29.2573 H   0  0  0  0  0  0  0  0  0  0  0  0
   -2.9440   25.6690  -29.3260 H   0  0  0  0  0  0  0  0  0  0  0  0
   -0.2845   21.7403  -30.1938 H   0  0  0  0  0  0  0  0  0  0  0  0
   -1.1779   19.5929  -31.8599 H   0  0  0  0  0  0  0  0  0  0  0  0
   -3.1504   18.7911  -33.2062 H   0  0  0  0  0  0  0  0  0  0  0  0
   -6.4350   20.5110  -33.4000 H   0  0  0  0  0  0  0  0  0  0  0  0
   -5.3870   19.2990  -34.2090 H   0  0  0  0  0  0  0  0  0  0  0  0
   -5.3401   22.4110  -32.1591 H   0  0  0  0  0  0  0  0  0  0  0  0
  1  2  1  0
  2  3  1  0
  2  4  1  0
  4  5  1  0
  5  6  1  0
  6  7  1  0
  7  8  1  0
  8  9  1  0
  9 10  2  0
  9 11  1  0
 11 12  1  0
 12 13  1  0
 13 14  1  0
 13 15  2  0
 12 16  2  0
 16 17  1  0
 17 18  2  0
 18 19  1  0
 19 20  2  0
 20 21  1  0
 20 22  1  0
 22 23  2  0
 23 11  1  0
 23 17  1  0
  1 24  1  0
  1 25  1  0
  1 26  1  0
  3 27  1  0
  3 28  1  0
  3 29  1  0
  4 30  1  0
  4 31  1  0
  5 32  1  0
  5 33  1  0
  7 34  1  0
  7 35  1  0
  8 36  1  0
  8 37  1  0
 14 38  1  0
 16 39  1  0
 18 40  1  0
 19 41  1  0
 21 42  1  0
 21 43  1  0
 22 44  1  0
M  CHG  1  14  -1
M  END
>  <UniqueID>  (6) 
6

>  <SMILES>  (6) 
CN(C)CCOCCC(=O)n1c(C([NH-])=O)cc2ccc(N)cc21

>  <Energy>  (6) 
82.57078439230683

>  <Genealogy>  (6) 
CN(C)CCOCCC(=O)n1c(C([NH-])=O)cc2ccc(N)cc21 (protonated)
CN(C)CCOCCC(=O)n1c(C([NH-])=O)cc2ccc(N)cc21 (3D coordinates assigned)
CN(C)CCOCCC(=O)n1c(C([NH-])=O)cc2ccc(N)cc21 (optimized conformer: 82.57078439230683 kcal/mol)

>  <smiles>  (6) 
CN(C)CCOCCC(=O)n1c(C(N)=O)cc2ccc(N)cc21

>  <score_type>  (6) 
oracle

>  <origin>  (6) 
adg

>  <m_score__min__energy>  (6) 
-9.4000000000000004

>  <m_primary>  (6) 
energy

$$$$
6:0
     RDKit          3D

 41 42  0  0  0  0  0  0  0  0999 V2000
   -1.0020   22.4080  -27.0020 C   0  0  0  0  0  0  0  0  0  0  0  0
   -2.3360   22.9280  -27.5320 C   0  0  1  0  0  0  0  0  0  0  0  0
   -2.2280   24.3570  -27.8030 N   0  0  0  0  0  0  0  0  0  0  0  0
   -1.0800   24.9280  -28.4310 C   0  0  0  0  0  0  0  0  0  0  0  0
   -1.2250   25.7880  -29.3360 O   0  0  0  0  0  0  0  0  0  0  0  0
   -2.7170   22.1930  -28.7830 C   0  0  0  0  0  0  0  0  0  0  0  0
   -3.9280   21.9190  -29.0030 O   0  0  0  0  0  0  0  0  0  0  0  0
   -1.7220   21.8000  -29.6850 O   0  0  0  0  0  0  0  0  0  0  0  0
   -1.6580   22.2890  -31.0200 C   0  0  0  0  0  0  0  0  0  0  0  0
   -2.8500   23.0060  -31.3190 O   0  0  0  0  0  0  0  0  0  0  0  0
   -3.9360   22.4310  -31.9860 C   0  0  0  0  0  0  0  0  0  0  0  0
   -3.7430   21.6830  -32.9830 O   0  0  0  0  0  0  0  0  0  0  0  0
   -5.2720   22.6810  -31.5200 N   0  0  0  0  0  0  0  0  0  0  0  0
   -5.7620   23.8270  -30.9660 C   0  0  0  0  0  0  0  0  0  0  0  0
   -4.9620   25.0170  -30.6010 C   0  0  0  0  0  0  0  0  0  0  0  0
   -3.7020   24.8750  -29.9420 N   0  0  0  0  0  0  0  0  0  0  0  0
   -5.3710   26.1710  -30.8990 O   0  0  0  0  0  0  0  0  0  0  0  0
   -7.1230   23.6950  -30.6970 C   0  0  0  0  0  0  0  0  0  0  0  0
   -7.4540   22.4220  -31.1000 C   0  0  0  0  0  0  0  0  0  0  0  0
   -8.6800   21.7650  -31.0680 C   0  0  0  0  0  0  0  0  0  0  0  0
   -8.7400   20.4570  -31.5770 C   0  0  0  0  0  0  0  0  0  0  0  0
   -7.5820   19.8350  -32.1090 C   0  0  0  0  0  0  0  0  0  0  0  0
   -7.6530   18.4440  -32.6710 C   0  0  0  0  0  0  0  0  0  0  0  0
   -7.2750   17.5310  -31.7040 F   0  0  0  0  0  0  0  0  0  0  0  0
   -6.8040   18.3380  -33.7570 F   0  0  0  0  0  0  0  0  0  0  0  0
   -6.3550   20.5340  -32.1230 C   0  0  0  0  0  0  0  0  0  0  0  0
   -6.3200   21.8310  -31.5940 C   0  0  0  0  0  0  0  0  0  0  0  0
   -1.0171   22.4139  -25.9021 H   0  0  0  0  0  0  0  0  0  0  0  0
   -0.8401   21.3809  -27.3610 H   0  0  0  0  0  0  0  0  0  0  0  0
   -0.1877   23.0546  -27.3610 H   0  0  0  0  0  0  0  0  0  0  0  0
   -3.1166   22.7601  -26.7753 H   0  0  0  0  0  0  0  0  0  0  0  0
   -0.0710   24.6160  -28.1235 H   0  0  0  0  0  0  0  0  0  0  0  0
   -0.7913   22.9583  -31.1244 H   0  0  0  0  0  0  0  0  0  0  0  0
   -1.5537   21.4436  -31.7160 H   0  0  0  0  0  0  0  0  0  0  0  0
   -3.1270   25.7190  -29.7240 H   0  0  0  0  0  0  0  0  0  0  0  0
   -3.3540   23.9410  -29.6310 H   0  0  0  0  0  0  0  0  0  0  0  0
   -7.7912   24.4492  -30.2558 H   0  0  0  0  0  0  0  0  0  0  0  0
   -9.5750   22.2548  -30.6567 H   0  0  0  0  0  0  0  0  0  0  0  0
   -9.6943   19.9101  -31.5627 H   0  0  0  0  0  0  0  0  0  0  0  0
   -8.6851   18.2352  -32.9891 H   0  0  0  0  0  0  0  0  0  0  0  0
   -5.4481   20.0712  -32.5394 H   0  0  0  0  0  0  0  0  0  0  0  0
  1  2  1  0
  2  3  1  0
  3  4  1  0
  4  5  2  0
  2  6  1  0
  6  7  2  0
  6  8  1  0
  8  9  1  0
  9 10  1  0
 10 11  1  0
 11 12  2  0
 11 13  1  0
 13 14  1  0
 14 15  1  0
 15 16  1  0
 15 17  2  0
 14 18  2  0
 18 19  1  0
 19 20  2  0
 20 21  1  0
 21 22  2  0
 22 23  1  0
 23 24  1  0
 23 25  1  0
 22 26  1  0
 26 27  2  0
 27 13  1  0
 27 19  1  0
  1 28  1  0
  1 29  1  0
  1 30  1  0
  2 31  1  1
  4 32  1  0
  9 33  1  0
  9 34  1  0
 16 35  1  0
 16 36  1  0
 18 37  1  0
 20 38  1  0
 21 39  1  0
 23 40  1  0
 26 41  1  0
M  CHG  1   3  -1
M  END
>  <UniqueID>  (7) 
7

>  <SMILES>  (7) 
C[C@@H]([N-]C=O)C(=O)OCOC(=O)n1c(C(N)=O)cc2ccc(C(F)F)cc21

>  <Energy>  (7) 
68.54860370899088

>  <Genealogy>  (7) 
CC([N-]C=O)C(=O)OCOC(=O)n1c(C(N)=O)cc2ccc(C(F)F)cc21 (protonated)
C[C@@H]([N-]C=O)C(=O)OCOC(=O)n1c(C(N)=O)cc2ccc(C(F)F)cc21 (chirality)
C[C@@H]([N-]C=O)C(=O)OCOC(=O)n1c(C(N)=O)cc2ccc(C(F)F)cc21 (3D coordinates assigned)
C[C@@H]([N-]C=O)C(=O)OCOC(=O)n1c(C(N)=O)cc2ccc(C(F)F)cc21 (optimized conformer: 68.54860370899088 kcal/mol)

>  <smiles>  (7) 
CC(NC=O)C(=O)OCOC(=O)n1c(C(N)=O)cc2ccc(C(F)F)cc21

>  <score_type>  (7) 
oracle

>  <origin>  (7) 
adg

>  <m_score__min__energy>  (7) 
-10.02

>  <m_primary>  (7) 
energy

$$$$
7:0
     RDKit          3D

 46 47  0  0  0  0  0  0  0  0999 V2000
   -4.6520   16.9330  -33.4510 C   0  0  0  0  0  0  0  0  0  0  0  0
   -5.7340   17.9050  -33.0910 C   0  0  0  0  0  0  0  0  0  0  0  0
   -7.0270   17.4330  -32.7510 C   0  0  0  0  0  0  0  0  0  0  0  0
   -8.0310   18.3270  -32.3400 C   0  0  0  0  0  0  0  0  0  0  0  0
   -7.7110   19.6800  -32.2740 C   0  0  0  0  0  0  0  0  0  0  0  0
   -8.4700   20.7520  -31.8580 C   0  0  0  0  0  0  0  0  0  0  0  0
   -7.6300   21.8590  -31.9590 C   0  0  0  0  0  0  0  0  0  0  0  0
   -8.0450   23.2360  -31.6190 C   0  0  0  0  0  0  0  0  0  0  0  0
   -7.1730   24.1250  -30.9170 N   0  0  0  0  0  0  0  0  0  0  0  0
   -9.1720   23.6530  -31.9990 O   0  0  0  0  0  0  0  0  0  0  0  0
   -6.4040   21.4880  -32.4190 N   0  0  0  0  0  0  0  0  0  0  0  0
   -5.2290   22.3050  -32.5360 C   0  0  0  0  0  0  0  0  0  0  0  0
   -5.3540   23.5550  -32.6430 O   0  0  0  0  0  0  0  0  0  0  0  0
   -3.8900   21.6840  -32.5670 C   0  0  0  0  0  0  0  0  0  0  0  0
   -3.4280   21.2860  -33.6700 O   0  0  0  0  0  0  0  0  0  0  0  0
   -3.0800   21.5100  -31.3510 C   0  0  0  0  0  0  0  0  0  0  0  0
   -3.6220   21.1540  -30.2700 O   0  0  0  0  0  0  0  0  0  0  0  0
   -1.6660   21.7340  -31.4080 N   0  0  0  0  0  0  0  0  0  0  0  0
   -0.8560   22.1230  -30.2570 C   0  0  0  0  0  0  0  0  0  0  0  0
   -1.6770   22.9630  -29.2670 C   0  0  0  0  0  0  0  0  0  0  0  0
   -1.3490   24.4590  -29.3140 C   0  0  0  0  0  0  0  0  0  0  0  0
   -2.5730   25.2510  -29.3420 N   0  0  0  0  0  0  0  0  0  0  0  0
   -3.8330   24.7080  -29.7460 C   0  0  0  0  0  0  0  0  0  0  0  0
   -4.3210   25.0050  -30.8700 O   0  0  0  0  0  0  0  0  0  0  0  0
   -4.6090   23.8360  -28.8080 C   0  0  0  0  0  0  0  0  0  0  0  0
   -5.3230   22.8610  -29.5210 O   0  0  0  0  0  0  0  0  0  0  0  0
   -6.4670   20.1520  -32.6030 C   0  0  0  0  0  0  0  0  0  0  0  0
   -5.4440   19.2820  -32.9980 C   0  0  0  0  0  0  0  0  0  0  0  0
   -4.2019   16.5286  -32.5324 H   0  0  0  0  0  0  0  0  0  0  0  0
   -5.0801   16.1103  -34.0425 H   0  0  0  0  0  0  0  0  0  0  0  0
   -3.8797   17.4465  -34.0425 H   0  0  0  0  0  0  0  0  0  0  0  0
   -7.2467   16.3567  -32.8094 H   0  0  0  0  0  0  0  0  0  0  0  0
   -9.0377   17.9686  -32.0788 H   0  0  0  0  0  0  0  0  0  0  0  0
   -9.5162   20.7371  -31.5185 H   0  0  0  0  0  0  0  0  0  0  0  0
   -7.4990   25.0850  -30.6680 H   0  0  0  0  0  0  0  0  0  0  0  0
   -6.1750   23.8810  -30.7410 H   0  0  0  0  0  0  0  0  0  0  0  0
   -0.4953   21.2171  -29.7479 H   0  0  0  0  0  0  0  0  0  0  0  0
   -0.0085   22.7277  -30.6122 H   0  0  0  0  0  0  0  0  0  0  0  0
   -2.7438   22.8332  -29.5017 H   0  0  0  0  0  0  0  0  0  0  0  0
   -1.4253   22.6087  -28.2565 H   0  0  0  0  0  0  0  0  0  0  0  0
   -0.7637   24.7292  -28.4227 H   0  0  0  0  0  0  0  0  0  0  0  0
   -0.7704   24.6672  -30.2260 H   0  0  0  0  0  0  0  0  0  0  0  0
   -3.9132   23.3406  -28.1149 H   0  0  0  0  0  0  0  0  0  0  0  0
   -5.3211   24.4604  -28.2485 H   0  0  0  0  0  0  0  0  0  0  0  0
   -4.9890   22.8860  -30.4560 H   0  0  0  0  0  0  0  0  0  0  0  0
   -4.4386   19.6630  -33.2302 H   0  0  0  0  0  0  0  0  0  0  0  0
  1  2  1  0
  2  3  2  0
  3  4  1  0
  4  5  2  0
  5  6  1  0
  6  7  2  0
  7  8  1  0
  8  9  1  0
  8 10  2  0
  7 11  1  0
 11 12  1  0
 12 13  2  0
 12 14  1  0
 14 15  2  0
 14 16  1  0
 16 17  2  0
 16 18  1  0
 18 19  1  0
 19 20  1  0
 20 21  1  0
 21 22  1  0
 22 23  1  0
 23 24  2  0
 23 25  1  0
 25 26  1  0
 11 27  1  0
 27 28  2  0
 28  2  1  0
 27  5  1  0
  1 29  1  0
  1 30  1  0
  1 31  1  0
  3 32  1  0
  4 33  1  0
  6 34  1  0
  9 35  1  0
  9 36  1  0
 19 37  1  0
 19 38  1  0
 20 39  1  0
 20 40  1  0
 21 41  1  0
 21 42  1  0
 25 43  1  0
 25 44  1  0
 26 45  1  0
 28 46  1  0
M  CHG  2  18  -1  22  -1
M  END
>  <UniqueID>  (8) 
8

>  <SMILES>  (8) 
Cc1ccc2cc(C(N)=O)n(C(=O)C(=O)C(=O)[N-]CCC[N-]C(=O)CO)c2c1

>  <Energy>  (8) 
77.72794356166486

>  <Genealogy>  (8) 
Cc1ccc2cc(C(N)=O)n(C(=O)C(=O)C(=O)[N-]CCC[N-]C(=O)CO)c2c1 (protonated)
Cc1ccc2cc(C(N)=O)n(C(=O)C(=O)C(=O)[N-]CCC[N-]C(=O)CO)c2c1 (3D coordinates assigned)
Cc1ccc2cc(C(N)=O)n(C(=O)C(=O)C(=O)[N-]CCC[N-]C(=O)CO)c2c1 (optimized conformer: 77.72794356166486 kcal/mol)

>  <smiles>  (8) 
Cc1ccc2cc(C(N)=O)n(C(=O)C(=O)C(=O)NCCCNC(=O)CO)c2c1

>  <score_type>  (8) 
oracle

>  <origin>  (8) 
adg

>  <m_score__min__energy>  (8) 
-10.42

>  <m_primary>  (8) 
energy

$$$$
8:0
     RDKit          3D

 39 40  0  0  0  0  0  0  0  0999 V2000
   -2.9370   25.2940  -30.5170 H   0  0  0  0  0  0  0  0  0  0  0  0
   -3.8860   25.5830  -30.8430 N   0  0  0  0  0  0  0  0  0  0  0  0
   -5.0560   24.9190  -30.3740 C   0  0  0  0  0  0  0  0  0  0  0  0
   -5.6450   25.3550  -29.3490 O   0  0  0  0  0  0  0  0  0  0  0  0
   -5.5560   23.6980  -31.0400 C   0  0  0  0  0  0  0  0  0  0  0  0
   -6.9100   23.4170  -31.2110 C   0  0  0  0  0  0  0  0  0  0  0  0
   -7.7627   24.0622  -30.9528 H   0  0  0  0  0  0  0  0  0  0  0  0
   -6.9540   22.1600  -31.7720 C   0  0  0  0  0  0  0  0  0  0  0  0
   -8.0470   21.3910  -32.1600 C   0  0  0  0  0  0  0  0  0  0  0  0
   -9.0756   21.7550  -32.0205 H   0  0  0  0  0  0  0  0  0  0  0  0
   -7.7940   20.1340  -32.7360 C   0  0  0  0  0  0  0  0  0  0  0  0
   -8.6364   19.4989  -33.0473 H   0  0  0  0  0  0  0  0  0  0  0  0
   -6.4660   19.6760  -32.9200 C   0  0  0  0  0  0  0  0  0  0  0  0
   -6.2190   18.3370  -33.5530 C   0  0  0  0  0  0  0  0  0  0  0  0
   -5.2969   17.9060  -33.1360 H   0  0  0  0  0  0  0  0  0  0  0  0
   -6.0820   18.4870  -34.9210 F   0  0  0  0  0  0  0  0  0  0  0  0
   -7.2830   17.4930  -33.2900 F   0  0  0  0  0  0  0  0  0  0  0  0
   -5.3820   20.4870  -32.5170 C   0  0  0  0  0  0  0  0  0  0  0  0
   -4.3436   20.1542  -32.6620 H   0  0  0  0  0  0  0  0  0  0  0  0
   -5.6640   21.7260  -31.9280 C   0  0  0  0  0  0  0  0  0  0  0  0
   -4.7930   22.6600  -31.4890 N   0  0  0  0  0  0  0  0  0  0  0  0
   -3.3630   22.5820  -31.5570 C   0  0  0  0  0  0  0  0  0  0  0  0
   -2.8100   21.9870  -32.5220 O   0  0  0  0  0  0  0  0  0  0  0  0
   -2.5910   23.1570  -30.5420 O   0  0  0  0  0  0  0  0  0  0  0  0
   -2.3580   22.5380  -29.2790 C   0  0  1  0  0  0  0  0  0  0  0  0
   -1.2908   22.6010  -29.0197 H   0  0  0  0  0  0  0  0  0  0  0  0
   -3.1670   23.2540  -28.2220 C   0  0  0  0  0  0  0  0  0  0  0  0
   -4.1206   22.8059  -27.9059 H   0  0  0  0  0  0  0  0  0  0  0  0
   -2.7860   24.4090  -27.6460 C   0  0  0  0  0  0  0  0  0  0  0  0
   -3.4497   24.8487  -26.8869 H   0  0  0  0  0  0  0  0  0  0  0  0
   -1.5110   25.1380  -27.9730 C   0  0  0  0  0  0  0  0  0  0  0  0
   -1.3704   25.9644  -27.2607 H   0  0  0  0  0  0  0  0  0  0  0  0
   -0.6654   24.4381  -27.9023 H   0  0  0  0  0  0  0  0  0  0  0  0
   -1.5760   25.6520  -29.2730 O   0  0  0  0  0  0  0  0  0  0  0  0
   -1.9900   24.9420  -29.8290 H   0  0  0  0  0  0  0  0  0  0  0  0
   -2.7560   21.0620  -29.3500 C   0  0  0  0  0  0  0  0  0  0  0  0
   -2.8639   20.6619  -28.3310 H   0  0  0  0  0  0  0  0  0  0  0  0
   -3.7123   20.9654  -29.8850 H   0  0  0  0  0  0  0  0  0  0  0  0
   -1.9779   20.4978  -29.8850 H   0  0  0  0  0  0  0  0  0  0  0  0
  1  2  1  0
  2  3  1  0
  3  4  2  0
  3  5  1  0
  5  6  2  0
  6  7  1  0
  6  8  1  0
  8  9  2  0
  9 10  1  0
  9 11  1  0
 11 12  1  0
 11 13  2  0
 13 14  1  0
 14 15  1  0
 14 16  1  0
 14 17  1  0
 13 18  1  0
 18 19  1  0
 18 20  2  0
 20 21  1  0
 21 22  1  0
 22 23  2  0
 22 24  1  0
 24 25  1  0
 25 26  1  1
 25 27  1  0
 27 28  1  0
 27 29  2  0
 29 30  1  0
 29 31  1  0
 31 32  1  0
 31 33  1  0
 31 34  1  0
 34 35  1  0
 25 36  1  0
 36 37  1  0
 36 38  1  0
 36 39  1  0
 21  5  1  0
 20  8  1  0
M  CHG  1   2  -1
M  END
>  <UniqueID>  (9) 
9

>  <SMILES>  (9) 
C[C@H](/C=C\CO)OC(=O)n1c(C([NH-])=O)cc2ccc(C(F)F)cc21

>  <Energy>  (9) 
70.40091684937056

>  <Genealogy>  (9) 
CC(/C=C\CO)OC(=O)n1c(C([NH-])=O)cc2ccc(C(F)F)cc21 (protonated)
C[C@H](/C=C\CO)OC(=O)n1c(C([NH-])=O)cc2ccc(C(F)F)cc21 (chirality)
C[C@H](/C=C\CO)OC(=O)n1c(C([NH-])=O)cc2ccc(C(F)F)cc21 (cis-trans isomerization)
C[C@H](/C=C\CO)OC(=O)n1c(C([NH-])=O)cc2ccc(C(F)F)cc21 (3D coordinates assigned)
C[C@H](/C=C\CO)OC(=O)n1c(C([NH-])=O)cc2ccc(C(F)F)cc21 (optimized conformer: 70.40091684937056 kcal/mol)

>  <smiles>  (9) 
CC(/C=C\CO)OC(=O)n1c(C(N)=O)cc2ccc(C(F)F)cc21

>  <score_type>  (9) 
oracle

>  <origin>  (9) 
adg

>  <m_score__min__energy>  (9) 
-10.82

>  <m_primary>  (9) 
energy

$$$$
9:0
     RDKit          3D

 30 31  0  0  0  0  0  0  0  0999 V2000
   -7.1510   17.8530  -32.3020 C   0  0  0  0  0  0  0  0  0  0  0  0
   -7.8490   18.9940  -32.8820 N   0  0  0  0  0  0  0  0  0  0  0  0
   -7.7850   20.3260  -32.3380 C   0  0  0  0  0  0  0  0  0  0  0  0
   -8.9540   21.0110  -31.9100 C   0  0  0  0  0  0  0  0  0  0  0  0
   -8.8700   22.3050  -31.3700 C   0  0  0  0  0  0  0  0  0  0  0  0
   -7.6130   22.8940  -31.2770 C   0  0  0  0  0  0  0  0  0  0  0  0
   -7.2450   24.1190  -30.7700 C   0  0  0  0  0  0  0  0  0  0  0  0
   -5.8610   24.1800  -30.9180 C   0  0  0  0  0  0  0  0  0  0  0  0
   -5.0580   25.3720  -30.5760 C   0  0  0  0  0  0  0  0  0  0  0  0
   -3.6400   25.2940  -30.4670 N   0  0  0  0  0  0  0  0  0  0  0  0
   -5.6280   26.4860  -30.4250 O   0  0  0  0  0  0  0  0  0  0  0  0
   -5.3900   23.0330  -31.4850 N   0  0  0  0  0  0  0  0  0  0  0  0
   -4.0210   22.6650  -31.7120 C   0  0  0  0  0  0  0  0  0  0  0  0
   -3.1950   22.6960  -30.7600 O   0  0  0  0  0  0  0  0  0  0  0  0
   -3.6070   22.2920  -32.9950 O   0  0  0  0  0  0  0  0  0  0  0  0
   -2.7190   21.2070  -33.2430 C   0  0  0  0  0  0  0  0  0  0  0  0
   -3.6380   19.6960  -33.4740 Cl  0  0  0  0  0  0  0  0  0  0  0  0
   -6.4760   22.2570  -31.7010 C   0  0  0  0  0  0  0  0  0  0  0  0
   -6.5270   20.9600  -32.2240 C   0  0  0  0  0  0  0  0  0  0  0  0
   -7.1908   17.9180  -31.2046 H   0  0  0  0  0  0  0  0  0  0  0  0
   -7.6340   16.9214  -32.6319 H   0  0  0  0  0  0  0  0  0  0  0  0
   -6.1016   17.8587  -32.6319 H   0  0  0  0  0  0  0  0  0  0  0  0
   -8.4250   18.8250  -33.7380 H   0  0  0  0  0  0  0  0  0  0  0  0
   -9.9353   20.5227  -32.0025 H   0  0  0  0  0  0  0  0  0  0  0  0
   -9.7712   22.8368  -31.0308 H   0  0  0  0  0  0  0  0  0  0  0  0
   -7.9038   24.8873  -30.3392 H   0  0  0  0  0  0  0  0  0  0  0  0
   -3.0700   24.8130  -31.1980 H   0  0  0  0  0  0  0  0  0  0  0  0
   -2.1330   21.4176  -34.1498 H   0  0  0  0  0  0  0  0  0  0  0  0
   -2.0477   21.0893  -32.3796 H   0  0  0  0  0  0  0  0  0  0  0  0
   -5.6077   20.4450  -32.5396 H   0  0  0  0  0  0  0  0  0  0  0  0
  1  2  1  0
  2  3  1  0
  3  4  2  0
  4  5  1  0
  5  6  2  0
  6  7  1  0
  7  8  2  0
  8  9  1  0
  9 10  1  0
  9 11  2  0
  8 12  1  0
 12 13  1  0
 13 14  2  0
 13 15  1  0
 15 16  1  0
 16 17  1  0
 12 18  1  0
 18 19  2  0
 19  3  1  0
 18  6  1  0
  1 20  1  0
  1 21  1  0
  1 22  1  0
  2 23  1  0
  4 24  1  0
  5 25  1  0
  7 26  1  0
 10 27  1  0
 16 28  1  0
 16 29  1  0
 19 30  1  0
M  CHG  1  10  -1
M  END
>  <UniqueID>  (10) 
10

>  <SMILES>  (10) 
CNc1ccc2cc(C([NH-])=O)n(C(=O)OCCl)c2c1

>  <Energy>  (10) 
66.53971967694625

>  <Genealogy>  (10) 
CNc1ccc2cc(C([NH-])=O)n(C(=O)OCCl)c2c1 (protonated)
CNc1ccc2cc(C([NH-])=O)n(C(=O)OCCl)c2c1 (3D coordinates assigned)
CNc1ccc2cc(C([NH-])=O)n(C(=O)OCCl)c2c1 (optimized conformer: 66.53971967694625 kcal/mol)

>  <smiles>  (10) 
CNc1ccc2cc(C(N)=O)n(C(=O)OCCl)c2c1

>  <score_type>  (10) 
oracle

>  <origin>  (10) 
adg

>  <m_score__min__energy>  (10) 
-9.6199999999999992

>  <m_primary>  (10) 
energy

$$$$
10:0
     RDKit          3D

 48 51  0  0  0  0  0  0  0  0999 V2000
   -3.9370   23.3600  -27.9510 C   0  0  0  0  0  0  0  0  0  0  0  0
   -2.8420   22.6800  -28.7950 C   0  0  0  0  0  0  0  0  0  0  0  0
   -3.0560   21.1540  -28.8350 C   0  0  0  0  0  0  0  0  0  0  0  0
   -1.4730   22.9730  -28.1630 C   0  0  0  0  0  0  0  0  0  0  0  0
   -2.8190   23.2230  -30.1230 O   0  0  0  0  0  0  0  0  0  0  0  0
   -3.5000   22.7170  -31.2420 C   0  0  0  0  0  0  0  0  0  0  0  0
   -2.8780   22.1280  -32.1660 O   0  0  0  0  0  0  0  0  0  0  0  0
   -4.9270   22.8540  -31.3200 N   0  0  0  0  0  0  0  0  0  0  0  0
   -5.6850   23.9130  -30.9180 C   0  0  0  0  0  0  0  0  0  0  0  0
   -5.1750   25.2270  -30.4770 C   0  0  0  0  0  0  0  0  0  0  0  0
   -3.8690   25.6670  -30.8420 N   0  0  0  0  0  0  0  0  0  0  0  0
   -5.9200   25.9940  -29.8110 O   0  0  0  0  0  0  0  0  0  0  0  0
   -7.0410   23.6220  -31.0500 C   0  0  0  0  0  0  0  0  0  0  0  0
   -7.0930   22.3450  -31.5570 C   0  0  0  0  0  0  0  0  0  0  0  0
   -8.1920   21.5490  -31.8700 C   0  0  0  0  0  0  0  0  0  0  0  0
   -7.9490   20.2500  -32.3470 C   0  0  0  0  0  0  0  0  0  0  0  0
   -6.6240   19.7740  -32.4910 C   0  0  0  0  0  0  0  0  0  0  0  0
   -6.3910   18.4460  -32.9650 N   0  0  0  0  0  0  0  0  0  0  0  0
   -6.3330   17.0780  -32.3910 C   0  0  0  0  0  0  0  0  0  0  0  0
   -6.0360   16.4230  -33.6870 C   0  0  0  0  0  0  0  0  0  0  0  0
   -6.8550   15.2910  -34.2230 C   0  0  0  0  0  0  0  0  0  0  0  0
   -5.6950   14.4900  -34.3780 O   0  0  0  0  0  0  0  0  0  0  0  0
   -4.8580   15.5190  -33.8790 C   0  0  0  0  0  0  0  0  0  0  0  0
   -6.0930   17.7890  -34.2610 C   0  0  0  0  0  0  0  0  0  0  0  0
   -5.5340   20.6050  -32.1640 C   0  0  0  0  0  0  0  0  0  0  0  0
   -5.8040   21.9020  -31.7090 C   0  0  0  0  0  0  0  0  0  0  0  0
   -3.7150   23.2221  -26.8825 H   0  0  0  0  0  0  0  0  0  0  0  0
   -3.9651   24.4347  -28.1840 H   0  0  0  0  0  0  0  0  0  0  0  0
   -4.9127   22.9087  -28.1840 H   0  0  0  0  0  0  0  0  0  0  0  0
   -3.1106   20.7644  -27.8078 H   0  0  0  0  0  0  0  0  0  0  0  0
   -3.9945   20.9291  -29.3629 H   0  0  0  0  0  0  0  0  0  0  0  0
   -2.2156   20.6796  -29.3629 H   0  0  0  0  0  0  0  0  0  0  0  0
   -1.5635   22.9536  -27.0669 H   0  0  0  0  0  0  0  0  0  0  0  0
   -0.7496   22.2093  -28.4848 H   0  0  0  0  0  0  0  0  0  0  0  0
   -1.1255   23.9658  -28.4848 H   0  0  0  0  0  0  0  0  0  0  0  0
   -3.0220   25.2900  -30.3640 H   0  0  0  0  0  0  0  0  0  0  0  0
   -7.8902   24.2755  -30.8013 H   0  0  0  0  0  0  0  0  0  0  0  0
   -9.2183   21.9255  -31.7476 H   0  0  0  0  0  0  0  0  0  0  0  0
   -8.7949   19.5981  -32.6105 H   0  0  0  0  0  0  0  0  0  0  0  0
   -5.5287   16.9544  -31.6508 H   0  0  0  0  0  0  0  0  0  0  0  0
   -7.2017   16.7206  -31.8186 H   0  0  0  0  0  0  0  0  0  0  0  0
   -7.5814   14.8872  -33.5023 H   0  0  0  0  0  0  0  0  0  0  0  0
   -7.5236   15.4574  -35.0805 H   0  0  0  0  0  0  0  0  0  0  0  0
   -4.3409   15.2576  -32.9440 H   0  0  0  0  0  0  0  0  0  0  0  0
   -3.9974   15.8605  -34.4729 H   0  0  0  0  0  0  0  0  0  0  0  0
   -5.1374   18.1130  -34.6991 H   0  0  0  0  0  0  0  0  0  0  0  0
   -6.7806   17.9679  -35.1008 H   0  0  0  0  0  0  0  0  0  0  0  0
   -4.4993   20.2450  -32.2633 H   0  0  0  0  0  0  0  0  0  0  0  0
  1  2  1  0
  2  3  1  0
  2  4  1  0
  2  5  1  0
  5  6  1  0
  6  7  2  0
  6  8  1  0
  8  9  1  0
  9 10  1  0
 10 11  1  0
 10 12  2  0
  9 13  2  0
 13 14  1  0
 14 15  2  0
 15 16  1  0
 16 17  2  0
 17 18  1  0
 18 19  1  0
 19 20  1  0
 20 21  1  0
 21 22  1  0
 22 23  1  0
 20 24  1  0
 17 25  1  0
 25 26  2  0
 26  8  1  0
 26 14  1  0
 24 18  1  0
 23 20  1  0
  1 27  1  0
  1 28  1  0
  1 29  1  0
  3 30  1  0
  3 31  1  0
  3 32  1  0
  4 33  1  0
  4 34  1  0
  4 35  1  0
 11 36  1  0
 13 37  1  0
 15 38  1  0
 16 39  1  0
 19 40  1  0
 19 41  1  0
 21 42  1  0
 21 43  1  0
 23 44  1  0
 23 45  1  0
 24 46  1  0
 24 47  1  0
 25 48  1  0
M  CHG  1  11  -1
M  END
>  <UniqueID>  (11) 
11

>  <SMILES>  (11) 
CC(C)(C)OC(=O)n1c(C([NH-])=O)cc2ccc(N3CC4(COC4)C3)cc21

>  <Energy>  (11) 
207.97248898687218

>  <Genealogy>  (11) 
CC(C)(C)OC(=O)n1c(C([NH-])=O)cc2ccc(N3CC4(COC4)C3)cc21 (protonated)
CC(C)(C)OC(=O)n1c(C([NH-])=O)cc2ccc(N3CC4(COC4)C3)cc21 (3D coordinates assigned)
CC(C)(C)OC(=O)n1c(C([NH-])=O)cc2ccc(N3CC4(COC4)C3)cc21 (nonaromatic ring conformer: 207.97248898687218 kcal/mol)

>  <smiles>  (11) 
CC(C)(C)OC(=O)n1c(C(N)=O)cc2ccc(N3CC4(COC4)C3)cc21

>  <score_type>  (11) 
oracle

>  <origin>  (11) 
adg

>  <m_score__min__energy>  (11) 
-10.99

>  <m_primary>  (11) 
energy

$$$$
11:0
     RDKit          3D

 39 40  0  0  0  0  0  0  0  0999 V2000
   -3.5650   25.2930  -30.0600 N   0  0  0  0  0  0  0  0  0  0  0  0
   -4.9380   25.3080  -30.4420 C   0  0  0  0  0  0  0  0  0  0  0  0
   -5.5520   26.4080  -30.4890 O   0  0  0  0  0  0  0  0  0  0  0  0
   -5.6300   24.0650  -30.8390 C   0  0  0  0  0  0  0  0  0  0  0  0
   -6.9850   24.0120  -31.1600 C   0  0  0  0  0  0  0  0  0  0  0  0
   -7.2150   22.7140  -31.5540 C   0  0  0  0  0  0  0  0  0  0  0  0
   -8.3960   22.0990  -31.9600 C   0  0  0  0  0  0  0  0  0  0  0  0
   -8.3530   20.7300  -32.2720 C   0  0  0  0  0  0  0  0  0  0  0  0
   -7.1360   20.0040  -32.1860 C   0  0  0  0  0  0  0  0  0  0  0  0
   -7.1130   18.5220  -32.4640 C   0  0  0  0  0  0  0  0  0  0  0  0
   -6.2340   17.8820  -31.6090 F   0  0  0  0  0  0  0  0  0  0  0  0
   -8.3820   18.0050  -32.2780 F   0  0  0  0  0  0  0  0  0  0  0  0
   -6.7110   18.2730  -33.7650 F   0  0  0  0  0  0  0  0  0  0  0  0
   -5.9630   20.6610  -31.7470 C   0  0  0  0  0  0  0  0  0  0  0  0
   -6.0320   22.0300  -31.4590 C   0  0  0  0  0  0  0  0  0  0  0  0
   -5.0480   22.8450  -31.0170 N   0  0  0  0  0  0  0  0  0  0  0  0
   -3.7010   22.4630  -30.7000 C   0  0  0  0  0  0  0  0  0  0  0  0
   -2.7330   23.1580  -31.1140 O   0  0  0  0  0  0  0  0  0  0  0  0
   -3.4670   21.3080  -29.9470 O   0  0  0  0  0  0  0  0  0  0  0  0
   -2.1630   20.8960  -29.5550 C   0  0  0  0  0  0  0  0  0  0  0  0
   -1.6840   21.7750  -28.4460 C   0  0  0  0  0  0  0  0  0  0  0  0
   -1.0520   21.2710  -27.4780 O   0  0  0  0  0  0  0  0  0  0  0  0
   -1.9170   23.1880  -28.5000 N   0  0  0  0  0  0  0  0  0  0  0  0
   -1.4400   24.0810  -27.4440 C   0  0  0  0  0  0  0  0  0  0  0  0
   -1.2920   25.5180  -27.9490 C   0  0  0  0  0  0  0  0  0  0  0  0
   -1.1790   25.5420  -29.3470 O   0  0  0  0  0  0  0  0  0  0  0  0
   -2.8080   25.3010  -30.7770 H   0  0  0  0  0  0  0  0  0  0  0  0
   -7.7152   24.8331  -31.1092 H   0  0  0  0  0  0  0  0  0  0  0  0
   -9.3346   22.6679  -32.0343 H   0  0  0  0  0  0  0  0  0  0  0  0
   -9.2726   20.2147  -32.5865 H   0  0  0  0  0  0  0  0  0  0  0  0
   -5.0180   20.1094  -31.6343 H   0  0  0  0  0  0  0  0  0  0  0  0
   -2.1950   19.8521  -29.2097 H   0  0  0  0  0  0  0  0  0  0  0  0
   -1.4772   20.9739  -30.4115 H   0  0  0  0  0  0  0  0  0  0  0  0
   -2.4230   23.5780  -29.3290 H   0  0  0  0  0  0  0  0  0  0  0  0
   -2.1594   24.0669  -26.6119 H   0  0  0  0  0  0  0  0  0  0  0  0
   -0.4520   23.7279  -27.1136 H   0  0  0  0  0  0  0  0  0  0  0  0
   -2.1758   26.0996  -27.6479 H   0  0  0  0  0  0  0  0  0  0  0  0
   -0.3816   25.9547  -27.5126 H   0  0  0  0  0  0  0  0  0  0  0  0
   -1.8120   24.8630  -29.6990 H   0  0  0  0  0  0  0  0  0  0  0  0
  1  2  1  0
  2  3  2  0
  2  4  1  0
  4  5  2  0
  5  6  1  0
  6  7  2  0
  7  8  1  0
  8  9  2  0
  9 10  1  0
 10 11  1  0
 10 12  1  0
 10 13  1  0
  9 14  1  0
 14 15  2  0
 15 16  1  0
 16 17  1  0
 17 18  2  0
 17 19  1  0
 19 20  1  0
 20 21  1  0
 21 22  2  0
 21 23  1  0
 23 24  1  0
 24 25  1  0
 25 26  1  0
 16  4  1  0
 15  6  1  0
  1 27  1  0
  5 28  1  0
  7 29  1  0
  8 30  1  0
 14 31  1  0
 20 32  1  0
 20 33  1  0
 23 34  1  0
 24 35  1  0
 24 36  1  0
 25 37  1  0
 25 38  1  0
 26 39  1  0
M  CHG  1   1  -1
M  END
>  <UniqueID>  (12) 
12

>  <SMILES>  (12) 
[NH-]C(=O)c1cc2ccc(C(F)(F)F)cc2n1C(=O)OCC(=O)NCCO

>  <Energy>  (12) 
71.09452338311901

>  <Genealogy>  (12) 
[NH-]C(=O)c1cc2ccc(C(F)(F)F)cc2n1C(=O)OCC(=O)NCCO (protonated)
[NH-]C(=O)c1cc2ccc(C(F)(F)F)cc2n1C(=O)OCC(=O)NCCO (3D coordinates assigned)
[NH-]C(=O)c1cc2ccc(C(F)(F)F)cc2n1C(=O)OCC(=O)NCCO (optimized conformer: 71.09452338311901 kcal/mol)

>  <smiles>  (12) 
NC(=O)c1cc2ccc(C(F)(F)F)cc2n1C(=O)OCC(=O)NCCO

>  <score_type>  (12) 
oracle

>  <origin>  (12) 
adg

>  <m_score__min__energy>  (12) 
-10.050000000000001

>  <m_primary>  (12) 
energy

$$$$
12:0
     RDKit          3D

 50 52  0  0  0  0  0  0  0  0999 V2000
   -2.3390   25.7200  -25.8220 C   0  0  0  0  0  0  0  0  0  0  0  0
   -1.3380   24.7670  -26.4560 C   0  0  0  0  0  0  0  0  0  0  0  0
   -1.9640   24.0810  -27.5130 O   0  0  0  0  0  0  0  0  0  0  0  0
   -1.1070   24.4080  -28.9510 P   0  0  2  0  0  0  0  0  0  0  0  0
    0.3520   24.0530  -28.7690 O   0  0  0  0  0  0  0  0  0  0  0  0
   -1.2500   26.0490  -29.3430 O   0  0  0  0  0  0  0  0  0  0  0  0
   -1.7810   23.4590  -30.1960 O   0  0  0  0  0  0  0  0  0  0  0  0
   -0.9940   22.3020  -30.3580 C   0  0  0  0  0  0  0  0  0  0  0  0
   -1.7380   21.3000  -31.2400 C   0  0  0  0  0  0  0  0  0  0  0  0
   -3.0660   21.7490  -31.5090 O   0  0  0  0  0  0  0  0  0  0  0  0
   -4.0520   21.8900  -30.5270 C   0  0  0  0  0  0  0  0  0  0  0  0
   -3.8360   21.5070  -29.3430 O   0  0  0  0  0  0  0  0  0  0  0  0
   -5.3230   22.4650  -30.8670 N   0  0  0  0  0  0  0  0  0  0  0  0
   -5.7450   23.7390  -30.6320 C   0  0  0  0  0  0  0  0  0  0  0  0
   -4.9080   24.8440  -30.1230 C   0  0  0  0  0  0  0  0  0  0  0  0
   -3.8660   24.6050  -29.1760 N   0  0  0  0  0  0  0  0  0  0  0  0
   -5.0810   26.0090  -30.5700 O   0  0  0  0  0  0  0  0  0  0  0  0
   -7.0830   23.8880  -30.9860 C   0  0  0  0  0  0  0  0  0  0  0  0
   -7.4690   22.6570  -31.4650 C   0  0  0  0  0  0  0  0  0  0  0  0
   -8.7090   22.2290  -31.9330 C   0  0  0  0  0  0  0  0  0  0  0  0
   -8.8380   20.8850  -32.3220 C   0  0  0  0  0  0  0  0  0  0  0  0
   -7.7340   20.0010  -32.2390 C   0  0  0  0  0  0  0  0  0  0  0  0
   -7.9000   18.5530  -32.5990 C   0  0  0  0  0  0  0  0  0  0  0  0
   -6.6370   18.0180  -33.0970 N   0  0  0  0  0  0  0  0  0  0  0  0
   -6.0400   18.3540  -34.2570 C   0  0  0  0  0  0  0  0  0  0  0  0
   -4.8420   17.6820  -34.3160 C   0  0  0  0  0  0  0  0  0  0  0  0
   -3.9220   17.7390  -35.3070 F   0  0  0  0  0  0  0  0  0  0  0  0
   -4.7610   16.9550  -33.1470 C   0  0  0  0  0  0  0  0  0  0  0  0
   -5.8690   17.1830  -32.4140 N   0  0  0  0  0  0  0  0  0  0  0  0
   -6.4960   20.4670  -31.7460 C   0  0  0  0  0  0  0  0  0  0  0  0
   -6.3900   21.8150  -31.3830 C   0  0  0  0  0  0  0  0  0  0  0  0
   -2.2672   25.6516  -24.7265 H   0  0  0  0  0  0  0  0  0  0  0  0
   -2.1177   26.7494  -26.1404 H   0  0  0  0  0  0  0  0  0  0  0  0
   -3.3563   25.4484  -26.1404 H   0  0  0  0  0  0  0  0  0  0  0  0
   -0.4804   25.3369  -26.8430 H   0  0  0  0  0  0  0  0  0  0  0  0
   -0.9834   24.0467  -25.7041 H   0  0  0  0  0  0  0  0  0  0  0  0
   -0.0394   22.5713  -30.8337 H   0  0  0  0  0  0  0  0  0  0  0  0
   -0.7985   21.8505  -29.3742 H   0  0  0  0  0  0  0  0  0  0  0  0
   -1.1967   21.1851  -32.1907 H   0  0  0  0  0  0  0  0  0  0  0  0
   -1.7920   20.3371  -30.7110 H   0  0  0  0  0  0  0  0  0  0  0  0
   -3.5810   23.6330  -28.9250 H   0  0  0  0  0  0  0  0  0  0  0  0
   -3.3150   25.4030  -28.7880 H   0  0  0  0  0  0  0  0  0  0  0  0
   -7.6995   24.7951  -30.9011 H   0  0  0  0  0  0  0  0  0  0  0  0
   -9.5611   22.9218  -31.9961 H   0  0  0  0  0  0  0  0  0  0  0  0
   -9.8050   20.5158  -32.6944 H   0  0  0  0  0  0  0  0  0  0  0  0
   -8.2091   17.9883  -31.7070 H   0  0  0  0  0  0  0  0  0  0  0  0
   -8.6671   18.4597  -33.3819 H   0  0  0  0  0  0  0  0  0  0  0  0
   -6.4384   19.0408  -35.0182 H   0  0  0  0  0  0  0  0  0  0  0  0
   -3.9281   16.2965  -32.8596 H   0  0  0  0  0  0  0  0  0  0  0  0
   -5.6360   19.7879  -31.6495 H   0  0  0  0  0  0  0  0  0  0  0  0
  1  2  1  0
  2  3  1  0
  3  4  1  0
  4  5  2  0
  4  6  1  6
  4  7  1  0
  7  8  1  0
  8  9  1  0
  9 10  1  0
 10 11  1  0
 11 12  2  0
 11 13  1  0
 13 14  1  0
 14 15  1  0
 15 16  1  0
 15 17  2  0
 14 18  2  0
 18 19  1  0
 19 20  2  0
 20 21  1  0
 21 22  2  0
 22 23  1  0
 23 24  1  0
 24 25  1  0
 25 26  2  0
 26 27  1  0
 26 28  1  0
 28 29  2  0
 22 30  1  0
 30 31  2  0
 31 13  1  0
 31 19  1  0
 29 24  1  0
  1 32  1  0
  1 33  1  0
  1 34  1  0
  2 35  1  0
  2 36  1  0
  8 37  1  0
  8 38  1  0
  9 39  1  0
  9 40  1  0
 16 41  1  0
 16 42  1  0
 18 43  1  0
 20 44  1  0
 21 45  1  0
 23 46  1  0
 23 47  1  0
 25 48  1  0
 28 49  1  0
 30 50  1  0
M  CHG  1   6  -1
M  END
>  <UniqueID>  (13) 
13

>  <SMILES>  (13) 
CCO[P@](=O)([O-])OCCOC(=O)n1c(C(N)=O)cc2ccc(Cn3cc(F)cn3)cc21

>  <Energy>  (13) 
111.52226303487701

>  <Genealogy>  (13) 
CCOP(=O)([O-])OCCOC(=O)n1c(C(N)=O)cc2ccc(Cn3cc(F)cn3)cc21 (protonated)
CCO[P@](=O)([O-])OCCOC(=O)n1c(C(N)=O)cc2ccc(Cn3cc(F)cn3)cc21 (chirality)
CCO[P@](=O)([O-])OCCOC(=O)n1c(C(N)=O)cc2ccc(Cn3cc(F)cn3)cc21 (3D coordinates assigned)
CCO[P@](=O)([O-])OCCOC(=O)n1c(C(N)=O)cc2ccc(Cn3cc(F)cn3)cc21 (optimized conformer: 111.52226303487701 kcal/mol)

>  <smiles>  (13) 
CCOP(=O)(O)OCCOC(=O)n1c(C(N)=O)cc2ccc(Cn3cc(F)cn3)cc21

>  <score_type>  (13) 
oracle

>  <origin>  (13) 
adg

>  <m_score__min__energy>  (13) 
-11.779999999999999

>  <m_primary>  (13) 
energy

$$$$
13:0
     RDKit          3D

 46 48  0  0  0  0  0  0  0  0999 V2000
   -3.9640   25.6700  -30.8500 N   0  0  0  0  0  0  0  0  0  0  0  0
   -5.2300   25.1400  -30.4630 C   0  0  0  0  0  0  0  0  0  0  0  0
   -5.9830   25.8220  -29.7190 O   0  0  0  0  0  0  0  0  0  0  0  0
   -5.6250   23.7850  -30.9030 C   0  0  0  0  0  0  0  0  0  0  0  0
   -6.9450   23.4170  -31.1530 C   0  0  0  0  0  0  0  0  0  0  0  0
   -6.8790   22.1350  -31.6480 C   0  0  0  0  0  0  0  0  0  0  0  0
   -7.8930   21.2920  -32.0930 C   0  0  0  0  0  0  0  0  0  0  0  0
   -7.5290   20.0300  -32.5910 C   0  0  0  0  0  0  0  0  0  0  0  0
   -6.1690   19.6300  -32.6280 C   0  0  0  0  0  0  0  0  0  0  0  0
   -5.7890   18.2940  -33.2160 C   0  0  0  0  0  0  0  0  0  0  0  0
   -4.2850   17.9780  -33.1040 C   0  0  0  0  0  0  0  0  0  0  0  0
   -3.4100   18.6790  -34.1630 C   0  0  0  0  0  0  0  0  0  0  0  0
   -2.2600   19.4490  -33.5590 C   0  0  0  0  0  0  0  0  0  0  0  0
   -1.5500   20.3890  -34.3290 C   0  0  0  0  0  0  0  0  0  0  0  0
   -0.4550   21.0650  -33.7830 C   0  0  0  0  0  0  0  0  0  0  0  0
   -0.0650   20.8190  -32.4640 C   0  0  0  0  0  0  0  0  0  0  0  0
   -0.7800   19.9070  -31.6830 C   0  0  0  0  0  0  0  0  0  0  0  0
   -1.8770   19.2290  -32.2240 C   0  0  0  0  0  0  0  0  0  0  0  0
   -5.1730   20.4960  -32.1220 C   0  0  0  0  0  0  0  0  0  0  0  0
   -5.5600   21.7630  -31.6720 C   0  0  0  0  0  0  0  0  0  0  0  0
   -4.7770   22.7650  -31.2170 N   0  0  0  0  0  0  0  0  0  0  0  0
   -3.3460   22.7380  -31.1080 C   0  0  0  0  0  0  0  0  0  0  0  0
   -2.6470   22.3270  -32.0750 O   0  0  0  0  0  0  0  0  0  0  0  0
   -2.7320   23.1910  -29.9340 O   0  0  0  0  0  0  0  0  0  0  0  0
   -1.3250   23.1610  -29.7200 C   0  0  0  0  0  0  0  0  0  0  0  0
   -0.8620   24.4530  -29.1260 C   0  0  0  0  0  0  0  0  0  0  0  0
    0.2160   24.4980  -28.4770 O   0  0  0  0  0  0  0  0  0  0  0  0
   -1.6020   25.6130  -29.3160 O   0  0  0  0  0  0  0  0  0  0  0  0
   -3.0770   25.2620  -30.4830 H   0  0  0  0  0  0  0  0  0  0  0  0
   -7.8484   24.0228  -30.9894 H   0  0  0  0  0  0  0  0  0  0  0  0
   -8.9471   21.6044  -32.0559 H   0  0  0  0  0  0  0  0  0  0  0  0
   -8.3077   19.3443  -32.9564 H   0  0  0  0  0  0  0  0  0  0  0  0
   -6.3499   17.5090  -32.6877 H   0  0  0  0  0  0  0  0  0  0  0  0
   -6.0326   18.3315  -34.2880 H   0  0  0  0  0  0  0  0  0  0  0  0
   -3.9398   18.2930  -32.1082 H   0  0  0  0  0  0  0  0  0  0  0  0
   -4.1765   16.8962  -33.2709 H   0  0  0  0  0  0  0  0  0  0  0  0
   -3.0029   17.9160  -34.8428 H   0  0  0  0  0  0  0  0  0  0  0  0
   -4.0484   19.4011  -34.6932 H   0  0  0  0  0  0  0  0  0  0  0  0
   -1.8581   20.5927  -35.3651 H   0  0  0  0  0  0  0  0  0  0  0  0
    0.1009   21.7922  -34.3931 H   0  0  0  0  0  0  0  0  0  0  0  0
    0.8045   21.3430  -32.0405 H   0  0  0  0  0  0  0  0  0  0  0  0
   -0.4795   19.7221  -30.6411 H   0  0  0  0  0  0  0  0  0  0  0  0
   -2.4431   18.5200  -31.6020 H   0  0  0  0  0  0  0  0  0  0  0  0
   -4.1196   20.1816  -32.0830 H   0  0  0  0  0  0  0  0  0  0  0  0
   -1.0800   22.3375  -29.0331 H   0  0  0  0  0  0  0  0  0  0  0  0
   -0.8197   23.0099  -30.6853 H   0  0  0  0  0  0  0  0  0  0  0  0
  1  2  1  0
  2  3  2  0
  2  4  1  0
  4  5  2  0
  5  6  1  0
  6  7  2  0
  7  8  1  0
  8  9  2  0
  9 10  1  0
 10 11  1  0
 11 12  1  0
 12 13  1  0
 13 14  2  0
 14 15  1  0
 15 16  2  0
 16 17  1  0
 17 18  2  0
  9 19  1  0
 19 20  2  0
 20 21  1  0
 21 22  1  0
 22 23  2  0
 22 24  1  0
 24 25  1  0
 25 26  1  0
 26 27  2  0
 26 28  1  0
 21  4  1  0
 20  6  1  0
 18 13  1  0
  1 29  1  0
  5 30  1  0
  7 31  1  0
  8 32  1  0
 10 33  1  0
 10 34  1  0
 11 35  1  0
 11 36  1  0
 12 37  1  0
 12 38  1  0
 14 39  1  0
 15 40  1  0
 16 41  1  0
 17 42  1  0
 18 43  1  0
 19 44  1  0
 25 45  1  0
 25 46  1  0
M  CHG  2   1  -1  28  -1
M  END
>  <UniqueID>  (14) 
14

>  <SMILES>  (14) 
[NH-]C(=O)c1cc2ccc(CCCc3ccccc3)cc2n1C(=O)OCC(=O)[O-]

>  <Energy>  (14) 
76.76755546081097

>  <Genealogy>  (14) 
[NH-]C(=O)c1cc2ccc(CCCc3ccccc3)cc2n1C(=O)OCC(=O)[O-] (protonated)
[NH-]C(=O)c1cc2ccc(CCCc3ccccc3)cc2n1C(=O)OCC(=O)[O-] (3D coordinates assigned)
[NH-]C(=O)c1cc2ccc(CCCc3ccccc3)cc2n1C(=O)OCC(=O)[O-] (optimized conformer: 76.76755546081097 kcal/mol)

>  <smiles>  (14) 
NC(=O)c1cc2ccc(CCCc3ccccc3)cc2n1C(=O)OCC(=O)O

>  <score_type>  (14) 
oracle

>  <origin>  (14) 
adg

>  <m_score__min__energy>  (14) 
-13.039999999999999

>  <m_primary>  (14) 
energy

$$$$
14:0
     RDKit          3D

 36 37  0  0  0  0  0  0  0  0999 V2000
   -4.1220   25.6540  -30.7480 N   0  0  0  0  0  0  0  0  0  0  0  0
   -5.1540   24.9050  -30.1130 C   0  0  0  0  0  0  0  0  0  0  0  0
   -5.6160   25.3020  -29.0100 O   0  0  0  0  0  0  0  0  0  0  0  0
   -5.7280   23.7030  -30.7550 C   0  0  0  0  0  0  0  0  0  0  0  0
   -7.0970   23.4690  -30.8570 C   0  0  0  0  0  0  0  0  0  0  0  0
   -7.2160   22.3110  -31.5920 C   0  0  0  0  0  0  0  0  0  0  0  0
   -8.3530   21.6150  -31.9870 C   0  0  0  0  0  0  0  0  0  0  0  0
   -8.1800   20.4290  -32.7200 C   0  0  0  0  0  0  0  0  0  0  0  0
   -6.8770   19.9530  -33.0340 C   0  0  0  0  0  0  0  0  0  0  0  0
   -6.6710   18.7350  -33.7780 N   0  0  0  0  0  0  0  0  0  0  0  0
   -6.2130   17.4710  -33.2000 C   0  0  0  0  0  0  0  0  0  0  0  0
   -5.3190   16.7170  -34.1860 C   0  0  0  0  0  0  0  0  0  0  0  0
   -5.2300   17.4200  -35.3950 O   0  0  0  0  0  0  0  0  0  0  0  0
   -5.7500   20.6940  -32.6160 C   0  0  0  0  0  0  0  0  0  0  0  0
   -5.9540   21.8820  -31.9030 C   0  0  0  0  0  0  0  0  0  0  0  0
   -5.0280   22.7230  -31.3930 N   0  0  0  0  0  0  0  0  0  0  0  0
   -3.6040   22.5540  -31.4530 C   0  0  0  0  0  0  0  0  0  0  0  0
   -3.1120   21.5650  -32.0620 O   0  0  0  0  0  0  0  0  0  0  0  0
   -2.7670   23.5040  -30.8550 O   0  0  0  0  0  0  0  0  0  0  0  0
   -2.2430   23.3670  -29.5370 C   0  0  0  0  0  0  0  0  0  0  0  0
   -1.2440   24.4460  -29.2610 C   0  0  0  0  0  0  0  0  0  0  0  0
   -1.5850   25.6560  -29.3120 O   0  0  0  0  0  0  0  0  0  0  0  0
    0.0740   24.1120  -28.9750 O   0  0  0  0  0  0  0  0  0  0  0  0
   -3.1370   25.3070  -30.7610 H   0  0  0  0  0  0  0  0  0  0  0  0
   -7.9107   24.0799  -30.4390 H   0  0  0  0  0  0  0  0  0  0  0  0
   -9.3584   21.9821  -31.7331 H   0  0  0  0  0  0  0  0  0  0  0  0
   -9.0616   19.8626  -33.0546 H   0  0  0  0  0  0  0  0  0  0  0  0
   -6.8710   18.7420  -34.8040 H   0  0  0  0  0  0  0  0  0  0  0  0
   -5.6430   17.6792  -32.2825 H   0  0  0  0  0  0  0  0  0  0  0  0
   -7.0906   16.8484  -32.9716 H   0  0  0  0  0  0  0  0  0  0  0  0
   -4.3131   16.6082  -33.7542 H   0  0  0  0  0  0  0  0  0  0  0  0
   -5.7546   15.7255  -34.3790 H   0  0  0  0  0  0  0  0  0  0  0  0
   -4.4230   17.0800  -35.8630 H   0  0  0  0  0  0  0  0  0  0  0  0
   -4.7324   20.3452  -32.8458 H   0  0  0  0  0  0  0  0  0  0  0  0
   -3.0654   23.4393  -28.8101 H   0  0  0  0  0  0  0  0  0  0  0  0
   -1.7472   22.3890  -29.4488 H   0  0  0  0  0  0  0  0  0  0  0  0
  1  2  1  0
  2  3  2  0
  2  4  1  0
  4  5  2  0
  5  6  1  0
  6  7  2  0
  7  8  1  0
  8  9  2  0
  9 10  1  0
 10 11  1  0
 11 12  1  0
 12 13  1  0
  9 14  1  0
 14 15  2  0
 15 16  1  0
 16 17  1  0
 17 18  2  0
 17 19  1  0
 19 20  1  0
 20 21  1  0
 21 22  2  0
 21 23  1  0
 16  4  1  0
 15  6  1  0
  1 24  1  0
  5 25  1  0
  7 26  1  0
  8 27  1  0
 10 28  1  0
 11 29  1  0
 11 30  1  0
 12 31  1  0
 12 32  1  0
 13 33  1  0
 14 34  1  0
 20 35  1  0
 20 36  1  0
M  CHG  2   1  -1  23  -1
M  END
>  <UniqueID>  (15) 
15

>  <SMILES>  (15) 
[NH-]C(=O)c1cc2ccc(NCCO)cc2n1C(=O)OCC(=O)[O-]

>  <Energy>  (15) 
70.74557487602704

>  <Genealogy>  (15) 
[NH-]C(=O)c1cc2ccc(NCCO)cc2n1C(=O)OCC(=O)[O-] (protonated)
[NH-]C(=O)c1cc2ccc(NCCO)cc2n1C(=O)OCC(=O)[O-] (3D coordinates assigned)
[NH-]C(=O)c1cc2ccc(NCCO)cc2n1C(=O)OCC(=O)[O-] (optimized conformer: 70.74557487602704 kcal/mol)

>  <smiles>  (15) 
NC(=O)c1cc2ccc(NCCO)cc2n1C(=O)OCC(=O)O

>  <score_type>  (15) 
oracle

>  <origin>  (15) 
adg

>  <m_score__min__energy>  (15) 
-11.470000000000001

>  <m_primary>  (15) 
energy

$$$$
15:0
     RDKit          3D

 40 42  0  0  0  0  0  0  0  0999 V2000
   -3.8900   25.6600  -30.8520 N   0  0  0  0  0  0  0  0  0  0  0  0
   -5.2300   25.3870  -30.4470 C   0  0  0  0  0  0  0  0  0  0  0  0
   -5.8220   26.2010  -29.6890 O   0  0  0  0  0  0  0  0  0  0  0  0
   -5.9100   24.1410  -30.8570 C   0  0  0  0  0  0  0  0  0  0  0  0
   -7.2920   24.0310  -30.9900 C   0  0  0  0  0  0  0  0  0  0  0  0
   -7.5250   22.7080  -31.2910 C   0  0  0  0  0  0  0  0  0  0  0  0
   -8.7200   22.0450  -31.5380 C   0  0  0  0  0  0  0  0  0  0  0  0
   -8.6650   20.6770  -31.8530 C   0  0  0  0  0  0  0  0  0  0  0  0
   -7.4190   19.9930  -31.9270 C   0  0  0  0  0  0  0  0  0  0  0  0
   -7.3120   18.5880  -32.2590 N   0  0  0  0  0  0  0  0  0  0  0  0
   -6.3950   17.9380  -33.2110 C   0  0  2  0  0  0  0  0  0  0  0  0
   -5.3280   17.0890  -32.5390 C   0  0  0  0  0  0  0  0  0  0  0  0
   -4.1390   17.1910  -33.2860 O   0  0  0  0  0  0  0  0  0  0  0  0
   -4.1780   18.4150  -33.9860 C   0  0  0  0  0  0  0  0  0  0  0  0
   -5.6220   18.9130  -34.0780 C   0  0  1  0  0  0  0  0  0  0  0  0
   -6.0920   18.9150  -35.4060 O   0  0  0  0  0  0  0  0  0  0  0  0
   -6.2290   20.7130  -31.6680 C   0  0  0  0  0  0  0  0  0  0  0  0
   -6.3160   22.0690  -31.3370 C   0  0  0  0  0  0  0  0  0  0  0  0
   -5.3120   22.9350  -31.0770 N   0  0  0  0  0  0  0  0  0  0  0  0
   -3.9070   22.6410  -31.1140 C   0  0  0  0  0  0  0  0  0  0  0  0
   -3.4240   21.9940  -32.0830 O   0  0  0  0  0  0  0  0  0  0  0  0
   -3.0840   23.0530  -30.0600 O   0  0  0  0  0  0  0  0  0  0  0  0
   -3.5780   23.3240  -28.7500 C   0  0  0  0  0  0  0  0  0  0  0  0
   -3.3000   24.6490  -28.3900 O   0  0  0  0  0  0  0  0  0  0  0  0
   -3.0820   25.2080  -30.3710 H   0  0  0  0  0  0  0  0  0  0  0  0
   -8.0386   24.8311  -30.8783 H   0  0  0  0  0  0  0  0  0  0  0  0
   -9.6822   22.5758  -31.4884 H   0  0  0  0  0  0  0  0  0  0  0  0
   -9.5979   20.1268  -32.0451 H   0  0  0  0  0  0  0  0  0  0  0  0
   -7.9700   17.9400  -31.7690 H   0  0  0  0  0  0  0  0  0  0  0  0
   -7.0817   17.3251  -33.8133 H   0  0  0  0  0  0  0  0  0  0  0  0
   -5.1552   17.4524  -31.5152 H   0  0  0  0  0  0  0  0  0  0  0  0
   -5.6552   16.0398  -32.4932 H   0  0  0  0  0  0  0  0  0  0  0  0
   -3.5680   19.1597  -33.4538 H   0  0  0  0  0  0  0  0  0  0  0  0
   -3.7795   18.2664  -35.0004 H   0  0  0  0  0  0  0  0  0  0  0  0
   -5.7301   19.9551  -33.7429 H   0  0  0  0  0  0  0  0  0  0  0  0
   -6.9150   19.4710  -35.4430 H   0  0  0  0  0  0  0  0  0  0  0  0
   -5.2504   20.2140  -31.7261 H   0  0  0  0  0  0  0  0  0  0  0  0
   -4.6661   23.1638  -28.7322 H   0  0  0  0  0  0  0  0  0  0  0  0
   -3.0858   22.6482  -28.0351 H   0  0  0  0  0  0  0  0  0  0  0  0
   -4.0390   25.1980  -28.7610 H   0  0  0  0  0  0  0  0  0  0  0  0
  1  2  1  0
  2  3  2  0
  2  4  1  0
  4  5  2  0
  5  6  1  0
  6  7  2  0
  7  8  1  0
  8  9  2  0
  9 10  1  0
 10 11  1  0
 11 12  1  0
 12 13  1  0
 13 14  1  0
 14 15  1  0
 15 16  1  0
  9 17  1  0
 17 18  2  0
 18 19  1  0
 19 20  1  0
 20 21  2  0
 20 22  1  0
 22 23  1  0
 23 24  1  0
 19  4  1  0
 18  6  1  0
 15 11  1  0
  1 25  1  0
  5 26  1  0
  7 27  1  0
  8 28  1  0
 10 29  1  0
 11 30  1  6
 12 31  1  0
 12 32  1  0
 14 33  1  0
 14 34  1  0
 15 35  1  1
 16 36  1  0
 17 37  1  0
 23 38  1  0
 23 39  1  0
 24 40  1  0
M  CHG  1   1  -1
M  END
>  <UniqueID>  (16) 
16

>  <SMILES>  (16) 
[NH-]C(=O)c1cc2ccc(N[C@@H]3COC[C@H]3O)cc2n1C(=O)OCO

>  <Energy>  (16) 
86.23843782555004

>  <Genealogy>  (16) 
[NH-]C(=O)c1cc2ccc(N[C@@H]3COC[C@H]3O)cc2n1C(=O)OCO (protonated)
[NH-]C(=O)c1cc2ccc(N[C@@H]3COC[C@H]3O)cc2n1C(=O)OCO (3D coordinates assigned)
[NH-]C(=O)c1cc2ccc(N[C@@H]3COC[C@H]3O)cc2n1C(=O)OCO (nonaromatic ring conformer: 86.23843782555004 kcal/mol)

>  <smiles>  (16) 
NC(=O)c1cc2ccc(N[C@@H]3COC[C@H]3O)cc2n1C(=O)OCO

>  <score_type>  (16) 
oracle

>  <origin>  (16) 
adg

>  <m_score__min__energy>  (16) 
-9.6300000000000008

>  <m_primary>  (16) 
energy

$$$$
16:0
     RDKit          3D

 41 43  0  0  0  0  0  0  0  0999 V2000
   -0.8660   26.4020  -27.7800 C   0  0  0  0  0  0  0  0  0  0  0  0
   -1.0630   25.0450  -28.3660 C   0  0  0  0  0  0  0  0  0  0  0  0
   -0.0520   24.2800  -28.8300 N   0  0  0  0  0  0  0  0  0  0  0  0
   -0.6770   23.1770  -29.2840 C   0  0  0  0  0  0  0  0  0  0  0  0
   -2.0320   23.3210  -29.0840 C   0  0  0  0  0  0  0  0  0  0  0  0
   -3.0990   22.3300  -29.4220 C   0  0  0  0  0  0  0  0  0  0  0  0
   -3.6300   22.5920  -30.7960 C   0  0  0  0  0  0  0  0  0  0  0  0
   -2.8490   22.5840  -31.7840 O   0  0  0  0  0  0  0  0  0  0  0  0
   -5.0330   22.7910  -31.0040 N   0  0  0  0  0  0  0  0  0  0  0  0
   -5.7420   23.9450  -30.8660 C   0  0  0  0  0  0  0  0  0  0  0  0
   -5.1960   25.2490  -30.4310 C   0  0  0  0  0  0  0  0  0  0  0  0
   -3.8900   25.6660  -30.8230 N   0  0  0  0  0  0  0  0  0  0  0  0
   -5.8870   25.9990  -29.6900 O   0  0  0  0  0  0  0  0  0  0  0  0
   -7.0800   23.7340  -31.1990 C   0  0  0  0  0  0  0  0  0  0  0  0
   -7.1630   22.4030  -31.5460 C   0  0  0  0  0  0  0  0  0  0  0  0
   -8.2530   21.6520  -31.9710 C   0  0  0  0  0  0  0  0  0  0  0  0
   -8.0420   20.2940  -32.2700 C   0  0  0  0  0  0  0  0  0  0  0  0
   -6.7510   19.7050  -32.1410 C   0  0  0  0  0  0  0  0  0  0  0  0
   -6.5470   18.3040  -32.4440 N   0  0  0  0  0  0  0  0  0  0  0  0
   -6.4810   17.8460  -33.8360 C   0  0  0  0  0  0  0  0  0  0  0  0
   -6.4400   17.3220  -31.3600 C   0  0  0  0  0  0  0  0  0  0  0  0
   -5.6690   20.5120  -31.7110 C   0  0  0  0  0  0  0  0  0  0  0  0
   -5.9130   21.8580  -31.4200 C   0  0  0  0  0  0  0  0  0  0  0  0
   -2.2420   24.4820  -28.5180 O   0  0  0  0  0  0  0  0  0  0  0  0
   -0.8761   26.3323  -26.6823 H   0  0  0  0  0  0  0  0  0  0  0  0
    0.1005   26.8083  -28.1127 H   0  0  0  0  0  0  0  0  0  0  0  0
   -1.6771   27.0664  -28.1127 H   0  0  0  0  0  0  0  0  0  0  0  0
   -0.1860   22.3045  -29.7397 H   0  0  0  0  0  0  0  0  0  0  0  0
   -2.6777   21.3146  -29.3826 H   0  0  0  0  0  0  0  0  0  0  0  0
   -3.9198   22.4241  -28.6957 H   0  0  0  0  0  0  0  0  0  0  0  0
   -3.0390   25.2830  -30.3530 H   0  0  0  0  0  0  0  0  0  0  0  0
   -7.8951   24.4726  -31.1871 H   0  0  0  0  0  0  0  0  0  0  0  0
   -9.2500   22.1060  -32.0704 H   0  0  0  0  0  0  0  0  0  0  0  0
   -8.8871   19.6768  -32.6088 H   0  0  0  0  0  0  0  0  0  0  0  0
   -6.3241   16.7574  -33.8568 H   0  0  0  0  0  0  0  0  0  0  0  0
   -7.4236   18.0905  -34.3475 H   0  0  0  0  0  0  0  0  0  0  0  0
   -5.6457   18.3467  -34.3475 H   0  0  0  0  0  0  0  0  0  0  0  0
   -6.4963   17.8385  -30.3905 H   0  0  0  0  0  0  0  0  0  0  0  0
   -7.2646   16.5982  -31.4382 H   0  0  0  0  0  0  0  0  0  0  0  0
   -5.4789   16.7927  -31.4382 H   0  0  0  0  0  0  0  0  0  0  0  0
   -4.6588   20.0891  -31.6082 H   0  0  0  0  0  0  0  0  0  0  0  0
  1  2  1  0
  2  3  2  0
  3  4  1  0
  4  5  2  0
  5  6  1  0
  6  7  1  0
  7  8  2  0
  7  9  1  0
  9 10  1  0
 10 11  1  0
 11 12  1  0
 11 13  2  0
 10 14  2  0
 14 15  1  0
 15 16  2  0
 16 17  1  0
 17 18  2  0
 18 19  1  0
 19 20  1  0
 19 21  1  0
 18 22  1  0
 22 23  2  0
  5 24  1  0
 24  2  1  0
 23  9  1  0
 23 15  1  0
  1 25  1  0
  1 26  1  0
  1 27  1  0
  4 28  1  0
  6 29  1  0
  6 30  1  0
 12 31  1  0
 14 32  1  0
 16 33  1  0
 17 34  1  0
 20 35  1  0
 20 36  1  0
 20 37  1  0
 21 38  1  0
 21 39  1  0
 21 40  1  0
 22 41  1  0
M  CHG  1  12  -1
M  END
>  <UniqueID>  (17) 
17

>  <SMILES>  (17) 
Cc1ncc(CC(=O)n2c(C([NH-])=O)cc3ccc(N(C)C)cc32)o1

>  <Energy>  (17) 
108.70386753673662

>  <Genealogy>  (17) 
Cc1ncc(CC(=O)n2c(C([NH-])=O)cc3ccc(N(C)C)cc32)o1 (protonated)
Cc1ncc(CC(=O)n2c(C([NH-])=O)cc3ccc(N(C)C)cc32)o1 (3D coordinates assigned)
Cc1ncc(CC(=O)n2c(C([NH-])=O)cc3ccc(N(C)C)cc32)o1 (optimized conformer: 108.70386753673662 kcal/mol)

>  <smiles>  (17) 
Cc1ncc(CC(=O)n2c(C(N)=O)cc3ccc(N(C)C)cc32)o1

>  <score_type>  (17) 
oracle

>  <origin>  (17) 
adg

>  <m_score__min__energy>  (17) 
-10.44

>  <m_primary>  (17) 
energy

$$$$
17:0
     RDKit          3D

 32 33  0  0  0  0  0  0  0  0999 V2000
   -7.2390   17.2240  -33.1470 C   0  0  0  0  0  0  0  0  0  0  0  0
   -7.2840   18.3770  -32.7940 C   0  0  0  0  0  0  0  0  0  0  0  0
   -7.3380   19.7510  -32.3730 C   0  0  0  0  0  0  0  0  0  0  0  0
   -8.5730   20.4390  -32.3660 C   0  0  0  0  0  0  0  0  0  0  0  0
   -8.6360   21.7860  -31.9710 C   0  0  0  0  0  0  0  0  0  0  0  0
   -7.4530   22.4070  -31.5820 C   0  0  0  0  0  0  0  0  0  0  0  0
   -7.2230   23.7050  -31.1850 C   0  0  0  0  0  0  0  0  0  0  0  0
   -5.8540   23.7780  -30.9350 C   0  0  0  0  0  0  0  0  0  0  0  0
   -5.1860   24.9860  -30.4080 C   0  0  0  0  0  0  0  0  0  0  0  0
   -3.8810   25.3530  -30.8470 N   0  0  0  0  0  0  0  0  0  0  0  0
   -5.7570   25.6780  -29.5230 O   0  0  0  0  0  0  0  0  0  0  0  0
   -5.2600   22.5740  -31.1720 N   0  0  0  0  0  0  0  0  0  0  0  0
   -3.8580   22.2660  -31.1330 C   0  0  0  0  0  0  0  0  0  0  0  0
   -3.1580   22.3860  -32.1760 O   0  0  0  0  0  0  0  0  0  0  0  0
   -3.2710   21.8640  -29.9290 O   0  0  0  0  0  0  0  0  0  0  0  0
   -1.9370   22.2090  -29.5610 C   0  0  0  0  0  0  0  0  0  0  0  0
   -1.5720   23.4550  -30.1110 O   0  0  0  0  0  0  0  0  0  0  0  0
   -1.1310   24.5160  -28.8480 P   0  0  2  0  0  0  0  0  0  0  0  0
   -2.0360   24.3030  -27.6550 O   0  0  0  0  0  0  0  0  0  0  0  0
   -1.2380   26.1280  -29.3550 O   0  0  0  0  0  0  0  0  0  0  0  0
    0.4640   24.1910  -28.3920 O   0  0  0  0  0  0  0  0  0  0  0  0
   -6.2510   21.7460  -31.5670 C   0  0  0  0  0  0  0  0  0  0  0  0
   -6.1570   20.4090  -31.9740 C   0  0  0  0  0  0  0  0  0  0  0  0
   -7.1980   16.1729  -33.4688 H   0  0  0  0  0  0  0  0  0  0  0  0
   -9.4911   19.9161  -32.6720 H   0  0  0  0  0  0  0  0  0  0  0  0
   -9.5906   22.3325  -31.9693 H   0  0  0  0  0  0  0  0  0  0  0  0
   -7.9628   24.5130  -31.0861 H   0  0  0  0  0  0  0  0  0  0  0  0
   -3.0500   25.2170  -30.2300 H   0  0  0  0  0  0  0  0  0  0  0  0
   -1.8684   22.2648  -28.4646 H   0  0  0  0  0  0  0  0  0  0  0  0
   -1.2540   21.4388  -29.9488 H   0  0  0  0  0  0  0  0  0  0  0  0
    1.0150   24.5440  -29.1360 H   0  0  0  0  0  0  0  0  0  0  0  0
   -5.1887   19.8872  -31.9820 H   0  0  0  0  0  0  0  0  0  0  0  0
  1  2  3  0
  2  3  1  0
  3  4  2  0
  4  5  1  0
  5  6  2  0
  6  7  1  0
  7  8  2  0
  8  9  1  0
  9 10  1  0
  9 11  2  0
  8 12  1  0
 12 13  1  0
 13 14  2  0
 13 15  1  0
 15 16  1  0
 16 17  1  0
 17 18  1  0
 18 19  2  0
 18 20  1  6
 18 21  1  0
 12 22  1  0
 22 23  2  0
 23  3  1  0
 22  6  1  0
  1 24  1  0
  4 25  1  0
  5 26  1  0
  7 27  1  0
 10 28  1  0
 16 29  1  0
 16 30  1  0
 21 31  1  0
 23 32  1  0
M  CHG  2  10  -1  20  -1
M  END
>  <UniqueID>  (18) 
18

>  <SMILES>  (18) 
C#Cc1ccc2cc(C([NH-])=O)n(C(=O)OCO[P@](=O)([O-])O)c2c1

>  <Energy>  (18) 
66.78935564771942

>  <Genealogy>  (18) 
C#Cc1ccc2cc(C([NH-])=O)n(C(=O)OCOP(=O)([O-])O)c2c1 (protonated)
C#Cc1ccc2cc(C([NH-])=O)n(C(=O)OCO[P@](=O)([O-])O)c2c1 (chirality)
C#Cc1ccc2cc(C([NH-])=O)n(C(=O)OCO[P@](=O)([O-])O)c2c1 (3D coordinates assigned)
C#Cc1ccc2cc(C([NH-])=O)n(C(=O)OCO[P@](=O)([O-])O)c2c1 (optimized conformer: 66.78935564771942 kcal/mol)

>  <smiles>  (18) 
C#Cc1ccc2cc(C(N)=O)n(C(=O)OCOP(=O)(O)O)c2c1

>  <score_type>  (18) 
oracle

>  <origin>  (18) 
adg

>  <m_score__min__energy>  (18) 
-12.720000000000001

>  <m_primary>  (18) 
energy

$$$$
18:0
     RDKit          3D

 43 44  0  0  0  0  0  0  0  0999 V2000
   -3.8970   24.1490  -27.3380 C   0  0  0  0  0  0  0  0  0  0  0  0
   -4.1870   23.0670  -28.0690 C   0  0  0  0  0  0  0  0  0  0  0  0
   -3.1080   22.2180  -28.7200 C   0  0  0  0  0  0  0  0  0  0  0  0
   -2.6390   21.1140  -27.7540 C   0  0  0  0  0  0  0  0  0  0  0  0
   -1.9060   23.1090  -29.0710 C   0  0  0  0  0  0  0  0  0  0  0  0
   -3.5860   21.6280  -29.9370 O   0  0  0  0  0  0  0  0  0  0  0  0
   -4.0600   22.3360  -31.0510 C   0  0  0  0  0  0  0  0  0  0  0  0
   -3.2830   22.6590  -31.9890 O   0  0  0  0  0  0  0  0  0  0  0  0
   -5.4450   22.7070  -31.1120 N   0  0  0  0  0  0  0  0  0  0  0  0
   -6.0110   23.9010  -30.7760 C   0  0  0  0  0  0  0  0  0  0  0  0
   -5.2820   25.1380  -30.4250 C   0  0  0  0  0  0  0  0  0  0  0  0
   -3.8790   25.2520  -30.6500 N   0  0  0  0  0  0  0  0  0  0  0  0
   -5.9160   26.1250  -29.9650 O   0  0  0  0  0  0  0  0  0  0  0  0
   -7.3980   23.8330  -30.8890 C   0  0  0  0  0  0  0  0  0  0  0  0
   -7.6670   22.5530  -31.3180 C   0  0  0  0  0  0  0  0  0  0  0  0
   -8.8860   21.9320  -31.5800 C   0  0  0  0  0  0  0  0  0  0  0  0
   -8.8670   20.5860  -31.9790 C   0  0  0  0  0  0  0  0  0  0  0  0
   -7.6400   19.8890  -32.1120 C   0  0  0  0  0  0  0  0  0  0  0  0
   -7.6340   18.4340  -32.4950 C   0  0  0  0  0  0  0  0  0  0  0  0
   -6.2130   17.9730  -32.8280 C   0  0  0  0  0  0  0  0  0  0  0  0
   -6.1490   17.4390  -34.2240 C   0  0  0  0  0  0  0  0  0  0  0  0
   -6.6540   16.3200  -34.4980 O   0  0  0  0  0  0  0  0  0  0  0  0
   -5.4880   18.1580  -35.2120 O   0  0  0  0  0  0  0  0  0  0  0  0
   -6.4230   20.5480  -31.8250 C   0  0  0  0  0  0  0  0  0  0  0  0
   -6.4710   21.8940  -31.4460 C   0  0  0  0  0  0  0  0  0  0  0  0
   -4.7066   24.7382  -26.8826 H   0  0  0  0  0  0  0  0  0  0  0  0
   -2.8489   24.4496  -27.1923 H   0  0  0  0  0  0  0  0  0  0  0  0
   -5.2411   22.7825  -28.2033 H   0  0  0  0  0  0  0  0  0  0  0  0
   -2.7817   21.4499  -26.7163 H   0  0  0  0  0  0  0  0  0  0  0  0
   -3.2268   20.2006  -27.9279 H   0  0  0  0  0  0  0  0  0  0  0  0
   -1.5735   20.9030  -27.9279 H   0  0  0  0  0  0  0  0  0  0  0  0
   -1.4289   23.4626  -28.1451 H   0  0  0  0  0  0  0  0  0  0  0  0
   -1.1795   22.5295  -29.6596 H   0  0  0  0  0  0  0  0  0  0  0  0
   -2.2492   23.9726  -29.6596 H   0  0  0  0  0  0  0  0  0  0  0  0
   -3.4890   26.0310  -31.2260 H   0  0  0  0  0  0  0  0  0  0  0  0
   -8.1240   24.6325  -30.6798 H   0  0  0  0  0  0  0  0  0  0  0  0
   -9.8346   22.4794  -31.4774 H   0  0  0  0  0  0  0  0  0  0  0  0
   -9.8137   20.0673  -32.1905 H   0  0  0  0  0  0  0  0  0  0  0  0
   -8.0208   17.8372  -31.6558 H   0  0  0  0  0  0  0  0  0  0  0  0
   -8.2694   18.2972  -33.3824 H   0  0  0  0  0  0  0  0  0  0  0  0
   -5.5246   18.8259  -32.7348 H   0  0  0  0  0  0  0  0  0  0  0  0
   -5.9248   17.1747  -32.1282 H   0  0  0  0  0  0  0  0  0  0  0  0
   -5.4628   20.0163  -31.8977 H   0  0  0  0  0  0  0  0  0  0  0  0
  1  2  2  0
  2  3  1  0
  3  4  1  0
  3  5  1  0
  3  6  1  0
  6  7  1  0
  7  8  2  0
  7  9  1  0
  9 10  1  0
 10 11  1  0
 11 12  1  0
 11 13  2  0
 10 14  2  0
 14 15  1  0
 15 16  2  0
 16 17  1  0
 17 18  2  0
 18 19  1  0
 19 20  1  0
 20 21  1  0
 21 22  2  0
 21 23  1  0
 18 24  1  0
 24 25  2  0
 25  9  1  0
 25 15  1  0
  1 26  1  0
  1 27  1  0
  2 28  1  0
  4 29  1  0
  4 30  1  0
  4 31  1  0
  5 32  1  0
  5 33  1  0
  5 34  1  0
 12 35  1  0
 14 36  1  0
 16 37  1  0
 17 38  1  0
 19 39  1  0
 19 40  1  0
 20 41  1  0
 20 42  1  0
 24 43  1  0
M  CHG  2  12  -1  23  -1
M  END
>  <UniqueID>  (19) 
19

>  <SMILES>  (19) 
C=CC(C)(C)OC(=O)n1c(C([NH-])=O)cc2ccc(CCC(=O)[O-])cc21

>  <Energy>  (19) 
72.41207442509648

>  <Genealogy>  (19) 
C=CC(C)(C)OC(=O)n1c(C([NH-])=O)cc2ccc(CCC(=O)[O-])cc21 (protonated)
C=CC(C)(C)OC(=O)n1c(C([NH-])=O)cc2ccc(CCC(=O)[O-])cc21 (3D coordinates assigned)
C=CC(C)(C)OC(=O)n1c(C([NH-])=O)cc2ccc(CCC(=O)[O-])cc21 (optimized conformer: 72.41207442509648 kcal/mol)

>  <smiles>  (19) 
C=CC(C)(C)OC(=O)n1c(C(N)=O)cc2ccc(CCC(=O)O)cc21

>  <score_type>  (19) 
oracle

>  <origin>  (19) 
adg

>  <m_score__min__energy>  (19) 
-10.859999999999999

>  <m_primary>  (19) 
energy

$$$$
19:0
     RDKit          3D

 38 39  0  0  0  0  0  0  0  0999 V2000
   -5.7420   17.7850  -34.2160 C   0  0  0  0  0  0  0  0  0  0  0  0
   -6.5700   17.7410  -32.9360 C   0  0  0  0  0  0  0  0  0  0  0  0
   -7.6700   18.7030  -32.9970 N   0  0  0  0  0  0  0  0  0  0  0  0
   -7.6140   20.0500  -32.4880 C   0  0  0  0  0  0  0  0  0  0  0  0
   -8.8240   20.7680  -32.3140 C   0  0  0  0  0  0  0  0  0  0  0  0
   -8.8220   22.0800  -31.8130 C   0  0  0  0  0  0  0  0  0  0  0  0
   -7.5950   22.6560  -31.5030 C   0  0  0  0  0  0  0  0  0  0  0  0
   -7.3070   23.8950  -30.9770 C   0  0  0  0  0  0  0  0  0  0  0  0
   -5.9200   23.9340  -30.8620 C   0  0  0  0  0  0  0  0  0  0  0  0
   -5.1740   25.1280  -30.4140 C   0  0  0  0  0  0  0  0  0  0  0  0
   -3.8200   25.3380  -30.8050 N   0  0  0  0  0  0  0  0  0  0  0  0
   -5.7560   25.9990  -29.7130 O   0  0  0  0  0  0  0  0  0  0  0  0
   -5.3710   22.7620  -31.2920 N   0  0  0  0  0  0  0  0  0  0  0  0
   -3.9900   22.3720  -31.2440 C   0  0  0  0  0  0  0  0  0  0  0  0
   -3.2150   22.6970  -32.1840 O   0  0  0  0  0  0  0  0  0  0  0  0
   -3.5250   21.6140  -30.1600 O   0  0  0  0  0  0  0  0  0  0  0  0
   -2.9860   22.1410  -28.9810 C   0  0  0  0  0  0  0  0  0  0  0  0
   -2.5580   21.3850  -28.0660 O   0  0  0  0  0  0  0  0  0  0  0  0
   -2.9260   23.5310  -28.8340 O   0  0  0  0  0  0  0  0  0  0  0  0
   -2.1270   24.1810  -27.8480 C   0  0  0  0  0  0  0  0  0  0  0  0
   -0.9920   24.9110  -28.4930 C   0  0  0  0  0  0  0  0  0  0  0  0
    0.1920   24.5260  -28.3090 O   0  0  0  0  0  0  0  0  0  0  0  0
   -1.2430   26.0010  -29.3170 O   0  0  0  0  0  0  0  0  0  0  0  0
   -6.4100   21.9920  -31.6830 C   0  0  0  0  0  0  0  0  0  0  0  0
   -6.3840   20.6770  -32.1640 C   0  0  0  0  0  0  0  0  0  0  0  0
   -4.6737   17.8418  -33.9599 H   0  0  0  0  0  0  0  0  0  0  0  0
   -5.9299   16.8756  -34.8057 H   0  0  0  0  0  0  0  0  0  0  0  0
   -6.0252   18.6694  -34.8057 H   0  0  0  0  0  0  0  0  0  0  0  0
   -6.9821   16.7293  -32.8074 H   0  0  0  0  0  0  0  0  0  0  0  0
   -5.9210   18.0002  -32.0866 H   0  0  0  0  0  0  0  0  0  0  0  0
   -8.5540   18.3850  -33.4580 H   0  0  0  0  0  0  0  0  0  0  0  0
   -9.7795   20.2899  -32.5755 H   0  0  0  0  0  0  0  0  0  0  0  0
   -9.7613   22.6344  -31.6704 H   0  0  0  0  0  0  0  0  0  0  0  0
   -8.0211   24.6863  -30.7052 H   0  0  0  0  0  0  0  0  0  0  0  0
   -3.0440   25.2810  -30.1090 H   0  0  0  0  0  0  0  0  0  0  0  0
   -2.7495   24.8977  -27.2923 H   0  0  0  0  0  0  0  0  0  0  0  0
   -1.7196   23.4227  -27.1632 H   0  0  0  0  0  0  0  0  0  0  0  0
   -5.4307   20.1424  -32.2877 H   0  0  0  0  0  0  0  0  0  0  0  0
  1  2  1  0
  2  3  1  0
  3  4  1  0
  4  5  2  0
  5  6  1  0
  6  7  2  0
  7  8  1  0
  8  9  2  0
  9 10  1  0
 10 11  1  0
 10 12  2  0
  9 13  1  0
 13 14  1  0
 14 15  2  0
 14 16  1  0
 16 17  1  0
 17 18  2  0
 17 19  1  0
 19 20  1  0
 20 21  1  0
 21 22  2  0
 21 23  1  0
 13 24  1  0
 24 25  2  0
 25  4  1  0
 24  7  1  0
  1 26  1  0
  1 27  1  0
  1 28  1  0
  2 29  1  0
  2 30  1  0
  3 31  1  0
  5 32  1  0
  6 33  1  0
  8 34  1  0
 11 35  1  0
 20 36  1  0
 20 37  1  0
 25 38  1  0
M  CHG  2  11  -1  23  -1
M  END
>  <UniqueID>  (20) 
20

>  <SMILES>  (20) 
CCNc1ccc2cc(C([NH-])=O)n(C(=O)OC(=O)OCC(=O)[O-])c2c1

>  <Energy>  (20) 
73.39117829199063

>  <Genealogy>  (20) 
CCNc1ccc2cc(C([NH-])=O)n(C(=O)OC(=O)OCC(=O)[O-])c2c1 (protonated)
CCNc1ccc2cc(C([NH-])=O)n(C(=O)OC(=O)OCC(=O)[O-])c2c1 (3D coordinates assigned)
CCNc1ccc2cc(C([NH-])=O)n(C(=O)OC(=O)OCC(=O)[O-])c2c1 (optimized conformer: 73.39117829199063 kcal/mol)

>  <smiles>  (20) 
CCNc1ccc2cc(C(N)=O)n(C(=O)OC(=O)OCC(=O)O)c2c1

>  <score_type>  (20) 
oracle

>  <origin>  (20) 
adg

>  <m_score__min__energy>  (20) 
-12.32

>  <m_primary>  (20) 
energy

$$$$
20:0
     RDKit          3D

 33 34  0  0  0  0  0  0  0  0999 V2000
   -6.1350   17.2330  -31.7630 C   0  0  0  0  0  0  0  0  0  0  0  0
   -6.2370   18.2630  -32.8040 N   0  0  0  0  0  0  0  0  0  0  0  0
   -6.0620   17.8740  -34.2080 C   0  0  0  0  0  0  0  0  0  0  0  0
   -6.5080   19.6460  -32.4510 C   0  0  0  0  0  0  0  0  0  0  0  0
   -7.8080   20.2010  -32.6330 C   0  0  0  0  0  0  0  0  0  0  0  0
   -8.0820   21.5350  -32.2880 C   0  0  0  0  0  0  0  0  0  0  0  0
   -7.0450   22.3020  -31.7710 C   0  0  0  0  0  0  0  0  0  0  0  0
   -7.0410   23.6070  -31.3330 C   0  0  0  0  0  0  0  0  0  0  0  0
   -5.7360   23.8500  -30.9050 C   0  0  0  0  0  0  0  0  0  0  0  0
   -5.2670   25.1590  -30.4080 C   0  0  0  0  0  0  0  0  0  0  0  0
   -4.0090   25.6740  -30.8400 N   0  0  0  0  0  0  0  0  0  0  0  0
   -5.9540   25.8210  -29.5850 O   0  0  0  0  0  0  0  0  0  0  0  0
   -4.9670   22.7370  -31.0730 N   0  0  0  0  0  0  0  0  0  0  0  0
   -3.5880   22.5620  -30.7130 C   0  0  0  0  0  0  0  0  0  0  0  0
   -2.7160   23.3080  -31.2340 O   0  0  0  0  0  0  0  0  0  0  0  0
   -3.2130   21.4950  -29.7590 C   0  0  0  0  0  0  0  0  0  0  0  0
   -2.9480   21.6660  -28.4560 C   0  0  0  0  0  0  0  0  0  0  0  0
   -3.0350   23.3470  -27.5360 Br  0  0  0  0  0  0  0  0  0  0  0  0
   -2.4900   20.1380  -27.4070 Br  0  0  0  0  0  0  0  0  0  0  0  0
   -5.7840   21.7990  -31.6010 C   0  0  0  0  0  0  0  0  0  0  0  0
   -5.4850   20.4690  -31.9150 C   0  0  0  0  0  0  0  0  0  0  0  0
   -6.1820   17.7076  -30.7718 H   0  0  0  0  0  0  0  0  0  0  0  0
   -6.9671   16.5213  -31.8686 H   0  0  0  0  0  0  0  0  0  0  0  0
   -5.1795   16.6983  -31.8686 H   0  0  0  0  0  0  0  0  0  0  0  0
   -5.6112   16.8718  -34.2574 H   0  0  0  0  0  0  0  0  0  0  0  0
   -7.0409   17.8608  -34.7096 H   0  0  0  0  0  0  0  0  0  0  0  0
   -5.4027   18.5978  -34.7096 H   0  0  0  0  0  0  0  0  0  0  0  0
   -8.6100   19.5745  -33.0505 H   0  0  0  0  0  0  0  0  0  0  0  0
   -9.0876   21.9598  -32.4231 H   0  0  0  0  0  0  0  0  0  0  0  0
   -7.8876   24.3093  -31.3227 H   0  0  0  0  0  0  0  0  0  0  0  0
   -3.1150   25.2940  -30.4610 H   0  0  0  0  0  0  0  0  0  0  0  0
   -3.1457   20.4705  -30.1539 H   0  0  0  0  0  0  0  0  0  0  0  0
   -4.4740   20.0685  -31.7491 H   0  0  0  0  0  0  0  0  0  0  0  0
  1  2  1  0
  2  3  1  0
  2  4  1  0
  4  5  2  0
  5  6  1  0
  6  7  2  0
  7  8  1  0
  8  9  2  0
  9 10  1  0
 10 11  1  0
 10 12  2  0
  9 13  1  0
 13 14  1  0
 14 15  2  0
 14 16  1  0
 16 17  2  3
 17 18  1  0
 17 19  1  0
 13 20  1  0
 20 21  2  0
 21  4  1  0
 20  7  1  0
  1 22  1  0
  1 23  1  0
  1 24  1  0
  3 25  1  0
  3 26  1  0
  3 27  1  0
  5 28  1  0
  6 29  1  0
  8 30  1  0
 11 31  1  0
 16 32  1  0
 21 33  1  0
M  CHG  1  11  -1
M  END
>  <UniqueID>  (21) 
21

>  <SMILES>  (21) 
CN(C)c1ccc2cc(C([NH-])=O)n(C(=O)C=C(Br)Br)c2c1

>  <Energy>  (21) 
75.81828407670855

>  <Genealogy>  (21) 
CN(C)c1ccc2cc(C([NH-])=O)n(C(=O)C=C(Br)Br)c2c1 (protonated)
CN(C)c1ccc2cc(C([NH-])=O)n(C(=O)C=C(Br)Br)c2c1 (3D coordinates assigned)
CN(C)c1ccc2cc(C([NH-])=O)n(C(=O)C=C(Br)Br)c2c1 (optimized conformer: 75.81828407670855 kcal/mol)

>  <smiles>  (21) 
CN(C)c1ccc2cc(C(N)=O)n(C(=O)C=C(Br)Br)c2c1

>  <score_type>  (21) 
oracle

>  <origin>  (21) 
adg

>  <m_score__min__energy>  (21) 
-10.52

>  <m_primary>  (21) 
energy

$$$$
21:0
     RDKit          3D

 39 41  0  0  0  0  0  0  0  0999 V2000
   -6.9540   14.0410  -34.5590 C   0  0  0  0  0  0  0  0  0  0  0  0
   -6.4970   15.4160  -34.2120 C   0  0  0  0  0  0  0  0  0  0  0  0
   -5.2410   15.8600  -34.4270 N   0  0  0  0  0  0  0  0  0  0  0  0
   -5.2670   17.1190  -33.9490 C   0  0  0  0  0  0  0  0  0  0  0  0
   -6.5320   17.3860  -33.4600 C   0  0  0  0  0  0  0  0  0  0  0  0
   -7.0230   18.6380  -32.8400 C   0  0  0  0  0  0  0  0  0  0  0  0
   -8.4200   18.8540  -32.7240 C   0  0  0  0  0  0  0  0  0  0  0  0
   -8.9210   20.0240  -32.1290 C   0  0  0  0  0  0  0  0  0  0  0  0
   -8.0070   20.9640  -31.6690 C   0  0  0  0  0  0  0  0  0  0  0  0
   -8.2190   22.1620  -31.0250 C   0  0  0  0  0  0  0  0  0  0  0  0
   -6.9500   22.6790  -30.7830 C   0  0  0  0  0  0  0  0  0  0  0  0
   -6.7140   23.9950  -30.1570 C   0  0  0  0  0  0  0  0  0  0  0  0
   -5.5310   24.2540  -29.3990 N   0  0  0  0  0  0  0  0  0  0  0  0
   -7.5460   24.9240  -30.3400 O   0  0  0  0  0  0  0  0  0  0  0  0
   -5.9880   21.8310  -31.2450 N   0  0  0  0  0  0  0  0  0  0  0  0
   -4.5650   21.9540  -31.0880 C   0  0  0  0  0  0  0  0  0  0  0  0
   -3.8670   22.4240  -32.0290 O   0  0  0  0  0  0  0  0  0  0  0  0
   -3.9580   21.5530  -29.8940 O   0  0  0  0  0  0  0  0  0  0  0  0
   -2.9260   22.3010  -29.2600 C   0  0  0  0  0  0  0  0  0  0  0  0
   -2.4530   23.2840  -30.1490 O   0  0  0  0  0  0  0  0  0  0  0  0
   -2.7840   24.8150  -29.4780 P   0  0  0  0  0  0  0  0  0  0  0  0
   -3.3990   24.6290  -28.1100 O   0  0  0  0  0  0  0  0  0  0  0  0
   -3.8710   25.6600  -30.4600 O   0  0  0  0  0  0  0  0  0  0  0  0
   -1.3530   25.7040  -29.3230 O   0  0  0  0  0  0  0  0  0  0  0  0
   -6.6520   20.7850  -31.7880 C   0  0  0  0  0  0  0  0  0  0  0  0
   -6.1250   19.6180  -32.3550 C   0  0  0  0  0  0  0  0  0  0  0  0
   -7.2630   16.3140  -33.6350 O   0  0  0  0  0  0  0  0  0  0  0  0
   -7.1426   13.4734  -33.6358 H   0  0  0  0  0  0  0  0  0  0  0  0
   -7.8807   14.1005  -35.1487 H   0  0  0  0  0  0  0  0  0  0  0  0
   -6.1761   13.5339  -35.1487 H   0  0  0  0  0  0  0  0  0  0  0  0
   -4.4196   17.8204  -33.9480 H   0  0  0  0  0  0  0  0  0  0  0  0
   -9.1201   18.0958  -33.1047 H   0  0  0  0  0  0  0  0  0  0  0  0
  -10.0038   20.1908  -32.0303 H   0  0  0  0  0  0  0  0  0  0  0  0
   -9.1857   22.6143  -30.7585 H   0  0  0  0  0  0  0  0  0  0  0  0
   -5.4020   25.1770  -28.9290 H   0  0  0  0  0  0  0  0  0  0  0  0
   -4.7460   23.5660  -29.3730 H   0  0  0  0  0  0  0  0  0  0  0  0
   -3.3245   22.7841  -28.3557 H   0  0  0  0  0  0  0  0  0  0  0  0
   -2.1015   21.6288  -28.9801 H   0  0  0  0  0  0  0  0  0  0  0  0
   -5.0375   19.4666  -32.4218 H   0  0  0  0  0  0  0  0  0  0  0  0
  1  2  1  0
  2  3  2  0
  3  4  1  0
  4  5  2  0
  5  6  1  0
  6  7  2  0
  7  8  1  0
  8  9  2  0
  9 10  1  0
 10 11  2  0
 11 12  1  0
 12 13  1  0
 12 14  2  0
 11 15  1  0
 15 16  1  0
 16 17  2  0
 16 18  1  0
 18 19  1  0
 19 20  1  0
 20 21  1  0
 21 22  2  0
 21 23  1  0
 21 24  1  0
 15 25  1  0
 25 26  2  0
  5 27  1  0
 27  2  1  0
 26  6  1  0
 25  9  1  0
  1 28  1  0
  1 29  1  0
  1 30  1  0
  4 31  1  0
  7 32  1  0
  8 33  1  0
 10 34  1  0
 13 35  1  0
 13 36  1  0
 19 37  1  0
 19 38  1  0
 26 39  1  0
M  CHG  2  23  -1  24  -1
M  END
>  <UniqueID>  (22) 
22

>  <SMILES>  (22) 
Cc1ncc(-c2ccc3cc(C(N)=O)n(C(=O)OCOP(=O)([O-])[O-])c3c2)o1

>  <Energy>  (22) 
106.7272927786943

>  <Genealogy>  (22) 
Cc1ncc(-c2ccc3cc(C(N)=O)n(C(=O)OCOP(=O)([O-])[O-])c3c2)o1 (protonated)
Cc1ncc(-c2ccc3cc(C(N)=O)n(C(=O)OCOP(=O)([O-])[O-])c3c2)o1 (3D coordinates assigned)
Cc1ncc(-c2ccc3cc(C(N)=O)n(C(=O)OCOP(=O)([O-])[O-])c3c2)o1 (optimized conformer: 106.7272927786943 kcal/mol)

>  <smiles>  (22) 
Cc1ncc(-c2ccc3cc(C(N)=O)n(C(=O)OCOP(=O)(O)O)c3c2)o1

>  <score_type>  (22) 
oracle

>  <origin>  (22) 
adg

>  <m_score__min__energy>  (22) 
-13.039999999999999

>  <m_primary>  (22) 
energy

$$$$
22:0
     RDKit          3D

 35 36  0  0  0  0  0  0  0  0999 V2000
   -6.1040   17.0570  -31.9040 C   0  0  0  0  0  0  0  0  0  0  0  0
   -7.1990   17.5480  -32.7260 N   0  0  0  0  0  0  0  0  0  0  0  0
   -8.0060   18.6670  -32.3510 C   0  0  0  0  0  0  0  0  0  0  0  0
   -9.1570   18.4910  -31.8670 O   0  0  0  0  0  0  0  0  0  0  0  0
   -7.5060   20.0590  -32.5980 C   0  0  0  0  0  0  0  0  0  0  0  0
   -6.3280   20.0660  -33.5820 C   0  0  0  0  0  0  0  0  0  0  0  0
   -5.0510   20.5090  -32.9160 C   0  0  0  0  0  0  0  0  0  0  0  0
   -3.8010   20.0250  -33.3780 C   0  0  0  0  0  0  0  0  0  0  0  0
   -2.6000   20.4930  -32.8180 C   0  0  0  0  0  0  0  0  0  0  0  0
   -2.6800   21.4480  -31.8090 C   0  0  0  0  0  0  0  0  0  0  0  0
   -1.6800   22.1080  -31.1280 C   0  0  0  0  0  0  0  0  0  0  0  0
   -2.3380   22.9830  -30.2650 C   0  0  0  0  0  0  0  0  0  0  0  0
   -1.6480   23.8580  -29.2940 C   0  0  0  0  0  0  0  0  0  0  0  0
   -1.8520   25.2690  -29.3380 N   0  0  0  0  0  0  0  0  0  0  0  0
   -0.8600   23.3740  -28.4400 O   0  0  0  0  0  0  0  0  0  0  0  0
   -3.6880   22.8710  -30.4120 N   0  0  0  0  0  0  0  0  0  0  0  0
   -4.7170   23.6380  -29.7700 C   0  0  0  0  0  0  0  0  0  0  0  0
   -5.3570   23.1380  -28.8060 O   0  0  0  0  0  0  0  0  0  0  0  0
   -5.0720   24.9790  -30.2580 C   0  0  0  0  0  0  0  0  0  0  0  0
   -4.2170   25.6880  -30.8490 O   0  0  0  0  0  0  0  0  0  0  0  0
   -6.3620   25.4640  -30.0830 O   0  0  0  0  0  0  0  0  0  0  0  0
   -3.8800   21.9230  -31.3520 C   0  0  0  0  0  0  0  0  0  0  0  0
   -5.0910   21.4760  -31.8850 C   0  0  0  0  0  0  0  0  0  0  0  0
   -6.3628   17.1730  -30.8412 H   0  0  0  0  0  0  0  0  0  0  0  0
   -5.9281   15.9938  -32.1246 H   0  0  0  0  0  0  0  0  0  0  0  0
   -5.1931   17.6329  -32.1246 H   0  0  0  0  0  0  0  0  0  0  0  0
   -8.3243   20.6641  -33.0154 H   0  0  0  0  0  0  0  0  0  0  0  0
   -7.1596   20.4767  -31.6412 H   0  0  0  0  0  0  0  0  0  0  0  0
   -6.1892   19.0499  -33.9798 H   0  0  0  0  0  0  0  0  0  0  0  0
   -6.5589   20.7761  -34.3897 H   0  0  0  0  0  0  0  0  0  0  0  0
   -3.7709   19.2757  -34.1828 H   0  0  0  0  0  0  0  0  0  0  0  0
   -1.6271   20.1162  -33.1664 H   0  0  0  0  0  0  0  0  0  0  0  0
   -0.5942   21.9731  -31.2413 H   0  0  0  0  0  0  0  0  0  0  0  0
   -2.8140   25.6730  -29.3030 H   0  0  0  0  0  0  0  0  0  0  0  0
   -6.0500   21.8656  -31.5129 H   0  0  0  0  0  0  0  0  0  0  0  0
  1  2  1  0
  2  3  1  0
  3  4  2  0
  3  5  1  0
  5  6  1  0
  6  7  1  0
  7  8  2  0
  8  9  1  0
  9 10  2  0
 10 11  1  0
 11 12  2  0
 12 13  1  0
 13 14  1  0
 13 15  2  0
 12 16  1  0
 16 17  1  0
 17 18  2  0
 17 19  1  0
 19 20  2  0
 19 21  1  0
 16 22  1  0
 22 23  2  0
 23  7  1  0
 22 10  1  0
  1 24  1  0
  1 25  1  0
  1 26  1  0
  5 27  1  0
  5 28  1  0
  6 29  1  0
  6 30  1  0
  8 31  1  0
  9 32  1  0
 11 33  1  0
 14 34  1  0
 23 35  1  0
M  CHG  3   2  -1  14  -1  21  -1
M  END
>  <UniqueID>  (23) 
23

>  <SMILES>  (23) 
C[N-]C(=O)CCc1ccc2cc(C([NH-])=O)n(C(=O)C(=O)[O-])c2c1

>  <Energy>  (23) 
66.8636600547873

>  <Genealogy>  (23) 
C[N-]C(=O)CCc1ccc2cc(C([NH-])=O)n(C(=O)C(=O)[O-])c2c1 (protonated)
C[N-]C(=O)CCc1ccc2cc(C([NH-])=O)n(C(=O)C(=O)[O-])c2c1 (3D coordinates assigned)
C[N-]C(=O)CCc1ccc2cc(C([NH-])=O)n(C(=O)C(=O)[O-])c2c1 (optimized conformer: 66.8636600547873 kcal/mol)

>  <smiles>  (23) 
CNC(=O)CCc1ccc2cc(C(N)=O)n(C(=O)C(=O)O)c2c1

>  <score_type>  (23) 
oracle

>  <origin>  (23) 
adg

>  <m_score__min__energy>  (23) 
-10.710000000000001

>  <m_primary>  (23) 
energy

$$$$
23:0
     RDKit          3D

 40 42  0  0  0  0  0  0  0  0999 V2000
   -9.2810   23.5090  -32.2610 N   0  0  0  0  0  0  0  0  0  0  0  0
   -9.1140   22.1500  -31.8450 C   0  0  0  0  0  0  0  0  0  0  0  0
  -10.0020   21.6190  -31.1270 O   0  0  0  0  0  0  0  0  0  0  0  0
   -7.9150   21.3730  -32.2410 C   0  0  0  0  0  0  0  0  0  0  0  0
   -7.9390   20.0610  -32.7140 C   0  0  0  0  0  0  0  0  0  0  0  0
   -6.6320   19.7600  -33.0250 C   0  0  0  0  0  0  0  0  0  0  0  0
   -6.0780   18.5900  -33.5310 C   0  0  0  0  0  0  0  0  0  0  0  0
   -4.6890   18.5570  -33.7460 C   0  0  0  0  0  0  0  0  0  0  0  0
   -3.8820   19.6900  -33.4610 C   0  0  0  0  0  0  0  0  0  0  0  0
   -2.3900   19.6190  -33.6570 C   0  0  0  0  0  0  0  0  0  0  0  0
   -1.9010   20.8020  -34.1810 F   0  0  0  0  0  0  0  0  0  0  0  0
   -1.7830   19.3790  -32.4380 F   0  0  0  0  0  0  0  0  0  0  0  0
   -2.0670   18.5930  -34.5300 F   0  0  0  0  0  0  0  0  0  0  0  0
   -4.4810   20.8520  -32.9220 C   0  0  0  0  0  0  0  0  0  0  0  0
   -5.8690   20.8610  -32.7380 C   0  0  0  0  0  0  0  0  0  0  0  0
   -6.6410   21.8600  -32.2620 N   0  0  0  0  0  0  0  0  0  0  0  0
   -6.2090   23.1770  -31.8820 C   0  0  0  0  0  0  0  0  0  0  0  0
   -6.4470   24.1510  -32.6440 O   0  0  0  0  0  0  0  0  0  0  0  0
   -5.4810   23.4150  -30.5880 C   0  0  0  0  0  0  0  0  0  0  0  0
   -4.8760   24.7820  -30.5600 C   0  0  0  0  0  0  0  0  0  0  0  0
   -5.5950   25.7820  -30.8290 O   0  0  0  0  0  0  0  0  0  0  0  0
   -3.4690   24.9150  -30.3030 N   0  0  0  0  0  0  0  0  0  0  0  0
   -2.6860   24.5400  -29.1200 C   0  0  0  0  0  0  0  0  0  0  0  0
   -1.3570   25.2070  -28.9660 C   0  0  0  0  0  0  0  0  0  0  0  0
   -1.2770   26.4640  -28.9540 O   0  0  0  0  0  0  0  0  0  0  0  0
   -0.2020   24.4420  -28.8860 O   0  0  0  0  0  0  0  0  0  0  0  0
   -3.4600   24.2750  -27.8380 C   0  0  0  0  0  0  0  0  0  0  0  0
   -2.8090   23.1160  -28.6010 C   0  0  0  0  0  0  0  0  0  0  0  0
  -10.1210   24.0470  -31.9530 H   0  0  0  0  0  0  0  0  0  0  0  0
   -8.5880   23.9850  -32.8820 H   0  0  0  0  0  0  0  0  0  0  0  0
   -8.8164   19.4056  -32.8168 H   0  0  0  0  0  0  0  0  0  0  0  0
   -6.7072   17.7164  -33.7564 H   0  0  0  0  0  0  0  0  0  0  0  0
   -4.2217   17.6423  -34.1398 H   0  0  0  0  0  0  0  0  0  0  0  0
   -3.8714   21.7275  -32.6538 H   0  0  0  0  0  0  0  0  0  0  0  0
   -6.1901   23.3178  -29.7527 H   0  0  0  0  0  0  0  0  0  0  0  0
   -4.6751   22.6720  -30.4963 H   0  0  0  0  0  0  0  0  0  0  0  0
   -3.0488   24.5969  -26.8699 H   0  0  0  0  0  0  0  0  0  0  0  0
   -4.4756   24.4997  -27.4802 H   0  0  0  0  0  0  0  0  0  0  0  0
   -1.9300   22.6050  -28.1811 H   0  0  0  0  0  0  0  0  0  0  0  0
   -3.1626   22.1620  -29.0191 H   0  0  0  0  0  0  0  0  0  0  0  0
  1  2  1  0
  2  3  2  0
  2  4  1  0
  4  5  2  0
  5  6  1  0
  6  7  2  0
  7  8  1  0
  8  9  2  0
  9 10  1  0
 10 11  1  0
 10 12  1  0
 10 13  1  0
  9 14  1  0
 14 15  2  0
 15 16  1  0
 16 17  1  0
 17 18  2  0
 17 19  1  0
 19 20  1  0
 20 21  2  0
 20 22  1  0
 22 23  1  0
 23 24  1  0
 24 25  2  0
 24 26  1  0
 23 27  1  0
 27 28  1  0
 16  4  1  0
 28 23  1  0
 15  6  1  0
  1 29  1  0
  1 30  1  0
  5 31  1  0
  7 32  1  0
  8 33  1  0
 14 34  1  0
 19 35  1  0
 19 36  1  0
 27 37  1  0
 27 38  1  0
 28 39  1  0
 28 40  1  0
M  CHG  2  22  -1  26  -1
M  END
>  <UniqueID>  (24) 
24

>  <SMILES>  (24) 
NC(=O)c1cc2ccc(C(F)(F)F)cc2n1C(=O)CC(=O)[N-]C1(C(=O)[O-])CC1

>  <Energy>  (24) 
349.26487106787835

>  <Genealogy>  (24) 
NC(=O)c1cc2ccc(C(F)(F)F)cc2n1C(=O)CC(=O)[N-]C1(C(=O)[O-])CC1 (protonated)
NC(=O)c1cc2ccc(C(F)(F)F)cc2n1C(=O)CC(=O)[N-]C1(C(=O)[O-])CC1 (3D coordinates assigned)
NC(=O)c1cc2ccc(C(F)(F)F)cc2n1C(=O)CC(=O)[N-]C1(C(=O)[O-])CC1 (nonaromatic ring conformer: 349.26487106787835 kcal/mol)

>  <smiles>  (24) 
NC(=O)c1cc2ccc(C(F)(F)F)cc2n1C(=O)CC(=O)NC1(C(=O)O)CC1

>  <score_type>  (24) 
oracle

>  <origin>  (24) 
adg

>  <m_score__min__energy>  (24) 
-12.23

>  <m_primary>  (24) 
energy

$$$$
24:0
     RDKit          3D

 38 40  0  0  0  0  0  0  0  0999 V2000
   -4.0260   24.2240  -27.3910 C   0  0  0  0  0  0  0  0  0  0  0  0
   -2.6660   23.8700  -27.8930 C   0  0  0  0  0  0  0  0  0  0  0  0
   -1.6310   24.6770  -27.8860 O   0  0  0  0  0  0  0  0  0  0  0  0
   -0.6330   23.9850  -28.3860 C   0  0  0  0  0  0  0  0  0  0  0  0
    0.5290   24.4450  -28.5330 O   0  0  0  0  0  0  0  0  0  0  0  0
   -0.9790   22.7610  -28.7130 O   0  0  0  0  0  0  0  0  0  0  0  0
   -2.2530   22.6570  -28.4130 C   0  0  0  0  0  0  0  0  0  0  0  0
   -3.0760   21.4270  -28.6100 C   0  0  0  0  0  0  0  0  0  0  0  0
   -3.4560   21.3310  -29.9780 O   0  0  0  0  0  0  0  0  0  0  0  0
   -3.9110   22.4250  -30.7180 C   0  0  0  0  0  0  0  0  0  0  0  0
   -3.0880   23.2400  -31.2160 O   0  0  0  0  0  0  0  0  0  0  0  0
   -5.3220   22.6170  -30.9140 N   0  0  0  0  0  0  0  0  0  0  0  0
   -6.0260   23.7780  -30.7980 C   0  0  0  0  0  0  0  0  0  0  0  0
   -5.5010   25.0610  -30.2860 C   0  0  0  0  0  0  0  0  0  0  0  0
   -4.2120   25.5370  -30.6720 N   0  0  0  0  0  0  0  0  0  0  0  0
   -6.1780   25.7170  -29.4510 O   0  0  0  0  0  0  0  0  0  0  0  0
   -7.3520   23.5920  -31.1760 C   0  0  0  0  0  0  0  0  0  0  0  0
   -7.4480   22.2620  -31.5160 C   0  0  0  0  0  0  0  0  0  0  0  0
   -8.5390   21.5370  -31.9830 C   0  0  0  0  0  0  0  0  0  0  0  0
   -8.3460   20.1820  -32.2940 C   0  0  0  0  0  0  0  0  0  0  0  0
   -7.0750   19.5730  -32.1270 C   0  0  0  0  0  0  0  0  0  0  0  0
   -6.8640   18.1340  -32.5240 C   0  0  0  0  0  0  0  0  0  0  0  0
   -5.8400   17.5990  -31.7640 F   0  0  0  0  0  0  0  0  0  0  0  0
   -6.5290   18.0390  -33.8640 F   0  0  0  0  0  0  0  0  0  0  0  0
   -8.0160   17.3960  -32.3140 F   0  0  0  0  0  0  0  0  0  0  0  0
   -5.9840   20.3510  -31.6760 C   0  0  0  0  0  0  0  0  0  0  0  0
   -6.2100   21.6950  -31.3510 C   0  0  0  0  0  0  0  0  0  0  0  0
   -4.0225   24.2231  -26.2910 H   0  0  0  0  0  0  0  0  0  0  0  0
   -4.3027   25.2241  -27.7560 H   0  0  0  0  0  0  0  0  0  0  0  0
   -4.7552   23.4857  -27.7560 H   0  0  0  0  0  0  0  0  0  0  0  0
   -2.4869   20.5415  -28.3290 H   0  0  0  0  0  0  0  0  0  0  0  0
   -3.9760   21.4803  -27.9798 H   0  0  0  0  0  0  0  0  0  0  0  0
   -3.5590   24.9400  -31.2260 H   0  0  0  0  0  0  0  0  0  0  0  0
   -3.8720   26.4640  -30.3290 H   0  0  0  0  0  0  0  0  0  0  0  0
   -8.1522   24.3464  -31.1983 H   0  0  0  0  0  0  0  0  0  0  0  0
   -9.5239   22.0114  -32.1050 H   0  0  0  0  0  0  0  0  0  0  0  0
   -9.1895   19.5853  -32.6715 H   0  0  0  0  0  0  0  0  0  0  0  0
   -4.9802   19.9110  -31.5824 H   0  0  0  0  0  0  0  0  0  0  0  0
  1  2  1  0
  2  3  1  0
  3  4  1  0
  4  5  2  0
  4  6  1  0
  6  7  1  0
  7  8  1  0
  8  9  1  0
  9 10  1  0
 10 11  2  0
 10 12  1  0
 12 13  1  0
 13 14  1  0
 14 15  1  0
 14 16  2  0
 13 17  2  0
 17 18  1  0
 18 19  2  0
 19 20  1  0
 20 21  2  0
 21 22  1  0
 22 23  1  0
 22 24  1  0
 22 25  1  0
 21 26  1  0
 26 27  2  0
  7  2  2  0
 27 12  1  0
 27 18  1  0
  1 28  1  0
  1 29  1  0
  1 30  1  0
  8 31  1  0
  8 32  1  0
 15 33  1  0
 15 34  1  0
 17 35  1  0
 19 36  1  0
 20 37  1  0
 26 38  1  0
M  END
>  <UniqueID>  (25) 
25

>  <SMILES>  (25) 
Cc1oc(=O)oc1COC(=O)n1c(C(N)=O)cc2ccc(C(F)(F)F)cc21

>  <Energy>  (25) 
108.728122687009

>  <Genealogy>  (25) 
Cc1oc(=O)oc1COC(=O)n1c(C(N)=O)cc2ccc(C(F)(F)F)cc21 (3D coordinates assigned)
Cc1oc(=O)oc1COC(=O)n1c(C(N)=O)cc2ccc(C(F)(F)F)cc21 (optimized conformer: 108.728122687009 kcal/mol)

>  <smiles>  (25) 
Cc1oc(=O)oc1COC(=O)n1c(C(N)=O)cc2ccc(C(F)(F)F)cc21

>  <score_type>  (25) 
oracle

>  <origin>  (25) 
adg

>  <m_score__min__energy>  (25) 
-8.4900000000000002

>  <m_primary>  (25) 
energy

$$$$
25:0
     RDKit          3D

 41 42  0  0  0  0  0  0  0  0999 V2000
   -1.4930   22.4740  -30.4330 C   0  0  0  0  0  0  0  0  0  0  0  0
   -2.8740   22.9930  -30.3550 N   0  0  2  0  0  0  0  0  0  0  0  0
   -3.5210   22.6020  -29.0750 C   0  0  0  0  0  0  0  0  0  0  0  0
   -3.5220   23.6890  -28.0320 C   0  0  0  0  0  0  0  0  0  0  0  0
   -4.4410   24.5520  -28.0210 O   0  0  0  0  0  0  0  0  0  0  0  0
   -2.5200   23.7030  -27.0570 O   0  0  0  0  0  0  0  0  0  0  0  0
   -1.4950   24.6920  -26.9990 C   0  0  0  0  0  0  0  0  0  0  0  0
   -0.8960   24.9010  -28.3530 C   0  0  0  0  0  0  0  0  0  0  0  0
    0.2600   24.4730  -28.6050 O   0  0  0  0  0  0  0  0  0  0  0  0
   -1.6020   25.5940  -29.3290 O   0  0  0  0  0  0  0  0  0  0  0  0
   -3.6430   22.6280  -31.5370 C   0  0  0  0  0  0  0  0  0  0  0  0
   -3.0460   22.2890  -32.5970 O   0  0  0  0  0  0  0  0  0  0  0  0
   -5.0780   22.7390  -31.5730 N   0  0  0  0  0  0  0  0  0  0  0  0
   -5.8260   23.8090  -31.1830 C   0  0  0  0  0  0  0  0  0  0  0  0
   -5.2960   25.1190  -30.7480 C   0  0  0  0  0  0  0  0  0  0  0  0
   -3.8900   25.2990  -30.5910 N   0  0  0  0  0  0  0  0  0  0  0  0
   -6.0720   26.0770  -30.4920 O   0  0  0  0  0  0  0  0  0  0  0  0
   -7.1840   23.5190  -31.2840 C   0  0  0  0  0  0  0  0  0  0  0  0
   -7.2470   22.2180  -31.7280 C   0  0  0  0  0  0  0  0  0  0  0  0
   -8.3510   21.4040  -31.9580 C   0  0  0  0  0  0  0  0  0  0  0  0
   -8.1210   20.0780  -32.3590 C   0  0  0  0  0  0  0  0  0  0  0  0
   -6.7980   19.5900  -32.5260 C   0  0  0  0  0  0  0  0  0  0  0  0
   -6.5630   18.1460  -32.8920 C   0  0  0  0  0  0  0  0  0  0  0  0
   -6.2090   18.0660  -34.2260 F   0  0  0  0  0  0  0  0  0  0  0  0
   -5.5490   17.6060  -32.1220 F   0  0  0  0  0  0  0  0  0  0  0  0
   -7.7100   17.3980  -32.6840 F   0  0  0  0  0  0  0  0  0  0  0  0
   -5.7030   20.4410  -32.2540 C   0  0  0  0  0  0  0  0  0  0  0  0
   -5.9630   21.7650  -31.8830 C   0  0  0  0  0  0  0  0  0  0  0  0
   -1.0990   22.3259  -29.4167 H   0  0  0  0  0  0  0  0  0  0  0  0
   -1.4918   21.5141  -30.9702 H   0  0  0  0  0  0  0  0  0  0  0  0
   -0.8599   23.1956  -30.9702 H   0  0  0  0  0  0  0  0  0  0  0  0
   -2.7950   24.0360  -30.3500 H   0  0  0  0  0  0  0  0  0  0  0  0
   -4.5642   22.3237  -29.2856 H   0  0  0  0  0  0  0  0  0  0  0  0
   -2.9346   21.7670  -28.6640 H   0  0  0  0  0  0  0  0  0  0  0  0
   -1.9252   25.6396  -26.6427 H   0  0  0  0  0  0  0  0  0  0  0  0
   -0.7087   24.3513  -26.3094 H   0  0  0  0  0  0  0  0  0  0  0  0
   -3.4930   25.6760  -29.7020 H   0  0  0  0  0  0  0  0  0  0  0  0
   -8.0274   24.1878  -31.0571 H   0  0  0  0  0  0  0  0  0  0  0  0
   -9.3740   21.7875  -31.8296 H   0  0  0  0  0  0  0  0  0  0  0  0
   -8.9749   19.4102  -32.5458 H   0  0  0  0  0  0  0  0  0  0  0  0
   -4.6700   20.0711  -32.3321 H   0  0  0  0  0  0  0  0  0  0  0  0
  1  2  1  0
  2  3  1  0
  3  4  1  0
  4  5  2  0
  4  6  1  0
  6  7  1  0
  7  8  1  0
  8  9  2  0
  8 10  1  0
  2 11  1  0
 11 12  2  0
 11 13  1  0
 13 14  1  0
 14 15  1  0
 15 16  1  0
 15 17  2  0
 14 18  2  0
 18 19  1  0
 19 20  2  0
 20 21  1  0
 21 22  2  0
 22 23  1  0
 23 24  1  0
 23 25  1  0
 23 26  1  0
 22 27  1  0
 27 28  2  0
 28 13  1  0
 28 19  1  0
  1 29  1  0
  1 30  1  0
  1 31  1  0
  2 32  1  1
  3 33  1  0
  3 34  1  0
  7 35  1  0
  7 36  1  0
 16 37  1  0
 18 38  1  0
 20 39  1  0
 21 40  1  0
 27 41  1  0
M  CHG  3   2   1  10  -1  16  -1
M  END
>  <UniqueID>  (26) 
26

>  <SMILES>  (26) 
C[N@H+](CC(=O)OCC(=O)[O-])C(=O)n1c(C([NH-])=O)cc2ccc(C(F)(F)F)cc21

>  <Energy>  (26) 
83.30727045455333

>  <Genealogy>  (26) 
C[NH+](CC(=O)OCC(=O)[O-])C(=O)n1c(C([NH-])=O)cc2ccc(C(F)(F)F)cc21 (protonated)
C[N@H+](CC(=O)OCC(=O)[O-])C(=O)n1c(C([NH-])=O)cc2ccc(C(F)(F)F)cc21 (chirality)
C[N@H+](CC(=O)OCC(=O)[O-])C(=O)n1c(C([NH-])=O)cc2ccc(C(F)(F)F)cc21 (3D coordinates assigned)
C[N@H+](CC(=O)OCC(=O)[O-])C(=O)n1c(C([NH-])=O)cc2ccc(C(F)(F)F)cc21 (optimized conformer: 83.30727045455333 kcal/mol)

>  <smiles>  (26) 
CN(CC(=O)OCC(=O)O)C(=O)n1c(C(N)=O)cc2ccc(C(F)(F)F)cc21

>  <score_type>  (26) 
oracle

>  <origin>  (26) 
adg

>  <m_score__min__energy>  (26) 
-11.050000000000001

>  <m_primary>  (26) 
energy

$$$$
26:0
     RDKit          3D

 66 67  0  0  0  0  0  0  0  0999 V2000
    0.6910   18.5890  -32.9220 C   0  0  0  0  0  0  0  0  0  0  0  0
   -0.2260   19.6770  -32.5740 N   0  0  0  0  0  0  0  0  0  0  0  0
   -1.0540   19.5920  -31.3640 C   0  0  0  0  0  0  0  0  0  0  0  0
   -0.3500   20.2470  -30.1690 C   0  0  0  0  0  0  0  0  0  0  0  0
   -1.1330   21.3780  -29.6540 N   0  0  0  0  0  0  0  0  0  0  0  0
   -0.8970   22.7230  -30.1880 C   0  0  0  0  0  0  0  0  0  0  0  0
   -2.1380   21.1870  -28.6410 C   0  0  0  0  0  0  0  0  0  0  0  0
   -2.7260   22.1890  -28.1510 O   0  0  0  0  0  0  0  0  0  0  0  0
   -2.4490   19.8900  -28.1990 O   0  0  0  0  0  0  0  0  0  0  0  0
   -2.0530   19.3020  -26.9500 C   0  0  0  0  0  0  0  0  0  0  0  0
   -1.5640   20.4420  -26.0470 C   0  0  0  0  0  0  0  0  0  0  0  0
   -3.2560   18.6150  -26.2770 C   0  0  0  0  0  0  0  0  0  0  0  0
   -0.8960   18.3010  -27.1460 C   0  0  0  0  0  0  0  0  0  0  0  0
   -0.3440   20.8180  -33.4440 C   0  0  0  0  0  0  0  0  0  0  0  0
    0.6710   21.5180  -33.7130 O   0  0  0  0  0  0  0  0  0  0  0  0
   -1.5890   21.1450  -33.9960 O   0  0  0  0  0  0  0  0  0  0  0  0
   -2.8080   21.0750  -33.2630 C   0  0  0  0  0  0  0  0  0  0  0  0
   -3.6280   20.0330  -33.7830 O   0  0  0  0  0  0  0  0  0  0  0  0
   -4.3420   19.1490  -32.9680 C   0  0  0  0  0  0  0  0  0  0  0  0
   -3.7460   18.1660  -32.4450 O   0  0  0  0  0  0  0  0  0  0  0  0
   -5.7550   19.3400  -32.7490 N   0  0  0  0  0  0  0  0  0  0  0  0
   -6.7380   18.3960  -32.8140 C   0  0  0  0  0  0  0  0  0  0  0  0
   -6.5670   16.9890  -33.2100 C   0  0  0  0  0  0  0  0  0  0  0  0
   -5.6130   16.1550  -32.5530 N   0  0  0  0  0  0  0  0  0  0  0  0
   -7.2090   16.5410  -34.1970 O   0  0  0  0  0  0  0  0  0  0  0  0
   -7.9640   18.9240  -32.4270 C   0  0  0  0  0  0  0  0  0  0  0  0
   -7.7170   20.2450  -32.1450 C   0  0  0  0  0  0  0  0  0  0  0  0
   -8.5930   21.2450  -31.7360 C   0  0  0  0  0  0  0  0  0  0  0  0
   -8.0730   22.5310  -31.5260 C   0  0  0  0  0  0  0  0  0  0  0  0
   -6.6970   22.7940  -31.7260 C   0  0  0  0  0  0  0  0  0  0  0  0
   -6.1590   24.1810  -31.5130 C   0  0  0  0  0  0  0  0  0  0  0  0
   -4.5630   24.1150  -30.6440 P   0  0  0  0  0  0  0  0  0  0  0  0
   -4.7760   23.5950  -29.2420 O   0  0  0  0  0  0  0  0  0  0  0  0
   -3.8850   25.6630  -30.5710 O   0  0  0  0  0  0  0  0  0  0  0  0
   -3.5160   23.0780  -31.4710 O   0  0  0  0  0  0  0  0  0  0  0  0
   -5.8390   21.7590  -32.1590 C   0  0  0  0  0  0  0  0  0  0  0  0
   -6.3780   20.4770  -32.3450 C   0  0  0  0  0  0  0  0  0  0  0  0
    1.0793   18.1283  -32.0017 H   0  0  0  0  0  0  0  0  0  0  0  0
    0.1544   17.8320  -33.5128 H   0  0  0  0  0  0  0  0  0  0  0  0
    1.5279   18.9897  -33.5128 H   0  0  0  0  0  0  0  0  0  0  0  0
   -2.0093   20.1065  -31.5449 H   0  0  0  0  0  0  0  0  0  0  0  0
   -1.2259   18.5308  -31.1309 H   0  0  0  0  0  0  0  0  0  0  0  0
   -0.2272   19.5008  -29.3702 H   0  0  0  0  0  0  0  0  0  0  0  0
    0.6302   20.6204  -30.5004 H   0  0  0  0  0  0  0  0  0  0  0  0
   -0.7727   23.4314  -29.3557 H   0  0  0  0  0  0  0  0  0  0  0  0
    0.0140   22.7181  -30.8045 H   0  0  0  0  0  0  0  0  0  0  0  0
   -1.7553   23.0286  -30.8045 H   0  0  0  0  0  0  0  0  0  0  0  0
   -1.6878   20.1535  -24.9927 H   0  0  0  0  0  0  0  0  0  0  0  0
   -0.5014   20.6408  -26.2504 H   0  0  0  0  0  0  0  0  0  0  0  0
   -2.1522   21.3490  -26.2504 H   0  0  0  0  0  0  0  0  0  0  0  0
   -3.1489   18.6762  -25.1839 H   0  0  0  0  0  0  0  0  0  0  0  0
   -4.1846   19.1190  -26.5832 H   0  0  0  0  0  0  0  0  0  0  0  0
   -3.2938   17.5592  -26.5832 H   0  0  0  0  0  0  0  0  0  0  0  0
   -0.5213   17.9768  -26.1639 H   0  0  0  0  0  0  0  0  0  0  0  0
   -1.2584   17.4269  -27.7069 H   0  0  0  0  0  0  0  0  0  0  0  0
   -0.0831   18.7854  -27.7069 H   0  0  0  0  0  0  0  0  0  0  0  0
   -2.5861   20.8708  -32.2051 H   0  0  0  0  0  0  0  0  0  0  0  0
   -3.3401   22.0335  -33.3534 H   0  0  0  0  0  0  0  0  0  0  0  0
   -5.0010   16.5360  -31.8000 H   0  0  0  0  0  0  0  0  0  0  0  0
   -5.5030   15.1560  -32.8360 H   0  0  0  0  0  0  0  0  0  0  0  0
   -8.9268   18.3962  -32.3607 H   0  0  0  0  0  0  0  0  0  0  0  0
   -9.6615   21.0339  -31.5818 H   0  0  0  0  0  0  0  0  0  0  0  0
   -8.7413   23.3427  -31.2028 H   0  0  0  0  0  0  0  0  0  0  0  0
   -6.0206   24.6699  -32.4886 H   0  0  0  0  0  0  0  0  0  0  0  0
   -6.8745   24.7515  -30.9026 H   0  0  0  0  0  0  0  0  0  0  0  0
   -4.7726   21.9535  -32.3461 H   0  0  0  0  0  0  0  0  0  0  0  0
  1  2  1  0
  2  3  1  0
  3  4  1  0
  4  5  1  0
  5  6  1  0
  5  7  1  0
  7  8  2  0
  7  9  1  0
  9 10  1  0
 10 11  1  0
 10 12  1  0
 10 13  1  0
  2 14  1  0
 14 15  2  0
 14 16  1  0
 16 17  1  0
 17 18  1  0
 18 19  1  0
 19 20  2  0
 19 21  1  0
 21 22  1  0
 22 23  1  0
 23 24  1  0
 23 25  2  0
 22 26  2  0
 26 27  1  0
 27 28  2  0
 28 29  1  0
 29 30  2  0
 30 31  1  0
 31 32  1  0
 32 33  2  0
 32 34  1  0
 32 35  1  0
 30 36  1  0
 36 37  2  0
 37 21  1  0
 37 27  1  0
  1 38  1  0
  1 39  1  0
  1 40  1  0
  3 41  1  0
  3 42  1  0
  4 43  1  0
  4 44  1  0
  6 45  1  0
  6 46  1  0
  6 47  1  0
 11 48  1  0
 11 49  1  0
 11 50  1  0
 12 51  1  0
 12 52  1  0
 12 53  1  0
 13 54  1  0
 13 55  1  0
 13 56  1  0
 17 57  1  0
 17 58  1  0
 24 59  1  0
 24 60  1  0
 26 61  1  0
 28 62  1  0
 29 63  1  0
 31 64  1  0
 31 65  1  0
 36 66  1  0
M  CHG  2  34  -1  35  -1
M  END
>  <UniqueID>  (27) 
27

>  <SMILES>  (27) 
CN(CCN(C)C(=O)OC(C)(C)C)C(=O)OCOC(=O)n1c(C(N)=O)cc2ccc(CP(=O)([O-])[O-])cc21

>  <Energy>  (27) 
77.59383597106638

>  <Genealogy>  (27) 
CN(CCN(C)C(=O)OC(C)(C)C)C(=O)OCOC(=O)n1c(C(N)=O)cc2ccc(CP(=O)([O-])[O-])cc21 (protonated)
CN(CCN(C)C(=O)OC(C)(C)C)C(=O)OCOC(=O)n1c(C(N)=O)cc2ccc(CP(=O)([O-])[O-])cc21 (3D coordinates assigned)
CN(CCN(C)C(=O)OC(C)(C)C)C(=O)OCOC(=O)n1c(C(N)=O)cc2ccc(CP(=O)([O-])[O-])cc21 (optimized conformer: 77.59383597106638 kcal/mol)

>  <smiles>  (27) 
CN(CCN(C)C(=O)OC(C)(C)C)C(=O)OCOC(=O)n1c(C(N)=O)cc2ccc(CP(=O)(O)O)cc21

>  <score_type>  (27) 
oracle

>  <origin>  (27) 
adg

>  <m_score__min__energy>  (27) 
-11.51

>  <m_primary>  (27) 
energy

$$$$
27:0
     RDKit          3D

 42 43  0  0  0  0  0  0  0  0999 V2000
   -2.8540   20.5430  -32.8560 C   0  0  0  0  0  0  0  0  0  0  0  0
   -1.9460   20.6230  -31.8870 C   0  0  0  0  0  0  0  0  0  0  0  0
   -0.7960   21.5350  -31.9650 C   0  0  0  0  0  0  0  0  0  0  0  0
   -0.0960   21.5500  -33.0130 O   0  0  0  0  0  0  0  0  0  0  0  0
   -0.4870   22.3780  -30.8900 O   0  0  0  0  0  0  0  0  0  0  0  0
   -1.4410   22.8070  -29.9210 C   0  0  2  0  0  0  0  0  0  0  0  0
   -2.7190   22.9540  -30.5410 O   0  0  0  0  0  0  0  0  0  0  0  0
   -3.9210   22.5060  -29.9830 C   0  0  0  0  0  0  0  0  0  0  0  0
   -3.9260   21.8770  -28.8890 O   0  0  0  0  0  0  0  0  0  0  0  0
   -5.1540   22.7490  -30.6740 N   0  0  0  0  0  0  0  0  0  0  0  0
   -5.8080   23.9340  -30.8400 C   0  0  0  0  0  0  0  0  0  0  0  0
   -5.3030   25.2660  -30.4450 C   0  0  0  0  0  0  0  0  0  0  0  0
   -3.9960   25.6740  -30.8400 N   0  0  0  0  0  0  0  0  0  0  0  0
   -6.0000   26.0360  -29.7330 O   0  0  0  0  0  0  0  0  0  0  0  0
   -7.0120   23.7360  -31.5120 C   0  0  0  0  0  0  0  0  0  0  0  0
   -7.0740   22.3830  -31.7580 C   0  0  0  0  0  0  0  0  0  0  0  0
   -8.0590   21.6310  -32.3860 C   0  0  0  0  0  0  0  0  0  0  0  0
   -7.8760   20.2410  -32.4730 C   0  0  0  0  0  0  0  0  0  0  0  0
   -6.7190   19.6160  -31.9280 C   0  0  0  0  0  0  0  0  0  0  0  0
   -6.5450   18.1770  -32.0100 N   0  0  0  0  0  0  0  0  0  0  0  0
   -6.7800   17.4670  -33.2730 C   0  0  0  0  0  0  0  0  0  0  0  0
   -6.1280   17.4070  -30.8300 C   0  0  0  0  0  0  0  0  0  0  0  0
   -5.7400   20.4280  -31.2970 C   0  0  0  0  0  0  0  0  0  0  0  0
   -5.9430   21.8110  -31.2430 C   0  0  0  0  0  0  0  0  0  0  0  0
   -1.0150   24.1340  -29.3830 C   0  0  0  0  0  0  0  0  0  0  0  0
    0.1570   24.2960  -28.9550 O   0  0  0  0  0  0  0  0  0  0  0  0
   -1.9080   25.1970  -29.3670 O   0  0  0  0  0  0  0  0  0  0  0  0
   -3.7009   19.8475  -32.7601 H   0  0  0  0  0  0  0  0  0  0  0  0
   -2.7579   21.1723  -33.7531 H   0  0  0  0  0  0  0  0  0  0  0  0
   -2.0597   19.9854  -30.9979 H   0  0  0  0  0  0  0  0  0  0  0  0
   -1.5047   22.0652  -29.1112 H   0  0  0  0  0  0  0  0  0  0  0  0
   -3.1580   25.1000  -30.5970 H   0  0  0  0  0  0  0  0  0  0  0  0
   -7.7552   24.4987  -31.7875 H   0  0  0  0  0  0  0  0  0  0  0  0
   -8.9568   22.1105  -32.8033 H   0  0  0  0  0  0  0  0  0  0  0  0
   -8.6396   19.6251  -32.9706 H   0  0  0  0  0  0  0  0  0  0  0  0
   -7.1191   16.4425  -33.0601 H   0  0  0  0  0  0  0  0  0  0  0  0
   -7.5512   17.9954  -33.8527 H   0  0  0  0  0  0  0  0  0  0  0  0
   -5.8458   17.4310  -33.8527 H   0  0  0  0  0  0  0  0  0  0  0  0
   -6.4205   17.9472  -29.9175 H   0  0  0  0  0  0  0  0  0  0  0  0
   -6.6154   16.4210  -30.8446 H   0  0  0  0  0  0  0  0  0  0  0  0
   -5.0359   17.2764  -30.8446 H   0  0  0  0  0  0  0  0  0  0  0  0
   -4.8376   19.9774  -30.8582 H   0  0  0  0  0  0  0  0  0  0  0  0
  1  2  2  0
  2  3  1  0
  3  4  2  0
  3  5  1  0
  5  6  1  0
  6  7  1  0
  7  8  1  0
  8  9  2  0
  8 10  1  0
 10 11  1  0
 11 12  1  0
 12 13  1  0
 12 14  2  0
 11 15  2  0
 15 16  1  0
 16 17  2  0
 17 18  1  0
 18 19  2  0
 19 20  1  0
 20 21  1  0
 20 22  1  0
 19 23  1  0
 23 24  2  0
  6 25  1  0
 25 26  2  0
 25 27  1  0
 24 10  1  0
 24 16  1  0
  1 28  1  0
  1 29  1  0
  2 30  1  0
  6 31  1  1
 13 32  1  0
 15 33  1  0
 17 34  1  0
 18 35  1  0
 21 36  1  0
 21 37  1  0
 21 38  1  0
 22 39  1  0
 22 40  1  0
 22 41  1  0
 23 42  1  0
M  CHG  2  13  -1  27  -1
M  END
>  <UniqueID>  (28) 
28

>  <SMILES>  (28) 
C=CC(=O)O[C@H](OC(=O)n1c(C([NH-])=O)cc2ccc(N(C)C)cc21)C(=O)[O-]

>  <Energy>  (28) 
76.40849533613144

>  <Genealogy>  (28) 
C=CC(=O)OC(OC(=O)n1c(C([NH-])=O)cc2ccc(N(C)C)cc21)C(=O)[O-] (protonated)
C=CC(=O)O[C@H](OC(=O)n1c(C([NH-])=O)cc2ccc(N(C)C)cc21)C(=O)[O-] (chirality)
C=CC(=O)O[C@H](OC(=O)n1c(C([NH-])=O)cc2ccc(N(C)C)cc21)C(=O)[O-] (3D coordinates assigned)
C=CC(=O)O[C@H](OC(=O)n1c(C([NH-])=O)cc2ccc(N(C)C)cc21)C(=O)[O-] (optimized conformer: 76.40849533613144 kcal/mol)

>  <smiles>  (28) 
C=CC(=O)OC(OC(=O)n1c(C(N)=O)cc2ccc(N(C)C)cc21)C(=O)O

>  <score_type>  (28) 
oracle

>  <origin>  (28) 
adg

>  <m_score__min__energy>  (28) 
-12.19

>  <m_primary>  (28) 
energy

$$$$
28:0
     RDKit          3D

 37 38  0  0  0  0  0  0  0  0999 V2000
   -2.7870   20.6750  -29.4610 C   0  0  0  0  0  0  0  0  0  0  0  0
   -3.3100   22.0450  -29.4830 N   0  0  0  0  0  0  0  0  0  0  0  0
   -3.3520   22.8380  -28.2440 C   0  0  0  0  0  0  0  0  0  0  0  0
   -2.1780   23.8200  -28.1710 C   0  0  0  0  0  0  0  0  0  0  0  0
   -2.3570   24.9110  -29.1240 N   0  0  0  0  0  0  0  0  0  0  0  0
   -3.7490   22.6020  -30.7390 C   0  0  0  0  0  0  0  0  0  0  0  0
   -2.8990   22.9720  -31.5950 O   0  0  0  0  0  0  0  0  0  0  0  0
   -5.1450   22.7640  -31.0310 N   0  0  0  0  0  0  0  0  0  0  0  0
   -5.8930   23.8980  -30.9370 C   0  0  0  0  0  0  0  0  0  0  0  0
   -5.4080   25.2140  -30.4710 C   0  0  0  0  0  0  0  0  0  0  0  0
   -4.1080   25.6660  -30.8440 N   0  0  0  0  0  0  0  0  0  0  0  0
   -6.1350   25.9510  -29.7550 O   0  0  0  0  0  0  0  0  0  0  0  0
   -7.2150   23.6390  -31.2980 C   0  0  0  0  0  0  0  0  0  0  0  0
   -7.2530   22.2940  -31.6010 C   0  0  0  0  0  0  0  0  0  0  0  0
   -8.3110   21.4980  -32.0260 C   0  0  0  0  0  0  0  0  0  0  0  0
   -8.0520   20.1390  -32.2780 C   0  0  0  0  0  0  0  0  0  0  0  0
   -6.7520   19.6040  -32.0900 C   0  0  0  0  0  0  0  0  0  0  0  0
   -6.4760   18.1630  -32.4070 C   0  0  0  0  0  0  0  0  0  0  0  0
   -6.0450   18.0000  -34.1260 Cl  0  0  0  0  0  0  0  0  0  0  0  0
   -5.7020   20.4460  -31.6640 C   0  0  0  0  0  0  0  0  0  0  0  0
   -5.9910   21.7910  -31.4210 C   0  0  0  0  0  0  0  0  0  0  0  0
   -2.6618   20.3470  -28.4185 H   0  0  0  0  0  0  0  0  0  0  0  0
   -3.4926   20.0049  -29.9740 H   0  0  0  0  0  0  0  0  0  0  0  0
   -1.8144   20.6455  -29.9740 H   0  0  0  0  0  0  0  0  0  0  0  0
   -4.2948   23.4038  -28.2126 H   0  0  0  0  0  0  0  0  0  0  0  0
   -3.2823   22.1496  -27.3889 H   0  0  0  0  0  0  0  0  0  0  0  0
   -2.1174   24.2352  -27.1542 H   0  0  0  0  0  0  0  0  0  0  0  0
   -1.2514   23.2820  -28.4198 H   0  0  0  0  0  0  0  0  0  0  0  0
   -2.4470   24.4990  -30.0810 H   0  0  0  0  0  0  0  0  0  0  0  0
   -3.2730   25.3690  -28.9150 H   0  0  0  0  0  0  0  0  0  0  0  0
   -3.3080   25.0000  -30.9110 H   0  0  0  0  0  0  0  0  0  0  0  0
   -8.0495   24.3548  -31.3335 H   0  0  0  0  0  0  0  0  0  0  0  0
   -9.3186   21.9181  -32.1608 H   0  0  0  0  0  0  0  0  0  0  0  0
   -8.8655   19.4846  -32.6243 H   0  0  0  0  0  0  0  0  0  0  0  0
   -5.6422   17.8049  -31.7853 H   0  0  0  0  0  0  0  0  0  0  0  0
   -7.3753   17.5650  -32.1982 H   0  0  0  0  0  0  0  0  0  0  0  0
   -4.6836   20.0535  -31.5271 H   0  0  0  0  0  0  0  0  0  0  0  0
  1  2  1  0
  2  3  1  0
  3  4  1  0
  4  5  1  0
  2  6  1  0
  6  7  2  0
  6  8  1  0
  8  9  1  0
  9 10  1  0
 10 11  1  0
 10 12  2  0
  9 13  2  0
 13 14  1  0
 14 15  2  0
 15 16  1  0
 16 17  2  0
 17 18  1  0
 18 19  1  0
 17 20  1  0
 20 21  2  0
 21  8  1  0
 21 14  1  0
  1 22  1  0
  1 23  1  0
  1 24  1  0
  3 25  1  0
  3 26  1  0
  4 27  1  0
  4 28  1  0
  5 29  1  0
  5 30  1  0
 11 31  1  0
 13 32  1  0
 15 33  1  0
 16 34  1  0
 18 35  1  0
 18 36  1  0
 20 37  1  0
M  CHG  1  11  -1
M  END
>  <UniqueID>  (29) 
29

>  <SMILES>  (29) 
CN(CCN)C(=O)n1c(C([NH-])=O)cc2ccc(CCl)cc21

>  <Energy>  (29) 
68.99306271884494

>  <Genealogy>  (29) 
CN(CCN)C(=O)n1c(C([NH-])=O)cc2ccc(CCl)cc21 (protonated)
CN(CCN)C(=O)n1c(C([NH-])=O)cc2ccc(CCl)cc21 (3D coordinates assigned)
CN(CCN)C(=O)n1c(C([NH-])=O)cc2ccc(CCl)cc21 (optimized conformer: 68.99306271884494 kcal/mol)

>  <smiles>  (29) 
CN(CCN)C(=O)n1c(C(N)=O)cc2ccc(CCl)cc21

>  <score_type>  (29) 
oracle

>  <origin>  (29) 
adg

>  <m_score__min__energy>  (29) 
-9.9600000000000009

>  <m_primary>  (29) 
energy

$$$$
29:0
     RDKit          3D

 47 48  0  0  0  0  0  0  0  0999 V2000
   -2.7220   19.1300  -33.1660 C   0  0  0  0  0  0  0  0  0  0  0  0
   -3.8240   18.1720  -33.3520 N   0  0  0  0  0  0  0  0  0  0  0  0
   -3.2870   16.8020  -33.3800 C   0  0  0  0  0  0  0  0  0  0  0  0
   -4.5630   18.4820  -34.5950 C   0  0  0  0  0  0  0  0  0  0  0  0
   -6.0480   18.1070  -34.4710 C   0  0  0  0  0  0  0  0  0  0  0  0
   -6.5480   18.3370  -33.1030 N   0  0  0  0  0  0  0  0  0  0  0  0
   -6.7310   17.1960  -32.2020 C   0  0  0  0  0  0  0  0  0  0  0  0
   -6.8180   19.6750  -32.6240 C   0  0  0  0  0  0  0  0  0  0  0  0
   -8.1400   20.1930  -32.6240 C   0  0  0  0  0  0  0  0  0  0  0  0
   -8.4050   21.4960  -32.1730 C   0  0  0  0  0  0  0  0  0  0  0  0
   -7.3370   22.2580  -31.7130 C   0  0  0  0  0  0  0  0  0  0  0  0
   -7.3130   23.5480  -31.2340 C   0  0  0  0  0  0  0  0  0  0  0  0
   -5.9800   23.7990  -30.9140 C   0  0  0  0  0  0  0  0  0  0  0  0
   -5.5090   25.0470  -30.2710 C   0  0  0  0  0  0  0  0  0  0  0  0
   -4.1790   25.5230  -30.4890 N   0  0  0  0  0  0  0  0  0  0  0  0
   -6.2890   25.7190  -29.5470 O   0  0  0  0  0  0  0  0  0  0  0  0
   -5.2100   22.7070  -31.1900 N   0  0  0  0  0  0  0  0  0  0  0  0
   -3.7850   22.5810  -31.0410 C   0  0  0  0  0  0  0  0  0  0  0  0
   -3.1070   21.9880  -31.9240 O   0  0  0  0  0  0  0  0  0  0  0  0
   -3.1350   23.1260  -29.8880 N   0  0  0  0  0  0  0  0  0  0  0  0
   -1.7050   22.9980  -29.6490 C   0  0  0  0  0  0  0  0  0  0  0  0
   -1.1370   24.3400  -29.3320 C   0  0  0  0  0  0  0  0  0  0  0  0
    0.0730   24.4570  -29.0060 O   0  0  0  0  0  0  0  0  0  0  0  0
   -1.9600   25.4590  -29.3330 O   0  0  0  0  0  0  0  0  0  0  0  0
   -6.0570   21.7730  -31.6790 C   0  0  0  0  0  0  0  0  0  0  0  0
   -5.7620   20.4880  -32.1480 C   0  0  0  0  0  0  0  0  0  0  0  0
   -2.5464   19.2827  -32.0909 H   0  0  0  0  0  0  0  0  0  0  0  0
   -1.8088   18.7338  -33.6341 H   0  0  0  0  0  0  0  0  0  0  0  0
   -2.9873   20.0894  -33.6341 H   0  0  0  0  0  0  0  0  0  0  0  0
   -3.1460   16.4423  -32.3501 H   0  0  0  0  0  0  0  0  0  0  0  0
   -3.9930   16.1421  -33.9054 H   0  0  0  0  0  0  0  0  0  0  0  0
   -2.3206   16.7976  -33.9054 H   0  0  0  0  0  0  0  0  0  0  0  0
   -4.4817   19.5595  -34.8008 H   0  0  0  0  0  0  0  0  0  0  0  0
   -4.1243   17.8945  -35.4150 H   0  0  0  0  0  0  0  0  0  0  0  0
   -6.6319   18.7200  -35.1734 H   0  0  0  0  0  0  0  0  0  0  0  0
   -6.1558   17.0374  -34.7040 H   0  0  0  0  0  0  0  0  0  0  0  0
   -6.6758   17.5401  -31.1587 H   0  0  0  0  0  0  0  0  0  0  0  0
   -7.7141   16.7379  -32.3855 H   0  0  0  0  0  0  0  0  0  0  0  0
   -5.9405   16.4534  -32.3855 H   0  0  0  0  0  0  0  0  0  0  0  0
   -8.9685   19.5644  -32.9825 H   0  0  0  0  0  0  0  0  0  0  0  0
   -9.4273   21.9019  -32.1833 H   0  0  0  0  0  0  0  0  0  0  0  0
   -8.1652   24.2352  -31.1265 H   0  0  0  0  0  0  0  0  0  0  0  0
   -3.8680   26.4220  -30.0600 H   0  0  0  0  0  0  0  0  0  0  0  0
   -3.4820   24.9620  -31.0290 H   0  0  0  0  0  0  0  0  0  0  0  0
   -1.5333   22.3169  -28.8025 H   0  0  0  0  0  0  0  0  0  0  0  0
   -1.2157   22.5932  -30.5472 H   0  0  0  0  0  0  0  0  0  0  0  0
   -4.7268   20.1161  -32.1467 H   0  0  0  0  0  0  0  0  0  0  0  0
  1  2  1  0
  2  3  1  0
  2  4  1  0
  4  5  1  0
  5  6  1  0
  6  7  1  0
  6  8  1  0
  8  9  2  0
  9 10  1  0
 10 11  2  0
 11 12  1  0
 12 13  2  0
 13 14  1  0
 14 15  1  0
 14 16  2  0
 13 17  1  0
 17 18  1  0
 18 19  2  0
 18 20  1  0
 20 21  1  0
 21 22  1  0
 22 23  2  0
 22 24  1  0
 17 25  1  0
 25 26  2  0
 26  8  1  0
 25 11  1  0
  1 27  1  0
  1 28  1  0
  1 29  1  0
  3 30  1  0
  3 31  1  0
  3 32  1  0
  4 33  1  0
  4 34  1  0
  5 35  1  0
  5 36  1  0
  7 37  1  0
  7 38  1  0
  7 39  1  0
  9 40  1  0
 10 41  1  0
 12 42  1  0
 15 43  1  0
 15 44  1  0
 21 45  1  0
 21 46  1  0
 26 47  1  0
M  CHG  2  20  -1  24  -1
M  END
>  <UniqueID>  (30) 
30

>  <SMILES>  (30) 
CN(C)CCN(C)c1ccc2cc(C(N)=O)n(C(=O)[N-]CC(=O)[O-])c2c1

>  <Energy>  (30) 
81.85244298370938

>  <Genealogy>  (30) 
CN(C)CCN(C)c1ccc2cc(C(N)=O)n(C(=O)[N-]CC(=O)[O-])c2c1 (protonated)
CN(C)CCN(C)c1ccc2cc(C(N)=O)n(C(=O)[N-]CC(=O)[O-])c2c1 (3D coordinates assigned)
CN(C)CCN(C)c1ccc2cc(C(N)=O)n(C(=O)[N-]CC(=O)[O-])c2c1 (optimized conformer: 81.85244298370938 kcal/mol)

>  <smiles>  (30) 
CN(C)CCN(C)c1ccc2cc(C(N)=O)n(C(=O)NCC(=O)O)c2c1

>  <score_type>  (30) 
oracle

>  <origin>  (30) 
adg

>  <m_score__min__energy>  (30) 
-11.68

>  <m_primary>  (30) 
energy

$$$$
30:0
     RDKit          3D

 40 42  0  0  0  0  0  0  0  0999 V2000
   -3.8100   23.9320  -27.5420 C   0  0  0  0  0  0  0  0  0  0  0  0
   -3.8500   22.8860  -28.3740 C   0  0  0  0  0  0  0  0  0  0  0  0
   -2.7370   22.6160  -29.3460 C   0  0  0  0  0  0  0  0  0  0  0  0
   -2.9790   23.2650  -30.5930 O   0  0  0  0  0  0  0  0  0  0  0  0
   -3.7930   22.7240  -31.5950 C   0  0  0  0  0  0  0  0  0  0  0  0
   -3.2780   22.2490  -32.6430 O   0  0  0  0  0  0  0  0  0  0  0  0
   -5.2230   22.7320  -31.4340 N   0  0  0  0  0  0  0  0  0  0  0  0
   -5.9980   23.7700  -31.0080 C   0  0  0  0  0  0  0  0  0  0  0  0
   -5.5080   25.0290  -30.4160 C   0  0  0  0  0  0  0  0  0  0  0  0
   -4.1990   25.5190  -30.7100 N   0  0  0  0  0  0  0  0  0  0  0  0
   -6.2280   25.6480  -29.5880 O   0  0  0  0  0  0  0  0  0  0  0  0
   -7.3500   23.4650  -31.1420 C   0  0  0  0  0  0  0  0  0  0  0  0
   -7.3850   22.1890  -31.6530 C   0  0  0  0  0  0  0  0  0  0  0  0
   -8.4740   21.3940  -31.9950 C   0  0  0  0  0  0  0  0  0  0  0  0
   -8.2180   20.1210  -32.5310 C   0  0  0  0  0  0  0  0  0  0  0  0
   -6.8890   19.6750  -32.7200 C   0  0  0  0  0  0  0  0  0  0  0  0
   -6.6410   18.3800  -33.2680 N   0  0  0  0  0  0  0  0  0  0  0  0
   -6.8650   16.9740  -32.8840 C   0  0  0  0  0  0  0  0  0  0  0  0
   -6.2800   16.3770  -34.1250 C   0  0  0  0  0  0  0  0  0  0  0  0
   -5.0740   15.7050  -33.8800 O   0  0  0  0  0  0  0  0  0  0  0  0
   -6.0570   17.8080  -34.4960 C   0  0  0  0  0  0  0  0  0  0  0  0
   -5.8070   20.5080  -32.3710 C   0  0  0  0  0  0  0  0  0  0  0  0
   -6.0890   21.7660  -31.8210 C   0  0  0  0  0  0  0  0  0  0  0  0
   -4.6379   24.1079  -26.8394 H   0  0  0  0  0  0  0  0  0  0  0  0
   -2.9492   24.6166  -27.5601 H   0  0  0  0  0  0  0  0  0  0  0  0
   -4.7164   22.2088  -28.3461 H   0  0  0  0  0  0  0  0  0  0  0  0
   -1.7922   22.9889  -28.9237 H   0  0  0  0  0  0  0  0  0  0  0  0
   -2.6794   21.5315  -29.5206 H   0  0  0  0  0  0  0  0  0  0  0  0
   -3.8730   26.4230  -30.3000 H   0  0  0  0  0  0  0  0  0  0  0  0
   -3.5200   24.9480  -31.2590 H   0  0  0  0  0  0  0  0  0  0  0  0
   -8.2071   24.1077  -30.8923 H   0  0  0  0  0  0  0  0  0  0  0  0
   -9.5042   21.7513  -31.8502 H   0  0  0  0  0  0  0  0  0  0  0  0
   -9.0577   19.4658  -32.8059 H   0  0  0  0  0  0  0  0  0  0  0  0
   -6.3146   16.6890  -31.9752 H   0  0  0  0  0  0  0  0  0  0  0  0
   -7.8934   16.6828  -32.6241 H   0  0  0  0  0  0  0  0  0  0  0  0
   -6.7982   15.6421  -34.7586 H   0  0  0  0  0  0  0  0  0  0  0  0
   -4.3800   16.2050  -34.3800 H   0  0  0  0  0  0  0  0  0  0  0  0
   -4.9917   18.0550  -34.6146 H   0  0  0  0  0  0  0  0  0  0  0  0
   -6.4745   18.1481  -35.4552 H   0  0  0  0  0  0  0  0  0  0  0  0
   -4.7687   20.1796  -32.5261 H   0  0  0  0  0  0  0  0  0  0  0  0
  1  2  2  0
  2  3  1  0
  3  4  1  0
  4  5  1  0
  5  6  2  0
  5  7  1  0
  7  8  1  0
  8  9  1  0
  9 10  1  0
  9 11  2  0
  8 12  2  0
 12 13  1  0
 13 14  2  0
 14 15  1  0
 15 16  2  0
 16 17  1  0
 17 18  1  0
 18 19  1  0
 19 20  1  0
 19 21  1  0
 16 22  1  0
 22 23  2  0
 23  7  1  0
 23 13  1  0
 21 17  1  0
  1 24  1  0
  1 25  1  0
  2 26  1  0
  3 27  1  0
  3 28  1  0
 10 29  1  0
 10 30  1  0
 12 31  1  0
 14 32  1  0
 15 33  1  0
 18 34  1  0
 18 35  1  0
 19 36  1  0
 20 37  1  0
 21 38  1  0
 21 39  1  0
 22 40  1  0
M  END
>  <UniqueID>  (31) 
31

>  <SMILES>  (31) 
C=CCOC(=O)n1c(C(N)=O)cc2ccc(N3CC(O)C3)cc21

>  <Energy>  (31) 
119.59660083549045

>  <Genealogy>  (31) 
C=CCOC(=O)n1c(C(N)=O)cc2ccc(N3CC(O)C3)cc21 (3D coordinates assigned)
C=CCOC(=O)n1c(C(N)=O)cc2ccc(N3CC(O)C3)cc21 (nonaromatic ring conformer: 119.59660083549045 kcal/mol)

>  <smiles>  (31) 
C=CCOC(=O)n1c(C(N)=O)cc2ccc(N3CC(O)C3)cc21

>  <score_type>  (31) 
oracle

>  <origin>  (31) 
adg

>  <m_score__min__energy>  (31) 
-8.0099999999999998

>  <m_primary>  (31) 
energy

$$$$
31:0
     RDKit          3D

 50 51  0  0  0  0  0  0  0  0999 V2000
   -9.1090   22.6390  -31.8930 C   0  0  0  0  0  0  0  0  0  0  0  0
   -9.2450   21.2150  -31.3670 C   0  0  0  0  0  0  0  0  0  0  0  0
   -8.1940   20.3220  -31.9680 C   0  0  0  0  0  0  0  0  0  0  0  0
   -8.5330   19.0170  -32.4050 C   0  0  0  0  0  0  0  0  0  0  0  0
   -7.5650   18.1840  -32.9920 C   0  0  0  0  0  0  0  0  0  0  0  0
   -6.2750   18.6860  -33.1380 C   0  0  0  0  0  0  0  0  0  0  0  0
   -5.1480   18.0980  -33.6660 C   0  0  0  0  0  0  0  0  0  0  0  0
   -4.1450   19.0630  -33.5670 C   0  0  0  0  0  0  0  0  0  0  0  0
   -2.7770   18.9060  -34.1050 C   0  0  0  0  0  0  0  0  0  0  0  0
   -2.0360   20.0350  -34.5710 N   0  0  0  0  0  0  0  0  0  0  0  0
   -2.2400   17.7670  -34.1370 O   0  0  0  0  0  0  0  0  0  0  0  0
   -4.6370   20.1970  -32.9930 N   0  0  0  0  0  0  0  0  0  0  0  0
   -3.9240   21.4010  -32.6740 C   0  0  0  0  0  0  0  0  0  0  0  0
   -3.7890   22.2970  -33.5490 O   0  0  0  0  0  0  0  0  0  0  0  0
   -3.3760   21.6190  -31.3270 C   0  0  0  0  0  0  0  0  0  0  0  0
   -3.7870   20.9190  -30.3610 O   0  0  0  0  0  0  0  0  0  0  0  0
   -2.4080   22.6100  -31.1280 O   0  0  0  0  0  0  0  0  0  0  0  0
   -2.0670   23.1240  -29.8420 C   0  0  0  0  0  0  0  0  0  0  0  0
   -2.5250   24.5420  -29.6910 C   0  0  0  0  0  0  0  0  0  0  0  0
   -1.9640   25.2870  -28.8440 O   0  0  0  0  0  0  0  0  0  0  0  0
   -3.6240   25.0210  -30.4800 N   0  0  0  0  0  0  0  0  0  0  0  0
   -5.0460   24.7110  -30.2880 C   0  0  0  0  0  0  0  0  0  0  0  0
   -5.5840   23.9250  -31.4990 C   0  0  0  0  0  0  0  0  0  0  0  0
   -5.8550   26.0100  -30.0990 C   0  0  0  0  0  0  0  0  0  0  0  0
   -5.1760   23.8320  -29.0280 C   0  0  0  0  0  0  0  0  0  0  0  0
   -4.5960   24.4700  -27.9210 O   0  0  0  0  0  0  0  0  0  0  0  0
   -5.9400   19.9530  -32.7420 C   0  0  0  0  0  0  0  0  0  0  0  0
   -6.8770   20.8020  -32.1460 C   0  0  0  0  0  0  0  0  0  0  0  0
   -9.0423   23.3379  -31.0462 H   0  0  0  0  0  0  0  0  0  0  0  0
   -8.1992   22.7180  -32.5062 H   0  0  0  0  0  0  0  0  0  0  0  0
   -9.9874   22.8888  -32.5062 H   0  0  0  0  0  0  0  0  0  0  0  0
   -9.1301   21.2219  -30.2730 H   0  0  0  0  0  0  0  0  0  0  0  0
  -10.2370   20.8292  -31.6448 H   0  0  0  0  0  0  0  0  0  0  0  0
   -9.5637   18.6526  -32.2836 H   0  0  0  0  0  0  0  0  0  0  0  0
   -7.8190   17.1670  -33.3256 H   0  0  0  0  0  0  0  0  0  0  0  0
   -5.0573   17.0824  -34.0786 H   0  0  0  0  0  0  0  0  0  0  0  0
   -1.0580   19.9150  -34.9120 H   0  0  0  0  0  0  0  0  0  0  0  0
   -2.4660   20.9850  -34.6200 H   0  0  0  0  0  0  0  0  0  0  0  0
   -2.5479   22.5066  -29.0690 H   0  0  0  0  0  0  0  0  0  0  0  0
   -0.9728   23.0960  -29.7327 H   0  0  0  0  0  0  0  0  0  0  0  0
   -6.1725   23.0653  -31.1460 H   0  0  0  0  0  0  0  0  0  0  0  0
   -6.2230   24.5816  -32.1078 H   0  0  0  0  0  0  0  0  0  0  0  0
   -4.7407   23.5670  -32.1078 H   0  0  0  0  0  0  0  0  0  0  0  0
   -5.9802   26.2110  -29.0248 H   0  0  0  0  0  0  0  0  0  0  0  0
   -5.3186   26.8477  -30.5687 H   0  0  0  0  0  0  0  0  0  0  0  0
   -6.8434   25.8980  -30.5687 H   0  0  0  0  0  0  0  0  0  0  0  0
   -6.2411   23.6487  -28.8230 H   0  0  0  0  0  0  0  0  0  0  0  0
   -4.6539   22.8798  -29.2034 H   0  0  0  0  0  0  0  0  0  0  0  0
   -4.0650   25.2260  -28.2850 H   0  0  0  0  0  0  0  0  0  0  0  0
   -6.5968   21.8159  -31.8244 H   0  0  0  0  0  0  0  0  0  0  0  0
  1  2  1  0
  2  3  1  0
  3  4  2  0
  4  5  1  0
  5  6  2  0
  6  7  1  0
  7  8  2  0
  8  9  1  0
  9 10  1  0
  9 11  2  0
  8 12  1  0
 12 13  1  0
 13 14  2  0
 13 15  1  0
 15 16  2  0
 15 17  1  0
 17 18  1  0
 18 19  1  0
 19 20  2  0
 19 21  1  0
 21 22  1  0
 22 23  1  0
 22 24  1  0
 22 25  1  0
 25 26  1  0
 12 27  1  0
 27 28  2  0
 28  3  1  0
 27  6  1  0
  1 29  1  0
  1 30  1  0
  1 31  1  0
  2 32  1  0
  2 33  1  0
  4 34  1  0
  5 35  1  0
  7 36  1  0
 10 37  1  0
 10 38  1  0
 18 39  1  0
 18 40  1  0
 23 41  1  0
 23 42  1  0
 23 43  1  0
 24 44  1  0
 24 45  1  0
 24 46  1  0
 25 47  1  0
 25 48  1  0
 26 49  1  0
 28 50  1  0
M  CHG  1  21  -1
M  END
>  <UniqueID>  (32) 
32

>  <SMILES>  (32) 
CCc1ccc2cc(C(N)=O)n(C(=O)C(=O)OCC(=O)[N-]C(C)(C)CO)c2c1

>  <Energy>  (32) 
76.26343005185868

>  <Genealogy>  (32) 
CCc1ccc2cc(C(N)=O)n(C(=O)C(=O)OCC(=O)[N-]C(C)(C)CO)c2c1 (protonated)
CCc1ccc2cc(C(N)=O)n(C(=O)C(=O)OCC(=O)[N-]C(C)(C)CO)c2c1 (3D coordinates assigned)
CCc1ccc2cc(C(N)=O)n(C(=O)C(=O)OCC(=O)[N-]C(C)(C)CO)c2c1 (optimized conformer: 76.26343005185868 kcal/mol)

>  <smiles>  (32) 
CCc1ccc2cc(C(N)=O)n(C(=O)C(=O)OCC(=O)NC(C)(C)CO)c2c1

>  <score_type>  (32) 
oracle

>  <origin>  (32) 
adg

>  <m_score__min__energy>  (32) 
-10.470000000000001

>  <m_primary>  (32) 
energy

$$$$
32:0
     RDKit          3D

 37 39  0  0  0  0  0  0  0  0999 V2000
   -4.2610   26.0300  -30.4760 N   0  0  0  0  0  0  0  0  0  0  0  0
   -5.5100   25.4500  -30.1100 C   0  0  0  0  0  0  0  0  0  0  0  0
   -6.2390   26.0410  -29.2680 O   0  0  0  0  0  0  0  0  0  0  0  0
   -5.9490   24.1570  -30.6760 C   0  0  0  0  0  0  0  0  0  0  0  0
   -7.2680   23.8770  -31.0310 C   0  0  0  0  0  0  0  0  0  0  0  0
   -7.2600   22.5720  -31.4700 C   0  0  0  0  0  0  0  0  0  0  0  0
   -8.2970   21.7820  -31.9550 C   0  0  0  0  0  0  0  0  0  0  0  0
   -7.9930   20.4730  -32.3650 C   0  0  0  0  0  0  0  0  0  0  0  0
   -6.6610   19.9790  -32.3000 C   0  0  0  0  0  0  0  0  0  0  0  0
   -6.3290   18.5980  -32.7340 C   0  0  0  0  0  0  0  0  0  0  0  0
   -6.0260   17.5850  -31.8090 C   0  0  0  0  0  0  0  0  0  0  0  0
   -5.7250   16.3000  -32.2660 C   0  0  0  0  0  0  0  0  0  0  0  0
   -5.7290   16.0190  -33.6400 C   0  0  0  0  0  0  0  0  0  0  0  0
   -5.4110   14.6610  -34.1330 C   0  0  0  0  0  0  0  0  0  0  0  0
   -4.2200   14.2520  -34.1600 O   0  0  0  0  0  0  0  0  0  0  0  0
   -6.4250   13.8170  -34.5730 O   0  0  0  0  0  0  0  0  0  0  0  0
   -6.0470   17.0560  -34.5320 C   0  0  0  0  0  0  0  0  0  0  0  0
   -6.3360   18.2990  -34.0630 N   0  0  0  0  0  0  0  0  0  0  0  0
   -5.6390   20.8150  -31.7910 C   0  0  0  0  0  0  0  0  0  0  0  0
   -5.9770   22.1060  -31.3740 C   0  0  0  0  0  0  0  0  0  0  0  0
   -5.1610   23.0650  -30.8840 N   0  0  0  0  0  0  0  0  0  0  0  0
   -3.7420   22.9560  -30.6960 C   0  0  0  0  0  0  0  0  0  0  0  0
   -2.9900   22.7940  -31.6940 O   0  0  0  0  0  0  0  0  0  0  0  0
   -3.1430   23.0770  -29.3280 C   0  0  0  0  0  0  0  0  0  0  0  0
   -1.9030   23.9080  -29.3870 C   0  0  0  0  0  0  0  0  0  0  0  0
   -0.7730   23.3550  -29.4590 O   0  0  0  0  0  0  0  0  0  0  0  0
   -1.9880   25.2920  -29.3100 O   0  0  0  0  0  0  0  0  0  0  0  0
   -3.4870   25.4430  -30.8550 H   0  0  0  0  0  0  0  0  0  0  0  0
   -8.1321   24.5552  -30.9727 H   0  0  0  0  0  0  0  0  0  0  0  0
   -9.3243   22.1705  -32.0157 H   0  0  0  0  0  0  0  0  0  0  0  0
   -8.7957   19.8218  -32.7412 H   0  0  0  0  0  0  0  0  0  0  0  0
   -6.0258   17.8027  -30.7308 H   0  0  0  0  0  0  0  0  0  0  0  0
   -5.4838   15.5049  -31.5451 H   0  0  0  0  0  0  0  0  0  0  0  0
   -6.0623   16.8618  -35.6146 H   0  0  0  0  0  0  0  0  0  0  0  0
   -4.6010   20.4569  -31.7248 H   0  0  0  0  0  0  0  0  0  0  0  0
   -3.8692   23.5531  -28.6528 H   0  0  0  0  0  0  0  0  0  0  0  0
   -2.8891   22.0741  -28.9541 H   0  0  0  0  0  0  0  0  0  0  0  0
  1  2  1  0
  2  3  2  0
  2  4  1  0
  4  5  2  0
  5  6  1  0
  6  7  2  0
  7  8  1  0
  8  9  2  0
  9 10  1  0
 10 11  2  0
 11 12  1  0
 12 13  2  0
 13 14  1  0
 14 15  2  0
 14 16  1  0
 13 17  1  0
 17 18  2  0
  9 19  1  0
 19 20  2  0
 20 21  1  0
 21 22  1  0
 22 23  2  0
 22 24  1  0
 24 25  1  0
 25 26  2  0
 25 27  1  0
 21  4  1  0
 20  6  1  0
 18 10  1  0
  1 28  1  0
  5 29  1  0
  7 30  1  0
  8 31  1  0
 11 32  1  0
 12 33  1  0
 17 34  1  0
 19 35  1  0
 24 36  1  0
 24 37  1  0
M  CHG  3   1  -1  16  -1  27  -1
M  END
>  <UniqueID>  (33) 
33

>  <SMILES>  (33) 
[NH-]C(=O)c1cc2ccc(-c3ccc(C(=O)[O-])cn3)cc2n1C(=O)CC(=O)[O-]

>  <Energy>  (33) 
82.88078048972105

>  <Genealogy>  (33) 
[NH-]C(=O)c1cc2ccc(-c3ccc(C(=O)[O-])cn3)cc2n1C(=O)CC(=O)[O-] (protonated)
[NH-]C(=O)c1cc2ccc(-c3ccc(C(=O)[O-])cn3)cc2n1C(=O)CC(=O)[O-] (3D coordinates assigned)
[NH-]C(=O)c1cc2ccc(-c3ccc(C(=O)[O-])cn3)cc2n1C(=O)CC(=O)[O-] (optimized conformer: 82.88078048972105 kcal/mol)

>  <smiles>  (33) 
NC(=O)c1cc2ccc(-c3ccc(C(=O)O)cn3)cc2n1C(=O)CC(=O)O

>  <score_type>  (33) 
oracle

>  <origin>  (33) 
adg

>  <m_score__min__energy>  (33) 
-12.33

>  <m_primary>  (33) 
energy

$$$$
33:0
     RDKit          3D

 42 43  0  0  0  0  0  0  0  0999 V2000
   -3.8630   25.3130  -30.6700 N   0  0  0  0  0  0  0  0  0  0  0  0
   -4.7980   24.5850  -29.8790 C   0  0  0  0  0  0  0  0  0  0  0  0
   -4.8080   24.7490  -28.6300 O   0  0  0  0  0  0  0  0  0  0  0  0
   -5.7310   23.6190  -30.4970 C   0  0  0  0  0  0  0  0  0  0  0  0
   -7.0890   23.8690  -30.6900 C   0  0  0  0  0  0  0  0  0  0  0  0
   -7.5980   22.7170  -31.2440 C   0  0  0  0  0  0  0  0  0  0  0  0
   -8.8910   22.4160  -31.6560 C   0  0  0  0  0  0  0  0  0  0  0  0
   -9.1230   21.1540  -32.2260 C   0  0  0  0  0  0  0  0  0  0  0  0
   -8.0670   20.2200  -32.3900 C   0  0  0  0  0  0  0  0  0  0  0  0
   -8.3590   18.9390  -32.9850 N   0  0  0  0  0  0  0  0  0  0  0  0
   -7.6240   17.7000  -32.7200 C   0  0  0  0  0  0  0  0  0  0  0  0
   -6.4580   17.5320  -33.6940 C   0  0  0  0  0  0  0  0  0  0  0  0
   -6.2270   18.7010  -34.3960 F   0  0  0  0  0  0  0  0  0  0  0  0
   -6.7290   16.5110  -34.5870 F   0  0  0  0  0  0  0  0  0  0  0  0
   -6.7650   20.5670  -31.9550 C   0  0  0  0  0  0  0  0  0  0  0  0
   -6.5690   21.8240  -31.3730 C   0  0  0  0  0  0  0  0  0  0  0  0
   -5.4160   22.3600  -30.9140 N   0  0  0  0  0  0  0  0  0  0  0  0
   -4.1180   21.7490  -30.9610 C   0  0  0  0  0  0  0  0  0  0  0  0
   -3.7610   20.9740  -30.0340 O   0  0  0  0  0  0  0  0  0  0  0  0
   -3.1990   22.0180  -32.0740 C   0  0  0  0  0  0  0  0  0  0  0  0
   -3.6550   22.2780  -33.2210 O   0  0  0  0  0  0  0  0  0  0  0  0
   -1.8190   21.9750  -31.8540 O   0  0  0  0  0  0  0  0  0  0  0  0
   -1.2390   21.3090  -30.7360 C   0  0  0  0  0  0  0  0  0  0  0  0
   -0.8180   22.3310  -29.6900 C   0  0  0  0  0  0  0  0  0  0  0  0
   -1.5040   23.5390  -29.9190 O   0  0  0  0  0  0  0  0  0  0  0  0
   -0.9790   24.6840  -28.7690 P   0  0  0  0  0  0  0  0  0  0  0  0
   -1.7280   24.4960  -27.4680 O   0  0  0  0  0  0  0  0  0  0  0  0
   -1.2320   26.2540  -29.3460 O   0  0  0  0  0  0  0  0  0  0  0  0
    0.6730   24.4610  -28.4900 O   0  0  0  0  0  0  0  0  0  0  0  0
   -2.8430   25.2960  -30.4470 H   0  0  0  0  0  0  0  0  0  0  0  0
   -7.6374   24.7919  -30.4501 H   0  0  0  0  0  0  0  0  0  0  0  0
   -9.7073   23.1440  -31.5391 H   0  0  0  0  0  0  0  0  0  0  0  0
  -10.1390   20.8850  -32.5505 H   0  0  0  0  0  0  0  0  0  0  0  0
   -9.1640   18.8760  -33.6490 H   0  0  0  0  0  0  0  0  0  0  0  0
   -7.2325   17.7275  -31.6924 H   0  0  0  0  0  0  0  0  0  0  0  0
   -8.3120   16.8515  -32.8494 H   0  0  0  0  0  0  0  0  0  0  0  0
   -5.5598   17.2858  -33.1086 H   0  0  0  0  0  0  0  0  0  0  0  0
   -5.9268   19.8643  -32.0720 H   0  0  0  0  0  0  0  0  0  0  0  0
   -1.9766   20.6204  -30.2979 H   0  0  0  0  0  0  0  0  0  0  0  0
   -0.3559   20.7433  -31.0678 H   0  0  0  0  0  0  0  0  0  0  0  0
   -1.0640   21.9530  -28.6867 H   0  0  0  0  0  0  0  0  0  0  0  0
    0.2662   22.5037  -29.7582 H   0  0  0  0  0  0  0  0  0  0  0  0
  1  2  1  0
  2  3  2  0
  2  4  1  0
  4  5  2  0
  5  6  1  0
  6  7  2  0
  7  8  1  0
  8  9  2  0
  9 10  1  0
 10 11  1  0
 11 12  1  0
 12 13  1  0
 12 14  1  0
  9 15  1  0
 15 16  2  0
 16 17  1  0
 17 18  1  0
 18 19  2  0
 18 20  1  0
 20 21  2  0
 20 22  1  0
 22 23  1  0
 23 24  1  0
 24 25  1  0
 25 26  1  0
 26 27  2  0
 26 28  1  0
 26 29  1  0
 17  4  1  0
 16  6  1  0
  1 30  1  0
  5 31  1  0
  7 32  1  0
  8 33  1  0
 10 34  1  0
 11 35  1  0
 11 36  1  0
 12 37  1  0
 15 38  1  0
 23 39  1  0
 23 40  1  0
 24 41  1  0
 24 42  1  0
M  CHG  3   1  -1  28  -1  29  -1
M  END
>  <UniqueID>  (34) 
34

>  <SMILES>  (34) 
[NH-]C(=O)c1cc2ccc(NCC(F)F)cc2n1C(=O)C(=O)OCCOP(=O)([O-])[O-]

>  <Energy>  (34) 
73.49820462860797

>  <Genealogy>  (34) 
[NH-]C(=O)c1cc2ccc(NCC(F)F)cc2n1C(=O)C(=O)OCCOP(=O)([O-])[O-] (protonated)
[NH-]C(=O)c1cc2ccc(NCC(F)F)cc2n1C(=O)C(=O)OCCOP(=O)([O-])[O-] (3D coordinates assigned)
[NH-]C(=O)c1cc2ccc(NCC(F)F)cc2n1C(=O)C(=O)OCCOP(=O)([O-])[O-] (optimized conformer: 73.49820462860797 kcal/mol)

>  <smiles>  (34) 
NC(=O)c1cc2ccc(NCC(F)F)cc2n1C(=O)C(=O)OCCOP(=O)(O)O

>  <score_type>  (34) 
oracle

>  <origin>  (34) 
adg

>  <m_score__min__energy>  (34) 
-13.58

>  <m_primary>  (34) 
energy

$$$$
34:0
     RDKit          3D

 51 52  0  0  0  0  0  0  0  0999 V2000
   -6.8480   16.0570  -33.6280 C   0  0  0  0  0  0  0  0  0  0  0  0
   -6.9800   17.3840  -32.8500 C   0  0  0  0  0  0  0  0  0  0  0  0
   -6.4640   17.1530  -31.4140 C   0  0  0  0  0  0  0  0  0  0  0  0
   -6.2440   18.4930  -33.5350 N   0  0  2  0  0  0  0  0  0  0  0  0
   -4.7760   18.2860  -33.6620 C   0  0  0  0  0  0  0  0  0  0  0  0
   -4.3370   17.7990  -35.0170 C   0  0  0  0  0  0  0  0  0  0  0  0
   -3.1640   17.3770  -35.1930 O   0  0  0  0  0  0  0  0  0  0  0  0
   -5.2300   17.8070  -36.0830 O   0  0  0  0  0  0  0  0  0  0  0  0
   -6.5150   19.8090  -32.9650 C   0  0  0  0  0  0  0  0  0  0  0  0
   -7.8450   20.2970  -32.8040 C   0  0  0  0  0  0  0  0  0  0  0  0
   -8.0900   21.5610  -32.2460 C   0  0  0  0  0  0  0  0  0  0  0  0
   -6.9980   22.3180  -31.8380 C   0  0  0  0  0  0  0  0  0  0  0  0
   -6.9520   23.5800  -31.2920 C   0  0  0  0  0  0  0  0  0  0  0  0
   -5.6010   23.8450  -31.0880 C   0  0  0  0  0  0  0  0  0  0  0  0
   -5.1030   25.0720  -30.4330 C   0  0  0  0  0  0  0  0  0  0  0  0
   -3.8720   25.6680  -30.8330 N   0  0  0  0  0  0  0  0  0  0  0  0
   -5.7460   25.5730  -29.4730 O   0  0  0  0  0  0  0  0  0  0  0  0
   -4.8400   22.7920  -31.5000 N   0  0  0  0  0  0  0  0  0  0  0  0
   -3.4060   22.7160  -31.5540 C   0  0  0  0  0  0  0  0  0  0  0  0
   -2.8460   22.1960  -32.5560 O   0  0  0  0  0  0  0  0  0  0  0  0
   -2.6480   23.2430  -30.4980 O   0  0  0  0  0  0  0  0  0  0  0  0
   -2.5160   22.6840  -29.1830 C   0  0  0  0  0  0  0  0  0  0  0  0
   -3.0120   21.2260  -29.1630 C   0  0  0  0  0  0  0  0  0  0  0  0
   -3.2810   23.5330  -28.1500 C   0  0  0  0  0  0  0  0  0  0  0  0
   -1.0210   22.7040  -28.8310 C   0  0  0  0  0  0  0  0  0  0  0  0
   -5.7120   21.8640  -31.9550 C   0  0  0  0  0  0  0  0  0  0  0  0
   -5.4350   20.6180  -32.5250 C   0  0  0  0  0  0  0  0  0  0  0  0
   -6.7649   15.2218  -32.9170 H   0  0  0  0  0  0  0  0  0  0  0  0
   -7.7362   15.9130  -34.2607 H   0  0  0  0  0  0  0  0  0  0  0  0
   -5.9488   16.0908  -34.2607 H   0  0  0  0  0  0  0  0  0  0  0  0
   -8.0347   17.6945  -32.8141 H   0  0  0  0  0  0  0  0  0  0  0  0
   -7.2222   17.4924  -30.6929 H   0  0  0  0  0  0  0  0  0  0  0  0
   -6.2680   16.0812  -31.2628 H   0  0  0  0  0  0  0  0  0  0  0  0
   -5.5340   17.7207  -31.2628 H   0  0  0  0  0  0  0  0  0  0  0  0
   -6.6030   18.4990  -34.5210 H   0  0  0  0  0  0  0  0  0  0  0  0
   -4.2737   19.2436  -33.4601 H   0  0  0  0  0  0  0  0  0  0  0  0
   -4.5035   17.5017  -32.9404 H   0  0  0  0  0  0  0  0  0  0  0  0
   -8.6927   19.6725  -33.1224 H   0  0  0  0  0  0  0  0  0  0  0  0
   -9.1161   21.9416  -32.1347 H   0  0  0  0  0  0  0  0  0  0  0  0
   -7.8025   24.2396  -31.0649 H   0  0  0  0  0  0  0  0  0  0  0  0
   -2.9580   25.3000  -30.4880 H   0  0  0  0  0  0  0  0  0  0  0  0
   -3.1257   20.8917  -28.1212 H   0  0  0  0  0  0  0  0  0  0  0  0
   -3.9825   21.1618  -29.6767 H   0  0  0  0  0  0  0  0  0  0  0  0
   -2.2820   20.5833  -29.6767 H   0  0  0  0  0  0  0  0  0  0  0  0
   -2.9976   23.2184  -27.1348 H   0  0  0  0  0  0  0  0  0  0  0  0
   -3.0286   24.5946  -28.2888 H   0  0  0  0  0  0  0  0  0  0  0  0
   -4.3631   23.3922  -28.2888 H   0  0  0  0  0  0  0  0  0  0  0  0
   -0.9018   22.7056  -27.7375 H   0  0  0  0  0  0  0  0  0  0  0  0
   -0.5333   21.8123  -29.2517 H   0  0  0  0  0  0  0  0  0  0  0  0
   -0.5573   23.6084  -29.2517 H   0  0  0  0  0  0  0  0  0  0  0  0
   -4.3968   20.2702  -32.6308 H   0  0  0  0  0  0  0  0  0  0  0  0
  1  2  1  0
  2  3  1  0
  2  4  1  0
  4  5  1  0
  5  6  1  0
  6  7  2  0
  6  8  1  0
  4  9  1  0
  9 10  2  0
 10 11  1  0
 11 12  2  0
 12 13  1  0
 13 14  2  0
 14 15  1  0
 15 16  1  0
 15 17  2  0
 14 18  1  0
 18 19  1  0
 19 20  2  0
 19 21  1  0
 21 22  1  0
 22 23  1  0
 22 24  1  0
 22 25  1  0
 18 26  1  0
 26 27  2  0
 27  9  1  0
 26 12  1  0
  1 28  1  0
  1 29  1  0
  1 30  1  0
  2 31  1  0
  3 32  1  0
  3 33  1  0
  3 34  1  0
  4 35  1  6
  5 36  1  0
  5 37  1  0
 10 38  1  0
 11 39  1  0
 13 40  1  0
 16 41  1  0
 23 42  1  0
 23 43  1  0
 23 44  1  0
 24 45  1  0
 24 46  1  0
 24 47  1  0
 25 48  1  0
 25 49  1  0
 25 50  1  0
 27 51  1  0
M  CHG  3   4   1   8  -1  16  -1
M  END
>  <UniqueID>  (35) 
35

>  <SMILES>  (35) 
CC(C)[N@H+](CC(=O)[O-])c1ccc2cc(C([NH-])=O)n(C(=O)OC(C)(C)C)c2c1

>  <Energy>  (35) 
92.56659075715504

>  <Genealogy>  (35) 
CC(C)[NH+](CC(=O)[O-])c1ccc2cc(C([NH-])=O)n(C(=O)OC(C)(C)C)c2c1 (protonated)
CC(C)[N@H+](CC(=O)[O-])c1ccc2cc(C([NH-])=O)n(C(=O)OC(C)(C)C)c2c1 (chirality)
CC(C)[N@H+](CC(=O)[O-])c1ccc2cc(C([NH-])=O)n(C(=O)OC(C)(C)C)c2c1 (3D coordinates assigned)
CC(C)[N@H+](CC(=O)[O-])c1ccc2cc(C([NH-])=O)n(C(=O)OC(C)(C)C)c2c1 (optimized conformer: 92.56659075715504 kcal/mol)

>  <smiles>  (35) 
CC(C)N(CC(=O)O)c1ccc2cc(C(N)=O)n(C(=O)OC(C)(C)C)c2c1

>  <score_type>  (35) 
oracle

>  <origin>  (35) 
adg

>  <m_score__min__energy>  (35) 
-9.9000000000000004

>  <m_primary>  (35) 
energy

$$$$
35:0
     RDKit          3D

 33 34  0  0  0  0  0  0  0  0999 V2000
   -5.8690   18.5710  -31.5760 C   0  0  0  0  0  0  0  0  0  0  0  0
   -6.2450   19.1390  -32.9590 C   0  0  0  0  0  0  0  0  0  0  0  0
   -7.7010   19.6350  -32.9700 C   0  0  0  0  0  0  0  0  0  0  0  0
   -6.1390   18.0350  -33.9350 C   0  0  0  0  0  0  0  0  0  0  0  0
   -6.0570   17.1710  -34.7010 N   0  0  0  0  0  0  0  0  0  0  0  0
   -5.3320   20.2240  -33.3760 N   0  0  0  0  0  0  0  0  0  0  0  0
   -4.1590   20.6690  -32.6650 C   0  0  0  0  0  0  0  0  0  0  0  0
   -2.9750   19.8890  -32.6100 C   0  0  0  0  0  0  0  0  0  0  0  0
   -1.8580   20.3300  -31.8810 C   0  0  0  0  0  0  0  0  0  0  0  0
   -1.9520   21.5470  -31.2130 C   0  0  0  0  0  0  0  0  0  0  0  0
   -1.0360   22.1890  -30.4130 C   0  0  0  0  0  0  0  0  0  0  0  0
   -1.6690   23.3570  -29.9920 C   0  0  0  0  0  0  0  0  0  0  0  0
   -1.0020   24.3930  -29.1780 C   0  0  0  0  0  0  0  0  0  0  0  0
   -1.6070   25.6660  -28.9700 N   0  0  0  0  0  0  0  0  0  0  0  0
    0.1440   24.1700  -28.7000 O   0  0  0  0  0  0  0  0  0  0  0  0
   -2.9310   23.4280  -30.5030 N   0  0  0  0  0  0  0  0  0  0  0  0
   -3.9330   24.4200  -30.2300 C   0  0  0  0  0  0  0  0  0  0  0  0
   -4.8590   24.1800  -29.4120 O   0  0  0  0  0  0  0  0  0  0  0  0
   -3.8750   25.6640  -30.8440 O   0  0  0  0  0  0  0  0  0  0  0  0
   -3.0860   22.3120  -31.2520 C   0  0  0  0  0  0  0  0  0  0  0  0
   -4.2200   21.8880  -31.9540 C   0  0  0  0  0  0  0  0  0  0  0  0
   -6.2931   19.2117  -30.7888 H   0  0  0  0  0  0  0  0  0  0  0  0
   -6.2717   17.5522  -31.4762 H   0  0  0  0  0  0  0  0  0  0  0  0
   -4.7739   18.5438  -31.4762 H   0  0  0  0  0  0  0  0  0  0  0  0
   -8.0551   19.7556  -31.9356 H   0  0  0  0  0  0  0  0  0  0  0  0
   -7.7549   20.6022  -33.4912 H   0  0  0  0  0  0  0  0  0  0  0  0
   -8.3342   18.9019  -33.4912 H   0  0  0  0  0  0  0  0  0  0  0  0
   -5.4230   20.5770  -34.3570 H   0  0  0  0  0  0  0  0  0  0  0  0
   -2.9312   18.9284  -33.1441 H   0  0  0  0  0  0  0  0  0  0  0  0
   -0.9364   19.7310  -31.8395 H   0  0  0  0  0  0  0  0  0  0  0  0
   -0.0200   21.8523  -30.1594 H   0  0  0  0  0  0  0  0  0  0  0  0
   -2.6400   25.7920  -29.0660 H   0  0  0  0  0  0  0  0  0  0  0  0
   -5.1397   22.4915  -31.9521 H   0  0  0  0  0  0  0  0  0  0  0  0
  1  2  1  0
  2  3  1  0
  2  4  1  0
  4  5  3  0
  2  6  1  0
  6  7  1  0
  7  8  2  0
  8  9  1  0
  9 10  2  0
 10 11  1  0
 11 12  2  0
 12 13  1  0
 13 14  1  0
 13 15  2  0
 12 16  1  0
 16 17  1  0
 17 18  2  0
 17 19  1  0
 16 20  1  0
 20 21  2  0
 21  7  1  0
 20 10  1  0
  1 22  1  0
  1 23  1  0
  1 24  1  0
  3 25  1  0
  3 26  1  0
  3 27  1  0
  6 28  1  0
  8 29  1  0
  9 30  1  0
 11 31  1  0
 14 32  1  0
 21 33  1  0
M  CHG  2  14  -1  19  -1
M  END
>  <UniqueID>  (36) 
36

>  <SMILES>  (36) 
CC(C)(C#N)Nc1ccc2cc(C([NH-])=O)n(C(=O)[O-])c2c1

>  <Energy>  (36) 
75.70926067871464

>  <Genealogy>  (36) 
CC(C)(C#N)Nc1ccc2cc(C([NH-])=O)n(C(=O)[O-])c2c1 (protonated)
CC(C)(C#N)Nc1ccc2cc(C([NH-])=O)n(C(=O)[O-])c2c1 (3D coordinates assigned)
CC(C)(C#N)Nc1ccc2cc(C([NH-])=O)n(C(=O)[O-])c2c1 (optimized conformer: 75.70926067871464 kcal/mol)

>  <smiles>  (36) 
CC(C)(C#N)Nc1ccc2cc(C(N)=O)n(C(=O)O)c2c1

>  <score_type>  (36) 
oracle

>  <origin>  (36) 
adg

>  <m_score__min__energy>  (36) 
-11.359999999999999

>  <m_primary>  (36) 
energy

$$$$
36:0
     RDKit          3D

 43 44  0  0  0  0  0  0  0  0999 V2000
   -7.8410   22.5480  -31.9500 C   0  0  0  0  0  0  0  0  0  0  0  0
   -8.9840   21.5970  -31.6180 C   0  0  0  0  0  0  0  0  0  0  0  0
   -8.9630   20.4540  -32.4720 O   0  0  0  0  0  0  0  0  0  0  0  0
   -8.6020   19.1710  -32.0430 C   0  0  0  0  0  0  0  0  0  0  0  0
   -9.4680   18.2580  -31.9390 O   0  0  0  0  0  0  0  0  0  0  0  0
   -7.1630   18.8710  -31.7550 C   0  0  0  0  0  0  0  0  0  0  0  0
   -6.5410   18.1580  -32.8800 N   0  0  0  0  0  0  0  0  0  0  0  0
   -6.8720   16.7470  -33.1060 C   0  0  0  0  0  0  0  0  0  0  0  0
   -5.6430   18.8150  -33.8040 C   0  0  0  0  0  0  0  0  0  0  0  0
   -4.9570   18.1190  -34.6040 O   0  0  0  0  0  0  0  0  0  0  0  0
   -5.4480   20.3090  -33.8240 C   0  0  0  0  0  0  0  0  0  0  0  0
   -4.3730   20.7200  -32.8510 C   0  0  0  0  0  0  0  0  0  0  0  0
   -3.2190   19.9150  -32.6800 C   0  0  0  0  0  0  0  0  0  0  0  0
   -2.1900   20.3160  -31.8100 C   0  0  0  0  0  0  0  0  0  0  0  0
   -2.3430   21.5200  -31.1290 C   0  0  0  0  0  0  0  0  0  0  0  0
   -1.4900   22.1560  -30.2570 C   0  0  0  0  0  0  0  0  0  0  0  0
   -2.1420   23.3320  -29.8930 C   0  0  0  0  0  0  0  0  0  0  0  0
   -1.6060   24.2800  -28.8930 C   0  0  0  0  0  0  0  0  0  0  0  0
   -1.5660   25.6810  -29.1530 N   0  0  0  0  0  0  0  0  0  0  0  0
   -1.2220   23.8510  -27.7710 O   0  0  0  0  0  0  0  0  0  0  0  0
   -3.3480   23.4240  -30.5240 N   0  0  0  0  0  0  0  0  0  0  0  0
   -4.2830   24.5140  -30.4890 C   0  0  0  0  0  0  0  0  0  0  0  0
   -3.9260   25.6700  -30.8330 O   0  0  0  0  0  0  0  0  0  0  0  0
   -5.6010   24.2950  -30.1070 O   0  0  0  0  0  0  0  0  0  0  0  0
   -3.4560   22.3040  -31.2730 C   0  0  0  0  0  0  0  0  0  0  0  0
   -4.4880   21.9370  -32.1420 C   0  0  0  0  0  0  0  0  0  0  0  0
   -7.3922   22.9214  -31.0177 H   0  0  0  0  0  0  0  0  0  0  0  0
   -7.0783   22.0142  -32.5360 H   0  0  0  0  0  0  0  0  0  0  0  0
   -8.2272   23.3950  -32.5360 H   0  0  0  0  0  0  0  0  0  0  0  0
   -8.8856   21.2672  -30.5732 H   0  0  0  0  0  0  0  0  0  0  0  0
   -9.9359   22.1279  -31.7666 H   0  0  0  0  0  0  0  0  0  0  0  0
   -6.6251   19.8154  -31.5854 H   0  0  0  0  0  0  0  0  0  0  0  0
   -7.1090   18.2325  -30.8609 H   0  0  0  0  0  0  0  0  0  0  0  0
   -6.9912   16.2387  -32.1378 H   0  0  0  0  0  0  0  0  0  0  0  0
   -7.8109   16.6772  -33.6748 H   0  0  0  0  0  0  0  0  0  0  0  0
   -6.0621   16.2669  -33.6748 H   0  0  0  0  0  0  0  0  0  0  0  0
   -5.1560   20.6213  -34.8375 H   0  0  0  0  0  0  0  0  0  0  0  0
   -6.3921   20.7924  -33.5322 H   0  0  0  0  0  0  0  0  0  0  0  0
   -3.1277   18.9684  -33.2328 H   0  0  0  0  0  0  0  0  0  0  0  0
   -1.2913   19.6969  -31.6718 H   0  0  0  0  0  0  0  0  0  0  0  0
   -0.5023   21.8094  -29.9188 H   0  0  0  0  0  0  0  0  0  0  0  0
   -1.2080   26.0470  -30.0640 H   0  0  0  0  0  0  0  0  0  0  0  0
   -5.3701   22.5814  -32.2710 H   0  0  0  0  0  0  0  0  0  0  0  0
  1  2  1  0
  2  3  1  0
  3  4  1  0
  4  5  2  0
  4  6  1  0
  6  7  1  0
  7  8  1  0
  7  9  1  0
  9 10  2  0
  9 11  1  0
 11 12  1  0
 12 13  2  0
 13 14  1  0
 14 15  2  0
 15 16  1  0
 16 17  2  0
 17 18  1  0
 18 19  1  0
 18 20  2  0
 17 21  1  0
 21 22  1  0
 22 23  2  0
 22 24  1  0
 21 25  1  0
 25 26  2  0
 26 12  1  0
 25 15  1  0
  1 27  1  0
  1 28  1  0
  1 29  1  0
  2 30  1  0
  2 31  1  0
  6 32  1  0
  6 33  1  0
  8 34  1  0
  8 35  1  0
  8 36  1  0
 11 37  1  0
 11 38  1  0
 13 39  1  0
 14 40  1  0
 16 41  1  0
 19 42  1  0
 26 43  1  0
M  CHG  2  19  -1  24  -1
M  END
>  <UniqueID>  (37) 
37

>  <SMILES>  (37) 
CCOC(=O)CN(C)C(=O)Cc1ccc2cc(C([NH-])=O)n(C(=O)[O-])c2c1

>  <Energy>  (37) 
73.87519344411893

>  <Genealogy>  (37) 
CCOC(=O)CN(C)C(=O)Cc1ccc2cc(C([NH-])=O)n(C(=O)[O-])c2c1 (protonated)
CCOC(=O)CN(C)C(=O)Cc1ccc2cc(C([NH-])=O)n(C(=O)[O-])c2c1 (3D coordinates assigned)
CCOC(=O)CN(C)C(=O)Cc1ccc2cc(C([NH-])=O)n(C(=O)[O-])c2c1 (optimized conformer: 73.87519344411893 kcal/mol)

>  <smiles>  (37) 
CCOC(=O)CN(C)C(=O)Cc1ccc2cc(C(N)=O)n(C(=O)O)c2c1

>  <score_type>  (37) 
oracle

>  <origin>  (37) 
adg

>  <m_score__min__energy>  (37) 
-11.539999999999999

>  <m_primary>  (37) 
energy

$$$$
37:0
     RDKit          3D

 40 41  0  0  0  0  0  0  0  0999 V2000
   -4.1670   23.6290  -27.4430 C   0  0  0  0  0  0  0  0  0  0  0  0
   -3.3300   24.5430  -28.2240 N   0  0  0  0  0  0  0  0  0  0  0  0
   -2.1160   24.9020  -27.4800 C   0  0  0  0  0  0  0  0  0  0  0  0
   -0.9060   24.7530  -28.3490 C   0  0  0  0  0  0  0  0  0  0  0  0
    0.2320   25.0480  -27.8930 O   0  0  0  0  0  0  0  0  0  0  0  0
   -1.0600   24.3380  -29.6760 O   0  0  0  0  0  0  0  0  0  0  0  0
   -1.3520   22.9910  -30.0360 C   0  0  0  0  0  0  0  0  0  0  0  0
   -2.7610   22.8000  -30.1240 O   0  0  0  0  0  0  0  0  0  0  0  0
   -3.4110   22.4740  -31.3180 C   0  0  0  0  0  0  0  0  0  0  0  0
   -2.7470   22.0790  -32.3160 O   0  0  0  0  0  0  0  0  0  0  0  0
   -4.8370   22.6110  -31.4160 N   0  0  0  0  0  0  0  0  0  0  0  0
   -5.6180   23.6190  -30.9350 C   0  0  0  0  0  0  0  0  0  0  0  0
   -5.1340   24.8710  -30.3160 C   0  0  0  0  0  0  0  0  0  0  0  0
   -3.8630   25.4010  -30.6850 N   0  0  0  0  0  0  0  0  0  0  0  0
   -5.8170   25.4610  -29.4370 O   0  0  0  0  0  0  0  0  0  0  0  0
   -6.9640   23.3490  -31.1740 C   0  0  0  0  0  0  0  0  0  0  0  0
   -6.9840   22.1380  -31.8250 C   0  0  0  0  0  0  0  0  0  0  0  0
   -8.0590   21.3930  -32.2980 C   0  0  0  0  0  0  0  0  0  0  0  0
   -7.7870   20.1590  -32.9130 C   0  0  0  0  0  0  0  0  0  0  0  0
   -6.4550   19.6820  -33.0240 C   0  0  0  0  0  0  0  0  0  0  0  0
   -6.1700   18.3730  -33.7160 C   0  0  0  0  0  0  0  0  0  0  0  0
   -6.0590   18.5930  -35.0760 F   0  0  0  0  0  0  0  0  0  0  0  0
   -7.1900   17.4660  -33.4880 F   0  0  0  0  0  0  0  0  0  0  0  0
   -4.9890   17.8220  -33.2510 F   0  0  0  0  0  0  0  0  0  0  0  0
   -5.3880   20.4810  -32.5530 C   0  0  0  0  0  0  0  0  0  0  0  0
   -5.6890   21.7130  -31.9600 C   0  0  0  0  0  0  0  0  0  0  0  0
   -4.0031   23.8080  -26.3701 H   0  0  0  0  0  0  0  0  0  0  0  0
   -5.2256   23.8029  -27.6862 H   0  0  0  0  0  0  0  0  0  0  0  0
   -3.9008   22.5898  -27.6862 H   0  0  0  0  0  0  0  0  0  0  0  0
   -3.8830   25.4060  -28.4360 H   0  0  0  0  0  0  0  0  0  0  0  0
   -3.0670   24.0710  -29.1220 H   0  0  0  0  0  0  0  0  0  0  0  0
   -2.1934   25.9462  -27.1429 H   0  0  0  0  0  0  0  0  0  0  0  0
   -2.0174   24.2307  -26.6142 H   0  0  0  0  0  0  0  0  0  0  0  0
   -0.8934   22.7677  -31.0106 H   0  0  0  0  0  0  0  0  0  0  0  0
   -0.9457   22.3176  -29.2669 H   0  0  0  0  0  0  0  0  0  0  0  0
   -2.9800   24.9640  -30.3410 H   0  0  0  0  0  0  0  0  0  0  0  0
   -7.8277   23.9726  -30.8999 H   0  0  0  0  0  0  0  0  0  0  0  0
   -9.0912   21.7587  -32.1938 H   0  0  0  0  0  0  0  0  0  0  0  0
   -8.6157   19.5562  -33.3128 H   0  0  0  0  0  0  0  0  0  0  0  0
   -4.3458   20.1427  -32.6502 H   0  0  0  0  0  0  0  0  0  0  0  0
  1  2  1  0
  2  3  1  0
  3  4  1  0
  4  5  2  0
  4  6  1  0
  6  7  1  0
  7  8  1  0
  8  9  1  0
  9 10  2  0
  9 11  1  0
 11 12  1  0
 12 13  1  0
 13 14  1  0
 13 15  2  0
 12 16  2  0
 16 17  1  0
 17 18  2  0
 18 19  1  0
 19 20  2  0
 20 21  1  0
 21 22  1  0
 21 23  1  0
 21 24  1  0
 20 25  1  0
 25 26  2  0
 26 11  1  0
 26 17  1  0
  1 27  1  0
  1 28  1  0
  1 29  1  0
  2 30  1  0
  2 31  1  0
  3 32  1  0
  3 33  1  0
  7 34  1  0
  7 35  1  0
 14 36  1  0
 16 37  1  0
 18 38  1  0
 19 39  1  0
 25 40  1  0
M  CHG  2   2   1  14  -1
M  END
>  <UniqueID>  (38) 
38

>  <SMILES>  (38) 
C[NH2+]CC(=O)OCOC(=O)n1c(C([NH-])=O)cc2ccc(C(F)(F)F)cc21

>  <Energy>  (38) 
72.54709019595107

>  <Genealogy>  (38) 
C[NH2+]CC(=O)OCOC(=O)n1c(C([NH-])=O)cc2ccc(C(F)(F)F)cc21 (protonated)
C[NH2+]CC(=O)OCOC(=O)n1c(C([NH-])=O)cc2ccc(C(F)(F)F)cc21 (3D coordinates assigned)
C[NH2+]CC(=O)OCOC(=O)n1c(C([NH-])=O)cc2ccc(C(F)(F)F)cc21 (optimized conformer: 72.54709019595107 kcal/mol)

>  <smiles>  (38) 
CNCC(=O)OCOC(=O)n1c(C(N)=O)cc2ccc(C(F)(F)F)cc21

>  <score_type>  (38) 
oracle

>  <origin>  (38) 
adg

>  <m_score__min__energy>  (38) 
-8.5099999999999998

>  <m_primary>  (38) 
energy

$$$$
38:0
     RDKit          3D

 38 39  0  0  0  0  0  0  0  0999 V2000
   -1.3060   20.1380  -34.8190 N   0  0  0  0  0  0  0  0  0  0  0  0
   -2.1380   19.2610  -34.0630 C   0  0  0  0  0  0  0  0  0  0  0  0
   -1.7450   18.0870  -33.8290 O   0  0  0  0  0  0  0  0  0  0  0  0
   -3.4650   19.7220  -33.6020 C   0  0  0  0  0  0  0  0  0  0  0  0
   -4.6490   19.0330  -33.8600 C   0  0  0  0  0  0  0  0  0  0  0  0
   -5.6300   19.7310  -33.1940 C   0  0  0  0  0  0  0  0  0  0  0  0
   -7.0000   19.4980  -33.1200 C   0  0  0  0  0  0  0  0  0  0  0  0
   -7.7820   20.4010  -32.3820 C   0  0  0  0  0  0  0  0  0  0  0  0
   -7.1850   21.5110  -31.7340 C   0  0  0  0  0  0  0  0  0  0  0  0
   -8.0400   22.4990  -30.9870 C   0  0  0  0  0  0  0  0  0  0  0  0
   -7.4140   23.8970  -31.0340 C   0  0  0  0  0  0  0  0  0  0  0  0
   -6.4890   24.1280  -29.8360 C   0  0  0  0  0  0  0  0  0  0  0  0
   -6.2930   25.5010  -29.6350 O   0  0  0  0  0  0  0  0  0  0  0  0
   -5.7930   21.7220  -31.8420 C   0  0  0  0  0  0  0  0  0  0  0  0
   -5.0350   20.7960  -32.5690 C   0  0  0  0  0  0  0  0  0  0  0  0
   -3.7070   20.8090  -32.8130 N   0  0  0  0  0  0  0  0  0  0  0  0
   -2.7700   21.8030  -32.3700 C   0  0  0  0  0  0  0  0  0  0  0  0
   -1.6030   21.8250  -32.8470 O   0  0  0  0  0  0  0  0  0  0  0  0
   -3.1710   22.7630  -31.4340 O   0  0  0  0  0  0  0  0  0  0  0  0
   -2.4000   23.1160  -30.2890 C   0  0  0  0  0  0  0  0  0  0  0  0
   -2.9440   24.7220  -29.6290 P   0  0  0  0  0  0  0  0  0  0  0  0
   -3.7850   24.5010  -28.3920 O   0  0  0  0  0  0  0  0  0  0  0  0
   -3.8690   25.5200  -30.7990 O   0  0  0  0  0  0  0  0  0  0  0  0
   -1.6040   25.6750  -29.2340 O   0  0  0  0  0  0  0  0  0  0  0  0
   -1.5390   21.1510  -34.9120 H   0  0  0  0  0  0  0  0  0  0  0  0
   -4.7728   18.1241  -34.4672 H   0  0  0  0  0  0  0  0  0  0  0  0
   -7.4561   18.6332  -33.6240 H   0  0  0  0  0  0  0  0  0  0  0  0
   -8.8683   20.2454  -32.3061 H   0  0  0  0  0  0  0  0  0  0  0  0
   -9.0383   22.5341  -31.4476 H   0  0  0  0  0  0  0  0  0  0  0  0
   -8.1166   22.1796  -29.9372 H   0  0  0  0  0  0  0  0  0  0  0  0
   -6.8321   23.9989  -31.9619 H   0  0  0  0  0  0  0  0  0  0  0  0
   -8.2220   24.6426  -31.0001 H   0  0  0  0  0  0  0  0  0  0  0  0
   -6.9442   23.6900  -28.9354 H   0  0  0  0  0  0  0  0  0  0  0  0
   -5.5177   23.6515  -30.0347 H   0  0  0  0  0  0  0  0  0  0  0  0
   -5.3650   25.6100  -29.3010 H   0  0  0  0  0  0  0  0  0  0  0  0
   -5.3161   22.5920  -31.3669 H   0  0  0  0  0  0  0  0  0  0  0  0
   -2.5262   22.3445  -29.5151 H   0  0  0  0  0  0  0  0  0  0  0  0
   -1.3418   23.1897  -30.5801 H   0  0  0  0  0  0  0  0  0  0  0  0
  1  2  1  0
  2  3  2  0
  2  4  1  0
  4  5  2  0
  5  6  1  0
  6  7  2  0
  7  8  1  0
  8  9  2  0
  9 10  1  0
 10 11  1  0
 11 12  1  0
 12 13  1  0
  9 14  1  0
 14 15  2  0
 15 16  1  0
 16 17  1  0
 17 18  2  0
 17 19  1  0
 19 20  1  0
 20 21  1  0
 21 22  2  0
 21 23  1  0
 21 24  1  0
 16  4  1  0
 15  6  1  0
  1 25  1  0
  5 26  1  0
  7 27  1  0
  8 28  1  0
 10 29  1  0
 10 30  1  0
 11 31  1  0
 11 32  1  0
 12 33  1  0
 12 34  1  0
 13 35  1  0
 14 36  1  0
 20 37  1  0
 20 38  1  0
M  CHG  3   1  -1  23  -1  24  -1
M  END
>  <UniqueID>  (39) 
39

>  <SMILES>  (39) 
[NH-]C(=O)c1cc2ccc(CCCO)cc2n1C(=O)OCP(=O)([O-])[O-]

>  <Energy>  (39) 
66.58476706842363

>  <Genealogy>  (39) 
[NH-]C(=O)c1cc2ccc(CCCO)cc2n1C(=O)OCP(=O)([O-])[O-] (protonated)
[NH-]C(=O)c1cc2ccc(CCCO)cc2n1C(=O)OCP(=O)([O-])[O-] (3D coordinates assigned)
[NH-]C(=O)c1cc2ccc(CCCO)cc2n1C(=O)OCP(=O)([O-])[O-] (optimized conformer: 66.58476706842363 kcal/mol)

>  <smiles>  (39) 
NC(=O)c1cc2ccc(CCCO)cc2n1C(=O)OCP(=O)(O)O

>  <score_type>  (39) 
oracle

>  <origin>  (39) 
adg

>  <m_score__min__energy>  (39) 
-13.9

>  <m_primary>  (39) 
energy

$$$$
39:0
     RDKit          3D

 42 44  0  0  0  0  0  0  0  0999 V2000
   -4.1840   25.5170  -30.6010 N   0  0  0  0  0  0  0  0  0  0  0  0
   -5.5270   25.0730  -30.3980 C   0  0  0  0  0  0  0  0  0  0  0  0
   -6.3200   25.8000  -29.7440 O   0  0  0  0  0  0  0  0  0  0  0  0
   -5.9750   23.7600  -30.9140 C   0  0  0  0  0  0  0  0  0  0  0  0
   -7.3000   23.4540  -31.2180 C   0  0  0  0  0  0  0  0  0  0  0  0
   -7.2690   22.1870  -31.7530 C   0  0  0  0  0  0  0  0  0  0  0  0
   -8.3060   21.3890  -32.2200 C   0  0  0  0  0  0  0  0  0  0  0  0
   -7.9900   20.1070  -32.6970 C   0  0  0  0  0  0  0  0  0  0  0  0
   -6.6480   19.6350  -32.6960 C   0  0  0  0  0  0  0  0  0  0  0  0
   -6.3330   18.3080  -33.1800 N   0  0  0  0  0  0  0  0  0  0  0  0
   -7.2170   17.1590  -33.0310 C   0  0  0  0  0  0  0  0  0  0  0  0
   -6.4190   15.9530  -33.5090 C   0  0  0  0  0  0  0  0  0  0  0  0
   -5.2810   16.5310  -34.3550 C   0  0  2  0  0  0  0  0  0  0  0  0
   -4.0440   15.7550  -34.2380 N   0  0  0  0  0  0  0  0  0  0  0  0
   -5.0960   17.9650  -33.8660 C   0  0  0  0  0  0  0  0  0  0  0  0
   -5.6220   20.4850  -32.2090 C   0  0  0  0  0  0  0  0  0  0  0  0
   -5.9670   21.7650  -31.7590 C   0  0  0  0  0  0  0  0  0  0  0  0
   -5.1580   22.7190  -31.2460 N   0  0  0  0  0  0  0  0  0  0  0  0
   -3.7390   22.6200  -31.0450 C   0  0  0  0  0  0  0  0  0  0  0  0
   -2.9460   23.0030  -31.9480 O   0  0  0  0  0  0  0  0  0  0  0  0
   -3.2420   22.1110  -29.8390 O   0  0  0  0  0  0  0  0  0  0  0  0
   -2.8350   22.9340  -28.7490 C   0  0  0  0  0  0  0  0  0  0  0  0
   -1.8410   23.9520  -29.2060 C   0  0  0  0  0  0  0  0  0  0  0  0
   -0.6650   23.6020  -29.4910 O   0  0  0  0  0  0  0  0  0  0  0  0
   -2.2170   25.2820  -29.3470 O   0  0  0  0  0  0  0  0  0  0  0  0
   -3.5130   24.9690  -31.1840 H   0  0  0  0  0  0  0  0  0  0  0  0
   -3.8670   26.4270  -30.1980 H   0  0  0  0  0  0  0  0  0  0  0  0
   -8.1836   24.0906  -31.0630 H   0  0  0  0  0  0  0  0  0  0  0  0
   -9.3446   21.7512  -32.2161 H   0  0  0  0  0  0  0  0  0  0  0  0
   -8.7923   19.4576  -33.0773 H   0  0  0  0  0  0  0  0  0  0  0  0
   -7.5063   17.0330  -31.9772 H   0  0  0  0  0  0  0  0  0  0  0  0
   -8.1438   17.2850  -33.6099 H   0  0  0  0  0  0  0  0  0  0  0  0
   -6.0161   15.3933  -32.6520 H   0  0  0  0  0  0  0  0  0  0  0  0
   -7.0413   15.2510  -34.0834 H   0  0  0  0  0  0  0  0  0  0  0  0
   -5.5310   16.4947  -35.4256 H   0  0  0  0  0  0  0  0  0  0  0  0
   -3.6330   15.6030  -35.1880 H   0  0  0  0  0  0  0  0  0  0  0  0
   -3.3560   16.3180  -33.6880 H   0  0  0  0  0  0  0  0  0  0  0  0
   -4.2432   18.0276  -33.1740 H   0  0  0  0  0  0  0  0  0  0  0  0
   -4.8873   18.6545  -34.6973 H   0  0  0  0  0  0  0  0  0  0  0  0
   -4.5761   20.1451  -32.1854 H   0  0  0  0  0  0  0  0  0  0  0  0
   -3.7150   23.4476  -28.3346 H   0  0  0  0  0  0  0  0  0  0  0  0
   -2.3687   22.3012  -27.9795 H   0  0  0  0  0  0  0  0  0  0  0  0
  1  2  1  0
  2  3  2  0
  2  4  1  0
  4  5  2  0
  5  6  1  0
  6  7  2  0
  7  8  1  0
  8  9  2  0
  9 10  1  0
 10 11  1  0
 11 12  1  0
 12 13  1  0
 13 14  1  0
 13 15  1  0
  9 16  1  0
 16 17  2  0
 17 18  1  0
 18 19  1  0
 19 20  2  0
 19 21  1  0
 21 22  1  0
 22 23  1  0
 23 24  2  0
 23 25  1  0
 18  4  1  0
 17  6  1  0
 15 10  1  0
  1 26  1  0
  1 27  1  0
  5 28  1  0
  7 29  1  0
  8 30  1  0
 11 31  1  0
 11 32  1  0
 12 33  1  0
 12 34  1  0
 13 35  1  6
 14 36  1  0
 14 37  1  0
 15 38  1  0
 15 39  1  0
 16 40  1  0
 22 41  1  0
 22 42  1  0
M  CHG  1  25  -1
M  END
>  <UniqueID>  (40) 
40

>  <SMILES>  (40) 
NC(=O)c1cc2ccc(N3CC[C@H](N)C3)cc2n1C(=O)OCC(=O)[O-]

>  <Energy>  (40) 
81.34291102608917

>  <Genealogy>  (40) 
NC(=O)c1cc2ccc(N3CCC(N)C3)cc2n1C(=O)OCC(=O)[O-] (protonated)
NC(=O)c1cc2ccc(N3CC[C@H](N)C3)cc2n1C(=O)OCC(=O)[O-] (chirality)
NC(=O)c1cc2ccc(N3CC[C@H](N)C3)cc2n1C(=O)OCC(=O)[O-] (3D coordinates assigned)
NC(=O)c1cc2ccc(N3CC[C@H](N)C3)cc2n1C(=O)OCC(=O)[O-] (nonaromatic ring conformer: 81.34291102608917 kcal/mol)

>  <smiles>  (40) 
NC(=O)c1cc2ccc(N3CCC(N)C3)cc2n1C(=O)OCC(=O)O

>  <score_type>  (40) 
oracle

>  <origin>  (40) 
adg

>  <m_score__min__energy>  (40) 
-10.73

>  <m_primary>  (40) 
energy

$$$$
40:0
     RDKit          3D

 37 38  0  0  0  0  0  0  0  0999 V2000
   -4.1850   25.5200  -30.5980 N   0  0  0  0  0  0  0  0  0  0  0  0
   -5.5620   25.1470  -30.5180 C   0  0  0  0  0  0  0  0  0  0  0  0
   -6.4010   25.9780  -30.0760 O   0  0  0  0  0  0  0  0  0  0  0  0
   -6.0280   23.8330  -31.0030 C   0  0  0  0  0  0  0  0  0  0  0  0
   -7.3710   23.5230  -31.2060 C   0  0  0  0  0  0  0  0  0  0  0  0
   -7.3750   22.2460  -31.7170 C   0  0  0  0  0  0  0  0  0  0  0  0
   -8.4450   21.4360  -32.0900 C   0  0  0  0  0  0  0  0  0  0  0  0
   -8.1590   20.1390  -32.5520 C   0  0  0  0  0  0  0  0  0  0  0  0
   -6.8220   19.6830  -32.6210 C   0  0  0  0  0  0  0  0  0  0  0  0
   -6.5430   18.3490  -33.0820 C   0  0  0  0  0  0  0  0  0  0  0  0
   -6.3060   17.2320  -33.4680 C   0  0  0  0  0  0  0  0  0  0  0  0
   -6.0160   15.8730  -33.9380 C   0  0  0  0  0  0  0  0  0  0  0  0
   -4.6250   15.8120  -34.5640 C   0  0  0  0  0  0  0  0  0  0  0  0
   -4.4110   16.9620  -35.3340 O   0  0  0  0  0  0  0  0  0  0  0  0
   -5.7620   20.5270  -32.2350 C   0  0  0  0  0  0  0  0  0  0  0  0
   -6.0720   21.8220  -31.7980 C   0  0  0  0  0  0  0  0  0  0  0  0
   -5.2330   22.7850  -31.3580 N   0  0  0  0  0  0  0  0  0  0  0  0
   -3.8100   22.6740  -31.1960 C   0  0  0  0  0  0  0  0  0  0  0  0
   -3.0900   22.3370  -32.1760 O   0  0  0  0  0  0  0  0  0  0  0  0
   -3.2270   22.9390  -29.9520 O   0  0  0  0  0  0  0  0  0  0  0  0
   -1.8190   22.9630  -29.7350 C   0  0  0  0  0  0  0  0  0  0  0  0
   -1.3780   24.3310  -29.3240 C   0  0  0  0  0  0  0  0  0  0  0  0
   -2.1910   25.2920  -29.3560 O   0  0  0  0  0  0  0  0  0  0  0  0
   -0.0810   24.5410  -28.8740 O   0  0  0  0  0  0  0  0  0  0  0  0
   -3.4950   24.9310  -31.1140 H   0  0  0  0  0  0  0  0  0  0  0  0
   -3.8670   26.4370  -30.2120 H   0  0  0  0  0  0  0  0  0  0  0  0
   -8.2421   24.1628  -31.0013 H   0  0  0  0  0  0  0  0  0  0  0  0
   -9.4812   21.7995  -32.0252 H   0  0  0  0  0  0  0  0  0  0  0  0
   -8.9798   19.4753  -32.8615 H   0  0  0  0  0  0  0  0  0  0  0  0
   -6.0612   15.1777  -33.0868 H   0  0  0  0  0  0  0  0  0  0  0  0
   -6.7613   15.5910  -34.6963 H   0  0  0  0  0  0  0  0  0  0  0  0
   -3.8668   15.7562  -33.7690 H   0  0  0  0  0  0  0  0  0  0  0  0
   -4.5490   14.9212  -35.2048 H   0  0  0  0  0  0  0  0  0  0  0  0
   -3.7500   16.7080  -36.0300 H   0  0  0  0  0  0  0  0  0  0  0  0
   -4.7193   20.1789  -32.2755 H   0  0  0  0  0  0  0  0  0  0  0  0
   -1.5624   22.2458  -28.9414 H   0  0  0  0  0  0  0  0  0  0  0  0
   -1.3092   22.6900  -30.6707 H   0  0  0  0  0  0  0  0  0  0  0  0
  1  2  1  0
  2  3  2  0
  2  4  1  0
  4  5  2  0
  5  6  1  0
  6  7  2  0
  7  8  1  0
  8  9  2  0
  9 10  1  0
 10 11  3  0
 11 12  1  0
 12 13  1  0
 13 14  1  0
  9 15  1  0
 15 16  2  0
 16 17  1  0
 17 18  1  0
 18 19  2  0
 18 20  1  0
 20 21  1  0
 21 22  1  0
 22 23  2  0
 22 24  1  0
 17  4  1  0
 16  6  1  0
  1 25  1  0
  1 26  1  0
  5 27  1  0
  7 28  1  0
  8 29  1  0
 12 30  1  0
 12 31  1  0
 13 32  1  0
 13 33  1  0
 14 34  1  0
 15 35  1  0
 21 36  1  0
 21 37  1  0
M  CHG  1  24  -1
M  END
>  <UniqueID>  (41) 
41

>  <SMILES>  (41) 
NC(=O)c1cc2ccc(C#CCCO)cc2n1C(=O)OCC(=O)[O-]

>  <Energy>  (41) 
66.63715606781889

>  <Genealogy>  (41) 
NC(=O)c1cc2ccc(C#CCCO)cc2n1C(=O)OCC(=O)[O-] (protonated)
NC(=O)c1cc2ccc(C#CCCO)cc2n1C(=O)OCC(=O)[O-] (3D coordinates assigned)
NC(=O)c1cc2ccc(C#CCCO)cc2n1C(=O)OCC(=O)[O-] (optimized conformer: 66.63715606781889 kcal/mol)

>  <smiles>  (41) 
NC(=O)c1cc2ccc(C#CCCO)cc2n1C(=O)OCC(=O)O

>  <score_type>  (41) 
oracle

>  <origin>  (41) 
adg

>  <m_score__min__energy>  (41) 
-10.42

>  <m_primary>  (41) 
energy

$$$$
41:0
     RDKit          3D

 41 43  0  0  0  0  0  0  0  0999 V2000
   -7.2180   17.2800  -33.0890 C   0  0  0  0  0  0  0  0  0  0  0  0
   -6.4620   18.4650  -33.5100 N   0  0  0  0  0  0  0  0  0  0  0  0
   -5.4730   18.3200  -34.5910 C   0  0  0  0  0  0  0  0  0  0  0  0
   -4.0460   18.1780  -34.0790 C   0  0  0  0  0  0  0  0  0  0  0  0
   -3.1620   19.2790  -34.1190 C   0  0  0  0  0  0  0  0  0  0  0  0
   -1.8680   19.1780  -33.6140 C   0  0  0  0  0  0  0  0  0  0  0  0
   -1.4220   17.9790  -33.0680 C   0  0  0  0  0  0  0  0  0  0  0  0
   -2.2640   16.8680  -33.0420 C   0  0  0  0  0  0  0  0  0  0  0  0
   -3.5710   16.9380  -33.5620 C   0  0  0  0  0  0  0  0  0  0  0  0
   -4.3900   15.7010  -33.5550 C   0  0  0  0  0  0  0  0  0  0  0  0
   -4.6450   15.1060  -34.6360 O   0  0  0  0  0  0  0  0  0  0  0  0
   -4.9320   15.2050  -32.3750 O   0  0  0  0  0  0  0  0  0  0  0  0
   -6.6790   19.7410  -32.8570 C   0  0  0  0  0  0  0  0  0  0  0  0
   -7.9990   20.2040  -32.5950 C   0  0  0  0  0  0  0  0  0  0  0  0
   -8.2190   21.4470  -31.9810 C   0  0  0  0  0  0  0  0  0  0  0  0
   -7.1110   22.2090  -31.6320 C   0  0  0  0  0  0  0  0  0  0  0  0
   -7.0430   23.4560  -31.0540 C   0  0  0  0  0  0  0  0  0  0  0  0
   -5.6830   23.7380  -30.9460 C   0  0  0  0  0  0  0  0  0  0  0  0
   -5.1560   24.9560  -30.2960 C   0  0  0  0  0  0  0  0  0  0  0  0
   -4.0200   25.6370  -30.8210 N   0  0  0  0  0  0  0  0  0  0  0  0
   -5.6870   25.3740  -29.2320 O   0  0  0  0  0  0  0  0  0  0  0  0
   -4.9400   22.7100  -31.4470 N   0  0  0  0  0  0  0  0  0  0  0  0
   -3.5130   22.6450  -31.5980 C   0  0  0  0  0  0  0  0  0  0  0  0
   -2.7580   23.1650  -30.7340 O   0  0  0  0  0  0  0  0  0  0  0  0
   -2.9510   22.0320  -32.7100 O   0  0  0  0  0  0  0  0  0  0  0  0
   -5.8310   21.7810  -31.8600 C   0  0  0  0  0  0  0  0  0  0  0  0
   -5.5800   20.5550  -32.4880 C   0  0  0  0  0  0  0  0  0  0  0  0
   -7.2469   17.2347  -31.9903 H   0  0  0  0  0  0  0  0  0  0  0  0
   -8.2441   17.3415  -33.4805 H   0  0  0  0  0  0  0  0  0  0  0  0
   -6.7298   16.3754  -33.4805 H   0  0  0  0  0  0  0  0  0  0  0  0
   -5.7250   17.4248  -35.1785 H   0  0  0  0  0  0  0  0  0  0  0  0
   -5.5141   19.2360  -35.1987 H   0  0  0  0  0  0  0  0  0  0  0  0
   -3.5006   20.2302  -34.5555 H   0  0  0  0  0  0  0  0  0  0  0  0
   -1.1968   20.0489  -33.6470 H   0  0  0  0  0  0  0  0  0  0  0  0
   -0.4044   17.9073  -32.6565 H   0  0  0  0  0  0  0  0  0  0  0  0
   -1.9024   15.9235  -32.6093 H   0  0  0  0  0  0  0  0  0  0  0  0
   -8.8590   19.5790  -32.8776 H   0  0  0  0  0  0  0  0  0  0  0  0
   -9.2391   21.8073  -31.7820 H   0  0  0  0  0  0  0  0  0  0  0  0
   -7.8834   24.0941  -30.7434 H   0  0  0  0  0  0  0  0  0  0  0  0
   -3.0530   25.2980  -30.6250 H   0  0  0  0  0  0  0  0  0  0  0  0
   -4.5489   20.2301  -32.6910 H   0  0  0  0  0  0  0  0  0  0  0  0
  1  2  1  0
  2  3  1  0
  3  4  1  0
  4  5  2  0
  5  6  1  0
  6  7  2  0
  7  8  1  0
  8  9  2  0
  9 10  1  0
 10 11  2  0
 10 12  1  0
  2 13  1  0
 13 14  2  0
 14 15  1  0
 15 16  2  0
 16 17  1  0
 17 18  2  0
 18 19  1  0
 19 20  1  0
 19 21  2  0
 18 22  1  0
 22 23  1  0
 23 24  2  0
 23 25  1  0
 22 26  1  0
 26 27  2  0
  9  4  1  0
 27 13  1  0
 26 16  1  0
  1 28  1  0
  1 29  1  0
  1 30  1  0
  3 31  1  0
  3 32  1  0
  5 33  1  0
  6 34  1  0
  7 35  1  0
  8 36  1  0
 14 37  1  0
 15 38  1  0
 17 39  1  0
 20 40  1  0
 27 41  1  0
M  CHG  3  12  -1  20  -1  25  -1
M  END
>  <UniqueID>  (42) 
42

>  <SMILES>  (42) 
CN(Cc1ccccc1C(=O)[O-])c1ccc2cc(C([NH-])=O)n(C(=O)[O-])c2c1

>  <Energy>  (42) 
92.88550731421923

>  <Genealogy>  (42) 
CN(Cc1ccccc1C(=O)[O-])c1ccc2cc(C([NH-])=O)n(C(=O)[O-])c2c1 (protonated)
CN(Cc1ccccc1C(=O)[O-])c1ccc2cc(C([NH-])=O)n(C(=O)[O-])c2c1 (3D coordinates assigned)
CN(Cc1ccccc1C(=O)[O-])c1ccc2cc(C([NH-])=O)n(C(=O)[O-])c2c1 (optimized conformer: 92.88550731421923 kcal/mol)

>  <smiles>  (42) 
CN(Cc1ccccc1C(=O)O)c1ccc2cc(C(N)=O)n(C(=O)O)c2c1

>  <score_type>  (42) 
oracle

>  <origin>  (42) 
adg

>  <m_score__min__energy>  (42) 
-12.369999999999999

>  <m_primary>  (42) 
energy

$$$$
42:0
     RDKit          3D

 44 46  0  0  0  0  0  0  0  0999 V2000
   -5.3330   25.2780  -29.3290 N   0  0  0  0  0  0  0  0  0  0  0  0
   -6.4980   24.8370  -30.0250 C   0  0  0  0  0  0  0  0  0  0  0  0
   -7.6000   25.4190  -29.8130 O   0  0  0  0  0  0  0  0  0  0  0  0
   -6.4700   23.6100  -30.8400 C   0  0  0  0  0  0  0  0  0  0  0  0
   -7.6150   23.0890  -31.4330 C   0  0  0  0  0  0  0  0  0  0  0  0
   -7.2300   21.8870  -31.9690 C   0  0  0  0  0  0  0  0  0  0  0  0
   -7.9910   20.9300  -32.6290 C   0  0  0  0  0  0  0  0  0  0  0  0
   -7.3560   19.7440  -33.0270 C   0  0  0  0  0  0  0  0  0  0  0  0
   -5.9890   19.5140  -32.7240 C   0  0  0  0  0  0  0  0  0  0  0  0
   -5.3550   18.2700  -33.0880 N   0  0  0  0  0  0  0  0  0  0  0  0
   -6.0030   16.9800  -32.8180 C   0  0  0  0  0  0  0  0  0  0  0  0
   -4.9810   15.9720  -32.2790 C   0  0  0  0  0  0  0  0  0  0  0  0
   -3.7500   15.9820  -33.0850 N   0  0  0  0  0  0  0  0  0  0  0  0
   -2.9740   14.7710  -33.1980 C   0  0  0  0  0  0  0  0  0  0  0  0
   -1.8310   14.7890  -33.7310 O   0  0  0  0  0  0  0  0  0  0  0  0
   -3.4710   13.5630  -32.7200 O   0  0  0  0  0  0  0  0  0  0  0  0
   -3.1330   17.2820  -33.3960 C   0  0  0  0  0  0  0  0  0  0  0  0
   -4.1710   18.2540  -33.9560 C   0  0  0  0  0  0  0  0  0  0  0  0
   -5.2570   20.5050  -32.0310 C   0  0  0  0  0  0  0  0  0  0  0  0
   -5.8900   21.7130  -31.7040 C   0  0  0  0  0  0  0  0  0  0  0  0
   -5.3910   22.7890  -31.0420 N   0  0  0  0  0  0  0  0  0  0  0  0
   -3.9990   23.0930  -30.7780 C   0  0  0  0  0  0  0  0  0  0  0  0
   -3.4860   24.1600  -31.2170 O   0  0  0  0  0  0  0  0  0  0  0  0
   -3.1490   22.1670  -30.0850 N   0  0  0  0  0  0  0  0  0  0  0  0
   -1.9430   22.5590  -29.6000 O   0  0  0  0  0  0  0  0  0  0  0  0
   -2.2680   23.8210  -28.5260 S   0  0  0  0  0  0  0  0  0  0  0  0
   -3.5600   23.5660  -27.8010 O   0  0  0  0  0  0  0  0  0  0  0  0
   -1.1550   23.9050  -27.5210 O   0  0  0  0  0  0  0  0  0  0  0  0
   -2.3660   25.2780  -29.3580 O   0  0  0  0  0  0  0  0  0  0  0  0
   -4.4620   24.7010  -29.3160 H   0  0  0  0  0  0  0  0  0  0  0  0
   -5.3640   26.1480  -28.7520 H   0  0  0  0  0  0  0  0  0  0  0  0
   -8.6159   23.5441  -31.4652 H   0  0  0  0  0  0  0  0  0  0  0  0
   -9.0589   21.0972  -32.8332 H   0  0  0  0  0  0  0  0  0  0  0  0
   -7.9250   18.9828  -33.5809 H   0  0  0  0  0  0  0  0  0  0  0  0
   -6.7991   17.1231  -32.0725 H   0  0  0  0  0  0  0  0  0  0  0  0
   -6.4285   16.5910  -33.7548 H   0  0  0  0  0  0  0  0  0  0  0  0
   -4.7321   16.2337  -31.2400 H   0  0  0  0  0  0  0  0  0  0  0  0
   -5.4230   14.9660  -32.3295 H   0  0  0  0  0  0  0  0  0  0  0  0
   -2.7009   17.7054  -32.4773 H   0  0  0  0  0  0  0  0  0  0  0  0
   -2.3488   17.1288  -34.1520 H   0  0  0  0  0  0  0  0  0  0  0  0
   -3.7381   19.2642  -34.0022 H   0  0  0  0  0  0  0  0  0  0  0  0
   -4.4646   17.9306  -34.9656 H   0  0  0  0  0  0  0  0  0  0  0  0
   -4.2071   20.3314  -31.7525 H   0  0  0  0  0  0  0  0  0  0  0  0
   -3.3710   21.1480  -30.1040 H   0  0  0  0  0  0  0  0  0  0  0  0
  1  2  1  0
  2  3  2  0
  2  4  1  0
  4  5  2  0
  5  6  1  0
  6  7  2  0
  7  8  1  0
  8  9  2  0
  9 10  1  0
 10 11  1  0
 11 12  1  0
 12 13  1  0
 13 14  1  0
 14 15  2  0
 14 16  1  0
 13 17  1  0
 17 18  1  0
  9 19  1  0
 19 20  2  0
 20 21  1  0
 21 22  1  0
 22 23  2  0
 22 24  1  0
 24 25  1  0
 25 26  1  0
 26 27  2  0
 26 28  2  0
 26 29  1  0
 21  4  1  0
 20  6  1  0
 18 10  1  0
  1 30  1  0
  1 31  1  0
  5 32  1  0
  7 33  1  0
  8 34  1  0
 11 35  1  0
 11 36  1  0
 12 37  1  0
 12 38  1  0
 17 39  1  0
 17 40  1  0
 18 41  1  0
 18 42  1  0
 19 43  1  0
 24 44  1  0
M  CHG  2  16  -1  29  -1
M  END
>  <UniqueID>  (43) 
43

>  <SMILES>  (43) 
NC(=O)c1cc2ccc(N3CCN(C(=O)[O-])CC3)cc2n1C(=O)NOS(=O)(=O)[O-]

>  <Energy>  (43) 
90.65815351053635

>  <Genealogy>  (43) 
NC(=O)c1cc2ccc(N3CCN(C(=O)[O-])CC3)cc2n1C(=O)NOS(=O)(=O)[O-] (protonated)
NC(=O)c1cc2ccc(N3CCN(C(=O)[O-])CC3)cc2n1C(=O)NOS(=O)(=O)[O-] (3D coordinates assigned)
NC(=O)c1cc2ccc(N3CCN(C(=O)[O-])CC3)cc2n1C(=O)NOS(=O)(=O)[O-] (nonaromatic ring conformer: 90.65815351053635 kcal/mol)

>  <smiles>  (43) 
NC(=O)c1cc2ccc(N3CCN(C(=O)O)CC3)cc2n1C(=O)NOS(=O)(=O)O

>  <score_type>  (43) 
oracle

>  <origin>  (43) 
adg

>  <m_score__min__energy>  (43) 
-12.24

>  <m_primary>  (43) 
energy

$$$$
43:0
     RDKit          3D

 39 40  0  0  0  0  0  0  0  0999 V2000
   -4.5740   17.7780  -34.9780 C   0  0  0  0  0  0  0  0  0  0  0  0
   -5.7590   17.1460  -34.5080 O   0  0  0  0  0  0  0  0  0  0  0  0
   -5.9850   16.8870  -33.1530 C   0  0  0  0  0  0  0  0  0  0  0  0
   -5.4170   15.9180  -32.5790 O   0  0  0  0  0  0  0  0  0  0  0  0
   -6.9430   17.7510  -32.3850 C   0  0  0  0  0  0  0  0  0  0  0  0
   -7.5720   18.7660  -33.2450 N   0  0  0  0  0  0  0  0  0  0  0  0
   -7.5940   20.0590  -32.6020 C   0  0  0  0  0  0  0  0  0  0  0  0
   -8.8250   20.7330  -32.3940 C   0  0  0  0  0  0  0  0  0  0  0  0
   -8.8530   22.0100  -31.8100 C   0  0  0  0  0  0  0  0  0  0  0  0
   -7.6400   22.5900  -31.4510 C   0  0  0  0  0  0  0  0  0  0  0  0
   -7.3760   23.8290  -30.9120 C   0  0  0  0  0  0  0  0  0  0  0  0
   -5.9900   23.8930  -30.7920 C   0  0  0  0  0  0  0  0  0  0  0  0
   -5.2780   25.0320  -30.1780 C   0  0  0  0  0  0  0  0  0  0  0  0
   -4.1820   25.6570  -30.8420 N   0  0  0  0  0  0  0  0  0  0  0  0
   -5.6090   25.4280  -29.0280 O   0  0  0  0  0  0  0  0  0  0  0  0
   -5.4170   22.7430  -31.2480 N   0  0  0  0  0  0  0  0  0  0  0  0
   -4.0190   22.4560  -31.4080 C   0  0  0  0  0  0  0  0  0  0  0  0
   -3.6570   21.3970  -31.9880 O   0  0  0  0  0  0  0  0  0  0  0  0
   -3.0650   23.3380  -30.8870 O   0  0  0  0  0  0  0  0  0  0  0  0
   -2.1450   22.9800  -29.8590 C   0  0  0  0  0  0  0  0  0  0  0  0
   -1.4140   24.1900  -29.3690 C   0  0  0  0  0  0  0  0  0  0  0  0
   -1.9970   25.3030  -29.3240 O   0  0  0  0  0  0  0  0  0  0  0  0
   -0.0820   24.0930  -28.9890 O   0  0  0  0  0  0  0  0  0  0  0  0
   -6.4410   21.9540  -31.6400 C   0  0  0  0  0  0  0  0  0  0  0  0
   -6.3830   20.6850  -32.2260 C   0  0  0  0  0  0  0  0  0  0  0  0
   -3.9664   18.1021  -34.1202 H   0  0  0  0  0  0  0  0  0  0  0  0
   -3.9971   17.0678  -35.5886 H   0  0  0  0  0  0  0  0  0  0  0  0
   -4.8424   18.6527  -35.5886 H   0  0  0  0  0  0  0  0  0  0  0  0
   -7.7287   17.1142  -31.9523 H   0  0  0  0  0  0  0  0  0  0  0  0
   -6.3785   18.2718  -31.5975 H   0  0  0  0  0  0  0  0  0  0  0  0
   -7.0280   18.8320  -34.1380 H   0  0  0  0  0  0  0  0  0  0  0  0
   -8.5440   18.4690  -33.4990 H   0  0  0  0  0  0  0  0  0  0  0  0
   -9.7671   20.2505  -32.6932 H   0  0  0  0  0  0  0  0  0  0  0  0
   -9.8045   22.5356  -31.6415 H   0  0  0  0  0  0  0  0  0  0  0  0
   -8.1054   24.6043  -30.6348 H   0  0  0  0  0  0  0  0  0  0  0  0
   -3.2070   25.3040  -30.7180 H   0  0  0  0  0  0  0  0  0  0  0  0
   -2.6955   22.5254  -29.0221 H   0  0  0  0  0  0  0  0  0  0  0  0
   -1.4164   22.2633  -30.2658 H   0  0  0  0  0  0  0  0  0  0  0  0
   -5.4170   20.1853  -32.3906 H   0  0  0  0  0  0  0  0  0  0  0  0
  1  2  1  0
  2  3  1  0
  3  4  2  0
  3  5  1  0
  5  6  1  0
  6  7  1  0
  7  8  2  0
  8  9  1  0
  9 10  2  0
 10 11  1  0
 11 12  2  0
 12 13  1  0
 13 14  1  0
 13 15  2  0
 12 16  1  0
 16 17  1  0
 17 18  2  0
 17 19  1  0
 19 20  1  0
 20 21  1  0
 21 22  2  0
 21 23  1  0
 16 24  1  0
 24 25  2  0
 25  7  1  0
 24 10  1  0
  1 26  1  0
  1 27  1  0
  1 28  1  0
  5 29  1  0
  5 30  1  0
  6 31  1  0
  6 32  1  0
  8 33  1  0
  9 34  1  0
 11 35  1  0
 14 36  1  0
 20 37  1  0
 20 38  1  0
 25 39  1  0
M  CHG  3   6   1  14  -1  23  -1
M  END
>  <UniqueID>  (44) 
44

>  <SMILES>  (44) 
COC(=O)C[NH2+]c1ccc2cc(C([NH-])=O)n(C(=O)OCC(=O)[O-])c2c1

>  <Energy>  (44) 
73.23950408034985

>  <Genealogy>  (44) 
COC(=O)C[NH2+]c1ccc2cc(C([NH-])=O)n(C(=O)OCC(=O)[O-])c2c1 (protonated)
COC(=O)C[NH2+]c1ccc2cc(C([NH-])=O)n(C(=O)OCC(=O)[O-])c2c1 (3D coordinates assigned)
COC(=O)C[NH2+]c1ccc2cc(C([NH-])=O)n(C(=O)OCC(=O)[O-])c2c1 (optimized conformer: 73.23950408034985 kcal/mol)

>  <smiles>  (44) 
COC(=O)CNc1ccc2cc(C(N)=O)n(C(=O)OCC(=O)O)c2c1

>  <score_type>  (44) 
oracle

>  <origin>  (44) 
adg

>  <m_score__min__energy>  (44) 
-11.210000000000001

>  <m_primary>  (44) 
energy

$$$$
44:0
     RDKit          3D

 33 35  0  0  0  0  0  0  0  0999 V2000
   -1.5420   25.7800  -28.9540 N   0  0  0  0  0  0  0  0  0  0  0  0
   -0.9680   24.4810  -29.0620 C   0  0  0  0  0  0  0  0  0  0  0  0
    0.1340   24.2460  -28.4970 O   0  0  0  0  0  0  0  0  0  0  0  0
   -1.6150   23.4270  -29.8710 C   0  0  0  0  0  0  0  0  0  0  0  0
   -0.9610   22.2660  -30.2790 C   0  0  0  0  0  0  0  0  0  0  0  0
   -1.8620   21.6030  -31.0800 C   0  0  0  0  0  0  0  0  0  0  0  0
   -1.7390   20.3890  -31.7490 C   0  0  0  0  0  0  0  0  0  0  0  0
   -2.8420   19.9300  -32.4890 C   0  0  0  0  0  0  0  0  0  0  0  0
   -4.0440   20.6790  -32.5320 C   0  0  0  0  0  0  0  0  0  0  0  0
   -5.2120   20.1930  -33.3460 C   0  0  0  0  0  0  0  0  0  0  0  0
   -6.4750   20.5740  -32.6970 N   0  0  0  0  0  0  0  0  0  0  0  0
   -6.8490   21.8600  -32.6970 N   0  0  0  0  0  0  0  0  0  0  0  0
   -8.0200   22.2590  -32.1380 C   0  0  0  0  0  0  0  0  0  0  0  0
   -8.8490   21.3020  -31.5610 C   0  0  0  0  0  0  0  0  0  0  0  0
   -9.9420   21.6380  -31.0340 O   0  0  0  0  0  0  0  0  0  0  0  0
   -8.4710   20.0020  -31.5740 N   0  0  0  0  0  0  0  0  0  0  0  0
   -7.2950   19.6280  -32.1380 C   0  0  0  0  0  0  0  0  0  0  0  0
   -6.9750   18.4080  -32.1390 O   0  0  0  0  0  0  0  0  0  0  0  0
   -4.1290   21.9100  -31.8430 C   0  0  0  0  0  0  0  0  0  0  0  0
   -3.0080   22.3520  -31.1320 C   0  0  0  0  0  0  0  0  0  0  0  0
   -2.8740   23.4760  -30.3920 N   0  0  0  0  0  0  0  0  0  0  0  0
   -3.8930   24.4570  -30.1360 C   0  0  0  0  0  0  0  0  0  0  0  0
   -4.7920   24.2330  -29.2840 O   0  0  0  0  0  0  0  0  0  0  0  0
   -3.8780   25.6740  -30.8060 O   0  0  0  0  0  0  0  0  0  0  0  0
   -2.5780   25.9140  -28.9840 H   0  0  0  0  0  0  0  0  0  0  0  0
    0.0586   21.9474  -30.0165 H   0  0  0  0  0  0  0  0  0  0  0  0
   -0.8071   19.8066  -31.7001 H   0  0  0  0  0  0  0  0  0  0  0  0
   -2.7716   18.9805  -33.0399 H   0  0  0  0  0  0  0  0  0  0  0  0
   -5.1685   20.6427  -34.3489 H   0  0  0  0  0  0  0  0  0  0  0  0
   -5.1644   19.0968  -33.4243 H   0  0  0  0  0  0  0  0  0  0  0  0
   -6.2380   22.5890  -33.1320 H   0  0  0  0  0  0  0  0  0  0  0  0
   -8.3085   23.3205  -32.1412 H   0  0  0  0  0  0  0  0  0  0  0  0
   -5.0534   22.5058  -31.8652 H   0  0  0  0  0  0  0  0  0  0  0  0
  1  2  1  0
  2  3  2  0
  2  4  1  0
  4  5  2  0
  5  6  1  0
  6  7  2  0
  7  8  1  0
  8  9  2  0
  9 10  1  0
 10 11  1  0
 11 12  1  0
 12 13  2  0
 13 14  1  0
 14 15  2  0
 14 16  1  0
 16 17  1  0
 17 18  2  0
  9 19  1  0
 19 20  2  0
 20 21  1  0
 21 22  1  0
 22 23  2  0
 22 24  1  0
 21  4  1  0
 20  6  1  0
 17 11  1  0
  1 25  1  0
  5 26  1  0
  7 27  1  0
  8 28  1  0
 10 29  1  0
 10 30  1  0
 12 31  1  0
 13 32  1  0
 19 33  1  0
M  CHG  4   1  -1  12   1  16  -1  24  -1
M  END
>  <UniqueID>  (45) 
45

>  <SMILES>  (45) 
[NH-]C(=O)c1cc2ccc(Cn3[nH+]cc(=O)[n-]c3=O)cc2n1C(=O)[O-]

>  <Energy>  (45) 
77.27980206875486

>  <Genealogy>  (45) 
[NH-]C(=O)c1cc2ccc(Cn3[nH+]cc(=O)[n-]c3=O)cc2n1C(=O)[O-] (protonated)
[NH-]C(=O)c1cc2ccc(Cn3[nH+]cc(=O)[n-]c3=O)cc2n1C(=O)[O-] (3D coordinates assigned)
[NH-]C(=O)c1cc2ccc(Cn3[nH+]cc(=O)[n-]c3=O)cc2n1C(=O)[O-] (optimized conformer: 77.27980206875486 kcal/mol)

>  <smiles>  (45) 
NC(=O)c1cc2ccc(Cn3ncc(=O)[nH]c3=O)cc2n1C(=O)O

>  <score_type>  (45) 
oracle

>  <origin>  (45) 
adg

>  <m_score__min__energy>  (45) 
-11.56

>  <m_primary>  (45) 
energy

$$$$
45:0
     RDKit          3D

 45 47  0  0  0  0  0  0  0  0999 V2000
   -3.7300   25.3010  -30.4760 N   0  0  0  0  0  0  0  0  0  0  0  0
   -5.0600   24.8510  -30.2300 C   0  0  0  0  0  0  0  0  0  0  0  0
   -5.3780   24.4250  -29.0880 O   0  0  0  0  0  0  0  0  0  0  0  0
   -6.0630   24.8430  -31.3390 C   0  0  0  0  0  0  0  0  0  0  0  0
   -6.5410   23.4410  -31.5960 C   0  0  0  0  0  0  0  0  0  0  0  0
   -7.8980   23.1010  -31.3680 C   0  0  0  0  0  0  0  0  0  0  0  0
   -8.3640   21.8040  -31.6370 C   0  0  0  0  0  0  0  0  0  0  0  0
   -7.4560   20.8720  -32.1330 C   0  0  0  0  0  0  0  0  0  0  0  0
   -7.6470   19.5600  -32.5000 C   0  0  0  0  0  0  0  0  0  0  0  0
   -6.4020   19.1140  -32.9410 C   0  0  0  0  0  0  0  0  0  0  0  0
   -6.1230   17.7200  -33.3490 C   0  0  0  0  0  0  0  0  0  0  0  0
   -5.1530   17.4340  -34.3570 N   0  0  0  0  0  0  0  0  0  0  0  0
   -6.7680   16.7690  -32.8330 O   0  0  0  0  0  0  0  0  0  0  0  0
   -5.4780   20.1130  -32.8520 N   0  0  0  0  0  0  0  0  0  0  0  0
   -4.1050   20.0720  -33.2760 C   0  0  0  0  0  0  0  0  0  0  0  0
   -3.5830   21.0860  -33.8100 O   0  0  0  0  0  0  0  0  0  0  0  0
   -3.3650   18.8940  -33.0990 O   0  0  0  0  0  0  0  0  0  0  0  0
   -2.2940   18.4870  -33.9050 C   0  0  0  0  0  0  0  0  0  0  0  0
   -2.4710   17.7080  -34.8810 O   0  0  0  0  0  0  0  0  0  0  0  0
   -0.9200   19.0310  -33.6180 C   0  0  0  0  0  0  0  0  0  0  0  0
   -1.0130   20.2350  -32.6610 C   0  0  0  0  0  0  0  0  0  0  0  0
    0.2170   21.1410  -32.8320 C   0  0  0  0  0  0  0  0  0  0  0  0
    0.3630   21.6920  -34.1370 O   0  0  0  0  0  0  0  0  0  0  0  0
   -0.2160   20.9080  -35.1750 C   0  0  0  0  0  0  0  0  0  0  0  0
   -0.1620   19.3950  -34.9150 C   0  0  0  0  0  0  0  0  0  0  0  0
   -6.1390   21.1830  -32.3540 C   0  0  0  0  0  0  0  0  0  0  0  0
   -5.6510   22.4730  -32.1120 C   0  0  0  0  0  0  0  0  0  0  0  0
   -3.5330   26.0230  -31.2040 H   0  0  0  0  0  0  0  0  0  0  0  0
   -6.9197   25.4734  -31.0587 H   0  0  0  0  0  0  0  0  0  0  0  0
   -5.5916   25.2348  -32.2524 H   0  0  0  0  0  0  0  0  0  0  0  0
   -8.5920   23.8596  -30.9770 H   0  0  0  0  0  0  0  0  0  0  0  0
   -9.4153   21.5322  -31.4611 H   0  0  0  0  0  0  0  0  0  0  0  0
   -8.5835   18.9848  -32.4550 H   0  0  0  0  0  0  0  0  0  0  0  0
   -4.9940   16.4490  -34.6680 H   0  0  0  0  0  0  0  0  0  0  0  0
   -4.5610   18.1890  -34.7700 H   0  0  0  0  0  0  0  0  0  0  0  0
   -0.3371   18.2394  -33.1245 H   0  0  0  0  0  0  0  0  0  0  0  0
   -1.9230   20.8102  -32.8871 H   0  0  0  0  0  0  0  0  0  0  0  0
   -1.0498   19.8692  -31.6242 H   0  0  0  0  0  0  0  0  0  0  0  0
    0.1356   21.9711  -32.1149 H   0  0  0  0  0  0  0  0  0  0  0  0
    1.1001   20.5090  -32.6567 H   0  0  0  0  0  0  0  0  0  0  0  0
   -1.2699   21.2032  -35.2854 H   0  0  0  0  0  0  0  0  0  0  0  0
    0.3727   21.0972  -36.0848 H   0  0  0  0  0  0  0  0  0  0  0  0
   -0.6240   18.8672  -35.7624 H   0  0  0  0  0  0  0  0  0  0  0  0
    0.8903   19.0949  -34.8032 H   0  0  0  0  0  0  0  0  0  0  0  0
   -4.6007   22.7263  -32.3186 H   0  0  0  0  0  0  0  0  0  0  0  0
  1  2  1  0
  2  3  2  0
  2  4  1  0
  4  5  1  0
  5  6  2  0
  6  7  1  0
  7  8  2  0
  8  9  1  0
  9 10  2  0
 10 11  1  0
 11 12  1  0
 11 13  2  0
 10 14  1  0
 14 15  1  0
 15 16  2  0
 15 17  1  0
 17 18  1  0
 18 19  2  0
 18 20  1  0
 20 21  1  0
 21 22  1  0
 22 23  1  0
 23 24  1  0
 24 25  1  0
 14 26  1  0
 26 27  2  0
 27  5  1  0
 26  8  1  0
 25 20  1  0
  1 28  1  0
  4 29  1  0
  4 30  1  0
  6 31  1  0
  7 32  1  0
  9 33  1  0
 12 34  1  0
 12 35  1  0
 20 36  1  0
 21 37  1  0
 21 38  1  0
 22 39  1  0
 22 40  1  0
 24 41  1  0
 24 42  1  0
 25 43  1  0
 25 44  1  0
 27 45  1  0
M  CHG  1   1  -1
M  END
>  <UniqueID>  (46) 
46

>  <SMILES>  (46) 
[NH-]C(=O)Cc1ccc2cc(C(N)=O)n(C(=O)OC(=O)C3CCOCC3)c2c1

>  <Energy>  (46) 
92.76656304845274

>  <Genealogy>  (46) 
[NH-]C(=O)Cc1ccc2cc(C(N)=O)n(C(=O)OC(=O)C3CCOCC3)c2c1 (protonated)
[NH-]C(=O)Cc1ccc2cc(C(N)=O)n(C(=O)OC(=O)C3CCOCC3)c2c1 (3D coordinates assigned)
[NH-]C(=O)Cc1ccc2cc(C(N)=O)n(C(=O)OC(=O)C3CCOCC3)c2c1 (nonaromatic ring conformer: 92.76656304845274 kcal/mol)

>  <smiles>  (46) 
NC(=O)Cc1ccc2cc(C(N)=O)n(C(=O)OC(=O)C3CCOCC3)c2c1

>  <score_type>  (46) 
oracle

>  <origin>  (46) 
adg

>  <m_score__min__energy>  (46) 
-10.92

>  <m_primary>  (46) 
energy

$$$$
46:0
     RDKit          3D

 37 38  0  0  0  0  0  0  0  0999 V2000
   -6.8150   17.3840  -33.3330 C   0  0  0  0  0  0  0  0  0  0  0  0
   -6.9580   18.5130  -32.9330 C   0  0  0  0  0  0  0  0  0  0  0  0
   -7.1300   19.8600  -32.4560 C   0  0  0  0  0  0  0  0  0  0  0  0
   -8.4240   20.4250  -32.3910 C   0  0  0  0  0  0  0  0  0  0  0  0
   -8.6050   21.7340  -31.9150 C   0  0  0  0  0  0  0  0  0  0  0  0
   -7.4750   22.4470  -31.5210 C   0  0  0  0  0  0  0  0  0  0  0  0
   -7.3670   23.7160  -30.9990 C   0  0  0  0  0  0  0  0  0  0  0  0
   -6.0050   23.9080  -30.7770 C   0  0  0  0  0  0  0  0  0  0  0  0
   -5.4340   25.1830  -30.2950 C   0  0  0  0  0  0  0  0  0  0  0  0
   -4.1990   25.6750  -30.8110 N   0  0  0  0  0  0  0  0  0  0  0  0
   -6.0670   25.8720  -29.4520 O   0  0  0  0  0  0  0  0  0  0  0  0
   -5.2990   22.8010  -31.1400 N   0  0  0  0  0  0  0  0  0  0  0  0
   -3.8910   22.5650  -30.9770 C   0  0  0  0  0  0  0  0  0  0  0  0
   -3.0650   23.4710  -31.2710 O   0  0  0  0  0  0  0  0  0  0  0  0
   -3.4450   21.3230  -30.5160 O   0  0  0  0  0  0  0  0  0  0  0  0
   -2.5570   20.4950  -31.2600 C   0  0  0  0  0  0  0  0  0  0  0  0
   -1.2360   21.0220  -31.1870 O   0  0  0  0  0  0  0  0  0  0  0  0
   -0.7020   21.5590  -30.0130 C   0  0  0  0  0  0  0  0  0  0  0  0
    0.1270   20.9000  -29.3290 O   0  0  0  0  0  0  0  0  0  0  0  0
   -1.1070   22.8680  -29.5950 N   0  0  0  0  0  0  0  0  0  0  0  0
   -0.6060   23.4950  -28.3750 C   0  0  0  0  0  0  0  0  0  0  0  0
   -0.6580   24.9830  -28.4990 C   0  0  0  0  0  0  0  0  0  0  0  0
    0.1650   25.6990  -27.8690 O   0  0  0  0  0  0  0  0  0  0  0  0
   -1.5920   25.5810  -29.3360 O   0  0  0  0  0  0  0  0  0  0  0  0
   -6.2130   21.9160  -31.5970 C   0  0  0  0  0  0  0  0  0  0  0  0
   -6.0060   20.6070  -32.0500 C   0  0  0  0  0  0  0  0  0  0  0  0
   -6.6846   16.3545  -33.6978 H   0  0  0  0  0  0  0  0  0  0  0  0
   -9.2946   19.8359  -32.7152 H   0  0  0  0  0  0  0  0  0  0  0  0
   -9.6078   22.1822  -31.8552 H   0  0  0  0  0  0  0  0  0  0  0  0
   -8.1823   24.4270  -30.7996 H   0  0  0  0  0  0  0  0  0  0  0  0
   -3.2860   25.3070  -30.4650 H   0  0  0  0  0  0  0  0  0  0  0  0
   -2.5686   19.4777  -30.8418 H   0  0  0  0  0  0  0  0  0  0  0  0
   -2.8803   20.4656  -32.3110 H   0  0  0  0  0  0  0  0  0  0  0  0
   -1.7730   23.4010  -30.1990 H   0  0  0  0  0  0  0  0  0  0  0  0
   -1.2268   23.1797  -27.5234 H   0  0  0  0  0  0  0  0  0  0  0  0
    0.4373   23.1850  -28.2153 H   0  0  0  0  0  0  0  0  0  0  0  0
   -4.9953   20.1744  -32.0878 H   0  0  0  0  0  0  0  0  0  0  0  0
  1  2  3  0
  2  3  1  0
  3  4  2  0
  4  5  1  0
  5  6  2  0
  6  7  1  0
  7  8  2  0
  8  9  1  0
  9 10  1  0
  9 11  2  0
  8 12  1  0
 12 13  1  0
 13 14  2  0
 13 15  1  0
 15 16  1  0
 16 17  1  0
 17 18  1  0
 18 19  2  0
 18 20  1  0
 20 21  1  0
 21 22  1  0
 22 23  2  0
 22 24  1  0
 12 25  1  0
 25 26  2  0
 26  3  1  0
 25  6  1  0
  1 27  1  0
  4 28  1  0
  5 29  1  0
  7 30  1  0
 10 31  1  0
 16 32  1  0
 16 33  1  0
 20 34  1  0
 21 35  1  0
 21 36  1  0
 26 37  1  0
M  CHG  2  10  -1  24  -1
M  END
>  <UniqueID>  (47) 
47

>  <SMILES>  (47) 
C#Cc1ccc2cc(C([NH-])=O)n(C(=O)OCOC(=O)NCC(=O)[O-])c2c1

>  <Energy>  (47) 
68.07209702980371

>  <Genealogy>  (47) 
C#Cc1ccc2cc(C([NH-])=O)n(C(=O)OCOC(=O)NCC(=O)[O-])c2c1 (protonated)
C#Cc1ccc2cc(C([NH-])=O)n(C(=O)OCOC(=O)NCC(=O)[O-])c2c1 (3D coordinates assigned)
C#Cc1ccc2cc(C([NH-])=O)n(C(=O)OCOC(=O)NCC(=O)[O-])c2c1 (optimized conformer: 68.07209702980371 kcal/mol)

>  <smiles>  (47) 
C#Cc1ccc2cc(C(N)=O)n(C(=O)OCOC(=O)NCC(=O)O)c2c1

>  <score_type>  (47) 
oracle

>  <origin>  (47) 
adg

>  <m_score__min__energy>  (47) 
-11.75

>  <m_primary>  (47) 
energy

$$$$
47:0
     RDKit          3D

 58 61  0  0  0  0  0  0  0  0999 V2000
   -2.1060   19.1110  -33.0130 C   0  0  0  0  0  0  0  0  0  0  0  0
   -1.8610   20.5120  -32.4180 C   0  0  0  0  0  0  0  0  0  0  0  0
   -0.5860   21.1430  -33.0160 C   0  0  0  0  0  0  0  0  0  0  0  0
   -1.6830   20.3840  -30.8960 C   0  0  0  0  0  0  0  0  0  0  0  0
   -3.0010   21.3570  -32.6370 O   0  0  0  0  0  0  0  0  0  0  0  0
   -3.5070   22.3220  -31.7520 C   0  0  0  0  0  0  0  0  0  0  0  0
   -2.7380   23.1700  -31.2240 O   0  0  0  0  0  0  0  0  0  0  0  0
   -4.9150   22.3280  -31.4460 N   0  0  0  0  0  0  0  0  0  0  0  0
   -5.6370   23.2840  -30.7860 C   0  0  0  0  0  0  0  0  0  0  0  0
   -5.1070   24.5210  -30.1700 C   0  0  0  0  0  0  0  0  0  0  0  0
   -5.3530   24.8020  -28.7920 N   0  0  0  0  0  0  0  0  0  0  0  0
   -4.4070   25.3250  -30.8420 O   0  0  0  0  0  0  0  0  0  0  0  0
   -6.9980   22.9920  -30.8400 C   0  0  0  0  0  0  0  0  0  0  0  0
   -7.0950   21.8210  -31.5520 C   0  0  0  0  0  0  0  0  0  0  0  0
   -8.2210   21.0900  -31.9170 C   0  0  0  0  0  0  0  0  0  0  0  0
   -8.0310   19.9230  -32.6740 C   0  0  0  0  0  0  0  0  0  0  0  0
   -6.7280   19.5010  -33.0380 C   0  0  0  0  0  0  0  0  0  0  0  0
   -6.5450   18.3130  -33.8310 N   0  0  0  0  0  0  0  0  0  0  0  0
   -5.7520   18.3430  -35.0650 C   0  0  0  0  0  0  0  0  0  0  0  0
   -4.5610   17.3730  -34.9750 C   0  0  0  0  0  0  0  0  0  0  0  0
   -4.8400   16.1290  -34.0630 C   0  0  0  0  0  0  0  0  0  0  0  0
   -4.0650   14.9170  -34.5420 C   0  0  0  0  0  0  0  0  0  0  0  0
   -2.7220   15.0790  -33.8540 C   0  0  0  0  0  0  0  0  0  0  0  0
   -2.8710   15.9030  -32.7190 O   0  0  0  0  0  0  0  0  0  0  0  0
   -4.2160   16.3200  -32.6740 C   0  0  0  0  0  0  0  0  0  0  0  0
   -6.3600   15.8370  -33.9780 C   0  0  0  0  0  0  0  0  0  0  0  0
   -7.1210   17.0360  -33.3840 C   0  0  0  0  0  0  0  0  0  0  0  0
   -5.6110   20.2690  -32.6460 C   0  0  0  0  0  0  0  0  0  0  0  0
   -5.8280   21.4410  -31.9090 C   0  0  0  0  0  0  0  0  0  0  0  0
   -2.2332   18.3835  -32.1978 H   0  0  0  0  0  0  0  0  0  0  0  0
   -3.0145   19.1296  -33.6329 H   0  0  0  0  0  0  0  0  0  0  0  0
   -1.2451   18.8202  -33.6329 H   0  0  0  0  0  0  0  0  0  0  0  0
    0.0771   21.4712  -32.2020 H   0  0  0  0  0  0  0  0  0  0  0  0
   -0.0648   20.3988  -33.6361 H   0  0  0  0  0  0  0  0  0  0  0  0
   -0.8615   22.0088  -33.6361 H   0  0  0  0  0  0  0  0  0  0  0  0
   -2.4740   20.9528  -30.3852 H   0  0  0  0  0  0  0  0  0  0  0  0
   -1.7482   19.3246  -30.6070 H   0  0  0  0  0  0  0  0  0  0  0  0
   -0.6995   20.7830  -30.6070 H   0  0  0  0  0  0  0  0  0  0  0  0
   -5.9780   24.1920  -28.2210 H   0  0  0  0  0  0  0  0  0  0  0  0
   -4.9560   25.6610  -28.3520 H   0  0  0  0  0  0  0  0  0  0  0  0
   -7.8219   23.5762  -30.4042 H   0  0  0  0  0  0  0  0  0  0  0  0
   -9.2291   21.4163  -31.6216 H   0  0  0  0  0  0  0  0  0  0  0  0
   -8.9027   19.3300  -32.9879 H   0  0  0  0  0  0  0  0  0  0  0  0
   -6.3912   18.0511  -35.9113 H   0  0  0  0  0  0  0  0  0  0  0  0
   -5.3652   19.3625  -35.2099 H   0  0  0  0  0  0  0  0  0  0  0  0
   -4.3241   17.0165  -35.9883 H   0  0  0  0  0  0  0  0  0  0  0  0
   -3.7245   17.9263  -34.5232 H   0  0  0  0  0  0  0  0  0  0  0  0
   -4.5584   13.9840  -34.2320 H   0  0  0  0  0  0  0  0  0  0  0  0
   -3.9871   14.8566  -35.6376 H   0  0  0  0  0  0  0  0  0  0  0  0
   -2.3475   14.0922  -33.5440 H   0  0  0  0  0  0  0  0  0  0  0  0
   -2.0067   15.5406  -34.5506 H   0  0  0  0  0  0  0  0  0  0  0  0
   -4.7654   15.7172  -31.9359 H   0  0  0  0  0  0  0  0  0  0  0  0
   -4.2692   17.3795  -32.3830 H   0  0  0  0  0  0  0  0  0  0  0  0
   -6.7438   15.6324  -34.9884 H   0  0  0  0  0  0  0  0  0  0  0  0
   -6.5130   14.9664  -33.3234 H   0  0  0  0  0  0  0  0  0  0  0  0
   -8.1723   16.9864  -33.7037 H   0  0  0  0  0  0  0  0  0  0  0  0
   -7.0431   16.9864  -32.2879 H   0  0  0  0  0  0  0  0  0  0  0  0
   -4.5914   19.9544  -32.9133 H   0  0  0  0  0  0  0  0  0  0  0  0
  1  2  1  0
  2  3  1  0
  2  4  1  0
  2  5  1  0
  5  6  1  0
  6  7  2  0
  6  8  1  0
  8  9  1  0
  9 10  1  0
 10 11  1  0
 10 12  2  0
  9 13  2  0
 13 14  1  0
 14 15  2  0
 15 16  1  0
 16 17  2  0
 17 18  1  0
 18 19  1  0
 19 20  1  0
 20 21  1  0
 21 22  1  0
 22 23  1  0
 23 24  1  0
 24 25  1  0
 21 26  1  0
 26 27  1  0
 17 28  1  0
 28 29  2  0
 29  8  1  0
 29 14  1  0
 27 18  1  0
 25 21  1  0
  1 30  1  0
  1 31  1  0
  1 32  1  0
  3 33  1  0
  3 34  1  0
  3 35  1  0
  4 36  1  0
  4 37  1  0
  4 38  1  0
 11 39  1  0
 11 40  1  0
 13 41  1  0
 15 42  1  0
 16 43  1  0
 19 44  1  0
 19 45  1  0
 20 46  1  0
 20 47  1  0
 22 48  1  0
 22 49  1  0
 23 50  1  0
 23 51  1  0
 25 52  1  0
 25 53  1  0
 26 54  1  0
 26 55  1  0
 27 56  1  0
 27 57  1  0
 28 58  1  0
M  END
>  <UniqueID>  (48) 
48

>  <SMILES>  (48) 
CC(C)(C)OC(=O)n1c(C(N)=O)cc2ccc(N3CCC4(CCOC4)CC3)cc21

>  <Energy>  (48) 
105.32331972325454

>  <Genealogy>  (48) 
CC(C)(C)OC(=O)n1c(C(N)=O)cc2ccc(N3CCC4(CCOC4)CC3)cc21 (3D coordinates assigned)
CC(C)(C)OC(=O)n1c(C(N)=O)cc2ccc(N3CCC4(CCOC4)CC3)cc21 (nonaromatic ring conformer: 105.32331972325454 kcal/mol)

>  <smiles>  (48) 
CC(C)(C)OC(=O)n1c(C(N)=O)cc2ccc(N3CCC4(CCOC4)CC3)cc21

>  <score_type>  (48) 
oracle

>  <origin>  (48) 
adg

>  <m_score__min__energy>  (48) 
-10.390000000000001

>  <m_primary>  (48) 
energy

$$$$
48:0
     RDKit          3D

 47 49  0  0  0  0  0  0  0  0999 V2000
   -9.0640   21.1670  -31.2050 C   0  0  0  0  0  0  0  0  0  0  0  0
   -8.8740   22.4670  -31.7200 O   0  0  0  0  0  0  0  0  0  0  0  0
   -7.5720   22.5690  -32.2580 C   0  0  0  0  0  0  0  0  0  0  0  0
   -6.8120   23.6800  -31.5370 C   0  0  0  0  0  0  0  0  0  0  0  0
   -6.7120   23.3980  -30.1530 O   0  0  0  0  0  0  0  0  0  0  0  0
   -6.3330   24.5530  -29.4360 C   0  0  0  0  0  0  0  0  0  0  0  0
   -4.9110   24.3640  -28.9070 C   0  0  0  0  0  0  0  0  0  0  0  0
   -3.8900   24.4360  -30.0090 C   0  0  0  0  0  0  0  0  0  0  0  0
   -3.8970   25.4130  -30.8070 O   0  0  0  0  0  0  0  0  0  0  0  0
   -2.8550   23.4460  -30.1100 N   0  0  0  0  0  0  0  0  0  0  0  0
   -1.5580   23.5570  -29.7090 C   0  0  0  0  0  0  0  0  0  0  0  0
   -0.9720   24.6950  -28.9680 C   0  0  0  0  0  0  0  0  0  0  0  0
   -1.6270   25.9600  -28.9250 N   0  0  0  0  0  0  0  0  0  0  0  0
    0.1090   24.5410  -28.3400 O   0  0  0  0  0  0  0  0  0  0  0  0
   -0.8440   22.4080  -30.0460 C   0  0  0  0  0  0  0  0  0  0  0  0
   -1.7510   21.5830  -30.6690 C   0  0  0  0  0  0  0  0  0  0  0  0
   -1.5810   20.3170  -31.2240 C   0  0  0  0  0  0  0  0  0  0  0  0
   -2.6930   19.7100  -31.8320 C   0  0  0  0  0  0  0  0  0  0  0  0
   -3.9380   20.3780  -31.8810 C   0  0  0  0  0  0  0  0  0  0  0  0
   -5.0590   19.7560  -32.5090 N   0  0  0  0  0  0  0  0  0  0  0  0
   -5.8410   18.5150  -32.3660 C   0  0  0  0  0  0  0  0  0  0  0  0
   -6.7980   18.8010  -33.4770 C   0  0  0  0  0  0  0  0  0  0  0  0
   -5.9940   20.0530  -33.6090 C   0  0  0  0  0  0  0  0  0  0  0  0
   -4.0740   21.6610  -31.3130 C   0  0  0  0  0  0  0  0  0  0  0  0
   -2.9580   22.2340  -30.6970 C   0  0  0  0  0  0  0  0  0  0  0  0
   -9.0586   21.2037  -30.1056 H   0  0  0  0  0  0  0  0  0  0  0  0
  -10.0294   20.7718  -31.5540 H   0  0  0  0  0  0  0  0  0  0  0  0
   -8.2520   20.5121  -31.5540 H   0  0  0  0  0  0  0  0  0  0  0  0
   -7.0428   21.6143  -32.1223 H   0  0  0  0  0  0  0  0  0  0  0  0
   -7.6346   22.8026  -33.3311 H   0  0  0  0  0  0  0  0  0  0  0  0
   -5.8013   23.7621  -31.9632 H   0  0  0  0  0  0  0  0  0  0  0  0
   -7.3580   24.6259  -31.6678 H   0  0  0  0  0  0  0  0  0  0  0  0
   -6.3659   25.4281  -30.1017 H   0  0  0  0  0  0  0  0  0  0  0  0
   -7.0246   24.7134  -28.5958 H   0  0  0  0  0  0  0  0  0  0  0  0
   -4.6970   25.1534  -28.1715 H   0  0  0  0  0  0  0  0  0  0  0  0
   -4.8474   23.3668  -28.4471 H   0  0  0  0  0  0  0  0  0  0  0  0
   -2.6680   26.0280  -28.9770 H   0  0  0  0  0  0  0  0  0  0  0  0
    0.2198   22.2043  -29.8542 H   0  0  0  0  0  0  0  0  0  0  0  0
   -0.6065   19.8080  -31.1875 H   0  0  0  0  0  0  0  0  0  0  0  0
   -2.5940   18.7073  -32.2733 H   0  0  0  0  0  0  0  0  0  0  0  0
   -5.2399   17.6114  -32.5456 H   0  0  0  0  0  0  0  0  0  0  0  0
   -6.2716   18.3058  -31.3756 H   0  0  0  0  0  0  0  0  0  0  0  0
   -6.7500   18.1132  -34.3341 H   0  0  0  0  0  0  0  0  0  0  0  0
   -7.8922   18.7818  -33.3661 H   0  0  0  0  0  0  0  0  0  0  0  0
   -5.4907   20.1335  -34.5838 H   0  0  0  0  0  0  0  0  0  0  0  0
   -6.5402   21.0065  -33.5582 H   0  0  0  0  0  0  0  0  0  0  0  0
   -5.0336   22.1972  -31.3536 H   0  0  0  0  0  0  0  0  0  0  0  0
  1  2  1  0
  2  3  1  0
  3  4  1  0
  4  5  1  0
  5  6  1  0
  6  7  1  0
  7  8  1  0
  8  9  2  0
  8 10  1  0
 10 11  1  0
 11 12  1  0
 12 13  1  0
 12 14  2  0
 11 15  2  0
 15 16  1  0
 16 17  2  0
 17 18  1  0
 18 19  2  0
 19 20  1  0
 20 21  1  0
 21 22  1  0
 22 23  1  0
 19 24  1  0
 24 25  2  0
 25 10  1  0
 25 16  1  0
 23 20  1  0
  1 26  1  0
  1 27  1  0
  1 28  1  0
  3 29  1  0
  3 30  1  0
  4 31  1  0
  4 32  1  0
  6 33  1  0
  6 34  1  0
  7 35  1  0
  7 36  1  0
 13 37  1  0
 15 38  1  0
 17 39  1  0
 18 40  1  0
 21 41  1  0
 21 42  1  0
 22 43  1  0
 22 44  1  0
 23 45  1  0
 23 46  1  0
 24 47  1  0
M  CHG  1  13  -1
M  END
>  <UniqueID>  (49) 
49

>  <SMILES>  (49) 
COCCOCCC(=O)n1c(C([NH-])=O)cc2ccc(N3CCC3)cc21

>  <Energy>  (49) 
128.2091619704093

>  <Genealogy>  (49) 
COCCOCCC(=O)n1c(C([NH-])=O)cc2ccc(N3CCC3)cc21 (protonated)
COCCOCCC(=O)n1c(C([NH-])=O)cc2ccc(N3CCC3)cc21 (3D coordinates assigned)
COCCOCCC(=O)n1c(C([NH-])=O)cc2ccc(N3CCC3)cc21 (nonaromatic ring conformer: 128.2091619704093 kcal/mol)

>  <smiles>  (49) 
COCCOCCC(=O)n1c(C(N)=O)cc2ccc(N3CCC3)cc21

>  <score_type>  (49) 
oracle

>  <origin>  (49) 
adg

>  <m_score__min__energy>  (49) 
-10.18

>  <m_primary>  (49) 
energy

$$$$
49:0
     RDKit          3D

 48 49  0  0  0  0  0  0  0  0999 V2000
   -8.3560   18.9340  -32.1150 N   0  0  0  0  0  0  0  0  0  0  0  0
   -8.7430   20.3010  -32.2230 C   0  0  0  0  0  0  0  0  0  0  0  0
   -9.8860   20.6010  -32.6600 O   0  0  0  0  0  0  0  0  0  0  0  0
   -7.8320   21.3510  -31.7710 C   0  0  0  0  0  0  0  0  0  0  0  0
   -8.3060   22.5710  -31.3120 C   0  0  0  0  0  0  0  0  0  0  0  0
   -7.1930   23.2710  -30.9310 C   0  0  0  0  0  0  0  0  0  0  0  0
   -7.0920   24.5430  -30.3810 C   0  0  0  0  0  0  0  0  0  0  0  0
   -5.8140   25.0230  -30.0580 C   0  0  0  0  0  0  0  0  0  0  0  0
   -4.6610   24.2300  -30.2770 C   0  0  0  0  0  0  0  0  0  0  0  0
   -3.3700   24.7690  -29.9170 N   0  0  0  0  0  0  0  0  0  0  0  0
   -2.3270   24.1090  -29.1140 C   0  0  2  0  0  0  0  0  0  0  0  0
   -2.8810   23.5570  -27.7760 C   0  0  0  0  0  0  0  0  0  0  0  0
   -3.1630   24.6600  -26.7420 C   0  0  0  0  0  0  0  0  0  0  0  0
   -4.5250   24.9900  -26.7120 O   0  0  0  0  0  0  0  0  0  0  0  0
   -1.1190   24.9980  -28.9720 C   0  0  0  0  0  0  0  0  0  0  0  0
   -0.0200   24.5500  -28.5500 O   0  0  0  0  0  0  0  0  0  0  0  0
   -1.2230   26.3470  -29.2890 O   0  0  0  0  0  0  0  0  0  0  0  0
   -4.8130   22.9280  -30.8080 C   0  0  0  0  0  0  0  0  0  0  0  0
   -6.0950   22.4780  -31.1620 C   0  0  0  0  0  0  0  0  0  0  0  0
   -6.4660   21.2820  -31.7030 N   0  0  0  0  0  0  0  0  0  0  0  0
   -5.5660   20.2430  -32.1870 C   0  0  0  0  0  0  0  0  0  0  0  0
   -5.4920   19.1480  -31.5660 O   0  0  0  0  0  0  0  0  0  0  0  0
   -4.7430   20.4140  -33.3550 N   0  0  0  0  0  0  0  0  0  0  0  0
   -4.1430   19.2720  -34.0490 C   0  0  0  0  0  0  0  0  0  0  0  0
   -5.2100   18.2480  -34.4790 C   0  0  2  0  0  0  0  0  0  0  0  0
   -6.4830   18.8320  -34.3620 O   0  0  0  0  0  0  0  0  0  0  0  0
   -5.1760   16.9800  -33.6080 C   0  0  0  0  0  0  0  0  0  0  0  0
   -6.4050   16.7720  -32.9640 O   0  0  0  0  0  0  0  0  0  0  0  0
   -7.4090   18.6210  -32.4230 H   0  0  0  0  0  0  0  0  0  0  0  0
   -9.3530   22.9049  -31.2643 H   0  0  0  0  0  0  0  0  0  0  0  0
   -7.9882   25.1558  -30.2040 H   0  0  0  0  0  0  0  0  0  0  0  0
   -5.7058   26.0298  -29.6284 H   0  0  0  0  0  0  0  0  0  0  0  0
   -3.0880   25.6650  -30.3770 H   0  0  0  0  0  0  0  0  0  0  0  0
   -1.9812   23.2153  -29.6541 H   0  0  0  0  0  0  0  0  0  0  0  0
   -3.8189   23.0196  -27.9800 H   0  0  0  0  0  0  0  0  0  0  0  0
   -2.1129   22.8949  -27.3498 H   0  0  0  0  0  0  0  0  0  0  0  0
   -2.8577   24.3053  -25.7465 H   0  0  0  0  0  0  0  0  0  0  0  0
   -2.5932   25.5572  -27.0254 H   0  0  0  0  0  0  0  0  0  0  0  0
   -4.6910   25.5810  -27.4920 H   0  0  0  0  0  0  0  0  0  0  0  0
   -3.9374   22.2758  -30.9420 H   0  0  0  0  0  0  0  0  0  0  0  0
   -4.4310   21.3520  -33.6700 H   0  0  0  0  0  0  0  0  0  0  0  0
   -3.6148   19.6346  -34.9432 H   0  0  0  0  0  0  0  0  0  0  0  0
   -3.4469   18.7750  -33.3573 H   0  0  0  0  0  0  0  0  0  0  0  0
   -4.9962   17.9608  -35.5191 H   0  0  0  0  0  0  0  0  0  0  0  0
   -6.6990   18.8650  -33.3930 H   0  0  0  0  0  0  0  0  0  0  0  0
   -4.9545   16.1122  -34.2466 H   0  0  0  0  0  0  0  0  0  0  0  0
   -4.3983   17.1062  -32.8404 H   0  0  0  0  0  0  0  0  0  0  0  0
   -6.6670   17.6420  -32.5610 H   0  0  0  0  0  0  0  0  0  0  0  0
  1  2  1  0
  2  3  2  0
  2  4  1  0
  4  5  2  0
  5  6  1  0
  6  7  2  0
  7  8  1  0
  8  9  2  0
  9 10  1  0
 10 11  1  0
 11 12  1  0
 12 13  1  0
 13 14  1  0
 11 15  1  0
 15 16  2  0
 15 17  1  0
  9 18  1  0
 18 19  2  0
 19 20  1  0
 20 21  1  0
 21 22  2  0
 21 23  1  0
 23 24  1  0
 24 25  1  0
 25 26  1  0
 25 27  1  0
 27 28  1  0
 20  4  1  0
 19  6  1  0
  1 29  1  0
  5 30  1  0
  7 31  1  0
  8 32  1  0
 10 33  1  0
 11 34  1  6
 12 35  1  0
 12 36  1  0
 13 37  1  0
 13 38  1  0
 14 39  1  0
 18 40  1  0
 23 41  1  0
 24 42  1  0
 24 43  1  0
 25 44  1  6
 26 45  1  0
 27 46  1  0
 27 47  1  0
 28 48  1  0
M  CHG  2   1  -1  17  -1
M  END
>  <UniqueID>  (50) 
50

>  <SMILES>  (50) 
[NH-]C(=O)c1cc2ccc(N[C@H](CCO)C(=O)[O-])cc2n1C(=O)NC[C@H](O)CO

>  <Energy>  (50) 
94.46305317656126

>  <Genealogy>  (50) 
[NH-]C(=O)c1cc2ccc(NC(CCO)C(=O)[O-])cc2n1C(=O)NCC(O)CO (protonated)
[NH-]C(=O)c1cc2ccc(N[C@H](CCO)C(=O)[O-])cc2n1C(=O)NC[C@H](O)CO (chirality)
[NH-]C(=O)c1cc2ccc(N[C@H](CCO)C(=O)[O-])cc2n1C(=O)NC[C@H](O)CO (3D coordinates assigned)
[NH-]C(=O)c1cc2ccc(N[C@H](CCO)C(=O)[O-])cc2n1C(=O)NC[C@H](O)CO (optimized conformer: 94.46305317656126 kcal/mol)

>  <smiles>  (50) 
NC(=O)c1cc2ccc(NC(CCO)C(=O)O)cc2n1C(=O)NCC(O)CO

>  <score_type>  (50) 
oracle

>  <origin>  (50) 
adg

>  <m_score__min__energy>  (50) 
-9.4199999999999999

>  <m_primary>  (50) 
energy

$$$$
50:0
     RDKit          3D

 51 53  0  0  0  0  0  0  0  0999 V2000
   -6.1100   17.0460  -31.1530 C   0  0  0  0  0  0  0  0  0  0  0  0
   -5.4420   16.9300  -32.5360 C   0  0  1  0  0  0  0  0  0  0  0  0
   -6.4900   16.7220  -33.6630 C   0  0  0  0  0  0  0  0  0  0  0  0
   -6.0550   17.1230  -34.9540 O   0  0  0  0  0  0  0  0  0  0  0  0
   -4.6640   16.9520  -35.1070 C   0  0  0  0  0  0  0  0  0  0  0  0
   -3.8920   17.9170  -34.1850 C   0  0  0  0  0  0  0  0  0  0  0  0
   -4.5140   18.0530  -32.8370 N   0  0  1  0  0  0  0  0  0  0  0  0
   -5.1140   19.3690  -32.6170 C   0  0  0  0  0  0  0  0  0  0  0  0
   -6.4760   19.6460  -32.9350 C   0  0  0  0  0  0  0  0  0  0  0  0
   -7.0370   20.9090  -32.6860 C   0  0  0  0  0  0  0  0  0  0  0  0
   -6.2320   21.8790  -32.1030 C   0  0  0  0  0  0  0  0  0  0  0  0
   -6.5170   23.1830  -31.7630 C   0  0  0  0  0  0  0  0  0  0  0  0
   -5.3430   23.6850  -31.2050 C   0  0  0  0  0  0  0  0  0  0  0  0
   -5.2370   25.0350  -30.6150 C   0  0  0  0  0  0  0  0  0  0  0  0
   -3.9710   25.6760  -30.4700 N   0  0  0  0  0  0  0  0  0  0  0  0
   -6.2720   25.6130  -30.1890 O   0  0  0  0  0  0  0  0  0  0  0  0
   -4.3680   22.7320  -31.2110 N   0  0  0  0  0  0  0  0  0  0  0  0
   -3.0060   22.8540  -30.7770 C   0  0  0  0  0  0  0  0  0  0  0  0
   -2.0890   22.2860  -31.4280 O   0  0  0  0  0  0  0  0  0  0  0  0
   -2.7210   23.5850  -29.6140 O   0  0  0  0  0  0  0  0  0  0  0  0
   -2.9560   23.1660  -28.2630 C   0  0  0  0  0  0  0  0  0  0  0  0
   -1.7130   23.5500  -27.4480 C   0  0  0  0  0  0  0  0  0  0  0  0
   -3.1480   21.6390  -28.1950 C   0  0  0  0  0  0  0  0  0  0  0  0
   -4.1800   23.8950  -27.6770 C   0  0  0  0  0  0  0  0  0  0  0  0
   -4.9290   21.6340  -31.7620 C   0  0  0  0  0  0  0  0  0  0  0  0
   -4.3340   20.3960  -32.0240 C   0  0  0  0  0  0  0  0  0  0  0  0
   -5.3515   16.9143  -30.3673 H   0  0  0  0  0  0  0  0  0  0  0  0
   -6.5741   18.0382  -31.0520 H   0  0  0  0  0  0  0  0  0  0  0  0
   -6.8814   16.2684  -31.0520 H   0  0  0  0  0  0  0  0  0  0  0  0
   -4.8139   16.0278  -32.4969 H   0  0  0  0  0  0  0  0  0  0  0  0
   -6.7436   15.6524  -33.7029 H   0  0  0  0  0  0  0  0  0  0  0  0
   -7.3504   17.3594  -33.4112 H   0  0  0  0  0  0  0  0  0  0  0  0
   -4.3971   15.9162  -34.8504 H   0  0  0  0  0  0  0  0  0  0  0  0
   -4.3937   17.1681  -36.1511 H   0  0  0  0  0  0  0  0  0  0  0  0
   -2.8662   17.5395  -34.0618 H   0  0  0  0  0  0  0  0  0  0  0  0
   -3.9086   18.9099  -34.6581 H   0  0  0  0  0  0  0  0  0  0  0  0
   -3.7210   17.9580  -32.1570 H   0  0  0  0  0  0  0  0  0  0  0  0
   -7.0979   18.8570  -33.3830 H   0  0  0  0  0  0  0  0  0  0  0  0
   -8.0842   21.1239  -32.9453 H   0  0  0  0  0  0  0  0  0  0  0  0
   -7.4695   23.7153  -31.9024 H   0  0  0  0  0  0  0  0  0  0  0  0
   -3.1120   25.2730  -30.9050 H   0  0  0  0  0  0  0  0  0  0  0  0
   -1.9422   23.4792  -26.3745 H   0  0  0  0  0  0  0  0  0  0  0  0
   -0.8880   22.8648  -27.6928 H   0  0  0  0  0  0  0  0  0  0  0  0
   -1.4182   24.5811  -27.6928 H   0  0  0  0  0  0  0  0  0  0  0  0
   -3.1880   21.3210  -27.1427 H   0  0  0  0  0  0  0  0  0  0  0  0
   -4.0877   21.3649  -28.6969 H   0  0  0  0  0  0  0  0  0  0  0  0
   -2.3054   21.1408  -28.6969 H   0  0  0  0  0  0  0  0  0  0  0  0
   -4.1324   23.8666  -26.5784 H   0  0  0  0  0  0  0  0  0  0  0  0
   -4.1812   24.9411  -28.0171 H   0  0  0  0  0  0  0  0  0  0  0  0
   -5.1004   23.3978  -28.0171 H   0  0  0  0  0  0  0  0  0  0  0  0
   -3.2772   20.2206  -31.7743 H   0  0  0  0  0  0  0  0  0  0  0  0
  1  2  1  0
  2  3  1  0
  3  4  1  0
  4  5  1  0
  5  6  1  0
  6  7  1  0
  7  8  1  0
  8  9  2  0
  9 10  1  0
 10 11  2  0
 11 12  1  0
 12 13  2  0
 13 14  1  0
 14 15  1  0
 14 16  2  0
 13 17  1  0
 17 18  1  0
 18 19  2  0
 18 20  1  0
 20 21  1  0
 21 22  1  0
 21 23  1  0
 21 24  1  0
 17 25  1  0
 25 26  2  0
  7  2  1  0
 26  8  1  0
 25 11  1  0
  1 27  1  0
  1 28  1  0
  1 29  1  0
  2 30  1  1
  3 31  1  0
  3 32  1  0
  5 33  1  0
  5 34  1  0
  6 35  1  0
  6 36  1  0
  7 37  1  1
  9 38  1  0
 10 39  1  0
 12 40  1  0
 15 41  1  0
 22 42  1  0
 22 43  1  0
 22 44  1  0
 23 45  1  0
 23 46  1  0
 23 47  1  0
 24 48  1  0
 24 49  1  0
 24 50  1  0
 26 51  1  0
M  CHG  2   7   1  15  -1
M  END
>  <UniqueID>  (51) 
51

>  <SMILES>  (51) 
C[C@H]1COCC[N@H+]1c1ccc2cc(C([NH-])=O)n(C(=O)OC(C)(C)C)c2c1

>  <Energy>  (51) 
104.13311964819934

>  <Genealogy>  (51) 
C[C@H]1COCC[NH+]1c1ccc2cc(C([NH-])=O)n(C(=O)OC(C)(C)C)c2c1 (protonated)
C[C@H]1COCC[N@H+]1c1ccc2cc(C([NH-])=O)n(C(=O)OC(C)(C)C)c2c1 (chirality)
C[C@H]1COCC[N@H+]1c1ccc2cc(C([NH-])=O)n(C(=O)OC(C)(C)C)c2c1 (3D coordinates assigned)
C[C@H]1COCC[N@H+]1c1ccc2cc(C([NH-])=O)n(C(=O)OC(C)(C)C)c2c1 (nonaromatic ring conformer: 104.13311964819934 kcal/mol)

>  <smiles>  (51) 
C[C@H]1COCCN1c1ccc2cc(C(N)=O)n(C(=O)OC(C)(C)C)c2c1

>  <score_type>  (51) 
oracle

>  <origin>  (51) 
adg

>  <m_score__min__energy>  (51) 
-10.119999999999999

>  <m_primary>  (51) 
energy

$$$$
51:0
     RDKit          3D

 45 46  0  0  0  0  0  0  0  0999 V2000
   -5.0300   17.4610  -35.0740 C   0  0  0  0  0  0  0  0  0  0  0  0
   -6.1410   16.9220  -34.3980 O   0  0  0  0  0  0  0  0  0  0  0  0
   -5.7660   16.5790  -33.0800 C   0  0  0  0  0  0  0  0  0  0  0  0
   -6.5310   17.4530  -32.0880 C   0  0  0  0  0  0  0  0  0  0  0  0
   -7.3560   18.4480  -32.7810 N   0  0  0  0  0  0  0  0  0  0  0  0
   -7.4670   19.8150  -32.3450 C   0  0  0  0  0  0  0  0  0  0  0  0
   -8.7470   20.4210  -32.2960 C   0  0  0  0  0  0  0  0  0  0  0  0
   -8.8960   21.7610  -31.9000 C   0  0  0  0  0  0  0  0  0  0  0  0
   -7.7520   22.4680  -31.5470 C   0  0  0  0  0  0  0  0  0  0  0  0
   -7.6060   23.7790  -31.1550 C   0  0  0  0  0  0  0  0  0  0  0  0
   -6.2410   23.9500  -30.9350 C   0  0  0  0  0  0  0  0  0  0  0  0
   -5.6360   25.1940  -30.4110 C   0  0  0  0  0  0  0  0  0  0  0  0
   -4.2840   25.5360  -30.7200 N   0  0  0  0  0  0  0  0  0  0  0  0
   -6.3230   25.9850  -29.7130 O   0  0  0  0  0  0  0  0  0  0  0  0
   -5.5700   22.7890  -31.1790 N   0  0  0  0  0  0  0  0  0  0  0  0
   -4.1530   22.5710  -31.1110 C   0  0  0  0  0  0  0  0  0  0  0  0
   -3.4530   22.6770  -32.1530 O   0  0  0  0  0  0  0  0  0  0  0  0
   -3.5610   22.2710  -29.8770 O   0  0  0  0  0  0  0  0  0  0  0  0
   -2.6460   23.0930  -29.2040 C   0  0  0  0  0  0  0  0  0  0  0  0
   -2.4050   24.2590  -29.6200 O   0  0  0  0  0  0  0  0  0  0  0  0
   -1.9620   22.5890  -28.0440 N   0  0  0  0  0  0  0  0  0  0  0  0
   -2.2980   21.2580  -27.5380 C   0  0  0  0  0  0  0  0  0  0  0  0
   -0.9530   23.4180  -27.3750 C   0  0  0  0  0  0  0  0  0  0  0  0
   -6.5080   21.8920  -31.5580 C   0  0  0  0  0  0  0  0  0  0  0  0
   -6.3280   20.5680  -31.9680 C   0  0  0  0  0  0  0  0  0  0  0  0
   -4.2926   17.8188  -34.3404 H   0  0  0  0  0  0  0  0  0  0  0  0
   -4.5726   16.6846  -35.7049 H   0  0  0  0  0  0  0  0  0  0  0  0
   -5.3567   18.3008  -35.7049 H   0  0  0  0  0  0  0  0  0  0  0  0
   -6.0033   15.5209  -32.8951 H   0  0  0  0  0  0  0  0  0  0  0  0
   -4.6854   16.7406  -32.9529 H   0  0  0  0  0  0  0  0  0  0  0  0
   -7.1816   16.8130  -31.4740 H   0  0  0  0  0  0  0  0  0  0  0  0
   -5.8017   17.9840  -31.4586 H   0  0  0  0  0  0  0  0  0  0  0  0
   -7.8520   18.1700  -33.6590 H   0  0  0  0  0  0  0  0  0  0  0  0
   -9.6359   19.8346  -32.5717 H   0  0  0  0  0  0  0  0  0  0  0  0
   -9.8876   22.2362  -31.8702 H   0  0  0  0  0  0  0  0  0  0  0  0
   -8.3991   24.5324  -31.0398 H   0  0  0  0  0  0  0  0  0  0  0  0
   -3.8860   26.4430  -30.3920 H   0  0  0  0  0  0  0  0  0  0  0  0
   -3.6680   24.8860  -31.2550 H   0  0  0  0  0  0  0  0  0  0  0  0
   -2.2944   21.2722  -26.4381 H   0  0  0  0  0  0  0  0  0  0  0  0
   -3.2969   20.9704  -27.8977 H   0  0  0  0  0  0  0  0  0  0  0  0
   -1.5553   20.5307  -27.8977 H   0  0  0  0  0  0  0  0  0  0  0  0
   -1.0662   23.3250  -26.2848 H   0  0  0  0  0  0  0  0  0  0  0  0
    0.0520   23.0813  -27.6693 H   0  0  0  0  0  0  0  0  0  0  0  0
   -1.0883   24.4692  -27.6693 H   0  0  0  0  0  0  0  0  0  0  0  0
   -5.3236   20.1204  -31.9973 H   0  0  0  0  0  0  0  0  0  0  0  0
  1  2  1  0
  2  3  1  0
  3  4  1  0
  4  5  1  0
  5  6  1  0
  6  7  2  0
  7  8  1  0
  8  9  2  0
  9 10  1  0
 10 11  2  0
 11 12  1  0
 12 13  1  0
 12 14  2  0
 11 15  1  0
 15 16  1  0
 16 17  2  0
 16 18  1  0
 18 19  1  0
 19 20  2  0
 19 21  1  0
 21 22  1  0
 21 23  1  0
 15 24  1  0
 24 25  2  0
 25  6  1  0
 24  9  1  0
  1 26  1  0
  1 27  1  0
  1 28  1  0
  3 29  1  0
  3 30  1  0
  4 31  1  0
  4 32  1  0
  5 33  1  0
  7 34  1  0
  8 35  1  0
 10 36  1  0
 13 37  1  0
 13 38  1  0
 22 39  1  0
 22 40  1  0
 22 41  1  0
 23 42  1  0
 23 43  1  0
 23 44  1  0
 25 45  1  0
M  END
>  <UniqueID>  (52) 
52

>  <SMILES>  (52) 
COCCNc1ccc2cc(C(N)=O)n(C(=O)OC(=O)N(C)C)c2c1

>  <Energy>  (52) 
78.66933402856235

>  <Genealogy>  (52) 
COCCNc1ccc2cc(C(N)=O)n(C(=O)OC(=O)N(C)C)c2c1 (3D coordinates assigned)
COCCNc1ccc2cc(C(N)=O)n(C(=O)OC(=O)N(C)C)c2c1 (optimized conformer: 78.66933402856235 kcal/mol)

>  <smiles>  (52) 
COCCNc1ccc2cc(C(N)=O)n(C(=O)OC(=O)N(C)C)c2c1

>  <score_type>  (52) 
oracle

>  <origin>  (52) 
adg

>  <m_score__min__energy>  (52) 
-8.0199999999999996

>  <m_primary>  (52) 
energy

$$$$
53:0
     RDKit          3D

 39 40  0  0  0  0  0  0  0  0999 V2000
   -6.1270   17.1680  -33.2770 C   0  0  0  0  0  0  0  0  0  0  0  0
   -6.6740   18.3980  -33.8430 N   0  0  0  0  0  0  0  0  0  0  0  0
   -7.0190   19.5520  -33.0530 C   0  0  0  0  0  0  0  0  0  0  0  0
   -8.3840   19.8350  -32.8050 C   0  0  0  0  0  0  0  0  0  0  0  0
   -8.7630   20.9600  -32.0550 C   0  0  0  0  0  0  0  0  0  0  0  0
   -7.7550   21.7830  -31.5570 C   0  0  0  0  0  0  0  0  0  0  0  0
   -7.8460   22.9530  -30.8390 C   0  0  0  0  0  0  0  0  0  0  0  0
   -6.5300   23.3580  -30.6310 C   0  0  0  0  0  0  0  0  0  0  0  0
   -6.1630   24.5560  -29.8480 C   0  0  0  0  0  0  0  0  0  0  0  0
   -4.8300   24.7480  -29.3710 N   0  0  0  0  0  0  0  0  0  0  0  0
   -7.0520   25.3970  -29.5510 O   0  0  0  0  0  0  0  0  0  0  0  0
   -5.6590   22.4820  -31.2080 N   0  0  0  0  0  0  0  0  0  0  0  0
   -4.2320   22.6170  -31.3260 C   0  0  0  0  0  0  0  0  0  0  0  0
   -3.7220   23.7460  -31.5680 O   0  0  0  0  0  0  0  0  0  0  0  0
   -3.4150   21.4920  -31.1920 O   0  0  0  0  0  0  0  0  0  0  0  0
   -2.3250   21.4290  -30.2810 C   0  0  0  0  0  0  0  0  0  0  0  0
   -2.8550   21.4820  -28.8870 C   0  0  0  0  0  0  0  0  0  0  0  0
   -3.0880   20.4080  -28.2690 O   0  0  0  0  0  0  0  0  0  0  0  0
   -3.1250   22.7460  -28.2740 N   0  0  0  0  0  0  0  0  0  0  0  0
   -2.0880   23.5990  -27.7050 C   0  0  0  0  0  0  0  0  0  0  0  0
   -1.6040   24.5740  -28.7290 C   0  0  0  0  0  0  0  0  0  0  0  0
   -2.4240   25.3000  -29.3530 O   0  0  0  0  0  0  0  0  0  0  0  0
   -0.2410   24.7210  -28.9620 O   0  0  0  0  0  0  0  0  0  0  0  0
   -6.4270   21.5200  -31.7700 C   0  0  0  0  0  0  0  0  0  0  0  0
   -6.0230   20.4150  -32.5320 C   0  0  0  0  0  0  0  0  0  0  0  0
   -6.1530   17.2264  -32.1789 H   0  0  0  0  0  0  0  0  0  0  0  0
   -6.7286   16.3106  -33.6129 H   0  0  0  0  0  0  0  0  0  0  0  0
   -5.0873   17.0405  -33.6129 H   0  0  0  0  0  0  0  0  0  0  0  0
   -6.8430   18.4210  -34.8740 H   0  0  0  0  0  0  0  0  0  0  0  0
   -9.1584   19.1642  -33.2055 H   0  0  0  0  0  0  0  0  0  0  0  0
   -9.8232   21.1847  -31.8664 H   0  0  0  0  0  0  0  0  0  0  0  0
   -8.7620   23.4599  -30.5015 H   0  0  0  0  0  0  0  0  0  0  0  0
   -4.5800   25.6220  -28.8590 H   0  0  0  0  0  0  0  0  0  0  0  0
   -4.1130   23.9960  -29.4560 H   0  0  0  0  0  0  0  0  0  0  0  0
   -1.7729   20.4894  -30.4305 H   0  0  0  0  0  0  0  0  0  0  0  0
   -1.6461   22.2771  -30.4536 H   0  0  0  0  0  0  0  0  0  0  0  0
   -2.5002   24.1486  -26.8459 H   0  0  0  0  0  0  0  0  0  0  0  0
   -1.2452   22.9716  -27.3794 H   0  0  0  0  0  0  0  0  0  0  0  0
   -4.9567   20.2221  -32.7213 H   0  0  0  0  0  0  0  0  0  0  0  0
  1  2  1  0
  2  3  1  0
  3  4  2  0
  4  5  1  0
  5  6  2  0
  6  7  1  0
  7  8  2  0
  8  9  1  0
  9 10  1  0
  9 11  2  0
  8 12  1  0
 12 13  1  0
 13 14  2  0
 13 15  1  0
 15 16  1  0
 16 17  1  0
 17 18  2  0
 17 19  1  0
 19 20  1  0
 20 21  1  0
 21 22  2  0
 21 23  1  0
 12 24  1  0
 24 25  2  0
 25  3  1  0
 24  6  1  0
  1 26  1  0
  1 27  1  0
  1 28  1  0
  2 29  1  0
  4 30  1  0
  5 31  1  0
  7 32  1  0
 10 33  1  0
 10 34  1  0
 16 35  1  0
 16 36  1  0
 20 37  1  0
 20 38  1  0
 25 39  1  0
M  CHG  2  19  -1  23  -1
M  END
>  <UniqueID>  (53) 
53

>  <SMILES>  (53) 
CNc1ccc2cc(C(N)=O)n(C(=O)OCC(=O)[N-]CC(=O)[O-])c2c1

>  <Energy>  (53) 
70.55512744321783

>  <Genealogy>  (53) 
CNc1ccc2cc(C(N)=O)n(C(=O)OCC(=O)[N-]CC(=O)[O-])c2c1 (protonated)
CNc1ccc2cc(C(N)=O)n(C(=O)OCC(=O)[N-]CC(=O)[O-])c2c1 (3D coordinates assigned)
CNc1ccc2cc(C(N)=O)n(C(=O)OCC(=O)[N-]CC(=O)[O-])c2c1 (optimized conformer: 70.55512744321783 kcal/mol)

>  <smiles>  (53) 
CNc1ccc2cc(C(N)=O)n(C(=O)OCC(=O)NCC(=O)O)c2c1

>  <score_type>  (53) 
oracle

>  <origin>  (53) 
adg

>  <m_score__min__energy>  (53) 
-11.039999999999999

>  <m_primary>  (53) 
energy

$$$$
54:0
     RDKit          3D

 50 51  0  0  0  0  0  0  0  0999 V2000
   -6.7440   15.4970  -34.2310 C   0  0  0  0  0  0  0  0  0  0  0  0
   -6.0900   16.7480  -33.8420 N   0  0  0  0  0  0  0  0  0  0  0  0
   -6.1060   17.1860  -32.4410 C   0  0  0  0  0  0  0  0  0  0  0  0
   -7.3790   17.9900  -32.1490 C   0  0  0  0  0  0  0  0  0  0  0  0
   -7.6140   18.9950  -33.1960 N   0  0  0  0  0  0  0  0  0  0  0  0
   -7.6090   20.3160  -32.6180 C   0  0  0  0  0  0  0  0  0  0  0  0
   -8.8260   20.9210  -32.2090 C   0  0  0  0  0  0  0  0  0  0  0  0
   -8.8300   22.1880  -31.6040 C   0  0  0  0  0  0  0  0  0  0  0  0
   -7.6070   22.8260  -31.4200 C   0  0  0  0  0  0  0  0  0  0  0  0
   -7.3210   24.0360  -30.8300 C   0  0  0  0  0  0  0  0  0  0  0  0
   -5.9360   24.1610  -30.8960 C   0  0  0  0  0  0  0  0  0  0  0  0
   -5.2050   25.3630  -30.4420 C   0  0  0  0  0  0  0  0  0  0  0  0
   -3.8730   25.6200  -30.8780 N   0  0  0  0  0  0  0  0  0  0  0  0
   -5.7820   26.1990  -29.6960 O   0  0  0  0  0  0  0  0  0  0  0  0
   -5.3840   23.0690  -31.4960 N   0  0  0  0  0  0  0  0  0  0  0  0
   -3.9900   22.7670  -31.6580 C   0  0  0  0  0  0  0  0  0  0  0  0
   -3.1580   23.1800  -30.8060 O   0  0  0  0  0  0  0  0  0  0  0  0
   -3.5700   22.0360  -32.7800 O   0  0  0  0  0  0  0  0  0  0  0  0
   -2.7230   20.8770  -32.7730 C   0  0  0  0  0  0  0  0  0  0  0  0
   -3.4560   19.7770  -33.5550 C   0  0  0  0  0  0  0  0  0  0  0  0
   -1.3850   21.1810  -33.4740 C   0  0  0  0  0  0  0  0  0  0  0  0
   -2.4820   20.3870  -31.3310 C   0  0  0  0  0  0  0  0  0  0  0  0
   -6.4210   22.2620  -31.8140 C   0  0  0  0  0  0  0  0  0  0  0  0
   -6.3860   20.9920  -32.4020 C   0  0  0  0  0  0  0  0  0  0  0  0
   -5.4430   17.5440  -34.8520 C   0  0  0  0  0  0  0  0  0  0  0  0
   -4.3380   17.1870  -35.3410 O   0  0  0  0  0  0  0  0  0  0  0  0
   -6.0320   18.7200  -35.3030 O   0  0  0  0  0  0  0  0  0  0  0  0
   -7.0354   14.9396  -33.3286 H   0  0  0  0  0  0  0  0  0  0  0  0
   -7.6399   15.7219  -34.8283 H   0  0  0  0  0  0  0  0  0  0  0  0
   -6.0480   14.8897  -34.8283 H   0  0  0  0  0  0  0  0  0  0  0  0
   -6.0755   16.3038  -31.7847 H   0  0  0  0  0  0  0  0  0  0  0  0
   -5.2294   17.8242  -32.2557 H   0  0  0  0  0  0  0  0  0  0  0  0
   -8.2377   17.3036  -32.1088 H   0  0  0  0  0  0  0  0  0  0  0  0
   -7.2562   18.5068  -31.1857 H   0  0  0  0  0  0  0  0  0  0  0  0
   -6.8650   18.9280  -33.9260 H   0  0  0  0  0  0  0  0  0  0  0  0
   -8.5350   18.8150  -33.6590 H   0  0  0  0  0  0  0  0  0  0  0  0
   -9.7769   20.3913  -32.3678 H   0  0  0  0  0  0  0  0  0  0  0  0
   -9.7704   22.6615  -31.2854 H   0  0  0  0  0  0  0  0  0  0  0  0
   -8.0352   24.7524  -30.3979 H   0  0  0  0  0  0  0  0  0  0  0  0
   -3.0530   25.2810  -30.3300 H   0  0  0  0  0  0  0  0  0  0  0  0
   -3.9238   19.0750  -32.8491 H   0  0  0  0  0  0  0  0  0  0  0  0
   -4.2320   20.2321  -34.1880 H   0  0  0  0  0  0  0  0  0  0  0  0
   -2.7372   19.2361  -34.1880 H   0  0  0  0  0  0  0  0  0  0  0  0
   -0.6065   21.3579  -32.7173 H   0  0  0  0  0  0  0  0  0  0  0  0
   -1.0977   20.3253  -34.1026 H   0  0  0  0  0  0  0  0  0  0  0  0
   -1.4956   22.0769  -34.1026 H   0  0  0  0  0  0  0  0  0  0  0  0
   -2.8527   21.1408  -30.6208 H   0  0  0  0  0  0  0  0  0  0  0  0
   -3.0166   19.4389  -31.1717 H   0  0  0  0  0  0  0  0  0  0  0  0
   -1.4047   20.2317  -31.1717 H   0  0  0  0  0  0  0  0  0  0  0  0
   -5.4295   20.5308  -32.6892 H   0  0  0  0  0  0  0  0  0  0  0  0
  1  2  1  0
  2  3  1  0
  3  4  1  0
  4  5  1  0
  5  6  1  0
  6  7  2  0
  7  8  1  0
  8  9  2  0
  9 10  1  0
 10 11  2  0
 11 12  1  0
 12 13  1  0
 12 14  2  0
 11 15  1  0
 15 16  1  0
 16 17  2  0
 16 18  1  0
 18 19  1  0
 19 20  1  0
 19 21  1  0
 19 22  1  0
 15 23  1  0
 23 24  2  0
  2 25  1  0
 25 26  2  0
 25 27  1  0
 24  6  1  0
 23  9  1  0
  1 28  1  0
  1 29  1  0
  1 30  1  0
  3 31  1  0
  3 32  1  0
  4 33  1  0
  4 34  1  0
  5 35  1  0
  5 36  1  0
  7 37  1  0
  8 38  1  0
 10 39  1  0
 13 40  1  0
 20 41  1  0
 20 42  1  0
 20 43  1  0
 21 44  1  0
 21 45  1  0
 21 46  1  0
 22 47  1  0
 22 48  1  0
 22 49  1  0
 24 50  1  0
M  CHG  3   5   1  13  -1  27  -1
M  END
>  <UniqueID>  (54) 
54

>  <SMILES>  (54) 
CN(CC[NH2+]c1ccc2cc(C([NH-])=O)n(C(=O)OC(C)(C)C)c2c1)C(=O)[O-]

>  <Energy>  (54) 
79.28200625134942

>  <Genealogy>  (54) 
CN(CC[NH2+]c1ccc2cc(C([NH-])=O)n(C(=O)OC(C)(C)C)c2c1)C(=O)[O-] (protonated)
CN(CC[NH2+]c1ccc2cc(C([NH-])=O)n(C(=O)OC(C)(C)C)c2c1)C(=O)[O-] (3D coordinates assigned)
CN(CC[NH2+]c1ccc2cc(C([NH-])=O)n(C(=O)OC(C)(C)C)c2c1)C(=O)[O-] (optimized conformer: 79.28200625134942 kcal/mol)

>  <smiles>  (54) 
CN(CCNc1ccc2cc(C(N)=O)n(C(=O)OC(C)(C)C)c2c1)C(=O)O

>  <score_type>  (54) 
oracle

>  <origin>  (54) 
adg

>  <m_score__min__energy>  (54) 
-10.26

>  <m_primary>  (54) 
energy

$$$$
55:0
     RDKit          3D

 35 36  0  0  0  0  0  0  0  0999 V2000
   -3.9990   25.6740  -30.6110 N   0  0  0  0  0  0  0  0  0  0  0  0
   -5.3510   25.2920  -30.3740 C   0  0  0  0  0  0  0  0  0  0  0  0
   -6.1340   26.1080  -29.8220 O   0  0  0  0  0  0  0  0  0  0  0  0
   -5.8590   23.9750  -30.8170 C   0  0  0  0  0  0  0  0  0  0  0  0
   -7.2000   23.7300  -31.1050 C   0  0  0  0  0  0  0  0  0  0  0  0
   -7.2430   22.4340  -31.5650 C   0  0  0  0  0  0  0  0  0  0  0  0
   -8.3270   21.6680  -31.9870 C   0  0  0  0  0  0  0  0  0  0  0  0
   -8.0820   20.3430  -32.3860 C   0  0  0  0  0  0  0  0  0  0  0  0
   -6.7700   19.8160  -32.3480 C   0  0  0  0  0  0  0  0  0  0  0  0
   -6.5340   18.4530  -32.7480 C   0  0  0  0  0  0  0  0  0  0  0  0
   -6.3350   17.3120  -33.0810 C   0  0  0  0  0  0  0  0  0  0  0  0
   -6.0930   15.9240  -33.4850 C   0  0  0  0  0  0  0  0  0  0  0  0
   -7.1800   15.4430  -34.2260 O   0  0  0  0  0  0  0  0  0  0  0  0
   -5.6940   20.6160  -31.9160 C   0  0  0  0  0  0  0  0  0  0  0  0
   -5.9640   21.9370  -31.5410 C   0  0  0  0  0  0  0  0  0  0  0  0
   -5.1030   22.8710  -31.0800 N   0  0  0  0  0  0  0  0  0  0  0  0
   -3.6980   22.6880  -30.8460 C   0  0  0  0  0  0  0  0  0  0  0  0
   -2.8720   22.9150  -31.7710 O   0  0  0  0  0  0  0  0  0  0  0  0
   -3.2540   22.2910  -29.5800 O   0  0  0  0  0  0  0  0  0  0  0  0
   -3.4410   23.0640  -28.3950 C   0  0  0  0  0  0  0  0  0  0  0  0
   -2.2570   23.9990  -28.1650 C   0  0  0  0  0  0  0  0  0  0  0  0
   -1.9260   24.6660  -29.3510 O   0  0  0  0  0  0  0  0  0  0  0  0
   -3.2840   24.9700  -30.9010 H   0  0  0  0  0  0  0  0  0  0  0  0
   -8.0448   24.4250  -30.9892 H   0  0  0  0  0  0  0  0  0  0  0  0
   -9.3437   22.0873  -32.0073 H   0  0  0  0  0  0  0  0  0  0  0  0
   -8.9151   19.7123  -32.7297 H   0  0  0  0  0  0  0  0  0  0  0  0
   -5.1832   15.8776  -34.1015 H   0  0  0  0  0  0  0  0  0  0  0  0
   -5.9670   15.3035  -32.5855 H   0  0  0  0  0  0  0  0  0  0  0  0
   -7.1900   15.9520  -35.0790 H   0  0  0  0  0  0  0  0  0  0  0  0
   -4.6710   20.2139  -31.8746 H   0  0  0  0  0  0  0  0  0  0  0  0
   -4.3586   23.6622  -28.4958 H   0  0  0  0  0  0  0  0  0  0  0  0
   -3.5219   22.3801  -27.5372 H   0  0  0  0  0  0  0  0  0  0  0  0
   -2.5229   24.7383  -27.3951 H   0  0  0  0  0  0  0  0  0  0  0  0
   -1.3916   23.4055  -27.8352 H   0  0  0  0  0  0  0  0  0  0  0  0
   -2.4740   24.2470  -30.0640 H   0  0  0  0  0  0  0  0  0  0  0  0
  1  2  1  0
  2  3  2  0
  2  4  1  0
  4  5  2  0
  5  6  1  0
  6  7  2  0
  7  8  1  0
  8  9  2  0
  9 10  1  0
 10 11  3  0
 11 12  1  0
 12 13  1  0
  9 14  1  0
 14 15  2  0
 15 16  1  0
 16 17  1  0
 17 18  2  0
 17 19  1  0
 19 20  1  0
 20 21  1  0
 21 22  1  0
 16  4  1  0
 15  6  1  0
  1 23  1  0
  5 24  1  0
  7 25  1  0
  8 26  1  0
 12 27  1  0
 12 28  1  0
 13 29  1  0
 14 30  1  0
 20 31  1  0
 20 32  1  0
 21 33  1  0
 21 34  1  0
 22 35  1  0
M  CHG  1   1  -1
M  END
>  <UniqueID>  (55) 
55

>  <SMILES>  (55) 
[NH-]C(=O)c1cc2ccc(C#CCO)cc2n1C(=O)OCCO

>  <Energy>  (55) 
66.15997389155554

>  <Genealogy>  (55) 
[NH-]C(=O)c1cc2ccc(C#CCO)cc2n1C(=O)OCCO (protonated)
[NH-]C(=O)c1cc2ccc(C#CCO)cc2n1C(=O)OCCO (3D coordinates assigned)
[NH-]C(=O)c1cc2ccc(C#CCO)cc2n1C(=O)OCCO (optimized conformer: 66.15997389155554 kcal/mol)

>  <smiles>  (55) 
NC(=O)c1cc2ccc(C#CCO)cc2n1C(=O)OCCO

>  <score_type>  (55) 
oracle

>  <origin>  (55) 
adg

>  <m_score__min__energy>  (55) 
-10.19

>  <m_primary>  (55) 
energy

$$$$
56:0
     RDKit          3D

 37 40  0  0  0  0  0  0  0  0999 V2000
   -1.2350   25.8370  -28.8460 N   0  0  0  0  0  0  0  0  0  0  0  0
   -0.6100   24.5610  -28.9840 C   0  0  0  0  0  0  0  0  0  0  0  0
    0.5660   24.4000  -28.5620 O   0  0  0  0  0  0  0  0  0  0  0  0
   -1.2920   23.4460  -29.6700 C   0  0  0  0  0  0  0  0  0  0  0  0
   -0.6410   22.2850  -30.0760 C   0  0  0  0  0  0  0  0  0  0  0  0
   -1.6000   21.5380  -30.7200 C   0  0  0  0  0  0  0  0  0  0  0  0
   -1.5050   20.2820  -31.3090 C   0  0  0  0  0  0  0  0  0  0  0  0
   -2.6670   19.7270  -31.8690 C   0  0  0  0  0  0  0  0  0  0  0  0
   -3.9030   20.4230  -31.8220 C   0  0  0  0  0  0  0  0  0  0  0  0
   -5.0870   19.8290  -32.3910 N   0  0  0  0  0  0  0  0  0  0  0  0
   -6.1740   20.5720  -33.0280 C   0  0  0  0  0  0  0  0  0  0  0  0
   -6.8790   19.4570  -33.8140 C   0  0  2  0  0  0  0  0  0  0  0  0
   -6.7530   18.2970  -32.8520 C   0  0  0  0  0  0  0  0  0  0  0  0
   -5.2570   18.4280  -32.7830 C   0  0  1  0  0  0  0  0  0  0  0  0
   -4.9150   18.3340  -34.2730 C   0  0  0  0  0  0  0  0  0  0  0  0
   -6.0000   19.0820  -34.9360 N   0  0  0  0  0  0  0  0  0  0  0  0
   -3.9560   21.7000  -31.2110 C   0  0  0  0  0  0  0  0  0  0  0  0
   -2.7770   22.2390  -30.6820 C   0  0  0  0  0  0  0  0  0  0  0  0
   -2.6060   23.4150  -30.0350 N   0  0  0  0  0  0  0  0  0  0  0  0
   -3.6280   24.3690  -29.7010 C   0  0  0  0  0  0  0  0  0  0  0  0
   -4.3230   24.2180  -28.6610 O   0  0  0  0  0  0  0  0  0  0  0  0
   -3.8630   25.4660  -30.5200 O   0  0  0  0  0  0  0  0  0  0  0  0
   -0.7530   26.6030  -28.3250 H   0  0  0  0  0  0  0  0  0  0  0  0
   -2.1330   26.0540  -29.3320 H   0  0  0  0  0  0  0  0  0  0  0  0
    0.4148   22.0210  -29.9161 H   0  0  0  0  0  0  0  0  0  0  0  0
   -0.5484   19.7395  -31.3355 H   0  0  0  0  0  0  0  0  0  0  0  0
   -2.6186   18.7393  -32.3507 H   0  0  0  0  0  0  0  0  0  0  0  0
   -6.8439   21.0245  -32.2820 H   0  0  0  0  0  0  0  0  0  0  0  0
   -5.8399   21.4179  -33.6468 H   0  0  0  0  0  0  0  0  0  0  0  0
   -7.8905   19.7194  -34.1575 H   0  0  0  0  0  0  0  0  0  0  0  0
   -7.2536   18.4701  -31.8879 H   0  0  0  0  0  0  0  0  0  0  0  0
   -7.1913   17.3262  -33.1267 H   0  0  0  0  0  0  0  0  0  0  0  0
   -4.6949   17.7355  -32.1392 H   0  0  0  0  0  0  0  0  0  0  0  0
   -3.9384   18.7960  -34.4799 H   0  0  0  0  0  0  0  0  0  0  0  0
   -4.8404   17.2947  -34.6255 H   0  0  0  0  0  0  0  0  0  0  0  0
   -6.5290   18.4290  -35.5610 H   0  0  0  0  0  0  0  0  0  0  0  0
   -4.9032   22.2563  -31.1534 H   0  0  0  0  0  0  0  0  0  0  0  0
  1  2  1  0
  2  3  2  0
  2  4  1  0
  4  5  2  0
  5  6  1  0
  6  7  2  0
  7  8  1  0
  8  9  2  0
  9 10  1  0
 10 11  1  0
 11 12  1  0
 12 13  1  0
 13 14  1  0
 14 15  1  0
 15 16  1  0
  9 17  1  0
 17 18  2  0
 18 19  1  0
 19 20  1  0
 20 21  2  0
 20 22  1  0
 19  4  1  0
 18  6  1  0
 14 10  1  0
 16 12  1  0
  1 23  1  0
  1 24  1  0
  5 25  1  0
  7 26  1  0
  8 27  1  0
 11 28  1  0
 11 29  1  0
 12 30  1  6
 13 31  1  0
 13 32  1  0
 14 33  1  1
 15 34  1  0
 15 35  1  0
 16 36  1  0
 17 37  1  0
M  CHG  1  22  -1
M  END
>  <UniqueID>  (56) 
56

>  <SMILES>  (56) 
NC(=O)c1cc2ccc(N3C[C@@H]4C[C@H]3CN4)cc2n1C(=O)[O-]

>  <Energy>  (56) 
112.48258415512984

>  <Genealogy>  (56) 
NC(=O)c1cc2ccc(N3CC4CC3CN4)cc2n1C(=O)[O-] (protonated)
NC(=O)c1cc2ccc(N3C[C@@H]4C[C@H]3CN4)cc2n1C(=O)[O-] (chirality)
NC(=O)c1cc2ccc(N3C[C@@H]4C[C@H]3CN4)cc2n1C(=O)[O-] (3D coordinates assigned)
NC(=O)c1cc2ccc(N3C[C@@H]4C[C@H]3CN4)cc2n1C(=O)[O-] (nonaromatic ring conformer: 112.48258415512984 kcal/mol)

>  <smiles>  (56) 
NC(=O)c1cc2ccc(N3CC4CC3CN4)cc2n1C(=O)O

>  <score_type>  (56) 
oracle

>  <origin>  (56) 
adg

>  <m_score__min__energy>  (56) 
-9.3599999999999994

>  <m_primary>  (56) 
energy

$$$$
57:0
     RDKit          3D

 41 42  0  0  0  0  0  0  0  0999 V2000
   -5.7180   18.4740  -34.7200 C   0  0  0  0  0  0  0  0  0  0  0  0
   -6.5660   18.2340  -33.4750 C   0  0  0  0  0  0  0  0  0  0  0  0
   -6.8640   19.5340  -32.7770 C   0  0  0  0  0  0  0  0  0  0  0  0
   -8.2000   19.8760  -32.4520 C   0  0  0  0  0  0  0  0  0  0  0  0
   -8.4910   21.0960  -31.8170 C   0  0  0  0  0  0  0  0  0  0  0  0
   -7.4330   21.9540  -31.5350 C   0  0  0  0  0  0  0  0  0  0  0  0
   -7.4290   23.1800  -30.9120 C   0  0  0  0  0  0  0  0  0  0  0  0
   -6.0940   23.5830  -30.8950 C   0  0  0  0  0  0  0  0  0  0  0  0
   -5.6330   24.8980  -30.3950 C   0  0  0  0  0  0  0  0  0  0  0  0
   -5.9490   25.3280  -29.0700 N   0  0  0  0  0  0  0  0  0  0  0  0
   -4.9770   25.6660  -31.1490 O   0  0  0  0  0  0  0  0  0  0  0  0
   -5.3040   22.6400  -31.4830 N   0  0  0  0  0  0  0  0  0  0  0  0
   -3.8740   22.6460  -31.6010 C   0  0  0  0  0  0  0  0  0  0  0  0
   -3.3050   21.8240  -32.3680 O   0  0  0  0  0  0  0  0  0  0  0  0
   -3.0990   23.5710  -30.8260 N   0  0  0  0  0  0  0  0  0  0  0  0
   -2.3820   23.2660  -29.5860 C   0  0  2  0  0  0  0  0  0  0  0  0
   -1.4640   24.4030  -29.2250 C   0  0  0  0  0  0  0  0  0  0  0  0
   -0.2150   24.2440  -29.1940 O   0  0  0  0  0  0  0  0  0  0  0  0
   -1.9960   25.6620  -28.9750 O   0  0  0  0  0  0  0  0  0  0  0  0
   -1.6470   21.9020  -29.6710 C   0  0  2  0  0  0  0  0  0  0  0  0
   -0.7100   21.6820  -28.4760 C   0  0  0  0  0  0  0  0  0  0  0  0
   -0.9230   21.8030  -30.8720 O   0  0  0  0  0  0  0  0  0  0  0  0
   -6.1380   21.6490  -31.8690 C   0  0  0  0  0  0  0  0  0  0  0  0
   -5.8160   20.4360  -32.4860 C   0  0  0  0  0  0  0  0  0  0  0  0
   -4.6997   18.7622  -34.4201 H   0  0  0  0  0  0  0  0  0  0  0  0
   -5.6768   17.5522  -35.3189 H   0  0  0  0  0  0  0  0  0  0  0  0
   -6.1660   19.2806  -35.3189 H   0  0  0  0  0  0  0  0  0  0  0  0
   -7.5124   17.7565  -33.7689 H   0  0  0  0  0  0  0  0  0  0  0  0
   -6.0080   17.5822  -32.7867 H   0  0  0  0  0  0  0  0  0  0  0  0
   -9.0163   19.1811  -32.6986 H   0  0  0  0  0  0  0  0  0  0  0  0
   -9.5242   21.3641  -31.5511 H   0  0  0  0  0  0  0  0  0  0  0  0
   -8.2954   23.7270  -30.5118 H   0  0  0  0  0  0  0  0  0  0  0  0
   -5.6510   26.2720  -28.7410 H   0  0  0  0  0  0  0  0  0  0  0  0
   -6.4400   24.6970  -28.3980 H   0  0  0  0  0  0  0  0  0  0  0  0
   -3.1135   23.1618  -28.7711 H   0  0  0  0  0  0  0  0  0  0  0  0
   -2.4168   21.1166  -29.6465 H   0  0  0  0  0  0  0  0  0  0  0  0
   -1.2724   21.8140  -27.5399 H   0  0  0  0  0  0  0  0  0  0  0  0
   -0.2982   20.6627  -28.5157 H   0  0  0  0  0  0  0  0  0  0  0  0
    0.1124   22.4115  -28.5157 H   0  0  0  0  0  0  0  0  0  0  0  0
   -1.3860   22.3620  -31.5510 H   0  0  0  0  0  0  0  0  0  0  0  0
   -4.7739   20.1904  -32.7382 H   0  0  0  0  0  0  0  0  0  0  0  0
  1  2  1  0
  2  3  1  0
  3  4  2  0
  4  5  1  0
  5  6  2  0
  6  7  1  0
  7  8  2  0
  8  9  1  0
  9 10  1  0
  9 11  2  0
  8 12  1  0
 12 13  1  0
 13 14  2  0
 13 15  1  0
 15 16  1  0
 16 17  1  0
 17 18  2  0
 17 19  1  0
 16 20  1  0
 20 21  1  0
 20 22  1  0
 12 23  1  0
 23 24  2  0
 24  3  1  0
 23  6  1  0
  1 25  1  0
  1 26  1  0
  1 27  1  0
  2 28  1  0
  2 29  1  0
  4 30  1  0
  5 31  1  0
  7 32  1  0
 10 33  1  0
 10 34  1  0
 16 35  1  1
 20 36  1  6
 21 37  1  0
 21 38  1  0
 21 39  1  0
 22 40  1  0
 24 41  1  0
M  CHG  2  15  -1  19  -1
M  END
>  <UniqueID>  (57) 
57

>  <SMILES>  (57) 
CCc1ccc2cc(C(N)=O)n(C(=O)[N-][C@H](C(=O)[O-])[C@H](C)O)c2c1

>  <Energy>  (57) 
73.61082090113081

>  <Genealogy>  (57) 
CCc1ccc2cc(C(N)=O)n(C(=O)[N-]C(C(=O)[O-])C(C)O)c2c1 (protonated)
CCc1ccc2cc(C(N)=O)n(C(=O)[N-][C@H](C(=O)[O-])[C@H](C)O)c2c1 (chirality)
CCc1ccc2cc(C(N)=O)n(C(=O)[N-][C@H](C(=O)[O-])[C@H](C)O)c2c1 (3D coordinates assigned)
CCc1ccc2cc(C(N)=O)n(C(=O)[N-][C@H](C(=O)[O-])[C@H](C)O)c2c1 (optimized conformer: 73.61082090113081 kcal/mol)

>  <smiles>  (57) 
CCc1ccc2cc(C(N)=O)n(C(=O)NC(C(=O)O)C(C)O)c2c1

>  <score_type>  (57) 
oracle

>  <origin>  (57) 
adg

>  <m_score__min__energy>  (57) 
-11.34

>  <m_primary>  (57) 
energy

$$$$
58:0
     RDKit          3D

 38 39  0  0  0  0  0  0  0  0999 V2000
   -6.1510   17.2170  -31.3580 C   0  0  0  0  0  0  0  0  0  0  0  0
   -6.4460   18.1070  -32.4870 N   0  0  0  0  0  0  0  0  0  0  0  0
   -6.4320   17.5730  -33.8580 C   0  0  0  0  0  0  0  0  0  0  0  0
   -5.1810   17.9890  -34.5650 C   0  0  0  0  0  0  0  0  0  0  0  0
   -4.9080   17.5210  -35.7010 O   0  0  0  0  0  0  0  0  0  0  0  0
   -4.2930   18.8610  -33.9470 O   0  0  0  0  0  0  0  0  0  0  0  0
   -6.7840   19.4890  -32.2320 C   0  0  0  0  0  0  0  0  0  0  0  0
   -8.1020   19.9670  -32.4660 C   0  0  0  0  0  0  0  0  0  0  0  0
   -8.4410   21.3060  -32.2080 C   0  0  0  0  0  0  0  0  0  0  0  0
   -7.4450   22.1500  -31.7280 C   0  0  0  0  0  0  0  0  0  0  0  0
   -7.5040   23.4770  -31.3680 C   0  0  0  0  0  0  0  0  0  0  0  0
   -6.2200   23.8010  -30.9340 C   0  0  0  0  0  0  0  0  0  0  0  0
   -5.8230   25.1490  -30.4750 C   0  0  0  0  0  0  0  0  0  0  0  0
   -4.5440   25.6700  -30.8290 N   0  0  0  0  0  0  0  0  0  0  0  0
   -6.5980   25.8450  -29.7660 O   0  0  0  0  0  0  0  0  0  0  0  0
   -5.3990   22.7170  -31.0310 N   0  0  0  0  0  0  0  0  0  0  0  0
   -4.0110   22.6320  -30.6750 C   0  0  0  0  0  0  0  0  0  0  0  0
   -3.1540   22.3690  -31.5620 O   0  0  0  0  0  0  0  0  0  0  0  0
   -3.5760   22.7940  -29.2520 C   0  0  0  0  0  0  0  0  0  0  0  0
   -1.9640   23.6290  -29.1880 P   0  0  2  0  0  0  0  0  0  0  0  0
   -1.3070   23.3500  -27.8550 O   0  0  0  0  0  0  0  0  0  0  0  0
   -2.1790   25.2970  -29.3670 O   0  0  0  0  0  0  0  0  0  0  0  0
   -0.9790   23.0460  -30.4340 O   0  0  0  0  0  0  0  0  0  0  0  0
   -6.1650   21.7140  -31.5130 C   0  0  0  0  0  0  0  0  0  0  0  0
   -5.8030   20.3830  -31.7410 C   0  0  0  0  0  0  0  0  0  0  0  0
   -6.3283   17.7520  -30.4133 H   0  0  0  0  0  0  0  0  0  0  0  0
   -6.8043   16.3334  -31.4072 H   0  0  0  0  0  0  0  0  0  0  0  0
   -5.0993   16.8986  -31.4072 H   0  0  0  0  0  0  0  0  0  0  0  0
   -6.4791   16.4747  -33.8200 H   0  0  0  0  0  0  0  0  0  0  0  0
   -7.3004   17.9690  -34.4049 H   0  0  0  0  0  0  0  0  0  0  0  0
   -8.8673   19.2790  -32.8545 H   0  0  0  0  0  0  0  0  0  0  0  0
   -9.4627   21.6754  -32.3803 H   0  0  0  0  0  0  0  0  0  0  0  0
   -8.3795   24.1414  -31.4133 H   0  0  0  0  0  0  0  0  0  0  0  0
   -3.9030   26.0560  -30.0990 H   0  0  0  0  0  0  0  0  0  0  0  0
   -4.3201   23.3959  -28.7096 H   0  0  0  0  0  0  0  0  0  0  0  0
   -3.4881   21.8017  -28.7855 H   0  0  0  0  0  0  0  0  0  0  0  0
   -1.6020   22.5920  -31.0580 H   0  0  0  0  0  0  0  0  0  0  0  0
   -4.7774   20.0380  -31.5429 H   0  0  0  0  0  0  0  0  0  0  0  0
  1  2  1  0
  2  3  1  0
  3  4  1  0
  4  5  2  0
  4  6  1  0
  2  7  1  0
  7  8  2  0
  8  9  1  0
  9 10  2  0
 10 11  1  0
 11 12  2  0
 12 13  1  0
 13 14  1  0
 13 15  2  0
 12 16  1  0
 16 17  1  0
 17 18  2  0
 17 19  1  0
 19 20  1  0
 20 21  2  0
 20 22  1  6
 20 23  1  0
 16 24  1  0
 24 25  2  0
 25  7  1  0
 24 10  1  0
  1 26  1  0
  1 27  1  0
  1 28  1  0
  3 29  1  0
  3 30  1  0
  8 31  1  0
  9 32  1  0
 11 33  1  0
 14 34  1  0
 19 35  1  0
 19 36  1  0
 23 37  1  0
 25 38  1  0
M  CHG  3   6  -1  14  -1  22  -1
M  END
>  <UniqueID>  (58) 
58

>  <SMILES>  (58) 
CN(CC(=O)[O-])c1ccc2cc(C([NH-])=O)n(C(=O)C[P@](=O)([O-])O)c2c1

>  <Energy>  (58) 
72.5677606774137

>  <Genealogy>  (58) 
CN(CC(=O)[O-])c1ccc2cc(C([NH-])=O)n(C(=O)CP(=O)([O-])O)c2c1 (protonated)
CN(CC(=O)[O-])c1ccc2cc(C([NH-])=O)n(C(=O)C[P@](=O)([O-])O)c2c1 (chirality)
CN(CC(=O)[O-])c1ccc2cc(C([NH-])=O)n(C(=O)C[P@](=O)([O-])O)c2c1 (3D coordinates assigned)
CN(CC(=O)[O-])c1ccc2cc(C([NH-])=O)n(C(=O)C[P@](=O)([O-])O)c2c1 (optimized conformer: 72.5677606774137 kcal/mol)

>  <smiles>  (58) 
CN(CC(=O)O)c1ccc2cc(C(N)=O)n(C(=O)CP(=O)(O)O)c2c1

>  <score_type>  (58) 
oracle

>  <origin>  (58) 
adg

>  <m_score__min__energy>  (58) 
-11.94

>  <m_primary>  (58) 
energy

$$$$
59:0
     RDKit          3D

 49 52  0  0  0  0  0  0  0  0999 V2000
   -4.2400   25.9480  -30.4770 N   0  0  0  0  0  0  0  0  0  0  0  0
   -5.5080   25.3600  -30.1950 C   0  0  0  0  0  0  0  0  0  0  0  0
   -6.2800   25.9250  -29.3750 O   0  0  0  0  0  0  0  0  0  0  0  0
   -5.9020   24.0730  -30.8040 C   0  0  0  0  0  0  0  0  0  0  0  0
   -7.1840   23.8130  -31.2840 C   0  0  0  0  0  0  0  0  0  0  0  0
   -7.1630   22.4950  -31.6830 C   0  0  0  0  0  0  0  0  0  0  0  0
   -8.1660   21.7170  -32.2520 C   0  0  0  0  0  0  0  0  0  0  0  0
   -7.8550   20.3920  -32.5970 C   0  0  0  0  0  0  0  0  0  0  0  0
   -6.5530   19.8690  -32.3790 C   0  0  0  0  0  0  0  0  0  0  0  0
   -6.2320   18.4710  -32.7600 C   0  0  0  0  0  0  0  0  0  0  0  0
   -5.7420   17.5630  -31.8060 C   0  0  0  0  0  0  0  0  0  0  0  0
   -5.4430   16.2460  -32.1650 C   0  0  0  0  0  0  0  0  0  0  0  0
   -5.6260   15.8050  -33.4880 C   0  0  0  0  0  0  0  0  0  0  0  0
   -5.3100   14.4070  -33.8680 C   0  0  0  0  0  0  0  0  0  0  0  0
   -6.0890   13.7810  -34.6350 O   0  0  0  0  0  0  0  0  0  0  0  0
   -4.1190   13.7810  -33.3570 N   0  0  0  0  0  0  0  0  0  0  0  0
   -3.9170   12.8490  -32.2370 C   0  0  0  0  0  0  0  0  0  0  0  0
   -5.1700   12.2280  -31.6430 C   0  0  0  0  0  0  0  0  0  0  0  0
   -4.4100   13.3110  -30.8780 C   0  0  0  0  0  0  0  0  0  0  0  0
   -6.1170   16.7130  -34.4430 C   0  0  0  0  0  0  0  0  0  0  0  0
   -6.4160   18.0300  -34.0820 C   0  0  0  0  0  0  0  0  0  0  0  0
   -5.5610   20.6950  -31.7980 C   0  0  0  0  0  0  0  0  0  0  0  0
   -5.9060   22.0060  -31.4470 C   0  0  0  0  0  0  0  0  0  0  0  0
   -5.1170   22.9630  -30.9090 N   0  0  0  0  0  0  0  0  0  0  0  0
   -3.7160   22.8480  -30.6170 C   0  0  0  0  0  0  0  0  0  0  0  0
   -2.8720   22.9140  -31.5530 O   0  0  0  0  0  0  0  0  0  0  0  0
   -3.2960   22.6810  -29.2930 O   0  0  0  0  0  0  0  0  0  0  0  0
   -3.5680   23.6230  -28.2570 C   0  0  0  0  0  0  0  0  0  0  0  0
   -2.4210   24.6190  -28.1130 C   0  0  0  0  0  0  0  0  0  0  0  0
   -2.0460   25.0960  -29.3760 O   0  0  0  0  0  0  0  0  0  0  0  0
   -3.4620   25.3780  -30.8770 H   0  0  0  0  0  0  0  0  0  0  0  0
   -8.0322   24.5116  -31.3337 H   0  0  0  0  0  0  0  0  0  0  0  0
   -9.1717   22.1272  -32.4263 H   0  0  0  0  0  0  0  0  0  0  0  0
   -8.6301   19.7507  -33.0420 H   0  0  0  0  0  0  0  0  0  0  0  0
   -5.5924   17.8920  -30.7671 H   0  0  0  0  0  0  0  0  0  0  0  0
   -5.0609   15.5477  -31.4058 H   0  0  0  0  0  0  0  0  0  0  0  0
   -2.9652   12.4575  -32.6253 H   0  0  0  0  0  0  0  0  0  0  0  0
   -6.1549   12.4503  -32.0795 H   0  0  0  0  0  0  0  0  0  0  0  0
   -5.5014   11.2031  -31.4199 H   0  0  0  0  0  0  0  0  0  0  0  0
   -4.8477   14.3136  -30.7629 H   0  0  0  0  0  0  0  0  0  0  0  0
   -3.9667   13.3900  -29.8744 H   0  0  0  0  0  0  0  0  0  0  0  0
   -6.2669   16.3844  -35.4820 H   0  0  0  0  0  0  0  0  0  0  0  0
   -6.7993   18.7285  -34.8404 H   0  0  0  0  0  0  0  0  0  0  0  0
   -4.5428   20.3158  -31.6262 H   0  0  0  0  0  0  0  0  0  0  0  0
   -4.4912   24.1694  -28.5001 H   0  0  0  0  0  0  0  0  0  0  0  0
   -3.6827   23.0788  -27.3079 H   0  0  0  0  0  0  0  0  0  0  0  0
   -2.7460   25.4622  -27.4858 H   0  0  0  0  0  0  0  0  0  0  0  0
   -1.5614   24.1181  -27.6437 H   0  0  0  0  0  0  0  0  0  0  0  0
   -2.5940   24.5950  -30.0340 H   0  0  0  0  0  0  0  0  0  0  0  0
  1  2  1  0
  2  3  2  0
  2  4  1  0
  4  5  2  0
  5  6  1  0
  6  7  2  0
  7  8  1  0
  8  9  2  0
  9 10  1  0
 10 11  2  0
 11 12  1  0
 12 13  2  0
 13 14  1  0
 14 15  2  0
 14 16  1  0
 16 17  1  0
 17 18  1  0
 18 19  1  0
 13 20  1  0
 20 21  2  0
  9 22  1  0
 22 23  2  0
 23 24  1  0
 24 25  1  0
 25 26  2  0
 25 27  1  0
 27 28  1  0
 28 29  1  0
 29 30  1  0
 24  4  1  0
 23  6  1  0
 21 10  1  0
 19 17  1  0
  1 31  1  0
  5 32  1  0
  7 33  1  0
  8 34  1  0
 11 35  1  0
 12 36  1  0
 17 37  1  0
 18 38  1  0
 18 39  1  0
 19 40  1  0
 19 41  1  0
 20 42  1  0
 21 43  1  0
 22 44  1  0
 28 45  1  0
 28 46  1  0
 29 47  1  0
 29 48  1  0
 30 49  1  0
M  CHG  2   1  -1  16  -1
M  END
>  <UniqueID>  (59) 
59

>  <SMILES>  (59) 
[NH-]C(=O)c1cc2ccc(-c3ccc(C(=O)[N-]C4CC4)cc3)cc2n1C(=O)OCCO

>  <Energy>  (59) 
364.25416704112047

>  <Genealogy>  (59) 
[NH-]C(=O)c1cc2ccc(-c3ccc(C(=O)[N-]C4CC4)cc3)cc2n1C(=O)OCCO (protonated)
[NH-]C(=O)c1cc2ccc(-c3ccc(C(=O)[N-]C4CC4)cc3)cc2n1C(=O)OCCO (3D coordinates assigned)
[NH-]C(=O)c1cc2ccc(-c3ccc(C(=O)[N-]C4CC4)cc3)cc2n1C(=O)OCCO (nonaromatic ring conformer: 364.25416704112047 kcal/mol)

>  <smiles>  (59) 
NC(=O)c1cc2ccc(-c3ccc(C(=O)NC4CC4)cc3)cc2n1C(=O)OCCO

>  <score_type>  (59) 
oracle

>  <origin>  (59) 
adg

>  <m_score__min__energy>  (59) 
-11.51

>  <m_primary>  (59) 
energy

$$$$
60:0
     RDKit          3D

 48 52  0  0  0  0  0  0  0  0999 V2000
   -3.5490   25.1280  -30.4400 N   0  0  0  0  0  0  0  0  0  0  0  0
   -4.9500   25.2630  -30.6660 C   0  0  0  0  0  0  0  0  0  0  0  0
   -5.4710   26.4090  -30.6370 O   0  0  0  0  0  0  0  0  0  0  0  0
   -5.7860   24.0860  -30.9830 C   0  0  0  0  0  0  0  0  0  0  0  0
   -7.1420   24.0020  -30.6730 C   0  0  0  0  0  0  0  0  0  0  0  0
   -7.5670   22.8100  -31.2160 C   0  0  0  0  0  0  0  0  0  0  0  0
   -8.8270   22.2210  -31.2110 C   0  0  0  0  0  0  0  0  0  0  0  0
   -8.9730   20.9720  -31.8380 C   0  0  0  0  0  0  0  0  0  0  0  0
   -7.8580   20.3280  -32.4350 C   0  0  0  0  0  0  0  0  0  0  0  0
   -8.0000   19.0570  -33.0940 N   0  0  0  0  0  0  0  0  0  0  0  0
   -7.0790   17.9630  -32.9550 C   0  0  0  0  0  0  0  0  0  0  0  0
   -6.6460   17.5290  -31.6920 C   0  0  0  0  0  0  0  0  0  0  0  0
   -5.7290   16.4810  -31.5800 C   0  0  0  0  0  0  0  0  0  0  0  0
   -5.2090   15.8520  -32.7290 C   0  0  0  0  0  0  0  0  0  0  0  0
   -4.2610   14.7630  -32.6130 N   0  0  0  0  0  0  0  0  0  0  0  0
   -3.1110   14.5920  -33.4900 C   0  0  0  0  0  0  0  0  0  0  0  0
   -2.3870   13.3400  -33.0160 C   0  0  1  0  0  0  0  0  0  0  0  0
   -1.7880   13.3980  -31.6180 C   0  0  0  0  0  0  0  0  0  0  0  0
   -3.1660   12.7880  -31.8370 C   0  0  1  0  0  0  0  0  0  0  0  0
   -4.3540   13.7110  -31.6090 C   0  0  0  0  0  0  0  0  0  0  0  0
   -5.6310   16.3110  -33.9920 C   0  0  0  0  0  0  0  0  0  0  0  0
   -6.5480   17.3590  -34.1020 C   0  0  0  0  0  0  0  0  0  0  0  0
   -6.6010   20.9680  -32.4370 C   0  0  0  0  0  0  0  0  0  0  0  0
   -6.4880   22.2180  -31.8190 C   0  0  0  0  0  0  0  0  0  0  0  0
   -5.3870   22.9860  -31.6800 N   0  0  0  0  0  0  0  0  0  0  0  0
   -4.0600   22.6480  -32.1140 C   0  0  0  0  0  0  0  0  0  0  0  0
   -3.8150   22.2740  -33.4710 N   0  0  0  0  0  0  0  0  0  0  0  0
   -3.0980   22.7120  -31.3040 O   0  0  0  0  0  0  0  0  0  0  0  0
   -2.9030   24.8660  -31.2170 H   0  0  0  0  0  0  0  0  0  0  0  0
   -7.7447   24.7325  -30.1135 H   0  0  0  0  0  0  0  0  0  0  0  0
   -9.6830   22.7177  -30.7309 H   0  0  0  0  0  0  0  0  0  0  0  0
   -9.9608   20.4888  -31.8664 H   0  0  0  0  0  0  0  0  0  0  0  0
   -8.8300   18.9220  -33.7160 H   0  0  0  0  0  0  0  0  0  0  0  0
   -7.0313   18.0173  -30.7847 H   0  0  0  0  0  0  0  0  0  0  0  0
   -5.4091   16.1428  -30.5834 H   0  0  0  0  0  0  0  0  0  0  0  0
   -3.4427   14.4676  -34.5314 H   0  0  0  0  0  0  0  0  0  0  0  0
   -2.4501   15.4706  -33.4545 H   0  0  0  0  0  0  0  0  0  0  0  0
   -1.9741   12.9955  -33.9756 H   0  0  0  0  0  0  0  0  0  0  0  0
   -0.9357   12.7535  -31.3570 H   0  0  0  0  0  0  0  0  0  0  0  0
   -1.3812   14.1940  -30.9770 H   0  0  0  0  0  0  0  0  0  0  0  0
   -3.6078   11.8380  -31.5020 H   0  0  0  0  0  0  0  0  0  0  0  0
   -5.2955   13.1547  -31.7279 H   0  0  0  0  0  0  0  0  0  0  0  0
   -4.3419   14.1302  -30.5921 H   0  0  0  0  0  0  0  0  0  0  0  0
   -5.2338   15.8386  -34.9025 H   0  0  0  0  0  0  0  0  0  0  0  0
   -6.8556   17.7128  -35.0971 H   0  0  0  0  0  0  0  0  0  0  0  0
   -5.7296   20.4951  -32.9135 H   0  0  0  0  0  0  0  0  0  0  0  0
   -4.5880   22.2900  -34.1720 H   0  0  0  0  0  0  0  0  0  0  0  0
   -2.8530   22.0170  -33.7810 H   0  0  0  0  0  0  0  0  0  0  0  0
  1  2  1  0
  2  3  2  0
  2  4  1  0
  4  5  2  0
  5  6  1  0
  6  7  2  0
  7  8  1  0
  8  9  2  0
  9 10  1  0
 10 11  1  0
 11 12  2  0
 12 13  1  0
 13 14  2  0
 14 15  1  0
 15 16  1  0
 16 17  1  0
 17 18  1  0
 18 19  1  0
 19 20  1  0
 14 21  1  0
 21 22  2  0
  9 23  1  0
 23 24  2  0
 24 25  1  0
 25 26  1  0
 26 27  1  0
 26 28  2  0
 25  4  1  0
 24  6  1  0
 22 11  1  0
 20 15  1  0
 19 17  1  0
  1 29  1  0
  5 30  1  0
  7 31  1  0
  8 32  1  0
 10 33  1  0
 12 34  1  0
 13 35  1  0
 16 36  1  0
 16 37  1  0
 17 38  1  6
 18 39  1  0
 18 40  1  0
 19 41  1  6
 20 42  1  0
 20 43  1  0
 21 44  1  0
 22 45  1  0
 23 46  1  0
 27 47  1  0
 27 48  1  0
M  CHG  1   1  -1
M  END
>  <UniqueID>  (60) 
60

>  <SMILES>  (60) 
[NH-]C(=O)c1cc2ccc(Nc3ccc(N4C[C@H]5C[C@H]5C4)cc3)cc2n1C(N)=O

>  <Energy>  (60) 
363.4133710892182

>  <Genealogy>  (60) 
[NH-]C(=O)c1cc2ccc(Nc3ccc(N4CC5CC5C4)cc3)cc2n1C(N)=O (protonated)
[NH-]C(=O)c1cc2ccc(Nc3ccc(N4C[C@H]5C[C@H]5C4)cc3)cc2n1C(N)=O (chirality)
[NH-]C(=O)c1cc2ccc(Nc3ccc(N4C[C@H]5C[C@H]5C4)cc3)cc2n1C(N)=O (3D coordinates assigned)
[NH-]C(=O)c1cc2ccc(Nc3ccc(N4C[C@H]5C[C@H]5C4)cc3)cc2n1C(N)=O (nonaromatic ring conformer: 363.4133710892182 kcal/mol)

>  <smiles>  (60) 
NC(=O)c1cc2ccc(Nc3ccc(N4CC5CC5C4)cc3)cc2n1C(N)=O

>  <score_type>  (60) 
oracle

>  <origin>  (60) 
adg

>  <m_score__min__energy>  (60) 
-12.449999999999999

>  <m_primary>  (60) 
energy

$$$$
62:0
     RDKit          3D

 65 66  0  0  0  0  0  0  0  0999 V2000
   -2.6070   17.0430  -34.3940 C   0  0  0  0  0  0  0  0  0  0  0  0
   -3.6090   18.1080  -34.3000 N   0  0  0  0  0  0  0  0  0  0  0  0
   -4.9100   17.9660  -34.9720 C   0  0  0  0  0  0  0  0  0  0  0  0
   -6.0380   18.6160  -34.1540 C   0  0  0  0  0  0  0  0  0  0  0  0
   -6.4340   17.8010  -32.9130 C   0  0  0  0  0  0  0  0  0  0  0  0
   -7.5290   18.4330  -32.1720 N   0  0  0  0  0  0  0  0  0  0  0  0
   -7.5780   19.8430  -31.8870 C   0  0  0  0  0  0  0  0  0  0  0  0
   -8.8020   20.5650  -31.8920 C   0  0  0  0  0  0  0  0  0  0  0  0
   -8.8260   21.9420  -31.6170 C   0  0  0  0  0  0  0  0  0  0  0  0
   -7.6190   22.5730  -31.3340 C   0  0  0  0  0  0  0  0  0  0  0  0
   -7.3540   23.8930  -31.0540 C   0  0  0  0  0  0  0  0  0  0  0  0
   -5.9760   23.9610  -30.8580 C   0  0  0  0  0  0  0  0  0  0  0  0
   -5.2710   25.1930  -30.4440 C   0  0  0  0  0  0  0  0  0  0  0  0
   -3.8710   25.3210  -30.6770 N   0  0  0  0  0  0  0  0  0  0  0  0
   -5.8990   26.1490  -29.9180 O   0  0  0  0  0  0  0  0  0  0  0  0
   -5.4110   22.7300  -31.0180 N   0  0  0  0  0  0  0  0  0  0  0  0
   -4.0190   22.3810  -30.9570 C   0  0  0  0  0  0  0  0  0  0  0  0
   -3.2540   22.6940  -31.9090 O   0  0  0  0  0  0  0  0  0  0  0  0
   -3.5370   21.6740  -29.8450 O   0  0  0  0  0  0  0  0  0  0  0  0
   -3.0030   22.2430  -28.6410 C   0  0  0  0  0  0  0  0  0  0  0  0
   -2.4720   21.1390  -27.7070 C   0  0  0  0  0  0  0  0  0  0  0  0
   -1.8340   23.1520  -29.0510 C   0  0  0  0  0  0  0  0  0  0  0  0
   -4.0690   23.0950  -27.9270 C   0  0  0  0  0  0  0  0  0  0  0  0
   -6.4310   21.8920  -31.3060 C   0  0  0  0  0  0  0  0  0  0  0  0
   -6.3750   20.5230  -31.5930 C   0  0  0  0  0  0  0  0  0  0  0  0
   -3.2860   19.3080  -33.5730 C   0  0  0  0  0  0  0  0  0  0  0  0
   -3.9340   20.3670  -33.7870 O   0  0  0  0  0  0  0  0  0  0  0  0
   -2.2440   19.2840  -32.6310 O   0  0  0  0  0  0  0  0  0  0  0  0
   -1.0620   20.1000  -32.6480 C   0  0  0  0  0  0  0  0  0  0  0  0
   -0.8640   20.7950  -31.2860 C   0  0  0  0  0  0  0  0  0  0  0  0
    0.1290   19.1650  -32.9060 C   0  0  0  0  0  0  0  0  0  0  0  0
   -1.1370   21.1400  -33.7820 C   0  0  0  0  0  0  0  0  0  0  0  0
   -2.3107   16.7280  -33.3826 H   0  0  0  0  0  0  0  0  0  0  0  0
   -3.0332   16.1853  -34.9350 H   0  0  0  0  0  0  0  0  0  0  0  0
   -1.7249   17.4162  -34.9350 H   0  0  0  0  0  0  0  0  0  0  0  0
   -4.8582   18.4505  -35.9582 H   0  0  0  0  0  0  0  0  0  0  0  0
   -5.1311   16.8934  -35.0751 H   0  0  0  0  0  0  0  0  0  0  0  0
   -5.7031   19.6112  -33.8262 H   0  0  0  0  0  0  0  0  0  0  0  0
   -6.9232   18.6709  -34.8047 H   0  0  0  0  0  0  0  0  0  0  0  0
   -6.7531   16.7981  -33.2329 H   0  0  0  0  0  0  0  0  0  0  0  0
   -5.5595   17.7450  -32.2481 H   0  0  0  0  0  0  0  0  0  0  0  0
   -8.3250   17.8400  -31.8430 H   0  0  0  0  0  0  0  0  0  0  0  0
   -9.7422   20.0389  -32.1140 H   0  0  0  0  0  0  0  0  0  0  0  0
   -9.7711   22.5048  -31.6251 H   0  0  0  0  0  0  0  0  0  0  0  0
   -8.0768   24.7202  -30.9968 H   0  0  0  0  0  0  0  0  0  0  0  0
   -3.4980   26.0520  -31.3220 H   0  0  0  0  0  0  0  0  0  0  0  0
   -2.6182   21.4429  -26.6600 H   0  0  0  0  0  0  0  0  0  0  0  0
   -3.0187   20.2036  -27.8971 H   0  0  0  0  0  0  0  0  0  0  0  0
   -1.3999   20.9822  -27.8971 H   0  0  0  0  0  0  0  0  0  0  0  0
   -1.3366   23.5388  -28.1493 H   0  0  0  0  0  0  0  0  0  0  0  0
   -1.1129   22.5750  -29.6486 H   0  0  0  0  0  0  0  0  0  0  0  0
   -2.2156   23.9930  -29.6486 H   0  0  0  0  0  0  0  0  0  0  0  0
   -3.9472   22.9977  -26.8381 H   0  0  0  0  0  0  0  0  0  0  0  0
   -3.9498   24.1495  -28.2165 H   0  0  0  0  0  0  0  0  0  0  0  0
   -5.0713   22.7463  -28.2165 H   0  0  0  0  0  0  0  0  0  0  0  0
   -5.4141   19.9877  -31.5897 H   0  0  0  0  0  0  0  0  0  0  0  0
   -1.0679   20.0792  -30.4760 H   0  0  0  0  0  0  0  0  0  0  0  0
    0.1724   21.1547  -31.2051 H   0  0  0  0  0  0  0  0  0  0  0  0
   -1.5552   21.6469  -31.2051 H   0  0  0  0  0  0  0  0  0  0  0  0
    0.5503   18.8342  -31.9452 H   0  0  0  0  0  0  0  0  0  0  0  0
   -0.2098   18.2891  -33.4788 H   0  0  0  0  0  0  0  0  0  0  0  0
    0.8994   19.7020  -33.4788 H   0  0  0  0  0  0  0  0  0  0  0  0
   -1.2098   22.1490  -33.3500 H   0  0  0  0  0  0  0  0  0  0  0  0
   -0.2316   21.0714  -34.4029 H   0  0  0  0  0  0  0  0  0  0  0  0
   -2.0232   20.9422  -34.4029 H   0  0  0  0  0  0  0  0  0  0  0  0
  1  2  1  0
  2  3  1  0
  3  4  1  0
  4  5  1  0
  5  6  1  0
  6  7  1  0
  7  8  2  0
  8  9  1  0
  9 10  2  0
 10 11  1  0
 11 12  2  0
 12 13  1  0
 13 14  1  0
 13 15  2  0
 12 16  1  0
 16 17  1  0
 17 18  2  0
 17 19  1  0
 19 20  1  0
 20 21  1  0
 20 22  1  0
 20 23  1  0
 16 24  1  0
 24 25  2  0
  2 26  1  0
 26 27  2  0
 26 28  1  0
 28 29  1  0
 29 30  1  0
 29 31  1  0
 29 32  1  0
 25  7  1  0
 24 10  1  0
  1 33  1  0
  1 34  1  0
  1 35  1  0
  3 36  1  0
  3 37  1  0
  4 38  1  0
  4 39  1  0
  5 40  1  0
  5 41  1  0
  6 42  1  0
  8 43  1  0
  9 44  1  0
 11 45  1  0
 14 46  1  0
 21 47  1  0
 21 48  1  0
 21 49  1  0
 22 50  1  0
 22 51  1  0
 22 52  1  0
 23 53  1  0
 23 54  1  0
 23 55  1  0
 25 56  1  0
 30 57  1  0
 30 58  1  0
 30 59  1  0
 31 60  1  0
 31 61  1  0
 31 62  1  0
 32 63  1  0
 32 64  1  0
 32 65  1  0
M  CHG  1  14  -1
M  END
>  <UniqueID>  (61) 
61

>  <SMILES>  (61) 
CN(CCCNc1ccc2cc(C([NH-])=O)n(C(=O)OC(C)(C)C)c2c1)C(=O)OC(C)(C)C

>  <Energy>  (61) 
85.66453138434133

>  <Genealogy>  (61) 
CN(CCCNc1ccc2cc(C([NH-])=O)n(C(=O)OC(C)(C)C)c2c1)C(=O)OC(C)(C)C (protonated)
CN(CCCNc1ccc2cc(C([NH-])=O)n(C(=O)OC(C)(C)C)c2c1)C(=O)OC(C)(C)C (3D coordinates assigned)
CN(CCCNc1ccc2cc(C([NH-])=O)n(C(=O)OC(C)(C)C)c2c1)C(=O)OC(C)(C)C (optimized conformer: 85.66453138434133 kcal/mol)

>  <smiles>  (61) 
CN(CCCNc1ccc2cc(C(N)=O)n(C(=O)OC(C)(C)C)c2c1)C(=O)OC(C)(C)C

>  <score_type>  (61) 
oracle

>  <origin>  (61) 
adg

>  <m_score__min__energy>  (61) 
-10.44

>  <m_primary>  (61) 
energy

$$$$
63:0
     RDKit          3D

 54 56  0  0  0  0  0  0  0  0999 V2000
   -4.8060   13.5920  -34.2110 C   0  0  0  0  0  0  0  0  0  0  0  0
   -4.5320   14.8540  -34.8120 O   0  0  0  0  0  0  0  0  0  0  0  0
   -4.9810   16.0860  -34.3120 C   0  0  0  0  0  0  0  0  0  0  0  0
   -4.3540   17.3040  -34.6310 C   0  0  0  0  0  0  0  0  0  0  0  0
   -4.8390   18.5060  -34.1070 C   0  0  0  0  0  0  0  0  0  0  0  0
   -5.9600   18.5150  -33.2560 C   0  0  0  0  0  0  0  0  0  0  0  0
   -6.4790   19.7920  -32.6990 C   0  0  0  0  0  0  0  0  0  0  0  0
   -7.8750   20.0600  -32.6940 C   0  0  0  0  0  0  0  0  0  0  0  0
   -8.3730   21.2660  -32.1710 C   0  0  0  0  0  0  0  0  0  0  0  0
   -7.4620   22.1770  -31.6480 C   0  0  0  0  0  0  0  0  0  0  0  0
   -7.6710   23.4240  -31.1040 C   0  0  0  0  0  0  0  0  0  0  0  0
   -6.4040   23.8950  -30.7620 C   0  0  0  0  0  0  0  0  0  0  0  0
   -6.1460   25.1880  -30.0900 C   0  0  0  0  0  0  0  0  0  0  0  0
   -5.0950   26.0500  -30.5340 N   0  0  0  0  0  0  0  0  0  0  0  0
   -6.8680   25.5530  -29.1240 O   0  0  0  0  0  0  0  0  0  0  0  0
   -5.4530   22.9710  -31.0770 N   0  0  0  0  0  0  0  0  0  0  0  0
   -4.0290   23.1070  -30.9370 C   0  0  0  0  0  0  0  0  0  0  0  0
   -3.4800   24.2130  -31.1920 O   0  0  0  0  0  0  0  0  0  0  0  0
   -3.1820   21.9570  -30.4770 C   0  0  0  0  0  0  0  0  0  0  0  0
   -1.7720   22.3620  -30.4540 N   0  0  0  0  0  0  0  0  0  0  0  0
   -1.0120   21.6030  -29.4530 C   0  0  0  0  0  0  0  0  0  0  0  0
   -0.1080   22.5160  -28.6730 C   0  0  0  0  0  0  0  0  0  0  0  0
    0.6200   22.0350  -27.7650 O   0  0  0  0  0  0  0  0  0  0  0  0
   -0.0500   23.9240  -28.9330 N   0  0  0  0  0  0  0  0  0  0  0  0
   -0.3660   24.9560  -27.9510 C   0  0  0  0  0  0  0  0  0  0  0  0
   -1.8540   25.2960  -28.0100 C   0  0  0  0  0  0  0  0  0  0  0  0
   -2.3160   25.2890  -29.3340 O   0  0  0  0  0  0  0  0  0  0  0  0
   -6.1150   21.9270  -31.6230 C   0  0  0  0  0  0  0  0  0  0  0  0
   -5.5860   20.7510  -32.1640 C   0  0  0  0  0  0  0  0  0  0  0  0
   -6.5820   17.2930  -32.9410 C   0  0  0  0  0  0  0  0  0  0  0  0
   -6.0950   16.0930  -33.4660 C   0  0  0  0  0  0  0  0  0  0  0  0
   -4.7837   13.6948  -33.1160 H   0  0  0  0  0  0  0  0  0  0  0  0
   -5.8007   13.2439  -34.5264 H   0  0  0  0  0  0  0  0  0  0  0  0
   -4.0453   12.8628  -34.5264 H   0  0  0  0  0  0  0  0  0  0  0  0
   -3.4778   17.3108  -35.2960 H   0  0  0  0  0  0  0  0  0  0  0  0
   -4.3403   19.4527  -34.3620 H   0  0  0  0  0  0  0  0  0  0  0  0
   -8.5733   19.3154  -33.1039 H   0  0  0  0  0  0  0  0  0  0  0  0
   -9.4515   21.4826  -32.1754 H   0  0  0  0  0  0  0  0  0  0  0  0
   -8.6332   23.9395  -30.9680 H   0  0  0  0  0  0  0  0  0  0  0  0
   -4.4400   25.7650  -31.2950 H   0  0  0  0  0  0  0  0  0  0  0  0
   -4.9370   26.9670  -30.0610 H   0  0  0  0  0  0  0  0  0  0  0  0
   -3.4926   21.6551  -29.4659 H   0  0  0  0  0  0  0  0  0  0  0  0
   -3.3077   21.1112  -31.1690 H   0  0  0  0  0  0  0  0  0  0  0  0
   -1.7360   23.3740  -30.1820 H   0  0  0  0  0  0  0  0  0  0  0  0
   -1.7133   21.1118  -28.7624 H   0  0  0  0  0  0  0  0  0  0  0  0
   -0.3974   20.8507  -29.9691 H   0  0  0  0  0  0  0  0  0  0  0  0
   -0.1158   24.5897  -26.9444 H   0  0  0  0  0  0  0  0  0  0  0  0
    0.2198   25.8595  -28.1758 H   0  0  0  0  0  0  0  0  0  0  0  0
   -2.4170   24.5515  -27.4280 H   0  0  0  0  0  0  0  0  0  0  0  0
   -2.0018   26.3023  -27.5911 H   0  0  0  0  0  0  0  0  0  0  0  0
   -1.8410   24.5490  -29.7950 H   0  0  0  0  0  0  0  0  0  0  0  0
   -4.5002   20.5752  -32.1736 H   0  0  0  0  0  0  0  0  0  0  0  0
   -7.4584   17.2821  -32.2763 H   0  0  0  0  0  0  0  0  0  0  0  0
   -6.5922   15.1453  -33.2117 H   0  0  0  0  0  0  0  0  0  0  0  0
  1  2  1  0
  2  3  1  0
  3  4  2  0
  4  5  1  0
  5  6  2  0
  6  7  1  0
  7  8  2  0
  8  9  1  0
  9 10  2  0
 10 11  1  0
 11 12  2  0
 12 13  1  0
 13 14  1  0
 13 15  2  0
 12 16  1  0
 16 17  1  0
 17 18  2  0
 17 19  1  0
 19 20  1  0
 20 21  1  0
 21 22  1  0
 22 23  2  0
 22 24  1  0
 24 25  1  0
 25 26  1  0
 26 27  1  0
 16 28  1  0
 28 29  2  0
  6 30  1  0
 30 31  2  0
 31  3  1  0
 29  7  1  0
 28 10  1  0
  1 32  1  0
  1 33  1  0
  1 34  1  0
  4 35  1  0
  5 36  1  0
  8 37  1  0
  9 38  1  0
 11 39  1  0
 14 40  1  0
 14 41  1  0
 19 42  1  0
 19 43  1  0
 20 44  1  0
 21 45  1  0
 21 46  1  0
 25 47  1  0
 25 48  1  0
 26 49  1  0
 26 50  1  0
 27 51  1  0
 29 52  1  0
 30 53  1  0
 31 54  1  0
M  CHG  1  24  -1
M  END
>  <UniqueID>  (62) 
62

>  <SMILES>  (62) 
COc1ccc(-c2ccc3cc(C(N)=O)n(C(=O)CNCC(=O)[N-]CCO)c3c2)cc1

>  <Energy>  (62) 
92.60581805682034

>  <Genealogy>  (62) 
COc1ccc(-c2ccc3cc(C(N)=O)n(C(=O)CNCC(=O)[N-]CCO)c3c2)cc1 (protonated)
COc1ccc(-c2ccc3cc(C(N)=O)n(C(=O)CNCC(=O)[N-]CCO)c3c2)cc1 (3D coordinates assigned)
COc1ccc(-c2ccc3cc(C(N)=O)n(C(=O)CNCC(=O)[N-]CCO)c3c2)cc1 (optimized conformer: 92.60581805682034 kcal/mol)

>  <smiles>  (62) 
COc1ccc(-c2ccc3cc(C(N)=O)n(C(=O)CNCC(=O)NCCO)c3c2)cc1

>  <score_type>  (62) 
oracle

>  <origin>  (62) 
adg

>  <m_score__min__energy>  (62) 
-10.48

>  <m_primary>  (62) 
energy

$$$$
64:0
     RDKit          3D

 43 44  0  0  0  0  0  0  0  0999 V2000
   -1.0560   24.9410  -25.3710 C   0  0  0  0  0  0  0  0  0  0  0  0
   -2.2430   25.7660  -25.8550 C   0  0  0  0  0  0  0  0  0  0  0  0
   -2.7610   25.2380  -27.0750 O   0  0  0  0  0  0  0  0  0  0  0  0
   -3.9130   24.4460  -27.1410 C   0  0  0  0  0  0  0  0  0  0  0  0
   -4.8740   24.6530  -26.3510 O   0  0  0  0  0  0  0  0  0  0  0  0
   -3.9940   23.3680  -28.1490 C   0  0  0  0  0  0  0  0  0  0  0  0
   -4.6150   22.3100  -27.8530 O   0  0  0  0  0  0  0  0  0  0  0  0
   -3.3130   23.4780  -29.4280 N   0  0  1  0  0  0  0  0  0  0  0  0
   -1.8700   23.1890  -29.2890 C   0  0  0  0  0  0  0  0  0  0  0  0
   -1.0670   24.4500  -29.1440 C   0  0  0  0  0  0  0  0  0  0  0  0
   -1.6040   25.5710  -29.3420 O   0  0  0  0  0  0  0  0  0  0  0  0
    0.2810   24.3810  -28.8160 O   0  0  0  0  0  0  0  0  0  0  0  0
   -3.9040   22.5860  -30.4010 C   0  0  0  0  0  0  0  0  0  0  0  0
   -3.2170   21.6720  -30.9390 O   0  0  0  0  0  0  0  0  0  0  0  0
   -5.2600   22.7850  -30.8260 N   0  0  0  0  0  0  0  0  0  0  0  0
   -5.9870   23.9360  -30.7960 C   0  0  0  0  0  0  0  0  0  0  0  0
   -5.5140   25.2560  -30.3240 C   0  0  0  0  0  0  0  0  0  0  0  0
   -4.1670   25.6760  -30.5260 N   0  0  0  0  0  0  0  0  0  0  0  0
   -6.3120   26.0270  -29.7250 O   0  0  0  0  0  0  0  0  0  0  0  0
   -7.2930   23.6990  -31.2270 C   0  0  0  0  0  0  0  0  0  0  0  0
   -7.3390   22.3550  -31.5230 C   0  0  0  0  0  0  0  0  0  0  0  0
   -8.3950   21.5720  -31.9810 C   0  0  0  0  0  0  0  0  0  0  0  0
   -8.1540   20.2030  -32.1980 C   0  0  0  0  0  0  0  0  0  0  0  0
   -6.8670   19.6530  -31.9760 C   0  0  0  0  0  0  0  0  0  0  0  0
   -6.6290   18.1840  -32.1900 C   0  0  0  0  0  0  0  0  0  0  0  0
   -5.9000   17.9790  -33.3450 F   0  0  0  0  0  0  0  0  0  0  0  0
   -7.8430   17.5320  -32.2920 F   0  0  0  0  0  0  0  0  0  0  0  0
   -5.8250   20.4790  -31.5000 C   0  0  0  0  0  0  0  0  0  0  0  0
   -6.1000   21.8300  -31.2750 C   0  0  0  0  0  0  0  0  0  0  0  0
   -1.0409   24.9305  -24.2712 H   0  0  0  0  0  0  0  0  0  0  0  0
   -1.1479   23.9111  -25.7463 H   0  0  0  0  0  0  0  0  0  0  0  0
   -0.1227   25.3861  -25.7463 H   0  0  0  0  0  0  0  0  0  0  0  0
   -3.0324   25.7464  -25.0892 H   0  0  0  0  0  0  0  0  0  0  0  0
   -1.9073   26.7986  -26.0312 H   0  0  0  0  0  0  0  0  0  0  0  0
   -3.4050   24.4520  -29.7980 H   0  0  0  0  0  0  0  0  0  0  0  0
   -1.7152   22.5624  -28.3983 H   0  0  0  0  0  0  0  0  0  0  0  0
   -1.5334   22.6683  -30.1976 H   0  0  0  0  0  0  0  0  0  0  0  0
   -3.4860   25.6900  -29.7380 H   0  0  0  0  0  0  0  0  0  0  0  0
   -8.1109   24.4297  -31.3121 H   0  0  0  0  0  0  0  0  0  0  0  0
   -9.3867   22.0099  -32.1674 H   0  0  0  0  0  0  0  0  0  0  0  0
   -8.9720   19.5536  -32.5431 H   0  0  0  0  0  0  0  0  0  0  0  0
   -6.0622   17.7867  -31.3351 H   0  0  0  0  0  0  0  0  0  0  0  0
   -4.8220   20.0688  -31.3112 H   0  0  0  0  0  0  0  0  0  0  0  0
  1  2  1  0
  2  3  1  0
  3  4  1  0
  4  5  2  0
  4  6  1  0
  6  7  2  0
  6  8  1  0
  8  9  1  0
  9 10  1  0
 10 11  2  0
 10 12  1  0
  8 13  1  0
 13 14  2  0
 13 15  1  0
 15 16  1  0
 16 17  1  0
 17 18  1  0
 17 19  2  0
 16 20  2  0
 20 21  1  0
 21 22  2  0
 22 23  1  0
 23 24  2  0
 24 25  1  0
 25 26  1  0
 25 27  1  0
 24 28  1  0
 28 29  2  0
 29 15  1  0
 29 21  1  0
  1 30  1  0
  1 31  1  0
  1 32  1  0
  2 33  1  0
  2 34  1  0
  8 35  1  6
  9 36  1  0
  9 37  1  0
 18 38  1  0
 20 39  1  0
 22 40  1  0
 23 41  1  0
 25 42  1  0
 28 43  1  0
M  CHG  3   8   1  12  -1  18  -1
M  END
>  <UniqueID>  (63) 
63

>  <SMILES>  (63) 
CCOC(=O)C(=O)[NH+](CC(=O)[O-])C(=O)n1c(C([NH-])=O)cc2ccc(C(F)F)cc21

>  <Energy>  (63) 
80.94576940956502

>  <Genealogy>  (63) 
CCOC(=O)C(=O)[NH+](CC(=O)[O-])C(=O)n1c(C([NH-])=O)cc2ccc(C(F)F)cc21 (protonated)
CCOC(=O)C(=O)[NH+](CC(=O)[O-])C(=O)n1c(C([NH-])=O)cc2ccc(C(F)F)cc21 (3D coordinates assigned)
CCOC(=O)C(=O)[NH+](CC(=O)[O-])C(=O)n1c(C([NH-])=O)cc2ccc(C(F)F)cc21 (optimized conformer: 80.94576940956502 kcal/mol)

>  <smiles>  (63) 
CCOC(=O)C(=O)N(CC(=O)O)C(=O)n1c(C(N)=O)cc2ccc(C(F)F)cc21

>  <score_type>  (63) 
oracle

>  <origin>  (63) 
adg

>  <m_score__min__energy>  (63) 
-11.029999999999999

>  <m_primary>  (63) 
energy

$$$$
65:0
     RDKit          3D

 36 37  0  0  0  0  0  0  0  0999 V2000
   -1.8290   21.4630  -28.1790 C   0  0  0  0  0  0  0  0  0  0  0  0
   -1.9770   22.5490  -29.1550 N   0  0  0  0  0  0  0  0  0  0  0  0
   -0.7760   23.2690  -29.5960 C   0  0  0  0  0  0  0  0  0  0  0  0
   -0.7350   24.6320  -28.9830 C   0  0  0  0  0  0  0  0  0  0  0  0
   -1.5760   25.5050  -29.3240 O   0  0  0  0  0  0  0  0  0  0  0  0
    0.2590   24.9560  -28.0690 O   0  0  0  0  0  0  0  0  0  0  0  0
   -3.2850   23.0340  -29.5390 C   0  0  0  0  0  0  0  0  0  0  0  0
   -3.9450   23.7450  -28.7310 O   0  0  0  0  0  0  0  0  0  0  0  0
   -3.8950   22.7280  -30.8520 C   0  0  0  0  0  0  0  0  0  0  0  0
   -3.1760   22.3720  -31.8220 O   0  0  0  0  0  0  0  0  0  0  0  0
   -5.3130   22.8670  -31.0370 N   0  0  0  0  0  0  0  0  0  0  0  0
   -6.0670   23.9930  -30.8940 C   0  0  0  0  0  0  0  0  0  0  0  0
   -5.5860   25.2960  -30.3930 C   0  0  0  0  0  0  0  0  0  0  0  0
   -4.2290   25.6830  -30.6030 N   0  0  0  0  0  0  0  0  0  0  0  0
   -6.3670   26.0870  -29.8000 O   0  0  0  0  0  0  0  0  0  0  0  0
   -7.3960   23.7340  -31.2280 C   0  0  0  0  0  0  0  0  0  0  0  0
   -7.4310   22.4060  -31.5850 C   0  0  0  0  0  0  0  0  0  0  0  0
   -8.4960   21.6220  -32.0200 C   0  0  0  0  0  0  0  0  0  0  0  0
   -8.2350   20.2810  -32.3500 C   0  0  0  0  0  0  0  0  0  0  0  0
   -6.9230   19.7540  -32.2500 C   0  0  0  0  0  0  0  0  0  0  0  0
   -6.6640   18.3190  -32.6120 C   0  0  0  0  0  0  0  0  0  0  0  0
   -7.7850   17.5600  -32.3290 F   0  0  0  0  0  0  0  0  0  0  0  0
   -6.3740   18.2220  -33.9610 F   0  0  0  0  0  0  0  0  0  0  0  0
   -5.8670   20.5800  -31.8040 C   0  0  0  0  0  0  0  0  0  0  0  0
   -6.1610   21.9060  -31.4650 C   0  0  0  0  0  0  0  0  0  0  0  0
   -1.8852   21.8751  -27.1606 H   0  0  0  0  0  0  0  0  0  0  0  0
   -2.6354   20.7287  -28.3224 H   0  0  0  0  0  0  0  0  0  0  0  0
   -0.8555   20.9713  -28.3224 H   0  0  0  0  0  0  0  0  0  0  0  0
    0.1179   22.7060  -29.2894 H   0  0  0  0  0  0  0  0  0  0  0  0
   -0.8003   23.3693  -30.6911 H   0  0  0  0  0  0  0  0  0  0  0  0
   -3.5310   25.6330  -29.8300 H   0  0  0  0  0  0  0  0  0  0  0  0
   -8.2379   24.4417  -31.2098 H   0  0  0  0  0  0  0  0  0  0  0  0
   -9.5104   22.0392  -32.1029 H   0  0  0  0  0  0  0  0  0  0  0  0
   -9.0572   19.6339  -32.6893 H   0  0  0  0  0  0  0  0  0  0  0  0
   -5.8098   17.9476  -32.0269 H   0  0  0  0  0  0  0  0  0  0  0  0
   -4.8410   20.1914  -31.7252 H   0  0  0  0  0  0  0  0  0  0  0  0
  1  2  1  0
  2  3  1  0
  3  4  1  0
  4  5  2  0
  4  6  1  0
  2  7  1  0
  7  8  2  0
  7  9  1  0
  9 10  2  0
  9 11  1  0
 11 12  1  0
 12 13  1  0
 13 14  1  0
 13 15  2  0
 12 16  2  0
 16 17  1  0
 17 18  2  0
 18 19  1  0
 19 20  2  0
 20 21  1  0
 21 22  1  0
 21 23  1  0
 20 24  1  0
 24 25  2  0
 25 11  1  0
 25 17  1  0
  1 26  1  0
  1 27  1  0
  1 28  1  0
  3 29  1  0
  3 30  1  0
 14 31  1  0
 16 32  1  0
 18 33  1  0
 19 34  1  0
 21 35  1  0
 24 36  1  0
M  CHG  2   6  -1  14  -1
M  END
>  <UniqueID>  (64) 
64

>  <SMILES>  (64) 
CN(CC(=O)[O-])C(=O)C(=O)n1c(C([NH-])=O)cc2ccc(C(F)F)cc21

>  <Energy>  (64) 
74.62110512188788

>  <Genealogy>  (64) 
CN(CC(=O)[O-])C(=O)C(=O)n1c(C([NH-])=O)cc2ccc(C(F)F)cc21 (protonated)
CN(CC(=O)[O-])C(=O)C(=O)n1c(C([NH-])=O)cc2ccc(C(F)F)cc21 (3D coordinates assigned)
CN(CC(=O)[O-])C(=O)C(=O)n1c(C([NH-])=O)cc2ccc(C(F)F)cc21 (optimized conformer: 74.62110512188788 kcal/mol)

>  <smiles>  (64) 
CN(CC(=O)O)C(=O)C(=O)n1c(C(N)=O)cc2ccc(C(F)F)cc21

>  <score_type>  (64) 
oracle

>  <origin>  (64) 
adg

>  <m_score__min__energy>  (64) 
-12.27

>  <m_primary>  (64) 
energy

$$$$
66:0
     RDKit          3D

 38 39  0  0  0  0  0  0  0  0999 V2000
   -4.0990   24.3600  -27.4130 C   0  0  0  0  0  0  0  0  0  0  0  0
   -3.0240   24.6830  -28.2860 O   0  0  0  0  0  0  0  0  0  0  0  0
   -2.2650   23.7080  -28.9360 C   0  0  0  0  0  0  0  0  0  0  0  0
   -1.2960   24.0320  -29.6760 O   0  0  0  0  0  0  0  0  0  0  0  0
   -2.5980   22.2640  -28.7360 C   0  0  0  0  0  0  0  0  0  0  0  0
   -3.4980   21.8050  -29.7880 N   0  0  0  0  0  0  0  0  0  0  0  0
   -3.9250   22.6300  -30.8760 C   0  0  0  0  0  0  0  0  0  0  0  0
   -3.0890   23.0450  -31.7240 O   0  0  0  0  0  0  0  0  0  0  0  0
   -5.3150   22.9580  -31.0250 N   0  0  0  0  0  0  0  0  0  0  0  0
   -5.9220   24.1580  -30.7970 C   0  0  0  0  0  0  0  0  0  0  0  0
   -5.2360   25.4310  -30.4920 C   0  0  0  0  0  0  0  0  0  0  0  0
   -3.8630   25.5990  -30.8390 N   0  0  0  0  0  0  0  0  0  0  0  0
   -5.8410   26.3610  -29.8960 O   0  0  0  0  0  0  0  0  0  0  0  0
   -7.3000   24.0500  -30.9760 C   0  0  0  0  0  0  0  0  0  0  0  0
   -7.5200   22.7380  -31.3270 C   0  0  0  0  0  0  0  0  0  0  0  0
   -8.7090   22.0760  -31.6180 C   0  0  0  0  0  0  0  0  0  0  0  0
   -8.6430   20.7080  -31.9290 C   0  0  0  0  0  0  0  0  0  0  0  0
   -7.3990   20.0270  -31.9260 C   0  0  0  0  0  0  0  0  0  0  0  0
   -7.3380   18.5650  -32.2810 C   0  0  0  0  0  0  0  0  0  0  0  0
   -6.4580   18.3500  -33.5140 C   0  0  0  0  0  0  0  0  0  0  0  0
   -6.4650   16.9370  -33.9080 C   0  0  0  0  0  0  0  0  0  0  0  0
   -6.4700   15.8220  -34.2190 N   0  0  0  0  0  0  0  0  0  0  0  0
   -6.2120   20.7340  -31.6380 C   0  0  0  0  0  0  0  0  0  0  0  0
   -6.3070   22.1010  -31.3500 C   0  0  0  0  0  0  0  0  0  0  0  0
   -3.7664   24.4599  -26.3693 H   0  0  0  0  0  0  0  0  0  0  0  0
   -4.9395   25.0453  -27.5972 H   0  0  0  0  0  0  0  0  0  0  0  0
   -4.4226   23.3250  -27.5972 H   0  0  0  0  0  0  0  0  0  0  0  0
   -1.6725   21.6702  -28.7647 H   0  0  0  0  0  0  0  0  0  0  0  0
   -3.0926   22.1410  -27.7612 H   0  0  0  0  0  0  0  0  0  0  0  0
   -3.1380   24.9300  -30.4980 H   0  0  0  0  0  0  0  0  0  0  0  0
   -8.0518   24.8447  -30.8611 H   0  0  0  0  0  0  0  0  0  0  0  0
   -9.6716   22.6082  -31.6048 H   0  0  0  0  0  0  0  0  0  0  0  0
   -9.5640   20.1601  -32.1770 H   0  0  0  0  0  0  0  0  0  0  0  0
   -6.9173   18.0038  -31.4336 H   0  0  0  0  0  0  0  0  0  0  0  0
   -8.3551   18.2098  -32.5031 H   0  0  0  0  0  0  0  0  0  0  0  0
   -6.8430   18.9597  -34.3447 H   0  0  0  0  0  0  0  0  0  0  0  0
   -5.4270   18.6477  -33.2724 H   0  0  0  0  0  0  0  0  0  0  0  0
   -5.2372   20.2243  -31.6397 H   0  0  0  0  0  0  0  0  0  0  0  0
  1  2  1  0
  2  3  1  0
  3  4  2  0
  3  5  1  0
  5  6  1  0
  6  7  1  0
  7  8  2  0
  7  9  1  0
  9 10  1  0
 10 11  1  0
 11 12  1  0
 11 13  2  0
 10 14  2  0
 14 15  1  0
 15 16  2  0
 16 17  1  0
 17 18  2  0
 18 19  1  0
 19 20  1  0
 20 21  1  0
 21 22  3  0
 18 23  1  0
 23 24  2  0
 24  9  1  0
 24 15  1  0
  1 25  1  0
  1 26  1  0
  1 27  1  0
  5 28  1  0
  5 29  1  0
 12 30  1  0
 14 31  1  0
 16 32  1  0
 17 33  1  0
 19 34  1  0
 19 35  1  0
 20 36  1  0
 20 37  1  0
 23 38  1  0
M  CHG  2   6  -1  12  -1
M  END
>  <UniqueID>  (65) 
65

>  <SMILES>  (65) 
COC(=O)C[N-]C(=O)n1c(C([NH-])=O)cc2ccc(CCC#N)cc21

>  <Energy>  (65) 
67.63355965165057

>  <Genealogy>  (65) 
COC(=O)C[N-]C(=O)n1c(C([NH-])=O)cc2ccc(CCC#N)cc21 (protonated)
COC(=O)C[N-]C(=O)n1c(C([NH-])=O)cc2ccc(CCC#N)cc21 (3D coordinates assigned)
COC(=O)C[N-]C(=O)n1c(C([NH-])=O)cc2ccc(CCC#N)cc21 (optimized conformer: 67.63355965165057 kcal/mol)

>  <smiles>  (65) 
COC(=O)CNC(=O)n1c(C(N)=O)cc2ccc(CCC#N)cc21

>  <score_type>  (65) 
oracle

>  <origin>  (65) 
adg

>  <m_score__min__energy>  (65) 
-11.1

>  <m_primary>  (65) 
energy

$$$$
67:0
     RDKit          3D

 44 45  0  0  0  0  0  0  0  0999 V2000
   -3.7740   18.9450  -33.6960 C   0  0  0  0  0  0  0  0  0  0  0  0
   -5.0270   18.2410  -34.0210 N   0  0  0  0  0  0  0  0  0  0  0  0
   -4.8340   17.4320  -35.2360 C   0  0  0  0  0  0  0  0  0  0  0  0
   -5.4730   17.3850  -32.8980 C   0  0  0  0  0  0  0  0  0  0  0  0
   -6.9260   17.6960  -32.4850 C   0  0  0  0  0  0  0  0  0  0  0  0
   -7.5470   18.7530  -33.3040 N   0  0  0  0  0  0  0  0  0  0  0  0
   -7.5340   20.0350  -32.6400 C   0  0  0  0  0  0  0  0  0  0  0  0
   -8.7230   20.8070  -32.5490 C   0  0  0  0  0  0  0  0  0  0  0  0
   -8.7120   22.0750  -31.9440 C   0  0  0  0  0  0  0  0  0  0  0  0
   -7.5060   22.5420  -31.4300 C   0  0  0  0  0  0  0  0  0  0  0  0
   -7.2030   23.7410  -30.8240 C   0  0  0  0  0  0  0  0  0  0  0  0
   -5.8420   23.6730  -30.5330 C   0  0  0  0  0  0  0  0  0  0  0  0
   -5.0920   24.7450  -29.8430 C   0  0  0  0  0  0  0  0  0  0  0  0
   -4.1920   25.5700  -30.5800 N   0  0  0  0  0  0  0  0  0  0  0  0
   -5.2510   24.9510  -28.6110 O   0  0  0  0  0  0  0  0  0  0  0  0
   -5.3270   22.4790  -30.9370 N   0  0  0  0  0  0  0  0  0  0  0  0
   -3.9560   22.0530  -30.8810 C   0  0  0  0  0  0  0  0  0  0  0  0
   -3.6850   20.8280  -30.9910 O   0  0  0  0  0  0  0  0  0  0  0  0
   -2.8540   23.0120  -30.6830 C   0  0  0  0  0  0  0  0  0  0  0  0
   -2.3850   23.3290  -29.4700 C   0  0  0  0  0  0  0  0  0  0  0  0
   -1.2890   24.2920  -29.2850 C   0  0  0  0  0  0  0  0  0  0  0  0
   -0.1220   23.8720  -29.0690 O   0  0  0  0  0  0  0  0  0  0  0  0
   -1.5200   25.6620  -29.3490 O   0  0  0  0  0  0  0  0  0  0  0  0
   -6.3550   21.8010  -31.4900 C   0  0  0  0  0  0  0  0  0  0  0  0
   -6.3320   20.5420  -32.0950 C   0  0  0  0  0  0  0  0  0  0  0  0
   -3.6616   19.0081  -32.6036 H   0  0  0  0  0  0  0  0  0  0  0  0
   -2.9226   18.3932  -34.1209 H   0  0  0  0  0  0  0  0  0  0  0  0
   -3.8024   19.9592  -34.1209 H   0  0  0  0  0  0  0  0  0  0  0  0
   -4.5873   16.3981  -34.9527 H   0  0  0  0  0  0  0  0  0  0  0  0
   -5.7589   17.4383  -35.8315 H   0  0  0  0  0  0  0  0  0  0  0  0
   -4.0116   17.8552  -35.8315 H   0  0  0  0  0  0  0  0  0  0  0  0
   -5.4078   16.3309  -33.2057 H   0  0  0  0  0  0  0  0  0  0  0  0
   -4.8212   17.5851  -32.0348 H   0  0  0  0  0  0  0  0  0  0  0  0
   -7.5231   16.7778  -32.5873 H   0  0  0  0  0  0  0  0  0  0  0  0
   -6.9012   18.0580  -31.4466 H   0  0  0  0  0  0  0  0  0  0  0  0
   -7.0690   18.8070  -34.2330 H   0  0  0  0  0  0  0  0  0  0  0  0
   -8.5440   18.4880  -33.4860 H   0  0  0  0  0  0  0  0  0  0  0  0
   -9.6632   20.4074  -32.9569 H   0  0  0  0  0  0  0  0  0  0  0  0
   -9.6284   22.6800  -31.8786 H   0  0  0  0  0  0  0  0  0  0  0  0
   -7.8892   24.5748  -30.6143 H   0  0  0  0  0  0  0  0  0  0  0  0
   -3.1930   25.2940  -30.7050 H   0  0  0  0  0  0  0  0  0  0  0  0
   -2.3997   23.4852  -31.5660 H   0  0  0  0  0  0  0  0  0  0  0  0
   -2.8331   22.8547  -28.5844 H   0  0  0  0  0  0  0  0  0  0  0  0
   -5.4007   19.9589  -32.1461 H   0  0  0  0  0  0  0  0  0  0  0  0
  1  2  1  0
  2  3  1  0
  2  4  1  0
  4  5  1  0
  5  6  1  0
  6  7  1  0
  7  8  2  0
  8  9  1  0
  9 10  2  0
 10 11  1  0
 11 12  2  0
 12 13  1  0
 13 14  1  0
 13 15  2  0
 12 16  1  0
 16 17  1  0
 17 18  2  0
 17 19  1  0
 19 20  2  3
 20 21  1  0
 21 22  2  0
 21 23  1  0
 16 24  1  0
 24 25  2  0
 25  7  1  0
 24 10  1  0
  1 26  1  0
  1 27  1  0
  1 28  1  0
  3 29  1  0
  3 30  1  0
  3 31  1  0
  4 32  1  0
  4 33  1  0
  5 34  1  0
  5 35  1  0
  6 36  1  0
  6 37  1  0
  8 38  1  0
  9 39  1  0
 11 40  1  0
 14 41  1  0
 19 42  1  0
 20 43  1  0
 25 44  1  0
M  CHG  3   6   1  14  -1  23  -1
M  END
>  <UniqueID>  (66) 
66

>  <SMILES>  (66) 
CN(C)CC[NH2+]c1ccc2cc(C([NH-])=O)n(C(=O)C=CC(=O)[O-])c2c1

>  <Energy>  (66) 
81.22251079872746

>  <Genealogy>  (66) 
CN(C)CC[NH2+]c1ccc2cc(C([NH-])=O)n(C(=O)C=CC(=O)[O-])c2c1 (protonated)
CN(C)CC[NH2+]c1ccc2cc(C([NH-])=O)n(C(=O)C=CC(=O)[O-])c2c1 (3D coordinates assigned)
CN(C)CC[NH2+]c1ccc2cc(C([NH-])=O)n(C(=O)C=CC(=O)[O-])c2c1 (optimized conformer: 81.22251079872746 kcal/mol)

>  <smiles>  (66) 
CN(C)CCNc1ccc2cc(C(N)=O)n(C(=O)C=CC(=O)O)c2c1

>  <score_type>  (66) 
oracle

>  <origin>  (66) 
adg

>  <m_score__min__energy>  (66) 
-11.57

>  <m_primary>  (66) 
energy

$$$$
68:0
     RDKit          3D

 46 47  0  0  0  0  0  0  0  0999 V2000
   -0.6210   22.7550  -29.9530 C   0  0  0  0  0  0  0  0  0  0  0  0
   -0.9840   24.1450  -29.6710 N   0  0  0  0  0  0  0  0  0  0  0  0
   -0.4520   24.5590  -28.3670 C   0  0  0  0  0  0  0  0  0  0  0  0
   -1.5780   25.0580  -27.4550 C   0  0  0  0  0  0  0  0  0  0  0  0
   -2.8430   24.9580  -28.1100 O   0  0  0  0  0  0  0  0  0  0  0  0
   -3.9030   24.1870  -27.6230 C   0  0  0  0  0  0  0  0  0  0  0  0
   -4.3550   24.3800  -26.4600 O   0  0  0  0  0  0  0  0  0  0  0  0
   -4.4430   23.1860  -28.4350 O   0  0  0  0  0  0  0  0  0  0  0  0
   -3.6380   22.1920  -29.0590 C   0  0  0  0  0  0  0  0  0  0  0  0
   -3.3050   22.6200  -30.3750 O   0  0  0  0  0  0  0  0  0  0  0  0
   -4.1440   22.4450  -31.4760 C   0  0  0  0  0  0  0  0  0  0  0  0
   -3.7160   21.8840  -32.5210 O   0  0  0  0  0  0  0  0  0  0  0  0
   -5.5090   22.8890  -31.4010 N   0  0  0  0  0  0  0  0  0  0  0  0
   -5.9760   24.1120  -31.0190 C   0  0  0  0  0  0  0  0  0  0  0  0
   -5.1700   25.2190  -30.4620 C   0  0  0  0  0  0  0  0  0  0  0  0
   -3.7660   25.2920  -30.6910 N   0  0  0  0  0  0  0  0  0  0  0  0
   -5.7210   26.0830  -29.7290 O   0  0  0  0  0  0  0  0  0  0  0  0
   -7.3640   24.1620  -31.1310 C   0  0  0  0  0  0  0  0  0  0  0  0
   -7.7390   22.9160  -31.5810 C   0  0  0  0  0  0  0  0  0  0  0  0
   -9.0040   22.4140  -31.8690 C   0  0  0  0  0  0  0  0  0  0  0  0
   -9.0970   21.0950  -32.3450 C   0  0  0  0  0  0  0  0  0  0  0  0
   -7.9310   20.3080  -32.5280 C   0  0  0  0  0  0  0  0  0  0  0  0
   -8.0340   18.9750  -33.0670 N   0  0  0  0  0  0  0  0  0  0  0  0
   -7.7600   17.9860  -32.0220 C   0  0  0  0  0  0  0  0  0  0  0  0
   -6.6630   20.8580  -32.2310 C   0  0  0  0  0  0  0  0  0  0  0  0
   -6.6020   22.1670  -31.7380 C   0  0  0  0  0  0  0  0  0  0  0  0
   -0.4796   22.2136  -29.0060 H   0  0  0  0  0  0  0  0  0  0  0  0
   -1.4243   22.2766  -30.5325 H   0  0  0  0  0  0  0  0  0  0  0  0
    0.3137   22.7305  -30.5325 H   0  0  0  0  0  0  0  0  0  0  0  0
   -2.0290   24.1920  -29.6260 H   0  0  0  0  0  0  0  0  0  0  0  0
    0.0445   23.7007  -27.8908 H   0  0  0  0  0  0  0  0  0  0  0  0
    0.2658   25.3779  -28.5223 H   0  0  0  0  0  0  0  0  0  0  0  0
   -1.5970   24.4490  -26.5392 H   0  0  0  0  0  0  0  0  0  0  0  0
   -1.3908   26.1137  -27.2090 H   0  0  0  0  0  0  0  0  0  0  0  0
   -2.7171   22.0444  -28.4757 H   0  0  0  0  0  0  0  0  0  0  0  0
   -4.1925   21.2432  -29.1074 H   0  0  0  0  0  0  0  0  0  0  0  0
   -3.0970   24.7520  -30.1000 H   0  0  0  0  0  0  0  0  0  0  0  0
   -8.0207   25.0157  -30.9074 H   0  0  0  0  0  0  0  0  0  0  0  0
   -9.9040   23.0306  -31.7284 H   0  0  0  0  0  0  0  0  0  0  0  0
  -10.0838   20.6686  -32.5780 H   0  0  0  0  0  0  0  0  0  0  0  0
   -8.9950   18.8110  -33.4480 H   0  0  0  0  0  0  0  0  0  0  0  0
   -7.3490   18.8510  -33.8490 H   0  0  0  0  0  0  0  0  0  0  0  0
   -7.8890   18.4515  -31.0337 H   0  0  0  0  0  0  0  0  0  0  0  0
   -8.4582   17.1421  -32.1237 H   0  0  0  0  0  0  0  0  0  0  0  0
   -6.7271   17.6217  -32.1237 H   0  0  0  0  0  0  0  0  0  0  0  0
   -5.7453   20.2710  -32.3837 H   0  0  0  0  0  0  0  0  0  0  0  0
  1  2  1  0
  2  3  1  0
  3  4  1  0
  4  5  1  0
  5  6  1  0
  6  7  2  0
  6  8  1  0
  8  9  1  0
  9 10  1  0
 10 11  1  0
 11 12  2  0
 11 13  1  0
 13 14  1  0
 14 15  1  0
 15 16  1  0
 15 17  2  0
 14 18  2  0
 18 19  1  0
 19 20  2  0
 20 21  1  0
 21 22  2  0
 22 23  1  0
 23 24  1  0
 22 25  1  0
 25 26  2  0
 26 13  1  0
 26 19  1  0
  1 27  1  0
  1 28  1  0
  1 29  1  0
  2 30  1  0
  3 31  1  0
  3 32  1  0
  4 33  1  0
  4 34  1  0
  9 35  1  0
  9 36  1  0
 16 37  1  0
 18 38  1  0
 20 39  1  0
 21 40  1  0
 23 41  1  0
 23 42  1  0
 24 43  1  0
 24 44  1  0
 24 45  1  0
 25 46  1  0
M  CHG  2  16  -1  23   1
M  END
>  <UniqueID>  (67) 
67

>  <SMILES>  (67) 
CNCCOC(=O)OCOC(=O)n1c(C([NH-])=O)cc2ccc([NH2+]C)cc21

>  <Energy>  (67) 
74.91664308864928

>  <Genealogy>  (67) 
CNCCOC(=O)OCOC(=O)n1c(C([NH-])=O)cc2ccc([NH2+]C)cc21 (protonated)
CNCCOC(=O)OCOC(=O)n1c(C([NH-])=O)cc2ccc([NH2+]C)cc21 (3D coordinates assigned)
CNCCOC(=O)OCOC(=O)n1c(C([NH-])=O)cc2ccc([NH2+]C)cc21 (optimized conformer: 74.91664308864928 kcal/mol)

>  <smiles>  (67) 
CNCCOC(=O)OCOC(=O)n1c(C(N)=O)cc2ccc(NC)cc21

>  <score_type>  (67) 
oracle

>  <origin>  (67) 
adg

>  <m_score__min__energy>  (67) 
-8.4399999999999995

>  <m_primary>  (67) 
energy

$$$$
69:0
     RDKit          3D

 50 51  0  0  0  0  0  0  0  0999 V2000
   -1.2360   26.2880  -27.7970 C   0  0  0  0  0  0  0  0  0  0  0  0
   -1.7440   25.6840  -28.9670 O   0  0  0  0  0  0  0  0  0  0  0  0
   -1.0830   24.4590  -29.2190 C   0  0  0  0  0  0  0  0  0  0  0  0
   -0.8910   23.6820  -27.9190 C   0  0  0  0  0  0  0  0  0  0  0  0
   -2.1420   23.1910  -27.4860 O   0  0  0  0  0  0  0  0  0  0  0  0
   -1.9910   21.8660  -27.0160 C   0  0  0  0  0  0  0  0  0  0  0  0
   -2.9320   20.9480  -27.7830 C   0  0  0  0  0  0  0  0  0  0  0  0
   -3.0810   21.4400  -29.0980 O   0  0  0  0  0  0  0  0  0  0  0  0
   -1.9080   21.1930  -29.8440 C   0  0  0  0  0  0  0  0  0  0  0  0
   -2.2880   20.6040  -31.2010 C   0  0  0  0  0  0  0  0  0  0  0  0
   -2.9550   21.5870  -31.9930 O   0  0  0  0  0  0  0  0  0  0  0  0
   -3.7000   22.6390  -31.4440 C   0  0  0  0  0  0  0  0  0  0  0  0
   -3.1640   23.7630  -31.2390 O   0  0  0  0  0  0  0  0  0  0  0  0
   -5.0900   22.4480  -31.1460 N   0  0  0  0  0  0  0  0  0  0  0  0
   -5.9090   23.2620  -30.4230 C   0  0  0  0  0  0  0  0  0  0  0  0
   -5.4670   24.4350  -29.6350 C   0  0  0  0  0  0  0  0  0  0  0  0
   -4.1650   24.4740  -29.0470 N   0  0  0  0  0  0  0  0  0  0  0  0
   -6.2330   25.4240  -29.4920 O   0  0  0  0  0  0  0  0  0  0  0  0
   -7.2230   22.7990  -30.4720 C   0  0  0  0  0  0  0  0  0  0  0  0
   -7.1840   21.6730  -31.2620 C   0  0  0  0  0  0  0  0  0  0  0  0
   -8.2150   20.8430  -31.6910 C   0  0  0  0  0  0  0  0  0  0  0  0
   -7.8950   19.7870  -32.5620 C   0  0  0  0  0  0  0  0  0  0  0  0
   -6.5550   19.5710  -32.9760 C   0  0  0  0  0  0  0  0  0  0  0  0
   -6.2240   18.4840  -33.9670 C   0  0  0  0  0  0  0  0  0  0  0  0
   -7.1720   17.4830  -33.8770 F   0  0  0  0  0  0  0  0  0  0  0  0
   -6.2240   18.9900  -35.2560 F   0  0  0  0  0  0  0  0  0  0  0  0
   -4.9740   17.9460  -33.7120 F   0  0  0  0  0  0  0  0  0  0  0  0
   -5.5390   20.4470  -32.5310 C   0  0  0  0  0  0  0  0  0  0  0  0
   -5.8860   21.4820  -31.6550 C   0  0  0  0  0  0  0  0  0  0  0  0
   -1.6574   25.7869  -26.9131 H   0  0  0  0  0  0  0  0  0  0  0  0
   -0.1400   26.1958  -27.7830 H   0  0  0  0  0  0  0  0  0  0  0  0
   -1.5147   27.3520  -27.7830 H   0  0  0  0  0  0  0  0  0  0  0  0
   -1.6864   23.8578  -29.9151 H   0  0  0  0  0  0  0  0  0  0  0  0
   -0.0968   24.6690  -29.6588 H   0  0  0  0  0  0  0  0  0  0  0  0
   -0.2042   22.8401  -28.0909 H   0  0  0  0  0  0  0  0  0  0  0  0
   -0.4663   24.3443  -27.1503 H   0  0  0  0  0  0  0  0  0  0  0  0
   -0.9523   21.5382  -27.1695 H   0  0  0  0  0  0  0  0  0  0  0  0
   -2.2320   21.8266  -25.9434 H   0  0  0  0  0  0  0  0  0  0  0  0
   -2.5120   19.9318  -27.8145 H   0  0  0  0  0  0  0  0  0  0  0  0
   -3.9116   20.9175  -27.2836 H   0  0  0  0  0  0  0  0  0  0  0  0
   -1.3616   22.1360  -29.9927 H   0  0  0  0  0  0  0  0  0  0  0  0
   -1.2679   20.4828  -29.3001 H   0  0  0  0  0  0  0  0  0  0  0  0
   -1.3774   20.2736  -31.7221 H   0  0  0  0  0  0  0  0  0  0  0  0
   -2.9619   19.7485  -31.0462 H   0  0  0  0  0  0  0  0  0  0  0  0
   -3.5320   23.6450  -29.0740 H   0  0  0  0  0  0  0  0  0  0  0  0
   -3.8520   25.3220  -28.5250 H   0  0  0  0  0  0  0  0  0  0  0  0
   -8.1040   23.2401  -29.9829 H   0  0  0  0  0  0  0  0  0  0  0  0
   -9.2504   21.0083  -31.3583 H   0  0  0  0  0  0  0  0  0  0  0  0
   -8.6914   19.1214  -32.9263 H   0  0  0  0  0  0  0  0  0  0  0  0
   -4.4991   20.3183  -32.8656 H   0  0  0  0  0  0  0  0  0  0  0  0
  1  2  1  0
  2  3  1  0
  3  4  1  0
  4  5  1  0
  5  6  1  0
  6  7  1  0
  7  8  1  0
  8  9  1  0
  9 10  1  0
 10 11  1  0
 11 12  1  0
 12 13  2  0
 12 14  1  0
 14 15  1  0
 15 16  1  0
 16 17  1  0
 16 18  2  0
 15 19  2  0
 19 20  1  0
 20 21  2  0
 21 22  1  0
 22 23  2  0
 23 24  1  0
 24 25  1  0
 24 26  1  0
 24 27  1  0
 23 28  1  0
 28 29  2  0
 29 14  1  0
 29 20  1  0
  1 30  1  0
  1 31  1  0
  1 32  1  0
  3 33  1  0
  3 34  1  0
  4 35  1  0
  4 36  1  0
  6 37  1  0
  6 38  1  0
  7 39  1  0
  7 40  1  0
  9 41  1  0
  9 42  1  0
 10 43  1  0
 10 44  1  0
 17 45  1  0
 17 46  1  0
 19 47  1  0
 21 48  1  0
 22 49  1  0
 28 50  1  0
M  END
>  <UniqueID>  (68) 
68

>  <SMILES>  (68) 
COCCOCCOCCOC(=O)n1c(C(N)=O)cc2ccc(C(F)(F)F)cc21

>  <Energy>  (68) 
83.7273813652807

>  <Genealogy>  (68) 
COCCOCCOCCOC(=O)n1c(C(N)=O)cc2ccc(C(F)(F)F)cc21 (3D coordinates assigned)
COCCOCCOCCOC(=O)n1c(C(N)=O)cc2ccc(C(F)(F)F)cc21 (optimized conformer: 83.7273813652807 kcal/mol)

>  <smiles>  (68) 
COCCOCCOCCOC(=O)n1c(C(N)=O)cc2ccc(C(F)(F)F)cc21

>  <score_type>  (68) 
oracle

>  <origin>  (68) 
adg

>  <m_score__min__energy>  (68) 
-7.6299999999999999

>  <m_primary>  (68) 
energy

$$$$
70:0
     RDKit          3D

 41 42  0  0  0  0  0  0  0  0999 V2000
   -7.6570   17.7880  -32.8010 C   0  0  0  0  0  0  0  0  0  0  0  0
   -7.6680   19.2140  -32.3430 C   0  0  0  0  0  0  0  0  0  0  0  0
   -8.8720   19.9610  -32.3620 C   0  0  0  0  0  0  0  0  0  0  0  0
   -8.8910   21.3030  -31.9410 C   0  0  0  0  0  0  0  0  0  0  0  0
   -7.6970   21.8630  -31.4970 C   0  0  0  0  0  0  0  0  0  0  0  0
   -7.4160   23.1470  -31.0870 C   0  0  0  0  0  0  0  0  0  0  0  0
   -6.0510   23.1480  -30.7920 C   0  0  0  0  0  0  0  0  0  0  0  0
   -5.2750   24.3370  -30.3630 C   0  0  0  0  0  0  0  0  0  0  0  0
   -5.3040   24.7900  -29.0080 N   0  0  0  0  0  0  0  0  0  0  0  0
   -4.5870   24.9820  -31.2020 O   0  0  0  0  0  0  0  0  0  0  0  0
   -5.5280   21.9060  -30.9870 N   0  0  0  0  0  0  0  0  0  0  0  0
   -4.1570   21.5060  -30.8790 C   0  0  0  0  0  0  0  0  0  0  0  0
   -3.6870   20.7120  -31.7390 O   0  0  0  0  0  0  0  0  0  0  0  0
   -3.3210   21.9960  -29.8100 N   0  0  0  0  0  0  0  0  0  0  0  0
   -3.3530   21.3100  -28.5170 C   0  0  0  0  0  0  0  0  0  0  0  0
   -2.3400   23.0690  -30.0380 C   0  0  0  0  0  0  0  0  0  0  0  0
   -2.2210   24.0290  -28.8400 C   0  0  2  0  0  0  0  0  0  0  0  0
   -2.6950   25.2930  -29.2220 O   0  0  0  0  0  0  0  0  0  0  0  0
   -0.7720   24.1830  -28.3540 C   0  0  0  0  0  0  0  0  0  0  0  0
   -0.3830   25.5290  -28.3220 O   0  0  0  0  0  0  0  0  0  0  0  0
   -6.5360   21.1410  -31.4420 C   0  0  0  0  0  0  0  0  0  0  0  0
   -6.4810   19.8090  -31.8610 C   0  0  0  0  0  0  0  0  0  0  0  0
   -7.6519   17.1218  -31.9257 H   0  0  0  0  0  0  0  0  0  0  0  0
   -8.5536   17.5905  -33.4068 H   0  0  0  0  0  0  0  0  0  0  0  0
   -6.7574   17.6044  -33.4068 H   0  0  0  0  0  0  0  0  0  0  0  0
   -9.8015   19.4864  -32.7096 H   0  0  0  0  0  0  0  0  0  0  0  0
   -9.8203   21.8912  -31.9621 H   0  0  0  0  0  0  0  0  0  0  0  0
   -8.1167   23.9913  -31.0086 H   0  0  0  0  0  0  0  0  0  0  0  0
   -5.8450   24.2920  -28.2720 H   0  0  0  0  0  0  0  0  0  0  0  0
   -4.7880   25.6560  -28.7370 H   0  0  0  0  0  0  0  0  0  0  0  0
   -3.3183   22.0531  -27.7067 H   0  0  0  0  0  0  0  0  0  0  0  0
   -4.2795   20.7226  -28.4364 H   0  0  0  0  0  0  0  0  0  0  0  0
   -2.4852   20.6389  -28.4364 H   0  0  0  0  0  0  0  0  0  0  0  0
   -1.3562   22.6130  -30.2228 H   0  0  0  0  0  0  0  0  0  0  0  0
   -2.6845   23.6564  -30.9019 H   0  0  0  0  0  0  0  0  0  0  0  0
   -2.8139   23.6050  -28.0162 H   0  0  0  0  0  0  0  0  0  0  0  0
   -1.9880   25.7090  -29.7710 H   0  0  0  0  0  0  0  0  0  0  0  0
   -0.6877   23.7621  -27.3412 H   0  0  0  0  0  0  0  0  0  0  0  0
   -0.1135   23.6492  -29.0550 H   0  0  0  0  0  0  0  0  0  0  0  0
   -1.1370   26.0350  -27.9130 H   0  0  0  0  0  0  0  0  0  0  0  0
   -5.5405   19.2403  -31.8168 H   0  0  0  0  0  0  0  0  0  0  0  0
  1  2  1  0
  2  3  2  0
  3  4  1  0
  4  5  2  0
  5  6  1  0
  6  7  2  0
  7  8  1  0
  8  9  1  0
  8 10  2  0
  7 11  1  0
 11 12  1  0
 12 13  2  0
 12 14  1  0
 14 15  1  0
 14 16  1  0
 16 17  1  0
 17 18  1  0
 17 19  1  0
 19 20  1  0
 11 21  1  0
 21 22  2  0
 22  2  1  0
 21  5  1  0
  1 23  1  0
  1 24  1  0
  1 25  1  0
  3 26  1  0
  4 27  1  0
  6 28  1  0
  9 29  1  0
  9 30  1  0
 15 31  1  0
 15 32  1  0
 15 33  1  0
 16 34  1  0
 16 35  1  0
 17 36  1  1
 18 37  1  0
 19 38  1  0
 19 39  1  0
 20 40  1  0
 22 41  1  0
M  END
>  <UniqueID>  (69) 
69

>  <SMILES>  (69) 
Cc1ccc2cc(C(N)=O)n(C(=O)N(C)C[C@H](O)CO)c2c1

>  <Energy>  (69) 
75.07813984473943

>  <Genealogy>  (69) 
Cc1ccc2cc(C(N)=O)n(C(=O)N(C)C[C@H](O)CO)c2c1 (chirality)
Cc1ccc2cc(C(N)=O)n(C(=O)N(C)C[C@H](O)CO)c2c1 (3D coordinates assigned)
Cc1ccc2cc(C(N)=O)n(C(=O)N(C)C[C@H](O)CO)c2c1 (optimized conformer: 75.07813984473943 kcal/mol)

>  <smiles>  (69) 
Cc1ccc2cc(C(N)=O)n(C(=O)N(C)CC(O)CO)c2c1

>  <score_type>  (69) 
oracle

>  <origin>  (69) 
adg

>  <m_score__min__energy>  (69) 
-8.4800000000000004

>  <m_primary>  (69) 
energy

$$$$
71:0
     RDKit          3D

 37 38  0  0  0  0  0  0  0  0999 V2000
   -3.1160   25.0240  -30.9930 H   0  0  0  0  0  0  0  0  0  0  0  0
   -3.9140   25.6760  -30.8220 N   0  0  0  0  0  0  0  0  0  0  0  0
   -5.2430   25.1830  -30.6710 C   0  0  0  0  0  0  0  0  0  0  0  0
   -6.1320   25.9390  -30.1960 O   0  0  0  0  0  0  0  0  0  0  0  0
   -5.5750   23.8140  -31.1140 C   0  0  0  0  0  0  0  0  0  0  0  0
   -6.8230   23.4540  -31.6170 C   0  0  0  0  0  0  0  0  0  0  0  0
   -7.6752   24.1178  -31.8247 H   0  0  0  0  0  0  0  0  0  0  0  0
   -6.7630   22.0900  -31.7990 C   0  0  0  0  0  0  0  0  0  0  0  0
   -7.7240   21.2080  -32.2770 C   0  0  0  0  0  0  0  0  0  0  0  0
   -8.7230   21.5631  -32.5699 H   0  0  0  0  0  0  0  0  0  0  0  0
   -7.3820   19.8500  -32.3750 C   0  0  0  0  0  0  0  0  0  0  0  0
   -8.1270   19.1300  -32.7446 H   0  0  0  0  0  0  0  0  0  0  0  0
   -6.0870   19.3890  -32.0040 C   0  0  0  0  0  0  0  0  0  0  0  0
   -5.7440   17.9840  -32.1190 N   0  0  0  0  0  0  0  0  0  0  0  0
   -6.1100   17.0440  -31.0520 C   0  0  0  0  0  0  0  0  0  0  0  0
   -5.9280   17.5115  -30.0731 H   0  0  0  0  0  0  0  0  0  0  0  0
   -7.1751   16.7840  -31.1418 H   0  0  0  0  0  0  0  0  0  0  0  0
   -5.5012   16.1323  -31.1418 H   0  0  0  0  0  0  0  0  0  0  0  0
   -5.0030   17.4700  -33.2820 C   0  0  0  0  0  0  0  0  0  0  0  0
   -4.1621   18.1446  -33.5006 H   0  0  0  0  0  0  0  0  0  0  0  0
   -4.6336   16.4610  -33.0466 H   0  0  0  0  0  0  0  0  0  0  0  0
   -5.8920   17.3870  -34.4860 C   0  0  0  0  0  0  0  0  0  0  0  0
   -5.7500   18.2010  -35.4360 O   0  0  0  0  0  0  0  0  0  0  0  0
   -6.8520   16.3880  -34.5740 O   0  0  0  0  0  0  0  0  0  0  0  0
   -5.1410   20.3280  -31.5200 C   0  0  0  0  0  0  0  0  0  0  0  0
   -4.1302   20.0058  -31.2293 H   0  0  0  0  0  0  0  0  0  0  0  0
   -5.5170   21.6720  -31.4190 C   0  0  0  0  0  0  0  0  0  0  0  0
   -4.7680   22.7200  -31.0090 N   0  0  0  0  0  0  0  0  0  0  0  0
   -3.3980   22.6590  -30.5700 C   0  0  0  0  0  0  0  0  0  0  0  0
   -2.4730   22.7820  -31.4150 O   0  0  0  0  0  0  0  0  0  0  0  0
   -3.0320   22.3910  -29.1620 C   0  0  0  0  0  0  0  0  0  0  0  0
   -3.4837   21.5076  -28.6871 H   0  0  0  0  0  0  0  0  0  0  0  0
   -2.1990   23.1280  -28.4120 C   0  0  0  0  0  0  0  0  0  0  0  0
   -2.1676   22.9086  -27.3346 H   0  0  0  0  0  0  0  0  0  0  0  0
   -1.3220   24.2060  -28.9040 C   0  0  0  0  0  0  0  0  0  0  0  0
   -0.0710   24.0760  -28.9150 O   0  0  0  0  0  0  0  0  0  0  0  0
   -1.8830   25.4210  -29.2760 O   0  0  0  0  0  0  0  0  0  0  0  0
  1  2  1  0
  2  3  1  0
  3  4  2  0
  3  5  1  0
  5  6  2  0
  6  7  1  0
  6  8  1  0
  8  9  2  0
  9 10  1  0
  9 11  1  0
 11 12  1  0
 11 13  2  0
 13 14  1  0
 14 15  1  0
 15 16  1  0
 15 17  1  0
 15 18  1  0
 14 19  1  0
 19 20  1  0
 19 21  1  0
 19 22  1  0
 22 23  2  0
 22 24  1  0
 13 25  1  0
 25 26  1  0
 25 27  2  0
 27 28  1  0
 28 29  1  0
 29 30  2  0
 29 31  1  0
 31 32  1  0
 31 33  2  0
 33 34  1  0
 33 35  1  0
 35 36  2  0
 35 37  1  0
 28  5  1  0
 27  8  1  0
M  CHG  3   2  -1  24  -1  37  -1
M  END
>  <UniqueID>  (70) 
70

>  <SMILES>  (70) 
CN(CC(=O)[O-])c1ccc2cc(C([NH-])=O)n(C(=O)/C=C\C(=O)[O-])c2c1

>  <Energy>  (70) 
83.6135798752935

>  <Genealogy>  (70) 
CN(CC(=O)[O-])c1ccc2cc(C([NH-])=O)n(C(=O)/C=C\C(=O)[O-])c2c1 (protonated)
CN(CC(=O)[O-])c1ccc2cc(C([NH-])=O)n(C(=O)/C=C\C(=O)[O-])c2c1 (cis-trans isomerization)
CN(CC(=O)[O-])c1ccc2cc(C([NH-])=O)n(C(=O)/C=C\C(=O)[O-])c2c1 (3D coordinates assigned)
CN(CC(=O)[O-])c1ccc2cc(C([NH-])=O)n(C(=O)/C=C\C(=O)[O-])c2c1 (optimized conformer: 83.6135798752935 kcal/mol)

>  <smiles>  (70) 
CN(CC(=O)O)c1ccc2cc(C(N)=O)n(C(=O)/C=C\C(=O)O)c2c1

>  <score_type>  (70) 
oracle

>  <origin>  (70) 
adg

>  <m_score__min__energy>  (70) 
-11.93

>  <m_primary>  (70) 
energy

$$$$
72:0
     RDKit          3D

 62 65  0  0  0  0  0  0  0  0999 V2000
    0.8750   15.0910  -36.0200 C   0  0  0  0  0  0  0  0  0  0  0  0
   -0.4060   15.6230  -35.5510 N   0  0  0  0  0  0  0  0  0  0  0  0
   -1.5720   15.1040  -36.0390 C   0  0  0  0  0  0  0  0  0  0  0  0
   -2.8050   15.5740  -35.5820 C   0  0  0  0  0  0  0  0  0  0  0  0
   -2.8520   16.5770  -34.6010 C   0  0  0  0  0  0  0  0  0  0  0  0
   -4.1530   17.0900  -34.1020 C   0  0  0  0  0  0  0  0  0  0  0  0
   -4.6690   16.6630  -32.8700 C   0  0  0  0  0  0  0  0  0  0  0  0
   -5.8960   17.1550  -32.4200 C   0  0  0  0  0  0  0  0  0  0  0  0
   -6.6000   18.0570  -33.1660 N   0  0  0  0  0  0  0  0  0  0  0  0
   -7.9050   18.5320  -32.6930 C   0  0  0  0  0  0  0  0  0  0  0  0
   -7.7810   19.9330  -32.1600 C   0  0  0  0  0  0  0  0  0  0  0  0
   -8.9050   20.5760  -31.5870 C   0  0  0  0  0  0  0  0  0  0  0  0
   -8.7880   21.8590  -31.0280 C   0  0  0  0  0  0  0  0  0  0  0  0
   -7.5380   22.4710  -31.0560 C   0  0  0  0  0  0  0  0  0  0  0  0
   -7.1380   23.6890  -30.5540 C   0  0  0  0  0  0  0  0  0  0  0  0
   -5.7770   23.7780  -30.8410 C   0  0  0  0  0  0  0  0  0  0  0  0
   -4.9490   24.9690  -30.5520 C   0  0  0  0  0  0  0  0  0  0  0  0
   -3.6590   24.8320  -29.9520 N   0  0  0  0  0  0  0  0  0  0  0  0
   -5.3890   26.1210  -30.8040 O   0  0  0  0  0  0  0  0  0  0  0  0
   -5.3520   22.6590  -31.4930 N   0  0  0  0  0  0  0  0  0  0  0  0
   -4.0090   22.3380  -31.8890 C   0  0  0  0  0  0  0  0  0  0  0  0
   -3.7860   21.8410  -33.0260 O   0  0  0  0  0  0  0  0  0  0  0  0
   -2.9530   22.5630  -31.0010 O   0  0  0  0  0  0  0  0  0  0  0  0
   -1.6590   21.9970  -31.1820 C   0  0  0  0  0  0  0  0  0  0  0  0
   -1.1450   21.4190  -29.8610 C   0  0  0  0  0  0  0  0  0  0  0  0
   -1.4510   22.2980  -28.6340 C   0  0  0  0  0  0  0  0  0  0  0  0
   -0.6360   23.5990  -28.5920 C   0  0  0  0  0  0  0  0  0  0  0  0
   -1.2310   24.5950  -29.3790 O   0  0  0  0  0  0  0  0  0  0  0  0
   -6.4410   21.8670  -31.6160 C   0  0  0  0  0  0  0  0  0  0  0  0
   -6.5260   20.5820  -32.1630 C   0  0  0  0  0  0  0  0  0  0  0  0
   -6.1200   18.4800  -34.3750 C   0  0  0  0  0  0  0  0  0  0  0  0
   -4.8970   18.0100  -34.8580 C   0  0  0  0  0  0  0  0  0  0  0  0
   -1.6420   17.0800  -34.0990 C   0  0  0  0  0  0  0  0  0  0  0  0
   -0.4280   16.5860  -34.5810 C   0  0  0  0  0  0  0  0  0  0  0  0
    1.5026   14.8304  -35.1550 H   0  0  0  0  0  0  0  0  0  0  0  0
    0.6979   14.1920  -36.6287 H   0  0  0  0  0  0  0  0  0  0  0  0
    1.3869   15.8509  -36.6287 H   0  0  0  0  0  0  0  0  0  0  0  0
   -1.5391   14.3090  -36.7985 H   0  0  0  0  0  0  0  0  0  0  0  0
   -3.7383   15.1588  -35.9902 H   0  0  0  0  0  0  0  0  0  0  0  0
   -4.1077   15.9411  -32.2586 H   0  0  0  0  0  0  0  0  0  0  0  0
   -6.2994   16.8129  -31.4555 H   0  0  0  0  0  0  0  0  0  0  0  0
   -8.6207   18.5222  -33.5283 H   0  0  0  0  0  0  0  0  0  0  0  0
   -8.2601   17.8703  -31.8892 H   0  0  0  0  0  0  0  0  0  0  0  0
   -9.8794   20.0655  -31.5797 H   0  0  0  0  0  0  0  0  0  0  0  0
   -9.6571   22.3646  -30.5819 H   0  0  0  0  0  0  0  0  0  0  0  0
   -7.7604   24.4338  -30.0363 H   0  0  0  0  0  0  0  0  0  0  0  0
   -3.2390   23.8930  -29.7800 H   0  0  0  0  0  0  0  0  0  0  0  0
   -3.1000   25.6800  -29.7150 H   0  0  0  0  0  0  0  0  0  0  0  0
   -1.7152   21.1945  -31.9323 H   0  0  0  0  0  0  0  0  0  0  0  0
   -0.9683   22.7824  -31.5229 H   0  0  0  0  0  0  0  0  0  0  0  0
   -1.6132   20.4355  -29.7079 H   0  0  0  0  0  0  0  0  0  0  0  0
   -0.0499   21.3572  -29.9443 H   0  0  0  0  0  0  0  0  0  0  0  0
   -2.5199   22.5574  -28.6497 H   0  0  0  0  0  0  0  0  0  0  0  0
   -1.1754   21.7154  -27.7426 H   0  0  0  0  0  0  0  0  0  0  0  0
   -0.5761   23.9516  -27.5518 H   0  0  0  0  0  0  0  0  0  0  0  0
    0.3687   23.3939  -28.9902 H   0  0  0  0  0  0  0  0  0  0  0  0
   -1.6300   24.1380  -30.1640 H   0  0  0  0  0  0  0  0  0  0  0  0
   -5.6377   20.0892  -32.5850 H   0  0  0  0  0  0  0  0  0  0  0  0
   -6.7027   19.1969  -34.9722 H   0  0  0  0  0  0  0  0  0  0  0  0
   -4.5171   18.3599  -35.8292 H   0  0  0  0  0  0  0  0  0  0  0  0
   -1.6497   17.8629  -33.3263 H   0  0  0  0  0  0  0  0  0  0  0  0
    0.5183   16.9749  -34.1769 H   0  0  0  0  0  0  0  0  0  0  0  0
  1  2  1  0
  2  3  2  0
  3  4  1  0
  4  5  2  0
  5  6  1  0
  6  7  2  0
  7  8  1  0
  8  9  2  0
  9 10  1  0
 10 11  1  0
 11 12  2  0
 12 13  1  0
 13 14  2  0
 14 15  1  0
 15 16  2  0
 16 17  1  0
 17 18  1  0
 17 19  2  0
 16 20  1  0
 20 21  1  0
 21 22  2  0
 21 23  1  0
 23 24  1  0
 24 25  1  0
 25 26  1  0
 26 27  1  0
 27 28  1  0
 20 29  1  0
 29 30  2  0
  9 31  1  0
 31 32  2  0
  5 33  1  0
 33 34  2  0
 34  2  1  0
 32  6  1  0
 30 11  1  0
 29 14  1  0
  1 35  1  0
  1 36  1  0
  1 37  1  0
  3 38  1  0
  4 39  1  0
  7 40  1  0
  8 41  1  0
 10 42  1  0
 10 43  1  0
 12 44  1  0
 13 45  1  0
 15 46  1  0
 18 47  1  0
 18 48  1  0
 24 49  1  0
 24 50  1  0
 25 51  1  0
 25 52  1  0
 26 53  1  0
 26 54  1  0
 27 55  1  0
 27 56  1  0
 28 57  1  0
 30 58  1  0
 31 59  1  0
 32 60  1  0
 33 61  1  0
 34 62  1  0
M  CHG  2   2   1   9   1
M  END
>  <UniqueID>  (71) 
71

>  <SMILES>  (71) 
C[n+]1ccc(-c2cc[n+](Cc3ccc4cc(C(N)=O)n(C(=O)OCCCCO)c4c3)cc2)cc1

>  <Energy>  (71) 
102.38761278174835

>  <Genealogy>  (71) 
C[n+]1ccc(-c2cc[n+](Cc3ccc4cc(C(N)=O)n(C(=O)OCCCCO)c4c3)cc2)cc1 (3D coordinates assigned)
C[n+]1ccc(-c2cc[n+](Cc3ccc4cc(C(N)=O)n(C(=O)OCCCCO)c4c3)cc2)cc1 (optimized conformer: 102.38761278174835 kcal/mol)

>  <smiles>  (71) 
C[n+]1ccc(-c2cc[n+](Cc3ccc4cc(C(N)=O)n(C(=O)OCCCCO)c4c3)cc2)cc1

>  <score_type>  (71) 
oracle

>  <origin>  (71) 
adg

>  <m_score__min__energy>  (71) 
-9.4199999999999999

>  <m_primary>  (71) 
energy

$$$$
73:0
     RDKit          3D

 37 38  0  0  0  0  0  0  0  0999 V2000
   -7.1480   17.3530  -32.7280 C   0  0  0  0  0  0  0  0  0  0  0  0
   -6.5760   18.5460  -33.3630 N   0  0  0  0  0  0  0  0  0  0  0  0
   -5.7780   18.3850  -34.5860 C   0  0  0  0  0  0  0  0  0  0  0  0
   -6.7930   19.8630  -32.7920 C   0  0  0  0  0  0  0  0  0  0  0  0
   -8.1140   20.3560  -32.5870 C   0  0  0  0  0  0  0  0  0  0  0  0
   -8.3360   21.6240  -32.0240 C   0  0  0  0  0  0  0  0  0  0  0  0
   -7.2280   22.3890  -31.6820 C   0  0  0  0  0  0  0  0  0  0  0  0
   -7.1600   23.6340  -31.0990 C   0  0  0  0  0  0  0  0  0  0  0  0
   -5.8000   23.9090  -30.9750 C   0  0  0  0  0  0  0  0  0  0  0  0
   -5.2730   25.1930  -30.4680 C   0  0  0  0  0  0  0  0  0  0  0  0
   -3.9970   25.6760  -30.8810 N   0  0  0  0  0  0  0  0  0  0  0  0
   -5.9800   25.8970  -29.6980 O   0  0  0  0  0  0  0  0  0  0  0  0
   -5.0570   22.8710  -31.4540 N   0  0  0  0  0  0  0  0  0  0  0  0
   -3.6290   22.7270  -31.4140 C   0  0  0  0  0  0  0  0  0  0  0  0
   -3.0180   22.2330  -32.4000 O   0  0  0  0  0  0  0  0  0  0  0  0
   -2.9250   23.1200  -30.2720 O   0  0  0  0  0  0  0  0  0  0  0  0
   -3.2120   22.6060  -28.9760 C   0  0  0  0  0  0  0  0  0  0  0  0
   -3.0460   23.7090  -27.9360 C   0  0  0  0  0  0  0  0  0  0  0  0
   -2.7880   24.9390  -28.5590 O   0  0  0  0  0  0  0  0  0  0  0  0
   -5.9470   21.9500  -31.8850 C   0  0  0  0  0  0  0  0  0  0  0  0
   -5.6950   20.6830  -32.4250 C   0  0  0  0  0  0  0  0  0  0  0  0
   -7.0969   17.4596  -31.6344 H   0  0  0  0  0  0  0  0  0  0  0  0
   -8.1978   17.2409  -33.0368 H   0  0  0  0  0  0  0  0  0  0  0  0
   -6.5781   16.4643  -33.0368 H   0  0  0  0  0  0  0  0  0  0  0  0
   -4.7326   18.1741  -34.3166 H   0  0  0  0  0  0  0  0  0  0  0  0
   -6.1796   17.5498  -35.1786 H   0  0  0  0  0  0  0  0  0  0  0  0
   -5.8243   19.3106  -35.1786 H   0  0  0  0  0  0  0  0  0  0  0  0
   -8.9743   19.7336  -32.8743 H   0  0  0  0  0  0  0  0  0  0  0  0
   -9.3566   21.9997  -31.8590 H   0  0  0  0  0  0  0  0  0  0  0  0
   -8.0006   24.2753  -30.7956 H   0  0  0  0  0  0  0  0  0  0  0  0
   -3.1170   25.2630  -30.4990 H   0  0  0  0  0  0  0  0  0  0  0  0
   -4.2467   22.2334  -28.9515 H   0  0  0  0  0  0  0  0  0  0  0  0
   -2.5173   21.7840  -28.7486 H   0  0  0  0  0  0  0  0  0  0  0  0
   -3.9697   23.7900  -27.3442 H   0  0  0  0  0  0  0  0  0  0  0  0
   -2.1973   23.4567  -27.2833 H   0  0  0  0  0  0  0  0  0  0  0  0
   -3.4920   25.0630  -29.2470 H   0  0  0  0  0  0  0  0  0  0  0  0
   -4.6626   20.3292  -32.5624 H   0  0  0  0  0  0  0  0  0  0  0  0
  1  2  1  0
  2  3  1  0
  2  4  1  0
  4  5  2  0
  5  6  1  0
  6  7  2  0
  7  8  1  0
  8  9  2  0
  9 10  1  0
 10 11  1  0
 10 12  2  0
  9 13  1  0
 13 14  1  0
 14 15  2  0
 14 16  1  0
 16 17  1  0
 17 18  1  0
 18 19  1  0
 13 20  1  0
 20 21  2  0
 21  4  1  0
 20  7  1  0
  1 22  1  0
  1 23  1  0
  1 24  1  0
  3 25  1  0
  3 26  1  0
  3 27  1  0
  5 28  1  0
  6 29  1  0
  8 30  1  0
 11 31  1  0
 17 32  1  0
 17 33  1  0
 18 34  1  0
 18 35  1  0
 19 36  1  0
 21 37  1  0
M  CHG  1  11  -1
M  END
>  <UniqueID>  (72) 
72

>  <SMILES>  (72) 
CN(C)c1ccc2cc(C([NH-])=O)n(C(=O)OCCO)c2c1

>  <Energy>  (72) 
72.80626838419904

>  <Genealogy>  (72) 
CN(C)c1ccc2cc(C([NH-])=O)n(C(=O)OCCO)c2c1 (protonated)
CN(C)c1ccc2cc(C([NH-])=O)n(C(=O)OCCO)c2c1 (3D coordinates assigned)
CN(C)c1ccc2cc(C([NH-])=O)n(C(=O)OCCO)c2c1 (optimized conformer: 72.80626838419904 kcal/mol)

>  <smiles>  (72) 
CN(C)c1ccc2cc(C(N)=O)n(C(=O)OCCO)c2c1

>  <score_type>  (72) 
oracle

>  <origin>  (72) 
adg

>  <m_score__min__energy>  (72) 
-10.15

>  <m_primary>  (72) 
energy

$$$$
75:0
     RDKit          3D

 37 38  0  0  0  0  0  0  0  0999 V2000
   -7.5010   22.8870  -30.3870 C   0  0  0  0  0  0  0  0  0  0  0  0
   -6.6380   22.3260  -31.4300 N   0  0  0  0  0  0  0  0  0  0  0  0
   -5.5700   23.1510  -32.0150 C   0  0  0  0  0  0  0  0  0  0  0  0
   -4.2010   22.8080  -31.4060 C   0  0  0  0  0  0  0  0  0  0  0  0
   -3.9770   23.4260  -30.0180 C   0  0  0  0  0  0  0  0  0  0  0  0
   -3.5020   24.8440  -30.1040 C   0  0  0  0  0  0  0  0  0  0  0  0
   -4.0980   25.6670  -30.8480 O   0  0  0  0  0  0  0  0  0  0  0  0
   -2.4190   25.2630  -29.3420 O   0  0  0  0  0  0  0  0  0  0  0  0
   -6.8540   20.9750  -31.8840 C   0  0  0  0  0  0  0  0  0  0  0  0
   -8.1520   20.4060  -31.8410 C   0  0  0  0  0  0  0  0  0  0  0  0
   -8.3730   19.0910  -32.2790 C   0  0  0  0  0  0  0  0  0  0  0  0
   -7.2840   18.3700  -32.7570 C   0  0  0  0  0  0  0  0  0  0  0  0
   -7.2190   17.0750  -33.2150 C   0  0  0  0  0  0  0  0  0  0  0  0
   -5.8820   16.8670  -33.5460 C   0  0  0  0  0  0  0  0  0  0  0  0
   -5.3800   15.6060  -34.1340 C   0  0  0  0  0  0  0  0  0  0  0  0
   -4.2070   15.6200  -34.9460 N   0  0  0  0  0  0  0  0  0  0  0  0
   -5.9550   14.5100  -33.9070 O   0  0  0  0  0  0  0  0  0  0  0  0
   -5.1460   17.9900  -33.3020 N   0  0  0  0  0  0  0  0  0  0  0  0
   -3.7270   18.1500  -33.4730 C   0  0  0  0  0  0  0  0  0  0  0  0
   -3.2470   18.5510  -34.5660 O   0  0  0  0  0  0  0  0  0  0  0  0
   -6.0220   18.9020  -32.8160 C   0  0  0  0  0  0  0  0  0  0  0  0
   -5.7710   20.2050  -32.3660 C   0  0  0  0  0  0  0  0  0  0  0  0
   -7.0980   22.6251  -29.3975 H   0  0  0  0  0  0  0  0  0  0  0  0
   -7.5369   23.9816  -30.4903 H   0  0  0  0  0  0  0  0  0  0  0  0
   -8.5159   22.4755  -30.4903 H   0  0  0  0  0  0  0  0  0  0  0  0
   -5.5339   22.9735  -33.1000 H   0  0  0  0  0  0  0  0  0  0  0  0
   -5.7904   24.2070  -31.8000 H   0  0  0  0  0  0  0  0  0  0  0  0
   -4.1234   21.7144  -31.3170 H   0  0  0  0  0  0  0  0  0  0  0  0
   -3.4347   23.2270  -32.0748 H   0  0  0  0  0  0  0  0  0  0  0  0
   -4.9257   23.4026  -29.4617 H   0  0  0  0  0  0  0  0  0  0  0  0
   -3.2005   22.8385  -29.5063 H   0  0  0  0  0  0  0  0  0  0  0  0
   -8.9948   21.0016  -31.4603 H   0  0  0  0  0  0  0  0  0  0  0  0
   -9.3775   18.6440  -32.2452 H   0  0  0  0  0  0  0  0  0  0  0  0
   -8.0470   16.3560  -33.3016 H   0  0  0  0  0  0  0  0  0  0  0  0
   -3.6970   16.5110  -35.1380 H   0  0  0  0  0  0  0  0  0  0  0  0
   -3.0509   17.9187  -32.6367 H   0  0  0  0  0  0  0  0  0  0  0  0
   -4.7525   20.6200  -32.3874 H   0  0  0  0  0  0  0  0  0  0  0  0
  1  2  1  0
  2  3  1  0
  3  4  1  0
  4  5  1  0
  5  6  1  0
  6  7  2  0
  6  8  1  0
  2  9  1  0
  9 10  2  0
 10 11  1  0
 11 12  2  0
 12 13  1  0
 13 14  2  0
 14 15  1  0
 15 16  1  0
 15 17  2  0
 14 18  1  0
 18 19  1  0
 19 20  2  0
 18 21  1  0
 21 22  2  0
 22  9  1  0
 21 12  1  0
  1 23  1  0
  1 24  1  0
  1 25  1  0
  3 26  1  0
  3 27  1  0
  4 28  1  0
  4 29  1  0
  5 30  1  0
  5 31  1  0
 10 32  1  0
 11 33  1  0
 13 34  1  0
 16 35  1  0
 19 36  1  0
 22 37  1  0
M  CHG  2   8  -1  16  -1
M  END
>  <UniqueID>  (73) 
73

>  <SMILES>  (73) 
CN(CCCC(=O)[O-])c1ccc2cc(C([NH-])=O)n(C=O)c2c1

>  <Energy>  (73) 
72.12659028663188

>  <Genealogy>  (73) 
CN(CCCC(=O)[O-])c1ccc2cc(C([NH-])=O)n(C=O)c2c1 (protonated)
CN(CCCC(=O)[O-])c1ccc2cc(C([NH-])=O)n(C=O)c2c1 (3D coordinates assigned)
CN(CCCC(=O)[O-])c1ccc2cc(C([NH-])=O)n(C=O)c2c1 (optimized conformer: 72.12659028663188 kcal/mol)

>  <smiles>  (73) 
CN(CCCC(=O)O)c1ccc2cc(C(N)=O)n(C=O)c2c1

>  <score_type>  (73) 
oracle

>  <origin>  (73) 
adg

>  <m_score__min__energy>  (73) 
-9.4800000000000004

>  <m_primary>  (73) 
energy

$$$$
76:0
     RDKit          3D

 37 38  0  0  0  0  0  0  0  0999 V2000
   -7.0620   18.3410  -32.3850 C   0  0  0  0  0  0  0  0  0  0  0  0
   -7.1930   19.7930  -32.0290 C   0  0  0  0  0  0  0  0  0  0  0  0
   -8.4510   20.4400  -32.1170 C   0  0  0  0  0  0  0  0  0  0  0  0
   -8.5750   21.8080  -31.8260 C   0  0  0  0  0  0  0  0  0  0  0  0
   -7.4250   22.5020  -31.4560 C   0  0  0  0  0  0  0  0  0  0  0  0
   -7.2510   23.8370  -31.1670 C   0  0  0  0  0  0  0  0  0  0  0  0
   -5.8910   23.9820  -30.9050 C   0  0  0  0  0  0  0  0  0  0  0  0
   -5.2730   25.2490  -30.4650 C   0  0  0  0  0  0  0  0  0  0  0  0
   -3.9380   25.5630  -30.8600 N   0  0  0  0  0  0  0  0  0  0  0  0
   -5.9260   26.0740  -29.7720 O   0  0  0  0  0  0  0  0  0  0  0  0
   -5.2480   22.7880  -31.0340 N   0  0  0  0  0  0  0  0  0  0  0  0
   -3.8380   22.5420  -30.9410 C   0  0  0  0  0  0  0  0  0  0  0  0
   -3.0580   23.0560  -31.7880 O   0  0  0  0  0  0  0  0  0  0  0  0
   -3.3430   21.7690  -29.8820 O   0  0  0  0  0  0  0  0  0  0  0  0
   -2.0690   21.9030  -29.3140 C   0  0  0  0  0  0  0  0  0  0  0  0
   -1.0470   21.5040  -29.9360 O   0  0  0  0  0  0  0  0  0  0  0  0
   -1.9260   22.4950  -28.0090 N   0  0  0  0  0  0  0  0  0  0  0  0
   -1.5450   21.6560  -26.8690 C   0  0  0  0  0  0  0  0  0  0  0  0
   -2.1960   23.9230  -27.8090 C   0  0  0  0  0  0  0  0  0  0  0  0
   -1.2080   24.7440  -28.5720 C   0  0  0  0  0  0  0  0  0  0  0  0
   -1.6040   25.6570  -29.3480 O   0  0  0  0  0  0  0  0  0  0  0  0
    0.1520   24.5140  -28.4150 O   0  0  0  0  0  0  0  0  0  0  0  0
   -6.2010   21.8900  -31.3670 C   0  0  0  0  0  0  0  0  0  0  0  0
   -6.0470   20.5320  -31.6670 C   0  0  0  0  0  0  0  0  0  0  0  0
   -7.0079   17.7412  -31.4645 H   0  0  0  0  0  0  0  0  0  0  0  0
   -7.9356   18.0280  -32.9757 H   0  0  0  0  0  0  0  0  0  0  0  0
   -6.1465   18.1895  -32.9757 H   0  0  0  0  0  0  0  0  0  0  0  0
   -9.3393   19.8645  -32.4164 H   0  0  0  0  0  0  0  0  0  0  0  0
   -9.5489   22.3155  -31.8882 H   0  0  0  0  0  0  0  0  0  0  0  0
   -8.0218   24.6215  -31.1473 H   0  0  0  0  0  0  0  0  0  0  0  0
   -3.1520   24.9050  -30.6610 H   0  0  0  0  0  0  0  0  0  0  0  0
   -1.7832   22.1805  -25.9319 H   0  0  0  0  0  0  0  0  0  0  0  0
   -2.1007   20.7076  -26.9098 H   0  0  0  0  0  0  0  0  0  0  0  0
   -0.4652   21.4503  -26.9098 H   0  0  0  0  0  0  0  0  0  0  0  0
   -3.2116   24.1543  -28.1627 H   0  0  0  0  0  0  0  0  0  0  0  0
   -2.1098   24.1592  -26.7381 H   0  0  0  0  0  0  0  0  0  0  0  0
   -5.0578   20.0529  -31.6218 H   0  0  0  0  0  0  0  0  0  0  0  0
  1  2  1  0
  2  3  2  0
  3  4  1  0
  4  5  2  0
  5  6  1  0
  6  7  2  0
  7  8  1  0
  8  9  1  0
  8 10  2  0
  7 11  1  0
 11 12  1  0
 12 13  2  0
 12 14  1  0
 14 15  1  0
 15 16  2  0
 15 17  1  0
 17 18  1  0
 17 19  1  0
 19 20  1  0
 20 21  2  0
 20 22  1  0
 11 23  1  0
 23 24  2  0
 24  2  1  0
 23  5  1  0
  1 25  1  0
  1 26  1  0
  1 27  1  0
  3 28  1  0
  4 29  1  0
  6 30  1  0
  9 31  1  0
 18 32  1  0
 18 33  1  0
 18 34  1  0
 19 35  1  0
 19 36  1  0
 24 37  1  0
M  CHG  2   9  -1  22  -1
M  END
>  <UniqueID>  (74) 
74

>  <SMILES>  (74) 
Cc1ccc2cc(C([NH-])=O)n(C(=O)OC(=O)N(C)CC(=O)[O-])c2c1

>  <Energy>  (74) 
72.1953278012663

>  <Genealogy>  (74) 
Cc1ccc2cc(C([NH-])=O)n(C(=O)OC(=O)N(C)CC(=O)[O-])c2c1 (protonated)
Cc1ccc2cc(C([NH-])=O)n(C(=O)OC(=O)N(C)CC(=O)[O-])c2c1 (3D coordinates assigned)
Cc1ccc2cc(C([NH-])=O)n(C(=O)OC(=O)N(C)CC(=O)[O-])c2c1 (optimized conformer: 72.1953278012663 kcal/mol)

>  <smiles>  (74) 
Cc1ccc2cc(C(N)=O)n(C(=O)OC(=O)N(C)CC(=O)O)c2c1

>  <score_type>  (74) 
oracle

>  <origin>  (74) 
adg

>  <m_score__min__energy>  (74) 
-12.34

>  <m_primary>  (74) 
energy

$$$$
77:0
     RDKit          3D

 53 54  0  0  0  0  0  0  0  0999 V2000
   -0.6150   19.7230  -30.2420 C   0  0  0  0  0  0  0  0  0  0  0  0
   -0.9360   20.1100  -28.8660 N   0  0  0  0  0  0  0  0  0  0  0  0
   -2.3410   20.1760  -28.4410 C   0  0  0  0  0  0  0  0  0  0  0  0
   -2.9810   21.4960  -28.8680 C   0  0  0  0  0  0  0  0  0  0  0  0
   -3.4890   21.3910  -30.1940 O   0  0  0  0  0  0  0  0  0  0  0  0
   -3.8740   22.5130  -30.9370 C   0  0  0  0  0  0  0  0  0  0  0  0
   -3.0150   23.1960  -31.5570 O   0  0  0  0  0  0  0  0  0  0  0  0
   -5.2530   22.8960  -30.9850 N   0  0  0  0  0  0  0  0  0  0  0  0
   -5.7800   24.1430  -30.8270 C   0  0  0  0  0  0  0  0  0  0  0  0
   -5.0260   25.3630  -30.4700 C   0  0  0  0  0  0  0  0  0  0  0  0
   -3.6590   25.2940  -30.0670 N   0  0  0  0  0  0  0  0  0  0  0  0
   -5.6030   26.4820  -30.4970 O   0  0  0  0  0  0  0  0  0  0  0  0
   -7.1600   24.1130  -31.0190 C   0  0  0  0  0  0  0  0  0  0  0  0
   -7.4610   22.7990  -31.3020 C   0  0  0  0  0  0  0  0  0  0  0  0
   -8.6800   22.2050  -31.6130 C   0  0  0  0  0  0  0  0  0  0  0  0
   -8.6860   20.8310  -31.9090 C   0  0  0  0  0  0  0  0  0  0  0  0
   -7.4830   20.0780  -31.8940 C   0  0  0  0  0  0  0  0  0  0  0  0
   -7.5310   18.6120  -32.2360 C   0  0  0  0  0  0  0  0  0  0  0  0
   -7.0000   18.4140  -33.4980 F   0  0  0  0  0  0  0  0  0  0  0  0
   -6.8090   17.8510  -31.3320 F   0  0  0  0  0  0  0  0  0  0  0  0
   -8.8450   18.1800  -32.2280 F   0  0  0  0  0  0  0  0  0  0  0  0
   -6.2650   20.7200  -31.5650 C   0  0  0  0  0  0  0  0  0  0  0  0
   -6.2920   22.0860  -31.2710 C   0  0  0  0  0  0  0  0  0  0  0  0
    0.1320   20.4280  -27.9540 C   0  0  0  0  0  0  0  0  0  0  0  0
    1.0390   19.5790  -27.7310 O   0  0  0  0  0  0  0  0  0  0  0  0
    0.1630   21.6670  -27.3050 O   0  0  0  0  0  0  0  0  0  0  0  0
   -0.7360   22.0100  -26.2540 C   0  0  0  0  0  0  0  0  0  0  0  0
   -0.0620   22.7720  -25.2550 O   0  0  0  0  0  0  0  0  0  0  0  0
   -0.4330   24.0800  -24.9310 C   0  0  0  0  0  0  0  0  0  0  0  0
   -0.8610   24.3520  -23.7770 O   0  0  0  0  0  0  0  0  0  0  0  0
   -0.2530   25.1890  -25.9260 C   0  0  0  0  0  0  0  0  0  0  0  0
   -1.3420   25.2050  -27.0080 C   0  0  0  0  0  0  0  0  0  0  0  0
   -0.7730   25.1460  -28.3960 C   0  0  0  0  0  0  0  0  0  0  0  0
   -1.2570   25.8600  -29.3130 O   0  0  0  0  0  0  0  0  0  0  0  0
    0.3250   24.3380  -28.6630 O   0  0  0  0  0  0  0  0  0  0  0  0
    0.0872   18.8764  -30.2304 H   0  0  0  0  0  0  0  0  0  0  0  0
   -1.5369   19.4276  -30.7644 H   0  0  0  0  0  0  0  0  0  0  0  0
   -0.1543   20.5744  -30.7644 H   0  0  0  0  0  0  0  0  0  0  0  0
   -2.8948   19.3431  -28.8988 H   0  0  0  0  0  0  0  0  0  0  0  0
   -2.3788   20.1071  -27.3438 H   0  0  0  0  0  0  0  0  0  0  0  0
   -3.8054   21.7387  -28.1814 H   0  0  0  0  0  0  0  0  0  0  0  0
   -2.2201   22.2898  -28.8374 H   0  0  0  0  0  0  0  0  0  0  0  0
   -2.8900   25.2860  -30.7730 H   0  0  0  0  0  0  0  0  0  0  0  0
   -7.8603   24.9591  -30.9576 H   0  0  0  0  0  0  0  0  0  0  0  0
   -9.6100   22.7923  -31.6268 H   0  0  0  0  0  0  0  0  0  0  0  0
   -9.6353   20.3329  -32.1555 H   0  0  0  0  0  0  0  0  0  0  0  0
   -5.3201   20.1573  -31.5413 H   0  0  0  0  0  0  0  0  0  0  0  0
   -1.5654   22.6040  -26.6654 H   0  0  0  0  0  0  0  0  0  0  0  0
   -1.1233   21.0865  -25.7989 H   0  0  0  0  0  0  0  0  0  0  0  0
   -0.2774   26.1490  -25.3895 H   0  0  0  0  0  0  0  0  0  0  0  0
    0.7107   25.0258  -26.4307 H   0  0  0  0  0  0  0  0  0  0  0  0
   -2.0002   24.3363  -26.8592 H   0  0  0  0  0  0  0  0  0  0  0  0
   -1.8945   26.1514  -26.9128 H   0  0  0  0  0  0  0  0  0  0  0  0
  1  2  1  0
  2  3  1  0
  3  4  1  0
  4  5  1  0
  5  6  1  0
  6  7  2  0
  6  8  1  0
  8  9  1  0
  9 10  1  0
 10 11  1  0
 10 12  2  0
  9 13  2  0
 13 14  1  0
 14 15  2  0
 15 16  1  0
 16 17  2  0
 17 18  1  0
 18 19  1  0
 18 20  1  0
 18 21  1  0
 17 22  1  0
 22 23  2  0
  2 24  1  0
 24 25  2  0
 24 26  1  0
 26 27  1  0
 27 28  1  0
 28 29  1  0
 29 30  2  0
 29 31  1  0
 31 32  1  0
 32 33  1  0
 33 34  2  0
 33 35  1  0
 23  8  1  0
 23 14  1  0
  1 36  1  0
  1 37  1  0
  1 38  1  0
  3 39  1  0
  3 40  1  0
  4 41  1  0
  4 42  1  0
 11 43  1  0
 13 44  1  0
 15 45  1  0
 16 46  1  0
 22 47  1  0
 27 48  1  0
 27 49  1  0
 31 50  1  0
 31 51  1  0
 32 52  1  0
 32 53  1  0
M  CHG  2  11  -1  35  -1
M  END
>  <UniqueID>  (75) 
75

>  <SMILES>  (75) 
CN(CCOC(=O)n1c(C([NH-])=O)cc2ccc(C(F)(F)F)cc21)C(=O)OCOC(=O)CCC(=O)[O-]

>  <Energy>  (75) 
74.79166883999444

>  <Genealogy>  (75) 
CN(CCOC(=O)n1c(C([NH-])=O)cc2ccc(C(F)(F)F)cc21)C(=O)OCOC(=O)CCC(=O)[O-] (protonated)
CN(CCOC(=O)n1c(C([NH-])=O)cc2ccc(C(F)(F)F)cc21)C(=O)OCOC(=O)CCC(=O)[O-] (3D coordinates assigned)
CN(CCOC(=O)n1c(C([NH-])=O)cc2ccc(C(F)(F)F)cc21)C(=O)OCOC(=O)CCC(=O)[O-] (optimized conformer: 74.79166883999444 kcal/mol)

>  <smiles>  (75) 
CN(CCOC(=O)n1c(C(N)=O)cc2ccc(C(F)(F)F)cc21)C(=O)OCOC(=O)CCC(=O)O

>  <score_type>  (75) 
oracle

>  <origin>  (75) 
adg

>  <m_score__min__energy>  (75) 
-11.48

>  <m_primary>  (75) 
energy

$$$$
78:0
     RDKit          3D

 36 37  0  0  0  0  0  0  0  0999 V2000
   -2.8340   19.9670  -33.4900 C   0  0  0  0  0  0  0  0  0  0  0  0
   -2.5060   21.0490  -32.7860 C   0  0  0  0  0  0  0  0  0  0  0  0
   -3.3120   22.1960  -32.7180 O   0  0  0  0  0  0  0  0  0  0  0  0
   -3.8260   22.7620  -31.5420 C   0  0  0  0  0  0  0  0  0  0  0  0
   -3.0520   23.1510  -30.6260 O   0  0  0  0  0  0  0  0  0  0  0  0
   -5.2400   22.9740  -31.4190 N   0  0  0  0  0  0  0  0  0  0  0  0
   -5.8750   24.0360  -30.8490 C   0  0  0  0  0  0  0  0  0  0  0  0
   -5.2320   25.2840  -30.3880 C   0  0  0  0  0  0  0  0  0  0  0  0
   -3.9320   25.6510  -30.8430 N   0  0  0  0  0  0  0  0  0  0  0  0
   -5.8580   26.0630  -29.6200 O   0  0  0  0  0  0  0  0  0  0  0  0
   -7.2520   23.8290  -30.8250 C   0  0  0  0  0  0  0  0  0  0  0  0
   -7.4470   22.6000  -31.4110 C   0  0  0  0  0  0  0  0  0  0  0  0
   -8.6230   21.8910  -31.6320 C   0  0  0  0  0  0  0  0  0  0  0  0
   -8.5250   20.6230  -32.2280 C   0  0  0  0  0  0  0  0  0  0  0  0
   -7.2630   20.0880  -32.5920 C   0  0  0  0  0  0  0  0  0  0  0  0
   -7.1720   18.7670  -33.1620 N   0  0  0  0  0  0  0  0  0  0  0  0
   -6.1050   18.7270  -34.1710 C   0  0  0  0  0  0  0  0  0  0  0  0
   -5.7200   17.2810  -34.5010 C   0  0  0  0  0  0  0  0  0  0  0  0
   -6.5030   16.3880  -33.7580 O   0  0  0  0  0  0  0  0  0  0  0  0
   -6.0880   20.8350  -32.3400 C   0  0  0  0  0  0  0  0  0  0  0  0
   -6.2170   22.1030  -31.7620 C   0  0  0  0  0  0  0  0  0  0  0  0
   -2.1617   19.0965  -33.5059 H   0  0  0  0  0  0  0  0  0  0  0  0
   -3.7772   19.9438  -34.0555 H   0  0  0  0  0  0  0  0  0  0  0  0
   -1.5566   21.0434  -32.2305 H   0  0  0  0  0  0  0  0  0  0  0  0
   -3.0750   25.2940  -30.3650 H   0  0  0  0  0  0  0  0  0  0  0  0
   -8.0208   24.5051  -30.4227 H   0  0  0  0  0  0  0  0  0  0  0  0
   -9.5997   22.3104  -31.3487 H   0  0  0  0  0  0  0  0  0  0  0  0
   -9.4377   20.0381  -32.4146 H   0  0  0  0  0  0  0  0  0  0  0  0
   -8.0870   18.5110  -33.6040 H   0  0  0  0  0  0  0  0  0  0  0  0
   -6.9720   18.0700  -32.4070 H   0  0  0  0  0  0  0  0  0  0  0  0
   -6.4565   19.2243  -35.0870 H   0  0  0  0  0  0  0  0  0  0  0  0
   -5.2209   19.2436  -33.7690 H   0  0  0  0  0  0  0  0  0  0  0  0
   -5.8805   17.0985  -35.5738 H   0  0  0  0  0  0  0  0  0  0  0  0
   -4.6611   17.1256  -34.2468 H   0  0  0  0  0  0  0  0  0  0  0  0
   -6.4770   15.5200  -34.2380 H   0  0  0  0  0  0  0  0  0  0  0  0
   -5.0973   20.4290  -32.5923 H   0  0  0  0  0  0  0  0  0  0  0  0
  1  2  2  0
  2  3  1  0
  3  4  1  0
  4  5  2  0
  4  6  1  0
  6  7  1  0
  7  8  1  0
  8  9  1  0
  8 10  2  0
  7 11  2  0
 11 12  1  0
 12 13  2  0
 13 14  1  0
 14 15  2  0
 15 16  1  0
 16 17  1  0
 17 18  1  0
 18 19  1  0
 15 20  1  0
 20 21  2  0
 21  6  1  0
 21 12  1  0
  1 22  1  0
  1 23  1  0
  2 24  1  0
  9 25  1  0
 11 26  1  0
 13 27  1  0
 14 28  1  0
 16 29  1  0
 16 30  1  0
 17 31  1  0
 17 32  1  0
 18 33  1  0
 18 34  1  0
 19 35  1  0
 20 36  1  0
M  CHG  2   9  -1  16   1
M  END
>  <UniqueID>  (76) 
76

>  <SMILES>  (76) 
C=COC(=O)n1c(C([NH-])=O)cc2ccc([NH2+]CCO)cc21

>  <Energy>  (76) 
76.77791640714791

>  <Genealogy>  (76) 
C=COC(=O)n1c(C([NH-])=O)cc2ccc([NH2+]CCO)cc21 (protonated)
C=COC(=O)n1c(C([NH-])=O)cc2ccc([NH2+]CCO)cc21 (3D coordinates assigned)
C=COC(=O)n1c(C([NH-])=O)cc2ccc([NH2+]CCO)cc21 (optimized conformer: 76.77791640714791 kcal/mol)

>  <smiles>  (76) 
C=COC(=O)n1c(C(N)=O)cc2ccc(NCCO)cc21

>  <score_type>  (76) 
oracle

>  <origin>  (76) 
adg

>  <m_score__min__energy>  (76) 
-8.9900000000000002

>  <m_primary>  (76) 
energy

$$$$
79:0
     RDKit          3D

 38 39  0  0  0  0  0  0  0  0999 V2000
   -3.0490   19.8550  -33.5140 C   0  0  0  0  0  0  0  0  0  0  0  0
   -2.4610   20.9910  -32.6860 C   0  0  0  0  0  0  0  0  0  0  0  0
   -3.3040   22.1390  -32.7380 O   0  0  0  0  0  0  0  0  0  0  0  0
   -3.8020   22.7850  -31.6010 C   0  0  0  0  0  0  0  0  0  0  0  0
   -3.0180   23.1660  -30.6880 O   0  0  0  0  0  0  0  0  0  0  0  0
   -5.2160   22.9870  -31.4580 N   0  0  0  0  0  0  0  0  0  0  0  0
   -5.8600   24.0410  -30.8790 C   0  0  0  0  0  0  0  0  0  0  0  0
   -5.2290   25.2880  -30.4000 C   0  0  0  0  0  0  0  0  0  0  0  0
   -3.9270   25.6670  -30.8380 N   0  0  0  0  0  0  0  0  0  0  0  0
   -5.8680   26.0530  -29.6300 O   0  0  0  0  0  0  0  0  0  0  0  0
   -7.2360   23.8270  -30.8730 C   0  0  0  0  0  0  0  0  0  0  0  0
   -7.4190   22.6060  -31.4810 C   0  0  0  0  0  0  0  0  0  0  0  0
   -8.5900   21.8990  -31.7380 C   0  0  0  0  0  0  0  0  0  0  0  0
   -8.4780   20.6460  -32.3630 C   0  0  0  0  0  0  0  0  0  0  0  0
   -7.2120   20.1160  -32.7130 C   0  0  0  0  0  0  0  0  0  0  0  0
   -7.1470   18.8210  -33.3440 N   0  0  0  0  0  0  0  0  0  0  0  0
   -7.0130   17.5520  -32.6270 C   0  0  0  0  0  0  0  0  0  0  0  0
   -6.3230   16.5060  -33.5070 C   0  0  0  0  0  0  0  0  0  0  0  0
   -5.2360   17.1390  -34.3160 C   0  0  0  0  0  0  0  0  0  0  0  0
   -5.5220   17.8380  -35.3250 O   0  0  0  0  0  0  0  0  0  0  0  0
   -3.9050   16.9170  -33.9880 O   0  0  0  0  0  0  0  0  0  0  0  0
   -6.0430   20.8630  -32.4240 C   0  0  0  0  0  0  0  0  0  0  0  0
   -6.1860   22.1190  -31.8230 C   0  0  0  0  0  0  0  0  0  0  0  0
   -3.4495   19.0812  -32.8426 H   0  0  0  0  0  0  0  0  0  0  0  0
   -3.8586   20.2447  -34.1486 H   0  0  0  0  0  0  0  0  0  0  0  0
   -2.2633   19.4190  -34.1486 H   0  0  0  0  0  0  0  0  0  0  0  0
   -2.3617   20.6626  -31.6409 H   0  0  0  0  0  0  0  0  0  0  0  0
   -1.4758   21.2560  -33.0972 H   0  0  0  0  0  0  0  0  0  0  0  0
   -3.0720   25.3020  -30.3600 H   0  0  0  0  0  0  0  0  0  0  0  0
   -8.0123   24.4929  -30.4680 H   0  0  0  0  0  0  0  0  0  0  0  0
   -9.5724   22.3086  -31.4604 H   0  0  0  0  0  0  0  0  0  0  0  0
   -9.3872   20.0677  -32.5839 H   0  0  0  0  0  0  0  0  0  0  0  0
   -7.2210   18.7730  -34.3860 H   0  0  0  0  0  0  0  0  0  0  0  0
   -6.4141   17.7117  -31.7183 H   0  0  0  0  0  0  0  0  0  0  0  0
   -8.0162   17.1866  -32.3623 H   0  0  0  0  0  0  0  0  0  0  0  0
   -5.8894   15.7234  -32.8671 H   0  0  0  0  0  0  0  0  0  0  0  0
   -7.0663   16.0682  -34.1895 H   0  0  0  0  0  0  0  0  0  0  0  0
   -5.0465   20.4651  -32.6663 H   0  0  0  0  0  0  0  0  0  0  0  0
  1  2  1  0
  2  3  1  0
  3  4  1  0
  4  5  2  0
  4  6  1  0
  6  7  1  0
  7  8  1  0
  8  9  1  0
  8 10  2  0
  7 11  2  0
 11 12  1  0
 12 13  2  0
 13 14  1  0
 14 15  2  0
 15 16  1  0
 16 17  1  0
 17 18  1  0
 18 19  1  0
 19 20  2  0
 19 21  1  0
 15 22  1  0
 22 23  2  0
 23  6  1  0
 23 12  1  0
  1 24  1  0
  1 25  1  0
  1 26  1  0
  2 27  1  0
  2 28  1  0
  9 29  1  0
 11 30  1  0
 13 31  1  0
 14 32  1  0
 16 33  1  0
 17 34  1  0
 17 35  1  0
 18 36  1  0
 18 37  1  0
 22 38  1  0
M  CHG  2   9  -1  21  -1
M  END
>  <UniqueID>  (77) 
77

>  <SMILES>  (77) 
CCOC(=O)n1c(C([NH-])=O)cc2ccc(NCCC(=O)[O-])cc21

>  <Energy>  (77) 
69.26443293646562

>  <Genealogy>  (77) 
CCOC(=O)n1c(C([NH-])=O)cc2ccc(NCCC(=O)[O-])cc21 (protonated)
CCOC(=O)n1c(C([NH-])=O)cc2ccc(NCCC(=O)[O-])cc21 (3D coordinates assigned)
CCOC(=O)n1c(C([NH-])=O)cc2ccc(NCCC(=O)[O-])cc21 (optimized conformer: 69.26443293646562 kcal/mol)

>  <smiles>  (77) 
CCOC(=O)n1c(C(N)=O)cc2ccc(NCCC(=O)O)cc21

>  <score_type>  (77) 
oracle

>  <origin>  (77) 
adg

>  <m_score__min__energy>  (77) 
-9.5600000000000005

>  <m_primary>  (77) 
energy

$$$$
80:0
     RDKit          3D

 55 58  0  0  0  0  0  0  0  0999 V2000
   -0.7610   26.8710  -23.6660 C   0  0  0  0  0  0  0  0  0  0  0  0
   -1.4570   27.1420  -24.8780 O   0  0  0  0  0  0  0  0  0  0  0  0
   -1.5050   26.2710  -25.9760 C   0  0  0  0  0  0  0  0  0  0  0  0
   -0.4280   26.1260  -26.8720 C   0  0  0  0  0  0  0  0  0  0  0  0
   -0.5210   25.2460  -27.9530 C   0  0  0  0  0  0  0  0  0  0  0  0
   -1.6880   24.4970  -28.1570 C   0  0  0  0  0  0  0  0  0  0  0  0
   -1.7890   23.6100  -29.2410 C   0  0  0  0  0  0  0  0  0  0  0  0
   -2.9600   22.8580  -29.4420 C   0  0  0  0  0  0  0  0  0  0  0  0
   -3.0650   21.9220  -30.5910 C   0  0  0  0  0  0  0  0  0  0  0  0
   -1.9100   21.5710  -31.3380 C   0  0  0  0  0  0  0  0  0  0  0  0
   -1.9950   20.6770  -32.4170 C   0  0  0  0  0  0  0  0  0  0  0  0
   -3.2450   20.1570  -32.7360 C   0  0  0  0  0  0  0  0  0  0  0  0
   -3.6010   19.2470  -33.7050 C   0  0  0  0  0  0  0  0  0  0  0  0
   -4.9750   19.0760  -33.5600 C   0  0  0  0  0  0  0  0  0  0  0  0
   -5.7840   18.2130  -34.4440 C   0  0  0  0  0  0  0  0  0  0  0  0
   -6.8670   17.4370  -33.9290 N   0  0  0  0  0  0  0  0  0  0  0  0
   -5.5490   18.2010  -35.6820 O   0  0  0  0  0  0  0  0  0  0  0  0
   -5.4500   19.8390  -32.5360 N   0  0  0  0  0  0  0  0  0  0  0  0
   -6.7850   19.8390  -32.0020 C   0  0  0  0  0  0  0  0  0  0  0  0
   -7.1520   18.9140  -31.2300 O   0  0  0  0  0  0  0  0  0  0  0  0
   -7.6650   20.8750  -32.3540 O   0  0  0  0  0  0  0  0  0  0  0  0
   -7.7270   22.1790  -31.7580 C   0  0  0  0  0  0  0  0  0  0  0  0
   -9.1180   22.8090  -31.9720 C   0  0  0  0  0  0  0  0  0  0  0  0
   -7.4900   22.0000  -30.2520 C   0  0  0  0  0  0  0  0  0  0  0  0
   -6.6250   23.0900  -32.3320 C   0  0  0  0  0  0  0  0  0  0  0  0
   -4.3770   20.4980  -32.0430 C   0  0  0  0  0  0  0  0  0  0  0  0
   -4.3180   21.3690  -30.9480 C   0  0  0  0  0  0  0  0  0  0  0  0
   -4.0310   23.0040  -28.5430 C   0  0  0  0  0  0  0  0  0  0  0  0
   -3.9380   23.8850  -27.4620 C   0  0  0  0  0  0  0  0  0  0  0  0
   -2.7720   24.6350  -27.2610 C   0  0  0  0  0  0  0  0  0  0  0  0
   -2.6710   25.5230  -26.1780 C   0  0  0  0  0  0  0  0  0  0  0  0
   -1.4045   27.1216  -22.8098 H   0  0  0  0  0  0  0  0  0  0  0  0
   -0.4963   25.8041  -23.6259 H   0  0  0  0  0  0  0  0  0  0  0  0
    0.1555   27.4780  -23.6259 H   0  0  0  0  0  0  0  0  0  0  0  0
    0.4921   26.7093  -26.7196 H   0  0  0  0  0  0  0  0  0  0  0  0
    0.3256   25.1404  -28.6473 H   0  0  0  0  0  0  0  0  0  0  0  0
   -0.9452   23.5026  -29.9385 H   0  0  0  0  0  0  0  0  0  0  0  0
   -0.9360   22.0051  -31.0679 H   0  0  0  0  0  0  0  0  0  0  0  0
   -1.1006   20.3964  -32.9925 H   0  0  0  0  0  0  0  0  0  0  0  0
   -2.9411   18.7591  -34.4374 H   0  0  0  0  0  0  0  0  0  0  0  0
   -7.1950   17.5580  -32.9460 H   0  0  0  0  0  0  0  0  0  0  0  0
   -7.3960   16.7940  -34.5580 H   0  0  0  0  0  0  0  0  0  0  0  0
   -9.5799   23.0182  -30.9958 H   0  0  0  0  0  0  0  0  0  0  0  0
   -9.0127   23.7473  -32.5364 H   0  0  0  0  0  0  0  0  0  0  0  0
   -9.7538   22.1110  -32.5364 H   0  0  0  0  0  0  0  0  0  0  0  0
   -8.2453   22.5705  -29.6916 H   0  0  0  0  0  0  0  0  0  0  0  0
   -7.5687   20.9339  -29.9926 H   0  0  0  0  0  0  0  0  0  0  0  0
   -6.4861   22.3673  -29.9926 H   0  0  0  0  0  0  0  0  0  0  0  0
   -6.0650   23.5530  -31.5062 H   0  0  0  0  0  0  0  0  0  0  0  0
   -5.9394   22.4915  -32.9498 H   0  0  0  0  0  0  0  0  0  0  0  0
   -7.0839   23.8760  -32.9498 H   0  0  0  0  0  0  0  0  0  0  0  0
   -5.2253   21.6178  -30.3780 H   0  0  0  0  0  0  0  0  0  0  0  0
   -4.9508   22.4194  -28.6918 H   0  0  0  0  0  0  0  0  0  0  0  0
   -4.7836   23.9899  -26.7664 H   0  0  0  0  0  0  0  0  0  0  0  0
   -3.5158   25.6319  -25.4819 H   0  0  0  0  0  0  0  0  0  0  0  0
  1  2  1  0
  2  3  1  0
  3  4  2  0
  4  5  1  0
  5  6  2  0
  6  7  1  0
  7  8  2  0
  8  9  1  0
  9 10  2  0
 10 11  1  0
 11 12  2  0
 12 13  1  0
 13 14  2  0
 14 15  1  0
 15 16  1  0
 15 17  2  0
 14 18  1  0
 18 19  1  0
 19 20  2  0
 19 21  1  0
 21 22  1  0
 22 23  1  0
 22 24  1  0
 22 25  1  0
 18 26  1  0
 26 27  2  0
  8 28  1  0
 28 29  2  0
 29 30  1  0
 30 31  2  0
 31  3  1  0
 30  6  1  0
 27  9  1  0
 26 12  1  0
  1 32  1  0
  1 33  1  0
  1 34  1  0
  4 35  1  0
  5 36  1  0
  7 37  1  0
 10 38  1  0
 11 39  1  0
 13 40  1  0
 16 41  1  0
 16 42  1  0
 23 43  1  0
 23 44  1  0
 23 45  1  0
 24 46  1  0
 24 47  1  0
 24 48  1  0
 25 49  1  0
 25 50  1  0
 25 51  1  0
 27 52  1  0
 28 53  1  0
 29 54  1  0
 31 55  1  0
M  END
>  <UniqueID>  (78) 
78

>  <SMILES>  (78) 
COc1ccc2cc(-c3ccc4cc(C(N)=O)n(C(=O)OC(C)(C)C)c4c3)ccc2c1

>  <Energy>  (78) 
100.79549517731189

>  <Genealogy>  (78) 
COc1ccc2cc(-c3ccc4cc(C(N)=O)n(C(=O)OC(C)(C)C)c4c3)ccc2c1 (3D coordinates assigned)
COc1ccc2cc(-c3ccc4cc(C(N)=O)n(C(=O)OC(C)(C)C)c4c3)ccc2c1 (optimized conformer: 100.79549517731189 kcal/mol)

>  <smiles>  (78) 
COc1ccc2cc(-c3ccc4cc(C(N)=O)n(C(=O)OC(C)(C)C)c4c3)ccc2c1

>  <score_type>  (78) 
oracle

>  <origin>  (78) 
adg

>  <m_score__min__energy>  (78) 
-10.390000000000001

>  <m_primary>  (78) 
energy

$$$$
81:0
     RDKit          3D

 44 45  0  0  0  0  0  0  0  0999 V2000
   -1.0070   26.1920  -24.1780 C   0  0  0  0  0  0  0  0  0  0  0  0
   -1.1420   26.6050  -25.4400 C   0  0  0  0  0  0  0  0  0  0  0  0
   -0.0290   27.3350  -26.1380 C   0  0  0  0  0  0  0  0  0  0  0  0
   -0.1380   27.1840  -27.5530 O   0  0  0  0  0  0  0  0  0  0  0  0
   -0.5350   25.9940  -28.1690 C   0  0  0  0  0  0  0  0  0  0  0  0
   -1.5260   25.9720  -28.9490 O   0  0  0  0  0  0  0  0  0  0  0  0
    0.1980   24.7960  -27.9040 N   0  0  0  0  0  0  0  0  0  0  0  0
   -0.3990   23.6330  -27.2600 C   0  0  0  0  0  0  0  0  0  0  0  0
   -0.9340   22.7550  -28.2450 O   0  0  0  0  0  0  0  0  0  0  0  0
   -2.1090   23.0290  -28.9530 C   0  0  0  0  0  0  0  0  0  0  0  0
   -2.9310   23.8880  -28.5320 O   0  0  0  0  0  0  0  0  0  0  0  0
   -2.3950   22.2830  -30.2180 C   0  0  0  0  0  0  0  0  0  0  0  0
   -2.9960   23.1470  -31.1790 O   0  0  0  0  0  0  0  0  0  0  0  0
   -4.0750   22.7640  -31.9850 C   0  0  0  0  0  0  0  0  0  0  0  0
   -3.8740   22.2760  -33.1310 O   0  0  0  0  0  0  0  0  0  0  0  0
   -5.4160   22.9410  -31.5080 N   0  0  0  0  0  0  0  0  0  0  0  0
   -5.9090   23.9660  -30.7560 C   0  0  0  0  0  0  0  0  0  0  0  0
   -5.1900   25.2090  -30.4070 C   0  0  0  0  0  0  0  0  0  0  0  0
   -3.8600   25.4400  -30.8630 N   0  0  0  0  0  0  0  0  0  0  0  0
   -5.7760   26.1010  -29.7370 O   0  0  0  0  0  0  0  0  0  0  0  0
   -7.2410   23.7290  -30.4230 C   0  0  0  0  0  0  0  0  0  0  0  0
   -7.5550   22.5230  -31.0060 C   0  0  0  0  0  0  0  0  0  0  0  0
   -8.7470   21.8020  -30.9910 C   0  0  0  0  0  0  0  0  0  0  0  0
   -8.7770   20.5660  -31.6590 C   0  0  0  0  0  0  0  0  0  0  0  0
   -7.6250   20.0770  -32.3200 C   0  0  0  0  0  0  0  0  0  0  0  0
   -7.6660   18.8140  -32.9880 N   0  0  0  0  0  0  0  0  0  0  0  0
   -6.4340   20.8340  -32.3160 C   0  0  0  0  0  0  0  0  0  0  0  0
   -6.4370   22.0680  -31.6560 C   0  0  0  0  0  0  0  0  0  0  0  0
   -1.8319   25.6591  -23.6825 H   0  0  0  0  0  0  0  0  0  0  0  0
   -0.0708   26.3845  -23.6334 H   0  0  0  0  0  0  0  0  0  0  0  0
   -2.0816   26.4082  -25.9771 H   0  0  0  0  0  0  0  0  0  0  0  0
   -0.0824   28.4038  -25.8835 H   0  0  0  0  0  0  0  0  0  0  0  0
    0.9322   26.9128  -25.8097 H   0  0  0  0  0  0  0  0  0  0  0  0
    0.3699   23.1034  -26.6783 H   0  0  0  0  0  0  0  0  0  0  0  0
   -1.2080   23.9642  -26.5923 H   0  0  0  0  0  0  0  0  0  0  0  0
   -1.4535   21.8865  -30.6258 H   0  0  0  0  0  0  0  0  0  0  0  0
   -3.0882   21.4580  -29.9969 H   0  0  0  0  0  0  0  0  0  0  0  0
   -3.0370   25.1710  -30.2800 H   0  0  0  0  0  0  0  0  0  0  0  0
   -7.9017   24.3704  -29.8213 H   0  0  0  0  0  0  0  0  0  0  0  0
   -9.6369   22.1882  -30.4724 H   0  0  0  0  0  0  0  0  0  0  0  0
   -9.7037   19.9735  -31.6682 H   0  0  0  0  0  0  0  0  0  0  0  0
   -7.0470   18.0290  -32.6860 H   0  0  0  0  0  0  0  0  0  0  0  0
   -8.3170   18.6540  -33.7900 H   0  0  0  0  0  0  0  0  0  0  0  0
   -5.5279   20.4641  -32.8181 H   0  0  0  0  0  0  0  0  0  0  0  0
  1  2  2  0
  2  3  1  0
  3  4  1  0
  4  5  1  0
  5  6  2  0
  5  7  1  0
  7  8  1  0
  8  9  1  0
  9 10  1  0
 10 11  2  0
 10 12  1  0
 12 13  1  0
 13 14  1  0
 14 15  2  0
 14 16  1  0
 16 17  1  0
 17 18  1  0
 18 19  1  0
 18 20  2  0
 17 21  2  0
 21 22  1  0
 22 23  2  0
 23 24  1  0
 24 25  2  0
 25 26  1  0
 25 27  1  0
 27 28  2  0
 28 16  1  0
 28 22  1  0
  1 29  1  0
  1 30  1  0
  2 31  1  0
  3 32  1  0
  3 33  1  0
  8 34  1  0
  8 35  1  0
 12 36  1  0
 12 37  1  0
 19 38  1  0
 21 39  1  0
 23 40  1  0
 24 41  1  0
 26 42  1  0
 26 43  1  0
 27 44  1  0
M  CHG  2   7  -1  19  -1
M  END
>  <UniqueID>  (79) 
79

>  <SMILES>  (79) 
C=CCOC(=O)[N-]COC(=O)COC(=O)n1c(C([NH-])=O)cc2ccc(N)cc21

>  <Energy>  (79) 
71.73822287133488

>  <Genealogy>  (79) 
C=CCOC(=O)[N-]COC(=O)COC(=O)n1c(C([NH-])=O)cc2ccc(N)cc21 (protonated)
C=CCOC(=O)[N-]COC(=O)COC(=O)n1c(C([NH-])=O)cc2ccc(N)cc21 (3D coordinates assigned)
C=CCOC(=O)[N-]COC(=O)COC(=O)n1c(C([NH-])=O)cc2ccc(N)cc21 (optimized conformer: 71.73822287133488 kcal/mol)

>  <smiles>  (79) 
C=CCOC(=O)NCOC(=O)COC(=O)n1c(C(N)=O)cc2ccc(N)cc21

>  <score_type>  (79) 
oracle

>  <origin>  (79) 
adg

>  <m_score__min__energy>  (79) 
-10.92

>  <m_primary>  (79) 
energy

$$$$
82:0
     RDKit          3D

 37 38  0  0  0  0  0  0  0  0999 V2000
   -6.7950   17.3560  -33.1210 C   0  0  0  0  0  0  0  0  0  0  0  0
   -6.9250   18.5090  -32.7890 C   0  0  0  0  0  0  0  0  0  0  0  0
   -7.0790   19.8820  -32.3910 C   0  0  0  0  0  0  0  0  0  0  0  0
   -8.3680   20.4610  -32.3420 C   0  0  0  0  0  0  0  0  0  0  0  0
   -8.5330   21.8040  -31.9630 C   0  0  0  0  0  0  0  0  0  0  0  0
   -7.3920   22.5320  -31.6310 C   0  0  0  0  0  0  0  0  0  0  0  0
   -7.2610   23.8490  -31.2540 C   0  0  0  0  0  0  0  0  0  0  0  0
   -5.8950   24.0420  -31.0520 C   0  0  0  0  0  0  0  0  0  0  0  0
   -5.3200   25.3050  -30.5480 C   0  0  0  0  0  0  0  0  0  0  0  0
   -3.9710   25.6640  -30.8330 N   0  0  0  0  0  0  0  0  0  0  0  0
   -6.0150   26.0580  -29.8140 O   0  0  0  0  0  0  0  0  0  0  0  0
   -5.2080   22.8910  -31.3070 N   0  0  0  0  0  0  0  0  0  0  0  0
   -3.7870   22.6870  -31.2860 C   0  0  0  0  0  0  0  0  0  0  0  0
   -3.1940   22.3080  -32.3320 O   0  0  0  0  0  0  0  0  0  0  0  0
   -3.0820   22.8840  -30.0920 O   0  0  0  0  0  0  0  0  0  0  0  0
   -3.5240   22.4960  -28.8210 C   0  0  0  0  0  0  0  0  0  0  0  0
   -3.3480   21.3210  -28.3970 O   0  0  0  0  0  0  0  0  0  0  0  0
   -4.2210   23.4990  -27.9520 C   0  0  0  0  0  0  0  0  0  0  0  0
   -3.2520   24.5570  -27.4080 C   0  0  0  0  0  0  0  0  0  0  0  0
   -1.7960   24.0750  -27.4250 C   0  0  0  0  0  0  0  0  0  0  0  0
   -0.9820   24.9020  -28.3680 C   0  0  0  0  0  0  0  0  0  0  0  0
    0.2720   24.9270  -28.2680 O   0  0  0  0  0  0  0  0  0  0  0  0
   -1.6110   25.6810  -29.3300 O   0  0  0  0  0  0  0  0  0  0  0  0
   -6.1380   21.9770  -31.6570 C   0  0  0  0  0  0  0  0  0  0  0  0
   -5.9450   20.6470  -32.0540 C   0  0  0  0  0  0  0  0  0  0  0  0
   -6.6765   16.3051  -33.4236 H   0  0  0  0  0  0  0  0  0  0  0  0
   -9.2485   19.8554  -32.6026 H   0  0  0  0  0  0  0  0  0  0  0  0
   -9.5308   22.2659  -31.9294 H   0  0  0  0  0  0  0  0  0  0  0  0
   -8.0637   24.5919  -31.1369 H   0  0  0  0  0  0  0  0  0  0  0  0
   -3.1810   25.0270  -30.5850 H   0  0  0  0  0  0  0  0  0  0  0  0
   -5.0003   24.0015  -28.5438 H   0  0  0  0  0  0  0  0  0  0  0  0
   -4.6565   22.9634  -27.0955 H   0  0  0  0  0  0  0  0  0  0  0  0
   -3.3323   25.4624  -28.0275 H   0  0  0  0  0  0  0  0  0  0  0  0
   -3.5274   24.7604  -26.3626 H   0  0  0  0  0  0  0  0  0  0  0  0
   -1.3746   24.1601  -26.4125 H   0  0  0  0  0  0  0  0  0  0  0  0
   -1.7718   23.0271  -27.7587 H   0  0  0  0  0  0  0  0  0  0  0  0
   -4.9357   20.2122  -32.1012 H   0  0  0  0  0  0  0  0  0  0  0  0
  1  2  3  0
  2  3  1  0
  3  4  2  0
  4  5  1  0
  5  6  2  0
  6  7  1  0
  7  8  2  0
  8  9  1  0
  9 10  1  0
  9 11  2  0
  8 12  1  0
 12 13  1  0
 13 14  2  0
 13 15  1  0
 15 16  1  0
 16 17  2  0
 16 18  1  0
 18 19  1  0
 19 20  1  0
 20 21  1  0
 21 22  2  0
 21 23  1  0
 12 24  1  0
 24 25  2  0
 25  3  1  0
 24  6  1  0
  1 26  1  0
  4 27  1  0
  5 28  1  0
  7 29  1  0
 10 30  1  0
 18 31  1  0
 18 32  1  0
 19 33  1  0
 19 34  1  0
 20 35  1  0
 20 36  1  0
 25 37  1  0
M  CHG  2  10  -1  23  -1
M  END
>  <UniqueID>  (80) 
80

>  <SMILES>  (80) 
C#Cc1ccc2cc(C([NH-])=O)n(C(=O)OC(=O)CCCC(=O)[O-])c2c1

>  <Energy>  (80) 
68.48753268573265

>  <Genealogy>  (80) 
C#Cc1ccc2cc(C([NH-])=O)n(C(=O)OC(=O)CCCC(=O)[O-])c2c1 (protonated)
C#Cc1ccc2cc(C([NH-])=O)n(C(=O)OC(=O)CCCC(=O)[O-])c2c1 (3D coordinates assigned)
C#Cc1ccc2cc(C([NH-])=O)n(C(=O)OC(=O)CCCC(=O)[O-])c2c1 (optimized conformer: 68.48753268573265 kcal/mol)

>  <smiles>  (80) 
C#Cc1ccc2cc(C(N)=O)n(C(=O)OC(=O)CCCC(=O)O)c2c1

>  <score_type>  (80) 
oracle

>  <origin>  (80) 
adg

>  <m_score__min__energy>  (80) 
-12.970000000000001

>  <m_primary>  (80) 
energy

$$$$
83:0
     RDKit          3D

 51 54  0  0  0  0  0  0  0  0999 V2000
    0.4580   17.0860  -35.1030 C   0  0  0  0  0  0  0  0  0  0  0  0
   -0.9710   17.4360  -35.1870 N   0  0  0  0  0  0  0  0  0  0  0  0
   -1.4740   17.8880  -33.8840 C   0  0  0  0  0  0  0  0  0  0  0  0
   -2.0120   16.6730  -33.1440 C   0  0  0  0  0  0  0  0  0  0  0  0
   -2.2610   15.6210  -34.2160 C   0  0  1  0  0  0  0  0  0  0  0  0
   -3.6550   15.3060  -34.2770 O   0  0  0  0  0  0  0  0  0  0  0  0
   -4.7010   16.1800  -33.9420 C   0  0  0  0  0  0  0  0  0  0  0  0
   -5.0270   17.1970  -34.8480 C   0  0  0  0  0  0  0  0  0  0  0  0
   -6.0580   18.0960  -34.5660 C   0  0  0  0  0  0  0  0  0  0  0  0
   -6.7720   18.0050  -33.3630 C   0  0  0  0  0  0  0  0  0  0  0  0
   -7.8470   18.9240  -33.1070 N   0  0  0  0  0  0  0  0  0  0  0  0
   -7.7140   20.1380  -32.3470 C   0  0  0  0  0  0  0  0  0  0  0  0
   -8.8410   20.7450  -31.7330 C   0  0  0  0  0  0  0  0  0  0  0  0
   -8.6950   21.9090  -30.9590 C   0  0  0  0  0  0  0  0  0  0  0  0
   -7.4170   22.4380  -30.8120 C   0  0  0  0  0  0  0  0  0  0  0  0
   -6.9870   23.5270  -30.0890 C   0  0  0  0  0  0  0  0  0  0  0  0
   -5.6050   23.5730  -30.2750 C   0  0  0  0  0  0  0  0  0  0  0  0
   -4.7410   24.6360  -29.7190 C   0  0  0  0  0  0  0  0  0  0  0  0
   -3.8780   25.3970  -30.5600 N   0  0  0  0  0  0  0  0  0  0  0  0
   -4.7920   24.9000  -28.4880 O   0  0  0  0  0  0  0  0  0  0  0  0
   -5.1990   22.5490  -31.0780 N   0  0  0  0  0  0  0  0  0  0  0  0
   -3.8570   22.1990  -31.4470 C   0  0  0  0  0  0  0  0  0  0  0  0
   -2.7450   22.8510  -30.8310 N   0  0  0  0  0  0  0  0  0  0  0  0
   -3.6540   21.3170  -32.3240 O   0  0  0  0  0  0  0  0  0  0  0  0
   -6.3190   21.8630  -31.3960 C   0  0  0  0  0  0  0  0  0  0  0  0
   -6.4320   20.6920  -32.1540 C   0  0  0  0  0  0  0  0  0  0  0  0
   -6.4610   16.9740  -32.4600 C   0  0  0  0  0  0  0  0  0  0  0  0
   -5.4290   16.0740  -32.7420 C   0  0  0  0  0  0  0  0  0  0  0  0
   -1.7790   16.2550  -35.5220 C   0  0  0  0  0  0  0  0  0  0  0  0
    0.7561   17.0130  -34.0467 H   0  0  0  0  0  0  0  0  0  0  0  0
    0.6286   16.1195  -35.5998 H   0  0  0  0  0  0  0  0  0  0  0  0
    1.0559   17.8642  -35.5998 H   0  0  0  0  0  0  0  0  0  0  0  0
   -0.6575   18.3461  -33.3065 H   0  0  0  0  0  0  0  0  0  0  0  0
   -2.2679   18.6375  -34.0185 H   0  0  0  0  0  0  0  0  0  0  0  0
   -1.2742   16.3101  -32.4133 H   0  0  0  0  0  0  0  0  0  0  0  0
   -2.9286   16.9094  -32.5836 H   0  0  0  0  0  0  0  0  0  0  0  0
   -1.7328   14.6781  -34.0112 H   0  0  0  0  0  0  0  0  0  0  0  0
   -4.4662   17.2885  -35.7899 H   0  0  0  0  0  0  0  0  0  0  0  0
   -6.3117   18.8813  -35.2933 H   0  0  0  0  0  0  0  0  0  0  0  0
   -8.7900   18.6940  -33.4970 H   0  0  0  0  0  0  0  0  0  0  0  0
   -9.8383   20.2999  -31.8643 H   0  0  0  0  0  0  0  0  0  0  0  0
   -9.5645   22.3869  -30.4841 H   0  0  0  0  0  0  0  0  0  0  0  0
   -7.6024   24.2154  -29.4911 H   0  0  0  0  0  0  0  0  0  0  0  0
   -2.8420   25.2880  -30.5040 H   0  0  0  0  0  0  0  0  0  0  0  0
   -1.7700   22.6160  -31.1220 H   0  0  0  0  0  0  0  0  0  0  0  0
   -2.8950   23.5370  -30.0590 H   0  0  0  0  0  0  0  0  0  0  0  0
   -5.5414   20.2150  -32.5890 H   0  0  0  0  0  0  0  0  0  0  0  0
   -7.0330   16.8746  -31.5257 H   0  0  0  0  0  0  0  0  0  0  0  0
   -5.1846   15.2788  -32.0223 H   0  0  0  0  0  0  0  0  0  0  0  0
   -1.1682   15.5328  -36.0836 H   0  0  0  0  0  0  0  0  0  0  0  0
   -2.6386   16.5460  -36.1436 H   0  0  0  0  0  0  0  0  0  0  0  0
  1  2  1  0
  2  3  1  0
  3  4  1  0
  4  5  1  0
  5  6  1  0
  6  7  1  0
  7  8  2  0
  8  9  1  0
  9 10  2  0
 10 11  1  0
 11 12  1  0
 12 13  2  0
 13 14  1  0
 14 15  2  0
 15 16  1  0
 16 17  2  0
 17 18  1  0
 18 19  1  0
 18 20  2  0
 17 21  1  0
 21 22  1  0
 22 23  1  0
 22 24  2  0
 21 25  1  0
 25 26  2  0
 10 27  1  0
 27 28  2  0
  5 29  1  0
 29  2  1  0
 28  7  1  0
 26 12  1  0
 25 15  1  0
  1 30  1  0
  1 31  1  0
  1 32  1  0
  3 33  1  0
  3 34  1  0
  4 35  1  0
  4 36  1  0
  5 37  1  1
  8 38  1  0
  9 39  1  0
 11 40  1  0
 13 41  1  0
 14 42  1  0
 16 43  1  0
 19 44  1  0
 23 45  1  0
 23 46  1  0
 26 47  1  0
 27 48  1  0
 28 49  1  0
 29 50  1  0
 29 51  1  0
M  CHG  1  19  -1
M  END
>  <UniqueID>  (81) 
81

>  <SMILES>  (81) 
CN1CC[C@@H](Oc2ccc(Nc3ccc4cc(C([NH-])=O)n(C(N)=O)c4c3)cc2)C1

>  <Energy>  (81) 
101.08265317010509

>  <Genealogy>  (81) 
CN1CCC(Oc2ccc(Nc3ccc4cc(C([NH-])=O)n(C(N)=O)c4c3)cc2)C1 (protonated)
CN1CC[C@@H](Oc2ccc(Nc3ccc4cc(C([NH-])=O)n(C(N)=O)c4c3)cc2)C1 (chirality)
CN1CC[C@@H](Oc2ccc(Nc3ccc4cc(C([NH-])=O)n(C(N)=O)c4c3)cc2)C1 (3D coordinates assigned)
CN1CC[C@@H](Oc2ccc(Nc3ccc4cc(C([NH-])=O)n(C(N)=O)c4c3)cc2)C1 (nonaromatic ring conformer: 101.08265317010509 kcal/mol)

>  <smiles>  (81) 
CN1CCC(Oc2ccc(Nc3ccc4cc(C(N)=O)n(C(N)=O)c4c3)cc2)C1

>  <score_type>  (81) 
oracle

>  <origin>  (81) 
adg

>  <m_score__min__energy>  (81) 
-11.93

>  <m_primary>  (81) 
energy

$$$$
84:0
     RDKit          3D

 59 61  0  0  0  0  0  0  0  0999 V2000
   -0.9910   21.2150  -33.8490 C   0  0  0  0  0  0  0  0  0  0  0  0
   -2.0380   20.7580  -32.8250 C   0  0  0  0  0  0  0  0  0  0  0  0
   -1.4530   19.6040  -31.9900 C   0  0  0  0  0  0  0  0  0  0  0  0
   -2.4040   21.9500  -31.9210 C   0  0  0  0  0  0  0  0  0  0  0  0
   -3.1840   20.3120  -33.5650 O   0  0  0  0  0  0  0  0  0  0  0  0
   -3.9540   19.1700  -33.2960 C   0  0  0  0  0  0  0  0  0  0  0  0
   -3.4150   18.0350  -33.2140 O   0  0  0  0  0  0  0  0  0  0  0  0
   -5.3750   19.2980  -33.1230 N   0  0  0  0  0  0  0  0  0  0  0  0
   -6.3400   18.4130  -33.5070 C   0  0  0  0  0  0  0  0  0  0  0  0
   -6.1370   17.2210  -34.3540 C   0  0  0  0  0  0  0  0  0  0  0  0
   -5.1030   17.1870  -35.3330 N   0  0  0  0  0  0  0  0  0  0  0  0
   -6.9250   16.2420  -34.2540 O   0  0  0  0  0  0  0  0  0  0  0  0
   -7.5930   18.8320  -33.0660 C   0  0  0  0  0  0  0  0  0  0  0  0
   -7.3670   20.0180  -32.4050 C   0  0  0  0  0  0  0  0  0  0  0  0
   -8.2610   20.8630  -31.7600 C   0  0  0  0  0  0  0  0  0  0  0  0
   -7.7480   22.0130  -31.1360 C   0  0  0  0  0  0  0  0  0  0  0  0
   -6.3520   22.2880  -31.1510 C   0  0  0  0  0  0  0  0  0  0  0  0
   -5.7980   23.4550  -30.5120 N   0  0  0  0  0  0  0  0  0  0  0  0
   -6.4210   24.7790  -30.5070 C   0  0  0  0  0  0  0  0  0  0  0  0
   -5.3550   25.8770  -30.4690 C   0  0  0  0  0  0  0  0  0  0  0  0
   -4.0240   25.3000  -30.6230 N   0  0  0  0  0  0  0  0  0  0  0  0
   -3.2550   24.7750  -29.5390 C   0  0  0  0  0  0  0  0  0  0  0  0
   -3.7230   23.8610  -28.8080 O   0  0  0  0  0  0  0  0  0  0  0  0
   -1.9740   25.2840  -29.3090 O   0  0  0  0  0  0  0  0  0  0  0  0
   -1.1850   24.9350  -28.1750 C   0  0  0  0  0  0  0  0  0  0  0  0
   -1.0350   23.4430  -28.0800 C   0  0  0  0  0  0  0  0  0  0  0  0
   -0.5610   22.6980  -29.1730 C   0  0  0  0  0  0  0  0  0  0  0  0
   -0.4290   21.3110  -29.0720 C   0  0  0  0  0  0  0  0  0  0  0  0
   -0.7700   20.6590  -27.8830 C   0  0  0  0  0  0  0  0  0  0  0  0
   -1.2520   21.3930  -26.7970 C   0  0  0  0  0  0  0  0  0  0  0  0
   -1.3890   22.7800  -26.8940 C   0  0  0  0  0  0  0  0  0  0  0  0
   -5.4800   21.4000  -31.8160 C   0  0  0  0  0  0  0  0  0  0  0  0
   -6.0220   20.2760  -32.4520 C   0  0  0  0  0  0  0  0  0  0  0  0
   -0.1063   21.6011  -33.3215 H   0  0  0  0  0  0  0  0  0  0  0  0
   -0.6987   20.3626  -34.4799 H   0  0  0  0  0  0  0  0  0  0  0  0
   -1.4173   22.0089  -34.4799 H   0  0  0  0  0  0  0  0  0  0  0  0
   -1.5680   19.8308  -30.9198 H   0  0  0  0  0  0  0  0  0  0  0  0
   -1.9877   18.6723  -32.2269 H   0  0  0  0  0  0  0  0  0  0  0  0
   -0.3855   19.4845  -32.2269 H   0  0  0  0  0  0  0  0  0  0  0  0
   -2.3125   21.6519  -30.8661 H   0  0  0  0  0  0  0  0  0  0  0  0
   -1.7219   22.7884  -32.1256 H   0  0  0  0  0  0  0  0  0  0  0  0
   -3.4391   22.2611  -32.1256 H   0  0  0  0  0  0  0  0  0  0  0  0
   -4.2070   17.7030  -35.1870 H   0  0  0  0  0  0  0  0  0  0  0  0
   -8.5572   18.3237  -33.2143 H   0  0  0  0  0  0  0  0  0  0  0  0
   -9.3377   20.6389  -31.7383 H   0  0  0  0  0  0  0  0  0  0  0  0
   -8.4337   22.7086  -30.6301 H   0  0  0  0  0  0  0  0  0  0  0  0
   -4.8640   23.3710  -30.0480 H   0  0  0  0  0  0  0  0  0  0  0  0
   -7.0281   24.8961  -31.4168 H   0  0  0  0  0  0  0  0  0  0  0  0
   -7.0543   24.8691  -29.6121 H   0  0  0  0  0  0  0  0  0  0  0  0
   -5.5384   26.5885  -31.2876 H   0  0  0  0  0  0  0  0  0  0  0  0
   -5.4097   26.3936  -29.4994 H   0  0  0  0  0  0  0  0  0  0  0  0
   -0.1899   25.3939  -28.2708 H   0  0  0  0  0  0  0  0  0  0  0  0
   -1.6847   25.3018  -27.2663 H   0  0  0  0  0  0  0  0  0  0  0  0
   -0.2933   23.2080  -30.1101 H   0  0  0  0  0  0  0  0  0  0  0  0
   -0.0563   20.7309  -29.9291 H   0  0  0  0  0  0  0  0  0  0  0  0
   -0.6586   19.5676  -27.8030 H   0  0  0  0  0  0  0  0  0  0  0  0
   -1.5242   20.8783  -25.8638 H   0  0  0  0  0  0  0  0  0  0  0  0
   -1.7752   23.3542  -26.0389 H   0  0  0  0  0  0  0  0  0  0  0  0
   -4.3961   21.5868  -31.8345 H   0  0  0  0  0  0  0  0  0  0  0  0
  1  2  1  0
  2  3  1  0
  2  4  1  0
  2  5  1  0
  5  6  1  0
  6  7  2  0
  6  8  1  0
  8  9  1  0
  9 10  1  0
 10 11  1  0
 10 12  2  0
  9 13  2  0
 13 14  1  0
 14 15  2  0
 15 16  1  0
 16 17  2  0
 17 18  1  0
 18 19  1  0
 19 20  1  0
 20 21  1  0
 21 22  1  0
 22 23  2  0
 22 24  1  0
 24 25  1  0
 25 26  1  0
 26 27  2  0
 27 28  1  0
 28 29  2  0
 29 30  1  0
 30 31  2  0
 17 32  1  0
 32 33  2  0
 33  8  1  0
 33 14  1  0
 31 26  1  0
  1 34  1  0
  1 35  1  0
  1 36  1  0
  3 37  1  0
  3 38  1  0
  3 39  1  0
  4 40  1  0
  4 41  1  0
  4 42  1  0
 11 43  1  0
 13 44  1  0
 15 45  1  0
 16 46  1  0
 18 47  1  0
 19 48  1  0
 19 49  1  0
 20 50  1  0
 20 51  1  0
 25 52  1  0
 25 53  1  0
 27 54  1  0
 28 55  1  0
 29 56  1  0
 30 57  1  0
 31 58  1  0
 32 59  1  0
M  CHG  2  11  -1  21  -1
M  END
>  <UniqueID>  (82) 
82

>  <SMILES>  (82) 
CC(C)(C)OC(=O)n1c(C([NH-])=O)cc2ccc(NCC[N-]C(=O)OCc3ccccc3)cc21

>  <Energy>  (82) 
89.57941232615887

>  <Genealogy>  (82) 
CC(C)(C)OC(=O)n1c(C([NH-])=O)cc2ccc(NCC[N-]C(=O)OCc3ccccc3)cc21 (protonated)
CC(C)(C)OC(=O)n1c(C([NH-])=O)cc2ccc(NCC[N-]C(=O)OCc3ccccc3)cc21 (3D coordinates assigned)
CC(C)(C)OC(=O)n1c(C([NH-])=O)cc2ccc(NCC[N-]C(=O)OCc3ccccc3)cc21 (optimized conformer: 89.57941232615887 kcal/mol)

>  <smiles>  (82) 
CC(C)(C)OC(=O)n1c(C(N)=O)cc2ccc(NCCNC(=O)OCc3ccccc3)cc21

>  <score_type>  (82) 
oracle

>  <origin>  (82) 
adg

>  <m_score__min__energy>  (82) 
-11.470000000000001

>  <m_primary>  (82) 
energy

$$$$
85:0
     RDKit          3D

 42 43  0  0  0  0  0  0  0  0999 V2000
   -0.9920   21.9800  -26.3410 C   0  0  0  0  0  0  0  0  0  0  0  0
   -0.9930   22.7710  -27.5760 N   0  0  0  0  0  0  0  0  0  0  0  0
   -0.5390   24.1700  -27.5430 C   0  0  0  0  0  0  0  0  0  0  0  0
   -1.7310   25.1280  -27.5380 C   0  0  0  0  0  0  0  0  0  0  0  0
   -2.0430   25.5360  -28.8430 O   0  0  0  0  0  0  0  0  0  0  0  0
   -1.3750   22.1700  -28.8350 C   0  0  0  0  0  0  0  0  0  0  0  0
   -1.6040   20.9300  -28.8910 O   0  0  0  0  0  0  0  0  0  0  0  0
   -1.5090   22.9770  -30.0940 C   0  0  0  0  0  0  0  0  0  0  0  0
   -2.8770   23.3030  -30.3210 O   0  0  0  0  0  0  0  0  0  0  0  0
   -3.6370   22.7000  -31.3290 C   0  0  0  0  0  0  0  0  0  0  0  0
   -3.0790   22.0210  -32.2340 O   0  0  0  0  0  0  0  0  0  0  0  0
   -5.0600   22.8690  -31.3380 N   0  0  0  0  0  0  0  0  0  0  0  0
   -5.7840   23.9430  -30.9150 C   0  0  0  0  0  0  0  0  0  0  0  0
   -5.2330   25.2300  -30.4390 C   0  0  0  0  0  0  0  0  0  0  0  0
   -3.9380   25.6690  -30.8410 N   0  0  0  0  0  0  0  0  0  0  0  0
   -5.9300   25.9700  -29.6950 O   0  0  0  0  0  0  0  0  0  0  0  0
   -7.1500   23.6930  -31.0510 C   0  0  0  0  0  0  0  0  0  0  0  0
   -7.2370   22.4240  -31.5790 C   0  0  0  0  0  0  0  0  0  0  0  0
   -8.3560   21.6610  -31.9030 C   0  0  0  0  0  0  0  0  0  0  0  0
   -8.1460   20.3630  -32.4000 C   0  0  0  0  0  0  0  0  0  0  0  0
   -6.8310   19.8560  -32.5600 C   0  0  0  0  0  0  0  0  0  0  0  0
   -6.6180   18.4520  -33.0450 C   0  0  0  0  0  0  0  0  0  0  0  0
   -5.7660   18.4790  -34.6080 Cl  0  0  0  0  0  0  0  0  0  0  0  0
   -5.7240   20.6540  -32.2040 C   0  0  0  0  0  0  0  0  0  0  0  0
   -5.9620   21.9500  -31.7380 C   0  0  0  0  0  0  0  0  0  0  0  0
   -0.9929   22.6556  -25.4729 H   0  0  0  0  0  0  0  0  0  0  0  0
   -1.8893   21.3444  -26.3119 H   0  0  0  0  0  0  0  0  0  0  0  0
   -0.0931   21.3467  -26.3119 H   0  0  0  0  0  0  0  0  0  0  0  0
    0.0590   24.3337  -26.6344 H   0  0  0  0  0  0  0  0  0  0  0  0
    0.0665   24.3654  -28.4403 H   0  0  0  0  0  0  0  0  0  0  0  0
   -2.6023   24.6184  -27.1007 H   0  0  0  0  0  0  0  0  0  0  0  0
   -1.4699   26.0152  -26.9424 H   0  0  0  0  0  0  0  0  0  0  0  0
   -2.9030   25.0980  -29.0800 H   0  0  0  0  0  0  0  0  0  0  0  0
   -0.9251   23.9041  -29.9962 H   0  0  0  0  0  0  0  0  0  0  0  0
   -1.1330   22.3868  -30.9427 H   0  0  0  0  0  0  0  0  0  0  0  0
   -3.0770   25.2960  -30.3840 H   0  0  0  0  0  0  0  0  0  0  0  0
   -7.9805   24.3661  -30.7917 H   0  0  0  0  0  0  0  0  0  0  0  0
   -9.3724   22.0615  -31.7740 H   0  0  0  0  0  0  0  0  0  0  0  0
   -9.0088   19.7351  -32.6671 H   0  0  0  0  0  0  0  0  0  0  0  0
   -6.0153   17.8988  -32.3097 H   0  0  0  0  0  0  0  0  0  0  0  0
   -7.5930   17.9584  -33.1704 H   0  0  0  0  0  0  0  0  0  0  0  0
   -4.6984   20.2659  -32.2910 H   0  0  0  0  0  0  0  0  0  0  0  0
  1  2  1  0
  2  3  1  0
  3  4  1  0
  4  5  1  0
  2  6  1  0
  6  7  2  0
  6  8  1  0
  8  9  1  0
  9 10  1  0
 10 11  2  0
 10 12  1  0
 12 13  1  0
 13 14  1  0
 14 15  1  0
 14 16  2  0
 13 17  2  0
 17 18  1  0
 18 19  2  0
 19 20  1  0
 20 21  2  0
 21 22  1  0
 22 23  1  0
 21 24  1  0
 24 25  2  0
 25 12  1  0
 25 18  1  0
  1 26  1  0
  1 27  1  0
  1 28  1  0
  3 29  1  0
  3 30  1  0
  4 31  1  0
  4 32  1  0
  5 33  1  0
  8 34  1  0
  8 35  1  0
 15 36  1  0
 17 37  1  0
 19 38  1  0
 20 39  1  0
 22 40  1  0
 22 41  1  0
 24 42  1  0
M  CHG  1  15  -1
M  END
>  <UniqueID>  (83) 
83

>  <SMILES>  (83) 
CN(CCO)C(=O)COC(=O)n1c(C([NH-])=O)cc2ccc(CCl)cc21

>  <Energy>  (83) 
73.06200656083635

>  <Genealogy>  (83) 
CN(CCO)C(=O)COC(=O)n1c(C([NH-])=O)cc2ccc(CCl)cc21 (protonated)
CN(CCO)C(=O)COC(=O)n1c(C([NH-])=O)cc2ccc(CCl)cc21 (3D coordinates assigned)
CN(CCO)C(=O)COC(=O)n1c(C([NH-])=O)cc2ccc(CCl)cc21 (optimized conformer: 73.06200656083635 kcal/mol)

>  <smiles>  (83) 
CN(CCO)C(=O)COC(=O)n1c(C(N)=O)cc2ccc(CCl)cc21

>  <score_type>  (83) 
oracle

>  <origin>  (83) 
adg

>  <m_score__min__energy>  (83) 
-9.8699999999999992

>  <m_primary>  (83) 
energy

$$$$
86:0
     RDKit          3D

 53 55  0  0  0  0  0  0  0  0999 V2000
   -4.1260   24.8790  -26.7140 C   0  0  0  0  0  0  0  0  0  0  0  0
   -2.6170   24.8270  -26.9930 C   0  0  0  0  0  0  0  0  0  0  0  0
   -2.1870   23.7880  -27.9670 N   0  0  1  0  0  0  0  0  0  0  0  0
   -0.9980   24.1620  -28.7050 C   0  0  0  0  0  0  0  0  0  0  0  0
   -0.0510   24.7790  -28.1420 O   0  0  0  0  0  0  0  0  0  0  0  0
   -0.8920   23.8080  -30.0540 O   0  0  0  0  0  0  0  0  0  0  0  0
   -1.4740   22.6230  -30.5890 C   0  0  0  0  0  0  0  0  0  0  0  0
   -2.8820   22.6450  -30.3780 O   0  0  0  0  0  0  0  0  0  0  0  0
   -3.8080   22.5390  -31.4200 C   0  0  0  0  0  0  0  0  0  0  0  0
   -3.4380   22.1580  -32.5650 O   0  0  0  0  0  0  0  0  0  0  0  0
   -5.1810   22.8930  -31.1930 N   0  0  0  0  0  0  0  0  0  0  0  0
   -5.6800   24.1140  -30.8470 C   0  0  0  0  0  0  0  0  0  0  0  0
   -4.8830   25.3030  -30.4810 C   0  0  0  0  0  0  0  0  0  0  0  0
   -3.5220   25.1490  -30.0820 N   0  0  0  0  0  0  0  0  0  0  0  0
   -5.3780   26.4590  -30.5510 O   0  0  0  0  0  0  0  0  0  0  0  0
   -7.0710   24.0770  -30.8010 C   0  0  0  0  0  0  0  0  0  0  0  0
   -7.4140   22.7850  -31.1290 C   0  0  0  0  0  0  0  0  0  0  0  0
   -8.6660   22.1910  -31.2390 C   0  0  0  0  0  0  0  0  0  0  0  0
   -8.7240   20.8390  -31.6180 C   0  0  0  0  0  0  0  0  0  0  0  0
   -7.5390   20.1150  -31.9050 C   0  0  0  0  0  0  0  0  0  0  0  0
   -7.6120   18.6560  -32.2760 C   0  0  0  0  0  0  0  0  0  0  0  0
   -6.9440   17.9090  -31.3240 F   0  0  0  0  0  0  0  0  0  0  0  0
   -7.0300   18.4350  -33.5130 F   0  0  0  0  0  0  0  0  0  0  0  0
   -8.9290   18.2330  -32.3380 F   0  0  0  0  0  0  0  0  0  0  0  0
   -6.2830   20.7480  -31.7580 C   0  0  0  0  0  0  0  0  0  0  0  0
   -6.2550   22.0900  -31.3620 C   0  0  0  0  0  0  0  0  0  0  0  0
   -2.1520   22.3970  -27.4160 C   0  0  1  0  0  0  0  0  0  0  0  0
   -3.3740   21.5640  -27.8730 C   0  0  0  0  0  0  0  0  0  0  0  0
   -3.1320   20.1050  -27.4990 C   0  0  0  0  0  0  0  0  0  0  0  0
   -1.3820   19.8860  -27.5950 S   0  0  0  0  0  0  0  0  0  0  0  0
   -0.9920   19.0790  -28.8020 O   0  0  0  0  0  0  0  0  0  0  0  0
   -0.8340   19.2660  -26.3410 O   0  0  0  0  0  0  0  0  0  0  0  0
   -0.8850   21.5750  -27.7560 C   0  0  0  0  0  0  0  0  0  0  0  0
   -4.2980   24.8849  -25.6275 H   0  0  0  0  0  0  0  0  0  0  0  0
   -4.5496   25.7923  -27.1573 H   0  0  0  0  0  0  0  0  0  0  0  0
   -4.6114   23.9971  -27.1573 H   0  0  0  0  0  0  0  0  0  0  0  0
   -2.3096   25.8080  -27.3844 H   0  0  0  0  0  0  0  0  0  0  0  0
   -2.1394   24.5650  -26.0374 H   0  0  0  0  0  0  0  0  0  0  0  0
   -2.9530   23.8000  -28.6830 H   0  0  0  0  0  0  0  0  0  0  0  0
   -1.2663   22.5680  -31.6678 H   0  0  0  0  0  0  0  0  0  0  0  0
   -1.0429   21.7450  -30.0858 H   0  0  0  0  0  0  0  0  0  0  0  0
   -2.8090   24.7720  -30.7440 H   0  0  0  0  0  0  0  0  0  0  0  0
   -7.7518   24.9051  -30.5546 H   0  0  0  0  0  0  0  0  0  0  0  0
   -9.5838   22.7621  -31.0355 H   0  0  0  0  0  0  0  0  0  0  0  0
   -9.6997   20.3367  -31.6929 H   0  0  0  0  0  0  0  0  0  0  0  0
   -5.3498   20.1984  -31.9504 H   0  0  0  0  0  0  0  0  0  0  0  0
   -2.1589   22.5688  -26.3295 H   0  0  0  0  0  0  0  0  0  0  0  0
   -4.2816   21.9302  -27.3708 H   0  0  0  0  0  0  0  0  0  0  0  0
   -3.5083   21.6571  -28.9608 H   0  0  0  0  0  0  0  0  0  0  0  0
   -3.4905   19.9038  -26.4787 H   0  0  0  0  0  0  0  0  0  0  0  0
   -3.6697   19.4151  -28.1660 H   0  0  0  0  0  0  0  0  0  0  0  0
   -0.0721   21.8080  -27.0525 H   0  0  0  0  0  0  0  0  0  0  0  0
   -0.5030   21.8002  -28.7627 H   0  0  0  0  0  0  0  0  0  0  0  0
  1  2  1  0
  2  3  1  0
  3  4  1  0
  4  5  2  0
  4  6  1  0
  6  7  1  0
  7  8  1  0
  8  9  1  0
  9 10  2  0
  9 11  1  0
 11 12  1  0
 12 13  1  0
 13 14  1  0
 13 15  2  0
 12 16  2  0
 16 17  1  0
 17 18  2  0
 18 19  1  0
 19 20  2  0
 20 21  1  0
 21 22  1  0
 21 23  1  0
 21 24  1  0
 20 25  1  0
 25 26  2  0
  3 27  1  0
 27 28  1  0
 28 29  1  0
 29 30  1  0
 30 31  2  0
 30 32  2  0
 30 33  1  0
 26 11  1  0
 33 27  1  0
 26 17  1  0
  1 34  1  0
  1 35  1  0
  1 36  1  0
  2 37  1  0
  2 38  1  0
  3 39  1  6
  7 40  1  0
  7 41  1  0
 14 42  1  0
 16 43  1  0
 18 44  1  0
 19 45  1  0
 25 46  1  0
 27 47  1  1
 28 48  1  0
 28 49  1  0
 29 50  1  0
 29 51  1  0
 33 52  1  0
 33 53  1  0
M  CHG  2   3   1  14  -1
M  END
>  <UniqueID>  (84) 
84

>  <SMILES>  (84) 
CC[N@@H+](C(=O)OCOC(=O)n1c(C([NH-])=O)cc2ccc(C(F)(F)F)cc21)[C@H]1CCS(=O)(=O)C1

>  <Energy>  (84) 
99.61529020923558

>  <Genealogy>  (84) 
CC[NH+](C(=O)OCOC(=O)n1c(C([NH-])=O)cc2ccc(C(F)(F)F)cc21)C1CCS(=O)(=O)C1 (protonated)
CC[N@@H+](C(=O)OCOC(=O)n1c(C([NH-])=O)cc2ccc(C(F)(F)F)cc21)[C@H]1CCS(=O)(=O)C1 (chirality)
CC[N@@H+](C(=O)OCOC(=O)n1c(C([NH-])=O)cc2ccc(C(F)(F)F)cc21)[C@H]1CCS(=O)(=O)C1 (3D coordinates assigned)
CC[N@@H+](C(=O)OCOC(=O)n1c(C([NH-])=O)cc2ccc(C(F)(F)F)cc21)[C@H]1CCS(=O)(=O)C1 (nonaromatic ring conformer: 99.61529020923558 kcal/mol)

>  <smiles>  (84) 
CCN(C(=O)OCOC(=O)n1c(C(N)=O)cc2ccc(C(F)(F)F)cc21)C1CCS(=O)(=O)C1

>  <score_type>  (84) 
oracle

>  <origin>  (84) 
adg

>  <m_score__min__energy>  (84) 
-11.02

>  <m_primary>  (84) 
energy

$$$$
87:0
     RDKit          3D

 42 44  0  0  0  0  0  0  0  0999 V2000
   -3.9830   25.6710  -30.8320 N   0  0  0  0  0  0  0  0  0  0  0  0
   -5.3180   25.2630  -30.5440 C   0  0  0  0  0  0  0  0  0  0  0  0
   -6.0750   26.0370  -29.9010 O   0  0  0  0  0  0  0  0  0  0  0  0
   -5.7840   23.9240  -30.9640 C   0  0  0  0  0  0  0  0  0  0  0  0
   -7.0930   23.6560  -31.3580 C   0  0  0  0  0  0  0  0  0  0  0  0
   -7.0930   22.3380  -31.7530 C   0  0  0  0  0  0  0  0  0  0  0  0
   -8.1330   21.5480  -32.2300 C   0  0  0  0  0  0  0  0  0  0  0  0
   -7.8530   20.2070  -32.5400 C   0  0  0  0  0  0  0  0  0  0  0  0
   -6.5470   19.6750  -32.3630 C   0  0  0  0  0  0  0  0  0  0  0  0
   -6.2730   18.2910  -32.6740 N   0  0  0  0  0  0  0  0  0  0  0  0
   -6.0910   17.8690  -34.0730 C   0  0  0  0  0  0  0  0  0  0  0  0
   -6.4880   16.4000  -34.2510 C   0  0  0  0  0  0  0  0  0  0  0  0
   -5.7070   15.4660  -33.3090 C   0  0  0  0  0  0  0  0  0  0  0  0
   -5.2550   16.1420  -32.0000 C   0  0  0  0  0  0  0  0  0  0  0  0
   -6.1790   17.2950  -31.5940 C   0  0  0  0  0  0  0  0  0  0  0  0
   -5.5190   20.5150  -31.8740 C   0  0  0  0  0  0  0  0  0  0  0  0
   -5.8230   21.8520  -31.5920 C   0  0  0  0  0  0  0  0  0  0  0  0
   -5.0070   22.8120  -31.1040 N   0  0  0  0  0  0  0  0  0  0  0  0
   -3.6210   22.6540  -30.7610 C   0  0  0  0  0  0  0  0  0  0  0  0
   -2.7290   22.8780  -31.6230 O   0  0  0  0  0  0  0  0  0  0  0  0
   -3.2680   22.2730  -29.4610 O   0  0  0  0  0  0  0  0  0  0  0  0
   -2.8600   23.1990  -28.4570 C   0  0  0  0  0  0  0  0  0  0  0  0
   -1.7620   24.0820  -28.9660 C   0  0  0  0  0  0  0  0  0  0  0  0
   -1.9580   25.2770  -29.1150 O   0  0  0  0  0  0  0  0  0  0  0  0
   -3.2020   24.9790  -30.8500 H   0  0  0  0  0  0  0  0  0  0  0  0
   -7.9458   24.3508  -31.3541 H   0  0  0  0  0  0  0  0  0  0  0  0
   -9.1443   21.9607  -32.3606 H   0  0  0  0  0  0  0  0  0  0  0  0
   -8.6551   19.5600  -32.9248 H   0  0  0  0  0  0  0  0  0  0  0  0
   -6.7198   18.4945  -34.7237 H   0  0  0  0  0  0  0  0  0  0  0  0
   -5.0307   17.9841  -34.3423 H   0  0  0  0  0  0  0  0  0  0  0  0
   -7.5628   16.2960  -34.0412 H   0  0  0  0  0  0  0  0  0  0  0  0
   -6.2509   16.1101  -35.2853 H   0  0  0  0  0  0  0  0  0  0  0  0
   -6.3517   14.6120  -33.0540 H   0  0  0  0  0  0  0  0  0  0  0  0
   -4.7957   15.1596  -33.8435 H   0  0  0  0  0  0  0  0  0  0  0  0
   -5.2519   15.3909  -31.1963 H   0  0  0  0  0  0  0  0  0  0  0  0
   -4.2497   16.5572  -32.1644 H   0  0  0  0  0  0  0  0  0  0  0  0
   -7.1821   16.8964  -31.3819 H   0  0  0  0  0  0  0  0  0  0  0  0
   -5.7649   17.7819  -30.6988 H   0  0  0  0  0  0  0  0  0  0  0  0
   -4.5020   20.1256  -31.7186 H   0  0  0  0  0  0  0  0  0  0  0  0
   -3.7199   23.8216  -28.1691 H   0  0  0  0  0  0  0  0  0  0  0  0
   -2.4877   22.6370  -27.5878 H   0  0  0  0  0  0  0  0  0  0  0  0
   -0.7781   23.6525  -29.2056 H   0  0  0  0  0  0  0  0  0  0  0  0
  1  2  1  0
  2  3  2  0
  2  4  1  0
  4  5  2  0
  5  6  1  0
  6  7  2  0
  7  8  1  0
  8  9  2  0
  9 10  1  0
 10 11  1  0
 11 12  1  0
 12 13  1  0
 13 14  1  0
 14 15  1  0
  9 16  1  0
 16 17  2  0
 17 18  1  0
 18 19  1  0
 19 20  2  0
 19 21  1  0
 21 22  1  0
 22 23  1  0
 23 24  2  0
 18  4  1  0
 17  6  1  0
 15 10  1  0
  1 25  1  0
  5 26  1  0
  7 27  1  0
  8 28  1  0
 11 29  1  0
 11 30  1  0
 12 31  1  0
 12 32  1  0
 13 33  1  0
 13 34  1  0
 14 35  1  0
 14 36  1  0
 15 37  1  0
 15 38  1  0
 16 39  1  0
 22 40  1  0
 22 41  1  0
 23 42  1  0
M  CHG  1   1  -1
M  END
>  <UniqueID>  (85) 
85

>  <SMILES>  (85) 
[NH-]C(=O)c1cc2ccc(N3CCCCC3)cc2n1C(=O)OCC=O

>  <Energy>  (85) 
82.94586449807261

>  <Genealogy>  (85) 
[NH-]C(=O)c1cc2ccc(N3CCCCC3)cc2n1C(=O)OCC=O (protonated)
[NH-]C(=O)c1cc2ccc(N3CCCCC3)cc2n1C(=O)OCC=O (3D coordinates assigned)
[NH-]C(=O)c1cc2ccc(N3CCCCC3)cc2n1C(=O)OCC=O (nonaromatic ring conformer: 82.94586449807261 kcal/mol)

>  <smiles>  (85) 
NC(=O)c1cc2ccc(N3CCCCC3)cc2n1C(=O)OCC=O

>  <score_type>  (85) 
oracle

>  <origin>  (85) 
adg

>  <m_score__min__energy>  (85) 
-10.81

>  <m_primary>  (85) 
energy

$$$$
88:0
     RDKit          3D

 36 37  0  0  0  0  0  0  0  0999 V2000
   -4.1700   25.6350  -30.8410 N   0  0  0  0  0  0  0  0  0  0  0  0
   -5.3040   25.1020  -30.1630 C   0  0  0  0  0  0  0  0  0  0  0  0
   -5.7270   25.6750  -29.1240 O   0  0  0  0  0  0  0  0  0  0  0  0
   -5.9960   23.9160  -30.7070 C   0  0  0  0  0  0  0  0  0  0  0  0
   -7.3700   23.8640  -30.9320 C   0  0  0  0  0  0  0  0  0  0  0  0
   -7.6230   22.5770  -31.3520 C   0  0  0  0  0  0  0  0  0  0  0  0
   -8.8220   21.9760  -31.7190 C   0  0  0  0  0  0  0  0  0  0  0  0
   -8.7860   20.6340  -32.1340 C   0  0  0  0  0  0  0  0  0  0  0  0
   -7.5570   19.9290  -32.1910 C   0  0  0  0  0  0  0  0  0  0  0  0
   -7.5340   18.4890  -32.6160 C   0  0  0  0  0  0  0  0  0  0  0  0
   -6.0850   18.1660  -33.6680 P   0  0  1  0  0  0  0  0  0  0  0  0
   -4.8210   18.3080  -32.8500 O   0  0  0  0  0  0  0  0  0  0  0  0
   -6.1770   16.6000  -34.2960 O   0  0  0  0  0  0  0  0  0  0  0  0
   -6.0610   19.2830  -34.9380 O   0  0  0  0  0  0  0  0  0  0  0  0
   -6.3610   20.5710  -31.8010 C   0  0  0  0  0  0  0  0  0  0  0  0
   -6.4300   21.9020  -31.3740 C   0  0  0  0  0  0  0  0  0  0  0  0
   -5.4210   22.7100  -30.9810 N   0  0  0  0  0  0  0  0  0  0  0  0
   -4.0240   22.3750  -30.9460 C   0  0  0  0  0  0  0  0  0  0  0  0
   -3.6000   21.3840  -31.6000 O   0  0  0  0  0  0  0  0  0  0  0  0
   -3.1400   23.1630  -30.2020 O   0  0  0  0  0  0  0  0  0  0  0  0
   -2.8250   22.9150  -28.8330 C   0  0  0  0  0  0  0  0  0  0  0  0
   -2.2250   24.1600  -28.1770 C   0  0  0  0  0  0  0  0  0  0  0  0
   -2.4990   25.3020  -28.9430 O   0  0  0  0  0  0  0  0  0  0  0  0
   -3.2060   25.2970  -30.6230 H   0  0  0  0  0  0  0  0  0  0  0  0
   -8.0982   24.6781  -30.8018 H   0  0  0  0  0  0  0  0  0  0  0  0
   -9.7694   22.5339  -31.6855 H   0  0  0  0  0  0  0  0  0  0  0  0
   -9.7196   20.1258  -32.4172 H   0  0  0  0  0  0  0  0  0  0  0  0
   -7.4851   17.8477  -31.7236 H   0  0  0  0  0  0  0  0  0  0  0  0
   -8.4479   18.2693  -33.1874 H   0  0  0  0  0  0  0  0  0  0  0  0
   -7.0140   19.4190  -35.1730 H   0  0  0  0  0  0  0  0  0  0  0  0
   -5.3992   20.0381  -31.8321 H   0  0  0  0  0  0  0  0  0  0  0  0
   -3.7435   22.6328  -28.2975 H   0  0  0  0  0  0  0  0  0  0  0  0
   -2.0865   22.1013  -28.7840 H   0  0  0  0  0  0  0  0  0  0  0  0
   -2.6589   24.2848  -27.1739 H   0  0  0  0  0  0  0  0  0  0  0  0
   -1.1346   24.0333  -28.1068 H   0  0  0  0  0  0  0  0  0  0  0  0
   -3.4620   25.2600  -29.1780 H   0  0  0  0  0  0  0  0  0  0  0  0
  1  2  1  0
  2  3  2  0
  2  4  1  0
  4  5  2  0
  5  6  1  0
  6  7  2  0
  7  8  1  0
  8  9  2  0
  9 10  1  0
 10 11  1  0
 11 12  2  0
 11 13  1  6
 11 14  1  0
  9 15  1  0
 15 16  2  0
 16 17  1  0
 17 18  1  0
 18 19  2  0
 18 20  1  0
 20 21  1  0
 21 22  1  0
 22 23  1  0
 17  4  1  0
 16  6  1  0
  1 24  1  0
  5 25  1  0
  7 26  1  0
  8 27  1  0
 10 28  1  0
 10 29  1  0
 14 30  1  0
 15 31  1  0
 21 32  1  0
 21 33  1  0
 22 34  1  0
 22 35  1  0
 23 36  1  0
M  CHG  2   1  -1  13  -1
M  END
>  <UniqueID>  (86) 
86

>  <SMILES>  (86) 
[NH-]C(=O)c1cc2ccc(C[P@@](=O)([O-])O)cc2n1C(=O)OCCO

>  <Energy>  (86) 
65.43013879340893

>  <Genealogy>  (86) 
[NH-]C(=O)c1cc2ccc(CP(=O)([O-])O)cc2n1C(=O)OCCO (protonated)
[NH-]C(=O)c1cc2ccc(C[P@@](=O)([O-])O)cc2n1C(=O)OCCO (chirality)
[NH-]C(=O)c1cc2ccc(C[P@@](=O)([O-])O)cc2n1C(=O)OCCO (3D coordinates assigned)
[NH-]C(=O)c1cc2ccc(C[P@@](=O)([O-])O)cc2n1C(=O)OCCO (optimized conformer: 65.43013879340893 kcal/mol)

>  <smiles>  (86) 
NC(=O)c1cc2ccc(CP(=O)(O)O)cc2n1C(=O)OCCO

>  <score_type>  (86) 
oracle

>  <origin>  (86) 
adg

>  <m_score__min__energy>  (86) 
-10.08

>  <m_primary>  (86) 
energy

$$$$
89:0
     RDKit          3D

 41 43  0  0  0  0  0  0  0  0999 V2000
   -4.2120   25.5140  -30.7200 N   0  0  0  0  0  0  0  0  0  0  0  0
   -5.5370   25.0110  -30.5320 C   0  0  0  0  0  0  0  0  0  0  0  0
   -6.3720   25.7090  -29.8980 O   0  0  0  0  0  0  0  0  0  0  0  0
   -5.9390   23.7070  -31.1030 C   0  0  0  0  0  0  0  0  0  0  0  0
   -7.2460   23.3880  -31.4690 C   0  0  0  0  0  0  0  0  0  0  0  0
   -7.2050   22.0680  -31.8550 C   0  0  0  0  0  0  0  0  0  0  0  0
   -8.2230   21.2400  -32.3180 C   0  0  0  0  0  0  0  0  0  0  0  0
   -7.8910   19.9200  -32.6660 C   0  0  0  0  0  0  0  0  0  0  0  0
   -6.5560   19.4560  -32.5570 C   0  0  0  0  0  0  0  0  0  0  0  0
   -6.2210   18.1030  -32.9210 N   0  0  0  0  0  0  0  0  0  0  0  0
   -7.2640   17.0730  -32.9550 C   0  0  0  0  0  0  0  0  0  0  0  0
   -6.8870   15.9940  -33.9760 C   0  0  0  0  0  0  0  0  0  0  0  0
   -5.5840   15.5010  -33.7280 O   0  0  0  0  0  0  0  0  0  0  0  0
   -4.6340   16.5320  -33.9300 C   0  0  0  0  0  0  0  0  0  0  0  0
   -4.8250   17.6550  -32.9070 C   0  0  0  0  0  0  0  0  0  0  0  0
   -5.5510   20.3270  -32.0770 C   0  0  0  0  0  0  0  0  0  0  0  0
   -5.9130   21.6300  -31.7200 C   0  0  0  0  0  0  0  0  0  0  0  0
   -5.1230   22.6260  -31.2590 N   0  0  0  0  0  0  0  0  0  0  0  0
   -3.7040   22.5600  -31.0460 C   0  0  0  0  0  0  0  0  0  0  0  0
   -2.9130   22.8580  -31.9820 O   0  0  0  0  0  0  0  0  0  0  0  0
   -3.2050   22.1480  -29.8050 O   0  0  0  0  0  0  0  0  0  0  0  0
   -2.8880   23.0510  -28.7490 C   0  0  0  0  0  0  0  0  0  0  0  0
   -1.9350   24.0980  -29.2270 C   0  0  0  0  0  0  0  0  0  0  0  0
   -2.3160   25.2920  -29.3440 O   0  0  0  0  0  0  0  0  0  0  0  0
   -0.6360   23.7520  -29.5770 O   0  0  0  0  0  0  0  0  0  0  0  0
   -3.4770   24.9440  -31.1920 H   0  0  0  0  0  0  0  0  0  0  0  0
   -3.9510   26.4530  -30.3440 H   0  0  0  0  0  0  0  0  0  0  0  0
   -8.1236   24.0509  -31.4526 H   0  0  0  0  0  0  0  0  0  0  0  0
   -9.2558   21.6076  -32.4087 H   0  0  0  0  0  0  0  0  0  0  0  0
   -8.6757   19.2390  -33.0271 H   0  0  0  0  0  0  0  0  0  0  0  0
   -7.3607   16.6167  -31.9588 H   0  0  0  0  0  0  0  0  0  0  0  0
   -8.2212   17.5314  -33.2442 H   0  0  0  0  0  0  0  0  0  0  0  0
   -7.6059   15.1644  -33.9060 H   0  0  0  0  0  0  0  0  0  0  0  0
   -6.9107   16.4372  -34.9825 H   0  0  0  0  0  0  0  0  0  0  0  0
   -3.6215   16.1154  -33.8235 H   0  0  0  0  0  0  0  0  0  0  0  0
   -4.7730   16.9469  -34.9392 H   0  0  0  0  0  0  0  0  0  0  0  0
   -4.5703   17.2830  -31.9036 H   0  0  0  0  0  0  0  0  0  0  0  0
   -4.1686   18.4990  -33.1653 H   0  0  0  0  0  0  0  0  0  0  0  0
   -4.5086   19.9877  -31.9864 H   0  0  0  0  0  0  0  0  0  0  0  0
   -3.8109   23.5348  -28.3965 H   0  0  0  0  0  0  0  0  0  0  0  0
   -2.4183   22.4892  -27.9282 H   0  0  0  0  0  0  0  0  0  0  0  0
  1  2  1  0
  2  3  2  0
  2  4  1  0
  4  5  2  0
  5  6  1  0
  6  7  2  0
  7  8  1  0
  8  9  2  0
  9 10  1  0
 10 11  1  0
 11 12  1  0
 12 13  1  0
 13 14  1  0
 14 15  1  0
  9 16  1  0
 16 17  2  0
 17 18  1  0
 18 19  1  0
 19 20  2  0
 19 21  1  0
 21 22  1  0
 22 23  1  0
 23 24  2  0
 23 25  1  0
 18  4  1  0
 17  6  1  0
 15 10  1  0
  1 26  1  0
  1 27  1  0
  5 28  1  0
  7 29  1  0
  8 30  1  0
 11 31  1  0
 11 32  1  0
 12 33  1  0
 12 34  1  0
 14 35  1  0
 14 36  1  0
 15 37  1  0
 15 38  1  0
 16 39  1  0
 22 40  1  0
 22 41  1  0
M  CHG  1  25  -1
M  END
>  <UniqueID>  (87) 
87

>  <SMILES>  (87) 
NC(=O)c1cc2ccc(N3CCOCC3)cc2n1C(=O)OCC(=O)[O-]

>  <Energy>  (87) 
83.83697803527339

>  <Genealogy>  (87) 
NC(=O)c1cc2ccc(N3CCOCC3)cc2n1C(=O)OCC(=O)[O-] (protonated)
NC(=O)c1cc2ccc(N3CCOCC3)cc2n1C(=O)OCC(=O)[O-] (3D coordinates assigned)
NC(=O)c1cc2ccc(N3CCOCC3)cc2n1C(=O)OCC(=O)[O-] (nonaromatic ring conformer: 83.83697803527339 kcal/mol)

>  <smiles>  (87) 
NC(=O)c1cc2ccc(N3CCOCC3)cc2n1C(=O)OCC(=O)O

>  <score_type>  (87) 
oracle

>  <origin>  (87) 
adg

>  <m_score__min__energy>  (87) 
-11.6

>  <m_primary>  (87) 
energy

$$$$
90:0
     RDKit          3D

 55 57  0  0  0  0  0  0  0  0999 V2000
   -3.7320   23.1630  -28.1880 C   0  0  0  0  0  0  0  0  0  0  0  0
   -2.8160   22.6610  -29.3180 C   0  0  0  0  0  0  0  0  0  0  0  0
   -3.0350   21.1530  -29.5030 C   0  0  0  0  0  0  0  0  0  0  0  0
   -1.3350   22.9090  -28.9710 C   0  0  0  0  0  0  0  0  0  0  0  0
   -3.1590   23.2920  -30.5610 O   0  0  0  0  0  0  0  0  0  0  0  0
   -4.0230   22.7850  -31.5410 C   0  0  0  0  0  0  0  0  0  0  0  0
   -3.5620   22.2940  -32.6060 O   0  0  0  0  0  0  0  0  0  0  0  0
   -5.4490   22.8520  -31.3430 N   0  0  0  0  0  0  0  0  0  0  0  0
   -6.1600   23.8960  -30.8330 C   0  0  0  0  0  0  0  0  0  0  0  0
   -5.5900   25.1300  -30.2720 C   0  0  0  0  0  0  0  0  0  0  0  0
   -4.2680   25.5420  -30.6180 N   0  0  0  0  0  0  0  0  0  0  0  0
   -6.2560   25.7990  -29.4390 O   0  0  0  0  0  0  0  0  0  0  0  0
   -7.5270   23.6810  -30.9720 C   0  0  0  0  0  0  0  0  0  0  0  0
   -7.6390   22.4450  -31.5670 C   0  0  0  0  0  0  0  0  0  0  0  0
   -8.7740   21.7280  -31.9340 C   0  0  0  0  0  0  0  0  0  0  0  0
   -8.5930   20.4700  -32.5330 C   0  0  0  0  0  0  0  0  0  0  0  0
   -7.2950   19.9460  -32.7470 C   0  0  0  0  0  0  0  0  0  0  0  0
   -7.1580   18.6480  -33.3630 N   0  0  0  0  0  0  0  0  0  0  0  0
   -7.2030   17.3790  -32.6340 C   0  0  0  0  0  0  0  0  0  0  0  0
   -5.8970   16.5970  -32.8310 C   0  0  0  0  0  0  0  0  0  0  0  0
   -5.0440   17.2420  -33.8510 N   0  0  0  0  0  0  0  0  0  0  0  0
   -4.1350   18.2230  -33.2460 C   0  0  0  0  0  0  0  0  0  0  0  0
   -2.8470   18.2270  -34.0610 C   0  0  0  0  0  0  0  0  0  0  0  0
   -2.9690   17.0610  -35.0250 C   0  0  0  0  0  0  0  0  0  0  0  0
   -4.1790   16.2830  -34.5480 C   0  0  0  0  0  0  0  0  0  0  0  0
   -6.1660   20.7040  -32.3490 C   0  0  0  0  0  0  0  0  0  0  0  0
   -6.3720   21.9640  -31.7780 C   0  0  0  0  0  0  0  0  0  0  0  0
   -3.2824   22.9166  -27.2148 H   0  0  0  0  0  0  0  0  0  0  0  0
   -3.8525   24.2532  -28.2707 H   0  0  0  0  0  0  0  0  0  0  0  0
   -4.7158   22.6780  -28.2707 H   0  0  0  0  0  0  0  0  0  0  0  0
   -3.1053   20.6691  -28.5177 H   0  0  0  0  0  0  0  0  0  0  0  0
   -3.9672   20.9837  -30.0620 H   0  0  0  0  0  0  0  0  0  0  0  0
   -2.1895   20.7255  -30.0620 H   0  0  0  0  0  0  0  0  0  0  0  0
   -1.2130   22.9294  -27.8780 H   0  0  0  0  0  0  0  0  0  0  0  0
   -0.7192   22.1015  -29.3937 H   0  0  0  0  0  0  0  0  0  0  0  0
   -1.0158   23.8731  -29.3937 H   0  0  0  0  0  0  0  0  0  0  0  0
   -3.8640   26.4170  -30.2170 H   0  0  0  0  0  0  0  0  0  0  0  0
   -3.6710   24.9480  -31.2340 H   0  0  0  0  0  0  0  0  0  0  0  0
   -8.3433   24.3541  -30.6711 H   0  0  0  0  0  0  0  0  0  0  0  0
   -9.7816   22.1337  -31.7605 H   0  0  0  0  0  0  0  0  0  0  0  0
   -9.4718   19.8840  -32.8400 H   0  0  0  0  0  0  0  0  0  0  0  0
   -7.0450   18.5980  -34.4010 H   0  0  0  0  0  0  0  0  0  0  0  0
   -7.3446   17.5824  -31.5623 H   0  0  0  0  0  0  0  0  0  0  0  0
   -8.0388   16.7772  -33.0204 H   0  0  0  0  0  0  0  0  0  0  0  0
   -5.3517   16.5606  -31.8764 H   0  0  0  0  0  0  0  0  0  0  0  0
   -6.1442   15.5807  -33.1717 H   0  0  0  0  0  0  0  0  0  0  0  0
   -4.5946   19.2222  -33.2671 H   0  0  0  0  0  0  0  0  0  0  0  0
   -3.9268   17.9599  -32.1984 H   0  0  0  0  0  0  0  0  0  0  0  0
   -2.7454   19.1727  -34.6135 H   0  0  0  0  0  0  0  0  0  0  0  0
   -1.9591   18.1322  -33.4186 H   0  0  0  0  0  0  0  0  0  0  0  0
   -3.1225   17.4231  -36.0523 H   0  0  0  0  0  0  0  0  0  0  0  0
   -2.0599   16.4419  -35.0419 H   0  0  0  0  0  0  0  0  0  0  0  0
   -4.7111   15.8449  -35.4053 H   0  0  0  0  0  0  0  0  0  0  0  0
   -3.8840   15.4578  -33.8832 H   0  0  0  0  0  0  0  0  0  0  0  0
   -5.1484   20.3096  -32.4863 H   0  0  0  0  0  0  0  0  0  0  0  0
  1  2  1  0
  2  3  1  0
  2  4  1  0
  2  5  1  0
  5  6  1  0
  6  7  2  0
  6  8  1  0
  8  9  1  0
  9 10  1  0
 10 11  1  0
 10 12  2  0
  9 13  2  0
 13 14  1  0
 14 15  2  0
 15 16  1  0
 16 17  2  0
 17 18  1  0
 18 19  1  0
 19 20  1  0
 20 21  1  0
 21 22  1  0
 22 23  1  0
 23 24  1  0
 24 25  1  0
 17 26  1  0
 26 27  2  0
 27  8  1  0
 27 14  1  0
 25 21  1  0
  1 28  1  0
  1 29  1  0
  1 30  1  0
  3 31  1  0
  3 32  1  0
  3 33  1  0
  4 34  1  0
  4 35  1  0
  4 36  1  0
 11 37  1  0
 11 38  1  0
 13 39  1  0
 15 40  1  0
 16 41  1  0
 18 42  1  0
 19 43  1  0
 19 44  1  0
 20 45  1  0
 20 46  1  0
 22 47  1  0
 22 48  1  0
 23 49  1  0
 23 50  1  0
 24 51  1  0
 24 52  1  0
 25 53  1  0
 25 54  1  0
 26 55  1  0
M  END
>  <UniqueID>  (88) 
88

>  <SMILES>  (88) 
CC(C)(C)OC(=O)n1c(C(N)=O)cc2ccc(NCCN3CCCC3)cc21

>  <Energy>  (88) 
91.81570717172058

>  <Genealogy>  (88) 
CC(C)(C)OC(=O)n1c(C(N)=O)cc2ccc(NCCN3CCCC3)cc21 (3D coordinates assigned)
CC(C)(C)OC(=O)n1c(C(N)=O)cc2ccc(NCCN3CCCC3)cc21 (nonaromatic ring conformer: 91.81570717172058 kcal/mol)

>  <smiles>  (88) 
CC(C)(C)OC(=O)n1c(C(N)=O)cc2ccc(NCCN3CCCC3)cc21

>  <score_type>  (88) 
oracle

>  <origin>  (88) 
adg

>  <m_score__min__energy>  (88) 
-9.3900000000000006

>  <m_primary>  (88) 
energy

$$$$
91:0
     RDKit          3D

 40 41  0  0  0  0  0  0  0  0999 V2000
   -2.9960   19.4470  -33.8070 C   0  0  0  0  0  0  0  0  0  0  0  0
   -3.1870   17.9500  -33.6280 C   0  0  0  0  0  0  0  0  0  0  0  0
   -4.3880   17.5400  -34.2750 O   0  0  0  0  0  0  0  0  0  0  0  0
   -5.5950   18.2290  -34.1250 C   0  0  0  0  0  0  0  0  0  0  0  0
   -6.0820   18.8900  -35.0830 O   0  0  0  0  0  0  0  0  0  0  0  0
   -6.2920   18.2140  -32.8020 C   0  0  0  0  0  0  0  0  0  0  0  0
   -6.5930   19.6190  -32.3640 C   0  0  0  0  0  0  0  0  0  0  0  0
   -7.9210   20.1100  -32.4230 C   0  0  0  0  0  0  0  0  0  0  0  0
   -8.2140   21.4290  -32.0360 C   0  0  0  0  0  0  0  0  0  0  0  0
   -7.1610   22.2330  -31.6100 C   0  0  0  0  0  0  0  0  0  0  0  0
   -7.1680   23.5330  -31.1610 C   0  0  0  0  0  0  0  0  0  0  0  0
   -5.8390   23.8290  -30.8640 C   0  0  0  0  0  0  0  0  0  0  0  0
   -5.3830   25.1650  -30.4290 C   0  0  0  0  0  0  0  0  0  0  0  0
   -4.1190   25.6790  -30.8420 N   0  0  0  0  0  0  0  0  0  0  0  0
   -6.1400   25.8840  -29.7250 O   0  0  0  0  0  0  0  0  0  0  0  0
   -5.0420   22.7490  -31.1100 N   0  0  0  0  0  0  0  0  0  0  0  0
   -3.6360   22.6120  -30.8510 C   0  0  0  0  0  0  0  0  0  0  0  0
   -2.9110   21.9680  -31.6580 O   0  0  0  0  0  0  0  0  0  0  0  0
   -3.0810   23.2230  -29.7200 O   0  0  0  0  0  0  0  0  0  0  0  0
   -1.8160   23.8250  -29.6640 C   0  0  0  0  0  0  0  0  0  0  0  0
   -0.7710   23.1680  -29.9180 O   0  0  0  0  0  0  0  0  0  0  0  0
   -1.7030   25.2030  -29.3160 N   0  0  0  0  0  0  0  0  0  0  0  0
   -1.2330   25.6350  -28.0100 C   0  0  0  0  0  0  0  0  0  0  0  0
   -5.8660   21.7820  -31.5710 C   0  0  0  0  0  0  0  0  0  0  0  0
   -5.5490   20.4670  -31.9350 C   0  0  0  0  0  0  0  0  0  0  0  0
   -2.9345   19.9294  -32.8203 H   0  0  0  0  0  0  0  0  0  0  0  0
   -2.0667   19.6339  -34.3651 H   0  0  0  0  0  0  0  0  0  0  0  0
   -3.8486   19.8613  -34.3651 H   0  0  0  0  0  0  0  0  0  0  0  0
   -2.3326   17.4166  -34.0702 H   0  0  0  0  0  0  0  0  0  0  0  0
   -3.2523   17.7161  -32.5551 H   0  0  0  0  0  0  0  0  0  0  0  0
   -7.2328   17.6511  -32.8922 H   0  0  0  0  0  0  0  0  0  0  0  0
   -5.6407   17.7349  -32.0561 H   0  0  0  0  0  0  0  0  0  0  0  0
   -8.7299   19.4528  -32.7749 H   0  0  0  0  0  0  0  0  0  0  0  0
   -9.2439   21.8140  -32.0688 H   0  0  0  0  0  0  0  0  0  0  0  0
   -8.0381   24.1981  -31.0581 H   0  0  0  0  0  0  0  0  0  0  0  0
   -3.2290   25.2530  -30.5020 H   0  0  0  0  0  0  0  0  0  0  0  0
   -1.8004   25.1134  -27.2251 H   0  0  0  0  0  0  0  0  0  0  0  0
   -0.1637   25.3980  -27.9083 H   0  0  0  0  0  0  0  0  0  0  0  0
   -1.3792   26.7205  -27.9083 H   0  0  0  0  0  0  0  0  0  0  0  0
   -4.5117   20.1039  -31.8877 H   0  0  0  0  0  0  0  0  0  0  0  0
  1  2  1  0
  2  3  1  0
  3  4  1  0
  4  5  2  0
  4  6  1  0
  6  7  1  0
  7  8  2  0
  8  9  1  0
  9 10  2  0
 10 11  1  0
 11 12  2  0
 12 13  1  0
 13 14  1  0
 13 15  2  0
 12 16  1  0
 16 17  1  0
 17 18  2  0
 17 19  1  0
 19 20  1  0
 20 21  2  0
 20 22  1  0
 22 23  1  0
 16 24  1  0
 24 25  2  0
 25  7  1  0
 24 10  1  0
  1 26  1  0
  1 27  1  0
  1 28  1  0
  2 29  1  0
  2 30  1  0
  6 31  1  0
  6 32  1  0
  8 33  1  0
  9 34  1  0
 11 35  1  0
 14 36  1  0
 23 37  1  0
 23 38  1  0
 23 39  1  0
 25 40  1  0
M  CHG  2  14  -1  22  -1
M  END
>  <UniqueID>  (89) 
89

>  <SMILES>  (89) 
CCOC(=O)Cc1ccc2cc(C([NH-])=O)n(C(=O)OC(=O)[N-]C)c2c1

>  <Energy>  (89) 
68.39865684045898

>  <Genealogy>  (89) 
CCOC(=O)Cc1ccc2cc(C([NH-])=O)n(C(=O)OC(=O)[N-]C)c2c1 (protonated)
CCOC(=O)Cc1ccc2cc(C([NH-])=O)n(C(=O)OC(=O)[N-]C)c2c1 (3D coordinates assigned)
CCOC(=O)Cc1ccc2cc(C([NH-])=O)n(C(=O)OC(=O)[N-]C)c2c1 (optimized conformer: 68.39865684045898 kcal/mol)

>  <smiles>  (89) 
CCOC(=O)Cc1ccc2cc(C(N)=O)n(C(=O)OC(=O)NC)c2c1

>  <score_type>  (89) 
oracle

>  <origin>  (89) 
adg

>  <m_score__min__energy>  (89) 
-11.109999999999999

>  <m_primary>  (89) 
energy

$$$$
92:0
     RDKit          3D

 36 37  0  0  0  0  0  0  0  0999 V2000
   -3.8940   25.6730  -30.8320 N   0  0  0  0  0  0  0  0  0  0  0  0
   -5.2140   25.2670  -30.4840 C   0  0  0  0  0  0  0  0  0  0  0  0
   -5.9470   26.0520  -29.8250 O   0  0  0  0  0  0  0  0  0  0  0  0
   -5.7540   23.9660  -30.9330 C   0  0  0  0  0  0  0  0  0  0  0  0
   -7.1150   23.7150  -31.0910 C   0  0  0  0  0  0  0  0  0  0  0  0
   -7.1940   22.4410  -31.6040 C   0  0  0  0  0  0  0  0  0  0  0  0
   -8.3090   21.6780  -31.9400 C   0  0  0  0  0  0  0  0  0  0  0  0
   -8.0950   20.3750  -32.4190 C   0  0  0  0  0  0  0  0  0  0  0  0
   -6.7800   19.8610  -32.5530 C   0  0  0  0  0  0  0  0  0  0  0  0
   -6.5640   18.4470  -33.0240 C   0  0  0  0  0  0  0  0  0  0  0  0
   -5.4860   18.3760  -34.1070 C   0  0  0  0  0  0  0  0  0  0  0  0
   -6.0500   18.5390  -35.3810 O   0  0  0  0  0  0  0  0  0  0  0  0
   -5.6740   20.6610  -32.1930 C   0  0  0  0  0  0  0  0  0  0  0  0
   -5.9150   21.9620  -31.7350 C   0  0  0  0  0  0  0  0  0  0  0  0
   -5.0200   22.8850  -31.3220 N   0  0  0  0  0  0  0  0  0  0  0  0
   -3.5980   22.7090  -31.2410 C   0  0  0  0  0  0  0  0  0  0  0  0
   -2.9570   22.2970  -32.2460 O   0  0  0  0  0  0  0  0  0  0  0  0
   -2.9260   23.0250  -30.0540 O   0  0  0  0  0  0  0  0  0  0  0  0
   -1.5110   22.9380  -29.9050 C   0  0  0  0  0  0  0  0  0  0  0  0
   -0.9800   24.1310  -29.1070 C   0  0  0  0  0  0  0  0  0  0  0  0
   -1.7970   25.2510  -29.3070 O   0  0  0  0  0  0  0  0  0  0  0  0
   -3.1380   24.9700  -30.9850 H   0  0  0  0  0  0  0  0  0  0  0  0
   -7.9495   24.3919  -30.8555 H   0  0  0  0  0  0  0  0  0  0  0  0
   -9.3262   22.0830  -31.8336 H   0  0  0  0  0  0  0  0  0  0  0  0
   -8.9557   19.7472  -32.6928 H   0  0  0  0  0  0  0  0  0  0  0  0
   -6.2530   17.8289  -32.1689 H   0  0  0  0  0  0  0  0  0  0  0  0
   -7.5078   18.0773  -33.4513 H   0  0  0  0  0  0  0  0  0  0  0  0
   -4.7480   19.1732  -33.9344 H   0  0  0  0  0  0  0  0  0  0  0  0
   -5.0015   17.3896  -34.0589 H   0  0  0  0  0  0  0  0  0  0  0  0
   -6.8120   19.1670  -35.2790 H   0  0  0  0  0  0  0  0  0  0  0  0
   -4.6481   20.2718  -32.2704 H   0  0  0  0  0  0  0  0  0  0  0  0
   -1.2597   22.0075  -29.3748 H   0  0  0  0  0  0  0  0  0  0  0  0
   -1.0479   22.9439  -30.9028 H   0  0  0  0  0  0  0  0  0  0  0  0
   -0.9690   23.8761  -28.0370 H   0  0  0  0  0  0  0  0  0  0  0  0
    0.0390   24.3654  -29.4486 H   0  0  0  0  0  0  0  0  0  0  0  0
   -2.5880   24.9370  -29.8190 H   0  0  0  0  0  0  0  0  0  0  0  0
  1  2  1  0
  2  3  2  0
  2  4  1  0
  4  5  2  0
  5  6  1  0
  6  7  2  0
  7  8  1  0
  8  9  2  0
  9 10  1  0
 10 11  1  0
 11 12  1  0
  9 13  1  0
 13 14  2  0
 14 15  1  0
 15 16  1  0
 16 17  2  0
 16 18  1  0
 18 19  1  0
 19 20  1  0
 20 21  1  0
 15  4  1  0
 14  6  1  0
  1 22  1  0
  5 23  1  0
  7 24  1  0
  8 25  1  0
 10 26  1  0
 10 27  1  0
 11 28  1  0
 11 29  1  0
 12 30  1  0
 13 31  1  0
 19 32  1  0
 19 33  1  0
 20 34  1  0
 20 35  1  0
 21 36  1  0
M  CHG  1   1  -1
M  END
>  <UniqueID>  (90) 
90

>  <SMILES>  (90) 
[NH-]C(=O)c1cc2ccc(CCO)cc2n1C(=O)OCCO

>  <Energy>  (90) 
68.91006416991718

>  <Genealogy>  (90) 
[NH-]C(=O)c1cc2ccc(CCO)cc2n1C(=O)OCCO (protonated)
[NH-]C(=O)c1cc2ccc(CCO)cc2n1C(=O)OCCO (3D coordinates assigned)
[NH-]C(=O)c1cc2ccc(CCO)cc2n1C(=O)OCCO (optimized conformer: 68.91006416991718 kcal/mol)

>  <smiles>  (90) 
NC(=O)c1cc2ccc(CCO)cc2n1C(=O)OCCO

>  <score_type>  (90) 
oracle

>  <origin>  (90) 
adg

>  <m_score__min__energy>  (90) 
-10.140000000000001

>  <m_primary>  (90) 
energy

$$$$
93:0
     RDKit          3D

 56 57  0  0  0  0  0  0  0  0999 V2000
   -5.7370   18.3930  -35.2910 C   0  0  0  0  0  0  0  0  0  0  0  0
   -5.8410   18.3180  -33.8310 N   0  0  0  0  0  0  0  0  0  0  0  0
   -6.0510   19.5600  -33.1410 C   0  0  0  0  0  0  0  0  0  0  0  0
   -7.3630   20.0670  -33.0000 C   0  0  0  0  0  0  0  0  0  0  0  0
   -7.5870   21.2920  -32.3520 C   0  0  0  0  0  0  0  0  0  0  0  0
   -6.4820   21.9830  -31.8650 C   0  0  0  0  0  0  0  0  0  0  0  0
   -6.4140   23.1950  -31.2180 C   0  0  0  0  0  0  0  0  0  0  0  0
   -5.0610   23.4090  -30.9810 C   0  0  0  0  0  0  0  0  0  0  0  0
   -4.5500   24.5640  -30.2220 C   0  0  0  0  0  0  0  0  0  0  0  0
   -4.3610   24.4950  -28.8110 N   0  0  0  0  0  0  0  0  0  0  0  0
   -4.2120   25.6080  -30.8410 O   0  0  0  0  0  0  0  0  0  0  0  0
   -4.3170   22.3600  -31.4390 N   0  0  0  0  0  0  0  0  0  0  0  0
   -2.9120   22.1270  -31.2430 C   0  0  0  0  0  0  0  0  0  0  0  0
   -2.1550   21.9530  -32.2350 O   0  0  0  0  0  0  0  0  0  0  0  0
   -2.3830   22.1130  -29.9480 O   0  0  0  0  0  0  0  0  0  0  0  0
   -3.0820   21.5480  -28.8450 C   0  0  0  0  0  0  0  0  0  0  0  0
   -3.0670   22.4580  -27.7490 O   0  0  0  0  0  0  0  0  0  0  0  0
   -1.8990   22.7960  -27.0540 C   0  0  0  0  0  0  0  0  0  0  0  0
   -1.2290   21.8990  -26.4730 O   0  0  0  0  0  0  0  0  0  0  0  0
   -1.4870   24.2490  -26.9310 C   0  0  0  0  0  0  0  0  0  0  0  0
   -2.6400   25.0890  -26.3450 C   0  0  0  0  0  0  0  0  0  0  0  0
   -0.2790   24.3310  -25.9780 C   0  0  0  0  0  0  0  0  0  0  0  0
   -1.1310   24.7990  -28.2990 C   0  0  0  0  0  0  0  0  0  0  0  0
   -0.0380   24.4790  -28.8400 O   0  0  0  0  0  0  0  0  0  0  0  0
   -1.9860   25.6710  -28.9680 O   0  0  0  0  0  0  0  0  0  0  0  0
   -5.2050   21.4970  -31.9820 C   0  0  0  0  0  0  0  0  0  0  0  0
   -4.9520   20.2780  -32.6230 C   0  0  0  0  0  0  0  0  0  0  0  0
   -5.7600   17.0160  -33.1170 C   0  0  0  0  0  0  0  0  0  0  0  0
   -4.3420   16.3990  -33.1860 C   0  0  0  0  0  0  0  0  0  0  0  0
   -6.7500   16.0230  -33.7560 C   0  0  0  0  0  0  0  0  0  0  0  0
   -6.1110   17.2210  -31.6600 C   0  0  0  0  0  0  0  0  0  0  0  0
   -7.2290   17.5920  -31.3390 O   0  0  0  0  0  0  0  0  0  0  0  0
   -4.8730   19.0160  -35.5655 H   0  0  0  0  0  0  0  0  0  0  0  0
   -5.6046   17.3811  -35.7016 H   0  0  0  0  0  0  0  0  0  0  0  0
   -6.6553   18.8381  -35.7016 H   0  0  0  0  0  0  0  0  0  0  0  0
   -8.2145   19.4976  -33.4009 H   0  0  0  0  0  0  0  0  0  0  0  0
   -8.6044   21.6930  -32.2330 H   0  0  0  0  0  0  0  0  0  0  0  0
   -7.2515   23.8542  -30.9461 H   0  0  0  0  0  0  0  0  0  0  0  0
   -4.0370   25.3380  -28.2850 H   0  0  0  0  0  0  0  0  0  0  0  0
   -4.4230   23.5830  -28.3090 H   0  0  0  0  0  0  0  0  0  0  0  0
   -4.1228   21.3449  -29.1372 H   0  0  0  0  0  0  0  0  0  0  0  0
   -2.5921   20.6097  -28.5457 H   0  0  0  0  0  0  0  0  0  0  0  0
   -2.5956   25.0567  -25.2464 H   0  0  0  0  0  0  0  0  0  0  0  0
   -2.5445   26.1307  -26.6853 H   0  0  0  0  0  0  0  0  0  0  0  0
   -3.6022   24.6788  -26.6853 H   0  0  0  0  0  0  0  0  0  0  0  0
   -0.6315   24.3071  -24.9363 H   0  0  0  0  0  0  0  0  0  0  0  0
    0.3893   23.4761  -26.1587 H   0  0  0  0  0  0  0  0  0  0  0  0
    0.2676   25.2683  -26.1587 H   0  0  0  0  0  0  0  0  0  0  0  0
   -3.9267   19.8914  -32.7199 H   0  0  0  0  0  0  0  0  0  0  0  0
   -3.9637   16.2344  -32.1663 H   0  0  0  0  0  0  0  0  0  0  0  0
   -4.3857   15.4385  -33.7204 H   0  0  0  0  0  0  0  0  0  0  0  0
   -3.6690   17.0856  -33.7204 H   0  0  0  0  0  0  0  0  0  0  0  0
   -7.2892   15.4822  -32.9643 H   0  0  0  0  0  0  0  0  0  0  0  0
   -7.4698   16.5731  -34.3799 H   0  0  0  0  0  0  0  0  0  0  0  0
   -6.1977   15.3049  -34.3799 H   0  0  0  0  0  0  0  0  0  0  0  0
   -5.3537   17.0345  -30.8843 H   0  0  0  0  0  0  0  0  0  0  0  0
  1  2  1  0
  2  3  1  0
  3  4  2  0
  4  5  1  0
  5  6  2  0
  6  7  1  0
  7  8  2  0
  8  9  1  0
  9 10  1  0
  9 11  2  0
  8 12  1  0
 12 13  1  0
 13 14  2  0
 13 15  1  0
 15 16  1  0
 16 17  1  0
 17 18  1  0
 18 19  2  0
 18 20  1  0
 20 21  1  0
 20 22  1  0
 20 23  1  0
 23 24  2  0
 23 25  1  0
 12 26  1  0
 26 27  2  0
  2 28  1  0
 28 29  1  0
 28 30  1  0
 28 31  1  0
 31 32  2  0
 27  3  1  0
 26  6  1  0
  1 33  1  0
  1 34  1  0
  1 35  1  0
  4 36  1  0
  5 37  1  0
  7 38  1  0
 10 39  1  0
 10 40  1  0
 16 41  1  0
 16 42  1  0
 21 43  1  0
 21 44  1  0
 21 45  1  0
 22 46  1  0
 22 47  1  0
 22 48  1  0
 27 49  1  0
 29 50  1  0
 29 51  1  0
 29 52  1  0
 30 53  1  0
 30 54  1  0
 30 55  1  0
 31 56  1  0
M  CHG  1  25  -1
M  END
>  <UniqueID>  (91) 
91

>  <SMILES>  (91) 
CN(c1ccc2cc(C(N)=O)n(C(=O)OCOC(=O)C(C)(C)C(=O)[O-])c2c1)C(C)(C)C=O

>  <Energy>  (91) 
95.7439421826908

>  <Genealogy>  (91) 
CN(c1ccc2cc(C(N)=O)n(C(=O)OCOC(=O)C(C)(C)C(=O)[O-])c2c1)C(C)(C)C=O (protonated)
CN(c1ccc2cc(C(N)=O)n(C(=O)OCOC(=O)C(C)(C)C(=O)[O-])c2c1)C(C)(C)C=O (3D coordinates assigned)
CN(c1ccc2cc(C(N)=O)n(C(=O)OCOC(=O)C(C)(C)C(=O)[O-])c2c1)C(C)(C)C=O (optimized conformer: 95.7439421826908 kcal/mol)

>  <smiles>  (91) 
CN(c1ccc2cc(C(N)=O)n(C(=O)OCOC(=O)C(C)(C)C(=O)O)c2c1)C(C)(C)C=O

>  <score_type>  (91) 
oracle

>  <origin>  (91) 
adg

>  <m_score__min__energy>  (91) 
-11.279999999999999

>  <m_primary>  (91) 
energy

$$$$
94:0
     RDKit          3D

 36 38  0  0  0  0  0  0  0  0999 V2000
   -7.5590   18.4820  -32.1090 C   0  0  0  0  0  0  0  0  0  0  0  0
   -7.5310   19.9620  -31.8720 C   0  0  0  0  0  0  0  0  0  0  0  0
   -8.7370   20.7050  -31.8730 C   0  0  0  0  0  0  0  0  0  0  0  0
   -8.7250   22.0880  -31.6240 C   0  0  0  0  0  0  0  0  0  0  0  0
   -7.4990   22.6930  -31.3590 C   0  0  0  0  0  0  0  0  0  0  0  0
   -7.2010   24.0110  -31.1020 C   0  0  0  0  0  0  0  0  0  0  0  0
   -5.8220   24.0470  -30.9050 C   0  0  0  0  0  0  0  0  0  0  0  0
   -5.0920   25.2680  -30.5080 C   0  0  0  0  0  0  0  0  0  0  0  0
   -3.6670   25.2920  -30.4710 N   0  0  0  0  0  0  0  0  0  0  0  0
   -5.7350   26.2890  -30.1470 O   0  0  0  0  0  0  0  0  0  0  0  0
   -5.2870   22.8010  -31.0470 N   0  0  0  0  0  0  0  0  0  0  0  0
   -3.9020   22.4230  -30.9970 C   0  0  0  0  0  0  0  0  0  0  0  0
   -3.1740   22.5740  -32.0160 O   0  0  0  0  0  0  0  0  0  0  0  0
   -3.3850   21.8580  -29.8230 O   0  0  0  0  0  0  0  0  0  0  0  0
   -3.4390   22.4410  -28.5500 C   0  0  0  0  0  0  0  0  0  0  0  0
   -4.2530   22.0200  -27.6830 O   0  0  0  0  0  0  0  0  0  0  0  0
   -2.5270   23.5590  -28.2250 C   0  0  0  0  0  0  0  0  0  0  0  0
   -2.8260   24.4420  -27.1740 C   0  0  0  0  0  0  0  0  0  0  0  0
   -1.9570   25.4930  -26.8720 C   0  0  0  0  0  0  0  0  0  0  0  0
   -0.7930   25.6550  -27.6240 C   0  0  0  0  0  0  0  0  0  0  0  0
   -0.5120   24.7960  -28.6380 N   0  0  0  0  0  0  0  0  0  0  0  0
   -1.3410   23.7630  -28.9530 C   0  0  0  0  0  0  0  0  0  0  0  0
   -6.3280   21.9820  -31.3200 C   0  0  0  0  0  0  0  0  0  0  0  0
   -6.3080   20.6070  -31.5850 C   0  0  0  0  0  0  0  0  0  0  0  0
   -7.5689   17.9561  -31.1429 H   0  0  0  0  0  0  0  0  0  0  0  0
   -8.4623   18.2190  -32.6790 H   0  0  0  0  0  0  0  0  0  0  0  0
   -6.6663   18.1850  -32.6790 H   0  0  0  0  0  0  0  0  0  0  0  0
   -9.6914   20.1949  -32.0704 H   0  0  0  0  0  0  0  0  0  0  0  0
   -9.6554   22.6746  -31.6380 H   0  0  0  0  0  0  0  0  0  0  0  0
   -7.9026   24.8572  -31.0607 H   0  0  0  0  0  0  0  0  0  0  0  0
   -3.1040   24.6160  -31.0320 H   0  0  0  0  0  0  0  0  0  0  0  0
   -3.7466   24.3054  -26.5876 H   0  0  0  0  0  0  0  0  0  0  0  0
   -2.1880   26.1860  -26.0496 H   0  0  0  0  0  0  0  0  0  0  0  0
   -0.1018   26.4796  -27.3954 H   0  0  0  0  0  0  0  0  0  0  0  0
   -1.0823   23.0854  -29.7800 H   0  0  0  0  0  0  0  0  0  0  0  0
   -5.3634   20.0436  -31.5700 H   0  0  0  0  0  0  0  0  0  0  0  0
  1  2  1  0
  2  3  2  0
  3  4  1  0
  4  5  2  0
  5  6  1  0
  6  7  2  0
  7  8  1  0
  8  9  1  0
  8 10  2  0
  7 11  1  0
 11 12  1  0
 12 13  2  0
 12 14  1  0
 14 15  1  0
 15 16  2  0
 15 17  1  0
 17 18  2  0
 18 19  1  0
 19 20  2  0
 20 21  1  0
 21 22  2  0
 11 23  1  0
 23 24  2  0
 24  2  1  0
 23  5  1  0
 22 17  1  0
  1 25  1  0
  1 26  1  0
  1 27  1  0
  3 28  1  0
  4 29  1  0
  6 30  1  0
  9 31  1  0
 18 32  1  0
 19 33  1  0
 20 34  1  0
 22 35  1  0
 24 36  1  0
M  CHG  1   9  -1
M  END
>  <UniqueID>  (92) 
92

>  <SMILES>  (92) 
Cc1ccc2cc(C([NH-])=O)n(C(=O)OC(=O)c3cccnc3)c2c1

>  <Energy>  (92) 
79.37062917511892

>  <Genealogy>  (92) 
Cc1ccc2cc(C([NH-])=O)n(C(=O)OC(=O)c3cccnc3)c2c1 (protonated)
Cc1ccc2cc(C([NH-])=O)n(C(=O)OC(=O)c3cccnc3)c2c1 (3D coordinates assigned)
Cc1ccc2cc(C([NH-])=O)n(C(=O)OC(=O)c3cccnc3)c2c1 (optimized conformer: 79.37062917511892 kcal/mol)

>  <smiles>  (92) 
Cc1ccc2cc(C(N)=O)n(C(=O)OC(=O)c3cccnc3)c2c1

>  <score_type>  (92) 
oracle

>  <origin>  (92) 
adg

>  <m_score__min__energy>  (92) 
-11.09

>  <m_primary>  (92) 
energy

$$$$
95:0
     RDKit          3D

 28 29  0  0  0  0  0  0  0  0999 V2000
   -3.1190   21.5120  -28.8240 C   0  0  0  0  0  0  0  0  0  0  0  0
   -3.0080   22.7790  -29.2270 C   0  0  0  0  0  0  0  0  0  0  0  0
   -3.0070   24.0570  -28.0270 Cl  0  0  0  0  0  0  0  0  0  0  0  0
   -2.9460   23.1420  -30.5820 O   0  0  0  0  0  0  0  0  0  0  0  0
   -3.8530   22.7470  -31.5740 C   0  0  0  0  0  0  0  0  0  0  0  0
   -3.4420   22.2680  -32.6670 O   0  0  0  0  0  0  0  0  0  0  0  0
   -5.2600   22.9620  -31.3740 N   0  0  0  0  0  0  0  0  0  0  0  0
   -5.8710   24.0960  -30.9280 C   0  0  0  0  0  0  0  0  0  0  0  0
   -5.1910   25.3010  -30.4100 C   0  0  0  0  0  0  0  0  0  0  0  0
   -3.8700   25.6130  -30.8460 N   0  0  0  0  0  0  0  0  0  0  0  0
   -5.7770   26.0800  -29.6120 O   0  0  0  0  0  0  0  0  0  0  0  0
   -7.2560   23.9450  -30.9470 C   0  0  0  0  0  0  0  0  0  0  0  0
   -7.4780   22.6700  -31.4140 C   0  0  0  0  0  0  0  0  0  0  0  0
   -8.6740   21.9950  -31.6440 C   0  0  0  0  0  0  0  0  0  0  0  0
   -8.6050   20.6900  -32.1590 C   0  0  0  0  0  0  0  0  0  0  0  0
   -7.3530   20.0920  -32.4400 C   0  0  0  0  0  0  0  0  0  0  0  0
   -7.2990   18.7680  -32.9760 N   0  0  0  0  0  0  0  0  0  0  0  0
   -6.1610   20.8050  -32.1960 C   0  0  0  0  0  0  0  0  0  0  0  0
   -6.2560   22.0970  -31.6650 C   0  0  0  0  0  0  0  0  0  0  0  0
   -3.1214   20.6978  -29.5636 H   0  0  0  0  0  0  0  0  0  0  0  0
   -3.2082   21.2816  -27.7521 H   0  0  0  0  0  0  0  0  0  0  0  0
   -3.0360   25.2950  -30.3030 H   0  0  0  0  0  0  0  0  0  0  0  0
   -8.0117   24.6877  -30.6513 H   0  0  0  0  0  0  0  0  0  0  0  0
   -9.6430   22.4691  -31.4290 H   0  0  0  0  0  0  0  0  0  0  0  0
   -9.5319   20.1278  -32.3456 H   0  0  0  0  0  0  0  0  0  0  0  0
   -6.7110   18.0320  -32.5250 H   0  0  0  0  0  0  0  0  0  0  0  0
   -7.8450   18.5140  -33.8290 H   0  0  0  0  0  0  0  0  0  0  0  0
   -5.1810   20.3572  -32.4174 H   0  0  0  0  0  0  0  0  0  0  0  0
  1  2  2  0
  2  3  1  0
  2  4  1  0
  4  5  1  0
  5  6  2  0
  5  7  1  0
  7  8  1  0
  8  9  1  0
  9 10  1  0
  9 11  2  0
  8 12  2  0
 12 13  1  0
 13 14  2  0
 14 15  1  0
 15 16  2  0
 16 17  1  0
 16 18  1  0
 18 19  2  0
 19  7  1  0
 19 13  1  0
  1 20  1  0
  1 21  1  0
 10 22  1  0
 12 23  1  0
 14 24  1  0
 15 25  1  0
 17 26  1  0
 17 27  1  0
 18 28  1  0
M  CHG  1  10  -1
M  END
>  <UniqueID>  (93) 
93

>  <SMILES>  (93) 
C=C(Cl)OC(=O)n1c(C([NH-])=O)cc2ccc(N)cc21

>  <Energy>  (93) 
69.81842487646746

>  <Genealogy>  (93) 
C=C(Cl)OC(=O)n1c(C([NH-])=O)cc2ccc(N)cc21 (protonated)
C=C(Cl)OC(=O)n1c(C([NH-])=O)cc2ccc(N)cc21 (3D coordinates assigned)
C=C(Cl)OC(=O)n1c(C([NH-])=O)cc2ccc(N)cc21 (optimized conformer: 69.81842487646746 kcal/mol)

>  <smiles>  (93) 
C=C(Cl)OC(=O)n1c(C(N)=O)cc2ccc(N)cc21

>  <score_type>  (93) 
oracle

>  <origin>  (93) 
adg

>  <m_score__min__energy>  (93) 
-9.5099999999999998

>  <m_primary>  (93) 
energy

$$$$
96:0
     RDKit          3D

 46 47  0  0  0  0  0  0  0  0999 V2000
   -6.1730   17.0540  -34.2510 C   0  0  0  0  0  0  0  0  0  0  0  0
   -6.4660   18.0320  -33.6100 C   0  0  0  0  0  0  0  0  0  0  0  0
   -6.8140   19.2000  -32.8430 C   0  0  0  0  0  0  0  0  0  0  0  0
   -8.1230   19.3410  -32.3290 C   0  0  0  0  0  0  0  0  0  0  0  0
   -8.4710   20.4700  -31.5680 C   0  0  0  0  0  0  0  0  0  0  0  0
   -7.4920   21.4360  -31.3490 C   0  0  0  0  0  0  0  0  0  0  0  0
   -7.5550   22.6080  -30.6330 C   0  0  0  0  0  0  0  0  0  0  0  0
   -6.2910   23.1780  -30.7500 C   0  0  0  0  0  0  0  0  0  0  0  0
   -5.9460   24.4980  -30.1820 C   0  0  0  0  0  0  0  0  0  0  0  0
   -4.7810   24.6770  -29.3740 N   0  0  0  0  0  0  0  0  0  0  0  0
   -6.6600   25.4970  -30.4630 O   0  0  0  0  0  0  0  0  0  0  0  0
   -5.4690   22.3840  -31.4930 N   0  0  0  0  0  0  0  0  0  0  0  0
   -4.0830   22.6080  -31.8040 C   0  0  0  0  0  0  0  0  0  0  0  0
   -3.6370   22.3150  -32.9470 O   0  0  0  0  0  0  0  0  0  0  0  0
   -3.2240   23.1320  -30.8350 O   0  0  0  0  0  0  0  0  0  0  0  0
   -2.4570   22.3010  -29.9700 C   0  0  0  0  0  0  0  0  0  0  0  0
   -3.1540   22.1360  -28.7400 O   0  0  0  0  0  0  0  0  0  0  0  0
   -2.7910   22.8280  -27.5800 C   0  0  0  0  0  0  0  0  0  0  0  0
   -3.4690   23.8200  -27.1910 O   0  0  0  0  0  0  0  0  0  0  0  0
   -1.5830   22.3860  -26.8110 C   0  0  0  0  0  0  0  0  0  0  0  0
   -0.5020   23.3820  -26.8970 N   0  0  0  0  0  0  0  0  0  0  0  0
    0.5060   23.4430  -25.8320 C   0  0  0  0  0  0  0  0  0  0  0  0
   -0.3710   24.2730  -28.0310 C   0  0  0  0  0  0  0  0  0  0  0  0
    0.4720   24.0130  -28.9340 O   0  0  0  0  0  0  0  0  0  0  0  0
   -1.1730   25.5400  -28.1570 C   0  0  0  0  0  0  0  0  0  0  0  0
   -2.3590   25.3000  -28.9710 N   0  0  0  0  0  0  0  0  0  0  0  0
   -6.2220   21.3200  -31.8570 C   0  0  0  0  0  0  0  0  0  0  0  0
   -5.8450   20.1950  -32.6030 C   0  0  0  0  0  0  0  0  0  0  0  0
   -5.9056   16.1616  -34.8359 H   0  0  0  0  0  0  0  0  0  0  0  0
   -8.8742   18.5620  -32.5259 H   0  0  0  0  0  0  0  0  0  0  0  0
   -9.4850   20.5871  -31.1581 H   0  0  0  0  0  0  0  0  0  0  0  0
   -8.4200   23.0094  -30.0847 H   0  0  0  0  0  0  0  0  0  0  0  0
   -4.5730   25.6110  -28.9560 H   0  0  0  0  0  0  0  0  0  0  0  0
   -4.0830   23.9110  -29.2540 H   0  0  0  0  0  0  0  0  0  0  0  0
   -2.3060   21.3189  -30.4419 H   0  0  0  0  0  0  0  0  0  0  0  0
   -1.4790   22.7675  -29.7808 H   0  0  0  0  0  0  0  0  0  0  0  0
   -1.8604   22.2481  -25.7555 H   0  0  0  0  0  0  0  0  0  0  0  0
   -1.2213   21.4417  -27.2440 H   0  0  0  0  0  0  0  0  0  0  0  0
    0.0066   23.4128  -24.8523 H   0  0  0  0  0  0  0  0  0  0  0  0
    1.1877   22.5845  -25.9227 H   0  0  0  0  0  0  0  0  0  0  0  0
    1.0792   24.3775  -25.9227 H   0  0  0  0  0  0  0  0  0  0  0  0
   -1.4802   25.8779  -27.1562 H   0  0  0  0  0  0  0  0  0  0  0  0
   -0.5550   26.3125  -28.6379 H   0  0  0  0  0  0  0  0  0  0  0  0
   -2.4560   24.2680  -29.1140 H   0  0  0  0  0  0  0  0  0  0  0  0
   -3.1920   25.5980  -28.4150 H   0  0  0  0  0  0  0  0  0  0  0  0
   -4.8208   20.0914  -32.9906 H   0  0  0  0  0  0  0  0  0  0  0  0
  1  2  3  0
  2  3  1  0
  3  4  2  0
  4  5  1  0
  5  6  2  0
  6  7  1  0
  7  8  2  0
  8  9  1  0
  9 10  1  0
  9 11  2  0
  8 12  1  0
 12 13  1  0
 13 14  2  0
 13 15  1  0
 15 16  1  0
 16 17  1  0
 17 18  1  0
 18 19  2  0
 18 20  1  0
 20 21  1  0
 21 22  1  0
 21 23  1  0
 23 24  2  0
 23 25  1  0
 25 26  1  0
 12 27  1  0
 27 28  2  0
 28  3  1  0
 27  6  1  0
  1 29  1  0
  4 30  1  0
  5 31  1  0
  7 32  1  0
 10 33  1  0
 10 34  1  0
 16 35  1  0
 16 36  1  0
 20 37  1  0
 20 38  1  0
 22 39  1  0
 22 40  1  0
 22 41  1  0
 25 42  1  0
 25 43  1  0
 26 44  1  0
 26 45  1  0
 28 46  1  0
M  END
>  <UniqueID>  (94) 
94

>  <SMILES>  (94) 
C#Cc1ccc2cc(C(N)=O)n(C(=O)OCOC(=O)CN(C)C(=O)CN)c2c1

>  <Energy>  (94) 
74.76013125792115

>  <Genealogy>  (94) 
C#Cc1ccc2cc(C(N)=O)n(C(=O)OCOC(=O)CN(C)C(=O)CN)c2c1 (3D coordinates assigned)
C#Cc1ccc2cc(C(N)=O)n(C(=O)OCOC(=O)CN(C)C(=O)CN)c2c1 (optimized conformer: 74.76013125792115 kcal/mol)

>  <smiles>  (94) 
C#Cc1ccc2cc(C(N)=O)n(C(=O)OCOC(=O)CN(C)C(=O)CN)c2c1

>  <score_type>  (94) 
oracle

>  <origin>  (94) 
adg

>  <m_score__min__energy>  (94) 
-8.6199999999999992

>  <m_primary>  (94) 
energy

$$$$
97:0
     RDKit          3D

 43 44  0  0  0  0  0  0  0  0999 V2000
   -6.4640   16.6360  -33.4630 C   0  0  0  0  0  0  0  0  0  0  0  0
   -6.8450   17.9660  -33.9310 N   0  0  0  0  0  0  0  0  0  0  0  0
   -7.1370   19.0650  -33.0480 C   0  0  0  0  0  0  0  0  0  0  0  0
   -8.3530   19.0570  -32.3190 C   0  0  0  0  0  0  0  0  0  0  0  0
   -8.6720   20.1040  -31.4400 C   0  0  0  0  0  0  0  0  0  0  0  0
   -7.7640   21.1510  -31.3140 C   0  0  0  0  0  0  0  0  0  0  0  0
   -7.8110   22.2720  -30.5170 C   0  0  0  0  0  0  0  0  0  0  0  0
   -6.6360   22.9660  -30.7910 C   0  0  0  0  0  0  0  0  0  0  0  0
   -6.3090   24.2770  -30.1960 C   0  0  0  0  0  0  0  0  0  0  0  0
   -5.1330   24.4570  -29.4050 N   0  0  0  0  0  0  0  0  0  0  0  0
   -7.0510   25.2670  -30.4340 O   0  0  0  0  0  0  0  0  0  0  0  0
   -5.8830   22.2960  -31.7090 N   0  0  0  0  0  0  0  0  0  0  0  0
   -4.5670   22.6330  -32.1740 C   0  0  0  0  0  0  0  0  0  0  0  0
   -4.2040   22.2990  -33.3350 O   0  0  0  0  0  0  0  0  0  0  0  0
   -3.6920   23.3300  -31.3370 O   0  0  0  0  0  0  0  0  0  0  0  0
   -2.5000   22.7560  -30.8160 C   0  0  0  0  0  0  0  0  0  0  0  0
   -2.6970   22.4360  -29.3630 C   0  0  0  0  0  0  0  0  0  0  0  0
   -3.6570   21.6830  -29.0430 O   0  0  0  0  0  0  0  0  0  0  0  0
   -1.8020   22.9300  -28.3400 N   0  0  0  0  0  0  0  0  0  0  0  0
   -1.8560   22.3270  -27.0030 C   0  0  0  0  0  0  0  0  0  0  0  0
   -0.8620   24.0330  -28.5960 C   0  0  0  0  0  0  0  0  0  0  0  0
   -1.6040   25.2770  -28.9700 C   0  0  0  0  0  0  0  0  0  0  0  0
   -2.8030   25.2100  -29.3480 O   0  0  0  0  0  0  0  0  0  0  0  0
   -0.9610   26.5080  -28.9360 O   0  0  0  0  0  0  0  0  0  0  0  0
   -6.5900   21.1870  -32.0220 C   0  0  0  0  0  0  0  0  0  0  0  0
   -6.2360   20.1460  -32.8890 C   0  0  0  0  0  0  0  0  0  0  0  0
   -6.4599   16.6216  -32.3631 H   0  0  0  0  0  0  0  0  0  0  0  0
   -7.1860   15.8950  -33.8367 H   0  0  0  0  0  0  0  0  0  0  0  0
   -5.4592   16.3897  -33.8367 H   0  0  0  0  0  0  0  0  0  0  0  0
   -6.8960   18.1180  -34.9630 H   0  0  0  0  0  0  0  0  0  0  0  0
   -9.0554   18.2197  -32.4438 H   0  0  0  0  0  0  0  0  0  0  0  0
   -9.6115   20.0970  -30.8680 H   0  0  0  0  0  0  0  0  0  0  0  0
   -8.6070   22.5583  -29.8138 H   0  0  0  0  0  0  0  0  0  0  0  0
   -4.9450   25.3780  -28.9490 H   0  0  0  0  0  0  0  0  0  0  0  0
   -4.4090   23.7080  -29.3370 H   0  0  0  0  0  0  0  0  0  0  0  0
   -2.2654   21.8332  -31.3669 H   0  0  0  0  0  0  0  0  0  0  0  0
   -1.6692   23.4683  -30.9269 H   0  0  0  0  0  0  0  0  0  0  0  0
   -1.7852   23.1173  -26.2412 H   0  0  0  0  0  0  0  0  0  0  0  0
   -2.8062   21.7860  -26.8829 H   0  0  0  0  0  0  0  0  0  0  0  0
   -1.0171   21.6258  -26.8829 H   0  0  0  0  0  0  0  0  0  0  0  0
   -0.2709   24.2231  -27.6880 H   0  0  0  0  0  0  0  0  0  0  0  0
   -0.1994   23.7503  -29.4273 H   0  0  0  0  0  0  0  0  0  0  0  0
   -5.2806   20.1673  -33.4338 H   0  0  0  0  0  0  0  0  0  0  0  0
  1  2  1  0
  2  3  1  0
  3  4  2  0
  4  5  1  0
  5  6  2  0
  6  7  1  0
  7  8  2  0
  8  9  1  0
  9 10  1  0
  9 11  2  0
  8 12  1  0
 12 13  1  0
 13 14  2  0
 13 15  1  0
 15 16  1  0
 16 17  1  0
 17 18  2  0
 17 19  1  0
 19 20  1  0
 19 21  1  0
 21 22  1  0
 22 23  2  0
 22 24  1  0
 12 25  1  0
 25 26  2  0
 26  3  1  0
 25  6  1  0
  1 27  1  0
  1 28  1  0
  1 29  1  0
  2 30  1  0
  4 31  1  0
  5 32  1  0
  7 33  1  0
 10 34  1  0
 10 35  1  0
 16 36  1  0
 16 37  1  0
 20 38  1  0
 20 39  1  0
 20 40  1  0
 21 41  1  0
 21 42  1  0
 26 43  1  0
M  CHG  1  24  -1
M  END
>  <UniqueID>  (95) 
95

>  <SMILES>  (95) 
CNc1ccc2cc(C(N)=O)n(C(=O)OCC(=O)N(C)CC(=O)[O-])c2c1

>  <Energy>  (95) 
74.97126621825878

>  <Genealogy>  (95) 
CNc1ccc2cc(C(N)=O)n(C(=O)OCC(=O)N(C)CC(=O)[O-])c2c1 (protonated)
CNc1ccc2cc(C(N)=O)n(C(=O)OCC(=O)N(C)CC(=O)[O-])c2c1 (3D coordinates assigned)
CNc1ccc2cc(C(N)=O)n(C(=O)OCC(=O)N(C)CC(=O)[O-])c2c1 (optimized conformer: 74.97126621825878 kcal/mol)

>  <smiles>  (95) 
CNc1ccc2cc(C(N)=O)n(C(=O)OCC(=O)N(C)CC(=O)O)c2c1

>  <score_type>  (95) 
oracle

>  <origin>  (95) 
adg

>  <m_score__min__energy>  (95) 
-10.859999999999999

>  <m_primary>  (95) 
energy

$$$$
