0:0
     RDKit          3D

 39 40  0  0  0  0  0  0  0  0999 V2000
   -0.4720   27.7430  -27.3720 C   0  0  0  0  0  0  0  0  0  0  0  0
   -0.9250   26.8430  -28.3760 O   0  0  0  0  0  0  0  0  0  0  0  0
   -1.0380   25.4670  -28.1600 C   0  0  0  0  0  0  0  0  0  0  0  0
   -0.0310   24.7150  -28.2530 O   0  0  0  0  0  0  0  0  0  0  0  0
   -2.3730   24.8810  -27.8220 C   0  0  0  0  0  0  0  0  0  0  0  0
   -3.0650   24.4390  -29.0340 N   0  0  0  0  0  0  0  0  0  0  0  0
   -3.1330   25.2830  -30.0910 O   0  0  0  0  0  0  0  0  0  0  0  0
   -3.7240   23.1640  -29.1180 C   0  0  0  0  0  0  0  0  0  0  0  0
   -4.2870   22.6850  -28.0970 O   0  0  0  0  0  0  0  0  0  0  0  0
   -3.7240   22.4100  -30.3370 N   0  0  0  0  0  0  0  0  0  0  0  0
   -2.6610   21.8390  -30.9710 C   0  0  0  0  0  0  0  0  0  0  0  0
   -1.2490   21.9440  -30.5250 C   0  0  0  0  0  0  0  0  0  0  0  0
   -0.7050   23.1830  -30.0650 N   0  0  0  0  0  0  0  0  0  0  0  0
   -0.5050   20.9280  -30.5460 O   0  0  0  0  0  0  0  0  0  0  0  0
   -3.0950   21.1570  -32.1100 C   0  0  0  0  0  0  0  0  0  0  0  0
   -4.4590   21.3450  -32.1540 C   0  0  0  0  0  0  0  0  0  0  0  0
   -5.4020   20.8720  -33.0620 C   0  0  0  0  0  0  0  0  0  0  0  0
   -6.7510   21.2040  -32.8420 C   0  0  0  0  0  0  0  0  0  0  0  0
   -7.1290   21.9910  -31.7250 C   0  0  0  0  0  0  0  0  0  0  0  0
   -8.5750   22.3540  -31.5110 C   0  0  0  0  0  0  0  0  0  0  0  0
   -9.4590   21.1090  -31.4350 C   0  0  0  0  0  0  0  0  0  0  0  0
   -9.8740   20.7320  -32.6990 F   0  0  0  0  0  0  0  0  0  0  0  0
   -8.7690   20.0630  -30.8460 F   0  0  0  0  0  0  0  0  0  0  0  0
   -6.1410   22.4600  -30.8310 C   0  0  0  0  0  0  0  0  0  0  0  0
   -4.8100   22.1140  -31.0780 C   0  0  0  0  0  0  0  0  0  0  0  0
   -0.6843   27.3211  -26.3786 H   0  0  0  0  0  0  0  0  0  0  0  0
    0.6116   27.8981  -27.4805 H   0  0  0  0  0  0  0  0  0  0  0  0
   -0.9929   28.7057  -27.4805 H   0  0  0  0  0  0  0  0  0  0  0  0
   -2.2305   24.0196  -27.1529 H   0  0  0  0  0  0  0  0  0  0  0  0
   -2.9827   25.6513  -27.3272 H   0  0  0  0  0  0  0  0  0  0  0  0
    0.2930   23.2330  -29.7630 H   0  0  0  0  0  0  0  0  0  0  0  0
   -1.2780   24.0520  -30.0070 H   0  0  0  0  0  0  0  0  0  0  0  0
   -2.4777   20.5894  -32.8219 H   0  0  0  0  0  0  0  0  0  0  0  0
   -5.1018   20.2582  -33.9241 H   0  0  0  0  0  0  0  0  0  0  0  0
   -7.5204   20.8495  -33.5437 H   0  0  0  0  0  0  0  0  0  0  0  0
   -8.6671   22.9160  -30.5699 H   0  0  0  0  0  0  0  0  0  0  0  0
   -8.9083   22.9628  -32.3644 H   0  0  0  0  0  0  0  0  0  0  0  0
  -10.3406   21.3517  -30.8236 H   0  0  0  0  0  0  0  0  0  0  0  0
   -6.4120   23.0806  -29.9642 H   0  0  0  0  0  0  0  0  0  0  0  0
  1  2  1  0
  2  3  1  0
  3  4  2  0
  3  5  1  0
  5  6  1  0
  6  7  1  0
  6  8  1  0
  8  9  2  0
  8 10  1  0
 10 11  1  0
 11 12  1  0
 12 13  1  0
 12 14  2  0
 11 15  2  0
 15 16  1  0
 16 17  2  0
 17 18  1  0
 18 19  2  0
 19 20  1  0
 20 21  1  0
 21 22  1  0
 21 23  1  0
 19 24  1  0
 24 25  2  0
 25 10  1  0
 25 16  1  0
  1 26  1  0
  1 27  1  0
  1 28  1  0
  5 29  1  0
  5 30  1  0
 13 31  1  0
 13 32  1  0
 15 33  1  0
 17 34  1  0
 18 35  1  0
 20 36  1  0
 20 37  1  0
 21 38  1  0
 24 39  1  0
M  CHG  1   7  -1
M  END
>  <UniqueID>  (1) 
1

>  <SMILES>  (1) 
COC(=O)CN([O-])C(=O)n1c(C(N)=O)cc2ccc(CC(F)F)cc21

>  <Energy>  (1) 
68.71378691148776

>  <Genealogy>  (1) 
COC(=O)CN([O-])C(=O)n1c(C(N)=O)cc2ccc(CC(F)F)cc21 (protonated)
COC(=O)CN([O-])C(=O)n1c(C(N)=O)cc2ccc(CC(F)F)cc21 (3D coordinates assigned)
COC(=O)CN([O-])C(=O)n1c(C(N)=O)cc2ccc(CC(F)F)cc21 (optimized conformer: 68.71378691148776 kcal/mol)

>  <smiles>  (1) 
COC(=O)CN(O)C(=O)n1c(C(N)=O)cc2ccc(CC(F)F)cc21

>  <score_type>  (1) 
oracle

>  <origin>  (1) 
adg

>  <m_score__min__energy>  (1) 
-11.539999999999999

>  <m_primary>  (1) 
energy

$$$$
1:0
     RDKit          3D

 46 48  0  0  0  0  0  0  0  0999 V2000
   -1.3540   23.2710  -28.5530 C   0  0  0  0  0  0  0  0  0  0  0  0
   -2.7120   22.7760  -29.0730 C   0  0  0  0  0  0  0  0  0  0  0  0
   -3.8260   23.3430  -28.1720 C   0  0  0  0  0  0  0  0  0  0  0  0
   -2.7240   21.2350  -29.0490 C   0  0  0  0  0  0  0  0  0  0  0  0
   -2.8540   23.2610  -30.4150 O   0  0  0  0  0  0  0  0  0  0  0  0
   -3.5950   22.6620  -31.4450 C   0  0  0  0  0  0  0  0  0  0  0  0
   -3.0190   22.1400  -32.4370 O   0  0  0  0  0  0  0  0  0  0  0  0
   -5.0280   22.6420  -31.3620 N   0  0  0  0  0  0  0  0  0  0  0  0
   -5.8560   23.6740  -31.0360 C   0  0  0  0  0  0  0  0  0  0  0  0
   -5.4340   25.0010  -30.5440 C   0  0  0  0  0  0  0  0  0  0  0  0
   -4.1330   25.5170  -30.8320 N   0  0  0  0  0  0  0  0  0  0  0  0
   -6.2130   25.6660  -29.8130 O   0  0  0  0  0  0  0  0  0  0  0  0
   -7.1890   23.2980  -31.1800 C   0  0  0  0  0  0  0  0  0  0  0  0
   -7.1540   21.9870  -31.5960 C   0  0  0  0  0  0  0  0  0  0  0  0
   -8.1950   21.1190  -31.9050 C   0  0  0  0  0  0  0  0  0  0  0  0
   -7.8670   19.8260  -32.3450 C   0  0  0  0  0  0  0  0  0  0  0  0
   -6.5130   19.4250  -32.4790 C   0  0  0  0  0  0  0  0  0  0  0  0
   -6.2040   18.0570  -32.9580 C   0  0  0  0  0  0  0  0  0  0  0  0
   -6.4790   17.5270  -34.2100 C   0  0  0  0  0  0  0  0  0  0  0  0
   -6.0050   16.2330  -34.1880 C   0  0  0  0  0  0  0  0  0  0  0  0
   -5.4750   16.0510  -32.9270 C   0  0  0  0  0  0  0  0  0  0  0  0
   -4.8120   14.8070  -32.4270 C   0  0  0  0  0  0  0  0  0  0  0  0
   -4.9770   14.7000  -31.0400 O   0  0  0  0  0  0  0  0  0  0  0  0
   -5.6020   17.1490  -32.2200 O   0  0  0  0  0  0  0  0  0  0  0  0
   -5.4820   20.3400  -32.1580 C   0  0  0  0  0  0  0  0  0  0  0  0
   -5.8380   21.6140  -31.6990 C   0  0  0  0  0  0  0  0  0  0  0  0
   -1.3597   23.2689  -27.4530 H   0  0  0  0  0  0  0  0  0  0  0  0
   -0.5573   22.6054  -28.9168 H   0  0  0  0  0  0  0  0  0  0  0  0
   -1.1725   24.2931  -28.9168 H   0  0  0  0  0  0  0  0  0  0  0  0
   -3.5506   23.2028  -27.1163 H   0  0  0  0  0  0  0  0  0  0  0  0
   -3.9539   24.4159  -28.3783 H   0  0  0  0  0  0  0  0  0  0  0  0
   -4.7687   22.8150  -28.3783 H   0  0  0  0  0  0  0  0  0  0  0  0
   -2.7267   20.8845  -28.0063 H   0  0  0  0  0  0  0  0  0  0  0  0
   -3.6250   20.8673  -29.5618 H   0  0  0  0  0  0  0  0  0  0  0  0
   -1.8288   20.8533  -29.5618 H   0  0  0  0  0  0  0  0  0  0  0  0
   -3.4040   24.9230  -31.2830 H   0  0  0  0  0  0  0  0  0  0  0  0
   -3.8680   26.4740  -30.5100 H   0  0  0  0  0  0  0  0  0  0  0  0
   -8.0801   23.9172  -30.9996 H   0  0  0  0  0  0  0  0  0  0  0  0
   -9.2441   21.4353  -31.8078 H   0  0  0  0  0  0  0  0  0  0  0  0
   -8.6704   19.1153  -32.5888 H   0  0  0  0  0  0  0  0  0  0  0  0
   -6.9747   18.0360  -35.0498 H   0  0  0  0  0  0  0  0  0  0  0  0
   -6.0416   15.4981  -35.0057 H   0  0  0  0  0  0  0  0  0  0  0  0
   -5.2641   13.9316  -32.9161 H   0  0  0  0  0  0  0  0  0  0  0  0
   -3.7380   14.8517  -32.6603 H   0  0  0  0  0  0  0  0  0  0  0  0
   -5.3780   15.5560  -30.7350 H   0  0  0  0  0  0  0  0  0  0  0  0
   -4.4247   20.0566  -32.2667 H   0  0  0  0  0  0  0  0  0  0  0  0
  1  2  1  0
  2  3  1  0
  2  4  1  0
  2  5  1  0
  5  6  1  0
  6  7  2  0
  6  8  1  0
  8  9  1  0
  9 10  1  0
 10 11  1  0
 10 12  2  0
  9 13  2  0
 13 14  1  0
 14 15  2  0
 15 16  1  0
 16 17  2  0
 17 18  1  0
 18 19  2  0
 19 20  1  0
 20 21  2  0
 21 22  1  0
 22 23  1  0
 21 24  1  0
 17 25  1  0
 25 26  2  0
 26  8  1  0
 26 14  1  0
 24 18  1  0
  1 27  1  0
  1 28  1  0
  1 29  1  0
  3 30  1  0
  3 31  1  0
  3 32  1  0
  4 33  1  0
  4 34  1  0
  4 35  1  0
 11 36  1  0
 11 37  1  0
 13 38  1  0
 15 39  1  0
 16 40  1  0
 19 41  1  0
 20 42  1  0
 22 43  1  0
 22 44  1  0
 23 45  1  0
 25 46  1  0
M  END
>  <UniqueID>  (2) 
2

>  <SMILES>  (2) 
CC(C)(C)OC(=O)n1c(C(N)=O)cc2ccc(-c3ccc(CO)o3)cc21

>  <Energy>  (2) 
107.78496994135607

>  <Genealogy>  (2) 
CC(C)(C)OC(=O)n1c(C(N)=O)cc2ccc(-c3ccc(CO)o3)cc21 (3D coordinates assigned)
CC(C)(C)OC(=O)n1c(C(N)=O)cc2ccc(-c3ccc(CO)o3)cc21 (optimized conformer: 107.78496994135607 kcal/mol)

>  <smiles>  (2) 
CC(C)(C)OC(=O)n1c(C(N)=O)cc2ccc(-c3ccc(CO)o3)cc21

>  <score_type>  (2) 
oracle

>  <origin>  (2) 
adg

>  <m_score__min__energy>  (2) 
-8.4399999999999995

>  <m_primary>  (2) 
energy

$$$$
2:0
     RDKit          3D

 52 54  0  0  0  0  0  0  0  0999 V2000
   -1.1990   21.0240  -33.8050 C   0  0  0  0  0  0  0  0  0  0  0  0
   -2.3340   20.2480  -34.1700 O   0  0  0  0  0  0  0  0  0  0  0  0
   -2.6610   19.0470  -33.5340 C   0  0  0  0  0  0  0  0  0  0  0  0
   -1.8220   18.4610  -32.7980 O   0  0  0  0  0  0  0  0  0  0  0  0
   -3.9950   18.4700  -33.7320 C   0  0  0  0  0  0  0  0  0  0  0  0
   -4.4130   17.7460  -34.8320 C   0  0  0  0  0  0  0  0  0  0  0  0
   -5.7250   17.4070  -34.5820 C   0  0  0  0  0  0  0  0  0  0  0  0
   -6.0230   17.9550  -33.3480 C   0  0  0  0  0  0  0  0  0  0  0  0
   -7.3420   17.8570  -32.6440 C   0  0  0  0  0  0  0  0  0  0  0  0
   -8.1670   19.0300  -32.9340 N   0  0  0  0  0  0  0  0  0  0  0  0
   -7.9640   20.3300  -32.3480 C   0  0  0  0  0  0  0  0  0  0  0  0
   -9.0670   21.0030  -31.7670 C   0  0  0  0  0  0  0  0  0  0  0  0
   -8.9200   22.2850  -31.2100 C   0  0  0  0  0  0  0  0  0  0  0  0
   -7.6560   22.8640  -31.2340 C   0  0  0  0  0  0  0  0  0  0  0  0
   -7.2360   24.0990  -30.7900 C   0  0  0  0  0  0  0  0  0  0  0  0
   -5.8730   24.1490  -31.0730 C   0  0  0  0  0  0  0  0  0  0  0  0
   -5.0000   25.2770  -30.6830 C   0  0  0  0  0  0  0  0  0  0  0  0
   -3.6110   25.0800  -30.4320 N   0  0  0  0  0  0  0  0  0  0  0  0
   -5.4980   26.4240  -30.5280 O   0  0  0  0  0  0  0  0  0  0  0  0
   -5.4680   22.9940  -31.6730 N   0  0  0  0  0  0  0  0  0  0  0  0
   -4.1650   22.6610  -32.1710 C   0  0  0  0  0  0  0  0  0  0  0  0
   -4.0300   22.2840  -33.3650 O   0  0  0  0  0  0  0  0  0  0  0  0
   -3.0630   22.7380  -31.3060 O   0  0  0  0  0  0  0  0  0  0  0  0
   -2.7480   21.8280  -30.2430 C   0  0  0  0  0  0  0  0  0  0  0  0
   -1.2370   21.5360  -30.2160 C   0  0  0  0  0  0  0  0  0  0  0  0
   -3.5010   20.5200  -30.5290 C   0  0  0  0  0  0  0  0  0  0  0  0
   -3.2200   22.3900  -28.8890 C   0  0  0  0  0  0  0  0  0  0  0  0
   -6.5700   22.2180  -31.7640 C   0  0  0  0  0  0  0  0  0  0  0  0
   -6.6910   20.9510  -32.3450 C   0  0  0  0  0  0  0  0  0  0  0  0
   -4.9740   18.5770  -32.8630 O   0  0  0  0  0  0  0  0  0  0  0  0
   -1.1261   21.0738  -32.7085 H   0  0  0  0  0  0  0  0  0  0  0  0
   -0.2897   20.5577  -34.2121 H   0  0  0  0  0  0  0  0  0  0  0  0
   -1.3035   22.0405  -34.2121 H   0  0  0  0  0  0  0  0  0  0  0  0
   -3.8206   17.4925  -35.7235 H   0  0  0  0  0  0  0  0  0  0  0  0
   -6.3954   16.8224  -35.2291 H   0  0  0  0  0  0  0  0  0  0  0  0
   -7.8672   16.9522  -32.9839 H   0  0  0  0  0  0  0  0  0  0  0  0
   -7.1633   17.8075  -31.5597 H   0  0  0  0  0  0  0  0  0  0  0  0
   -8.9150   18.9200  -33.6570 H   0  0  0  0  0  0  0  0  0  0  0  0
  -10.0528   20.5151  -31.7516 H   0  0  0  0  0  0  0  0  0  0  0  0
   -9.7779   22.8137  -30.7690 H   0  0  0  0  0  0  0  0  0  0  0  0
   -7.8472   24.8796  -30.3134 H   0  0  0  0  0  0  0  0  0  0  0  0
   -2.9430   24.9070  -31.2150 H   0  0  0  0  0  0  0  0  0  0  0  0
   -0.8949   21.4699  -29.1726 H   0  0  0  0  0  0  0  0  0  0  0  0
   -1.0385   20.5829  -30.7280 H   0  0  0  0  0  0  0  0  0  0  0  0
   -0.6977   22.3465  -30.7280 H   0  0  0  0  0  0  0  0  0  0  0  0
   -3.7771   20.0404  -29.5783 H   0  0  0  0  0  0  0  0  0  0  0  0
   -4.4109   20.7396  -31.1067 H   0  0  0  0  0  0  0  0  0  0  0  0
   -2.8542   19.8434  -31.1067 H   0  0  0  0  0  0  0  0  0  0  0  0
   -2.7460   21.8256  -28.0724 H   0  0  0  0  0  0  0  0  0  0  0  0
   -2.9378   23.4505  -28.8137 H   0  0  0  0  0  0  0  0  0  0  0  0
   -4.3133   22.2953  -28.8137 H   0  0  0  0  0  0  0  0  0  0  0  0
   -5.8185   20.4492  -32.7888 H   0  0  0  0  0  0  0  0  0  0  0  0
  1  2  1  0
  2  3  1  0
  3  4  2  0
  3  5  1  0
  5  6  2  0
  6  7  1  0
  7  8  2  0
  8  9  1  0
  9 10  1  0
 10 11  1  0
 11 12  2  0
 12 13  1  0
 13 14  2  0
 14 15  1  0
 15 16  2  0
 16 17  1  0
 17 18  1  0
 17 19  2  0
 16 20  1  0
 20 21  1  0
 21 22  2  0
 21 23  1  0
 23 24  1  0
 24 25  1  0
 24 26  1  0
 24 27  1  0
 20 28  1  0
 28 29  2  0
  8 30  1  0
 30  5  1  0
 29 11  1  0
 28 14  1  0
  1 31  1  0
  1 32  1  0
  1 33  1  0
  6 34  1  0
  7 35  1  0
  9 36  1  0
  9 37  1  0
 10 38  1  0
 12 39  1  0
 13 40  1  0
 15 41  1  0
 18 42  1  0
 25 43  1  0
 25 44  1  0
 25 45  1  0
 26 46  1  0
 26 47  1  0
 26 48  1  0
 27 49  1  0
 27 50  1  0
 27 51  1  0
 29 52  1  0
M  CHG  1  18  -1
M  END
>  <UniqueID>  (3) 
3

>  <SMILES>  (3) 
COC(=O)c1ccc(CNc2ccc3cc(C([NH-])=O)n(C(=O)OC(C)(C)C)c3c2)o1

>  <Energy>  (3) 
106.76563372807011

>  <Genealogy>  (3) 
COC(=O)c1ccc(CNc2ccc3cc(C([NH-])=O)n(C(=O)OC(C)(C)C)c3c2)o1 (protonated)
COC(=O)c1ccc(CNc2ccc3cc(C([NH-])=O)n(C(=O)OC(C)(C)C)c3c2)o1 (3D coordinates assigned)
COC(=O)c1ccc(CNc2ccc3cc(C([NH-])=O)n(C(=O)OC(C)(C)C)c3c2)o1 (optimized conformer: 106.76563372807011 kcal/mol)

>  <smiles>  (3) 
COC(=O)c1ccc(CNc2ccc3cc(C(N)=O)n(C(=O)OC(C)(C)C)c3c2)o1

>  <score_type>  (3) 
oracle

>  <origin>  (3) 
adg

>  <m_score__min__energy>  (3) 
-10.93

>  <m_primary>  (3) 
energy

$$$$
3:0
     RDKit          3D

 53 55  0  0  0  0  0  0  0  0999 V2000
   -5.7190   25.6750  -30.1090 C   0  0  0  0  0  0  0  0  0  0  0  0
   -4.7150   24.9640  -30.9050 N   0  0  0  0  0  0  0  0  0  0  0  0
   -5.2630   23.7410  -31.5130 C   0  0  0  0  0  0  0  0  0  0  0  0
   -6.4260   23.1480  -30.6980 C   0  0  0  0  0  0  0  0  0  0  0  0
   -7.4480   22.5750  -31.5940 N   0  0  0  0  0  0  0  0  0  0  0  0
   -8.5780   23.4260  -31.9950 C   0  0  0  0  0  0  0  0  0  0  0  0
   -7.3470   21.2070  -32.0920 C   0  0  0  0  0  0  0  0  0  0  0  0
   -8.4970   20.3630  -32.1430 C   0  0  0  0  0  0  0  0  0  0  0  0
   -8.4100   19.0370  -32.5990 C   0  0  0  0  0  0  0  0  0  0  0  0
   -7.1700   18.5660  -33.0100 C   0  0  0  0  0  0  0  0  0  0  0  0
   -6.8010   17.3180  -33.4560 C   0  0  0  0  0  0  0  0  0  0  0  0
   -5.4310   17.4040  -33.7000 C   0  0  0  0  0  0  0  0  0  0  0  0
   -4.6160   16.3030  -34.2620 C   0  0  0  0  0  0  0  0  0  0  0  0
   -3.2050   16.4490  -34.4310 N   0  0  0  0  0  0  0  0  0  0  0  0
   -5.1610   15.2120  -34.5790 O   0  0  0  0  0  0  0  0  0  0  0  0
   -4.9770   18.6590  -33.4210 N   0  0  0  0  0  0  0  0  0  0  0  0
   -3.6220   19.1320  -33.4850 C   0  0  0  0  0  0  0  0  0  0  0  0
   -3.1280   19.4540  -34.5990 O   0  0  0  0  0  0  0  0  0  0  0  0
   -2.8280   19.1780  -32.2920 N   0  0  0  0  0  0  0  0  0  0  0  0
   -2.5630   20.3260  -31.4740 C   0  0  0  0  0  0  0  0  0  0  0  0
   -1.2740   20.8730  -31.4890 C   0  0  0  0  0  0  0  0  0  0  0  0
   -0.9660   21.9860  -30.7000 C   0  0  0  0  0  0  0  0  0  0  0  0
   -1.9430   22.5550  -29.8740 C   0  0  0  0  0  0  0  0  0  0  0  0
   -1.5470   23.9460  -28.8710 S   0  0  0  0  0  0  0  0  0  0  0  0
   -2.5260   25.2950  -29.3330 N   0  0  0  0  0  0  0  0  0  0  0  0
   -1.8140   23.6280  -27.4260 O   0  0  0  0  0  0  0  0  0  0  0  0
   -0.0950   24.2920  -29.0480 O   0  0  0  0  0  0  0  0  0  0  0  0
   -3.2240   21.9900  -29.8270 C   0  0  0  0  0  0  0  0  0  0  0  0
   -3.5330   20.8770  -30.6170 C   0  0  0  0  0  0  0  0  0  0  0  0
   -6.0550   19.3560  -32.9960 C   0  0  0  0  0  0  0  0  0  0  0  0
   -6.1040   20.6750  -32.5320 C   0  0  0  0  0  0  0  0  0  0  0  0
   -5.5105   25.5273  -29.0391 H   0  0  0  0  0  0  0  0  0  0  0  0
   -5.6811   26.7487  -30.3452 H   0  0  0  0  0  0  0  0  0  0  0  0
   -6.7192   25.2827  -30.3452 H   0  0  0  0  0  0  0  0  0  0  0  0
   -3.9030   24.7230  -30.2880 H   0  0  0  0  0  0  0  0  0  0  0  0
   -5.6265   23.9815  -32.5230 H   0  0  0  0  0  0  0  0  0  0  0  0
   -4.4580   22.9918  -31.5407 H   0  0  0  0  0  0  0  0  0  0  0  0
   -6.0391   22.3573  -30.0384 H   0  0  0  0  0  0  0  0  0  0  0  0
   -6.8862   23.9495  -30.1015 H   0  0  0  0  0  0  0  0  0  0  0  0
   -9.0857   23.8084  -31.0972 H   0  0  0  0  0  0  0  0  0  0  0  0
   -8.2065   24.2706  -32.5939 H   0  0  0  0  0  0  0  0  0  0  0  0
   -9.2871   22.8357  -32.5939 H   0  0  0  0  0  0  0  0  0  0  0  0
   -9.4708   20.7587  -31.8188 H   0  0  0  0  0  0  0  0  0  0  0  0
   -9.2991   18.3901  -32.6296 H   0  0  0  0  0  0  0  0  0  0  0  0
   -7.4489   16.4394  -33.5913 H   0  0  0  0  0  0  0  0  0  0  0  0
   -2.7250   17.3550  -34.2380 H   0  0  0  0  0  0  0  0  0  0  0  0
   -2.6370   15.6520  -34.7950 H   0  0  0  0  0  0  0  0  0  0  0  0
   -0.4978   20.4239  -32.1261 H   0  0  0  0  0  0  0  0  0  0  0  0
    0.0463   22.4154  -30.7284 H   0  0  0  0  0  0  0  0  0  0  0  0
   -2.5940   25.2790  -30.3760 H   0  0  0  0  0  0  0  0  0  0  0  0
   -3.9899   22.4228  -29.1666 H   0  0  0  0  0  0  0  0  0  0  0  0
   -4.5376   20.4316  -30.5677 H   0  0  0  0  0  0  0  0  0  0  0  0
   -5.1936   21.2919  -32.5079 H   0  0  0  0  0  0  0  0  0  0  0  0
  1  2  1  0
  2  3  1  0
  3  4  1  0
  4  5  1  0
  5  6  1  0
  5  7  1  0
  7  8  2  0
  8  9  1  0
  9 10  2  0
 10 11  1  0
 11 12  2  0
 12 13  1  0
 13 14  1  0
 13 15  2  0
 12 16  1  0
 16 17  1  0
 17 18  2  0
 17 19  1  0
 19 20  1  0
 20 21  2  0
 21 22  1  0
 22 23  2  0
 23 24  1  0
 24 25  1  0
 24 26  2  0
 24 27  2  0
 23 28  1  0
 28 29  2  0
 16 30  1  0
 30 31  2  0
 31  7  1  0
 30 10  1  0
 29 20  1  0
  1 32  1  0
  1 33  1  0
  1 34  1  0
  2 35  1  0
  3 36  1  0
  3 37  1  0
  4 38  1  0
  4 39  1  0
  6 40  1  0
  6 41  1  0
  6 42  1  0
  8 43  1  0
  9 44  1  0
 11 45  1  0
 14 46  1  0
 14 47  1  0
 21 48  1  0
 22 49  1  0
 25 50  1  0
 28 51  1  0
 29 52  1  0
 31 53  1  0
M  CHG  2  19  -1  25  -1
M  END
>  <UniqueID>  (4) 
4

>  <SMILES>  (4) 
CNCCN(C)c1ccc2cc(C(N)=O)n(C(=O)[N-]c3ccc(S([NH-])(=O)=O)cc3)c2c1

>  <Energy>  (4) 
96.5394370168574

>  <Genealogy>  (4) 
CNCCN(C)c1ccc2cc(C(N)=O)n(C(=O)[N-]c3ccc(S([NH-])(=O)=O)cc3)c2c1 (protonated)
CNCCN(C)c1ccc2cc(C(N)=O)n(C(=O)[N-]c3ccc(S([NH-])(=O)=O)cc3)c2c1 (3D coordinates assigned)
CNCCN(C)c1ccc2cc(C(N)=O)n(C(=O)[N-]c3ccc(S([NH-])(=O)=O)cc3)c2c1 (optimized conformer: 96.5394370168574 kcal/mol)

>  <smiles>  (4) 
CNCCN(C)c1ccc2cc(C(N)=O)n(C(=O)Nc3ccc(S(N)(=O)=O)cc3)c2c1

>  <score_type>  (4) 
oracle

>  <origin>  (4) 
adg

>  <m_score__min__energy>  (4) 
-11.119999999999999

>  <m_primary>  (4) 
energy

$$$$
4:0
     RDKit          3D

 38 39  0  0  0  0  0  0  0  0999 V2000
   -3.8990   25.6600  -30.7520 N   0  0  0  0  0  0  0  0  0  0  0  0
   -5.2590   25.3370  -30.4750 C   0  0  0  0  0  0  0  0  0  0  0  0
   -5.9640   26.1490  -29.8180 O   0  0  0  0  0  0  0  0  0  0  0  0
   -5.8400   24.0510  -30.9150 C   0  0  0  0  0  0  0  0  0  0  0  0
   -7.1720   23.8920  -31.2970 C   0  0  0  0  0  0  0  0  0  0  0  0
   -7.3180   22.5480  -31.5620 C   0  0  0  0  0  0  0  0  0  0  0  0
   -8.4290   21.8340  -31.9960 C   0  0  0  0  0  0  0  0  0  0  0  0
   -8.2800   20.4530  -32.2160 C   0  0  0  0  0  0  0  0  0  0  0  0
   -7.0330   19.8150  -31.9930 C   0  0  0  0  0  0  0  0  0  0  0  0
   -6.8750   18.3460  -32.2680 C   0  0  0  0  0  0  0  0  0  0  0  0
   -6.1650   17.7440  -31.2460 F   0  0  0  0  0  0  0  0  0  0  0  0
   -6.1990   18.1710  -33.4610 F   0  0  0  0  0  0  0  0  0  0  0  0
   -5.9240   20.5770  -31.5630 C   0  0  0  0  0  0  0  0  0  0  0  0
   -6.1060   21.9460  -31.3450 C   0  0  0  0  0  0  0  0  0  0  0  0
   -5.1900   22.8560  -30.9540 N   0  0  0  0  0  0  0  0  0  0  0  0
   -3.7980   22.6010  -30.7200 C   0  0  0  0  0  0  0  0  0  0  0  0
   -2.9420   23.0440  -31.5330 O   0  0  0  0  0  0  0  0  0  0  0  0
   -3.3780   21.9140  -29.5250 N   0  0  1  0  0  0  0  0  0  0  0  0
   -3.2990   20.5840  -29.7660 F   0  0  0  0  0  0  0  0  0  0  0  0
   -2.0910   22.4290  -29.0220 C   0  0  0  0  0  0  0  0  0  0  0  0
   -2.2280   23.7010  -28.1490 C   0  0  2  0  0  0  0  0  0  0  0  0
   -3.4700   24.3080  -28.3970 O   0  0  0  0  0  0  0  0  0  0  0  0
   -1.1070   24.7030  -28.4670 C   0  0  0  0  0  0  0  0  0  0  0  0
   -1.6350   25.9080  -28.9520 O   0  0  0  0  0  0  0  0  0  0  0  0
   -3.1220   25.0500  -30.4140 H   0  0  0  0  0  0  0  0  0  0  0  0
   -7.9423   24.6737  -31.3710 H   0  0  0  0  0  0  0  0  0  0  0  0
   -9.3947   22.3337  -32.1622 H   0  0  0  0  0  0  0  0  0  0  0  0
   -9.1394   19.8615  -32.5646 H   0  0  0  0  0  0  0  0  0  0  0  0
   -7.8715   17.8848  -32.3338 H   0  0  0  0  0  0  0  0  0  0  0  0
   -4.9429   20.1057  -31.4038 H   0  0  0  0  0  0  0  0  0  0  0  0
   -4.0990   22.0560  -28.7810 H   0  0  0  0  0  0  0  0  0  0  0  0
   -1.6146   21.6428  -28.4179 H   0  0  0  0  0  0  0  0  0  0  0  0
   -1.4897   22.7053  -29.9007 H   0  0  0  0  0  0  0  0  0  0  0  0
   -2.1538   23.4074  -27.0915 H   0  0  0  0  0  0  0  0  0  0  0  0
   -3.2830   25.2360  -28.6970 H   0  0  0  0  0  0  0  0  0  0  0  0
   -0.5334   24.9044  -27.5503 H   0  0  0  0  0  0  0  0  0  0  0  0
   -0.4563   24.2683  -29.2401 H   0  0  0  0  0  0  0  0  0  0  0  0
   -2.2020   25.6750  -29.7330 H   0  0  0  0  0  0  0  0  0  0  0  0
  1  2  1  0
  2  3  2  0
  2  4  1  0
  4  5  2  0
  5  6  1  0
  6  7  2  0
  7  8  1  0
  8  9  2  0
  9 10  1  0
 10 11  1  0
 10 12  1  0
  9 13  1  0
 13 14  2  0
 14 15  1  0
 15 16  1  0
 16 17  2  0
 16 18  1  0
 18 19  1  0
 18 20  1  0
 20 21  1  0
 21 22  1  0
 21 23  1  0
 23 24  1  0
 15  4  1  0
 14  6  1  0
  1 25  1  0
  5 26  1  0
  7 27  1  0
  8 28  1  0
 10 29  1  0
 13 30  1  0
 18 31  1  1
 20 32  1  0
 20 33  1  0
 21 34  1  1
 22 35  1  0
 23 36  1  0
 23 37  1  0
 24 38  1  0
M  CHG  2   1  -1  18   1
M  END
>  <UniqueID>  (5) 
5

>  <SMILES>  (5) 
[NH-]C(=O)c1cc2ccc(C(F)F)cc2n1C(=O)[N@@H+](F)C[C@H](O)CO

>  <Energy>  (5) 
76.39816757424181

>  <Genealogy>  (5) 
[NH-]C(=O)c1cc2ccc(C(F)F)cc2n1C(=O)[NH+](F)C[C@H](O)CO (protonated)
[NH-]C(=O)c1cc2ccc(C(F)F)cc2n1C(=O)[N@@H+](F)C[C@H](O)CO (chirality)
[NH-]C(=O)c1cc2ccc(C(F)F)cc2n1C(=O)[N@@H+](F)C[C@H](O)CO (3D coordinates assigned)
[NH-]C(=O)c1cc2ccc(C(F)F)cc2n1C(=O)[N@@H+](F)C[C@H](O)CO (optimized conformer: 76.39816757424181 kcal/mol)

>  <smiles>  (5) 
NC(=O)c1cc2ccc(C(F)F)cc2n1C(=O)N(F)C[C@H](O)CO

>  <score_type>  (5) 
oracle

>  <origin>  (5) 
adg

>  <m_score__min__energy>  (5) 
-9.0500000000000007

>  <m_primary>  (5) 
energy

$$$$
5:0
     RDKit          3D

 32 33  0  0  0  0  0  0  0  0999 V2000
   -6.8450   18.3620  -33.2300 C   0  0  0  0  0  0  0  0  0  0  0  0
   -7.0040   19.7250  -32.6260 C   0  0  0  0  0  0  0  0  0  0  0  0
   -8.2950   20.2920  -32.4820 C   0  0  0  0  0  0  0  0  0  0  0  0
   -8.4540   21.5800  -31.9430 C   0  0  0  0  0  0  0  0  0  0  0  0
   -7.3080   22.2820  -31.5810 C   0  0  0  0  0  0  0  0  0  0  0  0
   -7.1740   23.5340  -31.0250 C   0  0  0  0  0  0  0  0  0  0  0  0
   -5.8030   23.7270  -30.8740 C   0  0  0  0  0  0  0  0  0  0  0  0
   -5.2070   24.9810  -30.3620 C   0  0  0  0  0  0  0  0  0  0  0  0
   -3.9470   25.4450  -30.8400 N   0  0  0  0  0  0  0  0  0  0  0  0
   -5.8350   25.6670  -29.5120 O   0  0  0  0  0  0  0  0  0  0  0  0
   -5.1150   22.6380  -31.3190 N   0  0  0  0  0  0  0  0  0  0  0  0
   -3.6930   22.4290  -31.2810 C   0  0  0  0  0  0  0  0  0  0  0  0
   -3.0770   22.1510  -32.3440 O   0  0  0  0  0  0  0  0  0  0  0  0
   -2.9200   22.5650  -30.0040 C   0  0  0  0  0  0  0  0  0  0  0  0
   -1.8620   23.4780  -30.1830 O   0  0  0  0  0  0  0  0  0  0  0  0
   -1.8120   24.5190  -28.8350 P   0  0  1  0  0  0  0  0  0  0  0  0
   -0.8570   23.9710  -27.7980 O   0  0  0  0  0  0  0  0  0  0  0  0
   -1.2660   26.0390  -29.3350 O   0  0  0  0  0  0  0  0  0  0  0  0
   -3.3540   24.6820  -28.1540 O   0  0  0  0  0  0  0  0  0  0  0  0
   -6.0500   21.7600  -31.7450 C   0  0  0  0  0  0  0  0  0  0  0  0
   -5.8630   20.4720  -32.2590 C   0  0  0  0  0  0  0  0  0  0  0  0
   -6.7577   17.6137  -32.4285 H   0  0  0  0  0  0  0  0  0  0  0  0
   -7.7224   18.1321  -33.8523 H   0  0  0  0  0  0  0  0  0  0  0  0
   -5.9382   18.3402  -33.8523 H   0  0  0  0  0  0  0  0  0  0  0  0
   -9.1802   19.7188  -32.7949 H   0  0  0  0  0  0  0  0  0  0  0  0
   -9.4536   22.0199  -31.8112 H   0  0  0  0  0  0  0  0  0  0  0  0
   -7.9792   24.2338  -30.7568 H   0  0  0  0  0  0  0  0  0  0  0  0
   -3.0740   25.2880  -30.2900 H   0  0  0  0  0  0  0  0  0  0  0  0
   -3.5876   22.9305  -29.2098 H   0  0  0  0  0  0  0  0  0  0  0  0
   -2.5102   21.5843  -29.7206 H   0  0  0  0  0  0  0  0  0  0  0  0
   -3.8190   25.3320  -28.7390 H   0  0  0  0  0  0  0  0  0  0  0  0
   -4.8529   20.0520  -32.3743 H   0  0  0  0  0  0  0  0  0  0  0  0
  1  2  1  0
  2  3  2  0
  3  4  1  0
  4  5  2  0
  5  6  1  0
  6  7  2  0
  7  8  1  0
  8  9  1  0
  8 10  2  0
  7 11  1  0
 11 12  1  0
 12 13  2  0
 12 14  1  0
 14 15  1  0
 15 16  1  0
 16 17  2  0
 16 18  1  6
 16 19  1  0
 11 20  1  0
 20 21  2  0
 21  2  1  0
 20  5  1  0
  1 22  1  0
  1 23  1  0
  1 24  1  0
  3 25  1  0
  4 26  1  0
  6 27  1  0
  9 28  1  0
 14 29  1  0
 14 30  1  0
 19 31  1  0
 21 32  1  0
M  CHG  2   9  -1  18  -1
M  END
>  <UniqueID>  (6) 
6

>  <SMILES>  (6) 
Cc1ccc2cc(C([NH-])=O)n(C(=O)CO[P@@](=O)([O-])O)c2c1

>  <Energy>  (6) 
68.05851675963787

>  <Genealogy>  (6) 
Cc1ccc2cc(C([NH-])=O)n(C(=O)COP(=O)([O-])O)c2c1 (protonated)
Cc1ccc2cc(C([NH-])=O)n(C(=O)CO[P@@](=O)([O-])O)c2c1 (chirality)
Cc1ccc2cc(C([NH-])=O)n(C(=O)CO[P@@](=O)([O-])O)c2c1 (3D coordinates assigned)
Cc1ccc2cc(C([NH-])=O)n(C(=O)CO[P@@](=O)([O-])O)c2c1 (optimized conformer: 68.05851675963787 kcal/mol)

>  <smiles>  (6) 
Cc1ccc2cc(C(N)=O)n(C(=O)COP(=O)(O)O)c2c1

>  <score_type>  (6) 
oracle

>  <origin>  (6) 
adg

>  <m_score__min__energy>  (6) 
-12.210000000000001

>  <m_primary>  (6) 
energy

$$$$
6:0
     RDKit          3D

 42 43  0  0  0  0  0  0  0  0999 V2000
   -7.8970   18.5550  -32.5830 C   0  0  0  0  0  0  0  0  0  0  0  0
   -7.7750   19.9630  -32.0800 C   0  0  0  0  0  0  0  0  0  0  0  0
   -8.8730   20.5790  -31.4320 C   0  0  0  0  0  0  0  0  0  0  0  0
   -8.7670   21.8880  -30.9340 C   0  0  0  0  0  0  0  0  0  0  0  0
   -7.5480   22.5440  -31.0780 C   0  0  0  0  0  0  0  0  0  0  0  0
   -7.1800   23.8150  -30.7060 C   0  0  0  0  0  0  0  0  0  0  0  0
   -5.8480   23.9430  -31.0930 C   0  0  0  0  0  0  0  0  0  0  0  0
   -5.0330   25.1370  -30.7970 C   0  0  0  0  0  0  0  0  0  0  0  0
   -3.6520   25.0180  -30.4670 N   0  0  0  0  0  0  0  0  0  0  0  0
   -5.5750   26.2740  -30.7790 O   0  0  0  0  0  0  0  0  0  0  0  0
   -5.4090   22.7970  -31.6900 N   0  0  0  0  0  0  0  0  0  0  0  0
   -4.1380   22.5610  -32.3170 C   0  0  0  0  0  0  0  0  0  0  0  0
   -4.0920   22.2100  -33.5290 O   0  0  0  0  0  0  0  0  0  0  0  0
   -2.9540   22.7580  -31.5970 O   0  0  0  0  0  0  0  0  0  0  0  0
   -2.3230   21.7210  -30.8510 C   0  0  0  0  0  0  0  0  0  0  0  0
   -1.0070   21.4810  -31.3440 O   0  0  0  0  0  0  0  0  0  0  0  0
   -0.6740   20.3590  -32.1090 C   0  0  0  0  0  0  0  0  0  0  0  0
   -0.3150   19.2870  -31.5510 O   0  0  0  0  0  0  0  0  0  0  0  0
   -0.7770   20.4340  -33.6100 C   0  0  1  0  0  0  0  0  0  0  0  0
   -1.6400   21.5530  -34.0110 N   0  0  0  0  0  0  0  0  0  0  0  0
    0.6200   20.5740  -34.2490 C   0  0  0  0  0  0  0  0  0  0  0  0
    0.5990   21.4740  -35.4490 C   0  0  0  0  0  0  0  0  0  0  0  0
    0.2700   22.6830  -35.3300 O   0  0  0  0  0  0  0  0  0  0  0  0
    0.9550   20.9800  -36.6970 O   0  0  0  0  0  0  0  0  0  0  0  0
   -6.4630   21.9510  -31.6720 C   0  0  0  0  0  0  0  0  0  0  0  0
   -6.5490   20.6550  -32.1980 C   0  0  0  0  0  0  0  0  0  0  0  0
   -7.9568   17.8644  -31.7289 H   0  0  0  0  0  0  0  0  0  0  0  0
   -8.8066   18.4616  -33.1945 H   0  0  0  0  0  0  0  0  0  0  0  0
   -7.0170   18.3065  -33.1945 H   0  0  0  0  0  0  0  0  0  0  0  0
   -9.8177   20.0273  -31.3176 H   0  0  0  0  0  0  0  0  0  0  0  0
   -9.6211   22.3796  -30.4452 H   0  0  0  0  0  0  0  0  0  0  0  0
   -7.8050   24.5710  -30.2081 H   0  0  0  0  0  0  0  0  0  0  0  0
   -2.9340   24.8860  -31.2140 H   0  0  0  0  0  0  0  0  0  0  0  0
   -2.2647   22.0196  -29.7939 H   0  0  0  0  0  0  0  0  0  0  0  0
   -2.9146   20.7992  -30.9526 H   0  0  0  0  0  0  0  0  0  0  0  0
   -1.2278   19.4977  -33.9706 H   0  0  0  0  0  0  0  0  0  0  0  0
   -1.9690   22.0880  -33.1740 H   0  0  0  0  0  0  0  0  0  0  0  0
   -1.1110   22.2000  -34.6410 H   0  0  0  0  0  0  0  0  0  0  0  0
   -2.4690   21.1930  -34.5390 H   0  0  0  0  0  0  0  0  0  0  0  0
    1.3119   20.9921  -33.5030 H   0  0  0  0  0  0  0  0  0  0  0  0
    0.9461   19.5760  -34.5772 H   0  0  0  0  0  0  0  0  0  0  0  0
   -5.6834   20.1880  -32.6906 H   0  0  0  0  0  0  0  0  0  0  0  0
  1  2  1  0
  2  3  2  0
  3  4  1  0
  4  5  2  0
  5  6  1  0
  6  7  2  0
  7  8  1  0
  8  9  1  0
  8 10  2  0
  7 11  1  0
 11 12  1  0
 12 13  2  0
 12 14  1  0
 14 15  1  0
 15 16  1  0
 16 17  1  0
 17 18  2  0
 17 19  1  0
 19 20  1  0
 19 21  1  0
 21 22  1  0
 22 23  2  0
 22 24  1  0
 11 25  1  0
 25 26  2  0
 26  2  1  0
 25  5  1  0
  1 27  1  0
  1 28  1  0
  1 29  1  0
  3 30  1  0
  4 31  1  0
  6 32  1  0
  9 33  1  0
 15 34  1  0
 15 35  1  0
 19 36  1  6
 20 37  1  0
 20 38  1  0
 20 39  1  0
 21 40  1  0
 21 41  1  0
 26 42  1  0
M  CHG  3   9  -1  20   1  24  -1
M  END
>  <UniqueID>  (7) 
7

>  <SMILES>  (7) 
Cc1ccc2cc(C([NH-])=O)n(C(=O)OCOC(=O)[C@@H]([NH3+])CC(=O)[O-])c2c1

>  <Energy>  (7) 
73.07691699861381

>  <Genealogy>  (7) 
Cc1ccc2cc(C([NH-])=O)n(C(=O)OCOC(=O)[C@@H]([NH3+])CC(=O)[O-])c2c1 (protonated)
Cc1ccc2cc(C([NH-])=O)n(C(=O)OCOC(=O)[C@@H]([NH3+])CC(=O)[O-])c2c1 (3D coordinates assigned)
Cc1ccc2cc(C([NH-])=O)n(C(=O)OCOC(=O)[C@@H]([NH3+])CC(=O)[O-])c2c1 (optimized conformer: 73.07691699861381 kcal/mol)

>  <smiles>  (7) 
Cc1ccc2cc(C(N)=O)n(C(=O)OCOC(=O)[C@@H](N)CC(=O)O)c2c1

>  <score_type>  (7) 
oracle

>  <origin>  (7) 
adg

>  <m_score__min__energy>  (7) 
-9.8800000000000008

>  <m_primary>  (7) 
energy

$$$$
7:0
     RDKit          3D

 46 47  0  0  0  0  0  0  0  0999 V2000
   -0.0640   25.3630  -26.4720 C   0  0  0  0  0  0  0  0  0  0  0  0
    0.9270   24.6450  -27.3800 C   0  0  0  0  0  0  0  0  0  0  0  0
    0.2930   24.2120  -28.5830 O   0  0  0  0  0  0  0  0  0  0  0  0
   -1.0790   24.3490  -28.8250 C   0  0  0  0  0  0  0  0  0  0  0  0
   -1.5490   25.4650  -29.1870 O   0  0  0  0  0  0  0  0  0  0  0  0
   -2.0180   23.1720  -28.6320 C   0  0  0  0  0  0  0  0  0  0  0  0
   -2.5430   22.7450  -29.9370 N   0  0  0  0  0  0  0  0  0  0  0  0
   -3.4560   23.4760  -30.7680 C   0  0  0  0  0  0  0  0  0  0  0  0
   -3.5120   24.7330  -30.7090 O   0  0  0  0  0  0  0  0  0  0  0  0
   -4.3490   22.7490  -31.6820 C   0  0  0  0  0  0  0  0  0  0  0  0
   -3.8730   22.2180  -32.7200 O   0  0  0  0  0  0  0  0  0  0  0  0
   -5.7550   22.6360  -31.4040 N   0  0  0  0  0  0  0  0  0  0  0  0
   -6.5720   23.5960  -30.8890 C   0  0  0  0  0  0  0  0  0  0  0  0
   -6.1290   24.9200  -30.3960 C   0  0  0  0  0  0  0  0  0  0  0  0
   -6.1060   25.2120  -28.9980 N   0  0  0  0  0  0  0  0  0  0  0  0
   -5.7460   25.8010  -31.2130 O   0  0  0  0  0  0  0  0  0  0  0  0
   -7.8850   23.1280  -30.8170 C   0  0  0  0  0  0  0  0  0  0  0  0
   -7.8450   21.8480  -31.3180 C   0  0  0  0  0  0  0  0  0  0  0  0
   -8.8690   20.9210  -31.4950 C   0  0  0  0  0  0  0  0  0  0  0  0
   -8.5430   19.6800  -32.0680 C   0  0  0  0  0  0  0  0  0  0  0  0
   -7.2100   19.3860  -32.4490 C   0  0  0  0  0  0  0  0  0  0  0  0
   -6.8780   18.0780  -33.1050 C   0  0  0  0  0  0  0  0  0  0  0  0
   -6.2020   20.3590  -32.2740 C   0  0  0  0  0  0  0  0  0  0  0  0
   -6.5500   21.5770  -31.6750 C   0  0  0  0  0  0  0  0  0  0  0  0
   -3.2210   23.6380  -27.7720 C   0  0  0  0  0  0  0  0  0  0  0  0
   -2.8170   23.8550  -26.4630 F   0  0  0  0  0  0  0  0  0  0  0  0
   -3.7430   24.8240  -28.2610 F   0  0  0  0  0  0  0  0  0  0  0  0
   -4.2220   22.6790  -27.7650 F   0  0  0  0  0  0  0  0  0  0  0  0
   -1.2980   21.9710  -27.9500 C   0  0  0  0  0  0  0  0  0  0  0  0
   -0.2220   21.5430  -28.7090 F   0  0  0  0  0  0  0  0  0  0  0  0
   -0.8330   22.3360  -26.6980 F   0  0  0  0  0  0  0  0  0  0  0  0
   -2.1610   20.9010  -27.7900 F   0  0  0  0  0  0  0  0  0  0  0  0
    0.1980   25.1732  -25.4206 H   0  0  0  0  0  0  0  0  0  0  0  0
   -0.0257   26.4444  -26.6700 H   0  0  0  0  0  0  0  0  0  0  0  0
   -1.0796   24.9897  -26.6700 H   0  0  0  0  0  0  0  0  0  0  0  0
    1.7477   25.3325  -27.6326 H   0  0  0  0  0  0  0  0  0  0  0  0
    1.3148   23.7628  -26.8495 H   0  0  0  0  0  0  0  0  0  0  0  0
   -5.7390   26.1290  -28.6640 H   0  0  0  0  0  0  0  0  0  0  0  0
   -6.4810   24.5390  -28.2940 H   0  0  0  0  0  0  0  0  0  0  0  0
   -8.7654   23.6686  -30.4394 H   0  0  0  0  0  0  0  0  0  0  0  0
   -9.9016   21.1531  -31.1954 H   0  0  0  0  0  0  0  0  0  0  0  0
   -9.3312   18.9284  -32.2225 H   0  0  0  0  0  0  0  0  0  0  0  0
   -6.6853   17.3189  -32.3326 H   0  0  0  0  0  0  0  0  0  0  0  0
   -7.7232   17.7571  -33.7317 H   0  0  0  0  0  0  0  0  0  0  0  0
   -5.9821   18.1991  -33.7317 H   0  0  0  0  0  0  0  0  0  0  0  0
   -5.1693   20.1657  -32.5997 H   0  0  0  0  0  0  0  0  0  0  0  0
  1  2  1  0
  2  3  1  0
  3  4  1  0
  4  5  2  0
  4  6  1  0
  6  7  1  0
  7  8  1  0
  8  9  2  0
  8 10  1  0
 10 11  2  0
 10 12  1  0
 12 13  1  0
 13 14  1  0
 14 15  1  0
 14 16  2  0
 13 17  2  0
 17 18  1  0
 18 19  2  0
 19 20  1  0
 20 21  2  0
 21 22  1  0
 21 23  1  0
 23 24  2  0
  6 25  1  0
 25 26  1  0
 25 27  1  0
 25 28  1  0
  6 29  1  0
 29 30  1  0
 29 31  1  0
 29 32  1  0
 24 12  1  0
 24 18  1  0
  1 33  1  0
  1 34  1  0
  1 35  1  0
  2 36  1  0
  2 37  1  0
 15 38  1  0
 15 39  1  0
 17 40  1  0
 19 41  1  0
 20 42  1  0
 22 43  1  0
 22 44  1  0
 22 45  1  0
 23 46  1  0
M  CHG  1   7  -1
M  END
>  <UniqueID>  (8) 
8

>  <SMILES>  (8) 
CCOC(=O)C([N-]C(=O)C(=O)n1c(C(N)=O)cc2ccc(C)cc21)(C(F)(F)F)C(F)(F)F

>  <Energy>  (8) 
80.29002940723697

>  <Genealogy>  (8) 
CCOC(=O)C([N-]C(=O)C(=O)n1c(C(N)=O)cc2ccc(C)cc21)(C(F)(F)F)C(F)(F)F (protonated)
CCOC(=O)C([N-]C(=O)C(=O)n1c(C(N)=O)cc2ccc(C)cc21)(C(F)(F)F)C(F)(F)F (3D coordinates assigned)
CCOC(=O)C([N-]C(=O)C(=O)n1c(C(N)=O)cc2ccc(C)cc21)(C(F)(F)F)C(F)(F)F (optimized conformer: 80.29002940723697 kcal/mol)

>  <smiles>  (8) 
CCOC(=O)C(NC(=O)C(=O)n1c(C(N)=O)cc2ccc(C)cc21)(C(F)(F)F)C(F)(F)F

>  <score_type>  (8) 
oracle

>  <origin>  (8) 
adg

>  <m_score__min__energy>  (8) 
-9.2899999999999991

>  <m_primary>  (8) 
energy

$$$$
8:0
     RDKit          3D

 42 43  0  0  0  0  0  0  0  0999 V2000
   -1.8910   25.3680  -26.8190 C   0  0  0  0  0  0  0  0  0  0  0  0
   -2.9330   24.5760  -27.4930 N   0  0  0  0  0  0  0  0  0  0  0  0
   -4.1800   24.6400  -26.7120 C   0  0  0  0  0  0  0  0  0  0  0  0
   -2.4880   23.1740  -27.6670 C   0  0  0  0  0  0  0  0  0  0  0  0
   -3.6940   22.2440  -27.8040 C   0  0  0  0  0  0  0  0  0  0  0  0
   -3.6280   21.5770  -29.0490 O   0  0  0  0  0  0  0  0  0  0  0  0
   -2.9690   22.3830  -30.0060 C   0  0  0  0  0  0  0  0  0  0  0  0
   -3.8250   22.5330  -31.2300 C   0  0  0  0  0  0  0  0  0  0  0  0
   -3.3020   22.4010  -32.3690 O   0  0  0  0  0  0  0  0  0  0  0  0
   -5.2050   22.9110  -31.1190 N   0  0  0  0  0  0  0  0  0  0  0  0
   -5.7220   24.1470  -30.8710 C   0  0  0  0  0  0  0  0  0  0  0  0
   -4.9500   25.3500  -30.4940 C   0  0  0  0  0  0  0  0  0  0  0  0
   -3.5510   25.2690  -30.2330 N   0  0  0  0  0  0  0  0  0  0  0  0
   -5.5400   26.4550  -30.3620 O   0  0  0  0  0  0  0  0  0  0  0  0
   -7.1140   24.1140  -30.9260 C   0  0  0  0  0  0  0  0  0  0  0  0
   -7.4370   22.8040  -31.2020 C   0  0  0  0  0  0  0  0  0  0  0  0
   -8.6800   22.2030  -31.3680 C   0  0  0  0  0  0  0  0  0  0  0  0
   -8.7130   20.8280  -31.6600 C   0  0  0  0  0  0  0  0  0  0  0  0
   -7.5120   20.0840  -31.7720 C   0  0  0  0  0  0  0  0  0  0  0  0
   -7.5720   18.6240  -32.1310 C   0  0  0  0  0  0  0  0  0  0  0  0
   -7.1510   18.4200  -33.4330 F   0  0  0  0  0  0  0  0  0  0  0  0
   -8.8690   18.1680  -31.9920 F   0  0  0  0  0  0  0  0  0  0  0  0
   -6.2670   20.7340  -31.6160 C   0  0  0  0  0  0  0  0  0  0  0  0
   -6.2660   22.0990  -31.3120 C   0  0  0  0  0  0  0  0  0  0  0  0
   -2.0095   25.2779  -25.7291 H   0  0  0  0  0  0  0  0  0  0  0  0
   -0.8990   24.9939  -27.1121 H   0  0  0  0  0  0  0  0  0  0  0  0
   -1.9860   26.4240  -27.1121 H   0  0  0  0  0  0  0  0  0  0  0  0
   -3.9412   24.6277  -25.6383 H   0  0  0  0  0  0  0  0  0  0  0  0
   -4.7190   25.5670  -26.9572 H   0  0  0  0  0  0  0  0  0  0  0  0
   -4.8111   23.7731  -26.9572 H   0  0  0  0  0  0  0  0  0  0  0  0
   -1.8689   23.1003  -28.5732 H   0  0  0  0  0  0  0  0  0  0  0  0
   -1.9044   22.8732  -26.7844 H   0  0  0  0  0  0  0  0  0  0  0  0
   -3.6828   21.5047  -26.9896 H   0  0  0  0  0  0  0  0  0  0  0  0
   -4.6221   22.8319  -27.7486 H   0  0  0  0  0  0  0  0  0  0  0  0
   -2.7746   23.3757  -29.5739 H   0  0  0  0  0  0  0  0  0  0  0  0
   -2.0190   21.9050  -30.2870 H   0  0  0  0  0  0  0  0  0  0  0  0
   -3.1470   25.6530  -29.3490 H   0  0  0  0  0  0  0  0  0  0  0  0
   -7.8074   24.9554  -30.7800 H   0  0  0  0  0  0  0  0  0  0  0  0
   -9.6085   22.7852  -31.2738 H   0  0  0  0  0  0  0  0  0  0  0  0
   -9.6806   20.3248  -31.8029 H   0  0  0  0  0  0  0  0  0  0  0  0
   -6.9041   18.0703  -31.4547 H   0  0  0  0  0  0  0  0  0  0  0  0
   -5.3232   20.1807  -31.7307 H   0  0  0  0  0  0  0  0  0  0  0  0
  1  2  1  0
  2  3  1  0
  2  4  1  0
  4  5  1  0
  5  6  1  0
  6  7  1  0
  7  8  1  0
  8  9  2  0
  8 10  1  0
 10 11  1  0
 11 12  1  0
 12 13  1  0
 12 14  2  0
 11 15  2  0
 15 16  1  0
 16 17  2  0
 17 18  1  0
 18 19  2  0
 19 20  1  0
 20 21  1  0
 20 22  1  0
 19 23  1  0
 23 24  2  0
 24 10  1  0
 24 16  1  0
  1 25  1  0
  1 26  1  0
  1 27  1  0
  3 28  1  0
  3 29  1  0
  3 30  1  0
  4 31  1  0
  4 32  1  0
  5 33  1  0
  5 34  1  0
  7 35  1  0
  7 36  1  0
 13 37  1  0
 15 38  1  0
 17 39  1  0
 18 40  1  0
 20 41  1  0
 23 42  1  0
M  CHG  1  13  -1
M  END
>  <UniqueID>  (9) 
9

>  <SMILES>  (9) 
CN(C)CCOCC(=O)n1c(C([NH-])=O)cc2ccc(C(F)F)cc21

>  <Energy>  (9) 
79.22674903487975

>  <Genealogy>  (9) 
CN(C)CCOCC(=O)n1c(C([NH-])=O)cc2ccc(C(F)F)cc21 (protonated)
CN(C)CCOCC(=O)n1c(C([NH-])=O)cc2ccc(C(F)F)cc21 (3D coordinates assigned)
CN(C)CCOCC(=O)n1c(C([NH-])=O)cc2ccc(C(F)F)cc21 (optimized conformer: 79.22674903487975 kcal/mol)

>  <smiles>  (9) 
CN(C)CCOCC(=O)n1c(C(N)=O)cc2ccc(C(F)F)cc21

>  <score_type>  (9) 
oracle

>  <origin>  (9) 
adg

>  <m_score__min__energy>  (9) 
-9.4299999999999997

>  <m_primary>  (9) 
energy

$$$$
9:0
     RDKit          3D

 37 38  0  0  0  0  0  0  0  0999 V2000
   -3.2490   25.5360  -31.1710 H   0  0  0  0  0  0  0  0  0  0  0  0
   -4.2530   25.6550  -30.9130 N   0  0  0  0  0  0  0  0  0  0  0  0
   -4.8880   24.7550  -30.0080 C   0  0  0  0  0  0  0  0  0  0  0  0
   -4.7000   24.8900  -28.7700 O   0  0  0  0  0  0  0  0  0  0  0  0
   -5.7240   23.6540  -30.5280 C   0  0  0  0  0  0  0  0  0  0  0  0
   -7.0610   23.8040  -30.8900 C   0  0  0  0  0  0  0  0  0  0  0  0
   -7.6823   24.7060  -30.7882 H   0  0  0  0  0  0  0  0  0  0  0  0
   -7.4390   22.5840  -31.4020 C   0  0  0  0  0  0  0  0  0  0  0  0
   -8.6690   22.1620  -31.8970 C   0  0  0  0  0  0  0  0  0  0  0  0
   -9.5261   22.8497  -31.9465 H   0  0  0  0  0  0  0  0  0  0  0  0
   -8.7830   20.8300  -32.3320 C   0  0  0  0  0  0  0  0  0  0  0  0
   -9.7438   20.4650  -32.7240 H   0  0  0  0  0  0  0  0  0  0  0  0
   -7.6710   19.9530  -32.2700 C   0  0  0  0  0  0  0  0  0  0  0  0
   -7.8190   18.5220  -32.6910 C   0  0  0  0  0  0  0  0  0  0  0  0
   -8.0614   18.4788  -33.7631 H   0  0  0  0  0  0  0  0  0  0  0  0
   -6.8761   17.9867  -32.5054 H   0  0  0  0  0  0  0  0  0  0  0  0
   -8.8350   17.9290  -31.9650 F   0  0  0  0  0  0  0  0  0  0  0  0
   -6.4430   20.4120  -31.7470 C   0  0  0  0  0  0  0  0  0  0  0  0
   -5.5779   19.7377  -31.6645 H   0  0  0  0  0  0  0  0  0  0  0  0
   -6.3540   21.7470  -31.3360 C   0  0  0  0  0  0  0  0  0  0  0  0
   -5.2940   22.3890  -30.7980 N   0  0  0  0  0  0  0  0  0  0  0  0
   -4.0120   21.8170  -30.5000 C   0  0  0  0  0  0  0  0  0  0  0  0
   -3.7870   20.6100  -30.7880 O   0  0  0  0  0  0  0  0  0  0  0  0
   -3.0430   22.5850  -29.7650 N   0  0  0  0  0  0  0  0  0  0  0  0
   -3.4340   23.2840  -29.0930 H   0  0  0  0  0  0  0  0  0  0  0  0
   -1.7440   22.4410  -29.8350 C   0  0  0  0  0  0  0  0  0  0  0  0
   -1.1330   21.5800  -30.8080 N   0  0  0  0  0  0  0  0  0  0  0  0
   -1.6400   21.2550  -31.6580 H   0  0  0  0  0  0  0  0  0  0  0  0
   -0.1020   21.4150  -30.7850 H   0  0  0  0  0  0  0  0  0  0  0  0
   -0.8980   23.1820  -28.9340 N   0  0  0  0  0  0  0  0  0  0  0  0
   -1.0180   24.6130  -28.8310 C   0  0  0  0  0  0  0  0  0  0  0  0
   -0.1060   25.2930  -28.2890 O   0  0  0  0  0  0  0  0  0  0  0  0
   -2.1300   25.2690  -29.3480 O   0  0  0  0  0  0  0  0  0  0  0  0
    0.2020   22.4940  -28.2550 C   0  0  0  0  0  0  0  0  0  0  0  0
    0.0697   22.5767  -27.1661 H   0  0  0  0  0  0  0  0  0  0  0  0
    0.2050   21.4328  -28.5444 H   0  0  0  0  0  0  0  0  0  0  0  0
    1.1575   22.9557  -28.5444 H   0  0  0  0  0  0  0  0  0  0  0  0
  1  2  1  0
  2  3  1  0
  3  4  2  0
  3  5  1  0
  5  6  2  0
  6  7  1  0
  6  8  1  0
  8  9  2  0
  9 10  1  0
  9 11  1  0
 11 12  1  0
 11 13  2  0
 13 14  1  0
 14 15  1  0
 14 16  1  0
 14 17  1  0
 13 18  1  0
 18 19  1  0
 18 20  2  0
 20 21  1  0
 21 22  1  0
 22 23  2  0
 22 24  1  0
 24 25  1  0
 24 26  2  0
 26 27  1  0
 27 28  1  0
 27 29  1  0
 26 30  1  0
 30 31  1  0
 31 32  2  0
 31 33  1  0
 30 34  1  0
 34 35  1  0
 34 36  1  0
 34 37  1  0
 21  5  1  0
 20  8  1  0
M  CHG  3   2  -1  24   1  33  -1
M  END
>  <UniqueID>  (10) 
10

>  <SMILES>  (10) 
CN(C(=O)[O-])/C(N)=[NH+]/C(=O)n1c(C([NH-])=O)cc2ccc(CF)cc21

>  <Energy>  (10) 
83.8204338838956

>  <Genealogy>  (10) 
CN(C(=O)[O-])C(N)=[NH+]C(=O)n1c(C([NH-])=O)cc2ccc(CF)cc21 (protonated)
CN(C(=O)[O-])/C(N)=[NH+]/C(=O)n1c(C([NH-])=O)cc2ccc(CF)cc21 (cis-trans isomerization)
CN(C(=O)[O-])/C(N)=[NH+]/C(=O)n1c(C([NH-])=O)cc2ccc(CF)cc21 (3D coordinates assigned)
CN(C(=O)[O-])/C(N)=[NH+]/C(=O)n1c(C([NH-])=O)cc2ccc(CF)cc21 (optimized conformer: 83.8204338838956 kcal/mol)

>  <smiles>  (10) 
CN(C(=O)O)C(N)=NC(=O)n1c(C(N)=O)cc2ccc(CF)cc21

>  <score_type>  (10) 
oracle

>  <origin>  (10) 
adg

>  <m_score__min__energy>  (10) 
-11.550000000000001

>  <m_primary>  (10) 
energy

$$$$
10:0
     RDKit          3D

 53 55  0  0  0  0  0  0  0  0999 V2000
   -4.8420   12.4810  -31.8660 C   0  0  0  0  0  0  0  0  0  0  0  0
   -5.0430   12.6930  -33.3020 N   0  0  0  0  0  0  0  0  0  0  0  0
   -5.2730   11.5410  -34.1830 C   0  0  0  0  0  0  0  0  0  0  0  0
   -4.9270   14.0030  -33.9050 C   0  0  0  0  0  0  0  0  0  0  0  0
   -4.4750   14.0940  -35.0820 O   0  0  0  0  0  0  0  0  0  0  0  0
   -5.3610   15.2820  -33.2140 C   0  0  0  0  0  0  0  0  0  0  0  0
   -6.6210   15.8980  -33.8440 C   0  0  0  0  0  0  0  0  0  0  0  0
   -7.0340   17.1450  -33.0510 C   0  0  0  0  0  0  0  0  0  0  0  0
   -5.9220   18.1070  -32.9370 N   0  0  0  0  0  0  0  0  0  0  0  0
   -6.2120   19.4760  -32.5720 C   0  0  0  0  0  0  0  0  0  0  0  0
   -7.4810   20.0470  -32.8650 C   0  0  0  0  0  0  0  0  0  0  0  0
   -7.7680   21.3790  -32.5250 C   0  0  0  0  0  0  0  0  0  0  0  0
   -6.7750   22.1240  -31.9010 C   0  0  0  0  0  0  0  0  0  0  0  0
   -6.7870   23.4240  -31.4550 C   0  0  0  0  0  0  0  0  0  0  0  0
   -5.5300   23.6370  -30.8910 C   0  0  0  0  0  0  0  0  0  0  0  0
   -5.1020   24.9470  -30.3520 C   0  0  0  0  0  0  0  0  0  0  0  0
   -3.9390   25.6120  -30.8430 N   0  0  0  0  0  0  0  0  0  0  0  0
   -5.7730   25.4850  -29.4280 O   0  0  0  0  0  0  0  0  0  0  0  0
   -4.7690   22.5110  -30.9900 N   0  0  0  0  0  0  0  0  0  0  0  0
   -3.4160   22.2970  -30.5580 C   0  0  0  0  0  0  0  0  0  0  0  0
   -2.8010   21.2550  -30.9070 O   0  0  0  0  0  0  0  0  0  0  0  0
   -2.7350   23.3170  -29.8130 N   0  0  0  0  0  0  0  0  0  0  0  0
   -1.2800   23.3210  -29.6770 C   0  0  0  0  0  0  0  0  0  0  0  0
   -0.8090   24.5580  -28.9780 C   0  0  0  0  0  0  0  0  0  0  0  0
    0.3220   24.5840  -28.4220 O   0  0  0  0  0  0  0  0  0  0  0  0
   -1.5890   25.7090  -28.9970 O   0  0  0  0  0  0  0  0  0  0  0  0
   -5.5460   21.5980  -31.6130 C   0  0  0  0  0  0  0  0  0  0  0  0
   -5.2350   20.2690  -31.9240 C   0  0  0  0  0  0  0  0  0  0  0  0
   -4.5760   17.7420  -33.4100 C   0  0  0  0  0  0  0  0  0  0  0  0
   -4.2060   16.2970  -33.0270 C   0  0  0  0  0  0  0  0  0  0  0  0
   -5.4909   13.1654  -31.2999 H   0  0  0  0  0  0  0  0  0  0  0  0
   -5.0939   11.4413  -31.6101 H   0  0  0  0  0  0  0  0  0  0  0  0
   -3.7903   12.6772  -31.6101 H   0  0  0  0  0  0  0  0  0  0  0  0
   -5.4523   10.6432  -33.5733 H   0  0  0  0  0  0  0  0  0  0  0  0
   -6.1503   11.7343  -34.8178 H   0  0  0  0  0  0  0  0  0  0  0  0
   -4.3888   11.3826  -34.8178 H   0  0  0  0  0  0  0  0  0  0  0  0
   -5.6518   14.9903  -32.1940 H   0  0  0  0  0  0  0  0  0  0  0  0
   -6.4093   16.1799  -34.8860 H   0  0  0  0  0  0  0  0  0  0  0  0
   -7.4386   15.1624  -33.8212 H   0  0  0  0  0  0  0  0  0  0  0  0
   -7.8764   17.6319  -33.5641 H   0  0  0  0  0  0  0  0  0  0  0  0
   -7.3219   16.8292  -32.0374 H   0  0  0  0  0  0  0  0  0  0  0  0
   -8.2481   19.4372  -33.3647 H   0  0  0  0  0  0  0  0  0  0  0  0
   -8.7511   21.8200  -32.7464 H   0  0  0  0  0  0  0  0  0  0  0  0
   -7.6146   24.1449  -31.5278 H   0  0  0  0  0  0  0  0  0  0  0  0
   -2.9820   25.2990  -30.5570 H   0  0  0  0  0  0  0  0  0  0  0  0
   -3.3050   24.1060  -29.4240 H   0  0  0  0  0  0  0  0  0  0  0  0
   -0.9708   22.4398  -29.0958 H   0  0  0  0  0  0  0  0  0  0  0  0
   -0.8344   23.2959  -30.6824 H   0  0  0  0  0  0  0  0  0  0  0  0
   -4.2506   19.8492  -31.6697 H   0  0  0  0  0  0  0  0  0  0  0  0
   -4.5454   17.8387  -34.5053 H   0  0  0  0  0  0  0  0  0  0  0  0
   -3.8514   18.4179  -32.9323 H   0  0  0  0  0  0  0  0  0  0  0  0
   -3.3602   15.9784  -33.6540 H   0  0  0  0  0  0  0  0  0  0  0  0
   -3.9584   16.3045  -31.9553 H   0  0  0  0  0  0  0  0  0  0  0  0
  1  2  1  0
  2  3  1  0
  2  4  1  0
  4  5  2  0
  4  6  1  0
  6  7  1  0
  7  8  1  0
  8  9  1  0
  9 10  1  0
 10 11  2  0
 11 12  1  0
 12 13  2  0
 13 14  1  0
 14 15  2  0
 15 16  1  0
 16 17  1  0
 16 18  2  0
 15 19  1  0
 19 20  1  0
 20 21  2  0
 20 22  1  0
 22 23  1  0
 23 24  1  0
 24 25  2  0
 24 26  1  0
 19 27  1  0
 27 28  2  0
  9 29  1  0
 29 30  1  0
 30  6  1  0
 28 10  1  0
 27 13  1  0
  1 31  1  0
  1 32  1  0
  1 33  1  0
  3 34  1  0
  3 35  1  0
  3 36  1  0
  6 37  1  0
  7 38  1  0
  7 39  1  0
  8 40  1  0
  8 41  1  0
 11 42  1  0
 12 43  1  0
 14 44  1  0
 17 45  1  0
 22 46  1  0
 23 47  1  0
 23 48  1  0
 28 49  1  0
 29 50  1  0
 29 51  1  0
 30 52  1  0
 30 53  1  0
M  CHG  2  17  -1  26  -1
M  END
>  <UniqueID>  (11) 
11

>  <SMILES>  (11) 
CN(C)C(=O)C1CCN(c2ccc3cc(C([NH-])=O)n(C(=O)NCC(=O)[O-])c3c2)CC1

>  <Energy>  (11) 
99.85480039095934

>  <Genealogy>  (11) 
CN(C)C(=O)C1CCN(c2ccc3cc(C([NH-])=O)n(C(=O)NCC(=O)[O-])c3c2)CC1 (protonated)
CN(C)C(=O)C1CCN(c2ccc3cc(C([NH-])=O)n(C(=O)NCC(=O)[O-])c3c2)CC1 (3D coordinates assigned)
CN(C)C(=O)C1CCN(c2ccc3cc(C([NH-])=O)n(C(=O)NCC(=O)[O-])c3c2)CC1 (nonaromatic ring conformer: 99.85480039095934 kcal/mol)

>  <smiles>  (11) 
CN(C)C(=O)C1CCN(c2ccc3cc(C(N)=O)n(C(=O)NCC(=O)O)c3c2)CC1

>  <score_type>  (11) 
oracle

>  <origin>  (11) 
adg

>  <m_score__min__energy>  (11) 
-13.07

>  <m_primary>  (11) 
energy

$$$$
11:0
     RDKit          3D

 45 46  0  0  0  0  0  0  0  0999 V2000
   -0.6800   23.1720  -28.9820 C   0  0  0  0  0  0  0  0  0  0  0  0
   -2.0060   23.2740  -28.3650 N   0  0  0  0  0  0  0  0  0  0  0  0
   -2.2650   24.3610  -27.4100 C   0  0  0  0  0  0  0  0  0  0  0  0
   -1.3670   25.5580  -27.7050 C   0  0  0  0  0  0  0  0  0  0  0  0
   -1.6240   26.0560  -28.9700 F   0  0  0  0  0  0  0  0  0  0  0  0
   -3.0370   22.3010  -28.6550 C   0  0  0  0  0  0  0  0  0  0  0  0
   -4.0920   22.2800  -27.9640 O   0  0  0  0  0  0  0  0  0  0  0  0
   -2.8880   21.2790  -29.7540 C   0  0  0  0  0  0  0  0  0  0  0  0
   -3.2300   21.8530  -31.0640 N   0  0  0  0  0  0  0  0  0  0  0  0
   -2.6610   21.2630  -32.2470 C   0  0  0  0  0  0  0  0  0  0  0  0
   -2.9590   21.6850  -33.3950 O   0  0  0  0  0  0  0  0  0  0  0  0
   -4.1790   22.9390  -31.1610 C   0  0  0  0  0  0  0  0  0  0  0  0
   -3.7700   24.1320  -31.2050 O   0  0  0  0  0  0  0  0  0  0  0  0
   -5.5920   22.6830  -31.1740 N   0  0  0  0  0  0  0  0  0  0  0  0
   -6.5810   23.4390  -30.6180 C   0  0  0  0  0  0  0  0  0  0  0  0
   -6.3640   24.6230  -29.7560 C   0  0  0  0  0  0  0  0  0  0  0  0
   -5.1210   24.8190  -29.0810 N   0  0  0  0  0  0  0  0  0  0  0  0
   -7.2750   25.4810  -29.6250 O   0  0  0  0  0  0  0  0  0  0  0  0
   -7.8310   22.9000  -30.9210 C   0  0  0  0  0  0  0  0  0  0  0  0
   -7.5710   21.7840  -31.6870 C   0  0  0  0  0  0  0  0  0  0  0  0
   -8.4470   20.8750  -32.2710 C   0  0  0  0  0  0  0  0  0  0  0  0
   -7.8970   19.8290  -33.0320 C   0  0  0  0  0  0  0  0  0  0  0  0
   -6.4930   19.7200  -33.2130 C   0  0  0  0  0  0  0  0  0  0  0  0
   -5.9170   18.5830  -34.0140 C   0  0  0  0  0  0  0  0  0  0  0  0
   -4.5600   18.4870  -33.7620 F   0  0  0  0  0  0  0  0  0  0  0  0
   -6.1100   18.7930  -35.3700 F   0  0  0  0  0  0  0  0  0  0  0  0
   -6.5240   17.3860  -33.6730 F   0  0  0  0  0  0  0  0  0  0  0  0
   -5.6370   20.6480  -32.5750 C   0  0  0  0  0  0  0  0  0  0  0  0
   -6.2120   21.6740  -31.8200 C   0  0  0  0  0  0  0  0  0  0  0  0
    0.0868   23.1130  -28.1955 H   0  0  0  0  0  0  0  0  0  0  0  0
   -0.6348   22.2677  -29.6067 H   0  0  0  0  0  0  0  0  0  0  0  0
   -0.4971   24.0587  -29.6067 H   0  0  0  0  0  0  0  0  0  0  0  0
   -3.3177   24.6699  -27.4903 H   0  0  0  0  0  0  0  0  0  0  0  0
   -2.0519   23.9990  -26.3934 H   0  0  0  0  0  0  0  0  0  0  0  0
   -1.5568   26.3452  -26.9605 H   0  0  0  0  0  0  0  0  0  0  0  0
   -0.3165   25.2355  -27.6561 H   0  0  0  0  0  0  0  0  0  0  0  0
   -1.8462   20.9268  -29.7776 H   0  0  0  0  0  0  0  0  0  0  0  0
   -3.5750   20.4447  -29.5492 H   0  0  0  0  0  0  0  0  0  0  0  0
   -1.9524   20.4277  -32.1462 H   0  0  0  0  0  0  0  0  0  0  0  0
   -4.9690   25.6780  -28.5060 H   0  0  0  0  0  0  0  0  0  0  0  0
   -4.3700   24.0950  -29.0990 H   0  0  0  0  0  0  0  0  0  0  0  0
   -8.8151   23.2838  -30.6140 H   0  0  0  0  0  0  0  0  0  0  0  0
   -9.5351   20.9716  -32.1415 H   0  0  0  0  0  0  0  0  0  0  0  0
   -8.5631   19.0851  -33.4934 H   0  0  0  0  0  0  0  0  0  0  0  0
   -4.5444   20.5641  -32.6709 H   0  0  0  0  0  0  0  0  0  0  0  0
  1  2  1  0
  2  3  1  0
  3  4  1  0
  4  5  1  0
  2  6  1  0
  6  7  2  0
  6  8  1  0
  8  9  1  0
  9 10  1  0
 10 11  2  0
  9 12  1  0
 12 13  2  0
 12 14  1  0
 14 15  1  0
 15 16  1  0
 16 17  1  0
 16 18  2  0
 15 19  2  0
 19 20  1  0
 20 21  2  0
 21 22  1  0
 22 23  2  0
 23 24  1  0
 24 25  1  0
 24 26  1  0
 24 27  1  0
 23 28  1  0
 28 29  2  0
 29 14  1  0
 29 20  1  0
  1 30  1  0
  1 31  1  0
  1 32  1  0
  3 33  1  0
  3 34  1  0
  4 35  1  0
  4 36  1  0
  8 37  1  0
  8 38  1  0
 10 39  1  0
 17 40  1  0
 17 41  1  0
 19 42  1  0
 21 43  1  0
 22 44  1  0
 28 45  1  0
M  END
>  <UniqueID>  (12) 
12

>  <SMILES>  (12) 
CN(CCF)C(=O)CN(C=O)C(=O)n1c(C(N)=O)cc2ccc(C(F)(F)F)cc21

>  <Energy>  (12) 
79.79172832599437

>  <Genealogy>  (12) 
CN(CCF)C(=O)CN(C=O)C(=O)n1c(C(N)=O)cc2ccc(C(F)(F)F)cc21 (3D coordinates assigned)
CN(CCF)C(=O)CN(C=O)C(=O)n1c(C(N)=O)cc2ccc(C(F)(F)F)cc21 (optimized conformer: 79.79172832599437 kcal/mol)

>  <smiles>  (12) 
CN(CCF)C(=O)CN(C=O)C(=O)n1c(C(N)=O)cc2ccc(C(F)(F)F)cc21

>  <score_type>  (12) 
oracle

>  <origin>  (12) 
adg

>  <m_score__min__energy>  (12) 
-8.9199999999999999

>  <m_primary>  (12) 
energy

$$$$
12:0
     RDKit          3D

 39 40  0  0  0  0  0  0  0  0999 V2000
   -6.4480   17.3530  -31.2730 C   0  0  0  0  0  0  0  0  0  0  0  0
   -6.5720   18.2950  -32.3930 N   0  0  0  0  0  0  0  0  0  0  0  0
   -6.4970   17.7800  -33.7660 C   0  0  0  0  0  0  0  0  0  0  0  0
   -6.7680   19.7130  -32.1460 C   0  0  0  0  0  0  0  0  0  0  0  0
   -8.0420   20.3170  -32.3490 C   0  0  0  0  0  0  0  0  0  0  0  0
   -8.2460   21.6840  -32.0960 C   0  0  0  0  0  0  0  0  0  0  0  0
   -7.1650   22.4340  -31.6490 C   0  0  0  0  0  0  0  0  0  0  0  0
   -7.0940   23.7610  -31.2910 C   0  0  0  0  0  0  0  0  0  0  0  0
   -5.7730   23.9660  -30.8950 C   0  0  0  0  0  0  0  0  0  0  0  0
   -5.2390   25.2830  -30.4900 C   0  0  0  0  0  0  0  0  0  0  0  0
   -3.9110   25.6720  -30.8320 N   0  0  0  0  0  0  0  0  0  0  0  0
   -5.9770   26.0930  -29.8690 O   0  0  0  0  0  0  0  0  0  0  0  0
   -5.0600   22.8110  -31.0040 N   0  0  0  0  0  0  0  0  0  0  0  0
   -3.7030   22.5760  -30.6020 C   0  0  0  0  0  0  0  0  0  0  0  0
   -2.7590   23.1320  -31.2260 O   0  0  0  0  0  0  0  0  0  0  0  0
   -3.4370   21.7040  -29.5390 O   0  0  0  0  0  0  0  0  0  0  0  0
   -3.4070   22.1080  -28.1710 C   0  0  0  0  0  0  0  0  0  0  0  0
   -3.8190   23.5760  -28.0200 C   0  0  0  0  0  0  0  0  0  0  0  0
   -2.7630   24.4120  -27.2970 C   0  0  0  0  0  0  0  0  0  0  0  0
   -1.6030   25.0810  -28.4730 Cl  0  0  0  0  0  0  0  0  0  0  0  0
   -5.9260   21.8830  -31.4650 C   0  0  0  0  0  0  0  0  0  0  0  0
   -5.6950   20.5220  -31.6900 C   0  0  0  0  0  0  0  0  0  0  0  0
   -6.5203   17.9019  -30.3225 H   0  0  0  0  0  0  0  0  0  0  0  0
   -7.2559   16.6086  -31.3288 H   0  0  0  0  0  0  0  0  0  0  0  0
   -5.4750   16.8430  -31.3288 H   0  0  0  0  0  0  0  0  0  0  0  0
   -6.3385   16.6918  -33.7413 H   0  0  0  0  0  0  0  0  0  0  0  0
   -7.4369   18.0018  -34.2927 H   0  0  0  0  0  0  0  0  0  0  0  0
   -5.6594   18.2606  -34.2927 H   0  0  0  0  0  0  0  0  0  0  0  0
   -8.8802   19.7029  -32.7099 H   0  0  0  0  0  0  0  0  0  0  0  0
   -9.2324   22.1468  -32.2473 H   0  0  0  0  0  0  0  0  0  0  0  0
   -7.9065   24.5021  -31.3127 H   0  0  0  0  0  0  0  0  0  0  0  0
   -3.0870   25.1420  -30.4740 H   0  0  0  0  0  0  0  0  0  0  0  0
   -4.1018   21.4789  -27.5953 H   0  0  0  0  0  0  0  0  0  0  0  0
   -2.3795   21.9932  -27.7953 H   0  0  0  0  0  0  0  0  0  0  0  0
   -3.9800   24.0015  -29.0215 H   0  0  0  0  0  0  0  0  0  0  0  0
   -4.7372   23.6036  -27.4149 H   0  0  0  0  0  0  0  0  0  0  0  0
   -3.2557   25.2372  -26.7619 H   0  0  0  0  0  0  0  0  0  0  0  0
   -2.2239   23.7725  -26.5826 H   0  0  0  0  0  0  0  0  0  0  0  0
   -4.6998   20.0867  -31.5167 H   0  0  0  0  0  0  0  0  0  0  0  0
  1  2  1  0
  2  3  1  0
  2  4  1  0
  4  5  2  0
  5  6  1  0
  6  7  2  0
  7  8  1  0
  8  9  2  0
  9 10  1  0
 10 11  1  0
 10 12  2  0
  9 13  1  0
 13 14  1  0
 14 15  2  0
 14 16  1  0
 16 17  1  0
 17 18  1  0
 18 19  1  0
 19 20  1  0
 13 21  1  0
 21 22  2  0
 22  4  1  0
 21  7  1  0
  1 23  1  0
  1 24  1  0
  1 25  1  0
  3 26  1  0
  3 27  1  0
  3 28  1  0
  5 29  1  0
  6 30  1  0
  8 31  1  0
 11 32  1  0
 17 33  1  0
 17 34  1  0
 18 35  1  0
 18 36  1  0
 19 37  1  0
 19 38  1  0
 22 39  1  0
M  CHG  1  11  -1
M  END
>  <UniqueID>  (13) 
13

>  <SMILES>  (13) 
CN(C)c1ccc2cc(C([NH-])=O)n(C(=O)OCCCCl)c2c1

>  <Energy>  (13) 
74.19866453519779

>  <Genealogy>  (13) 
CN(C)c1ccc2cc(C([NH-])=O)n(C(=O)OCCCCl)c2c1 (protonated)
CN(C)c1ccc2cc(C([NH-])=O)n(C(=O)OCCCCl)c2c1 (3D coordinates assigned)
CN(C)c1ccc2cc(C([NH-])=O)n(C(=O)OCCCCl)c2c1 (optimized conformer: 74.19866453519779 kcal/mol)

>  <smiles>  (13) 
CN(C)c1ccc2cc(C(N)=O)n(C(=O)OCCCCl)c2c1

>  <score_type>  (13) 
oracle

>  <origin>  (13) 
adg

>  <m_score__min__energy>  (13) 
-9.7699999999999996

>  <m_primary>  (13) 
energy

$$$$
13:0
     RDKit          3D

 37 38  0  0  0  0  0  0  0  0999 V2000
   -6.0940   17.8300  -33.7670 C   0  0  0  0  0  0  0  0  0  0  0  0
   -6.0790   18.0960  -32.3270 N   0  0  0  0  0  0  0  0  0  0  0  0
   -6.4310   19.4700  -32.0740 C   0  0  0  0  0  0  0  0  0  0  0  0
   -7.7750   19.9040  -32.2190 C   0  0  0  0  0  0  0  0  0  0  0  0
   -8.1340   21.2350  -31.9490 C   0  0  0  0  0  0  0  0  0  0  0  0
   -7.1350   22.1050  -31.5190 C   0  0  0  0  0  0  0  0  0  0  0  0
   -7.1980   23.4430  -31.1980 C   0  0  0  0  0  0  0  0  0  0  0  0
   -5.8970   23.7980  -30.8380 C   0  0  0  0  0  0  0  0  0  0  0  0
   -5.5080   25.1490  -30.3830 C   0  0  0  0  0  0  0  0  0  0  0  0
   -4.2080   25.6680  -30.6540 N   0  0  0  0  0  0  0  0  0  0  0  0
   -6.3270   25.8510  -29.7320 O   0  0  0  0  0  0  0  0  0  0  0  0
   -5.0720   22.7200  -30.9290 N   0  0  0  0  0  0  0  0  0  0  0  0
   -3.6560   22.6710  -30.7040 C   0  0  0  0  0  0  0  0  0  0  0  0
   -2.8760   23.0690  -31.6120 O   0  0  0  0  0  0  0  0  0  0  0  0
   -3.1270   22.1650  -29.4630 N   0  0  0  0  0  0  0  0  0  0  0  0
   -3.1050   20.7200  -29.2200 C   0  0  0  0  0  0  0  0  0  0  0  0
   -2.6460   23.0970  -28.4340 C   0  0  0  0  0  0  0  0  0  0  0  0
   -1.6190   24.0150  -29.0160 C   0  0  0  0  0  0  0  0  0  0  0  0
   -0.4610   23.5880  -29.2680 O   0  0  0  0  0  0  0  0  0  0  0  0
   -1.9510   25.3290  -29.3210 O   0  0  0  0  0  0  0  0  0  0  0  0
   -5.8390   21.6960  -31.3540 C   0  0  0  0  0  0  0  0  0  0  0  0
   -5.4480   20.3840  -31.6300 C   0  0  0  0  0  0  0  0  0  0  0  0
   -6.1552   16.7452  -33.9389 H   0  0  0  0  0  0  0  0  0  0  0  0
   -6.9658   18.3230  -34.2219 H   0  0  0  0  0  0  0  0  0  0  0  0
   -5.1723   18.2219  -34.2219 H   0  0  0  0  0  0  0  0  0  0  0  0
   -6.7600   17.4580  -31.8520 H   0  0  0  0  0  0  0  0  0  0  0  0
   -5.1250   17.8910  -31.9490 H   0  0  0  0  0  0  0  0  0  0  0  0
   -8.5444   19.1894  -32.5467 H   0  0  0  0  0  0  0  0  0  0  0  0
   -9.1713   21.5792  -32.0733 H   0  0  0  0  0  0  0  0  0  0  0  0
   -8.0849   24.0934  -31.2206 H   0  0  0  0  0  0  0  0  0  0  0  0
   -3.4130   25.0310  -30.8850 H   0  0  0  0  0  0  0  0  0  0  0  0
   -3.1021   20.5304  -28.1365 H   0  0  0  0  0  0  0  0  0  0  0  0
   -3.9962   20.2588  -29.6706 H   0  0  0  0  0  0  0  0  0  0  0  0
   -2.2001   20.2861  -29.6706 H   0  0  0  0  0  0  0  0  0  0  0  0
   -3.4917   23.6897  -28.0552 H   0  0  0  0  0  0  0  0  0  0  0  0
   -2.1938   22.5244  -27.6108 H   0  0  0  0  0  0  0  0  0  0  0  0
   -4.4013   20.0696  -31.5051 H   0  0  0  0  0  0  0  0  0  0  0  0
  1  2  1  0
  2  3  1  0
  3  4  2  0
  4  5  1  0
  5  6  2  0
  6  7  1  0
  7  8  2  0
  8  9  1  0
  9 10  1  0
  9 11  2  0
  8 12  1  0
 12 13  1  0
 13 14  2  0
 13 15  1  0
 15 16  1  0
 15 17  1  0
 17 18  1  0
 18 19  2  0
 18 20  1  0
 12 21  1  0
 21 22  2  0
 22  3  1  0
 21  6  1  0
  1 23  1  0
  1 24  1  0
  1 25  1  0
  2 26  1  0
  2 27  1  0
  4 28  1  0
  5 29  1  0
  7 30  1  0
 10 31  1  0
 16 32  1  0
 16 33  1  0
 16 34  1  0
 17 35  1  0
 17 36  1  0
 22 37  1  0
M  CHG  3   2   1  10  -1  20  -1
M  END
>  <UniqueID>  (14) 
14

>  <SMILES>  (14) 
C[NH2+]c1ccc2cc(C([NH-])=O)n(C(=O)N(C)CC(=O)[O-])c2c1

>  <Energy>  (14) 
73.05945111583902

>  <Genealogy>  (14) 
C[NH2+]c1ccc2cc(C([NH-])=O)n(C(=O)N(C)CC(=O)[O-])c2c1 (protonated)
C[NH2+]c1ccc2cc(C([NH-])=O)n(C(=O)N(C)CC(=O)[O-])c2c1 (3D coordinates assigned)
C[NH2+]c1ccc2cc(C([NH-])=O)n(C(=O)N(C)CC(=O)[O-])c2c1 (optimized conformer: 73.05945111583902 kcal/mol)

>  <smiles>  (14) 
CNc1ccc2cc(C(N)=O)n(C(=O)N(C)CC(=O)O)c2c1

>  <score_type>  (14) 
oracle

>  <origin>  (14) 
adg

>  <m_score__min__energy>  (14) 
-11.08

>  <m_primary>  (14) 
energy

$$$$
14:0
     RDKit          3D

 46 47  0  0  0  0  0  0  0  0999 V2000
   -3.2620   25.6570  -31.2110 H   0  0  0  0  0  0  0  0  0  0  0  0
   -4.2420   25.6860  -30.8510 N   0  0  0  0  0  0  0  0  0  0  0  0
   -4.8660   24.5150  -30.3280 C   0  0  0  0  0  0  0  0  0  0  0  0
   -5.5290   24.5960  -29.2590 O   0  0  0  0  0  0  0  0  0  0  0  0
   -4.7770   23.2230  -31.0410 C   0  0  0  0  0  0  0  0  0  0  0  0
   -5.8470   22.6430  -31.7200 C   0  0  0  0  0  0  0  0  0  0  0  0
   -6.8776   23.0215  -31.7882 H   0  0  0  0  0  0  0  0  0  0  0  0
   -5.3400   21.4960  -32.2870 C   0  0  0  0  0  0  0  0  0  0  0  0
   -5.9690   20.5270  -33.0590 C   0  0  0  0  0  0  0  0  0  0  0  0
   -7.0330   20.6163  -33.3233 H   0  0  0  0  0  0  0  0  0  0  0  0
   -5.2060   19.4300  -33.4920 C   0  0  0  0  0  0  0  0  0  0  0  0
   -5.6809   18.6508  -34.1063 H   0  0  0  0  0  0  0  0  0  0  0  0
   -3.8280   19.3080  -33.1500 C   0  0  0  0  0  0  0  0  0  0  0  0
   -3.0440   18.1730  -33.6090 N   0  0  0  0  0  0  0  0  0  0  0  0
   -3.7000   17.0090  -34.2190 C   0  0  0  0  0  0  0  0  0  0  0  0
   -4.0752   16.3432  -33.4279 H   0  0  0  0  0  0  0  0  0  0  0  0
   -4.5405   17.3470  -34.8430 H   0  0  0  0  0  0  0  0  0  0  0  0
   -2.9756   16.4651  -34.8430 H   0  0  0  0  0  0  0  0  0  0  0  0
   -1.5830   18.1640  -33.4580 C   0  0  0  0  0  0  0  0  0  0  0  0
   -1.3249   18.1624  -32.3887 H   0  0  0  0  0  0  0  0  0  0  0  0
   -1.1705   17.2633  -33.9361 H   0  0  0  0  0  0  0  0  0  0  0  0
   -1.1594   19.0596  -33.9361 H   0  0  0  0  0  0  0  0  0  0  0  0
   -3.2350   20.3240  -32.3560 C   0  0  0  0  0  0  0  0  0  0  0  0
   -2.1761   20.2587  -32.0653 H   0  0  0  0  0  0  0  0  0  0  0  0
   -4.0170   21.4090  -31.9490 C   0  0  0  0  0  0  0  0  0  0  0  0
   -3.6540   22.4640  -31.1870 N   0  0  0  0  0  0  0  0  0  0  0  0
   -2.3800   22.6570  -30.5450 C   0  0  0  0  0  0  0  0  0  0  0  0
   -1.3300   22.6040  -31.2390 O   0  0  0  0  0  0  0  0  0  0  0  0
   -2.2670   22.9550  -29.0940 C   0  0  0  0  0  0  0  0  0  0  0  0
   -2.0500   24.2030  -28.6470 C   0  0  0  0  0  0  0  0  0  0  0  0
   -1.9401   24.3698  -27.5653 H   0  0  0  0  0  0  0  0  0  0  0  0
   -1.9600   25.2900  -29.5080 O   0  0  0  0  0  0  0  0  0  0  0  0
   -2.4500   21.8840  -28.1430 N   0  0  0  0  0  0  0  0  0  0  0  0
   -1.3260   21.1080  -27.6800 C   0  0  0  0  0  0  0  0  0  0  0  0
   -1.4980   19.9300  -27.2580 O   0  0  0  0  0  0  0  0  0  0  0  0
   -0.0390   21.6580  -27.7160 O   0  0  0  0  0  0  0  0  0  0  0  0
    0.4150   22.6580  -26.8050 C   0  0  0  0  0  0  0  0  0  0  0  0
   -0.4420   23.2623  -26.4726 H   0  0  0  0  0  0  0  0  0  0  0  0
    0.8874   22.1676  -25.9411 H   0  0  0  0  0  0  0  0  0  0  0  0
    1.4180   23.5470  -27.4690 C   0  0  0  0  0  0  0  0  0  0  0  0
    1.0630   24.3330  -28.3860 O   0  0  0  0  0  0  0  0  0  0  0  0
    2.7580   23.4720  -27.1060 O   0  0  0  0  0  0  0  0  0  0  0  0
   -3.7720   21.6380  -27.5590 C   0  0  0  0  0  0  0  0  0  0  0  0
   -3.6965   21.6521  -26.4617 H   0  0  0  0  0  0  0  0  0  0  0  0
   -4.4700   22.4217  -27.8886 H   0  0  0  0  0  0  0  0  0  0  0  0
   -4.1414   20.6557  -27.8886 H   0  0  0  0  0  0  0  0  0  0  0  0
  1  2  1  0
  2  3  1  0
  3  4  2  0
  3  5  1  0
  5  6  2  0
  6  7  1  0
  6  8  1  0
  8  9  2  0
  9 10  1  0
  9 11  1  0
 11 12  1  0
 11 13  2  0
 13 14  1  0
 14 15  1  0
 15 16  1  0
 15 17  1  0
 15 18  1  0
 14 19  1  0
 19 20  1  0
 19 21  1  0
 19 22  1  0
 13 23  1  0
 23 24  1  0
 23 25  2  0
 25 26  1  0
 26 27  1  0
 27 28  2  0
 27 29  1  0
 29 30  2  0
 30 31  1  0
 30 32  1  0
 29 33  1  0
 33 34  1  0
 34 35  2  0
 34 36  1  0
 36 37  1  0
 37 38  1  0
 37 39  1  0
 37 40  1  0
 40 41  2  0
 40 42  1  0
 33 43  1  0
 43 44  1  0
 43 45  1  0
 43 46  1  0
 26  5  1  0
 25  8  1  0
M  CHG  3   2  -1  32  -1  42  -1
M  END
>  <UniqueID>  (15) 
15

>  <SMILES>  (15) 
CN(C(=O)OCC(=O)[O-])/C(=C/[O-])C(=O)n1c(C([NH-])=O)cc2ccc(N(C)C)cc21

>  <Energy>  (15) 
90.27596266295173

>  <Genealogy>  (15) 
CN(C(=O)OCC(=O)[O-])C(=C[O-])C(=O)n1c(C([NH-])=O)cc2ccc(N(C)C)cc21 (protonated)
CN(C(=O)OCC(=O)[O-])/C(=C/[O-])C(=O)n1c(C([NH-])=O)cc2ccc(N(C)C)cc21 (cis-trans isomerization)
CN(C(=O)OCC(=O)[O-])/C(=C/[O-])C(=O)n1c(C([NH-])=O)cc2ccc(N(C)C)cc21 (3D coordinates assigned)
CN(C(=O)OCC(=O)[O-])/C(=C/[O-])C(=O)n1c(C([NH-])=O)cc2ccc(N(C)C)cc21 (optimized conformer: 90.27596266295173 kcal/mol)

>  <smiles>  (15) 
CN(C(=O)OCC(=O)O)C(=CO)C(=O)n1c(C(N)=O)cc2ccc(N(C)C)cc21

>  <score_type>  (15) 
oracle

>  <origin>  (15) 
adg

>  <m_score__min__energy>  (15) 
-12.130000000000001

>  <m_primary>  (15) 
energy

$$$$
15:0
     RDKit          3D

 45 46  0  0  0  0  0  0  0  0999 V2000
   -1.8350   16.9110  -34.9540 C   0  0  0  0  0  0  0  0  0  0  0  0
   -1.7660   18.2660  -34.2620 C   0  0  0  0  0  0  0  0  0  0  0  0
   -3.0680   18.6920  -33.8670 O   0  0  0  0  0  0  0  0  0  0  0  0
   -3.2970   19.7860  -33.0270 C   0  0  0  0  0  0  0  0  0  0  0  0
   -3.9990   19.6650  -31.9860 O   0  0  0  0  0  0  0  0  0  0  0  0
   -2.6670   21.1030  -33.3490 C   0  0  0  0  0  0  0  0  0  0  0  0
   -3.6120   22.1550  -33.1730 O   0  0  0  0  0  0  0  0  0  0  0  0
   -3.8930   22.7310  -31.9280 C   0  0  0  0  0  0  0  0  0  0  0  0
   -2.9690   22.9290  -31.0930 O   0  0  0  0  0  0  0  0  0  0  0  0
   -5.2460   23.0770  -31.5940 N   0  0  0  0  0  0  0  0  0  0  0  0
   -5.6860   24.1760  -30.9170 C   0  0  0  0  0  0  0  0  0  0  0  0
   -4.8590   25.3300  -30.5070 C   0  0  0  0  0  0  0  0  0  0  0  0
   -3.5040   25.1270  -30.1150 N   0  0  0  0  0  0  0  0  0  0  0  0
   -5.3450   26.4910  -30.4670 O   0  0  0  0  0  0  0  0  0  0  0  0
   -7.0650   24.1100  -30.7240 C   0  0  0  0  0  0  0  0  0  0  0  0
   -7.4600   22.9320  -31.3140 C   0  0  0  0  0  0  0  0  0  0  0  0
   -8.7230   22.3540  -31.3990 C   0  0  0  0  0  0  0  0  0  0  0  0
   -8.8340   21.1050  -32.0320 C   0  0  0  0  0  0  0  0  0  0  0  0
   -7.6890   20.4550  -32.5620 C   0  0  0  0  0  0  0  0  0  0  0  0
   -7.8120   19.1530  -33.1740 N   0  0  0  0  0  0  0  0  0  0  0  0
   -7.3840   18.0800  -32.2590 C   0  0  0  0  0  0  0  0  0  0  0  0
   -6.2720   17.1970  -32.8500 C   0  0  0  0  0  0  0  0  0  0  0  0
   -5.5520   17.9020  -33.9070 N   0  0  0  0  0  0  0  0  0  0  0  0
   -6.4220   21.0770  -32.4570 C   0  0  0  0  0  0  0  0  0  0  0  0
   -6.3440   22.3270  -31.8330 C   0  0  0  0  0  0  0  0  0  0  0  0
   -1.8756   16.1142  -34.1967 H   0  0  0  0  0  0  0  0  0  0  0  0
   -2.7366   16.8658  -35.5825 H   0  0  0  0  0  0  0  0  0  0  0  0
   -0.9426   16.7744  -35.5825 H   0  0  0  0  0  0  0  0  0  0  0  0
   -1.1258   18.1853  -33.3712 H   0  0  0  0  0  0  0  0  0  0  0  0
   -1.3483   19.0029  -34.9638 H   0  0  0  0  0  0  0  0  0  0  0  0
   -1.8094   21.2690  -32.6805 H   0  0  0  0  0  0  0  0  0  0  0  0
   -2.3298   21.0939  -34.3960 H   0  0  0  0  0  0  0  0  0  0  0  0
   -2.7370   25.1210  -30.8230 H   0  0  0  0  0  0  0  0  0  0  0  0
   -7.7021   24.8442  -30.2091 H   0  0  0  0  0  0  0  0  0  0  0  0
   -9.6071   22.8596  -30.9833 H   0  0  0  0  0  0  0  0  0  0  0  0
   -9.8200   20.6250  -32.1180 H   0  0  0  0  0  0  0  0  0  0  0  0
   -8.8160   18.9940  -33.4250 H   0  0  0  0  0  0  0  0  0  0  0  0
   -7.2690   19.1120  -34.0680 H   0  0  0  0  0  0  0  0  0  0  0  0
   -7.0122   18.5381  -31.3306 H   0  0  0  0  0  0  0  0  0  0  0  0
   -8.2559   17.4346  -32.0767 H   0  0  0  0  0  0  0  0  0  0  0  0
   -5.5652   16.9260  -32.0519 H   0  0  0  0  0  0  0  0  0  0  0  0
   -6.7314   16.2946  -33.2797 H   0  0  0  0  0  0  0  0  0  0  0  0
   -5.1950   18.7990  -33.5060 H   0  0  0  0  0  0  0  0  0  0  0  0
   -4.7120   17.3350  -34.1640 H   0  0  0  0  0  0  0  0  0  0  0  0
   -5.5204   20.5895  -32.8563 H   0  0  0  0  0  0  0  0  0  0  0  0
  1  2  1  0
  2  3  1  0
  3  4  1  0
  4  5  2  0
  4  6  1  0
  6  7  1  0
  7  8  1  0
  8  9  2  0
  8 10  1  0
 10 11  1  0
 11 12  1  0
 12 13  1  0
 12 14  2  0
 11 15  2  0
 15 16  1  0
 16 17  2  0
 17 18  1  0
 18 19  2  0
 19 20  1  0
 20 21  1  0
 21 22  1  0
 22 23  1  0
 19 24  1  0
 24 25  2  0
 25 10  1  0
 25 16  1  0
  1 26  1  0
  1 27  1  0
  1 28  1  0
  2 29  1  0
  2 30  1  0
  6 31  1  0
  6 32  1  0
 13 33  1  0
 15 34  1  0
 17 35  1  0
 18 36  1  0
 20 37  1  0
 20 38  1  0
 21 39  1  0
 21 40  1  0
 22 41  1  0
 22 42  1  0
 23 43  1  0
 23 44  1  0
 24 45  1  0
M  CHG  2  13  -1  20   1
M  END
>  <UniqueID>  (16) 
16

>  <SMILES>  (16) 
CCOC(=O)COC(=O)n1c(C([NH-])=O)cc2ccc([NH2+]CCN)cc21

>  <Energy>  (16) 
74.6723539125581

>  <Genealogy>  (16) 
CCOC(=O)COC(=O)n1c(C([NH-])=O)cc2ccc([NH2+]CCN)cc21 (protonated)
CCOC(=O)COC(=O)n1c(C([NH-])=O)cc2ccc([NH2+]CCN)cc21 (3D coordinates assigned)
CCOC(=O)COC(=O)n1c(C([NH-])=O)cc2ccc([NH2+]CCN)cc21 (optimized conformer: 74.6723539125581 kcal/mol)

>  <smiles>  (16) 
CCOC(=O)COC(=O)n1c(C(N)=O)cc2ccc(NCCN)cc21

>  <score_type>  (16) 
oracle

>  <origin>  (16) 
adg

>  <m_score__min__energy>  (16) 
-9.7400000000000002

>  <m_primary>  (16) 
energy

$$$$
16:0
     RDKit          3D

 50 53  0  0  0  0  0  0  0  0999 V2000
   -3.9770   22.6680  -27.8400 C   0  0  0  0  0  0  0  0  0  0  0  0
   -2.8750   21.8190  -28.5030 C   0  0  0  0  0  0  0  0  0  0  0  0
   -2.7480   20.4880  -27.7470 C   0  0  0  0  0  0  0  0  0  0  0  0
   -1.5190   22.5500  -28.4550 C   0  0  0  0  0  0  0  0  0  0  0  0
   -3.2290   21.5030  -29.8570 O   0  0  0  0  0  0  0  0  0  0  0  0
   -3.6970   22.4000  -30.8280 C   0  0  0  0  0  0  0  0  0  0  0  0
   -2.8940   23.0910  -31.5120 O   0  0  0  0  0  0  0  0  0  0  0  0
   -5.1110   22.5260  -31.0490 N   0  0  0  0  0  0  0  0  0  0  0  0
   -5.8860   23.6330  -30.8780 C   0  0  0  0  0  0  0  0  0  0  0  0
   -5.4490   24.9120  -30.2820 C   0  0  0  0  0  0  0  0  0  0  0  0
   -4.1870   25.4910  -30.6160 N   0  0  0  0  0  0  0  0  0  0  0  0
   -6.1790   25.4750  -29.4240 O   0  0  0  0  0  0  0  0  0  0  0  0
   -7.1910   23.3870  -31.2960 C   0  0  0  0  0  0  0  0  0  0  0  0
   -7.1970   22.0780  -31.7190 C   0  0  0  0  0  0  0  0  0  0  0  0
   -8.2330   21.3120  -32.2450 C   0  0  0  0  0  0  0  0  0  0  0  0
   -7.9470   19.9910  -32.6300 C   0  0  0  0  0  0  0  0  0  0  0  0
   -6.6340   19.4630  -32.4980 C   0  0  0  0  0  0  0  0  0  0  0  0
   -6.3360   18.0690  -32.9170 C   0  0  0  0  0  0  0  0  0  0  0  0
   -6.7330   17.6060  -34.1850 C   0  0  0  0  0  0  0  0  0  0  0  0
   -6.4470   16.2980  -34.5870 C   0  0  0  0  0  0  0  0  0  0  0  0
   -5.7600   15.4330  -33.7260 C   0  0  0  0  0  0  0  0  0  0  0  0
   -5.4610   14.1170  -34.1090 C   0  0  0  0  0  0  0  0  0  0  0  0
   -4.7920   13.2950  -33.2560 N   0  0  0  0  0  0  0  0  0  0  0  0
   -4.3950   13.7100  -32.0250 C   0  0  0  0  0  0  0  0  0  0  0  0
   -4.6690   15.0110  -31.5980 C   0  0  0  0  0  0  0  0  0  0  0  0
   -5.3550   15.8840  -32.4510 C   0  0  0  0  0  0  0  0  0  0  0  0
   -5.6470   17.1970  -32.0540 C   0  0  0  0  0  0  0  0  0  0  0  0
   -5.6100   20.2790  -31.9640 C   0  0  0  0  0  0  0  0  0  0  0  0
   -5.9290   21.5810  -31.5630 C   0  0  0  0  0  0  0  0  0  0  0  0
   -3.8857   22.5977  -26.7460 H   0  0  0  0  0  0  0  0  0  0  0  0
   -3.8678   23.7176  -28.1503 H   0  0  0  0  0  0  0  0  0  0  0  0
   -4.9641   22.2947  -28.1503 H   0  0  0  0  0  0  0  0  0  0  0  0
   -2.7662   20.6784  -26.6638 H   0  0  0  0  0  0  0  0  0  0  0  0
   -3.5875   19.8309  -28.0179 H   0  0  0  0  0  0  0  0  0  0  0  0
   -1.7994   20.0015  -28.0179 H   0  0  0  0  0  0  0  0  0  0  0  0
   -1.2248   22.7086  -27.4070 H   0  0  0  0  0  0  0  0  0  0  0  0
   -0.7560   21.9410  -28.9619 H   0  0  0  0  0  0  0  0  0  0  0  0
   -1.6084   23.5222  -28.9619 H   0  0  0  0  0  0  0  0  0  0  0  0
   -3.9150   26.4170  -30.2170 H   0  0  0  0  0  0  0  0  0  0  0  0
   -3.4860   24.9680  -31.1870 H   0  0  0  0  0  0  0  0  0  0  0  0
   -8.0372   24.0898  -31.2894 H   0  0  0  0  0  0  0  0  0  0  0  0
   -9.2452   21.7280  -32.3561 H   0  0  0  0  0  0  0  0  0  0  0  0
   -8.7488   19.3582  -33.0383 H   0  0  0  0  0  0  0  0  0  0  0  0
   -7.2735   18.2796  -34.8663 H   0  0  0  0  0  0  0  0  0  0  0  0
   -6.7620   15.9477  -35.5810 H   0  0  0  0  0  0  0  0  0  0  0  0
   -5.7676   13.7496  -35.0994 H   0  0  0  0  0  0  0  0  0  0  0  0
   -3.8553   13.0182  -31.3616 H   0  0  0  0  0  0  0  0  0  0  0  0
   -4.3488   15.3469  -30.6007 H   0  0  0  0  0  0  0  0  0  0  0  0
   -5.3347   17.5482  -31.0594 H   0  0  0  0  0  0  0  0  0  0  0  0
   -4.5829   19.8977  -31.8658 H   0  0  0  0  0  0  0  0  0  0  0  0
  1  2  1  0
  2  3  1  0
  2  4  1  0
  2  5  1  0
  5  6  1  0
  6  7  2  0
  6  8  1  0
  8  9  1  0
  9 10  1  0
 10 11  1  0
 10 12  2  0
  9 13  2  0
 13 14  1  0
 14 15  2  0
 15 16  1  0
 16 17  2  0
 17 18  1  0
 18 19  2  0
 19 20  1  0
 20 21  2  0
 21 22  1  0
 22 23  2  0
 23 24  1  0
 24 25  2  0
 25 26  1  0
 26 27  2  0
 17 28  1  0
 28 29  2  0
 29  8  1  0
 29 14  1  0
 27 18  1  0
 26 21  1  0
  1 30  1  0
  1 31  1  0
  1 32  1  0
  3 33  1  0
  3 34  1  0
  3 35  1  0
  4 36  1  0
  4 37  1  0
  4 38  1  0
 11 39  1  0
 11 40  1  0
 13 41  1  0
 15 42  1  0
 16 43  1  0
 19 44  1  0
 20 45  1  0
 22 46  1  0
 24 47  1  0
 25 48  1  0
 27 49  1  0
 28 50  1  0
M  END
>  <UniqueID>  (17) 
17

>  <SMILES>  (17) 
CC(C)(C)OC(=O)n1c(C(N)=O)cc2ccc(-c3ccc4cnccc4c3)cc21

>  <Energy>  (17) 
97.31043656179602

>  <Genealogy>  (17) 
CC(C)(C)OC(=O)n1c(C(N)=O)cc2ccc(-c3ccc4cnccc4c3)cc21 (3D coordinates assigned)
CC(C)(C)OC(=O)n1c(C(N)=O)cc2ccc(-c3ccc4cnccc4c3)cc21 (optimized conformer: 97.31043656179602 kcal/mol)

>  <smiles>  (17) 
CC(C)(C)OC(=O)n1c(C(N)=O)cc2ccc(-c3ccc4cnccc4c3)cc21

>  <score_type>  (17) 
oracle

>  <origin>  (17) 
adg

>  <m_score__min__energy>  (17) 
-10.300000000000001

>  <m_primary>  (17) 
energy

$$$$
17:0
     RDKit          3D

 42 44  0  0  0  0  0  0  0  0999 V2000
   -9.4920   23.5620  -32.0760 N   0  0  0  0  0  0  0  0  0  0  0  0
   -9.4000   22.2570  -31.5020 C   0  0  0  0  0  0  0  0  0  0  0  0
  -10.2340   21.9120  -30.6220 O   0  0  0  0  0  0  0  0  0  0  0  0
   -8.3760   21.2870  -31.9470 C   0  0  0  0  0  0  0  0  0  0  0  0
   -8.6090   19.9180  -32.0570 C   0  0  0  0  0  0  0  0  0  0  0  0
   -7.4360   19.3880  -32.5460 C   0  0  0  0  0  0  0  0  0  0  0  0
   -7.0980   18.0680  -32.8320 C   0  0  0  0  0  0  0  0  0  0  0  0
   -5.7980   17.8070  -33.2970 C   0  0  0  0  0  0  0  0  0  0  0  0
   -4.8650   18.8610  -33.4780 C   0  0  0  0  0  0  0  0  0  0  0  0
   -3.4580   18.5620  -33.9250 C   0  0  0  0  0  0  0  0  0  0  0  0
   -2.7950   17.8840  -32.9190 F   0  0  0  0  0  0  0  0  0  0  0  0
   -3.4660   17.7790  -35.0670 F   0  0  0  0  0  0  0  0  0  0  0  0
   -2.7750   19.7310  -34.2070 F   0  0  0  0  0  0  0  0  0  0  0  0
   -5.2400   20.1850  -33.1490 C   0  0  0  0  0  0  0  0  0  0  0  0
   -6.5450   20.4160  -32.7050 C   0  0  0  0  0  0  0  0  0  0  0  0
   -7.1040   21.5860  -32.3300 N   0  0  0  0  0  0  0  0  0  0  0  0
   -6.4420   22.8590  -32.2740 C   0  0  0  0  0  0  0  0  0  0  0  0
   -6.7900   23.7720  -33.0720 O   0  0  0  0  0  0  0  0  0  0  0  0
   -5.3820   23.0960  -31.3300 N   0  0  0  0  0  0  0  0  0  0  0  0
   -5.0390   24.4720  -30.9430 C   0  0  0  0  0  0  0  0  0  0  0  0
   -4.5380   24.4990  -29.4960 C   0  0  0  0  0  0  0  0  0  0  0  0
   -3.3530   23.5250  -29.2510 C   0  0  0  0  0  0  0  0  0  0  0  0
   -2.0630   24.2770  -29.0680 C   0  0  0  0  0  0  0  0  0  0  0  0
   -0.9670   23.6570  -29.0350 O   0  0  0  0  0  0  0  0  0  0  0  0
   -2.0670   25.6640  -28.9670 O   0  0  0  0  0  0  0  0  0  0  0  0
   -3.1870   22.4710  -30.3670 C   0  0  0  0  0  0  0  0  0  0  0  0
   -4.5430   21.9740  -30.8800 C   0  0  0  0  0  0  0  0  0  0  0  0
   -8.9620   23.8150  -32.9370 H   0  0  0  0  0  0  0  0  0  0  0  0
  -10.1800   24.2510  -31.6970 H   0  0  0  0  0  0  0  0  0  0  0  0
   -9.5329   19.3760  -31.8066 H   0  0  0  0  0  0  0  0  0  0  0  0
   -7.8262   17.2545  -32.6981 H   0  0  0  0  0  0  0  0  0  0  0  0
   -5.4997   16.7728  -33.5236 H   0  0  0  0  0  0  0  0  0  0  0  0
   -4.5215   21.0129  -33.2405 H   0  0  0  0  0  0  0  0  0  0  0  0
   -4.2502   24.8519  -31.6089 H   0  0  0  0  0  0  0  0  0  0  0  0
   -5.9347   25.1050  -31.0272 H   0  0  0  0  0  0  0  0  0  0  0  0
   -4.2081   25.5209  -29.2573 H   0  0  0  0  0  0  0  0  0  0  0  0
   -5.3695   24.1776  -28.8516 H   0  0  0  0  0  0  0  0  0  0  0  0
   -3.5995   22.9834  -28.3258 H   0  0  0  0  0  0  0  0  0  0  0  0
   -2.6321   22.9211  -31.2034 H   0  0  0  0  0  0  0  0  0  0  0  0
   -2.6409   21.6118  -29.9503 H   0  0  0  0  0  0  0  0  0  0  0  0
   -4.3784   21.2874  -31.7235 H   0  0  0  0  0  0  0  0  0  0  0  0
   -5.0604   21.4584  -30.0575 H   0  0  0  0  0  0  0  0  0  0  0  0
  1  2  1  0
  2  3  2  0
  2  4  1  0
  4  5  2  0
  5  6  1  0
  6  7  2  0
  7  8  1  0
  8  9  2  0
  9 10  1  0
 10 11  1  0
 10 12  1  0
 10 13  1  0
  9 14  1  0
 14 15  2  0
 15 16  1  0
 16 17  1  0
 17 18  2  0
 17 19  1  0
 19 20  1  0
 20 21  1  0
 21 22  1  0
 22 23  1  0
 23 24  2  0
 23 25  1  0
 22 26  1  0
 26 27  1  0
 16  4  1  0
 27 19  1  0
 15  6  1  0
  1 28  1  0
  1 29  1  0
  5 30  1  0
  7 31  1  0
  8 32  1  0
 14 33  1  0
 20 34  1  0
 20 35  1  0
 21 36  1  0
 21 37  1  0
 22 38  1  0
 26 39  1  0
 26 40  1  0
 27 41  1  0
 27 42  1  0
M  CHG  1  25  -1
M  END
>  <UniqueID>  (18) 
18

>  <SMILES>  (18) 
NC(=O)c1cc2ccc(C(F)(F)F)cc2n1C(=O)N1CCC(C(=O)[O-])CC1

>  <Energy>  (18) 
85.25342712611886

>  <Genealogy>  (18) 
NC(=O)c1cc2ccc(C(F)(F)F)cc2n1C(=O)N1CCC(C(=O)[O-])CC1 (protonated)
NC(=O)c1cc2ccc(C(F)(F)F)cc2n1C(=O)N1CCC(C(=O)[O-])CC1 (3D coordinates assigned)
NC(=O)c1cc2ccc(C(F)(F)F)cc2n1C(=O)N1CCC(C(=O)[O-])CC1 (nonaromatic ring conformer: 85.25342712611886 kcal/mol)

>  <smiles>  (18) 
NC(=O)c1cc2ccc(C(F)(F)F)cc2n1C(=O)N1CCC(C(=O)O)CC1

>  <score_type>  (18) 
oracle

>  <origin>  (18) 
adg

>  <m_score__min__energy>  (18) 
-9.9199999999999999

>  <m_primary>  (18) 
energy

$$$$
18:0
     RDKit          3D

 31 32  0  0  0  0  0  0  0  0999 V2000
   -3.8910   25.6750  -30.8380 N   0  0  0  0  0  0  0  0  0  0  0  0
   -5.2550   25.3960  -30.5350 C   0  0  0  0  0  0  0  0  0  0  0  0
   -5.9800   26.3100  -30.0590 O   0  0  0  0  0  0  0  0  0  0  0  0
   -5.8420   24.0710  -30.8220 C   0  0  0  0  0  0  0  0  0  0  0  0
   -7.2130   23.8500  -30.9470 C   0  0  0  0  0  0  0  0  0  0  0  0
   -7.3380   22.5240  -31.2950 C   0  0  0  0  0  0  0  0  0  0  0  0
   -8.4800   21.7630  -31.5300 C   0  0  0  0  0  0  0  0  0  0  0  0
   -8.3140   20.4030  -31.8370 C   0  0  0  0  0  0  0  0  0  0  0  0
   -7.0190   19.8280  -31.8960 C   0  0  0  0  0  0  0  0  0  0  0  0
   -6.8470   18.3690  -32.2060 C   0  0  0  0  0  0  0  0  0  0  0  0
   -8.0860   17.7740  -32.3490 F   0  0  0  0  0  0  0  0  0  0  0  0
   -6.1590   17.7510  -31.1770 F   0  0  0  0  0  0  0  0  0  0  0  0
   -5.8830   20.6310  -31.6490 C   0  0  0  0  0  0  0  0  0  0  0  0
   -6.0780   21.9880  -31.3640 C   0  0  0  0  0  0  0  0  0  0  0  0
   -5.1480   22.9250  -31.0750 N   0  0  0  0  0  0  0  0  0  0  0  0
   -3.7340   22.7110  -30.9520 C   0  0  0  0  0  0  0  0  0  0  0  0
   -2.9900   22.8340  -31.9630 O   0  0  0  0  0  0  0  0  0  0  0  0
   -3.1930   22.3480  -29.7130 O   0  0  0  0  0  0  0  0  0  0  0  0
   -3.0730   23.2470  -28.6140 C   0  0  0  0  0  0  0  0  0  0  0  0
   -1.4780   24.1200  -28.6810 P   0  0  0  0  0  0  0  0  0  0  0  0
   -0.9080   24.2350  -27.2860 O   0  0  0  0  0  0  0  0  0  0  0  0
   -1.7180   25.6670  -29.3180 O   0  0  0  0  0  0  0  0  0  0  0  0
   -0.3920   23.2740  -29.6620 O   0  0  0  0  0  0  0  0  0  0  0  0
   -3.1670   24.9240  -30.7990 H   0  0  0  0  0  0  0  0  0  0  0  0
   -8.0225   24.5799  -30.7990 H   0  0  0  0  0  0  0  0  0  0  0  0
   -9.4820   22.2136  -31.4768 H   0  0  0  0  0  0  0  0  0  0  0  0
   -9.1971   19.7774  -32.0337 H   0  0  0  0  0  0  0  0  0  0  0  0
   -6.2789   18.2646  -33.1421 H   0  0  0  0  0  0  0  0  0  0  0  0
   -4.8710   20.2010  -31.6798 H   0  0  0  0  0  0  0  0  0  0  0  0
   -3.8905   23.9818  -28.6557 H   0  0  0  0  0  0  0  0  0  0  0  0
   -3.1275   22.6742  -27.6765 H   0  0  0  0  0  0  0  0  0  0  0  0
  1  2  1  0
  2  3  2  0
  2  4  1  0
  4  5  2  0
  5  6  1  0
  6  7  2  0
  7  8  1  0
  8  9  2  0
  9 10  1  0
 10 11  1  0
 10 12  1  0
  9 13  1  0
 13 14  2  0
 14 15  1  0
 15 16  1  0
 16 17  2  0
 16 18  1  0
 18 19  1  0
 19 20  1  0
 20 21  2  0
 20 22  1  0
 20 23  1  0
 15  4  1  0
 14  6  1  0
  1 24  1  0
  5 25  1  0
  7 26  1  0
  8 27  1  0
 10 28  1  0
 13 29  1  0
 19 30  1  0
 19 31  1  0
M  CHG  3   1  -1  22  -1  23  -1
M  END
>  <UniqueID>  (19) 
19

>  <SMILES>  (19) 
[NH-]C(=O)c1cc2ccc(C(F)F)cc2n1C(=O)OCP(=O)([O-])[O-]

>  <Energy>  (19) 
65.2890330702839

>  <Genealogy>  (19) 
[NH-]C(=O)c1cc2ccc(C(F)F)cc2n1C(=O)OCP(=O)([O-])[O-] (protonated)
[NH-]C(=O)c1cc2ccc(C(F)F)cc2n1C(=O)OCP(=O)([O-])[O-] (3D coordinates assigned)
[NH-]C(=O)c1cc2ccc(C(F)F)cc2n1C(=O)OCP(=O)([O-])[O-] (optimized conformer: 65.2890330702839 kcal/mol)

>  <smiles>  (19) 
NC(=O)c1cc2ccc(C(F)F)cc2n1C(=O)OCP(=O)(O)O

>  <score_type>  (19) 
oracle

>  <origin>  (19) 
adg

>  <m_score__min__energy>  (19) 
-13.289999999999999

>  <m_primary>  (19) 
energy

$$$$
19:0
     RDKit          3D

 45 46  0  0  0  0  0  0  0  0999 V2000
   -1.1870   19.8730  -31.9000 C   0  0  0  0  0  0  0  0  0  0  0  0
   -2.3510   20.7340  -31.6560 N   0  0  0  0  0  0  0  0  0  0  0  0
   -2.5420   21.3330  -30.3240 C   0  0  0  0  0  0  0  0  0  0  0  0
   -1.3700   22.2650  -29.9830 C   0  0  0  0  0  0  0  0  0  0  0  0
   -1.6810   23.1770  -28.7910 C   0  0  0  0  0  0  0  0  0  0  0  0
   -0.9440   24.4770  -28.8830 C   0  0  0  0  0  0  0  0  0  0  0  0
    0.2800   24.5350  -28.5920 O   0  0  0  0  0  0  0  0  0  0  0  0
   -1.6000   25.6190  -29.3290 O   0  0  0  0  0  0  0  0  0  0  0  0
   -3.2440   21.1050  -32.7350 C   0  0  0  0  0  0  0  0  0  0  0  0
   -3.2060   22.2790  -33.1950 O   0  0  0  0  0  0  0  0  0  0  0  0
   -4.2100   20.1570  -33.3350 C   0  0  0  0  0  0  0  0  0  0  0  0
   -3.8320   19.3270  -34.2050 O   0  0  0  0  0  0  0  0  0  0  0  0
   -5.5790   20.1430  -32.8970 N   0  0  0  0  0  0  0  0  0  0  0  0
   -6.4840   19.1330  -33.0380 C   0  0  0  0  0  0  0  0  0  0  0  0
   -6.1790   17.7810  -33.5590 C   0  0  0  0  0  0  0  0  0  0  0  0
   -5.6250   17.6040  -34.8640 N   0  0  0  0  0  0  0  0  0  0  0  0
   -6.4230   16.7650  -32.8560 O   0  0  0  0  0  0  0  0  0  0  0  0
   -7.7320   19.5300  -32.5600 C   0  0  0  0  0  0  0  0  0  0  0  0
   -7.5630   20.8250  -32.1260 C   0  0  0  0  0  0  0  0  0  0  0  0
   -8.4850   21.7150  -31.5810 C   0  0  0  0  0  0  0  0  0  0  0  0
   -8.0400   23.0090  -31.2600 C   0  0  0  0  0  0  0  0  0  0  0  0
   -6.6910   23.3870  -31.4850 C   0  0  0  0  0  0  0  0  0  0  0  0
   -6.2380   24.7880  -31.1820 C   0  0  0  0  0  0  0  0  0  0  0  0
   -4.9230   24.7590  -30.4720 C   0  0  0  0  0  0  0  0  0  0  0  0
   -4.7160   23.9210  -29.5550 O   0  0  0  0  0  0  0  0  0  0  0  0
   -3.9080   25.6270  -30.8540 O   0  0  0  0  0  0  0  0  0  0  0  0
   -5.7900   22.4600  -32.0530 C   0  0  0  0  0  0  0  0  0  0  0  0
   -6.2560   21.1730  -32.3450 C   0  0  0  0  0  0  0  0  0  0  0  0
   -0.7578   19.5555  -30.9383 H   0  0  0  0  0  0  0  0  0  0  0  0
   -1.4997   18.9872  -32.4723 H   0  0  0  0  0  0  0  0  0  0  0  0
   -0.4315   20.4313  -32.4723 H   0  0  0  0  0  0  0  0  0  0  0  0
   -3.4782   21.9105  -30.3172 H   0  0  0  0  0  0  0  0  0  0  0  0
   -2.5883   20.5291  -29.5746 H   0  0  0  0  0  0  0  0  0  0  0  0
   -0.4897   21.6520  -29.7394 H   0  0  0  0  0  0  0  0  0  0  0  0
   -1.1834   22.9055  -30.8576 H   0  0  0  0  0  0  0  0  0  0  0  0
   -2.7618   23.3804  -28.7699 H   0  0  0  0  0  0  0  0  0  0  0  0
   -1.3591   22.6639  -27.8728 H   0  0  0  0  0  0  0  0  0  0  0  0
   -5.3550   18.4200  -35.4580 H   0  0  0  0  0  0  0  0  0  0  0  0
   -5.4230   16.6430  -35.2200 H   0  0  0  0  0  0  0  0  0  0  0  0
   -8.6563   18.9342  -32.5350 H   0  0  0  0  0  0  0  0  0  0  0  0
   -9.5288   21.4147  -31.4072 H   0  0  0  0  0  0  0  0  0  0  0  0
   -8.7447   23.7360  -30.8300 H   0  0  0  0  0  0  0  0  0  0  0  0
   -6.1314   25.3477  -32.1230 H   0  0  0  0  0  0  0  0  0  0  0  0
   -6.9844   25.2771  -30.5388 H   0  0  0  0  0  0  0  0  0  0  0  0
   -4.7474   22.7424  -32.2609 H   0  0  0  0  0  0  0  0  0  0  0  0
  1  2  1  0
  2  3  1  0
  3  4  1  0
  4  5  1  0
  5  6  1  0
  6  7  2  0
  6  8  1  0
  2  9  1  0
  9 10  2  0
  9 11  1  0
 11 12  2  0
 11 13  1  0
 13 14  1  0
 14 15  1  0
 15 16  1  0
 15 17  2  0
 14 18  2  0
 18 19  1  0
 19 20  2  0
 20 21  1  0
 21 22  2  0
 22 23  1  0
 23 24  1  0
 24 25  2  0
 24 26  1  0
 22 27  1  0
 27 28  2  0
 28 13  1  0
 28 19  1  0
  1 29  1  0
  1 30  1  0
  1 31  1  0
  3 32  1  0
  3 33  1  0
  4 34  1  0
  4 35  1  0
  5 36  1  0
  5 37  1  0
 16 38  1  0
 16 39  1  0
 18 40  1  0
 20 41  1  0
 21 42  1  0
 23 43  1  0
 23 44  1  0
 27 45  1  0
M  CHG  2   8  -1  26  -1
M  END
>  <UniqueID>  (20) 
20

>  <SMILES>  (20) 
CN(CCCC(=O)[O-])C(=O)C(=O)n1c(C(N)=O)cc2ccc(CC(=O)[O-])cc21

>  <Energy>  (20) 
78.42040366646573

>  <Genealogy>  (20) 
CN(CCCC(=O)[O-])C(=O)C(=O)n1c(C(N)=O)cc2ccc(CC(=O)[O-])cc21 (protonated)
CN(CCCC(=O)[O-])C(=O)C(=O)n1c(C(N)=O)cc2ccc(CC(=O)[O-])cc21 (3D coordinates assigned)
CN(CCCC(=O)[O-])C(=O)C(=O)n1c(C(N)=O)cc2ccc(CC(=O)[O-])cc21 (optimized conformer: 78.42040366646573 kcal/mol)

>  <smiles>  (20) 
CN(CCCC(=O)O)C(=O)C(=O)n1c(C(N)=O)cc2ccc(CC(=O)O)cc21

>  <score_type>  (20) 
oracle

>  <origin>  (20) 
adg

>  <m_score__min__energy>  (20) 
-12.08

>  <m_primary>  (20) 
energy

$$$$
20:0
     RDKit          3D

 42 43  0  0  0  0  0  0  0  0999 V2000
   -5.7560   18.4030  -34.8720 C   0  0  0  0  0  0  0  0  0  0  0  0
   -6.5450   18.4430  -33.6340 N   0  0  0  0  0  0  0  0  0  0  0  0
   -7.1010   17.1910  -33.1080 C   0  0  0  0  0  0  0  0  0  0  0  0
   -6.7710   19.6990  -32.9420 C   0  0  0  0  0  0  0  0  0  0  0  0
   -8.0950   20.1530  -32.6760 C   0  0  0  0  0  0  0  0  0  0  0  0
   -8.3240   21.3730  -32.0190 C   0  0  0  0  0  0  0  0  0  0  0  0
   -7.2220   22.1210  -31.6250 C   0  0  0  0  0  0  0  0  0  0  0  0
   -7.1640   23.3490  -31.0070 C   0  0  0  0  0  0  0  0  0  0  0  0
   -5.8070   23.6250  -30.8690 C   0  0  0  0  0  0  0  0  0  0  0  0
   -5.2870   24.8320  -30.1960 C   0  0  0  0  0  0  0  0  0  0  0  0
   -4.2080   25.5820  -30.7550 N   0  0  0  0  0  0  0  0  0  0  0  0
   -5.7670   25.1760  -29.0840 O   0  0  0  0  0  0  0  0  0  0  0  0
   -5.0550   22.6160  -31.3910 N   0  0  0  0  0  0  0  0  0  0  0  0
   -3.6270   22.5870  -31.5520 C   0  0  0  0  0  0  0  0  0  0  0  0
   -3.1000   21.7540  -32.3370 O   0  0  0  0  0  0  0  0  0  0  0  0
   -2.8100   23.5210  -30.8340 N   0  0  0  0  0  0  0  0  0  0  0  0
   -2.1460   23.2740  -29.5480 C   0  0  0  0  0  0  0  0  0  0  0  0
   -3.2300   22.9870  -28.5020 C   0  0  0  0  0  0  0  0  0  0  0  0
   -1.2240   22.0460  -29.6720 C   0  0  0  0  0  0  0  0  0  0  0  0
   -1.3680   24.4990  -29.1160 C   0  0  0  0  0  0  0  0  0  0  0  0
   -0.1210   24.4330  -28.9530 O   0  0  0  0  0  0  0  0  0  0  0  0
   -2.0050   25.7270  -28.9730 O   0  0  0  0  0  0  0  0  0  0  0  0
   -5.9390   21.7000  -31.8480 C   0  0  0  0  0  0  0  0  0  0  0  0
   -5.6780   20.5000  -32.5210 C   0  0  0  0  0  0  0  0  0  0  0  0
   -4.6859   18.3487  -34.6232 H   0  0  0  0  0  0  0  0  0  0  0  0
   -6.0410   17.5182  -35.4600 H   0  0  0  0  0  0  0  0  0  0  0  0
   -5.9501   19.3121  -35.4600 H   0  0  0  0  0  0  0  0  0  0  0  0
   -7.0890   17.2179  -32.0084 H   0  0  0  0  0  0  0  0  0  0  0  0
   -8.1362   17.0728  -33.4607 H   0  0  0  0  0  0  0  0  0  0  0  0
   -6.4945   16.3438  -33.4607 H   0  0  0  0  0  0  0  0  0  0  0  0
   -8.9514   19.5383  -32.9902 H   0  0  0  0  0  0  0  0  0  0  0  0
   -9.3470   21.7261  -31.8221 H   0  0  0  0  0  0  0  0  0  0  0  0
   -8.0091   23.9778  -30.6900 H   0  0  0  0  0  0  0  0  0  0  0  0
   -3.8860   26.4600  -30.2920 H   0  0  0  0  0  0  0  0  0  0  0  0
   -3.6780   25.2280  -31.5810 H   0  0  0  0  0  0  0  0  0  0  0  0
   -2.8053   23.0994  -27.4935 H   0  0  0  0  0  0  0  0  0  0  0  0
   -4.0610   23.6961  -28.6311 H   0  0  0  0  0  0  0  0  0  0  0  0
   -3.6012   21.9596  -28.6311 H   0  0  0  0  0  0  0  0  0  0  0  0
   -0.9544   21.6870  -28.6678 H   0  0  0  0  0  0  0  0  0  0  0  0
   -1.7479   21.2478  -30.2184 H   0  0  0  0  0  0  0  0  0  0  0  0
   -0.3114   22.3264  -30.2184 H   0  0  0  0  0  0  0  0  0  0  0  0
   -4.6434   20.1837  -32.7199 H   0  0  0  0  0  0  0  0  0  0  0  0
  1  2  1  0
  2  3  1  0
  2  4  1  0
  4  5  2  0
  5  6  1  0
  6  7  2  0
  7  8  1  0
  8  9  2  0
  9 10  1  0
 10 11  1  0
 10 12  2  0
  9 13  1  0
 13 14  1  0
 14 15  2  0
 14 16  1  0
 16 17  1  0
 17 18  1  0
 17 19  1  0
 17 20  1  0
 20 21  2  0
 20 22  1  0
 13 23  1  0
 23 24  2  0
 24  4  1  0
 23  7  1  0
  1 25  1  0
  1 26  1  0
  1 27  1  0
  3 28  1  0
  3 29  1  0
  3 30  1  0
  5 31  1  0
  6 32  1  0
  8 33  1  0
 11 34  1  0
 11 35  1  0
 18 36  1  0
 18 37  1  0
 18 38  1  0
 19 39  1  0
 19 40  1  0
 19 41  1  0
 24 42  1  0
M  CHG  2  16  -1  22  -1
M  END
>  <UniqueID>  (21) 
21

>  <SMILES>  (21) 
CN(C)c1ccc2cc(C(N)=O)n(C(=O)[N-]C(C)(C)C(=O)[O-])c2c1

>  <Energy>  (21) 
78.82068008998114

>  <Genealogy>  (21) 
CN(C)c1ccc2cc(C(N)=O)n(C(=O)[N-]C(C)(C)C(=O)[O-])c2c1 (protonated)
CN(C)c1ccc2cc(C(N)=O)n(C(=O)[N-]C(C)(C)C(=O)[O-])c2c1 (3D coordinates assigned)
CN(C)c1ccc2cc(C(N)=O)n(C(=O)[N-]C(C)(C)C(=O)[O-])c2c1 (optimized conformer: 78.82068008998114 kcal/mol)

>  <smiles>  (21) 
CN(C)c1ccc2cc(C(N)=O)n(C(=O)NC(C)(C)C(=O)O)c2c1

>  <score_type>  (21) 
oracle

>  <origin>  (21) 
adg

>  <m_score__min__energy>  (21) 
-12.199999999999999

>  <m_primary>  (21) 
energy

$$$$
21:0
     RDKit          3D

 48 49  0  0  0  0  0  0  0  0999 V2000
   -3.8840   25.6750  -30.8450 N   0  0  0  0  0  0  0  0  0  0  0  0
   -5.1320   25.0920  -30.4740 C   0  0  0  0  0  0  0  0  0  0  0  0
   -5.9430   25.7640  -29.7810 O   0  0  0  0  0  0  0  0  0  0  0  0
   -5.5120   23.7380  -30.9320 C   0  0  0  0  0  0  0  0  0  0  0  0
   -6.8110   23.3900  -31.3030 C   0  0  0  0  0  0  0  0  0  0  0  0
   -6.7280   22.0920  -31.7540 C   0  0  0  0  0  0  0  0  0  0  0  0
   -7.7180   21.2530  -32.2580 C   0  0  0  0  0  0  0  0  0  0  0  0
   -7.3460   19.9560  -32.6490 C   0  0  0  0  0  0  0  0  0  0  0  0
   -6.0050   19.5180  -32.5110 C   0  0  0  0  0  0  0  0  0  0  0  0
   -5.6120   18.1420  -32.9650 C   0  0  0  0  0  0  0  0  0  0  0  0
   -5.3790   18.1350  -34.7310 Cl  0  0  0  0  0  0  0  0  0  0  0  0
   -5.0240   20.4010  -32.0050 C   0  0  0  0  0  0  0  0  0  0  0  0
   -5.4200   21.6930  -31.6420 C   0  0  0  0  0  0  0  0  0  0  0  0
   -4.6610   22.6910  -31.1360 N   0  0  0  0  0  0  0  0  0  0  0  0
   -3.2580   22.6230  -30.8470 C   0  0  0  0  0  0  0  0  0  0  0  0
   -2.7090   23.5320  -30.1650 O   0  0  0  0  0  0  0  0  0  0  0  0
   -2.5100   21.5310  -31.3020 O   0  0  0  0  0  0  0  0  0  0  0  0
   -1.0890   21.4690  -31.2320 C   0  0  0  0  0  0  0  0  0  0  0  0
   -0.6330   20.0230  -30.9910 C   0  0  0  0  0  0  0  0  0  0  0  0
   -0.5970   19.6590  -29.5000 C   0  0  0  0  0  0  0  0  0  0  0  0
   -0.4640   20.8800  -28.6370 C   0  0  0  0  0  0  0  0  0  0  0  0
    0.6090   21.0750  -28.0020 O   0  0  0  0  0  0  0  0  0  0  0  0
   -1.5630   21.7890  -28.4980 N   0  0  0  0  0  0  0  0  0  0  0  0
   -1.5300   22.8820  -27.5270 C   0  0  0  0  0  0  0  0  0  0  0  0
   -0.6020   24.0140  -27.9880 C   0  0  0  0  0  0  0  0  0  0  0  0
   -1.3170   25.3720  -28.0090 C   0  0  0  0  0  0  0  0  0  0  0  0
   -1.2320   25.9400  -29.2860 O   0  0  0  0  0  0  0  0  0  0  0  0
   -2.9830   25.3010  -30.4720 H   0  0  0  0  0  0  0  0  0  0  0  0
   -7.7112   24.0196  -31.2470 H   0  0  0  0  0  0  0  0  0  0  0  0
   -8.7596   21.5952  -32.3473 H   0  0  0  0  0  0  0  0  0  0  0  0
   -8.1020   19.2743  -33.0659 H   0  0  0  0  0  0  0  0  0  0  0  0
   -4.6739   17.8483  -32.4714 H   0  0  0  0  0  0  0  0  0  0  0  0
   -6.4078   17.4303  -32.7001 H   0  0  0  0  0  0  0  0  0  0  0  0
   -3.9769   20.0809  -31.8994 H   0  0  0  0  0  0  0  0  0  0  0  0
   -0.6623   21.8316  -32.1788 H   0  0  0  0  0  0  0  0  0  0  0  0
   -0.7427   22.0983  -30.3989 H   0  0  0  0  0  0  0  0  0  0  0  0
   -1.3297   19.3433  -31.5034 H   0  0  0  0  0  0  0  0  0  0  0  0
    0.3898   19.9251  -31.3839 H   0  0  0  0  0  0  0  0  0  0  0  0
   -1.5284   19.1359  -29.2375 H   0  0  0  0  0  0  0  0  0  0  0  0
    0.2776   19.0156  -29.3236 H   0  0  0  0  0  0  0  0  0  0  0  0
   -2.4040   21.6500  -29.1050 H   0  0  0  0  0  0  0  0  0  0  0  0
   -2.5474   23.2815  -27.4033 H   0  0  0  0  0  0  0  0  0  0  0  0
   -1.1468   22.4870  -26.5746 H   0  0  0  0  0  0  0  0  0  0  0  0
    0.2539   24.0740  -27.2996 H   0  0  0  0  0  0  0  0  0  0  0  0
   -0.2735   23.7874  -29.0131 H   0  0  0  0  0  0  0  0  0  0  0  0
   -2.3750   25.2304  -27.7433 H   0  0  0  0  0  0  0  0  0  0  0  0
   -0.8358   26.0439  -27.2830 H   0  0  0  0  0  0  0  0  0  0  0  0
   -2.0580   25.6760  -29.7710 H   0  0  0  0  0  0  0  0  0  0  0  0
  1  2  1  0
  2  3  2  0
  2  4  1  0
  4  5  2  0
  5  6  1  0
  6  7  2  0
  7  8  1  0
  8  9  2  0
  9 10  1  0
 10 11  1  0
  9 12  1  0
 12 13  2  0
 13 14  1  0
 14 15  1  0
 15 16  2  0
 15 17  1  0
 17 18  1  0
 18 19  1  0
 19 20  1  0
 20 21  1  0
 21 22  2  0
 21 23  1  0
 23 24  1  0
 24 25  1  0
 25 26  1  0
 26 27  1  0
 14  4  1  0
 13  6  1  0
  1 28  1  0
  5 29  1  0
  7 30  1  0
  8 31  1  0
 10 32  1  0
 10 33  1  0
 12 34  1  0
 18 35  1  0
 18 36  1  0
 19 37  1  0
 19 38  1  0
 20 39  1  0
 20 40  1  0
 23 41  1  0
 24 42  1  0
 24 43  1  0
 25 44  1  0
 25 45  1  0
 26 46  1  0
 26 47  1  0
 27 48  1  0
M  CHG  1   1  -1
M  END
>  <UniqueID>  (22) 
22

>  <SMILES>  (22) 
[NH-]C(=O)c1cc2ccc(CCl)cc2n1C(=O)OCCCC(=O)NCCCO

>  <Energy>  (22) 
72.97491204544156

>  <Genealogy>  (22) 
[NH-]C(=O)c1cc2ccc(CCl)cc2n1C(=O)OCCCC(=O)NCCCO (protonated)
[NH-]C(=O)c1cc2ccc(CCl)cc2n1C(=O)OCCCC(=O)NCCCO (3D coordinates assigned)
[NH-]C(=O)c1cc2ccc(CCl)cc2n1C(=O)OCCCC(=O)NCCCO (optimized conformer: 72.97491204544156 kcal/mol)

>  <smiles>  (22) 
NC(=O)c1cc2ccc(CCl)cc2n1C(=O)OCCCC(=O)NCCCO

>  <score_type>  (22) 
oracle

>  <origin>  (22) 
adg

>  <m_score__min__energy>  (22) 
-10.27

>  <m_primary>  (22) 
energy

$$$$
22:0
     RDKit          3D

 35 36  0  0  0  0  0  0  0  0999 V2000
   -4.2680   25.4200  -30.8260 N   0  0  0  0  0  0  0  0  0  0  0  0
   -5.6230   25.1900  -30.4460 C   0  0  0  0  0  0  0  0  0  0  0  0
   -6.2250   26.0540  -29.7560 O   0  0  0  0  0  0  0  0  0  0  0  0
   -6.2930   23.9320  -30.8350 C   0  0  0  0  0  0  0  0  0  0  0  0
   -7.6040   23.8690  -31.3050 C   0  0  0  0  0  0  0  0  0  0  0  0
   -7.8210   22.5430  -31.6070 C   0  0  0  0  0  0  0  0  0  0  0  0
   -8.9640   21.9080  -32.0810 C   0  0  0  0  0  0  0  0  0  0  0  0
   -8.9170   20.5160  -32.2610 C   0  0  0  0  0  0  0  0  0  0  0  0
   -7.7330   19.7850  -31.9770 C   0  0  0  0  0  0  0  0  0  0  0  0
   -7.7150   18.2850  -32.1100 C   0  0  0  0  0  0  0  0  0  0  0  0
   -9.0030   17.8000  -31.9770 F   0  0  0  0  0  0  0  0  0  0  0  0
   -7.2170   17.9090  -33.3460 F   0  0  0  0  0  0  0  0  0  0  0  0
   -6.9160   17.7180  -31.1310 F   0  0  0  0  0  0  0  0  0  0  0  0
   -6.6010   20.4670  -31.4760 C   0  0  0  0  0  0  0  0  0  0  0  0
   -6.6700   21.8550  -31.3210 C   0  0  0  0  0  0  0  0  0  0  0  0
   -5.7220   22.6940  -30.8460 N   0  0  0  0  0  0  0  0  0  0  0  0
   -4.4190   22.3250  -30.3640 C   0  0  0  0  0  0  0  0  0  0  0  0
   -4.2190   22.2410  -29.1240 O   0  0  0  0  0  0  0  0  0  0  0  0
   -3.3110   22.0970  -31.3120 C   0  0  0  0  0  0  0  0  0  0  0  0
   -3.5800   21.9850  -32.5370 O   0  0  0  0  0  0  0  0  0  0  0  0
   -1.9390   22.0200  -30.9070 N   0  0  0  0  0  0  0  0  0  0  0  0
   -1.3410   21.8900  -29.2820 S   0  0  0  0  0  0  0  0  0  0  0  0
   -2.0320   20.7260  -28.6290 O   0  0  0  0  0  0  0  0  0  0  0  0
    0.1370   21.6170  -29.2910 O   0  0  0  0  0  0  0  0  0  0  0  0
   -1.7410   23.3590  -28.3370 C   0  0  0  0  0  0  0  0  0  0  0  0
   -0.9310   24.5400  -28.7670 C   0  0  0  0  0  0  0  0  0  0  0  0
    0.3160   24.5510  -28.5920 O   0  0  0  0  0  0  0  0  0  0  0  0
   -1.5530   25.6430  -29.3400 O   0  0  0  0  0  0  0  0  0  0  0  0
   -3.5470   25.6760  -30.1160 H   0  0  0  0  0  0  0  0  0  0  0  0
   -8.3145   24.7019  -31.4120 H   0  0  0  0  0  0  0  0  0  0  0  0
   -9.8767   22.4785  -32.3079 H   0  0  0  0  0  0  0  0  0  0  0  0
   -9.8084   19.9852  -32.6265 H   0  0  0  0  0  0  0  0  0  0  0  0
   -5.6850   19.9175  -31.2135 H   0  0  0  0  0  0  0  0  0  0  0  0
   -2.8074   23.5906  -28.4752 H   0  0  0  0  0  0  0  0  0  0  0  0
   -1.5113   23.1562  -27.2806 H   0  0  0  0  0  0  0  0  0  0  0  0
  1  2  1  0
  2  3  2  0
  2  4  1  0
  4  5  2  0
  5  6  1  0
  6  7  2  0
  7  8  1  0
  8  9  2  0
  9 10  1  0
 10 11  1  0
 10 12  1  0
 10 13  1  0
  9 14  1  0
 14 15  2  0
 15 16  1  0
 16 17  1  0
 17 18  2  0
 17 19  1  0
 19 20  2  0
 19 21  1  0
 21 22  1  0
 22 23  2  0
 22 24  2  0
 22 25  1  0
 25 26  1  0
 26 27  2  0
 26 28  1  0
 16  4  1  0
 15  6  1  0
  1 29  1  0
  5 30  1  0
  7 31  1  0
  8 32  1  0
 14 33  1  0
 25 34  1  0
 25 35  1  0
M  CHG  3   1  -1  21  -1  28  -1
M  END
>  <UniqueID>  (23) 
23

>  <SMILES>  (23) 
[NH-]C(=O)c1cc2ccc(C(F)(F)F)cc2n1C(=O)C(=O)[N-]S(=O)(=O)CC(=O)[O-]

>  <Energy>  (23) 
75.81092678433622

>  <Genealogy>  (23) 
[NH-]C(=O)c1cc2ccc(C(F)(F)F)cc2n1C(=O)C(=O)[N-]S(=O)(=O)CC(=O)[O-] (protonated)
[NH-]C(=O)c1cc2ccc(C(F)(F)F)cc2n1C(=O)C(=O)[N-]S(=O)(=O)CC(=O)[O-] (3D coordinates assigned)
[NH-]C(=O)c1cc2ccc(C(F)(F)F)cc2n1C(=O)C(=O)[N-]S(=O)(=O)CC(=O)[O-] (optimized conformer: 75.81092678433622 kcal/mol)

>  <smiles>  (23) 
NC(=O)c1cc2ccc(C(F)(F)F)cc2n1C(=O)C(=O)NS(=O)(=O)CC(=O)O

>  <score_type>  (23) 
oracle

>  <origin>  (23) 
adg

>  <m_score__min__energy>  (23) 
-12.83

>  <m_primary>  (23) 
energy

$$$$
23:0
     RDKit          3D

 42 43  0  0  0  0  0  0  0  0999 V2000
   -1.5530   19.0580  -34.0670 C   0  0  0  0  0  0  0  0  0  0  0  0
   -3.0830   19.5840  -33.3220 S   0  0  0  0  0  0  0  0  0  0  0  0
   -2.9150   19.6470  -31.8310 O   0  0  0  0  0  0  0  0  0  0  0  0
   -3.4330   20.9520  -33.8370 O   0  0  0  0  0  0  0  0  0  0  0  0
   -4.4030   18.4530  -33.7370 C   0  0  0  0  0  0  0  0  0  0  0  0
   -5.1260   17.9630  -32.4800 C   0  0  0  0  0  0  0  0  0  0  0  0
   -6.6280   18.2500  -32.5630 C   0  0  0  0  0  0  0  0  0  0  0  0
   -6.9150   19.6740  -32.1720 C   0  0  0  0  0  0  0  0  0  0  0  0
   -8.2350   20.1830  -32.2510 C   0  0  0  0  0  0  0  0  0  0  0  0
   -8.5100   21.5190  -31.9120 C   0  0  0  0  0  0  0  0  0  0  0  0
   -7.4440   22.3230  -31.5200 C   0  0  0  0  0  0  0  0  0  0  0  0
   -7.4270   23.6410  -31.1200 C   0  0  0  0  0  0  0  0  0  0  0  0
   -6.0900   23.9260  -30.8380 C   0  0  0  0  0  0  0  0  0  0  0  0
   -5.5860   25.2540  -30.4170 C   0  0  0  0  0  0  0  0  0  0  0  0
   -4.2290   25.6340  -30.6540 N   0  0  0  0  0  0  0  0  0  0  0  0
   -6.3510   26.0630  -29.8300 O   0  0  0  0  0  0  0  0  0  0  0  0
   -5.3160   22.8280  -31.0630 N   0  0  0  0  0  0  0  0  0  0  0  0
   -3.9010   22.7010  -30.8580 C   0  0  0  0  0  0  0  0  0  0  0  0
   -3.1520   22.4130  -31.8300 O   0  0  0  0  0  0  0  0  0  0  0  0
   -3.3100   22.8550  -29.4890 C   0  0  0  0  0  0  0  0  0  0  0  0
   -2.1430   23.7860  -29.5380 C   0  0  0  0  0  0  0  0  0  0  0  0
   -0.9870   23.3420  -29.7650 O   0  0  0  0  0  0  0  0  0  0  0  0
   -2.3370   25.1530  -29.3830 O   0  0  0  0  0  0  0  0  0  0  0  0
   -6.1570   21.8550  -31.4710 C   0  0  0  0  0  0  0  0  0  0  0  0
   -5.8580   20.5240  -31.7800 C   0  0  0  0  0  0  0  0  0  0  0  0
   -0.8278   18.8087  -33.2783 H   0  0  0  0  0  0  0  0  0  0  0  0
   -1.7351   18.1709  -34.6914 H   0  0  0  0  0  0  0  0  0  0  0  0
   -1.1511   19.8696  -34.6914 H   0  0  0  0  0  0  0  0  0  0  0  0
   -5.1246   18.9671  -34.3889 H   0  0  0  0  0  0  0  0  0  0  0  0
   -3.9683   17.5830  -34.2509 H   0  0  0  0  0  0  0  0  0  0  0  0
   -4.9723   16.8787  -32.3763 H   0  0  0  0  0  0  0  0  0  0  0  0
   -4.7153   18.4957  -31.6097 H   0  0  0  0  0  0  0  0  0  0  0  0
   -6.9723   18.0814  -33.5940 H   0  0  0  0  0  0  0  0  0  0  0  0
   -7.1572   17.5778  -31.8716 H   0  0  0  0  0  0  0  0  0  0  0  0
   -9.0530   19.5257  -32.5811 H   0  0  0  0  0  0  0  0  0  0  0  0
   -9.5349   21.9163  -31.9552 H   0  0  0  0  0  0  0  0  0  0  0  0
   -8.2853   24.3242  -31.0398 H   0  0  0  0  0  0  0  0  0  0  0  0
   -3.5770   25.0270  -31.1970 H   0  0  0  0  0  0  0  0  0  0  0  0
   -3.8770   26.5560  -30.3130 H   0  0  0  0  0  0  0  0  0  0  0  0
   -4.0716   23.2611  -28.8071 H   0  0  0  0  0  0  0  0  0  0  0  0
   -2.9727   21.8719  -29.1287 H   0  0  0  0  0  0  0  0  0  0  0  0
   -4.8257   20.1491  -31.7192 H   0  0  0  0  0  0  0  0  0  0  0  0
  1  2  1  0
  2  3  2  0
  2  4  2  0
  2  5  1  0
  5  6  1  0
  6  7  1  0
  7  8  1  0
  8  9  2  0
  9 10  1  0
 10 11  2  0
 11 12  1  0
 12 13  2  0
 13 14  1  0
 14 15  1  0
 14 16  2  0
 13 17  1  0
 17 18  1  0
 18 19  2  0
 18 20  1  0
 20 21  1  0
 21 22  2  0
 21 23  1  0
 17 24  1  0
 24 25  2  0
 25  8  1  0
 24 11  1  0
  1 26  1  0
  1 27  1  0
  1 28  1  0
  5 29  1  0
  5 30  1  0
  6 31  1  0
  6 32  1  0
  7 33  1  0
  7 34  1  0
  9 35  1  0
 10 36  1  0
 12 37  1  0
 15 38  1  0
 15 39  1  0
 20 40  1  0
 20 41  1  0
 25 42  1  0
M  CHG  1  23  -1
M  END
>  <UniqueID>  (24) 
24

>  <SMILES>  (24) 
CS(=O)(=O)CCCc1ccc2cc(C(N)=O)n(C(=O)CC(=O)[O-])c2c1

>  <Energy>  (24) 
66.74557881985584

>  <Genealogy>  (24) 
CS(=O)(=O)CCCc1ccc2cc(C(N)=O)n(C(=O)CC(=O)[O-])c2c1 (protonated)
CS(=O)(=O)CCCc1ccc2cc(C(N)=O)n(C(=O)CC(=O)[O-])c2c1 (3D coordinates assigned)
CS(=O)(=O)CCCc1ccc2cc(C(N)=O)n(C(=O)CC(=O)[O-])c2c1 (optimized conformer: 66.74557881985584 kcal/mol)

>  <smiles>  (24) 
CS(=O)(=O)CCCc1ccc2cc(C(N)=O)n(C(=O)CC(=O)O)c2c1

>  <score_type>  (24) 
oracle

>  <origin>  (24) 
adg

>  <m_score__min__energy>  (24) 
-10.51

>  <m_primary>  (24) 
energy

$$$$
24:0
     RDKit          3D

 44 45  0  0  0  0  0  0  0  0999 V2000
   -6.9940   18.4190  -32.5320 C   0  0  0  0  0  0  0  0  0  0  0  0
   -7.1380   19.8590  -32.1390 C   0  0  0  0  0  0  0  0  0  0  0  0
   -8.3880   20.5110  -32.2790 C   0  0  0  0  0  0  0  0  0  0  0  0
   -8.5270   21.8710  -31.9520 C   0  0  0  0  0  0  0  0  0  0  0  0
   -7.3960   22.5550  -31.5120 C   0  0  0  0  0  0  0  0  0  0  0  0
   -7.2460   23.8710  -31.1360 C   0  0  0  0  0  0  0  0  0  0  0  0
   -5.8980   24.0090  -30.8010 C   0  0  0  0  0  0  0  0  0  0  0  0
   -5.2780   25.2880  -30.3920 C   0  0  0  0  0  0  0  0  0  0  0  0
   -3.9290   25.5720  -30.7560 N   0  0  0  0  0  0  0  0  0  0  0  0
   -5.9260   26.1320  -29.7170 O   0  0  0  0  0  0  0  0  0  0  0  0
   -5.2450   22.8250  -30.9670 N   0  0  0  0  0  0  0  0  0  0  0  0
   -3.8460   22.5660  -30.7780 C   0  0  0  0  0  0  0  0  0  0  0  0
   -2.9980   23.1370  -31.5160 O   0  0  0  0  0  0  0  0  0  0  0  0
   -3.3930   21.5560  -29.7670 C   0  0  0  0  0  0  0  0  0  0  0  0
   -2.9510   22.2570  -28.5180 C   0  0  0  0  0  0  0  0  0  0  0  0
   -2.8540   21.6030  -27.4470 O   0  0  0  0  0  0  0  0  0  0  0  0
   -2.6850   23.6760  -28.5510 N   0  0  0  0  0  0  0  0  0  0  0  0
   -2.2230   24.4860  -27.4050 C   0  0  0  0  0  0  0  0  0  0  0  0
   -3.4310   24.9480  -26.5610 C   0  0  0  0  0  0  0  0  0  0  0  0
   -1.2500   23.6580  -26.5370 C   0  0  0  0  0  0  0  0  0  0  0  0
   -1.4830   25.7320  -27.9530 C   0  0  0  0  0  0  0  0  0  0  0  0
   -1.3180   25.6590  -29.3450 O   0  0  0  0  0  0  0  0  0  0  0  0
   -6.1750   21.9440  -31.3990 C   0  0  0  0  0  0  0  0  0  0  0  0
   -6.0100   20.5880  -31.7000 C   0  0  0  0  0  0  0  0  0  0  0  0
   -6.9317   17.7965  -31.6273 H   0  0  0  0  0  0  0  0  0  0  0  0
   -7.8660   18.1128  -33.1285 H   0  0  0  0  0  0  0  0  0  0  0  0
   -6.0786   18.2915  -33.1285 H   0  0  0  0  0  0  0  0  0  0  0  0
   -9.2581   19.9476  -32.6471 H   0  0  0  0  0  0  0  0  0  0  0  0
   -9.4985   22.3793  -32.0408 H   0  0  0  0  0  0  0  0  0  0  0  0
   -8.0235   24.6486  -31.1060 H   0  0  0  0  0  0  0  0  0  0  0  0
   -3.1390   25.0050  -30.3730 H   0  0  0  0  0  0  0  0  0  0  0  0
   -4.2251   20.8765  -29.5304 H   0  0  0  0  0  0  0  0  0  0  0  0
   -2.5518   20.9792  -30.1790 H   0  0  0  0  0  0  0  0  0  0  0  0
   -2.8320   24.1560  -29.4700 H   0  0  0  0  0  0  0  0  0  0  0  0
   -3.1884   24.8552  -25.4921 H   0  0  0  0  0  0  0  0  0  0  0  0
   -3.6617   25.9978  -26.7949 H   0  0  0  0  0  0  0  0  0  0  0  0
   -4.3033   24.3200  -26.7949 H   0  0  0  0  0  0  0  0  0  0  0  0
   -1.4629   23.8392  -25.4731 H   0  0  0  0  0  0  0  0  0  0  0  0
   -1.3792   22.5886  -26.7599 H   0  0  0  0  0  0  0  0  0  0  0  0
   -0.2150   23.9566  -26.7599 H   0  0  0  0  0  0  0  0  0  0  0  0
   -2.0672   26.6314  -27.7086 H   0  0  0  0  0  0  0  0  0  0  0  0
   -0.4869   25.7751  -27.4883 H   0  0  0  0  0  0  0  0  0  0  0  0
   -2.2340   25.6790  -29.7310 H   0  0  0  0  0  0  0  0  0  0  0  0
   -5.0284   20.1022  -31.5977 H   0  0  0  0  0  0  0  0  0  0  0  0
  1  2  1  0
  2  3  2  0
  3  4  1  0
  4  5  2  0
  5  6  1  0
  6  7  2  0
  7  8  1  0
  8  9  1  0
  8 10  2  0
  7 11  1  0
 11 12  1  0
 12 13  2  0
 12 14  1  0
 14 15  1  0
 15 16  2  0
 15 17  1  0
 17 18  1  0
 18 19  1  0
 18 20  1  0
 18 21  1  0
 21 22  1  0
 11 23  1  0
 23 24  2  0
 24  2  1  0
 23  5  1  0
  1 25  1  0
  1 26  1  0
  1 27  1  0
  3 28  1  0
  4 29  1  0
  6 30  1  0
  9 31  1  0
 14 32  1  0
 14 33  1  0
 17 34  1  0
 19 35  1  0
 19 36  1  0
 19 37  1  0
 20 38  1  0
 20 39  1  0
 20 40  1  0
 21 41  1  0
 21 42  1  0
 22 43  1  0
 24 44  1  0
M  CHG  1   9  -1
M  END
>  <UniqueID>  (25) 
25

>  <SMILES>  (25) 
Cc1ccc2cc(C([NH-])=O)n(C(=O)CC(=O)NC(C)(C)CO)c2c1

>  <Energy>  (25) 
74.72906383078107

>  <Genealogy>  (25) 
Cc1ccc2cc(C([NH-])=O)n(C(=O)CC(=O)NC(C)(C)CO)c2c1 (protonated)
Cc1ccc2cc(C([NH-])=O)n(C(=O)CC(=O)NC(C)(C)CO)c2c1 (3D coordinates assigned)
Cc1ccc2cc(C([NH-])=O)n(C(=O)CC(=O)NC(C)(C)CO)c2c1 (optimized conformer: 74.72906383078107 kcal/mol)

>  <smiles>  (25) 
Cc1ccc2cc(C(N)=O)n(C(=O)CC(=O)NC(C)(C)CO)c2c1

>  <score_type>  (25) 
oracle

>  <origin>  (25) 
adg

>  <m_score__min__energy>  (25) 
-10.99

>  <m_primary>  (25) 
energy

$$$$
25:0
     RDKit          3D

 43 44  0  0  0  0  0  0  0  0999 V2000
   -5.6100   17.1240  -32.3020 C   0  0  0  0  0  0  0  0  0  0  0  0
   -6.3850   17.0310  -33.6260 C   0  0  0  0  0  0  0  0  0  0  0  0
   -5.5390   17.6710  -34.7430 C   0  0  0  0  0  0  0  0  0  0  0  0
   -6.6630   15.5480  -33.9360 C   0  0  0  0  0  0  0  0  0  0  0  0
   -7.6150   17.7490  -33.4480 O   0  0  0  0  0  0  0  0  0  0  0  0
   -7.8900   18.6910  -32.4460 C   0  0  0  0  0  0  0  0  0  0  0  0
   -8.1150   18.3320  -31.2580 O   0  0  0  0  0  0  0  0  0  0  0  0
   -7.9030   20.0780  -32.7900 N   0  0  0  0  0  0  0  0  0  0  0  0
   -6.7540   20.9620  -32.6230 C   0  0  0  0  0  0  0  0  0  0  0  0
   -5.4870   20.3050  -33.1760 C   0  0  0  0  0  0  0  0  0  0  0  0
   -4.2760   20.7710  -32.4140 C   0  0  0  0  0  0  0  0  0  0  0  0
   -3.0970   19.9860  -32.4070 C   0  0  0  0  0  0  0  0  0  0  0  0
   -1.9530   20.4190  -31.7170 C   0  0  0  0  0  0  0  0  0  0  0  0
   -2.0120   21.6450  -31.0600 C   0  0  0  0  0  0  0  0  0  0  0  0
   -1.0610   22.2910  -30.3050 C   0  0  0  0  0  0  0  0  0  0  0  0
   -1.6600   23.4770  -29.8890 C   0  0  0  0  0  0  0  0  0  0  0  0
   -0.9520   24.5180  -29.1160 C   0  0  0  0  0  0  0  0  0  0  0  0
   -1.5520   25.7980  -28.9330 N   0  0  0  0  0  0  0  0  0  0  0  0
    0.1630   24.2790  -28.5820 O   0  0  0  0  0  0  0  0  0  0  0  0
   -2.9370   23.5610  -30.3650 N   0  0  0  0  0  0  0  0  0  0  0  0
   -3.9070   24.5910  -30.1150 C   0  0  0  0  0  0  0  0  0  0  0  0
   -3.8690   25.6710  -30.7610 O   0  0  0  0  0  0  0  0  0  0  0  0
   -4.8820   24.4150  -29.1420 O   0  0  0  0  0  0  0  0  0  0  0  0
   -3.1360   22.4310  -31.0810 C   0  0  0  0  0  0  0  0  0  0  0  0
   -4.2950   22.0150  -31.7460 C   0  0  0  0  0  0  0  0  0  0  0  0
   -6.3121   17.0397  -31.4594 H   0  0  0  0  0  0  0  0  0  0  0  0
   -4.8746   16.3077  -32.2495 H   0  0  0  0  0  0  0  0  0  0  0  0
   -5.0886   18.0912  -32.2495 H   0  0  0  0  0  0  0  0  0  0  0  0
   -4.7379   18.2770  -34.2947 H   0  0  0  0  0  0  0  0  0  0  0  0
   -5.0956   16.8802  -35.3660 H   0  0  0  0  0  0  0  0  0  0  0  0
   -6.1794   18.3128  -35.3660 H   0  0  0  0  0  0  0  0  0  0  0  0
   -6.7676   14.9898  -32.9939 H   0  0  0  0  0  0  0  0  0  0  0  0
   -7.5927   15.4630  -34.5177 H   0  0  0  0  0  0  0  0  0  0  0  0
   -5.8272   15.1321  -34.5177 H   0  0  0  0  0  0  0  0  0  0  0  0
   -6.9393   21.9023  -33.1629 H   0  0  0  0  0  0  0  0  0  0  0  0
   -6.6120   21.1619  -31.5507 H   0  0  0  0  0  0  0  0  0  0  0  0
   -5.5753   19.2126  -33.0824 H   0  0  0  0  0  0  0  0  0  0  0  0
   -5.3724   20.5870  -34.2330 H   0  0  0  0  0  0  0  0  0  0  0  0
   -3.0773   19.0280  -32.9472 H   0  0  0  0  0  0  0  0  0  0  0  0
   -1.0384   19.8082  -31.6963 H   0  0  0  0  0  0  0  0  0  0  0  0
   -0.0422   21.9439  -30.0778 H   0  0  0  0  0  0  0  0  0  0  0  0
   -2.5900   25.9130  -28.9630 H   0  0  0  0  0  0  0  0  0  0  0  0
   -5.1989   22.6419  -31.7483 H   0  0  0  0  0  0  0  0  0  0  0  0
  1  2  1  0
  2  3  1  0
  2  4  1  0
  2  5  1  0
  5  6  1  0
  6  7  2  0
  6  8  1  0
  8  9  1  0
  9 10  1  0
 10 11  1  0
 11 12  2  0
 12 13  1  0
 13 14  2  0
 14 15  1  0
 15 16  2  0
 16 17  1  0
 17 18  1  0
 17 19  2  0
 16 20  1  0
 20 21  1  0
 21 22  2  0
 21 23  1  0
 20 24  1  0
 24 25  2  0
 25 11  1  0
 24 14  1  0
  1 26  1  0
  1 27  1  0
  1 28  1  0
  3 29  1  0
  3 30  1  0
  3 31  1  0
  4 32  1  0
  4 33  1  0
  4 34  1  0
  9 35  1  0
  9 36  1  0
 10 37  1  0
 10 38  1  0
 12 39  1  0
 13 40  1  0
 15 41  1  0
 18 42  1  0
 25 43  1  0
M  CHG  3   8  -1  18  -1  23  -1
M  END
>  <UniqueID>  (26) 
26

>  <SMILES>  (26) 
CC(C)(C)OC(=O)[N-]CCc1ccc2cc(C([NH-])=O)n(C(=O)[O-])c2c1

>  <Energy>  (26) 
73.23414090324621

>  <Genealogy>  (26) 
CC(C)(C)OC(=O)[N-]CCc1ccc2cc(C([NH-])=O)n(C(=O)[O-])c2c1 (protonated)
CC(C)(C)OC(=O)[N-]CCc1ccc2cc(C([NH-])=O)n(C(=O)[O-])c2c1 (3D coordinates assigned)
CC(C)(C)OC(=O)[N-]CCc1ccc2cc(C([NH-])=O)n(C(=O)[O-])c2c1 (optimized conformer: 73.23414090324621 kcal/mol)

>  <smiles>  (26) 
CC(C)(C)OC(=O)NCCc1ccc2cc(C(N)=O)n(C(=O)O)c2c1

>  <score_type>  (26) 
oracle

>  <origin>  (26) 
adg

>  <m_score__min__energy>  (26) 
-11.31

>  <m_primary>  (26) 
energy

$$$$
26:0
     RDKit          3D

 46 48  0  0  0  0  0  0  0  0999 V2000
   -3.8640   25.5200  -30.8710 N   0  0  0  0  0  0  0  0  0  0  0  0
   -5.2010   25.2760  -30.4430 C   0  0  0  0  0  0  0  0  0  0  0  0
   -5.7840   26.1290  -29.7230 O   0  0  0  0  0  0  0  0  0  0  0  0
   -5.9290   24.0660  -30.8790 C   0  0  0  0  0  0  0  0  0  0  0  0
   -7.3150   23.9390  -30.8090 C   0  0  0  0  0  0  0  0  0  0  0  0
   -7.5980   22.7230  -31.3870 C   0  0  0  0  0  0  0  0  0  0  0  0
   -8.8180   22.0840  -31.5740 C   0  0  0  0  0  0  0  0  0  0  0  0
   -8.8150   20.8140  -32.1730 C   0  0  0  0  0  0  0  0  0  0  0  0
   -7.5960   20.1960  -32.5700 C   0  0  0  0  0  0  0  0  0  0  0  0
   -7.5460   18.8850  -33.1810 N   0  0  0  0  0  0  0  0  0  0  0  0
   -6.3590   18.0560  -33.4480 C   0  0  1  0  0  0  0  0  0  0  0  0
   -5.5290   18.5630  -34.6000 C   0  0  0  0  0  0  0  0  0  0  0  0
   -4.1110   18.4040  -34.0910 C   0  0  0  0  0  0  0  0  0  0  0  0
   -4.1220   18.4270  -32.6840 O   0  0  0  0  0  0  0  0  0  0  0  0
   -5.3930   17.9780  -32.2700 C   0  0  0  0  0  0  0  0  0  0  0  0
   -6.3790   20.8850  -32.3580 C   0  0  0  0  0  0  0  0  0  0  0  0
   -6.4140   22.1570  -31.7770 C   0  0  0  0  0  0  0  0  0  0  0  0
   -5.3780   22.9680  -31.4690 N   0  0  0  0  0  0  0  0  0  0  0  0
   -3.9830   22.6720  -31.6390 C   0  0  0  0  0  0  0  0  0  0  0  0
   -3.5680   22.2020  -32.7330 O   0  0  0  0  0  0  0  0  0  0  0  0
   -3.0940   22.8860  -30.5790 O   0  0  0  0  0  0  0  0  0  0  0  0
   -1.8810   22.1560  -30.4260 C   0  0  0  0  0  0  0  0  0  0  0  0
   -0.9580   22.9320  -29.6900 O   0  0  0  0  0  0  0  0  0  0  0  0
   -1.4120   23.1160  -28.3620 C   0  0  0  0  0  0  0  0  0  0  0  0
   -2.0470   24.4950  -28.2080 C   0  0  0  0  0  0  0  0  0  0  0  0
   -1.7670   25.2700  -29.3390 O   0  0  0  0  0  0  0  0  0  0  0  0
   -3.1170   24.8020  -30.7350 H   0  0  0  0  0  0  0  0  0  0  0  0
   -8.0302   24.6577  -30.3826 H   0  0  0  0  0  0  0  0  0  0  0  0
   -9.7593   22.5597  -31.2616 H   0  0  0  0  0  0  0  0  0  0  0  0
   -9.7678   20.2896  -32.3376 H   0  0  0  0  0  0  0  0  0  0  0  0
   -8.4580   18.4600  -33.4640 H   0  0  0  0  0  0  0  0  0  0  0  0
   -6.7973   17.0713  -33.6680 H   0  0  0  0  0  0  0  0  0  0  0  0
   -5.6952   17.9584  -35.5038 H   0  0  0  0  0  0  0  0  0  0  0  0
   -5.7732   19.5955  -34.8902 H   0  0  0  0  0  0  0  0  0  0  0  0
   -3.6993   17.4457  -34.4406 H   0  0  0  0  0  0  0  0  0  0  0  0
   -3.4865   19.2262  -34.4704 H   0  0  0  0  0  0  0  0  0  0  0  0
   -5.3203   16.9371  -31.9217 H   0  0  0  0  0  0  0  0  0  0  0  0
   -5.7595   18.6106  -31.4481 H   0  0  0  0  0  0  0  0  0  0  0  0
   -5.4206   20.4280  -32.6454 H   0  0  0  0  0  0  0  0  0  0  0  0
   -2.0824   21.2174  -29.8889 H   0  0  0  0  0  0  0  0  0  0  0  0
   -1.4618   21.9267  -31.4168 H   0  0  0  0  0  0  0  0  0  0  0  0
   -2.1580   22.3438  -28.1228 H   0  0  0  0  0  0  0  0  0  0  0  0
   -0.5558   23.0367  -27.6759 H   0  0  0  0  0  0  0  0  0  0  0  0
   -3.1362   24.3863  -28.0992 H   0  0  0  0  0  0  0  0  0  0  0  0
   -1.6352   24.9891  -27.3157 H   0  0  0  0  0  0  0  0  0  0  0  0
   -2.0000   24.7080  -30.1230 H   0  0  0  0  0  0  0  0  0  0  0  0
  1  2  1  0
  2  3  2  0
  2  4  1  0
  4  5  2  0
  5  6  1  0
  6  7  2  0
  7  8  1  0
  8  9  2  0
  9 10  1  0
 10 11  1  0
 11 12  1  0
 12 13  1  0
 13 14  1  0
 14 15  1  0
  9 16  1  0
 16 17  2  0
 17 18  1  0
 18 19  1  0
 19 20  2  0
 19 21  1  0
 21 22  1  0
 22 23  1  0
 23 24  1  0
 24 25  1  0
 25 26  1  0
 18  4  1  0
 17  6  1  0
 15 11  1  0
  1 27  1  0
  5 28  1  0
  7 29  1  0
  8 30  1  0
 10 31  1  0
 11 32  1  6
 12 33  1  0
 12 34  1  0
 13 35  1  0
 13 36  1  0
 15 37  1  0
 15 38  1  0
 16 39  1  0
 22 40  1  0
 22 41  1  0
 24 42  1  0
 24 43  1  0
 25 44  1  0
 25 45  1  0
 26 46  1  0
M  CHG  1   1  -1
M  END
>  <UniqueID>  (27) 
27

>  <SMILES>  (27) 
[NH-]C(=O)c1cc2ccc(N[C@H]3CCOC3)cc2n1C(=O)OCOCCO

>  <Energy>  (27) 
88.52862767554633

>  <Genealogy>  (27) 
[NH-]C(=O)c1cc2ccc(NC3CCOC3)cc2n1C(=O)OCOCCO (protonated)
[NH-]C(=O)c1cc2ccc(N[C@H]3CCOC3)cc2n1C(=O)OCOCCO (chirality)
[NH-]C(=O)c1cc2ccc(N[C@H]3CCOC3)cc2n1C(=O)OCOCCO (3D coordinates assigned)
[NH-]C(=O)c1cc2ccc(N[C@H]3CCOC3)cc2n1C(=O)OCOCCO (nonaromatic ring conformer: 88.52862767554633 kcal/mol)

>  <smiles>  (27) 
NC(=O)c1cc2ccc(NC3CCOC3)cc2n1C(=O)OCOCCO

>  <score_type>  (27) 
oracle

>  <origin>  (27) 
adg

>  <m_score__min__energy>  (27) 
-11

>  <m_primary>  (27) 
energy

$$$$
27:0
     RDKit          3D

 33 34  0  0  0  0  0  0  0  0999 V2000
   -4.2800   25.6730  -30.8460 N   0  0  0  0  0  0  0  0  0  0  0  0
   -5.5930   25.2520  -30.4840 C   0  0  0  0  0  0  0  0  0  0  0  0
   -6.2980   25.9920  -29.7470 O   0  0  0  0  0  0  0  0  0  0  0  0
   -6.1280   23.9790  -31.0090 C   0  0  0  0  0  0  0  0  0  0  0  0
   -7.4880   23.6820  -31.0660 C   0  0  0  0  0  0  0  0  0  0  0  0
   -7.5600   22.3870  -31.5250 C   0  0  0  0  0  0  0  0  0  0  0  0
   -8.6710   21.5880  -31.7810 C   0  0  0  0  0  0  0  0  0  0  0  0
   -8.4500   20.2930  -32.2770 C   0  0  0  0  0  0  0  0  0  0  0  0
   -7.1340   19.8230  -32.5130 C   0  0  0  0  0  0  0  0  0  0  0  0
   -6.9030   18.4440  -33.0600 C   0  0  0  0  0  0  0  0  0  0  0  0
   -6.2900   17.6580  -32.1000 F   0  0  0  0  0  0  0  0  0  0  0  0
   -6.0910   18.5160  -34.1770 F   0  0  0  0  0  0  0  0  0  0  0  0
   -6.0310   20.6640  -32.2420 C   0  0  0  0  0  0  0  0  0  0  0  0
   -6.2800   21.9430  -31.7330 C   0  0  0  0  0  0  0  0  0  0  0  0
   -5.3870   22.9110  -31.4240 N   0  0  0  0  0  0  0  0  0  0  0  0
   -3.9620   22.8370  -31.5860 C   0  0  0  0  0  0  0  0  0  0  0  0
   -3.4700   22.1640  -32.5310 O   0  0  0  0  0  0  0  0  0  0  0  0
   -3.1060   23.5540  -30.6960 N   0  0  0  0  0  0  0  0  0  0  0  0
   -3.1660   23.3500  -28.9790 S   0  0  0  0  0  0  0  0  0  0  0  0
   -3.7820   22.0190  -28.6470 O   0  0  0  0  0  0  0  0  0  0  0  0
   -3.9820   24.4540  -28.3680 O   0  0  0  0  0  0  0  0  0  0  0  0
   -1.5110   23.4210  -28.3200 C   0  0  0  0  0  0  0  0  0  0  0  0
   -0.8970   24.7500  -28.6160 C   0  0  0  0  0  0  0  0  0  0  0  0
   -1.5240   25.5990  -29.3020 O   0  0  0  0  0  0  0  0  0  0  0  0
    0.3880   25.0360  -28.1730 O   0  0  0  0  0  0  0  0  0  0  0  0
   -3.4960   25.6360  -30.1580 H   0  0  0  0  0  0  0  0  0  0  0  0
   -8.3264   24.3427  -30.8004 H   0  0  0  0  0  0  0  0  0  0  0  0
   -9.6904   21.9596  -31.6003 H   0  0  0  0  0  0  0  0  0  0  0  0
   -9.3076   19.6362  -32.4846 H   0  0  0  0  0  0  0  0  0  0  0  0
   -7.8705   17.9995  -33.3363 H   0  0  0  0  0  0  0  0  0  0  0  0
   -5.0022   20.3214  -32.4267 H   0  0  0  0  0  0  0  0  0  0  0  0
   -1.5464   23.2711  -27.2308 H   0  0  0  0  0  0  0  0  0  0  0  0
   -0.9035   22.6318  -28.7870 H   0  0  0  0  0  0  0  0  0  0  0  0
  1  2  1  0
  2  3  2  0
  2  4  1  0
  4  5  2  0
  5  6  1  0
  6  7  2  0
  7  8  1  0
  8  9  2  0
  9 10  1  0
 10 11  1  0
 10 12  1  0
  9 13  1  0
 13 14  2  0
 14 15  1  0
 15 16  1  0
 16 17  2  0
 16 18  1  0
 18 19  1  0
 19 20  2  0
 19 21  2  0
 19 22  1  0
 22 23  1  0
 23 24  2  0
 23 25  1  0
 15  4  1  0
 14  6  1  0
  1 26  1  0
  5 27  1  0
  7 28  1  0
  8 29  1  0
 10 30  1  0
 13 31  1  0
 22 32  1  0
 22 33  1  0
M  CHG  3   1  -1  18  -1  25  -1
M  END
>  <UniqueID>  (28) 
28

>  <SMILES>  (28) 
[NH-]C(=O)c1cc2ccc(C(F)F)cc2n1C(=O)[N-]S(=O)(=O)CC(=O)[O-]

>  <Energy>  (28) 
68.41132820323968

>  <Genealogy>  (28) 
[NH-]C(=O)c1cc2ccc(C(F)F)cc2n1C(=O)[N-]S(=O)(=O)CC(=O)[O-] (protonated)
[NH-]C(=O)c1cc2ccc(C(F)F)cc2n1C(=O)[N-]S(=O)(=O)CC(=O)[O-] (3D coordinates assigned)
[NH-]C(=O)c1cc2ccc(C(F)F)cc2n1C(=O)[N-]S(=O)(=O)CC(=O)[O-] (optimized conformer: 68.41132820323968 kcal/mol)

>  <smiles>  (28) 
NC(=O)c1cc2ccc(C(F)F)cc2n1C(=O)NS(=O)(=O)CC(=O)O

>  <score_type>  (28) 
oracle

>  <origin>  (28) 
adg

>  <m_score__min__energy>  (28) 
-12.85

>  <m_primary>  (28) 
energy

$$$$
28:0
     RDKit          3D

 44 46  0  0  0  0  0  0  0  0999 V2000
    0.1970   20.0170  -33.5690 C   0  0  0  0  0  0  0  0  0  0  0  0
   -1.1260   20.2180  -34.1800 N   0  0  0  0  0  0  0  0  0  0  0  0
   -1.9020   18.9680  -34.2080 C   0  0  0  0  0  0  0  0  0  0  0  0
   -3.3300   19.3200  -33.8440 C   0  0  0  0  0  0  0  0  0  0  0  0
   -3.1970   20.5320  -32.9380 C   0  0  1  0  0  0  0  0  0  0  0  0
   -3.0670   20.1500  -31.4460 C   0  0  0  0  0  0  0  0  0  0  0  0
   -3.3960   21.2810  -30.5750 N   0  0  0  0  0  0  0  0  0  0  0  0
   -3.0890   21.1220  -28.8620 Cl  0  0  0  0  0  0  0  0  0  0  0  0
   -3.9000   22.5250  -31.0960 C   0  0  0  0  0  0  0  0  0  0  0  0
   -3.1050   23.4030  -31.5260 O   0  0  0  0  0  0  0  0  0  0  0  0
   -5.3070   22.7990  -31.0920 N   0  0  0  0  0  0  0  0  0  0  0  0
   -5.9350   23.9680  -30.7880 C   0  0  0  0  0  0  0  0  0  0  0  0
   -5.2780   25.2060  -30.3170 C   0  0  0  0  0  0  0  0  0  0  0  0
   -4.0260   25.6230  -30.8540 N   0  0  0  0  0  0  0  0  0  0  0  0
   -5.8220   25.8970  -29.4140 O   0  0  0  0  0  0  0  0  0  0  0  0
   -7.3140   23.8290  -30.9370 C   0  0  0  0  0  0  0  0  0  0  0  0
   -7.5090   22.5240  -31.3380 C   0  0  0  0  0  0  0  0  0  0  0  0
   -8.6840   21.8370  -31.6240 C   0  0  0  0  0  0  0  0  0  0  0  0
   -8.5810   20.4930  -32.0200 C   0  0  0  0  0  0  0  0  0  0  0  0
   -7.3120   19.8660  -32.1420 C   0  0  0  0  0  0  0  0  0  0  0  0
   -7.2180   18.4110  -32.5230 C   0  0  0  0  0  0  0  0  0  0  0  0
   -8.4450   17.7860  -32.3780 F   0  0  0  0  0  0  0  0  0  0  0  0
   -6.3010   17.7550  -31.7200 F   0  0  0  0  0  0  0  0  0  0  0  0
   -6.8140   18.3110  -33.8420 F   0  0  0  0  0  0  0  0  0  0  0  0
   -6.1430   20.5930  -31.8160 C   0  0  0  0  0  0  0  0  0  0  0  0
   -6.2810   21.9260  -31.4200 C   0  0  0  0  0  0  0  0  0  0  0  0
   -1.9240   21.2150  -33.4440 C   0  0  0  0  0  0  0  0  0  0  0  0
    0.1009   20.0316  -32.4733 H   0  0  0  0  0  0  0  0  0  0  0  0
    0.6048   19.0466  -33.8884 H   0  0  0  0  0  0  0  0  0  0  0  0
    0.8746   20.8225  -33.8884 H   0  0  0  0  0  0  0  0  0  0  0  0
   -1.8676   18.5253  -35.2144 H   0  0  0  0  0  0  0  0  0  0  0  0
   -1.4877   18.2348  -33.5004 H   0  0  0  0  0  0  0  0  0  0  0  0
   -3.9120   19.5679  -34.7439 H   0  0  0  0  0  0  0  0  0  0  0  0
   -3.8579   18.4867  -33.3573 H   0  0  0  0  0  0  0  0  0  0  0  0
   -4.0878   21.1761  -32.9792 H   0  0  0  0  0  0  0  0  0  0  0  0
   -3.7536   19.3187  -31.2281 H   0  0  0  0  0  0  0  0  0  0  0  0
   -2.0248   19.8557  -31.2531 H   0  0  0  0  0  0  0  0  0  0  0  0
   -3.1260   25.2820  -30.4480 H   0  0  0  0  0  0  0  0  0  0  0  0
   -8.0834   24.5972  -30.7701 H   0  0  0  0  0  0  0  0  0  0  0  0
   -9.6636   22.3307  -31.5427 H   0  0  0  0  0  0  0  0  0  0  0  0
   -9.4938   19.9193  -32.2382 H   0  0  0  0  0  0  0  0  0  0  0  0
   -5.1510   20.1211  -31.8728 H   0  0  0  0  0  0  0  0  0  0  0  0
   -2.1889   22.0470  -34.1131 H   0  0  0  0  0  0  0  0  0  0  0  0
   -1.3456   21.6140  -32.5977 H   0  0  0  0  0  0  0  0  0  0  0  0
  1  2  1  0
  2  3  1  0
  3  4  1  0
  4  5  1  0
  5  6  1  0
  6  7  1  0
  7  8  1  0
  7  9  1  0
  9 10  2  0
  9 11  1  0
 11 12  1  0
 12 13  1  0
 13 14  1  0
 13 15  2  0
 12 16  2  0
 16 17  1  0
 17 18  2  0
 18 19  1  0
 19 20  2  0
 20 21  1  0
 21 22  1  0
 21 23  1  0
 21 24  1  0
 20 25  1  0
 25 26  2  0
  5 27  1  0
 27  2  1  0
 26 11  1  0
 26 17  1  0
  1 28  1  0
  1 29  1  0
  1 30  1  0
  3 31  1  0
  3 32  1  0
  4 33  1  0
  4 34  1  0
  5 35  1  1
  6 36  1  0
  6 37  1  0
 14 38  1  0
 16 39  1  0
 18 40  1  0
 19 41  1  0
 25 42  1  0
 27 43  1  0
 27 44  1  0
M  CHG  1  14  -1
M  END
>  <UniqueID>  (29) 
29

>  <SMILES>  (29) 
CN1CC[C@@H](CN(Cl)C(=O)n2c(C([NH-])=O)cc3ccc(C(F)(F)F)cc32)C1

>  <Energy>  (29) 
86.31515530747923

>  <Genealogy>  (29) 
CN1CC[C@@H](CN(Cl)C(=O)n2c(C([NH-])=O)cc3ccc(C(F)(F)F)cc32)C1 (protonated)
CN1CC[C@@H](CN(Cl)C(=O)n2c(C([NH-])=O)cc3ccc(C(F)(F)F)cc32)C1 (3D coordinates assigned)
CN1CC[C@@H](CN(Cl)C(=O)n2c(C([NH-])=O)cc3ccc(C(F)(F)F)cc32)C1 (nonaromatic ring conformer: 86.31515530747923 kcal/mol)

>  <smiles>  (29) 
CN1CC[C@@H](CN(Cl)C(=O)n2c(C(N)=O)cc3ccc(C(F)(F)F)cc32)C1

>  <score_type>  (29) 
oracle

>  <origin>  (29) 
adg

>  <m_score__min__energy>  (29) 
-11.43

>  <m_primary>  (29) 
energy

$$$$
29:0
     RDKit          3D

 49 50  0  0  0  0  0  0  0  0999 V2000
   -0.8200   26.7730  -24.1080 C   0  0  0  0  0  0  0  0  0  0  0  0
   -0.5020   27.0210  -25.5240 N   0  0  0  0  0  0  0  0  0  0  0  0
   -0.7540   28.4380  -25.8390 C   0  0  0  0  0  0  0  0  0  0  0  0
   -1.3070   26.1300  -26.3900 C   0  0  0  0  0  0  0  0  0  0  0  0
   -0.8900   26.2630  -27.8550 C   0  0  0  0  0  0  0  0  0  0  0  0
   -1.8760   25.6680  -28.6930 O   0  0  0  0  0  0  0  0  0  0  0  0
   -2.5280   24.4770  -28.3630 C   0  0  0  0  0  0  0  0  0  0  0  0
   -3.5170   24.4790  -27.5810 O   0  0  0  0  0  0  0  0  0  0  0  0
   -2.0720   23.1960  -28.9850 C   0  0  0  0  0  0  0  0  0  0  0  0
   -3.2640   22.2930  -29.2830 C   0  0  0  0  0  0  0  0  0  0  0  0
   -3.1290   21.7520  -30.5920 O   0  0  0  0  0  0  0  0  0  0  0  0
   -3.9930   22.0810  -31.6410 C   0  0  0  0  0  0  0  0  0  0  0  0
   -3.5370   22.2670  -32.8020 O   0  0  0  0  0  0  0  0  0  0  0  0
   -5.4030   22.2010  -31.3950 N   0  0  0  0  0  0  0  0  0  0  0  0
   -6.0720   23.2860  -30.9130 C   0  0  0  0  0  0  0  0  0  0  0  0
   -5.4550   24.5200  -30.3860 C   0  0  0  0  0  0  0  0  0  0  0  0
   -5.4840   24.8240  -28.9900 N   0  0  0  0  0  0  0  0  0  0  0  0
   -4.9420   25.3460  -31.1860 O   0  0  0  0  0  0  0  0  0  0  0  0
   -7.4460   23.0650  -30.9280 C   0  0  0  0  0  0  0  0  0  0  0  0
   -7.6030   21.7920  -31.4260 C   0  0  0  0  0  0  0  0  0  0  0  0
   -8.7650   21.0640  -31.6670 C   0  0  0  0  0  0  0  0  0  0  0  0
   -8.6330   19.7800  -32.2210 C   0  0  0  0  0  0  0  0  0  0  0  0
   -7.3550   19.2530  -32.5310 C   0  0  0  0  0  0  0  0  0  0  0  0
   -7.2400   17.8850  -33.1390 C   0  0  0  0  0  0  0  0  0  0  0  0
   -6.6470   17.0220  -32.2350 F   0  0  0  0  0  0  0  0  0  0  0  0
   -6.4690   17.9470  -34.2860 F   0  0  0  0  0  0  0  0  0  0  0  0
   -6.1980   20.0230  -32.2770 C   0  0  0  0  0  0  0  0  0  0  0  0
   -6.3560   21.2920  -31.7030 C   0  0  0  0  0  0  0  0  0  0  0  0
   -0.1127   27.3246  -23.4713 H   0  0  0  0  0  0  0  0  0  0  0  0
   -1.8448   27.1128  -23.8974 H   0  0  0  0  0  0  0  0  0  0  0  0
   -0.7401   25.6963  -23.8974 H   0  0  0  0  0  0  0  0  0  0  0  0
   -0.8555   29.0090  -24.9043 H   0  0  0  0  0  0  0  0  0  0  0  0
    0.0870   28.8388  -26.4240 H   0  0  0  0  0  0  0  0  0  0  0  0
   -1.6816   28.5242  -26.4240 H   0  0  0  0  0  0  0  0  0  0  0  0
   -1.1612   25.0883  -26.0681 H   0  0  0  0  0  0  0  0  0  0  0  0
   -2.3649   26.4178  -26.3002 H   0  0  0  0  0  0  0  0  0  0  0  0
   -0.7881   27.3281  -28.1105 H   0  0  0  0  0  0  0  0  0  0  0  0
    0.0721   25.7518  -28.0067 H   0  0  0  0  0  0  0  0  0  0  0  0
   -1.5423   23.4176  -29.9232 H   0  0  0  0  0  0  0  0  0  0  0  0
   -1.4007   22.6791  -28.2835 H   0  0  0  0  0  0  0  0  0  0  0  0
   -3.2974   21.4745  -28.5489 H   0  0  0  0  0  0  0  0  0  0  0  0
   -4.1937   22.8776  -29.2202 H   0  0  0  0  0  0  0  0  0  0  0  0
   -6.0450   24.2500  -28.3240 H   0  0  0  0  0  0  0  0  0  0  0  0
   -5.0060   25.6800  -28.6310 H   0  0  0  0  0  0  0  0  0  0  0  0
   -8.2374   23.7596  -30.6097 H   0  0  0  0  0  0  0  0  0  0  0  0
   -9.7551   21.4811  -31.4310 H   0  0  0  0  0  0  0  0  0  0  0  0
   -9.5320   19.1769  -32.4163 H   0  0  0  0  0  0  0  0  0  0  0  0
   -8.2454   17.5178  -33.3926 H   0  0  0  0  0  0  0  0  0  0  0  0
   -5.1982   19.6363  -32.5235 H   0  0  0  0  0  0  0  0  0  0  0  0
  1  2  1  0
  2  3  1  0
  2  4  1  0
  4  5  1  0
  5  6  1  0
  6  7  1  0
  7  8  2  0
  7  9  1  0
  9 10  1  0
 10 11  1  0
 11 12  1  0
 12 13  2  0
 12 14  1  0
 14 15  1  0
 15 16  1  0
 16 17  1  0
 16 18  2  0
 15 19  2  0
 19 20  1  0
 20 21  2  0
 21 22  1  0
 22 23  2  0
 23 24  1  0
 24 25  1  0
 24 26  1  0
 23 27  1  0
 27 28  2  0
 28 14  1  0
 28 20  1  0
  1 29  1  0
  1 30  1  0
  1 31  1  0
  3 32  1  0
  3 33  1  0
  3 34  1  0
  4 35  1  0
  4 36  1  0
  5 37  1  0
  5 38  1  0
  9 39  1  0
  9 40  1  0
 10 41  1  0
 10 42  1  0
 17 43  1  0
 17 44  1  0
 19 45  1  0
 21 46  1  0
 22 47  1  0
 24 48  1  0
 27 49  1  0
M  END
>  <UniqueID>  (30) 
30

>  <SMILES>  (30) 
CN(C)CCOC(=O)CCOC(=O)n1c(C(N)=O)cc2ccc(C(F)F)cc21

>  <Energy>  (30) 
78.34400056920614

>  <Genealogy>  (30) 
CN(C)CCOC(=O)CCOC(=O)n1c(C(N)=O)cc2ccc(C(F)F)cc21 (3D coordinates assigned)
CN(C)CCOC(=O)CCOC(=O)n1c(C(N)=O)cc2ccc(C(F)F)cc21 (optimized conformer: 78.34400056920614 kcal/mol)

>  <smiles>  (30) 
CN(C)CCOC(=O)CCOC(=O)n1c(C(N)=O)cc2ccc(C(F)F)cc21

>  <score_type>  (30) 
oracle

>  <origin>  (30) 
adg

>  <m_score__min__energy>  (30) 
-8.6699999999999999

>  <m_primary>  (30) 
energy

$$$$
30:0
     RDKit          3D

 36 37  0  0  0  0  0  0  0  0999 V2000
    3.1210   23.3090  -35.8060 C   0  0  0  0  0  0  0  0  0  0  0  0
    2.6400   21.9320  -35.9350 N   0  0  0  0  0  0  0  0  0  0  0  0
    3.2060   21.0710  -36.9400 C   0  0  0  0  0  0  0  0  0  0  0  0
    2.9520   19.8360  -36.9400 O   0  0  0  0  0  0  0  0  0  0  0  0
    4.0610   21.5820  -37.9090 O   0  0  0  0  0  0  0  0  0  0  0  0
    1.4520   21.5450  -35.2250 C   0  0  0  0  0  0  0  0  0  0  0  0
    0.4540   22.3150  -35.2240 O   0  0  0  0  0  0  0  0  0  0  0  0
    1.3920   20.2790  -34.4650 C   0  0  0  0  0  0  0  0  0  0  0  0
    2.4060   19.8720  -33.8380 O   0  0  0  0  0  0  0  0  0  0  0  0
    0.1810   19.5070  -34.4230 N   0  0  0  0  0  0  0  0  0  0  0  0
   -0.0120   18.2510  -34.9140 C   0  0  0  0  0  0  0  0  0  0  0  0
    0.9490   17.4910  -35.7370 C   0  0  0  0  0  0  0  0  0  0  0  0
    2.3510   17.7540  -35.6700 N   0  0  0  0  0  0  0  0  0  0  0  0
    0.5230   16.6240  -36.5440 O   0  0  0  0  0  0  0  0  0  0  0  0
   -1.2600   17.7630  -34.5340 C   0  0  0  0  0  0  0  0  0  0  0  0
   -1.8320   18.7680  -33.7850 C   0  0  0  0  0  0  0  0  0  0  0  0
   -3.0570   18.8080  -33.1250 C   0  0  0  0  0  0  0  0  0  0  0  0
   -3.3620   19.9550  -32.3730 C   0  0  0  0  0  0  0  0  0  0  0  0
   -2.4360   21.0210  -32.2850 C   0  0  0  0  0  0  0  0  0  0  0  0
   -2.7510   22.1820  -31.4960 C   0  0  0  0  0  0  0  0  0  0  0  0
   -3.0140   23.1560  -30.8360 C   0  0  0  0  0  0  0  0  0  0  0  0
   -3.4000   24.5770  -29.8700 P   0  0  0  0  0  0  0  0  0  0  0  0
   -4.2230   24.1640  -28.6720 O   0  0  0  0  0  0  0  0  0  0  0  0
   -1.9670   25.3060  -29.3460 O   0  0  0  0  0  0  0  0  0  0  0  0
   -4.2800   25.6730  -30.8090 O   0  0  0  0  0  0  0  0  0  0  0  0
   -1.2010   20.9470  -32.9600 C   0  0  0  0  0  0  0  0  0  0  0  0
   -0.9360   19.8060  -33.7250 C   0  0  0  0  0  0  0  0  0  0  0  0
    3.2113   23.5676  -34.7406 H   0  0  0  0  0  0  0  0  0  0  0  0
    4.1044   23.4008  -36.2902 H   0  0  0  0  0  0  0  0  0  0  0  0
    2.4086   23.9931  -36.2902 H   0  0  0  0  0  0  0  0  0  0  0  0
    3.0210   17.1620  -36.2120 H   0  0  0  0  0  0  0  0  0  0  0  0
    2.7200   18.5930  -35.1740 H   0  0  0  0  0  0  0  0  0  0  0  0
   -1.6962   16.7835  -34.7797 H   0  0  0  0  0  0  0  0  0  0  0  0
   -3.7641   17.9679  -33.1902 H   0  0  0  0  0  0  0  0  0  0  0  0
   -4.3269   20.0246  -31.8494 H   0  0  0  0  0  0  0  0  0  0  0  0
   -0.4667   21.7628  -32.8874 H   0  0  0  0  0  0  0  0  0  0  0  0
  1  2  1  0
  2  3  1  0
  3  4  2  0
  3  5  1  0
  2  6  1  0
  6  7  2  0
  6  8  1  0
  8  9  2  0
  8 10  1  0
 10 11  1  0
 11 12  1  0
 12 13  1  0
 12 14  2  0
 11 15  2  0
 15 16  1  0
 16 17  2  0
 17 18  1  0
 18 19  2  0
 19 20  1  0
 20 21  3  0
 21 22  1  0
 22 23  2  0
 22 24  1  0
 22 25  1  0
 19 26  1  0
 26 27  2  0
 27 10  1  0
 27 16  1  0
  1 28  1  0
  1 29  1  0
  1 30  1  0
 13 31  1  0
 13 32  1  0
 15 33  1  0
 17 34  1  0
 18 35  1  0
 26 36  1  0
M  CHG  3   5  -1  24  -1  25  -1
M  END
>  <UniqueID>  (31) 
31

>  <SMILES>  (31) 
CN(C(=O)[O-])C(=O)C(=O)n1c(C(N)=O)cc2ccc(C#CP(=O)([O-])[O-])cc21

>  <Energy>  (31) 
75.49548668290444

>  <Genealogy>  (31) 
CN(C(=O)[O-])C(=O)C(=O)n1c(C(N)=O)cc2ccc(C#CP(=O)([O-])[O-])cc21 (protonated)
CN(C(=O)[O-])C(=O)C(=O)n1c(C(N)=O)cc2ccc(C#CP(=O)([O-])[O-])cc21 (3D coordinates assigned)
CN(C(=O)[O-])C(=O)C(=O)n1c(C(N)=O)cc2ccc(C#CP(=O)([O-])[O-])cc21 (optimized conformer: 75.49548668290444 kcal/mol)

>  <smiles>  (31) 
CN(C(=O)O)C(=O)C(=O)n1c(C(N)=O)cc2ccc(C#CP(=O)(O)O)cc21

>  <score_type>  (31) 
oracle

>  <origin>  (31) 
adg

>  <m_score__min__energy>  (31) 
-11.720000000000001

>  <m_primary>  (31) 
energy

$$$$
31:0
     RDKit          3D

 40 42  0  0  0  0  0  0  0  0999 V2000
   -4.9760   13.4310  -34.3960 N   0  0  0  0  0  0  0  0  0  0  0  0
   -5.2410   14.5030  -34.0530 C   0  0  0  0  0  0  0  0  0  0  0  0
   -5.5730   15.8380  -33.6270 C   0  0  0  0  0  0  0  0  0  0  0  0
   -5.7980   16.8420  -34.5750 C   0  0  0  0  0  0  0  0  0  0  0  0
   -6.1190   18.1390  -34.1630 C   0  0  0  0  0  0  0  0  0  0  0  0
   -6.2210   18.4470  -32.7940 C   0  0  0  0  0  0  0  0  0  0  0  0
   -6.5650   19.8240  -32.3540 C   0  0  0  0  0  0  0  0  0  0  0  0
   -7.9120   20.2740  -32.3890 C   0  0  0  0  0  0  0  0  0  0  0  0
   -8.2490   21.5690  -31.9630 C   0  0  0  0  0  0  0  0  0  0  0  0
   -7.2250   22.3960  -31.5160 C   0  0  0  0  0  0  0  0  0  0  0  0
   -7.2760   23.6790  -31.0200 C   0  0  0  0  0  0  0  0  0  0  0  0
   -5.9580   24.0080  -30.7090 C   0  0  0  0  0  0  0  0  0  0  0  0
   -5.5450   25.3390  -30.2190 C   0  0  0  0  0  0  0  0  0  0  0  0
   -4.2440   25.8510  -30.4940 N   0  0  0  0  0  0  0  0  0  0  0  0
   -6.3700   26.0550  -29.5900 O   0  0  0  0  0  0  0  0  0  0  0  0
   -5.1260   22.9670  -30.9970 N   0  0  0  0  0  0  0  0  0  0  0  0
   -3.7180   22.8700  -30.7330 C   0  0  0  0  0  0  0  0  0  0  0  0
   -2.8910   23.0520  -31.6680 O   0  0  0  0  0  0  0  0  0  0  0  0
   -3.2730   22.5600  -29.4430 O   0  0  0  0  0  0  0  0  0  0  0  0
   -3.4950   23.3940  -28.3070 C   0  0  0  0  0  0  0  0  0  0  0  0
   -2.3550   24.3960  -28.1370 C   0  0  0  0  0  0  0  0  0  0  0  0
   -2.0750   25.0230  -29.3560 O   0  0  0  0  0  0  0  0  0  0  0  0
   -5.9170   21.9890  -31.4910 C   0  0  0  0  0  0  0  0  0  0  0  0
   -5.5530   20.6980  -31.8910 C   0  0  0  0  0  0  0  0  0  0  0  0
   -5.9950   17.4300  -31.8480 C   0  0  0  0  0  0  0  0  0  0  0  0
   -5.6720   16.1340  -32.2630 C   0  0  0  0  0  0  0  0  0  0  0  0
   -5.7221   16.6103  -35.6477 H   0  0  0  0  0  0  0  0  0  0  0  0
   -6.2929   18.9236  -34.9141 H   0  0  0  0  0  0  0  0  0  0  0  0
   -8.7007   19.5998  -32.7543 H   0  0  0  0  0  0  0  0  0  0  0  0
   -9.2918   21.9184  -31.9824 H   0  0  0  0  0  0  0  0  0  0  0  0
   -8.1679   24.3106  -30.8955 H   0  0  0  0  0  0  0  0  0  0  0  0
   -3.4890   25.2290  -30.8590 H   0  0  0  0  0  0  0  0  0  0  0  0
   -4.4394   23.9419  -28.4412 H   0  0  0  0  0  0  0  0  0  0  0  0
   -3.5434   22.7603  -27.4092 H   0  0  0  0  0  0  0  0  0  0  0  0
   -2.6466   25.1555  -27.3966 H   0  0  0  0  0  0  0  0  0  0  0  0
   -1.4566   23.8617  -27.7943 H   0  0  0  0  0  0  0  0  0  0  0  0
   -2.5880   24.5250  -30.0450 H   0  0  0  0  0  0  0  0  0  0  0  0
   -4.5039   20.3702  -31.8464 H   0  0  0  0  0  0  0  0  0  0  0  0
   -6.0729   17.6560  -30.7743 H   0  0  0  0  0  0  0  0  0  0  0  0
   -5.4955   15.3462  -31.5159 H   0  0  0  0  0  0  0  0  0  0  0  0
  1  2  3  0
  2  3  1  0
  3  4  2  0
  4  5  1  0
  5  6  2  0
  6  7  1  0
  7  8  2  0
  8  9  1  0
  9 10  2  0
 10 11  1  0
 11 12  2  0
 12 13  1  0
 13 14  1  0
 13 15  2  0
 12 16  1  0
 16 17  1  0
 17 18  2  0
 17 19  1  0
 19 20  1  0
 20 21  1  0
 21 22  1  0
 16 23  1  0
 23 24  2  0
  6 25  1  0
 25 26  2  0
 26  3  1  0
 24  7  1  0
 23 10  1  0
  4 27  1  0
  5 28  1  0
  8 29  1  0
  9 30  1  0
 11 31  1  0
 14 32  1  0
 20 33  1  0
 20 34  1  0
 21 35  1  0
 21 36  1  0
 22 37  1  0
 24 38  1  0
 25 39  1  0
 26 40  1  0
M  CHG  1  14  -1
M  END
>  <UniqueID>  (32) 
32

>  <SMILES>  (32) 
N#Cc1ccc(-c2ccc3cc(C([NH-])=O)n(C(=O)OCCO)c3c2)cc1

>  <Energy>  (32) 
82.85428825126068

>  <Genealogy>  (32) 
N#Cc1ccc(-c2ccc3cc(C([NH-])=O)n(C(=O)OCCO)c3c2)cc1 (protonated)
N#Cc1ccc(-c2ccc3cc(C([NH-])=O)n(C(=O)OCCO)c3c2)cc1 (3D coordinates assigned)
N#Cc1ccc(-c2ccc3cc(C([NH-])=O)n(C(=O)OCCO)c3c2)cc1 (optimized conformer: 82.85428825126068 kcal/mol)

>  <smiles>  (32) 
N#Cc1ccc(-c2ccc3cc(C(N)=O)n(C(=O)OCCO)c3c2)cc1

>  <score_type>  (32) 
oracle

>  <origin>  (32) 
adg

>  <m_score__min__energy>  (32) 
-11.56

>  <m_primary>  (32) 
energy

$$$$
32:0
     RDKit          3D

 46 49  0  0  0  0  0  0  0  0999 V2000
   -3.8430   25.2910  -30.5730 N   0  0  0  0  0  0  0  0  0  0  0  0
   -5.2430   25.0710  -30.4180 C   0  0  0  0  0  0  0  0  0  0  0  0
   -5.9590   25.9830  -29.9300 O   0  0  0  0  0  0  0  0  0  0  0  0
   -5.8340   23.7780  -30.8300 C   0  0  0  0  0  0  0  0  0  0  0  0
   -7.1800   23.6110  -31.1450 C   0  0  0  0  0  0  0  0  0  0  0  0
   -7.3150   22.2840  -31.4800 C   0  0  0  0  0  0  0  0  0  0  0  0
   -8.4340   21.5830  -31.9170 C   0  0  0  0  0  0  0  0  0  0  0  0
   -8.2750   20.2260  -32.2420 C   0  0  0  0  0  0  0  0  0  0  0  0
   -7.0100   19.5940  -32.1230 C   0  0  0  0  0  0  0  0  0  0  0  0
   -6.8380   18.1550  -32.5390 C   0  0  0  0  0  0  0  0  0  0  0  0
   -6.5140   18.0700  -33.8820 F   0  0  0  0  0  0  0  0  0  0  0  0
   -5.8230   17.5850  -31.7940 F   0  0  0  0  0  0  0  0  0  0  0  0
   -8.0060   17.4440  -32.3300 F   0  0  0  0  0  0  0  0  0  0  0  0
   -5.8920   20.3500  -31.7030 C   0  0  0  0  0  0  0  0  0  0  0  0
   -6.0840   21.6940  -31.3600 C   0  0  0  0  0  0  0  0  0  0  0  0
   -5.1670   22.5930  -30.9410 N   0  0  0  0  0  0  0  0  0  0  0  0
   -3.7610   22.3610  -30.7270 C   0  0  0  0  0  0  0  0  0  0  0  0
   -3.1990   21.4570  -31.4050 O   0  0  0  0  0  0  0  0  0  0  0  0
   -3.0250   23.0590  -29.6760 N   0  0  1  0  0  0  0  0  0  0  0  0
   -3.7670   23.1190  -28.3880 C   0  0  0  0  0  0  0  0  0  0  0  0
   -3.5250   21.8900  -27.4800 C   0  0  0  0  0  0  0  0  0  0  0  0
   -3.0300   20.7340  -28.2520 N   0  0  0  0  0  0  0  0  0  0  0  0
   -2.7370   19.5960  -27.3670 C   0  0  0  0  0  0  0  0  0  0  0  0
   -1.2310   19.5590  -27.1090 C   0  0  0  0  0  0  0  0  0  0  0  0
   -0.6360   20.6610  -27.9650 C   0  0  0  0  0  0  0  0  0  0  0  0
   -1.7560   21.0360  -28.9260 C   0  0  2  0  0  0  0  0  0  0  0  0
   -1.6770   22.4960  -29.4420 C   0  0  0  0  0  0  0  0  0  0  0  0
   -3.4850   26.0200  -31.2290 H   0  0  0  0  0  0  0  0  0  0  0  0
   -7.9683   24.3780  -31.1292 H   0  0  0  0  0  0  0  0  0  0  0  0
   -9.4132   22.0762  -32.0053 H   0  0  0  0  0  0  0  0  0  0  0  0
   -9.1413   19.6461  -32.5930 H   0  0  0  0  0  0  0  0  0  0  0  0
   -4.8932   19.8927  -31.6468 H   0  0  0  0  0  0  0  0  0  0  0  0
   -2.9020   24.0470  -29.9990 H   0  0  0  0  0  0  0  0  0  0  0  0
   -3.4497   24.0214  -27.8448 H   0  0  0  0  0  0  0  0  0  0  0  0
   -4.8394   23.1354  -28.6322 H   0  0  0  0  0  0  0  0  0  0  0  0
   -2.7806   22.1530  -26.7140 H   0  0  0  0  0  0  0  0  0  0  0  0
   -4.4827   21.6101  -27.0169 H   0  0  0  0  0  0  0  0  0  0  0  0
   -3.2739   19.7184  -26.4148 H   0  0  0  0  0  0  0  0  0  0  0  0
   -3.0622   18.6572  -27.8392 H   0  0  0  0  0  0  0  0  0  0  0  0
   -1.0202   19.7445  -26.0454 H   0  0  0  0  0  0  0  0  0  0  0  0
   -0.8022   18.5773  -27.3587 H   0  0  0  0  0  0  0  0  0  0  0  0
   -0.3486   21.5235  -27.3457 H   0  0  0  0  0  0  0  0  0  0  0  0
    0.2772   20.3407  -28.4879 H   0  0  0  0  0  0  0  0  0  0  0  0
   -1.6604   20.4398  -29.8454 H   0  0  0  0  0  0  0  0  0  0  0  0
   -1.1565   23.1123  -28.6942 H   0  0  0  0  0  0  0  0  0  0  0  0
   -1.1307   22.4969  -30.3968 H   0  0  0  0  0  0  0  0  0  0  0  0
  1  2  1  0
  2  3  2  0
  2  4  1  0
  4  5  2  0
  5  6  1  0
  6  7  2  0
  7  8  1  0
  8  9  2  0
  9 10  1  0
 10 11  1  0
 10 12  1  0
 10 13  1  0
  9 14  1  0
 14 15  2  0
 15 16  1  0
 16 17  1  0
 17 18  2  0
 17 19  1  0
 19 20  1  0
 20 21  1  0
 21 22  1  0
 22 23  1  0
 23 24  1  0
 24 25  1  0
 25 26  1  0
 26 27  1  0
 16  4  1  0
 27 19  1  0
 15  6  1  0
 26 22  1  0
  1 28  1  0
  5 29  1  0
  7 30  1  0
  8 31  1  0
 14 32  1  0
 19 33  1  6
 20 34  1  0
 20 35  1  0
 21 36  1  0
 21 37  1  0
 23 38  1  0
 23 39  1  0
 24 40  1  0
 24 41  1  0
 25 42  1  0
 25 43  1  0
 26 44  1  6
 27 45  1  0
 27 46  1  0
M  CHG  2   1  -1  19   1
M  END
>  <UniqueID>  (33) 
33

>  <SMILES>  (33) 
[NH-]C(=O)c1cc2ccc(C(F)(F)F)cc2n1C(=O)[N@H+]1CCN2CCC[C@@H]2C1

>  <Energy>  (33) 
105.47710701020516

>  <Genealogy>  (33) 
[NH-]C(=O)c1cc2ccc(C(F)(F)F)cc2n1C(=O)[NH+]1CCN2CCCC2C1 (protonated)
[NH-]C(=O)c1cc2ccc(C(F)(F)F)cc2n1C(=O)[N@H+]1CCN2CCC[C@@H]2C1 (chirality)
[NH-]C(=O)c1cc2ccc(C(F)(F)F)cc2n1C(=O)[N@H+]1CCN2CCC[C@@H]2C1 (3D coordinates assigned)
[NH-]C(=O)c1cc2ccc(C(F)(F)F)cc2n1C(=O)[N@H+]1CCN2CCC[C@@H]2C1 (nonaromatic ring conformer: 105.47710701020516 kcal/mol)

>  <smiles>  (33) 
NC(=O)c1cc2ccc(C(F)(F)F)cc2n1C(=O)N1CCN2CCCC2C1

>  <score_type>  (33) 
oracle

>  <origin>  (33) 
adg

>  <m_score__min__energy>  (33) 
-10.300000000000001

>  <m_primary>  (33) 
energy

$$$$
33:0
     RDKit          3D

 45 46  0  0  0  0  0  0  0  0999 V2000
   -2.2800   25.1750  -26.9420 C   0  0  0  0  0  0  0  0  0  0  0  0
   -1.1800   25.4240  -27.9670 C   0  0  0  0  0  0  0  0  0  0  0  0
   -1.3440   24.5690  -29.0970 O   0  0  0  0  0  0  0  0  0  0  0  0
   -1.1480   23.1830  -29.0480 C   0  0  0  0  0  0  0  0  0  0  0  0
   -1.4370   22.5260  -28.0110 O   0  0  0  0  0  0  0  0  0  0  0  0
   -0.6050   22.4750  -30.2490 C   0  0  0  0  0  0  0  0  0  0  0  0
   -1.6280   21.6000  -30.8360 N   0  0  0  0  0  0  0  0  0  0  0  0
   -1.2080   20.5280  -31.7470 C   0  0  0  0  0  0  0  0  0  0  0  0
   -0.6070   21.0990  -32.9580 C   0  0  0  0  0  0  0  0  0  0  0  0
   -0.1340   21.5500  -33.9130 N   0  0  0  0  0  0  0  0  0  0  0  0
   -3.0240   21.8760  -30.5820 C   0  0  0  0  0  0  0  0  0  0  0  0
   -3.4680   21.7640  -29.4070 O   0  0  0  0  0  0  0  0  0  0  0  0
   -3.9620   22.2760  -31.6570 C   0  0  0  0  0  0  0  0  0  0  0  0
   -3.5810   22.3200  -32.8560 O   0  0  0  0  0  0  0  0  0  0  0  0
   -5.3180   22.6240  -31.3440 N   0  0  0  0  0  0  0  0  0  0  0  0
   -5.7830   23.8330  -30.9240 C   0  0  0  0  0  0  0  0  0  0  0  0
   -4.9510   25.0010  -30.5690 C   0  0  0  0  0  0  0  0  0  0  0  0
   -3.6830   24.8470  -29.9280 N   0  0  0  0  0  0  0  0  0  0  0  0
   -5.3840   26.1610  -30.8000 O   0  0  0  0  0  0  0  0  0  0  0  0
   -7.1750   23.8330  -30.8770 C   0  0  0  0  0  0  0  0  0  0  0  0
   -7.5530   22.5740  -31.2870 C   0  0  0  0  0  0  0  0  0  0  0  0
   -8.8230   22.0300  -31.4550 C   0  0  0  0  0  0  0  0  0  0  0  0
   -8.9160   20.7150  -31.9430 C   0  0  0  0  0  0  0  0  0  0  0  0
   -7.7490   19.9840  -32.2750 C   0  0  0  0  0  0  0  0  0  0  0  0
   -7.8590   18.5730  -32.7760 C   0  0  0  0  0  0  0  0  0  0  0  0
   -6.7350   17.5280  -31.8750 Cl  0  0  0  0  0  0  0  0  0  0  0  0
   -6.4770   20.5690  -32.0870 C   0  0  0  0  0  0  0  0  0  0  0  0
   -6.4140   21.8670  -31.5730 C   0  0  0  0  0  0  0  0  0  0  0  0
   -1.8643   25.2691  -25.9279 H   0  0  0  0  0  0  0  0  0  0  0  0
   -3.0831   25.9141  -27.0791 H   0  0  0  0  0  0  0  0  0  0  0  0
   -2.6865   24.1621  -27.0791 H   0  0  0  0  0  0  0  0  0  0  0  0
   -1.2242   26.4723  -28.2974 H   0  0  0  0  0  0  0  0  0  0  0  0
   -0.2063   25.2128  -27.5008 H   0  0  0  0  0  0  0  0  0  0  0  0
   -0.2921   23.2185  -30.9969 H   0  0  0  0  0  0  0  0  0  0  0  0
    0.2547   21.8613  -29.9419 H   0  0  0  0  0  0  0  0  0  0  0  0
   -0.4689   19.8896  -31.2408 H   0  0  0  0  0  0  0  0  0  0  0  0
   -2.0880   19.9317  -32.0297 H   0  0  0  0  0  0  0  0  0  0  0  0
   -3.0860   25.6840  -29.7440 H   0  0  0  0  0  0  0  0  0  0  0  0
   -3.3810   23.9290  -29.5360 H   0  0  0  0  0  0  0  0  0  0  0  0
   -7.8324   24.6621  -30.5764 H   0  0  0  0  0  0  0  0  0  0  0  0
   -9.7255   22.6107  -31.2135 H   0  0  0  0  0  0  0  0  0  0  0  0
   -9.9046   20.2491  -32.0683 H   0  0  0  0  0  0  0  0  0  0  0  0
   -8.8884   18.2129  -32.6319 H   0  0  0  0  0  0  0  0  0  0  0  0
   -7.6045   18.5451  -33.8458 H   0  0  0  0  0  0  0  0  0  0  0  0
   -5.5595   20.0169  -32.3388 H   0  0  0  0  0  0  0  0  0  0  0  0
  1  2  1  0
  2  3  1  0
  3  4  1  0
  4  5  2  0
  4  6  1  0
  6  7  1  0
  7  8  1  0
  8  9  1  0
  9 10  3  0
  7 11  1  0
 11 12  2  0
 11 13  1  0
 13 14  2  0
 13 15  1  0
 15 16  1  0
 16 17  1  0
 17 18  1  0
 17 19  2  0
 16 20  2  0
 20 21  1  0
 21 22  2  0
 22 23  1  0
 23 24  2  0
 24 25  1  0
 25 26  1  0
 24 27  1  0
 27 28  2  0
 28 15  1  0
 28 21  1  0
  1 29  1  0
  1 30  1  0
  1 31  1  0
  2 32  1  0
  2 33  1  0
  6 34  1  0
  6 35  1  0
  8 36  1  0
  8 37  1  0
 18 38  1  0
 18 39  1  0
 20 40  1  0
 22 41  1  0
 23 42  1  0
 25 43  1  0
 25 44  1  0
 27 45  1  0
M  END
>  <UniqueID>  (34) 
34

>  <SMILES>  (34) 
CCOC(=O)CN(CC#N)C(=O)C(=O)n1c(C(N)=O)cc2ccc(CCl)cc21

>  <Energy>  (34) 
79.92050271794237

>  <Genealogy>  (34) 
CCOC(=O)CN(CC#N)C(=O)C(=O)n1c(C(N)=O)cc2ccc(CCl)cc21 (3D coordinates assigned)
CCOC(=O)CN(CC#N)C(=O)C(=O)n1c(C(N)=O)cc2ccc(CCl)cc21 (optimized conformer: 79.92050271794237 kcal/mol)

>  <smiles>  (34) 
CCOC(=O)CN(CC#N)C(=O)C(=O)n1c(C(N)=O)cc2ccc(CCl)cc21

>  <score_type>  (34) 
oracle

>  <origin>  (34) 
adg

>  <m_score__min__energy>  (34) 
-9.25

>  <m_primary>  (34) 
energy

$$$$
34:0
     RDKit          3D

 44 46  0  0  0  0  0  0  0  0999 V2000
   -2.5020   20.8950  -29.4130 C   0  0  0  0  0  0  0  0  0  0  0  0
   -3.2250   22.0140  -29.4660 C   0  0  0  0  0  0  0  0  0  0  0  0
   -3.7110   22.7770  -27.9590 Cl  0  0  0  0  0  0  0  0  0  0  0  0
   -3.6540   22.6110  -30.7490 C   0  0  0  0  0  0  0  0  0  0  0  0
   -2.7830   22.9600  -31.5900 O   0  0  0  0  0  0  0  0  0  0  0  0
   -5.0440   22.7920  -31.0640 N   0  0  0  0  0  0  0  0  0  0  0  0
   -5.7600   23.9500  -31.0400 C   0  0  0  0  0  0  0  0  0  0  0  0
   -5.2730   25.2600  -30.5560 C   0  0  0  0  0  0  0  0  0  0  0  0
   -3.9290   25.6740  -30.7870 N   0  0  0  0  0  0  0  0  0  0  0  0
   -6.0470   26.0140  -29.9100 O   0  0  0  0  0  0  0  0  0  0  0  0
   -7.0590   23.7290  -31.4970 C   0  0  0  0  0  0  0  0  0  0  0  0
   -7.1130   22.3880  -31.8090 C   0  0  0  0  0  0  0  0  0  0  0  0
   -8.1590   21.6250  -32.3180 C   0  0  0  0  0  0  0  0  0  0  0  0
   -7.9210   20.2620  -32.5640 C   0  0  0  0  0  0  0  0  0  0  0  0
   -6.6480   19.6900  -32.3080 C   0  0  0  0  0  0  0  0  0  0  0  0
   -6.4220   18.2920  -32.5640 N   0  0  0  0  0  0  0  0  0  0  0  0
   -6.5050   17.7610  -33.9280 C   0  0  0  0  0  0  0  0  0  0  0  0
   -5.4340   16.6870  -34.1390 C   0  0  0  0  0  0  0  0  0  0  0  0
   -5.4480   15.7200  -33.0300 N   0  0  0  0  0  0  0  0  0  0  0  0
   -5.1710   14.3200  -33.2590 C   0  0  0  0  0  0  0  0  0  0  0  0
   -5.4460   13.6690  -34.5800 C   0  0  0  0  0  0  0  0  0  0  0  0
   -4.6780   13.6150  -32.3360 O   0  0  0  0  0  0  0  0  0  0  0  0
   -5.3760   16.2620  -31.6640 C   0  0  0  0  0  0  0  0  0  0  0  0
   -6.4510   17.3290  -31.4580 C   0  0  0  0  0  0  0  0  0  0  0  0
   -5.6100   20.5010  -31.7930 C   0  0  0  0  0  0  0  0  0  0  0  0
   -5.8820   21.8490  -31.5430 C   0  0  0  0  0  0  0  0  0  0  0  0
   -2.1863   20.3996  -30.3430 H   0  0  0  0  0  0  0  0  0  0  0  0
   -2.2213   20.4672  -28.4393 H   0  0  0  0  0  0  0  0  0  0  0  0
   -3.1570   24.9740  -30.8680 H   0  0  0  0  0  0  0  0  0  0  0  0
   -7.8684   24.4682  -31.5888 H   0  0  0  0  0  0  0  0  0  0  0  0
   -9.1420   22.0747  -32.5216 H   0  0  0  0  0  0  0  0  0  0  0  0
   -8.7309   19.6314  -32.9595 H   0  0  0  0  0  0  0  0  0  0  0  0
   -7.4998   17.3193  -34.0869 H   0  0  0  0  0  0  0  0  0  0  0  0
   -6.3410   18.5795  -34.6443 H   0  0  0  0  0  0  0  0  0  0  0  0
   -5.6327   16.1582  -35.0829 H   0  0  0  0  0  0  0  0  0  0  0  0
   -4.4471   17.1714  -34.1761 H   0  0  0  0  0  0  0  0  0  0  0  0
   -5.8691   12.6673  -34.4141 H   0  0  0  0  0  0  0  0  0  0  0  0
   -6.1627   14.2804  -35.1479 H   0  0  0  0  0  0  0  0  0  0  0  0
   -4.5080   13.5814  -35.1479 H   0  0  0  0  0  0  0  0  0  0  0  0
   -5.5310   15.4469  -30.9418 H   0  0  0  0  0  0  0  0  0  0  0  0
   -4.3864   16.7178  -31.5121 H   0  0  0  0  0  0  0  0  0  0  0  0
   -7.4393   16.8475  -31.4203 H   0  0  0  0  0  0  0  0  0  0  0  0
   -6.2571   17.8586  -30.5136 H   0  0  0  0  0  0  0  0  0  0  0  0
   -4.6129   20.0811  -31.5941 H   0  0  0  0  0  0  0  0  0  0  0  0
  1  2  2  0
  2  3  1  0
  2  4  1  0
  4  5  2  0
  4  6  1  0
  6  7  1  0
  7  8  1  0
  8  9  1  0
  8 10  2  0
  7 11  2  0
 11 12  1  0
 12 13  2  0
 13 14  1  0
 14 15  2  0
 15 16  1  0
 16 17  1  0
 17 18  1  0
 18 19  1  0
 19 20  1  0
 20 21  1  0
 20 22  2  0
 19 23  1  0
 23 24  1  0
 15 25  1  0
 25 26  2  0
 26  6  1  0
 26 12  1  0
 24 16  1  0
  1 27  1  0
  1 28  1  0
  9 29  1  0
 11 30  1  0
 13 31  1  0
 14 32  1  0
 17 33  1  0
 17 34  1  0
 18 35  1  0
 18 36  1  0
 21 37  1  0
 21 38  1  0
 21 39  1  0
 23 40  1  0
 23 41  1  0
 24 42  1  0
 24 43  1  0
 25 44  1  0
M  CHG  1   9  -1
M  END
>  <UniqueID>  (35) 
35

>  <SMILES>  (35) 
C=C(Cl)C(=O)n1c(C([NH-])=O)cc2ccc(N3CCN(C(C)=O)CC3)cc21

>  <Energy>  (35) 
87.38611014934877

>  <Genealogy>  (35) 
C=C(Cl)C(=O)n1c(C([NH-])=O)cc2ccc(N3CCN(C(C)=O)CC3)cc21 (protonated)
C=C(Cl)C(=O)n1c(C([NH-])=O)cc2ccc(N3CCN(C(C)=O)CC3)cc21 (3D coordinates assigned)
C=C(Cl)C(=O)n1c(C([NH-])=O)cc2ccc(N3CCN(C(C)=O)CC3)cc21 (nonaromatic ring conformer: 87.38611014934877 kcal/mol)

>  <smiles>  (35) 
C=C(Cl)C(=O)n1c(C(N)=O)cc2ccc(N3CCN(C(C)=O)CC3)cc21

>  <score_type>  (35) 
oracle

>  <origin>  (35) 
adg

>  <m_score__min__energy>  (35) 
-11.08

>  <m_primary>  (35) 
energy

$$$$
35:0
     RDKit          3D

 44 45  0  0  0  0  0  0  0  0999 V2000
   -1.1540   25.9480  -28.2540 C   0  0  0  0  0  0  0  0  0  0  0  0
   -2.1040   25.2770  -29.0540 O   0  0  0  0  0  0  0  0  0  0  0  0
   -2.4650   24.0430  -28.4630 C   0  0  0  0  0  0  0  0  0  0  0  0
   -1.2490   23.1170  -28.3640 C   0  0  0  0  0  0  0  0  0  0  0  0
   -0.7760   22.7570  -29.6610 O   0  0  0  0  0  0  0  0  0  0  0  0
   -0.7980   21.4470  -30.1540 C   0  0  0  0  0  0  0  0  0  0  0  0
    0.0830   20.6130  -29.8100 O   0  0  0  0  0  0  0  0  0  0  0  0
   -1.8830   21.0280  -31.1030 C   0  0  0  0  0  0  0  0  0  0  0  0
   -3.2810   21.2330  -30.5080 C   0  0  0  0  0  0  0  0  0  0  0  0
   -3.9190   22.4970  -31.0150 C   0  0  0  0  0  0  0  0  0  0  0  0
   -3.1900   23.4670  -31.3610 O   0  0  0  0  0  0  0  0  0  0  0  0
   -5.3460   22.6490  -30.9980 N   0  0  0  0  0  0  0  0  0  0  0  0
   -6.0630   23.7550  -30.6540 C   0  0  0  0  0  0  0  0  0  0  0  0
   -5.5010   24.9700  -30.0240 C   0  0  0  0  0  0  0  0  0  0  0  0
   -4.2430   25.5030  -30.4460 N   0  0  0  0  0  0  0  0  0  0  0  0
   -6.1400   25.5600  -29.1130 O   0  0  0  0  0  0  0  0  0  0  0  0
   -7.4170   23.5590  -30.9270 C   0  0  0  0  0  0  0  0  0  0  0  0
   -7.5030   22.2910  -31.4550 C   0  0  0  0  0  0  0  0  0  0  0  0
   -8.6030   21.6010  -31.9570 C   0  0  0  0  0  0  0  0  0  0  0  0
   -8.3840   20.3270  -32.5090 C   0  0  0  0  0  0  0  0  0  0  0  0
   -7.0830   19.7660  -32.5380 C   0  0  0  0  0  0  0  0  0  0  0  0
   -6.8490   18.4360  -33.1930 C   0  0  0  0  0  0  0  0  0  0  0  0
   -6.4020   17.2330  -31.9590 Cl  0  0  0  0  0  0  0  0  0  0  0  0
   -5.9910   20.4970  -32.0220 C   0  0  0  0  0  0  0  0  0  0  0  0
   -6.2400   21.7610  -31.4790 C   0  0  0  0  0  0  0  0  0  0  0  0
   -1.3873   25.7832  -27.1917 H   0  0  0  0  0  0  0  0  0  0  0  0
   -0.1491   25.5582  -28.4734 H   0  0  0  0  0  0  0  0  0  0  0  0
   -1.1854   27.0254  -28.4734 H   0  0  0  0  0  0  0  0  0  0  0  0
   -2.8619   24.2278  -27.4539 H   0  0  0  0  0  0  0  0  0  0  0  0
   -3.2290   23.5596  -29.0895 H   0  0  0  0  0  0  0  0  0  0  0  0
   -0.4459   23.6343  -27.8186 H   0  0  0  0  0  0  0  0  0  0  0  0
   -1.5470   22.2014  -27.8321 H   0  0  0  0  0  0  0  0  0  0  0  0
   -1.7985   21.6240  -32.0237 H   0  0  0  0  0  0  0  0  0  0  0  0
   -1.7568   19.9549  -31.3091 H   0  0  0  0  0  0  0  0  0  0  0  0
   -3.9152   20.3776  -30.7838 H   0  0  0  0  0  0  0  0  0  0  0  0
   -3.1815   21.3123  -29.4154 H   0  0  0  0  0  0  0  0  0  0  0  0
   -3.6510   25.0130  -31.1520 H   0  0  0  0  0  0  0  0  0  0  0  0
   -3.8760   26.3800  -30.0130 H   0  0  0  0  0  0  0  0  0  0  0  0
   -8.2409   24.2675  -30.7564 H   0  0  0  0  0  0  0  0  0  0  0  0
   -9.6115   22.0389  -31.9228 H   0  0  0  0  0  0  0  0  0  0  0  0
   -9.2309   19.7598  -32.9226 H   0  0  0  0  0  0  0  0  0  0  0  0
   -7.7681   18.1126  -33.7035 H   0  0  0  0  0  0  0  0  0  0  0  0
   -6.0337   18.5280  -33.9257 H   0  0  0  0  0  0  0  0  0  0  0  0
   -4.9720   20.0833  -32.0465 H   0  0  0  0  0  0  0  0  0  0  0  0
  1  2  1  0
  2  3  1  0
  3  4  1  0
  4  5  1  0
  5  6  1  0
  6  7  2  0
  6  8  1  0
  8  9  1  0
  9 10  1  0
 10 11  2  0
 10 12  1  0
 12 13  1  0
 13 14  1  0
 14 15  1  0
 14 16  2  0
 13 17  2  0
 17 18  1  0
 18 19  2  0
 19 20  1  0
 20 21  2  0
 21 22  1  0
 22 23  1  0
 21 24  1  0
 24 25  2  0
 25 12  1  0
 25 18  1  0
  1 26  1  0
  1 27  1  0
  1 28  1  0
  3 29  1  0
  3 30  1  0
  4 31  1  0
  4 32  1  0
  8 33  1  0
  8 34  1  0
  9 35  1  0
  9 36  1  0
 15 37  1  0
 15 38  1  0
 17 39  1  0
 19 40  1  0
 20 41  1  0
 22 42  1  0
 22 43  1  0
 24 44  1  0
M  END
>  <UniqueID>  (36) 
36

>  <SMILES>  (36) 
COCCOC(=O)CCC(=O)n1c(C(N)=O)cc2ccc(CCl)cc21

>  <Energy>  (36) 
73.04924020037554

>  <Genealogy>  (36) 
COCCOC(=O)CCC(=O)n1c(C(N)=O)cc2ccc(CCl)cc21 (3D coordinates assigned)
COCCOC(=O)CCC(=O)n1c(C(N)=O)cc2ccc(CCl)cc21 (optimized conformer: 73.04924020037554 kcal/mol)

>  <smiles>  (36) 
COCCOC(=O)CCC(=O)n1c(C(N)=O)cc2ccc(CCl)cc21

>  <score_type>  (36) 
oracle

>  <origin>  (36) 
adg

>  <m_score__min__energy>  (36) 
-9.0199999999999996

>  <m_primary>  (36) 
energy

$$$$
36:0
     RDKit          3D

 42 43  0  0  0  0  0  0  0  0999 V2000
   -2.2090   21.3680  -27.1860 C   0  0  0  0  0  0  0  0  0  0  0  0
   -2.2960   22.4000  -28.2230 N   0  0  0  0  0  0  0  0  0  0  0  0
   -3.0870   23.6150  -27.9610 C   0  0  0  0  0  0  0  0  0  0  0  0
   -2.2020   24.8650  -28.0110 C   0  0  0  0  0  0  0  0  0  0  0  0
   -1.9970   25.2770  -29.3350 O   0  0  0  0  0  0  0  0  0  0  0  0
   -1.6620   22.1550  -29.5000 C   0  0  0  0  0  0  0  0  0  0  0  0
   -0.7440   22.9260  -29.8970 O   0  0  0  0  0  0  0  0  0  0  0  0
   -2.0640   21.0140  -30.3910 C   0  0  0  0  0  0  0  0  0  0  0  0
   -3.4110   21.2360  -30.8930 N   0  0  0  0  0  0  0  0  0  0  0  0
   -3.9130   22.5250  -31.2490 C   0  0  0  0  0  0  0  0  0  0  0  0
   -3.1170   23.4410  -31.5870 O   0  0  0  0  0  0  0  0  0  0  0  0
   -5.3290   22.7700  -31.2290 N   0  0  0  0  0  0  0  0  0  0  0  0
   -5.9720   23.9230  -30.8850 C   0  0  0  0  0  0  0  0  0  0  0  0
   -5.3440   25.1310  -30.3080 C   0  0  0  0  0  0  0  0  0  0  0  0
   -4.1220   25.6450  -30.8310 N   0  0  0  0  0  0  0  0  0  0  0  0
   -5.8680   25.6870  -29.3070 O   0  0  0  0  0  0  0  0  0  0  0  0
   -7.3470   23.7890  -31.0630 C   0  0  0  0  0  0  0  0  0  0  0  0
   -7.5320   22.5040  -31.5180 C   0  0  0  0  0  0  0  0  0  0  0  0
   -8.7030   21.8390  -31.8670 C   0  0  0  0  0  0  0  0  0  0  0  0
   -8.5970   20.5170  -32.3310 C   0  0  0  0  0  0  0  0  0  0  0  0
   -7.3330   19.8890  -32.4360 C   0  0  0  0  0  0  0  0  0  0  0  0
   -7.2290   18.4950  -32.9800 C   0  0  0  0  0  0  0  0  0  0  0  0
   -6.4500   18.5030  -34.1210 F   0  0  0  0  0  0  0  0  0  0  0  0
   -6.1630   20.6010  -32.0900 C   0  0  0  0  0  0  0  0  0  0  0  0
   -6.2990   21.9100  -31.6100 C   0  0  0  0  0  0  0  0  0  0  0  0
   -2.2489   21.8410  -26.1937 H   0  0  0  0  0  0  0  0  0  0  0  0
   -3.0514   20.6688  -27.2930 H   0  0  0  0  0  0  0  0  0  0  0  0
   -1.2614   20.8197  -27.2930 H   0  0  0  0  0  0  0  0  0  0  0  0
   -3.8764   23.7019  -28.7221 H   0  0  0  0  0  0  0  0  0  0  0  0
   -3.5287   23.5370  -26.9566 H   0  0  0  0  0  0  0  0  0  0  0  0
   -2.6919   25.6763  -27.4526 H   0  0  0  0  0  0  0  0  0  0  0  0
   -1.2272   24.6251  -27.5614 H   0  0  0  0  0  0  0  0  0  0  0  0
   -2.3040   24.5320  -29.9150 H   0  0  0  0  0  0  0  0  0  0  0  0
   -1.3646   20.9469  -31.2374 H   0  0  0  0  0  0  0  0  0  0  0  0
   -2.0390   20.0764  -29.8164 H   0  0  0  0  0  0  0  0  0  0  0  0
   -3.2010   25.2930  -30.4890 H   0  0  0  0  0  0  0  0  0  0  0  0
   -8.1205   24.5491  -30.8789 H   0  0  0  0  0  0  0  0  0  0  0  0
   -9.6821   22.3331  -31.7823 H   0  0  0  0  0  0  0  0  0  0  0  0
   -9.5050   19.9649  -32.6153 H   0  0  0  0  0  0  0  0  0  0  0  0
   -6.7678   17.8405  -32.2257 H   0  0  0  0  0  0  0  0  0  0  0  0
   -8.2341   18.1209  -33.2247 H   0  0  0  0  0  0  0  0  0  0  0  0
   -5.1702   20.1392  -32.1948 H   0  0  0  0  0  0  0  0  0  0  0  0
  1  2  1  0
  2  3  1  0
  3  4  1  0
  4  5  1  0
  2  6  1  0
  6  7  2  0
  6  8  1  0
  8  9  1  0
  9 10  1  0
 10 11  2  0
 10 12  1  0
 12 13  1  0
 13 14  1  0
 14 15  1  0
 14 16  2  0
 13 17  2  0
 17 18  1  0
 18 19  2  0
 19 20  1  0
 20 21  2  0
 21 22  1  0
 22 23  1  0
 21 24  1  0
 24 25  2  0
 25 12  1  0
 25 18  1  0
  1 26  1  0
  1 27  1  0
  1 28  1  0
  3 29  1  0
  3 30  1  0
  4 31  1  0
  4 32  1  0
  5 33  1  0
  8 34  1  0
  8 35  1  0
 15 36  1  0
 17 37  1  0
 19 38  1  0
 20 39  1  0
 22 40  1  0
 22 41  1  0
 24 42  1  0
M  CHG  2   9  -1  15  -1
M  END
>  <UniqueID>  (37) 
37

>  <SMILES>  (37) 
CN(CCO)C(=O)C[N-]C(=O)n1c(C([NH-])=O)cc2ccc(CF)cc21

>  <Energy>  (37) 
73.7271306100071

>  <Genealogy>  (37) 
CN(CCO)C(=O)C[N-]C(=O)n1c(C([NH-])=O)cc2ccc(CF)cc21 (protonated)
CN(CCO)C(=O)C[N-]C(=O)n1c(C([NH-])=O)cc2ccc(CF)cc21 (3D coordinates assigned)
CN(CCO)C(=O)C[N-]C(=O)n1c(C([NH-])=O)cc2ccc(CF)cc21 (optimized conformer: 73.7271306100071 kcal/mol)

>  <smiles>  (37) 
CN(CCO)C(=O)CNC(=O)n1c(C(N)=O)cc2ccc(CF)cc21

>  <score_type>  (37) 
oracle

>  <origin>  (37) 
adg

>  <m_score__min__energy>  (37) 
-10.42

>  <m_primary>  (37) 
energy

$$$$
37:0
     RDKit          3D

 45 47  0  0  0  0  0  0  0  0999 V2000
   -2.8730   24.8980  -29.6510 N   0  0  0  0  0  0  0  0  0  0  0  0
   -4.0300   24.7690  -30.4760 C   0  0  0  0  0  0  0  0  0  0  0  0
   -4.8050   25.7520  -30.6100 O   0  0  0  0  0  0  0  0  0  0  0  0
   -4.2850   23.5010  -31.1910 C   0  0  0  0  0  0  0  0  0  0  0  0
   -3.2760   22.6770  -31.6880 C   0  0  0  0  0  0  0  0  0  0  0  0
   -3.9280   21.6460  -32.3270 C   0  0  0  0  0  0  0  0  0  0  0  0
   -3.4160   20.5210  -32.9660 C   0  0  0  0  0  0  0  0  0  0  0  0
   -4.3280   19.5880  -33.4880 C   0  0  0  0  0  0  0  0  0  0  0  0
   -5.7270   19.7930  -33.3660 C   0  0  0  0  0  0  0  0  0  0  0  0
   -6.6530   18.8040  -33.8540 N   0  0  0  0  0  0  0  0  0  0  0  0
   -6.1530   17.4860  -33.5530 C   0  0  0  0  0  0  0  0  0  0  0  0
   -6.1320   16.4870  -34.5420 C   0  0  0  0  0  0  0  0  0  0  0  0
   -5.6830   15.2010  -34.2360 C   0  0  0  0  0  0  0  0  0  0  0  0
   -5.2570   14.8820  -32.9410 C   0  0  0  0  0  0  0  0  0  0  0  0
   -4.8220   13.5700  -32.6920 O   0  0  0  0  0  0  0  0  0  0  0  0
   -3.8100   13.2030  -31.7570 C   0  0  0  0  0  0  0  0  0  0  0  0
   -3.3920   11.9050  -31.9930 F   0  0  0  0  0  0  0  0  0  0  0  0
   -4.2890   13.3170  -30.4660 F   0  0  0  0  0  0  0  0  0  0  0  0
   -2.7300   14.0520  -31.9090 F   0  0  0  0  0  0  0  0  0  0  0  0
   -5.2820   15.8790  -31.9470 C   0  0  0  0  0  0  0  0  0  0  0  0
   -5.7290   17.1670  -32.2520 C   0  0  0  0  0  0  0  0  0  0  0  0
   -6.2060   20.9500  -32.7090 C   0  0  0  0  0  0  0  0  0  0  0  0
   -5.2750   21.8670  -32.2090 C   0  0  0  0  0  0  0  0  0  0  0  0
   -5.5110   23.0010  -31.5140 N   0  0  0  0  0  0  0  0  0  0  0  0
   -6.7960   23.4920  -31.1110 C   0  0  0  0  0  0  0  0  0  0  0  0
   -6.8850   24.2790  -30.1300 O   0  0  0  0  0  0  0  0  0  0  0  0
   -7.9370   23.1190  -31.8310 O   0  0  0  0  0  0  0  0  0  0  0  0
   -8.9220   22.2100  -31.3410 C   0  0  0  0  0  0  0  0  0  0  0  0
   -8.3220   20.9950  -30.9640 O   0  0  0  0  0  0  0  0  0  0  0  0
   -9.1390   19.7240  -31.7680 S   0  0  0  0  0  0  0  0  0  0  0  0
   -8.2820   18.5030  -31.4610 O   0  0  0  0  0  0  0  0  0  0  0  0
   -8.8210   20.0320  -33.4110 O   0  0  0  0  0  0  0  0  0  0  0  0
   -2.7200   25.7530  -29.0690 H   0  0  0  0  0  0  0  0  0  0  0  0
   -2.1897   22.8201  -31.5904 H   0  0  0  0  0  0  0  0  0  0  0  0
   -2.3309   20.3667  -33.0597 H   0  0  0  0  0  0  0  0  0  0  0  0
   -3.9530   18.6880  -33.9973 H   0  0  0  0  0  0  0  0  0  0  0  0
   -6.7870   18.9050  -34.8870 H   0  0  0  0  0  0  0  0  0  0  0  0
   -7.5910   18.9480  -33.4110 H   0  0  0  0  0  0  0  0  0  0  0  0
   -6.4711   16.7198  -35.5622 H   0  0  0  0  0  0  0  0  0  0  0  0
   -5.6637   14.4302  -35.0206 H   0  0  0  0  0  0  0  0  0  0  0  0
   -4.9481   15.6427  -30.9259 H   0  0  0  0  0  0  0  0  0  0  0  0
   -5.7492   17.9376  -31.4673 H   0  0  0  0  0  0  0  0  0  0  0  0
   -7.2858   21.1251  -32.5937 H   0  0  0  0  0  0  0  0  0  0  0  0
   -9.4224   22.6537  -30.4677 H   0  0  0  0  0  0  0  0  0  0  0  0
   -9.6553   22.0145  -32.1372 H   0  0  0  0  0  0  0  0  0  0  0  0
  1  2  1  0
  2  3  2  0
  2  4  1  0
  4  5  2  0
  5  6  1  0
  6  7  2  0
  7  8  1  0
  8  9  2  0
  9 10  1  0
 10 11  1  0
 11 12  2  0
 12 13  1  0
 13 14  2  0
 14 15  1  0
 15 16  1  0
 16 17  1  0
 16 18  1  0
 16 19  1  0
 14 20  1  0
 20 21  2  0
  9 22  1  0
 22 23  2  0
 23 24  1  0
 24 25  1  0
 25 26  2  0
 25 27  1  0
 27 28  1  0
 28 29  1  0
 29 30  1  0
 30 31  2  0
 30 32  1  6
 24  4  1  0
 23  6  1  0
 21 11  1  0
  1 33  1  0
  5 34  1  0
  7 35  1  0
  8 36  1  0
 10 37  1  0
 10 38  1  0
 12 39  1  0
 13 40  1  0
 20 41  1  0
 21 42  1  0
 22 43  1  0
 28 44  1  0
 28 45  1  0
M  CHG  3   1  -1  10   1  32  -1
M  END
>  <UniqueID>  (38) 
38

>  <SMILES>  (38) 
[NH-]C(=O)c1cc2ccc([NH2+]c3ccc(OC(F)(F)F)cc3)cc2n1C(=O)OCO[S@](=O)[O-]

>  <Energy>  (38) 
87.99750832140812

>  <Genealogy>  (38) 
[NH-]C(=O)c1cc2ccc([NH2+]c3ccc(OC(F)(F)F)cc3)cc2n1C(=O)OCOS(=O)[O-] (protonated)
[NH-]C(=O)c1cc2ccc([NH2+]c3ccc(OC(F)(F)F)cc3)cc2n1C(=O)OCO[S@](=O)[O-] (chirality)
[NH-]C(=O)c1cc2ccc([NH2+]c3ccc(OC(F)(F)F)cc3)cc2n1C(=O)OCO[S@](=O)[O-] (3D coordinates assigned)
[NH-]C(=O)c1cc2ccc([NH2+]c3ccc(OC(F)(F)F)cc3)cc2n1C(=O)OCO[S@](=O)[O-] (optimized conformer: 87.99750832140812 kcal/mol)

>  <smiles>  (38) 
NC(=O)c1cc2ccc(Nc3ccc(OC(F)(F)F)cc3)cc2n1C(=O)OCOS(=O)O

>  <score_type>  (38) 
oracle

>  <origin>  (38) 
adg

>  <m_score__min__energy>  (38) 
-12.880000000000001

>  <m_primary>  (38) 
energy

$$$$
38:0
     RDKit          3D

 42 43  0  0  0  0  0  0  0  0999 V2000
   -1.2220   21.8590  -26.4760 C   0  0  0  0  0  0  0  0  0  0  0  0
   -1.9280   22.3430  -27.6700 N   0  0  0  0  0  0  0  0  0  0  0  0
   -2.9620   23.3790  -27.5270 C   0  0  0  0  0  0  0  0  0  0  0  0
   -2.3420   24.7780  -27.5890 C   0  0  0  0  0  0  0  0  0  0  0  0
   -2.3950   25.2850  -28.8930 O   0  0  0  0  0  0  0  0  0  0  0  0
   -1.6110   21.8160  -28.9810 C   0  0  0  0  0  0  0  0  0  0  0  0
   -1.4080   20.5810  -29.1290 O   0  0  0  0  0  0  0  0  0  0  0  0
   -1.5240   22.7010  -30.1890 C   0  0  0  0  0  0  0  0  0  0  0  0
   -2.8250   23.1560  -30.5410 O   0  0  0  0  0  0  0  0  0  0  0  0
   -3.6940   22.4110  -31.3430 C   0  0  0  0  0  0  0  0  0  0  0  0
   -3.2350   21.5930  -32.1870 O   0  0  0  0  0  0  0  0  0  0  0  0
   -5.1140   22.6020  -31.2250 N   0  0  0  0  0  0  0  0  0  0  0  0
   -5.7720   23.7160  -30.7940 C   0  0  0  0  0  0  0  0  0  0  0  0
   -5.1530   24.9090  -30.1780 C   0  0  0  0  0  0  0  0  0  0  0  0
   -4.1020   25.6120  -30.8340 N   0  0  0  0  0  0  0  0  0  0  0  0
   -5.5230   25.2830  -29.0320 O   0  0  0  0  0  0  0  0  0  0  0  0
   -7.1490   23.5540  -30.9330 C   0  0  0  0  0  0  0  0  0  0  0  0
   -7.3180   22.2940  -31.4560 C   0  0  0  0  0  0  0  0  0  0  0  0
   -8.4840   21.6200  -31.8080 C   0  0  0  0  0  0  0  0  0  0  0  0
   -8.3600   20.3320  -32.3590 C   0  0  0  0  0  0  0  0  0  0  0  0
   -7.0830   19.7480  -32.5520 C   0  0  0  0  0  0  0  0  0  0  0  0
   -6.9560   18.3860  -33.1700 C   0  0  0  0  0  0  0  0  0  0  0  0
   -6.0830   18.4450  -34.2400 F   0  0  0  0  0  0  0  0  0  0  0  0
   -6.4740   17.4840  -32.2370 F   0  0  0  0  0  0  0  0  0  0  0  0
   -5.9220   20.4680  -32.1920 C   0  0  0  0  0  0  0  0  0  0  0  0
   -6.0740   21.7400  -31.6260 C   0  0  0  0  0  0  0  0  0  0  0  0
   -1.7410   22.2148  -25.5737 H   0  0  0  0  0  0  0  0  0  0  0  0
   -1.2060   20.7591  -26.4801 H   0  0  0  0  0  0  0  0  0  0  0  0
   -0.1904   22.2407  -26.4801 H   0  0  0  0  0  0  0  0  0  0  0  0
   -3.6942   23.2726  -28.3410 H   0  0  0  0  0  0  0  0  0  0  0  0
   -3.4538   23.2541  -26.5510 H   0  0  0  0  0  0  0  0  0  0  0  0
   -2.8975   25.4493  -26.9176 H   0  0  0  0  0  0  0  0  0  0  0  0
   -1.2891   24.7126  -27.2773 H   0  0  0  0  0  0  0  0  0  0  0  0
   -3.2540   24.9770  -29.2830 H   0  0  0  0  0  0  0  0  0  0  0  0
   -0.8821   23.5655  -29.9642 H   0  0  0  0  0  0  0  0  0  0  0  0
   -1.0958   22.1332  -31.0282 H   0  0  0  0  0  0  0  0  0  0  0  0
   -3.1130   25.2850  -30.7630 H   0  0  0  0  0  0  0  0  0  0  0  0
   -7.9346   24.2806  -30.6782 H   0  0  0  0  0  0  0  0  0  0  0  0
   -9.4719   22.0806  -31.6598 H   0  0  0  0  0  0  0  0  0  0  0  0
   -9.2632   19.7721  -32.6431 H   0  0  0  0  0  0  0  0  0  0  0  0
   -7.9469   18.0556  -33.5149 H   0  0  0  0  0  0  0  0  0  0  0  0
   -4.9217   20.0394  -32.3526 H   0  0  0  0  0  0  0  0  0  0  0  0
  1  2  1  0
  2  3  1  0
  3  4  1  0
  4  5  1  0
  2  6  1  0
  6  7  2  0
  6  8  1  0
  8  9  1  0
  9 10  1  0
 10 11  2  0
 10 12  1  0
 12 13  1  0
 13 14  1  0
 14 15  1  0
 14 16  2  0
 13 17  2  0
 17 18  1  0
 18 19  2  0
 19 20  1  0
 20 21  2  0
 21 22  1  0
 22 23  1  0
 22 24  1  0
 21 25  1  0
 25 26  2  0
 26 12  1  0
 26 18  1  0
  1 27  1  0
  1 28  1  0
  1 29  1  0
  3 30  1  0
  3 31  1  0
  4 32  1  0
  4 33  1  0
  5 34  1  0
  8 35  1  0
  8 36  1  0
 15 37  1  0
 17 38  1  0
 19 39  1  0
 20 40  1  0
 22 41  1  0
 25 42  1  0
M  CHG  1  15  -1
M  END
>  <UniqueID>  (39) 
39

>  <SMILES>  (39) 
CN(CCO)C(=O)COC(=O)n1c(C([NH-])=O)cc2ccc(C(F)F)cc21

>  <Energy>  (39) 
73.55559785962801

>  <Genealogy>  (39) 
CN(CCO)C(=O)COC(=O)n1c(C([NH-])=O)cc2ccc(C(F)F)cc21 (protonated)
CN(CCO)C(=O)COC(=O)n1c(C([NH-])=O)cc2ccc(C(F)F)cc21 (3D coordinates assigned)
CN(CCO)C(=O)COC(=O)n1c(C([NH-])=O)cc2ccc(C(F)F)cc21 (optimized conformer: 73.55559785962801 kcal/mol)

>  <smiles>  (39) 
CN(CCO)C(=O)COC(=O)n1c(C(N)=O)cc2ccc(C(F)F)cc21

>  <score_type>  (39) 
oracle

>  <origin>  (39) 
adg

>  <m_score__min__energy>  (39) 
-9.9900000000000002

>  <m_primary>  (39) 
energy

$$$$
39:0
     RDKit          3D

 44 45  0  0  0  0  0  0  0  0999 V2000
   -6.5480   17.6780  -31.5360 C   0  0  0  0  0  0  0  0  0  0  0  0
   -6.4630   17.9510  -32.8470 C   0  0  0  0  0  0  0  0  0  0  0  0
   -7.4260   18.8340  -33.4650 N   0  0  0  0  0  0  0  0  0  0  0  0
   -7.4610   20.1040  -32.7800 C   0  0  0  0  0  0  0  0  0  0  0  0
   -8.7040   20.6890  -32.4240 C   0  0  0  0  0  0  0  0  0  0  0  0
   -8.7540   21.9270  -31.7640 C   0  0  0  0  0  0  0  0  0  0  0  0
   -7.5490   22.5640  -31.4810 C   0  0  0  0  0  0  0  0  0  0  0  0
   -7.3150   23.7820  -30.8880 C   0  0  0  0  0  0  0  0  0  0  0  0
   -5.9300   23.9320  -30.8900 C   0  0  0  0  0  0  0  0  0  0  0  0
   -5.2390   25.0800  -30.2650 C   0  0  0  0  0  0  0  0  0  0  0  0
   -4.0430   25.6110  -30.8300 N   0  0  0  0  0  0  0  0  0  0  0  0
   -5.6820   25.5650  -29.1900 O   0  0  0  0  0  0  0  0  0  0  0  0
   -5.3310   22.8540  -31.4710 N   0  0  0  0  0  0  0  0  0  0  0  0
   -3.9370   22.6840  -31.7790 C   0  0  0  0  0  0  0  0  0  0  0  0
   -3.0610   23.1410  -30.9950 O   0  0  0  0  0  0  0  0  0  0  0  0
   -3.5600   22.0500  -32.9680 O   0  0  0  0  0  0  0  0  0  0  0  0
   -2.4560   21.1510  -33.0770 C   0  0  0  0  0  0  0  0  0  0  0  0
   -2.9030   19.7100  -32.8430 C   0  0  0  0  0  0  0  0  0  0  0  0
   -2.0250   18.5730  -33.8970 Cl  0  0  0  0  0  0  0  0  0  0  0  0
   -6.3370   22.0200  -31.8200 C   0  0  0  0  0  0  0  0  0  0  0  0
   -6.2590   20.7910  -32.4850 C   0  0  0  0  0  0  0  0  0  0  0  0
   -5.3730   17.3640  -33.6640 C   0  0  0  0  0  0  0  0  0  0  0  0
   -5.3160   17.5770  -34.9070 O   0  0  0  0  0  0  0  0  0  0  0  0
   -4.4070   16.5640  -33.0480 O   0  0  0  0  0  0  0  0  0  0  0  0
   -4.2780   15.1720  -33.3140 C   0  0  0  0  0  0  0  0  0  0  0  0
   -4.5930   14.3840  -32.0540 C   0  0  0  0  0  0  0  0  0  0  0  0
   -5.8152   17.0060  -31.0655 H   0  0  0  0  0  0  0  0  0  0  0  0
   -7.3505   18.1262  -30.9318 H   0  0  0  0  0  0  0  0  0  0  0  0
   -8.3900   18.4210  -33.4530 H   0  0  0  0  0  0  0  0  0  0  0  0
   -7.1660   18.9580  -34.4710 H   0  0  0  0  0  0  0  0  0  0  0  0
   -9.6402   20.1657  -32.6683 H   0  0  0  0  0  0  0  0  0  0  0  0
   -9.7153   22.3796  -31.4794 H   0  0  0  0  0  0  0  0  0  0  0  0
   -8.0621   24.4877  -30.4956 H   0  0  0  0  0  0  0  0  0  0  0  0
   -3.1060   25.2520  -30.5400 H   0  0  0  0  0  0  0  0  0  0  0  0
   -2.0214   21.2344  -34.0841 H   0  0  0  0  0  0  0  0  0  0  0  0
   -1.7095   21.4162  -32.3138 H   0  0  0  0  0  0  0  0  0  0  0  0
   -2.7129   19.4431  -31.7929 H   0  0  0  0  0  0  0  0  0  0  0  0
   -3.9753   19.6395  -33.0777 H   0  0  0  0  0  0  0  0  0  0  0  0
   -5.2850   20.3682  -32.7721 H   0  0  0  0  0  0  0  0  0  0  0  0
   -4.9794   14.8845  -34.1111 H   0  0  0  0  0  0  0  0  0  0  0  0
   -3.2487   14.9540  -33.6349 H   0  0  0  0  0  0  0  0  0  0  0  0
   -4.3497   14.9925  -31.1705 H   0  0  0  0  0  0  0  0  0  0  0  0
   -5.6627   14.1278  -32.0396 H   0  0  0  0  0  0  0  0  0  0  0  0
   -3.9947   13.4611  -32.0396 H   0  0  0  0  0  0  0  0  0  0  0  0
  1  2  2  0
  2  3  1  0
  3  4  1  0
  4  5  2  0
  5  6  1  0
  6  7  2  0
  7  8  1  0
  8  9  2  0
  9 10  1  0
 10 11  1  0
 10 12  2  0
  9 13  1  0
 13 14  1  0
 14 15  2  0
 14 16  1  0
 16 17  1  0
 17 18  1  0
 18 19  1  0
 13 20  1  0
 20 21  2  0
  2 22  1  0
 22 23  2  0
 22 24  1  0
 24 25  1  0
 25 26  1  0
 21  4  1  0
 20  7  1  0
  1 27  1  0
  1 28  1  0
  3 29  1  0
  3 30  1  0
  5 31  1  0
  6 32  1  0
  8 33  1  0
 11 34  1  0
 17 35  1  0
 17 36  1  0
 18 37  1  0
 18 38  1  0
 21 39  1  0
 25 40  1  0
 25 41  1  0
 26 42  1  0
 26 43  1  0
 26 44  1  0
M  CHG  2   3   1  11  -1
M  END
>  <UniqueID>  (40) 
40

>  <SMILES>  (40) 
C=C([NH2+]c1ccc2cc(C([NH-])=O)n(C(=O)OCCCl)c2c1)C(=O)OCC

>  <Energy>  (40) 
74.78499759512871

>  <Genealogy>  (40) 
C=C([NH2+]c1ccc2cc(C([NH-])=O)n(C(=O)OCCCl)c2c1)C(=O)OCC (protonated)
C=C([NH2+]c1ccc2cc(C([NH-])=O)n(C(=O)OCCCl)c2c1)C(=O)OCC (3D coordinates assigned)
C=C([NH2+]c1ccc2cc(C([NH-])=O)n(C(=O)OCCCl)c2c1)C(=O)OCC (optimized conformer: 74.78499759512871 kcal/mol)

>  <smiles>  (40) 
C=C(Nc1ccc2cc(C(N)=O)n(C(=O)OCCCl)c2c1)C(=O)OCC

>  <score_type>  (40) 
oracle

>  <origin>  (40) 
adg

>  <m_score__min__energy>  (40) 
-9.9800000000000004

>  <m_primary>  (40) 
energy

$$$$
40:0
     RDKit          3D

 41 42  0  0  0  0  0  0  0  0999 V2000
   -1.6340   21.4890  -26.7950 C   0  0  0  0  0  0  0  0  0  0  0  0
   -1.7750   22.5980  -27.7440 N   0  0  0  0  0  0  0  0  0  0  0  0
   -1.7900   23.9750  -27.2230 C   0  0  0  0  0  0  0  0  0  0  0  0
   -2.5300   24.9110  -28.1790 C   0  0  0  0  0  0  0  0  0  0  0  0
   -1.7770   25.1100  -29.3430 O   0  0  0  0  0  0  0  0  0  0  0  0
   -1.9640   22.2910  -29.1450 C   0  0  0  0  0  0  0  0  0  0  0  0
   -1.0380   22.5400  -29.9660 O   0  0  0  0  0  0  0  0  0  0  0  0
   -3.2560   21.7460  -29.6930 C   0  0  0  0  0  0  0  0  0  0  0  0
   -3.7360   22.5980  -30.8300 C   0  0  0  0  0  0  0  0  0  0  0  0
   -2.9050   23.1020  -31.6330 O   0  0  0  0  0  0  0  0  0  0  0  0
   -5.1390   22.8280  -31.0200 N   0  0  0  0  0  0  0  0  0  0  0  0
   -5.8220   23.9980  -30.8730 C   0  0  0  0  0  0  0  0  0  0  0  0
   -5.2430   25.3000  -30.4720 C   0  0  0  0  0  0  0  0  0  0  0  0
   -3.9140   25.6590  -30.8370 N   0  0  0  0  0  0  0  0  0  0  0  0
   -5.9330   26.1070  -29.7950 O   0  0  0  0  0  0  0  0  0  0  0  0
   -7.1690   23.8140  -31.1840 C   0  0  0  0  0  0  0  0  0  0  0  0
   -7.2890   22.4850  -31.5220 C   0  0  0  0  0  0  0  0  0  0  0  0
   -8.4090   21.7520  -31.9060 C   0  0  0  0  0  0  0  0  0  0  0  0
   -8.2400   20.3830  -32.1760 C   0  0  0  0  0  0  0  0  0  0  0  0
   -6.9670   19.7740  -32.0440 C   0  0  0  0  0  0  0  0  0  0  0  0
   -6.7940   18.3180  -32.3620 C   0  0  0  0  0  0  0  0  0  0  0  0
   -6.5480   18.1680  -33.7130 F   0  0  0  0  0  0  0  0  0  0  0  0
   -5.8500   20.5520  -31.6640 C   0  0  0  0  0  0  0  0  0  0  0  0
   -6.0480   21.9120  -31.4130 C   0  0  0  0  0  0  0  0  0  0  0  0
   -1.6834   21.8775  -25.7671 H   0  0  0  0  0  0  0  0  0  0  0  0
   -2.4474   20.7655  -26.9530 H   0  0  0  0  0  0  0  0  0  0  0  0
   -0.6654   20.9921  -26.9530 H   0  0  0  0  0  0  0  0  0  0  0  0
   -2.2951   23.9851  -26.2459 H   0  0  0  0  0  0  0  0  0  0  0  0
   -0.7518   24.3243  -27.1219 H   0  0  0  0  0  0  0  0  0  0  0  0
   -3.4996   24.4651  -28.4456 H   0  0  0  0  0  0  0  0  0  0  0  0
   -2.6852   25.8803  -27.6827 H   0  0  0  0  0  0  0  0  0  0  0  0
   -2.1370   24.4760  -30.0160 H   0  0  0  0  0  0  0  0  0  0  0  0
   -3.0941   20.7188  -30.0517 H   0  0  0  0  0  0  0  0  0  0  0  0
   -4.0142   21.7501  -28.8961 H   0  0  0  0  0  0  0  0  0  0  0  0
   -3.1100   25.0200  -30.6450 H   0  0  0  0  0  0  0  0  0  0  0  0
   -7.9669   24.5709  -31.1635 H   0  0  0  0  0  0  0  0  0  0  0  0
   -9.3958   22.2298  -31.9953 H   0  0  0  0  0  0  0  0  0  0  0  0
   -9.1032   19.7790  -32.4925 H   0  0  0  0  0  0  0  0  0  0  0  0
   -5.9463   17.9155  -31.7880 H   0  0  0  0  0  0  0  0  0  0  0  0
   -7.7107   17.7725  -32.0933 H   0  0  0  0  0  0  0  0  0  0  0  0
   -4.8521   20.0992  -31.5685 H   0  0  0  0  0  0  0  0  0  0  0  0
  1  2  1  0
  2  3  1  0
  3  4  1  0
  4  5  1  0
  2  6  1  0
  6  7  2  0
  6  8  1  0
  8  9  1  0
  9 10  2  0
  9 11  1  0
 11 12  1  0
 12 13  1  0
 13 14  1  0
 13 15  2  0
 12 16  2  0
 16 17  1  0
 17 18  2  0
 18 19  1  0
 19 20  2  0
 20 21  1  0
 21 22  1  0
 20 23  1  0
 23 24  2  0
 24 11  1  0
 24 17  1  0
  1 25  1  0
  1 26  1  0
  1 27  1  0
  3 28  1  0
  3 29  1  0
  4 30  1  0
  4 31  1  0
  5 32  1  0
  8 33  1  0
  8 34  1  0
 14 35  1  0
 16 36  1  0
 18 37  1  0
 19 38  1  0
 21 39  1  0
 21 40  1  0
 23 41  1  0
M  CHG  1  14  -1
M  END
>  <UniqueID>  (41) 
41

>  <SMILES>  (41) 
CN(CCO)C(=O)CC(=O)n1c(C([NH-])=O)cc2ccc(CF)cc21

>  <Energy>  (41) 
74.27002186179934

>  <Genealogy>  (41) 
CN(CCO)C(=O)CC(=O)n1c(C([NH-])=O)cc2ccc(CF)cc21 (protonated)
CN(CCO)C(=O)CC(=O)n1c(C([NH-])=O)cc2ccc(CF)cc21 (3D coordinates assigned)
CN(CCO)C(=O)CC(=O)n1c(C([NH-])=O)cc2ccc(CF)cc21 (optimized conformer: 74.27002186179934 kcal/mol)

>  <smiles>  (41) 
CN(CCO)C(=O)CC(=O)n1c(C(N)=O)cc2ccc(CF)cc21

>  <score_type>  (41) 
oracle

>  <origin>  (41) 
adg

>  <m_score__min__energy>  (41) 
-10.289999999999999

>  <m_primary>  (41) 
energy

$$$$
41:0
     RDKit          3D

 44 46  0  0  0  0  0  0  0  0999 V2000
   -1.0070   23.5240  -26.4920 C   0  0  0  0  0  0  0  0  0  0  0  0
   -1.5900   23.5910  -27.9180 C   0  0  0  0  0  0  0  0  0  0  0  0
   -1.7600   22.3430  -28.5740 O   0  0  0  0  0  0  0  0  0  0  0  0
   -3.1070   21.9140  -28.5340 C   0  0  0  0  0  0  0  0  0  0  0  0
   -3.5250   21.5580  -29.8480 O   0  0  0  0  0  0  0  0  0  0  0  0
   -3.9180   22.5010  -30.8030 C   0  0  0  0  0  0  0  0  0  0  0  0
   -3.0560   23.0850  -31.5150 O   0  0  0  0  0  0  0  0  0  0  0  0
   -5.3130   22.7870  -30.9890 N   0  0  0  0  0  0  0  0  0  0  0  0
   -5.9390   23.9950  -30.8990 C   0  0  0  0  0  0  0  0  0  0  0  0
   -5.3300   25.2560  -30.4290 C   0  0  0  0  0  0  0  0  0  0  0  0
   -4.0200   25.6360  -30.8420 N   0  0  0  0  0  0  0  0  0  0  0  0
   -5.9540   25.9840  -29.6110 O   0  0  0  0  0  0  0  0  0  0  0  0
   -7.2850   23.8730  -31.2360 C   0  0  0  0  0  0  0  0  0  0  0  0
   -7.4700   22.5410  -31.5280 C   0  0  0  0  0  0  0  0  0  0  0  0
   -8.6180   21.8620  -31.9260 C   0  0  0  0  0  0  0  0  0  0  0  0
   -8.5120   20.4850  -32.1830 C   0  0  0  0  0  0  0  0  0  0  0  0
   -7.2670   19.8200  -32.0550 C   0  0  0  0  0  0  0  0  0  0  0  0
   -7.1730   18.3430  -32.3090 C   0  0  0  0  0  0  0  0  0  0  0  0
   -6.0630   18.0160  -33.7140 P   0  0  2  0  0  0  0  0  0  0  0  0
   -6.5040   16.7590  -34.4290 O   0  0  0  0  0  0  0  0  0  0  0  0
   -4.4850   17.8100  -33.1440 O   0  0  0  0  0  0  0  0  0  0  0  0
   -6.1060   19.3190  -34.7930 O   0  0  0  0  0  0  0  0  0  0  0  0
   -6.1250   20.5410  -31.6410 C   0  0  0  0  0  0  0  0  0  0  0  0
   -6.2640   21.9080  -31.3730 C   0  0  0  0  0  0  0  0  0  0  0  0
   -0.8560   24.5690  -28.8160 C   0  0  0  0  0  0  0  0  0  0  0  0
   -1.9760   25.4130  -28.9340 O   0  0  0  0  0  0  0  0  0  0  0  0
   -2.7420   24.5610  -28.1160 C   0  0  0  0  0  0  0  0  0  0  0  0
   -1.8212   23.6176  -25.7582 H   0  0  0  0  0  0  0  0  0  0  0  0
   -0.4945   22.5610  -26.3503 H   0  0  0  0  0  0  0  0  0  0  0  0
   -0.2894   24.3456  -26.3503 H   0  0  0  0  0  0  0  0  0  0  0  0
   -3.1954   21.0409  -27.8708 H   0  0  0  0  0  0  0  0  0  0  0  0
   -3.7422   22.7268  -28.1519 H   0  0  0  0  0  0  0  0  0  0  0  0
   -3.1880   25.0580  -30.5870 H   0  0  0  0  0  0  0  0  0  0  0  0
   -8.0403   24.6723  -31.2630 H   0  0  0  0  0  0  0  0  0  0  0  0
   -9.5782   22.3872  -32.0359 H   0  0  0  0  0  0  0  0  0  0  0  0
   -9.4040   19.9174  -32.4865 H   0  0  0  0  0  0  0  0  0  0  0  0
   -6.7792   17.8443  -31.4111 H   0  0  0  0  0  0  0  0  0  0  0  0
   -8.1748   17.9550  -32.5453 H   0  0  0  0  0  0  0  0  0  0  0  0
   -7.0560   19.3900  -35.0650 H   0  0  0  0  0  0  0  0  0  0  0  0
   -5.1513   20.0411  -31.5320 H   0  0  0  0  0  0  0  0  0  0  0  0
    0.0046   25.0498  -28.3279 H   0  0  0  0  0  0  0  0  0  0  0  0
   -0.3775   24.1916  -29.7318 H   0  0  0  0  0  0  0  0  0  0  0  0
   -3.0793   25.0365  -27.1832 H   0  0  0  0  0  0  0  0  0  0  0  0
   -3.6996   24.1775  -28.4980 H   0  0  0  0  0  0  0  0  0  0  0  0
  1  2  1  0
  2  3  1  0
  3  4  1  0
  4  5  1  0
  5  6  1  0
  6  7  2  0
  6  8  1  0
  8  9  1  0
  9 10  1  0
 10 11  1  0
 10 12  2  0
  9 13  2  0
 13 14  1  0
 14 15  2  0
 15 16  1  0
 16 17  2  0
 17 18  1  0
 18 19  1  0
 19 20  2  0
 19 21  1  1
 19 22  1  0
 17 23  1  0
 23 24  2  0
  2 25  1  0
 25 26  1  0
 26 27  1  0
 27  2  1  0
 24  8  1  0
 24 14  1  0
  1 28  1  0
  1 29  1  0
  1 30  1  0
  4 31  1  0
  4 32  1  0
 11 33  1  0
 13 34  1  0
 15 35  1  0
 16 36  1  0
 18 37  1  0
 18 38  1  0
 22 39  1  0
 23 40  1  0
 25 41  1  0
 25 42  1  0
 27 43  1  0
 27 44  1  0
M  CHG  2  11  -1  21  -1
M  END
>  <UniqueID>  (42) 
42

>  <SMILES>  (42) 
CC1(OCOC(=O)n2c(C([NH-])=O)cc3ccc(C[P@](=O)([O-])O)cc32)COC1

>  <Energy>  (42) 
143.9355041318325

>  <Genealogy>  (42) 
CC1(OCOC(=O)n2c(C([NH-])=O)cc3ccc(CP(=O)([O-])O)cc32)COC1 (protonated)
CC1(OCOC(=O)n2c(C([NH-])=O)cc3ccc(C[P@](=O)([O-])O)cc32)COC1 (chirality)
CC1(OCOC(=O)n2c(C([NH-])=O)cc3ccc(C[P@](=O)([O-])O)cc32)COC1 (3D coordinates assigned)
CC1(OCOC(=O)n2c(C([NH-])=O)cc3ccc(C[P@](=O)([O-])O)cc32)COC1 (nonaromatic ring conformer: 143.9355041318325 kcal/mol)

>  <smiles>  (42) 
CC1(OCOC(=O)n2c(C(N)=O)cc3ccc(CP(=O)(O)O)cc32)COC1

>  <score_type>  (42) 
oracle

>  <origin>  (42) 
adg

>  <m_score__min__energy>  (42) 
-10.67

>  <m_primary>  (42) 
energy

$$$$
42:0
     RDKit          3D

 40 41  0  0  0  0  0  0  0  0999 V2000
   -2.7660   20.5300  -29.7360 C   0  0  0  0  0  0  0  0  0  0  0  0
   -3.4820   21.7930  -29.5330 N   0  0  0  0  0  0  0  0  0  0  0  0
   -3.7750   22.2490  -28.1650 C   0  0  0  0  0  0  0  0  0  0  0  0
   -3.7480   23.7810  -28.0560 C   0  0  0  0  0  0  0  0  0  0  0  0
   -2.3420   24.3730  -28.2150 C   0  0  0  0  0  0  0  0  0  0  0  0
   -2.2510   25.1470  -29.3820 O   0  0  0  0  0  0  0  0  0  0  0  0
   -3.9510   22.5390  -30.6760 C   0  0  0  0  0  0  0  0  0  0  0  0
   -3.1280   23.0530  -31.4800 O   0  0  0  0  0  0  0  0  0  0  0  0
   -5.3570   22.7070  -30.9140 N   0  0  0  0  0  0  0  0  0  0  0  0
   -6.0770   23.8600  -30.8570 C   0  0  0  0  0  0  0  0  0  0  0  0
   -5.5480   25.1730  -30.4180 C   0  0  0  0  0  0  0  0  0  0  0  0
   -4.2080   25.5670  -30.7200 N   0  0  0  0  0  0  0  0  0  0  0  0
   -6.2860   25.9660  -29.7760 O   0  0  0  0  0  0  0  0  0  0  0  0
   -7.4000   23.6220  -31.2330 C   0  0  0  0  0  0  0  0  0  0  0  0
   -7.4570   22.2780  -31.5370 C   0  0  0  0  0  0  0  0  0  0  0  0
   -8.5220   21.5030  -31.9840 C   0  0  0  0  0  0  0  0  0  0  0  0
   -8.2830   20.1430  -32.2440 C   0  0  0  0  0  0  0  0  0  0  0  0
   -6.9910   19.5870  -32.0590 C   0  0  0  0  0  0  0  0  0  0  0  0
   -6.7550   18.1330  -32.3500 C   0  0  0  0  0  0  0  0  0  0  0  0
   -5.9190   17.5950  -31.3880 F   0  0  0  0  0  0  0  0  0  0  0  0
   -7.9590   17.4530  -32.3410 F   0  0  0  0  0  0  0  0  0  0  0  0
   -5.9340   20.4070  -31.6060 C   0  0  0  0  0  0  0  0  0  0  0  0
   -6.2090   21.7520  -31.3400 C   0  0  0  0  0  0  0  0  0  0  0  0
   -2.5161   20.0892  -28.7597 H   0  0  0  0  0  0  0  0  0  0  0  0
   -3.4037   19.8336  -30.3003 H   0  0  0  0  0  0  0  0  0  0  0  0
   -1.8410   20.7195  -30.3003 H   0  0  0  0  0  0  0  0  0  0  0  0
   -4.7734   21.8891  -27.8759 H   0  0  0  0  0  0  0  0  0  0  0  0
   -3.0002   21.8451  -27.4968 H   0  0  0  0  0  0  0  0  0  0  0  0
   -4.3943   24.1989  -28.8419 H   0  0  0  0  0  0  0  0  0  0  0  0
   -4.1013   24.0434  -27.0479 H   0  0  0  0  0  0  0  0  0  0  0  0
   -2.1182   25.0071  -27.3445 H   0  0  0  0  0  0  0  0  0  0  0  0
   -1.6197   23.5464  -28.2857 H   0  0  0  0  0  0  0  0  0  0  0  0
   -2.2020   24.5090  -30.1420 H   0  0  0  0  0  0  0  0  0  0  0  0
   -3.5390   24.9210  -31.1910 H   0  0  0  0  0  0  0  0  0  0  0  0
   -3.8640   26.5090  -30.4300 H   0  0  0  0  0  0  0  0  0  0  0  0
   -8.2223   24.3513  -31.2774 H   0  0  0  0  0  0  0  0  0  0  0  0
   -9.5204   21.9412  -32.1295 H   0  0  0  0  0  0  0  0  0  0  0  0
   -9.1060   19.5029  -32.5946 H   0  0  0  0  0  0  0  0  0  0  0  0
   -6.2866   18.0360  -33.3405 H   0  0  0  0  0  0  0  0  0  0  0  0
   -4.9222   19.9988  -31.4663 H   0  0  0  0  0  0  0  0  0  0  0  0
  1  2  1  0
  2  3  1  0
  3  4  1  0
  4  5  1  0
  5  6  1  0
  2  7  1  0
  7  8  2  0
  7  9  1  0
  9 10  1  0
 10 11  1  0
 11 12  1  0
 11 13  2  0
 10 14  2  0
 14 15  1  0
 15 16  2  0
 16 17  1  0
 17 18  2  0
 18 19  1  0
 19 20  1  0
 19 21  1  0
 18 22  1  0
 22 23  2  0
 23  9  1  0
 23 15  1  0
  1 24  1  0
  1 25  1  0
  1 26  1  0
  3 27  1  0
  3 28  1  0
  4 29  1  0
  4 30  1  0
  5 31  1  0
  5 32  1  0
  6 33  1  0
 12 34  1  0
 12 35  1  0
 14 36  1  0
 16 37  1  0
 17 38  1  0
 19 39  1  0
 22 40  1  0
M  END
>  <UniqueID>  (43) 
43

>  <SMILES>  (43) 
CN(CCCO)C(=O)n1c(C(N)=O)cc2ccc(C(F)F)cc21

>  <Energy>  (43) 
73.1933898570106

>  <Genealogy>  (43) 
CN(CCCO)C(=O)n1c(C(N)=O)cc2ccc(C(F)F)cc21 (3D coordinates assigned)
CN(CCCO)C(=O)n1c(C(N)=O)cc2ccc(C(F)F)cc21 (optimized conformer: 73.1933898570106 kcal/mol)

>  <smiles>  (43) 
CN(CCCO)C(=O)n1c(C(N)=O)cc2ccc(C(F)F)cc21

>  <score_type>  (43) 
oracle

>  <origin>  (43) 
adg

>  <m_score__min__energy>  (43) 
-8.0700000000000003

>  <m_primary>  (43) 
energy

$$$$
44:0
     RDKit          3D

 39 40  0  0  0  0  0  0  0  0999 V2000
   -3.3890   24.2710  -27.6730 C   0  0  0  0  0  0  0  0  0  0  0  0
   -2.4240   23.8150  -28.6870 N   0  0  2  0  0  0  0  0  0  0  0  0
   -1.8590   22.4860  -28.3610 C   0  0  0  0  0  0  0  0  0  0  0  0
   -2.1030   21.4440  -29.4740 C   0  0  0  0  0  0  0  0  0  0  0  0
   -3.4460   21.5050  -29.9540 O   0  0  0  0  0  0  0  0  0  0  0  0
   -3.8720   22.4260  -30.9200 C   0  0  0  0  0  0  0  0  0  0  0  0
   -3.0310   23.0270  -31.6440 O   0  0  0  0  0  0  0  0  0  0  0  0
   -5.2710   22.7230  -31.0560 N   0  0  0  0  0  0  0  0  0  0  0  0
   -5.8850   23.9330  -30.9360 C   0  0  0  0  0  0  0  0  0  0  0  0
   -5.2440   25.1840  -30.4870 C   0  0  0  0  0  0  0  0  0  0  0  0
   -3.8730   25.4300  -30.7930 N   0  0  0  0  0  0  0  0  0  0  0  0
   -5.9040   26.0550  -29.8640 O   0  0  0  0  0  0  0  0  0  0  0  0
   -7.2430   23.8250  -31.2300 C   0  0  0  0  0  0  0  0  0  0  0  0
   -7.4440   22.4990  -31.5350 C   0  0  0  0  0  0  0  0  0  0  0  0
   -8.6010   21.8390  -31.9330 C   0  0  0  0  0  0  0  0  0  0  0  0
   -8.5100   20.4690  -32.2330 C   0  0  0  0  0  0  0  0  0  0  0  0
   -7.2720   19.7820  -32.1140 C   0  0  0  0  0  0  0  0  0  0  0  0
   -7.1620   18.3270  -32.4870 C   0  0  0  0  0  0  0  0  0  0  0  0
   -6.7680   18.1810  -33.8050 F   0  0  0  0  0  0  0  0  0  0  0  0
   -8.3840   17.7000  -32.3280 F   0  0  0  0  0  0  0  0  0  0  0  0
   -6.2320   17.7160  -31.6710 F   0  0  0  0  0  0  0  0  0  0  0  0
   -6.1150   20.4950  -31.7240 C   0  0  0  0  0  0  0  0  0  0  0  0
   -6.2400   21.8550  -31.4210 C   0  0  0  0  0  0  0  0  0  0  0  0
   -1.3640   24.7860  -28.8110 C   0  0  0  0  0  0  0  0  0  0  0  0
   -1.6240   26.0090  -28.9750 O   0  0  0  0  0  0  0  0  0  0  0  0
   -0.0360   24.3770  -28.7530 O   0  0  0  0  0  0  0  0  0  0  0  0
   -2.9835   24.0794  -26.6686 H   0  0  0  0  0  0  0  0  0  0  0  0
   -3.5685   25.3492  -27.7964 H   0  0  0  0  0  0  0  0  0  0  0  0
   -4.3360   23.7251  -27.7964 H   0  0  0  0  0  0  0  0  0  0  0  0
   -2.9160   23.7610  -29.6100 H   0  0  0  0  0  0  0  0  0  0  0  0
   -0.7746   22.5922  -28.2103 H   0  0  0  0  0  0  0  0  0  0  0  0
   -2.3632   22.1251  -27.4524 H   0  0  0  0  0  0  0  0  0  0  0  0
   -1.4145   21.6428  -30.3085 H   0  0  0  0  0  0  0  0  0  0  0  0
   -1.9279   20.4415  -29.0565 H   0  0  0  0  0  0  0  0  0  0  0  0
   -3.1160   24.8460  -30.3730 H   0  0  0  0  0  0  0  0  0  0  0  0
   -7.9939   24.6288  -31.2202 H   0  0  0  0  0  0  0  0  0  0  0  0
   -9.5594   22.3733  -32.0108 H   0  0  0  0  0  0  0  0  0  0  0  0
   -9.4061   19.9232  -32.5632 H   0  0  0  0  0  0  0  0  0  0  0  0
   -5.1389   19.9918  -31.6603 H   0  0  0  0  0  0  0  0  0  0  0  0
  1  2  1  0
  2  3  1  0
  3  4  1  0
  4  5  1  0
  5  6  1  0
  6  7  2  0
  6  8  1  0
  8  9  1  0
  9 10  1  0
 10 11  1  0
 10 12  2  0
  9 13  2  0
 13 14  1  0
 14 15  2  0
 15 16  1  0
 16 17  2  0
 17 18  1  0
 18 19  1  0
 18 20  1  0
 18 21  1  0
 17 22  1  0
 22 23  2  0
  2 24  1  0
 24 25  2  0
 24 26  1  0
 23  8  1  0
 23 14  1  0
  1 27  1  0
  1 28  1  0
  1 29  1  0
  2 30  1  6
  3 31  1  0
  3 32  1  0
  4 33  1  0
  4 34  1  0
 11 35  1  0
 13 36  1  0
 15 37  1  0
 16 38  1  0
 22 39  1  0
M  CHG  3   2   1  11  -1  26  -1
M  END
>  <UniqueID>  (44) 
44

>  <SMILES>  (44) 
C[N@H+](CCOC(=O)n1c(C([NH-])=O)cc2ccc(C(F)(F)F)cc21)C(=O)[O-]

>  <Energy>  (44) 
80.54942760366826

>  <Genealogy>  (44) 
C[NH+](CCOC(=O)n1c(C([NH-])=O)cc2ccc(C(F)(F)F)cc21)C(=O)[O-] (protonated)
C[N@H+](CCOC(=O)n1c(C([NH-])=O)cc2ccc(C(F)(F)F)cc21)C(=O)[O-] (chirality)
C[N@H+](CCOC(=O)n1c(C([NH-])=O)cc2ccc(C(F)(F)F)cc21)C(=O)[O-] (3D coordinates assigned)
C[N@H+](CCOC(=O)n1c(C([NH-])=O)cc2ccc(C(F)(F)F)cc21)C(=O)[O-] (optimized conformer: 80.54942760366826 kcal/mol)

>  <smiles>  (44) 
CN(CCOC(=O)n1c(C(N)=O)cc2ccc(C(F)(F)F)cc21)C(=O)O

>  <score_type>  (44) 
oracle

>  <origin>  (44) 
adg

>  <m_score__min__energy>  (44) 
-10.550000000000001

>  <m_primary>  (44) 
energy

$$$$
45:0
     RDKit          3D

 39 40  0  0  0  0  0  0  0  0999 V2000
   -5.8130   17.8660  -32.1200 C   0  0  0  0  0  0  0  0  0  0  0  0
   -6.1610   19.2930  -31.8240 C   0  0  0  0  0  0  0  0  0  0  0  0
   -7.5190   19.6870  -31.7140 C   0  0  0  0  0  0  0  0  0  0  0  0
   -7.8570   21.0150  -31.4020 C   0  0  0  0  0  0  0  0  0  0  0  0
   -6.8190   21.9200  -31.1990 C   0  0  0  0  0  0  0  0  0  0  0  0
   -6.8580   23.2560  -30.8620 C   0  0  0  0  0  0  0  0  0  0  0  0
   -5.5250   23.6460  -30.7520 C   0  0  0  0  0  0  0  0  0  0  0  0
   -5.0970   24.9800  -30.2890 C   0  0  0  0  0  0  0  0  0  0  0  0
   -3.9500   25.6000  -30.8650 N   0  0  0  0  0  0  0  0  0  0  0  0
   -5.7490   25.5900  -29.4030 O   0  0  0  0  0  0  0  0  0  0  0  0
   -4.6970   22.6050  -31.0420 N   0  0  0  0  0  0  0  0  0  0  0  0
   -3.2610   22.5870  -31.0190 C   0  0  0  0  0  0  0  0  0  0  0  0
   -2.6330   22.7040  -32.1070 O   0  0  0  0  0  0  0  0  0  0  0  0
   -2.5280   22.4590  -29.7770 N   0  0  0  0  0  0  0  0  0  0  0  0
   -2.5960   23.5660  -28.8070 C   0  0  0  0  0  0  0  0  0  0  0  0
   -1.4320   24.4990  -28.9590 C   0  0  0  0  0  0  0  0  0  0  0  0
   -1.6150   25.6850  -29.3410 O   0  0  0  0  0  0  0  0  0  0  0  0
   -0.1470   24.0640  -28.6670 O   0  0  0  0  0  0  0  0  0  0  0  0
   -2.0200   21.1450  -29.3240 C   0  0  1  0  0  0  0  0  0  0  0  0
   -3.0860   20.3740  -28.5320 C   0  0  0  0  0  0  0  0  0  0  0  0
   -1.4540   20.3540  -30.4730 C   0  0  0  0  0  0  0  0  0  0  0  0
   -2.2070   19.7750  -31.3020 O   0  0  0  0  0  0  0  0  0  0  0  0
   -0.0770   20.2650  -30.6280 O   0  0  0  0  0  0  0  0  0  0  0  0
   -5.5030   21.5510  -31.2860 C   0  0  0  0  0  0  0  0  0  0  0  0
   -5.1360   20.2350  -31.5900 C   0  0  0  0  0  0  0  0  0  0  0  0
   -5.6793   17.3178  -31.1758 H   0  0  0  0  0  0  0  0  0  0  0  0
   -6.6247   17.4035  -32.7008 H   0  0  0  0  0  0  0  0  0  0  0  0
   -4.8795   17.8291  -32.7008 H   0  0  0  0  0  0  0  0  0  0  0  0
   -8.3157   18.9457  -31.8745 H   0  0  0  0  0  0  0  0  0  0  0  0
   -8.9081   21.3292  -31.3208 H   0  0  0  0  0  0  0  0  0  0  0  0
   -7.7508   23.8808  -30.7120 H   0  0  0  0  0  0  0  0  0  0  0  0
   -2.9860   25.3000  -30.5970 H   0  0  0  0  0  0  0  0  0  0  0  0
   -3.5281   24.1272  -28.9692 H   0  0  0  0  0  0  0  0  0  0  0  0
   -2.5682   23.1401  -27.7932 H   0  0  0  0  0  0  0  0  0  0  0  0
   -1.1873   21.3207  -28.6271 H   0  0  0  0  0  0  0  0  0  0  0  0
   -2.9071   20.5034  -27.4544 H   0  0  0  0  0  0  0  0  0  0  0  0
   -4.0836   20.7609  -28.7871 H   0  0  0  0  0  0  0  0  0  0  0  0
   -3.0309   19.3054  -28.7871 H   0  0  0  0  0  0  0  0  0  0  0  0
   -4.0770   19.9425  -31.6451 H   0  0  0  0  0  0  0  0  0  0  0  0
  1  2  1  0
  2  3  2  0
  3  4  1  0
  4  5  2  0
  5  6  1  0
  6  7  2  0
  7  8  1  0
  8  9  1  0
  8 10  2  0
  7 11  1  0
 11 12  1  0
 12 13  2  0
 12 14  1  0
 14 15  1  0
 15 16  1  0
 16 17  2  0
 16 18  1  0
 14 19  1  0
 19 20  1  0
 19 21  1  0
 21 22  2  0
 21 23  1  0
 11 24  1  0
 24 25  2  0
 25  2  1  0
 24  5  1  0
  1 26  1  0
  1 27  1  0
  1 28  1  0
  3 29  1  0
  4 30  1  0
  6 31  1  0
  9 32  1  0
 15 33  1  0
 15 34  1  0
 19 35  1  1
 20 36  1  0
 20 37  1  0
 20 38  1  0
 25 39  1  0
M  CHG  3   9  -1  18  -1  23  -1
M  END
>  <UniqueID>  (45) 
45

>  <SMILES>  (45) 
Cc1ccc2cc(C([NH-])=O)n(C(=O)N(CC(=O)[O-])[C@@H](C)C(=O)[O-])c2c1

>  <Energy>  (45) 
77.7145286501655

>  <Genealogy>  (45) 
Cc1ccc2cc(C([NH-])=O)n(C(=O)N(CC(=O)[O-])C(C)C(=O)[O-])c2c1 (protonated)
Cc1ccc2cc(C([NH-])=O)n(C(=O)N(CC(=O)[O-])[C@@H](C)C(=O)[O-])c2c1 (chirality)
Cc1ccc2cc(C([NH-])=O)n(C(=O)N(CC(=O)[O-])[C@@H](C)C(=O)[O-])c2c1 (3D coordinates assigned)
Cc1ccc2cc(C([NH-])=O)n(C(=O)N(CC(=O)[O-])[C@@H](C)C(=O)[O-])c2c1 (optimized conformer: 77.7145286501655 kcal/mol)

>  <smiles>  (45) 
Cc1ccc2cc(C(N)=O)n(C(=O)N(CC(=O)O)C(C)C(=O)O)c2c1

>  <score_type>  (45) 
oracle

>  <origin>  (45) 
adg

>  <m_score__min__energy>  (45) 
-11.890000000000001

>  <m_primary>  (45) 
energy

$$$$
46:0
     RDKit          3D

 50 51  0  0  0  0  0  0  0  0999 V2000
   -6.2460   15.1210  -33.8300 C   0  0  0  0  0  0  0  0  0  0  0  0
   -5.1530   15.5920  -32.9660 N   0  0  0  0  0  0  0  0  0  0  0  0
   -5.6810   16.5730  -32.0010 C   0  0  0  0  0  0  0  0  0  0  0  0
   -4.5220   14.4490  -32.2700 C   0  0  0  0  0  0  0  0  0  0  0  0
   -3.0270   14.3590  -32.5930 C   0  0  0  0  0  0  0  0  0  0  0  0
   -2.7470   15.0100  -33.8210 O   0  0  0  0  0  0  0  0  0  0  0  0
   -1.4030   15.4490  -33.8820 C   0  0  0  0  0  0  0  0  0  0  0  0
   -1.3290   16.8890  -34.3960 C   0  0  0  0  0  0  0  0  0  0  0  0
   -1.9720   17.7800  -33.4870 O   0  0  0  0  0  0  0  0  0  0  0  0
   -2.3540   19.0830  -33.8300 C   0  0  0  0  0  0  0  0  0  0  0  0
   -1.5830   19.8020  -34.5210 O   0  0  0  0  0  0  0  0  0  0  0  0
   -3.6180   19.6040  -33.3740 N   0  0  0  0  0  0  0  0  0  0  0  0
   -4.8600   19.2970  -33.8460 C   0  0  0  0  0  0  0  0  0  0  0  0
   -5.1650   18.2950  -34.8810 C   0  0  0  0  0  0  0  0  0  0  0  0
   -4.4470   17.0630  -34.9400 N   0  0  0  0  0  0  0  0  0  0  0  0
   -6.1130   18.5030  -35.6830 O   0  0  0  0  0  0  0  0  0  0  0  0
   -5.8240   20.1210  -33.2780 C   0  0  0  0  0  0  0  0  0  0  0  0
   -5.1370   20.9400  -32.4120 C   0  0  0  0  0  0  0  0  0  0  0  0
   -5.6070   21.9410  -31.5670 C   0  0  0  0  0  0  0  0  0  0  0  0
   -4.6740   22.6230  -30.7700 C   0  0  0  0  0  0  0  0  0  0  0  0
   -3.2970   22.2970  -30.8360 C   0  0  0  0  0  0  0  0  0  0  0  0
   -2.3130   23.0150  -29.9560 C   0  0  0  0  0  0  0  0  0  0  0  0
   -2.9400   24.6650  -29.5190 P   0  0  0  0  0  0  0  0  0  0  0  0
   -3.8450   24.5640  -28.3120 O   0  0  0  0  0  0  0  0  0  0  0  0
   -1.6370   25.6760  -29.1570 O   0  0  0  0  0  0  0  0  0  0  0  0
   -3.8040   25.3090  -30.8200 O   0  0  0  0  0  0  0  0  0  0  0  0
   -2.8580   21.2670  -31.6950 C   0  0  0  0  0  0  0  0  0  0  0  0
   -3.8070   20.6120  -32.4900 C   0  0  0  0  0  0  0  0  0  0  0  0
   -7.0780   14.7625  -33.2061 H   0  0  0  0  0  0  0  0  0  0  0  0
   -6.5942   15.9490  -34.4650 H   0  0  0  0  0  0  0  0  0  0  0  0
   -5.8833   14.2993  -34.4650 H   0  0  0  0  0  0  0  0  0  0  0  0
   -5.4905   16.2191  -30.9770 H   0  0  0  0  0  0  0  0  0  0  0  0
   -5.1824   17.5417  -32.1529 H   0  0  0  0  0  0  0  0  0  0  0  0
   -6.7641   16.6903  -32.1529 H   0  0  0  0  0  0  0  0  0  0  0  0
   -4.6473   14.5765  -31.1846 H   0  0  0  0  0  0  0  0  0  0  0  0
   -5.0079   13.5229  -32.6109 H   0  0  0  0  0  0  0  0  0  0  0  0
   -2.4526   14.8408  -31.7881 H   0  0  0  0  0  0  0  0  0  0  0  0
   -2.7432   13.2996  -32.6777 H   0  0  0  0  0  0  0  0  0  0  0  0
   -0.9611   15.4012  -32.8758 H   0  0  0  0  0  0  0  0  0  0  0  0
   -0.8482   14.7971  -34.5728 H   0  0  0  0  0  0  0  0  0  0  0  0
   -0.2738   17.1809  -34.5029 H   0  0  0  0  0  0  0  0  0  0  0  0
   -1.8397   16.9451  -35.3686 H   0  0  0  0  0  0  0  0  0  0  0  0
   -4.6350   16.3840  -35.7110 H   0  0  0  0  0  0  0  0  0  0  0  0
   -3.7610   16.8070  -34.1950 H   0  0  0  0  0  0  0  0  0  0  0  0
   -6.9056   20.1189  -33.4781 H   0  0  0  0  0  0  0  0  0  0  0  0
   -6.6775   22.1903  -31.5249 H   0  0  0  0  0  0  0  0  0  0  0  0
   -5.0149   23.4167  -30.0889 H   0  0  0  0  0  0  0  0  0  0  0  0
   -2.1560   22.4317  -29.0367 H   0  0  0  0  0  0  0  0  0  0  0  0
   -1.3632   23.1266  -30.4996 H   0  0  0  0  0  0  0  0  0  0  0  0
   -1.7956   20.9852  -31.7391 H   0  0  0  0  0  0  0  0  0  0  0  0
  1  2  1  0
  2  3  1  0
  2  4  1  0
  4  5  1  0
  5  6  1  0
  6  7  1  0
  7  8  1  0
  8  9  1  0
  9 10  1  0
 10 11  2  0
 10 12  1  0
 12 13  1  0
 13 14  1  0
 14 15  1  0
 14 16  2  0
 13 17  2  0
 17 18  1  0
 18 19  2  0
 19 20  1  0
 20 21  2  0
 21 22  1  0
 22 23  1  0
 23 24  2  0
 23 25  1  0
 23 26  1  0
 21 27  1  0
 27 28  2  0
 28 12  1  0
 28 18  1  0
  1 29  1  0
  1 30  1  0
  1 31  1  0
  3 32  1  0
  3 33  1  0
  3 34  1  0
  4 35  1  0
  4 36  1  0
  5 37  1  0
  5 38  1  0
  7 39  1  0
  7 40  1  0
  8 41  1  0
  8 42  1  0
 15 43  1  0
 15 44  1  0
 17 45  1  0
 19 46  1  0
 20 47  1  0
 22 48  1  0
 22 49  1  0
 27 50  1  0
M  CHG  2  25  -1  26  -1
M  END
>  <UniqueID>  (46) 
46

>  <SMILES>  (46) 
CN(C)CCOCCOC(=O)n1c(C(N)=O)cc2ccc(CP(=O)([O-])[O-])cc21

>  <Energy>  (46) 
85.49333399555987

>  <Genealogy>  (46) 
CN(C)CCOCCOC(=O)n1c(C(N)=O)cc2ccc(CP(=O)([O-])[O-])cc21 (protonated)
CN(C)CCOCCOC(=O)n1c(C(N)=O)cc2ccc(CP(=O)([O-])[O-])cc21 (3D coordinates assigned)
CN(C)CCOCCOC(=O)n1c(C(N)=O)cc2ccc(CP(=O)([O-])[O-])cc21 (optimized conformer: 85.49333399555987 kcal/mol)

>  <smiles>  (46) 
CN(C)CCOCCOC(=O)n1c(C(N)=O)cc2ccc(CP(=O)(O)O)cc21

>  <score_type>  (46) 
oracle

>  <origin>  (46) 
adg

>  <m_score__min__energy>  (46) 
-11.5

>  <m_primary>  (46) 
energy

$$$$
47:0
     RDKit          3D

 37 39  0  0  0  0  0  0  0  0999 V2000
   -4.2330   23.1640  -27.5060 C   0  0  0  0  0  0  0  0  0  0  0  0
   -3.0160   23.7780  -28.1150 C   0  0  0  0  0  0  0  0  0  0  0  0
   -2.5980   24.9980  -27.8750 O   0  0  0  0  0  0  0  0  0  0  0  0
   -1.5120   25.1540  -28.5990 C   0  0  0  0  0  0  0  0  0  0  0  0
   -0.8340   26.2130  -28.6200 O   0  0  0  0  0  0  0  0  0  0  0  0
   -1.2110   24.0820  -29.2970 O   0  0  0  0  0  0  0  0  0  0  0  0
   -2.1370   23.1960  -29.0130 C   0  0  0  0  0  0  0  0  0  0  0  0
   -2.1900   21.8140  -29.5880 C   0  0  0  0  0  0  0  0  0  0  0  0
   -3.4560   21.5790  -30.2030 O   0  0  0  0  0  0  0  0  0  0  0  0
   -3.9710   22.3780  -31.2300 C   0  0  0  0  0  0  0  0  0  0  0  0
   -3.2460   22.7040  -32.2100 O   0  0  0  0  0  0  0  0  0  0  0  0
   -5.3430   22.8010  -31.1840 N   0  0  0  0  0  0  0  0  0  0  0  0
   -5.8270   24.0200  -30.8140 C   0  0  0  0  0  0  0  0  0  0  0  0
   -5.0220   25.2310  -30.5550 C   0  0  0  0  0  0  0  0  0  0  0  0
   -3.6230   25.2520  -30.8290 N   0  0  0  0  0  0  0  0  0  0  0  0
   -5.5840   26.2770  -30.1350 O   0  0  0  0  0  0  0  0  0  0  0  0
   -7.2190   24.0080  -30.7880 C   0  0  0  0  0  0  0  0  0  0  0  0
   -7.5790   22.7350  -31.1670 C   0  0  0  0  0  0  0  0  0  0  0  0
   -8.8410   22.1620  -31.2890 C   0  0  0  0  0  0  0  0  0  0  0  0
   -8.9180   20.8100  -31.6590 C   0  0  0  0  0  0  0  0  0  0  0  0
   -7.7410   20.0580  -31.9100 C   0  0  0  0  0  0  0  0  0  0  0  0
   -7.8350   18.5910  -32.2440 C   0  0  0  0  0  0  0  0  0  0  0  0
   -7.2430   18.3660  -33.4720 F   0  0  0  0  0  0  0  0  0  0  0  0
   -7.1910   17.8290  -31.2850 F   0  0  0  0  0  0  0  0  0  0  0  0
   -9.1580   18.1870  -32.3020 F   0  0  0  0  0  0  0  0  0  0  0  0
   -6.4760   20.6710  -31.7510 C   0  0  0  0  0  0  0  0  0  0  0  0
   -6.4300   22.0260  -31.4000 C   0  0  0  0  0  0  0  0  0  0  0  0
   -4.1542   23.2038  -26.4095 H   0  0  0  0  0  0  0  0  0  0  0  0
   -5.1253   23.7198  -27.8299 H   0  0  0  0  0  0  0  0  0  0  0  0
   -4.3162   22.1161  -27.8299 H   0  0  0  0  0  0  0  0  0  0  0  0
   -1.3955   21.7040  -30.3407 H   0  0  0  0  0  0  0  0  0  0  0  0
   -2.0464   21.0846  -28.7772 H   0  0  0  0  0  0  0  0  0  0  0  0
   -2.9240   25.2820  -30.0540 H   0  0  0  0  0  0  0  0  0  0  0  0
   -7.8884   24.8391  -30.5213 H   0  0  0  0  0  0  0  0  0  0  0  0
   -9.7510   22.7507  -31.1012 H   0  0  0  0  0  0  0  0  0  0  0  0
   -9.9020   20.3280  -31.7555 H   0  0  0  0  0  0  0  0  0  0  0  0
   -5.5498   20.0966  -31.8996 H   0  0  0  0  0  0  0  0  0  0  0  0
  1  2  1  0
  2  3  1  0
  3  4  1  0
  4  5  2  0
  4  6  1  0
  6  7  1  0
  7  8  1  0
  8  9  1  0
  9 10  1  0
 10 11  2  0
 10 12  1  0
 12 13  1  0
 13 14  1  0
 14 15  1  0
 14 16  2  0
 13 17  2  0
 17 18  1  0
 18 19  2  0
 19 20  1  0
 20 21  2  0
 21 22  1  0
 22 23  1  0
 22 24  1  0
 22 25  1  0
 21 26  1  0
 26 27  2  0
  7  2  2  0
 27 12  1  0
 27 18  1  0
  1 28  1  0
  1 29  1  0
  1 30  1  0
  8 31  1  0
  8 32  1  0
 15 33  1  0
 17 34  1  0
 19 35  1  0
 20 36  1  0
 26 37  1  0
M  CHG  1  15  -1
M  END
>  <UniqueID>  (47) 
47

>  <SMILES>  (47) 
Cc1oc(=O)oc1COC(=O)n1c(C([NH-])=O)cc2ccc(C(F)(F)F)cc21

>  <Energy>  (47) 
108.58243726443058

>  <Genealogy>  (47) 
Cc1oc(=O)oc1COC(=O)n1c(C([NH-])=O)cc2ccc(C(F)(F)F)cc21 (protonated)
Cc1oc(=O)oc1COC(=O)n1c(C([NH-])=O)cc2ccc(C(F)(F)F)cc21 (3D coordinates assigned)
Cc1oc(=O)oc1COC(=O)n1c(C([NH-])=O)cc2ccc(C(F)(F)F)cc21 (optimized conformer: 108.58243726443058 kcal/mol)

>  <smiles>  (47) 
Cc1oc(=O)oc1COC(=O)n1c(C(N)=O)cc2ccc(C(F)(F)F)cc21

>  <score_type>  (47) 
oracle

>  <origin>  (47) 
adg

>  <m_score__min__energy>  (47) 
-10.289999999999999

>  <m_primary>  (47) 
energy

$$$$
48:0
     RDKit          3D

 61 63  0  0  0  0  0  0  0  0999 V2000
   -0.7760   20.9830  -33.9110 C   0  0  0  0  0  0  0  0  0  0  0  0
   -1.9120   19.9730  -33.8160 C   0  0  0  0  0  0  0  0  0  0  0  0
   -1.5380   18.7300  -34.4060 O   0  0  0  0  0  0  0  0  0  0  0  0
   -1.6170   17.5040  -33.7360 C   0  0  0  0  0  0  0  0  0  0  0  0
   -1.4170   17.4400  -32.4920 O   0  0  0  0  0  0  0  0  0  0  0  0
   -1.9110   16.3520  -34.4720 O   0  0  0  0  0  0  0  0  0  0  0  0
   -2.3710   15.1270  -33.8970 C   0  0  2  0  0  0  0  0  0  0  0  0
   -1.2190   14.1310  -33.8890 C   0  0  0  0  0  0  0  0  0  0  0  0
   -3.4320   14.5910  -34.6870 O   0  0  0  0  0  0  0  0  0  0  0  0
   -4.7830   14.6500  -34.3270 C   0  0  0  0  0  0  0  0  0  0  0  0
   -5.3500   13.6370  -33.8320 O   0  0  0  0  0  0  0  0  0  0  0  0
   -5.5330   15.8640  -34.5370 N   0  0  0  0  0  0  0  0  0  0  0  0
   -6.8500   16.0610  -33.9220 C   0  0  0  0  0  0  0  0  0  0  0  0
   -6.7140   17.0710  -32.7840 C   0  0  0  0  0  0  0  0  0  0  0  0
   -6.0290   18.2820  -33.2650 N   0  0  0  0  0  0  0  0  0  0  0  0
   -6.3950   19.5680  -32.7230 C   0  0  0  0  0  0  0  0  0  0  0  0
   -7.7600   19.9490  -32.6260 C   0  0  0  0  0  0  0  0  0  0  0  0
   -8.1200   21.2010  -32.1030 C   0  0  0  0  0  0  0  0  0  0  0  0
   -7.1010   22.0570  -31.6980 C   0  0  0  0  0  0  0  0  0  0  0  0
   -7.1750   23.3170  -31.1500 C   0  0  0  0  0  0  0  0  0  0  0  0
   -5.8540   23.7050  -30.9460 C   0  0  0  0  0  0  0  0  0  0  0  0
   -5.4750   25.0430  -30.4490 C   0  0  0  0  0  0  0  0  0  0  0  0
   -4.1180   25.4880  -30.4870 N   0  0  0  0  0  0  0  0  0  0  0  0
   -6.3730   25.8350  -30.0580 O   0  0  0  0  0  0  0  0  0  0  0  0
   -4.9940   22.7200  -31.3320 N   0  0  0  0  0  0  0  0  0  0  0  0
   -3.5620   22.7000  -31.1880 C   0  0  0  0  0  0  0  0  0  0  0  0
   -2.8320   22.4340  -32.1830 O   0  0  0  0  0  0  0  0  0  0  0  0
   -2.9790   22.9900  -29.9510 O   0  0  0  0  0  0  0  0  0  0  0  0
   -1.5730   22.9730  -29.7340 C   0  0  0  0  0  0  0  0  0  0  0  0
   -1.1060   24.3220  -29.2930 C   0  0  0  0  0  0  0  0  0  0  0  0
    0.0660   24.4690  -28.8560 O   0  0  0  0  0  0  0  0  0  0  0  0
   -1.9650   25.4150  -29.3310 O   0  0  0  0  0  0  0  0  0  0  0  0
   -5.7760   21.7170  -31.7970 C   0  0  0  0  0  0  0  0  0  0  0  0
   -5.3910   20.4620  -32.2850 C   0  0  0  0  0  0  0  0  0  0  0  0
   -4.7560   18.1200  -33.9870 C   0  0  0  0  0  0  0  0  0  0  0  0
   -4.8960   17.0640  -35.0890 C   0  0  0  0  0  0  0  0  0  0  0  0
   -0.4542   21.2691  -32.8988 H   0  0  0  0  0  0  0  0  0  0  0  0
    0.0701   20.5334  -34.4514 H   0  0  0  0  0  0  0  0  0  0  0  0
   -1.1234   21.8759  -34.4514 H   0  0  0  0  0  0  0  0  0  0  0  0
   -2.1604   19.8088  -32.7571 H   0  0  0  0  0  0  0  0  0  0  0  0
   -2.7827   20.3713  -34.3575 H   0  0  0  0  0  0  0  0  0  0  0  0
   -2.7313   15.3126  -32.8744 H   0  0  0  0  0  0  0  0  0  0  0  0
   -0.9458   13.8948  -32.8500 H   0  0  0  0  0  0  0  0  0  0  0  0
   -1.5270   13.2100  -34.4056 H   0  0  0  0  0  0  0  0  0  0  0  0
   -0.3522   14.5688  -34.4056 H   0  0  0  0  0  0  0  0  0  0  0  0
   -7.5559   16.4436  -34.6739 H   0  0  0  0  0  0  0  0  0  0  0  0
   -7.2274   15.1047  -33.5308 H   0  0  0  0  0  0  0  0  0  0  0  0
   -7.7145   17.3407  -32.4148 H   0  0  0  0  0  0  0  0  0  0  0  0
   -6.1249   16.6217  -31.9709 H   0  0  0  0  0  0  0  0  0  0  0  0
   -8.5437   19.2552  -32.9645 H   0  0  0  0  0  0  0  0  0  0  0  0
   -9.1761   21.4963  -32.0161 H   0  0  0  0  0  0  0  0  0  0  0  0
   -8.0834   23.8939  -30.9220 H   0  0  0  0  0  0  0  0  0  0  0  0
   -3.3770   24.9270  -30.9610 H   0  0  0  0  0  0  0  0  0  0  0  0
   -3.8690   26.4320  -30.1170 H   0  0  0  0  0  0  0  0  0  0  0  0
   -1.3337   22.2328  -28.9563 H   0  0  0  0  0  0  0  0  0  0  0  0
   -1.0666   22.7056  -30.6732 H   0  0  0  0  0  0  0  0  0  0  0  0
   -4.3292   20.1776  -32.3267 H   0  0  0  0  0  0  0  0  0  0  0  0
   -4.4718   19.0811  -34.4403 H   0  0  0  0  0  0  0  0  0  0  0  0
   -3.9825   17.7931  -33.2765 H   0  0  0  0  0  0  0  0  0  0  0  0
   -5.5148   17.4653  -35.9051 H   0  0  0  0  0  0  0  0  0  0  0  0
   -3.9001   16.8050  -35.4777 H   0  0  0  0  0  0  0  0  0  0  0  0
  1  2  1  0
  2  3  1  0
  3  4  1  0
  4  5  2  0
  4  6  1  0
  6  7  1  0
  7  8  1  0
  7  9  1  0
  9 10  1  0
 10 11  2  0
 10 12  1  0
 12 13  1  0
 13 14  1  0
 14 15  1  0
 15 16  1  0
 16 17  2  0
 17 18  1  0
 18 19  2  0
 19 20  1  0
 20 21  2  0
 21 22  1  0
 22 23  1  0
 22 24  2  0
 21 25  1  0
 25 26  1  0
 26 27  2  0
 26 28  1  0
 28 29  1  0
 29 30  1  0
 30 31  2  0
 30 32  1  0
 25 33  1  0
 33 34  2  0
 15 35  1  0
 35 36  1  0
 36 12  1  0
 34 16  1  0
 33 19  1  0
  1 37  1  0
  1 38  1  0
  1 39  1  0
  2 40  1  0
  2 41  1  0
  7 42  1  1
  8 43  1  0
  8 44  1  0
  8 45  1  0
 13 46  1  0
 13 47  1  0
 14 48  1  0
 14 49  1  0
 17 50  1  0
 18 51  1  0
 20 52  1  0
 23 53  1  0
 23 54  1  0
 29 55  1  0
 29 56  1  0
 34 57  1  0
 35 58  1  0
 35 59  1  0
 36 60  1  0
 36 61  1  0
M  CHG  1  32  -1
M  END
>  <UniqueID>  (48) 
48

>  <SMILES>  (48) 
CCOC(=O)O[C@H](C)OC(=O)N1CCN(c2ccc3cc(C(N)=O)n(C(=O)OCC(=O)[O-])c3c2)CC1

>  <Energy>  (48) 
94.44710006950325

>  <Genealogy>  (48) 
CCOC(=O)OC(C)OC(=O)N1CCN(c2ccc3cc(C(N)=O)n(C(=O)OCC(=O)[O-])c3c2)CC1 (protonated)
CCOC(=O)O[C@H](C)OC(=O)N1CCN(c2ccc3cc(C(N)=O)n(C(=O)OCC(=O)[O-])c3c2)CC1 (chirality)
CCOC(=O)O[C@H](C)OC(=O)N1CCN(c2ccc3cc(C(N)=O)n(C(=O)OCC(=O)[O-])c3c2)CC1 (3D coordinates assigned)
CCOC(=O)O[C@H](C)OC(=O)N1CCN(c2ccc3cc(C(N)=O)n(C(=O)OCC(=O)[O-])c3c2)CC1 (nonaromatic ring conformer: 94.44710006950325 kcal/mol)

>  <smiles>  (48) 
CCOC(=O)OC(C)OC(=O)N1CCN(c2ccc3cc(C(N)=O)n(C(=O)OCC(=O)O)c3c2)CC1

>  <score_type>  (48) 
oracle

>  <origin>  (48) 
adg

>  <m_score__min__energy>  (48) 
-10.9

>  <m_primary>  (48) 
energy

$$$$
49:0
     RDKit          3D

 47 49  0  0  0  0  0  0  0  0999 V2000
   -4.2750   23.1620  -28.0420 C   0  0  0  0  0  0  0  0  0  0  0  0
   -3.1320   23.4520  -28.9260 N   0  0  1  0  0  0  0  0  0  0  0  0
   -1.8680   23.5740  -28.1670 C   0  0  0  0  0  0  0  0  0  0  0  0
   -1.0490   24.7430  -28.6320 C   0  0  0  0  0  0  0  0  0  0  0  0
   -1.5720   25.6380  -29.3460 O   0  0  0  0  0  0  0  0  0  0  0  0
    0.2820   24.8580  -28.2480 O   0  0  0  0  0  0  0  0  0  0  0  0
   -3.0020   22.3990  -29.9130 C   0  0  0  0  0  0  0  0  0  0  0  0
   -2.3490   21.3540  -29.6360 O   0  0  0  0  0  0  0  0  0  0  0  0
   -3.5950   22.5310  -31.2620 C   0  0  0  0  0  0  0  0  0  0  0  0
   -2.8530   22.5540  -32.2800 O   0  0  0  0  0  0  0  0  0  0  0  0
   -5.0180   22.6350  -31.4220 N   0  0  0  0  0  0  0  0  0  0  0  0
   -5.8260   23.6700  -31.0580 C   0  0  0  0  0  0  0  0  0  0  0  0
   -5.3750   24.9630  -30.5030 C   0  0  0  0  0  0  0  0  0  0  0  0
   -3.9950   25.3170  -30.5580 N   0  0  0  0  0  0  0  0  0  0  0  0
   -6.1920   25.7520  -29.9590 O   0  0  0  0  0  0  0  0  0  0  0  0
   -7.1590   23.3660  -31.3320 C   0  0  0  0  0  0  0  0  0  0  0  0
   -7.1410   22.1010  -31.8770 C   0  0  0  0  0  0  0  0  0  0  0  0
   -8.1880   21.2970  -32.3170 C   0  0  0  0  0  0  0  0  0  0  0  0
   -7.8760   20.0180  -32.8100 C   0  0  0  0  0  0  0  0  0  0  0  0
   -6.5310   19.5650  -32.8500 C   0  0  0  0  0  0  0  0  0  0  0  0
   -6.2180   18.2460  -33.3380 N   0  0  0  0  0  0  0  0  0  0  0  0
   -5.8430   18.0340  -34.7420 C   0  0  0  0  0  0  0  0  0  0  0  0
   -4.6920   17.0070  -34.8550 C   0  0  0  0  0  0  0  0  0  0  0  0
   -4.4300   16.3020  -33.6500 O   0  0  0  0  0  0  0  0  0  0  0  0
   -5.6380   15.8740  -33.0560 C   0  0  0  0  0  0  0  0  0  0  0  0
   -6.3660   17.0800  -32.4600 C   0  0  0  0  0  0  0  0  0  0  0  0
   -5.4990   20.4080  -32.3810 C   0  0  0  0  0  0  0  0  0  0  0  0
   -5.8380   21.6830  -31.9180 C   0  0  0  0  0  0  0  0  0  0  0  0
   -3.9564   23.2428  -26.9923 H   0  0  0  0  0  0  0  0  0  0  0  0
   -5.0817   23.8839  -28.2370 H   0  0  0  0  0  0  0  0  0  0  0  0
   -4.6400   22.1428  -28.2370 H   0  0  0  0  0  0  0  0  0  0  0  0
   -3.3280   24.3620  -29.4070 H   0  0  0  0  0  0  0  0  0  0  0  0
   -2.1043   23.7064  -27.1009 H   0  0  0  0  0  0  0  0  0  0  0  0
   -1.2809   22.6584  -28.3312 H   0  0  0  0  0  0  0  0  0  0  0  0
   -3.5010   25.6850  -29.7150 H   0  0  0  0  0  0  0  0  0  0  0  0
   -8.0384   24.0016  -31.1513 H   0  0  0  0  0  0  0  0  0  0  0  0
   -9.2286   21.6516  -32.2802 H   0  0  0  0  0  0  0  0  0  0  0  0
   -8.6824   19.3613  -33.1685 H   0  0  0  0  0  0  0  0  0  0  0  0
   -6.7164   17.6590  -35.2957 H   0  0  0  0  0  0  0  0  0  0  0  0
   -5.5035   18.9913  -35.1643 H   0  0  0  0  0  0  0  0  0  0  0  0
   -4.9551   16.2761  -35.6338 H   0  0  0  0  0  0  0  0  0  0  0  0
   -3.7810   17.5735  -35.0983 H   0  0  0  0  0  0  0  0  0  0  0  0
   -6.2745   15.4010  -33.8184 H   0  0  0  0  0  0  0  0  0  0  0  0
   -5.4188   15.1469  -32.2602 H   0  0  0  0  0  0  0  0  0  0  0  0
   -7.4342   16.8415  -32.3497 H   0  0  0  0  0  0  0  0  0  0  0  0
   -5.9297   17.3129  -31.4775 H   0  0  0  0  0  0  0  0  0  0  0  0
   -4.4525   20.0690  -32.3801 H   0  0  0  0  0  0  0  0  0  0  0  0
  1  2  1  0
  2  3  1  0
  3  4  1  0
  4  5  2  0
  4  6  1  0
  2  7  1  0
  7  8  2  0
  7  9  1  0
  9 10  2  0
  9 11  1  0
 11 12  1  0
 12 13  1  0
 13 14  1  0
 13 15  2  0
 12 16  2  0
 16 17  1  0
 17 18  2  0
 18 19  1  0
 19 20  2  0
 20 21  1  0
 21 22  1  0
 22 23  1  0
 23 24  1  0
 24 25  1  0
 25 26  1  0
 20 27  1  0
 27 28  2  0
 28 11  1  0
 28 17  1  0
 26 21  1  0
  1 29  1  0
  1 30  1  0
  1 31  1  0
  2 32  1  6
  3 33  1  0
  3 34  1  0
 14 35  1  0
 16 36  1  0
 18 37  1  0
 19 38  1  0
 22 39  1  0
 22 40  1  0
 23 41  1  0
 23 42  1  0
 25 43  1  0
 25 44  1  0
 26 45  1  0
 26 46  1  0
 27 47  1  0
M  CHG  3   2   1   6  -1  14  -1
M  END
>  <UniqueID>  (49) 
49

>  <SMILES>  (49) 
C[N@@H+](CC(=O)[O-])C(=O)C(=O)n1c(C([NH-])=O)cc2ccc(N3CCOCC3)cc21

>  <Energy>  (49) 
99.43686476017521

>  <Genealogy>  (49) 
C[NH+](CC(=O)[O-])C(=O)C(=O)n1c(C([NH-])=O)cc2ccc(N3CCOCC3)cc21 (protonated)
C[N@@H+](CC(=O)[O-])C(=O)C(=O)n1c(C([NH-])=O)cc2ccc(N3CCOCC3)cc21 (chirality)
C[N@@H+](CC(=O)[O-])C(=O)C(=O)n1c(C([NH-])=O)cc2ccc(N3CCOCC3)cc21 (3D coordinates assigned)
C[N@@H+](CC(=O)[O-])C(=O)C(=O)n1c(C([NH-])=O)cc2ccc(N3CCOCC3)cc21 (nonaromatic ring conformer: 99.43686476017521 kcal/mol)

>  <smiles>  (49) 
CN(CC(=O)O)C(=O)C(=O)n1c(C(N)=O)cc2ccc(N3CCOCC3)cc21

>  <score_type>  (49) 
oracle

>  <origin>  (49) 
adg

>  <m_score__min__energy>  (49) 
-12.01

>  <m_primary>  (49) 
energy

$$$$
50:0
     RDKit          3D

 31 32  0  0  0  0  0  0  0  0999 V2000
   -6.6890   23.5660  -31.5460 C   0  0  0  0  0  0  0  0  0  0  0  0
   -6.5000   22.0850  -31.4620 C   0  0  0  0  0  0  0  0  0  0  0  0
   -7.3590   21.3910  -30.8560 O   0  0  0  0  0  0  0  0  0  0  0  0
   -5.3690   21.4440  -32.0740 N   0  0  0  0  0  0  0  0  0  0  0  0
   -5.3930   20.4470  -33.0030 C   0  0  0  0  0  0  0  0  0  0  0  0
   -6.5990   19.9200  -33.6730 C   0  0  0  0  0  0  0  0  0  0  0  0
   -7.8980   20.0800  -33.0990 N   0  0  0  0  0  0  0  0  0  0  0  0
   -6.4880   19.3600  -34.7960 O   0  0  0  0  0  0  0  0  0  0  0  0
   -4.1060   19.9900  -33.2670 C   0  0  0  0  0  0  0  0  0  0  0  0
   -3.2800   20.7460  -32.4680 C   0  0  0  0  0  0  0  0  0  0  0  0
   -1.8970   20.7010  -32.3150 C   0  0  0  0  0  0  0  0  0  0  0  0
   -1.3090   21.5720  -31.3830 C   0  0  0  0  0  0  0  0  0  0  0  0
   -2.1100   22.4480  -30.6100 C   0  0  0  0  0  0  0  0  0  0  0  0
   -1.4690   23.3880  -29.6290 C   0  0  0  0  0  0  0  0  0  0  0  0
   -2.5550   24.8150  -29.3230 P   0  0  0  0  0  0  0  0  0  0  0  0
   -3.4710   24.5190  -28.1570 O   0  0  0  0  0  0  0  0  0  0  0  0
   -1.6170   26.1780  -28.9690 O   0  0  0  0  0  0  0  0  0  0  0  0
   -3.4830   25.1180  -30.7030 O   0  0  0  0  0  0  0  0  0  0  0  0
   -3.5100   22.4680  -30.7960 C   0  0  0  0  0  0  0  0  0  0  0  0
   -4.0670   21.6120  -31.7520 C   0  0  0  0  0  0  0  0  0  0  0  0
   -6.7427   23.9869  -30.5311 H   0  0  0  0  0  0  0  0  0  0  0  0
   -5.8407   24.0139  -32.0843 H   0  0  0  0  0  0  0  0  0  0  0  0
   -7.6226   23.7866  -32.0843 H   0  0  0  0  0  0  0  0  0  0  0  0
   -8.0530   20.6990  -32.2730 H   0  0  0  0  0  0  0  0  0  0  0  0
   -8.7310   19.6530  -33.5630 H   0  0  0  0  0  0  0  0  0  0  0  0
   -3.8114   19.1934  -33.9661 H   0  0  0  0  0  0  0  0  0  0  0  0
   -1.2836   20.0048  -32.9058 H   0  0  0  0  0  0  0  0  0  0  0  0
   -0.2168   21.5739  -31.2522 H   0  0  0  0  0  0  0  0  0  0  0  0
   -1.2902   22.8580  -28.6818 H   0  0  0  0  0  0  0  0  0  0  0  0
   -0.5158   23.7457  -30.0455 H   0  0  0  0  0  0  0  0  0  0  0  0
   -4.1472   23.1407  -30.2032 H   0  0  0  0  0  0  0  0  0  0  0  0
  1  2  1  0
  2  3  2  0
  2  4  1  0
  4  5  1  0
  5  6  1  0
  6  7  1  0
  6  8  2  0
  5  9  2  0
  9 10  1  0
 10 11  2  0
 11 12  1  0
 12 13  2  0
 13 14  1  0
 14 15  1  0
 15 16  2  0
 15 17  1  0
 15 18  1  0
 13 19  1  0
 19 20  2  0
 20  4  1  0
 20 10  1  0
  1 21  1  0
  1 22  1  0
  1 23  1  0
  7 24  1  0
  7 25  1  0
  9 26  1  0
 11 27  1  0
 12 28  1  0
 14 29  1  0
 14 30  1  0
 19 31  1  0
M  CHG  2  17  -1  18  -1
M  END
>  <UniqueID>  (50) 
50

>  <SMILES>  (50) 
CC(=O)n1c(C(N)=O)cc2ccc(CP(=O)([O-])[O-])cc21

>  <Energy>  (50) 
65.52703532642833

>  <Genealogy>  (50) 
CC(=O)n1c(C(N)=O)cc2ccc(CP(=O)([O-])[O-])cc21 (protonated)
CC(=O)n1c(C(N)=O)cc2ccc(CP(=O)([O-])[O-])cc21 (3D coordinates assigned)
CC(=O)n1c(C(N)=O)cc2ccc(CP(=O)([O-])[O-])cc21 (optimized conformer: 65.52703532642833 kcal/mol)

>  <smiles>  (50) 
CC(=O)n1c(C(N)=O)cc2ccc(CP(=O)(O)O)cc21

>  <score_type>  (50) 
oracle

>  <origin>  (50) 
adg

>  <m_score__min__energy>  (50) 
-11.970000000000001

>  <m_primary>  (50) 
energy

$$$$
51:0
     RDKit          3D

 49 50  0  0  0  0  0  0  0  0999 V2000
   -5.8580   16.0420  -33.9300 C   0  0  0  0  0  0  0  0  0  0  0  0
   -5.3100   16.9730  -34.8370 O   0  0  0  0  0  0  0  0  0  0  0  0
   -5.7710   18.2780  -34.5430 C   0  0  0  0  0  0  0  0  0  0  0  0
   -6.8480   18.2250  -33.4560 C   0  0  0  0  0  0  0  0  0  0  0  0
   -7.0310   19.5780  -32.8230 C   0  0  0  0  0  0  0  0  0  0  0  0
   -8.3330   20.0670  -32.5450 C   0  0  0  0  0  0  0  0  0  0  0  0
   -8.5110   21.3200  -31.9360 C   0  0  0  0  0  0  0  0  0  0  0  0
   -7.3740   22.0490  -31.5970 C   0  0  0  0  0  0  0  0  0  0  0  0
   -7.2570   23.2930  -31.0180 C   0  0  0  0  0  0  0  0  0  0  0  0
   -5.8860   23.5270  -30.9170 C   0  0  0  0  0  0  0  0  0  0  0  0
   -5.2910   24.7260  -30.2820 C   0  0  0  0  0  0  0  0  0  0  0  0
   -5.8210   25.2490  -29.0630 N   0  0  0  0  0  0  0  0  0  0  0  0
   -4.2910   25.2850  -30.8040 O   0  0  0  0  0  0  0  0  0  0  0  0
   -5.1860   22.4670  -31.4100 N   0  0  0  0  0  0  0  0  0  0  0  0
   -3.7600   22.3340  -31.5250 C   0  0  0  0  0  0  0  0  0  0  0  0
   -3.2720   21.6970  -32.4980 O   0  0  0  0  0  0  0  0  0  0  0  0
   -2.9030   22.9330  -30.5410 N   0  0  0  0  0  0  0  0  0  0  0  0
   -1.4930   22.6950  -30.4480 C   0  0  0  0  0  0  0  0  0  0  0  0
   -0.9250   21.9020  -31.2470 O   0  0  0  0  0  0  0  0  0  0  0  0
   -0.7650   23.3510  -29.4450 O   0  0  0  0  0  0  0  0  0  0  0  0
   -1.1840   23.5600  -28.0880 C   0  0  0  0  0  0  0  0  0  0  0  0
    0.0870   23.6460  -27.2280 C   0  0  0  0  0  0  0  0  0  0  0  0
   -1.9620   24.8840  -27.9580 C   0  0  0  0  0  0  0  0  0  0  0  0
   -2.0390   22.3760  -27.5950 C   0  0  0  0  0  0  0  0  0  0  0  0
   -6.1090   21.5740  -31.8280 C   0  0  0  0  0  0  0  0  0  0  0  0
   -5.9010   20.3420  -32.4560 C   0  0  0  0  0  0  0  0  0  0  0  0
   -5.6622   16.3747  -32.9000 H   0  0  0  0  0  0  0  0  0  0  0  0
   -6.9436   15.9682  -34.0914 H   0  0  0  0  0  0  0  0  0  0  0  0
   -5.3956   15.0571  -34.0914 H   0  0  0  0  0  0  0  0  0  0  0  0
   -4.9281   18.8904  -34.1900 H   0  0  0  0  0  0  0  0  0  0  0  0
   -6.2010   18.7208  -35.4535 H   0  0  0  0  0  0  0  0  0  0  0  0
   -7.7995   17.9049  -33.9056 H   0  0  0  0  0  0  0  0  0  0  0  0
   -6.5334   17.5111  -32.6805 H   0  0  0  0  0  0  0  0  0  0  0  0
   -9.2113   19.4594  -32.8087 H   0  0  0  0  0  0  0  0  0  0  0  0
   -9.5179   21.7135  -31.7330 H   0  0  0  0  0  0  0  0  0  0  0  0
   -8.0722   23.9606  -30.7021 H   0  0  0  0  0  0  0  0  0  0  0  0
   -6.6860   24.8550  -28.6320 H   0  0  0  0  0  0  0  0  0  0  0  0
   -5.3690   26.0710  -28.6070 H   0  0  0  0  0  0  0  0  0  0  0  0
   -3.3320   23.5790  -29.8410 H   0  0  0  0  0  0  0  0  0  0  0  0
   -0.1888   23.6273  -26.1633 H   0  0  0  0  0  0  0  0  0  0  0  0
    0.7403   22.7900  -27.4526 H   0  0  0  0  0  0  0  0  0  0  0  0
    0.6191   24.5822  -27.4526 H   0  0  0  0  0  0  0  0  0  0  0  0
   -2.1028   25.1236  -26.8937 H   0  0  0  0  0  0  0  0  0  0  0  0
   -1.3949   25.6917  -28.4438 H   0  0  0  0  0  0  0  0  0  0  0  0
   -2.9436   24.7817  -28.4438 H   0  0  0  0  0  0  0  0  0  0  0  0
   -2.0482   22.3633  -26.4951 H   0  0  0  0  0  0  0  0  0  0  0  0
   -3.0676   22.4857  -27.9690 H   0  0  0  0  0  0  0  0  0  0  0  0
   -1.6113   21.4341  -27.9690 H   0  0  0  0  0  0  0  0  0  0  0  0
   -4.8833   19.9771  -32.6590 H   0  0  0  0  0  0  0  0  0  0  0  0
  1  2  1  0
  2  3  1  0
  3  4  1  0
  4  5  1  0
  5  6  2  0
  6  7  1  0
  7  8  2  0
  8  9  1  0
  9 10  2  0
 10 11  1  0
 11 12  1  0
 11 13  2  0
 10 14  1  0
 14 15  1  0
 15 16  2  0
 15 17  1  0
 17 18  1  0
 18 19  2  0
 18 20  1  0
 20 21  1  0
 21 22  1  0
 21 23  1  0
 21 24  1  0
 14 25  1  0
 25 26  2  0
 26  5  1  0
 25  8  1  0
  1 27  1  0
  1 28  1  0
  1 29  1  0
  3 30  1  0
  3 31  1  0
  4 32  1  0
  4 33  1  0
  6 34  1  0
  7 35  1  0
  9 36  1  0
 12 37  1  0
 12 38  1  0
 17 39  1  0
 22 40  1  0
 22 41  1  0
 22 42  1  0
 23 43  1  0
 23 44  1  0
 23 45  1  0
 24 46  1  0
 24 47  1  0
 24 48  1  0
 26 49  1  0
M  END
>  <UniqueID>  (51) 
51

>  <SMILES>  (51) 
COCCc1ccc2cc(C(N)=O)n(C(=O)NC(=O)OC(C)(C)C)c2c1

>  <Energy>  (51) 
81.92505642291283

>  <Genealogy>  (51) 
COCCc1ccc2cc(C(N)=O)n(C(=O)NC(=O)OC(C)(C)C)c2c1 (3D coordinates assigned)
COCCc1ccc2cc(C(N)=O)n(C(=O)NC(=O)OC(C)(C)C)c2c1 (optimized conformer: 81.92505642291283 kcal/mol)

>  <smiles>  (51) 
COCCc1ccc2cc(C(N)=O)n(C(=O)NC(=O)OC(C)(C)C)c2c1

>  <score_type>  (51) 
oracle

>  <origin>  (51) 
adg

>  <m_score__min__energy>  (51) 
-8.8900000000000006

>  <m_primary>  (51) 
energy

$$$$
52:0
     RDKit          3D

 57 59  0  0  0  0  0  0  0  0999 V2000
   -2.5050   17.0770  -33.2390 C   0  0  0  0  0  0  0  0  0  0  0  0
   -3.7830   17.5120  -33.7900 N   0  0  0  0  0  0  0  0  0  0  0  0
   -4.1670   18.8950  -34.0040 C   0  0  0  0  0  0  0  0  0  0  0  0
   -5.5820   18.8450  -34.6110 C   0  0  0  0  0  0  0  0  0  0  0  0
   -6.1110   17.4050  -34.4210 C   0  0  2  0  0  0  0  0  0  0  0  0
   -7.1940   17.3500  -33.3190 C   0  0  0  0  0  0  0  0  0  0  0  0
   -6.7740   18.0600  -32.0960 N   0  0  0  0  0  0  0  0  0  0  0  0
   -6.1380   17.2790  -31.0280 C   0  0  0  0  0  0  0  0  0  0  0  0
   -6.9740   19.4940  -31.9360 C   0  0  0  0  0  0  0  0  0  0  0  0
   -8.2640   20.0660  -32.1210 C   0  0  0  0  0  0  0  0  0  0  0  0
   -8.4830   21.4400  -31.9280 C   0  0  0  0  0  0  0  0  0  0  0  0
   -7.4040   22.2270  -31.5450 C   0  0  0  0  0  0  0  0  0  0  0  0
   -7.3560   23.5680  -31.2440 C   0  0  0  0  0  0  0  0  0  0  0  0
   -6.0350   23.8140  -30.8910 C   0  0  0  0  0  0  0  0  0  0  0  0
   -5.5590   25.1380  -30.4620 C   0  0  0  0  0  0  0  0  0  0  0  0
   -4.2280   25.5620  -30.7580 N   0  0  0  0  0  0  0  0  0  0  0  0
   -6.3120   25.8760  -29.7760 O   0  0  0  0  0  0  0  0  0  0  0  0
   -5.2800   22.6840  -30.9980 N   0  0  0  0  0  0  0  0  0  0  0  0
   -3.8440   22.5810  -30.8830 C   0  0  0  0  0  0  0  0  0  0  0  0
   -3.2050   21.8140  -31.6520 O   0  0  0  0  0  0  0  0  0  0  0  0
   -3.1580   23.3750  -29.9510 O   0  0  0  0  0  0  0  0  0  0  0  0
   -2.2350   22.9180  -28.9540 C   0  0  0  0  0  0  0  0  0  0  0  0
   -2.9600   21.8460  -28.1250 C   0  0  0  0  0  0  0  0  0  0  0  0
   -0.9920   22.2850  -29.6100 C   0  0  0  0  0  0  0  0  0  0  0  0
   -1.8280   24.0750  -28.0220 C   0  0  0  0  0  0  0  0  0  0  0  0
   -6.1450   21.7130  -31.3840 C   0  0  0  0  0  0  0  0  0  0  0  0
   -5.9000   20.3450  -31.5630 C   0  0  0  0  0  0  0  0  0  0  0  0
   -4.8820   16.6610  -34.0510 C   0  0  0  0  0  0  0  0  0  0  0  0
   -4.8040   15.4060  -33.9930 O   0  0  0  0  0  0  0  0  0  0  0  0
   -2.5546   17.0939  -32.1402 H   0  0  0  0  0  0  0  0  0  0  0  0
   -2.2875   16.0542  -33.5805 H   0  0  0  0  0  0  0  0  0  0  0  0
   -1.7087   17.7547  -33.5805 H   0  0  0  0  0  0  0  0  0  0  0  0
   -4.1780   19.4421  -33.0498 H   0  0  0  0  0  0  0  0  0  0  0  0
   -3.4592   19.4154  -34.6660 H   0  0  0  0  0  0  0  0  0  0  0  0
   -6.2394   19.5592  -34.0936 H   0  0  0  0  0  0  0  0  0  0  0  0
   -5.5590   19.1147  -35.6772 H   0  0  0  0  0  0  0  0  0  0  0  0
   -6.6084   16.9877  -35.3089 H   0  0  0  0  0  0  0  0  0  0  0  0
   -8.1142   17.8156  -33.7017 H   0  0  0  0  0  0  0  0  0  0  0  0
   -7.3609   16.2943  -33.0588 H   0  0  0  0  0  0  0  0  0  0  0  0
   -6.4556   17.6690  -30.0497 H   0  0  0  0  0  0  0  0  0  0  0  0
   -6.4374   16.2243  -31.1170 H   0  0  0  0  0  0  0  0  0  0  0  0
   -5.0445   17.3585  -31.1170 H   0  0  0  0  0  0  0  0  0  0  0  0
   -9.1036   19.4213  -32.4201 H   0  0  0  0  0  0  0  0  0  0  0  0
   -9.4802   21.8803  -32.0759 H   0  0  0  0  0  0  0  0  0  0  0  0
   -8.1850   24.2903  -31.2759 H   0  0  0  0  0  0  0  0  0  0  0  0
   -3.5710   24.9260  -31.2600 H   0  0  0  0  0  0  0  0  0  0  0  0
   -3.8690   26.4760  -30.4080 H   0  0  0  0  0  0  0  0  0  0  0  0
   -2.8196   22.0536  -27.0539 H   0  0  0  0  0  0  0  0  0  0  0  0
   -4.0336   21.8617  -28.3639 H   0  0  0  0  0  0  0  0  0  0  0  0
   -2.5457   20.8554  -28.3639 H   0  0  0  0  0  0  0  0  0  0  0  0
   -0.3030   21.9341  -28.8276 H   0  0  0  0  0  0  0  0  0  0  0  0
   -1.3005   21.4342  -30.2353 H   0  0  0  0  0  0  0  0  0  0  0  0
   -0.4854   23.0349  -30.2353 H   0  0  0  0  0  0  0  0  0  0  0  0
   -1.9393   23.7585  -26.9744 H   0  0  0  0  0  0  0  0  0  0  0  0
   -0.7798   24.3483  -28.2130 H   0  0  0  0  0  0  0  0  0  0  0  0
   -2.4743   24.9444  -28.2130 H   0  0  0  0  0  0  0  0  0  0  0  0
   -4.8895   19.9358  -31.4166 H   0  0  0  0  0  0  0  0  0  0  0  0
  1  2  1  0
  2  3  1  0
  3  4  1  0
  4  5  1  0
  5  6  1  0
  6  7  1  0
  7  8  1  0
  7  9  1  0
  9 10  2  0
 10 11  1  0
 11 12  2  0
 12 13  1  0
 13 14  2  0
 14 15  1  0
 15 16  1  0
 15 17  2  0
 14 18  1  0
 18 19  1  0
 19 20  2  0
 19 21  1  0
 21 22  1  0
 22 23  1  0
 22 24  1  0
 22 25  1  0
 18 26  1  0
 26 27  2  0
  5 28  1  0
 28 29  2  0
 28  2  1  0
 27  9  1  0
 26 12  1  0
  1 30  1  0
  1 31  1  0
  1 32  1  0
  3 33  1  0
  3 34  1  0
  4 35  1  0
  4 36  1  0
  5 37  1  6
  6 38  1  0
  6 39  1  0
  8 40  1  0
  8 41  1  0
  8 42  1  0
 10 43  1  0
 11 44  1  0
 13 45  1  0
 16 46  1  0
 16 47  1  0
 23 48  1  0
 23 49  1  0
 23 50  1  0
 24 51  1  0
 24 52  1  0
 24 53  1  0
 25 54  1  0
 25 55  1  0
 25 56  1  0
 27 57  1  0
M  END
>  <UniqueID>  (52) 
52

>  <SMILES>  (52) 
CN1CC[C@H](CN(C)c2ccc3cc(C(N)=O)n(C(=O)OC(C)(C)C)c3c2)C1=O

>  <Energy>  (52) 
99.0505241446661

>  <Genealogy>  (52) 
CN1CC[C@H](CN(C)c2ccc3cc(C(N)=O)n(C(=O)OC(C)(C)C)c3c2)C1=O (chirality)
CN1CC[C@H](CN(C)c2ccc3cc(C(N)=O)n(C(=O)OC(C)(C)C)c3c2)C1=O (3D coordinates assigned)
CN1CC[C@H](CN(C)c2ccc3cc(C(N)=O)n(C(=O)OC(C)(C)C)c3c2)C1=O (nonaromatic ring conformer: 99.0505241446661 kcal/mol)

>  <smiles>  (52) 
CN1CCC(CN(C)c2ccc3cc(C(N)=O)n(C(=O)OC(C)(C)C)c3c2)C1=O

>  <score_type>  (52) 
oracle

>  <origin>  (52) 
adg

>  <m_score__min__energy>  (52) 
-9.5800000000000001

>  <m_primary>  (52) 
energy

$$$$
53:0
     RDKit          3D

 55 58  0  0  0  0  0  0  0  0999 V2000
   -5.8140   21.3160  -31.6630 C   0  0  0  0  0  0  0  0  0  0  0  0
   -5.5120   22.7940  -31.3330 C   0  0  0  0  0  0  0  0  0  0  0  0
   -5.8320   23.0440  -29.8460 C   0  0  0  0  0  0  0  0  0  0  0  0
   -6.3750   23.7370  -32.1950 C   0  0  0  0  0  0  0  0  0  0  0  0
   -4.1190   23.0910  -31.5200 O   0  0  0  0  0  0  0  0  0  0  0  0
   -3.2800   23.7630  -30.6150 C   0  0  0  0  0  0  0  0  0  0  0  0
   -3.4560   24.9860  -30.3650 O   0  0  0  0  0  0  0  0  0  0  0  0
   -2.2120   23.0410  -29.9710 N   0  0  0  0  0  0  0  0  0  0  0  0
   -1.3760   23.5050  -28.9990 C   0  0  0  0  0  0  0  0  0  0  0  0
   -1.5030   24.7940  -28.2980 C   0  0  0  0  0  0  0  0  0  0  0  0
   -1.2190   26.0070  -28.9870 N   0  0  0  0  0  0  0  0  0  0  0  0
   -1.8390   24.8290  -27.0840 O   0  0  0  0  0  0  0  0  0  0  0  0
   -0.3940   22.5660  -28.6980 C   0  0  0  0  0  0  0  0  0  0  0  0
   -0.6610   21.4920  -29.5140 C   0  0  0  0  0  0  0  0  0  0  0  0
    0.0270   20.2930  -29.6610 C   0  0  0  0  0  0  0  0  0  0  0  0
   -0.4350   19.3790  -30.6200 C   0  0  0  0  0  0  0  0  0  0  0  0
   -1.6060   19.6400  -31.3930 C   0  0  0  0  0  0  0  0  0  0  0  0
   -2.0280   18.7250  -32.4580 N   0  0  1  0  0  0  0  0  0  0  0  0
   -2.8210   19.3040  -33.5620 C   0  0  2  0  0  0  0  0  0  0  0  0
   -2.9320   18.1700  -34.5940 C   0  0  0  0  0  0  0  0  0  0  0  0
   -1.6690   17.3490  -34.3710 C   0  0  0  0  0  0  0  0  0  0  0  0
   -0.9500   18.0630  -33.2160 C   0  0  1  0  0  0  0  0  0  0  0  0
    0.0470   19.1070  -33.7870 C   0  0  0  0  0  0  0  0  0  0  0  0
   -0.6420   20.2780  -34.3680 N   0  0  0  0  0  0  0  0  0  0  0  0
    0.1460   21.2840  -35.0300 C   0  0  0  0  0  0  0  0  0  0  0  0
    0.7550   22.1650  -34.3640 O   0  0  0  0  0  0  0  0  0  0  0  0
    0.2450   21.3040  -36.4170 O   0  0  0  0  0  0  0  0  0  0  0  0
   -2.0880   20.5160  -34.2050 C   0  0  0  0  0  0  0  0  0  0  0  0
   -2.2210   20.9160  -31.2560 C   0  0  0  0  0  0  0  0  0  0  0  0
   -1.7570   21.8000  -30.2750 C   0  0  0  0  0  0  0  0  0  0  0  0
   -5.9301   20.7479  -30.7282 H   0  0  0  0  0  0  0  0  0  0  0  0
   -6.7435   21.2534  -32.2479 H   0  0  0  0  0  0  0  0  0  0  0  0
   -4.9836   20.8938  -32.2479 H   0  0  0  0  0  0  0  0  0  0  0  0
   -5.1197   22.4875  -29.2191 H   0  0  0  0  0  0  0  0  0  0  0  0
   -5.7494   24.1192  -29.6289 H   0  0  0  0  0  0  0  0  0  0  0  0
   -6.8552   22.7037  -29.6289 H   0  0  0  0  0  0  0  0  0  0  0  0
   -6.9717   24.3890  -31.5401 H   0  0  0  0  0  0  0  0  0  0  0  0
   -5.7219   24.3538  -32.8299 H   0  0  0  0  0  0  0  0  0  0  0  0
   -7.0471   23.1410  -32.8299 H   0  0  0  0  0  0  0  0  0  0  0  0
   -1.2410   26.0480  -30.0310 H   0  0  0  0  0  0  0  0  0  0  0  0
    0.4205   22.6623  -27.9650 H   0  0  0  0  0  0  0  0  0  0  0  0
    0.9086   20.0673  -29.0430 H   0  0  0  0  0  0  0  0  0  0  0  0
    0.1172   18.4411  -30.7795 H   0  0  0  0  0  0  0  0  0  0  0  0
   -2.6040   17.9830  -31.9910 H   0  0  0  0  0  0  0  0  0  0  0  0
   -3.7970   19.6695  -33.2100 H   0  0  0  0  0  0  0  0  0  0  0  0
   -3.8310   17.5625  -34.4131 H   0  0  0  0  0  0  0  0  0  0  0  0
   -3.0205   18.5415  -35.6256 H   0  0  0  0  0  0  0  0  0  0  0  0
   -1.9207   16.3148  -34.0932 H   0  0  0  0  0  0  0  0  0  0  0  0
   -1.0466   17.2819  -35.2755 H   0  0  0  0  0  0  0  0  0  0  0  0
   -0.3682   17.3767  -32.5832 H   0  0  0  0  0  0  0  0  0  0  0  0
    0.7045   19.4501  -32.9746 H   0  0  0  0  0  0  0  0  0  0  0  0
    0.6216   18.6212  -34.5894 H   0  0  0  0  0  0  0  0  0  0  0  0
   -2.2305   21.3967  -33.5615 H   0  0  0  0  0  0  0  0  0  0  0  0
   -2.5163   20.6738  -35.2058 H   0  0  0  0  0  0  0  0  0  0  0  0
   -3.0532   21.2049  -31.9148 H   0  0  0  0  0  0  0  0  0  0  0  0
  1  2  1  0
  2  3  1  0
  2  4  1  0
  2  5  1  0
  5  6  1  0
  6  7  2  0
  6  8  1  0
  8  9  1  0
  9 10  1  0
 10 11  1  0
 10 12  2  0
  9 13  2  0
 13 14  1  0
 14 15  2  0
 15 16  1  0
 16 17  2  0
 17 18  1  0
 18 19  1  0
 19 20  1  0
 20 21  1  0
 21 22  1  0
 22 23  1  0
 23 24  1  0
 24 25  1  0
 25 26  2  0
 25 27  1  0
 24 28  1  0
 17 29  1  0
 29 30  2  0
 30  8  1  0
 30 14  1  0
 22 18  1  0
 28 19  1  0
  1 31  1  0
  1 32  1  0
  1 33  1  0
  3 34  1  0
  3 35  1  0
  3 36  1  0
  4 37  1  0
  4 38  1  0
  4 39  1  0
 11 40  1  0
 13 41  1  0
 15 42  1  0
 16 43  1  0
 18 44  1  1
 19 45  1  1
 20 46  1  0
 20 47  1  0
 21 48  1  0
 21 49  1  0
 22 50  1  1
 23 51  1  0
 23 52  1  0
 28 53  1  0
 28 54  1  0
 29 55  1  0
M  CHG  3  11  -1  18   1  27  -1
M  END
>  <UniqueID>  (53) 
53

>  <SMILES>  (53) 
CC(C)(C)OC(=O)n1c(C([NH-])=O)cc2ccc([NH+]3[C@@H]4CC[C@H]3CN(C(=O)[O-])C4)cc21

>  <Energy>  (53) 
114.42172127375827

>  <Genealogy>  (53) 
CC(C)(C)OC(=O)n1c(C([NH-])=O)cc2ccc([NH+]3C4CCC3CN(C(=O)[O-])C4)cc21 (protonated)
CC(C)(C)OC(=O)n1c(C([NH-])=O)cc2ccc([NH+]3[C@@H]4CC[C@H]3CN(C(=O)[O-])C4)cc21 (chirality)
CC(C)(C)OC(=O)n1c(C([NH-])=O)cc2ccc([NH+]3[C@@H]4CC[C@H]3CN(C(=O)[O-])C4)cc21 (3D coordinates assigned)
CC(C)(C)OC(=O)n1c(C([NH-])=O)cc2ccc([NH+]3[C@@H]4CC[C@H]3CN(C(=O)[O-])C4)cc21 (nonaromatic ring conformer: 114.42172127375827 kcal/mol)

>  <smiles>  (53) 
CC(C)(C)OC(=O)n1c(C(N)=O)cc2ccc(N3C4CCC3CN(C(=O)O)C4)cc21

>  <score_type>  (53) 
oracle

>  <origin>  (53) 
adg

>  <m_score__min__energy>  (53) 
-10.67

>  <m_primary>  (53) 
energy

$$$$
54:0
     RDKit          3D

 43 44  0  0  0  0  0  0  0  0999 V2000
   -3.9830   18.2320  -33.5170 C   0  0  0  0  0  0  0  0  0  0  0  0
   -5.3390   17.5060  -33.4300 C   0  0  0  0  0  0  0  0  0  0  0  0
   -6.0870   17.7370  -34.7630 C   0  0  0  0  0  0  0  0  0  0  0  0
   -5.1180   15.9850  -33.2470 C   0  0  0  0  0  0  0  0  0  0  0  0
   -5.2920   15.6220  -31.9040 O   0  0  0  0  0  0  0  0  0  0  0  0
   -6.1450   18.0800  -32.3290 N   0  0  0  0  0  0  0  0  0  0  0  0
   -6.4130   19.4790  -32.1150 C   0  0  0  0  0  0  0  0  0  0  0  0
   -7.6820   20.0500  -32.3990 C   0  0  0  0  0  0  0  0  0  0  0  0
   -7.9290   21.4100  -32.1460 C   0  0  0  0  0  0  0  0  0  0  0  0
   -6.8980   22.1740  -31.6090 C   0  0  0  0  0  0  0  0  0  0  0  0
   -6.8760   23.5000  -31.2410 C   0  0  0  0  0  0  0  0  0  0  0  0
   -5.5930   23.7240  -30.7460 C   0  0  0  0  0  0  0  0  0  0  0  0
   -5.1090   25.0540  -30.3150 C   0  0  0  0  0  0  0  0  0  0  0  0
   -3.9530   25.6400  -30.9060 N   0  0  0  0  0  0  0  0  0  0  0  0
   -5.7540   25.7000  -29.4480 O   0  0  0  0  0  0  0  0  0  0  0  0
   -4.8550   22.5790  -30.7980 N   0  0  0  0  0  0  0  0  0  0  0  0
   -3.5170   22.3660  -30.3200 C   0  0  0  0  0  0  0  0  0  0  0  0
   -3.1100   21.1960  -30.0860 O   0  0  0  0  0  0  0  0  0  0  0  0
   -2.6630   23.4590  -30.1430 O   0  0  0  0  0  0  0  0  0  0  0  0
   -1.3060   23.3200  -29.7440 C   0  0  0  0  0  0  0  0  0  0  0  0
   -0.8870   24.5420  -28.9960 C   0  0  0  0  0  0  0  0  0  0  0  0
   -1.7390   25.6840  -28.9580 N   0  0  0  0  0  0  0  0  0  0  0  0
    0.2350   24.5750  -28.4240 O   0  0  0  0  0  0  0  0  0  0  0  0
   -5.6670   21.6410  -31.3310 C   0  0  0  0  0  0  0  0  0  0  0  0
   -5.4010   20.2850  -31.5520 C   0  0  0  0  0  0  0  0  0  0  0  0
   -3.6086   18.4324  -32.5023 H   0  0  0  0  0  0  0  0  0  0  0  0
   -3.2621   17.5992  -34.0554 H   0  0  0  0  0  0  0  0  0  0  0  0
   -4.1100   19.1828  -34.0554 H   0  0  0  0  0  0  0  0  0  0  0  0
   -7.1189   18.0557  -34.5540 H   0  0  0  0  0  0  0  0  0  0  0  0
   -5.5722   18.5180  -35.3418 H   0  0  0  0  0  0  0  0  0  0  0  0
   -6.1022   16.8017  -35.3418 H   0  0  0  0  0  0  0  0  0  0  0  0
   -5.8425   15.4367  -33.8671 H   0  0  0  0  0  0  0  0  0  0  0  0
   -4.0914   15.7351  -33.5531 H   0  0  0  0  0  0  0  0  0  0  0  0
   -4.6450   14.8900  -31.7280 H   0  0  0  0  0  0  0  0  0  0  0  0
   -6.3600   17.4550  -31.5180 H   0  0  0  0  0  0  0  0  0  0  0  0
   -8.4797   19.4212  -32.8213 H   0  0  0  0  0  0  0  0  0  0  0  0
   -8.9094   21.8576  -32.3663 H   0  0  0  0  0  0  0  0  0  0  0  0
   -7.6967   24.2281  -31.3207 H   0  0  0  0  0  0  0  0  0  0  0  0
   -2.9960   25.2900  -30.6750 H   0  0  0  0  0  0  0  0  0  0  0  0
   -1.2017   22.4377  -29.0954 H   0  0  0  0  0  0  0  0  0  0  0  0
   -0.6703   23.1945  -30.6329 H   0  0  0  0  0  0  0  0  0  0  0  0
   -2.7130   25.6380  -29.3300 H   0  0  0  0  0  0  0  0  0  0  0  0
   -4.4221   19.8559  -31.2919 H   0  0  0  0  0  0  0  0  0  0  0  0
  1  2  1  0
  2  3  1  0
  2  4  1  0
  4  5  1  0
  2  6  1  0
  6  7  1  0
  7  8  2  0
  8  9  1  0
  9 10  2  0
 10 11  1  0
 11 12  2  0
 12 13  1  0
 13 14  1  0
 13 15  2  0
 12 16  1  0
 16 17  1  0
 17 18  2  0
 17 19  1  0
 19 20  1  0
 20 21  1  0
 21 22  1  0
 21 23  2  0
 16 24  1  0
 24 25  2  0
 25  7  1  0
 24 10  1  0
  1 26  1  0
  1 27  1  0
  1 28  1  0
  3 29  1  0
  3 30  1  0
  3 31  1  0
  4 32  1  0
  4 33  1  0
  5 34  1  0
  6 35  1  0
  8 36  1  0
  9 37  1  0
 11 38  1  0
 14 39  1  0
 20 40  1  0
 20 41  1  0
 22 42  1  0
 25 43  1  0
M  CHG  2  14  -1  22  -1
M  END
>  <UniqueID>  (54) 
54

>  <SMILES>  (54) 
CC(C)(CO)Nc1ccc2cc(C([NH-])=O)n(C(=O)OCC([NH-])=O)c2c1

>  <Energy>  (54) 
80.35725090691234

>  <Genealogy>  (54) 
CC(C)(CO)Nc1ccc2cc(C([NH-])=O)n(C(=O)OCC([NH-])=O)c2c1 (protonated)
CC(C)(CO)Nc1ccc2cc(C([NH-])=O)n(C(=O)OCC([NH-])=O)c2c1 (3D coordinates assigned)
CC(C)(CO)Nc1ccc2cc(C([NH-])=O)n(C(=O)OCC([NH-])=O)c2c1 (optimized conformer: 80.35725090691234 kcal/mol)

>  <smiles>  (54) 
CC(C)(CO)Nc1ccc2cc(C(N)=O)n(C(=O)OCC(N)=O)c2c1

>  <score_type>  (54) 
oracle

>  <origin>  (54) 
adg

>  <m_score__min__energy>  (54) 
-12.84

>  <m_primary>  (54) 
energy

$$$$
55:0
     RDKit          3D

 43 44  0  0  0  0  0  0  0  0999 V2000
   -1.0780   21.5120  -27.1180 C   0  0  0  0  0  0  0  0  0  0  0  0
   -1.1650   22.5890  -28.1110 N   0  0  0  0  0  0  0  0  0  0  0  0
   -1.0990   23.9930  -27.6830 C   0  0  0  0  0  0  0  0  0  0  0  0
   -2.3920   24.7190  -28.0520 C   0  0  0  0  0  0  0  0  0  0  0  0
   -2.2760   25.2580  -29.3380 O   0  0  0  0  0  0  0  0  0  0  0  0
   -1.3130   22.2730  -29.5120 C   0  0  0  0  0  0  0  0  0  0  0  0
   -0.7460   22.9900  -30.3810 O   0  0  0  0  0  0  0  0  0  0  0  0
   -2.1780   21.1320  -29.9680 C   0  0  0  0  0  0  0  0  0  0  0  0
   -3.5450   21.5330  -29.9840 O   0  0  0  0  0  0  0  0  0  0  0  0
   -4.0400   22.5340  -30.8280 C   0  0  0  0  0  0  0  0  0  0  0  0
   -3.2460   23.2710  -31.4730 O   0  0  0  0  0  0  0  0  0  0  0  0
   -5.4570   22.7350  -30.9340 N   0  0  0  0  0  0  0  0  0  0  0  0
   -6.1340   23.9110  -30.8150 C   0  0  0  0  0  0  0  0  0  0  0  0
   -5.5630   25.1930  -30.3510 C   0  0  0  0  0  0  0  0  0  0  0  0
   -4.2350   25.5820  -30.7020 N   0  0  0  0  0  0  0  0  0  0  0  0
   -6.2410   25.9320  -29.5890 O   0  0  0  0  0  0  0  0  0  0  0  0
   -7.4720   23.7480  -31.1630 C   0  0  0  0  0  0  0  0  0  0  0  0
   -7.6000   22.4210  -31.4980 C   0  0  0  0  0  0  0  0  0  0  0  0
   -8.7130   21.7160  -31.9430 C   0  0  0  0  0  0  0  0  0  0  0  0
   -8.5480   20.3580  -32.2650 C   0  0  0  0  0  0  0  0  0  0  0  0
   -7.2780   19.7370  -32.1620 C   0  0  0  0  0  0  0  0  0  0  0  0
   -7.1340   18.2710  -32.4830 C   0  0  0  0  0  0  0  0  0  0  0  0
   -6.7780   18.1050  -33.8100 F   0  0  0  0  0  0  0  0  0  0  0  0
   -8.3410   17.6350  -32.2580 F   0  0  0  0  0  0  0  0  0  0  0  0
   -6.1620   17.6790  -31.6960 F   0  0  0  0  0  0  0  0  0  0  0  0
   -6.1730   20.4830  -31.6860 C   0  0  0  0  0  0  0  0  0  0  0  0
   -6.3710   21.8300  -31.3550 C   0  0  0  0  0  0  0  0  0  0  0  0
   -1.1128   21.9424  -26.1063 H   0  0  0  0  0  0  0  0  0  0  0  0
   -1.9232   20.8208  -27.2517 H   0  0  0  0  0  0  0  0  0  0  0  0
   -0.1328   20.9655  -27.2517 H   0  0  0  0  0  0  0  0  0  0  0  0
   -0.9576   24.0342  -26.5929 H   0  0  0  0  0  0  0  0  0  0  0  0
   -0.2550   24.4833  -28.1902 H   0  0  0  0  0  0  0  0  0  0  0  0
   -3.2311   24.0081  -28.0271 H   0  0  0  0  0  0  0  0  0  0  0  0
   -2.5750   25.5293  -27.3310 H   0  0  0  0  0  0  0  0  0  0  0  0
   -2.2280   24.4840  -29.9570 H   0  0  0  0  0  0  0  0  0  0  0  0
   -1.8757   20.8279  -30.9810 H   0  0  0  0  0  0  0  0  0  0  0  0
   -2.0575   20.2876  -29.2734 H   0  0  0  0  0  0  0  0  0  0  0  0
   -3.8640   26.5110  -30.4010 H   0  0  0  0  0  0  0  0  0  0  0  0
   -3.5890   24.9210  -31.1890 H   0  0  0  0  0  0  0  0  0  0  0  0
   -8.2587   24.5168  -31.1687 H   0  0  0  0  0  0  0  0  0  0  0  0
   -9.6928   22.2064  -32.0400 H   0  0  0  0  0  0  0  0  0  0  0  0
   -9.4148   19.7700  -32.6010 H   0  0  0  0  0  0  0  0  0  0  0  0
   -5.1827   20.0163  -31.5786 H   0  0  0  0  0  0  0  0  0  0  0  0
  1  2  1  0
  2  3  1  0
  3  4  1  0
  4  5  1  0
  2  6  1  0
  6  7  2  0
  6  8  1  0
  8  9  1  0
  9 10  1  0
 10 11  2  0
 10 12  1  0
 12 13  1  0
 13 14  1  0
 14 15  1  0
 14 16  2  0
 13 17  2  0
 17 18  1  0
 18 19  2  0
 19 20  1  0
 20 21  2  0
 21 22  1  0
 22 23  1  0
 22 24  1  0
 22 25  1  0
 21 26  1  0
 26 27  2  0
 27 12  1  0
 27 18  1  0
  1 28  1  0
  1 29  1  0
  1 30  1  0
  3 31  1  0
  3 32  1  0
  4 33  1  0
  4 34  1  0
  5 35  1  0
  8 36  1  0
  8 37  1  0
 15 38  1  0
 15 39  1  0
 17 40  1  0
 19 41  1  0
 20 42  1  0
 26 43  1  0
M  END
>  <UniqueID>  (55) 
55

>  <SMILES>  (55) 
CN(CCO)C(=O)COC(=O)n1c(C(N)=O)cc2ccc(C(F)(F)F)cc21

>  <Energy>  (55) 
74.32508563625701

>  <Genealogy>  (55) 
CN(CCO)C(=O)COC(=O)n1c(C(N)=O)cc2ccc(C(F)(F)F)cc21 (3D coordinates assigned)
CN(CCO)C(=O)COC(=O)n1c(C(N)=O)cc2ccc(C(F)(F)F)cc21 (optimized conformer: 74.32508563625701 kcal/mol)

>  <smiles>  (55) 
CN(CCO)C(=O)COC(=O)n1c(C(N)=O)cc2ccc(C(F)(F)F)cc21

>  <score_type>  (55) 
oracle

>  <origin>  (55) 
adg

>  <m_score__min__energy>  (55) 
-8.1500000000000004

>  <m_primary>  (55) 
energy

$$$$
56:0
     RDKit          3D

 35 36  0  0  0  0  0  0  0  0999 V2000
   -3.9330   25.6520  -30.8190 N   0  0  0  0  0  0  0  0  0  0  0  0
   -5.2750   25.3120  -30.4780 C   0  0  0  0  0  0  0  0  0  0  0  0
   -5.9420   26.0930  -29.7480 O   0  0  0  0  0  0  0  0  0  0  0  0
   -5.8700   24.0340  -30.9180 C   0  0  0  0  0  0  0  0  0  0  0  0
   -7.2120   23.8950  -31.2690 C   0  0  0  0  0  0  0  0  0  0  0  0
   -7.3830   22.5550  -31.5290 C   0  0  0  0  0  0  0  0  0  0  0  0
   -8.5190   21.8610  -31.9360 C   0  0  0  0  0  0  0  0  0  0  0  0
   -8.4010   20.4810  -32.1650 C   0  0  0  0  0  0  0  0  0  0  0  0
   -7.1580   19.8230  -31.9930 C   0  0  0  0  0  0  0  0  0  0  0  0
   -7.0500   18.3500  -32.2600 C   0  0  0  0  0  0  0  0  0  0  0  0
   -6.3190   17.7440  -31.2550 F   0  0  0  0  0  0  0  0  0  0  0  0
   -8.3150   17.7920  -32.3040 F   0  0  0  0  0  0  0  0  0  0  0  0
   -6.0250   20.5610  -31.5820 C   0  0  0  0  0  0  0  0  0  0  0  0
   -6.1760   21.9330  -31.3410 C   0  0  0  0  0  0  0  0  0  0  0  0
   -5.2350   22.8290  -30.9680 N   0  0  0  0  0  0  0  0  0  0  0  0
   -3.8350   22.5690  -30.7770 C   0  0  0  0  0  0  0  0  0  0  0  0
   -2.9880   23.0650  -31.5680 O   0  0  0  0  0  0  0  0  0  0  0  0
   -3.4180   21.7810  -29.7010 O   0  0  0  0  0  0  0  0  0  0  0  0
   -3.1970   22.3100  -28.3970 C   0  0  0  0  0  0  0  0  0  0  0  0
   -3.0640   23.8320  -28.4660 C   0  0  0  0  0  0  0  0  0  0  0  0
   -1.6210   24.2660  -28.7170 C   0  0  0  0  0  0  0  0  0  0  0  0
   -1.6070   25.5750  -29.2130 O   0  0  0  0  0  0  0  0  0  0  0  0
   -3.1430   25.0050  -30.6030 H   0  0  0  0  0  0  0  0  0  0  0  0
   -7.9723   24.6879  -31.3259 H   0  0  0  0  0  0  0  0  0  0  0  0
   -9.4800   22.3782  -32.0740 H   0  0  0  0  0  0  0  0  0  0  0  0
   -9.2828   19.9045  -32.4813 H   0  0  0  0  0  0  0  0  0  0  0  0
   -6.5442   18.1956  -33.2246 H   0  0  0  0  0  0  0  0  0  0  0  0
   -5.0487   20.0705  -31.4545 H   0  0  0  0  0  0  0  0  0  0  0  0
   -4.0459   22.0475  -27.7486 H   0  0  0  0  0  0  0  0  0  0  0  0
   -2.2692   21.8845  -27.9870 H   0  0  0  0  0  0  0  0  0  0  0  0
   -3.6960   24.2076  -29.2842 H   0  0  0  0  0  0  0  0  0  0  0  0
   -3.3816   24.2466  -27.4979 H   0  0  0  0  0  0  0  0  0  0  0  0
   -1.0565   24.2252  -27.7738 H   0  0  0  0  0  0  0  0  0  0  0  0
   -1.1574   23.5907  -29.4512 H   0  0  0  0  0  0  0  0  0  0  0  0
   -2.4350   25.6750  -29.7510 H   0  0  0  0  0  0  0  0  0  0  0  0
  1  2  1  0
  2  3  2  0
  2  4  1  0
  4  5  2  0
  5  6  1  0
  6  7  2  0
  7  8  1  0
  8  9  2  0
  9 10  1  0
 10 11  1  0
 10 12  1  0
  9 13  1  0
 13 14  2  0
 14 15  1  0
 15 16  1  0
 16 17  2  0
 16 18  1  0
 18 19  1  0
 19 20  1  0
 20 21  1  0
 21 22  1  0
 15  4  1  0
 14  6  1  0
  1 23  1  0
  5 24  1  0
  7 25  1  0
  8 26  1  0
 10 27  1  0
 13 28  1  0
 19 29  1  0
 19 30  1  0
 20 31  1  0
 20 32  1  0
 21 33  1  0
 21 34  1  0
 22 35  1  0
M  CHG  1   1  -1
M  END
>  <UniqueID>  (56) 
56

>  <SMILES>  (56) 
[NH-]C(=O)c1cc2ccc(C(F)F)cc2n1C(=O)OCCCO

>  <Energy>  (56) 
66.80267838866487

>  <Genealogy>  (56) 
[NH-]C(=O)c1cc2ccc(C(F)F)cc2n1C(=O)OCCCO (protonated)
[NH-]C(=O)c1cc2ccc(C(F)F)cc2n1C(=O)OCCCO (3D coordinates assigned)
[NH-]C(=O)c1cc2ccc(C(F)F)cc2n1C(=O)OCCCO (optimized conformer: 66.80267838866487 kcal/mol)

>  <smiles>  (56) 
NC(=O)c1cc2ccc(C(F)F)cc2n1C(=O)OCCCO

>  <score_type>  (56) 
oracle

>  <origin>  (56) 
adg

>  <m_score__min__energy>  (56) 
-10.050000000000001

>  <m_primary>  (56) 
energy

$$$$
57:0
     RDKit          3D

 39 40  0  0  0  0  0  0  0  0999 V2000
   -6.8590   18.3960  -33.3720 C   0  0  0  0  0  0  0  0  0  0  0  0
   -6.9780   19.7480  -32.7340 C   0  0  0  0  0  0  0  0  0  0  0  0
   -8.2530   20.2620  -32.3940 C   0  0  0  0  0  0  0  0  0  0  0  0
   -8.3750   21.5170  -31.7740 C   0  0  0  0  0  0  0  0  0  0  0  0
   -7.2080   22.2210  -31.4890 C   0  0  0  0  0  0  0  0  0  0  0  0
   -7.0420   23.4610  -30.9200 C   0  0  0  0  0  0  0  0  0  0  0  0
   -5.6650   23.6680  -30.8820 C   0  0  0  0  0  0  0  0  0  0  0  0
   -5.0390   24.8560  -30.2650 C   0  0  0  0  0  0  0  0  0  0  0  0
   -3.8970   25.4730  -30.8540 N   0  0  0  0  0  0  0  0  0  0  0  0
   -5.4860   25.3010  -29.1740 O   0  0  0  0  0  0  0  0  0  0  0  0
   -5.0050   22.6010  -31.4140 N   0  0  0  0  0  0  0  0  0  0  0  0
   -3.5940   22.4730  -31.6520 C   0  0  0  0  0  0  0  0  0  0  0  0
   -3.1780   21.8410  -32.6610 O   0  0  0  0  0  0  0  0  0  0  0  0
   -2.6860   23.0690  -30.7710 O   0  0  0  0  0  0  0  0  0  0  0  0
   -1.3850   22.5430  -30.5320 C   0  0  0  0  0  0  0  0  0  0  0  0
   -0.8860   23.0450  -29.2970 O   0  0  0  0  0  0  0  0  0  0  0  0
   -1.6420   23.0500  -28.1190 C   0  0  0  0  0  0  0  0  0  0  0  0
   -1.7510   22.0030  -27.4240 O   0  0  0  0  0  0  0  0  0  0  0  0
   -2.3070   24.3250  -27.6760 C   0  0  2  0  0  0  0  0  0  0  0  0
   -3.7110   24.0420  -27.1410 C   0  0  0  0  0  0  0  0  0  0  0  0
   -2.3690   25.2970  -28.7700 N   0  0  0  0  0  0  0  0  0  0  0  0
   -5.9650   21.7220  -31.7810 C   0  0  0  0  0  0  0  0  0  0  0  0
   -5.8140   20.4840  -32.4170 C   0  0  0  0  0  0  0  0  0  0  0  0
   -6.7912   17.6260  -32.5894 H   0  0  0  0  0  0  0  0  0  0  0  0
   -7.7439   18.2064  -33.9973 H   0  0  0  0  0  0  0  0  0  0  0  0
   -5.9546   18.3639  -33.9973 H   0  0  0  0  0  0  0  0  0  0  0  0
   -9.1554   19.6739  -32.6171 H   0  0  0  0  0  0  0  0  0  0  0  0
   -9.3624   21.9307  -31.5215 H   0  0  0  0  0  0  0  0  0  0  0  0
   -7.8291   24.1446  -30.5692 H   0  0  0  0  0  0  0  0  0  0  0  0
   -2.9330   25.2570  -30.5150 H   0  0  0  0  0  0  0  0  0  0  0  0
   -1.4367   21.4451  -30.4867 H   0  0  0  0  0  0  0  0  0  0  0  0
   -0.7128   22.8468  -31.3480 H   0  0  0  0  0  0  0  0  0  0  0  0
   -1.6999   24.7568  -26.8667 H   0  0  0  0  0  0  0  0  0  0  0  0
   -3.6920   24.0458  -26.0412 H   0  0  0  0  0  0  0  0  0  0  0  0
   -4.4031   24.8187  -27.4985 H   0  0  0  0  0  0  0  0  0  0  0  0
   -4.0481   23.0578  -27.4985 H   0  0  0  0  0  0  0  0  0  0  0  0
   -3.3530   25.6330  -28.8870 H   0  0  0  0  0  0  0  0  0  0  0  0
   -2.0940   24.8190  -29.6580 H   0  0  0  0  0  0  0  0  0  0  0  0
   -4.8153   20.0943  -32.6636 H   0  0  0  0  0  0  0  0  0  0  0  0
  1  2  1  0
  2  3  2  0
  3  4  1  0
  4  5  2  0
  5  6  1  0
  6  7  2  0
  7  8  1  0
  8  9  1  0
  8 10  2  0
  7 11  1  0
 11 12  1  0
 12 13  2  0
 12 14  1  0
 14 15  1  0
 15 16  1  0
 16 17  1  0
 17 18  2  0
 17 19  1  0
 19 20  1  0
 19 21  1  0
 11 22  1  0
 22 23  2  0
 23  2  1  0
 22  5  1  0
  1 24  1  0
  1 25  1  0
  1 26  1  0
  3 27  1  0
  4 28  1  0
  6 29  1  0
  9 30  1  0
 15 31  1  0
 15 32  1  0
 19 33  1  1
 20 34  1  0
 20 35  1  0
 20 36  1  0
 21 37  1  0
 21 38  1  0
 23 39  1  0
M  CHG  1   9  -1
M  END
>  <UniqueID>  (57) 
57

>  <SMILES>  (57) 
Cc1ccc2cc(C([NH-])=O)n(C(=O)OCOC(=O)[C@H](C)N)c2c1

>  <Energy>  (57) 
70.49571479726929

>  <Genealogy>  (57) 
Cc1ccc2cc(C([NH-])=O)n(C(=O)OCOC(=O)C(C)N)c2c1 (protonated)
Cc1ccc2cc(C([NH-])=O)n(C(=O)OCOC(=O)[C@H](C)N)c2c1 (chirality)
Cc1ccc2cc(C([NH-])=O)n(C(=O)OCOC(=O)[C@H](C)N)c2c1 (3D coordinates assigned)
Cc1ccc2cc(C([NH-])=O)n(C(=O)OCOC(=O)[C@H](C)N)c2c1 (optimized conformer: 70.49571479726929 kcal/mol)

>  <smiles>  (57) 
Cc1ccc2cc(C(N)=O)n(C(=O)OCOC(=O)C(C)N)c2c1

>  <score_type>  (57) 
oracle

>  <origin>  (57) 
adg

>  <m_score__min__energy>  (57) 
-9.8800000000000008

>  <m_primary>  (57) 
energy

$$$$
58:0
     RDKit          3D

 38 39  0  0  0  0  0  0  0  0999 V2000
   -4.0870   25.6710  -30.8900 N   0  0  0  0  0  0  0  0  0  0  0  0
   -5.3320   25.1220  -30.4640 C   0  0  0  0  0  0  0  0  0  0  0  0
   -6.1020   25.8180  -29.7510 O   0  0  0  0  0  0  0  0  0  0  0  0
   -5.7230   23.7640  -30.8970 C   0  0  0  0  0  0  0  0  0  0  0  0
   -7.0390   23.3920  -31.1640 C   0  0  0  0  0  0  0  0  0  0  0  0
   -6.9880   22.0470  -31.4490 C   0  0  0  0  0  0  0  0  0  0  0  0
   -8.0060   21.1680  -31.8080 C   0  0  0  0  0  0  0  0  0  0  0  0
   -7.6590   19.8360  -32.0850 C   0  0  0  0  0  0  0  0  0  0  0  0
   -6.3100   19.4090  -31.9980 C   0  0  0  0  0  0  0  0  0  0  0  0
   -5.9450   17.9930  -32.3450 C   0  0  0  0  0  0  0  0  0  0  0  0
   -5.7950   17.8070  -34.1490 P   0  0  1  0  0  0  0  0  0  0  0  0
   -4.3780   17.4180  -34.5050 O   0  0  0  0  0  0  0  0  0  0  0  0
   -6.8550   16.5990  -34.6760 O   0  0  0  0  0  0  0  0  0  0  0  0
   -6.1840   19.2670  -34.9110 O   0  0  0  0  0  0  0  0  0  0  0  0
   -5.3030   20.3310  -31.6410 C   0  0  0  0  0  0  0  0  0  0  0  0
   -5.6800   21.6480  -31.3540 C   0  0  0  0  0  0  0  0  0  0  0  0
   -4.8900   22.6920  -31.0180 N   0  0  0  0  0  0  0  0  0  0  0  0
   -3.4580   22.6740  -30.9060 C   0  0  0  0  0  0  0  0  0  0  0  0
   -2.7720   21.9920  -31.7150 O   0  0  0  0  0  0  0  0  0  0  0  0
   -2.8300   23.4330  -29.9100 O   0  0  0  0  0  0  0  0  0  0  0  0
   -3.1480   23.3260  -28.5240 C   0  0  0  0  0  0  0  0  0  0  0  0
   -1.8740   23.3690  -27.6810 C   0  0  0  0  0  0  0  0  0  0  0  0
   -0.9480   24.9040  -27.9930 P   0  0  0  0  0  0  0  0  0  0  0  0
   -1.0500   25.8050  -26.7840 O   0  0  0  0  0  0  0  0  0  0  0  0
    0.6780   24.5390  -28.2820 O   0  0  0  0  0  0  0  0  0  0  0  0
   -1.5960   25.6950  -29.3390 O   0  0  0  0  0  0  0  0  0  0  0  0
   -3.1830   25.2970  -30.5250 H   0  0  0  0  0  0  0  0  0  0  0  0
   -7.9299   24.0370  -31.1499 H   0  0  0  0  0  0  0  0  0  0  0  0
   -9.0506   21.5067  -31.8727 H   0  0  0  0  0  0  0  0  0  0  0  0
   -8.4408   19.1174  -32.3721 H   0  0  0  0  0  0  0  0  0  0  0  0
   -4.9847   17.7390  -31.8724 H   0  0  0  0  0  0  0  0  0  0  0  0
   -6.7335   17.3190  -31.9789 H   0  0  0  0  0  0  0  0  0  0  0  0
   -5.8770   19.9690  -34.2830 H   0  0  0  0  0  0  0  0  0  0  0  0
   -4.2484   20.0224  -31.5896 H   0  0  0  0  0  0  0  0  0  0  0  0
   -3.8016   24.1627  -28.2363 H   0  0  0  0  0  0  0  0  0  0  0  0
   -3.6605   22.3687  -28.3480 H   0  0  0  0  0  0  0  0  0  0  0  0
   -2.1440   23.3203  -26.6158 H   0  0  0  0  0  0  0  0  0  0  0  0
   -1.2404   22.5121  -27.9536 H   0  0  0  0  0  0  0  0  0  0  0  0
  1  2  1  0
  2  3  2  0
  2  4  1  0
  4  5  2  0
  5  6  1  0
  6  7  2  0
  7  8  1  0
  8  9  2  0
  9 10  1  0
 10 11  1  0
 11 12  2  0
 11 13  1  6
 11 14  1  0
  9 15  1  0
 15 16  2  0
 16 17  1  0
 17 18  1  0
 18 19  2  0
 18 20  1  0
 20 21  1  0
 21 22  1  0
 22 23  1  0
 23 24  2  0
 23 25  1  0
 23 26  1  0
 17  4  1  0
 16  6  1  0
  1 27  1  0
  5 28  1  0
  7 29  1  0
  8 30  1  0
 10 31  1  0
 10 32  1  0
 14 33  1  0
 15 34  1  0
 21 35  1  0
 21 36  1  0
 22 37  1  0
 22 38  1  0
M  CHG  4   1  -1  13  -1  25  -1  26  -1
M  END
>  <UniqueID>  (58) 
58

>  <SMILES>  (58) 
[NH-]C(=O)c1cc2ccc(C[P@@](=O)([O-])O)cc2n1C(=O)OCCP(=O)([O-])[O-]

>  <Energy>  (58) 
63.22891100653626

>  <Genealogy>  (58) 
[NH-]C(=O)c1cc2ccc(CP(=O)([O-])O)cc2n1C(=O)OCCP(=O)([O-])[O-] (protonated)
[NH-]C(=O)c1cc2ccc(C[P@@](=O)([O-])O)cc2n1C(=O)OCCP(=O)([O-])[O-] (chirality)
[NH-]C(=O)c1cc2ccc(C[P@@](=O)([O-])O)cc2n1C(=O)OCCP(=O)([O-])[O-] (3D coordinates assigned)
[NH-]C(=O)c1cc2ccc(C[P@@](=O)([O-])O)cc2n1C(=O)OCCP(=O)([O-])[O-] (optimized conformer: 63.22891100653626 kcal/mol)

>  <smiles>  (58) 
NC(=O)c1cc2ccc(CP(=O)(O)O)cc2n1C(=O)OCCP(=O)(O)O

>  <score_type>  (58) 
oracle

>  <origin>  (58) 
adg

>  <m_score__min__energy>  (58) 
-13.56

>  <m_primary>  (58) 
energy

$$$$
59:0
     RDKit          3D

 38 39  0  0  0  0  0  0  0  0999 V2000
    1.5770   21.4990  -27.5730 N   0  0  0  0  0  0  0  0  0  0  0  0
    0.6920   20.6170  -28.2540 C   0  0  0  0  0  0  0  0  0  0  0  0
    0.8380   19.3720  -28.1200 O   0  0  0  0  0  0  0  0  0  0  0  0
   -0.4190   21.1390  -29.0730 C   0  0  0  0  0  0  0  0  0  0  0  0
   -0.5670   20.8610  -30.4310 C   0  0  0  0  0  0  0  0  0  0  0  0
   -1.7510   21.4570  -30.8000 C   0  0  0  0  0  0  0  0  0  0  0  0
   -2.3800   21.5110  -32.0400 C   0  0  0  0  0  0  0  0  0  0  0  0
   -3.5860   22.2270  -32.1350 C   0  0  0  0  0  0  0  0  0  0  0  0
   -4.1400   22.8650  -30.9970 C   0  0  0  0  0  0  0  0  0  0  0  0
   -5.4060   23.6640  -31.1210 C   0  0  0  0  0  0  0  0  0  0  0  0
   -5.1660   25.0760  -30.6960 C   0  0  0  0  0  0  0  0  0  0  0  0
   -6.1170   25.7790  -30.2610 O   0  0  0  0  0  0  0  0  0  0  0  0
   -3.9020   25.6360  -30.8280 O   0  0  0  0  0  0  0  0  0  0  0  0
   -3.4660   22.7970  -29.7570 C   0  0  0  0  0  0  0  0  0  0  0  0
   -2.2750   22.0660  -29.6900 C   0  0  0  0  0  0  0  0  0  0  0  0
   -1.4670   21.8850  -28.6220 N   0  0  0  0  0  0  0  0  0  0  0  0
   -1.6610   22.4620  -27.3210 C   0  0  0  0  0  0  0  0  0  0  0  0
   -1.6030   21.7180  -26.3040 O   0  0  0  0  0  0  0  0  0  0  0  0
   -2.1500   23.8780  -27.1910 C   0  0  0  0  0  0  0  0  0  0  0  0
   -0.9860   25.1130  -27.8680 P   0  0  2  0  0  0  0  0  0  0  0  0
   -0.8570   26.2850  -26.9220 O   0  0  0  0  0  0  0  0  0  0  0  0
   -1.6160   25.6690  -29.3350 O   0  0  0  0  0  0  0  0  0  0  0  0
    0.5610   24.4190  -28.1740 O   0  0  0  0  0  0  0  0  0  0  0  0
    1.6180   24.4560  -27.2590 C   0  0  0  0  0  0  0  0  0  0  0  0
    2.8150   24.3870  -27.6480 O   0  0  0  0  0  0  0  0  0  0  0  0
    1.3300   24.5590  -25.7970 C   0  0  0  0  0  0  0  0  0  0  0  0
    0.2570   23.7530  -25.4620 F   0  0  0  0  0  0  0  0  0  0  0  0
    2.4390   24.1560  -25.0770 F   0  0  0  0  0  0  0  0  0  0  0  0
    1.0280   25.8690  -25.4750 F   0  0  0  0  0  0  0  0  0  0  0  0
    1.6590   22.5000  -27.8560 H   0  0  0  0  0  0  0  0  0  0  0  0
    0.1179   20.2866  -31.0720 H   0  0  0  0  0  0  0  0  0  0  0  0
   -1.9473   21.0093  -32.9181 H   0  0  0  0  0  0  0  0  0  0  0  0
   -4.1051   22.2928  -33.1025 H   0  0  0  0  0  0  0  0  0  0  0  0
   -5.7429   23.6515  -32.1681 H   0  0  0  0  0  0  0  0  0  0  0  0
   -6.1769   23.2196  -30.4743 H   0  0  0  0  0  0  0  0  0  0  0  0
   -3.8671   23.3054  -28.8678 H   0  0  0  0  0  0  0  0  0  0  0  0
   -3.1053   23.9677  -27.7289 H   0  0  0  0  0  0  0  0  0  0  0  0
   -2.2566   24.0873  -26.1164 H   0  0  0  0  0  0  0  0  0  0  0  0
  1  2  1  0
  2  3  2  0
  2  4  1  0
  4  5  2  0
  5  6  1  0
  6  7  2  0
  7  8  1  0
  8  9  2  0
  9 10  1  0
 10 11  1  0
 11 12  2  0
 11 13  1  0
  9 14  1  0
 14 15  2  0
 15 16  1  0
 16 17  1  0
 17 18  2  0
 17 19  1  0
 19 20  1  0
 20 21  2  0
 20 22  1  6
 20 23  1  0
 23 24  1  0
 24 25  2  0
 24 26  1  0
 26 27  1  0
 26 28  1  0
 26 29  1  0
 16  4  1  0
 15  6  1  0
  1 30  1  0
  5 31  1  0
  7 32  1  0
  8 33  1  0
 10 34  1  0
 10 35  1  0
 14 36  1  0
 19 37  1  0
 19 38  1  0
M  CHG  3   1  -1  13  -1  22  -1
M  END
>  <UniqueID>  (59) 
59

>  <SMILES>  (59) 
[NH-]C(=O)c1cc2ccc(CC(=O)[O-])cc2n1C(=O)C[P@](=O)([O-])OC(=O)C(F)(F)F

>  <Energy>  (59) 
70.99561833802669

>  <Genealogy>  (59) 
[NH-]C(=O)c1cc2ccc(CC(=O)[O-])cc2n1C(=O)CP(=O)([O-])OC(=O)C(F)(F)F (protonated)
[NH-]C(=O)c1cc2ccc(CC(=O)[O-])cc2n1C(=O)C[P@](=O)([O-])OC(=O)C(F)(F)F (chirality)
[NH-]C(=O)c1cc2ccc(CC(=O)[O-])cc2n1C(=O)C[P@](=O)([O-])OC(=O)C(F)(F)F (3D coordinates assigned)
[NH-]C(=O)c1cc2ccc(CC(=O)[O-])cc2n1C(=O)C[P@](=O)([O-])OC(=O)C(F)(F)F (optimized conformer: 70.99561833802669 kcal/mol)

>  <smiles>  (59) 
NC(=O)c1cc2ccc(CC(=O)O)cc2n1C(=O)CP(=O)(O)OC(=O)C(F)(F)F

>  <score_type>  (59) 
oracle

>  <origin>  (59) 
adg

>  <m_score__min__energy>  (59) 
-11.710000000000001

>  <m_primary>  (59) 
energy

$$$$
60:0
     RDKit          3D

 34 35  0  0  0  0  0  0  0  0999 V2000
   -6.3060   18.4390  -34.9940 N   0  0  0  0  0  0  0  0  0  0  0  0
   -4.9660   18.1290  -34.6050 C   0  0  0  0  0  0  0  0  0  0  0  0
   -4.4910   16.9950  -34.8800 O   0  0  0  0  0  0  0  0  0  0  0  0
   -4.1540   19.0870  -33.8300 C   0  0  0  0  0  0  0  0  0  0  0  0
   -2.7630   19.1080  -33.8580 C   0  0  0  0  0  0  0  0  0  0  0  0
   -2.3960   20.0860  -32.9620 C   0  0  0  0  0  0  0  0  0  0  0  0
   -1.1320   20.5370  -32.6020 C   0  0  0  0  0  0  0  0  0  0  0  0
   -1.0470   21.5860  -31.6740 C   0  0  0  0  0  0  0  0  0  0  0  0
   -2.2140   22.1760  -31.1300 C   0  0  0  0  0  0  0  0  0  0  0  0
   -2.0710   23.2610  -30.1890 N   0  0  0  0  0  0  0  0  0  0  0  0
   -3.1030   23.6750  -29.2290 C   0  0  1  0  0  0  0  0  0  0  0  0
   -2.4660   24.4840  -28.0830 C   0  0  0  0  0  0  0  0  0  0  0  0
   -1.2050   25.1610  -28.5240 C   0  0  0  0  0  0  0  0  0  0  0  0
   -0.1040   24.5530  -28.4550 O   0  0  0  0  0  0  0  0  0  0  0  0
   -1.2390   26.4750  -28.9730 O   0  0  0  0  0  0  0  0  0  0  0  0
   -4.1660   24.4800  -29.9330 C   0  0  0  0  0  0  0  0  0  0  0  0
   -3.8490   25.3580  -30.7790 O   0  0  0  0  0  0  0  0  0  0  0  0
   -5.5080   24.2540  -29.6510 O   0  0  0  0  0  0  0  0  0  0  0  0
   -3.4860   21.6890  -31.5270 C   0  0  0  0  0  0  0  0  0  0  0  0
   -3.5420   20.6250  -32.4360 C   0  0  0  0  0  0  0  0  0  0  0  0
   -4.6330   20.0220  -32.9620 N   0  0  0  0  0  0  0  0  0  0  0  0
   -6.0080   20.3840  -32.7460 C   0  0  0  0  0  0  0  0  0  0  0  0
   -6.3670   21.5890  -32.7910 O   0  0  0  0  0  0  0  0  0  0  0  0
   -6.9580   19.4030  -32.4870 O   0  0  0  0  0  0  0  0  0  0  0  0
   -6.8530   17.7650  -35.5720 H   0  0  0  0  0  0  0  0  0  0  0  0
   -6.7830   19.2980  -34.6410 H   0  0  0  0  0  0  0  0  0  0  0  0
   -2.0983   18.4773  -34.4666 H   0  0  0  0  0  0  0  0  0  0  0  0
   -0.2256   20.0854  -33.0315 H   0  0  0  0  0  0  0  0  0  0  0  0
   -0.0585   21.9559  -31.3641 H   0  0  0  0  0  0  0  0  0  0  0  0
   -1.1530   23.7620  -30.1710 H   0  0  0  0  0  0  0  0  0  0  0  0
   -3.5757   22.7811  -28.7959 H   0  0  0  0  0  0  0  0  0  0  0  0
   -3.1816   25.2473  -27.7436 H   0  0  0  0  0  0  0  0  0  0  0  0
   -2.2177   23.7896  -27.2668 H   0  0  0  0  0  0  0  0  0  0  0  0
   -4.4084   22.1374  -31.1294 H   0  0  0  0  0  0  0  0  0  0  0  0
  1  2  1  0
  2  3  2  0
  2  4  1  0
  4  5  2  0
  5  6  1  0
  6  7  2  0
  7  8  1  0
  8  9  2  0
  9 10  1  0
 10 11  1  0
 11 12  1  0
 12 13  1  0
 13 14  2  0
 13 15  1  0
 11 16  1  0
 16 17  2  0
 16 18  1  0
  9 19  1  0
 19 20  2  0
 20 21  1  0
 21 22  1  0
 22 23  2  0
 22 24  1  0
 21  4  1  0
 20  6  1  0
  1 25  1  0
  1 26  1  0
  5 27  1  0
  7 28  1  0
  8 29  1  0
 10 30  1  0
 11 31  1  1
 12 32  1  0
 12 33  1  0
 19 34  1  0
M  CHG  3  15  -1  18  -1  24  -1
M  END
>  <UniqueID>  (60) 
60

>  <SMILES>  (60) 
NC(=O)c1cc2ccc(N[C@@H](CC(=O)[O-])C(=O)[O-])cc2n1C(=O)[O-]

>  <Energy>  (60) 
72.95952108379453

>  <Genealogy>  (60) 
NC(=O)c1cc2ccc(NC(CC(=O)[O-])C(=O)[O-])cc2n1C(=O)[O-] (protonated)
NC(=O)c1cc2ccc(N[C@@H](CC(=O)[O-])C(=O)[O-])cc2n1C(=O)[O-] (chirality)
NC(=O)c1cc2ccc(N[C@@H](CC(=O)[O-])C(=O)[O-])cc2n1C(=O)[O-] (3D coordinates assigned)
NC(=O)c1cc2ccc(N[C@@H](CC(=O)[O-])C(=O)[O-])cc2n1C(=O)[O-] (optimized conformer: 72.95952108379453 kcal/mol)

>  <smiles>  (60) 
NC(=O)c1cc2ccc(NC(CC(=O)O)C(=O)O)cc2n1C(=O)O

>  <score_type>  (60) 
oracle

>  <origin>  (60) 
adg

>  <m_score__min__energy>  (60) 
-10.19

>  <m_primary>  (60) 
energy

$$$$
61:0
     RDKit          3D

 46 48  0  0  0  0  0  0  0  0999 V2000
   -1.9700   17.4200  -34.9920 N   0  0  0  0  0  0  0  0  0  0  0  0
   -3.3790   17.1920  -34.9240 C   0  0  0  0  0  0  0  0  0  0  0  0
   -3.8480   16.1160  -35.3820 O   0  0  0  0  0  0  0  0  0  0  0  0
   -4.2850   18.2160  -34.3570 C   0  0  0  0  0  0  0  0  0  0  0  0
   -5.6760   18.1400  -34.4120 C   0  0  0  0  0  0  0  0  0  0  0  0
   -6.1290   19.2230  -33.6930 C   0  0  0  0  0  0  0  0  0  0  0  0
   -7.4310   19.6400  -33.4290 C   0  0  0  0  0  0  0  0  0  0  0  0
   -7.6060   20.8140  -32.6770 C   0  0  0  0  0  0  0  0  0  0  0  0
   -6.4860   21.5410  -32.2150 C   0  0  0  0  0  0  0  0  0  0  0  0
   -6.6780   22.7490  -31.4560 C   0  0  0  0  0  0  0  0  0  0  0  0
   -6.8340   23.7600  -30.8200 C   0  0  0  0  0  0  0  0  0  0  0  0
   -7.0210   24.9930  -30.0450 C   0  0  0  0  0  0  0  0  0  0  0  0
   -5.9700   26.0570  -30.3080 C   0  0  0  0  0  0  0  0  0  0  0  0
   -5.9310   25.2530  -29.0190 C   0  0  0  0  0  0  0  0  0  0  0  0
   -5.1810   21.0930  -32.4990 C   0  0  0  0  0  0  0  0  0  0  0  0
   -5.0340   19.9110  -33.2360 C   0  0  0  0  0  0  0  0  0  0  0  0
   -3.8950   19.3060  -33.6360 N   0  0  0  0  0  0  0  0  0  0  0  0
   -2.5540   19.7630  -33.3930 C   0  0  0  0  0  0  0  0  0  0  0  0
   -1.9300   20.3890  -34.2920 O   0  0  0  0  0  0  0  0  0  0  0  0
   -1.9540   19.5260  -32.1510 O   0  0  0  0  0  0  0  0  0  0  0  0
   -2.3480   20.1830  -30.9480 C   0  0  0  0  0  0  0  0  0  0  0  0
   -2.3660   21.7100  -31.1430 C   0  0  2  0  0  0  0  0  0  0  0  0
   -1.2200   22.1340  -31.8390 O   0  0  0  0  0  0  0  0  0  0  0  0
   -2.4860   22.4410  -29.7980 C   0  0  0  0  0  0  0  0  0  0  0  0
   -1.5360   23.4800  -29.7520 O   0  0  0  0  0  0  0  0  0  0  0  0
   -2.3360   24.9210  -29.3120 P   0  0  0  0  0  0  0  0  0  0  0  0
   -3.0220   24.7480  -27.9760 O   0  0  0  0  0  0  0  0  0  0  0  0
   -1.2320   26.2020  -29.2200 O   0  0  0  0  0  0  0  0  0  0  0  0
   -3.4970   25.2840  -30.4870 O   0  0  0  0  0  0  0  0  0  0  0  0
   -1.3450   16.7070  -35.4300 H   0  0  0  0  0  0  0  0  0  0  0  0
   -1.5380   18.2730  -34.5740 H   0  0  0  0  0  0  0  0  0  0  0  0
   -6.2826   17.3769  -34.9216 H   0  0  0  0  0  0  0  0  0  0  0  0
   -8.2955   19.0683  -33.7976 H   0  0  0  0  0  0  0  0  0  0  0  0
   -8.6212   21.1693  -32.4465 H   0  0  0  0  0  0  0  0  0  0  0  0
   -8.1206   24.9701  -30.0266 H   0  0  0  0  0  0  0  0  0  0  0  0
   -5.2043   25.8945  -31.0809 H   0  0  0  0  0  0  0  0  0  0  0  0
   -5.9930   27.1284  -30.5560 H   0  0  0  0  0  0  0  0  0  0  0  0
   -5.1373   24.5084  -28.8589 H   0  0  0  0  0  0  0  0  0  0  0  0
   -5.9142   25.5011  -27.9475 H   0  0  0  0  0  0  0  0  0  0  0  0
   -4.3020   21.6557  -32.1517 H   0  0  0  0  0  0  0  0  0  0  0  0
   -3.3550   19.8433  -30.6641 H   0  0  0  0  0  0  0  0  0  0  0  0
   -1.6248   19.9359  -30.1568 H   0  0  0  0  0  0  0  0  0  0  0  0
   -3.2518   21.9636  -31.7438 H   0  0  0  0  0  0  0  0  0  0  0  0
   -1.0640   21.4920  -32.5810 H   0  0  0  0  0  0  0  0  0  0  0  0
   -3.4973   22.8617  -29.6963 H   0  0  0  0  0  0  0  0  0  0  0  0
   -2.3031   21.7348  -28.9747 H   0  0  0  0  0  0  0  0  0  0  0  0
  1  2  1  0
  2  3  2  0
  2  4  1  0
  4  5  2  0
  5  6  1  0
  6  7  2  0
  7  8  1  0
  8  9  2  0
  9 10  1  0
 10 11  3  0
 11 12  1  0
 12 13  1  0
 13 14  1  0
  9 15  1  0
 15 16  2  0
 16 17  1  0
 17 18  1  0
 18 19  2  0
 18 20  1  0
 20 21  1  0
 21 22  1  0
 22 23  1  0
 22 24  1  0
 24 25  1  0
 25 26  1  0
 26 27  2  0
 26 28  1  0
 26 29  1  0
 17  4  1  0
 16  6  1  0
 14 12  1  0
  1 30  1  0
  1 31  1  0
  5 32  1  0
  7 33  1  0
  8 34  1  0
 12 35  1  0
 13 36  1  0
 13 37  1  0
 14 38  1  0
 14 39  1  0
 15 40  1  0
 21 41  1  0
 21 42  1  0
 22 43  1  6
 23 44  1  0
 24 45  1  0
 24 46  1  0
M  CHG  2  28  -1  29  -1
M  END
>  <UniqueID>  (61) 
61

>  <SMILES>  (61) 
NC(=O)c1cc2ccc(C#CC3CC3)cc2n1C(=O)OC[C@H](O)COP(=O)([O-])[O-]

>  <Energy>  (61) 
339.73458709448937

>  <Genealogy>  (61) 
NC(=O)c1cc2ccc(C#CC3CC3)cc2n1C(=O)OCC(O)COP(=O)([O-])[O-] (protonated)
NC(=O)c1cc2ccc(C#CC3CC3)cc2n1C(=O)OC[C@H](O)COP(=O)([O-])[O-] (chirality)
NC(=O)c1cc2ccc(C#CC3CC3)cc2n1C(=O)OC[C@H](O)COP(=O)([O-])[O-] (3D coordinates assigned)
NC(=O)c1cc2ccc(C#CC3CC3)cc2n1C(=O)OC[C@H](O)COP(=O)([O-])[O-] (nonaromatic ring conformer: 339.73458709448937 kcal/mol)

>  <smiles>  (61) 
NC(=O)c1cc2ccc(C#CC3CC3)cc2n1C(=O)OCC(O)COP(=O)(O)O

>  <score_type>  (61) 
oracle

>  <origin>  (61) 
adg

>  <m_score__min__energy>  (61) 
-12.699999999999999

>  <m_primary>  (61) 
energy

$$$$
62:0
     RDKit          3D

 44 46  0  0  0  0  0  0  0  0999 V2000
   -3.5090   16.5610  -35.1810 C   0  0  0  0  0  0  0  0  0  0  0  0
   -4.7810   16.7830  -34.4830 N   0  0  0  0  0  0  0  0  0  0  0  0
   -5.0820   18.0300  -34.0060 C   0  0  0  0  0  0  0  0  0  0  0  0
   -6.2890   18.2730  -33.3280 C   0  0  0  0  0  0  0  0  0  0  0  0
   -6.6110   19.6260  -32.8060 C   0  0  0  0  0  0  0  0  0  0  0  0
   -7.9550   20.0810  -32.7730 C   0  0  0  0  0  0  0  0  0  0  0  0
   -8.2700   21.3640  -32.2930 C   0  0  0  0  0  0  0  0  0  0  0  0
   -7.2260   22.1670  -31.8440 C   0  0  0  0  0  0  0  0  0  0  0  0
   -7.2480   23.4510  -31.3540 C   0  0  0  0  0  0  0  0  0  0  0  0
   -5.9180   23.7610  -31.0690 C   0  0  0  0  0  0  0  0  0  0  0  0
   -5.4800   25.0210  -30.4280 C   0  0  0  0  0  0  0  0  0  0  0  0
   -4.1620   25.5290  -30.6410 N   0  0  0  0  0  0  0  0  0  0  0  0
   -6.2830   25.6770  -29.7130 O   0  0  0  0  0  0  0  0  0  0  0  0
   -5.1090   22.7070  -31.3740 N   0  0  0  0  0  0  0  0  0  0  0  0
   -3.6750   22.6560  -31.2920 C   0  0  0  0  0  0  0  0  0  0  0  0
   -3.0140   22.0710  -32.1910 O   0  0  0  0  0  0  0  0  0  0  0  0
   -3.0210   23.2670  -30.2150 O   0  0  0  0  0  0  0  0  0  0  0  0
   -3.0520   22.7580  -28.8820 C   0  0  0  0  0  0  0  0  0  0  0  0
   -1.8990   23.3380  -28.0600 C   0  0  0  0  0  0  0  0  0  0  0  0
   -1.9990   24.8310  -27.9690 C   0  0  0  0  0  0  0  0  0  0  0  0
   -2.2300   25.4980  -28.9650 O   0  0  0  0  0  0  0  0  0  0  0  0
   -5.9250   21.7400  -31.8490 C   0  0  0  0  0  0  0  0  0  0  0  0
   -5.5790   20.4750  -32.3380 C   0  0  0  0  0  0  0  0  0  0  0  0
   -7.1830   17.2080  -33.1520 C   0  0  0  0  0  0  0  0  0  0  0  0
   -6.8650   15.9430  -33.6390 C   0  0  0  0  0  0  0  0  0  0  0  0
   -5.6550   15.7420  -34.3050 C   0  0  0  0  0  0  0  0  0  0  0  0
   -5.3770   14.5890  -34.7380 O   0  0  0  0  0  0  0  0  0  0  0  0
   -2.7054   16.4208  -34.4430 H   0  0  0  0  0  0  0  0  0  0  0  0
   -3.5886   15.6632  -35.8115 H   0  0  0  0  0  0  0  0  0  0  0  0
   -3.2797   17.4327  -35.8115 H   0  0  0  0  0  0  0  0  0  0  0  0
   -4.3689   18.8541  -34.1554 H   0  0  0  0  0  0  0  0  0  0  0  0
   -8.7605   19.4211  -33.1276 H   0  0  0  0  0  0  0  0  0  0  0  0
   -9.3098   21.7223  -32.2729 H   0  0  0  0  0  0  0  0  0  0  0  0
   -8.1276   24.0970  -31.2159 H   0  0  0  0  0  0  0  0  0  0  0  0
   -3.8770   26.4390  -30.2130 H   0  0  0  0  0  0  0  0  0  0  0  0
   -3.4510   24.9860  -31.1770 H   0  0  0  0  0  0  0  0  0  0  0  0
   -4.0070   23.0342  -28.4112 H   0  0  0  0  0  0  0  0  0  0  0  0
   -2.9489   21.6634  -28.9166 H   0  0  0  0  0  0  0  0  0  0  0  0
   -1.9315   22.9132  -27.0458 H   0  0  0  0  0  0  0  0  0  0  0  0
   -0.9518   23.0808  -28.5566 H   0  0  0  0  0  0  0  0  0  0  0  0
   -1.8632   25.3291  -26.9977 H   0  0  0  0  0  0  0  0  0  0  0  0
   -4.5290   20.1478  -32.3583 H   0  0  0  0  0  0  0  0  0  0  0  0
   -8.1366   17.3717  -32.6287 H   0  0  0  0  0  0  0  0  0  0  0  0
   -7.5644   15.1055  -33.4995 H   0  0  0  0  0  0  0  0  0  0  0  0
  1  2  1  0
  2  3  1  0
  3  4  2  0
  4  5  1  0
  5  6  2  0
  6  7  1  0
  7  8  2  0
  8  9  1  0
  9 10  2  0
 10 11  1  0
 11 12  1  0
 11 13  2  0
 10 14  1  0
 14 15  1  0
 15 16  2  0
 15 17  1  0
 17 18  1  0
 18 19  1  0
 19 20  1  0
 20 21  2  0
 14 22  1  0
 22 23  2  0
  4 24  1  0
 24 25  2  0
 25 26  1  0
 26 27  2  0
 26  2  1  0
 23  5  1  0
 22  8  1  0
  1 28  1  0
  1 29  1  0
  1 30  1  0
  3 31  1  0
  6 32  1  0
  7 33  1  0
  9 34  1  0
 12 35  1  0
 12 36  1  0
 18 37  1  0
 18 38  1  0
 19 39  1  0
 19 40  1  0
 20 41  1  0
 23 42  1  0
 24 43  1  0
 25 44  1  0
M  END
>  <UniqueID>  (62) 
62

>  <SMILES>  (62) 
Cn1cc(-c2ccc3cc(C(N)=O)n(C(=O)OCCC=O)c3c2)ccc1=O

>  <Energy>  (62) 
86.95959202333562

>  <Genealogy>  (62) 
Cn1cc(-c2ccc3cc(C(N)=O)n(C(=O)OCCC=O)c3c2)ccc1=O (3D coordinates assigned)
Cn1cc(-c2ccc3cc(C(N)=O)n(C(=O)OCCC=O)c3c2)ccc1=O (optimized conformer: 86.95959202333562 kcal/mol)

>  <smiles>  (62) 
Cn1cc(-c2ccc3cc(C(N)=O)n(C(=O)OCCC=O)c3c2)ccc1=O

>  <score_type>  (62) 
oracle

>  <origin>  (62) 
adg

>  <m_score__min__energy>  (62) 
-9.6899999999999995

>  <m_primary>  (62) 
energy

$$$$
63:0
     RDKit          3D

 32 33  0  0  0  0  0  0  0  0999 V2000
   -3.9340   25.6610  -30.7610 N   0  0  0  0  0  0  0  0  0  0  0  0
   -5.2120   25.1690  -30.3620 C   0  0  0  0  0  0  0  0  0  0  0  0
   -5.8860   25.8120  -29.5150 O   0  0  0  0  0  0  0  0  0  0  0  0
   -5.7480   23.9350  -30.9730 C   0  0  0  0  0  0  0  0  0  0  0  0
   -7.0830   23.7700  -31.3410 C   0  0  0  0  0  0  0  0  0  0  0  0
   -7.1870   22.4600  -31.7530 C   0  0  0  0  0  0  0  0  0  0  0  0
   -8.2900   21.7520  -32.2240 C   0  0  0  0  0  0  0  0  0  0  0  0
   -8.1030   20.4070  -32.5860 C   0  0  0  0  0  0  0  0  0  0  0  0
   -6.8280   19.8050  -32.4720 C   0  0  0  0  0  0  0  0  0  0  0  0
   -6.6460   18.4290  -32.8540 C   0  0  0  0  0  0  0  0  0  0  0  0
   -6.4940   17.2770  -33.1740 C   0  0  0  0  0  0  0  0  0  0  0  0
   -6.3120   15.9050  -33.5540 C   0  0  0  0  0  0  0  0  0  0  0  0
   -5.3260   15.2580  -33.1180 O   0  0  0  0  0  0  0  0  0  0  0  0
   -7.2230   15.2950  -34.4050 O   0  0  0  0  0  0  0  0  0  0  0  0
   -5.7320   20.5480  -31.9880 C   0  0  0  0  0  0  0  0  0  0  0  0
   -5.9500   21.8820  -31.6310 C   0  0  0  0  0  0  0  0  0  0  0  0
   -5.0540   22.7780  -31.1650 N   0  0  0  0  0  0  0  0  0  0  0  0
   -3.6520   22.5420  -30.9660 C   0  0  0  0  0  0  0  0  0  0  0  0
   -2.8200   23.0000  -31.7930 O   0  0  0  0  0  0  0  0  0  0  0  0
   -3.1580   21.8430  -29.7350 C   0  0  0  0  0  0  0  0  0  0  0  0
   -1.7470   22.7380  -29.0190 P   0  0  2  0  0  0  0  0  0  0  0  0
   -0.4520   22.1950  -29.5800 O   0  0  0  0  0  0  0  0  0  0  0  0
   -1.7570   22.5280  -27.3420 O   0  0  0  0  0  0  0  0  0  0  0  0
   -1.8750   24.3890  -29.3680 O   0  0  0  0  0  0  0  0  0  0  0  0
   -3.1510   25.0060  -30.9790 H   0  0  0  0  0  0  0  0  0  0  0  0
   -7.8823   24.5250  -31.3090 H   0  0  0  0  0  0  0  0  0  0  0  0
   -9.2767   22.2306  -32.3100 H   0  0  0  0  0  0  0  0  0  0  0  0
   -8.9536   19.8186  -32.9604 H   0  0  0  0  0  0  0  0  0  0  0  0
   -4.7354   20.0919  -31.8941 H   0  0  0  0  0  0  0  0  0  0  0  0
   -3.9703   21.7958  -28.9947 H   0  0  0  0  0  0  0  0  0  0  0  0
   -2.8345   20.8276  -30.0076 H   0  0  0  0  0  0  0  0  0  0  0  0
   -2.2100   24.4320  -30.2980 H   0  0  0  0  0  0  0  0  0  0  0  0
  1  2  1  0
  2  3  2  0
  2  4  1  0
  4  5  2  0
  5  6  1  0
  6  7  2  0
  7  8  1  0
  8  9  2  0
  9 10  1  0
 10 11  3  0
 11 12  1  0
 12 13  2  0
 12 14  1  0
  9 15  1  0
 15 16  2  0
 16 17  1  0
 17 18  1  0
 18 19  2  0
 18 20  1  0
 20 21  1  0
 21 22  2  0
 21 23  1  1
 21 24  1  0
 17  4  1  0
 16  6  1  0
  1 25  1  0
  5 26  1  0
  7 27  1  0
  8 28  1  0
 15 29  1  0
 20 30  1  0
 20 31  1  0
 24 32  1  0
M  CHG  3   1  -1  14  -1  23  -1
M  END
>  <UniqueID>  (63) 
63

>  <SMILES>  (63) 
[NH-]C(=O)c1cc2ccc(C#CC(=O)[O-])cc2n1C(=O)C[P@](=O)([O-])O

>  <Energy>  (63) 
61.272544367

>  <Genealogy>  (63) 
[NH-]C(=O)c1cc2ccc(C#CC(=O)[O-])cc2n1C(=O)CP(=O)([O-])O (protonated)
[NH-]C(=O)c1cc2ccc(C#CC(=O)[O-])cc2n1C(=O)C[P@](=O)([O-])O (chirality)
[NH-]C(=O)c1cc2ccc(C#CC(=O)[O-])cc2n1C(=O)C[P@](=O)([O-])O (3D coordinates assigned)
[NH-]C(=O)c1cc2ccc(C#CC(=O)[O-])cc2n1C(=O)C[P@](=O)([O-])O (optimized conformer: 61.272544367 kcal/mol)

>  <smiles>  (63) 
NC(=O)c1cc2ccc(C#CC(=O)O)cc2n1C(=O)CP(=O)(O)O

>  <score_type>  (63) 
oracle

>  <origin>  (63) 
adg

>  <m_score__min__energy>  (63) 
-12.43

>  <m_primary>  (63) 
energy

$$$$
64:0
     RDKit          3D

 46 47  0  0  0  0  0  0  0  0999 V2000
   -7.1550   23.5060  -31.0440 C   0  0  0  0  0  0  0  0  0  0  0  0
   -8.1570   22.7450  -31.8030 N   0  0  0  0  0  0  0  0  0  0  0  0
   -9.3270   23.4520  -32.3390 C   0  0  0  0  0  0  0  0  0  0  0  0
   -7.9890   21.3190  -32.0220 C   0  0  0  0  0  0  0  0  0  0  0  0
   -9.0610   20.4130  -31.7740 C   0  0  0  0  0  0  0  0  0  0  0  0
   -8.9110   19.0340  -31.9880 C   0  0  0  0  0  0  0  0  0  0  0  0
   -7.6860   18.5740  -32.4540 C   0  0  0  0  0  0  0  0  0  0  0  0
   -7.2720   17.2920  -32.7350 C   0  0  0  0  0  0  0  0  0  0  0  0
   -5.9510   17.4160  -33.1630 C   0  0  0  0  0  0  0  0  0  0  0  0
   -5.1410   16.2880  -33.6750 C   0  0  0  0  0  0  0  0  0  0  0  0
   -4.3650   16.4250  -34.8670 N   0  0  0  0  0  0  0  0  0  0  0  0
   -5.1030   15.1990  -33.0430 O   0  0  0  0  0  0  0  0  0  0  0  0
   -5.5640   18.7240  -33.1400 N   0  0  0  0  0  0  0  0  0  0  0  0
   -4.2590   19.2550  -33.4270 C   0  0  0  0  0  0  0  0  0  0  0  0
   -3.7780   19.1540  -34.5890 O   0  0  0  0  0  0  0  0  0  0  0  0
   -3.5140   19.9170  -32.3980 N   0  0  0  0  0  0  0  0  0  0  0  0
   -2.8540   21.2040  -32.5800 C   0  0  0  0  0  0  0  0  0  0  0  0
   -2.8760   21.9990  -31.2780 C   0  0  0  0  0  0  0  0  0  0  0  0
   -3.6290   23.1930  -31.4660 O   0  0  0  0  0  0  0  0  0  0  0  0
   -3.8840   24.0940  -30.4280 C   0  0  0  0  0  0  0  0  0  0  0  0
   -4.0860   25.3160  -30.6690 O   0  0  0  0  0  0  0  0  0  0  0  0
   -3.8770   23.6060  -29.0120 C   0  0  0  0  0  0  0  0  0  0  0  0
   -3.0850   24.5470  -28.0990 C   0  0  0  0  0  0  0  0  0  0  0  0
   -1.7110   25.2950  -28.9630 S   0  0  0  0  0  0  0  0  0  0  0  0
   -6.6400   19.4200  -32.7090 C   0  0  0  0  0  0  0  0  0  0  0  0
   -6.7540   20.8000  -32.4930 C   0  0  0  0  0  0  0  0  0  0  0  0
   -7.3316   23.3719  -29.9666 H   0  0  0  0  0  0  0  0  0  0  0  0
   -6.1485   23.1426  -31.2986 H   0  0  0  0  0  0  0  0  0  0  0  0
   -7.2349   24.5731  -31.2986 H   0  0  0  0  0  0  0  0  0  0  0  0
   -9.9432   23.8243  -31.5073 H   0  0  0  0  0  0  0  0  0  0  0  0
   -8.9927   24.2994  -32.9556 H   0  0  0  0  0  0  0  0  0  0  0  0
   -9.9217   22.7620  -32.9556 H   0  0  0  0  0  0  0  0  0  0  0  0
  -10.0230   20.8015  -31.4084 H   0  0  0  0  0  0  0  0  0  0  0  0
   -9.7397   18.3376  -31.7923 H   0  0  0  0  0  0  0  0  0  0  0  0
   -7.8587   16.3662  -32.6417 H   0  0  0  0  0  0  0  0  0  0  0  0
   -3.7550   15.6410  -35.1870 H   0  0  0  0  0  0  0  0  0  0  0  0
   -4.4090   17.2920  -35.4480 H   0  0  0  0  0  0  0  0  0  0  0  0
   -1.8106   21.0368  -32.8855 H   0  0  0  0  0  0  0  0  0  0  0  0
   -3.3872   21.7731  -33.3558 H   0  0  0  0  0  0  0  0  0  0  0  0
   -3.3402   21.3932  -30.4858 H   0  0  0  0  0  0  0  0  0  0  0  0
   -1.8468   22.2555  -30.9865 H   0  0  0  0  0  0  0  0  0  0  0  0
   -4.9138   23.5449  -28.6496 H   0  0  0  0  0  0  0  0  0  0  0  0
   -3.3960   22.6170  -28.9897 H   0  0  0  0  0  0  0  0  0  0  0  0
   -3.7546   25.3411  -27.7370 H   0  0  0  0  0  0  0  0  0  0  0  0
   -2.6858   23.9585  -27.2597 H   0  0  0  0  0  0  0  0  0  0  0  0
   -5.9022   21.4690  -32.6849 H   0  0  0  0  0  0  0  0  0  0  0  0
  1  2  1  0
  2  3  1  0
  2  4  1  0
  4  5  2  0
  5  6  1  0
  6  7  2  0
  7  8  1  0
  8  9  2  0
  9 10  1  0
 10 11  1  0
 10 12  2  0
  9 13  1  0
 13 14  1  0
 14 15  2  0
 14 16  1  0
 16 17  1  0
 17 18  1  0
 18 19  1  0
 19 20  1  0
 20 21  2  0
 20 22  1  0
 22 23  1  0
 23 24  1  0
 13 25  1  0
 25 26  2  0
 26  4  1  0
 25  7  1  0
  1 27  1  0
  1 28  1  0
  1 29  1  0
  3 30  1  0
  3 31  1  0
  3 32  1  0
  5 33  1  0
  6 34  1  0
  8 35  1  0
 11 36  1  0
 11 37  1  0
 17 38  1  0
 17 39  1  0
 18 40  1  0
 18 41  1  0
 22 42  1  0
 22 43  1  0
 23 44  1  0
 23 45  1  0
 26 46  1  0
M  CHG  2  16  -1  24  -1
M  END
>  <UniqueID>  (64) 
64

>  <SMILES>  (64) 
CN(C)c1ccc2cc(C(N)=O)n(C(=O)[N-]CCOC(=O)CC[S-])c2c1

>  <Energy>  (64) 
76.63443425131204

>  <Genealogy>  (64) 
CN(C)c1ccc2cc(C(N)=O)n(C(=O)[N-]CCOC(=O)CC[S-])c2c1 (protonated)
CN(C)c1ccc2cc(C(N)=O)n(C(=O)[N-]CCOC(=O)CC[S-])c2c1 (3D coordinates assigned)
CN(C)c1ccc2cc(C(N)=O)n(C(=O)[N-]CCOC(=O)CC[S-])c2c1 (optimized conformer: 76.63443425131204 kcal/mol)

>  <smiles>  (64) 
CN(C)c1ccc2cc(C(N)=O)n(C(=O)NCCOC(=O)CCS)c2c1

>  <score_type>  (64) 
oracle

>  <origin>  (64) 
adg

>  <m_score__min__energy>  (64) 
-9.8100000000000005

>  <m_primary>  (64) 
energy

$$$$
65:0
     RDKit          3D

 68 72  0  0  0  0  0  0  0  0999 V2000
   -3.8690   25.3040  -30.4110 N   0  0  0  0  0  0  0  0  0  0  0  0
   -5.2360   25.0300  -30.7040 C   0  0  0  0  0  0  0  0  0  0  0  0
   -6.1020   25.9200  -30.4910 O   0  0  0  0  0  0  0  0  0  0  0  0
   -5.6590   23.7050  -31.2050 C   0  0  0  0  0  0  0  0  0  0  0  0
   -6.9900   23.3500  -31.4120 C   0  0  0  0  0  0  0  0  0  0  0  0
   -6.9590   22.0320  -31.8050 C   0  0  0  0  0  0  0  0  0  0  0  0
   -7.9990   21.1840  -32.1700 C   0  0  0  0  0  0  0  0  0  0  0  0
   -7.6730   19.8820  -32.5830 C   0  0  0  0  0  0  0  0  0  0  0  0
   -6.3200   19.4480  -32.6280 C   0  0  0  0  0  0  0  0  0  0  0  0
   -5.9900   18.0750  -33.0930 C   0  0  0  0  0  0  0  0  0  0  0  0
   -4.6500   17.6790  -33.2670 C   0  0  0  0  0  0  0  0  0  0  0  0
   -4.3420   16.3970  -33.7310 C   0  0  0  0  0  0  0  0  0  0  0  0
   -5.3650   15.4910  -34.0490 C   0  0  0  0  0  0  0  0  0  0  0  0
   -5.0340   14.1440  -34.5640 C   0  0  0  0  0  0  0  0  0  0  0  0
   -5.6190   13.1380  -34.0740 O   0  0  0  0  0  0  0  0  0  0  0  0
   -4.0670   13.9580  -35.6150 N   0  0  0  0  0  0  0  0  0  0  0  0
   -4.2940   12.9130  -36.6220 C   0  0  0  0  0  0  0  0  0  0  0  0
   -3.0340   12.6380  -37.4550 C   0  0  0  0  0  0  0  0  0  0  0  0
   -2.4340   13.9500  -38.0290 C   0  0  0  0  0  0  0  0  0  0  0  0
   -1.0970   13.7700  -38.6580 N   0  0  0  0  0  0  0  0  0  0  0  0
   -0.4520   14.9830  -39.2160 C   0  0  0  0  0  0  0  0  0  0  0  0
    0.8300   15.4020  -38.4710 C   0  0  0  0  0  0  0  0  0  0  0  0
    0.8170   14.9310  -37.0800 N   0  0  0  0  0  0  0  0  0  0  0  0
    1.2650   15.7790  -36.0060 C   0  0  0  0  0  0  0  0  0  0  0  0
    1.5440   16.9900  -36.2140 O   0  0  0  0  0  0  0  0  0  0  0  0
    1.3910   15.2710  -34.7180 O   0  0  0  0  0  0  0  0  0  0  0  0
    0.5720   13.5090  -36.8140 C   0  0  0  0  0  0  0  0  0  0  0  0
   -0.1760   12.8400  -37.9760 C   0  0  0  0  0  0  0  0  0  0  0  0
   -2.3760   15.1020  -36.9830 C   0  0  0  0  0  0  0  0  0  0  0  0
   -2.7780   14.6610  -35.5720 C   0  0  0  0  0  0  0  0  0  0  0  0
   -6.7010   15.8730  -33.8530 C   0  0  0  0  0  0  0  0  0  0  0  0
   -7.0110   17.1510  -33.3810 C   0  0  0  0  0  0  0  0  0  0  0  0
   -5.2920   20.3430  -32.2430 C   0  0  0  0  0  0  0  0  0  0  0  0
   -5.6500   21.6310  -31.8260 C   0  0  0  0  0  0  0  0  0  0  0  0
   -4.8370   22.6480  -31.4620 N   0  0  0  0  0  0  0  0  0  0  0  0
   -3.4020   22.6350  -31.4760 C   0  0  0  0  0  0  0  0  0  0  0  0
   -2.7590   23.1260  -30.5090 O   0  0  0  0  0  0  0  0  0  0  0  0
   -2.7270   22.0560  -32.5560 O   0  0  0  0  0  0  0  0  0  0  0  0
   -1.8150   20.9710  -32.4160 C   0  0  0  0  0  0  0  0  0  0  0  0
   -0.5910   21.4390  -31.9740 F   0  0  0  0  0  0  0  0  0  0  0  0
   -2.3120   20.0470  -31.5160 F   0  0  0  0  0  0  0  0  0  0  0  0
   -1.6480   20.3600  -33.6430 F   0  0  0  0  0  0  0  0  0  0  0  0
   -3.1370   25.2430  -31.1530 H   0  0  0  0  0  0  0  0  0  0  0  0
   -7.8774   23.9880  -31.2876 H   0  0  0  0  0  0  0  0  0  0  0  0
   -9.0450   21.5227  -32.1362 H   0  0  0  0  0  0  0  0  0  0  0  0
   -8.4753   19.1887  -32.8756 H   0  0  0  0  0  0  0  0  0  0  0  0
   -3.8385   18.3847  -33.0358 H   0  0  0  0  0  0  0  0  0  0  0  0
   -3.2903   16.0963  -33.8476 H   0  0  0  0  0  0  0  0  0  0  0  0
   -4.5922   11.9855  -36.1112 H   0  0  0  0  0  0  0  0  0  0  0  0
   -5.0840   13.2617  -37.3034 H   0  0  0  0  0  0  0  0  0  0  0  0
   -2.2826   12.1507  -36.8163 H   0  0  0  0  0  0  0  0  0  0  0  0
   -3.3123   11.9881  -38.2977 H   0  0  0  0  0  0  0  0  0  0  0  0
   -3.1382   14.2400  -38.8227 H   0  0  0  0  0  0  0  0  0  0  0  0
   -0.1942   14.7867  -40.2672 H   0  0  0  0  0  0  0  0  0  0  0  0
   -1.1711   15.8082  -39.1069 H   0  0  0  0  0  0  0  0  0  0  0  0
    1.7011   14.9717  -38.9869 H   0  0  0  0  0  0  0  0  0  0  0  0
    0.8847   16.5006  -38.4650 H   0  0  0  0  0  0  0  0  0  0  0  0
    1.5369   13.0008  -36.6703 H   0  0  0  0  0  0  0  0  0  0  0  0
   -0.0510   13.4291  -35.9109 H   0  0  0  0  0  0  0  0  0  0  0  0
    0.5603   12.4724  -38.7059 H   0  0  0  0  0  0  0  0  0  0  0  0
   -0.7754   12.0164  -37.5609 H   0  0  0  0  0  0  0  0  0  0  0  0
   -1.3473   15.4898  -36.9476 H   0  0  0  0  0  0  0  0  0  0  0  0
   -3.0975   15.8684  -37.3025 H   0  0  0  0  0  0  0  0  0  0  0  0
   -2.0085   13.9870  -35.1676 H   0  0  0  0  0  0  0  0  0  0  0  0
   -2.8712   15.5483  -34.9285 H   0  0  0  0  0  0  0  0  0  0  0  0
   -7.5102   15.1610  -34.0726 H   0  0  0  0  0  0  0  0  0  0  0  0
   -8.0628   17.4372  -33.2333 H   0  0  0  0  0  0  0  0  0  0  0  0
   -4.2368   20.0335  -32.2709 H   0  0  0  0  0  0  0  0  0  0  0  0
  1  2  1  0
  2  3  2  0
  2  4  1  0
  4  5  2  0
  5  6  1  0
  6  7  2  0
  7  8  1  0
  8  9  2  0
  9 10  1  0
 10 11  2  0
 11 12  1  0
 12 13  2  0
 13 14  1  0
 14 15  2  0
 14 16  1  0
 16 17  1  0
 17 18  1  0
 18 19  1  0
 19 20  1  0
 20 21  1  0
 21 22  1  0
 22 23  1  0
 23 24  1  0
 24 25  2  0
 24 26  1  0
 23 27  1  0
 27 28  1  0
 19 29  1  0
 29 30  1  0
 13 31  1  0
 31 32  2  0
  9 33  1  0
 33 34  2  0
 34 35  1  0
 35 36  1  0
 36 37  2  0
 36 38  1  0
 38 39  1  0
 39 40  1  0
 39 41  1  0
 39 42  1  0
 35  4  1  0
 34  6  1  0
 32 10  1  0
 30 16  1  0
 28 20  1  0
  1 43  1  0
  5 44  1  0
  7 45  1  0
  8 46  1  0
 11 47  1  0
 12 48  1  0
 17 49  1  0
 17 50  1  0
 18 51  1  0
 18 52  1  0
 19 53  1  0
 21 54  1  0
 21 55  1  0
 22 56  1  0
 22 57  1  0
 27 58  1  0
 27 59  1  0
 28 60  1  0
 28 61  1  0
 29 62  1  0
 29 63  1  0
 30 64  1  0
 30 65  1  0
 31 66  1  0
 32 67  1  0
 33 68  1  0
M  CHG  2   1  -1  26  -1
M  END
>  <UniqueID>  (65) 
65

>  <SMILES>  (65) 
[NH-]C(=O)c1cc2ccc(-c3ccc(C(=O)N4CCC(N5CCN(C(=O)[O-])CC5)CC4)cc3)cc2n1C(=O)OC(F)(F)F

>  <Energy>  (65) 
137.06581783144182

>  <Genealogy>  (65) 
[NH-]C(=O)c1cc2ccc(-c3ccc(C(=O)N4CCC(N5CCN(C(=O)[O-])CC5)CC4)cc3)cc2n1C(=O)OC(F)(F)F (protonated)
[NH-]C(=O)c1cc2ccc(-c3ccc(C(=O)N4CCC(N5CCN(C(=O)[O-])CC5)CC4)cc3)cc2n1C(=O)OC(F)(F)F (3D coordinates assigned)
[NH-]C(=O)c1cc2ccc(-c3ccc(C(=O)N4CCC(N5CCN(C(=O)[O-])CC5)CC4)cc3)cc2n1C(=O)OC(F)(F)F (nonaromatic ring conformer: 137.06581783144182 kcal/mol)

>  <smiles>  (65) 
NC(=O)c1cc2ccc(-c3ccc(C(=O)N4CCC(N5CCN(C(=O)O)CC5)CC4)cc3)cc2n1C(=O)OC(F)(F)F

>  <score_type>  (65) 
oracle

>  <origin>  (65) 
adg

>  <m_score__min__energy>  (65) 
-11.1

>  <m_primary>  (65) 
energy

$$$$
66:0
     RDKit          3D

 42 43  0  0  0  0  0  0  0  0999 V2000
   -3.8000   25.3170  -30.8380 N   0  0  0  0  0  0  0  0  0  0  0  0
   -5.1960   25.0880  -30.6750 C   0  0  0  0  0  0  0  0  0  0  0  0
   -5.9080   25.9800  -30.1400 O   0  0  0  0  0  0  0  0  0  0  0  0
   -5.8100   23.8040  -31.0720 C   0  0  0  0  0  0  0  0  0  0  0  0
   -7.1620   23.6610  -31.3760 C   0  0  0  0  0  0  0  0  0  0  0  0
   -7.3460   22.3150  -31.5960 C   0  0  0  0  0  0  0  0  0  0  0  0
   -8.4970   21.6140  -31.9380 C   0  0  0  0  0  0  0  0  0  0  0  0
   -8.3900   20.2260  -32.1270 C   0  0  0  0  0  0  0  0  0  0  0  0
   -7.1450   19.5640  -31.9850 C   0  0  0  0  0  0  0  0  0  0  0  0
   -7.0870   18.1400  -32.1960 N   0  0  0  0  0  0  0  0  0  0  0  0
   -6.9280   17.4940  -33.5010 C   0  0  0  0  0  0  0  0  0  0  0  0
   -5.7420   18.0850  -34.2630 C   0  0  0  0  0  0  0  0  0  0  0  0
   -6.1340   19.2620  -34.9140 O   0  0  0  0  0  0  0  0  0  0  0  0
   -5.9970   20.3150  -31.6300 C   0  0  0  0  0  0  0  0  0  0  0  0
   -6.1360   21.6940  -31.4300 C   0  0  0  0  0  0  0  0  0  0  0  0
   -5.1810   22.5940  -31.1130 N   0  0  0  0  0  0  0  0  0  0  0  0
   -3.7820   22.3230  -30.9400 C   0  0  0  0  0  0  0  0  0  0  0  0
   -3.0080   22.3480  -31.9350 O   0  0  0  0  0  0  0  0  0  0  0  0
   -3.2930   22.0010  -29.6680 O   0  0  0  0  0  0  0  0  0  0  0  0
   -3.0890   22.9600  -28.6300 C   0  0  0  0  0  0  0  0  0  0  0  0
   -1.6980   23.6070  -28.7210 C   0  0  1  0  0  0  0  0  0  0  0  0
   -1.3380   23.7580  -30.0700 O   0  0  0  0  0  0  0  0  0  0  0  0
   -1.6510   24.9720  -28.0140 C   0  0  0  0  0  0  0  0  0  0  0  0
   -1.6270   26.0210  -28.9450 O   0  0  0  0  0  0  0  0  0  0  0  0
   -3.1130   24.9850  -30.1240 H   0  0  0  0  0  0  0  0  0  0  0  0
   -7.9212   24.4552  -31.4289 H   0  0  0  0  0  0  0  0  0  0  0  0
   -9.4612   22.1300  -32.0569 H   0  0  0  0  0  0  0  0  0  0  0  0
   -9.2861   19.6443  -32.3891 H   0  0  0  0  0  0  0  0  0  0  0  0
   -7.1470   17.5120  -31.3620 H   0  0  0  0  0  0  0  0  0  0  0  0
   -6.7592   16.4174  -33.3514 H   0  0  0  0  0  0  0  0  0  0  0  0
   -7.8420   17.6623  -34.0894 H   0  0  0  0  0  0  0  0  0  0  0  0
   -4.9304   18.3119  -33.5560 H   0  0  0  0  0  0  0  0  0  0  0  0
   -5.3913   17.3571  -35.0094 H   0  0  0  0  0  0  0  0  0  0  0  0
   -7.1220   19.2190  -34.9870 H   0  0  0  0  0  0  0  0  0  0  0  0
   -5.0186   19.8257  -31.5141 H   0  0  0  0  0  0  0  0  0  0  0  0
   -3.8541   23.7457  -28.7149 H   0  0  0  0  0  0  0  0  0  0  0  0
   -3.1637   22.4407  -27.6631 H   0  0  0  0  0  0  0  0  0  0  0  0
   -0.9839   22.9439  -28.2108 H   0  0  0  0  0  0  0  0  0  0  0  0
   -2.1820   23.8360  -30.5870 H   0  0  0  0  0  0  0  0  0  0  0  0
   -2.5412   25.0775  -27.3764 H   0  0  0  0  0  0  0  0  0  0  0  0
   -0.7343   25.0209  -27.4080 H   0  0  0  0  0  0  0  0  0  0  0  0
   -2.0430   25.6710  -29.7770 H   0  0  0  0  0  0  0  0  0  0  0  0
  1  2  1  0
  2  3  2  0
  2  4  1  0
  4  5  2  0
  5  6  1  0
  6  7  2  0
  7  8  1  0
  8  9  2  0
  9 10  1  0
 10 11  1  0
 11 12  1  0
 12 13  1  0
  9 14  1  0
 14 15  2  0
 15 16  1  0
 16 17  1  0
 17 18  2  0
 17 19  1  0
 19 20  1  0
 20 21  1  0
 21 22  1  0
 21 23  1  0
 23 24  1  0
 16  4  1  0
 15  6  1  0
  1 25  1  0
  5 26  1  0
  7 27  1  0
  8 28  1  0
 10 29  1  0
 11 30  1  0
 11 31  1  0
 12 32  1  0
 12 33  1  0
 13 34  1  0
 14 35  1  0
 20 36  1  0
 20 37  1  0
 21 38  1  1
 22 39  1  0
 23 40  1  0
 23 41  1  0
 24 42  1  0
M  CHG  1   1  -1
M  END
>  <UniqueID>  (66) 
66

>  <SMILES>  (66) 
[NH-]C(=O)c1cc2ccc(NCCO)cc2n1C(=O)OC[C@@H](O)CO

>  <Energy>  (66) 
73.97871445262051

>  <Genealogy>  (66) 
[NH-]C(=O)c1cc2ccc(NCCO)cc2n1C(=O)OCC(O)CO (protonated)
[NH-]C(=O)c1cc2ccc(NCCO)cc2n1C(=O)OC[C@@H](O)CO (chirality)
[NH-]C(=O)c1cc2ccc(NCCO)cc2n1C(=O)OC[C@@H](O)CO (3D coordinates assigned)
[NH-]C(=O)c1cc2ccc(NCCO)cc2n1C(=O)OC[C@@H](O)CO (optimized conformer: 73.97871445262051 kcal/mol)

>  <smiles>  (66) 
NC(=O)c1cc2ccc(NCCO)cc2n1C(=O)OCC(O)CO

>  <score_type>  (66) 
oracle

>  <origin>  (66) 
adg

>  <m_score__min__energy>  (66) 
-9.4399999999999995

>  <m_primary>  (66) 
energy

$$$$
67:0
     RDKit          3D

 37 38  0  0  0  0  0  0  0  0999 V2000
   -6.7510   17.0980  -32.6940 C   0  0  0  0  0  0  0  0  0  0  0  0
   -6.9280   18.2430  -32.3570 C   0  0  0  0  0  0  0  0  0  0  0  0
   -7.1350   19.6090  -31.9530 C   0  0  0  0  0  0  0  0  0  0  0  0
   -8.4440   20.0770  -31.6950 C   0  0  0  0  0  0  0  0  0  0  0  0
   -8.6570   21.4080  -31.2970 C   0  0  0  0  0  0  0  0  0  0  0  0
   -7.5440   22.2360  -31.1670 C   0  0  0  0  0  0  0  0  0  0  0  0
   -7.4640   23.5700  -30.8360 C   0  0  0  0  0  0  0  0  0  0  0  0
   -6.1070   23.8870  -30.8980 C   0  0  0  0  0  0  0  0  0  0  0  0
   -5.5640   25.2270  -30.5960 C   0  0  0  0  0  0  0  0  0  0  0  0
   -4.1980   25.5390  -30.8520 N   0  0  0  0  0  0  0  0  0  0  0  0
   -6.3080   26.1000  -30.0740 O   0  0  0  0  0  0  0  0  0  0  0  0
   -5.3790   22.7910  -31.2500 N   0  0  0  0  0  0  0  0  0  0  0  0
   -3.9760   22.7270  -31.5470 C   0  0  0  0  0  0  0  0  0  0  0  0
   -3.5990   22.6690  -32.7490 O   0  0  0  0  0  0  0  0  0  0  0  0
   -2.9950   22.6730  -30.5010 N   0  0  0  0  0  0  0  0  0  0  0  0
   -3.2350   23.1370  -29.1630 C   0  0  0  0  0  0  0  0  0  0  0  0
   -4.1970   23.9180  -28.9350 O   0  0  0  0  0  0  0  0  0  0  0  0
   -2.3740   22.7330  -28.0800 N   0  0  0  0  0  0  0  0  0  0  0  0
   -2.4300   21.3490  -27.5990 C   0  0  0  0  0  0  0  0  0  0  0  0
   -1.4340   23.6810  -27.4700 C   0  0  0  0  0  0  0  0  0  0  0  0
   -0.8840   24.6210  -28.4970 C   0  0  0  0  0  0  0  0  0  0  0  0
    0.2840   24.4630  -28.9380 O   0  0  0  0  0  0  0  0  0  0  0  0
   -1.6710   25.6550  -28.9880 O   0  0  0  0  0  0  0  0  0  0  0  0
   -6.2710   21.7910  -31.4130 C   0  0  0  0  0  0  0  0  0  0  0  0
   -6.0300   20.4730  -31.8180 C   0  0  0  0  0  0  0  0  0  0  0  0
   -6.5896   16.0542  -33.0012 H   0  0  0  0  0  0  0  0  0  0  0  0
   -9.3004   19.3957  -31.8064 H   0  0  0  0  0  0  0  0  0  0  0  0
   -9.6706   21.7842  -31.0945 H   0  0  0  0  0  0  0  0  0  0  0  0
   -8.2945   24.2434  -30.5774 H   0  0  0  0  0  0  0  0  0  0  0  0
   -3.5190   25.6700  -30.0690 H   0  0  0  0  0  0  0  0  0  0  0  0
   -2.0370   22.3440  -30.7540 H   0  0  0  0  0  0  0  0  0  0  0  0
   -2.4302   21.3428  -26.4990 H   0  0  0  0  0  0  0  0  0  0  0  0
   -3.3483   20.8693  -27.9686 H   0  0  0  0  0  0  0  0  0  0  0  0
   -1.5535   20.7966  -27.9686 H   0  0  0  0  0  0  0  0  0  0  0  0
   -1.9579   24.2600  -26.6952 H   0  0  0  0  0  0  0  0  0  0  0  0
   -0.6005   23.1154  -27.0280 H   0  0  0  0  0  0  0  0  0  0  0  0
   -5.0082   20.1220  -32.0248 H   0  0  0  0  0  0  0  0  0  0  0  0
  1  2  3  0
  2  3  1  0
  3  4  2  0
  4  5  1  0
  5  6  2  0
  6  7  1  0
  7  8  2  0
  8  9  1  0
  9 10  1  0
  9 11  2  0
  8 12  1  0
 12 13  1  0
 13 14  2  0
 13 15  1  0
 15 16  1  0
 16 17  2  0
 16 18  1  0
 18 19  1  0
 18 20  1  0
 20 21  1  0
 21 22  2  0
 21 23  1  0
 12 24  1  0
 24 25  2  0
 25  3  1  0
 24  6  1  0
  1 26  1  0
  4 27  1  0
  5 28  1  0
  7 29  1  0
 10 30  1  0
 15 31  1  0
 19 32  1  0
 19 33  1  0
 19 34  1  0
 20 35  1  0
 20 36  1  0
 25 37  1  0
M  CHG  2  10  -1  23  -1
M  END
>  <UniqueID>  (67) 
67

>  <SMILES>  (67) 
C#Cc1ccc2cc(C([NH-])=O)n(C(=O)NC(=O)N(C)CC(=O)[O-])c2c1

>  <Energy>  (67) 
73.48841711059399

>  <Genealogy>  (67) 
C#Cc1ccc2cc(C([NH-])=O)n(C(=O)NC(=O)N(C)CC(=O)[O-])c2c1 (protonated)
C#Cc1ccc2cc(C([NH-])=O)n(C(=O)NC(=O)N(C)CC(=O)[O-])c2c1 (3D coordinates assigned)
C#Cc1ccc2cc(C([NH-])=O)n(C(=O)NC(=O)N(C)CC(=O)[O-])c2c1 (optimized conformer: 73.48841711059399 kcal/mol)

>  <smiles>  (67) 
C#Cc1ccc2cc(C(N)=O)n(C(=O)NC(=O)N(C)CC(=O)O)c2c1

>  <score_type>  (67) 
oracle

>  <origin>  (67) 
adg

>  <m_score__min__energy>  (67) 
-12.699999999999999

>  <m_primary>  (67) 
energy

$$$$
68:0
     RDKit          3D

 36 37  0  0  0  0  0  0  0  0999 V2000
   -3.2140   25.0510  -30.6150 H   0  0  0  0  0  0  0  0  0  0  0  0
   -4.0510   25.6310  -30.8470 N   0  0  0  0  0  0  0  0  0  0  0  0
   -5.3590   25.2330  -30.4350 C   0  0  0  0  0  0  0  0  0  0  0  0
   -6.0490   26.0210  -29.7340 O   0  0  0  0  0  0  0  0  0  0  0  0
   -5.9280   23.9320  -30.8480 C   0  0  0  0  0  0  0  0  0  0  0  0
   -7.2790   23.7350  -31.1280 C   0  0  0  0  0  0  0  0  0  0  0  0
   -8.0886   24.4769  -31.0627 H   0  0  0  0  0  0  0  0  0  0  0  0
   -7.3850   22.4170  -31.5030 C   0  0  0  0  0  0  0  0  0  0  0  0
   -8.5090   21.6740  -31.8510 C   0  0  0  0  0  0  0  0  0  0  0  0
   -9.5026   22.1419  -31.9124 H   0  0  0  0  0  0  0  0  0  0  0  0
   -8.3330   20.3080  -32.1210 C   0  0  0  0  0  0  0  0  0  0  0  0
   -9.2025   19.6897  -32.3890 H   0  0  0  0  0  0  0  0  0  0  0  0
   -7.0470   19.7170  -32.0520 C   0  0  0  0  0  0  0  0  0  0  0  0
   -6.8850   18.2410  -32.2660 C   0  0  0  0  0  0  0  0  0  0  0  0
   -6.3252   18.0639  -33.1962 H   0  0  0  0  0  0  0  0  0  0  0  0
   -6.3341   17.8045  -31.4199 H   0  0  0  0  0  0  0  0  0  0  0  0
   -8.1340   17.6520  -32.3590 F   0  0  0  0  0  0  0  0  0  0  0  0
   -5.9300   20.5010  -31.6950 C   0  0  0  0  0  0  0  0  0  0  0  0
   -4.9272   20.0553  -31.6184 H   0  0  0  0  0  0  0  0  0  0  0  0
   -6.1340   21.8620  -31.4410 C   0  0  0  0  0  0  0  0  0  0  0  0
   -5.2290   22.7780  -31.0420 N   0  0  0  0  0  0  0  0  0  0  0  0
   -3.8380   22.5360  -30.7800 C   0  0  0  0  0  0  0  0  0  0  0  0
   -2.9730   23.0790  -31.5170 O   0  0  0  0  0  0  0  0  0  0  0  0
   -3.4550   21.6140  -29.6830 C   0  0  0  0  0  0  0  0  0  0  0  0
   -3.6107   20.5410  -29.8682 H   0  0  0  0  0  0  0  0  0  0  0  0
   -2.9340   21.9490  -28.4770 C   0  0  0  0  0  0  0  0  0  0  0  0
   -2.5400   20.8720  -27.5310 C   0  0  0  0  0  0  0  0  0  0  0  0
   -1.6880   21.0830  -26.6250 O   0  0  0  0  0  0  0  0  0  0  0  0
   -3.1200   19.6090  -27.6240 O   0  0  0  0  0  0  0  0  0  0  0  0
   -2.7200   23.3820  -28.0400 C   0  0  0  0  0  0  0  0  0  0  0  0
   -3.6106   23.9740  -28.2976 H   0  0  0  0  0  0  0  0  0  0  0  0
   -2.5504   23.3967  -26.9533 H   0  0  0  0  0  0  0  0  0  0  0  0
   -1.2660   24.1020  -28.8660 P   0  0  0  0  0  0  0  0  0  0  0  0
   -0.9200   23.2810  -30.0870 O   0  0  0  0  0  0  0  0  0  0  0  0
   -1.6150   25.6870  -29.3430 O   0  0  0  0  0  0  0  0  0  0  0  0
    0.0590   24.1260  -27.8110 O   0  0  0  0  0  0  0  0  0  0  0  0
  1  2  1  0
  2  3  1  0
  3  4  2  0
  3  5  1  0
  5  6  2  0
  6  7  1  0
  6  8  1  0
  8  9  2  0
  9 10  1  0
  9 11  1  0
 11 12  1  0
 11 13  2  0
 13 14  1  0
 14 15  1  0
 14 16  1  0
 14 17  1  0
 13 18  1  0
 18 19  1  0
 18 20  2  0
 20 21  1  0
 21 22  1  0
 22 23  2  0
 22 24  1  0
 24 25  1  0
 24 26  2  0
 26 27  1  0
 27 28  2  0
 27 29  1  0
 26 30  1  0
 30 31  1  0
 30 32  1  0
 30 33  1  0
 33 34  2  0
 33 35  1  0
 33 36  1  0
 21  5  1  0
 20  8  1  0
M  CHG  4   2  -1  29  -1  35  -1  36  -1
M  END
>  <UniqueID>  (68) 
68

>  <SMILES>  (68) 
[NH-]C(=O)c1cc2ccc(CF)cc2n1C(=O)/C=C(\CP(=O)([O-])[O-])C(=O)[O-]

>  <Energy>  (68) 
76.07490988476812

>  <Genealogy>  (68) 
[NH-]C(=O)c1cc2ccc(CF)cc2n1C(=O)/C=C(\CP(=O)([O-])[O-])C(=O)[O-] (protonated)
[NH-]C(=O)c1cc2ccc(CF)cc2n1C(=O)/C=C(\CP(=O)([O-])[O-])C(=O)[O-] (cis-trans isomerization)
[NH-]C(=O)c1cc2ccc(CF)cc2n1C(=O)/C=C(\CP(=O)([O-])[O-])C(=O)[O-] (3D coordinates assigned)
[NH-]C(=O)c1cc2ccc(CF)cc2n1C(=O)/C=C(\CP(=O)([O-])[O-])C(=O)[O-] (optimized conformer: 76.07490988476812 kcal/mol)

>  <smiles>  (68) 
NC(=O)c1cc2ccc(CF)cc2n1C(=O)/C=C(\CP(=O)(O)O)C(=O)O

>  <score_type>  (68) 
oracle

>  <origin>  (68) 
adg

>  <m_score__min__energy>  (68) 
-14.390000000000001

>  <m_primary>  (68) 
energy

$$$$
69:0
     RDKit          3D

 51 52  0  0  0  0  0  0  0  0999 V2000
   -3.6590   18.9800  -33.8350 C   0  0  0  0  0  0  0  0  0  0  0  0
   -4.2850   18.2170  -34.9250 N   0  0  0  0  0  0  0  0  0  0  0  0
   -3.7390   16.8490  -34.9450 C   0  0  0  0  0  0  0  0  0  0  0  0
   -5.7550   18.2020  -34.7570 C   0  0  0  0  0  0  0  0  0  0  0  0
   -6.1720   17.4970  -33.4530 C   0  0  0  0  0  0  0  0  0  0  0  0
   -7.5880   17.8690  -32.9800 C   0  0  0  0  0  0  0  0  0  0  0  0
   -7.6520   19.2710  -32.4280 C   0  0  0  0  0  0  0  0  0  0  0  0
   -8.8990   19.9310  -32.2910 C   0  0  0  0  0  0  0  0  0  0  0  0
   -8.9610   21.2470  -31.8020 C   0  0  0  0  0  0  0  0  0  0  0  0
   -7.7640   21.8800  -31.4770 C   0  0  0  0  0  0  0  0  0  0  0  0
   -7.5340   23.1410  -30.9730 C   0  0  0  0  0  0  0  0  0  0  0  0
   -6.1480   23.2400  -30.8400 C   0  0  0  0  0  0  0  0  0  0  0  0
   -5.4340   24.4550  -30.3830 C   0  0  0  0  0  0  0  0  0  0  0  0
   -5.3660   24.7880  -28.9940 N   0  0  0  0  0  0  0  0  0  0  0  0
   -4.8880   25.2190  -31.2200 O   0  0  0  0  0  0  0  0  0  0  0  0
   -5.5500   22.0880  -31.2530 N   0  0  0  0  0  0  0  0  0  0  0  0
   -4.1480   21.7770  -31.2450 C   0  0  0  0  0  0  0  0  0  0  0  0
   -3.5130   21.7620  -32.3340 O   0  0  0  0  0  0  0  0  0  0  0  0
   -3.4550   21.4850  -29.9710 C   0  0  0  0  0  0  0  0  0  0  0  0
   -2.8600   20.3820  -29.8460 O   0  0  0  0  0  0  0  0  0  0  0  0
   -3.4250   22.4600  -28.8560 C   0  0  0  0  0  0  0  0  0  0  0  0
   -4.3820   22.4790  -28.0340 O   0  0  0  0  0  0  0  0  0  0  0  0
   -2.3340   23.3950  -28.6870 N   0  0  0  0  0  0  0  0  0  0  0  0
   -1.0220   23.1470  -29.2960 C   0  0  0  0  0  0  0  0  0  0  0  0
   -2.5200   24.5510  -27.8070 C   0  0  0  0  0  0  0  0  0  0  0  0
   -6.5510   21.2620  -31.6280 C   0  0  0  0  0  0  0  0  0  0  0  0
   -6.4600   19.9440  -32.0850 C   0  0  0  0  0  0  0  0  0  0  0  0
   -3.9905   18.5759  -32.8671 H   0  0  0  0  0  0  0  0  0  0  0  0
   -2.5647   18.8978  -33.9112 H   0  0  0  0  0  0  0  0  0  0  0  0
   -3.9534   20.0371  -33.9112 H   0  0  0  0  0  0  0  0  0  0  0  0
   -3.5979   16.4954  -33.9130 H   0  0  0  0  0  0  0  0  0  0  0  0
   -4.4399   16.1821  -35.4685 H   0  0  0  0  0  0  0  0  0  0  0  0
   -2.7715   16.8480  -35.4685 H   0  0  0  0  0  0  0  0  0  0  0  0
   -6.1219   19.2388  -34.7348 H   0  0  0  0  0  0  0  0  0  0  0  0
   -6.1910   17.6476  -35.6011 H   0  0  0  0  0  0  0  0  0  0  0  0
   -6.1342   16.4100  -33.6174 H   0  0  0  0  0  0  0  0  0  0  0  0
   -5.4726   17.8251  -32.6699 H   0  0  0  0  0  0  0  0  0  0  0  0
   -8.2785   17.7918  -33.8328 H   0  0  0  0  0  0  0  0  0  0  0  0
   -7.8692   17.1748  -32.1744 H   0  0  0  0  0  0  0  0  0  0  0  0
   -9.8260   19.4086  -32.5698 H   0  0  0  0  0  0  0  0  0  0  0  0
   -9.9256   21.7614  -31.6797 H   0  0  0  0  0  0  0  0  0  0  0  0
   -8.2836   23.9076  -30.7274 H   0  0  0  0  0  0  0  0  0  0  0  0
   -4.8920   25.6660  -28.6920 H   0  0  0  0  0  0  0  0  0  0  0  0
   -5.7450   24.1500  -28.2600 H   0  0  0  0  0  0  0  0  0  0  0  0
   -0.2713   23.0051  -28.5046 H   0  0  0  0  0  0  0  0  0  0  0  0
   -1.0725   22.2425  -29.9199 H   0  0  0  0  0  0  0  0  0  0  0  0
   -0.7388   24.0075  -29.9199 H   0  0  0  0  0  0  0  0  0  0  0  0
   -2.4676   24.2252  -26.7577 H   0  0  0  0  0  0  0  0  0  0  0  0
   -1.7293   25.2907  -28.0012 H   0  0  0  0  0  0  0  0  0  0  0  0
   -3.5028   25.0053  -28.0012 H   0  0  0  0  0  0  0  0  0  0  0  0
   -5.4842   19.4443  -32.1749 H   0  0  0  0  0  0  0  0  0  0  0  0
  1  2  1  0
  2  3  1  0
  2  4  1  0
  4  5  1  0
  5  6  1  0
  6  7  1  0
  7  8  2  0
  8  9  1  0
  9 10  2  0
 10 11  1  0
 11 12  2  0
 12 13  1  0
 13 14  1  0
 13 15  2  0
 12 16  1  0
 16 17  1  0
 17 18  2  0
 17 19  1  0
 19 20  2  0
 19 21  1  0
 21 22  2  0
 21 23  1  0
 23 24  1  0
 23 25  1  0
 16 26  1  0
 26 27  2  0
 27  7  1  0
 26 10  1  0
  1 28  1  0
  1 29  1  0
  1 30  1  0
  3 31  1  0
  3 32  1  0
  3 33  1  0
  4 34  1  0
  4 35  1  0
  5 36  1  0
  5 37  1  0
  6 38  1  0
  6 39  1  0
  8 40  1  0
  9 41  1  0
 11 42  1  0
 14 43  1  0
 14 44  1  0
 24 45  1  0
 24 46  1  0
 24 47  1  0
 25 48  1  0
 25 49  1  0
 25 50  1  0
 27 51  1  0
M  END
>  <UniqueID>  (69) 
69

>  <SMILES>  (69) 
CN(C)CCCc1ccc2cc(C(N)=O)n(C(=O)C(=O)C(=O)N(C)C)c2c1

>  <Energy>  (69) 
86.12540348388687

>  <Genealogy>  (69) 
CN(C)CCCc1ccc2cc(C(N)=O)n(C(=O)C(=O)C(=O)N(C)C)c2c1 (3D coordinates assigned)
CN(C)CCCc1ccc2cc(C(N)=O)n(C(=O)C(=O)C(=O)N(C)C)c2c1 (optimized conformer: 86.12540348388687 kcal/mol)

>  <smiles>  (69) 
CN(C)CCCc1ccc2cc(C(N)=O)n(C(=O)C(=O)C(=O)N(C)C)c2c1

>  <score_type>  (69) 
oracle

>  <origin>  (69) 
adg

>  <m_score__min__energy>  (69) 
-8.9900000000000002

>  <m_primary>  (69) 
energy

$$$$
70:0
     RDKit          3D

 49 50  0  0  0  0  0  0  0  0999 V2000
   -4.1000   17.4430  -34.8530 C   0  0  0  0  0  0  0  0  0  0  0  0
   -5.3300   16.7410  -34.9800 O   0  0  0  0  0  0  0  0  0  0  0  0
   -6.0580   16.2880  -33.8740 C   0  0  0  0  0  0  0  0  0  0  0  0
   -6.0630   15.0620  -33.5750 O   0  0  0  0  0  0  0  0  0  0  0  0
   -6.8110   17.2620  -33.0090 C   0  0  1  0  0  0  0  0  0  0  0  0
   -6.2770   17.3440  -31.5730 C   0  0  0  0  0  0  0  0  0  0  0  0
   -6.8650   18.5950  -33.6270 N   0  0  0  0  0  0  0  0  0  0  0  0
   -7.0980   19.8510  -32.9510 C   0  0  0  0  0  0  0  0  0  0  0  0
   -8.4050   20.3130  -32.6310 C   0  0  0  0  0  0  0  0  0  0  0  0
   -8.5940   21.5410  -31.9740 C   0  0  0  0  0  0  0  0  0  0  0  0
   -7.4670   22.2820  -31.6370 C   0  0  0  0  0  0  0  0  0  0  0  0
   -7.3670   23.5090  -31.0230 C   0  0  0  0  0  0  0  0  0  0  0  0
   -6.0010   23.7740  -30.9460 C   0  0  0  0  0  0  0  0  0  0  0  0
   -5.4260   24.9600  -30.2740 C   0  0  0  0  0  0  0  0  0  0  0  0
   -5.8030   25.2960  -28.9380 N   0  0  0  0  0  0  0  0  0  0  0  0
   -4.5720   25.6700  -30.8670 O   0  0  0  0  0  0  0  0  0  0  0  0
   -5.2860   22.7490  -31.4920 N   0  0  0  0  0  0  0  0  0  0  0  0
   -3.8620   22.6800  -31.6720 C   0  0  0  0  0  0  0  0  0  0  0  0
   -3.3800   21.9110  -32.5460 O   0  0  0  0  0  0  0  0  0  0  0  0
   -3.0270   23.4820  -30.8780 O   0  0  0  0  0  0  0  0  0  0  0  0
   -2.5150   23.1530  -29.5780 C   0  0  0  0  0  0  0  0  0  0  0  0
   -1.2820   22.2630  -29.7910 C   0  0  0  0  0  0  0  0  0  0  0  0
   -2.0870   24.4260  -28.8240 C   0  0  0  0  0  0  0  0  0  0  0  0
   -3.5630   22.3670  -28.7670 C   0  0  0  0  0  0  0  0  0  0  0  0
   -6.1980   21.8450  -31.9110 C   0  0  0  0  0  0  0  0  0  0  0  0
   -5.9810   20.6350  -32.5800 C   0  0  0  0  0  0  0  0  0  0  0  0
   -3.8633   17.5781  -33.7873 H   0  0  0  0  0  0  0  0  0  0  0  0
   -3.2974   16.8669  -35.3367 H   0  0  0  0  0  0  0  0  0  0  0  0
   -4.1878   18.4270  -35.3367 H   0  0  0  0  0  0  0  0  0  0  0  0
   -7.8351   16.8675  -32.9342 H   0  0  0  0  0  0  0  0  0  0  0  0
   -7.1088   17.2163  -30.8646 H   0  0  0  0  0  0  0  0  0  0  0  0
   -5.5333   16.5495  -31.4124 H   0  0  0  0  0  0  0  0  0  0  0  0
   -5.8060   18.3250  -31.4124 H   0  0  0  0  0  0  0  0  0  0  0  0
   -6.7840   18.6200  -34.6690 H   0  0  0  0  0  0  0  0  0  0  0  0
   -9.2785   19.7015  -32.9012 H   0  0  0  0  0  0  0  0  0  0  0  0
   -9.6038   21.9050  -31.7336 H   0  0  0  0  0  0  0  0  0  0  0  0
   -8.1906   24.1459  -30.6681 H   0  0  0  0  0  0  0  0  0  0  0  0
   -6.5440   24.7610  -28.4330 H   0  0  0  0  0  0  0  0  0  0  0  0
   -5.3640   26.1140  -28.4600 H   0  0  0  0  0  0  0  0  0  0  0  0
   -0.8709   21.9663  -28.8148 H   0  0  0  0  0  0  0  0  0  0  0  0
   -1.5716   21.3643  -30.3554 H   0  0  0  0  0  0  0  0  0  0  0  0
   -0.5202   22.8208  -30.3554 H   0  0  0  0  0  0  0  0  0  0  0  0
   -2.1469   24.2478  -27.7402 H   0  0  0  0  0  0  0  0  0  0  0  0
   -1.0529   24.6834  -29.0967 H   0  0  0  0  0  0  0  0  0  0  0  0
   -2.7555   25.2559  -29.0967 H   0  0  0  0  0  0  0  0  0  0  0  0
   -3.3757   22.5075  -27.6922 H   0  0  0  0  0  0  0  0  0  0  0  0
   -4.5697   22.7347  -29.0149 H   0  0  0  0  0  0  0  0  0  0  0  0
   -3.4919   21.2977  -29.0149 H   0  0  0  0  0  0  0  0  0  0  0  0
   -4.9596   20.2997  -32.8131 H   0  0  0  0  0  0  0  0  0  0  0  0
  1  2  1  0
  2  3  1  0
  3  4  2  0
  3  5  1  0
  5  6  1  0
  5  7  1  0
  7  8  1  0
  8  9  2  0
  9 10  1  0
 10 11  2  0
 11 12  1  0
 12 13  2  0
 13 14  1  0
 14 15  1  0
 14 16  2  0
 13 17  1  0
 17 18  1  0
 18 19  2  0
 18 20  1  0
 20 21  1  0
 21 22  1  0
 21 23  1  0
 21 24  1  0
 17 25  1  0
 25 26  2  0
 26  8  1  0
 25 11  1  0
  1 27  1  0
  1 28  1  0
  1 29  1  0
  5 30  1  1
  6 31  1  0
  6 32  1  0
  6 33  1  0
  7 34  1  0
  9 35  1  0
 10 36  1  0
 12 37  1  0
 15 38  1  0
 15 39  1  0
 22 40  1  0
 22 41  1  0
 22 42  1  0
 23 43  1  0
 23 44  1  0
 23 45  1  0
 24 46  1  0
 24 47  1  0
 24 48  1  0
 26 49  1  0
M  END
>  <UniqueID>  (70) 
70

>  <SMILES>  (70) 
COC(=O)[C@@H](C)Nc1ccc2cc(C(N)=O)n(C(=O)OC(C)(C)C)c2c1

>  <Energy>  (70) 
80.32220974957593

>  <Genealogy>  (70) 
COC(=O)[C@@H](C)Nc1ccc2cc(C(N)=O)n(C(=O)OC(C)(C)C)c2c1 (3D coordinates assigned)
COC(=O)[C@@H](C)Nc1ccc2cc(C(N)=O)n(C(=O)OC(C)(C)C)c2c1 (optimized conformer: 80.32220974957593 kcal/mol)

>  <smiles>  (70) 
COC(=O)[C@@H](C)Nc1ccc2cc(C(N)=O)n(C(=O)OC(C)(C)C)c2c1

>  <score_type>  (70) 
oracle

>  <origin>  (70) 
adg

>  <m_score__min__energy>  (70) 
-9.0199999999999996

>  <m_primary>  (70) 
energy

$$$$
71:0
     RDKit          3D

 57 59  0  0  0  0  0  0  0  0999 V2000
   -8.4610   18.8130  -32.7210 C   0  0  0  0  0  0  0  0  0  0  0  0
   -8.1620   20.1890  -32.2030 C   0  0  0  0  0  0  0  0  0  0  0  0
   -9.2160   21.1090  -31.9830 C   0  0  0  0  0  0  0  0  0  0  0  0
   -8.9550   22.3820  -31.4490 C   0  0  0  0  0  0  0  0  0  0  0  0
   -7.6340   22.7030  -31.1450 C   0  0  0  0  0  0  0  0  0  0  0  0
   -7.1070   23.8430  -30.5870 C   0  0  0  0  0  0  0  0  0  0  0  0
   -5.7370   23.6070  -30.4800 C   0  0  0  0  0  0  0  0  0  0  0  0
   -4.7780   24.6050  -29.9560 C   0  0  0  0  0  0  0  0  0  0  0  0
   -3.8760   25.2900  -30.8200 N   0  0  0  0  0  0  0  0  0  0  0  0
   -4.7720   24.8740  -28.7250 O   0  0  0  0  0  0  0  0  0  0  0  0
   -5.4310   22.3670  -30.9600 N   0  0  0  0  0  0  0  0  0  0  0  0
   -4.1440   21.7280  -30.9980 C   0  0  0  0  0  0  0  0  0  0  0  0
   -4.0100   20.5590  -30.5470 O   0  0  0  0  0  0  0  0  0  0  0  0
   -2.9540   22.4360  -31.5760 C   0  0  0  0  0  0  0  0  0  0  0  0
   -2.1370   22.9720  -30.5390 O   0  0  0  0  0  0  0  0  0  0  0  0
   -0.8890   22.4410  -30.1970 C   0  0  0  0  0  0  0  0  0  0  0  0
   -0.1380   21.9440  -31.0830 O   0  0  0  0  0  0  0  0  0  0  0  0
   -0.4270   22.5150  -28.7680 C   0  0  2  0  0  0  0  0  0  0  0  0
   -0.7990   21.2470  -27.9990 C   0  0  0  0  0  0  0  0  0  0  0  0
   -2.0530   21.6020  -27.2020 C   0  0  0  0  0  0  0  0  0  0  0  0
   -2.0360   23.1190  -27.0580 C   0  0  0  0  0  0  0  0  0  0  0  0
   -1.1020   23.5950  -28.0630 N   0  0  0  0  0  0  0  0  0  0  0  0
   -0.8370   24.9870  -28.2830 C   0  0  0  0  0  0  0  0  0  0  0  0
   -1.6220   25.6690  -28.9940 O   0  0  0  0  0  0  0  0  0  0  0  0
    0.2970   25.5710  -27.6960 O   0  0  0  0  0  0  0  0  0  0  0  0
    0.4280   25.9860  -26.3290 C   0  0  0  0  0  0  0  0  0  0  0  0
    0.8560   24.8020  -25.4400 C   0  0  0  0  0  0  0  0  0  0  0  0
   -0.9530   26.4770  -25.8680 C   0  0  0  0  0  0  0  0  0  0  0  0
    1.4340   27.1470  -26.2080 C   0  0  0  0  0  0  0  0  0  0  0  0
   -6.6030   21.8250  -31.3570 C   0  0  0  0  0  0  0  0  0  0  0  0
   -6.8380   20.5430  -31.8660 C   0  0  0  0  0  0  0  0  0  0  0  0
   -8.6101   18.1268  -31.8743 H   0  0  0  0  0  0  0  0  0  0  0  0
   -9.3737   18.8424  -33.3343 H   0  0  0  0  0  0  0  0  0  0  0  0
   -7.6184   18.4610  -33.3343 H   0  0  0  0  0  0  0  0  0  0  0  0
  -10.2488   20.8242  -32.2326 H   0  0  0  0  0  0  0  0  0  0  0  0
   -9.7681   23.1025  -31.2764 H   0  0  0  0  0  0  0  0  0  0  0  0
   -7.6515   24.7507  -30.2877 H   0  0  0  0  0  0  0  0  0  0  0  0
   -2.8460   25.2570  -30.6540 H   0  0  0  0  0  0  0  0  0  0  0  0
   -2.3629   21.7236  -32.1702 H   0  0  0  0  0  0  0  0  0  0  0  0
   -3.3067   23.2613  -32.2120 H   0  0  0  0  0  0  0  0  0  0  0  0
    0.6624   22.6618  -28.8077 H   0  0  0  0  0  0  0  0  0  0  0  0
   -1.0081   20.4225  -28.6965 H   0  0  0  0  0  0  0  0  0  0  0  0
    0.0191   20.9143  -27.3432 H   0  0  0  0  0  0  0  0  0  0  0  0
   -2.9549   21.2783  -27.7422 H   0  0  0  0  0  0  0  0  0  0  0  0
   -2.0659   21.1018  -26.2224 H   0  0  0  0  0  0  0  0  0  0  0  0
   -3.0389   23.5333  -27.2386 H   0  0  0  0  0  0  0  0  0  0  0  0
   -1.7381   23.4289  -26.0455 H   0  0  0  0  0  0  0  0  0  0  0  0
    0.7545   25.0829  -24.3813 H   0  0  0  0  0  0  0  0  0  0  0  0
    0.2149   23.9337  -25.6521 H   0  0  0  0  0  0  0  0  0  0  0  0
    1.9042   24.5444  -25.6521 H   0  0  0  0  0  0  0  0  0  0  0  0
   -0.9894   26.4899  -24.7687 H   0  0  0  0  0  0  0  0  0  0  0  0
   -1.1283   27.4925  -26.2526 H   0  0  0  0  0  0  0  0  0  0  0  0
   -1.7300   25.8000  -26.2526 H   0  0  0  0  0  0  0  0  0  0  0  0
    1.6200   27.3617  -25.1453 H   0  0  0  0  0  0  0  0  0  0  0  0
    2.3788   26.8659  -26.6962 H   0  0  0  0  0  0  0  0  0  0  0  0
    1.0213   28.0422  -26.6962 H   0  0  0  0  0  0  0  0  0  0  0  0
   -6.0118   19.8292  -32.0001 H   0  0  0  0  0  0  0  0  0  0  0  0
  1  2  1  0
  2  3  2  0
  3  4  1  0
  4  5  2  0
  5  6  1  0
  6  7  2  0
  7  8  1  0
  8  9  1  0
  8 10  2  0
  7 11  1  0
 11 12  1  0
 12 13  2  0
 12 14  1  0
 14 15  1  0
 15 16  1  0
 16 17  2  0
 16 18  1  0
 18 19  1  0
 19 20  1  0
 20 21  1  0
 21 22  1  0
 22 23  1  0
 23 24  2  0
 23 25  1  0
 25 26  1  0
 26 27  1  0
 26 28  1  0
 26 29  1  0
 11 30  1  0
 30 31  2  0
 31  2  1  0
 30  5  1  0
 22 18  1  0
  1 32  1  0
  1 33  1  0
  1 34  1  0
  3 35  1  0
  4 36  1  0
  6 37  1  0
  9 38  1  0
 14 39  1  0
 14 40  1  0
 18 41  1  6
 19 42  1  0
 19 43  1  0
 20 44  1  0
 20 45  1  0
 21 46  1  0
 21 47  1  0
 27 48  1  0
 27 49  1  0
 27 50  1  0
 28 51  1  0
 28 52  1  0
 28 53  1  0
 29 54  1  0
 29 55  1  0
 29 56  1  0
 31 57  1  0
M  CHG  1   9  -1
M  END
>  <UniqueID>  (71) 
71

>  <SMILES>  (71) 
Cc1ccc2cc(C([NH-])=O)n(C(=O)COC(=O)[C@@H]3CCCN3C(=O)OC(C)(C)C)c2c1

>  <Energy>  (71) 
87.00971088203764

>  <Genealogy>  (71) 
Cc1ccc2cc(C([NH-])=O)n(C(=O)COC(=O)C3CCCN3C(=O)OC(C)(C)C)c2c1 (protonated)
Cc1ccc2cc(C([NH-])=O)n(C(=O)COC(=O)[C@@H]3CCCN3C(=O)OC(C)(C)C)c2c1 (chirality)
Cc1ccc2cc(C([NH-])=O)n(C(=O)COC(=O)[C@@H]3CCCN3C(=O)OC(C)(C)C)c2c1 (3D coordinates assigned)
Cc1ccc2cc(C([NH-])=O)n(C(=O)COC(=O)[C@@H]3CCCN3C(=O)OC(C)(C)C)c2c1 (nonaromatic ring conformer: 87.00971088203764 kcal/mol)

>  <smiles>  (71) 
Cc1ccc2cc(C(N)=O)n(C(=O)COC(=O)C3CCCN3C(=O)OC(C)(C)C)c2c1

>  <score_type>  (71) 
oracle

>  <origin>  (71) 
adg

>  <m_score__min__energy>  (71) 
-12.050000000000001

>  <m_primary>  (71) 
energy

$$$$
72:0
     RDKit          3D

 39 41  0  0  0  0  0  0  0  0999 V2000
   -4.2320   25.6910  -30.4670 N   0  0  0  0  0  0  0  0  0  0  0  0
   -5.5060   25.0930  -30.2470 C   0  0  0  0  0  0  0  0  0  0  0  0
   -6.3170   25.6410  -29.4520 O   0  0  0  0  0  0  0  0  0  0  0  0
   -5.8690   23.8190  -30.9010 C   0  0  0  0  0  0  0  0  0  0  0  0
   -7.1680   23.4940  -31.2910 C   0  0  0  0  0  0  0  0  0  0  0  0
   -7.0910   22.2090  -31.7780 C   0  0  0  0  0  0  0  0  0  0  0  0
   -8.0830   21.3890  -32.3060 C   0  0  0  0  0  0  0  0  0  0  0  0
   -7.7120   20.1100  -32.7520 C   0  0  0  0  0  0  0  0  0  0  0  0
   -6.3620   19.6720  -32.6700 C   0  0  0  0  0  0  0  0  0  0  0  0
   -5.9800   18.3220  -33.1530 C   0  0  0  0  0  0  0  0  0  0  0  0
   -6.9050   17.2630  -33.1220 C   0  0  0  0  0  0  0  0  0  0  0  0
   -6.5440   15.9930  -33.5770 C   0  0  0  0  0  0  0  0  0  0  0  0
   -5.2580   15.7590  -34.0710 C   0  0  0  0  0  0  0  0  0  0  0  0
   -4.8420   14.1460  -34.6360 Cl  0  0  0  0  0  0  0  0  0  0  0  0
   -4.3250   16.8070  -34.1090 C   0  0  0  0  0  0  0  0  0  0  0  0
   -2.6980   16.5570  -34.7280 Cl  0  0  0  0  0  0  0  0  0  0  0  0
   -4.6870   18.0800  -33.6520 C   0  0  0  0  0  0  0  0  0  0  0  0
   -5.3850   20.5400  -32.1270 C   0  0  0  0  0  0  0  0  0  0  0  0
   -5.7870   21.8010  -31.6790 C   0  0  0  0  0  0  0  0  0  0  0  0
   -5.0250   22.7780  -31.1470 N   0  0  0  0  0  0  0  0  0  0  0  0
   -3.6000   22.7290  -30.9740 C   0  0  0  0  0  0  0  0  0  0  0  0
   -2.8650   22.4670  -31.9650 O   0  0  0  0  0  0  0  0  0  0  0  0
   -2.9830   23.1520  -29.6690 C   0  0  0  0  0  0  0  0  0  0  0  0
   -1.4500   23.1520  -29.7280 C   0  0  0  0  0  0  0  0  0  0  0  0
   -0.9060   24.4260  -29.1650 C   0  0  0  0  0  0  0  0  0  0  0  0
    0.2120   24.4370  -28.5850 O   0  0  0  0  0  0  0  0  0  0  0  0
   -1.6100   25.6130  -29.3250 O   0  0  0  0  0  0  0  0  0  0  0  0
   -3.5000   25.6840  -29.7230 H   0  0  0  0  0  0  0  0  0  0  0  0
   -8.0634   24.1294  -31.2237 H   0  0  0  0  0  0  0  0  0  0  0  0
   -9.1261   21.7319  -32.3722 H   0  0  0  0  0  0  0  0  0  0  0  0
   -8.4761   19.4383  -33.1703 H   0  0  0  0  0  0  0  0  0  0  0  0
   -7.9205   17.4364  -32.7364 H   0  0  0  0  0  0  0  0  0  0  0  0
   -7.2759   15.1724  -33.5463 H   0  0  0  0  0  0  0  0  0  0  0  0
   -3.9533   18.8989  -33.6834 H   0  0  0  0  0  0  0  0  0  0  0  0
   -4.3321   20.2288  -32.0591 H   0  0  0  0  0  0  0  0  0  0  0  0
   -3.3285   24.1677  -29.4261 H   0  0  0  0  0  0  0  0  0  0  0  0
   -3.2921   22.4301  -28.8987 H   0  0  0  0  0  0  0  0  0  0  0  0
   -1.0649   22.3038  -29.1430 H   0  0  0  0  0  0  0  0  0  0  0  0
   -1.1336   23.0623  -30.7777 H   0  0  0  0  0  0  0  0  0  0  0  0
  1  2  1  0
  2  3  2  0
  2  4  1  0
  4  5  2  0
  5  6  1  0
  6  7  2  0
  7  8  1  0
  8  9  2  0
  9 10  1  0
 10 11  2  0
 11 12  1  0
 12 13  2  0
 13 14  1  0
 13 15  1  0
 15 16  1  0
 15 17  2  0
  9 18  1  0
 18 19  2  0
 19 20  1  0
 20 21  1  0
 21 22  2  0
 21 23  1  0
 23 24  1  0
 24 25  1  0
 25 26  2  0
 25 27  1  0
 20  4  1  0
 19  6  1  0
 17 10  1  0
  1 28  1  0
  5 29  1  0
  7 30  1  0
  8 31  1  0
 11 32  1  0
 12 33  1  0
 17 34  1  0
 18 35  1  0
 23 36  1  0
 23 37  1  0
 24 38  1  0
 24 39  1  0
M  CHG  2   1  -1  27  -1
M  END
>  <UniqueID>  (72) 
72

>  <SMILES>  (72) 
[NH-]C(=O)c1cc2ccc(-c3ccc(Cl)c(Cl)c3)cc2n1C(=O)CCC(=O)[O-]

>  <Energy>  (72) 
84.80779442500071

>  <Genealogy>  (72) 
[NH-]C(=O)c1cc2ccc(-c3ccc(Cl)c(Cl)c3)cc2n1C(=O)CCC(=O)[O-] (protonated)
[NH-]C(=O)c1cc2ccc(-c3ccc(Cl)c(Cl)c3)cc2n1C(=O)CCC(=O)[O-] (3D coordinates assigned)
[NH-]C(=O)c1cc2ccc(-c3ccc(Cl)c(Cl)c3)cc2n1C(=O)CCC(=O)[O-] (optimized conformer: 84.80779442500071 kcal/mol)

>  <smiles>  (72) 
NC(=O)c1cc2ccc(-c3ccc(Cl)c(Cl)c3)cc2n1C(=O)CCC(=O)O

>  <score_type>  (72) 
oracle

>  <origin>  (72) 
adg

>  <m_score__min__energy>  (72) 
-13.92

>  <m_primary>  (72) 
energy

$$$$
73:0
     RDKit          3D

 34 36  0  0  0  0  0  0  0  0999 V2000
   -8.9350   19.5860  -31.9600 C   0  0  0  0  0  0  0  0  0  0  0  0
   -7.9940   18.5230  -32.0630 O   0  0  0  0  0  0  0  0  0  0  0  0
   -6.7480   18.6280  -32.6970 C   0  0  0  0  0  0  0  0  0  0  0  0
   -6.4830   18.0480  -33.9490 C   0  0  0  0  0  0  0  0  0  0  0  0
   -5.2570   18.1840  -34.5170 N   0  0  0  0  0  0  0  0  0  0  0  0
   -4.2560   18.8750  -33.9110 C   0  0  0  0  0  0  0  0  0  0  0  0
   -4.4640   19.4720  -32.6570 C   0  0  0  0  0  0  0  0  0  0  0  0
   -3.3780   20.2270  -31.9830 C   0  0  0  0  0  0  0  0  0  0  0  0
   -2.0590   19.7030  -31.9430 C   0  0  0  0  0  0  0  0  0  0  0  0
   -1.0210   20.4140  -31.3180 C   0  0  0  0  0  0  0  0  0  0  0  0
   -1.3270   21.6390  -30.7350 C   0  0  0  0  0  0  0  0  0  0  0  0
   -0.5110   22.5410  -30.0910 C   0  0  0  0  0  0  0  0  0  0  0  0
   -1.3440   23.5940  -29.7210 C   0  0  0  0  0  0  0  0  0  0  0  0
   -0.8830   24.7490  -28.9230 C   0  0  0  0  0  0  0  0  0  0  0  0
   -1.5980   25.9830  -28.9370 N   0  0  0  0  0  0  0  0  0  0  0  0
    0.1270   24.6310  -28.1810 O   0  0  0  0  0  0  0  0  0  0  0  0
   -2.6250   23.3580  -30.1280 N   0  0  0  0  0  0  0  0  0  0  0  0
   -3.7600   24.2310  -30.0190 C   0  0  0  0  0  0  0  0  0  0  0  0
   -3.8010   25.3070  -30.6720 O   0  0  0  0  0  0  0  0  0  0  0  0
   -4.8350   23.8850  -29.2100 O   0  0  0  0  0  0  0  0  0  0  0  0
   -2.5970   22.1550  -30.7450 C   0  0  0  0  0  0  0  0  0  0  0  0
   -3.6460   21.4780  -31.3770 C   0  0  0  0  0  0  0  0  0  0  0  0
   -5.7280   19.3380  -32.0580 C   0  0  0  0  0  0  0  0  0  0  0  0
   -9.1277   19.8036  -30.8991 H   0  0  0  0  0  0  0  0  0  0  0  0
   -8.5298   20.4832  -32.4507 H   0  0  0  0  0  0  0  0  0  0  0  0
   -9.8748   19.2926  -32.4507 H   0  0  0  0  0  0  0  0  0  0  0  0
   -7.2699   17.4828  -34.4700 H   0  0  0  0  0  0  0  0  0  0  0  0
   -3.2777   18.9672  -34.4053 H   0  0  0  0  0  0  0  0  0  0  0  0
   -1.8473   18.7284  -32.4071 H   0  0  0  0  0  0  0  0  0  0  0  0
    0.0032   20.0137  -31.2906 H   0  0  0  0  0  0  0  0  0  0  0  0
    0.5697   22.4496  -29.9075 H   0  0  0  0  0  0  0  0  0  0  0  0
   -2.6420   25.9990  -28.9630 H   0  0  0  0  0  0  0  0  0  0  0  0
   -4.6578   21.9089  -31.4024 H   0  0  0  0  0  0  0  0  0  0  0  0
   -5.9165   19.7966  -31.0761 H   0  0  0  0  0  0  0  0  0  0  0  0
  1  2  1  0
  2  3  1  0
  3  4  2  0
  4  5  1  0
  5  6  2  0
  6  7  1  0
  7  8  1  0
  8  9  2  0
  9 10  1  0
 10 11  2  0
 11 12  1  0
 12 13  2  0
 13 14  1  0
 14 15  1  0
 14 16  2  0
 13 17  1  0
 17 18  1  0
 18 19  2  0
 18 20  1  0
 17 21  1  0
 21 22  2  0
  7 23  2  0
 23  3  1  0
 22  8  1  0
 21 11  1  0
  1 24  1  0
  1 25  1  0
  1 26  1  0
  4 27  1  0
  6 28  1  0
  9 29  1  0
 10 30  1  0
 12 31  1  0
 15 32  1  0
 22 33  1  0
 23 34  1  0
M  CHG  2  15  -1  20  -1
M  END
>  <UniqueID>  (73) 
73

>  <SMILES>  (73) 
COc1cncc(-c2ccc3cc(C([NH-])=O)n(C(=O)[O-])c3c2)c1

>  <Energy>  (73) 
82.16425394285628

>  <Genealogy>  (73) 
COc1cncc(-c2ccc3cc(C([NH-])=O)n(C(=O)[O-])c3c2)c1 (protonated)
COc1cncc(-c2ccc3cc(C([NH-])=O)n(C(=O)[O-])c3c2)c1 (3D coordinates assigned)
COc1cncc(-c2ccc3cc(C([NH-])=O)n(C(=O)[O-])c3c2)c1 (optimized conformer: 82.16425394285628 kcal/mol)

>  <smiles>  (73) 
COc1cncc(-c2ccc3cc(C(N)=O)n(C(=O)O)c3c2)c1

>  <score_type>  (73) 
oracle

>  <origin>  (73) 
adg

>  <m_score__min__energy>  (73) 
-11.01

>  <m_primary>  (73) 
energy

$$$$
75:0
     RDKit          3D

 39 41  0  0  0  0  0  0  0  0999 V2000
   -4.2450   25.7580  -30.5340 N   0  0  0  0  0  0  0  0  0  0  0  0
   -5.4630   25.1570  -30.0990 C   0  0  0  0  0  0  0  0  0  0  0  0
   -6.1180   25.6940  -29.1680 O   0  0  0  0  0  0  0  0  0  0  0  0
   -5.9580   23.9360  -30.7640 C   0  0  0  0  0  0  0  0  0  0  0  0
   -7.2920   23.7280  -31.1140 C   0  0  0  0  0  0  0  0  0  0  0  0
   -7.3370   22.4560  -31.6400 C   0  0  0  0  0  0  0  0  0  0  0  0
   -8.4080   21.7400  -32.1660 C   0  0  0  0  0  0  0  0  0  0  0  0
   -8.1540   20.4530  -32.6730 C   0  0  0  0  0  0  0  0  0  0  0  0
   -6.8420   19.9080  -32.6510 C   0  0  0  0  0  0  0  0  0  0  0  0
   -6.5820   18.5550  -33.2050 C   0  0  0  0  0  0  0  0  0  0  0  0
   -5.5090   18.3300  -34.0840 C   0  0  0  0  0  0  0  0  0  0  0  0
   -5.2780   17.0540  -34.5980 C   0  0  0  0  0  0  0  0  0  0  0  0
   -6.1210   16.0050  -34.2300 C   0  0  0  0  0  0  0  0  0  0  0  0
   -7.1560   16.2310  -33.3780 N   0  0  0  0  0  0  0  0  0  0  0  0
   -7.4040   17.4650  -32.8650 C   0  0  0  0  0  0  0  0  0  0  0  0
   -5.7830   20.6700  -32.1030 C   0  0  0  0  0  0  0  0  0  0  0  0
   -6.0690   21.9400  -31.5960 C   0  0  0  0  0  0  0  0  0  0  0  0
   -5.2130   22.8350  -31.0610 N   0  0  0  0  0  0  0  0  0  0  0  0
   -3.7940   22.6710  -30.9460 C   0  0  0  0  0  0  0  0  0  0  0  0
   -3.0180   23.4240  -31.5910 O   0  0  0  0  0  0  0  0  0  0  0  0
   -3.1110   21.4630  -29.8130 S   0  0  0  0  0  0  0  0  0  0  0  0
   -2.3380   22.7330  -28.7520 C   0  0  0  0  0  0  0  0  0  0  0  0
   -1.1040   23.3310  -29.4260 C   0  0  0  0  0  0  0  0  0  0  0  0
   -0.8560   24.7350  -28.9670 C   0  0  0  0  0  0  0  0  0  0  0  0
   -1.6120   25.6680  -29.3450 O   0  0  0  0  0  0  0  0  0  0  0  0
    0.2320   25.0180  -28.1510 O   0  0  0  0  0  0  0  0  0  0  0  0
   -3.3380   25.2440  -30.4650 H   0  0  0  0  0  0  0  0  0  0  0  0
   -8.1300   24.4306  -30.9952 H   0  0  0  0  0  0  0  0  0  0  0  0
   -9.4215   22.1672  -32.1847 H   0  0  0  0  0  0  0  0  0  0  0  0
   -8.9812   19.8610  -33.0917 H   0  0  0  0  0  0  0  0  0  0  0  0
   -4.8489   19.1630  -34.3677 H   0  0  0  0  0  0  0  0  0  0  0  0
   -4.4391   16.8765  -35.2870 H   0  0  0  0  0  0  0  0  0  0  0  0
   -5.9482   14.9947  -34.6294 H   0  0  0  0  0  0  0  0  0  0  0  0
   -8.2521   17.6123  -32.1802 H   0  0  0  0  0  0  0  0  0  0  0  0
   -4.7581   20.2715  -32.0768 H   0  0  0  0  0  0  0  0  0  0  0  0
   -3.0670   23.5341  -28.5601 H   0  0  0  0  0  0  0  0  0  0  0  0
   -2.0281   22.2605  -27.8082 H   0  0  0  0  0  0  0  0  0  0  0  0
   -0.2274   22.7139  -29.1795 H   0  0  0  0  0  0  0  0  0  0  0  0
   -1.2771   23.3477  -30.5122 H   0  0  0  0  0  0  0  0  0  0  0  0
  1  2  1  0
  2  3  2  0
  2  4  1  0
  4  5  2  0
  5  6  1  0
  6  7  2  0
  7  8  1  0
  8  9  2  0
  9 10  1  0
 10 11  2  0
 11 12  1  0
 12 13  2  0
 13 14  1  0
 14 15  2  0
  9 16  1  0
 16 17  2  0
 17 18  1  0
 18 19  1  0
 19 20  2  0
 19 21  1  0
 21 22  1  0
 22 23  1  0
 23 24  1  0
 24 25  2  0
 24 26  1  0
 18  4  1  0
 17  6  1  0
 15 10  1  0
  1 27  1  0
  5 28  1  0
  7 29  1  0
  8 30  1  0
 11 31  1  0
 12 32  1  0
 13 33  1  0
 15 34  1  0
 16 35  1  0
 22 36  1  0
 22 37  1  0
 23 38  1  0
 23 39  1  0
M  CHG  2   1  -1  26  -1
M  END
>  <UniqueID>  (74) 
74

>  <SMILES>  (74) 
[NH-]C(=O)c1cc2ccc(-c3cccnc3)cc2n1C(=O)SCCC(=O)[O-]

>  <Energy>  (74) 
80.14059645679943

>  <Genealogy>  (74) 
[NH-]C(=O)c1cc2ccc(-c3cccnc3)cc2n1C(=O)SCCC(=O)[O-] (protonated)
[NH-]C(=O)c1cc2ccc(-c3cccnc3)cc2n1C(=O)SCCC(=O)[O-] (3D coordinates assigned)
[NH-]C(=O)c1cc2ccc(-c3cccnc3)cc2n1C(=O)SCCC(=O)[O-] (optimized conformer: 80.14059645679943 kcal/mol)

>  <smiles>  (74) 
NC(=O)c1cc2ccc(-c3cccnc3)cc2n1C(=O)SCCC(=O)O

>  <score_type>  (74) 
oracle

>  <origin>  (74) 
adg

>  <m_score__min__energy>  (74) 
-13.140000000000001

>  <m_primary>  (74) 
energy

$$$$
76:0
     RDKit          3D

 35 36  0  0  0  0  0  0  0  0999 V2000
   -1.7860   22.3010  -31.1910 C   0  0  0  0  0  0  0  0  0  0  0  0
   -2.4590   23.0770  -30.1310 N   0  0  2  0  0  0  0  0  0  0  0  0
   -1.6000   23.2730  -28.9410 C   0  0  0  0  0  0  0  0  0  0  0  0
   -0.9730   24.6390  -28.8640 C   0  0  0  0  0  0  0  0  0  0  0  0
   -1.5730   25.6430  -29.3260 O   0  0  0  0  0  0  0  0  0  0  0  0
    0.2750   24.7990  -28.2720 O   0  0  0  0  0  0  0  0  0  0  0  0
   -3.7360   22.4990  -29.7660 C   0  0  0  0  0  0  0  0  0  0  0  0
   -3.8930   21.9540  -28.6370 O   0  0  0  0  0  0  0  0  0  0  0  0
   -4.8740   22.6530  -30.6320 N   0  0  0  0  0  0  0  0  0  0  0  0
   -5.5700   23.7900  -30.9130 C   0  0  0  0  0  0  0  0  0  0  0  0
   -5.1830   25.1590  -30.5160 C   0  0  0  0  0  0  0  0  0  0  0  0
   -3.8890   25.6550  -30.8430 N   0  0  0  0  0  0  0  0  0  0  0  0
   -5.9760   25.8830  -29.8590 O   0  0  0  0  0  0  0  0  0  0  0  0
   -6.6700   23.5020  -31.7180 C   0  0  0  0  0  0  0  0  0  0  0  0
   -6.6190   22.1450  -31.9340 C   0  0  0  0  0  0  0  0  0  0  0  0
   -7.4690   21.3190  -32.6660 C   0  0  0  0  0  0  0  0  0  0  0  0
   -7.1770   19.9450  -32.7070 C   0  0  0  0  0  0  0  0  0  0  0  0
   -6.0510   19.4250  -32.0210 C   0  0  0  0  0  0  0  0  0  0  0  0
   -5.7600   17.9520  -32.0760 C   0  0  0  0  0  0  0  0  0  0  0  0
   -6.5140   17.3650  -33.0760 F   0  0  0  0  0  0  0  0  0  0  0  0
   -6.0760   17.3680  -30.8630 F   0  0  0  0  0  0  0  0  0  0  0  0
   -5.2100   20.2940  -31.2910 C   0  0  0  0  0  0  0  0  0  0  0  0
   -5.5230   21.6570  -31.2710 C   0  0  0  0  0  0  0  0  0  0  0  0
   -1.1309   21.5456  -30.7326 H   0  0  0  0  0  0  0  0  0  0  0  0
   -2.5413   21.8011  -31.8152 H   0  0  0  0  0  0  0  0  0  0  0  0
   -1.1843   22.9780  -31.8152 H   0  0  0  0  0  0  0  0  0  0  0  0
   -2.6380   24.0290  -30.5260 H   0  0  0  0  0  0  0  0  0  0  0  0
   -2.2142   23.1219  -28.0410 H   0  0  0  0  0  0  0  0  0  0  0  0
   -0.7776   22.5463  -29.0158 H   0  0  0  0  0  0  0  0  0  0  0  0
   -3.0370   25.2910  -30.3610 H   0  0  0  0  0  0  0  0  0  0  0  0
   -7.4202   24.2101  -32.0998 H   0  0  0  0  0  0  0  0  0  0  0  0
   -8.3415   21.7295  -33.1954 H   0  0  0  0  0  0  0  0  0  0  0  0
   -7.8287   19.2665  -33.2770 H   0  0  0  0  0  0  0  0  0  0  0  0
   -4.6906   17.8042  -32.2869 H   0  0  0  0  0  0  0  0  0  0  0  0
   -4.3317   19.9087  -30.7523 H   0  0  0  0  0  0  0  0  0  0  0  0
  1  2  1  0
  2  3  1  0
  3  4  1  0
  4  5  2  0
  4  6  1  0
  2  7  1  0
  7  8  2  0
  7  9  1  0
  9 10  1  0
 10 11  1  0
 11 12  1  0
 11 13  2  0
 10 14  2  0
 14 15  1  0
 15 16  2  0
 16 17  1  0
 17 18  2  0
 18 19  1  0
 19 20  1  0
 19 21  1  0
 18 22  1  0
 22 23  2  0
 23  9  1  0
 23 15  1  0
  1 24  1  0
  1 25  1  0
  1 26  1  0
  2 27  1  6
  3 28  1  0
  3 29  1  0
 12 30  1  0
 14 31  1  0
 16 32  1  0
 17 33  1  0
 19 34  1  0
 22 35  1  0
M  CHG  3   2   1   6  -1  12  -1
M  END
>  <UniqueID>  (75) 
75

>  <SMILES>  (75) 
C[N@H+](CC(=O)[O-])C(=O)n1c(C([NH-])=O)cc2ccc(C(F)F)cc21

>  <Energy>  (75) 
78.05958240232381

>  <Genealogy>  (75) 
C[NH+](CC(=O)[O-])C(=O)n1c(C([NH-])=O)cc2ccc(C(F)F)cc21 (protonated)
C[N@H+](CC(=O)[O-])C(=O)n1c(C([NH-])=O)cc2ccc(C(F)F)cc21 (chirality)
C[N@H+](CC(=O)[O-])C(=O)n1c(C([NH-])=O)cc2ccc(C(F)F)cc21 (3D coordinates assigned)
C[N@H+](CC(=O)[O-])C(=O)n1c(C([NH-])=O)cc2ccc(C(F)F)cc21 (optimized conformer: 78.05958240232381 kcal/mol)

>  <smiles>  (75) 
CN(CC(=O)O)C(=O)n1c(C(N)=O)cc2ccc(C(F)F)cc21

>  <score_type>  (75) 
oracle

>  <origin>  (75) 
adg

>  <m_score__min__energy>  (75) 
-10.300000000000001

>  <m_primary>  (75) 
energy

$$$$
77:0
     RDKit          3D

 37 38  0  0  0  0  0  0  0  0999 V2000
   -4.2410   25.7480  -30.6260 N   0  0  0  0  0  0  0  0  0  0  0  0
   -5.5350   25.1830  -30.4300 C   0  0  0  0  0  0  0  0  0  0  0  0
   -6.3930   25.8290  -29.7710 O   0  0  0  0  0  0  0  0  0  0  0  0
   -5.8730   23.8460  -30.9650 C   0  0  0  0  0  0  0  0  0  0  0  0
   -7.1620   23.4570  -31.3280 C   0  0  0  0  0  0  0  0  0  0  0  0
   -7.0540   22.1370  -31.7070 C   0  0  0  0  0  0  0  0  0  0  0  0
   -8.0260   21.2440  -32.1510 C   0  0  0  0  0  0  0  0  0  0  0  0
   -7.6230   19.9320  -32.4580 C   0  0  0  0  0  0  0  0  0  0  0  0
   -6.2700   19.5350  -32.3010 C   0  0  0  0  0  0  0  0  0  0  0  0
   -5.8360   18.1410  -32.6660 C   0  0  0  0  0  0  0  0  0  0  0  0
   -4.7920   18.1620  -33.7830 C   0  0  0  0  0  0  0  0  0  0  0  0
   -3.4990   18.5820  -33.2580 N   0  0  0  0  0  0  0  0  0  0  0  0
   -2.6430   19.5000  -33.9440 C   0  0  0  0  0  0  0  0  0  0  0  0
   -2.9020   20.9000  -33.8690 N   0  0  0  0  0  0  0  0  0  0  0  0
   -1.6580   19.0800  -34.6110 O   0  0  0  0  0  0  0  0  0  0  0  0
   -5.3150   20.4710  -31.8510 C   0  0  0  0  0  0  0  0  0  0  0  0
   -5.7420   21.7700  -31.5680 C   0  0  0  0  0  0  0  0  0  0  0  0
   -5.0040   22.8100  -31.1310 N   0  0  0  0  0  0  0  0  0  0  0  0
   -3.5920   22.7910  -30.8860 C   0  0  0  0  0  0  0  0  0  0  0  0
   -2.8000   22.6220  -31.8540 O   0  0  0  0  0  0  0  0  0  0  0  0
   -3.0560   22.9800  -29.4910 C   0  0  0  0  0  0  0  0  0  0  0  0
   -2.6970   21.7550  -28.9480 F   0  0  0  0  0  0  0  0  0  0  0  0
   -4.0360   23.5430  -28.6900 F   0  0  0  0  0  0  0  0  0  0  0  0
   -1.8510   23.8740  -29.5150 C   0  0  0  0  0  0  0  0  0  0  0  0
   -0.6980   23.3830  -29.6420 O   0  0  0  0  0  0  0  0  0  0  0  0
   -1.9960   25.2440  -29.3430 O   0  0  0  0  0  0  0  0  0  0  0  0
   -3.5090   25.6820  -29.8830 H   0  0  0  0  0  0  0  0  0  0  0  0
   -8.0727   24.0739  -31.3145 H   0  0  0  0  0  0  0  0  0  0  0  0
   -9.0757   21.5549  -32.2582 H   0  0  0  0  0  0  0  0  0  0  0  0
   -8.3644   19.2062  -32.8236 H   0  0  0  0  0  0  0  0  0  0  0  0
   -5.4026   17.6562  -31.7788 H   0  0  0  0  0  0  0  0  0  0  0  0
   -6.7155   17.5840  -33.0214 H   0  0  0  0  0  0  0  0  0  0  0  0
   -4.6993   17.1535  -34.2122 H   0  0  0  0  0  0  0  0  0  0  0  0
   -5.1117   18.8733  -34.5587 H   0  0  0  0  0  0  0  0  0  0  0  0
   -3.7080   21.2570  -33.3120 H   0  0  0  0  0  0  0  0  0  0  0  0
   -2.2860   21.5790  -34.3690 H   0  0  0  0  0  0  0  0  0  0  0  0
   -4.2603   20.1846  -31.7262 H   0  0  0  0  0  0  0  0  0  0  0  0
  1  2  1  0
  2  3  2  0
  2  4  1  0
  4  5  2  0
  5  6  1  0
  6  7  2  0
  7  8  1  0
  8  9  2  0
  9 10  1  0
 10 11  1  0
 11 12  1  0
 12 13  1  0
 13 14  1  0
 13 15  2  0
  9 16  1  0
 16 17  2  0
 17 18  1  0
 18 19  1  0
 19 20  2  0
 19 21  1  0
 21 22  1  0
 21 23  1  0
 21 24  1  0
 24 25  2  0
 24 26  1  0
 18  4  1  0
 17  6  1  0
  1 27  1  0
  5 28  1  0
  7 29  1  0
  8 30  1  0
 10 31  1  0
 10 32  1  0
 11 33  1  0
 11 34  1  0
 14 35  1  0
 14 36  1  0
 16 37  1  0
M  CHG  3   1  -1  12  -1  26  -1
M  END
>  <UniqueID>  (76) 
76

>  <SMILES>  (76) 
[NH-]C(=O)c1cc2ccc(CC[N-]C(N)=O)cc2n1C(=O)C(F)(F)C(=O)[O-]

>  <Energy>  (76) 
70.23015288020201

>  <Genealogy>  (76) 
[NH-]C(=O)c1cc2ccc(CC[N-]C(N)=O)cc2n1C(=O)C(F)(F)C(=O)[O-] (protonated)
[NH-]C(=O)c1cc2ccc(CC[N-]C(N)=O)cc2n1C(=O)C(F)(F)C(=O)[O-] (3D coordinates assigned)
[NH-]C(=O)c1cc2ccc(CC[N-]C(N)=O)cc2n1C(=O)C(F)(F)C(=O)[O-] (optimized conformer: 70.23015288020201 kcal/mol)

>  <smiles>  (76) 
NC(=O)NCCc1ccc2cc(C(N)=O)n(C(=O)C(F)(F)C(=O)O)c2c1

>  <score_type>  (76) 
oracle

>  <origin>  (76) 
adg

>  <m_score__min__energy>  (76) 
-11.34

>  <m_primary>  (76) 
energy

$$$$
78:0
     RDKit          3D

 41 43  0  0  0  0  0  0  0  0999 V2000
   -3.4320   17.5670  -34.2430 C   0  0  0  0  0  0  0  0  0  0  0  0
   -4.7820   17.2640  -34.9100 C   0  0  2  0  0  0  0  0  0  0  0  0
   -5.7500   18.4540  -34.8430 C   0  0  0  0  0  0  0  0  0  0  0  0
   -6.3970   18.4910  -33.5370 N   0  0  0  0  0  0  0  0  0  0  0  0
   -6.6910   19.7470  -32.8960 C   0  0  0  0  0  0  0  0  0  0  0  0
   -8.0360   20.1110  -32.6370 C   0  0  0  0  0  0  0  0  0  0  0  0
   -8.3430   21.3290  -32.0080 C   0  0  0  0  0  0  0  0  0  0  0  0
   -7.2880   22.1650  -31.6570 C   0  0  0  0  0  0  0  0  0  0  0  0
   -7.3020   23.3840  -31.0200 C   0  0  0  0  0  0  0  0  0  0  0  0
   -5.9640   23.7630  -30.9180 C   0  0  0  0  0  0  0  0  0  0  0  0
   -5.5170   25.0650  -30.3780 C   0  0  0  0  0  0  0  0  0  0  0  0
   -4.1850   25.5310  -30.6040 N   0  0  0  0  0  0  0  0  0  0  0  0
   -6.3000   25.7650  -29.6820 O   0  0  0  0  0  0  0  0  0  0  0  0
   -5.1550   22.8130  -31.4680 N   0  0  0  0  0  0  0  0  0  0  0  0
   -3.7180   22.8010  -31.5000 C   0  0  0  0  0  0  0  0  0  0  0  0
   -3.1060   22.3110  -32.4840 O   0  0  0  0  0  0  0  0  0  0  0  0
   -2.9880   23.3160  -30.4350 O   0  0  0  0  0  0  0  0  0  0  0  0
   -5.9820   21.8410  -31.9170 C   0  0  0  0  0  0  0  0  0  0  0  0
   -5.6470   20.6260  -32.5260 C   0  0  0  0  0  0  0  0  0  0  0  0
   -7.0360   17.2530  -33.1050 C   0  0  0  0  0  0  0  0  0  0  0  0
   -6.0400   16.0870  -33.2180 C   0  0  2  0  0  0  0  0  0  0  0  0
   -5.0870   16.0090  -32.0160 C   0  0  0  0  0  0  0  0  0  0  0  0
   -5.3500   16.0340  -34.4650 O   0  0  0  0  0  0  0  0  0  0  0  0
   -3.5492   17.5407  -33.1496 H   0  0  0  0  0  0  0  0  0  0  0  0
   -2.6933   16.8123  -34.5509 H   0  0  0  0  0  0  0  0  0  0  0  0
   -3.0867   18.5650  -34.5509 H   0  0  0  0  0  0  0  0  0  0  0  0
   -4.5789   17.1152  -35.9808 H   0  0  0  0  0  0  0  0  0  0  0  0
   -5.1915   19.3885  -35.0005 H   0  0  0  0  0  0  0  0  0  0  0  0
   -6.5158   18.3438  -35.6249 H   0  0  0  0  0  0  0  0  0  0  0  0
   -8.8493   19.4316  -32.9320 H   0  0  0  0  0  0  0  0  0  0  0  0
   -9.3851   21.6128  -31.7995 H   0  0  0  0  0  0  0  0  0  0  0  0
   -8.1818   23.9415  -30.6662 H   0  0  0  0  0  0  0  0  0  0  0  0
   -3.8670   26.4330  -30.1860 H   0  0  0  0  0  0  0  0  0  0  0  0
   -3.5240   25.0060  -31.2190 H   0  0  0  0  0  0  0  0  0  0  0  0
   -4.5958   20.3611  -32.7125 H   0  0  0  0  0  0  0  0  0  0  0  0
   -7.3615   17.3554  -32.0593 H   0  0  0  0  0  0  0  0  0  0  0  0
   -7.9070   17.0506  -33.7456 H   0  0  0  0  0  0  0  0  0  0  0  0
   -6.6590   15.1781  -33.1932 H   0  0  0  0  0  0  0  0  0  0  0  0
   -5.6684   16.0566  -31.0834 H   0  0  0  0  0  0  0  0  0  0  0  0
   -4.5283   15.0621  -32.0519 H   0  0  0  0  0  0  0  0  0  0  0  0
   -4.3818   16.8524  -32.0519 H   0  0  0  0  0  0  0  0  0  0  0  0
  1  2  1  0
  2  3  1  0
  3  4  1  0
  4  5  1  0
  5  6  2  0
  6  7  1  0
  7  8  2  0
  8  9  1  0
  9 10  2  0
 10 11  1  0
 11 12  1  0
 11 13  2  0
 10 14  1  0
 14 15  1  0
 15 16  2  0
 15 17  1  0
 14 18  1  0
 18 19  2  0
  4 20  1  0
 20 21  1  0
 21 22  1  0
 21 23  1  0
 23  2  1  0
 19  5  1  0
 18  8  1  0
  1 24  1  0
  1 25  1  0
  1 26  1  0
  2 27  1  6
  3 28  1  0
  3 29  1  0
  6 30  1  0
  7 31  1  0
  9 32  1  0
 12 33  1  0
 12 34  1  0
 19 35  1  0
 20 36  1  0
 20 37  1  0
 21 38  1  6
 22 39  1  0
 22 40  1  0
 22 41  1  0
M  CHG  1  17  -1
M  END
>  <UniqueID>  (77) 
77

>  <SMILES>  (77) 
C[C@@H]1CN(c2ccc3cc(C(N)=O)n(C(=O)[O-])c3c2)C[C@H](C)O1

>  <Energy>  (77) 
92.43243635680527

>  <Genealogy>  (77) 
CC1CN(c2ccc3cc(C(N)=O)n(C(=O)[O-])c3c2)CC(C)O1 (protonated)
C[C@@H]1CN(c2ccc3cc(C(N)=O)n(C(=O)[O-])c3c2)C[C@H](C)O1 (chirality)
C[C@@H]1CN(c2ccc3cc(C(N)=O)n(C(=O)[O-])c3c2)C[C@H](C)O1 (3D coordinates assigned)
C[C@@H]1CN(c2ccc3cc(C(N)=O)n(C(=O)[O-])c3c2)C[C@H](C)O1 (nonaromatic ring conformer: 92.43243635680527 kcal/mol)

>  <smiles>  (77) 
CC1CN(c2ccc3cc(C(N)=O)n(C(=O)O)c3c2)CC(C)O1

>  <score_type>  (77) 
oracle

>  <origin>  (77) 
adg

>  <m_score__min__energy>  (77) 
-9.4700000000000006

>  <m_primary>  (77) 
energy

$$$$
79:0
     RDKit          3D

 51 54  0  0  0  0  0  0  0  0999 V2000
   -4.1980   25.4930  -30.6600 N   0  0  0  0  0  0  0  0  0  0  0  0
   -5.5000   24.9590  -30.4130 C   0  0  0  0  0  0  0  0  0  0  0  0
   -6.3100   25.6190  -29.7090 O   0  0  0  0  0  0  0  0  0  0  0  0
   -5.9120   23.6660  -31.0040 C   0  0  0  0  0  0  0  0  0  0  0  0
   -7.2150   23.3740  -31.4050 C   0  0  0  0  0  0  0  0  0  0  0  0
   -7.1890   22.0550  -31.7950 C   0  0  0  0  0  0  0  0  0  0  0  0
   -8.2080   21.2500  -32.2910 C   0  0  0  0  0  0  0  0  0  0  0  0
   -7.8940   19.9250  -32.6350 C   0  0  0  0  0  0  0  0  0  0  0  0
   -6.5730   19.4240  -32.4810 C   0  0  0  0  0  0  0  0  0  0  0  0
   -6.2470   18.0640  -32.8460 N   0  0  0  0  0  0  0  0  0  0  0  0
   -5.1060   17.3030  -32.3650 C   0  0  1  0  0  0  0  0  0  0  0  0
   -5.5200   15.8530  -32.6430 C   0  0  0  0  0  0  0  0  0  0  0  0
   -6.4560   15.9600  -33.8510 C   0  0  0  0  0  0  0  0  0  0  0  0
   -6.5180   17.4650  -34.1430 C   0  0  2  0  0  0  0  0  0  0  0  0
   -5.3560   17.8880  -35.0920 C   0  0  0  0  0  0  0  0  0  0  0  0
   -4.2560   18.4620  -34.3890 O   0  0  0  0  0  0  0  0  0  0  0  0
   -3.8810   17.6940  -33.2480 C   0  0  0  0  0  0  0  0  0  0  0  0
   -5.5650   20.2830  -31.9830 C   0  0  0  0  0  0  0  0  0  0  0  0
   -5.9110   21.5920  -31.6280 C   0  0  0  0  0  0  0  0  0  0  0  0
   -5.1130   22.5700  -31.1460 N   0  0  0  0  0  0  0  0  0  0  0  0
   -3.7040   22.4700  -30.8830 C   0  0  0  0  0  0  0  0  0  0  0  0
   -2.8890   23.1620  -31.5520 O   0  0  0  0  0  0  0  0  0  0  0  0
   -3.2430   21.5890  -29.8990 O   0  0  0  0  0  0  0  0  0  0  0  0
   -3.1110   21.9360  -28.5200 C   0  0  0  0  0  0  0  0  0  0  0  0
   -2.0010   22.9800  -28.3070 C   0  0  1  0  0  0  0  0  0  0  0  0
   -1.0660   22.9260  -29.3530 O   0  0  0  0  0  0  0  0  0  0  0  0
   -2.5840   24.3970  -28.2150 C   0  0  0  0  0  0  0  0  0  0  0  0
   -2.2460   25.1390  -29.3570 O   0  0  0  0  0  0  0  0  0  0  0  0
   -3.9320   26.4240  -30.2720 H   0  0  0  0  0  0  0  0  0  0  0  0
   -3.4820   24.9520  -31.1920 H   0  0  0  0  0  0  0  0  0  0  0  0
   -8.0799   24.0537  -31.4087 H   0  0  0  0  0  0  0  0  0  0  0  0
   -9.2299   21.6392  -32.4105 H   0  0  0  0  0  0  0  0  0  0  0  0
   -8.6815   19.2658  -33.0291 H   0  0  0  0  0  0  0  0  0  0  0  0
   -4.8422   17.4706  -31.3103 H   0  0  0  0  0  0  0  0  0  0  0  0
   -6.0461   15.4238  -31.7775 H   0  0  0  0  0  0  0  0  0  0  0  0
   -4.6586   15.1955  -32.8318 H   0  0  0  0  0  0  0  0  0  0  0  0
   -7.4545   15.5679  -33.6075 H   0  0  0  0  0  0  0  0  0  0  0  0
   -6.1013   15.3765  -34.7134 H   0  0  0  0  0  0  0  0  0  0  0  0
   -7.4715   17.7569  -34.6073 H   0  0  0  0  0  0  0  0  0  0  0  0
   -5.7393   18.6273  -35.8107 H   0  0  0  0  0  0  0  0  0  0  0  0
   -4.9920   16.9816  -35.5980 H   0  0  0  0  0  0  0  0  0  0  0  0
   -3.1810   18.2849  -32.6391 H   0  0  0  0  0  0  0  0  0  0  0  0
   -3.4167   16.7640  -33.6078 H   0  0  0  0  0  0  0  0  0  0  0  0
   -4.5290   19.9288  -31.8768 H   0  0  0  0  0  0  0  0  0  0  0  0
   -4.0652   22.3503  -28.1624 H   0  0  0  0  0  0  0  0  0  0  0  0
   -2.8445   21.0282  -27.9588 H   0  0  0  0  0  0  0  0  0  0  0  0
   -1.4991   22.7423  -27.3575 H   0  0  0  0  0  0  0  0  0  0  0  0
   -1.5740   23.0570  -30.1960 H   0  0  0  0  0  0  0  0  0  0  0  0
   -3.6792   24.3340  -28.1345 H   0  0  0  0  0  0  0  0  0  0  0  0
   -2.1685   24.8974  -27.3279 H   0  0  0  0  0  0  0  0  0  0  0  0
   -2.0040   24.4840  -30.0620 H   0  0  0  0  0  0  0  0  0  0  0  0
  1  2  1  0
  2  3  2  0
  2  4  1  0
  4  5  2  0
  5  6  1  0
  6  7  2  0
  7  8  1  0
  8  9  2  0
  9 10  1  0
 10 11  1  0
 11 12  1  0
 12 13  1  0
 13 14  1  0
 14 15  1  0
 15 16  1  0
 16 17  1  0
  9 18  1  0
 18 19  2  0
 19 20  1  0
 20 21  1  0
 21 22  2  0
 21 23  1  0
 23 24  1  0
 24 25  1  0
 25 26  1  0
 25 27  1  0
 27 28  1  0
 20  4  1  0
 19  6  1  0
 14 10  1  0
 17 11  1  0
  1 29  1  0
  1 30  1  0
  5 31  1  0
  7 32  1  0
  8 33  1  0
 11 34  1  1
 12 35  1  0
 12 36  1  0
 13 37  1  0
 13 38  1  0
 14 39  1  6
 15 40  1  0
 15 41  1  0
 17 42  1  0
 17 43  1  0
 18 44  1  0
 24 45  1  0
 24 46  1  0
 25 47  1  1
 26 48  1  0
 27 49  1  0
 27 50  1  0
 28 51  1  0
M  END
>  <UniqueID>  (78) 
78

>  <SMILES>  (78) 
NC(=O)c1cc2ccc(N3[C@@H]4CC[C@H]3COC4)cc2n1C(=O)OCC(O)CO

>  <Energy>  (78) 
118.80137652597882

>  <Genealogy>  (78) 
NC(=O)c1cc2ccc(N3[C@@H]4CC[C@H]3COC4)cc2n1C(=O)OCC(O)CO (chirality)
NC(=O)c1cc2ccc(N3[C@@H]4CC[C@H]3COC4)cc2n1C(=O)OCC(O)CO (3D coordinates assigned)
NC(=O)c1cc2ccc(N3[C@@H]4CC[C@H]3COC4)cc2n1C(=O)OCC(O)CO (nonaromatic ring conformer: 118.80137652597882 kcal/mol)

>  <smiles>  (78) 
NC(=O)c1cc2ccc(N3C4CCC3COC4)cc2n1C(=O)OCC(O)CO

>  <score_type>  (78) 
oracle

>  <origin>  (78) 
adg

>  <m_score__min__energy>  (78) 
-9.7799999999999994

>  <m_primary>  (78) 
energy

$$$$
80:0
     RDKit          3D

 46 48  0  0  0  0  0  0  0  0999 V2000
   -9.1120   19.8770  -32.2990 C   0  0  0  0  0  0  0  0  0  0  0  0
   -7.9840   20.8080  -32.2040 N   0  0  0  0  0  0  0  0  0  0  0  0
   -6.8570   20.7190  -33.1340 C   0  0  0  0  0  0  0  0  0  0  0  0
   -7.9630   21.8010  -31.1650 C   0  0  0  0  0  0  0  0  0  0  0  0
   -8.9470   21.9190  -30.3840 O   0  0  0  0  0  0  0  0  0  0  0  0
   -6.8460   22.6320  -31.0170 O   0  0  0  0  0  0  0  0  0  0  0  0
   -6.3950   23.0960  -29.7470 C   0  0  0  0  0  0  0  0  0  0  0  0
   -5.0390   22.7090  -29.5460 O   0  0  0  0  0  0  0  0  0  0  0  0
   -3.9780   23.2630  -30.2720 C   0  0  0  0  0  0  0  0  0  0  0  0
   -4.0930   24.4010  -30.8040 O   0  0  0  0  0  0  0  0  0  0  0  0
   -2.7640   22.5150  -30.4360 N   0  0  0  0  0  0  0  0  0  0  0  0
   -1.4980   22.8800  -30.0910 C   0  0  0  0  0  0  0  0  0  0  0  0
   -1.1230   24.0920  -29.3330 C   0  0  0  0  0  0  0  0  0  0  0  0
   -1.9780   25.2330  -29.3490 N   0  0  0  0  0  0  0  0  0  0  0  0
   -0.0400   24.1430  -28.6920 O   0  0  0  0  0  0  0  0  0  0  0  0
   -0.5830   21.9100  -30.5000 C   0  0  0  0  0  0  0  0  0  0  0  0
   -1.3360   20.9340  -31.1140 C   0  0  0  0  0  0  0  0  0  0  0  0
   -0.9410   19.7550  -31.7390 C   0  0  0  0  0  0  0  0  0  0  0  0
   -1.9350   18.9610  -32.3370 C   0  0  0  0  0  0  0  0  0  0  0  0
   -3.2970   19.3560  -32.3060 C   0  0  0  0  0  0  0  0  0  0  0  0
   -4.3390   18.5280  -32.9600 C   0  0  0  0  0  0  0  0  0  0  0  0
   -5.3940   17.9790  -32.2080 C   0  0  0  0  0  0  0  0  0  0  0  0
   -6.3600   17.1770  -32.8240 C   0  0  0  0  0  0  0  0  0  0  0  0
   -6.2840   16.9160  -34.1940 C   0  0  0  0  0  0  0  0  0  0  0  0
   -7.2430   16.1160  -34.8030 O   0  0  0  0  0  0  0  0  0  0  0  0
   -5.2450   17.4600  -34.9520 C   0  0  0  0  0  0  0  0  0  0  0  0
   -4.2770   18.2640  -34.3410 C   0  0  0  0  0  0  0  0  0  0  0  0
   -3.6550   20.5610  -31.6570 C   0  0  0  0  0  0  0  0  0  0  0  0
   -2.6480   21.3240  -31.0600 C   0  0  0  0  0  0  0  0  0  0  0  0
   -9.4460   19.6013  -31.2879 H   0  0  0  0  0  0  0  0  0  0  0  0
   -9.9400   20.3582  -32.8402 H   0  0  0  0  0  0  0  0  0  0  0  0
   -8.7966   18.9728  -32.8402 H   0  0  0  0  0  0  0  0  0  0  0  0
   -5.9179   20.6448  -32.5660 H   0  0  0  0  0  0  0  0  0  0  0  0
   -6.9738   19.8273  -33.7674 H   0  0  0  0  0  0  0  0  0  0  0  0
   -6.8324   21.6180  -33.7674 H   0  0  0  0  0  0  0  0  0  0  0  0
   -6.4710   24.1928  -29.7108 H   0  0  0  0  0  0  0  0  0  0  0  0
   -7.0197   22.6550  -28.9563 H   0  0  0  0  0  0  0  0  0  0  0  0
   -2.7780   25.2960  -30.0170 H   0  0  0  0  0  0  0  0  0  0  0  0
    0.5082   21.9220  -30.3616 H   0  0  0  0  0  0  0  0  0  0  0  0
    0.1166   19.4536  -31.7643 H   0  0  0  0  0  0  0  0  0  0  0  0
   -1.6531   18.0217  -32.8352 H   0  0  0  0  0  0  0  0  0  0  0  0
   -5.4593   18.1819  -31.1289 H   0  0  0  0  0  0  0  0  0  0  0  0
   -7.1810   16.7510  -32.2286 H   0  0  0  0  0  0  0  0  0  0  0  0
   -5.1877   17.2559  -36.0314 H   0  0  0  0  0  0  0  0  0  0  0  0
   -3.4625   18.6924  -34.9435 H   0  0  0  0  0  0  0  0  0  0  0  0
   -4.7040   20.8904  -31.6230 H   0  0  0  0  0  0  0  0  0  0  0  0
  1  2  1  0
  2  3  1  0
  2  4  1  0
  4  5  2  0
  4  6  1  0
  6  7  1  0
  7  8  1  0
  8  9  1  0
  9 10  2  0
  9 11  1  0
 11 12  1  0
 12 13  1  0
 13 14  1  0
 13 15  2  0
 12 16  2  0
 16 17  1  0
 17 18  2  0
 18 19  1  0
 19 20  2  0
 20 21  1  0
 21 22  2  0
 22 23  1  0
 23 24  2  0
 24 25  1  0
 24 26  1  0
 26 27  2  0
 20 28  1  0
 28 29  2  0
 29 11  1  0
 29 17  1  0
 27 21  1  0
  1 30  1  0
  1 31  1  0
  1 32  1  0
  3 33  1  0
  3 34  1  0
  3 35  1  0
  7 36  1  0
  7 37  1  0
 14 38  1  0
 16 39  1  0
 18 40  1  0
 19 41  1  0
 22 42  1  0
 23 43  1  0
 26 44  1  0
 27 45  1  0
 28 46  1  0
M  CHG  2  14  -1  25  -1
M  END
>  <UniqueID>  (79) 
79

>  <SMILES>  (79) 
CN(C)C(=O)OCOC(=O)n1c(C([NH-])=O)cc2ccc(-c3ccc([O-])cc3)cc21

>  <Energy>  (79) 
83.54855888093782

>  <Genealogy>  (79) 
CN(C)C(=O)OCOC(=O)n1c(C([NH-])=O)cc2ccc(-c3ccc([O-])cc3)cc21 (protonated)
CN(C)C(=O)OCOC(=O)n1c(C([NH-])=O)cc2ccc(-c3ccc([O-])cc3)cc21 (3D coordinates assigned)
CN(C)C(=O)OCOC(=O)n1c(C([NH-])=O)cc2ccc(-c3ccc([O-])cc3)cc21 (optimized conformer: 83.54855888093782 kcal/mol)

>  <smiles>  (79) 
CN(C)C(=O)OCOC(=O)n1c(C(N)=O)cc2ccc(-c3ccc(O)cc3)cc21

>  <score_type>  (79) 
oracle

>  <origin>  (79) 
adg

>  <m_score__min__energy>  (79) 
-11.25

>  <m_primary>  (79) 
energy

$$$$
81:0
     RDKit          3D

 42 43  0  0  0  0  0  0  0  0999 V2000
   -2.6450   24.8680  -27.9270 C   0  0  0  0  0  0  0  0  0  0  0  0
   -2.1140   24.9840  -29.2270 O   0  0  0  0  0  0  0  0  0  0  0  0
   -1.0830   24.0340  -29.3980 C   0  0  0  0  0  0  0  0  0  0  0  0
   -1.6470   22.7980  -30.0960 C   0  0  0  0  0  0  0  0  0  0  0  0
   -3.0700   22.8680  -30.1690 O   0  0  0  0  0  0  0  0  0  0  0  0
   -3.7910   22.6940  -31.3550 C   0  0  0  0  0  0  0  0  0  0  0  0
   -3.1880   22.4770  -32.4410 O   0  0  0  0  0  0  0  0  0  0  0  0
   -5.2260   22.7620  -31.3340 N   0  0  0  0  0  0  0  0  0  0  0  0
   -6.0020   23.8210  -30.9660 C   0  0  0  0  0  0  0  0  0  0  0  0
   -5.5210   25.0730  -30.3490 C   0  0  0  0  0  0  0  0  0  0  0  0
   -4.1720   25.5100  -30.5170 N   0  0  0  0  0  0  0  0  0  0  0  0
   -6.3000   25.7420  -29.6190 O   0  0  0  0  0  0  0  0  0  0  0  0
   -7.3450   23.5550  -31.2160 C   0  0  0  0  0  0  0  0  0  0  0  0
   -7.3710   22.2840  -31.7420 C   0  0  0  0  0  0  0  0  0  0  0  0
   -8.4460   21.5250  -32.1930 C   0  0  0  0  0  0  0  0  0  0  0  0
   -8.1780   20.2590  -32.7370 C   0  0  0  0  0  0  0  0  0  0  0  0
   -6.8460   19.7680  -32.8320 C   0  0  0  0  0  0  0  0  0  0  0  0
   -6.5750   18.4670  -33.4130 N   0  0  0  0  0  0  0  0  0  0  0  0
   -5.7160   18.3520  -34.5970 C   0  0  0  0  0  0  0  0  0  0  0  0
   -7.1870   17.2470  -32.8700 C   0  0  0  0  0  0  0  0  0  0  0  0
   -6.7520   16.0760  -33.6410 C   0  0  0  0  0  0  0  0  0  0  0  0
   -6.4090   15.1540  -34.2490 N   0  0  0  0  0  0  0  0  0  0  0  0
   -5.7830   20.5790  -32.3630 C   0  0  0  0  0  0  0  0  0  0  0  0
   -6.0820   21.8270  -31.8050 C   0  0  0  0  0  0  0  0  0  0  0  0
   -1.8484   25.0420  -27.1887 H   0  0  0  0  0  0  0  0  0  0  0  0
   -3.4423   25.6132  -27.7887 H   0  0  0  0  0  0  0  0  0  0  0  0
   -3.0589   23.8583  -27.7887 H   0  0  0  0  0  0  0  0  0  0  0  0
   -0.2806   24.4689  -30.0121 H   0  0  0  0  0  0  0  0  0  0  0  0
   -0.6769   23.7498  -28.4160 H   0  0  0  0  0  0  0  0  0  0  0  0
   -1.2353   22.7385  -31.1143 H   0  0  0  0  0  0  0  0  0  0  0  0
   -1.3650   21.9051  -29.5187 H   0  0  0  0  0  0  0  0  0  0  0  0
   -3.4570   24.8970  -30.9660 H   0  0  0  0  0  0  0  0  0  0  0  0
   -3.8630   26.4200  -30.1080 H   0  0  0  0  0  0  0  0  0  0  0  0
   -8.2025   24.2191  -31.0323 H   0  0  0  0  0  0  0  0  0  0  0  0
   -9.4758   21.9057  -32.1253 H   0  0  0  0  0  0  0  0  0  0  0  0
   -9.0111   19.6366  -33.0956 H   0  0  0  0  0  0  0  0  0  0  0  0
   -4.6719   18.2122  -34.2803 H   0  0  0  0  0  0  0  0  0  0  0  0
   -6.0352   17.4886  -35.1992 H   0  0  0  0  0  0  0  0  0  0  0  0
   -5.7969   19.2690  -35.1992 H   0  0  0  0  0  0  0  0  0  0  0  0
   -6.8830   17.1242  -31.8200 H   0  0  0  0  0  0  0  0  0  0  0  0
   -8.2815   17.3342  -32.9360 H   0  0  0  0  0  0  0  0  0  0  0  0
   -4.7412   20.2337  -32.4362 H   0  0  0  0  0  0  0  0  0  0  0  0
  1  2  1  0
  2  3  1  0
  3  4  1  0
  4  5  1  0
  5  6  1  0
  6  7  2  0
  6  8  1  0
  8  9  1  0
  9 10  1  0
 10 11  1  0
 10 12  2  0
  9 13  2  0
 13 14  1  0
 14 15  2  0
 15 16  1  0
 16 17  2  0
 17 18  1  0
 18 19  1  0
 18 20  1  0
 20 21  1  0
 21 22  3  0
 17 23  1  0
 23 24  2  0
 24  8  1  0
 24 14  1  0
  1 25  1  0
  1 26  1  0
  1 27  1  0
  3 28  1  0
  3 29  1  0
  4 30  1  0
  4 31  1  0
 11 32  1  0
 11 33  1  0
 13 34  1  0
 15 35  1  0
 16 36  1  0
 19 37  1  0
 19 38  1  0
 19 39  1  0
 20 40  1  0
 20 41  1  0
 23 42  1  0
M  END
>  <UniqueID>  (80) 
80

>  <SMILES>  (80) 
COCCOC(=O)n1c(C(N)=O)cc2ccc(N(C)CC#N)cc21

>  <Energy>  (80) 
77.98181902981788

>  <Genealogy>  (80) 
COCCOC(=O)n1c(C(N)=O)cc2ccc(N(C)CC#N)cc21 (3D coordinates assigned)
COCCOC(=O)n1c(C(N)=O)cc2ccc(N(C)CC#N)cc21 (optimized conformer: 77.98181902981788 kcal/mol)

>  <smiles>  (80) 
COCCOC(=O)n1c(C(N)=O)cc2ccc(N(C)CC#N)cc21

>  <score_type>  (80) 
oracle

>  <origin>  (80) 
adg

>  <m_score__min__energy>  (80) 
-8.9499999999999993

>  <m_primary>  (80) 
energy

$$$$
82:0
     RDKit          3D

 69 70  0  0  0  0  0  0  0  0999 V2000
   -9.4640   19.3040  -32.3130 C   0  0  0  0  0  0  0  0  0  0  0  0
   -8.3450   19.7280  -32.4380 C   0  0  0  0  0  0  0  0  0  0  0  0
   -7.0040   20.2260  -32.6030 C   0  0  0  0  0  0  0  0  0  0  0  0
   -6.7130   21.5830  -32.3320 C   0  0  0  0  0  0  0  0  0  0  0  0
   -5.4140   22.0840  -32.5290 C   0  0  0  0  0  0  0  0  0  0  0  0
   -4.4370   21.2030  -32.9900 C   0  0  0  0  0  0  0  0  0  0  0  0
   -3.1180   21.4280  -33.3110 C   0  0  0  0  0  0  0  0  0  0  0  0
   -2.6290   20.2000  -33.7560 C   0  0  0  0  0  0  0  0  0  0  0  0
   -1.2210   19.9580  -34.1450 C   0  0  0  0  0  0  0  0  0  0  0  0
   -0.7380   18.6310  -34.3540 N   0  0  0  0  0  0  0  0  0  0  0  0
   -0.4400   20.9300  -34.3240 O   0  0  0  0  0  0  0  0  0  0  0  0
   -3.6080   19.2520  -33.7060 N   0  0  0  0  0  0  0  0  0  0  0  0
   -3.5370   17.8940  -34.1620 C   0  0  0  0  0  0  0  0  0  0  0  0
   -3.1450   17.6420  -35.3350 O   0  0  0  0  0  0  0  0  0  0  0  0
   -3.8880   16.8520  -33.2950 O   0  0  0  0  0  0  0  0  0  0  0  0
   -3.6710   15.4720  -33.5850 C   0  0  0  0  0  0  0  0  0  0  0  0
   -2.2650   15.0410  -33.1610 C   0  0  0  0  0  0  0  0  0  0  0  0
   -1.4810   16.1520  -32.7270 O   0  0  0  0  0  0  0  0  0  0  0  0
   -0.1090   16.2780  -32.9910 C   0  0  0  0  0  0  0  0  0  0  0  0
    0.3010   16.3420  -34.1830 O   0  0  0  0  0  0  0  0  0  0  0  0
    0.8320   16.3250  -31.9030 N   0  0  0  0  0  0  0  0  0  0  0  0
    2.0290   15.4790  -31.9480 C   0  0  0  0  0  0  0  0  0  0  0  0
    0.5920   17.2000  -30.7490 C   0  0  0  0  0  0  0  0  0  0  0  0
   -0.4770   18.2440  -31.0830 C   0  0  0  0  0  0  0  0  0  0  0  0
    0.1420   19.5610  -31.2820 N   0  0  0  0  0  0  0  0  0  0  0  0
    1.4590   19.6630  -31.9130 C   0  0  0  0  0  0  0  0  0  0  0  0
   -0.5110   20.7560  -30.8160 C   0  0  0  0  0  0  0  0  0  0  0  0
   -0.6350   21.7500  -31.5840 O   0  0  0  0  0  0  0  0  0  0  0  0
   -1.0020   20.8170  -29.5050 O   0  0  0  0  0  0  0  0  0  0  0  0
   -0.5240   21.7580  -28.5470 C   0  0  0  0  0  0  0  0  0  0  0  0
   -0.3320   23.0290  -29.1620 O   0  0  0  0  0  0  0  0  0  0  0  0
   -0.4840   24.2350  -28.4710 C   0  0  0  0  0  0  0  0  0  0  0  0
    0.5230   24.9240  -28.1530 O   0  0  0  0  0  0  0  0  0  0  0  0
   -1.8570   24.7340  -28.1610 C   0  0  0  0  0  0  0  0  0  0  0  0
   -2.4850   25.1920  -29.3550 O   0  0  0  0  0  0  0  0  0  0  0  0
   -3.5550   24.5230  -29.9530 C   0  0  0  0  0  0  0  0  0  0  0  0
   -4.2450   25.0860  -30.8470 O   0  0  0  0  0  0  0  0  0  0  0  0
   -3.8460   23.1090  -29.5640 C   0  0  0  0  0  0  0  0  0  0  0  0
   -3.0720   22.2230  -30.3270 O   0  0  0  0  0  0  0  0  0  0  0  0
   -4.7070   19.8820  -33.2370 C   0  0  0  0  0  0  0  0  0  0  0  0
   -5.9930   19.3610  -33.0610 C   0  0  0  0  0  0  0  0  0  0  0  0
  -10.4871   18.9164  -32.1987 H   0  0  0  0  0  0  0  0  0  0  0  0
   -7.5069   22.2502  -31.9652 H   0  0  0  0  0  0  0  0  0  0  0  0
   -5.1761   23.1385  -32.3256 H   0  0  0  0  0  0  0  0  0  0  0  0
   -2.5659   22.3762  -33.2331 H   0  0  0  0  0  0  0  0  0  0  0  0
    0.2390   18.4760  -34.6860 H   0  0  0  0  0  0  0  0  0  0  0  0
   -1.3300   17.7970  -34.1470 H   0  0  0  0  0  0  0  0  0  0  0  0
   -4.4124   14.8684  -33.0409 H   0  0  0  0  0  0  0  0  0  0  0  0
   -3.7739   15.3197  -34.6695 H   0  0  0  0  0  0  0  0  0  0  0  0
   -2.3473   14.3185  -32.3356 H   0  0  0  0  0  0  0  0  0  0  0  0
   -1.7674   14.5893  -34.0319 H   0  0  0  0  0  0  0  0  0  0  0  0
    2.3543   15.2491  -30.9226 H   0  0  0  0  0  0  0  0  0  0  0  0
    1.7969   14.5432  -32.4776 H   0  0  0  0  0  0  0  0  0  0  0  0
    2.8337   16.0101  -32.4776 H   0  0  0  0  0  0  0  0  0  0  0  0
    0.2513   16.5920  -29.8980 H   0  0  0  0  0  0  0  0  0  0  0  0
    1.5283   17.7177  -30.4933 H   0  0  0  0  0  0  0  0  0  0  0  0
   -1.0002   17.9460  -32.0036 H   0  0  0  0  0  0  0  0  0  0  0  0
   -1.1901   18.3061  -30.2478 H   0  0  0  0  0  0  0  0  0  0  0  0
    2.2346   19.7231  -31.1352 H   0  0  0  0  0  0  0  0  0  0  0  0
    1.6354   18.7758  -32.5389 H   0  0  0  0  0  0  0  0  0  0  0  0
    1.4967   20.5668  -32.5389 H   0  0  0  0  0  0  0  0  0  0  0  0
   -1.2587   21.8545  -27.7341 H   0  0  0  0  0  0  0  0  0  0  0  0
    0.4365   21.4046  -28.1438 H   0  0  0  0  0  0  0  0  0  0  0  0
   -2.4523   23.9182  -27.7251 H   0  0  0  0  0  0  0  0  0  0  0  0
   -1.7880   25.5660  -27.4448 H   0  0  0  0  0  0  0  0  0  0  0  0
   -3.6108   22.9705  -28.4984 H   0  0  0  0  0  0  0  0  0  0  0  0
   -4.9106   22.9007  -29.7462 H   0  0  0  0  0  0  0  0  0  0  0  0
   -2.1250   22.5080  -30.2220 H   0  0  0  0  0  0  0  0  0  0  0  0
   -6.2083   18.3037  -33.2748 H   0  0  0  0  0  0  0  0  0  0  0  0
  1  2  3  0
  2  3  1  0
  3  4  2  0
  4  5  1  0
  5  6  2  0
  6  7  1  0
  7  8  2  0
  8  9  1  0
  9 10  1  0
  9 11  2  0
  8 12  1  0
 12 13  1  0
 13 14  2  0
 13 15  1  0
 15 16  1  0
 16 17  1  0
 17 18  1  0
 18 19  1  0
 19 20  2  0
 19 21  1  0
 21 22  1  0
 21 23  1  0
 23 24  1  0
 24 25  1  0
 25 26  1  0
 25 27  1  0
 27 28  2  0
 27 29  1  0
 29 30  1  0
 30 31  1  0
 31 32  1  0
 32 33  2  0
 32 34  1  0
 34 35  1  0
 35 36  1  0
 36 37  2  0
 36 38  1  0
 38 39  1  0
 12 40  1  0
 40 41  2  0
 41  3  1  0
 40  6  1  0
  1 42  1  0
  4 43  1  0
  5 44  1  0
  7 45  1  0
 10 46  1  0
 10 47  1  0
 16 48  1  0
 16 49  1  0
 17 50  1  0
 17 51  1  0
 22 52  1  0
 22 53  1  0
 22 54  1  0
 23 55  1  0
 23 56  1  0
 24 57  1  0
 24 58  1  0
 26 59  1  0
 26 60  1  0
 26 61  1  0
 30 62  1  0
 30 63  1  0
 34 64  1  0
 34 65  1  0
 38 66  1  0
 38 67  1  0
 39 68  1  0
 41 69  1  0
M  END
>  <UniqueID>  (81) 
81

>  <SMILES>  (81) 
C#Cc1ccc2cc(C(N)=O)n(C(=O)OCCOC(=O)N(C)CCN(C)C(=O)OCOC(=O)COC(=O)CO)c2c1

>  <Energy>  (81) 
81.87562646536078

>  <Genealogy>  (81) 
C#Cc1ccc2cc(C(N)=O)n(C(=O)OCCOC(=O)N(C)CCN(C)C(=O)OCOC(=O)COC(=O)CO)c2c1 (3D coordinates assigned)
C#Cc1ccc2cc(C(N)=O)n(C(=O)OCCOC(=O)N(C)CCN(C)C(=O)OCOC(=O)COC(=O)CO)c2c1 (optimized conformer: 81.87562646536078 kcal/mol)

>  <smiles>  (81) 
C#Cc1ccc2cc(C(N)=O)n(C(=O)OCCOC(=O)N(C)CCN(C)C(=O)OCOC(=O)COC(=O)CO)c2c1

>  <score_type>  (81) 
oracle

>  <origin>  (81) 
adg

>  <m_score__min__energy>  (81) 
-7.3300000000000001

>  <m_primary>  (81) 
energy

$$$$
83:0
     RDKit          3D

 49 51  0  0  0  0  0  0  0  0999 V2000
   -3.8230   19.4490  -33.4670 C   0  0  0  0  0  0  0  0  0  0  0  0
   -4.0910   17.9710  -33.7000 C   0  0  0  0  0  0  0  0  0  0  0  0
   -5.4900   17.7230  -33.6410 O   0  0  0  0  0  0  0  0  0  0  0  0
   -6.1380   17.2850  -32.4820 C   0  0  0  0  0  0  0  0  0  0  0  0
   -5.6140   16.4100  -31.7340 O   0  0  0  0  0  0  0  0  0  0  0  0
   -7.4830   17.8500  -32.1340 C   0  0  0  0  0  0  0  0  0  0  0  0
   -7.9020   18.8900  -33.0910 N   0  0  0  0  0  0  0  0  0  0  0  0
   -7.8310   20.2000  -32.4940 C   0  0  0  0  0  0  0  0  0  0  0  0
   -9.0260   20.9210  -32.2290 C   0  0  0  0  0  0  0  0  0  0  0  0
   -8.9830   22.1960  -31.6450 C   0  0  0  0  0  0  0  0  0  0  0  0
   -7.7350   22.7260  -31.3310 C   0  0  0  0  0  0  0  0  0  0  0  0
   -7.4060   23.9520  -30.8040 C   0  0  0  0  0  0  0  0  0  0  0  0
   -6.0140   23.9670  -30.7410 C   0  0  0  0  0  0  0  0  0  0  0  0
   -5.2480   25.1710  -30.3520 C   0  0  0  0  0  0  0  0  0  0  0  0
   -3.8550   25.2520  -30.6710 N   0  0  0  0  0  0  0  0  0  0  0  0
   -5.8040   26.1360  -29.7550 O   0  0  0  0  0  0  0  0  0  0  0  0
   -5.4990   22.7830  -31.1970 N   0  0  0  0  0  0  0  0  0  0  0  0
   -4.1220   22.4230  -31.4110 C   0  0  0  0  0  0  0  0  0  0  0  0
   -3.6010   22.6210  -32.5450 O   0  0  0  0  0  0  0  0  0  0  0  0
   -3.2970   21.8170  -30.3150 C   0  0  0  0  0  0  0  0  0  0  0  0
   -2.8780   22.8490  -29.2970 C   0  0  0  0  0  0  0  0  0  0  0  0
   -1.6330   23.4950  -29.4320 C   0  0  0  0  0  0  0  0  0  0  0  0
   -1.2520   24.4920  -28.5280 C   0  0  0  0  0  0  0  0  0  0  0  0
   -2.1070   24.8560  -27.4870 C   0  0  0  0  0  0  0  0  0  0  0  0
   -3.3350   24.2060  -27.3320 C   0  0  0  0  0  0  0  0  0  0  0  0
   -3.7190   23.1960  -28.2220 C   0  0  0  0  0  0  0  0  0  0  0  0
   -4.9120   22.5690  -28.0420 F   0  0  0  0  0  0  0  0  0  0  0  0
   -6.5680   22.0440  -31.5680 C   0  0  0  0  0  0  0  0  0  0  0  0
   -6.5790   20.7670  -32.1450 C   0  0  0  0  0  0  0  0  0  0  0  0
   -3.7867   19.6491  -32.3860 H   0  0  0  0  0  0  0  0  0  0  0  0
   -2.8604   19.7235  -33.9232 H   0  0  0  0  0  0  0  0  0  0  0  0
   -4.6279   20.0440  -33.9232 H   0  0  0  0  0  0  0  0  0  0  0  0
   -3.7097   17.6819  -34.6905 H   0  0  0  0  0  0  0  0  0  0  0  0
   -3.5832   17.3814  -32.9225 H   0  0  0  0  0  0  0  0  0  0  0  0
   -8.2243   17.0374  -32.1435 H   0  0  0  0  0  0  0  0  0  0  0  0
   -7.4143   18.3094  -31.1369 H   0  0  0  0  0  0  0  0  0  0  0  0
   -7.3160   18.8420  -33.9630 H   0  0  0  0  0  0  0  0  0  0  0  0
   -8.8930   18.7060  -33.3780 H   0  0  0  0  0  0  0  0  0  0  0  0
   -9.9978   20.4738  -32.4850 H   0  0  0  0  0  0  0  0  0  0  0  0
   -9.9061   22.7587  -31.4418 H   0  0  0  0  0  0  0  0  0  0  0  0
   -8.0956   24.7521  -30.4969 H   0  0  0  0  0  0  0  0  0  0  0  0
   -3.4800   26.0350  -31.2500 H   0  0  0  0  0  0  0  0  0  0  0  0
   -3.8895   21.0391  -29.8111 H   0  0  0  0  0  0  0  0  0  0  0  0
   -2.3885   21.3904  -30.7651 H   0  0  0  0  0  0  0  0  0  0  0  0
   -0.9570   23.2137  -30.2529 H   0  0  0  0  0  0  0  0  0  0  0  0
   -0.2772   24.9897  -28.6378 H   0  0  0  0  0  0  0  0  0  0  0  0
   -1.8149   25.6541  -26.7886 H   0  0  0  0  0  0  0  0  0  0  0  0
   -4.0034   24.4899  -26.5058 H   0  0  0  0  0  0  0  0  0  0  0  0
   -5.6417   20.2192  -32.3224 H   0  0  0  0  0  0  0  0  0  0  0  0
  1  2  1  0
  2  3  1  0
  3  4  1  0
  4  5  2  0
  4  6  1  0
  6  7  1  0
  7  8  1  0
  8  9  2  0
  9 10  1  0
 10 11  2  0
 11 12  1  0
 12 13  2  0
 13 14  1  0
 14 15  1  0
 14 16  2  0
 13 17  1  0
 17 18  1  0
 18 19  2  0
 18 20  1  0
 20 21  1  0
 21 22  2  0
 22 23  1  0
 23 24  2  0
 24 25  1  0
 25 26  2  0
 26 27  1  0
 17 28  1  0
 28 29  2  0
 29  8  1  0
 28 11  1  0
 26 21  1  0
  1 30  1  0
  1 31  1  0
  1 32  1  0
  2 33  1  0
  2 34  1  0
  6 35  1  0
  6 36  1  0
  7 37  1  0
  7 38  1  0
  9 39  1  0
 10 40  1  0
 12 41  1  0
 15 42  1  0
 20 43  1  0
 20 44  1  0
 22 45  1  0
 23 46  1  0
 24 47  1  0
 25 48  1  0
 29 49  1  0
M  CHG  2   7   1  15  -1
M  END
>  <UniqueID>  (82) 
82

>  <SMILES>  (82) 
CCOC(=O)C[NH2+]c1ccc2cc(C([NH-])=O)n(C(=O)Cc3ccccc3F)c2c1

>  <Energy>  (82) 
85.1865316481696

>  <Genealogy>  (82) 
CCOC(=O)C[NH2+]c1ccc2cc(C([NH-])=O)n(C(=O)Cc3ccccc3F)c2c1 (protonated)
CCOC(=O)C[NH2+]c1ccc2cc(C([NH-])=O)n(C(=O)Cc3ccccc3F)c2c1 (3D coordinates assigned)
CCOC(=O)C[NH2+]c1ccc2cc(C([NH-])=O)n(C(=O)Cc3ccccc3F)c2c1 (optimized conformer: 85.1865316481696 kcal/mol)

>  <smiles>  (82) 
CCOC(=O)CNc1ccc2cc(C(N)=O)n(C(=O)Cc3ccccc3F)c2c1

>  <score_type>  (82) 
oracle

>  <origin>  (82) 
adg

>  <m_score__min__energy>  (82) 
-11.08

>  <m_primary>  (82) 
energy

$$$$
84:0
     RDKit          3D

 47 49  0  0  0  0  0  0  0  0999 V2000
   -2.9620   20.1230  -27.5290 C   0  0  0  0  0  0  0  0  0  0  0  0
   -2.7740   21.4980  -28.1970 C   0  0  0  0  0  0  0  0  0  0  0  0
   -3.7950   22.5140  -27.6490 C   0  0  0  0  0  0  0  0  0  0  0  0
   -1.3570   22.0080  -27.8950 C   0  0  0  0  0  0  0  0  0  0  0  0
   -2.8880   21.3850  -29.6230 O   0  0  0  0  0  0  0  0  0  0  0  0
   -3.2230   22.4150  -30.5160 C   0  0  0  0  0  0  0  0  0  0  0  0
   -2.3570   23.2500  -30.8930 O   0  0  0  0  0  0  0  0  0  0  0  0
   -4.5750   22.5300  -30.9850 N   0  0  0  0  0  0  0  0  0  0  0  0
   -5.3750   23.6340  -30.9550 C   0  0  0  0  0  0  0  0  0  0  0  0
   -5.0640   24.9130  -30.2830 C   0  0  0  0  0  0  0  0  0  0  0  0
   -3.9120   25.6560  -30.6710 N   0  0  0  0  0  0  0  0  0  0  0  0
   -5.8270   25.3760  -29.3940 O   0  0  0  0  0  0  0  0  0  0  0  0
   -6.5900   23.3730  -31.5850 C   0  0  0  0  0  0  0  0  0  0  0  0
   -6.5120   22.0630  -32.0010 C   0  0  0  0  0  0  0  0  0  0  0  0
   -7.4320   21.2910  -32.7000 C   0  0  0  0  0  0  0  0  0  0  0  0
   -7.0740   19.9730  -33.0300 C   0  0  0  0  0  0  0  0  0  0  0  0
   -5.8080   19.4520  -32.6560 C   0  0  0  0  0  0  0  0  0  0  0  0
   -5.4100   18.0730  -33.0260 C   0  0  0  0  0  0  0  0  0  0  0  0
   -4.1000   17.8130  -33.2940 N   0  0  0  0  0  0  0  0  0  0  0  0
   -3.6590   16.5760  -33.6410 C   0  0  0  0  0  0  0  0  0  0  0  0
   -4.5620   15.5100  -33.7380 C   0  0  0  0  0  0  0  0  0  0  0  0
   -4.0810   14.1270  -34.0830 C   0  0  0  0  0  0  0  0  0  0  0  0
   -4.6870   13.6890  -35.2680 O   0  0  0  0  0  0  0  0  0  0  0  0
   -5.9100   15.7400  -33.4380 C   0  0  0  0  0  0  0  0  0  0  0  0
   -6.3430   17.0190  -33.0830 C   0  0  0  0  0  0  0  0  0  0  0  0
   -7.6440   17.2090  -32.7490 F   0  0  0  0  0  0  0  0  0  0  0  0
   -4.8930   20.2750  -31.9600 C   0  0  0  0  0  0  0  0  0  0  0  0
   -5.2870   21.5770  -31.6280 C   0  0  0  0  0  0  0  0  0  0  0  0
   -2.9458   20.2413  -26.4355 H   0  0  0  0  0  0  0  0  0  0  0  0
   -3.9271   19.6945  -27.8372 H   0  0  0  0  0  0  0  0  0  0  0  0
   -2.1474   19.4512  -27.8372 H   0  0  0  0  0  0  0  0  0  0  0  0
   -3.7765   22.4956  -26.5493 H   0  0  0  0  0  0  0  0  0  0  0  0
   -3.5351   23.5224  -28.0033 H   0  0  0  0  0  0  0  0  0  0  0  0
   -4.8021   22.2492  -28.0033 H   0  0  0  0  0  0  0  0  0  0  0  0
   -1.2106   22.0607  -26.8061 H   0  0  0  0  0  0  0  0  0  0  0  0
   -0.6186   21.3192  -28.3313 H   0  0  0  0  0  0  0  0  0  0  0  0
   -1.2270   23.0094  -28.3313 H   0  0  0  0  0  0  0  0  0  0  0  0
   -2.9510   25.2980  -30.4730 H   0  0  0  0  0  0  0  0  0  0  0  0
   -7.4329   24.0666  -31.7211 H   0  0  0  0  0  0  0  0  0  0  0  0
   -8.4121   21.6999  -32.9867 H   0  0  0  0  0  0  0  0  0  0  0  0
   -7.7819   19.3388  -33.5837 H   0  0  0  0  0  0  0  0  0  0  0  0
   -2.5909   16.4113  -33.8461 H   0  0  0  0  0  0  0  0  0  0  0  0
   -2.9894   14.1442  -34.2172 H   0  0  0  0  0  0  0  0  0  0  0  0
   -4.3465   13.4390  -33.2668 H   0  0  0  0  0  0  0  0  0  0  0  0
   -4.2040   14.1310  -36.0150 H   0  0  0  0  0  0  0  0  0  0  0  0
   -6.6306   14.9101  -33.4821 H   0  0  0  0  0  0  0  0  0  0  0  0
   -3.8954   19.9014  -31.6858 H   0  0  0  0  0  0  0  0  0  0  0  0
  1  2  1  0
  2  3  1  0
  2  4  1  0
  2  5  1  0
  5  6  1  0
  6  7  2  0
  6  8  1  0
  8  9  1  0
  9 10  1  0
 10 11  1  0
 10 12  2  0
  9 13  2  0
 13 14  1  0
 14 15  2  0
 15 16  1  0
 16 17  2  0
 17 18  1  0
 18 19  2  0
 19 20  1  0
 20 21  2  0
 21 22  1  0
 22 23  1  0
 21 24  1  0
 24 25  2  0
 25 26  1  0
 17 27  1  0
 27 28  2  0
 28  8  1  0
 28 14  1  0
 25 18  1  0
  1 29  1  0
  1 30  1  0
  1 31  1  0
  3 32  1  0
  3 33  1  0
  3 34  1  0
  4 35  1  0
  4 36  1  0
  4 37  1  0
 11 38  1  0
 13 39  1  0
 15 40  1  0
 16 41  1  0
 20 42  1  0
 22 43  1  0
 22 44  1  0
 23 45  1  0
 24 46  1  0
 27 47  1  0
M  CHG  1  11  -1
M  END
>  <UniqueID>  (83) 
83

>  <SMILES>  (83) 
CC(C)(C)OC(=O)n1c(C([NH-])=O)cc2ccc(-c3ncc(CO)cc3F)cc21

>  <Energy>  (83) 
88.39697204002732

>  <Genealogy>  (83) 
CC(C)(C)OC(=O)n1c(C([NH-])=O)cc2ccc(-c3ncc(CO)cc3F)cc21 (protonated)
CC(C)(C)OC(=O)n1c(C([NH-])=O)cc2ccc(-c3ncc(CO)cc3F)cc21 (3D coordinates assigned)
CC(C)(C)OC(=O)n1c(C([NH-])=O)cc2ccc(-c3ncc(CO)cc3F)cc21 (optimized conformer: 88.39697204002732 kcal/mol)

>  <smiles>  (83) 
CC(C)(C)OC(=O)n1c(C(N)=O)cc2ccc(-c3ncc(CO)cc3F)cc21

>  <score_type>  (83) 
oracle

>  <origin>  (83) 
adg

>  <m_score__min__energy>  (83) 
-10.52

>  <m_primary>  (83) 
energy

$$$$
85:0
     RDKit          3D

 50 51  0  0  0  0  0  0  0  0999 V2000
   -2.3430   25.3670  -26.1760 C   0  0  0  0  0  0  0  0  0  0  0  0
   -3.7260   24.8690  -26.4730 C   0  0  0  0  0  0  0  0  0  0  0  0
   -4.6600   25.2580  -25.7870 O   0  0  0  0  0  0  0  0  0  0  0  0
   -3.9900   23.9040  -27.5920 C   0  0  0  0  0  0  0  0  0  0  0  0
   -4.6070   24.5950  -28.6720 O   0  0  0  0  0  0  0  0  0  0  0  0
   -4.1540   24.5000  -29.9900 C   0  0  0  0  0  0  0  0  0  0  0  0
   -4.5820   25.2970  -30.8690 O   0  0  0  0  0  0  0  0  0  0  0  0
   -3.2210   23.4680  -30.3500 N   0  0  0  0  0  0  0  0  0  0  0  0
   -1.8800   23.4250  -30.0990 C   0  0  0  0  0  0  0  0  0  0  0  0
   -1.1230   24.3670  -29.2490 C   0  0  0  0  0  0  0  0  0  0  0  0
   -1.6250   25.6700  -28.9710 N   0  0  0  0  0  0  0  0  0  0  0  0
   -0.0410   23.9970  -28.7190 O   0  0  0  0  0  0  0  0  0  0  0  0
   -1.3080   22.3030  -30.6960 C   0  0  0  0  0  0  0  0  0  0  0  0
   -2.3490   21.6470  -31.3140 C   0  0  0  0  0  0  0  0  0  0  0  0
   -2.3460   20.4790  -32.0690 C   0  0  0  0  0  0  0  0  0  0  0  0
   -3.5640   20.0470  -32.6180 C   0  0  0  0  0  0  0  0  0  0  0  0
   -4.7580   20.7830  -32.4010 C   0  0  0  0  0  0  0  0  0  0  0  0
   -5.9950   20.3530  -33.0040 N   0  0  0  0  0  0  0  0  0  0  0  0
   -7.1350   20.9370  -32.2840 C   0  0  0  0  0  0  0  0  0  0  0  0
   -8.0300   19.8340  -31.6960 C   0  0  0  0  0  0  0  0  0  0  0  0
   -8.0730   18.5870  -32.5930 C   0  0  0  0  0  0  0  0  0  0  0  0
   -6.7770   17.8720  -32.5960 N   0  0  0  0  0  0  0  0  0  0  0  0
   -6.4310   17.4420  -31.2320 C   0  0  0  0  0  0  0  0  0  0  0  0
   -6.8190   16.6970  -33.4840 C   0  0  0  0  0  0  0  0  0  0  0  0
   -4.7170   21.9730  -31.6390 C   0  0  0  0  0  0  0  0  0  0  0  0
   -3.4920   22.3700  -31.0890 C   0  0  0  0  0  0  0  0  0  0  0  0
   -2.1981   25.4192  -25.0868 H   0  0  0  0  0  0  0  0  0  0  0  0
   -1.6039   24.6785  -26.6117 H   0  0  0  0  0  0  0  0  0  0  0  0
   -2.2125   26.3686  -26.6117 H   0  0  0  0  0  0  0  0  0  0  0  0
   -3.0399   23.4654  -27.9311 H   0  0  0  0  0  0  0  0  0  0  0  0
   -4.6554   23.1025  -27.2386 H   0  0  0  0  0  0  0  0  0  0  0  0
   -2.6520   25.8540  -28.9290 H   0  0  0  0  0  0  0  0  0  0  0  0
   -0.2494   22.0048  -30.6774 H   0  0  0  0  0  0  0  0  0  0  0  0
   -1.4180   19.9111  -32.2311 H   0  0  0  0  0  0  0  0  0  0  0  0
   -3.5931   19.1285  -33.2226 H   0  0  0  0  0  0  0  0  0  0  0  0
   -6.0550   19.3070  -32.9730 H   0  0  0  0  0  0  0  0  0  0  0  0
   -6.0210   20.6490  -34.0080 H   0  0  0  0  0  0  0  0  0  0  0  0
   -6.7596   21.5709  -31.4672 H   0  0  0  0  0  0  0  0  0  0  0  0
   -7.7295   21.5356  -32.9898 H   0  0  0  0  0  0  0  0  0  0  0  0
   -7.6383   19.5478  -30.7088 H   0  0  0  0  0  0  0  0  0  0  0  0
   -9.0526   20.2319  -31.6188 H   0  0  0  0  0  0  0  0  0  0  0  0
   -8.8545   17.9075  -32.2222 H   0  0  0  0  0  0  0  0  0  0  0  0
   -8.2892   18.9109  -33.6218 H   0  0  0  0  0  0  0  0  0  0  0  0
   -6.9475   18.0839  -30.5031 H   0  0  0  0  0  0  0  0  0  0  0  0
   -6.7432   16.3973  -31.0866 H   0  0  0  0  0  0  0  0  0  0  0  0
   -5.3437   17.5234  -31.0866 H   0  0  0  0  0  0  0  0  0  0  0  0
   -6.8518   15.7800  -32.8774 H   0  0  0  0  0  0  0  0  0  0  0  0
   -7.7159   16.7490  -34.1188 H   0  0  0  0  0  0  0  0  0  0  0  0
   -5.9207   16.6848  -34.1188 H   0  0  0  0  0  0  0  0  0  0  0  0
   -5.6256   22.5727  -31.4819 H   0  0  0  0  0  0  0  0  0  0  0  0
  1  2  1  0
  2  3  2  0
  2  4  1  0
  4  5  1  0
  5  6  1  0
  6  7  2  0
  6  8  1  0
  8  9  1  0
  9 10  1  0
 10 11  1  0
 10 12  2  0
  9 13  2  0
 13 14  1  0
 14 15  2  0
 15 16  1  0
 16 17  2  0
 17 18  1  0
 18 19  1  0
 19 20  1  0
 20 21  1  0
 21 22  1  0
 22 23  1  0
 22 24  1  0
 17 25  1  0
 25 26  2  0
 26  8  1  0
 26 14  1  0
  1 27  1  0
  1 28  1  0
  1 29  1  0
  4 30  1  0
  4 31  1  0
 11 32  1  0
 13 33  1  0
 15 34  1  0
 16 35  1  0
 18 36  1  0
 18 37  1  0
 19 38  1  0
 19 39  1  0
 20 40  1  0
 20 41  1  0
 21 42  1  0
 21 43  1  0
 23 44  1  0
 23 45  1  0
 23 46  1  0
 24 47  1  0
 24 48  1  0
 24 49  1  0
 25 50  1  0
M  CHG  2  11  -1  18   1
M  END
>  <UniqueID>  (84) 
84

>  <SMILES>  (84) 
CC(=O)COC(=O)n1c(C([NH-])=O)cc2ccc([NH2+]CCCN(C)C)cc21

>  <Energy>  (84) 
80.19654755557407

>  <Genealogy>  (84) 
CC(=O)COC(=O)n1c(C([NH-])=O)cc2ccc([NH2+]CCCN(C)C)cc21 (protonated)
CC(=O)COC(=O)n1c(C([NH-])=O)cc2ccc([NH2+]CCCN(C)C)cc21 (3D coordinates assigned)
CC(=O)COC(=O)n1c(C([NH-])=O)cc2ccc([NH2+]CCCN(C)C)cc21 (optimized conformer: 80.19654755557407 kcal/mol)

>  <smiles>  (84) 
CC(=O)COC(=O)n1c(C(N)=O)cc2ccc(NCCCN(C)C)cc21

>  <score_type>  (84) 
oracle

>  <origin>  (84) 
adg

>  <m_score__min__energy>  (84) 
-10.24

>  <m_primary>  (84) 
energy

$$$$
86:0
     RDKit          3D

 44 46  0  0  0  0  0  0  0  0999 V2000
   -5.6580   18.4520  -34.1040 C   0  0  0  0  0  0  0  0  0  0  0  0
   -6.8610   18.5130  -33.2700 N   0  0  0  0  0  0  0  0  0  0  0  0
   -7.0190   19.8380  -32.7260 C   0  0  0  0  0  0  0  0  0  0  0  0
   -8.3160   20.3950  -32.5650 C   0  0  0  0  0  0  0  0  0  0  0  0
   -8.4840   21.6720  -32.0040 C   0  0  0  0  0  0  0  0  0  0  0  0
   -7.3450   22.3660  -31.6080 C   0  0  0  0  0  0  0  0  0  0  0  0
   -7.2170   23.6050  -31.0170 C   0  0  0  0  0  0  0  0  0  0  0  0
   -5.8470   23.7830  -30.8280 C   0  0  0  0  0  0  0  0  0  0  0  0
   -5.2420   25.0000  -30.2470 C   0  0  0  0  0  0  0  0  0  0  0  0
   -4.0910   25.5810  -30.8560 N   0  0  0  0  0  0  0  0  0  0  0  0
   -5.7220   25.5260  -29.2080 O   0  0  0  0  0  0  0  0  0  0  0  0
   -5.1610   22.7030  -31.2920 N   0  0  0  0  0  0  0  0  0  0  0  0
   -3.7440   22.4810  -31.2460 C   0  0  0  0  0  0  0  0  0  0  0  0
   -3.1320   22.2320  -32.3200 O   0  0  0  0  0  0  0  0  0  0  0  0
   -3.0250   22.5350  -29.9940 N   0  0  0  0  0  0  0  0  0  0  0  0
   -1.7340   23.2330  -29.8980 C   0  0  0  0  0  0  0  0  0  0  0  0
   -1.8070   24.3640  -28.9180 C   0  0  0  0  0  0  0  0  0  0  0  0
   -2.0730   24.1360  -27.7090 O   0  0  0  0  0  0  0  0  0  0  0  0
   -1.5860   25.6690  -29.3390 O   0  0  0  0  0  0  0  0  0  0  0  0
   -3.6170   21.9510  -28.7830 C   0  0  0  0  0  0  0  0  0  0  0  0
   -2.7380   20.8660  -28.2480 C   0  0  0  0  0  0  0  0  0  0  0  0
   -2.9810   20.1100  -27.1090 C   0  0  0  0  0  0  0  0  0  0  0  0
   -2.0240   19.1120  -26.8960 C   0  0  0  0  0  0  0  0  0  0  0  0
   -1.0330   19.0720  -27.8700 C   0  0  0  0  0  0  0  0  0  0  0  0
   -1.3510   20.2790  -28.9980 S   0  0  0  0  0  0  0  0  0  0  0  0
   -6.0880   21.8430  -31.7570 C   0  0  0  0  0  0  0  0  0  0  0  0
   -5.8870   20.5710  -32.3010 C   0  0  0  0  0  0  0  0  0  0  0  0
   -4.7673   18.4068  -33.4601 H   0  0  0  0  0  0  0  0  0  0  0  0
   -5.6972   17.5547  -34.7391 H   0  0  0  0  0  0  0  0  0  0  0  0
   -5.6062   19.3487  -34.7391 H   0  0  0  0  0  0  0  0  0  0  0  0
   -7.6940   18.2610  -33.8510 H   0  0  0  0  0  0  0  0  0  0  0  0
   -6.7790   17.8110  -32.4960 H   0  0  0  0  0  0  0  0  0  0  0  0
   -9.1983   19.8201  -32.8830 H   0  0  0  0  0  0  0  0  0  0  0  0
   -9.4856   22.1099  -31.8816 H   0  0  0  0  0  0  0  0  0  0  0  0
   -8.0236   24.3041  -30.7512 H   0  0  0  0  0  0  0  0  0  0  0  0
   -3.1290   25.2950  -30.5660 H   0  0  0  0  0  0  0  0  0  0  0  0
   -0.9634   22.5205  -29.5684 H   0  0  0  0  0  0  0  0  0  0  0  0
   -1.4823   23.6422  -30.8875 H   0  0  0  0  0  0  0  0  0  0  0  0
   -3.7309   22.7352  -28.0201 H   0  0  0  0  0  0  0  0  0  0  0  0
   -4.5994   21.5248  -29.0343 H   0  0  0  0  0  0  0  0  0  0  0  0
   -3.8391   20.2787  -26.4417 H   0  0  0  0  0  0  0  0  0  0  0  0
   -2.0530   18.4237  -26.0384 H   0  0  0  0  0  0  0  0  0  0  0  0
   -0.1858   18.3710  -27.8984 H   0  0  0  0  0  0  0  0  0  0  0  0
   -4.8747   20.1513  -32.3959 H   0  0  0  0  0  0  0  0  0  0  0  0
  1  2  1  0
  2  3  1  0
  3  4  2  0
  4  5  1  0
  5  6  2  0
  6  7  1  0
  7  8  2  0
  8  9  1  0
  9 10  1  0
  9 11  2  0
  8 12  1  0
 12 13  1  0
 13 14  2  0
 13 15  1  0
 15 16  1  0
 16 17  1  0
 17 18  2  0
 17 19  1  0
 15 20  1  0
 20 21  1  0
 21 22  2  0
 22 23  1  0
 23 24  2  0
 24 25  1  0
 12 26  1  0
 26 27  2  0
 27  3  1  0
 26  6  1  0
 25 21  1  0
  1 28  1  0
  1 29  1  0
  1 30  1  0
  2 31  1  0
  2 32  1  0
  4 33  1  0
  5 34  1  0
  7 35  1  0
 10 36  1  0
 16 37  1  0
 16 38  1  0
 20 39  1  0
 20 40  1  0
 22 41  1  0
 23 42  1  0
 24 43  1  0
 27 44  1  0
M  CHG  3   2   1  10  -1  19  -1
M  END
>  <UniqueID>  (85) 
85

>  <SMILES>  (85) 
C[NH2+]c1ccc2cc(C([NH-])=O)n(C(=O)N(CC(=O)[O-])Cc3cccs3)c2c1

>  <Energy>  (85) 
106.15519838190461

>  <Genealogy>  (85) 
C[NH2+]c1ccc2cc(C([NH-])=O)n(C(=O)N(CC(=O)[O-])Cc3cccs3)c2c1 (protonated)
C[NH2+]c1ccc2cc(C([NH-])=O)n(C(=O)N(CC(=O)[O-])Cc3cccs3)c2c1 (3D coordinates assigned)
C[NH2+]c1ccc2cc(C([NH-])=O)n(C(=O)N(CC(=O)[O-])Cc3cccs3)c2c1 (optimized conformer: 106.15519838190461 kcal/mol)

>  <smiles>  (85) 
CNc1ccc2cc(C(N)=O)n(C(=O)N(CC(=O)O)Cc3cccs3)c2c1

>  <score_type>  (85) 
oracle

>  <origin>  (85) 
adg

>  <m_score__min__energy>  (85) 
-12.19

>  <m_primary>  (85) 
energy

$$$$
87:0
     RDKit          3D

 39 40  0  0  0  0  0  0  0  0999 V2000
   -2.3600   21.3800  -27.6020 C   0  0  0  0  0  0  0  0  0  0  0  0
   -2.9950   22.1870  -28.4600 C   0  0  0  0  0  0  0  0  0  0  0  0
   -3.2540   23.6260  -28.0840 C   0  0  0  0  0  0  0  0  0  0  0  0
   -2.0260   24.2720  -27.4320 C   0  0  0  0  0  0  0  0  0  0  0  0
   -1.1220   24.8950  -28.4510 C   0  0  0  0  0  0  0  0  0  0  0  0
   -1.5880   25.6850  -29.3120 O   0  0  0  0  0  0  0  0  0  0  0  0
    0.2310   24.5760  -28.4700 O   0  0  0  0  0  0  0  0  0  0  0  0
   -3.4490   21.6940  -29.7340 N   0  0  0  0  0  0  0  0  0  0  0  0
   -3.5780   20.3550  -29.9030 O   0  0  0  0  0  0  0  0  0  0  0  0
   -3.8330   22.5710  -30.8110 C   0  0  0  0  0  0  0  0  0  0  0  0
   -2.9560   23.1430  -31.5150 O   0  0  0  0  0  0  0  0  0  0  0  0
   -5.2180   22.8300  -31.0730 N   0  0  0  0  0  0  0  0  0  0  0  0
   -5.9040   23.9890  -30.8670 C   0  0  0  0  0  0  0  0  0  0  0  0
   -5.3180   25.2730  -30.4280 C   0  0  0  0  0  0  0  0  0  0  0  0
   -4.0080   25.6610  -30.8340 N   0  0  0  0  0  0  0  0  0  0  0  0
   -5.9930   26.0510  -29.7020 O   0  0  0  0  0  0  0  0  0  0  0  0
   -7.2540   23.8140  -31.1710 C   0  0  0  0  0  0  0  0  0  0  0  0
   -7.3720   22.5000  -31.5670 C   0  0  0  0  0  0  0  0  0  0  0  0
   -8.4950   21.7780  -31.9620 C   0  0  0  0  0  0  0  0  0  0  0  0
   -8.3240   20.4200  -32.2860 C   0  0  0  0  0  0  0  0  0  0  0  0
   -7.0450   19.8130  -32.2030 C   0  0  0  0  0  0  0  0  0  0  0  0
   -6.8670   18.3590  -32.5360 C   0  0  0  0  0  0  0  0  0  0  0  0
   -6.5010   18.2270  -33.8630 F   0  0  0  0  0  0  0  0  0  0  0  0
   -8.0540   17.6830  -32.3200 F   0  0  0  0  0  0  0  0  0  0  0  0
   -5.9310   20.5790  -31.7940 C   0  0  0  0  0  0  0  0  0  0  0  0
   -6.1290   21.9290  -31.4950 C   0  0  0  0  0  0  0  0  0  0  0  0
   -2.1693   20.3309  -27.8721 H   0  0  0  0  0  0  0  0  0  0  0  0
   -2.0287   21.7658  -26.6266 H   0  0  0  0  0  0  0  0  0  0  0  0
   -3.5139   24.1903  -28.9917 H   0  0  0  0  0  0  0  0  0  0  0  0
   -4.0791   23.6470  -27.3568 H   0  0  0  0  0  0  0  0  0  0  0  0
   -2.3623   25.0498  -26.7306 H   0  0  0  0  0  0  0  0  0  0  0  0
   -1.4623   23.4861  -26.9079 H   0  0  0  0  0  0  0  0  0  0  0  0
   -2.9410   20.1250  -30.6270 H   0  0  0  0  0  0  0  0  0  0  0  0
   -3.1720   25.0970  -30.5640 H   0  0  0  0  0  0  0  0  0  0  0  0
   -8.0545   24.5658  -31.1079 H   0  0  0  0  0  0  0  0  0  0  0  0
   -9.4848   22.2546  -32.0189 H   0  0  0  0  0  0  0  0  0  0  0  0
   -9.1905   19.8231  -32.6068 H   0  0  0  0  0  0  0  0  0  0  0  0
   -6.0808   17.9355  -31.8937 H   0  0  0  0  0  0  0  0  0  0  0  0
   -4.9328   20.1240  -31.7130 H   0  0  0  0  0  0  0  0  0  0  0  0
  1  2  2  0
  2  3  1  0
  3  4  1  0
  4  5  1  0
  5  6  2  0
  5  7  1  0
  2  8  1  0
  8  9  1  0
  8 10  1  0
 10 11  2  0
 10 12  1  0
 12 13  1  0
 13 14  1  0
 14 15  1  0
 14 16  2  0
 13 17  2  0
 17 18  1  0
 18 19  2  0
 19 20  1  0
 20 21  2  0
 21 22  1  0
 22 23  1  0
 22 24  1  0
 21 25  1  0
 25 26  2  0
 26 12  1  0
 26 18  1  0
  1 27  1  0
  1 28  1  0
  3 29  1  0
  3 30  1  0
  4 31  1  0
  4 32  1  0
  9 33  1  0
 15 34  1  0
 17 35  1  0
 19 36  1  0
 20 37  1  0
 22 38  1  0
 25 39  1  0
M  CHG  2   7  -1  15  -1
M  END
>  <UniqueID>  (86) 
86

>  <SMILES>  (86) 
C=C(CCC(=O)[O-])N(O)C(=O)n1c(C([NH-])=O)cc2ccc(C(F)F)cc21

>  <Energy>  (86) 
76.49854621187224

>  <Genealogy>  (86) 
C=C(CCC(=O)[O-])N(O)C(=O)n1c(C([NH-])=O)cc2ccc(C(F)F)cc21 (protonated)
C=C(CCC(=O)[O-])N(O)C(=O)n1c(C([NH-])=O)cc2ccc(C(F)F)cc21 (3D coordinates assigned)
C=C(CCC(=O)[O-])N(O)C(=O)n1c(C([NH-])=O)cc2ccc(C(F)F)cc21 (optimized conformer: 76.49854621187224 kcal/mol)

>  <smiles>  (86) 
C=C(CCC(=O)O)N(O)C(=O)n1c(C(N)=O)cc2ccc(C(F)F)cc21

>  <score_type>  (86) 
oracle

>  <origin>  (86) 
adg

>  <m_score__min__energy>  (86) 
-11.93

>  <m_primary>  (86) 
energy

$$$$
88:0
     RDKit          3D

 40 41  0  0  0  0  0  0  0  0999 V2000
   -7.5110   17.8290  -33.0060 C   0  0  0  0  0  0  0  0  0  0  0  0
   -7.5360   19.1640  -32.3260 C   0  0  0  0  0  0  0  0  0  0  0  0
   -8.7610   19.6970  -31.8520 C   0  0  0  0  0  0  0  0  0  0  0  0
   -8.8040   20.9650  -31.2470 C   0  0  0  0  0  0  0  0  0  0  0  0
   -7.6110   21.6740  -31.1340 C   0  0  0  0  0  0  0  0  0  0  0  0
   -7.3680   22.9260  -30.6140 C   0  0  0  0  0  0  0  0  0  0  0  0
   -5.9980   23.1410  -30.7850 C   0  0  0  0  0  0  0  0  0  0  0  0
   -5.2710   24.3650  -30.3610 C   0  0  0  0  0  0  0  0  0  0  0  0
   -5.2500   24.7790  -28.9910 N   0  0  0  0  0  0  0  0  0  0  0  0
   -4.6500   25.0590  -31.2110 O   0  0  0  0  0  0  0  0  0  0  0  0
   -5.4240   22.0520  -31.3720 N   0  0  0  0  0  0  0  0  0  0  0  0
   -4.0520   21.8830  -31.7580 C   0  0  0  0  0  0  0  0  0  0  0  0
   -3.5530   22.6740  -32.6040 O   0  0  0  0  0  0  0  0  0  0  0  0
   -3.2470   20.8200  -31.2010 N   0  0  0  0  0  0  0  0  0  0  0  0
   -3.0100   19.6150  -32.0010 C   0  0  0  0  0  0  0  0  0  0  0  0
   -2.6370   20.9500  -29.8680 C   0  0  0  0  0  0  0  0  0  0  0  0
   -1.3600   21.7910  -29.9420 C   0  0  0  0  0  0  0  0  0  0  0  0
   -1.5820   23.1340  -29.3160 C   0  0  0  0  0  0  0  0  0  0  0  0
   -1.0850   23.3890  -28.1860 O   0  0  0  0  0  0  0  0  0  0  0  0
   -2.3890   24.1100  -29.9790 N   0  0  0  0  0  0  0  0  0  0  0  0
   -2.6610   25.2950  -29.3850 O   0  0  0  0  0  0  0  0  0  0  0  0
   -6.4230   21.1740  -31.5920 C   0  0  0  0  0  0  0  0  0  0  0  0
   -6.3510   19.9230  -32.2140 C   0  0  0  0  0  0  0  0  0  0  0  0
   -7.4961   17.0318  -32.2482 H   0  0  0  0  0  0  0  0  0  0  0  0
   -8.4073   17.7208  -33.6345 H   0  0  0  0  0  0  0  0  0  0  0  0
   -6.6113   17.7544  -33.6345 H   0  0  0  0  0  0  0  0  0  0  0  0
   -9.6868   19.1127  -31.9587 H   0  0  0  0  0  0  0  0  0  0  0  0
   -9.7504   21.3840  -30.8745 H   0  0  0  0  0  0  0  0  0  0  0  0
   -8.0983   23.6119  -30.1599 H   0  0  0  0  0  0  0  0  0  0  0  0
   -5.7720   24.2620  -28.2490 H   0  0  0  0  0  0  0  0  0  0  0  0
   -4.7140   25.6300  -28.7110 H   0  0  0  0  0  0  0  0  0  0  0  0
   -2.8415   18.7581  -31.3322 H   0  0  0  0  0  0  0  0  0  0  0  0
   -3.8866   19.4179  -32.6356 H   0  0  0  0  0  0  0  0  0  0  0  0
   -2.1241   19.7646  -32.6356 H   0  0  0  0  0  0  0  0  0  0  0  0
   -3.3521   21.4369  -29.1887 H   0  0  0  0  0  0  0  0  0  0  0  0
   -2.3813   19.9474  -29.4946 H   0  0  0  0  0  0  0  0  0  0  0  0
   -0.5519   21.2708  -29.4068 H   0  0  0  0  0  0  0  0  0  0  0  0
   -1.0854   21.9306  -30.9980 H   0  0  0  0  0  0  0  0  0  0  0  0
   -2.8050   23.9000  -30.9140 H   0  0  0  0  0  0  0  0  0  0  0  0
   -5.3966   19.5410  -32.6053 H   0  0  0  0  0  0  0  0  0  0  0  0
  1  2  1  0
  2  3  2  0
  3  4  1  0
  4  5  2  0
  5  6  1  0
  6  7  2  0
  7  8  1  0
  8  9  1  0
  8 10  2  0
  7 11  1  0
 11 12  1  0
 12 13  2  0
 12 14  1  0
 14 15  1  0
 14 16  1  0
 16 17  1  0
 17 18  1  0
 18 19  2  0
 18 20  1  0
 20 21  1  0
 11 22  1  0
 22 23  2  0
 23  2  1  0
 22  5  1  0
  1 24  1  0
  1 25  1  0
  1 26  1  0
  3 27  1  0
  4 28  1  0
  6 29  1  0
  9 30  1  0
  9 31  1  0
 15 32  1  0
 15 33  1  0
 15 34  1  0
 16 35  1  0
 16 36  1  0
 17 37  1  0
 17 38  1  0
 20 39  1  0
 23 40  1  0
M  CHG  1  21  -1
M  END
>  <UniqueID>  (87) 
87

>  <SMILES>  (87) 
Cc1ccc2cc(C(N)=O)n(C(=O)N(C)CCC(=O)N[O-])c2c1

>  <Energy>  (87) 
70.92118469408449

>  <Genealogy>  (87) 
Cc1ccc2cc(C(N)=O)n(C(=O)N(C)CCC(=O)N[O-])c2c1 (protonated)
Cc1ccc2cc(C(N)=O)n(C(=O)N(C)CCC(=O)N[O-])c2c1 (3D coordinates assigned)
Cc1ccc2cc(C(N)=O)n(C(=O)N(C)CCC(=O)N[O-])c2c1 (optimized conformer: 70.92118469408449 kcal/mol)

>  <smiles>  (87) 
Cc1ccc2cc(C(N)=O)n(C(=O)N(C)CCC(=O)NO)c2c1

>  <score_type>  (87) 
oracle

>  <origin>  (87) 
adg

>  <m_score__min__energy>  (87) 
-12.18

>  <m_primary>  (87) 
energy

$$$$
89:0
     RDKit          3D

 40 41  0  0  0  0  0  0  0  0999 V2000
   -7.8750   22.3130  -29.7090 C   0  0  0  0  0  0  0  0  0  0  0  0
   -8.1960   22.2520  -31.1790 C   0  0  0  0  0  0  0  0  0  0  0  0
   -9.4820   21.6340  -31.5770 C   0  0  0  0  0  0  0  0  0  0  0  0
   -9.5600   20.8500  -32.5610 O   0  0  0  0  0  0  0  0  0  0  0  0
   -7.3600   22.7370  -32.1240 C   0  0  0  0  0  0  0  0  0  0  0  0
   -6.0540   23.3980  -31.8820 C   0  0  0  0  0  0  0  0  0  0  0  0
   -5.9380   24.6520  -31.9060 O   0  0  0  0  0  0  0  0  0  0  0  0
   -4.8920   22.5920  -31.6330 N   0  0  0  0  0  0  0  0  0  0  0  0
   -3.9060   22.8130  -30.7180 C   0  0  0  0  0  0  0  0  0  0  0  0
   -3.7530   24.0220  -29.8820 C   0  0  0  0  0  0  0  0  0  0  0  0
   -3.5180   25.2980  -30.4710 N   0  0  0  0  0  0  0  0  0  0  0  0
   -3.7980   23.9210  -28.6260 O   0  0  0  0  0  0  0  0  0  0  0  0
   -3.0020   21.7510  -30.7130 C   0  0  0  0  0  0  0  0  0  0  0  0
   -3.4700   20.8670  -31.6580 C   0  0  0  0  0  0  0  0  0  0  0  0
   -2.9760   19.6260  -32.0470 C   0  0  0  0  0  0  0  0  0  0  0  0
   -3.6920   18.9080  -33.0200 C   0  0  0  0  0  0  0  0  0  0  0  0
   -4.8800   19.4390  -33.5810 C   0  0  0  0  0  0  0  0  0  0  0  0
   -5.6700   18.6300  -34.5770 C   0  0  0  0  0  0  0  0  0  0  0  0
   -6.4240   17.4770  -33.9020 C   0  0  0  0  0  0  0  0  0  0  0  0
   -7.0670   17.9130  -32.6160 C   0  0  0  0  0  0  0  0  0  0  0  0
   -8.1730   18.8150  -32.6290 N   0  0  0  0  0  0  0  0  0  0  0  0
   -6.6550   17.4460  -31.5220 O   0  0  0  0  0  0  0  0  0  0  0  0
   -5.3530   20.7000  -33.1580 C   0  0  0  0  0  0  0  0  0  0  0  0
   -4.6120   21.3990  -32.1990 C   0  0  0  0  0  0  0  0  0  0  0  0
   -8.7914   22.1389  -29.1260 H   0  0  0  0  0  0  0  0  0  0  0  0
   -7.1319   21.5400  -29.4636 H   0  0  0  0  0  0  0  0  0  0  0  0
   -7.4672   23.3047  -29.4636 H   0  0  0  0  0  0  0  0  0  0  0  0
  -10.3900   21.8646  -31.0005 H   0  0  0  0  0  0  0  0  0  0  0  0
   -7.6781   22.6316  -33.1717 H   0  0  0  0  0  0  0  0  0  0  0  0
   -4.1800   25.6940  -31.1760 H   0  0  0  0  0  0  0  0  0  0  0  0
   -2.1046   21.6429  -30.0861 H   0  0  0  0  0  0  0  0  0  0  0  0
   -2.0536   19.2194  -31.6067 H   0  0  0  0  0  0  0  0  0  0  0  0
   -3.3266   17.9241  -33.3494 H   0  0  0  0  0  0  0  0  0  0  0  0
   -6.3973   19.2886  -35.0742 H   0  0  0  0  0  0  0  0  0  0  0  0
   -4.9658   18.1996  -35.3042 H   0  0  0  0  0  0  0  0  0  0  0  0
   -7.2049   17.1127  -34.5857 H   0  0  0  0  0  0  0  0  0  0  0  0
   -5.7002   16.6813  -33.6717 H   0  0  0  0  0  0  0  0  0  0  0  0
   -8.6310   19.0990  -31.7350 H   0  0  0  0  0  0  0  0  0  0  0  0
   -8.5500   19.1840  -33.5310 H   0  0  0  0  0  0  0  0  0  0  0  0
   -6.2806   21.1223  -33.5719 H   0  0  0  0  0  0  0  0  0  0  0  0
  1  2  1  0
  2  3  1  0
  3  4  2  0
  2  5  2  3
  5  6  1  0
  6  7  2  0
  6  8  1  0
  8  9  1  0
  9 10  1  0
 10 11  1  0
 10 12  2  0
  9 13  2  0
 13 14  1  0
 14 15  2  0
 15 16  1  0
 16 17  2  0
 17 18  1  0
 18 19  1  0
 19 20  1  0
 20 21  1  0
 20 22  2  0
 17 23  1  0
 23 24  2  0
 24  8  1  0
 24 14  1  0
  1 25  1  0
  1 26  1  0
  1 27  1  0
  3 28  1  0
  5 29  1  0
 11 30  1  0
 13 31  1  0
 15 32  1  0
 16 33  1  0
 18 34  1  0
 18 35  1  0
 19 36  1  0
 19 37  1  0
 21 38  1  0
 21 39  1  0
 23 40  1  0
M  CHG  1  11  -1
M  END
>  <UniqueID>  (88) 
88

>  <SMILES>  (88) 
CC(C=O)=CC(=O)n1c(C([NH-])=O)cc2ccc(CCC(N)=O)cc21

>  <Energy>  (88) 
75.98400368325889

>  <Genealogy>  (88) 
CC(C=O)=CC(=O)n1c(C([NH-])=O)cc2ccc(CCC(N)=O)cc21 (protonated)
CC(C=O)=CC(=O)n1c(C([NH-])=O)cc2ccc(CCC(N)=O)cc21 (3D coordinates assigned)
CC(C=O)=CC(=O)n1c(C([NH-])=O)cc2ccc(CCC(N)=O)cc21 (optimized conformer: 75.98400368325889 kcal/mol)

>  <smiles>  (88) 
CC(C=O)=CC(=O)n1c(C(N)=O)cc2ccc(CCC(N)=O)cc21

>  <score_type>  (88) 
oracle

>  <origin>  (88) 
adg

>  <m_score__min__energy>  (88) 
-10.52

>  <m_primary>  (88) 
energy

$$$$
90:0
     RDKit          3D

 47 48  0  0  0  0  0  0  0  0999 V2000
   -4.1040   24.8800  -26.6150 C   0  0  0  0  0  0  0  0  0  0  0  0
   -2.7890   24.8810  -27.2570 N   0  0  0  0  0  0  0  0  0  0  0  0
   -1.6900   25.7120  -26.7450 C   0  0  0  0  0  0  0  0  0  0  0  0
   -0.3840   24.9070  -26.6550 C   0  0  0  0  0  0  0  0  0  0  0  0
    0.3460   24.9720  -27.8560 O   0  0  0  0  0  0  0  0  0  0  0  0
   -2.5670   23.9960  -28.3630 C   0  0  0  0  0  0  0  0  0  0  0  0
   -1.7290   24.3050  -29.2510 O   0  0  0  0  0  0  0  0  0  0  0  0
   -3.3060   22.6900  -28.4400 C   0  0  0  0  0  0  0  0  0  0  0  0
   -3.0950   22.0610  -29.7530 N   0  0  0  0  0  0  0  0  0  0  0  0
   -2.2360   20.8780  -29.8710 C   0  0  0  0  0  0  0  0  0  0  0  0
   -3.7850   22.5560  -30.9170 C   0  0  0  0  0  0  0  0  0  0  0  0
   -3.1370   22.9140  -31.9370 O   0  0  0  0  0  0  0  0  0  0  0  0
   -5.2150   22.6350  -30.9400 N   0  0  0  0  0  0  0  0  0  0  0  0
   -5.9890   23.7220  -30.6610 C   0  0  0  0  0  0  0  0  0  0  0  0
   -5.4740   25.0480  -30.2330 C   0  0  0  0  0  0  0  0  0  0  0  0
   -4.1840   25.5150  -30.6470 N   0  0  0  0  0  0  0  0  0  0  0  0
   -6.1680   25.7770  -29.4770 O   0  0  0  0  0  0  0  0  0  0  0  0
   -7.3350   23.4150  -30.8740 C   0  0  0  0  0  0  0  0  0  0  0  0
   -7.3490   22.1020  -31.3010 C   0  0  0  0  0  0  0  0  0  0  0  0
   -8.4160   21.2880  -31.6780 C   0  0  0  0  0  0  0  0  0  0  0  0
   -8.1320   19.9700  -32.0820 C   0  0  0  0  0  0  0  0  0  0  0  0
   -6.7970   19.4870  -32.0980 C   0  0  0  0  0  0  0  0  0  0  0  0
   -6.5010   18.0860  -32.5790 C   0  0  0  0  0  0  0  0  0  0  0  0
   -7.2240   17.8350  -33.7290 F   0  0  0  0  0  0  0  0  0  0  0  0
   -5.1520   17.9410  -32.8530 F   0  0  0  0  0  0  0  0  0  0  0  0
   -6.8450   17.1550  -31.6140 F   0  0  0  0  0  0  0  0  0  0  0  0
   -5.7380   20.3560  -31.7330 C   0  0  0  0  0  0  0  0  0  0  0  0
   -6.0560   21.6580  -31.3330 C   0  0  0  0  0  0  0  0  0  0  0  0
   -3.9785   24.8801  -25.5222 H   0  0  0  0  0  0  0  0  0  0  0  0
   -4.6617   25.7777  -26.9201 H   0  0  0  0  0  0  0  0  0  0  0  0
   -4.6603   23.9814  -26.9201 H   0  0  0  0  0  0  0  0  0  0  0  0
   -1.5398   26.5660  -27.4218 H   0  0  0  0  0  0  0  0  0  0  0  0
   -1.9560   26.0606  -25.7362 H   0  0  0  0  0  0  0  0  0  0  0  0
    0.2318   25.3150  -25.8400 H   0  0  0  0  0  0  0  0  0  0  0  0
   -0.6400   23.8545  -26.4635 H   0  0  0  0  0  0  0  0  0  0  0  0
   -0.0940   24.3430  -28.4840 H   0  0  0  0  0  0  0  0  0  0  0  0
   -2.9371   22.0172  -27.6518 H   0  0  0  0  0  0  0  0  0  0  0  0
   -4.3809   22.8783  -28.3019 H   0  0  0  0  0  0  0  0  0  0  0  0
   -1.9722   20.5148  -28.8668 H   0  0  0  0  0  0  0  0  0  0  0  0
   -2.7725   20.0883  -30.4174 H   0  0  0  0  0  0  0  0  0  0  0  0
   -1.3190   21.1437  -30.4174 H   0  0  0  0  0  0  0  0  0  0  0  0
   -3.5270   24.9110  -31.1870 H   0  0  0  0  0  0  0  0  0  0  0  0
   -3.8600   26.4710  -30.3720 H   0  0  0  0  0  0  0  0  0  0  0  0
   -8.2005   24.0788  -30.7317 H   0  0  0  0  0  0  0  0  0  0  0  0
   -9.4494   21.6646  -31.6603 H   0  0  0  0  0  0  0  0  0  0  0  0
   -8.9539   19.3064  -32.3889 H   0  0  0  0  0  0  0  0  0  0  0  0
   -4.6927   20.0149  -31.7636 H   0  0  0  0  0  0  0  0  0  0  0  0
  1  2  1  0
  2  3  1  0
  3  4  1  0
  4  5  1  0
  2  6  1  0
  6  7  2  0
  6  8  1  0
  8  9  1  0
  9 10  1  0
  9 11  1  0
 11 12  2  0
 11 13  1  0
 13 14  1  0
 14 15  1  0
 15 16  1  0
 15 17  2  0
 14 18  2  0
 18 19  1  0
 19 20  2  0
 20 21  1  0
 21 22  2  0
 22 23  1  0
 23 24  1  0
 23 25  1  0
 23 26  1  0
 22 27  1  0
 27 28  2  0
 28 13  1  0
 28 19  1  0
  1 29  1  0
  1 30  1  0
  1 31  1  0
  3 32  1  0
  3 33  1  0
  4 34  1  0
  4 35  1  0
  5 36  1  0
  8 37  1  0
  8 38  1  0
 10 39  1  0
 10 40  1  0
 10 41  1  0
 16 42  1  0
 16 43  1  0
 18 44  1  0
 20 45  1  0
 21 46  1  0
 27 47  1  0
M  END
>  <UniqueID>  (89) 
89

>  <SMILES>  (89) 
CN(CCO)C(=O)CN(C)C(=O)n1c(C(N)=O)cc2ccc(C(F)(F)F)cc21

>  <Energy>  (89) 
84.79901268603304

>  <Genealogy>  (89) 
CN(CCO)C(=O)CN(C)C(=O)n1c(C(N)=O)cc2ccc(C(F)(F)F)cc21 (3D coordinates assigned)
CN(CCO)C(=O)CN(C)C(=O)n1c(C(N)=O)cc2ccc(C(F)(F)F)cc21 (optimized conformer: 84.79901268603304 kcal/mol)

>  <smiles>  (89) 
CN(CCO)C(=O)CN(C)C(=O)n1c(C(N)=O)cc2ccc(C(F)(F)F)cc21

>  <score_type>  (89) 
oracle

>  <origin>  (89) 
adg

>  <m_score__min__energy>  (89) 
-8.0500000000000007

>  <m_primary>  (89) 
energy

$$$$
91:0
     RDKit          3D

 37 38  0  0  0  0  0  0  0  0999 V2000
   -4.2240   25.5810  -30.7340 N   0  0  0  0  0  0  0  0  0  0  0  0
   -5.5650   25.2050  -30.4130 C   0  0  0  0  0  0  0  0  0  0  0  0
   -6.2780   26.0050  -29.7510 O   0  0  0  0  0  0  0  0  0  0  0  0
   -6.1200   23.9020  -30.8510 C   0  0  0  0  0  0  0  0  0  0  0  0
   -7.4530   23.6800  -31.2020 C   0  0  0  0  0  0  0  0  0  0  0  0
   -7.5290   22.3430  -31.5250 C   0  0  0  0  0  0  0  0  0  0  0  0
   -8.6120   21.5850  -31.9600 C   0  0  0  0  0  0  0  0  0  0  0  0
   -8.3930   20.2250  -32.2440 C   0  0  0  0  0  0  0  0  0  0  0  0
   -7.1030   19.6550  -32.0910 C   0  0  0  0  0  0  0  0  0  0  0  0
   -6.8650   18.2050  -32.4080 C   0  0  0  0  0  0  0  0  0  0  0  0
   -6.1610   17.6120  -31.3770 F   0  0  0  0  0  0  0  0  0  0  0  0
   -6.1390   18.0990  -33.5790 F   0  0  0  0  0  0  0  0  0  0  0  0
   -6.0280   20.4600  -31.6550 C   0  0  0  0  0  0  0  0  0  0  0  0
   -6.2810   21.8040  -31.3660 C   0  0  0  0  0  0  0  0  0  0  0  0
   -5.4110   22.7420  -30.9450 N   0  0  0  0  0  0  0  0  0  0  0  0
   -4.0050   22.5610  -30.7150 C   0  0  0  0  0  0  0  0  0  0  0  0
   -3.1870   22.9650  -31.5850 O   0  0  0  0  0  0  0  0  0  0  0  0
   -3.5080   22.0490  -29.3810 C   0  0  1  0  0  0  0  0  0  0  0  0
   -2.2850   21.3810  -29.5540 O   0  0  0  0  0  0  0  0  0  0  0  0
   -3.3700   23.1540  -28.2980 C   0  0  2  0  0  0  0  0  0  0  0  0
   -4.5540   23.9080  -28.2430 O   0  0  0  0  0  0  0  0  0  0  0  0
   -2.1650   24.0850  -28.5250 C   0  0  0  0  0  0  0  0  0  0  0  0
   -2.5840   25.2840  -29.1180 O   0  0  0  0  0  0  0  0  0  0  0  0
   -3.5700   24.9290  -31.2190 H   0  0  0  0  0  0  0  0  0  0  0  0
   -3.8610   26.5170  -30.4410 H   0  0  0  0  0  0  0  0  0  0  0  0
   -8.2697   24.4168  -31.2174 H   0  0  0  0  0  0  0  0  0  0  0  0
   -9.6085   22.0356  -32.0781 H   0  0  0  0  0  0  0  0  0  0  0  0
   -9.2290   19.5981  -32.5876 H   0  0  0  0  0  0  0  0  0  0  0  0
   -7.8336   17.6979  -32.5290 H   0  0  0  0  0  0  0  0  0  0  0  0
   -5.0172   20.0402  -31.5456 H   0  0  0  0  0  0  0  0  0  0  0  0
   -4.2735   21.3528  -29.0078 H   0  0  0  0  0  0  0  0  0  0  0  0
   -1.9730   21.5810  -30.4750 H   0  0  0  0  0  0  0  0  0  0  0  0
   -3.1929   22.6426  -27.3403 H   0  0  0  0  0  0  0  0  0  0  0  0
   -4.3280   24.8280  -28.5430 H   0  0  0  0  0  0  0  0  0  0  0  0
   -1.6887   24.3049  -27.5582 H   0  0  0  0  0  0  0  0  0  0  0  0
   -1.4471   23.5862  -29.1928 H   0  0  0  0  0  0  0  0  0  0  0  0
   -3.2950   25.6490  -28.5290 H   0  0  0  0  0  0  0  0  0  0  0  0
  1  2  1  0
  2  3  2  0
  2  4  1  0
  4  5  2  0
  5  6  1  0
  6  7  2  0
  7  8  1  0
  8  9  2  0
  9 10  1  0
 10 11  1  0
 10 12  1  0
  9 13  1  0
 13 14  2  0
 14 15  1  0
 15 16  1  0
 16 17  2  0
 16 18  1  0
 18 19  1  0
 18 20  1  0
 20 21  1  0
 20 22  1  0
 22 23  1  0
 15  4  1  0
 14  6  1  0
  1 24  1  0
  1 25  1  0
  5 26  1  0
  7 27  1  0
  8 28  1  0
 10 29  1  0
 13 30  1  0
 18 31  1  1
 19 32  1  0
 20 33  1  1
 21 34  1  0
 22 35  1  0
 22 36  1  0
 23 37  1  0
M  END
>  <UniqueID>  (90) 
90

>  <SMILES>  (90) 
NC(=O)c1cc2ccc(C(F)F)cc2n1C(=O)[C@@H](O)[C@H](O)CO

>  <Energy>  (90) 
76.0563040037298

>  <Genealogy>  (90) 
NC(=O)c1cc2ccc(C(F)F)cc2n1C(=O)[C@@H](O)[C@H](O)CO (3D coordinates assigned)
NC(=O)c1cc2ccc(C(F)F)cc2n1C(=O)[C@@H](O)[C@H](O)CO (optimized conformer: 76.0563040037298 kcal/mol)

>  <smiles>  (90) 
NC(=O)c1cc2ccc(C(F)F)cc2n1C(=O)[C@@H](O)[C@H](O)CO

>  <score_type>  (90) 
oracle

>  <origin>  (90) 
adg

>  <m_score__min__energy>  (90) 
-7.8099999999999996

>  <m_primary>  (90) 
energy

$$$$
93:0
     RDKit          3D

 50 52  0  0  0  0  0  0  0  0999 V2000
   -2.6660   18.9140  -26.3940 C   0  0  0  0  0  0  0  0  0  0  0  0
   -2.8790   20.1190  -27.3080 C   0  0  0  0  0  0  0  0  0  0  0  0
   -1.5970   20.6610  -27.7530 N   0  0  0  0  0  0  0  0  0  0  0  0
   -1.3400   21.0460  -29.1080 C   0  0  0  0  0  0  0  0  0  0  0  0
   -1.7460   20.3250  -30.0600 O   0  0  0  0  0  0  0  0  0  0  0  0
   -0.6280   22.2250  -29.3570 O   0  0  0  0  0  0  0  0  0  0  0  0
   -1.1830   23.3600  -30.0260 C   0  0  1  0  0  0  0  0  0  0  0  0
   -2.5990   23.2130  -30.1270 O   0  0  0  0  0  0  0  0  0  0  0  0
   -3.2510   22.6260  -31.2160 C   0  0  0  0  0  0  0  0  0  0  0  0
   -2.5890   22.0550  -32.1280 O   0  0  0  0  0  0  0  0  0  0  0  0
   -4.6840   22.6730  -31.2900 N   0  0  0  0  0  0  0  0  0  0  0  0
   -5.5130   23.7190  -31.0080 C   0  0  0  0  0  0  0  0  0  0  0  0
   -5.1080   25.0180  -30.4290 C   0  0  0  0  0  0  0  0  0  0  0  0
   -3.9090   25.6670  -30.8430 N   0  0  0  0  0  0  0  0  0  0  0  0
   -5.8150   25.5460  -29.5310 O   0  0  0  0  0  0  0  0  0  0  0  0
   -6.8370   23.3750  -31.2750 C   0  0  0  0  0  0  0  0  0  0  0  0
   -6.7950   22.0750  -31.7260 C   0  0  0  0  0  0  0  0  0  0  0  0
   -7.8230   21.2340  -32.1340 C   0  0  0  0  0  0  0  0  0  0  0  0
   -7.4880   19.9410  -32.5700 C   0  0  0  0  0  0  0  0  0  0  0  0
   -6.1290   19.5010  -32.6150 C   0  0  0  0  0  0  0  0  0  0  0  0
   -5.7860   18.1510  -33.0630 N   0  0  0  0  0  0  0  0  0  0  0  0
   -4.3650   17.7910  -33.2520 C   0  0  0  0  0  0  0  0  0  0  0  0
   -4.1520   16.3370  -33.6840 C   0  0  0  0  0  0  0  0  0  0  0  0
   -5.1570   15.9250  -34.5800 O   0  0  0  0  0  0  0  0  0  0  0  0
   -6.3730   15.8390  -33.8760 C   0  0  0  0  0  0  0  0  0  0  0  0
   -6.8690   17.2280  -33.4640 C   0  0  0  0  0  0  0  0  0  0  0  0
   -5.1180   20.4090  -32.1920 C   0  0  0  0  0  0  0  0  0  0  0  0
   -5.4880   21.6770  -31.7300 C   0  0  0  0  0  0  0  0  0  0  0  0
   -0.8930   24.5750  -29.2020 C   0  0  0  0  0  0  0  0  0  0  0  0
   -1.6120   25.6060  -29.3160 O   0  0  0  0  0  0  0  0  0  0  0  0
    0.1690   24.5730  -28.3070 O   0  0  0  0  0  0  0  0  0  0  0  0
   -2.7229   19.2359  -25.3437 H   0  0  0  0  0  0  0  0  0  0  0  0
   -3.4453   18.1628  -26.5900 H   0  0  0  0  0  0  0  0  0  0  0  0
   -1.6764   18.4755  -26.5900 H   0  0  0  0  0  0  0  0  0  0  0  0
   -3.4640   19.8077  -28.1860 H   0  0  0  0  0  0  0  0  0  0  0  0
   -3.4176   20.8976  -26.7480 H   0  0  0  0  0  0  0  0  0  0  0  0
   -0.7476   23.4502  -31.0321 H   0  0  0  0  0  0  0  0  0  0  0  0
   -2.9730   25.3000  -30.5610 H   0  0  0  0  0  0  0  0  0  0  0  0
   -7.7276   24.0086  -31.1514 H   0  0  0  0  0  0  0  0  0  0  0  0
   -8.8699   21.5711  -32.1162 H   0  0  0  0  0  0  0  0  0  0  0  0
   -8.2877   19.2536  -32.8830 H   0  0  0  0  0  0  0  0  0  0  0  0
   -3.9395   18.4489  -34.0241 H   0  0  0  0  0  0  0  0  0  0  0  0
   -3.8693   17.9135  -32.2777 H   0  0  0  0  0  0  0  0  0  0  0  0
   -3.1724   16.2477  -34.1763 H   0  0  0  0  0  0  0  0  0  0  0  0
   -4.1941   15.6961  -32.7910 H   0  0  0  0  0  0  0  0  0  0  0  0
   -7.1281   15.3638  -34.5194 H   0  0  0  0  0  0  0  0  0  0  0  0
   -6.2097   15.2417  -32.9669 H   0  0  0  0  0  0  0  0  0  0  0  0
   -7.4059   17.6717  -34.3154 H   0  0  0  0  0  0  0  0  0  0  0  0
   -7.5161   17.0906  -32.5852 H   0  0  0  0  0  0  0  0  0  0  0  0
   -4.0580   20.1174  -32.2278 H   0  0  0  0  0  0  0  0  0  0  0  0
  1  2  1  0
  2  3  1  0
  3  4  1  0
  4  5  2  0
  4  6  1  0
  6  7  1  0
  7  8  1  0
  8  9  1  0
  9 10  2  0
  9 11  1  0
 11 12  1  0
 12 13  1  0
 13 14  1  0
 13 15  2  0
 12 16  2  0
 16 17  1  0
 17 18  2  0
 18 19  1  0
 19 20  2  0
 20 21  1  0
 21 22  1  0
 22 23  1  0
 23 24  1  0
 24 25  1  0
 25 26  1  0
 20 27  1  0
 27 28  2  0
  7 29  1  0
 29 30  2  0
 29 31  1  0
 28 11  1  0
 28 17  1  0
 26 21  1  0
  1 32  1  0
  1 33  1  0
  1 34  1  0
  2 35  1  0
  2 36  1  0
  7 37  1  6
 14 38  1  0
 16 39  1  0
 18 40  1  0
 19 41  1  0
 22 42  1  0
 22 43  1  0
 23 44  1  0
 23 45  1  0
 25 46  1  0
 25 47  1  0
 26 48  1  0
 26 49  1  0
 27 50  1  0
M  CHG  3   3  -1  14  -1  31  -1
M  END
>  <UniqueID>  (91) 
91

>  <SMILES>  (91) 
CC[N-]C(=O)O[C@@H](OC(=O)n1c(C([NH-])=O)cc2ccc(N3CCOCC3)cc21)C(=O)[O-]

>  <Energy>  (91) 
89.9681296144131

>  <Genealogy>  (91) 
CC[N-]C(=O)OC(OC(=O)n1c(C([NH-])=O)cc2ccc(N3CCOCC3)cc21)C(=O)[O-] (protonated)
CC[N-]C(=O)O[C@@H](OC(=O)n1c(C([NH-])=O)cc2ccc(N3CCOCC3)cc21)C(=O)[O-] (chirality)
CC[N-]C(=O)O[C@@H](OC(=O)n1c(C([NH-])=O)cc2ccc(N3CCOCC3)cc21)C(=O)[O-] (3D coordinates assigned)
CC[N-]C(=O)O[C@@H](OC(=O)n1c(C([NH-])=O)cc2ccc(N3CCOCC3)cc21)C(=O)[O-] (nonaromatic ring conformer: 89.9681296144131 kcal/mol)

>  <smiles>  (91) 
CCNC(=O)OC(OC(=O)n1c(C(N)=O)cc2ccc(N3CCOCC3)cc21)C(=O)O

>  <score_type>  (91) 
oracle

>  <origin>  (91) 
adg

>  <m_score__min__energy>  (91) 
-12.57

>  <m_primary>  (91) 
energy

$$$$
94:0
     RDKit          3D

 41 42  0  0  0  0  0  0  0  0999 V2000
   -3.7740   24.4680  -27.0380 C   0  0  0  0  0  0  0  0  0  0  0  0
   -3.7280   23.4220  -27.8620 C   0  0  0  0  0  0  0  0  0  0  0  0
   -4.2560   22.2400  -27.4540 F   0  0  0  0  0  0  0  0  0  0  0  0
   -3.1250   23.5150  -29.2010 C   0  0  0  0  0  0  0  0  0  0  0  0
   -2.3970   24.5060  -29.4770 O   0  0  0  0  0  0  0  0  0  0  0  0
   -3.3640   22.5090  -30.1470 O   0  0  0  0  0  0  0  0  0  0  0  0
   -4.0970   22.6700  -31.3320 C   0  0  0  0  0  0  0  0  0  0  0  0
   -3.5180   22.6640  -32.4530 O   0  0  0  0  0  0  0  0  0  0  0  0
   -5.5230   22.8400  -31.2620 N   0  0  0  0  0  0  0  0  0  0  0  0
   -6.2010   23.9760  -30.9340 C   0  0  0  0  0  0  0  0  0  0  0  0
   -5.6030   25.2230  -30.4180 C   0  0  0  0  0  0  0  0  0  0  0  0
   -4.2550   25.5790  -30.7270 N   0  0  0  0  0  0  0  0  0  0  0  0
   -6.2730   25.9600  -29.6480 O   0  0  0  0  0  0  0  0  0  0  0  0
   -7.5710   23.8000  -31.1080 C   0  0  0  0  0  0  0  0  0  0  0  0
   -7.7170   22.5040  -31.5440 C   0  0  0  0  0  0  0  0  0  0  0  0
   -8.8670   21.8050  -31.8940 C   0  0  0  0  0  0  0  0  0  0  0  0
   -8.7250   20.4870  -32.3560 C   0  0  0  0  0  0  0  0  0  0  0  0
   -7.4390   19.8900  -32.4680 C   0  0  0  0  0  0  0  0  0  0  0  0
   -7.2570   18.5490  -32.9640 N   0  0  0  0  0  0  0  0  0  0  0  0
   -6.3520   17.5460  -32.3970 C   0  0  0  0  0  0  0  0  0  0  0  0
   -5.0760   17.4230  -33.2380 C   0  0  0  0  0  0  0  0  0  0  0  0
   -5.0280   18.4220  -34.3970 C   0  0  0  0  0  0  0  0  0  0  0  0
   -6.1010   18.1990  -35.2700 O   0  0  0  0  0  0  0  0  0  0  0  0
   -6.2960   20.6410  -32.1130 C   0  0  0  0  0  0  0  0  0  0  0  0
   -6.4690   21.9450  -31.6340 C   0  0  0  0  0  0  0  0  0  0  0  0
   -3.3512   25.4340  -27.3513 H   0  0  0  0  0  0  0  0  0  0  0  0
   -4.2348   24.3656  -26.0444 H   0  0  0  0  0  0  0  0  0  0  0  0
   -3.6230   24.9150  -31.2260 H   0  0  0  0  0  0  0  0  0  0  0  0
   -3.8620   26.4870  -30.3930 H   0  0  0  0  0  0  0  0  0  0  0  0
   -8.3665   24.5395  -30.9339 H   0  0  0  0  0  0  0  0  0  0  0  0
   -9.8597   22.2715  -31.8112 H   0  0  0  0  0  0  0  0  0  0  0  0
   -9.6187   19.9093  -32.6346 H   0  0  0  0  0  0  0  0  0  0  0  0
   -7.7880   18.2640  -33.8190 H   0  0  0  0  0  0  0  0  0  0  0  0
   -6.0813   17.8430  -31.3730 H   0  0  0  0  0  0  0  0  0  0  0  0
   -6.8647   16.5728  -32.3918 H   0  0  0  0  0  0  0  0  0  0  0  0
   -4.2076   17.5995  -32.5862 H   0  0  0  0  0  0  0  0  0  0  0  0
   -5.0630   16.4125  -33.6724 H   0  0  0  0  0  0  0  0  0  0  0  0
   -5.0902   19.4452  -33.9981 H   0  0  0  0  0  0  0  0  0  0  0  0
   -4.0840   18.2910  -34.9462 H   0  0  0  0  0  0  0  0  0  0  0  0
   -6.6030   19.0530  -35.3120 H   0  0  0  0  0  0  0  0  0  0  0  0
   -5.2891   20.2091  -32.2112 H   0  0  0  0  0  0  0  0  0  0  0  0
  1  2  2  0
  2  3  1  0
  2  4  1  0
  4  5  2  0
  4  6  1  0
  6  7  1  0
  7  8  2  0
  7  9  1  0
  9 10  1  0
 10 11  1  0
 11 12  1  0
 11 13  2  0
 10 14  2  0
 14 15  1  0
 15 16  2  0
 16 17  1  0
 17 18  2  0
 18 19  1  0
 19 20  1  0
 20 21  1  0
 21 22  1  0
 22 23  1  0
 18 24  1  0
 24 25  2  0
 25  9  1  0
 25 15  1  0
  1 26  1  0
  1 27  1  0
 12 28  1  0
 12 29  1  0
 14 30  1  0
 16 31  1  0
 17 32  1  0
 19 33  1  0
 20 34  1  0
 20 35  1  0
 21 36  1  0
 21 37  1  0
 22 38  1  0
 22 39  1  0
 23 40  1  0
 24 41  1  0
M  END
>  <UniqueID>  (92) 
92

>  <SMILES>  (92) 
C=C(F)C(=O)OC(=O)n1c(C(N)=O)cc2ccc(NCCCO)cc21

>  <Energy>  (92) 
75.98250908641776

>  <Genealogy>  (92) 
C=C(F)C(=O)OC(=O)n1c(C(N)=O)cc2ccc(NCCCO)cc21 (3D coordinates assigned)
C=C(F)C(=O)OC(=O)n1c(C(N)=O)cc2ccc(NCCCO)cc21 (optimized conformer: 75.98250908641776 kcal/mol)

>  <smiles>  (92) 
C=C(F)C(=O)OC(=O)n1c(C(N)=O)cc2ccc(NCCCO)cc21

>  <score_type>  (92) 
oracle

>  <origin>  (92) 
adg

>  <m_score__min__energy>  (92) 
-8.5500000000000007

>  <m_primary>  (92) 
energy

$$$$
95:0
     RDKit          3D

 43 44  0  0  0  0  0  0  0  0999 V2000
   -1.2410   21.9590  -26.3810 C   0  0  0  0  0  0  0  0  0  0  0  0
   -1.6870   23.0900  -27.2000 N   0  0  0  0  0  0  0  0  0  0  0  0
   -0.7480   24.1600  -27.5590 C   0  0  0  0  0  0  0  0  0  0  0  0
   -0.8430   24.4890  -29.0520 C   0  0  0  0  0  0  0  0  0  0  0  0
   -1.9630   25.2910  -29.3110 O   0  0  0  0  0  0  0  0  0  0  0  0
   -3.0470   23.1330  -27.6690 C   0  0  0  0  0  0  0  0  0  0  0  0
   -3.7020   24.2120  -27.6140 O   0  0  0  0  0  0  0  0  0  0  0  0
   -3.6460   21.9760  -28.1840 O   0  0  0  0  0  0  0  0  0  0  0  0
   -2.9470   21.0380  -28.9950 C   0  0  0  0  0  0  0  0  0  0  0  0
   -3.3090   21.2240  -30.3590 O   0  0  0  0  0  0  0  0  0  0  0  0
   -3.7560   22.4490  -30.8640 C   0  0  0  0  0  0  0  0  0  0  0  0
   -2.9260   23.3360  -31.2040 O   0  0  0  0  0  0  0  0  0  0  0  0
   -5.1650   22.6830  -31.0190 N   0  0  0  0  0  0  0  0  0  0  0  0
   -5.8480   23.8470  -30.8240 C   0  0  0  0  0  0  0  0  0  0  0  0
   -5.2920   25.1010  -30.2740 C   0  0  0  0  0  0  0  0  0  0  0  0
   -4.1020   25.6530  -30.8320 N   0  0  0  0  0  0  0  0  0  0  0  0
   -5.8780   25.7130  -29.3420 O   0  0  0  0  0  0  0  0  0  0  0  0
   -7.1960   23.6800  -31.1380 C   0  0  0  0  0  0  0  0  0  0  0  0
   -7.3200   22.3660  -31.5260 C   0  0  0  0  0  0  0  0  0  0  0  0
   -8.4390   21.6640  -31.9600 C   0  0  0  0  0  0  0  0  0  0  0  0
   -8.2720   20.3180  -32.3260 C   0  0  0  0  0  0  0  0  0  0  0  0
   -6.9990   19.6960  -32.2440 C   0  0  0  0  0  0  0  0  0  0  0  0
   -6.8200   18.2690  -32.6980 C   0  0  0  0  0  0  0  0  0  0  0  0
   -6.4920   18.2240  -34.0420 F   0  0  0  0  0  0  0  0  0  0  0  0
   -8.0000   17.5760  -32.4990 F   0  0  0  0  0  0  0  0  0  0  0  0
   -5.8070   17.6510  -31.9850 F   0  0  0  0  0  0  0  0  0  0  0  0
   -5.8820   20.4510  -31.8210 C   0  0  0  0  0  0  0  0  0  0  0  0
   -6.0800   21.7850  -31.4440 C   0  0  0  0  0  0  0  0  0  0  0  0
   -1.3420   22.2151  -25.3160 H   0  0  0  0  0  0  0  0  0  0  0  0
   -1.8587   21.0771  -26.6062 H   0  0  0  0  0  0  0  0  0  0  0  0
   -0.1876   21.7361  -26.6062 H   0  0  0  0  0  0  0  0  0  0  0  0
   -0.9877   25.0610  -26.9752 H   0  0  0  0  0  0  0  0  0  0  0  0
    0.2746   23.8207  -27.3372 H   0  0  0  0  0  0  0  0  0  0  0  0
    0.0655   25.0260  -29.3622 H   0  0  0  0  0  0  0  0  0  0  0  0
   -0.9417   23.5498  -29.6161 H   0  0  0  0  0  0  0  0  0  0  0  0
   -2.7200   24.6730  -29.4910 H   0  0  0  0  0  0  0  0  0  0  0  0
   -1.8637   21.1898  -28.8796 H   0  0  0  0  0  0  0  0  0  0  0  0
   -3.2106   20.0167  -28.6828 H   0  0  0  0  0  0  0  0  0  0  0  0
   -3.1620   25.2960  -30.5510 H   0  0  0  0  0  0  0  0  0  0  0  0
   -7.9915   24.4380  -31.0865 H   0  0  0  0  0  0  0  0  0  0  0  0
   -9.4253   22.1480  -32.0151 H   0  0  0  0  0  0  0  0  0  0  0  0
   -9.1379   19.7395  -32.6802 H   0  0  0  0  0  0  0  0  0  0  0  0
   -4.8789   20.0007  -31.7886 H   0  0  0  0  0  0  0  0  0  0  0  0
  1  2  1  0
  2  3  1  0
  3  4  1  0
  4  5  1  0
  2  6  1  0
  6  7  2  0
  6  8  1  0
  8  9  1  0
  9 10  1  0
 10 11  1  0
 11 12  2  0
 11 13  1  0
 13 14  1  0
 14 15  1  0
 15 16  1  0
 15 17  2  0
 14 18  2  0
 18 19  1  0
 19 20  2  0
 20 21  1  0
 21 22  2  0
 22 23  1  0
 23 24  1  0
 23 25  1  0
 23 26  1  0
 22 27  1  0
 27 28  2  0
 28 13  1  0
 28 19  1  0
  1 29  1  0
  1 30  1  0
  1 31  1  0
  3 32  1  0
  3 33  1  0
  4 34  1  0
  4 35  1  0
  5 36  1  0
  9 37  1  0
  9 38  1  0
 16 39  1  0
 18 40  1  0
 20 41  1  0
 21 42  1  0
 27 43  1  0
M  CHG  1  16  -1
M  END
>  <UniqueID>  (93) 
93

>  <SMILES>  (93) 
CN(CCO)C(=O)OCOC(=O)n1c(C([NH-])=O)cc2ccc(C(F)(F)F)cc21

>  <Energy>  (93) 
73.34112282877521

>  <Genealogy>  (93) 
CN(CCO)C(=O)OCOC(=O)n1c(C([NH-])=O)cc2ccc(C(F)(F)F)cc21 (protonated)
CN(CCO)C(=O)OCOC(=O)n1c(C([NH-])=O)cc2ccc(C(F)(F)F)cc21 (3D coordinates assigned)
CN(CCO)C(=O)OCOC(=O)n1c(C([NH-])=O)cc2ccc(C(F)(F)F)cc21 (optimized conformer: 73.34112282877521 kcal/mol)

>  <smiles>  (93) 
CN(CCO)C(=O)OCOC(=O)n1c(C(N)=O)cc2ccc(C(F)(F)F)cc21

>  <score_type>  (93) 
oracle

>  <origin>  (93) 
adg

>  <m_score__min__energy>  (93) 
-9.5399999999999991

>  <m_primary>  (93) 
energy

$$$$
96:0
     RDKit          3D

 41 42  0  0  0  0  0  0  0  0999 V2000
   -7.1700   17.1410  -32.7450 C   0  0  0  0  0  0  0  0  0  0  0  0
   -6.1620   18.2070  -32.8190 N   0  0  0  0  0  0  0  0  0  0  0  0
   -4.8210   17.8800  -33.3170 C   0  0  0  0  0  0  0  0  0  0  0  0
   -6.4880   19.5600  -32.4080 C   0  0  0  0  0  0  0  0  0  0  0  0
   -7.8350   20.0240  -32.4390 C   0  0  0  0  0  0  0  0  0  0  0  0
   -8.1620   21.3270  -32.0320 C   0  0  0  0  0  0  0  0  0  0  0  0
   -7.1340   22.1570  -31.6070 C   0  0  0  0  0  0  0  0  0  0  0  0
   -7.1780   23.4500  -31.1370 C   0  0  0  0  0  0  0  0  0  0  0  0
   -5.8580   23.7810  -30.8440 C   0  0  0  0  0  0  0  0  0  0  0  0
   -5.4390   25.1220  -30.3830 C   0  0  0  0  0  0  0  0  0  0  0  0
   -4.2090   25.6760  -30.8440 N   0  0  0  0  0  0  0  0  0  0  0  0
   -6.1350   25.7660  -29.5570 O   0  0  0  0  0  0  0  0  0  0  0  0
   -5.0290   22.7330  -31.1160 N   0  0  0  0  0  0  0  0  0  0  0  0
   -3.6160   22.6470  -30.8780 C   0  0  0  0  0  0  0  0  0  0  0  0
   -2.8180   23.3490  -31.5570 O   0  0  0  0  0  0  0  0  0  0  0  0
   -3.1280   21.7610  -29.9090 O   0  0  0  0  0  0  0  0  0  0  0  0
   -2.4740   22.1840  -28.7120 C   0  0  2  0  0  0  0  0  0  0  0  0
   -1.1330   22.8310  -29.0860 C   0  0  0  0  0  0  0  0  0  0  0  0
   -0.9270   24.4820  -28.3350 P   0  0  0  0  0  0  0  0  0  0  0  0
   -1.6010   24.5270  -26.9830 O   0  0  0  0  0  0  0  0  0  0  0  0
    0.7220   24.8000  -28.1440 O   0  0  0  0  0  0  0  0  0  0  0  0
   -1.6070   25.6580  -29.3430 O   0  0  0  0  0  0  0  0  0  0  0  0
   -2.2770   21.0090  -27.7940 C   0  0  0  0  0  0  0  0  0  0  0  0
   -1.1160   20.6150  -27.5020 O   0  0  0  0  0  0  0  0  0  0  0  0
   -3.3780   20.3550  -27.2580 O   0  0  0  0  0  0  0  0  0  0  0  0
   -5.8280   21.7460  -31.5830 C   0  0  0  0  0  0  0  0  0  0  0  0
   -5.4730   20.4470  -31.9640 C   0  0  0  0  0  0  0  0  0  0  0  0
   -7.3857   16.9129  -31.6908 H   0  0  0  0  0  0  0  0  0  0  0  0
   -8.0921   17.4730  -33.2444 H   0  0  0  0  0  0  0  0  0  0  0  0
   -6.7870   16.2389  -33.2444 H   0  0  0  0  0  0  0  0  0  0  0  0
   -4.1440   17.7149  -32.4659 H   0  0  0  0  0  0  0  0  0  0  0  0
   -4.8697   16.9674  -33.9292 H   0  0  0  0  0  0  0  0  0  0  0  0
   -4.4441   18.7126  -33.9292 H   0  0  0  0  0  0  0  0  0  0  0  0
   -8.6315   19.3501  -32.7875 H   0  0  0  0  0  0  0  0  0  0  0  0
   -9.2036   21.6803  -32.0494 H   0  0  0  0  0  0  0  0  0  0  0  0
   -8.0673   24.0865  -31.0182 H   0  0  0  0  0  0  0  0  0  0  0  0
   -3.2960   25.2320  -30.6020 H   0  0  0  0  0  0  0  0  0  0  0  0
   -3.0904   22.9238  -28.1803 H   0  0  0  0  0  0  0  0  0  0  0  0
   -0.3171   22.1801  -28.7387 H   0  0  0  0  0  0  0  0  0  0  0  0
   -1.1117   22.9534  -30.1790 H   0  0  0  0  0  0  0  0  0  0  0  0
   -4.4240   20.1187  -31.9200 H   0  0  0  0  0  0  0  0  0  0  0  0
  1  2  1  0
  2  3  1  0
  2  4  1  0
  4  5  2  0
  5  6  1  0
  6  7  2  0
  7  8  1  0
  8  9  2  0
  9 10  1  0
 10 11  1  0
 10 12  2  0
  9 13  1  0
 13 14  1  0
 14 15  2  0
 14 16  1  0
 16 17  1  0
 17 18  1  0
 18 19  1  0
 19 20  2  0
 19 21  1  0
 19 22  1  0
 17 23  1  0
 23 24  2  0
 23 25  1  0
 13 26  1  0
 26 27  2  0
 27  4  1  0
 26  7  1  0
  1 28  1  0
  1 29  1  0
  1 30  1  0
  3 31  1  0
  3 32  1  0
  3 33  1  0
  5 34  1  0
  6 35  1  0
  8 36  1  0
 11 37  1  0
 17 38  1  1
 18 39  1  0
 18 40  1  0
 27 41  1  0
M  CHG  4  11  -1  21  -1  22  -1  25  -1
M  END
>  <UniqueID>  (94) 
94

>  <SMILES>  (94) 
CN(C)c1ccc2cc(C([NH-])=O)n(C(=O)O[C@H](CP(=O)([O-])[O-])C(=O)[O-])c2c1

>  <Energy>  (94) 
74.38538115842583

>  <Genealogy>  (94) 
CN(C)c1ccc2cc(C([NH-])=O)n(C(=O)OC(CP(=O)([O-])[O-])C(=O)[O-])c2c1 (protonated)
CN(C)c1ccc2cc(C([NH-])=O)n(C(=O)O[C@H](CP(=O)([O-])[O-])C(=O)[O-])c2c1 (chirality)
CN(C)c1ccc2cc(C([NH-])=O)n(C(=O)O[C@H](CP(=O)([O-])[O-])C(=O)[O-])c2c1 (3D coordinates assigned)
CN(C)c1ccc2cc(C([NH-])=O)n(C(=O)O[C@H](CP(=O)([O-])[O-])C(=O)[O-])c2c1 (optimized conformer: 74.38538115842583 kcal/mol)

>  <smiles>  (94) 
CN(C)c1ccc2cc(C(N)=O)n(C(=O)OC(CP(=O)(O)O)C(=O)O)c2c1

>  <score_type>  (94) 
oracle

>  <origin>  (94) 
adg

>  <m_score__min__energy>  (94) 
-13.949999999999999

>  <m_primary>  (94) 
energy

$$$$
97:0
     RDKit          3D

 54 57  0  0  0  0  0  0  0  0999 V2000
   -4.0050   25.6660  -30.8450 N   0  0  0  0  0  0  0  0  0  0  0  0
   -5.2290   25.0840  -30.4030 C   0  0  0  0  0  0  0  0  0  0  0  0
   -5.9550   25.7170  -29.5900 O   0  0  0  0  0  0  0  0  0  0  0  0
   -5.6810   23.7760  -30.9210 C   0  0  0  0  0  0  0  0  0  0  0  0
   -7.0130   23.4880  -31.2140 C   0  0  0  0  0  0  0  0  0  0  0  0
   -7.0020   22.2210  -31.7520 C   0  0  0  0  0  0  0  0  0  0  0  0
   -8.0530   21.4390  -32.2220 C   0  0  0  0  0  0  0  0  0  0  0  0
   -7.7520   20.1530  -32.7030 C   0  0  0  0  0  0  0  0  0  0  0  0
   -6.4200   19.6730  -32.6920 C   0  0  0  0  0  0  0  0  0  0  0  0
   -6.1260   18.3490  -33.1670 N   0  0  0  0  0  0  0  0  0  0  0  0
   -5.6430   18.1600  -34.5430 C   0  0  0  0  0  0  0  0  0  0  0  0
   -4.1480   17.9760  -34.5550 C   0  0  0  0  0  0  0  0  0  0  0  0
   -3.3240   18.8610  -33.8440 C   0  0  0  0  0  0  0  0  0  0  0  0
   -1.9410   18.6640  -33.8470 C   0  0  0  0  0  0  0  0  0  0  0  0
   -1.4030   17.6210  -34.5330 N   0  0  0  0  0  0  0  0  0  0  0  0
   -2.1780   16.7500  -35.2300 C   0  0  0  0  0  0  0  0  0  0  0  0
   -3.5650   16.9090  -35.2540 C   0  0  0  0  0  0  0  0  0  0  0  0
   -6.3340   17.1930  -32.2840 C   0  0  0  0  0  0  0  0  0  0  0  0
   -5.7300   15.9550  -32.8870 C   0  0  0  0  0  0  0  0  0  0  0  0
   -4.5140   15.4550  -32.4010 C   0  0  0  0  0  0  0  0  0  0  0  0
   -3.9790   14.2900  -32.9540 C   0  0  0  0  0  0  0  0  0  0  0  0
   -4.6360   13.6410  -33.9540 N   0  0  0  0  0  0  0  0  0  0  0  0
   -5.8200   14.1030  -34.4390 C   0  0  0  0  0  0  0  0  0  0  0  0
   -6.3890   15.2670  -33.9160 C   0  0  0  0  0  0  0  0  0  0  0  0
   -5.3790   20.4960  -32.2090 C   0  0  0  0  0  0  0  0  0  0  0  0
   -5.7030   21.7810  -31.7600 C   0  0  0  0  0  0  0  0  0  0  0  0
   -4.8800   22.7240  -31.2540 N   0  0  0  0  0  0  0  0  0  0  0  0
   -3.4610   22.6010  -31.0690 C   0  0  0  0  0  0  0  0  0  0  0  0
   -2.7810   21.8860  -31.8550 O   0  0  0  0  0  0  0  0  0  0  0  0
   -2.8360   23.2950  -30.0260 O   0  0  0  0  0  0  0  0  0  0  0  0
   -1.4790   23.0860  -29.6480 C   0  0  0  0  0  0  0  0  0  0  0  0
   -0.8680   24.3670  -29.1810 C   0  0  0  0  0  0  0  0  0  0  0  0
    0.2800   24.3690  -28.6670 O   0  0  0  0  0  0  0  0  0  0  0  0
   -1.5570   25.5640  -29.3320 O   0  0  0  0  0  0  0  0  0  0  0  0
   -3.0850   25.2760  -30.5440 H   0  0  0  0  0  0  0  0  0  0  0  0
   -7.8870   24.1355  -31.0502 H   0  0  0  0  0  0  0  0  0  0  0  0
   -9.0866   21.8154  -32.2172 H   0  0  0  0  0  0  0  0  0  0  0  0
   -8.5585   19.5138  -33.0915 H   0  0  0  0  0  0  0  0  0  0  0  0
   -6.1212   17.2688  -34.9756 H   0  0  0  0  0  0  0  0  0  0  0  0
   -5.8972   19.0512  -35.1356 H   0  0  0  0  0  0  0  0  0  0  0  0
   -3.7631   19.7030  -33.2888 H   0  0  0  0  0  0  0  0  0  0  0  0
   -1.2866   19.3536  -33.2936 H   0  0  0  0  0  0  0  0  0  0  0  0
   -1.7117   15.9173  -35.7769 H   0  0  0  0  0  0  0  0  0  0  0  0
   -4.1948   16.2037  -35.8161 H   0  0  0  0  0  0  0  0  0  0  0  0
   -5.8598   17.3904  -31.3113 H   0  0  0  0  0  0  0  0  0  0  0  0
   -7.4147   17.0346  -32.1535 H   0  0  0  0  0  0  0  0  0  0  0  0
   -3.9851   15.9767  -31.5898 H   0  0  0  0  0  0  0  0  0  0  0  0
   -3.0228   13.8951  -32.5801 H   0  0  0  0  0  0  0  0  0  0  0  0
   -4.2240   12.7700  -34.3560 H   0  0  0  0  0  0  0  0  0  0  0  0
   -6.3315   13.5580  -35.2461 H   0  0  0  0  0  0  0  0  0  0  0  0
   -7.3463   15.6407  -34.3083 H   0  0  0  0  0  0  0  0  0  0  0  0
   -4.3398   20.1360  -32.1863 H   0  0  0  0  0  0  0  0  0  0  0  0
   -1.4386   22.3468  -28.8344 H   0  0  0  0  0  0  0  0  0  0  0  0
   -0.9173   22.7182  -30.5193 H   0  0  0  0  0  0  0  0  0  0  0  0
  1  2  1  0
  2  3  2  0
  2  4  1  0
  4  5  2  0
  5  6  1  0
  6  7  2  0
  7  8  1  0
  8  9  2  0
  9 10  1  0
 10 11  1  0
 11 12  1  0
 12 13  2  0
 13 14  1  0
 14 15  2  0
 15 16  1  0
 16 17  2  0
 10 18  1  0
 18 19  1  0
 19 20  2  0
 20 21  1  0
 21 22  2  0
 22 23  1  0
 23 24  2  0
  9 25  1  0
 25 26  2  0
 26 27  1  0
 27 28  1  0
 28 29  2  0
 28 30  1  0
 30 31  1  0
 31 32  1  0
 32 33  2  0
 32 34  1  0
 27  4  1  0
 26  6  1  0
 17 12  1  0
 24 19  1  0
  1 35  1  0
  5 36  1  0
  7 37  1  0
  8 38  1  0
 11 39  1  0
 11 40  1  0
 13 41  1  0
 14 42  1  0
 16 43  1  0
 17 44  1  0
 18 45  1  0
 18 46  1  0
 20 47  1  0
 21 48  1  0
 22 49  1  0
 23 50  1  0
 24 51  1  0
 25 52  1  0
 31 53  1  0
 31 54  1  0
M  CHG  3   1  -1  22   1  34  -1
M  END
>  <UniqueID>  (95) 
95

>  <SMILES>  (95) 
[NH-]C(=O)c1cc2ccc(N(Cc3ccncc3)Cc3cc[nH+]cc3)cc2n1C(=O)OCC(=O)[O-]

>  <Energy>  (95) 
97.84834338724244

>  <Genealogy>  (95) 
[NH-]C(=O)c1cc2ccc(N(Cc3ccncc3)Cc3cc[nH+]cc3)cc2n1C(=O)OCC(=O)[O-] (protonated)
[NH-]C(=O)c1cc2ccc(N(Cc3ccncc3)Cc3cc[nH+]cc3)cc2n1C(=O)OCC(=O)[O-] (3D coordinates assigned)
[NH-]C(=O)c1cc2ccc(N(Cc3ccncc3)Cc3cc[nH+]cc3)cc2n1C(=O)OCC(=O)[O-] (optimized conformer: 97.84834338724244 kcal/mol)

>  <smiles>  (95) 
NC(=O)c1cc2ccc(N(Cc3ccncc3)Cc3ccncc3)cc2n1C(=O)OCC(=O)O

>  <score_type>  (95) 
oracle

>  <origin>  (95) 
adg

>  <m_score__min__energy>  (95) 
-13.140000000000001

>  <m_primary>  (95) 
energy

$$$$
98:0
     RDKit          3D

 33 34  0  0  0  0  0  0  0  0999 V2000
   -8.9390   20.8320  -31.8970 C   0  0  0  0  0  0  0  0  0  0  0  0
   -8.9460   19.0640  -32.3390 S   0  0  0  0  0  0  0  0  0  0  0  0
   -7.2850   18.7010  -31.6690 C   0  0  0  0  0  0  0  0  0  0  0  0
   -6.2310   18.9000  -32.7200 C   0  0  0  0  0  0  0  0  0  0  0  0
   -5.6730   17.9280  -33.2080 O   0  0  0  0  0  0  0  0  0  0  0  0
   -5.8380   20.2820  -33.1640 C   0  0  0  0  0  0  0  0  0  0  0  0
   -4.5850   20.7190  -32.4550 C   0  0  0  0  0  0  0  0  0  0  0  0
   -3.4120   19.9290  -32.5280 C   0  0  0  0  0  0  0  0  0  0  0  0
   -2.2250   20.3510  -31.9070 C   0  0  0  0  0  0  0  0  0  0  0  0
   -2.2420   21.5650  -31.2250 C   0  0  0  0  0  0  0  0  0  0  0  0
   -1.2290   22.2220  -30.5670 C   0  0  0  0  0  0  0  0  0  0  0  0
   -1.8010   23.3990  -30.0900 C   0  0  0  0  0  0  0  0  0  0  0  0
   -1.0740   24.3700  -29.2440 C   0  0  0  0  0  0  0  0  0  0  0  0
   -1.6040   25.6690  -28.9960 N   0  0  0  0  0  0  0  0  0  0  0  0
    0.0070   24.0290  -28.6930 O   0  0  0  0  0  0  0  0  0  0  0  0
   -3.1150   23.4720  -30.4480 N   0  0  0  0  0  0  0  0  0  0  0  0
   -4.0310   24.5570  -30.2290 C   0  0  0  0  0  0  0  0  0  0  0  0
   -3.8680   25.6570  -30.8200 O   0  0  0  0  0  0  0  0  0  0  0  0
   -5.1200   24.3960  -29.3820 O   0  0  0  0  0  0  0  0  0  0  0  0
   -3.3700   22.3390  -31.1400 C   0  0  0  0  0  0  0  0  0  0  0  0
   -4.5610   21.9500  -31.7630 C   0  0  0  0  0  0  0  0  0  0  0  0
   -8.9386   20.9362  -30.8019 H   0  0  0  0  0  0  0  0  0  0  0  0
   -8.0390   21.3099  -32.3111 H   0  0  0  0  0  0  0  0  0  0  0  0
   -9.8352   21.3170  -32.3111 H   0  0  0  0  0  0  0  0  0  0  0  0
   -7.0823   19.3742  -30.8230 H   0  0  0  0  0  0  0  0  0  0  0  0
   -7.2596   17.6522  -31.3383 H   0  0  0  0  0  0  0  0  0  0  0  0
   -5.6587   20.2777  -34.2493 H   0  0  0  0  0  0  0  0  0  0  0  0
   -6.6509   20.9819  -32.9204 H   0  0  0  0  0  0  0  0  0  0  0  0
   -3.4307   18.9756  -33.0764 H   0  0  0  0  0  0  0  0  0  0  0  0
   -1.3106   19.7417  -31.9578 H   0  0  0  0  0  0  0  0  0  0  0  0
   -0.1880   21.8888  -30.4435 H   0  0  0  0  0  0  0  0  0  0  0  0
   -2.6330   25.8430  -29.0240 H   0  0  0  0  0  0  0  0  0  0  0  0
   -5.4564   22.5871  -31.7150 H   0  0  0  0  0  0  0  0  0  0  0  0
  1  2  1  0
  2  3  1  0
  3  4  1  0
  4  5  2  0
  4  6  1  0
  6  7  1  0
  7  8  2  0
  8  9  1  0
  9 10  2  0
 10 11  1  0
 11 12  2  0
 12 13  1  0
 13 14  1  0
 13 15  2  0
 12 16  1  0
 16 17  1  0
 17 18  2  0
 17 19  1  0
 16 20  1  0
 20 21  2  0
 21  7  1  0
 20 10  1  0
  1 22  1  0
  1 23  1  0
  1 24  1  0
  3 25  1  0
  3 26  1  0
  6 27  1  0
  6 28  1  0
  8 29  1  0
  9 30  1  0
 11 31  1  0
 14 32  1  0
 21 33  1  0
M  CHG  2  14  -1  19  -1
M  END
>  <UniqueID>  (96) 
96

>  <SMILES>  (96) 
CSCC(=O)Cc1ccc2cc(C([NH-])=O)n(C(=O)[O-])c2c1

>  <Energy>  (96) 
66.45633697508069

>  <Genealogy>  (96) 
CSCC(=O)Cc1ccc2cc(C([NH-])=O)n(C(=O)[O-])c2c1 (protonated)
CSCC(=O)Cc1ccc2cc(C([NH-])=O)n(C(=O)[O-])c2c1 (3D coordinates assigned)
CSCC(=O)Cc1ccc2cc(C([NH-])=O)n(C(=O)[O-])c2c1 (optimized conformer: 66.45633697508069 kcal/mol)

>  <smiles>  (96) 
CSCC(=O)Cc1ccc2cc(C(N)=O)n(C(=O)O)c2c1

>  <score_type>  (96) 
oracle

>  <origin>  (96) 
adg

>  <m_score__min__energy>  (96) 
-11.01

>  <m_primary>  (96) 
energy

$$$$
99:0
     RDKit          3D

 43 44  0  0  0  0  0  0  0  0999 V2000
   -2.8760   25.2990  -30.6150 H   0  0  0  0  0  0  0  0  0  0  0  0
   -3.8860   25.4410  -30.8380 N   0  0  0  0  0  0  0  0  0  0  0  0
   -4.8980   24.6970  -30.1650 C   0  0  0  0  0  0  0  0  0  0  0  0
   -5.3140   25.0950  -29.0440 O   0  0  0  0  0  0  0  0  0  0  0  0
   -5.4290   23.4430  -30.7390 C   0  0  0  0  0  0  0  0  0  0  0  0
   -6.7570   23.2770  -31.1290 C   0  0  0  0  0  0  0  0  0  0  0  0
   -7.5526   24.0366  -31.1270 H   0  0  0  0  0  0  0  0  0  0  0  0
   -6.8610   21.9610  -31.5170 C   0  0  0  0  0  0  0  0  0  0  0  0
   -7.9560   21.2520  -32.0020 C   0  0  0  0  0  0  0  0  0  0  0  0
   -8.9388   21.7334  -32.1128 H   0  0  0  0  0  0  0  0  0  0  0  0
   -7.7680   19.9020  -32.3460 C   0  0  0  0  0  0  0  0  0  0  0  0
   -8.6166   19.3150  -32.7271 H   0  0  0  0  0  0  0  0  0  0  0  0
   -6.4930   19.2860  -32.2070 C   0  0  0  0  0  0  0  0  0  0  0  0
   -6.2770   17.9080  -32.5640 N   0  0  0  0  0  0  0  0  0  0  0  0
   -5.9770   17.2520  -31.8070 H   0  0  0  0  0  0  0  0  0  0  0  0
   -6.4650   17.3920  -33.9230 C   0  0  0  0  0  0  0  0  0  0  0  0
   -5.9218   18.0397  -34.6268 H   0  0  0  0  0  0  0  0  0  0  0  0
   -7.5439   17.3867  -34.1376 H   0  0  0  0  0  0  0  0  0  0  0  0
   -5.9420   15.9440  -34.0720 C   0  0  0  0  0  0  0  0  0  0  0  0
   -5.4391   15.8616  -35.0468 H   0  0  0  0  0  0  0  0  0  0  0  0
   -6.8205   15.2889  -33.9765 H   0  0  0  0  0  0  0  0  0  0  0  0
   -4.9870   15.5110  -33.0240 N   0  0  0  0  0  0  0  0  0  0  0  0
   -3.6340   16.0540  -33.2070 C   0  0  0  0  0  0  0  0  0  0  0  0
   -3.1765   16.2376  -32.2237 H   0  0  0  0  0  0  0  0  0  0  0  0
   -3.0218   15.3319  -33.7672 H   0  0  0  0  0  0  0  0  0  0  0  0
   -3.6908   16.9990  -33.7672 H   0  0  0  0  0  0  0  0  0  0  0  0
   -4.9570   14.0510  -32.8340 C   0  0  0  0  0  0  0  0  0  0  0  0
   -4.9523   13.8213  -31.7583 H   0  0  0  0  0  0  0  0  0  0  0  0
   -5.8461   13.6021  -33.3009 H   0  0  0  0  0  0  0  0  0  0  0  0
   -4.0502   13.6390  -33.3009 H   0  0  0  0  0  0  0  0  0  0  0  0
   -5.4090   20.0430  -31.7080 C   0  0  0  0  0  0  0  0  0  0  0  0
   -4.4129   19.5904  -31.5942 H   0  0  0  0  0  0  0  0  0  0  0  0
   -5.6300   21.3800  -31.3620 C   0  0  0  0  0  0  0  0  0  0  0  0
   -4.7380   22.2780  -30.8910 N   0  0  0  0  0  0  0  0  0  0  0  0
   -3.3370   22.0430  -30.6820 C   0  0  0  0  0  0  0  0  0  0  0  0
   -2.8850   20.8700  -30.7720 O   0  0  0  0  0  0  0  0  0  0  0  0
   -2.4300   23.1770  -30.4150 C   0  0  0  0  0  0  0  0  0  0  0  0
   -2.0924   23.7959  -31.2594 H   0  0  0  0  0  0  0  0  0  0  0  0
   -2.0040   23.4790  -29.1840 C   0  0  0  0  0  0  0  0  0  0  0  0
   -2.3366   22.8598  -28.3378 H   0  0  0  0  0  0  0  0  0  0  0  0
   -1.1050   24.6130  -28.9270 C   0  0  0  0  0  0  0  0  0  0  0  0
    0.1040   24.3970  -28.6470 O   0  0  0  0  0  0  0  0  0  0  0  0
   -1.5670   25.9220  -28.9890 O   0  0  0  0  0  0  0  0  0  0  0  0
  1  2  1  0
  2  3  1  0
  3  4  2  0
  3  5  1  0
  5  6  2  0
  6  7  1  0
  6  8  1  0
  8  9  2  0
  9 10  1  0
  9 11  1  0
 11 12  1  0
 11 13  2  0
 13 14  1  0
 14 15  1  0
 14 16  1  0
 16 17  1  0
 16 18  1  0
 16 19  1  0
 19 20  1  0
 19 21  1  0
 19 22  1  0
 22 23  1  0
 23 24  1  0
 23 25  1  0
 23 26  1  0
 22 27  1  0
 27 28  1  0
 27 29  1  0
 27 30  1  0
 13 31  1  0
 31 32  1  0
 31 33  2  0
 33 34  1  0
 34 35  1  0
 35 36  2  0
 35 37  1  0
 37 38  1  0
 37 39  2  0
 39 40  1  0
 39 41  1  0
 41 42  2  0
 41 43  1  0
 34  5  1  0
 33  8  1  0
M  CHG  2   2  -1  43  -1
M  END
>  <UniqueID>  (97) 
97

>  <SMILES>  (97) 
CN(C)CCNc1ccc2cc(C([NH-])=O)n(C(=O)/C=C/C(=O)[O-])c2c1

>  <Energy>  (97) 
83.68175422743336

>  <Genealogy>  (97) 
CN(C)CCNc1ccc2cc(C([NH-])=O)n(C(=O)C=CC(=O)[O-])c2c1 (protonated)
CN(C)CCNc1ccc2cc(C([NH-])=O)n(C(=O)/C=C/C(=O)[O-])c2c1 (cis-trans isomerization)
CN(C)CCNc1ccc2cc(C([NH-])=O)n(C(=O)/C=C/C(=O)[O-])c2c1 (3D coordinates assigned)
CN(C)CCNc1ccc2cc(C([NH-])=O)n(C(=O)/C=C/C(=O)[O-])c2c1 (optimized conformer: 83.68175422743336 kcal/mol)

>  <smiles>  (97) 
CN(C)CCNc1ccc2cc(C(N)=O)n(C(=O)C=CC(=O)O)c2c1

>  <score_type>  (97) 
oracle

>  <origin>  (97) 
adg

>  <m_score__min__energy>  (97) 
-12.279999999999999

>  <m_primary>  (97) 
energy

$$$$
