0:0
     RDKit          3D

 47 49  0  0  0  0  0  0  0  0999 V2000
   -4.1220   16.3590  -33.1910 N   0  0  0  0  0  0  0  0  0  0  0  0
   -5.4050   16.7480  -33.6780 C   0  0  0  0  0  0  0  0  0  0  0  0
   -5.9620   16.0530  -34.5680 O   0  0  0  0  0  0  0  0  0  0  0  0
   -6.0830   17.9280  -33.1000 C   0  0  0  0  0  0  0  0  0  0  0  0
   -7.3700   17.8860  -32.5690 C   0  0  0  0  0  0  0  0  0  0  0  0
   -7.6720   19.1860  -32.2390 C   0  0  0  0  0  0  0  0  0  0  0  0
   -8.8260   19.7210  -31.6750 C   0  0  0  0  0  0  0  0  0  0  0  0
   -8.8620   21.1040  -31.4310 C   0  0  0  0  0  0  0  0  0  0  0  0
   -7.7460   21.9250  -31.7460 C   0  0  0  0  0  0  0  0  0  0  0  0
   -7.7590   23.3470  -31.5080 N   0  0  0  0  0  0  0  0  0  0  0  0
   -7.2400   23.9870  -30.2990 C   0  0  0  0  0  0  0  0  0  0  0  0
   -5.8190   24.4150  -30.4970 C   0  0  0  0  0  0  0  0  0  0  0  0
   -4.7160   23.6070  -30.6570 C   0  0  0  0  0  0  0  0  0  0  0  0
   -3.6320   24.3830  -30.8540 N   0  0  0  0  0  0  0  0  0  0  0  0
   -4.0110   25.6530  -30.8320 N   0  0  0  0  0  0  0  0  0  0  0  0
   -5.3400   25.7010  -30.6210 C   0  0  0  0  0  0  0  0  0  0  0  0
   -6.5900   21.3400  -32.3070 C   0  0  0  0  0  0  0  0  0  0  0  0
   -6.5900   19.9620  -32.5600 C   0  0  0  0  0  0  0  0  0  0  0  0
   -5.6030   19.2040  -33.0890 N   0  0  0  0  0  0  0  0  0  0  0  0
   -4.3050   19.6660  -33.5000 C   0  0  0  0  0  0  0  0  0  0  0  0
   -3.5480   18.9120  -34.1690 O   0  0  0  0  0  0  0  0  0  0  0  0
   -3.8770   20.9440  -33.1320 O   0  0  0  0  0  0  0  0  0  0  0  0
   -2.7650   21.1680  -32.2700 C   0  0  0  0  0  0  0  0  0  0  0  0
   -3.0450   20.6330  -30.9820 O   0  0  0  0  0  0  0  0  0  0  0  0
   -2.6230   21.2440  -29.7960 C   0  0  0  0  0  0  0  0  0  0  0  0
   -3.0960   20.8860  -28.6840 O   0  0  0  0  0  0  0  0  0  0  0  0
   -1.5930   22.3300  -29.8520 C   0  0  0  0  0  0  0  0  0  0  0  0
   -1.7380   23.2740  -28.6540 C   0  0  0  0  0  0  0  0  0  0  0  0
   -0.9460   24.5260  -28.8690 C   0  0  0  0  0  0  0  0  0  0  0  0
    0.2860   24.5470  -28.6110 O   0  0  0  0  0  0  0  0  0  0  0  0
   -1.5730   25.6750  -29.3330 O   0  0  0  0  0  0  0  0  0  0  0  0
   -3.3370   17.0460  -33.1410 H   0  0  0  0  0  0  0  0  0  0  0  0
   -8.0094   17.0002  -32.4408 H   0  0  0  0  0  0  0  0  0  0  0  0
   -9.6849   19.0799  -31.4275 H   0  0  0  0  0  0  0  0  0  0  0  0
   -9.7635   21.5559  -30.9916 H   0  0  0  0  0  0  0  0  0  0  0  0
   -8.2040   23.9670  -32.2230 H   0  0  0  0  0  0  0  0  0  0  0  0
   -7.8539   24.8693  -30.0652 H   0  0  0  0  0  0  0  0  0  0  0  0
   -7.2803   23.2645  -29.4705 H   0  0  0  0  0  0  0  0  0  0  0  0
   -4.7190   22.5074  -30.6287 H   0  0  0  0  0  0  0  0  0  0  0  0
   -5.9448   26.6176  -30.5579 H   0  0  0  0  0  0  0  0  0  0  0  0
   -5.7074   21.9536  -32.5407 H   0  0  0  0  0  0  0  0  0  0  0  0
   -1.8741   20.6745  -32.6858 H   0  0  0  0  0  0  0  0  0  0  0  0
   -2.5806   22.2491  -32.1846 H   0  0  0  0  0  0  0  0  0  0  0  0
   -0.5902   21.8781  -29.8367 H   0  0  0  0  0  0  0  0  0  0  0  0
   -1.7366   22.9072  -30.7773 H   0  0  0  0  0  0  0  0  0  0  0  0
   -2.7989   23.5351  -28.5262 H   0  0  0  0  0  0  0  0  0  0  0  0
   -1.3595   22.7657  -27.7549 H   0  0  0  0  0  0  0  0  0  0  0  0
  1  2  1  0
  2  3  2  0
  2  4  1  0
  4  5  2  0
  5  6  1  0
  6  7  2  0
  7  8  1  0
  8  9  2  0
  9 10  1  0
 10 11  1  0
 11 12  1  0
 12 13  1  0
 13 14  2  0
 14 15  1  0
 15 16  1  0
  9 17  1  0
 17 18  2  0
 18 19  1  0
 19 20  1  0
 20 21  2  0
 20 22  1  0
 22 23  1  0
 23 24  1  0
 24 25  1  0
 25 26  2  0
 25 27  1  0
 27 28  1  0
 28 29  1  0
 29 30  2  0
 29 31  1  0
 19  4  1  0
 18  6  1  0
 16 12  2  0
  1 32  1  0
  5 33  1  0
  7 34  1  0
  8 35  1  0
 10 36  1  0
 11 37  1  0
 11 38  1  0
 13 39  1  0
 16 40  1  0
 17 41  1  0
 23 42  1  0
 23 43  1  0
 27 44  1  0
 27 45  1  0
 28 46  1  0
 28 47  1  0
M  CHG  3   1  -1  15  -1  31  -1
M  END
>  <UniqueID>  (1) 
1

>  <SMILES>  (1) 
[NH-]C(=O)c1cc2ccc(NCc3cn[n-]c3)cc2n1C(=O)OCOC(=O)CCC(=O)[O-]

>  <Energy>  (1) 
108.33481702302007

>  <Genealogy>  (1) 
[NH-]C(=O)c1cc2ccc(NCc3cn[n-]c3)cc2n1C(=O)OCOC(=O)CCC(=O)[O-] (protonated)
[NH-]C(=O)c1cc2ccc(NCc3cn[n-]c3)cc2n1C(=O)OCOC(=O)CCC(=O)[O-] (3D coordinates assigned)
[NH-]C(=O)c1cc2ccc(NCc3cn[n-]c3)cc2n1C(=O)OCOC(=O)CCC(=O)[O-] (optimized conformer: 108.33481702302007 kcal/mol)

>  <smiles>  (1) 
NC(=O)c1cc2ccc(NCc3cn[nH]c3)cc2n1C(=O)OCOC(=O)CCC(=O)O

>  <score_type>  (1) 
oracle

>  <origin>  (1) 
adg

>  <m_score__min__energy>  (1) 
-12.890000000000001

>  <m_primary>  (1) 
energy

$$$$
1:0
     RDKit          3D

 35 37  0  0  0  0  0  0  0  0999 V2000
   -3.8970   25.3910  -30.8540 N   0  0  0  0  0  0  0  0  0  0  0  0
   -5.1280   24.7140  -30.6130 C   0  0  0  0  0  0  0  0  0  0  0  0
   -6.0050   25.2650  -29.8970 O   0  0  0  0  0  0  0  0  0  0  0  0
   -5.3760   23.3980  -31.2380 C   0  0  0  0  0  0  0  0  0  0  0  0
   -6.4990   23.1160  -32.0140 C   0  0  0  0  0  0  0  0  0  0  0  0
   -6.4020   21.7790  -32.3230 C   0  0  0  0  0  0  0  0  0  0  0  0
   -7.2470   20.9730  -33.0780 C   0  0  0  0  0  0  0  0  0  0  0  0
   -6.8890   19.6260  -33.2570 C   0  0  0  0  0  0  0  0  0  0  0  0
   -5.6920   19.1070  -32.6900 C   0  0  0  0  0  0  0  0  0  0  0  0
   -5.2980   17.6870  -32.8800 C   0  0  0  0  0  0  0  0  0  0  0  0
   -4.7710   17.1650  -34.0660 C   0  0  0  0  0  0  0  0  0  0  0  0
   -4.4650   15.5310  -33.8190 S   0  0  0  0  0  0  0  0  0  0  0  0
   -5.0070   15.5420  -32.2320 C   0  0  0  0  0  0  0  0  0  0  0  0
   -5.4200   16.7760  -31.8740 N   0  0  0  0  0  0  0  0  0  0  0  0
   -4.8640   19.9650  -31.9250 C   0  0  0  0  0  0  0  0  0  0  0  0
   -5.2560   21.2960  -31.7490 C   0  0  0  0  0  0  0  0  0  0  0  0
   -4.6110   22.2790  -31.0820 N   0  0  0  0  0  0  0  0  0  0  0  0
   -3.3530   22.1580  -30.3990 C   0  0  0  0  0  0  0  0  0  0  0  0
   -3.2310   21.3450  -29.4430 O   0  0  0  0  0  0  0  0  0  0  0  0
   -2.2780   22.9670  -30.7830 O   0  0  0  0  0  0  0  0  0  0  0  0
   -1.1600   23.2420  -29.9420 C   0  0  0  0  0  0  0  0  0  0  0  0
   -1.5890   24.5210  -28.7200 P   0  0  1  0  0  0  0  0  0  0  0  0
   -0.7860   24.2970  -27.4580 O   0  0  0  0  0  0  0  0  0  0  0  0
   -1.2360   26.0550  -29.3380 O   0  0  0  0  0  0  0  0  0  0  0  0
   -3.2400   24.4310  -28.3610 O   0  0  0  0  0  0  0  0  0  0  0  0
   -3.0060   25.0520  -30.4270 H   0  0  0  0  0  0  0  0  0  0  0  0
   -7.2939   23.8141  -32.3153 H   0  0  0  0  0  0  0  0  0  0  0  0
   -8.1684   21.3779  -33.5220 H   0  0  0  0  0  0  0  0  0  0  0  0
   -7.5431   18.9640  -33.8434 H   0  0  0  0  0  0  0  0  0  0  0  0
   -4.5891   17.7247  -34.9954 H   0  0  0  0  0  0  0  0  0  0  0  0
   -5.0236   14.6622  -31.5719 H   0  0  0  0  0  0  0  0  0  0  0  0
   -3.9308   19.5916  -31.4781 H   0  0  0  0  0  0  0  0  0  0  0  0
   -0.8663   22.3216  -29.4162 H   0  0  0  0  0  0  0  0  0  0  0  0
   -0.3264   23.6041  -30.5616 H   0  0  0  0  0  0  0  0  0  0  0  0
   -3.6550   24.0390  -29.1710 H   0  0  0  0  0  0  0  0  0  0  0  0
  1  2  1  0
  2  3  2  0
  2  4  1  0
  4  5  2  0
  5  6  1  0
  6  7  2  0
  7  8  1  0
  8  9  2  0
  9 10  1  0
 10 11  2  0
 11 12  1  0
 12 13  1  0
 13 14  2  0
  9 15  1  0
 15 16  2  0
 16 17  1  0
 17 18  1  0
 18 19  2  0
 18 20  1  0
 20 21  1  0
 21 22  1  0
 22 23  2  0
 22 24  1  6
 22 25  1  0
 17  4  1  0
 16  6  1  0
 14 10  1  0
  1 26  1  0
  5 27  1  0
  7 28  1  0
  8 29  1  0
 11 30  1  0
 13 31  1  0
 15 32  1  0
 21 33  1  0
 21 34  1  0
 25 35  1  0
M  CHG  2   1  -1  24  -1
M  END
>  <UniqueID>  (2) 
2

>  <SMILES>  (2) 
[NH-]C(=O)c1cc2ccc(-c3cscn3)cc2n1C(=O)OC[P@@](=O)([O-])O

>  <Energy>  (2) 
102.04937288406637

>  <Genealogy>  (2) 
[NH-]C(=O)c1cc2ccc(-c3cscn3)cc2n1C(=O)OCP(=O)([O-])O (protonated)
[NH-]C(=O)c1cc2ccc(-c3cscn3)cc2n1C(=O)OC[P@@](=O)([O-])O (chirality)
[NH-]C(=O)c1cc2ccc(-c3cscn3)cc2n1C(=O)OC[P@@](=O)([O-])O (3D coordinates assigned)
[NH-]C(=O)c1cc2ccc(-c3cscn3)cc2n1C(=O)OC[P@@](=O)([O-])O (optimized conformer: 102.04937288406637 kcal/mol)

>  <smiles>  (2) 
NC(=O)c1cc2ccc(-c3cscn3)cc2n1C(=O)OCP(=O)(O)O

>  <score_type>  (2) 
oracle

>  <origin>  (2) 
adg

>  <m_score__min__energy>  (2) 
-13.109999999999999

>  <m_primary>  (2) 
energy

$$$$
2:0
     RDKit          3D

 40 41  0  0  0  0  0  0  0  0999 V2000
   -0.9570   26.3350  -27.8720 C   0  0  0  0  0  0  0  0  0  0  0  0
   -1.6270   25.6950  -28.9500 O   0  0  0  0  0  0  0  0  0  0  0  0
   -1.7820   24.3080  -29.0240 C   0  0  0  0  0  0  0  0  0  0  0  0
   -1.0560   23.6180  -29.7920 O   0  0  0  0  0  0  0  0  0  0  0  0
   -2.8580   23.6420  -28.2250 C   0  0  0  0  0  0  0  0  0  0  0  0
   -2.8330   22.1910  -28.4610 N   0  0  0  0  0  0  0  0  0  0  0  0
   -2.3580   21.2930  -27.4000 C   0  0  0  0  0  0  0  0  0  0  0  0
   -3.3630   21.6700  -29.7020 C   0  0  0  0  0  0  0  0  0  0  0  0
   -3.4830   20.4230  -29.8430 O   0  0  0  0  0  0  0  0  0  0  0  0
   -3.7870   22.5400  -30.8240 C   0  0  0  0  0  0  0  0  0  0  0  0
   -2.9420   23.0590  -31.5990 O   0  0  0  0  0  0  0  0  0  0  0  0
   -5.1800   22.8200  -31.0270 N   0  0  0  0  0  0  0  0  0  0  0  0
   -5.8290   24.0000  -30.8300 C   0  0  0  0  0  0  0  0  0  0  0  0
   -5.2010   25.2830  -30.4460 C   0  0  0  0  0  0  0  0  0  0  0  0
   -3.8680   25.5990  -30.8460 N   0  0  0  0  0  0  0  0  0  0  0  0
   -5.8550   26.1210  -29.7720 O   0  0  0  0  0  0  0  0  0  0  0  0
   -7.1920   23.8510  -31.0860 C   0  0  0  0  0  0  0  0  0  0  0  0
   -7.3550   22.5300  -31.4430 C   0  0  0  0  0  0  0  0  0  0  0  0
   -8.5070   21.8280  -31.7870 C   0  0  0  0  0  0  0  0  0  0  0  0
   -8.3810   20.4600  -32.0810 C   0  0  0  0  0  0  0  0  0  0  0  0
   -7.1170   19.8210  -32.0200 C   0  0  0  0  0  0  0  0  0  0  0  0
   -7.0070   18.3540  -32.3260 C   0  0  0  0  0  0  0  0  0  0  0  0
   -8.2620   17.7750  -32.2870 F   0  0  0  0  0  0  0  0  0  0  0  0
   -6.1930   17.7430  -31.3900 F   0  0  0  0  0  0  0  0  0  0  0  0
   -5.9700   20.5670  -31.6710 C   0  0  0  0  0  0  0  0  0  0  0  0
   -6.1260   21.9300  -31.3970 C   0  0  0  0  0  0  0  0  0  0  0  0
   -1.3529   25.9568  -26.9179 H   0  0  0  0  0  0  0  0  0  0  0  0
    0.1206   26.1223  -27.9319 H   0  0  0  0  0  0  0  0  0  0  0  0
   -1.1202   27.4212  -27.9319 H   0  0  0  0  0  0  0  0  0  0  0  0
   -2.6935   23.8402  -27.1556 H   0  0  0  0  0  0  0  0  0  0  0  0
   -3.8359   24.0414  -28.5318 H   0  0  0  0  0  0  0  0  0  0  0  0
   -2.5897   21.7310  -26.4179 H   0  0  0  0  0  0  0  0  0  0  0  0
   -2.8582   20.3178  -27.4938 H   0  0  0  0  0  0  0  0  0  0  0  0
   -1.2704   21.1577  -27.4938 H   0  0  0  0  0  0  0  0  0  0  0  0
   -3.0610   25.0160  -30.5320 H   0  0  0  0  0  0  0  0  0  0  0  0
   -7.9715   24.6241  -31.0175 H   0  0  0  0  0  0  0  0  0  0  0  0
   -9.4855   22.3289  -31.8274 H   0  0  0  0  0  0  0  0  0  0  0  0
   -9.2720   19.8789  -32.3613 H   0  0  0  0  0  0  0  0  0  0  0  0
   -6.5741   18.2263  -33.3291 H   0  0  0  0  0  0  0  0  0  0  0  0
   -4.9806   20.0894  -31.6161 H   0  0  0  0  0  0  0  0  0  0  0  0
  1  2  1  0
  2  3  1  0
  3  4  2  0
  3  5  1  0
  5  6  1  0
  6  7  1  0
  6  8  1  0
  8  9  2  0
  8 10  1  0
 10 11  2  0
 10 12  1  0
 12 13  1  0
 13 14  1  0
 14 15  1  0
 14 16  2  0
 13 17  2  0
 17 18  1  0
 18 19  2  0
 19 20  1  0
 20 21  2  0
 21 22  1  0
 22 23  1  0
 22 24  1  0
 21 25  1  0
 25 26  2  0
 26 12  1  0
 26 18  1  0
  1 27  1  0
  1 28  1  0
  1 29  1  0
  5 30  1  0
  5 31  1  0
  7 32  1  0
  7 33  1  0
  7 34  1  0
 15 35  1  0
 17 36  1  0
 19 37  1  0
 20 38  1  0
 22 39  1  0
 25 40  1  0
M  CHG  1  15  -1
M  END
>  <UniqueID>  (3) 
3

>  <SMILES>  (3) 
COC(=O)CN(C)C(=O)C(=O)n1c(C([NH-])=O)cc2ccc(C(F)F)cc21

>  <Energy>  (3) 
76.0535769116097

>  <Genealogy>  (3) 
COC(=O)CN(C)C(=O)C(=O)n1c(C([NH-])=O)cc2ccc(C(F)F)cc21 (protonated)
COC(=O)CN(C)C(=O)C(=O)n1c(C([NH-])=O)cc2ccc(C(F)F)cc21 (3D coordinates assigned)
COC(=O)CN(C)C(=O)C(=O)n1c(C([NH-])=O)cc2ccc(C(F)F)cc21 (optimized conformer: 76.0535769116097 kcal/mol)

>  <smiles>  (3) 
COC(=O)CN(C)C(=O)C(=O)n1c(C(N)=O)cc2ccc(C(F)F)cc21

>  <score_type>  (3) 
oracle

>  <origin>  (3) 
adg

>  <m_score__min__energy>  (3) 
-9.9499999999999993

>  <m_primary>  (3) 
energy

$$$$
3:0
     RDKit          3D

 44 46  0  0  0  0  0  0  0  0999 V2000
   -7.0010   21.4340  -30.8540 C   0  0  0  0  0  0  0  0  0  0  0  0
   -8.2850   21.6720  -31.6670 C   0  0  0  0  0  0  0  0  0  0  0  0
   -9.4990   21.5290  -30.7340 C   0  0  0  0  0  0  0  0  0  0  0  0
   -8.2810   23.0910  -32.2640 C   0  0  0  0  0  0  0  0  0  0  0  0
   -8.4690   20.4040  -32.9950 S   0  0  0  0  0  0  0  0  0  0  0  0
   -7.3810   19.1370  -32.3270 C   0  0  0  0  0  0  0  0  0  0  0  0
   -7.7050   18.3260  -31.3040 N   0  0  0  0  0  0  0  0  0  0  0  0
   -6.6090   17.6150  -31.0680 N   0  0  0  0  0  0  0  0  0  0  0  0
   -5.6430   17.9820  -31.8960 N   0  0  0  0  0  0  0  0  0  0  0  0
   -6.1050   18.9250  -32.6960 N   0  0  0  0  0  0  0  0  0  0  0  0
   -5.2890   19.6830  -33.6400 C   0  0  0  0  0  0  0  0  0  0  0  0
   -4.0920   20.2620  -32.9380 C   0  0  0  0  0  0  0  0  0  0  0  0
   -2.7870   19.8030  -33.2450 C   0  0  0  0  0  0  0  0  0  0  0  0
   -1.6650   20.3590  -32.6100 C   0  0  0  0  0  0  0  0  0  0  0  0
   -1.8770   21.3790  -31.6870 C   0  0  0  0  0  0  0  0  0  0  0  0
   -0.9770   22.0780  -30.9130 C   0  0  0  0  0  0  0  0  0  0  0  0
   -1.7460   22.9710  -30.1670 C   0  0  0  0  0  0  0  0  0  0  0  0
   -1.1710   23.9570  -29.2270 C   0  0  0  0  0  0  0  0  0  0  0  0
   -1.6140   25.3120  -29.2220 N   0  0  0  0  0  0  0  0  0  0  0  0
   -0.2570   23.6050  -28.4350 O   0  0  0  0  0  0  0  0  0  0  0  0
   -3.0660   22.8300  -30.4710 N   0  0  0  0  0  0  0  0  0  0  0  0
   -4.1810   23.5120  -29.8770 C   0  0  0  0  0  0  0  0  0  0  0  0
   -4.7040   23.0530  -28.8260 O   0  0  0  0  0  0  0  0  0  0  0  0
   -4.7190   24.7420  -30.4750 C   0  0  0  0  0  0  0  0  0  0  0  0
   -3.9460   25.6740  -30.8190 O   0  0  0  0  0  0  0  0  0  0  0  0
   -6.0890   24.8880  -30.6530 O   0  0  0  0  0  0  0  0  0  0  0  0
   -3.1300   21.8490  -31.3970 C   0  0  0  0  0  0  0  0  0  0  0  0
   -4.2670   21.3000  -31.9970 C   0  0  0  0  0  0  0  0  0  0  0  0
   -7.2339   21.4772  -29.7798 H   0  0  0  0  0  0  0  0  0  0  0  0
   -6.5892   20.4442  -31.1004 H   0  0  0  0  0  0  0  0  0  0  0  0
   -6.2618   22.2104  -31.1004 H   0  0  0  0  0  0  0  0  0  0  0  0
   -9.1636   21.5685  -29.6871 H   0  0  0  0  0  0  0  0  0  0  0  0
  -10.2060   22.3501  -30.9237 H   0  0  0  0  0  0  0  0  0  0  0  0
   -9.9959   20.5661  -30.9237 H   0  0  0  0  0  0  0  0  0  0  0  0
   -8.2789   23.8311  -31.4503 H   0  0  0  0  0  0  0  0  0  0  0  0
   -7.3825   23.2254  -32.8842 H   0  0  0  0  0  0  0  0  0  0  0  0
   -9.1788   23.2304  -32.8842 H   0  0  0  0  0  0  0  0  0  0  0  0
   -4.9506   19.0156  -34.4463 H   0  0  0  0  0  0  0  0  0  0  0  0
   -5.8912   20.5018  -34.0605 H   0  0  0  0  0  0  0  0  0  0  0  0
   -2.6517   19.0033  -33.9881 H   0  0  0  0  0  0  0  0  0  0  0  0
   -0.6500   19.9997  -32.8350 H   0  0  0  0  0  0  0  0  0  0  0  0
    0.1161   21.9575  -30.8885 H   0  0  0  0  0  0  0  0  0  0  0  0
   -1.2440   26.0000  -29.9140 H   0  0  0  0  0  0  0  0  0  0  0  0
   -5.2722   21.6672  -31.7426 H   0  0  0  0  0  0  0  0  0  0  0  0
  1  2  1  0
  2  3  1  0
  2  4  1  0
  2  5  1  0
  5  6  1  0
  6  7  2  0
  7  8  1  0
  8  9  2  0
  9 10  1  0
 10 11  1  0
 11 12  1  0
 12 13  2  0
 13 14  1  0
 14 15  2  0
 15 16  1  0
 16 17  2  0
 17 18  1  0
 18 19  1  0
 18 20  2  0
 17 21  1  0
 21 22  1  0
 22 23  2  0
 22 24  1  0
 24 25  2  0
 24 26  1  0
 21 27  1  0
 27 28  2  0
 10  6  1  0
 28 12  1  0
 27 15  1  0
  1 29  1  0
  1 30  1  0
  1 31  1  0
  3 32  1  0
  3 33  1  0
  3 34  1  0
  4 35  1  0
  4 36  1  0
  4 37  1  0
 11 38  1  0
 11 39  1  0
 13 40  1  0
 14 41  1  0
 16 42  1  0
 19 43  1  0
 28 44  1  0
M  CHG  2  19  -1  26  -1
M  END
>  <UniqueID>  (4) 
4

>  <SMILES>  (4) 
CC(C)(C)Sc1nnnn1Cc1ccc2cc(C([NH-])=O)n(C(=O)C(=O)[O-])c2c1

>  <Energy>  (4) 
116.94294185181703

>  <Genealogy>  (4) 
CC(C)(C)Sc1nnnn1Cc1ccc2cc(C([NH-])=O)n(C(=O)C(=O)[O-])c2c1 (protonated)
CC(C)(C)Sc1nnnn1Cc1ccc2cc(C([NH-])=O)n(C(=O)C(=O)[O-])c2c1 (3D coordinates assigned)
CC(C)(C)Sc1nnnn1Cc1ccc2cc(C([NH-])=O)n(C(=O)C(=O)[O-])c2c1 (optimized conformer: 116.94294185181703 kcal/mol)

>  <smiles>  (4) 
CC(C)(C)Sc1nnnn1Cc1ccc2cc(C(N)=O)n(C(=O)C(=O)O)c2c1

>  <score_type>  (4) 
oracle

>  <origin>  (4) 
adg

>  <m_score__min__energy>  (4) 
-12.93

>  <m_primary>  (4) 
energy

$$$$
4:0
     RDKit          3D

 32 33  0  0  0  0  0  0  0  0999 V2000
   -3.9410   25.3000  -30.8770 N   0  0  0  0  0  0  0  0  0  0  0  0
   -5.2380   24.9860  -30.3760 C   0  0  0  0  0  0  0  0  0  0  0  0
   -5.7160   25.6700  -29.4320 O   0  0  0  0  0  0  0  0  0  0  0  0
   -6.0030   23.8400  -30.9090 C   0  0  0  0  0  0  0  0  0  0  0  0
   -7.3830   23.8640  -31.1050 C   0  0  0  0  0  0  0  0  0  0  0  0
   -7.7150   22.5950  -31.5200 C   0  0  0  0  0  0  0  0  0  0  0  0
   -8.9520   22.0620  -31.8680 C   0  0  0  0  0  0  0  0  0  0  0  0
   -8.9970   20.7230  -32.2910 C   0  0  0  0  0  0  0  0  0  0  0  0
   -7.8120   19.9520  -32.3650 C   0  0  0  0  0  0  0  0  0  0  0  0
   -7.8710   18.5940  -32.8090 N   0  0  0  0  0  0  0  0  0  0  0  0
   -6.5740   20.5240  -32.0060 C   0  0  0  0  0  0  0  0  0  0  0  0
   -6.5610   21.8550  -31.5700 C   0  0  0  0  0  0  0  0  0  0  0  0
   -5.5000   22.6060  -31.2010 N   0  0  0  0  0  0  0  0  0  0  0  0
   -4.1250   22.1910  -31.2080 C   0  0  0  0  0  0  0  0  0  0  0  0
   -3.5130   22.0590  -32.3030 O   0  0  0  0  0  0  0  0  0  0  0  0
   -3.4790   21.9120  -30.0000 O   0  0  0  0  0  0  0  0  0  0  0  0
   -2.1080   22.2140  -29.7650 C   0  0  0  0  0  0  0  0  0  0  0  0
   -1.8380   23.5190  -30.2190 O   0  0  0  0  0  0  0  0  0  0  0  0
   -1.7430   24.5470  -28.8630 P   0  0  1  0  0  0  0  0  0  0  0  0
   -0.7430   23.9780  -27.8820 O   0  0  0  0  0  0  0  0  0  0  0  0
   -1.2310   26.0890  -29.3380 O   0  0  0  0  0  0  0  0  0  0  0  0
   -3.2540   24.6640  -28.1090 O   0  0  0  0  0  0  0  0  0  0  0  0
   -3.1070   25.2960  -30.2490 H   0  0  0  0  0  0  0  0  0  0  0  0
   -8.0624   24.7167  -30.9588 H   0  0  0  0  0  0  0  0  0  0  0  0
   -9.8669   22.6703  -31.8136 H   0  0  0  0  0  0  0  0  0  0  0  0
   -9.9607   20.2701  -32.5669 H   0  0  0  0  0  0  0  0  0  0  0  0
   -7.2270   17.8730  -32.4100 H   0  0  0  0  0  0  0  0  0  0  0  0
   -8.5570   18.2980  -33.5390 H   0  0  0  0  0  0  0  0  0  0  0  0
   -5.6435   19.9405  -32.0668 H   0  0  0  0  0  0  0  0  0  0  0  0
   -1.8959   22.1478  -28.6877 H   0  0  0  0  0  0  0  0  0  0  0  0
   -1.4732   21.4958  -30.3046 H   0  0  0  0  0  0  0  0  0  0  0  0
   -3.7820   25.2640  -28.6930 H   0  0  0  0  0  0  0  0  0  0  0  0
  1  2  1  0
  2  3  2  0
  2  4  1  0
  4  5  2  0
  5  6  1  0
  6  7  2  0
  7  8  1  0
  8  9  2  0
  9 10  1  0
  9 11  1  0
 11 12  2  0
 12 13  1  0
 13 14  1  0
 14 15  2  0
 14 16  1  0
 16 17  1  0
 17 18  1  0
 18 19  1  0
 19 20  2  0
 19 21  1  6
 19 22  1  0
 13  4  1  0
 12  6  1  0
  1 23  1  0
  5 24  1  0
  7 25  1  0
  8 26  1  0
 10 27  1  0
 10 28  1  0
 11 29  1  0
 17 30  1  0
 17 31  1  0
 22 32  1  0
M  CHG  2   1  -1  21  -1
M  END
>  <UniqueID>  (5) 
5

>  <SMILES>  (5) 
[NH-]C(=O)c1cc2ccc(N)cc2n1C(=O)OCO[P@@](=O)([O-])O

>  <Energy>  (5) 
66.8352801877036

>  <Genealogy>  (5) 
[NH-]C(=O)c1cc2ccc(N)cc2n1C(=O)OCOP(=O)([O-])O (protonated)
[NH-]C(=O)c1cc2ccc(N)cc2n1C(=O)OCO[P@@](=O)([O-])O (chirality)
[NH-]C(=O)c1cc2ccc(N)cc2n1C(=O)OCO[P@@](=O)([O-])O (3D coordinates assigned)
[NH-]C(=O)c1cc2ccc(N)cc2n1C(=O)OCO[P@@](=O)([O-])O (optimized conformer: 66.8352801877036 kcal/mol)

>  <smiles>  (5) 
NC(=O)c1cc2ccc(N)cc2n1C(=O)OCOP(=O)(O)O

>  <score_type>  (5) 
oracle

>  <origin>  (5) 
adg

>  <m_score__min__energy>  (5) 
-11.44

>  <m_primary>  (5) 
energy

$$$$
5:0
     RDKit          3D

 37 38  0  0  0  0  0  0  0  0999 V2000
   -0.7010   21.5230  -30.3970 C   0  0  0  0  0  0  0  0  0  0  0  0
   -0.9060   22.6790  -29.4120 C   0  0  0  0  0  0  0  0  0  0  0  0
   -0.7980   22.1860  -27.9640 C   0  0  0  0  0  0  0  0  0  0  0  0
   -2.2370   23.3340  -29.6530 C   0  0  0  0  0  0  0  0  0  0  0  0
   -2.3410   24.5850  -29.5430 O   0  0  0  0  0  0  0  0  0  0  0  0
   -3.3360   22.5460  -30.0240 O   0  0  0  0  0  0  0  0  0  0  0  0
   -4.0250   22.6450  -31.2410 C   0  0  0  0  0  0  0  0  0  0  0  0
   -3.4060   22.5990  -32.3370 O   0  0  0  0  0  0  0  0  0  0  0  0
   -5.4550   22.7970  -31.2300 N   0  0  0  0  0  0  0  0  0  0  0  0
   -6.1600   23.9370  -30.9920 C   0  0  0  0  0  0  0  0  0  0  0  0
   -5.6000   25.2120  -30.5030 C   0  0  0  0  0  0  0  0  0  0  0  0
   -4.2520   25.5850  -30.7860 N   0  0  0  0  0  0  0  0  0  0  0  0
   -6.3060   25.9590  -29.7730 O   0  0  0  0  0  0  0  0  0  0  0  0
   -7.5180   23.7340  -31.2200 C   0  0  0  0  0  0  0  0  0  0  0  0
   -7.6290   22.4150  -31.5970 C   0  0  0  0  0  0  0  0  0  0  0  0
   -8.7540   21.6840  -31.9680 C   0  0  0  0  0  0  0  0  0  0  0  0
   -8.5710   20.3480  -32.3590 C   0  0  0  0  0  0  0  0  0  0  0  0
   -7.2780   19.7690  -32.3710 C   0  0  0  0  0  0  0  0  0  0  0  0
   -7.0980   18.3510  -32.8320 C   0  0  0  0  0  0  0  0  0  0  0  0
   -6.3100   18.3170  -33.9690 F   0  0  0  0  0  0  0  0  0  0  0  0
   -6.4910   17.6140  -31.8330 F   0  0  0  0  0  0  0  0  0  0  0  0
   -6.1570   20.5460  -32.0010 C   0  0  0  0  0  0  0  0  0  0  0  0
   -6.3710   21.8710  -31.5970 C   0  0  0  0  0  0  0  0  0  0  0  0
   -0.5356   20.5901  -29.8382 H   0  0  0  0  0  0  0  0  0  0  0  0
   -1.5945   21.4178  -31.0299 H   0  0  0  0  0  0  0  0  0  0  0  0
    0.1742   21.7314  -31.0299 H   0  0  0  0  0  0  0  0  0  0  0  0
   -0.1132   23.4236  -29.5763 H   0  0  0  0  0  0  0  0  0  0  0  0
   -0.9817   23.0247  -27.2764 H   0  0  0  0  0  0  0  0  0  0  0  0
   -1.5447   21.3976  -27.7884 H   0  0  0  0  0  0  0  0  0  0  0  0
    0.2099   21.7820  -27.7884 H   0  0  0  0  0  0  0  0  0  0  0  0
   -3.5930   24.9210  -31.2530 H   0  0  0  0  0  0  0  0  0  0  0  0
   -3.8780   26.4990  -30.4460 H   0  0  0  0  0  0  0  0  0  0  0  0
   -8.3291   24.4703  -31.1202 H   0  0  0  0  0  0  0  0  0  0  0  0
   -9.7554   22.1390  -31.9552 H   0  0  0  0  0  0  0  0  0  0  0  0
   -9.4404   19.7447  -32.6591 H   0  0  0  0  0  0  0  0  0  0  0  0
   -8.0844   17.9224  -33.0631 H   0  0  0  0  0  0  0  0  0  0  0  0
   -5.1425   20.1218  -32.0293 H   0  0  0  0  0  0  0  0  0  0  0  0
  1  2  1  0
  2  3  1  0
  2  4  1  0
  4  5  2  0
  4  6  1  0
  6  7  1  0
  7  8  2  0
  7  9  1  0
  9 10  1  0
 10 11  1  0
 11 12  1  0
 11 13  2  0
 10 14  2  0
 14 15  1  0
 15 16  2  0
 16 17  1  0
 17 18  2  0
 18 19  1  0
 19 20  1  0
 19 21  1  0
 18 22  1  0
 22 23  2  0
 23  9  1  0
 23 15  1  0
  1 24  1  0
  1 25  1  0
  1 26  1  0
  2 27  1  0
  3 28  1  0
  3 29  1  0
  3 30  1  0
 12 31  1  0
 12 32  1  0
 14 33  1  0
 16 34  1  0
 17 35  1  0
 19 36  1  0
 22 37  1  0
M  END
>  <UniqueID>  (6) 
6

>  <SMILES>  (6) 
CC(C)C(=O)OC(=O)n1c(C(N)=O)cc2ccc(C(F)F)cc21

>  <Energy>  (6) 
70.99891745729849

>  <Genealogy>  (6) 
CC(C)C(=O)OC(=O)n1c(C(N)=O)cc2ccc(C(F)F)cc21 (3D coordinates assigned)
CC(C)C(=O)OC(=O)n1c(C(N)=O)cc2ccc(C(F)F)cc21 (optimized conformer: 70.99891745729849 kcal/mol)

>  <smiles>  (6) 
CC(C)C(=O)OC(=O)n1c(C(N)=O)cc2ccc(C(F)F)cc21

>  <score_type>  (6) 
oracle

>  <origin>  (6) 
adg

>  <m_score__min__energy>  (6) 
-8.6600000000000001

>  <m_primary>  (6) 
energy

$$$$
6:0
     RDKit          3D

 47 50  0  0  0  0  0  0  0  0999 V2000
   -4.1140   16.6340  -33.2510 C   0  0  0  0  0  0  0  0  0  0  0  0
   -5.2790   17.5010  -33.0890 N   0  0  0  0  0  0  0  0  0  0  0  0
   -6.5550   17.1700  -33.3680 C   0  0  0  0  0  0  0  0  0  0  0  0
   -7.4020   18.1890  -33.1300 N   0  0  0  0  0  0  0  0  0  0  0  0
   -6.6400   19.2010  -32.6680 C   0  0  0  0  0  0  0  0  0  0  0  0
   -7.1850   20.5080  -32.2360 C   0  0  0  0  0  0  0  0  0  0  0  0
   -6.6160   21.6980  -32.7200 C   0  0  0  0  0  0  0  0  0  0  0  0
   -7.1260   22.9380  -32.3210 C   0  0  0  0  0  0  0  0  0  0  0  0
   -8.2130   23.0000  -31.4450 C   0  0  0  0  0  0  0  0  0  0  0  0
   -8.7960   21.8220  -30.9720 C   0  0  0  0  0  0  0  0  0  0  0  0
   -9.8580   21.8830  -30.1310 F   0  0  0  0  0  0  0  0  0  0  0  0
   -8.2900   20.5810  -31.3680 C   0  0  0  0  0  0  0  0  0  0  0  0
   -5.3170   18.7750  -32.6360 C   0  0  0  0  0  0  0  0  0  0  0  0
   -4.1300   19.5830  -32.2830 C   0  0  0  0  0  0  0  0  0  0  0  0
   -2.9240   19.4310  -33.0120 C   0  0  0  0  0  0  0  0  0  0  0  0
   -1.7910   20.1950  -32.6890 C   0  0  0  0  0  0  0  0  0  0  0  0
   -1.8960   21.1050  -31.6400 C   0  0  0  0  0  0  0  0  0  0  0  0
   -0.9520   21.9490  -31.1000 C   0  0  0  0  0  0  0  0  0  0  0  0
   -1.6040   22.6180  -30.0640 C   0  0  0  0  0  0  0  0  0  0  0  0
   -0.9650   23.6620  -29.2340 C   0  0  0  0  0  0  0  0  0  0  0  0
   -1.4100   25.0150  -29.2800 N   0  0  0  0  0  0  0  0  0  0  0  0
    0.0060   23.3590  -28.4890 O   0  0  0  0  0  0  0  0  0  0  0  0
   -2.8980   22.2030  -29.9720 N   0  0  0  0  0  0  0  0  0  0  0  0
   -3.8830   22.6030  -29.0080 C   0  0  0  0  0  0  0  0  0  0  0  0
   -4.0930   21.8860  -27.9930 O   0  0  0  0  0  0  0  0  0  0  0  0
   -4.6380   23.8870  -29.1770 C   0  0  0  0  0  0  0  0  0  0  0  0
   -4.3290   24.4880  -30.5090 C   0  0  0  0  0  0  0  0  0  0  0  0
   -3.8620   25.6560  -30.5830 O   0  0  0  0  0  0  0  0  0  0  0  0
   -4.6060   23.7820  -31.6730 O   0  0  0  0  0  0  0  0  0  0  0  0
   -3.0600   21.2750  -30.9380 C   0  0  0  0  0  0  0  0  0  0  0  0
   -4.1990   20.5150  -31.2250 C   0  0  0  0  0  0  0  0  0  0  0  0
   -3.7294   16.3478  -32.2610 H   0  0  0  0  0  0  0  0  0  0  0  0
   -4.4040   15.7302  -33.8070 H   0  0  0  0  0  0  0  0  0  0  0  0
   -3.3316   17.1713  -33.8070 H   0  0  0  0  0  0  0  0  0  0  0  0
   -6.8673   16.1850  -33.7451 H   0  0  0  0  0  0  0  0  0  0  0  0
   -8.4380   18.1780  -33.2560 H   0  0  0  0  0  0  0  0  0  0  0  0
   -5.7654   21.6544  -33.4161 H   0  0  0  0  0  0  0  0  0  0  0  0
   -6.6706   23.8658  -32.6975 H   0  0  0  0  0  0  0  0  0  0  0  0
   -8.6094   23.9759  -31.1281 H   0  0  0  0  0  0  0  0  0  0  0  0
   -8.7580   19.6564  -30.9992 H   0  0  0  0  0  0  0  0  0  0  0  0
   -2.8751   18.7073  -33.8390 H   0  0  0  0  0  0  0  0  0  0  0  0
   -0.8502   20.0784  -33.2469 H   0  0  0  0  0  0  0  0  0  0  0  0
    0.0941   22.0701  -31.4179 H   0  0  0  0  0  0  0  0  0  0  0  0
   -2.1720   25.3080  -29.9290 H   0  0  0  0  0  0  0  0  0  0  0  0
   -5.7175   23.6868  -29.1089 H   0  0  0  0  0  0  0  0  0  0  0  0
   -4.3389   24.5894  -28.3851 H   0  0  0  0  0  0  0  0  0  0  0  0
   -5.1233   20.6403  -30.6420 H   0  0  0  0  0  0  0  0  0  0  0  0
  1  2  1  0
  2  3  1  0
  3  4  2  0
  4  5  1  0
  5  6  1  0
  6  7  2  0
  7  8  1  0
  8  9  2  0
  9 10  1  0
 10 11  1  0
 10 12  2  0
  5 13  2  0
 13 14  1  0
 14 15  2  0
 15 16  1  0
 16 17  2  0
 17 18  1  0
 18 19  2  0
 19 20  1  0
 20 21  1  0
 20 22  2  0
 19 23  1  0
 23 24  1  0
 24 25  2  0
 24 26  1  0
 26 27  1  0
 27 28  2  0
 27 29  1  0
 23 30  1  0
 30 31  2  0
 13  2  1  0
 31 14  1  0
 12  6  1  0
 30 17  1  0
  1 32  1  0
  1 33  1  0
  1 34  1  0
  3 35  1  0
  4 36  1  0
  7 37  1  0
  8 38  1  0
  9 39  1  0
 12 40  1  0
 15 41  1  0
 16 42  1  0
 18 43  1  0
 21 44  1  0
 26 45  1  0
 26 46  1  0
 31 47  1  0
M  CHG  3   4   1  21  -1  29  -1
M  END
>  <UniqueID>  (7) 
7

>  <SMILES>  (7) 
Cn1c[nH+]c(-c2cccc(F)c2)c1-c1ccc2cc(C([NH-])=O)n(C(=O)CC(=O)[O-])c2c1

>  <Energy>  (7) 
127.88748382280824

>  <Genealogy>  (7) 
Cn1c[nH+]c(-c2cccc(F)c2)c1-c1ccc2cc(C([NH-])=O)n(C(=O)CC(=O)[O-])c2c1 (protonated)
Cn1c[nH+]c(-c2cccc(F)c2)c1-c1ccc2cc(C([NH-])=O)n(C(=O)CC(=O)[O-])c2c1 (3D coordinates assigned)
Cn1c[nH+]c(-c2cccc(F)c2)c1-c1ccc2cc(C([NH-])=O)n(C(=O)CC(=O)[O-])c2c1 (optimized conformer: 127.88748382280824 kcal/mol)

>  <smiles>  (7) 
Cn1cnc(-c2cccc(F)c2)c1-c1ccc2cc(C(N)=O)n(C(=O)CC(=O)O)c2c1

>  <score_type>  (7) 
oracle

>  <origin>  (7) 
adg

>  <m_score__min__energy>  (7) 
-13.529999999999999

>  <m_primary>  (7) 
energy

$$$$
7:0
     RDKit          3D

 46 47  0  0  0  0  0  0  0  0999 V2000
   -7.4200   18.2940  -32.3610 C   0  0  0  0  0  0  0  0  0  0  0  0
   -7.4040   19.7680  -32.0870 C   0  0  0  0  0  0  0  0  0  0  0  0
   -8.5870   20.5310  -32.2480 C   0  0  0  0  0  0  0  0  0  0  0  0
   -8.5930   21.9080  -31.9700 C   0  0  0  0  0  0  0  0  0  0  0  0
   -7.4110   22.4870  -31.5160 C   0  0  0  0  0  0  0  0  0  0  0  0
   -7.1320   23.7960  -31.1960 C   0  0  0  0  0  0  0  0  0  0  0  0
   -5.7960   23.8040  -30.8060 C   0  0  0  0  0  0  0  0  0  0  0  0
   -5.1060   25.0020  -30.2870 C   0  0  0  0  0  0  0  0  0  0  0  0
   -3.8630   25.4260  -30.8400 N   0  0  0  0  0  0  0  0  0  0  0  0
   -5.5920   25.6270  -29.3070 O   0  0  0  0  0  0  0  0  0  0  0  0
   -5.2650   22.5510  -30.8880 N   0  0  0  0  0  0  0  0  0  0  0  0
   -3.8970   22.1630  -30.6820 C   0  0  0  0  0  0  0  0  0  0  0  0
   -3.4100   21.2050  -31.3420 O   0  0  0  0  0  0  0  0  0  0  0  0
   -3.1030   22.8730  -29.7760 O   0  0  0  0  0  0  0  0  0  0  0  0
   -1.7060   23.0650  -29.9680 C   0  0  0  0  0  0  0  0  0  0  0  0
   -1.3670   24.4220  -29.7010 O   0  0  0  0  0  0  0  0  0  0  0  0
   -1.0520   24.8910  -28.4220 C   0  0  0  0  0  0  0  0  0  0  0  0
    0.1480   25.1090  -28.0990 O   0  0  0  0  0  0  0  0  0  0  0  0
   -2.1680   25.1760  -27.4460 C   0  0  1  0  0  0  0  0  0  0  0  0
   -3.4640   24.7450  -27.9910 N   0  0  0  0  0  0  0  0  0  0  0  0
   -1.9020   24.5700  -26.0350 C   0  0  0  0  0  0  0  0  0  0  0  0
   -1.2710   25.6070  -25.0930 C   0  0  0  0  0  0  0  0  0  0  0  0
   -1.0450   23.2940  -26.0630 C   0  0  0  0  0  0  0  0  0  0  0  0
   -6.2670   21.7550  -31.3230 C   0  0  0  0  0  0  0  0  0  0  0  0
   -6.2280   20.3860  -31.6090 C   0  0  0  0  0  0  0  0  0  0  0  0
   -7.4260   17.7440  -31.4084 H   0  0  0  0  0  0  0  0  0  0  0  0
   -8.3210   18.0380  -32.9378 H   0  0  0  0  0  0  0  0  0  0  0  0
   -6.5248   18.0185  -32.9378 H   0  0  0  0  0  0  0  0  0  0  0  0
   -9.5090   20.0407  -32.5938 H   0  0  0  0  0  0  0  0  0  0  0  0
   -9.5033   22.5101  -32.1068 H   0  0  0  0  0  0  0  0  0  0  0  0
   -7.8191   24.6539  -31.2393 H   0  0  0  0  0  0  0  0  0  0  0  0
   -2.9660   25.2460  -30.3400 H   0  0  0  0  0  0  0  0  0  0  0  0
   -1.1491   22.4076  -29.2841 H   0  0  0  0  0  0  0  0  0  0  0  0
   -1.4445   22.8221  -31.0085 H   0  0  0  0  0  0  0  0  0  0  0  0
   -2.2038   26.2665  -27.3061 H   0  0  0  0  0  0  0  0  0  0  0  0
   -4.2300   25.3110  -27.5600 H   0  0  0  0  0  0  0  0  0  0  0  0
   -3.5030   24.8690  -29.0280 H   0  0  0  0  0  0  0  0  0  0  0  0
   -3.6340   23.7400  -27.7600 H   0  0  0  0  0  0  0  0  0  0  0  0
   -2.8908   24.2802  -25.6500 H   0  0  0  0  0  0  0  0  0  0  0  0
   -1.4509   25.3113  -24.0489 H   0  0  0  0  0  0  0  0  0  0  0  0
   -0.1879   25.6592  -25.2779 H   0  0  0  0  0  0  0  0  0  0  0  0
   -1.7224   26.5929  -25.2779 H   0  0  0  0  0  0  0  0  0  0  0  0
   -0.8301   22.9740  -25.0328 H   0  0  0  0  0  0  0  0  0  0  0  0
   -1.5915   22.4967  -26.5881 H   0  0  0  0  0  0  0  0  0  0  0  0
   -0.1003   23.4983  -26.5881 H   0  0  0  0  0  0  0  0  0  0  0  0
   -5.3046   19.8059  -31.4651 H   0  0  0  0  0  0  0  0  0  0  0  0
  1  2  1  0
  2  3  2  0
  3  4  1  0
  4  5  2  0
  5  6  1  0
  6  7  2  0
  7  8  1  0
  8  9  1  0
  8 10  2  0
  7 11  1  0
 11 12  1  0
 12 13  2  0
 12 14  1  0
 14 15  1  0
 15 16  1  0
 16 17  1  0
 17 18  2  0
 17 19  1  0
 19 20  1  0
 19 21  1  0
 21 22  1  0
 21 23  1  0
 11 24  1  0
 24 25  2  0
 25  2  1  0
 24  5  1  0
  1 26  1  0
  1 27  1  0
  1 28  1  0
  3 29  1  0
  4 30  1  0
  6 31  1  0
  9 32  1  0
 15 33  1  0
 15 34  1  0
 19 35  1  1
 20 36  1  0
 20 37  1  0
 20 38  1  0
 21 39  1  0
 22 40  1  0
 22 41  1  0
 22 42  1  0
 23 43  1  0
 23 44  1  0
 23 45  1  0
 25 46  1  0
M  CHG  2   9  -1  20   1
M  END
>  <UniqueID>  (8) 
8

>  <SMILES>  (8) 
Cc1ccc2cc(C([NH-])=O)n(C(=O)OCOC(=O)[C@@H]([NH3+])C(C)C)c2c1

>  <Energy>  (8) 
76.9943375841722

>  <Genealogy>  (8) 
Cc1ccc2cc(C([NH-])=O)n(C(=O)OCOC(=O)C([NH3+])C(C)C)c2c1 (protonated)
Cc1ccc2cc(C([NH-])=O)n(C(=O)OCOC(=O)[C@@H]([NH3+])C(C)C)c2c1 (chirality)
Cc1ccc2cc(C([NH-])=O)n(C(=O)OCOC(=O)[C@@H]([NH3+])C(C)C)c2c1 (3D coordinates assigned)
Cc1ccc2cc(C([NH-])=O)n(C(=O)OCOC(=O)[C@@H]([NH3+])C(C)C)c2c1 (optimized conformer: 76.9943375841722 kcal/mol)

>  <smiles>  (8) 
Cc1ccc2cc(C(N)=O)n(C(=O)OCOC(=O)C(N)C(C)C)c2c1

>  <score_type>  (8) 
oracle

>  <origin>  (8) 
adg

>  <m_score__min__energy>  (8) 
-9.3399999999999999

>  <m_primary>  (8) 
energy

$$$$
8:0
     RDKit          3D

 44 45  0  0  0  0  0  0  0  0999 V2000
   -5.0420   16.1450  -33.0060 C   0  0  0  0  0  0  0  0  0  0  0  0
   -5.0570   17.1660  -33.9960 O   0  0  0  0  0  0  0  0  0  0  0  0
   -6.1110   18.0740  -34.1250 C   0  0  0  0  0  0  0  0  0  0  0  0
   -6.1070   18.9400  -35.0440 O   0  0  0  0  0  0  0  0  0  0  0  0
   -7.2280   18.0500  -33.1330 C   0  0  0  0  0  0  0  0  0  0  0  0
   -7.3690   19.3980  -32.4850 C   0  0  0  0  0  0  0  0  0  0  0  0
   -8.6020   19.7810  -31.9010 C   0  0  0  0  0  0  0  0  0  0  0  0
   -8.7310   21.0200  -31.2500 C   0  0  0  0  0  0  0  0  0  0  0  0
   -7.6150   21.8510  -31.2020 C   0  0  0  0  0  0  0  0  0  0  0  0
   -7.4540   23.0800  -30.6040 C   0  0  0  0  0  0  0  0  0  0  0  0
   -6.1310   23.4360  -30.8490 C   0  0  0  0  0  0  0  0  0  0  0  0
   -5.5430   24.7240  -30.4260 C   0  0  0  0  0  0  0  0  0  0  0  0
   -5.8630   25.3050  -29.1610 N   0  0  0  0  0  0  0  0  0  0  0  0
   -4.7040   25.2950  -31.1720 O   0  0  0  0  0  0  0  0  0  0  0  0
   -5.4920   22.4620  -31.5570 N   0  0  0  0  0  0  0  0  0  0  0  0
   -4.1010   22.4030  -31.9090 C   0  0  0  0  0  0  0  0  0  0  0  0
   -3.2580   23.0580  -31.2380 O   0  0  0  0  0  0  0  0  0  0  0  0
   -3.6970   21.6140  -32.9970 O   0  0  0  0  0  0  0  0  0  0  0  0
   -2.6630   20.6200  -32.9900 C   0  0  0  0  0  0  0  0  0  0  0  0
   -3.0590   19.4210  -33.8730 C   0  0  0  0  0  0  0  0  0  0  0  0
   -1.3260   21.2250  -33.4590 C   0  0  0  0  0  0  0  0  0  0  0  0
   -2.5070   20.1390  -31.5390 C   0  0  0  0  0  0  0  0  0  0  0  0
   -6.4170   21.4990  -31.7700 C   0  0  0  0  0  0  0  0  0  0  0  0
   -6.2550   20.2610  -32.4030 C   0  0  0  0  0  0  0  0  0  0  0  0
   -5.0487   16.6036  -32.0062 H   0  0  0  0  0  0  0  0  0  0  0  0
   -5.9309   15.5077  -33.1231 H   0  0  0  0  0  0  0  0  0  0  0  0
   -4.1348   15.5341  -33.1231 H   0  0  0  0  0  0  0  0  0  0  0  0
   -8.1660   17.7930  -33.6468 H   0  0  0  0  0  0  0  0  0  0  0  0
   -7.0081   17.2990  -32.3599 H   0  0  0  0  0  0  0  0  0  0  0  0
   -9.4660   19.1025  -31.9577 H   0  0  0  0  0  0  0  0  0  0  0  0
   -9.6842   21.3237  -30.7926 H   0  0  0  0  0  0  0  0  0  0  0  0
   -8.2093   23.6574  -30.0508 H   0  0  0  0  0  0  0  0  0  0  0  0
   -5.4750   26.2390  -28.9000 H   0  0  0  0  0  0  0  0  0  0  0  0
   -6.4130   24.7760  -28.4480 H   0  0  0  0  0  0  0  0  0  0  0  0
   -3.3396   18.5713  -33.2332 H   0  0  0  0  0  0  0  0  0  0  0  0
   -3.9129   19.6995  -34.5081 H   0  0  0  0  0  0  0  0  0  0  0  0
   -2.2072   19.1362  -34.5081 H   0  0  0  0  0  0  0  0  0  0  0  0
   -0.7202   21.4991  -32.5827 H   0  0  0  0  0  0  0  0  0  0  0  0
   -0.7813   20.4856  -34.0646 H   0  0  0  0  0  0  0  0  0  0  0  0
   -1.5219   22.1222  -34.0646 H   0  0  0  0  0  0  0  0  0  0  0  0
   -2.7719   20.9558  -30.8515 H   0  0  0  0  0  0  0  0  0  0  0  0
   -3.1730   19.2814  -31.3634 H   0  0  0  0  0  0  0  0  0  0  0  0
   -1.4644   19.8355  -31.3634 H   0  0  0  0  0  0  0  0  0  0  0  0
   -5.2830   19.9678  -32.8263 H   0  0  0  0  0  0  0  0  0  0  0  0
  1  2  1  0
  2  3  1  0
  3  4  2  0
  3  5  1  0
  5  6  1  0
  6  7  2  0
  7  8  1  0
  8  9  2  0
  9 10  1  0
 10 11  2  0
 11 12  1  0
 12 13  1  0
 12 14  2  0
 11 15  1  0
 15 16  1  0
 16 17  2  0
 16 18  1  0
 18 19  1  0
 19 20  1  0
 19 21  1  0
 19 22  1  0
 15 23  1  0
 23 24  2  0
 24  6  1  0
 23  9  1  0
  1 25  1  0
  1 26  1  0
  1 27  1  0
  5 28  1  0
  5 29  1  0
  7 30  1  0
  8 31  1  0
 10 32  1  0
 13 33  1  0
 13 34  1  0
 20 35  1  0
 20 36  1  0
 20 37  1  0
 21 38  1  0
 21 39  1  0
 21 40  1  0
 22 41  1  0
 22 42  1  0
 22 43  1  0
 24 44  1  0
M  END
>  <UniqueID>  (9) 
9

>  <SMILES>  (9) 
COC(=O)Cc1ccc2cc(C(N)=O)n(C(=O)OC(C)(C)C)c2c1

>  <Energy>  (9) 
73.69194673566459

>  <Genealogy>  (9) 
COC(=O)Cc1ccc2cc(C(N)=O)n(C(=O)OC(C)(C)C)c2c1 (3D coordinates assigned)
COC(=O)Cc1ccc2cc(C(N)=O)n(C(=O)OC(C)(C)C)c2c1 (optimized conformer: 73.69194673566459 kcal/mol)

>  <smiles>  (9) 
COC(=O)Cc1ccc2cc(C(N)=O)n(C(=O)OC(C)(C)C)c2c1

>  <score_type>  (9) 
oracle

>  <origin>  (9) 
adg

>  <m_score__min__energy>  (9) 
-8.7599999999999998

>  <m_primary>  (9) 
energy

$$$$
9:0
     RDKit          3D

 47 48  0  0  0  0  0  0  0  0999 V2000
   -3.1020   18.9060  -26.3010 C   0  0  0  0  0  0  0  0  0  0  0  0
   -2.2790   19.7120  -26.9700 C   0  0  0  0  0  0  0  0  0  0  0  0
   -2.7570   20.8720  -27.7370 C   0  0  0  0  0  0  0  0  0  0  0  0
   -3.1420   20.7410  -28.9320 O   0  0  0  0  0  0  0  0  0  0  0  0
   -2.7760   22.1260  -27.1210 O   0  0  0  0  0  0  0  0  0  0  0  0
   -3.3310   23.2800  -27.7450 C   0  0  0  0  0  0  0  0  0  0  0  0
   -2.2860   24.1640  -28.1350 O   0  0  0  0  0  0  0  0  0  0  0  0
   -1.2590   23.7890  -29.0050 C   0  0  0  0  0  0  0  0  0  0  0  0
   -0.0780   24.1900  -28.8200 O   0  0  0  0  0  0  0  0  0  0  0  0
   -1.5730   22.9280  -30.1890 C   0  0  0  0  0  0  0  0  0  0  0  0
   -2.8110   23.3200  -30.7760 O   0  0  0  0  0  0  0  0  0  0  0  0
   -3.5940   22.4630  -31.5590 C   0  0  0  0  0  0  0  0  0  0  0  0
   -3.0500   21.6710  -32.3760 O   0  0  0  0  0  0  0  0  0  0  0  0
   -5.0250   22.4920  -31.4340 N   0  0  0  0  0  0  0  0  0  0  0  0
   -5.7850   23.4280  -30.7960 C   0  0  0  0  0  0  0  0  0  0  0  0
   -5.2820   24.6940  -30.2180 C   0  0  0  0  0  0  0  0  0  0  0  0
   -5.7530   25.1570  -28.9510 N   0  0  0  0  0  0  0  0  0  0  0  0
   -4.4500   25.3940  -30.8540 O   0  0  0  0  0  0  0  0  0  0  0  0
   -7.1320   23.0770  -30.8500 C   0  0  0  0  0  0  0  0  0  0  0  0
   -7.1740   21.8910  -31.5470 C   0  0  0  0  0  0  0  0  0  0  0  0
   -8.2580   21.0920  -31.8870 C   0  0  0  0  0  0  0  0  0  0  0  0
   -8.0070   19.9040  -32.5930 C   0  0  0  0  0  0  0  0  0  0  0  0
   -6.6800   19.5240  -32.9460 C   0  0  0  0  0  0  0  0  0  0  0  0
   -6.4320   18.2890  -33.6680 N   0  0  0  0  0  0  0  0  0  0  0  0
   -6.8820   17.0020  -33.1250 C   0  0  0  0  0  0  0  0  0  0  0  0
   -5.7250   18.3080  -34.9550 C   0  0  0  0  0  0  0  0  0  0  0  0
   -5.6070   20.3740  -32.5760 C   0  0  0  0  0  0  0  0  0  0  0  0
   -5.8900   21.5600  -31.8900 C   0  0  0  0  0  0  0  0  0  0  0  0
   -2.6983   18.0497  -25.7408 H   0  0  0  0  0  0  0  0  0  0  0  0
   -4.1853   19.0967  -26.3088 H   0  0  0  0  0  0  0  0  0  0  0  0
   -1.1995   19.5016  -26.9478 H   0  0  0  0  0  0  0  0  0  0  0  0
   -3.9031   22.9756  -28.6338 H   0  0  0  0  0  0  0  0  0  0  0  0
   -3.9964   23.7933  -27.0353 H   0  0  0  0  0  0  0  0  0  0  0  0
   -0.7704   23.0303  -30.9342 H   0  0  0  0  0  0  0  0  0  0  0  0
   -1.6513   21.8820  -29.8578 H   0  0  0  0  0  0  0  0  0  0  0  0
   -5.4210   26.0710  -28.5710 H   0  0  0  0  0  0  0  0  0  0  0  0
   -6.4060   24.5840  -28.3720 H   0  0  0  0  0  0  0  0  0  0  0  0
   -7.9823   23.6307  -30.4253 H   0  0  0  0  0  0  0  0  0  0  0  0
   -9.2829   21.3811  -31.6115 H   0  0  0  0  0  0  0  0  0  0  0  0
   -8.8490   19.2562  -32.8781 H   0  0  0  0  0  0  0  0  0  0  0  0
   -6.8678   17.0427  -32.0258 H   0  0  0  0  0  0  0  0  0  0  0  0
   -7.9056   16.7958  -33.4711 H   0  0  0  0  0  0  0  0  0  0  0  0
   -6.2099   16.2029  -33.4711 H   0  0  0  0  0  0  0  0  0  0  0  0
   -4.6399   18.3372  -34.7769 H   0  0  0  0  0  0  0  0  0  0  0  0
   -5.9786   17.4027  -35.5261 H   0  0  0  0  0  0  0  0  0  0  0  0
   -6.0269   19.1984  -35.5261 H   0  0  0  0  0  0  0  0  0  0  0  0
   -4.5696   20.1054  -32.8242 H   0  0  0  0  0  0  0  0  0  0  0  0
  1  2  2  0
  2  3  1  0
  3  4  2  0
  3  5  1  0
  5  6  1  0
  6  7  1  0
  7  8  1  0
  8  9  2  0
  8 10  1  0
 10 11  1  0
 11 12  1  0
 12 13  2  0
 12 14  1  0
 14 15  1  0
 15 16  1  0
 16 17  1  0
 16 18  2  0
 15 19  2  0
 19 20  1  0
 20 21  2  0
 21 22  1  0
 22 23  2  0
 23 24  1  0
 24 25  1  0
 24 26  1  0
 23 27  1  0
 27 28  2  0
 28 14  1  0
 28 20  1  0
  1 29  1  0
  1 30  1  0
  2 31  1  0
  6 32  1  0
  6 33  1  0
 10 34  1  0
 10 35  1  0
 17 36  1  0
 17 37  1  0
 19 38  1  0
 21 39  1  0
 22 40  1  0
 25 41  1  0
 25 42  1  0
 25 43  1  0
 26 44  1  0
 26 45  1  0
 26 46  1  0
 27 47  1  0
M  END
>  <UniqueID>  (10) 
10

>  <SMILES>  (10) 
C=CC(=O)OCOC(=O)COC(=O)n1c(C(N)=O)cc2ccc(N(C)C)cc21

>  <Energy>  (10) 
78.6559182809961

>  <Genealogy>  (10) 
C=CC(=O)OCOC(=O)COC(=O)n1c(C(N)=O)cc2ccc(N(C)C)cc21 (3D coordinates assigned)
C=CC(=O)OCOC(=O)COC(=O)n1c(C(N)=O)cc2ccc(N(C)C)cc21 (optimized conformer: 78.6559182809961 kcal/mol)

>  <smiles>  (10) 
C=CC(=O)OCOC(=O)COC(=O)n1c(C(N)=O)cc2ccc(N(C)C)cc21

>  <score_type>  (10) 
oracle

>  <origin>  (10) 
adg

>  <m_score__min__energy>  (10) 
-8.4499999999999993

>  <m_primary>  (10) 
energy

$$$$
10:0
     RDKit          3D

 37 38  0  0  0  0  0  0  0  0999 V2000
   -7.1870   17.2820  -32.8950 C   0  0  0  0  0  0  0  0  0  0  0  0
   -7.2470   18.4500  -32.6020 C   0  0  0  0  0  0  0  0  0  0  0  0
   -7.3180   19.8440  -32.2500 C   0  0  0  0  0  0  0  0  0  0  0  0
   -8.5630   20.5180  -32.2850 C   0  0  0  0  0  0  0  0  0  0  0  0
   -8.6450   21.8790  -31.9460 C   0  0  0  0  0  0  0  0  0  0  0  0
   -7.4720   22.5310  -31.5750 C   0  0  0  0  0  0  0  0  0  0  0  0
   -7.2560   23.8450  -31.2220 C   0  0  0  0  0  0  0  0  0  0  0  0
   -5.8890   23.9390  -30.9680 C   0  0  0  0  0  0  0  0  0  0  0  0
   -5.2220   25.1720  -30.5010 C   0  0  0  0  0  0  0  0  0  0  0  0
   -3.8690   25.4510  -30.8500 N   0  0  0  0  0  0  0  0  0  0  0  0
   -5.8470   25.9770  -29.7590 O   0  0  0  0  0  0  0  0  0  0  0  0
   -5.2860   22.7340  -31.1610 N   0  0  0  0  0  0  0  0  0  0  0  0
   -3.8870   22.4240  -31.0950 C   0  0  0  0  0  0  0  0  0  0  0  0
   -3.1110   22.8450  -31.9940 O   0  0  0  0  0  0  0  0  0  0  0  0
   -3.3260   21.7110  -29.9020 C   0  0  0  0  0  0  0  0  0  0  0  0
   -3.3450   22.6280  -28.6780 C   0  0  0  0  0  0  0  0  0  0  0  0
   -2.5790   23.7930  -28.9280 O   0  0  0  0  0  0  0  0  0  0  0  0
   -2.4740   24.6030  -27.7720 C   0  0  0  0  0  0  0  0  0  0  0  0
   -1.3700   25.6500  -27.9450 C   0  0  0  0  0  0  0  0  0  0  0  0
   -1.2330   26.0040  -29.2950 O   0  0  0  0  0  0  0  0  0  0  0  0
   -6.2650   21.8830  -31.5290 C   0  0  0  0  0  0  0  0  0  0  0  0
   -6.1490   20.5320  -31.8700 C   0  0  0  0  0  0  0  0  0  0  0  0
   -7.1323   16.2164  -33.1623 H   0  0  0  0  0  0  0  0  0  0  0  0
   -9.4717   19.9725  -32.5795 H   0  0  0  0  0  0  0  0  0  0  0  0
   -9.6063   22.4130  -31.9729 H   0  0  0  0  0  0  0  0  0  0  0  0
   -8.0036   24.6491  -31.1549 H   0  0  0  0  0  0  0  0  0  0  0  0
   -3.1400   24.7050  -30.8080 H   0  0  0  0  0  0  0  0  0  0  0  0
   -3.9327   20.8171  -29.6951 H   0  0  0  0  0  0  0  0  0  0  0  0
   -2.2868   21.4202  -30.1150 H   0  0  0  0  0  0  0  0  0  0  0  0
   -4.3831   22.9163  -28.4560 H   0  0  0  0  0  0  0  0  0  0  0  0
   -2.9129   22.0913  -27.8205 H   0  0  0  0  0  0  0  0  0  0  0  0
   -3.4329   25.1139  -27.6004 H   0  0  0  0  0  0  0  0  0  0  0  0
   -2.2241   23.9633  -26.9127 H   0  0  0  0  0  0  0  0  0  0  0  0
   -1.6265   26.5459  -27.3605 H   0  0  0  0  0  0  0  0  0  0  0  0
   -0.4191   25.2246  -27.5915 H   0  0  0  0  0  0  0  0  0  0  0  0
   -2.0450   25.6730  -29.7600 H   0  0  0  0  0  0  0  0  0  0  0  0
   -5.1748   20.0220  -31.8424 H   0  0  0  0  0  0  0  0  0  0  0  0
  1  2  3  0
  2  3  1  0
  3  4  2  0
  4  5  1  0
  5  6  2  0
  6  7  1  0
  7  8  2  0
  8  9  1  0
  9 10  1  0
  9 11  2  0
  8 12  1  0
 12 13  1  0
 13 14  2  0
 13 15  1  0
 15 16  1  0
 16 17  1  0
 17 18  1  0
 18 19  1  0
 19 20  1  0
 12 21  1  0
 21 22  2  0
 22  3  1  0
 21  6  1  0
  1 23  1  0
  4 24  1  0
  5 25  1  0
  7 26  1  0
 10 27  1  0
 15 28  1  0
 15 29  1  0
 16 30  1  0
 16 31  1  0
 18 32  1  0
 18 33  1  0
 19 34  1  0
 19 35  1  0
 20 36  1  0
 22 37  1  0
M  CHG  1  10  -1
M  END
>  <UniqueID>  (11) 
11

>  <SMILES>  (11) 
C#Cc1ccc2cc(C([NH-])=O)n(C(=O)CCOCCO)c2c1

>  <Energy>  (11) 
73.07487184834837

>  <Genealogy>  (11) 
C#Cc1ccc2cc(C([NH-])=O)n(C(=O)CCOCCO)c2c1 (protonated)
C#Cc1ccc2cc(C([NH-])=O)n(C(=O)CCOCCO)c2c1 (3D coordinates assigned)
C#Cc1ccc2cc(C([NH-])=O)n(C(=O)CCOCCO)c2c1 (optimized conformer: 73.07487184834837 kcal/mol)

>  <smiles>  (11) 
C#Cc1ccc2cc(C(N)=O)n(C(=O)CCOCCO)c2c1

>  <score_type>  (11) 
oracle

>  <origin>  (11) 
adg

>  <m_score__min__energy>  (11) 
-10.789999999999999

>  <m_primary>  (11) 
energy

$$$$
11:0
     RDKit          3D

 38 39  0  0  0  0  0  0  0  0999 V2000
   -2.2730   24.9910  -26.6490 C   0  0  0  0  0  0  0  0  0  0  0  0
   -2.1270   23.8760  -27.5900 N   0  0  0  0  0  0  0  0  0  0  0  0
   -2.3680   22.4990  -27.1430 C   0  0  0  0  0  0  0  0  0  0  0  0
   -1.7460   24.1540  -28.9560 C   0  0  0  0  0  0  0  0  0  0  0  0
   -1.5370   25.3450  -29.3170 O   0  0  0  0  0  0  0  0  0  0  0  0
   -1.6250   23.0650  -29.9810 C   0  0  0  0  0  0  0  0  0  0  0  0
   -2.8930   22.4450  -30.1590 O   0  0  0  0  0  0  0  0  0  0  0  0
   -3.5660   22.4340  -31.3840 C   0  0  0  0  0  0  0  0  0  0  0  0
   -2.9220   22.3130  -32.4620 O   0  0  0  0  0  0  0  0  0  0  0  0
   -4.9940   22.5880  -31.4120 N   0  0  0  0  0  0  0  0  0  0  0  0
   -5.7330   23.6480  -30.9760 C   0  0  0  0  0  0  0  0  0  0  0  0
   -5.2010   24.9410  -30.4980 C   0  0  0  0  0  0  0  0  0  0  0  0
   -3.8710   25.3290  -30.8350 N   0  0  0  0  0  0  0  0  0  0  0  0
   -5.8940   25.6920  -29.7620 O   0  0  0  0  0  0  0  0  0  0  0  0
   -7.0940   23.3870  -31.1200 C   0  0  0  0  0  0  0  0  0  0  0  0
   -7.1680   22.1280  -31.6720 C   0  0  0  0  0  0  0  0  0  0  0  0
   -8.2800   21.3650  -32.0100 C   0  0  0  0  0  0  0  0  0  0  0  0
   -8.0630   20.0800  -32.5360 C   0  0  0  0  0  0  0  0  0  0  0  0
   -6.7460   19.5860  -32.7240 C   0  0  0  0  0  0  0  0  0  0  0  0
   -6.5260   18.1830  -33.2300 C   0  0  0  0  0  0  0  0  0  0  0  0
   -6.2140   18.1950  -34.5790 F   0  0  0  0  0  0  0  0  0  0  0  0
   -5.4840   17.6050  -32.5300 F   0  0  0  0  0  0  0  0  0  0  0  0
   -7.6670   17.4180  -33.0570 F   0  0  0  0  0  0  0  0  0  0  0  0
   -5.6420   20.3850  -32.3430 C   0  0  0  0  0  0  0  0  0  0  0  0
   -5.8880   21.6670  -31.8390 C   0  0  0  0  0  0  0  0  0  0  0  0
   -2.2231   24.6099  -25.6183 H   0  0  0  0  0  0  0  0  0  0  0  0
   -1.4622   25.7164  -26.8114 H   0  0  0  0  0  0  0  0  0  0  0  0
   -3.2433   25.4832  -26.8114 H   0  0  0  0  0  0  0  0  0  0  0  0
   -2.3738   22.4661  -26.0435 H   0  0  0  0  0  0  0  0  0  0  0  0
   -3.3401   22.1543  -27.5252 H   0  0  0  0  0  0  0  0  0  0  0  0
   -1.5707   21.8446  -27.5252 H   0  0  0  0  0  0  0  0  0  0  0  0
   -1.2887   23.4948  -30.9361 H   0  0  0  0  0  0  0  0  0  0  0  0
   -0.8935   22.3175  -29.6404 H   0  0  0  0  0  0  0  0  0  0  0  0
   -3.0730   24.6660  -30.7170 H   0  0  0  0  0  0  0  0  0  0  0  0
   -7.9316   24.0469  -30.8499 H   0  0  0  0  0  0  0  0  0  0  0  0
   -9.2988   21.7553  -31.8699 H   0  0  0  0  0  0  0  0  0  0  0  0
   -8.9237   19.4500  -32.8050 H   0  0  0  0  0  0  0  0  0  0  0  0
   -4.6137   20.0069  -32.4408 H   0  0  0  0  0  0  0  0  0  0  0  0
  1  2  1  0
  2  3  1  0
  2  4  1  0
  4  5  2  0
  4  6  1  0
  6  7  1  0
  7  8  1  0
  8  9  2  0
  8 10  1  0
 10 11  1  0
 11 12  1  0
 12 13  1  0
 12 14  2  0
 11 15  2  0
 15 16  1  0
 16 17  2  0
 17 18  1  0
 18 19  2  0
 19 20  1  0
 20 21  1  0
 20 22  1  0
 20 23  1  0
 19 24  1  0
 24 25  2  0
 25 10  1  0
 25 16  1  0
  1 26  1  0
  1 27  1  0
  1 28  1  0
  3 29  1  0
  3 30  1  0
  3 31  1  0
  6 32  1  0
  6 33  1  0
 13 34  1  0
 15 35  1  0
 17 36  1  0
 18 37  1  0
 24 38  1  0
M  CHG  1  13  -1
M  END
>  <UniqueID>  (12) 
12

>  <SMILES>  (12) 
CN(C)C(=O)COC(=O)n1c(C([NH-])=O)cc2ccc(C(F)(F)F)cc21

>  <Energy>  (12) 
71.67862906213016

>  <Genealogy>  (12) 
CN(C)C(=O)COC(=O)n1c(C([NH-])=O)cc2ccc(C(F)(F)F)cc21 (protonated)
CN(C)C(=O)COC(=O)n1c(C([NH-])=O)cc2ccc(C(F)(F)F)cc21 (3D coordinates assigned)
CN(C)C(=O)COC(=O)n1c(C([NH-])=O)cc2ccc(C(F)(F)F)cc21 (optimized conformer: 71.67862906213016 kcal/mol)

>  <smiles>  (12) 
CN(C)C(=O)COC(=O)n1c(C(N)=O)cc2ccc(C(F)(F)F)cc21

>  <score_type>  (12) 
oracle

>  <origin>  (12) 
adg

>  <m_score__min__energy>  (12) 
-9.8900000000000006

>  <m_primary>  (12) 
energy

$$$$
12:0
     RDKit          3D

 39 40  0  0  0  0  0  0  0  0999 V2000
    0.0300   21.1410  -34.9430 C   0  0  0  0  0  0  0  0  0  0  0  0
   -0.0420   19.8520  -33.6610 S   0  0  0  0  0  0  0  0  0  0  0  0
   -1.7930   20.0940  -33.3470 C   0  0  0  0  0  0  0  0  0  0  0  0
   -2.6590   19.3120  -33.9150 N   0  0  0  0  0  0  0  0  0  0  0  0
   -2.1980   21.1090  -32.4150 N   0  0  0  0  0  0  0  0  0  0  0  0
   -3.4400   21.8270  -32.5000 C   0  0  0  0  0  0  0  0  0  0  0  0
   -4.1140   21.8080  -33.5650 O   0  0  0  0  0  0  0  0  0  0  0  0
   -3.9130   22.6350  -31.3600 C   0  0  0  0  0  0  0  0  0  0  0  0
   -3.0840   23.1250  -30.5480 O   0  0  0  0  0  0  0  0  0  0  0  0
   -5.3130   22.9060  -31.1870 N   0  0  0  0  0  0  0  0  0  0  0  0
   -5.9000   24.0470  -30.7290 C   0  0  0  0  0  0  0  0  0  0  0  0
   -5.2000   25.3090  -30.4080 C   0  0  0  0  0  0  0  0  0  0  0  0
   -3.8620   25.5120  -30.8540 N   0  0  0  0  0  0  0  0  0  0  0  0
   -5.7650   26.2020  -29.7230 O   0  0  0  0  0  0  0  0  0  0  0  0
   -7.2840   23.8940  -30.6750 C   0  0  0  0  0  0  0  0  0  0  0  0
   -7.5290   22.6170  -31.1280 C   0  0  0  0  0  0  0  0  0  0  0  0
   -8.7320   21.9350  -31.2900 C   0  0  0  0  0  0  0  0  0  0  0  0
   -8.6820   20.6180  -31.7750 C   0  0  0  0  0  0  0  0  0  0  0  0
   -7.4390   20.0050  -32.0770 C   0  0  0  0  0  0  0  0  0  0  0  0
   -7.4000   18.6060  -32.6220 C   0  0  0  0  0  0  0  0  0  0  0  0
   -5.8320   18.3140  -33.4960 P   0  0  0  0  0  0  0  0  0  0  0  0
   -5.6580   19.3400  -34.5920 O   0  0  0  0  0  0  0  0  0  0  0  0
   -5.8360   16.7640  -34.1720 O   0  0  0  0  0  0  0  0  0  0  0  0
   -4.5500   18.4440  -32.4010 O   0  0  0  0  0  0  0  0  0  0  0  0
   -6.2390   20.7320  -31.9080 C   0  0  0  0  0  0  0  0  0  0  0  0
   -6.3220   22.0440  -31.4340 C   0  0  0  0  0  0  0  0  0  0  0  0
    0.0853   22.1304  -34.4655 H   0  0  0  0  0  0  0  0  0  0  0  0
    0.9209   20.9859  -35.5693 H   0  0  0  0  0  0  0  0  0  0  0  0
   -0.8726   21.0861  -35.5693 H   0  0  0  0  0  0  0  0  0  0  0  0
   -2.3450   18.5690  -34.5780 H   0  0  0  0  0  0  0  0  0  0  0  0
   -3.6790   19.3690  -33.6990 H   0  0  0  0  0  0  0  0  0  0  0  0
   -1.5030   21.4010  -31.6910 H   0  0  0  0  0  0  0  0  0  0  0  0
   -3.0500   25.2780  -30.2410 H   0  0  0  0  0  0  0  0  0  0  0  0
   -8.0241   24.6362  -30.3412 H   0  0  0  0  0  0  0  0  0  0  0  0
   -9.6921   22.4131  -31.0456 H   0  0  0  0  0  0  0  0  0  0  0  0
   -9.6162   20.0561  -31.9222 H   0  0  0  0  0  0  0  0  0  0  0  0
   -7.4917   17.8902  -31.7918 H   0  0  0  0  0  0  0  0  0  0  0  0
   -8.2335   18.4729  -33.3273 H   0  0  0  0  0  0  0  0  0  0  0  0
   -5.2654   20.2772  -32.1433 H   0  0  0  0  0  0  0  0  0  0  0  0
  1  2  1  0
  2  3  1  0
  3  4  2  0
  3  5  1  0
  5  6  1  0
  6  7  2  0
  6  8  1  0
  8  9  2  0
  8 10  1  0
 10 11  1  0
 11 12  1  0
 12 13  1  0
 12 14  2  0
 11 15  2  0
 15 16  1  0
 16 17  2  0
 17 18  1  0
 18 19  2  0
 19 20  1  0
 20 21  1  0
 21 22  2  0
 21 23  1  0
 21 24  1  0
 19 25  1  0
 25 26  2  0
 26 10  1  0
 26 16  1  0
  1 27  1  0
  1 28  1  0
  1 29  1  0
  4 30  1  0
  4 31  1  0
  5 32  1  0
 13 33  1  0
 15 34  1  0
 17 35  1  0
 18 36  1  0
 20 37  1  0
 20 38  1  0
 25 39  1  0
M  CHG  4   4   1  13  -1  23  -1  24  -1
M  END
>  <UniqueID>  (13) 
13

>  <SMILES>  (13) 
CSC(=[NH2+])NC(=O)C(=O)n1c(C([NH-])=O)cc2ccc(CP(=O)([O-])[O-])cc21

>  <Energy>  (13) 
71.01664414937925

>  <Genealogy>  (13) 
CSC(=[NH2+])NC(=O)C(=O)n1c(C([NH-])=O)cc2ccc(CP(=O)([O-])[O-])cc21 (protonated)
CSC(=[NH2+])NC(=O)C(=O)n1c(C([NH-])=O)cc2ccc(CP(=O)([O-])[O-])cc21 (3D coordinates assigned)
CSC(=[NH2+])NC(=O)C(=O)n1c(C([NH-])=O)cc2ccc(CP(=O)([O-])[O-])cc21 (optimized conformer: 71.01664414937925 kcal/mol)

>  <smiles>  (13) 
CSC(=N)NC(=O)C(=O)n1c(C(N)=O)cc2ccc(CP(=O)(O)O)cc21

>  <score_type>  (13) 
oracle

>  <origin>  (13) 
adg

>  <m_score__min__energy>  (13) 
-10.81

>  <m_primary>  (13) 
energy

$$$$
13:0
     RDKit          3D

 38 40  0  0  0  0  0  0  0  0999 V2000
   -3.8550   25.3030  -30.7600 N   0  0  0  0  0  0  0  0  0  0  0  0
   -5.2490   25.1400  -30.5120 C   0  0  0  0  0  0  0  0  0  0  0  0
   -5.8880   26.0680  -29.9480 O   0  0  0  0  0  0  0  0  0  0  0  0
   -5.9340   23.9030  -30.9410 C   0  0  0  0  0  0  0  0  0  0  0  0
   -7.3130   23.8010  -31.1160 C   0  0  0  0  0  0  0  0  0  0  0  0
   -7.5440   22.4810  -31.4330 C   0  0  0  0  0  0  0  0  0  0  0  0
   -8.7340   21.8220  -31.7240 C   0  0  0  0  0  0  0  0  0  0  0  0
   -8.6710   20.4540  -32.0380 C   0  0  0  0  0  0  0  0  0  0  0  0
   -7.4290   19.7660  -32.0420 C   0  0  0  0  0  0  0  0  0  0  0  0
   -7.3670   18.3130  -32.4360 C   0  0  0  0  0  0  0  0  0  0  0  0
   -6.9030   18.2120  -33.7330 F   0  0  0  0  0  0  0  0  0  0  0  0
   -6.5170   17.6130  -31.5970 F   0  0  0  0  0  0  0  0  0  0  0  0
   -8.6230   17.7340  -32.3600 F   0  0  0  0  0  0  0  0  0  0  0  0
   -6.2380   20.4780  -31.7620 C   0  0  0  0  0  0  0  0  0  0  0  0
   -6.3360   21.8360  -31.4440 C   0  0  0  0  0  0  0  0  0  0  0  0
   -5.3370   22.6960  -31.1530 N   0  0  0  0  0  0  0  0  0  0  0  0
   -3.9380   22.3800  -31.1140 C   0  0  0  0  0  0  0  0  0  0  0  0
   -3.3410   22.0730  -32.1810 O   0  0  0  0  0  0  0  0  0  0  0  0
   -3.1830   22.4650  -29.8500 C   0  0  0  0  0  0  0  0  0  0  0  0
   -3.2920   21.5400  -29.0000 O   0  0  0  0  0  0  0  0  0  0  0  0
   -2.3110   23.5790  -29.5980 N   0  0  0  0  0  0  0  0  0  0  0  0
   -1.7000   23.8290  -28.3230 C   0  0  0  0  0  0  0  0  0  0  0  0
   -1.3730   22.7450  -27.4940 C   0  0  0  0  0  0  0  0  0  0  0  0
   -0.7660   22.9600  -26.2530 C   0  0  0  0  0  0  0  0  0  0  0  0
   -0.4650   24.2580  -25.8380 C   0  0  0  0  0  0  0  0  0  0  0  0
   -0.7610   25.3440  -26.6670 C   0  0  0  0  0  0  0  0  0  0  0  0
   -1.3690   25.1350  -27.9090 C   0  0  0  0  0  0  0  0  0  0  0  0
   -1.5890   26.1990  -28.7220 F   0  0  0  0  0  0  0  0  0  0  0  0
   -3.5070   26.0570  -31.3920 H   0  0  0  0  0  0  0  0  0  0  0  0
   -8.0585   24.6043  -31.0211 H   0  0  0  0  0  0  0  0  0  0  0  0
   -9.6956   22.3560  -31.7087 H   0  0  0  0  0  0  0  0  0  0  0  0
   -9.5947   19.9096  -32.2836 H   0  0  0  0  0  0  0  0  0  0  0  0
   -5.2600   19.9755  -31.7938 H   0  0  0  0  0  0  0  0  0  0  0  0
   -1.9940   24.1530  -30.4130 H   0  0  0  0  0  0  0  0  0  0  0  0
   -1.5957   21.7192  -27.8228 H   0  0  0  0  0  0  0  0  0  0  0  0
   -0.5255   22.1055  -25.6033 H   0  0  0  0  0  0  0  0  0  0  0  0
    0.0054   24.4266  -24.8581 H   0  0  0  0  0  0  0  0  0  0  0  0
   -0.5151   26.3656  -26.3416 H   0  0  0  0  0  0  0  0  0  0  0  0
  1  2  1  0
  2  3  2  0
  2  4  1  0
  4  5  2  0
  5  6  1  0
  6  7  2  0
  7  8  1  0
  8  9  2  0
  9 10  1  0
 10 11  1  0
 10 12  1  0
 10 13  1  0
  9 14  1  0
 14 15  2  0
 15 16  1  0
 16 17  1  0
 17 18  2  0
 17 19  1  0
 19 20  2  0
 19 21  1  0
 21 22  1  0
 22 23  2  0
 23 24  1  0
 24 25  2  0
 25 26  1  0
 26 27  2  0
 27 28  1  0
 16  4  1  0
 27 22  1  0
 15  6  1  0
  1 29  1  0
  5 30  1  0
  7 31  1  0
  8 32  1  0
 14 33  1  0
 21 34  1  0
 23 35  1  0
 24 36  1  0
 25 37  1  0
 26 38  1  0
M  CHG  1   1  -1
M  END
>  <UniqueID>  (14) 
14

>  <SMILES>  (14) 
[NH-]C(=O)c1cc2ccc(C(F)(F)F)cc2n1C(=O)C(=O)Nc1ccccc1F

>  <Energy>  (14) 
85.38843535490814

>  <Genealogy>  (14) 
[NH-]C(=O)c1cc2ccc(C(F)(F)F)cc2n1C(=O)C(=O)Nc1ccccc1F (protonated)
[NH-]C(=O)c1cc2ccc(C(F)(F)F)cc2n1C(=O)C(=O)Nc1ccccc1F (3D coordinates assigned)
[NH-]C(=O)c1cc2ccc(C(F)(F)F)cc2n1C(=O)C(=O)Nc1ccccc1F (optimized conformer: 85.38843535490814 kcal/mol)

>  <smiles>  (14) 
NC(=O)c1cc2ccc(C(F)(F)F)cc2n1C(=O)C(=O)Nc1ccccc1F

>  <score_type>  (14) 
oracle

>  <origin>  (14) 
adg

>  <m_score__min__energy>  (14) 
-11.380000000000001

>  <m_primary>  (14) 
energy

$$$$
14:0
     RDKit          3D

 43 44  0  0  0  0  0  0  0  0999 V2000
   -8.0060   18.5830  -32.7150 C   0  0  0  0  0  0  0  0  0  0  0  0
   -7.7960   19.9880  -32.2340 C   0  0  0  0  0  0  0  0  0  0  0  0
   -8.9120   20.8280  -31.9910 C   0  0  0  0  0  0  0  0  0  0  0  0
   -8.7330   22.1280  -31.4900 C   0  0  0  0  0  0  0  0  0  0  0  0
   -7.4320   22.5590  -31.2430 C   0  0  0  0  0  0  0  0  0  0  0  0
   -6.9780   23.7420  -30.7040 C   0  0  0  0  0  0  0  0  0  0  0  0
   -5.5930   23.6090  -30.6410 C   0  0  0  0  0  0  0  0  0  0  0  0
   -4.6940   24.6640  -30.1290 C   0  0  0  0  0  0  0  0  0  0  0  0
   -4.0600   24.5460  -28.8540 N   0  0  0  0  0  0  0  0  0  0  0  0
   -4.4450   25.6660  -30.8490 O   0  0  0  0  0  0  0  0  0  0  0  0
   -5.2050   22.3940  -31.1170 N   0  0  0  0  0  0  0  0  0  0  0  0
   -3.8860   21.8220  -31.0770 C   0  0  0  0  0  0  0  0  0  0  0  0
   -3.4330   21.2460  -32.1020 O   0  0  0  0  0  0  0  0  0  0  0  0
   -3.0910   21.8590  -29.8320 C   0  0  0  0  0  0  0  0  0  0  0  0
   -3.6790   21.6130  -28.7440 O   0  0  0  0  0  0  0  0  0  0  0  0
   -1.6780   22.1680  -29.8190 N   0  0  0  0  0  0  0  0  0  0  0  0
   -0.7250   21.0960  -30.1220 C   0  0  0  0  0  0  0  0  0  0  0  0
   -1.1830   23.4920  -29.4040 C   0  0  0  0  0  0  0  0  0  0  0  0
   -1.7860   23.8850  -28.1150 N   0  0  0  0  0  0  0  0  0  0  0  0
   -1.5120   22.8700  -27.0830 C   0  0  0  0  0  0  0  0  0  0  0  0
   -1.2600   25.1890  -27.6830 C   0  0  0  0  0  0  0  0  0  0  0  0
   -6.3430   21.7610  -31.4780 C   0  0  0  0  0  0  0  0  0  0  0  0
   -6.4940   20.4540  -31.9530 C   0  0  0  0  0  0  0  0  0  0  0  0
   -8.1065   17.9106  -31.8503 H   0  0  0  0  0  0  0  0  0  0  0  0
   -8.9210   18.5368  -33.3237 H   0  0  0  0  0  0  0  0  0  0  0  0
   -7.1445   18.2712  -33.3237 H   0  0  0  0  0  0  0  0  0  0  0  0
   -9.9274   20.4583  -32.1967 H   0  0  0  0  0  0  0  0  0  0  0  0
   -9.5940   22.7854  -31.2987 H   0  0  0  0  0  0  0  0  0  0  0  0
   -7.5805   24.6072  -30.3902 H   0  0  0  0  0  0  0  0  0  0  0  0
   -4.0910   23.6520  -28.3150 H   0  0  0  0  0  0  0  0  0  0  0  0
   -3.4790   25.3300  -28.4840 H   0  0  0  0  0  0  0  0  0  0  0  0
   -0.3442   20.6677  -29.1831 H   0  0  0  0  0  0  0  0  0  0  0  0
   -1.2291   20.3112  -30.7051 H   0  0  0  0  0  0  0  0  0  0  0  0
    0.1134   21.5047  -30.7051 H   0  0  0  0  0  0  0  0  0  0  0  0
   -0.0891   23.4525  -29.2955 H   0  0  0  0  0  0  0  0  0  0  0  0
   -1.4601   24.2327  -30.1686 H   0  0  0  0  0  0  0  0  0  0  0  0
   -1.6331   23.3188  -26.0860 H   0  0  0  0  0  0  0  0  0  0  0  0
   -2.2162   22.0326  -27.1962 H   0  0  0  0  0  0  0  0  0  0  0  0
   -0.4820   22.5008  -27.1962 H   0  0  0  0  0  0  0  0  0  0  0  0
   -1.2428   25.2316  -26.5840 H   0  0  0  0  0  0  0  0  0  0  0  0
   -0.2390   25.3193  -28.0710 H   0  0  0  0  0  0  0  0  0  0  0  0
   -1.9048   25.9913  -28.0710 H   0  0  0  0  0  0  0  0  0  0  0  0
   -5.6188   19.8050  -32.1039 H   0  0  0  0  0  0  0  0  0  0  0  0
  1  2  1  0
  2  3  2  0
  3  4  1  0
  4  5  2  0
  5  6  1  0
  6  7  2  0
  7  8  1  0
  8  9  1  0
  8 10  2  0
  7 11  1  0
 11 12  1  0
 12 13  2  0
 12 14  1  0
 14 15  2  0
 14 16  1  0
 16 17  1  0
 16 18  1  0
 18 19  1  0
 19 20  1  0
 19 21  1  0
 11 22  1  0
 22 23  2  0
 23  2  1  0
 22  5  1  0
  1 24  1  0
  1 25  1  0
  1 26  1  0
  3 27  1  0
  4 28  1  0
  6 29  1  0
  9 30  1  0
  9 31  1  0
 17 32  1  0
 17 33  1  0
 17 34  1  0
 18 35  1  0
 18 36  1  0
 20 37  1  0
 20 38  1  0
 20 39  1  0
 21 40  1  0
 21 41  1  0
 21 42  1  0
 23 43  1  0
M  END
>  <UniqueID>  (15) 
15

>  <SMILES>  (15) 
Cc1ccc2cc(C(N)=O)n(C(=O)C(=O)N(C)CN(C)C)c2c1

>  <Energy>  (15) 
81.04146449988018

>  <Genealogy>  (15) 
Cc1ccc2cc(C(N)=O)n(C(=O)C(=O)N(C)CN(C)C)c2c1 (3D coordinates assigned)
Cc1ccc2cc(C(N)=O)n(C(=O)C(=O)N(C)CN(C)C)c2c1 (optimized conformer: 81.04146449988018 kcal/mol)

>  <smiles>  (15) 
Cc1ccc2cc(C(N)=O)n(C(=O)C(=O)N(C)CN(C)C)c2c1

>  <score_type>  (15) 
oracle

>  <origin>  (15) 
adg

>  <m_score__min__energy>  (15) 
-8.5299999999999994

>  <m_primary>  (15) 
energy

$$$$
15:0
     RDKit          3D

 83 89  0  0  0  0  0  0  0  0999 V2000
   -3.8660   24.8780  -30.6770 N   0  0  0  0  0  0  0  0  0  0  0  0
   -4.0560   23.4720  -30.8030 C   0  0  0  0  0  0  0  0  0  0  0  0
   -5.2150   22.9920  -30.6850 O   0  0  0  0  0  0  0  0  0  0  0  0
   -2.9260   22.5780  -31.1240 C   0  0  0  0  0  0  0  0  0  0  0  0
   -2.9330   21.6940  -32.2010 C   0  0  0  0  0  0  0  0  0  0  0  0
   -1.6900   21.1070  -32.2010 C   0  0  0  0  0  0  0  0  0  0  0  0
   -1.1680   20.1210  -33.0310 C   0  0  0  0  0  0  0  0  0  0  0  0
    0.1200   19.6420  -32.7500 C   0  0  0  0  0  0  0  0  0  0  0  0
    0.8570   20.1450  -31.6480 C   0  0  0  0  0  0  0  0  0  0  0  0
    2.1180   19.5510  -31.2950 N   0  0  0  0  0  0  0  0  0  0  0  0
    2.4670   19.2280  -29.9060 C   0  0  0  0  0  0  0  0  0  0  0  0
    2.9470   17.7700  -29.7980 C   0  0  0  0  0  0  0  0  0  0  0  0
    3.9830   17.4240  -30.8890 C   0  0  0  0  0  0  0  0  0  0  0  0
    3.4420   17.7470  -32.2940 C   0  0  1  0  0  0  0  0  0  0  0  0
    2.2810   16.8840  -32.5430 N   0  0  0  0  0  0  0  0  0  0  0  0
    1.4820   16.7130  -33.7230 C   0  0  0  0  0  0  0  0  0  0  0  0
    2.0530   16.3550  -34.7860 O   0  0  0  0  0  0  0  0  0  0  0  0
    0.0180   16.8350  -33.7200 C   0  0  0  0  0  0  0  0  0  0  0  0
   -0.6900   16.4940  -32.5610 C   0  0  0  0  0  0  0  0  0  0  0  0
   -2.0640   16.7150  -32.4830 C   0  0  0  0  0  0  0  0  0  0  0  0
   -2.7640   17.2510  -33.5790 C   0  0  0  0  0  0  0  0  0  0  0  0
   -4.1670   17.5720  -33.4700 N   0  0  0  0  0  0  0  0  0  0  0  0
   -5.1380   16.8680  -34.3200 C   0  0  0  0  0  0  0  0  0  0  0  0
   -6.4700   17.6430  -34.4120 C   0  0  2  0  0  0  0  0  0  0  0  0
   -6.1990   19.1390  -34.6690 C   0  0  0  0  0  0  0  0  0  0  0  0
   -5.2440   19.7640  -33.6280 C   0  0  0  0  0  0  0  0  0  0  0  0
   -4.6380   18.7150  -32.6720 C   0  0  1  0  0  0  0  0  0  0  0  0
   -5.6070   18.2020  -31.5750 C   0  0  0  0  0  0  0  0  0  0  0  0
   -7.0380   18.1830  -31.9620 N   0  0  0  0  0  0  0  0  0  0  0  0
   -7.9320   19.3480  -31.6730 C   0  0  2  0  0  0  0  0  0  0  0  0
   -8.9530   19.6860  -32.7910 C   0  0  0  0  0  0  0  0  0  0  0  0
   -9.8710   20.8410  -32.3670 C   0  0  0  0  0  0  0  0  0  0  0  0
   -9.0710   22.0400  -31.9520 C   0  0  0  0  0  0  0  0  0  0  0  0
   -9.5970   23.1850  -31.9820 O   0  0  0  0  0  0  0  0  0  0  0  0
   -7.7270   21.8870  -31.4830 N   0  0  0  0  0  0  0  0  0  0  0  0
   -7.1070   20.5970  -31.4250 C   0  0  0  0  0  0  0  0  0  0  0  0
   -5.8780   20.5190  -31.1500 O   0  0  0  0  0  0  0  0  0  0  0  0
   -7.3800   17.4020  -33.1790 C   0  0  0  0  0  0  0  0  0  0  0  0
   -2.0560   17.5360  -34.7630 C   0  0  0  0  0  0  0  0  0  0  0  0
   -0.6760   17.3230  -34.8360 C   0  0  0  0  0  0  0  0  0  0  0  0
    3.1020   19.2470  -32.3330 C   0  0  0  0  0  0  0  0  0  0  0  0
    0.3020   21.1580  -30.8370 C   0  0  0  0  0  0  0  0  0  0  0  0
   -0.9790   21.6290  -31.1490 C   0  0  0  0  0  0  0  0  0  0  0  0
   -1.7270   22.5320  -30.4750 N   0  0  0  0  0  0  0  0  0  0  0  0
   -1.3450   23.2160  -29.2710 C   0  0  0  0  0  0  0  0  0  0  0  0
   -1.0450   22.5650  -28.2350 O   0  0  0  0  0  0  0  0  0  0  0  0
   -1.2820   24.6030  -29.2420 O   0  0  0  0  0  0  0  0  0  0  0  0
   -2.9240   25.2730  -30.4620 H   0  0  0  0  0  0  0  0  0  0  0  0
   -3.7587   21.5056  -32.9029 H   0  0  0  0  0  0  0  0  0  0  0  0
   -1.7466   19.7293  -33.8806 H   0  0  0  0  0  0  0  0  0  0  0  0
    0.5637   18.8669  -33.3922 H   0  0  0  0  0  0  0  0  0  0  0  0
    3.2700   19.8998  -29.5686 H   0  0  0  0  0  0  0  0  0  0  0  0
    1.5753   19.3575  -29.2750 H   0  0  0  0  0  0  0  0  0  0  0  0
    3.4066   17.6189  -28.8101 H   0  0  0  0  0  0  0  0  0  0  0  0
    2.0755   17.1127  -29.9339 H   0  0  0  0  0  0  0  0  0  0  0  0
    4.8977   18.0093  -30.7136 H   0  0  0  0  0  0  0  0  0  0  0  0
    4.1960   16.3461  -30.8374 H   0  0  0  0  0  0  0  0  0  0  0  0
    4.1751   17.5503  -33.0902 H   0  0  0  0  0  0  0  0  0  0  0  0
   -0.1586   16.0490  -31.7069 H   0  0  0  0  0  0  0  0  0  0  0  0
   -2.6049   16.4684  -31.5575 H   0  0  0  0  0  0  0  0  0  0  0  0
   -4.7167   16.7588  -35.3302 H   0  0  0  0  0  0  0  0  0  0  0  0
   -5.3399   15.8832  -33.8735 H   0  0  0  0  0  0  0  0  0  0  0  0
   -7.0347   17.2521  -35.2713 H   0  0  0  0  0  0  0  0  0  0  0  0
   -5.7500   19.2480  -35.6673 H   0  0  0  0  0  0  0  0  0  0  0  0
   -7.1612   19.6667  -34.5933 H   0  0  0  0  0  0  0  0  0  0  0  0
   -4.4251   20.2699  -34.1604 H   0  0  0  0  0  0  0  0  0  0  0  0
   -5.8299   20.4691  -33.0201 H   0  0  0  0  0  0  0  0  0  0  0  0
   -3.8184   19.2178  -32.1378 H   0  0  0  0  0  0  0  0  0  0  0  0
   -5.3112   17.1759  -31.3112 H   0  0  0  0  0  0  0  0  0  0  0  0
   -5.5246   18.9095  -30.7368 H   0  0  0  0  0  0  0  0  0  0  0  0
   -8.5031   19.0374  -30.7857 H   0  0  0  0  0  0  0  0  0  0  0  0
   -8.4072   19.9758  -33.7010 H   0  0  0  0  0  0  0  0  0  0  0  0
   -9.5728   18.7971  -32.9800 H   0  0  0  0  0  0  0  0  0  0  0  0
  -10.5177   21.1156  -33.2134 H   0  0  0  0  0  0  0  0  0  0  0  0
  -10.4765   20.5105  -31.5102 H   0  0  0  0  0  0  0  0  0  0  0  0
   -7.1730   22.7360  -31.2290 H   0  0  0  0  0  0  0  0  0  0  0  0
   -7.3243   16.3340  -32.9217 H   0  0  0  0  0  0  0  0  0  0  0  0
   -8.3840   17.7376  -33.4778 H   0  0  0  0  0  0  0  0  0  0  0  0
   -2.5937   17.9297  -35.6381 H   0  0  0  0  0  0  0  0  0  0  0  0
   -0.1349   17.5384  -35.7692 H   0  0  0  0  0  0  0  0  0  0  0  0
    4.0149   19.8346  -32.1561 H   0  0  0  0  0  0  0  0  0  0  0  0
    2.6862   19.5032  -33.3186 H   0  0  0  0  0  0  0  0  0  0  0  0
    0.8611   21.5667  -29.9824 H   0  0  0  0  0  0  0  0  0  0  0  0
  1  2  1  0
  2  3  2  0
  2  4  1  0
  4  5  2  0
  5  6  1  0
  6  7  2  0
  7  8  1  0
  8  9  2  0
  9 10  1  0
 10 11  1  0
 11 12  1  0
 12 13  1  0
 13 14  1  0
 14 15  1  0
 15 16  1  0
 16 17  2  0
 16 18  1  0
 18 19  2  0
 19 20  1  0
 20 21  2  0
 21 22  1  0
 22 23  1  0
 23 24  1  0
 24 25  1  0
 25 26  1  0
 26 27  1  0
 27 28  1  0
 28 29  1  0
 29 30  1  0
 30 31  1  0
 31 32  1  0
 32 33  1  0
 33 34  2  0
 33 35  1  0
 35 36  1  0
 36 37  2  0
 29 38  1  0
 21 39  1  0
 39 40  2  0
 14 41  1  0
  9 42  1  0
 42 43  2  0
 43 44  1  0
 44 45  1  0
 45 46  2  0
 45 47  1  0
 44  4  1  0
 43  6  1  0
 41 10  1  0
 40 18  1  0
 27 22  1  0
 36 30  1  0
 38 24  1  0
  1 48  1  0
  5 49  1  0
  7 50  1  0
  8 51  1  0
 11 52  1  0
 11 53  1  0
 12 54  1  0
 12 55  1  0
 13 56  1  0
 13 57  1  0
 14 58  1  6
 19 59  1  0
 20 60  1  0
 23 61  1  0
 23 62  1  0
 24 63  1  6
 25 64  1  0
 25 65  1  0
 26 66  1  0
 26 67  1  0
 27 68  1  1
 28 69  1  0
 28 70  1  0
 30 71  1  1
 31 72  1  0
 31 73  1  0
 32 74  1  0
 32 75  1  0
 35 76  1  0
 38 77  1  0
 38 78  1  0
 39 79  1  0
 40 80  1  0
 41 81  1  0
 41 82  1  0
 42 83  1  0
M  CHG  3   1  -1  15  -1  47  -1
M  END
>  <UniqueID>  (16) 
16

>  <SMILES>  (16) 
[NH-]C(=O)c1cc2ccc(N3CCC[C@@H]([N-]C(=O)c4ccc(N5C[C@@H]6CCC5CN(C5CCC(=O)NC5=O)C6)cc4)C3)cc2n1C(=O)[O-]

>  <Energy>  (16) 
165.50519269764936

>  <Genealogy>  (16) 
[NH-]C(=O)c1cc2ccc(N3CCCC([N-]C(=O)c4ccc(N5CC6CCC5CN(C5CCC(=O)NC5=O)C6)cc4)C3)cc2n1C(=O)[O-] (protonated)
[NH-]C(=O)c1cc2ccc(N3CCC[C@@H]([N-]C(=O)c4ccc(N5C[C@@H]6CCC5CN(C5CCC(=O)NC5=O)C6)cc4)C3)cc2n1C(=O)[O-] (chirality)
[NH-]C(=O)c1cc2ccc(N3CCC[C@@H]([N-]C(=O)c4ccc(N5C[C@@H]6CCC5CN(C5CCC(=O)NC5=O)C6)cc4)C3)cc2n1C(=O)[O-] (3D coordinates assigned)
[NH-]C(=O)c1cc2ccc(N3CCC[C@@H]([N-]C(=O)c4ccc(N5C[C@@H]6CCC5CN(C5CCC(=O)NC5=O)C6)cc4)C3)cc2n1C(=O)[O-] (nonaromatic ring conformer: 165.50519269764936 kcal/mol)

>  <smiles>  (16) 
NC(=O)c1cc2ccc(N3CCCC(NC(=O)c4ccc(N5CC6CCC5CN(C5CCC(=O)NC5=O)C6)cc4)C3)cc2n1C(=O)O

>  <score_type>  (16) 
oracle

>  <origin>  (16) 
adg

>  <m_score__min__energy>  (16) 
-12.42

>  <m_primary>  (16) 
energy

$$$$
16:0
     RDKit          3D

 44 45  0  0  0  0  0  0  0  0999 V2000
   -3.4800   21.6540  -33.0940 C   0  0  0  0  0  0  0  0  0  0  0  0
   -3.6690   20.4060  -32.6690 C   0  0  0  0  0  0  0  0  0  0  0  0
   -4.4790   19.4220  -33.4120 C   0  0  0  0  0  0  0  0  0  0  0  0
   -4.0210   18.9410  -34.4810 O   0  0  0  0  0  0  0  0  0  0  0  0
   -5.7710   19.0010  -32.9460 N   0  0  0  0  0  0  0  0  0  0  0  0
   -6.2740   17.7340  -32.9360 C   0  0  0  0  0  0  0  0  0  0  0  0
   -5.5150   16.5160  -33.3020 C   0  0  0  0  0  0  0  0  0  0  0  0
   -4.9150   16.3820  -34.5920 N   0  0  0  0  0  0  0  0  0  0  0  0
   -5.3980   15.5740  -32.4740 O   0  0  0  0  0  0  0  0  0  0  0  0
   -7.5930   17.7400  -32.4800 C   0  0  0  0  0  0  0  0  0  0  0  0
   -7.8860   19.0610  -32.2230 C   0  0  0  0  0  0  0  0  0  0  0  0
   -9.0600   19.6470  -31.7570 C   0  0  0  0  0  0  0  0  0  0  0  0
   -9.0820   21.0440  -31.6060 C   0  0  0  0  0  0  0  0  0  0  0  0
   -7.9470   21.8250  -31.9370 C   0  0  0  0  0  0  0  0  0  0  0  0
   -7.9690   23.3140  -31.7320 C   0  0  0  0  0  0  0  0  0  0  0  0
   -6.5970   23.7980  -31.3930 C   0  0  0  0  0  0  0  0  0  0  0  0
   -5.7260   23.8970  -32.3020 O   0  0  0  0  0  0  0  0  0  0  0  0
   -6.2780   24.0770  -30.0590 O   0  0  0  0  0  0  0  0  0  0  0  0
   -4.9990   23.8150  -29.4830 C   0  0  1  0  0  0  0  0  0  0  0  0
   -4.5020   22.4280  -29.8950 C   0  0  0  0  0  0  0  0  0  0  0  0
   -4.0340   24.8660  -29.9390 C   0  0  0  0  0  0  0  0  0  0  0  0
   -4.3560   25.6560  -30.8690 O   0  0  0  0  0  0  0  0  0  0  0  0
   -2.7760   24.9530  -29.3350 O   0  0  0  0  0  0  0  0  0  0  0  0
   -2.5370   24.5270  -28.0000 C   0  0  0  0  0  0  0  0  0  0  0  0
   -6.7710   21.1940  -32.3990 C   0  0  0  0  0  0  0  0  0  0  0  0
   -6.7720   19.8020  -32.5220 C   0  0  0  0  0  0  0  0  0  0  0  0
   -2.8667   22.3496  -32.5024 H   0  0  0  0  0  0  0  0  0  0  0  0
   -3.9372   21.9892  -34.0367 H   0  0  0  0  0  0  0  0  0  0  0  0
   -3.2009   20.0956  -31.7232 H   0  0  0  0  0  0  0  0  0  0  0  0
   -4.4010   15.5060  -34.8390 H   0  0  0  0  0  0  0  0  0  0  0  0
   -4.9330   17.1600  -35.2870 H   0  0  0  0  0  0  0  0  0  0  0  0
   -8.2580   16.8730  -32.3528 H   0  0  0  0  0  0  0  0  0  0  0  0
   -9.9420   19.0360  -31.5148 H   0  0  0  0  0  0  0  0  0  0  0  0
   -9.9897   21.5363  -31.2269 H   0  0  0  0  0  0  0  0  0  0  0  0
   -8.3118   23.8047  -32.6549 H   0  0  0  0  0  0  0  0  0  0  0  0
   -8.6543   23.5571  -30.9066 H   0  0  0  0  0  0  0  0  0  0  0  0
   -5.0807   23.8390  -28.3863 H   0  0  0  0  0  0  0  0  0  0  0  0
   -4.2887   21.8327  -28.9950 H   0  0  0  0  0  0  0  0  0  0  0  0
   -5.2755   21.9241  -30.4931 H   0  0  0  0  0  0  0  0  0  0  0  0
   -3.5845   22.5300  -30.4931 H   0  0  0  0  0  0  0  0  0  0  0  0
   -2.9519   25.2665  -27.2993 H   0  0  0  0  0  0  0  0  0  0  0  0
   -3.0204   23.5530  -27.8338 H   0  0  0  0  0  0  0  0  0  0  0  0
   -1.4538   24.4319  -27.8338 H   0  0  0  0  0  0  0  0  0  0  0  0
   -5.8778   21.7827  -32.6552 H   0  0  0  0  0  0  0  0  0  0  0  0
  1  2  2  0
  2  3  1  0
  3  4  2  0
  3  5  1  0
  5  6  1  0
  6  7  1  0
  7  8  1  0
  7  9  2  0
  6 10  2  0
 10 11  1  0
 11 12  2  0
 12 13  1  0
 13 14  2  0
 14 15  1  0
 15 16  1  0
 16 17  2  0
 16 18  1  0
 18 19  1  0
 19 20  1  0
 19 21  1  0
 21 22  2  0
 21 23  1  0
 23 24  1  0
 14 25  1  0
 25 26  2  0
 26  5  1  0
 26 11  1  0
  1 27  1  0
  1 28  1  0
  2 29  1  0
  8 30  1  0
  8 31  1  0
 10 32  1  0
 12 33  1  0
 13 34  1  0
 15 35  1  0
 15 36  1  0
 19 37  1  1
 20 38  1  0
 20 39  1  0
 20 40  1  0
 24 41  1  0
 24 42  1  0
 24 43  1  0
 25 44  1  0
M  END
>  <UniqueID>  (17) 
17

>  <SMILES>  (17) 
C=CC(=O)n1c(C(N)=O)cc2ccc(CC(=O)O[C@@H](C)C(=O)OC)cc21

>  <Energy>  (17) 
73.23799132457475

>  <Genealogy>  (17) 
C=CC(=O)n1c(C(N)=O)cc2ccc(CC(=O)O[C@@H](C)C(=O)OC)cc21 (chirality)
C=CC(=O)n1c(C(N)=O)cc2ccc(CC(=O)O[C@@H](C)C(=O)OC)cc21 (3D coordinates assigned)
C=CC(=O)n1c(C(N)=O)cc2ccc(CC(=O)O[C@@H](C)C(=O)OC)cc21 (optimized conformer: 73.23799132457475 kcal/mol)

>  <smiles>  (17) 
C=CC(=O)n1c(C(N)=O)cc2ccc(CC(=O)OC(C)C(=O)OC)cc21

>  <score_type>  (17) 
oracle

>  <origin>  (17) 
adg

>  <m_score__min__energy>  (17) 
-8.5700000000000003

>  <m_primary>  (17) 
energy

$$$$
17:0
     RDKit          3D

 40 41  0  0  0  0  0  0  0  0999 V2000
   -2.1900   23.1150  -29.6720 C   0  0  0  0  0  0  0  0  0  0  0  0
   -2.6810   24.5230  -29.3500 C   0  0  0  0  0  0  0  0  0  0  0  0
   -3.5070   25.0390  -30.4360 N   0  0  0  0  0  0  0  0  0  0  0  0
   -4.9360   24.9640  -30.4490 C   0  0  0  0  0  0  0  0  0  0  0  0
   -5.6080   25.6890  -31.2320 O   0  0  0  0  0  0  0  0  0  0  0  0
   -5.6320   23.9740  -29.5700 C   0  0  0  0  0  0  0  0  0  0  0  0
   -6.1980   22.8570  -30.4010 C   0  0  0  0  0  0  0  0  0  0  0  0
   -7.5940   22.6170  -30.4160 C   0  0  0  0  0  0  0  0  0  0  0  0
   -8.1310   21.5630  -31.1750 C   0  0  0  0  0  0  0  0  0  0  0  0
   -7.2470   20.7550  -31.8840 C   0  0  0  0  0  0  0  0  0  0  0  0
   -7.4980   19.6980  -32.7300 C   0  0  0  0  0  0  0  0  0  0  0  0
   -6.2460   19.2820  -33.1790 C   0  0  0  0  0  0  0  0  0  0  0  0
   -6.0450   18.1540  -34.1130 C   0  0  0  0  0  0  0  0  0  0  0  0
   -4.9170   18.1040  -34.9880 N   0  0  0  0  0  0  0  0  0  0  0  0
   -6.8620   17.1950  -34.1060 O   0  0  0  0  0  0  0  0  0  0  0  0
   -5.2620   20.0490  -32.6350 N   0  0  0  0  0  0  0  0  0  0  0  0
   -3.8610   20.0210  -32.9530 C   0  0  0  0  0  0  0  0  0  0  0  0
   -3.2360   18.9270  -32.9160 O   0  0  0  0  0  0  0  0  0  0  0  0
   -3.1360   21.2550  -33.2880 C   0  0  0  0  0  0  0  0  0  0  0  0
   -3.7740   22.2860  -33.6370 O   0  0  0  0  0  0  0  0  0  0  0  0
   -1.7410   21.2810  -33.1990 O   0  0  0  0  0  0  0  0  0  0  0  0
   -1.0430   20.9430  -32.0070 C   0  0  0  0  0  0  0  0  0  0  0  0
   -5.8910   20.9530  -31.8520 C   0  0  0  0  0  0  0  0  0  0  0  0
   -5.3310   22.0130  -31.1300 C   0  0  0  0  0  0  0  0  0  0  0  0
   -1.9999   22.5699  -28.7357 H   0  0  0  0  0  0  0  0  0  0  0  0
   -2.9561   22.5842  -30.2563 H   0  0  0  0  0  0  0  0  0  0  0  0
   -1.2600   23.1757  -30.2563 H   0  0  0  0  0  0  0  0  0  0  0  0
   -3.2756   24.4959  -28.4249 H   0  0  0  0  0  0  0  0  0  0  0  0
   -1.8097   25.1823  -29.2228 H   0  0  0  0  0  0  0  0  0  0  0  0
   -4.9138   23.5615  -28.8461 H   0  0  0  0  0  0  0  0  0  0  0  0
   -6.4515   24.4782  -29.0368 H   0  0  0  0  0  0  0  0  0  0  0  0
   -8.2640   23.2616  -29.8281 H   0  0  0  0  0  0  0  0  0  0  0  0
   -9.2156   21.3824  -31.2076 H   0  0  0  0  0  0  0  0  0  0  0  0
   -8.4773   19.2728  -32.9948 H   0  0  0  0  0  0  0  0  0  0  0  0
   -4.8270   17.3260  -35.6780 H   0  0  0  0  0  0  0  0  0  0  0  0
   -4.1220   18.7710  -34.8860 H   0  0  0  0  0  0  0  0  0  0  0  0
   -1.6454   21.2347  -31.1341 H   0  0  0  0  0  0  0  0  0  0  0  0
   -0.8633   19.8581  -31.9824 H   0  0  0  0  0  0  0  0  0  0  0  0
   -0.0804   21.4748  -31.9824 H   0  0  0  0  0  0  0  0  0  0  0  0
   -4.2444   22.1844  -31.1302 H   0  0  0  0  0  0  0  0  0  0  0  0
  1  2  1  0
  2  3  1  0
  3  4  1  0
  4  5  2  0
  4  6  1  0
  6  7  1  0
  7  8  2  0
  8  9  1  0
  9 10  2  0
 10 11  1  0
 11 12  2  0
 12 13  1  0
 13 14  1  0
 13 15  2  0
 12 16  1  0
 16 17  1  0
 17 18  2  0
 17 19  1  0
 19 20  2  0
 19 21  1  0
 21 22  1  0
 16 23  1  0
 23 24  2  0
 24  7  1  0
 23 10  1  0
  1 25  1  0
  1 26  1  0
  1 27  1  0
  2 28  1  0
  2 29  1  0
  6 30  1  0
  6 31  1  0
  8 32  1  0
  9 33  1  0
 11 34  1  0
 14 35  1  0
 14 36  1  0
 22 37  1  0
 22 38  1  0
 22 39  1  0
 24 40  1  0
M  CHG  1   3  -1
M  END
>  <UniqueID>  (18) 
18

>  <SMILES>  (18) 
CC[N-]C(=O)Cc1ccc2cc(C(N)=O)n(C(=O)C(=O)OC)c2c1

>  <Energy>  (18) 
70.90988703810137

>  <Genealogy>  (18) 
CC[N-]C(=O)Cc1ccc2cc(C(N)=O)n(C(=O)C(=O)OC)c2c1 (protonated)
CC[N-]C(=O)Cc1ccc2cc(C(N)=O)n(C(=O)C(=O)OC)c2c1 (3D coordinates assigned)
CC[N-]C(=O)Cc1ccc2cc(C(N)=O)n(C(=O)C(=O)OC)c2c1 (optimized conformer: 70.90988703810137 kcal/mol)

>  <smiles>  (18) 
CCNC(=O)Cc1ccc2cc(C(N)=O)n(C(=O)C(=O)OC)c2c1

>  <score_type>  (18) 
oracle

>  <origin>  (18) 
adg

>  <m_score__min__energy>  (18) 
-8.8300000000000001

>  <m_primary>  (18) 
energy

$$$$
18:0
     RDKit          3D

 44 45  0  0  0  0  0  0  0  0999 V2000
   -0.2070   23.2310  -26.6200 C   0  0  0  0  0  0  0  0  0  0  0  0
    0.1420   24.5930  -27.2430 C   0  0  0  0  0  0  0  0  0  0  0  0
   -0.7540   25.6760  -26.6140 C   0  0  0  0  0  0  0  0  0  0  0  0
    1.6270   24.9010  -26.9760 C   0  0  0  0  0  0  0  0  0  0  0  0
   -0.1050   24.5000  -28.6840 N   0  0  0  0  0  0  0  0  0  0  0  0
   -1.3760   24.3600  -29.3380 C   0  0  0  0  0  0  0  0  0  0  0  0
   -2.2150   25.3000  -29.3280 O   0  0  0  0  0  0  0  0  0  0  0  0
   -1.7000   23.0920  -30.0720 C   0  0  0  0  0  0  0  0  0  0  0  0
   -3.1090   22.8810  -30.1240 O   0  0  0  0  0  0  0  0  0  0  0  0
   -3.8030   22.6510  -31.3180 C   0  0  0  0  0  0  0  0  0  0  0  0
   -3.1770   22.4430  -32.3930 O   0  0  0  0  0  0  0  0  0  0  0  0
   -5.2360   22.7140  -31.3280 N   0  0  0  0  0  0  0  0  0  0  0  0
   -6.0220   23.7870  -31.0340 C   0  0  0  0  0  0  0  0  0  0  0  0
   -5.5410   25.0710  -30.4750 C   0  0  0  0  0  0  0  0  0  0  0  0
   -4.1990   25.5090  -30.6930 N   0  0  0  0  0  0  0  0  0  0  0  0
   -6.3240   25.8030  -29.8150 O   0  0  0  0  0  0  0  0  0  0  0  0
   -7.3630   23.4860  -31.2770 C   0  0  0  0  0  0  0  0  0  0  0  0
   -7.3680   22.1900  -31.7420 C   0  0  0  0  0  0  0  0  0  0  0  0
   -8.4240   21.4010  -32.1870 C   0  0  0  0  0  0  0  0  0  0  0  0
   -8.1290   20.1180  -32.6780 C   0  0  0  0  0  0  0  0  0  0  0  0
   -6.7920   19.6420  -32.7080 C   0  0  0  0  0  0  0  0  0  0  0  0
   -6.4770   18.2970  -33.3090 C   0  0  0  0  0  0  0  0  0  0  0  0
   -7.5780   17.4600  -33.2400 F   0  0  0  0  0  0  0  0  0  0  0  0
   -5.4300   17.7210  -32.6120 F   0  0  0  0  0  0  0  0  0  0  0  0
   -6.1150   18.4290  -34.6380 F   0  0  0  0  0  0  0  0  0  0  0  0
   -5.7450   20.4820  -32.2630 C   0  0  0  0  0  0  0  0  0  0  0  0
   -6.0720   21.7480  -31.7640 C   0  0  0  0  0  0  0  0  0  0  0  0
   -0.1859   23.3133  -25.5233 H   0  0  0  0  0  0  0  0  0  0  0  0
   -1.2124   22.9257  -26.9455 H   0  0  0  0  0  0  0  0  0  0  0  0
    0.5277   22.4798  -26.9455 H   0  0  0  0  0  0  0  0  0  0  0  0
   -0.6973   25.6075  -25.5176 H   0  0  0  0  0  0  0  0  0  0  0  0
   -0.4104   26.6696  -26.9375 H   0  0  0  0  0  0  0  0  0  0  0  0
   -1.7944   25.5245  -26.9375 H   0  0  0  0  0  0  0  0  0  0  0  0
    1.8045   24.9378  -25.8910 H   0  0  0  0  0  0  0  0  0  0  0  0
    2.2510   24.1132  -27.4231 H   0  0  0  0  0  0  0  0  0  0  0  0
    1.8862   25.8720  -27.4231 H   0  0  0  0  0  0  0  0  0  0  0  0
   -1.3076   23.1590  -31.0975 H   0  0  0  0  0  0  0  0  0  0  0  0
   -1.2374   22.2486  -29.5384 H   0  0  0  0  0  0  0  0  0  0  0  0
   -3.5000   24.9050  -31.1790 H   0  0  0  0  0  0  0  0  0  0  0  0
   -3.8840   26.4340  -30.3240 H   0  0  0  0  0  0  0  0  0  0  0  0
   -8.2316   24.1444  -31.1285 H   0  0  0  0  0  0  0  0  0  0  0  0
   -9.4595   21.7708  -32.1554 H   0  0  0  0  0  0  0  0  0  0  0  0
   -8.9434   19.4751  -33.0433 H   0  0  0  0  0  0  0  0  0  0  0  0
   -4.6979   20.1481  -32.3080 H   0  0  0  0  0  0  0  0  0  0  0  0
  1  2  1  0
  2  3  1  0
  2  4  1  0
  2  5  1  0
  5  6  1  0
  6  7  2  0
  6  8  1  0
  8  9  1  0
  9 10  1  0
 10 11  2  0
 10 12  1  0
 12 13  1  0
 13 14  1  0
 14 15  1  0
 14 16  2  0
 13 17  2  0
 17 18  1  0
 18 19  2  0
 19 20  1  0
 20 21  2  0
 21 22  1  0
 22 23  1  0
 22 24  1  0
 22 25  1  0
 21 26  1  0
 26 27  2  0
 27 12  1  0
 27 18  1  0
  1 28  1  0
  1 29  1  0
  1 30  1  0
  3 31  1  0
  3 32  1  0
  3 33  1  0
  4 34  1  0
  4 35  1  0
  4 36  1  0
  8 37  1  0
  8 38  1  0
 15 39  1  0
 15 40  1  0
 17 41  1  0
 19 42  1  0
 20 43  1  0
 26 44  1  0
M  CHG  1   5  -1
M  END
>  <UniqueID>  (19) 
19

>  <SMILES>  (19) 
CC(C)(C)[N-]C(=O)COC(=O)n1c(C(N)=O)cc2ccc(C(F)(F)F)cc21

>  <Energy>  (19) 
73.45583638578786

>  <Genealogy>  (19) 
CC(C)(C)[N-]C(=O)COC(=O)n1c(C(N)=O)cc2ccc(C(F)(F)F)cc21 (protonated)
CC(C)(C)[N-]C(=O)COC(=O)n1c(C(N)=O)cc2ccc(C(F)(F)F)cc21 (3D coordinates assigned)
CC(C)(C)[N-]C(=O)COC(=O)n1c(C(N)=O)cc2ccc(C(F)(F)F)cc21 (optimized conformer: 73.45583638578786 kcal/mol)

>  <smiles>  (19) 
CC(C)(C)NC(=O)COC(=O)n1c(C(N)=O)cc2ccc(C(F)(F)F)cc21

>  <score_type>  (19) 
oracle

>  <origin>  (19) 
adg

>  <m_score__min__energy>  (19) 
-10.06

>  <m_primary>  (19) 
energy

$$$$
19:0
     RDKit          3D

 47 49  0  0  0  0  0  0  0  0999 V2000
   -1.9440   25.6550  -28.8950 N   0  0  0  0  0  0  0  0  0  0  0  0
   -1.0650   24.5500  -29.0890 C   0  0  0  0  0  0  0  0  0  0  0  0
    0.0710   24.5630  -28.5430 O   0  0  0  0  0  0  0  0  0  0  0  0
   -1.5070   23.3890  -29.8880 C   0  0  0  0  0  0  0  0  0  0  0  0
   -0.6770   22.3140  -30.2020 C   0  0  0  0  0  0  0  0  0  0  0  0
   -1.4260   21.5010  -31.0220 C   0  0  0  0  0  0  0  0  0  0  0  0
   -1.1020   20.2840  -31.6130 C   0  0  0  0  0  0  0  0  0  0  0  0
   -2.0860   19.6450  -32.3870 C   0  0  0  0  0  0  0  0  0  0  0  0
   -3.3660   20.2330  -32.5610 C   0  0  0  0  0  0  0  0  0  0  0  0
   -4.4410   19.5290  -33.3490 C   0  0  0  0  0  0  0  0  0  0  0  0
   -5.0890   18.6050  -32.5470 F   0  0  0  0  0  0  0  0  0  0  0  0
   -5.3840   20.4240  -33.8250 F   0  0  0  0  0  0  0  0  0  0  0  0
   -3.8670   18.8710  -34.4200 F   0  0  0  0  0  0  0  0  0  0  0  0
   -3.6610   21.4590  -31.9240 C   0  0  0  0  0  0  0  0  0  0  0  0
   -2.6570   22.0830  -31.1750 C   0  0  0  0  0  0  0  0  0  0  0  0
   -2.7260   23.2400  -30.4820 N   0  0  0  0  0  0  0  0  0  0  0  0
   -3.8780   24.0890  -30.3610 C   0  0  0  0  0  0  0  0  0  0  0  0
   -3.8660   25.2450  -30.8650 O   0  0  0  0  0  0  0  0  0  0  0  0
   -5.0030   23.6370  -29.6630 O   0  0  0  0  0  0  0  0  0  0  0  0
   -6.2820   24.2540  -29.7830 C   0  0  0  0  0  0  0  0  0  0  0  0
   -6.9080   23.9120  -31.1370 C   0  0  0  0  0  0  0  0  0  0  0  0
   -6.3730   22.5960  -31.7270 C   0  0  0  0  0  0  0  0  0  0  0  0
   -7.4730   21.7040  -32.1560 N   0  0  0  0  0  0  0  0  0  0  0  0
   -7.3060   20.3390  -31.6200 C   0  0  0  0  0  0  0  0  0  0  0  0
   -8.4450   19.4280  -32.1300 C   0  0  0  0  0  0  0  0  0  0  0  0
   -9.4850   20.1580  -32.7550 O   0  0  0  0  0  0  0  0  0  0  0  0
   -9.9040   21.2110  -31.9110 C   0  0  0  0  0  0  0  0  0  0  0  0
   -8.7790   22.2510  -31.7350 C   0  0  0  0  0  0  0  0  0  0  0  0
   -2.8810   25.6820  -29.3520 H   0  0  0  0  0  0  0  0  0  0  0  0
    0.3574   22.1502  -29.8657 H   0  0  0  0  0  0  0  0  0  0  0  0
   -0.1065   19.8357  -31.4787 H   0  0  0  0  0  0  0  0  0  0  0  0
   -1.8617   18.6790  -32.8629 H   0  0  0  0  0  0  0  0  0  0  0  0
   -4.6586   21.9134  -32.0148 H   0  0  0  0  0  0  0  0  0  0  0  0
   -6.9375   23.8914  -28.9775 H   0  0  0  0  0  0  0  0  0  0  0  0
   -6.1631   25.3449  -29.7075 H   0  0  0  0  0  0  0  0  0  0  0  0
   -7.9967   23.8221  -31.0079 H   0  0  0  0  0  0  0  0  0  0  0  0
   -6.6447   24.7192  -31.8364 H   0  0  0  0  0  0  0  0  0  0  0  0
   -5.7402   22.8261  -32.5968 H   0  0  0  0  0  0  0  0  0  0  0  0
   -5.7955   22.0789  -30.9466 H   0  0  0  0  0  0  0  0  0  0  0  0
   -6.3388   19.9332  -31.9516 H   0  0  0  0  0  0  0  0  0  0  0  0
   -7.3380   20.3762  -30.5211 H   0  0  0  0  0  0  0  0  0  0  0  0
   -8.0281   18.7155  -32.8569 H   0  0  0  0  0  0  0  0  0  0  0  0
   -8.8756   18.9121  -31.2591 H   0  0  0  0  0  0  0  0  0  0  0  0
  -10.7827   21.7016  -32.3552 H   0  0  0  0  0  0  0  0  0  0  0  0
  -10.1566   20.7939  -30.9250 H   0  0  0  0  0  0  0  0  0  0  0  0
   -9.0105   23.1363  -32.3455 H   0  0  0  0  0  0  0  0  0  0  0  0
   -8.7167   22.5188  -30.6699 H   0  0  0  0  0  0  0  0  0  0  0  0
  1  2  1  0
  2  3  2  0
  2  4  1  0
  4  5  2  0
  5  6  1  0
  6  7  2  0
  7  8  1  0
  8  9  2  0
  9 10  1  0
 10 11  1  0
 10 12  1  0
 10 13  1  0
  9 14  1  0
 14 15  2  0
 15 16  1  0
 16 17  1  0
 17 18  2  0
 17 19  1  0
 19 20  1  0
 20 21  1  0
 21 22  1  0
 22 23  1  0
 23 24  1  0
 24 25  1  0
 25 26  1  0
 26 27  1  0
 27 28  1  0
 16  4  1  0
 28 23  1  0
 15  6  1  0
  1 29  1  0
  5 30  1  0
  7 31  1  0
  8 32  1  0
 14 33  1  0
 20 34  1  0
 20 35  1  0
 21 36  1  0
 21 37  1  0
 22 38  1  0
 22 39  1  0
 24 40  1  0
 24 41  1  0
 25 42  1  0
 25 43  1  0
 27 44  1  0
 27 45  1  0
 28 46  1  0
 28 47  1  0
M  CHG  1   1  -1
M  END
>  <UniqueID>  (20) 
20

>  <SMILES>  (20) 
[NH-]C(=O)c1cc2ccc(C(F)(F)F)cc2n1C(=O)OCCCN1CCOCC1

>  <Energy>  (20) 
89.69046179904113

>  <Genealogy>  (20) 
[NH-]C(=O)c1cc2ccc(C(F)(F)F)cc2n1C(=O)OCCCN1CCOCC1 (protonated)
[NH-]C(=O)c1cc2ccc(C(F)(F)F)cc2n1C(=O)OCCCN1CCOCC1 (3D coordinates assigned)
[NH-]C(=O)c1cc2ccc(C(F)(F)F)cc2n1C(=O)OCCCN1CCOCC1 (nonaromatic ring conformer: 89.69046179904113 kcal/mol)

>  <smiles>  (20) 
NC(=O)c1cc2ccc(C(F)(F)F)cc2n1C(=O)OCCCN1CCOCC1

>  <score_type>  (20) 
oracle

>  <origin>  (20) 
adg

>  <m_score__min__energy>  (20) 
-10.27

>  <m_primary>  (20) 
energy

$$$$
20:0
     RDKit          3D

 30 31  0  0  0  0  0  0  0  0999 V2000
   -3.2220   24.9630  -30.9800 H   0  0  0  0  0  0  0  0  0  0  0  0
   -3.9790   25.6710  -30.8520 N   0  0  0  0  0  0  0  0  0  0  0  0
   -5.3190   25.2690  -30.5830 C   0  0  0  0  0  0  0  0  0  0  0  0
   -6.1080   26.0800  -30.0310 O   0  0  0  0  0  0  0  0  0  0  0  0
   -5.7540   23.8960  -30.9100 C   0  0  0  0  0  0  0  0  0  0  0  0
   -7.0510   23.5790  -31.3110 C   0  0  0  0  0  0  0  0  0  0  0  0
   -7.9176   24.2547  -31.3604 H   0  0  0  0  0  0  0  0  0  0  0  0
   -7.0170   22.2410  -31.6320 C   0  0  0  0  0  0  0  0  0  0  0  0
   -8.0320   21.4010  -32.0820 C   0  0  0  0  0  0  0  0  0  0  0  0
   -9.0496   21.7822  -32.2530 H   0  0  0  0  0  0  0  0  0  0  0  0
   -7.7160   20.0510  -32.3110 C   0  0  0  0  0  0  0  0  0  0  0  0
   -8.4971   19.3605  -32.6620 H   0  0  0  0  0  0  0  0  0  0  0  0
   -6.4010   19.5710  -32.0940 C   0  0  0  0  0  0  0  0  0  0  0  0
   -6.0910   18.1180  -32.2920 C   0  0  0  0  0  0  0  0  0  0  0  0
   -5.9866   17.6286  -31.3124 H   0  0  0  0  0  0  0  0  0  0  0  0
   -6.9078   17.6421  -32.8544 H   0  0  0  0  0  0  0  0  0  0  0  0
   -5.1511   18.0169  -32.8544 H   0  0  0  0  0  0  0  0  0  0  0  0
   -5.4020   20.4490  -31.6220 C   0  0  0  0  0  0  0  0  0  0  0  0
   -4.3830   20.0872  -31.4203 H   0  0  0  0  0  0  0  0  0  0  0  0
   -5.7400   21.7910  -31.4170 C   0  0  0  0  0  0  0  0  0  0  0  0
   -4.9560   22.7900  -30.9570 N   0  0  0  0  0  0  0  0  0  0  0  0
   -3.5680   22.6750  -30.5890 C   0  0  0  0  0  0  0  0  0  0  0  0
   -2.6810   22.8470  -31.4680 O   0  0  0  0  0  0  0  0  0  0  0  0
   -3.1380   22.4260  -29.1960 C   0  0  0  0  0  0  0  0  0  0  0  0
   -3.7017   21.6728  -28.6260 H   0  0  0  0  0  0  0  0  0  0  0  0
   -2.1230   23.0350  -28.5640 C   0  0  0  0  0  0  0  0  0  0  0  0
   -1.8108   22.6154  -27.5963 H   0  0  0  0  0  0  0  0  0  0  0  0
   -1.3900   24.2160  -29.0520 C   0  0  0  0  0  0  0  0  0  0  0  0
   -1.9890   25.2850  -29.3410 O   0  0  0  0  0  0  0  0  0  0  0  0
   -0.0030   24.1770  -29.1080 O   0  0  0  0  0  0  0  0  0  0  0  0
  1  2  1  0
  2  3  1  0
  3  4  2  0
  3  5  1  0
  5  6  2  0
  6  7  1  0
  6  8  1  0
  8  9  2  0
  9 10  1  0
  9 11  1  0
 11 12  1  0
 11 13  2  0
 13 14  1  0
 14 15  1  0
 14 16  1  0
 14 17  1  0
 13 18  1  0
 18 19  1  0
 18 20  2  0
 20 21  1  0
 21 22  1  0
 22 23  2  0
 22 24  1  0
 24 25  1  0
 24 26  2  0
 26 27  1  0
 26 28  1  0
 28 29  2  0
 28 30  1  0
 21  5  1  0
 20  8  1  0
M  CHG  2   2  -1  30  -1
M  END
>  <UniqueID>  (21) 
21

>  <SMILES>  (21) 
Cc1ccc2cc(C([NH-])=O)n(C(=O)/C=C\C(=O)[O-])c2c1

>  <Energy>  (21) 
74.7890544287899

>  <Genealogy>  (21) 
Cc1ccc2cc(C([NH-])=O)n(C(=O)/C=C\C(=O)[O-])c2c1 (protonated)
Cc1ccc2cc(C([NH-])=O)n(C(=O)/C=C\C(=O)[O-])c2c1 (cis-trans isomerization)
Cc1ccc2cc(C([NH-])=O)n(C(=O)/C=C\C(=O)[O-])c2c1 (3D coordinates assigned)
Cc1ccc2cc(C([NH-])=O)n(C(=O)/C=C\C(=O)[O-])c2c1 (optimized conformer: 74.7890544287899 kcal/mol)

>  <smiles>  (21) 
Cc1ccc2cc(C(N)=O)n(C(=O)/C=C\C(=O)O)c2c1

>  <score_type>  (21) 
oracle

>  <origin>  (21) 
adg

>  <m_score__min__energy>  (21) 
-11.75

>  <m_primary>  (21) 
energy

$$$$
21:0
     RDKit          3D

 38 39  0  0  0  0  0  0  0  0999 V2000
   -1.1530   23.7290  -26.7430 C   0  0  0  0  0  0  0  0  0  0  0  0
   -1.9110   22.8620  -27.4240 C   0  0  0  0  0  0  0  0  0  0  0  0
   -1.7590   21.3870  -27.1850 C   0  0  0  0  0  0  0  0  0  0  0  0
   -3.0510   23.4450  -28.6400 S   0  0  0  0  0  0  0  0  0  0  0  0
   -2.4110   24.5260  -29.4660 O   0  0  0  0  0  0  0  0  0  0  0  0
   -4.2640   24.0140  -27.9580 O   0  0  0  0  0  0  0  0  0  0  0  0
   -3.5300   22.0840  -29.6850 C   0  0  0  0  0  0  0  0  0  0  0  0
   -4.0950   22.5900  -30.9770 C   0  0  0  0  0  0  0  0  0  0  0  0
   -3.3150   22.8880  -31.9220 O   0  0  0  0  0  0  0  0  0  0  0  0
   -5.5070   22.8030  -31.1270 N   0  0  0  0  0  0  0  0  0  0  0  0
   -6.1960   23.9640  -30.9420 C   0  0  0  0  0  0  0  0  0  0  0  0
   -5.6110   25.2410  -30.4660 C   0  0  0  0  0  0  0  0  0  0  0  0
   -4.2550   25.5840  -30.7610 N   0  0  0  0  0  0  0  0  0  0  0  0
   -6.3110   26.0460  -29.7970 O   0  0  0  0  0  0  0  0  0  0  0  0
   -7.5500   23.7720  -31.2200 C   0  0  0  0  0  0  0  0  0  0  0  0
   -7.6640   22.4530  -31.5980 C   0  0  0  0  0  0  0  0  0  0  0  0
   -8.7820   21.7300  -32.0050 C   0  0  0  0  0  0  0  0  0  0  0  0
   -8.5980   20.3890  -32.3800 C   0  0  0  0  0  0  0  0  0  0  0  0
   -7.3070   19.8070  -32.3640 C   0  0  0  0  0  0  0  0  0  0  0  0
   -7.1260   18.3680  -32.7450 C   0  0  0  0  0  0  0  0  0  0  0  0
   -6.1970   20.5660  -31.9320 C   0  0  0  0  0  0  0  0  0  0  0  0
   -6.4150   21.8920  -31.5400 C   0  0  0  0  0  0  0  0  0  0  0  0
   -1.2626   24.8097  -26.9164 H   0  0  0  0  0  0  0  0  0  0  0  0
   -0.4202   23.3611  -26.0097 H   0  0  0  0  0  0  0  0  0  0  0  0
   -1.7388   21.1911  -26.1028 H   0  0  0  0  0  0  0  0  0  0  0  0
   -2.6068   20.8528  -27.6386 H   0  0  0  0  0  0  0  0  0  0  0  0
   -0.8200   21.0369  -27.6386 H   0  0  0  0  0  0  0  0  0  0  0  0
   -2.6484   21.4605  -29.8947 H   0  0  0  0  0  0  0  0  0  0  0  0
   -4.2987   21.4909  -29.1679 H   0  0  0  0  0  0  0  0  0  0  0  0
   -3.8680   26.5020  -30.4470 H   0  0  0  0  0  0  0  0  0  0  0  0
   -3.6160   24.9200  -31.2500 H   0  0  0  0  0  0  0  0  0  0  0  0
   -8.3562   24.5173  -31.1516 H   0  0  0  0  0  0  0  0  0  0  0  0
   -9.7787   22.1946  -32.0320 H   0  0  0  0  0  0  0  0  0  0  0  0
   -9.4643   19.7855  -32.6888 H   0  0  0  0  0  0  0  0  0  0  0  0
   -7.0489   17.7547  -31.8351 H   0  0  0  0  0  0  0  0  0  0  0  0
   -7.9893   18.0348  -33.3397 H   0  0  0  0  0  0  0  0  0  0  0  0
   -6.2071   18.2589  -33.3397 H   0  0  0  0  0  0  0  0  0  0  0  0
   -5.1887   20.1271  -31.9043 H   0  0  0  0  0  0  0  0  0  0  0  0
  1  2  2  0
  2  3  1  0
  2  4  1  0
  4  5  2  0
  4  6  2  0
  4  7  1  0
  7  8  1  0
  8  9  2  0
  8 10  1  0
 10 11  1  0
 11 12  1  0
 12 13  1  0
 12 14  2  0
 11 15  2  0
 15 16  1  0
 16 17  2  0
 17 18  1  0
 18 19  2  0
 19 20  1  0
 19 21  1  0
 21 22  2  0
 22 10  1  0
 22 16  1  0
  1 23  1  0
  1 24  1  0
  3 25  1  0
  3 26  1  0
  3 27  1  0
  7 28  1  0
  7 29  1  0
 13 30  1  0
 13 31  1  0
 15 32  1  0
 17 33  1  0
 18 34  1  0
 20 35  1  0
 20 36  1  0
 20 37  1  0
 21 38  1  0
M  END
>  <UniqueID>  (22) 
22

>  <SMILES>  (22) 
C=C(C)S(=O)(=O)CC(=O)n1c(C(N)=O)cc2ccc(C)cc21

>  <Energy>  (22) 
69.54916951389977

>  <Genealogy>  (22) 
C=C(C)S(=O)(=O)CC(=O)n1c(C(N)=O)cc2ccc(C)cc21 (3D coordinates assigned)
C=C(C)S(=O)(=O)CC(=O)n1c(C(N)=O)cc2ccc(C)cc21 (optimized conformer: 69.54916951389977 kcal/mol)

>  <smiles>  (22) 
C=C(C)S(=O)(=O)CC(=O)n1c(C(N)=O)cc2ccc(C)cc21

>  <score_type>  (22) 
oracle

>  <origin>  (22) 
adg

>  <m_score__min__energy>  (22) 
-8.75

>  <m_primary>  (22) 
energy

$$$$
22:0
     RDKit          3D

 31 33  0  0  0  0  0  0  0  0999 V2000
   -9.1240   18.5000  -31.6550 N   0  0  0  0  0  0  0  0  0  0  0  0
   -8.0720   18.5730  -32.1320 C   0  0  0  0  0  0  0  0  0  0  0  0
   -6.7640   18.6630  -32.7260 C   0  0  0  0  0  0  0  0  0  0  0  0
   -6.4980   18.0350  -33.9460 C   0  0  0  0  0  0  0  0  0  0  0  0
   -5.2610   18.1290  -34.5030 N   0  0  0  0  0  0  0  0  0  0  0  0
   -4.2570   18.8250  -33.9070 C   0  0  0  0  0  0  0  0  0  0  0  0
   -4.4720   19.4740  -32.6780 C   0  0  0  0  0  0  0  0  0  0  0  0
   -3.3830   20.2350  -32.0170 C   0  0  0  0  0  0  0  0  0  0  0  0
   -2.0550   19.7330  -32.0180 C   0  0  0  0  0  0  0  0  0  0  0  0
   -1.0140   20.4510  -31.4060 C   0  0  0  0  0  0  0  0  0  0  0  0
   -1.3270   21.6600  -30.7930 C   0  0  0  0  0  0  0  0  0  0  0  0
   -0.5110   22.5630  -30.1510 C   0  0  0  0  0  0  0  0  0  0  0  0
   -1.3520   23.5950  -29.7430 C   0  0  0  0  0  0  0  0  0  0  0  0
   -0.8940   24.7420  -28.9320 C   0  0  0  0  0  0  0  0  0  0  0  0
   -1.5940   25.9830  -28.9560 N   0  0  0  0  0  0  0  0  0  0  0  0
    0.0980   24.6090  -28.1670 O   0  0  0  0  0  0  0  0  0  0  0  0
   -2.6380   23.3440  -30.1240 N   0  0  0  0  0  0  0  0  0  0  0  0
   -3.7790   24.2040  -29.9770 C   0  0  0  0  0  0  0  0  0  0  0  0
   -4.7270   23.8790  -29.2160 O   0  0  0  0  0  0  0  0  0  0  0  0
   -3.8600   25.3910  -30.6960 O   0  0  0  0  0  0  0  0  0  0  0  0
   -2.6050   22.1540  -30.7640 C   0  0  0  0  0  0  0  0  0  0  0  0
   -3.6580   21.4710  -31.3830 C   0  0  0  0  0  0  0  0  0  0  0  0
   -5.7470   19.3840  -32.0920 C   0  0  0  0  0  0  0  0  0  0  0  0
   -7.2889   17.4650  -34.4554 H   0  0  0  0  0  0  0  0  0  0  0  0
   -3.2699   18.8810  -34.3891 H   0  0  0  0  0  0  0  0  0  0  0  0
   -1.8385   18.7702  -32.5039 H   0  0  0  0  0  0  0  0  0  0  0  0
    0.0174   20.0688  -31.4114 H   0  0  0  0  0  0  0  0  0  0  0  0
    0.5749   22.4860  -29.9936 H   0  0  0  0  0  0  0  0  0  0  0  0
   -2.6370   26.0110  -28.9830 H   0  0  0  0  0  0  0  0  0  0  0  0
   -4.6770   21.8852  -31.3772 H   0  0  0  0  0  0  0  0  0  0  0  0
   -5.9453   19.8824  -31.1316 H   0  0  0  0  0  0  0  0  0  0  0  0
  1  2  3  0
  2  3  1  0
  3  4  2  0
  4  5  1  0
  5  6  2  0
  6  7  1  0
  7  8  1  0
  8  9  2  0
  9 10  1  0
 10 11  2  0
 11 12  1  0
 12 13  2  0
 13 14  1  0
 14 15  1  0
 14 16  2  0
 13 17  1  0
 17 18  1  0
 18 19  2  0
 18 20  1  0
 17 21  1  0
 21 22  2  0
  7 23  2  0
 23  3  1  0
 22  8  1  0
 21 11  1  0
  4 24  1  0
  6 25  1  0
  9 26  1  0
 10 27  1  0
 12 28  1  0
 15 29  1  0
 22 30  1  0
 23 31  1  0
M  CHG  2  15  -1  20  -1
M  END
>  <UniqueID>  (23) 
23

>  <SMILES>  (23) 
N#Cc1cncc(-c2ccc3cc(C([NH-])=O)n(C(=O)[O-])c3c2)c1

>  <Energy>  (23) 
79.26259015488431

>  <Genealogy>  (23) 
N#Cc1cncc(-c2ccc3cc(C([NH-])=O)n(C(=O)[O-])c3c2)c1 (protonated)
N#Cc1cncc(-c2ccc3cc(C([NH-])=O)n(C(=O)[O-])c3c2)c1 (3D coordinates assigned)
N#Cc1cncc(-c2ccc3cc(C([NH-])=O)n(C(=O)[O-])c3c2)c1 (optimized conformer: 79.26259015488431 kcal/mol)

>  <smiles>  (23) 
N#Cc1cncc(-c2ccc3cc(C(N)=O)n(C(=O)O)c3c2)c1

>  <score_type>  (23) 
oracle

>  <origin>  (23) 
adg

>  <m_score__min__energy>  (23) 
-11.83

>  <m_primary>  (23) 
energy

$$$$
23:0
     RDKit          3D

 51 52  0  0  0  0  0  0  0  0999 V2000
   -8.8970   21.5230  -30.9000 C   0  0  0  0  0  0  0  0  0  0  0  0
   -8.4450   20.6270  -31.9710 N   0  0  0  0  0  0  0  0  0  0  0  0
   -9.2290   19.4400  -32.3260 C   0  0  0  0  0  0  0  0  0  0  0  0
   -7.2210   20.9000  -32.6800 C   0  0  0  0  0  0  0  0  0  0  0  0
   -6.9470   20.2770  -33.7400 O   0  0  0  0  0  0  0  0  0  0  0  0
   -6.2670   21.8520  -32.1720 C   0  0  0  0  0  0  0  0  0  0  0  0
   -5.4620   22.6160  -31.7030 C   0  0  0  0  0  0  0  0  0  0  0  0
   -4.4420   23.4700  -31.1590 C   0  0  0  0  0  0  0  0  0  0  0  0
   -4.6790   24.6960  -30.9930 O   0  0  0  0  0  0  0  0  0  0  0  0
   -3.1530   22.9260  -30.8270 N   0  0  0  0  0  0  0  0  0  0  0  0
   -2.2610   23.3810  -29.9020 C   0  0  0  0  0  0  0  0  0  0  0  0
   -2.4460   24.5450  -29.0090 C   0  0  0  0  0  0  0  0  0  0  0  0
   -1.5820   25.6760  -29.0810 N   0  0  0  0  0  0  0  0  0  0  0  0
   -3.4080   24.5580  -28.1950 O   0  0  0  0  0  0  0  0  0  0  0  0
   -1.1590   22.5300  -29.8300 C   0  0  0  0  0  0  0  0  0  0  0  0
   -1.4130   21.5230  -30.7330 C   0  0  0  0  0  0  0  0  0  0  0  0
   -0.6730   20.3870  -31.0430 C   0  0  0  0  0  0  0  0  0  0  0  0
   -1.1940   19.5020  -32.0030 C   0  0  0  0  0  0  0  0  0  0  0  0
   -2.4310   19.7700  -32.6510 C   0  0  0  0  0  0  0  0  0  0  0  0
   -2.9610   18.8460  -33.6330 N   0  0  0  0  0  0  0  0  0  0  0  0
   -2.1360   17.7240  -34.0950 C   0  0  0  0  0  0  0  0  0  0  0  0
   -4.3140   19.0040  -34.1940 C   0  0  0  0  0  0  0  0  0  0  0  0
   -4.9690   17.6640  -34.4030 C   0  0  0  0  0  0  0  0  0  0  0  0
   -4.6690   17.0060  -35.4360 O   0  0  0  0  0  0  0  0  0  0  0  0
   -5.9240   17.1230  -33.4630 N   0  0  0  0  0  0  0  0  0  0  0  0
   -6.0600   17.6820  -32.1130 C   0  0  0  0  0  0  0  0  0  0  0  0
   -6.7500   15.9830  -33.8710 C   0  0  0  0  0  0  0  0  0  0  0  0
   -3.1300   20.9560  -32.3260 C   0  0  0  0  0  0  0  0  0  0  0  0
   -2.6150   21.7910  -31.3280 C   0  0  0  0  0  0  0  0  0  0  0  0
   -8.6691   21.0712  -29.9233 H   0  0  0  0  0  0  0  0  0  0  0  0
   -8.3785   22.4892  -30.9870 H   0  0  0  0  0  0  0  0  0  0  0  0
   -9.9822   21.6802  -30.9870 H   0  0  0  0  0  0  0  0  0  0  0  0
   -9.5635   18.9336  -31.4085 H   0  0  0  0  0  0  0  0  0  0  0  0
  -10.1053   19.7429  -32.9179 H   0  0  0  0  0  0  0  0  0  0  0  0
   -8.6064   18.7529  -32.9179 H   0  0  0  0  0  0  0  0  0  0  0  0
   -1.2370   26.0320  -29.9990 H   0  0  0  0  0  0  0  0  0  0  0  0
   -0.2733   22.6402  -29.1870 H   0  0  0  0  0  0  0  0  0  0  0  0
    0.2908   20.1870  -30.5519 H   0  0  0  0  0  0  0  0  0  0  0  0
   -0.6363   18.5884  -32.2567 H   0  0  0  0  0  0  0  0  0  0  0  0
   -1.7364   17.1805  -33.2261 H   0  0  0  0  0  0  0  0  0  0  0  0
   -2.7501   17.0431  -34.7026 H   0  0  0  0  0  0  0  0  0  0  0  0
   -1.3030   18.1072  -34.7026 H   0  0  0  0  0  0  0  0  0  0  0  0
   -4.9248   19.5990  -33.4991 H   0  0  0  0  0  0  0  0  0  0  0  0
   -4.2341   19.5117  -35.1666 H   0  0  0  0  0  0  0  0  0  0  0  0
   -5.8684   16.8946  -31.3691 H   0  0  0  0  0  0  0  0  0  0  0  0
   -5.3341   18.4975  -31.9790 H   0  0  0  0  0  0  0  0  0  0  0  0
   -7.0794   18.0729  -31.9790 H   0  0  0  0  0  0  0  0  0  0  0  0
   -7.1260   15.4640  -32.9770 H   0  0  0  0  0  0  0  0  0  0  0  0
   -7.5992   16.3417  -34.4711 H   0  0  0  0  0  0  0  0  0  0  0  0
   -6.1446   15.2877  -34.4711 H   0  0  0  0  0  0  0  0  0  0  0  0
   -4.0620   21.2174  -32.8485 H   0  0  0  0  0  0  0  0  0  0  0  0
  1  2  1  0
  2  3  1  0
  2  4  1  0
  4  5  2  0
  4  6  1  0
  6  7  3  0
  7  8  1  0
  8  9  2  0
  8 10  1  0
 10 11  1  0
 11 12  1  0
 12 13  1  0
 12 14  2  0
 11 15  2  0
 15 16  1  0
 16 17  2  0
 17 18  1  0
 18 19  2  0
 19 20  1  0
 20 21  1  0
 20 22  1  0
 22 23  1  0
 23 24  2  0
 23 25  1  0
 25 26  1  0
 25 27  1  0
 19 28  1  0
 28 29  2  0
 29 10  1  0
 29 16  1  0
  1 30  1  0
  1 31  1  0
  1 32  1  0
  3 33  1  0
  3 34  1  0
  3 35  1  0
 13 36  1  0
 15 37  1  0
 17 38  1  0
 18 39  1  0
 21 40  1  0
 21 41  1  0
 21 42  1  0
 22 43  1  0
 22 44  1  0
 26 45  1  0
 26 46  1  0
 26 47  1  0
 27 48  1  0
 27 49  1  0
 27 50  1  0
 28 51  1  0
M  CHG  1  13  -1
M  END
>  <UniqueID>  (24) 
24

>  <SMILES>  (24) 
CN(C)C(=O)C#CC(=O)n1c(C([NH-])=O)cc2ccc(N(C)CC(=O)N(C)C)cc21

>  <Energy>  (24) 
81.14014337102122

>  <Genealogy>  (24) 
CN(C)C(=O)C#CC(=O)n1c(C([NH-])=O)cc2ccc(N(C)CC(=O)N(C)C)cc21 (protonated)
CN(C)C(=O)C#CC(=O)n1c(C([NH-])=O)cc2ccc(N(C)CC(=O)N(C)C)cc21 (3D coordinates assigned)
CN(C)C(=O)C#CC(=O)n1c(C([NH-])=O)cc2ccc(N(C)CC(=O)N(C)C)cc21 (optimized conformer: 81.14014337102122 kcal/mol)

>  <smiles>  (24) 
CN(C)C(=O)C#CC(=O)n1c(C(N)=O)cc2ccc(N(C)CC(=O)N(C)C)cc21

>  <score_type>  (24) 
oracle

>  <origin>  (24) 
adg

>  <m_score__min__energy>  (24) 
-11.74

>  <m_primary>  (24) 
energy

$$$$
24:0
     RDKit          3D

 45 47  0  0  0  0  0  0  0  0999 V2000
   -1.0470   22.7240  -29.6590 C   0  0  0  0  0  0  0  0  0  0  0  0
   -2.1090   21.8280  -29.1580 N   0  0  2  0  0  0  0  0  0  0  0  0
   -3.3910   22.4480  -29.4520 C   0  0  0  0  0  0  0  0  0  0  0  0
   -3.9640   23.1480  -28.5720 O   0  0  0  0  0  0  0  0  0  0  0  0
   -4.0180   22.3300  -30.7890 C   0  0  0  0  0  0  0  0  0  0  0  0
   -3.3310   21.9640  -31.7800 O   0  0  0  0  0  0  0  0  0  0  0  0
   -5.3890   22.7070  -30.9870 N   0  0  0  0  0  0  0  0  0  0  0  0
   -5.9530   23.9450  -30.8950 C   0  0  0  0  0  0  0  0  0  0  0  0
   -5.2770   25.1750  -30.4350 C   0  0  0  0  0  0  0  0  0  0  0  0
   -3.8690   25.3350  -30.5760 N   0  0  0  0  0  0  0  0  0  0  0  0
   -5.9480   26.0860  -29.8800 O   0  0  0  0  0  0  0  0  0  0  0  0
   -7.3030   23.8890  -31.2360 C   0  0  0  0  0  0  0  0  0  0  0  0
   -7.5510   22.5680  -31.5340 C   0  0  0  0  0  0  0  0  0  0  0  0
   -8.7290   21.9430  -31.9290 C   0  0  0  0  0  0  0  0  0  0  0  0
   -8.6900   20.5600  -32.1790 C   0  0  0  0  0  0  0  0  0  0  0  0
   -7.4760   19.8340  -32.0520 C   0  0  0  0  0  0  0  0  0  0  0  0
   -7.4550   18.3440  -32.2830 C   0  0  0  0  0  0  0  0  0  0  0  0
   -8.7170   17.8040  -32.1060 F   0  0  0  0  0  0  0  0  0  0  0  0
   -7.0330   18.0910  -33.5760 F   0  0  0  0  0  0  0  0  0  0  0  0
   -6.5900   17.7250  -31.3980 F   0  0  0  0  0  0  0  0  0  0  0  0
   -6.3060   20.5040  -31.6260 C   0  0  0  0  0  0  0  0  0  0  0  0
   -6.3800   21.8780  -31.3750 C   0  0  0  0  0  0  0  0  0  0  0  0
   -1.9950   21.5430  -27.6940 C   0  0  2  0  0  0  0  0  0  0  0  0
   -0.5750   21.0840  -27.2640 C   0  0  0  0  0  0  0  0  0  0  0  0
   -0.3990   19.6190  -27.6400 C   0  0  0  0  0  0  0  0  0  0  0  0
   -2.0000   18.9030  -27.4400 S   0  0  0  0  0  0  0  0  0  0  0  0
   -2.0630   18.0300  -26.0060 O   0  0  0  0  0  0  0  0  0  0  0  0
   -2.9380   20.3950  -27.2740 C   0  0  0  0  0  0  0  0  0  0  0  0
   -0.5145   23.1733  -28.8078 H   0  0  0  0  0  0  0  0  0  0  0  0
   -0.3386   22.1465  -30.2712 H   0  0  0  0  0  0  0  0  0  0  0  0
   -1.4970   23.5195  -30.2712 H   0  0  0  0  0  0  0  0  0  0  0  0
   -2.0220   20.9260  -29.6850 H   0  0  0  0  0  0  0  0  0  0  0  0
   -3.4710   26.0400  -31.2350 H   0  0  0  0  0  0  0  0  0  0  0  0
   -8.0190   24.7237  -31.2616 H   0  0  0  0  0  0  0  0  0  0  0  0
   -9.6627   22.5133  -32.0424 H   0  0  0  0  0  0  0  0  0  0  0  0
   -9.6096   20.0346  -32.4761 H   0  0  0  0  0  0  0  0  0  0  0  0
   -5.3602   19.9577  -31.4951 H   0  0  0  0  0  0  0  0  0  0  0  0
   -2.2507   22.4974  -27.2106 H   0  0  0  0  0  0  0  0  0  0  0  0
    0.1824   21.6920  -27.7804 H   0  0  0  0  0  0  0  0  0  0  0  0
   -0.4545   21.2085  -26.1777 H   0  0  0  0  0  0  0  0  0  0  0  0
   -0.0605   19.5250  -28.6824 H   0  0  0  0  0  0  0  0  0  0  0  0
    0.3584   19.1200  -27.0177 H   0  0  0  0  0  0  0  0  0  0  0  0
   -1.3520   17.3470  -26.1010 H   0  0  0  0  0  0  0  0  0  0  0  0
   -3.8202   20.3662  -27.9304 H   0  0  0  0  0  0  0  0  0  0  0  0
   -3.3004   20.5292  -26.2441 H   0  0  0  0  0  0  0  0  0  0  0  0
  1  2  1  0
  2  3  1  0
  3  4  2  0
  3  5  1  0
  5  6  2  0
  5  7  1  0
  7  8  1  0
  8  9  1  0
  9 10  1  0
  9 11  2  0
  8 12  2  0
 12 13  1  0
 13 14  2  0
 14 15  1  0
 15 16  2  0
 16 17  1  0
 17 18  1  0
 17 19  1  0
 17 20  1  0
 16 21  1  0
 21 22  2  0
  2 23  1  0
 23 24  1  0
 24 25  1  0
 25 26  1  0
 26 27  1  1
 26 28  1  0
 22  7  1  0
 28 23  1  0
 22 13  1  0
  1 29  1  0
  1 30  1  0
  1 31  1  0
  2 32  1  6
 10 33  1  0
 12 34  1  0
 14 35  1  0
 15 36  1  0
 21 37  1  0
 23 38  1  1
 24 39  1  0
 24 40  1  0
 25 41  1  0
 25 42  1  0
 27 43  1  0
 28 44  1  0
 28 45  1  0
M  CHG  3   2   1  10  -1  26   1
M  END
>  <UniqueID>  (25) 
25

>  <SMILES>  (25) 
C[N@H+](C(=O)C(=O)n1c(C([NH-])=O)cc2ccc(C(F)(F)F)cc21)[C@@H]1CC[S+](O)C1

>  <Energy>  (25) 
93.20614827041756

>  <Genealogy>  (25) 
C[NH+](C(=O)C(=O)n1c(C([NH-])=O)cc2ccc(C(F)(F)F)cc21)C1CC[S+](O)C1 (protonated)
C[N@H+](C(=O)C(=O)n1c(C([NH-])=O)cc2ccc(C(F)(F)F)cc21)[C@@H]1CC[S+](O)C1 (chirality)
C[N@H+](C(=O)C(=O)n1c(C([NH-])=O)cc2ccc(C(F)(F)F)cc21)[C@@H]1CC[S+](O)C1 (3D coordinates assigned)
C[N@H+](C(=O)C(=O)n1c(C([NH-])=O)cc2ccc(C(F)(F)F)cc21)[C@@H]1CC[S+](O)C1 (nonaromatic ring conformer: 93.20614827041756 kcal/mol)

>  <smiles>  (25) 
CN(C(=O)C(=O)n1c(C(N)=O)cc2ccc(C(F)(F)F)cc21)C1CC[S+]([O-])C1

>  <score_type>  (25) 
oracle

>  <origin>  (25) 
adg

>  <m_score__min__energy>  (25) 
-10.19

>  <m_primary>  (25) 
energy

$$$$
25:0
     RDKit          3D

 43 45  0  0  0  0  0  0  0  0999 V2000
   -4.1840   25.5040  -30.7250 N   0  0  0  0  0  0  0  0  0  0  0  0
   -5.4870   25.0010  -30.4240 C   0  0  0  0  0  0  0  0  0  0  0  0
   -6.2240   25.6370  -29.6240 O   0  0  0  0  0  0  0  0  0  0  0  0
   -5.9590   23.7180  -30.9810 C   0  0  0  0  0  0  0  0  0  0  0  0
   -7.3060   23.4040  -31.1450 C   0  0  0  0  0  0  0  0  0  0  0  0
   -7.3220   22.1120  -31.6200 C   0  0  0  0  0  0  0  0  0  0  0  0
   -8.3970   21.3060  -31.9770 C   0  0  0  0  0  0  0  0  0  0  0  0
   -8.1210   20.0240  -32.4790 C   0  0  0  0  0  0  0  0  0  0  0  0
   -6.7840   19.5680  -32.6120 C   0  0  0  0  0  0  0  0  0  0  0  0
   -6.4960   18.2150  -33.2100 C   0  0  0  0  0  0  0  0  0  0  0  0
   -7.6040   17.3910  -33.1090 F   0  0  0  0  0  0  0  0  0  0  0  0
   -6.1660   18.3330  -34.5490 F   0  0  0  0  0  0  0  0  0  0  0  0
   -5.4390   17.6340  -32.5340 F   0  0  0  0  0  0  0  0  0  0  0  0
   -5.7180   20.4300  -32.2650 C   0  0  0  0  0  0  0  0  0  0  0  0
   -6.0220   21.6930  -31.7410 C   0  0  0  0  0  0  0  0  0  0  0  0
   -5.1710   22.6710  -31.3550 N   0  0  0  0  0  0  0  0  0  0  0  0
   -3.7360   22.6340  -31.4270 C   0  0  0  0  0  0  0  0  0  0  0  0
   -3.1730   22.2310  -32.4820 O   0  0  0  0  0  0  0  0  0  0  0  0
   -2.9800   23.0400  -30.3190 O   0  0  0  0  0  0  0  0  0  0  0  0
   -3.1400   22.5690  -29.0090 C   0  0  0  0  0  0  0  0  0  0  0  0
   -3.7720   23.2510  -28.1560 O   0  0  0  0  0  0  0  0  0  0  0  0
   -2.5740   21.2980  -28.6320 N   0  0  0  0  0  0  0  0  0  0  0  0
   -1.8440   20.4810  -29.6130 C   0  0  0  0  0  0  0  0  0  0  0  0
   -0.5510   19.9320  -28.9950 C   0  0  0  0  0  0  0  0  0  0  0  0
   -0.7380   19.3600  -27.5710 C   0  0  0  0  0  0  0  0  0  0  0  0
   -2.1930   19.3870  -27.0880 C   0  0  0  0  0  0  0  0  0  0  0  0
   -2.8010   20.7820  -27.2740 C   0  0  0  0  0  0  0  0  0  0  0  0
   -3.8830   26.4330  -30.3550 H   0  0  0  0  0  0  0  0  0  0  0  0
   -3.4890   24.9240  -31.2430 H   0  0  0  0  0  0  0  0  0  0  0  0
   -8.1720   24.0503  -30.9390 H   0  0  0  0  0  0  0  0  0  0  0  0
   -9.4323   21.6617  -31.8695 H   0  0  0  0  0  0  0  0  0  0  0  0
   -8.9515   19.3652  -32.7727 H   0  0  0  0  0  0  0  0  0  0  0  0
   -4.6730   20.1156  -32.4035 H   0  0  0  0  0  0  0  0  0  0  0  0
   -2.4796   19.6409  -29.9298 H   0  0  0  0  0  0  0  0  0  0  0  0
   -1.5873   21.1082  -30.4795 H   0  0  0  0  0  0  0  0  0  0  0  0
   -0.1688   19.1303  -29.6440 H   0  0  0  0  0  0  0  0  0  0  0  0
    0.1502   20.7756  -28.9135 H   0  0  0  0  0  0  0  0  0  0  0  0
   -0.3886   18.3170  -27.5660 H   0  0  0  0  0  0  0  0  0  0  0  0
   -0.1579   19.9972  -26.8873 H   0  0  0  0  0  0  0  0  0  0  0  0
   -2.7790   18.6578  -27.6667 H   0  0  0  0  0  0  0  0  0  0  0  0
   -2.2148   19.1320  -26.0182 H   0  0  0  0  0  0  0  0  0  0  0  0
   -3.8841   20.7261  -27.0904 H   0  0  0  0  0  0  0  0  0  0  0  0
   -2.3150   21.4654  -26.5621 H   0  0  0  0  0  0  0  0  0  0  0  0
  1  2  1  0
  2  3  2  0
  2  4  1  0
  4  5  2  0
  5  6  1  0
  6  7  2  0
  7  8  1  0
  8  9  2  0
  9 10  1  0
 10 11  1  0
 10 12  1  0
 10 13  1  0
  9 14  1  0
 14 15  2  0
 15 16  1  0
 16 17  1  0
 17 18  2  0
 17 19  1  0
 19 20  1  0
 20 21  2  0
 20 22  1  0
 22 23  1  0
 23 24  1  0
 24 25  1  0
 25 26  1  0
 26 27  1  0
 16  4  1  0
 27 22  1  0
 15  6  1  0
  1 28  1  0
  1 29  1  0
  5 30  1  0
  7 31  1  0
  8 32  1  0
 14 33  1  0
 23 34  1  0
 23 35  1  0
 24 36  1  0
 24 37  1  0
 25 38  1  0
 25 39  1  0
 26 40  1  0
 26 41  1  0
 27 42  1  0
 27 43  1  0
M  END
>  <UniqueID>  (26) 
26

>  <SMILES>  (26) 
NC(=O)c1cc2ccc(C(F)(F)F)cc2n1C(=O)OC(=O)N1CCCCC1

>  <Energy>  (26) 
84.78030568687576

>  <Genealogy>  (26) 
NC(=O)c1cc2ccc(C(F)(F)F)cc2n1C(=O)OC(=O)N1CCCCC1 (3D coordinates assigned)
NC(=O)c1cc2ccc(C(F)(F)F)cc2n1C(=O)OC(=O)N1CCCCC1 (nonaromatic ring conformer: 84.78030568687576 kcal/mol)

>  <smiles>  (26) 
NC(=O)c1cc2ccc(C(F)(F)F)cc2n1C(=O)OC(=O)N1CCCCC1

>  <score_type>  (26) 
oracle

>  <origin>  (26) 
adg

>  <m_score__min__energy>  (26) 
-9.0899999999999999

>  <m_primary>  (26) 
energy

$$$$
26:0
     RDKit          3D

 43 44  0  0  0  0  0  0  0  0999 V2000
    1.0000   23.7900  -27.3740 C   0  0  0  0  0  0  0  0  0  0  0  0
    0.4600   24.8990  -28.0810 O   0  0  0  0  0  0  0  0  0  0  0  0
   -0.8240   24.8870  -28.6330 C   0  0  0  0  0  0  0  0  0  0  0  0
   -1.4320   25.9650  -28.8750 O   0  0  0  0  0  0  0  0  0  0  0  0
   -1.5070   23.5830  -28.8730 C   0  0  0  0  0  0  0  0  0  0  0  0
   -1.6630   23.3960  -30.2730 O   0  0  0  0  0  0  0  0  0  0  0  0
   -1.3030   22.2130  -30.9220 C   0  0  0  0  0  0  0  0  0  0  0  0
   -0.2500   21.5990  -30.6020 O   0  0  0  0  0  0  0  0  0  0  0  0
   -2.1900   21.6660  -31.9560 C   0  0  0  0  0  0  0  0  0  0  0  0
   -1.8320   21.7360  -33.1640 O   0  0  0  0  0  0  0  0  0  0  0  0
   -3.4660   21.0850  -31.6200 N   0  0  0  0  0  0  0  0  0  0  0  0
   -4.0980   20.1570  -32.5610 C   0  0  0  0  0  0  0  0  0  0  0  0
   -4.2040   21.5120  -30.4510 C   0  0  0  0  0  0  0  0  0  0  0  0
   -3.8010   21.1850  -29.3020 O   0  0  0  0  0  0  0  0  0  0  0  0
   -5.4120   22.2850  -30.5720 N   0  0  0  0  0  0  0  0  0  0  0  0
   -5.6060   23.5860  -30.2100 C   0  0  0  0  0  0  0  0  0  0  0  0
   -4.5780   24.4890  -29.6490 C   0  0  0  0  0  0  0  0  0  0  0  0
   -3.7860   25.2910  -30.5220 N   0  0  0  0  0  0  0  0  0  0  0  0
   -4.3800   24.5500  -28.4070 O   0  0  0  0  0  0  0  0  0  0  0  0
   -6.9010   23.9910  -30.5250 C   0  0  0  0  0  0  0  0  0  0  0  0
   -7.5020   22.8900  -31.0900 C   0  0  0  0  0  0  0  0  0  0  0  0
   -8.7830   22.7370  -31.6140 C   0  0  0  0  0  0  0  0  0  0  0  0
   -9.1300   21.4830  -32.1460 C   0  0  0  0  0  0  0  0  0  0  0  0
   -8.1970   20.4170  -32.1470 C   0  0  0  0  0  0  0  0  0  0  0  0
   -8.5890   19.0720  -32.6810 C   0  0  0  0  0  0  0  0  0  0  0  0
   -6.9130   20.6050  -31.5910 C   0  0  0  0  0  0  0  0  0  0  0  0
   -6.5870   21.8700  -31.0950 C   0  0  0  0  0  0  0  0  0  0  0  0
    0.9135   23.9677  -26.2919 H   0  0  0  0  0  0  0  0  0  0  0  0
    0.4447   22.8790  -27.6415 H   0  0  0  0  0  0  0  0  0  0  0  0
    2.0597   23.6653  -27.6415 H   0  0  0  0  0  0  0  0  0  0  0  0
   -0.8995   22.7659  -28.4567 H   0  0  0  0  0  0  0  0  0  0  0  0
   -2.4928   23.5832  -28.3849 H   0  0  0  0  0  0  0  0  0  0  0  0
   -4.6312   19.3741  -32.0017 H   0  0  0  0  0  0  0  0  0  0  0  0
   -4.8110   20.7056  -33.1940 H   0  0  0  0  0  0  0  0  0  0  0  0
   -3.3264   19.6945  -33.1940 H   0  0  0  0  0  0  0  0  0  0  0  0
   -2.7440   25.2980  -30.4470 H   0  0  0  0  0  0  0  0  0  0  0  0
   -7.3485   24.9818  -30.3574 H   0  0  0  0  0  0  0  0  0  0  0  0
   -9.5005   23.5708  -31.6117 H   0  0  0  0  0  0  0  0  0  0  0  0
  -10.1351   21.3280  -32.5653 H   0  0  0  0  0  0  0  0  0  0  0  0
   -8.7882   18.3884  -31.8425 H   0  0  0  0  0  0  0  0  0  0  0  0
   -9.4955   19.1717  -33.2961 H   0  0  0  0  0  0  0  0  0  0  0  0
   -7.7709   18.6691  -33.2961 H   0  0  0  0  0  0  0  0  0  0  0  0
   -6.1888   19.7781  -31.5494 H   0  0  0  0  0  0  0  0  0  0  0  0
  1  2  1  0
  2  3  1  0
  3  4  2  0
  3  5  1  0
  5  6  1  0
  6  7  1  0
  7  8  2  0
  7  9  1  0
  9 10  2  0
  9 11  1  0
 11 12  1  0
 11 13  1  0
 13 14  2  0
 13 15  1  0
 15 16  1  0
 16 17  1  0
 17 18  1  0
 17 19  2  0
 16 20  2  0
 20 21  1  0
 21 22  2  0
 22 23  1  0
 23 24  2  0
 24 25  1  0
 24 26  1  0
 26 27  2  0
 27 15  1  0
 27 21  1  0
  1 28  1  0
  1 29  1  0
  1 30  1  0
  5 31  1  0
  5 32  1  0
 12 33  1  0
 12 34  1  0
 12 35  1  0
 18 36  1  0
 20 37  1  0
 22 38  1  0
 23 39  1  0
 25 40  1  0
 25 41  1  0
 25 42  1  0
 26 43  1  0
M  CHG  1  18  -1
M  END
>  <UniqueID>  (27) 
27

>  <SMILES>  (27) 
COC(=O)COC(=O)C(=O)N(C)C(=O)n1c(C([NH-])=O)cc2ccc(C)cc21

>  <Energy>  (27) 
77.26783132258706

>  <Genealogy>  (27) 
COC(=O)COC(=O)C(=O)N(C)C(=O)n1c(C([NH-])=O)cc2ccc(C)cc21 (protonated)
COC(=O)COC(=O)C(=O)N(C)C(=O)n1c(C([NH-])=O)cc2ccc(C)cc21 (3D coordinates assigned)
COC(=O)COC(=O)C(=O)N(C)C(=O)n1c(C([NH-])=O)cc2ccc(C)cc21 (optimized conformer: 77.26783132258706 kcal/mol)

>  <smiles>  (27) 
COC(=O)COC(=O)C(=O)N(C)C(=O)n1c(C(N)=O)cc2ccc(C)cc21

>  <score_type>  (27) 
oracle

>  <origin>  (27) 
adg

>  <m_score__min__energy>  (27) 
-10.17

>  <m_primary>  (27) 
energy

$$$$
27:0
     RDKit          3D

 37 38  0  0  0  0  0  0  0  0999 V2000
   -6.4700   17.6010  -31.5970 C   0  0  0  0  0  0  0  0  0  0  0  0
   -7.2110   18.3630  -32.6900 C   0  0  0  0  0  0  0  0  0  0  0  0
   -7.3640   19.8120  -32.3180 C   0  0  0  0  0  0  0  0  0  0  0  0
   -8.6470   20.4140  -32.3100 C   0  0  0  0  0  0  0  0  0  0  0  0
   -8.8030   21.7620  -31.9430 C   0  0  0  0  0  0  0  0  0  0  0  0
   -7.6650   22.4720  -31.5710 C   0  0  0  0  0  0  0  0  0  0  0  0
   -7.5260   23.7880  -31.1920 C   0  0  0  0  0  0  0  0  0  0  0  0
   -6.1660   23.9580  -30.9370 C   0  0  0  0  0  0  0  0  0  0  0  0
   -5.5810   25.2190  -30.4340 C   0  0  0  0  0  0  0  0  0  0  0  0
   -4.2740   25.6330  -30.8260 N   0  0  0  0  0  0  0  0  0  0  0  0
   -6.2290   25.9240  -29.6150 O   0  0  0  0  0  0  0  0  0  0  0  0
   -5.4910   22.7940  -31.1550 N   0  0  0  0  0  0  0  0  0  0  0  0
   -4.0770   22.5650  -31.0680 C   0  0  0  0  0  0  0  0  0  0  0  0
   -3.5760   21.5560  -31.6360 O   0  0  0  0  0  0  0  0  0  0  0  0
   -3.2480   23.4770  -30.3310 N   0  0  0  0  0  0  0  0  0  0  0  0
   -1.8510   23.2640  -30.0710 C   0  0  0  0  0  0  0  0  0  0  0  0
   -1.2650   22.2400  -30.5180 O   0  0  0  0  0  0  0  0  0  0  0  0
   -1.0870   24.2370  -29.2740 C   0  0  0  0  0  0  0  0  0  0  0  0
    0.0710   23.9420  -28.8700 O   0  0  0  0  0  0  0  0  0  0  0  0
   -1.6490   25.4790  -28.9660 O   0  0  0  0  0  0  0  0  0  0  0  0
   -1.2350   26.2510  -27.8450 C   0  0  0  0  0  0  0  0  0  0  0  0
   -6.4220   21.8960  -31.5430 C   0  0  0  0  0  0  0  0  0  0  0  0
   -6.2330   20.5630  -31.9270 C   0  0  0  0  0  0  0  0  0  0  0  0
   -6.8101   17.9508  -30.6111 H   0  0  0  0  0  0  0  0  0  0  0  0
   -6.6765   16.5251  -31.6956 H   0  0  0  0  0  0  0  0  0  0  0  0
   -5.3887   17.7774  -31.6956 H   0  0  0  0  0  0  0  0  0  0  0  0
   -6.6436   18.2894  -33.6295 H   0  0  0  0  0  0  0  0  0  0  0  0
   -8.2112   17.9220  -32.8124 H   0  0  0  0  0  0  0  0  0  0  0  0
   -9.5289   19.8209  -32.5936 H   0  0  0  0  0  0  0  0  0  0  0  0
   -9.7933   22.2407  -31.9496 H   0  0  0  0  0  0  0  0  0  0  0  0
   -8.3197   24.5450  -31.1081 H   0  0  0  0  0  0  0  0  0  0  0  0
   -3.4890   25.6530  -30.1390 H   0  0  0  0  0  0  0  0  0  0  0  0
   -3.6980   24.3460  -29.9670 H   0  0  0  0  0  0  0  0  0  0  0  0
   -1.5145   25.7298  -26.9175 H   0  0  0  0  0  0  0  0  0  0  0  0
   -0.1437   26.3856  -27.8754 H   0  0  0  0  0  0  0  0  0  0  0  0
   -1.7267   27.2345  -27.8754 H   0  0  0  0  0  0  0  0  0  0  0  0
   -5.2297   20.1120  -31.9243 H   0  0  0  0  0  0  0  0  0  0  0  0
  1  2  1  0
  2  3  1  0
  3  4  2  0
  4  5  1  0
  5  6  2  0
  6  7  1  0
  7  8  2  0
  8  9  1  0
  9 10  1  0
  9 11  2  0
  8 12  1  0
 12 13  1  0
 13 14  2  0
 13 15  1  0
 15 16  1  0
 16 17  2  0
 16 18  1  0
 18 19  2  0
 18 20  1  0
 20 21  1  0
 12 22  1  0
 22 23  2  0
 23  3  1  0
 22  6  1  0
  1 24  1  0
  1 25  1  0
  1 26  1  0
  2 27  1  0
  2 28  1  0
  4 29  1  0
  5 30  1  0
  7 31  1  0
 10 32  1  0
 15 33  1  0
 21 34  1  0
 21 35  1  0
 21 36  1  0
 23 37  1  0
M  CHG  1  10  -1
M  END
>  <UniqueID>  (28) 
28

>  <SMILES>  (28) 
CCc1ccc2cc(C([NH-])=O)n(C(=O)NC(=O)C(=O)OC)c2c1

>  <Energy>  (28) 
69.85361849597743

>  <Genealogy>  (28) 
CCc1ccc2cc(C([NH-])=O)n(C(=O)NC(=O)C(=O)OC)c2c1 (protonated)
CCc1ccc2cc(C([NH-])=O)n(C(=O)NC(=O)C(=O)OC)c2c1 (3D coordinates assigned)
CCc1ccc2cc(C([NH-])=O)n(C(=O)NC(=O)C(=O)OC)c2c1 (optimized conformer: 69.85361849597743 kcal/mol)

>  <smiles>  (28) 
CCc1ccc2cc(C(N)=O)n(C(=O)NC(=O)C(=O)OC)c2c1

>  <score_type>  (28) 
oracle

>  <origin>  (28) 
adg

>  <m_score__min__energy>  (28) 
-10.460000000000001

>  <m_primary>  (28) 
energy

$$$$
28:0
     RDKit          3D

 43 44  0  0  0  0  0  0  0  0999 V2000
   -6.0450   18.3000  -34.2150 C   0  0  0  0  0  0  0  0  0  0  0  0
   -6.9870   18.3420  -33.0160 C   0  0  0  0  0  0  0  0  0  0  0  0
   -7.1320   19.7480  -32.5010 C   0  0  0  0  0  0  0  0  0  0  0  0
   -8.4170   20.3330  -32.3820 C   0  0  0  0  0  0  0  0  0  0  0  0
   -8.5630   21.6560  -31.9270 C   0  0  0  0  0  0  0  0  0  0  0  0
   -7.4090   22.3670  -31.6120 C   0  0  0  0  0  0  0  0  0  0  0  0
   -7.2580   23.6540  -31.1440 C   0  0  0  0  0  0  0  0  0  0  0  0
   -5.8820   23.8390  -31.0120 C   0  0  0  0  0  0  0  0  0  0  0  0
   -5.2620   25.1190  -30.6060 C   0  0  0  0  0  0  0  0  0  0  0  0
   -3.8670   25.3450  -30.7830 N   0  0  0  0  0  0  0  0  0  0  0  0
   -5.9800   26.0350  -30.1250 O   0  0  0  0  0  0  0  0  0  0  0  0
   -5.2150   22.7080  -31.3740 N   0  0  0  0  0  0  0  0  0  0  0  0
   -3.8010   22.4600  -31.3330 C   0  0  0  0  0  0  0  0  0  0  0  0
   -3.2420   21.9360  -32.3320 O   0  0  0  0  0  0  0  0  0  0  0  0
   -3.0230   22.7730  -30.1060 C   0  0  0  0  0  0  0  0  0  0  0  0
   -1.9030   23.3380  -30.2370 O   0  0  0  0  0  0  0  0  0  0  0  0
   -3.5100   22.4810  -28.7750 N   0  0  1  0  0  0  0  0  0  0  0  0
   -2.8610   21.2820  -28.2210 C   0  0  0  0  0  0  0  0  0  0  0  0
   -3.3670   23.6300  -27.9130 C   0  0  0  0  0  0  0  0  0  0  0  0
   -4.1470   24.6130  -28.0550 O   0  0  0  0  0  0  0  0  0  0  0  0
   -2.3470   23.6780  -26.9510 O   0  0  0  0  0  0  0  0  0  0  0  0
   -1.4590   24.7830  -26.8040 C   0  0  0  0  0  0  0  0  0  0  0  0
   -0.8690   25.1570  -28.1270 C   0  0  0  0  0  0  0  0  0  0  0  0
    0.2370   24.6740  -28.4830 O   0  0  0  0  0  0  0  0  0  0  0  0
   -1.5280   26.0560  -28.9550 O   0  0  0  0  0  0  0  0  0  0  0  0
   -6.1600   21.8210  -31.7430 C   0  0  0  0  0  0  0  0  0  0  0  0
   -5.9830   20.5060  -32.1840 C   0  0  0  0  0  0  0  0  0  0  0  0
   -5.0042   18.2536  -33.8621 H   0  0  0  0  0  0  0  0  0  0  0  0
   -6.2658   17.4108  -34.8238 H   0  0  0  0  0  0  0  0  0  0  0  0
   -6.1858   19.2053  -34.8238 H   0  0  0  0  0  0  0  0  0  0  0  0
   -7.9748   17.9653  -33.3198 H   0  0  0  0  0  0  0  0  0  0  0  0
   -6.5681   17.7143  -32.2157 H   0  0  0  0  0  0  0  0  0  0  0  0
   -9.3090   19.7469  -32.6480 H   0  0  0  0  0  0  0  0  0  0  0  0
   -9.5577   22.1140  -31.8235 H   0  0  0  0  0  0  0  0  0  0  0  0
   -8.0533   24.3808  -30.9218 H   0  0  0  0  0  0  0  0  0  0  0  0
   -3.1880   25.1500  -30.0120 H   0  0  0  0  0  0  0  0  0  0  0  0
   -4.5340   22.2660  -28.8370 H   0  0  0  0  0  0  0  0  0  0  0  0
   -2.8851   21.3266  -27.1222 H   0  0  0  0  0  0  0  0  0  0  0  0
   -3.3962   20.3841  -28.5634 H   0  0  0  0  0  0  0  0  0  0  0  0
   -1.8165   21.2391  -28.5634 H   0  0  0  0  0  0  0  0  0  0  0  0
   -2.0134   25.6421  -26.3984 H   0  0  0  0  0  0  0  0  0  0  0  0
   -0.6469   24.4996  -26.1183 H   0  0  0  0  0  0  0  0  0  0  0  0
   -4.9763   20.0735  -32.2814 H   0  0  0  0  0  0  0  0  0  0  0  0
  1  2  1  0
  2  3  1  0
  3  4  2  0
  4  5  1  0
  5  6  2  0
  6  7  1  0
  7  8  2  0
  8  9  1  0
  9 10  1  0
  9 11  2  0
  8 12  1  0
 12 13  1  0
 13 14  2  0
 13 15  1  0
 15 16  2  0
 15 17  1  0
 17 18  1  0
 17 19  1  0
 19 20  2  0
 19 21  1  0
 21 22  1  0
 22 23  1  0
 23 24  2  0
 23 25  1  0
 12 26  1  0
 26 27  2  0
 27  3  1  0
 26  6  1  0
  1 28  1  0
  1 29  1  0
  1 30  1  0
  2 31  1  0
  2 32  1  0
  4 33  1  0
  5 34  1  0
  7 35  1  0
 10 36  1  0
 17 37  1  6
 18 38  1  0
 18 39  1  0
 18 40  1  0
 22 41  1  0
 22 42  1  0
 27 43  1  0
M  CHG  3  10  -1  17   1  25  -1
M  END
>  <UniqueID>  (29) 
29

>  <SMILES>  (29) 
CCc1ccc2cc(C([NH-])=O)n(C(=O)C(=O)[NH+](C)C(=O)OCC(=O)[O-])c2c1

>  <Energy>  (29) 
80.75113734665483

>  <Genealogy>  (29) 
CCc1ccc2cc(C([NH-])=O)n(C(=O)C(=O)[NH+](C)C(=O)OCC(=O)[O-])c2c1 (protonated)
CCc1ccc2cc(C([NH-])=O)n(C(=O)C(=O)[NH+](C)C(=O)OCC(=O)[O-])c2c1 (3D coordinates assigned)
CCc1ccc2cc(C([NH-])=O)n(C(=O)C(=O)[NH+](C)C(=O)OCC(=O)[O-])c2c1 (optimized conformer: 80.75113734665483 kcal/mol)

>  <smiles>  (29) 
CCc1ccc2cc(C(N)=O)n(C(=O)C(=O)N(C)C(=O)OCC(=O)O)c2c1

>  <score_type>  (29) 
oracle

>  <origin>  (29) 
adg

>  <m_score__min__energy>  (29) 
-11.949999999999999

>  <m_primary>  (29) 
energy

$$$$
29:0
     RDKit          3D

 48 50  0  0  0  0  0  0  0  0999 V2000
   -1.8080   20.9650  -27.1500 C   0  0  0  0  0  0  0  0  0  0  0  0
   -1.6880   22.4880  -27.2040 C   0  0  0  0  0  0  0  0  0  0  0  0
   -2.3900   23.0880  -28.4320 C   0  0  2  0  0  0  0  0  0  0  0  0
   -2.5590   22.0620  -29.4100 O   0  0  0  0  0  0  0  0  0  0  0  0
   -2.8750   22.3150  -30.7510 C   0  0  0  0  0  0  0  0  0  0  0  0
   -1.9560   22.4980  -31.5950 O   0  0  0  0  0  0  0  0  0  0  0  0
   -4.2530   22.3800  -31.1590 N   0  0  0  0  0  0  0  0  0  0  0  0
   -5.1020   23.4370  -31.0250 C   0  0  0  0  0  0  0  0  0  0  0  0
   -4.8300   24.6720  -30.2640 C   0  0  0  0  0  0  0  0  0  0  0  0
   -5.2650   24.8130  -28.9110 N   0  0  0  0  0  0  0  0  0  0  0  0
   -4.2560   25.6380  -30.8330 O   0  0  0  0  0  0  0  0  0  0  0  0
   -6.3100   23.1850  -31.6680 C   0  0  0  0  0  0  0  0  0  0  0  0
   -6.1820   21.9220  -32.1960 C   0  0  0  0  0  0  0  0  0  0  0  0
   -7.0800   21.1780  -32.9540 C   0  0  0  0  0  0  0  0  0  0  0  0
   -6.6710   19.9140  -33.4070 C   0  0  0  0  0  0  0  0  0  0  0  0
   -5.3770   19.4190  -33.1020 C   0  0  0  0  0  0  0  0  0  0  0  0
   -4.9450   18.0930  -33.6060 C   0  0  0  0  0  0  0  0  0  0  0  0
   -3.8950   18.0170  -34.5370 C   0  0  0  0  0  0  0  0  0  0  0  0
   -3.4760   16.7830  -35.0360 C   0  0  0  0  0  0  0  0  0  0  0  0
   -4.0980   15.6100  -34.6100 C   0  0  0  0  0  0  0  0  0  0  0  0
   -5.1370   15.6660  -33.6780 C   0  0  0  0  0  0  0  0  0  0  0  0
   -5.5670   16.9040  -33.1610 C   0  0  0  0  0  0  0  0  0  0  0  0
   -6.5880   16.9860  -32.1980 O   0  0  0  0  0  0  0  0  0  0  0  0
   -6.4090   17.4670  -30.8690 C   0  0  0  0  0  0  0  0  0  0  0  0
   -4.4900   20.2090  -32.3370 C   0  0  0  0  0  0  0  0  0  0  0  0
   -4.9320   21.4560  -31.8790 C   0  0  0  0  0  0  0  0  0  0  0  0
   -1.5880   24.2200  -29.0130 C   0  0  0  0  0  0  0  0  0  0  0  0
   -2.1580   25.2950  -29.3380 O   0  0  0  0  0  0  0  0  0  0  0  0
   -0.2170   24.0900  -29.1880 O   0  0  0  0  0  0  0  0  0  0  0  0
   -1.8339   20.6362  -26.1006 H   0  0  0  0  0  0  0  0  0  0  0  0
   -2.7336   20.6520  -27.6553 H   0  0  0  0  0  0  0  0  0  0  0  0
   -0.9429   20.5109  -27.6553 H   0  0  0  0  0  0  0  0  0  0  0  0
   -2.1425   22.9105  -26.2958 H   0  0  0  0  0  0  0  0  0  0  0  0
   -0.6190   22.7378  -27.2736 H   0  0  0  0  0  0  0  0  0  0  0  0
   -3.3681   23.4881  -28.1266 H   0  0  0  0  0  0  0  0  0  0  0  0
   -5.0290   25.6750  -28.3710 H   0  0  0  0  0  0  0  0  0  0  0  0
   -5.8860   24.1000  -28.4700 H   0  0  0  0  0  0  0  0  0  0  0  0
   -7.1809   23.8532  -31.7387 H   0  0  0  0  0  0  0  0  0  0  0  0
   -8.0806   21.5684  -33.1913 H   0  0  0  0  0  0  0  0  0  0  0  0
   -7.3612   19.3007  -34.0049 H   0  0  0  0  0  0  0  0  0  0  0  0
   -3.3989   18.9386  -34.8754 H   0  0  0  0  0  0  0  0  0  0  0  0
   -2.6544   16.7356  -35.7659 H   0  0  0  0  0  0  0  0  0  0  0  0
   -3.7699   14.6387  -35.0086 H   0  0  0  0  0  0  0  0  0  0  0  0
   -5.6229   14.7369  -33.3454 H   0  0  0  0  0  0  0  0  0  0  0  0
   -6.7004   16.6841  -30.1533 H   0  0  0  0  0  0  0  0  0  0  0  0
   -5.3525   17.7309  -30.7138 H   0  0  0  0  0  0  0  0  0  0  0  0
   -7.0360   18.3574  -30.7138 H   0  0  0  0  0  0  0  0  0  0  0  0
   -3.4752   19.8524  -32.1065 H   0  0  0  0  0  0  0  0  0  0  0  0
  1  2  1  0
  2  3  1  0
  3  4  1  0
  4  5  1  0
  5  6  2  0
  5  7  1  0
  7  8  1  0
  8  9  1  0
  9 10  1  0
  9 11  2  0
  8 12  2  0
 12 13  1  0
 13 14  2  0
 14 15  1  0
 15 16  2  0
 16 17  1  0
 17 18  2  0
 18 19  1  0
 19 20  2  0
 20 21  1  0
 21 22  2  0
 22 23  1  0
 23 24  1  0
 16 25  1  0
 25 26  2  0
  3 27  1  0
 27 28  2  0
 27 29  1  0
 26  7  1  0
 26 13  1  0
 22 17  1  0
  1 30  1  0
  1 31  1  0
  1 32  1  0
  2 33  1  0
  2 34  1  0
  3 35  1  1
 10 36  1  0
 10 37  1  0
 12 38  1  0
 14 39  1  0
 15 40  1  0
 18 41  1  0
 19 42  1  0
 20 43  1  0
 21 44  1  0
 24 45  1  0
 24 46  1  0
 24 47  1  0
 25 48  1  0
M  CHG  1  29  -1
M  END
>  <UniqueID>  (30) 
30

>  <SMILES>  (30) 
CC[C@H](OC(=O)n1c(C(N)=O)cc2ccc(-c3ccccc3OC)cc21)C(=O)[O-]

>  <Energy>  (30) 
89.32110381666196

>  <Genealogy>  (30) 
CCC(OC(=O)n1c(C(N)=O)cc2ccc(-c3ccccc3OC)cc21)C(=O)[O-] (protonated)
CC[C@H](OC(=O)n1c(C(N)=O)cc2ccc(-c3ccccc3OC)cc21)C(=O)[O-] (chirality)
CC[C@H](OC(=O)n1c(C(N)=O)cc2ccc(-c3ccccc3OC)cc21)C(=O)[O-] (3D coordinates assigned)
CC[C@H](OC(=O)n1c(C(N)=O)cc2ccc(-c3ccccc3OC)cc21)C(=O)[O-] (optimized conformer: 89.32110381666196 kcal/mol)

>  <smiles>  (30) 
CCC(OC(=O)n1c(C(N)=O)cc2ccc(-c3ccccc3OC)cc21)C(=O)O

>  <score_type>  (30) 
oracle

>  <origin>  (30) 
adg

>  <m_score__min__energy>  (30) 
-12.359999999999999

>  <m_primary>  (30) 
energy

$$$$
30:0
     RDKit          3D

 48 50  0  0  0  0  0  0  0  0999 V2000
   -6.9520   23.5970  -32.6860 N   0  0  0  0  0  0  0  0  0  0  0  0
   -7.6840   22.4360  -32.2800 C   0  0  0  0  0  0  0  0  0  0  0  0
   -8.7920   22.5870  -31.7010 O   0  0  0  0  0  0  0  0  0  0  0  0
   -7.1520   21.0740  -32.5230 C   0  0  0  0  0  0  0  0  0  0  0  0
   -7.9300   19.9320  -32.7240 C   0  0  0  0  0  0  0  0  0  0  0  0
   -7.0330   18.9030  -32.9070 C   0  0  0  0  0  0  0  0  0  0  0  0
   -7.2520   17.5460  -33.1230 C   0  0  0  0  0  0  0  0  0  0  0  0
   -6.1280   16.7090  -33.2520 C   0  0  0  0  0  0  0  0  0  0  0  0
   -4.8120   17.2410  -33.1760 C   0  0  0  0  0  0  0  0  0  0  0  0
   -3.6200   16.3190  -33.2470 C   0  0  0  0  0  0  0  0  0  0  0  0
   -3.9020   15.1610  -32.5510 F   0  0  0  0  0  0  0  0  0  0  0  0
   -2.4980   16.9150  -32.6960 F   0  0  0  0  0  0  0  0  0  0  0  0
   -3.3370   15.9980  -34.5640 F   0  0  0  0  0  0  0  0  0  0  0  0
   -4.6340   18.6240  -32.9370 C   0  0  0  0  0  0  0  0  0  0  0  0
   -5.7720   19.4270  -32.8140 C   0  0  0  0  0  0  0  0  0  0  0  0
   -5.8290   20.7540  -32.5900 N   0  0  0  0  0  0  0  0  0  0  0  0
   -4.7090   21.6320  -32.4220 C   0  0  0  0  0  0  0  0  0  0  0  0
   -4.2390   22.2210  -33.4350 O   0  0  0  0  0  0  0  0  0  0  0  0
   -4.1170   21.8430  -31.1200 N   0  0  0  0  0  0  0  0  0  0  0  0
   -2.9020   21.1250  -30.7090 C   0  0  0  0  0  0  0  0  0  0  0  0
   -1.7170   21.6200  -31.4740 C   0  0  0  0  0  0  0  0  0  0  0  0
   -1.6430   21.4370  -32.7190 O   0  0  0  0  0  0  0  0  0  0  0  0
   -0.6950   22.2940  -30.8150 O   0  0  0  0  0  0  0  0  0  0  0  0
   -4.7250   22.8070  -30.1880 C   0  0  0  0  0  0  0  0  0  0  0  0
   -4.4520   24.2130  -30.6270 C   0  0  0  0  0  0  0  0  0  0  0  0
   -5.2290   24.7790  -31.4430 O   0  0  0  0  0  0  0  0  0  0  0  0
   -3.3170   24.8740  -30.1450 O   0  0  0  0  0  0  0  0  0  0  0  0
   -2.3250   24.2410  -29.3410 C   0  0  0  0  0  0  0  0  0  0  0  0
   -1.6630   25.2480  -28.4530 C   0  0  0  0  0  0  0  0  0  0  0  0
   -1.4190   25.0950  -27.1030 C   0  0  0  0  0  0  0  0  0  0  0  0
   -0.8120   26.2670  -26.7010 C   0  0  0  0  0  0  0  0  0  0  0  0
   -0.7270   27.0610  -27.8300 C   0  0  0  0  0  0  0  0  0  0  0  0
   -1.2450   26.4270  -28.8580 O   0  0  0  0  0  0  0  0  0  0  0  0
   -7.3480   24.5490  -32.5090 H   0  0  0  0  0  0  0  0  0  0  0  0
   -5.9960   23.5340  -33.0990 H   0  0  0  0  0  0  0  0  0  0  0  0
   -9.0281   19.8677  -32.7341 H   0  0  0  0  0  0  0  0  0  0  0  0
   -8.2721   17.1400  -33.1908 H   0  0  0  0  0  0  0  0  0  0  0  0
   -6.2695   15.6302  -33.4136 H   0  0  0  0  0  0  0  0  0  0  0  0
   -3.6263   19.0564  -32.8502 H   0  0  0  0  0  0  0  0  0  0  0  0
   -2.7322   21.2865  -29.6343 H   0  0  0  0  0  0  0  0  0  0  0  0
   -3.0357   20.0528  -30.9150 H   0  0  0  0  0  0  0  0  0  0  0  0
   -5.8123   22.6430  -30.1574 H   0  0  0  0  0  0  0  0  0  0  0  0
   -4.2880   22.6573  -29.1897 H   0  0  0  0  0  0  0  0  0  0  0  0
   -2.7992   23.4656  -28.7214 H   0  0  0  0  0  0  0  0  0  0  0  0
   -1.5676   23.7855  -29.9959 H   0  0  0  0  0  0  0  0  0  0  0  0
   -1.6584   24.2216  -26.4785 H   0  0  0  0  0  0  0  0  0  0  0  0
   -0.4658   26.5188  -25.6877 H   0  0  0  0  0  0  0  0  0  0  0  0
   -0.2916   28.0706  -27.8627 H   0  0  0  0  0  0  0  0  0  0  0  0
  1  2  1  0
  2  3  2  0
  2  4  1  0
  4  5  2  0
  5  6  1  0
  6  7  2  0
  7  8  1  0
  8  9  2  0
  9 10  1  0
 10 11  1  0
 10 12  1  0
 10 13  1  0
  9 14  1  0
 14 15  2  0
 15 16  1  0
 16 17  1  0
 17 18  2  0
 17 19  1  0
 19 20  1  0
 20 21  1  0
 21 22  2  0
 21 23  1  0
 19 24  1  0
 24 25  1  0
 25 26  2  0
 25 27  1  0
 27 28  1  0
 28 29  1  0
 29 30  2  0
 30 31  1  0
 31 32  2  0
 32 33  1  0
 16  4  1  0
 33 29  1  0
 15  6  1  0
  1 34  1  0
  1 35  1  0
  5 36  1  0
  7 37  1  0
  8 38  1  0
 14 39  1  0
 20 40  1  0
 20 41  1  0
 24 42  1  0
 24 43  1  0
 28 44  1  0
 28 45  1  0
 30 46  1  0
 31 47  1  0
 32 48  1  0
M  CHG  1  23  -1
M  END
>  <UniqueID>  (31) 
31

>  <SMILES>  (31) 
NC(=O)c1cc2ccc(C(F)(F)F)cc2n1C(=O)N(CC(=O)[O-])CC(=O)OCc1ccco1

>  <Energy>  (31) 
109.16710896454762

>  <Genealogy>  (31) 
NC(=O)c1cc2ccc(C(F)(F)F)cc2n1C(=O)N(CC(=O)[O-])CC(=O)OCc1ccco1 (protonated)
NC(=O)c1cc2ccc(C(F)(F)F)cc2n1C(=O)N(CC(=O)[O-])CC(=O)OCc1ccco1 (3D coordinates assigned)
NC(=O)c1cc2ccc(C(F)(F)F)cc2n1C(=O)N(CC(=O)[O-])CC(=O)OCc1ccco1 (optimized conformer: 109.16710896454762 kcal/mol)

>  <smiles>  (31) 
NC(=O)c1cc2ccc(C(F)(F)F)cc2n1C(=O)N(CC(=O)O)CC(=O)OCc1ccco1

>  <score_type>  (31) 
oracle

>  <origin>  (31) 
adg

>  <m_score__min__energy>  (31) 
-11.23

>  <m_primary>  (31) 
energy

$$$$
31:0
     RDKit          3D

 56 57  0  0  0  0  0  0  0  0999 V2000
   -9.3850   20.7520  -32.3460 C   0  0  0  0  0  0  0  0  0  0  0  0
   -8.5680   19.7630  -32.9340 O   0  0  0  0  0  0  0  0  0  0  0  0
   -8.5080   18.6200  -32.1020 C   0  0  0  0  0  0  0  0  0  0  0  0
   -7.0880   18.2580  -31.7610 C   0  0  0  0  0  0  0  0  0  0  0  0
   -6.8760   17.4140  -30.8490 O   0  0  0  0  0  0  0  0  0  0  0  0
   -5.9730   18.8480  -32.4520 N   0  0  0  0  0  0  0  0  0  0  0  0
   -5.1300   18.2310  -33.3280 C   0  0  0  0  0  0  0  0  0  0  0  0
   -5.1420   16.7840  -33.6490 C   0  0  0  0  0  0  0  0  0  0  0  0
   -5.3250   15.8060  -32.6240 N   0  0  0  0  0  0  0  0  0  0  0  0
   -5.0100   16.4000  -34.8420 O   0  0  0  0  0  0  0  0  0  0  0  0
   -4.2010   19.1400  -33.8320 C   0  0  0  0  0  0  0  0  0  0  0  0
   -4.5090   20.3420  -33.2390 C   0  0  0  0  0  0  0  0  0  0  0  0
   -3.9120   21.5910  -33.3860 C   0  0  0  0  0  0  0  0  0  0  0  0
   -4.4510   22.6680  -32.6640 C   0  0  0  0  0  0  0  0  0  0  0  0
   -5.5780   22.4840  -31.8180 C   0  0  0  0  0  0  0  0  0  0  0  0
   -6.1460   23.5750  -31.0700 N   0  0  0  0  0  0  0  0  0  0  0  0
   -5.7160   23.9280  -29.7160 C   0  0  0  0  0  0  0  0  0  0  0  0
   -4.3390   24.5300  -29.7320 C   0  0  0  0  0  0  0  0  0  0  0  0
   -3.9920   25.2420  -30.7130 O   0  0  0  0  0  0  0  0  0  0  0  0
   -3.4020   24.2490  -28.6710 N   0  0  0  0  0  0  0  0  0  0  0  0
   -3.8740   24.4800  -27.2980 C   0  0  0  0  0  0  0  0  0  0  0  0
   -2.1090   23.5540  -28.9200 C   0  0  0  0  0  0  0  0  0  0  0  0
   -1.8810   22.5130  -27.8060 C   0  0  0  0  0  0  0  0  0  0  0  0
   -2.0920   22.8380  -30.2910 C   0  0  0  0  0  0  0  0  0  0  0  0
   -0.9770   24.5650  -28.9500 C   0  0  0  0  0  0  0  0  0  0  0  0
    0.2180   24.1570  -28.9640 O   0  0  0  0  0  0  0  0  0  0  0  0
   -1.2490   25.9380  -28.9230 O   0  0  0  0  0  0  0  0  0  0  0  0
   -0.8540   26.7760  -27.8450 C   0  0  0  0  0  0  0  0  0  0  0  0
   -6.1590   21.2020  -31.7060 C   0  0  0  0  0  0  0  0  0  0  0  0
   -5.5850   20.1420  -32.4160 C   0  0  0  0  0  0  0  0  0  0  0  0
   -9.3221   20.6758  -31.2504 H   0  0  0  0  0  0  0  0  0  0  0  0
   -9.0425   21.7476  -32.6646 H   0  0  0  0  0  0  0  0  0  0  0  0
  -10.4273   20.6035  -32.6646 H   0  0  0  0  0  0  0  0  0  0  0  0
   -9.0572   18.8264  -31.1715 H   0  0  0  0  0  0  0  0  0  0  0  0
   -8.9580   17.7753  -32.6443 H   0  0  0  0  0  0  0  0  0  0  0  0
   -5.3770   16.0730  -31.6160 H   0  0  0  0  0  0  0  0  0  0  0  0
   -5.3530   14.7920  -32.8700 H   0  0  0  0  0  0  0  0  0  0  0  0
   -3.3933   18.9387  -34.5511 H   0  0  0  0  0  0  0  0  0  0  0  0
   -3.0443   21.7300  -34.0477 H   0  0  0  0  0  0  0  0  0  0  0  0
   -3.9958   23.6653  -32.7542 H   0  0  0  0  0  0  0  0  0  0  0  0
   -6.9240   24.1170  -31.5120 H   0  0  0  0  0  0  0  0  0  0  0  0
   -6.4228   24.6563  -29.2917 H   0  0  0  0  0  0  0  0  0  0  0  0
   -5.6936   23.0141  -29.1042 H   0  0  0  0  0  0  0  0  0  0  0  0
   -3.1217   24.1118  -26.5849 H   0  0  0  0  0  0  0  0  0  0  0  0
   -4.0319   25.5572  -27.1409 H   0  0  0  0  0  0  0  0  0  0  0  0
   -4.8215   23.9438  -27.1409 H   0  0  0  0  0  0  0  0  0  0  0  0
   -1.9871   22.9975  -26.8241 H   0  0  0  0  0  0  0  0  0  0  0  0
   -2.6240   21.7072  -27.8995 H   0  0  0  0  0  0  0  0  0  0  0  0
   -0.8693   22.0915  -27.8995 H   0  0  0  0  0  0  0  0  0  0  0  0
   -2.0662   21.7493  -30.1358 H   0  0  0  0  0  0  0  0  0  0  0  0
   -2.9968   23.1064  -30.8561 H   0  0  0  0  0  0  0  0  0  0  0  0
   -1.2010   23.1491  -30.8561 H   0  0  0  0  0  0  0  0  0  0  0  0
   -1.0875   26.2807  -26.8910 H   0  0  0  0  0  0  0  0  0  0  0  0
    0.2280   26.9650  -27.9049 H   0  0  0  0  0  0  0  0  0  0  0  0
   -1.3968   27.7308  -27.9049 H   0  0  0  0  0  0  0  0  0  0  0  0
   -7.0444   21.0401  -31.0737 H   0  0  0  0  0  0  0  0  0  0  0  0
  1  2  1  0
  2  3  1  0
  3  4  1  0
  4  5  2  0
  4  6  1  0
  6  7  1  0
  7  8  1  0
  8  9  1  0
  8 10  2  0
  7 11  2  0
 11 12  1  0
 12 13  2  0
 13 14  1  0
 14 15  2  0
 15 16  1  0
 16 17  1  0
 17 18  1  0
 18 19  2  0
 18 20  1  0
 20 21  1  0
 20 22  1  0
 22 23  1  0
 22 24  1  0
 22 25  1  0
 25 26  2  0
 25 27  1  0
 27 28  1  0
 15 29  1  0
 29 30  2  0
 30  6  1  0
 30 12  1  0
  1 31  1  0
  1 32  1  0
  1 33  1  0
  3 34  1  0
  3 35  1  0
  9 36  1  0
  9 37  1  0
 11 38  1  0
 13 39  1  0
 14 40  1  0
 16 41  1  0
 17 42  1  0
 17 43  1  0
 21 44  1  0
 21 45  1  0
 21 46  1  0
 23 47  1  0
 23 48  1  0
 23 49  1  0
 24 50  1  0
 24 51  1  0
 24 52  1  0
 28 53  1  0
 28 54  1  0
 28 55  1  0
 29 56  1  0
M  END
>  <UniqueID>  (32) 
32

>  <SMILES>  (32) 
COCC(=O)n1c(C(N)=O)cc2ccc(NCC(=O)N(C)C(C)(C)C(=O)OC)cc21

>  <Energy>  (32) 
96.14224971769626

>  <Genealogy>  (32) 
COCC(=O)n1c(C(N)=O)cc2ccc(NCC(=O)N(C)C(C)(C)C(=O)OC)cc21 (3D coordinates assigned)
COCC(=O)n1c(C(N)=O)cc2ccc(NCC(=O)N(C)C(C)(C)C(=O)OC)cc21 (optimized conformer: 96.14224971769626 kcal/mol)

>  <smiles>  (32) 
COCC(=O)n1c(C(N)=O)cc2ccc(NCC(=O)N(C)C(C)(C)C(=O)OC)cc21

>  <score_type>  (32) 
oracle

>  <origin>  (32) 
adg

>  <m_score__min__energy>  (32) 
-9.0299999999999994

>  <m_primary>  (32) 
energy

$$$$
32:0
     RDKit          3D

 33 34  0  0  0  0  0  0  0  0999 V2000
   -4.1950   25.5270  -30.5990 N   0  0  0  0  0  0  0  0  0  0  0  0
   -5.5440   25.0720  -30.4670 C   0  0  0  0  0  0  0  0  0  0  0  0
   -6.3950   25.8220  -29.9200 O   0  0  0  0  0  0  0  0  0  0  0  0
   -5.9690   23.7680  -31.0140 C   0  0  0  0  0  0  0  0  0  0  0  0
   -7.2940   23.4560  -31.3110 C   0  0  0  0  0  0  0  0  0  0  0  0
   -7.2570   22.1880  -31.8420 C   0  0  0  0  0  0  0  0  0  0  0  0
   -8.2970   21.3770  -32.2890 C   0  0  0  0  0  0  0  0  0  0  0  0
   -7.9750   20.0880  -32.7460 C   0  0  0  0  0  0  0  0  0  0  0  0
   -6.6320   19.6370  -32.7480 C   0  0  0  0  0  0  0  0  0  0  0  0
   -6.3080   18.2380  -33.1940 C   0  0  0  0  0  0  0  0  0  0  0  0
   -6.1280   17.3500  -32.0060 C   0  0  0  0  0  0  0  0  0  0  0  0
   -5.4010   16.3250  -32.0850 O   0  0  0  0  0  0  0  0  0  0  0  0
   -6.8040   17.6240  -30.8230 O   0  0  0  0  0  0  0  0  0  0  0  0
   -5.6050   20.4830  -32.2750 C   0  0  0  0  0  0  0  0  0  0  0  0
   -5.9500   21.7700  -31.8460 C   0  0  0  0  0  0  0  0  0  0  0  0
   -5.1470   22.7320  -31.3370 N   0  0  0  0  0  0  0  0  0  0  0  0
   -3.7370   22.6260  -31.0790 C   0  0  0  0  0  0  0  0  0  0  0  0
   -2.9090   22.9820  -31.9610 O   0  0  0  0  0  0  0  0  0  0  0  0
   -3.2730   22.1070  -29.8280 N   0  0  0  0  0  0  0  0  0  0  0  0
   -2.8170   22.9460  -28.7270 C   0  0  0  0  0  0  0  0  0  0  0  0
   -1.8330   23.9570  -29.2230 C   0  0  0  0  0  0  0  0  0  0  0  0
   -0.6550   23.6120  -29.5050 O   0  0  0  0  0  0  0  0  0  0  0  0
   -2.2080   25.2890  -29.3390 O   0  0  0  0  0  0  0  0  0  0  0  0
   -3.9030   26.4300  -30.1660 H   0  0  0  0  0  0  0  0  0  0  0  0
   -3.5090   25.0170  -31.1970 H   0  0  0  0  0  0  0  0  0  0  0  0
   -8.1801   24.0886  -31.1543 H   0  0  0  0  0  0  0  0  0  0  0  0
   -9.3374   21.7341  -32.2845 H   0  0  0  0  0  0  0  0  0  0  0  0
   -8.7735   19.4225  -33.1058 H   0  0  0  0  0  0  0  0  0  0  0  0
   -7.1313   17.8538  -33.8142 H   0  0  0  0  0  0  0  0  0  0  0  0
   -5.3757   18.2526  -33.7776 H   0  0  0  0  0  0  0  0  0  0  0  0
   -4.5605   20.1394  -32.2445 H   0  0  0  0  0  0  0  0  0  0  0  0
   -3.6797   23.4652  -28.2840 H   0  0  0  0  0  0  0  0  0  0  0  0
   -2.3312   22.3129  -27.9699 H   0  0  0  0  0  0  0  0  0  0  0  0
  1  2  1  0
  2  3  2  0
  2  4  1  0
  4  5  2  0
  5  6  1  0
  6  7  2  0
  7  8  1  0
  8  9  2  0
  9 10  1  0
 10 11  1  0
 11 12  2  0
 11 13  1  0
  9 14  1  0
 14 15  2  0
 15 16  1  0
 16 17  1  0
 17 18  2  0
 17 19  1  0
 19 20  1  0
 20 21  1  0
 21 22  2  0
 21 23  1  0
 16  4  1  0
 15  6  1  0
  1 24  1  0
  1 25  1  0
  5 26  1  0
  7 27  1  0
  8 28  1  0
 10 29  1  0
 10 30  1  0
 14 31  1  0
 20 32  1  0
 20 33  1  0
M  CHG  3  13  -1  19  -1  23  -1
M  END
>  <UniqueID>  (33) 
33

>  <SMILES>  (33) 
NC(=O)c1cc2ccc(CC(=O)[O-])cc2n1C(=O)[N-]CC(=O)[O-]

>  <Energy>  (33) 
68.44483650565537

>  <Genealogy>  (33) 
NC(=O)c1cc2ccc(CC(=O)[O-])cc2n1C(=O)[N-]CC(=O)[O-] (protonated)
NC(=O)c1cc2ccc(CC(=O)[O-])cc2n1C(=O)[N-]CC(=O)[O-] (3D coordinates assigned)
NC(=O)c1cc2ccc(CC(=O)[O-])cc2n1C(=O)[N-]CC(=O)[O-] (optimized conformer: 68.44483650565537 kcal/mol)

>  <smiles>  (33) 
NC(=O)c1cc2ccc(CC(=O)O)cc2n1C(=O)NCC(=O)O

>  <score_type>  (33) 
oracle

>  <origin>  (33) 
adg

>  <m_score__min__energy>  (33) 
-10.85

>  <m_primary>  (33) 
energy

$$$$
33:0
     RDKit          3D

 43 45  0  0  0  0  0  0  0  0999 V2000
   -5.0780   24.7720  -28.9260 N   0  0  0  0  0  0  0  0  0  0  0  0
   -5.2380   24.5180  -30.3230 C   0  0  0  0  0  0  0  0  0  0  0  0
   -4.9740   25.4330  -31.1480 O   0  0  0  0  0  0  0  0  0  0  0  0
   -5.7500   23.2230  -30.8180 C   0  0  0  0  0  0  0  0  0  0  0  0
   -6.9990   23.0620  -31.4120 C   0  0  0  0  0  0  0  0  0  0  0  0
   -7.0800   21.7250  -31.7320 C   0  0  0  0  0  0  0  0  0  0  0  0
   -8.0940   21.0140  -32.3630 C   0  0  0  0  0  0  0  0  0  0  0  0
   -7.8850   19.6460  -32.6120 C   0  0  0  0  0  0  0  0  0  0  0  0
   -6.6590   19.0240  -32.2580 C   0  0  0  0  0  0  0  0  0  0  0  0
   -6.4590   17.5490  -32.5000 C   0  0  0  0  0  0  0  0  0  0  0  0
   -5.4370   17.3720  -33.4120 F   0  0  0  0  0  0  0  0  0  0  0  0
   -6.1300   16.9010  -31.3210 F   0  0  0  0  0  0  0  0  0  0  0  0
   -7.6150   16.9750  -33.0000 F   0  0  0  0  0  0  0  0  0  0  0  0
   -5.6590   19.7780  -31.6020 C   0  0  0  0  0  0  0  0  0  0  0  0
   -5.9080   21.1300  -31.3420 C   0  0  0  0  0  0  0  0  0  0  0  0
   -5.0870   22.0360  -30.7690 N   0  0  0  0  0  0  0  0  0  0  0  0
   -3.7250   21.8190  -30.3670 C   0  0  0  0  0  0  0  0  0  0  0  0
   -2.8420   21.6660  -31.2530 O   0  0  0  0  0  0  0  0  0  0  0  0
   -3.3650   21.7790  -28.9320 C   0  0  0  0  0  0  0  0  0  0  0  0
   -3.7960   22.6880  -28.1720 O   0  0  0  0  0  0  0  0  0  0  0  0
   -2.5440   20.7310  -28.3790 N   0  0  0  0  0  0  0  0  0  0  0  0
   -2.7540   20.3270  -26.9810 C   0  0  0  0  0  0  0  0  0  0  0  0
   -2.2390   18.9040  -26.7500 C   0  0  0  0  0  0  0  0  0  0  0  0
   -0.7420   18.7680  -27.1100 C   0  0  0  0  0  0  0  0  0  0  0  0
   -0.4450   17.4390  -27.4610 O   0  0  0  0  0  0  0  0  0  0  0  0
   -0.2800   19.7470  -28.2170 C   0  0  0  0  0  0  0  0  0  0  0  0
   -1.4240   20.1620  -29.1490 C   0  0  0  0  0  0  0  0  0  0  0  0
   -4.6520   25.6680  -28.6040 H   0  0  0  0  0  0  0  0  0  0  0  0
   -5.4770   24.1270  -28.2090 H   0  0  0  0  0  0  0  0  0  0  0  0
   -7.7590   23.8375  -31.5881 H   0  0  0  0  0  0  0  0  0  0  0  0
   -9.0319   21.5068  -32.6587 H   0  0  0  0  0  0  0  0  0  0  0  0
   -8.6799   19.0515  -33.0861 H   0  0  0  0  0  0  0  0  0  0  0  0
   -4.7080   19.3128  -31.3032 H   0  0  0  0  0  0  0  0  0  0  0  0
   -2.2132   21.0194  -26.3191 H   0  0  0  0  0  0  0  0  0  0  0  0
   -3.8314   20.3551  -26.7610 H   0  0  0  0  0  0  0  0  0  0  0  0
   -2.3750   18.6442  -25.6898 H   0  0  0  0  0  0  0  0  0  0  0  0
   -2.8095   18.2249  -27.4007 H   0  0  0  0  0  0  0  0  0  0  0  0
   -0.1763   19.0450  -26.2082 H   0  0  0  0  0  0  0  0  0  0  0  0
   -0.5690   16.8820  -26.6490 H   0  0  0  0  0  0  0  0  0  0  0  0
    0.1318   20.6490  -27.7407 H   0  0  0  0  0  0  0  0  0  0  0  0
    0.4761   19.2299  -28.8260 H   0  0  0  0  0  0  0  0  0  0  0  0
   -1.0549   20.9159  -29.8599 H   0  0  0  0  0  0  0  0  0  0  0  0
   -1.7816   19.2719  -29.6873 H   0  0  0  0  0  0  0  0  0  0  0  0
  1  2  1  0
  2  3  2  0
  2  4  1  0
  4  5  2  0
  5  6  1  0
  6  7  2  0
  7  8  1  0
  8  9  2  0
  9 10  1  0
 10 11  1  0
 10 12  1  0
 10 13  1  0
  9 14  1  0
 14 15  2  0
 15 16  1  0
 16 17  1  0
 17 18  2  0
 17 19  1  0
 19 20  2  0
 19 21  1  0
 21 22  1  0
 22 23  1  0
 23 24  1  0
 24 25  1  0
 24 26  1  0
 26 27  1  0
 16  4  1  0
 27 21  1  0
 15  6  1  0
  1 28  1  0
  1 29  1  0
  5 30  1  0
  7 31  1  0
  8 32  1  0
 14 33  1  0
 22 34  1  0
 22 35  1  0
 23 36  1  0
 23 37  1  0
 24 38  1  0
 25 39  1  0
 26 40  1  0
 26 41  1  0
 27 42  1  0
 27 43  1  0
M  END
>  <UniqueID>  (34) 
34

>  <SMILES>  (34) 
NC(=O)c1cc2ccc(C(F)(F)F)cc2n1C(=O)C(=O)N1CCC(O)CC1

>  <Energy>  (34) 
90.0614724690013

>  <Genealogy>  (34) 
NC(=O)c1cc2ccc(C(F)(F)F)cc2n1C(=O)C(=O)N1CCC(O)CC1 (3D coordinates assigned)
NC(=O)c1cc2ccc(C(F)(F)F)cc2n1C(=O)C(=O)N1CCC(O)CC1 (nonaromatic ring conformer: 90.0614724690013 kcal/mol)

>  <smiles>  (34) 
NC(=O)c1cc2ccc(C(F)(F)F)cc2n1C(=O)C(=O)N1CCC(O)CC1

>  <score_type>  (34) 
oracle

>  <origin>  (34) 
adg

>  <m_score__min__energy>  (34) 
-9.0999999999999996

>  <m_primary>  (34) 
energy

$$$$
34:0
     RDKit          3D

 34 36  0  0  0  0  0  0  0  0999 V2000
   -5.7660   25.2030  -29.0490 N   0  0  0  0  0  0  0  0  0  0  0  0
   -5.2480   24.7590  -30.3030 C   0  0  0  0  0  0  0  0  0  0  0  0
   -4.3130   25.4080  -30.8440 O   0  0  0  0  0  0  0  0  0  0  0  0
   -5.7790   23.5400  -30.9550 C   0  0  0  0  0  0  0  0  0  0  0  0
   -7.1260   23.3320  -31.2510 C   0  0  0  0  0  0  0  0  0  0  0  0
   -7.1950   22.0510  -31.7520 C   0  0  0  0  0  0  0  0  0  0  0  0
   -8.2930   21.3210  -32.1940 C   0  0  0  0  0  0  0  0  0  0  0  0
   -8.0700   20.0150  -32.6660 C   0  0  0  0  0  0  0  0  0  0  0  0
   -6.7590   19.4730  -32.7060 C   0  0  0  0  0  0  0  0  0  0  0  0
   -6.5370   18.0570  -33.1760 C   0  0  0  0  0  0  0  0  0  0  0  0
   -7.6210   17.2600  -32.8560 F   0  0  0  0  0  0  0  0  0  0  0  0
   -6.3640   18.0550  -34.5470 F   0  0  0  0  0  0  0  0  0  0  0  0
   -5.4110   17.5170  -32.5790 F   0  0  0  0  0  0  0  0  0  0  0  0
   -5.6730   20.2400  -32.2220 C   0  0  0  0  0  0  0  0  0  0  0  0
   -5.9290   21.5310  -31.7490 C   0  0  0  0  0  0  0  0  0  0  0  0
   -5.0480   22.4330  -31.2670 N   0  0  0  0  0  0  0  0  0  0  0  0
   -3.6270   22.2530  -31.1530 C   0  0  0  0  0  0  0  0  0  0  0  0
   -2.9200   22.2430  -32.1960 O   0  0  0  0  0  0  0  0  0  0  0  0
   -2.9910   22.1520  -29.8230 C   0  0  0  0  0  0  0  0  0  0  0  0
   -3.1720   21.1070  -29.1430 O   0  0  0  0  0  0  0  0  0  0  0  0
   -2.1600   23.2350  -29.2530 C   0  0  0  0  0  0  0  0  0  0  0  0
   -2.5570   24.1280  -28.2780 C   0  0  0  0  0  0  0  0  0  0  0  0
   -1.4620   24.9280  -28.0330 C   0  0  0  0  0  0  0  0  0  0  0  0
   -0.4590   24.5510  -28.7920 O   0  0  0  0  0  0  0  0  0  0  0  0
   -0.8390   23.5350  -29.5320 C   0  0  0  0  0  0  0  0  0  0  0  0
   -6.5810   24.7320  -28.5980 H   0  0  0  0  0  0  0  0  0  0  0  0
   -5.3580   26.0440  -28.5820 H   0  0  0  0  0  0  0  0  0  0  0  0
   -7.9564   24.0402  -31.1136 H   0  0  0  0  0  0  0  0  0  0  0  0
   -9.3050   21.7518  -32.1751 H   0  0  0  0  0  0  0  0  0  0  0  0
   -8.9208   19.4072  -33.0078 H   0  0  0  0  0  0  0  0  0  0  0  0
   -4.6520   19.8308  -32.2178 H   0  0  0  0  0  0  0  0  0  0  0  0
   -3.5439   24.1885  -27.7960 H   0  0  0  0  0  0  0  0  0  0  0  0
   -1.4326   25.7571  -27.3107 H   0  0  0  0  0  0  0  0  0  0  0  0
   -0.2061   23.0057  -30.2595 H   0  0  0  0  0  0  0  0  0  0  0  0
  1  2  1  0
  2  3  2  0
  2  4  1  0
  4  5  2  0
  5  6  1  0
  6  7  2  0
  7  8  1  0
  8  9  2  0
  9 10  1  0
 10 11  1  0
 10 12  1  0
 10 13  1  0
  9 14  1  0
 14 15  2  0
 15 16  1  0
 16 17  1  0
 17 18  2  0
 17 19  1  0
 19 20  2  0
 19 21  1  0
 21 22  1  0
 22 23  2  0
 23 24  1  0
 24 25  1  0
 16  4  1  0
 25 21  2  0
 15  6  1  0
  1 26  1  0
  1 27  1  0
  5 28  1  0
  7 29  1  0
  8 30  1  0
 14 31  1  0
 22 32  1  0
 23 33  1  0
 25 34  1  0
M  END
>  <UniqueID>  (35) 
35

>  <SMILES>  (35) 
NC(=O)c1cc2ccc(C(F)(F)F)cc2n1C(=O)C(=O)c1ccoc1

>  <Energy>  (35) 
104.44479696991385

>  <Genealogy>  (35) 
NC(=O)c1cc2ccc(C(F)(F)F)cc2n1C(=O)C(=O)c1ccoc1 (3D coordinates assigned)
NC(=O)c1cc2ccc(C(F)(F)F)cc2n1C(=O)C(=O)c1ccoc1 (optimized conformer: 104.44479696991385 kcal/mol)

>  <smiles>  (35) 
NC(=O)c1cc2ccc(C(F)(F)F)cc2n1C(=O)C(=O)c1ccoc1

>  <score_type>  (35) 
oracle

>  <origin>  (35) 
adg

>  <m_score__min__energy>  (35) 
-8.5199999999999996

>  <m_primary>  (35) 
energy

$$$$
35:0
     RDKit          3D

 42 43  0  0  0  0  0  0  0  0999 V2000
   -7.2170   17.3130  -32.6780 C   0  0  0  0  0  0  0  0  0  0  0  0
   -7.2540   18.4920  -32.4220 C   0  0  0  0  0  0  0  0  0  0  0  0
   -7.3040   19.8960  -32.1150 C   0  0  0  0  0  0  0  0  0  0  0  0
   -8.5250   20.5980  -32.2440 C   0  0  0  0  0  0  0  0  0  0  0  0
   -8.5980   21.9640  -31.9230 C   0  0  0  0  0  0  0  0  0  0  0  0
   -7.4360   22.5940  -31.4830 C   0  0  0  0  0  0  0  0  0  0  0  0
   -7.2340   23.8930  -31.0790 C   0  0  0  0  0  0  0  0  0  0  0  0
   -5.8880   23.9680  -30.7320 C   0  0  0  0  0  0  0  0  0  0  0  0
   -5.2220   25.2200  -30.3170 C   0  0  0  0  0  0  0  0  0  0  0  0
   -3.9240   25.5320  -30.8180 N   0  0  0  0  0  0  0  0  0  0  0  0
   -5.7700   26.0020  -29.4960 O   0  0  0  0  0  0  0  0  0  0  0  0
   -5.2810   22.7590  -30.9070 N   0  0  0  0  0  0  0  0  0  0  0  0
   -3.9210   22.4020  -30.6140 C   0  0  0  0  0  0  0  0  0  0  0  0
   -2.9840   22.8450  -31.3310 O   0  0  0  0  0  0  0  0  0  0  0  0
   -3.6430   21.5800  -29.5190 O   0  0  0  0  0  0  0  0  0  0  0  0
   -2.4940   20.7460  -29.4530 C   0  0  0  0  0  0  0  0  0  0  0  0
   -1.3690   21.5130  -28.8220 C   0  0  0  0  0  0  0  0  0  0  0  0
   -0.4020   20.9040  -28.3820 O   0  0  0  0  0  0  0  0  0  0  0  0
   -1.4460   22.9560  -28.6990 N   0  0  2  0  0  0  0  0  0  0  0  0
   -0.1250   23.5460  -28.9820 C   0  0  0  0  0  0  0  0  0  0  0  0
   -1.9410   23.3100  -27.3490 C   0  0  0  0  0  0  0  0  0  0  0  0
   -2.8850   24.5230  -27.3700 C   0  0  0  0  0  0  0  0  0  0  0  0
   -2.7570   25.2130  -28.5840 O   0  0  0  0  0  0  0  0  0  0  0  0
   -6.2420   21.9290  -31.3720 C   0  0  0  0  0  0  0  0  0  0  0  0
   -6.1440   20.5640  -31.6720 C   0  0  0  0  0  0  0  0  0  0  0  0
   -7.1833   16.2386  -32.9113 H   0  0  0  0  0  0  0  0  0  0  0  0
   -9.4234   20.0711  -32.5980 H   0  0  0  0  0  0  0  0  0  0  0  0
   -9.5433   22.5187  -32.0162 H   0  0  0  0  0  0  0  0  0  0  0  0
   -7.9786   24.7017  -31.0386 H   0  0  0  0  0  0  0  0  0  0  0  0
   -3.1110   24.9040  -30.6290 H   0  0  0  0  0  0  0  0  0  0  0  0
   -2.7188   19.8558  -28.8472 H   0  0  0  0  0  0  0  0  0  0  0  0
   -2.2057   20.4298  -30.4663 H   0  0  0  0  0  0  0  0  0  0  0  0
   -2.1210   23.3180  -29.4130 H   0  0  0  0  0  0  0  0  0  0  0  0
    0.3853   23.7739  -28.0346 H   0  0  0  0  0  0  0  0  0  0  0  0
    0.4789   22.8321  -29.5613 H   0  0  0  0  0  0  0  0  0  0  0  0
   -0.2536   24.4722  -29.5613 H   0  0  0  0  0  0  0  0  0  0  0  0
   -2.4834   22.4475  -26.9343 H   0  0  0  0  0  0  0  0  0  0  0  0
   -1.0700   23.5737  -26.7311 H   0  0  0  0  0  0  0  0  0  0  0  0
   -3.9232   24.1779  -27.2555 H   0  0  0  0  0  0  0  0  0  0  0  0
   -2.6213   25.1984  -26.5428 H   0  0  0  0  0  0  0  0  0  0  0  0
   -3.6710   25.5000  -28.8470 H   0  0  0  0  0  0  0  0  0  0  0  0
   -5.1891   20.0286  -31.5650 H   0  0  0  0  0  0  0  0  0  0  0  0
  1  2  3  0
  2  3  1  0
  3  4  2  0
  4  5  1  0
  5  6  2  0
  6  7  1  0
  7  8  2  0
  8  9  1  0
  9 10  1  0
  9 11  2  0
  8 12  1  0
 12 13  1  0
 13 14  2  0
 13 15  1  0
 15 16  1  0
 16 17  1  0
 17 18  2  0
 17 19  1  0
 19 20  1  0
 19 21  1  0
 21 22  1  0
 22 23  1  0
 12 24  1  0
 24 25  2  0
 25  3  1  0
 24  6  1  0
  1 26  1  0
  4 27  1  0
  5 28  1  0
  7 29  1  0
 10 30  1  0
 16 31  1  0
 16 32  1  0
 19 33  1  6
 20 34  1  0
 20 35  1  0
 20 36  1  0
 21 37  1  0
 21 38  1  0
 22 39  1  0
 22 40  1  0
 23 41  1  0
 25 42  1  0
M  CHG  2  10  -1  19   1
M  END
>  <UniqueID>  (36) 
36

>  <SMILES>  (36) 
C#Cc1ccc2cc(C([NH-])=O)n(C(=O)OCC(=O)[N@H+](C)CCO)c2c1

>  <Energy>  (36) 
73.40926029319598

>  <Genealogy>  (36) 
C#Cc1ccc2cc(C([NH-])=O)n(C(=O)OCC(=O)[NH+](C)CCO)c2c1 (protonated)
C#Cc1ccc2cc(C([NH-])=O)n(C(=O)OCC(=O)[N@H+](C)CCO)c2c1 (chirality)
C#Cc1ccc2cc(C([NH-])=O)n(C(=O)OCC(=O)[N@H+](C)CCO)c2c1 (3D coordinates assigned)
C#Cc1ccc2cc(C([NH-])=O)n(C(=O)OCC(=O)[N@H+](C)CCO)c2c1 (optimized conformer: 73.40926029319598 kcal/mol)

>  <smiles>  (36) 
C#Cc1ccc2cc(C(N)=O)n(C(=O)OCC(=O)N(C)CCO)c2c1

>  <score_type>  (36) 
oracle

>  <origin>  (36) 
adg

>  <m_score__min__energy>  (36) 
-9.1500000000000004

>  <m_primary>  (36) 
energy

$$$$
36:0
     RDKit          3D

 39 41  0  0  0  0  0  0  0  0999 V2000
   -3.9430   25.6570  -30.8460 N   0  0  0  0  0  0  0  0  0  0  0  0
   -5.2400   25.2500  -30.4270 C   0  0  0  0  0  0  0  0  0  0  0  0
   -5.9190   26.0160  -29.6920 O   0  0  0  0  0  0  0  0  0  0  0  0
   -5.8140   23.9630  -30.8700 C   0  0  0  0  0  0  0  0  0  0  0  0
   -7.1780   23.7600  -31.0760 C   0  0  0  0  0  0  0  0  0  0  0  0
   -7.2890   22.4750  -31.5560 C   0  0  0  0  0  0  0  0  0  0  0  0
   -8.4160   21.7490  -31.9270 C   0  0  0  0  0  0  0  0  0  0  0  0
   -8.2320   20.4300  -32.3750 C   0  0  0  0  0  0  0  0  0  0  0  0
   -6.9340   19.8630  -32.4410 C   0  0  0  0  0  0  0  0  0  0  0  0
   -6.7590   18.4480  -32.9140 C   0  0  0  0  0  0  0  0  0  0  0  0
   -6.4750   18.4410  -34.2680 F   0  0  0  0  0  0  0  0  0  0  0  0
   -7.9220   17.7360  -32.6870 F   0  0  0  0  0  0  0  0  0  0  0  0
   -5.8120   20.6320  -32.0560 C   0  0  0  0  0  0  0  0  0  0  0  0
   -6.0270   21.9460  -31.6240 C   0  0  0  0  0  0  0  0  0  0  0  0
   -5.1110   22.8420  -31.2000 N   0  0  0  0  0  0  0  0  0  0  0  0
   -3.6990   22.6030  -31.0840 C   0  0  0  0  0  0  0  0  0  0  0  0
   -3.0210   22.4060  -32.1280 O   0  0  0  0  0  0  0  0  0  0  0  0
   -3.0590   22.4920  -29.7580 C   0  0  0  0  0  0  0  0  0  0  0  0
   -3.7630   22.2270  -28.7460 O   0  0  0  0  0  0  0  0  0  0  0  0
   -1.5760   22.6650  -29.5860 C   0  0  0  0  0  0  0  0  0  0  0  0
   -1.1950   24.1130  -28.6140 S   0  0  0  0  0  0  0  0  0  0  0  0
    0.2950   24.2490  -28.4620 O   0  0  0  0  0  0  0  0  0  0  0  0
   -1.7210   25.3220  -29.3350 O   0  0  0  0  0  0  0  0  0  0  0  0
   -2.0110   24.0020  -27.0220 C   0  0  0  0  0  0  0  0  0  0  0  0
   -3.4230   24.5640  -27.0170 C   0  0  0  0  0  0  0  0  0  0  0  0
   -2.3020   25.3180  -26.3190 C   0  0  0  0  0  0  0  0  0  0  0  0
   -3.0870   25.2850  -30.3800 H   0  0  0  0  0  0  0  0  0  0  0  0
   -7.9931   24.4757  -30.8934 H   0  0  0  0  0  0  0  0  0  0  0  0
   -9.4205   22.1938  -31.8714 H   0  0  0  0  0  0  0  0  0  0  0  0
   -9.1037   19.8312  -32.6776 H   0  0  0  0  0  0  0  0  0  0  0  0
   -5.9287   17.9825  -32.3627 H   0  0  0  0  0  0  0  0  0  0  0  0
   -4.7973   20.2092  -32.0949 H   0  0  0  0  0  0  0  0  0  0  0  0
   -1.1689   21.7773  -29.0798 H   0  0  0  0  0  0  0  0  0  0  0  0
   -1.1251   22.7891  -30.5816 H   0  0  0  0  0  0  0  0  0  0  0  0
   -1.5289   23.0618  -26.7159 H   0  0  0  0  0  0  0  0  0  0  0  0
   -3.8596   24.9626  -27.9446 H   0  0  0  0  0  0  0  0  0  0  0  0
   -4.4103   24.1841  -26.7155 H   0  0  0  0  0  0  0  0  0  0  0  0
   -1.9276   26.2620  -26.7417 H   0  0  0  0  0  0  0  0  0  0  0  0
   -2.1423   25.7095  -25.3035 H   0  0  0  0  0  0  0  0  0  0  0  0
  1  2  1  0
  2  3  2  0
  2  4  1  0
  4  5  2  0
  5  6  1  0
  6  7  2  0
  7  8  1  0
  8  9  2  0
  9 10  1  0
 10 11  1  0
 10 12  1  0
  9 13  1  0
 13 14  2  0
 14 15  1  0
 15 16  1  0
 16 17  2  0
 16 18  1  0
 18 19  2  0
 18 20  1  0
 20 21  1  0
 21 22  2  0
 21 23  2  0
 21 24  1  0
 24 25  1  0
 25 26  1  0
 15  4  1  0
 26 24  1  0
 14  6  1  0
  1 27  1  0
  5 28  1  0
  7 29  1  0
  8 30  1  0
 10 31  1  0
 13 32  1  0
 20 33  1  0
 20 34  1  0
 24 35  1  0
 25 36  1  0
 25 37  1  0
 26 38  1  0
 26 39  1  0
M  CHG  1   1  -1
M  END
>  <UniqueID>  (37) 
37

>  <SMILES>  (37) 
[NH-]C(=O)c1cc2ccc(C(F)F)cc2n1C(=O)C(=O)CS(=O)(=O)C1CC1

>  <Energy>  (37) 
336.4373523070985

>  <Genealogy>  (37) 
[NH-]C(=O)c1cc2ccc(C(F)F)cc2n1C(=O)C(=O)CS(=O)(=O)C1CC1 (protonated)
[NH-]C(=O)c1cc2ccc(C(F)F)cc2n1C(=O)C(=O)CS(=O)(=O)C1CC1 (3D coordinates assigned)
[NH-]C(=O)c1cc2ccc(C(F)F)cc2n1C(=O)C(=O)CS(=O)(=O)C1CC1 (nonaromatic ring conformer: 336.4373523070985 kcal/mol)

>  <smiles>  (37) 
NC(=O)c1cc2ccc(C(F)F)cc2n1C(=O)C(=O)CS(=O)(=O)C1CC1

>  <score_type>  (37) 
oracle

>  <origin>  (37) 
adg

>  <m_score__min__energy>  (37) 
-11.380000000000001

>  <m_primary>  (37) 
energy

$$$$
37:0
     RDKit          3D

 33 34  0  0  0  0  0  0  0  0999 V2000
   -7.5830   18.3840  -32.7930 C   0  0  0  0  0  0  0  0  0  0  0  0
   -7.5850   19.8050  -32.3140 C   0  0  0  0  0  0  0  0  0  0  0  0
   -8.8120   20.4810  -32.0920 C   0  0  0  0  0  0  0  0  0  0  0  0
   -8.8230   21.8030  -31.6180 C   0  0  0  0  0  0  0  0  0  0  0  0
   -7.6000   22.4130  -31.3540 C   0  0  0  0  0  0  0  0  0  0  0  0
   -7.3190   23.6860  -30.9110 C   0  0  0  0  0  0  0  0  0  0  0  0
   -5.9280   23.7540  -30.8350 C   0  0  0  0  0  0  0  0  0  0  0  0
   -5.1900   24.9420  -30.3570 C   0  0  0  0  0  0  0  0  0  0  0  0
   -3.9240   25.2930  -30.9080 N   0  0  0  0  0  0  0  0  0  0  0  0
   -5.6710   25.6430  -29.4260 O   0  0  0  0  0  0  0  0  0  0  0  0
   -5.3740   22.5690  -31.2150 N   0  0  0  0  0  0  0  0  0  0  0  0
   -3.9790   22.2520  -31.3420 C   0  0  0  0  0  0  0  0  0  0  0  0
   -3.5100   21.9640  -32.4760 O   0  0  0  0  0  0  0  0  0  0  0  0
   -3.0980   22.2610  -30.1600 C   0  0  0  0  0  0  0  0  0  0  0  0
   -3.0450   21.2420  -29.4190 O   0  0  0  0  0  0  0  0  0  0  0  0
   -2.3130   23.4210  -29.8430 N   0  0  0  0  0  0  0  0  0  0  0  0
   -1.3900   23.4510  -28.7130 C   0  0  0  0  0  0  0  0  0  0  0  0
   -0.6940   24.7740  -28.6480 C   0  0  0  0  0  0  0  0  0  0  0  0
    0.3710   24.8990  -27.9870 O   0  0  0  0  0  0  0  0  0  0  0  0
   -1.2250   25.8710  -29.3140 O   0  0  0  0  0  0  0  0  0  0  0  0
   -6.4080   21.7610  -31.5350 C   0  0  0  0  0  0  0  0  0  0  0  0
   -6.3640   20.4510  -32.0240 C   0  0  0  0  0  0  0  0  0  0  0  0
   -7.5820   17.7053  -31.9274 H   0  0  0  0  0  0  0  0  0  0  0  0
   -8.4809   18.2009  -33.4015 H   0  0  0  0  0  0  0  0  0  0  0  0
   -6.6846   18.2034  -33.4015 H   0  0  0  0  0  0  0  0  0  0  0  0
   -9.7628   19.9656  -32.2927 H   0  0  0  0  0  0  0  0  0  0  0  0
   -9.7698   22.3403  -31.4601 H   0  0  0  0  0  0  0  0  0  0  0  0
   -8.0392   24.4812  -30.6683 H   0  0  0  0  0  0  0  0  0  0  0  0
   -3.0640   25.3040  -30.3170 H   0  0  0  0  0  0  0  0  0  0  0  0
   -2.3920   24.2770  -30.4370 H   0  0  0  0  0  0  0  0  0  0  0  0
   -1.9516   23.2899  -27.7810 H   0  0  0  0  0  0  0  0  0  0  0  0
   -0.6396   22.6571  -28.8419 H   0  0  0  0  0  0  0  0  0  0  0  0
   -5.4033   19.9380  -32.1784 H   0  0  0  0  0  0  0  0  0  0  0  0
  1  2  1  0
  2  3  2  0
  3  4  1  0
  4  5  2  0
  5  6  1  0
  6  7  2  0
  7  8  1  0
  8  9  1  0
  8 10  2  0
  7 11  1  0
 11 12  1  0
 12 13  2  0
 12 14  1  0
 14 15  2  0
 14 16  1  0
 16 17  1  0
 17 18  1  0
 18 19  2  0
 18 20  1  0
 11 21  1  0
 21 22  2  0
 22  2  1  0
 21  5  1  0
  1 23  1  0
  1 24  1  0
  1 25  1  0
  3 26  1  0
  4 27  1  0
  6 28  1  0
  9 29  1  0
 16 30  1  0
 17 31  1  0
 17 32  1  0
 22 33  1  0
M  CHG  2   9  -1  20  -1
M  END
>  <UniqueID>  (38) 
38

>  <SMILES>  (38) 
Cc1ccc2cc(C([NH-])=O)n(C(=O)C(=O)NCC(=O)[O-])c2c1

>  <Energy>  (38) 
68.99821466379824

>  <Genealogy>  (38) 
Cc1ccc2cc(C([NH-])=O)n(C(=O)C(=O)NCC(=O)[O-])c2c1 (protonated)
Cc1ccc2cc(C([NH-])=O)n(C(=O)C(=O)NCC(=O)[O-])c2c1 (3D coordinates assigned)
Cc1ccc2cc(C([NH-])=O)n(C(=O)C(=O)NCC(=O)[O-])c2c1 (optimized conformer: 68.99821466379824 kcal/mol)

>  <smiles>  (38) 
Cc1ccc2cc(C(N)=O)n(C(=O)C(=O)NCC(=O)O)c2c1

>  <score_type>  (38) 
oracle

>  <origin>  (38) 
adg

>  <m_score__min__energy>  (38) 
-12.35

>  <m_primary>  (38) 
energy

$$$$
38:0
     RDKit          3D

 35 37  0  0  0  0  0  0  0  0999 V2000
   -7.4040   18.4270  -32.5870 C   0  0  0  0  0  0  0  0  0  0  0  0
   -7.4430   19.8750  -32.2000 C   0  0  0  0  0  0  0  0  0  0  0  0
   -8.6870   20.5390  -32.0570 C   0  0  0  0  0  0  0  0  0  0  0  0
   -8.7390   21.8890  -31.6670 C   0  0  0  0  0  0  0  0  0  0  0  0
   -7.5350   22.5380  -31.4090 C   0  0  0  0  0  0  0  0  0  0  0  0
   -7.2900   23.8410  -31.0350 C   0  0  0  0  0  0  0  0  0  0  0  0
   -5.9040   23.9390  -30.9240 C   0  0  0  0  0  0  0  0  0  0  0  0
   -5.1980   25.1630  -30.4880 C   0  0  0  0  0  0  0  0  0  0  0  0
   -3.8340   25.3630  -30.8510 N   0  0  0  0  0  0  0  0  0  0  0  0
   -5.7940   26.0450  -29.8150 O   0  0  0  0  0  0  0  0  0  0  0  0
   -5.3190   22.7440  -31.2140 N   0  0  0  0  0  0  0  0  0  0  0  0
   -3.9160   22.4380  -31.2580 C   0  0  0  0  0  0  0  0  0  0  0  0
   -3.3220   22.4280  -32.3710 O   0  0  0  0  0  0  0  0  0  0  0  0
   -3.1910   22.1450  -30.0480 N   0  0  0  0  0  0  0  0  0  0  0  0
   -2.3750   20.9300  -29.9610 C   0  0  0  0  0  0  0  0  0  0  0  0
   -3.1780   23.0710  -28.9460 C   0  0  0  0  0  0  0  0  0  0  0  0
   -4.1740   23.1730  -28.0400 N   0  0  0  0  0  0  0  0  0  0  0  0
   -3.7470   24.1540  -27.2230 C   0  0  0  0  0  0  0  0  0  0  0  0
   -2.5230   24.6080  -27.6610 C   0  0  0  0  0  0  0  0  0  0  0  0
   -2.2000   23.9210  -28.7270 O   0  0  0  0  0  0  0  0  0  0  0  0
   -6.3270   21.9000  -31.5120 C   0  0  0  0  0  0  0  0  0  0  0  0
   -6.2430   20.5630  -31.9160 C   0  0  0  0  0  0  0  0  0  0  0  0
   -7.3873   17.8053  -31.6797 H   0  0  0  0  0  0  0  0  0  0  0  0
   -8.2959   18.1825  -33.1826 H   0  0  0  0  0  0  0  0  0  0  0  0
   -6.5002   18.2309  -33.1826 H   0  0  0  0  0  0  0  0  0  0  0  0
   -9.6214   19.9927  -32.2531 H   0  0  0  0  0  0  0  0  0  0  0  0
   -9.7000   22.4151  -31.5690 H   0  0  0  0  0  0  0  0  0  0  0  0
   -8.0308   24.6353  -30.8609 H   0  0  0  0  0  0  0  0  0  0  0  0
   -3.0740   25.2940  -30.1390 H   0  0  0  0  0  0  0  0  0  0  0  0
   -2.2052   20.6772  -28.9040 H   0  0  0  0  0  0  0  0  0  0  0  0
   -2.8994   20.0999  -30.4569 H   0  0  0  0  0  0  0  0  0  0  0  0
   -1.4082   21.1013  -30.4569 H   0  0  0  0  0  0  0  0  0  0  0  0
   -4.2899   24.5329  -26.3446 H   0  0  0  0  0  0  0  0  0  0  0  0
   -1.9238   25.4056  -27.1976 H   0  0  0  0  0  0  0  0  0  0  0  0
   -5.2685   20.0614  -32.0098 H   0  0  0  0  0  0  0  0  0  0  0  0
  1  2  1  0
  2  3  2  0
  3  4  1  0
  4  5  2  0
  5  6  1  0
  6  7  2  0
  7  8  1  0
  8  9  1  0
  8 10  2  0
  7 11  1  0
 11 12  1  0
 12 13  2  0
 12 14  1  0
 14 15  1  0
 14 16  1  0
 16 17  2  0
 17 18  1  0
 18 19  2  0
 19 20  1  0
 11 21  1  0
 21 22  2  0
 22  2  1  0
 21  5  1  0
 20 16  1  0
  1 23  1  0
  1 24  1  0
  1 25  1  0
  3 26  1  0
  4 27  1  0
  6 28  1  0
  9 29  1  0
 15 30  1  0
 15 31  1  0
 15 32  1  0
 18 33  1  0
 19 34  1  0
 22 35  1  0
M  CHG  1   9  -1
M  END
>  <UniqueID>  (39) 
39

>  <SMILES>  (39) 
Cc1ccc2cc(C([NH-])=O)n(C(=O)N(C)c3ncco3)c2c1

>  <Energy>  (39) 
105.94552722120748

>  <Genealogy>  (39) 
Cc1ccc2cc(C([NH-])=O)n(C(=O)N(C)c3ncco3)c2c1 (protonated)
Cc1ccc2cc(C([NH-])=O)n(C(=O)N(C)c3ncco3)c2c1 (3D coordinates assigned)
Cc1ccc2cc(C([NH-])=O)n(C(=O)N(C)c3ncco3)c2c1 (optimized conformer: 105.94552722120748 kcal/mol)

>  <smiles>  (39) 
Cc1ccc2cc(C(N)=O)n(C(=O)N(C)c3ncco3)c2c1

>  <score_type>  (39) 
oracle

>  <origin>  (39) 
adg

>  <m_score__min__energy>  (39) 
-10

>  <m_primary>  (39) 
energy

$$$$
39:0
     RDKit          3D

 38 39  0  0  0  0  0  0  0  0999 V2000
   -2.8540   24.6960  -27.6380 C   0  0  0  0  0  0  0  0  0  0  0  0
   -1.9550   25.0330  -28.6860 O   0  0  0  0  0  0  0  0  0  0  0  0
   -1.0430   24.1180  -29.2200 C   0  0  0  0  0  0  0  0  0  0  0  0
    0.1860   24.2020  -28.9490 O   0  0  0  0  0  0  0  0  0  0  0  0
   -1.5370   23.0120  -30.0970 C   0  0  0  0  0  0  0  0  0  0  0  0
   -2.9620   23.0040  -30.1360 O   0  0  0  0  0  0  0  0  0  0  0  0
   -3.6960   22.7100  -31.2910 C   0  0  0  0  0  0  0  0  0  0  0  0
   -3.1100   22.3100  -32.3350 O   0  0  0  0  0  0  0  0  0  0  0  0
   -5.1200   22.8930  -31.2970 N   0  0  0  0  0  0  0  0  0  0  0  0
   -5.8150   24.0300  -31.0100 C   0  0  0  0  0  0  0  0  0  0  0  0
   -5.2430   25.2840  -30.4800 C   0  0  0  0  0  0  0  0  0  0  0  0
   -3.9220   25.6730  -30.8480 N   0  0  0  0  0  0  0  0  0  0  0  0
   -5.9210   26.0380  -29.7330 O   0  0  0  0  0  0  0  0  0  0  0  0
   -7.1800   23.8300  -31.2100 C   0  0  0  0  0  0  0  0  0  0  0  0
   -7.3020   22.5240  -31.6280 C   0  0  0  0  0  0  0  0  0  0  0  0
   -8.4360   21.7980  -31.9780 C   0  0  0  0  0  0  0  0  0  0  0  0
   -8.2620   20.4690  -32.4010 C   0  0  0  0  0  0  0  0  0  0  0  0
   -6.9660   19.9010  -32.4800 C   0  0  0  0  0  0  0  0  0  0  0  0
   -6.7920   18.4700  -32.9180 C   0  0  0  0  0  0  0  0  0  0  0  0
   -5.6210   18.3210  -33.8930 C   0  0  0  0  0  0  0  0  0  0  0  0
   -6.0110   18.6710  -35.1950 O   0  0  0  0  0  0  0  0  0  0  0  0
   -5.8380   20.6660  -32.1080 C   0  0  0  0  0  0  0  0  0  0  0  0
   -6.0430   21.9810  -31.6730 C   0  0  0  0  0  0  0  0  0  0  0  0
   -2.3699   24.8775  -26.6671 H   0  0  0  0  0  0  0  0  0  0  0  0
   -3.7592   25.3158  -27.7179 H   0  0  0  0  0  0  0  0  0  0  0  0
   -3.1287   23.6339  -27.7179 H   0  0  0  0  0  0  0  0  0  0  0  0
   -1.1478   23.1565  -31.1157 H   0  0  0  0  0  0  0  0  0  0  0  0
   -1.1870   22.0519  -29.6899 H   0  0  0  0  0  0  0  0  0  0  0  0
   -3.0890   25.1700  -30.4690 H   0  0  0  0  0  0  0  0  0  0  0  0
   -7.9888   24.5612  -31.0645 H   0  0  0  0  0  0  0  0  0  0  0  0
   -9.4375   22.2500  -31.9253 H   0  0  0  0  0  0  0  0  0  0  0  0
   -9.1396   19.8643  -32.6732 H   0  0  0  0  0  0  0  0  0  0  0  0
   -6.6018   17.8456  -32.0326 H   0  0  0  0  0  0  0  0  0  0  0  0
   -7.7114   18.1515  -33.4310 H   0  0  0  0  0  0  0  0  0  0  0  0
   -4.7992   18.9786  -33.5733 H   0  0  0  0  0  0  0  0  0  0  0  0
   -5.2924   17.2712  -33.8928 H   0  0  0  0  0  0  0  0  0  0  0  0
   -6.9080   19.0900  -35.1220 H   0  0  0  0  0  0  0  0  0  0  0  0
   -4.8252   20.2397  -32.1588 H   0  0  0  0  0  0  0  0  0  0  0  0
  1  2  1  0
  2  3  1  0
  3  4  2  0
  3  5  1  0
  5  6  1  0
  6  7  1  0
  7  8  2  0
  7  9  1  0
  9 10  1  0
 10 11  1  0
 11 12  1  0
 11 13  2  0
 10 14  2  0
 14 15  1  0
 15 16  2  0
 16 17  1  0
 17 18  2  0
 18 19  1  0
 19 20  1  0
 20 21  1  0
 18 22  1  0
 22 23  2  0
 23  9  1  0
 23 15  1  0
  1 24  1  0
  1 25  1  0
  1 26  1  0
  5 27  1  0
  5 28  1  0
 12 29  1  0
 14 30  1  0
 16 31  1  0
 17 32  1  0
 19 33  1  0
 19 34  1  0
 20 35  1  0
 20 36  1  0
 21 37  1  0
 22 38  1  0
M  CHG  1  12  -1
M  END
>  <UniqueID>  (40) 
40

>  <SMILES>  (40) 
COC(=O)COC(=O)n1c(C([NH-])=O)cc2ccc(CCO)cc21

>  <Energy>  (40) 
69.298390866562

>  <Genealogy>  (40) 
COC(=O)COC(=O)n1c(C([NH-])=O)cc2ccc(CCO)cc21 (protonated)
COC(=O)COC(=O)n1c(C([NH-])=O)cc2ccc(CCO)cc21 (3D coordinates assigned)
COC(=O)COC(=O)n1c(C([NH-])=O)cc2ccc(CCO)cc21 (optimized conformer: 69.298390866562 kcal/mol)

>  <smiles>  (40) 
COC(=O)COC(=O)n1c(C(N)=O)cc2ccc(CCO)cc21

>  <score_type>  (40) 
oracle

>  <origin>  (40) 
adg

>  <m_score__min__energy>  (40) 
-10

>  <m_primary>  (40) 
energy

$$$$
40:0
     RDKit          3D

 41 43  0  0  0  0  0  0  0  0999 V2000
   -4.1420   24.9200  -26.3500 C   0  0  0  0  0  0  0  0  0  0  0  0
   -3.1080   24.7230  -27.2860 O   0  0  0  0  0  0  0  0  0  0  0  0
   -1.8600   24.9320  -26.6590 C   0  0  0  0  0  0  0  0  0  0  0  0
   -0.8500   25.4110  -27.6980 C   0  0  0  0  0  0  0  0  0  0  0  0
   -0.4870   24.3450  -28.5730 O   0  0  0  0  0  0  0  0  0  0  0  0
   -1.4300   23.4720  -29.1200 C   0  0  0  0  0  0  0  0  0  0  0  0
   -1.9980   22.4660  -28.4330 N   0  0  0  0  0  0  0  0  0  0  0  0
   -2.8240   21.8700  -29.2790 N   0  0  0  0  0  0  0  0  0  0  0  0
   -2.7240   22.5400  -30.4430 C   0  0  0  0  0  0  0  0  0  0  0  0
   -3.4920   22.2150  -31.6520 C   0  0  0  0  0  0  0  0  0  0  0  0
   -2.8880   21.8140  -32.6830 O   0  0  0  0  0  0  0  0  0  0  0  0
   -4.9260   22.3040  -31.6560 N   0  0  0  0  0  0  0  0  0  0  0  0
   -5.6880   23.3110  -31.1470 C   0  0  0  0  0  0  0  0  0  0  0  0
   -5.1820   24.5880  -30.6030 C   0  0  0  0  0  0  0  0  0  0  0  0
   -4.2880   24.6190  -29.4900 N   0  0  0  0  0  0  0  0  0  0  0  0
   -5.5100   25.6690  -31.1610 O   0  0  0  0  0  0  0  0  0  0  0  0
   -7.0400   22.9840  -31.2160 C   0  0  0  0  0  0  0  0  0  0  0  0
   -7.0830   21.7340  -31.7910 C   0  0  0  0  0  0  0  0  0  0  0  0
   -8.1730   20.9210  -32.0800 C   0  0  0  0  0  0  0  0  0  0  0  0
   -7.9210   19.6530  -32.6300 C   0  0  0  0  0  0  0  0  0  0  0  0
   -6.5920   19.2100  -32.8540 C   0  0  0  0  0  0  0  0  0  0  0  0
   -6.3550   17.8510  -33.4610 C   0  0  0  0  0  0  0  0  0  0  0  0
   -6.1120   17.9440  -34.8200 F   0  0  0  0  0  0  0  0  0  0  0  0
   -7.4690   17.0610  -33.2550 F   0  0  0  0  0  0  0  0  0  0  0  0
   -5.2600   17.2480  -32.8660 F   0  0  0  0  0  0  0  0  0  0  0  0
   -5.5100   20.0740  -32.5610 C   0  0  0  0  0  0  0  0  0  0  0  0
   -5.7930   21.3420  -32.0410 C   0  0  0  0  0  0  0  0  0  0  0  0
   -1.8710   23.5300  -30.3520 O   0  0  0  0  0  0  0  0  0  0  0  0
   -3.7342   24.8423  -25.3313 H   0  0  0  0  0  0  0  0  0  0  0  0
   -4.5816   25.9180  -26.4938 H   0  0  0  0  0  0  0  0  0  0  0  0
   -4.9177   24.1535  -26.4938 H   0  0  0  0  0  0  0  0  0  0  0  0
   -1.9667   25.6928  -25.8717 H   0  0  0  0  0  0  0  0  0  0  0  0
   -1.5099   23.9908  -26.2100 H   0  0  0  0  0  0  0  0  0  0  0  0
   -1.2959   26.2262  -28.2868 H   0  0  0  0  0  0  0  0  0  0  0  0
    0.0521   25.7665  -27.1785 H   0  0  0  0  0  0  0  0  0  0  0  0
   -3.8400   23.7490  -29.1280 H   0  0  0  0  0  0  0  0  0  0  0  0
   -3.9890   25.5350  -29.0860 H   0  0  0  0  0  0  0  0  0  0  0  0
   -7.8920   23.5945  -30.8822 H   0  0  0  0  0  0  0  0  0  0  0  0
   -9.2010   21.2600  -31.8841 H   0  0  0  0  0  0  0  0  0  0  0  0
   -8.7641   18.9960  -32.8900 H   0  0  0  0  0  0  0  0  0  0  0  0
   -4.4718   19.7565  -32.7377 H   0  0  0  0  0  0  0  0  0  0  0  0
  1  2  1  0
  2  3  1  0
  3  4  1  0
  4  5  1  0
  5  6  1  0
  6  7  2  0
  7  8  1  0
  8  9  2  0
  9 10  1  0
 10 11  2  0
 10 12  1  0
 12 13  1  0
 13 14  1  0
 14 15  1  0
 14 16  2  0
 13 17  2  0
 17 18  1  0
 18 19  2  0
 19 20  1  0
 20 21  2  0
 21 22  1  0
 22 23  1  0
 22 24  1  0
 22 25  1  0
 21 26  1  0
 26 27  2  0
  9 28  1  0
 28  6  1  0
 27 12  1  0
 27 18  1  0
  1 29  1  0
  1 30  1  0
  1 31  1  0
  3 32  1  0
  3 33  1  0
  4 34  1  0
  4 35  1  0
 15 36  1  0
 15 37  1  0
 17 38  1  0
 19 39  1  0
 20 40  1  0
 26 41  1  0
M  END
>  <UniqueID>  (41) 
41

>  <SMILES>  (41) 
COCCOc1nnc(C(=O)n2c(C(N)=O)cc3ccc(C(F)(F)F)cc32)o1

>  <Energy>  (41) 
112.5462522934987

>  <Genealogy>  (41) 
COCCOc1nnc(C(=O)n2c(C(N)=O)cc3ccc(C(F)(F)F)cc32)o1 (3D coordinates assigned)
COCCOc1nnc(C(=O)n2c(C(N)=O)cc3ccc(C(F)(F)F)cc32)o1 (optimized conformer: 112.5462522934987 kcal/mol)

>  <smiles>  (41) 
COCCOc1nnc(C(=O)n2c(C(N)=O)cc3ccc(C(F)(F)F)cc32)o1

>  <score_type>  (41) 
oracle

>  <origin>  (41) 
adg

>  <m_score__min__energy>  (41) 
-8.6500000000000004

>  <m_primary>  (41) 
energy

$$$$
41:0
     RDKit          3D

 46 47  0  0  0  0  0  0  0  0999 V2000
   -9.7290   21.5920  -31.5840 C   0  0  0  0  0  0  0  0  0  0  0  0
   -8.5610   20.7020  -31.8900 C   0  0  0  0  0  0  0  0  0  0  0  0
   -8.7390   19.3000  -31.9910 C   0  0  0  0  0  0  0  0  0  0  0  0
   -7.6580   18.4630  -32.3230 C   0  0  0  0  0  0  0  0  0  0  0  0
   -6.4240   19.0590  -32.5630 C   0  0  0  0  0  0  0  0  0  0  0  0
   -5.2170   18.4930  -32.9140 C   0  0  0  0  0  0  0  0  0  0  0  0
   -4.3230   19.5600  -33.0190 C   0  0  0  0  0  0  0  0  0  0  0  0
   -2.8750   19.4190  -33.3050 C   0  0  0  0  0  0  0  0  0  0  0  0
   -2.2040   20.3330  -34.1740 N   0  0  0  0  0  0  0  0  0  0  0  0
   -2.2230   18.4730  -32.7910 O   0  0  0  0  0  0  0  0  0  0  0  0
   -4.9550   20.7340  -32.7380 N   0  0  0  0  0  0  0  0  0  0  0  0
   -4.3880   22.0550  -32.7400 C   0  0  0  0  0  0  0  0  0  0  0  0
   -3.8680   22.4920  -33.8030 O   0  0  0  0  0  0  0  0  0  0  0  0
   -4.4260   22.8840  -31.5560 N   0  0  0  0  0  0  0  0  0  0  0  0
   -5.6100   23.7110  -31.2780 C   0  0  0  0  0  0  0  0  0  0  0  0
   -5.2040   24.9980  -30.6310 C   0  0  0  0  0  0  0  0  0  0  0  0
   -3.8910   25.5190  -30.8390 N   0  0  0  0  0  0  0  0  0  0  0  0
   -6.0220   25.6270  -29.9030 O   0  0  0  0  0  0  0  0  0  0  0  0
   -3.3270   22.8880  -30.6210 C   0  0  0  0  0  0  0  0  0  0  0  0
   -2.1420   22.7740  -31.0380 O   0  0  0  0  0  0  0  0  0  0  0  0
   -3.5750   23.0150  -29.2520 O   0  0  0  0  0  0  0  0  0  0  0  0
   -2.7830   22.3860  -28.2510 C   0  0  0  0  0  0  0  0  0  0  0  0
   -1.7280   23.3670  -27.7350 C   0  0  0  0  0  0  0  0  0  0  0  0
   -2.1300   24.8320  -27.9520 C   0  0  0  0  0  0  0  0  0  0  0  0
   -1.7960   25.2530  -29.2470 O   0  0  0  0  0  0  0  0  0  0  0  0
   -6.2400   20.4130  -32.4720 C   0  0  0  0  0  0  0  0  0  0  0  0
   -7.2940   21.2690  -32.1430 C   0  0  0  0  0  0  0  0  0  0  0  0
   -9.8462   21.6813  -30.4939 H   0  0  0  0  0  0  0  0  0  0  0  0
   -9.5543   22.5881  -32.0168 H   0  0  0  0  0  0  0  0  0  0  0  0
  -10.6430   21.1593  -32.0168 H   0  0  0  0  0  0  0  0  0  0  0  0
   -9.7313   18.8620  -31.8082 H   0  0  0  0  0  0  0  0  0  0  0  0
   -7.7844   17.3724  -32.3907 H   0  0  0  0  0  0  0  0  0  0  0  0
   -5.0035   17.4263  -33.0769 H   0  0  0  0  0  0  0  0  0  0  0  0
   -1.1940   20.1930  -34.4000 H   0  0  0  0  0  0  0  0  0  0  0  0
   -2.6910   21.1640  -34.5800 H   0  0  0  0  0  0  0  0  0  0  0  0
   -6.1310   23.9280  -32.2222 H   0  0  0  0  0  0  0  0  0  0  0  0
   -6.2775   23.1629  -30.5968 H   0  0  0  0  0  0  0  0  0  0  0  0
   -3.0530   24.9050  -30.7490 H   0  0  0  0  0  0  0  0  0  0  0  0
   -3.4288   22.0721  -27.4177 H   0  0  0  0  0  0  0  0  0  0  0  0
   -2.2823   21.5067  -28.6823 H   0  0  0  0  0  0  0  0  0  0  0  0
   -1.5850   23.1965  -26.6577 H   0  0  0  0  0  0  0  0  0  0  0  0
   -0.8013   23.1881  -28.2999 H   0  0  0  0  0  0  0  0  0  0  0  0
   -3.2159   24.9331  -27.8087 H   0  0  0  0  0  0  0  0  0  0  0  0
   -1.5885   25.4575  -27.2271 H   0  0  0  0  0  0  0  0  0  0  0  0
   -2.1820   24.5880  -29.8730 H   0  0  0  0  0  0  0  0  0  0  0  0
   -7.1401   22.3565  -32.0828 H   0  0  0  0  0  0  0  0  0  0  0  0
  1  2  1  0
  2  3  2  0
  3  4  1  0
  4  5  2  0
  5  6  1  0
  6  7  2  0
  7  8  1  0
  8  9  1  0
  8 10  2  0
  7 11  1  0
 11 12  1  0
 12 13  2  0
 12 14  1  0
 14 15  1  0
 15 16  1  0
 16 17  1  0
 16 18  2  0
 14 19  1  0
 19 20  2  0
 19 21  1  0
 21 22  1  0
 22 23  1  0
 23 24  1  0
 24 25  1  0
 11 26  1  0
 26 27  2  0
 27  2  1  0
 26  5  1  0
  1 28  1  0
  1 29  1  0
  1 30  1  0
  3 31  1  0
  4 32  1  0
  6 33  1  0
  9 34  1  0
  9 35  1  0
 15 36  1  0
 15 37  1  0
 17 38  1  0
 22 39  1  0
 22 40  1  0
 23 41  1  0
 23 42  1  0
 24 43  1  0
 24 44  1  0
 25 45  1  0
 27 46  1  0
M  CHG  1  17  -1
M  END
>  <UniqueID>  (42) 
42

>  <SMILES>  (42) 
Cc1ccc2cc(C(N)=O)n(C(=O)N(CC([NH-])=O)C(=O)OCCCO)c2c1

>  <Energy>  (42) 
74.44204873110344

>  <Genealogy>  (42) 
Cc1ccc2cc(C(N)=O)n(C(=O)N(CC([NH-])=O)C(=O)OCCCO)c2c1 (protonated)
Cc1ccc2cc(C(N)=O)n(C(=O)N(CC([NH-])=O)C(=O)OCCCO)c2c1 (3D coordinates assigned)
Cc1ccc2cc(C(N)=O)n(C(=O)N(CC([NH-])=O)C(=O)OCCCO)c2c1 (optimized conformer: 74.44204873110344 kcal/mol)

>  <smiles>  (42) 
Cc1ccc2cc(C(N)=O)n(C(=O)N(CC(N)=O)C(=O)OCCCO)c2c1

>  <score_type>  (42) 
oracle

>  <origin>  (42) 
adg

>  <m_score__min__energy>  (42) 
-11

>  <m_primary>  (42) 
energy

$$$$
42:0
     RDKit          3D

 31 33  0  0  0  0  0  0  0  0999 V2000
   -4.2090   25.5940  -30.7800 N   0  0  0  0  0  0  0  0  0  0  0  0
   -5.5660   25.2150  -30.5420 C   0  0  0  0  0  0  0  0  0  0  0  0
   -6.3310   26.0180  -29.9470 O   0  0  0  0  0  0  0  0  0  0  0  0
   -6.0810   23.9090  -31.0140 C   0  0  0  0  0  0  0  0  0  0  0  0
   -7.4280   23.6460  -31.2580 C   0  0  0  0  0  0  0  0  0  0  0  0
   -7.4840   22.3110  -31.5870 C   0  0  0  0  0  0  0  0  0  0  0  0
   -8.5780   21.5200  -31.9240 C   0  0  0  0  0  0  0  0  0  0  0  0
   -8.3430   20.1720  -32.2410 C   0  0  0  0  0  0  0  0  0  0  0  0
   -7.0250   19.6450  -32.2420 C   0  0  0  0  0  0  0  0  0  0  0  0
   -6.7900   18.1880  -32.5490 C   0  0  0  0  0  0  0  0  0  0  0  0
   -7.9570   17.4600  -32.3910 F   0  0  0  0  0  0  0  0  0  0  0  0
   -6.3540   18.0630  -33.8550 F   0  0  0  0  0  0  0  0  0  0  0  0
   -5.8330   17.6580  -31.7010 F   0  0  0  0  0  0  0  0  0  0  0  0
   -5.9430   20.4770  -31.8700 C   0  0  0  0  0  0  0  0  0  0  0  0
   -6.2100   21.8110  -31.5400 C   0  0  0  0  0  0  0  0  0  0  0  0
   -5.3360   22.7810  -31.1850 N   0  0  0  0  0  0  0  0  0  0  0  0
   -3.9080   22.6500  -31.0810 C   0  0  0  0  0  0  0  0  0  0  0  0
   -3.2150   22.5180  -32.1260 O   0  0  0  0  0  0  0  0  0  0  0  0
   -3.2820   22.6710  -29.7940 N   0  0  0  0  0  0  0  0  0  0  0  0
   -2.2410   23.5670  -29.3980 C   0  0  0  0  0  0  0  0  0  0  0  0
   -2.4000   24.9050  -29.3820 N   0  0  0  0  0  0  0  0  0  0  0  0
   -1.2570   25.3660  -28.9730 O   0  0  0  0  0  0  0  0  0  0  0  0
   -0.4440   24.3670  -28.7510 C   0  0  0  0  0  0  0  0  0  0  0  0
    0.7400   24.5030  -28.3460 O   0  0  0  0  0  0  0  0  0  0  0  0
   -1.0100   23.1720  -29.0040 N   0  0  0  0  0  0  0  0  0  0  0  0
   -3.5290   24.9350  -31.2170 H   0  0  0  0  0  0  0  0  0  0  0  0
   -3.8680   26.5330  -30.4780 H   0  0  0  0  0  0  0  0  0  0  0  0
   -8.2673   24.3546  -31.1999 H   0  0  0  0  0  0  0  0  0  0  0  0
   -9.5955   21.9375  -31.9416 H   0  0  0  0  0  0  0  0  0  0  0  0
   -9.1904   19.5169  -32.4915 H   0  0  0  0  0  0  0  0  0  0  0  0
   -4.9157   20.0848  -31.8407 H   0  0  0  0  0  0  0  0  0  0  0  0
  1  2  1  0
  2  3  2  0
  2  4  1  0
  4  5  2  0
  5  6  1  0
  6  7  2  0
  7  8  1  0
  8  9  2  0
  9 10  1  0
 10 11  1  0
 10 12  1  0
 10 13  1  0
  9 14  1  0
 14 15  2  0
 15 16  1  0
 16 17  1  0
 17 18  2  0
 17 19  1  0
 19 20  1  0
 20 21  2  0
 21 22  1  0
 22 23  1  0
 23 24  2  0
 23 25  1  0
 16  4  1  0
 25 20  1  0
 15  6  1  0
  1 26  1  0
  1 27  1  0
  5 28  1  0
  7 29  1  0
  8 30  1  0
 14 31  1  0
M  CHG  2  19  -1  25  -1
M  END
>  <UniqueID>  (43) 
43

>  <SMILES>  (43) 
NC(=O)c1cc2ccc(C(F)(F)F)cc2n1C(=O)[N-]c1noc(=O)[n-]1

>  <Energy>  (43) 
107.69882181044372

>  <Genealogy>  (43) 
NC(=O)c1cc2ccc(C(F)(F)F)cc2n1C(=O)[N-]c1noc(=O)[n-]1 (protonated)
NC(=O)c1cc2ccc(C(F)(F)F)cc2n1C(=O)[N-]c1noc(=O)[n-]1 (3D coordinates assigned)
NC(=O)c1cc2ccc(C(F)(F)F)cc2n1C(=O)[N-]c1noc(=O)[n-]1 (optimized conformer: 107.69882181044372 kcal/mol)

>  <smiles>  (43) 
NC(=O)c1cc2ccc(C(F)(F)F)cc2n1C(=O)Nc1noc(=O)[nH]1

>  <score_type>  (43) 
oracle

>  <origin>  (43) 
adg

>  <m_score__min__energy>  (43) 
-10.779999999999999

>  <m_primary>  (43) 
energy

$$$$
43:0
     RDKit          3D

 46 47  0  0  0  0  0  0  0  0999 V2000
   -3.3000   19.2540  -33.7260 C   0  0  0  0  0  0  0  0  0  0  0  0
   -3.9860   17.8040  -34.5910 S   0  0  0  0  0  0  0  0  0  0  0  0
   -5.6820   18.2270  -34.1790 C   0  0  0  0  0  0  0  0  0  0  0  0
   -6.1450   18.0450  -32.9360 C   0  0  0  0  0  0  0  0  0  0  0  0
   -7.5350   18.4610  -32.5480 C   0  0  0  0  0  0  0  0  0  0  0  0
   -7.5500   19.9160  -32.1740 C   0  0  0  0  0  0  0  0  0  0  0  0
   -8.7740   20.6310  -32.1370 C   0  0  0  0  0  0  0  0  0  0  0  0
   -8.8030   21.9850  -31.7630 C   0  0  0  0  0  0  0  0  0  0  0  0
   -7.5980   22.5910  -31.4160 C   0  0  0  0  0  0  0  0  0  0  0  0
   -7.3290   23.8870  -31.0320 C   0  0  0  0  0  0  0  0  0  0  0  0
   -5.9520   23.9310  -30.8190 C   0  0  0  0  0  0  0  0  0  0  0  0
   -5.2310   25.1240  -30.3280 C   0  0  0  0  0  0  0  0  0  0  0  0
   -3.9450   25.4440  -30.8550 N   0  0  0  0  0  0  0  0  0  0  0  0
   -5.7540   25.8810  -29.4680 O   0  0  0  0  0  0  0  0  0  0  0  0
   -5.3950   22.7130  -31.0630 N   0  0  0  0  0  0  0  0  0  0  0  0
   -4.0110   22.3470  -31.0190 C   0  0  0  0  0  0  0  0  0  0  0  0
   -3.3420   22.3090  -32.0850 O   0  0  0  0  0  0  0  0  0  0  0  0
   -3.3240   22.1430  -29.7010 C   0  0  0  0  0  0  0  0  0  0  0  0
   -2.6820   23.4330  -29.2540 C   0  0  0  0  0  0  0  0  0  0  0  0
   -1.6110   23.7620  -29.7500 O   0  0  0  0  0  0  0  0  0  0  0  0
   -3.3120   24.2730  -28.2520 N   0  0  0  0  0  0  0  0  0  0  0  0
   -4.2340   23.4760  -27.4280 C   0  0  0  0  0  0  0  0  0  0  0  0
   -2.2890   24.9190  -27.4150 C   0  0  0  0  0  0  0  0  0  0  0  0
   -6.4130   21.9050  -31.4220 C   0  0  0  0  0  0  0  0  0  0  0  0
   -6.3510   20.5610  -31.8020 C   0  0  0  0  0  0  0  0  0  0  0  0
   -3.3725   19.1008  -32.6391 H   0  0  0  0  0  0  0  0  0  0  0  0
   -2.2449   19.3841  -34.0084 H   0  0  0  0  0  0  0  0  0  0  0  0
   -3.8686   20.1523  -34.0084 H   0  0  0  0  0  0  0  0  0  0  0  0
   -6.3455   18.6388  -34.9538 H   0  0  0  0  0  0  0  0  0  0  0  0
   -5.4927   17.5803  -32.1820 H   0  0  0  0  0  0  0  0  0  0  0  0
   -8.2150   18.2960  -33.3968 H   0  0  0  0  0  0  0  0  0  0  0  0
   -7.8635   17.8629  -31.6852 H   0  0  0  0  0  0  0  0  0  0  0  0
   -9.7109   20.1201  -32.4040 H   0  0  0  0  0  0  0  0  0  0  0  0
   -9.7475   22.5486  -31.7448 H   0  0  0  0  0  0  0  0  0  0  0  0
   -8.0481   24.7115  -30.9178 H   0  0  0  0  0  0  0  0  0  0  0  0
   -3.0780   25.2780  -30.2950 H   0  0  0  0  0  0  0  0  0  0  0  0
   -4.0617   21.8230  -28.9504 H   0  0  0  0  0  0  0  0  0  0  0  0
   -2.5485   21.3707  -29.8115 H   0  0  0  0  0  0  0  0  0  0  0  0
   -3.8690   25.0290  -28.7140 H   0  0  0  0  0  0  0  0  0  0  0  0
   -4.0243   23.6572  -26.3635 H   0  0  0  0  0  0  0  0  0  0  0  0
   -5.2709   23.7669  -27.6522 H   0  0  0  0  0  0  0  0  0  0  0  0
   -4.0962   22.4079  -27.6522 H   0  0  0  0  0  0  0  0  0  0  0  0
   -2.5329   24.7650  -26.3535 H   0  0  0  0  0  0  0  0  0  0  0  0
   -1.3050   24.4781  -27.6328 H   0  0  0  0  0  0  0  0  0  0  0  0
   -2.2641   25.9969  -27.6328 H   0  0  0  0  0  0  0  0  0  0  0  0
   -5.3930   20.0205  -31.8108 H   0  0  0  0  0  0  0  0  0  0  0  0
  1  2  1  0
  2  3  1  0
  3  4  2  3
  4  5  1  0
  5  6  1  0
  6  7  2  0
  7  8  1  0
  8  9  2  0
  9 10  1  0
 10 11  2  0
 11 12  1  0
 12 13  1  0
 12 14  2  0
 11 15  1  0
 15 16  1  0
 16 17  2  0
 16 18  1  0
 18 19  1  0
 19 20  2  0
 19 21  1  0
 21 22  1  0
 21 23  1  0
 15 24  1  0
 24 25  2  0
 25  6  1  0
 24  9  1  0
  1 26  1  0
  1 27  1  0
  1 28  1  0
  3 29  1  0
  4 30  1  0
  5 31  1  0
  5 32  1  0
  7 33  1  0
  8 34  1  0
 10 35  1  0
 13 36  1  0
 18 37  1  0
 18 38  1  0
 21 39  1  0
 22 40  1  0
 22 41  1  0
 22 42  1  0
 23 43  1  0
 23 44  1  0
 23 45  1  0
 25 46  1  0
M  CHG  2  13  -1  21   1
M  END
>  <UniqueID>  (44) 
44

>  <SMILES>  (44) 
CSC=CCc1ccc2cc(C([NH-])=O)n(C(=O)CC(=O)[NH+](C)C)c2c1

>  <Energy>  (44) 
73.41522423400393

>  <Genealogy>  (44) 
CSC=CCc1ccc2cc(C([NH-])=O)n(C(=O)CC(=O)[NH+](C)C)c2c1 (protonated)
CSC=CCc1ccc2cc(C([NH-])=O)n(C(=O)CC(=O)[NH+](C)C)c2c1 (3D coordinates assigned)
CSC=CCc1ccc2cc(C([NH-])=O)n(C(=O)CC(=O)[NH+](C)C)c2c1 (optimized conformer: 73.41522423400393 kcal/mol)

>  <smiles>  (44) 
CSC=CCc1ccc2cc(C(N)=O)n(C(=O)CC(=O)N(C)C)c2c1

>  <score_type>  (44) 
oracle

>  <origin>  (44) 
adg

>  <m_score__min__energy>  (44) 
-9.6999999999999993

>  <m_primary>  (44) 
energy

$$$$
44:0
     RDKit          3D

 42 43  0  0  0  0  0  0  0  0999 V2000
   -0.5100   23.3550  -25.3980 C   0  0  0  0  0  0  0  0  0  0  0  0
   -0.8950   22.9330  -26.7550 N   0  0  2  0  0  0  0  0  0  0  0  0
   -1.7870   23.9340  -27.3780 C   0  0  0  0  0  0  0  0  0  0  0  0
   -1.0600   24.7710  -28.3930 C   0  0  0  0  0  0  0  0  0  0  0  0
   -1.6600   25.6970  -28.9990 O   0  0  0  0  0  0  0  0  0  0  0  0
    0.2820   24.5300  -28.6610 O   0  0  0  0  0  0  0  0  0  0  0  0
   -1.5280   21.6380  -26.7090 C   0  0  0  0  0  0  0  0  0  0  0  0
   -1.2350   20.8150  -25.7940 O   0  0  0  0  0  0  0  0  0  0  0  0
   -2.4900   21.3080  -27.6710 O   0  0  0  0  0  0  0  0  0  0  0  0
   -2.2970   21.5290  -29.0650 C   0  0  0  0  0  0  0  0  0  0  0  0
   -3.5540   21.5750  -29.7350 O   0  0  0  0  0  0  0  0  0  0  0  0
   -3.8620   22.5330  -30.7060 C   0  0  0  0  0  0  0  0  0  0  0  0
   -2.9390   23.1550  -31.3020 O   0  0  0  0  0  0  0  0  0  0  0  0
   -5.2350   22.8300  -31.0050 N   0  0  0  0  0  0  0  0  0  0  0  0
   -5.8940   24.0100  -30.8270 C   0  0  0  0  0  0  0  0  0  0  0  0
   -5.2820   25.2980  -30.4420 C   0  0  0  0  0  0  0  0  0  0  0  0
   -3.9720   25.6490  -30.8800 N   0  0  0  0  0  0  0  0  0  0  0  0
   -5.9430   26.1220  -29.7540 O   0  0  0  0  0  0  0  0  0  0  0  0
   -7.2460   23.8650  -31.1350 C   0  0  0  0  0  0  0  0  0  0  0  0
   -7.3940   22.5510  -31.5160 C   0  0  0  0  0  0  0  0  0  0  0  0
   -8.5310   21.8590  -31.9190 C   0  0  0  0  0  0  0  0  0  0  0  0
   -8.3980   20.4930  -32.2230 C   0  0  0  0  0  0  0  0  0  0  0  0
   -7.1450   19.8410  -32.0980 C   0  0  0  0  0  0  0  0  0  0  0  0
   -7.0030   18.3820  -32.4530 C   0  0  0  0  0  0  0  0  0  0  0  0
   -6.5920   18.2710  -33.7670 F   0  0  0  0  0  0  0  0  0  0  0  0
   -8.2100   17.7210  -32.3010 F   0  0  0  0  0  0  0  0  0  0  0  0
   -6.0690   17.7710  -31.6340 F   0  0  0  0  0  0  0  0  0  0  0  0
   -6.0070   20.5880  -31.7140 C   0  0  0  0  0  0  0  0  0  0  0  0
   -6.1650   21.9490  -31.4310 C   0  0  0  0  0  0  0  0  0  0  0  0
   -1.0583   22.7540  -24.6577 H   0  0  0  0  0  0  0  0  0  0  0  0
    0.5715   23.2078  -25.2612 H   0  0  0  0  0  0  0  0  0  0  0  0
   -0.7555   24.4185  -25.2612 H   0  0  0  0  0  0  0  0  0  0  0  0
   -0.0160   22.8590  -27.3200 H   0  0  0  0  0  0  0  0  0  0  0  0
   -2.6170   23.4112  -27.8757 H   0  0  0  0  0  0  0  0  0  0  0  0
   -2.1594   24.6012  -26.5867 H   0  0  0  0  0  0  0  0  0  0  0  0
   -1.7718   22.4842  -29.2121 H   0  0  0  0  0  0  0  0  0  0  0  0
   -1.6994   20.7039  -29.4797 H   0  0  0  0  0  0  0  0  0  0  0  0
   -3.1300   25.1700  -30.4930 H   0  0  0  0  0  0  0  0  0  0  0  0
   -8.0281   24.6368  -31.0842 H   0  0  0  0  0  0  0  0  0  0  0  0
   -9.5045   22.3650  -31.9975 H   0  0  0  0  0  0  0  0  0  0  0  0
   -9.2759   19.9234  -32.5617 H   0  0  0  0  0  0  0  0  0  0  0  0
   -5.0194   20.1094  -31.6395 H   0  0  0  0  0  0  0  0  0  0  0  0
  1  2  1  0
  2  3  1  0
  3  4  1  0
  4  5  2  0
  4  6  1  0
  2  7  1  0
  7  8  2  0
  7  9  1  0
  9 10  1  0
 10 11  1  0
 11 12  1  0
 12 13  2  0
 12 14  1  0
 14 15  1  0
 15 16  1  0
 16 17  1  0
 16 18  2  0
 15 19  2  0
 19 20  1  0
 20 21  2  0
 21 22  1  0
 22 23  2  0
 23 24  1  0
 24 25  1  0
 24 26  1  0
 24 27  1  0
 23 28  1  0
 28 29  2  0
 29 14  1  0
 29 20  1  0
  1 30  1  0
  1 31  1  0
  1 32  1  0
  2 33  1  6
  3 34  1  0
  3 35  1  0
 10 36  1  0
 10 37  1  0
 17 38  1  0
 19 39  1  0
 21 40  1  0
 22 41  1  0
 28 42  1  0
M  CHG  3   2   1   6  -1  17  -1
M  END
>  <UniqueID>  (45) 
45

>  <SMILES>  (45) 
C[N@H+](CC(=O)[O-])C(=O)OCOC(=O)n1c(C([NH-])=O)cc2ccc(C(F)(F)F)cc21

>  <Energy>  (45) 
77.33334847772072

>  <Genealogy>  (45) 
C[NH+](CC(=O)[O-])C(=O)OCOC(=O)n1c(C([NH-])=O)cc2ccc(C(F)(F)F)cc21 (protonated)
C[N@H+](CC(=O)[O-])C(=O)OCOC(=O)n1c(C([NH-])=O)cc2ccc(C(F)(F)F)cc21 (chirality)
C[N@H+](CC(=O)[O-])C(=O)OCOC(=O)n1c(C([NH-])=O)cc2ccc(C(F)(F)F)cc21 (3D coordinates assigned)
C[N@H+](CC(=O)[O-])C(=O)OCOC(=O)n1c(C([NH-])=O)cc2ccc(C(F)(F)F)cc21 (optimized conformer: 77.33334847772072 kcal/mol)

>  <smiles>  (45) 
CN(CC(=O)O)C(=O)OCOC(=O)n1c(C(N)=O)cc2ccc(C(F)(F)F)cc21

>  <score_type>  (45) 
oracle

>  <origin>  (45) 
adg

>  <m_score__min__energy>  (45) 
-10.699999999999999

>  <m_primary>  (45) 
energy

$$$$
45:0
     RDKit          3D

 50 52  0  0  0  0  0  0  0  0999 V2000
   -1.2210   16.7360  -34.7300 C   0  0  0  0  0  0  0  0  0  0  0  0
   -2.3620   15.9150  -34.9420 O   0  0  0  0  0  0  0  0  0  0  0  0
   -3.2460   15.5680  -33.9130 C   0  0  0  0  0  0  0  0  0  0  0  0
   -2.9910   14.5780  -33.1730 O   0  0  0  0  0  0  0  0  0  0  0  0
   -4.4360   16.3510  -33.7000 N   0  0  0  0  0  0  0  0  0  0  0  0
   -4.7520   17.4300  -34.6480 C   0  0  0  0  0  0  0  0  0  0  0  0
   -6.1070   18.0700  -34.3380 C   0  0  0  0  0  0  0  0  0  0  0  0
   -6.2020   18.3500  -32.9010 N   0  0  0  0  0  0  0  0  0  0  0  0
   -6.5530   19.6640  -32.4330 C   0  0  0  0  0  0  0  0  0  0  0  0
   -7.9120   20.0720  -32.4060 C   0  0  0  0  0  0  0  0  0  0  0  0
   -8.2680   21.3600  -31.9690 C   0  0  0  0  0  0  0  0  0  0  0  0
   -7.2470   22.2170  -31.5690 C   0  0  0  0  0  0  0  0  0  0  0  0
   -7.3010   23.5110  -31.0940 C   0  0  0  0  0  0  0  0  0  0  0  0
   -5.9770   23.8670  -30.8400 C   0  0  0  0  0  0  0  0  0  0  0  0
   -5.5550   25.1830  -30.3190 C   0  0  0  0  0  0  0  0  0  0  0  0
   -4.2380   25.6620  -30.5800 N   0  0  0  0  0  0  0  0  0  0  0  0
   -6.3460   25.8870  -29.6370 O   0  0  0  0  0  0  0  0  0  0  0  0
   -5.1430   22.8350  -31.1470 N   0  0  0  0  0  0  0  0  0  0  0  0
   -3.7230   22.7720  -30.9750 C   0  0  0  0  0  0  0  0  0  0  0  0
   -2.9880   22.6490  -31.9930 O   0  0  0  0  0  0  0  0  0  0  0  0
   -3.1250   22.7110  -29.5860 C   0  0  2  0  0  0  0  0  0  0  0  0
   -3.6390   23.7570  -28.7990 O   0  0  0  0  0  0  0  0  0  0  0  0
   -1.5910   22.8370  -29.6080 C   0  0  0  0  0  0  0  0  0  0  0  0
   -1.1240   24.1760  -29.1190 C   0  0  0  0  0  0  0  0  0  0  0  0
   -0.0360   24.2800  -28.4940 O   0  0  0  0  0  0  0  0  0  0  0  0
   -1.8920   25.3090  -29.3580 O   0  0  0  0  0  0  0  0  0  0  0  0
   -5.9310   21.8370  -31.5910 C   0  0  0  0  0  0  0  0  0  0  0  0
   -5.5460   20.5640  -32.0180 C   0  0  0  0  0  0  0  0  0  0  0  0
   -5.8690   17.3000  -31.9260 C   0  0  0  0  0  0  0  0  0  0  0  0
   -5.3730   16.0200  -32.6140 C   0  0  0  0  0  0  0  0  0  0  0  0
   -1.0522   16.8574  -33.6498 H   0  0  0  0  0  0  0  0  0  0  0  0
   -0.3394   16.2639  -35.1881 H   0  0  0  0  0  0  0  0  0  0  0  0
   -1.3885   17.7220  -35.1881 H   0  0  0  0  0  0  0  0  0  0  0  0
   -3.9699   18.2010  -34.5856 H   0  0  0  0  0  0  0  0  0  0  0  0
   -4.7972   16.9989  -35.6590 H   0  0  0  0  0  0  0  0  0  0  0  0
   -6.2054   19.0097  -34.9013 H   0  0  0  0  0  0  0  0  0  0  0  0
   -6.9122   17.3797  -34.6296 H   0  0  0  0  0  0  0  0  0  0  0  0
   -8.6961   19.3722  -32.7308 H   0  0  0  0  0  0  0  0  0  0  0  0
   -9.3201   21.6802  -31.9440 H   0  0  0  0  0  0  0  0  0  0  0  0
   -8.1980   24.1304  -30.9469 H   0  0  0  0  0  0  0  0  0  0  0  0
   -3.5120   25.6720  -29.8290 H   0  0  0  0  0  0  0  0  0  0  0  0
   -3.3921   21.7307  -29.1644 H   0  0  0  0  0  0  0  0  0  0  0  0
   -3.3750   24.6090  -29.2400 H   0  0  0  0  0  0  0  0  0  0  0  0
   -1.1624   22.0555  -28.9634 H   0  0  0  0  0  0  0  0  0  0  0  0
   -1.2584   22.7241  -30.6504 H   0  0  0  0  0  0  0  0  0  0  0  0
   -4.4862   20.2698  -32.0308 H   0  0  0  0  0  0  0  0  0  0  0  0
   -5.0800   17.6730  -31.2564 H   0  0  0  0  0  0  0  0  0  0  0  0
   -6.7815   17.0541  -31.3630 H   0  0  0  0  0  0  0  0  0  0  0  0
   -4.8616   15.3861  -31.8747 H   0  0  0  0  0  0  0  0  0  0  0  0
   -6.2359   15.4855  -33.0379 H   0  0  0  0  0  0  0  0  0  0  0  0
  1  2  1  0
  2  3  1  0
  3  4  2  0
  3  5  1  0
  5  6  1  0
  6  7  1  0
  7  8  1  0
  8  9  1  0
  9 10  2  0
 10 11  1  0
 11 12  2  0
 12 13  1  0
 13 14  2  0
 14 15  1  0
 15 16  1  0
 15 17  2  0
 14 18  1  0
 18 19  1  0
 19 20  2  0
 19 21  1  0
 21 22  1  0
 21 23  1  0
 23 24  1  0
 24 25  2  0
 24 26  1  0
 18 27  1  0
 27 28  2  0
  8 29  1  0
 29 30  1  0
 30  5  1  0
 28  9  1  0
 27 12  1  0
  1 31  1  0
  1 32  1  0
  1 33  1  0
  6 34  1  0
  6 35  1  0
  7 36  1  0
  7 37  1  0
 10 38  1  0
 11 39  1  0
 13 40  1  0
 16 41  1  0
 21 42  1  1
 22 43  1  0
 23 44  1  0
 23 45  1  0
 28 46  1  0
 29 47  1  0
 29 48  1  0
 30 49  1  0
 30 50  1  0
M  CHG  2  16  -1  26  -1
M  END
>  <UniqueID>  (46) 
46

>  <SMILES>  (46) 
COC(=O)N1CCN(c2ccc3cc(C([NH-])=O)n(C(=O)[C@H](O)CC(=O)[O-])c3c2)CC1

>  <Energy>  (46) 
92.25832463275177

>  <Genealogy>  (46) 
COC(=O)N1CCN(c2ccc3cc(C([NH-])=O)n(C(=O)C(O)CC(=O)[O-])c3c2)CC1 (protonated)
COC(=O)N1CCN(c2ccc3cc(C([NH-])=O)n(C(=O)[C@H](O)CC(=O)[O-])c3c2)CC1 (chirality)
COC(=O)N1CCN(c2ccc3cc(C([NH-])=O)n(C(=O)[C@H](O)CC(=O)[O-])c3c2)CC1 (3D coordinates assigned)
COC(=O)N1CCN(c2ccc3cc(C([NH-])=O)n(C(=O)[C@H](O)CC(=O)[O-])c3c2)CC1 (nonaromatic ring conformer: 92.25832463275177 kcal/mol)

>  <smiles>  (46) 
COC(=O)N1CCN(c2ccc3cc(C(N)=O)n(C(=O)C(O)CC(=O)O)c3c2)CC1

>  <score_type>  (46) 
oracle

>  <origin>  (46) 
adg

>  <m_score__min__energy>  (46) 
-12.5

>  <m_primary>  (46) 
energy

$$$$
46:0
     RDKit          3D

 30 31  0  0  0  0  0  0  0  0999 V2000
   -3.9430   25.6720  -30.8450 N   0  0  0  0  0  0  0  0  0  0  0  0
   -5.2530   25.2220  -30.5080 C   0  0  0  0  0  0  0  0  0  0  0  0
   -5.9810   25.9400  -29.7720 O   0  0  0  0  0  0  0  0  0  0  0  0
   -5.7440   23.9040  -30.9610 C   0  0  0  0  0  0  0  0  0  0  0  0
   -7.0840   23.6420  -31.2420 C   0  0  0  0  0  0  0  0  0  0  0  0
   -7.1390   22.2980  -31.5330 C   0  0  0  0  0  0  0  0  0  0  0  0
   -8.2270   21.5040  -31.8820 C   0  0  0  0  0  0  0  0  0  0  0  0
   -7.9910   20.1450  -32.1490 C   0  0  0  0  0  0  0  0  0  0  0  0
   -6.6770   19.6110  -32.0910 C   0  0  0  0  0  0  0  0  0  0  0  0
   -6.4420   18.1430  -32.3440 C   0  0  0  0  0  0  0  0  0  0  0  0
   -6.1130   17.5250  -31.1520 F   0  0  0  0  0  0  0  0  0  0  0  0
   -5.4090   17.9620  -33.2470 F   0  0  0  0  0  0  0  0  0  0  0  0
   -7.5780   17.5480  -32.8620 F   0  0  0  0  0  0  0  0  0  0  0  0
   -5.6020   20.4480  -31.7110 C   0  0  0  0  0  0  0  0  0  0  0  0
   -5.8700   21.7930  -31.4310 C   0  0  0  0  0  0  0  0  0  0  0  0
   -5.0000   22.7670  -31.0820 N   0  0  0  0  0  0  0  0  0  0  0  0
   -3.5760   22.6270  -30.9570 C   0  0  0  0  0  0  0  0  0  0  0  0
   -2.9550   21.8190  -31.7000 O   0  0  0  0  0  0  0  0  0  0  0  0
   -2.8880   23.3680  -29.9920 O   0  0  0  0  0  0  0  0  0  0  0  0
   -1.4940   23.2200  -29.7570 C   0  0  0  0  0  0  0  0  0  0  0  0
   -0.9510   24.4970  -29.2110 C   0  0  0  0  0  0  0  0  0  0  0  0
   -1.6120   25.5630  -29.3140 O   0  0  0  0  0  0  0  0  0  0  0  0
    0.2630   24.5020  -28.5350 O   0  0  0  0  0  0  0  0  0  0  0  0
   -3.1010   25.2790  -30.3670 H   0  0  0  0  0  0  0  0  0  0  0  0
   -7.9196   24.3573  -31.2331 H   0  0  0  0  0  0  0  0  0  0  0  0
   -9.2403   21.9271  -31.9468 H   0  0  0  0  0  0  0  0  0  0  0  0
   -8.8343   19.4871  -32.4060 H   0  0  0  0  0  0  0  0  0  0  0  0
   -4.5788   20.0510  -31.6372 H   0  0  0  0  0  0  0  0  0  0  0  0
   -1.3270   22.4094  -29.0324 H   0  0  0  0  0  0  0  0  0  0  0  0
   -0.9840   22.9746  -30.7002 H   0  0  0  0  0  0  0  0  0  0  0  0
  1  2  1  0
  2  3  2  0
  2  4  1  0
  4  5  2  0
  5  6  1  0
  6  7  2  0
  7  8  1  0
  8  9  2  0
  9 10  1  0
 10 11  1  0
 10 12  1  0
 10 13  1  0
  9 14  1  0
 14 15  2  0
 15 16  1  0
 16 17  1  0
 17 18  2  0
 17 19  1  0
 19 20  1  0
 20 21  1  0
 21 22  2  0
 21 23  1  0
 16  4  1  0
 15  6  1  0
  1 24  1  0
  5 25  1  0
  7 26  1  0
  8 27  1  0
 14 28  1  0
 20 29  1  0
 20 30  1  0
M  CHG  2   1  -1  23  -1
M  END
>  <UniqueID>  (47) 
47

>  <SMILES>  (47) 
[NH-]C(=O)c1cc2ccc(C(F)(F)F)cc2n1C(=O)OCC(=O)[O-]

>  <Energy>  (47) 
67.17608557345821

>  <Genealogy>  (47) 
[NH-]C(=O)c1cc2ccc(C(F)(F)F)cc2n1C(=O)OCC(=O)[O-] (protonated)
[NH-]C(=O)c1cc2ccc(C(F)(F)F)cc2n1C(=O)OCC(=O)[O-] (3D coordinates assigned)
[NH-]C(=O)c1cc2ccc(C(F)(F)F)cc2n1C(=O)OCC(=O)[O-] (optimized conformer: 67.17608557345821 kcal/mol)

>  <smiles>  (47) 
NC(=O)c1cc2ccc(C(F)(F)F)cc2n1C(=O)OCC(=O)O

>  <score_type>  (47) 
oracle

>  <origin>  (47) 
adg

>  <m_score__min__energy>  (47) 
-11.58

>  <m_primary>  (47) 
energy

$$$$
47:0
     RDKit          3D

 42 43  0  0  0  0  0  0  0  0999 V2000
   -1.2550   24.3330  -25.9490 C   0  0  0  0  0  0  0  0  0  0  0  0
   -1.3370   25.0650  -27.2140 N   0  0  0  0  0  0  0  0  0  0  0  0
   -0.5090   26.2500  -27.4550 C   0  0  0  0  0  0  0  0  0  0  0  0
   -2.2410   24.6080  -28.2340 C   0  0  0  0  0  0  0  0  0  0  0  0
   -2.4180   25.2960  -29.2770 O   0  0  0  0  0  0  0  0  0  0  0  0
   -2.9210   23.3930  -28.0660 O   0  0  0  0  0  0  0  0  0  0  0  0
   -2.4090   22.1350  -28.5080 C   0  0  0  0  0  0  0  0  0  0  0  0
   -3.0870   21.6890  -29.7680 C   0  0  0  0  0  0  0  0  0  0  0  0
   -3.5350   20.5130  -29.8420 O   0  0  0  0  0  0  0  0  0  0  0  0
   -3.2640   22.5980  -30.8180 O   0  0  0  0  0  0  0  0  0  0  0  0
   -4.2030   22.4740  -31.8500 C   0  0  0  0  0  0  0  0  0  0  0  0
   -3.8590   22.6080  -33.0560 O   0  0  0  0  0  0  0  0  0  0  0  0
   -5.5710   22.1910  -31.5240 N   0  0  0  0  0  0  0  0  0  0  0  0
   -6.4160   22.9330  -30.7540 C   0  0  0  0  0  0  0  0  0  0  0  0
   -6.1150   24.2710  -30.1930 C   0  0  0  0  0  0  0  0  0  0  0  0
   -4.8040   24.5870  -29.7220 N   0  0  0  0  0  0  0  0  0  0  0  0
   -7.0240   25.1370  -30.1020 O   0  0  0  0  0  0  0  0  0  0  0  0
   -7.6520   22.3000  -30.6380 C   0  0  0  0  0  0  0  0  0  0  0  0
   -7.5370   21.1380  -31.3660 C   0  0  0  0  0  0  0  0  0  0  0  0
   -8.4640   20.1250  -31.5830 C   0  0  0  0  0  0  0  0  0  0  0  0
   -8.0620   19.0170  -32.3460 C   0  0  0  0  0  0  0  0  0  0  0  0
   -6.7430   18.9300  -32.8610 C   0  0  0  0  0  0  0  0  0  0  0  0
   -6.3410   17.7260  -33.6740 C   0  0  0  0  0  0  0  0  0  0  0  0
   -7.3240   16.7520  -33.6460 F   0  0  0  0  0  0  0  0  0  0  0  0
   -6.1320   18.0900  -34.9930 F   0  0  0  0  0  0  0  0  0  0  0  0
   -5.1700   17.2000  -33.1640 F   0  0  0  0  0  0  0  0  0  0  0  0
   -5.8400   19.9990  -32.6480 C   0  0  0  0  0  0  0  0  0  0  0  0
   -6.2720   21.0950  -31.8910 C   0  0  0  0  0  0  0  0  0  0  0  0
   -1.3342   25.0403  -25.1103 H   0  0  0  0  0  0  0  0  0  0  0  0
   -2.0771   23.6043  -25.8931 H   0  0  0  0  0  0  0  0  0  0  0  0
   -0.2920   23.8043  -25.8931 H   0  0  0  0  0  0  0  0  0  0  0  0
   -0.2042   26.6863  -26.4923 H   0  0  0  0  0  0  0  0  0  0  0  0
    0.3855   25.9621  -28.0268 H   0  0  0  0  0  0  0  0  0  0  0  0
   -1.0869   26.9910  -28.0268 H   0  0  0  0  0  0  0  0  0  0  0  0
   -1.3296   22.2325  -28.6960 H   0  0  0  0  0  0  0  0  0  0  0  0
   -2.5990   21.3860  -27.7251 H   0  0  0  0  0  0  0  0  0  0  0  0
   -4.0100   23.9190  -29.8340 H   0  0  0  0  0  0  0  0  0  0  0  0
   -4.6130   25.5200  -29.2930 H   0  0  0  0  0  0  0  0  0  0  0  0
   -8.5328   22.6541  -30.0823 H   0  0  0  0  0  0  0  0  0  0  0  0
   -9.4813   20.1895  -31.1696 H   0  0  0  0  0  0  0  0  0  0  0  0
   -8.7783   18.2067  -32.5468 H   0  0  0  0  0  0  0  0  0  0  0  0
   -4.8234   19.9695  -33.0670 H   0  0  0  0  0  0  0  0  0  0  0  0
  1  2  1  0
  2  3  1  0
  2  4  1  0
  4  5  2  0
  4  6  1  0
  6  7  1  0
  7  8  1  0
  8  9  2  0
  8 10  1  0
 10 11  1  0
 11 12  2  0
 11 13  1  0
 13 14  1  0
 14 15  1  0
 15 16  1  0
 15 17  2  0
 14 18  2  0
 18 19  1  0
 19 20  2  0
 20 21  1  0
 21 22  2  0
 22 23  1  0
 23 24  1  0
 23 25  1  0
 23 26  1  0
 22 27  1  0
 27 28  2  0
 28 13  1  0
 28 19  1  0
  1 29  1  0
  1 30  1  0
  1 31  1  0
  3 32  1  0
  3 33  1  0
  3 34  1  0
  7 35  1  0
  7 36  1  0
 16 37  1  0
 16 38  1  0
 18 39  1  0
 20 40  1  0
 21 41  1  0
 27 42  1  0
M  END
>  <UniqueID>  (48) 
48

>  <SMILES>  (48) 
CN(C)C(=O)OCC(=O)OC(=O)n1c(C(N)=O)cc2ccc(C(F)(F)F)cc21

>  <Energy>  (48) 
73.89633163054074

>  <Genealogy>  (48) 
CN(C)C(=O)OCC(=O)OC(=O)n1c(C(N)=O)cc2ccc(C(F)(F)F)cc21 (3D coordinates assigned)
CN(C)C(=O)OCC(=O)OC(=O)n1c(C(N)=O)cc2ccc(C(F)(F)F)cc21 (optimized conformer: 73.89633163054074 kcal/mol)

>  <smiles>  (48) 
CN(C)C(=O)OCC(=O)OC(=O)n1c(C(N)=O)cc2ccc(C(F)(F)F)cc21

>  <score_type>  (48) 
oracle

>  <origin>  (48) 
adg

>  <m_score__min__energy>  (48) 
-7.8300000000000001

>  <m_primary>  (48) 
energy

$$$$
48:0
     RDKit          3D

 43 44  0  0  0  0  0  0  0  0999 V2000
   -0.5590   27.1080  -26.9970 C   0  0  0  0  0  0  0  0  0  0  0  0
   -1.4130   25.9210  -26.8970 N   0  0  0  0  0  0  0  0  0  0  0  0
   -1.9400   25.4820  -25.6030 C   0  0  0  0  0  0  0  0  0  0  0  0
   -1.7290   25.1660  -28.0790 C   0  0  0  0  0  0  0  0  0  0  0  0
   -1.2830   25.5300  -29.2000 O   0  0  0  0  0  0  0  0  0  0  0  0
   -2.5540   24.0380  -27.9870 O   0  0  0  0  0  0  0  0  0  0  0  0
   -3.2920   23.5620  -29.0540 N   0  0  0  0  0  0  0  0  0  0  0  0
   -2.7350   23.0820  -30.2850 C   0  0  0  0  0  0  0  0  0  0  0  0
   -1.4830   22.9910  -30.3850 O   0  0  0  0  0  0  0  0  0  0  0  0
   -3.5770   22.7860  -31.4640 C   0  0  0  0  0  0  0  0  0  0  0  0
   -3.0540   22.3050  -32.5040 O   0  0  0  0  0  0  0  0  0  0  0  0
   -5.0050   22.9370  -31.4020 N   0  0  0  0  0  0  0  0  0  0  0  0
   -5.7270   23.9880  -30.9200 C   0  0  0  0  0  0  0  0  0  0  0  0
   -5.1770   25.2740  -30.4450 C   0  0  0  0  0  0  0  0  0  0  0  0
   -3.8630   25.6700  -30.8320 N   0  0  0  0  0  0  0  0  0  0  0  0
   -5.8430   26.0160  -29.6780 O   0  0  0  0  0  0  0  0  0  0  0  0
   -7.0930   23.7190  -31.0020 C   0  0  0  0  0  0  0  0  0  0  0  0
   -7.1840   22.4650  -31.5620 C   0  0  0  0  0  0  0  0  0  0  0  0
   -8.3030   21.7010  -31.8680 C   0  0  0  0  0  0  0  0  0  0  0  0
   -8.1010   20.4290  -32.4290 C   0  0  0  0  0  0  0  0  0  0  0  0
   -6.7890   19.9320  -32.6710 C   0  0  0  0  0  0  0  0  0  0  0  0
   -6.5900   18.6120  -33.2440 N   0  0  0  0  0  0  0  0  0  0  0  0
   -7.2340   17.4350  -32.6490 C   0  0  0  0  0  0  0  0  0  0  0  0
   -5.7410   18.4330  -34.4300 C   0  0  0  0  0  0  0  0  0  0  0  0
   -5.6780   20.7510  -32.3410 C   0  0  0  0  0  0  0  0  0  0  0  0
   -5.9130   22.0170  -31.7960 C   0  0  0  0  0  0  0  0  0  0  0  0
   -0.3040   27.4624  -25.9873 H   0  0  0  0  0  0  0  0  0  0  0  0
    0.3630   26.8517  -27.5394 H   0  0  0  0  0  0  0  0  0  0  0  0
   -1.0951   27.9008  -27.5394 H   0  0  0  0  0  0  0  0  0  0  0  0
   -1.3679   25.9586  -24.7933 H   0  0  0  0  0  0  0  0  0  0  0  0
   -2.9988   25.7689  -25.5219 H   0  0  0  0  0  0  0  0  0  0  0  0
   -1.8491   24.3888  -25.5219 H   0  0  0  0  0  0  0  0  0  0  0  0
   -3.0220   25.2890  -30.3440 H   0  0  0  0  0  0  0  0  0  0  0  0
   -7.9213   24.3703  -30.6863 H   0  0  0  0  0  0  0  0  0  0  0  0
   -9.3175   22.0808  -31.6767 H   0  0  0  0  0  0  0  0  0  0  0  0
   -8.9710   19.8067  -32.6856 H   0  0  0  0  0  0  0  0  0  0  0  0
   -7.1931   17.5098  -31.5523 H   0  0  0  0  0  0  0  0  0  0  0  0
   -8.2837   17.3876  -32.9744 H   0  0  0  0  0  0  0  0  0  0  0  0
   -6.7079   16.5254  -32.9744 H   0  0  0  0  0  0  0  0  0  0  0  0
   -4.7102   18.2157  -34.1136 H   0  0  0  0  0  0  0  0  0  0  0  0
   -6.1239   17.5958  -35.0321 H   0  0  0  0  0  0  0  0  0  0  0  0
   -5.7534   19.3535  -35.0321 H   0  0  0  0  0  0  0  0  0  0  0  0
   -4.6507   20.3963  -32.5109 H   0  0  0  0  0  0  0  0  0  0  0  0
  1  2  1  0
  2  3  1  0
  2  4  1  0
  4  5  2  0
  4  6  1  0
  6  7  1  0
  7  8  1  0
  8  9  2  0
  8 10  1  0
 10 11  2  0
 10 12  1  0
 12 13  1  0
 13 14  1  0
 14 15  1  0
 14 16  2  0
 13 17  2  0
 17 18  1  0
 18 19  2  0
 19 20  1  0
 20 21  2  0
 21 22  1  0
 22 23  1  0
 22 24  1  0
 21 25  1  0
 25 26  2  0
 26 12  1  0
 26 18  1  0
  1 27  1  0
  1 28  1  0
  1 29  1  0
  3 30  1  0
  3 31  1  0
  3 32  1  0
 15 33  1  0
 17 34  1  0
 19 35  1  0
 20 36  1  0
 23 37  1  0
 23 38  1  0
 23 39  1  0
 24 40  1  0
 24 41  1  0
 24 42  1  0
 25 43  1  0
M  CHG  2   7  -1  15  -1
M  END
>  <UniqueID>  (49) 
49

>  <SMILES>  (49) 
CN(C)C(=O)O[N-]C(=O)C(=O)n1c(C([NH-])=O)cc2ccc(N(C)C)cc21

>  <Energy>  (49) 
87.0276476788432

>  <Genealogy>  (49) 
CN(C)C(=O)O[N-]C(=O)C(=O)n1c(C([NH-])=O)cc2ccc(N(C)C)cc21 (protonated)
CN(C)C(=O)O[N-]C(=O)C(=O)n1c(C([NH-])=O)cc2ccc(N(C)C)cc21 (3D coordinates assigned)
CN(C)C(=O)O[N-]C(=O)C(=O)n1c(C([NH-])=O)cc2ccc(N(C)C)cc21 (optimized conformer: 87.0276476788432 kcal/mol)

>  <smiles>  (49) 
CN(C)C(=O)ONC(=O)C(=O)n1c(C(N)=O)cc2ccc(N(C)C)cc21

>  <score_type>  (49) 
oracle

>  <origin>  (49) 
adg

>  <m_score__min__energy>  (49) 
-11.779999999999999

>  <m_primary>  (49) 
energy

$$$$
49:0
     RDKit          3D

 44 45  0  0  0  0  0  0  0  0999 V2000
   -0.6390   22.2750  -28.9930 C   0  0  0  0  0  0  0  0  0  0  0  0
   -1.9120   22.8970  -28.6160 N   0  0  0  0  0  0  0  0  0  0  0  0
   -1.9240   24.1980  -27.9320 C   0  0  0  0  0  0  0  0  0  0  0  0
   -2.1230   25.3030  -28.9210 C   0  0  0  0  0  0  0  0  0  0  0  0
   -3.1110   25.2820  -29.7010 O   0  0  0  0  0  0  0  0  0  0  0  0
   -1.2290   26.3660  -28.9710 O   0  0  0  0  0  0  0  0  0  0  0  0
   -3.1420   22.2660  -29.0260 C   0  0  0  0  0  0  0  0  0  0  0  0
   -4.1580   22.3370  -28.2810 O   0  0  0  0  0  0  0  0  0  0  0  0
   -3.2370   21.5530  -30.2710 N   0  0  0  0  0  0  0  0  0  0  0  0
   -2.3450   20.4060  -30.4960 C   0  0  0  0  0  0  0  0  0  0  0  0
   -1.6490   20.4960  -31.8210 C   0  0  0  0  0  0  0  0  0  0  0  0
   -2.1550   19.9540  -32.8390 O   0  0  0  0  0  0  0  0  0  0  0  0
   -0.4510   21.1890  -31.9380 O   0  0  0  0  0  0  0  0  0  0  0  0
   -3.9510   22.1750  -31.3590 C   0  0  0  0  0  0  0  0  0  0  0  0
   -3.3110   22.6790  -32.3220 O   0  0  0  0  0  0  0  0  0  0  0  0
   -5.3870   22.2270  -31.3710 N   0  0  0  0  0  0  0  0  0  0  0  0
   -6.1820   23.2780  -31.0260 C   0  0  0  0  0  0  0  0  0  0  0  0
   -5.7020   24.5630  -30.4640 C   0  0  0  0  0  0  0  0  0  0  0  0
   -5.4410   24.7040  -29.0670 N   0  0  0  0  0  0  0  0  0  0  0  0
   -5.5070   25.5490  -31.2220 O   0  0  0  0  0  0  0  0  0  0  0  0
   -7.5240   22.9550  -31.2370 C   0  0  0  0  0  0  0  0  0  0  0  0
   -7.5170   21.6730  -31.7380 C   0  0  0  0  0  0  0  0  0  0  0  0
   -8.5730   20.8680  -32.1560 C   0  0  0  0  0  0  0  0  0  0  0  0
   -8.2660   19.5970  -32.6740 C   0  0  0  0  0  0  0  0  0  0  0  0
   -6.9210   19.1510  -32.7570 C   0  0  0  0  0  0  0  0  0  0  0  0
   -6.6020   17.8110  -33.3680 C   0  0  0  0  0  0  0  0  0  0  0  0
   -5.4130   17.3420  -32.8430 F   0  0  0  0  0  0  0  0  0  0  0  0
   -7.6060   16.8980  -33.0970 F   0  0  0  0  0  0  0  0  0  0  0  0
   -6.4770   17.9180  -34.7430 F   0  0  0  0  0  0  0  0  0  0  0  0
   -5.8770   20.0120  -32.3460 C   0  0  0  0  0  0  0  0  0  0  0  0
   -6.2140   21.2600  -31.8160 C   0  0  0  0  0  0  0  0  0  0  0  0
   -0.0810   22.0024  -28.0851 H   0  0  0  0  0  0  0  0  0  0  0  0
   -0.8347   21.3710  -29.5884 H   0  0  0  0  0  0  0  0  0  0  0  0
   -0.0461   22.9849  -29.5884 H   0  0  0  0  0  0  0  0  0  0  0  0
   -2.7440   24.2150  -27.1990 H   0  0  0  0  0  0  0  0  0  0  0  0
   -0.9600   24.3432  -27.4225 H   0  0  0  0  0  0  0  0  0  0  0  0
   -1.5891   20.3803  -29.6973 H   0  0  0  0  0  0  0  0  0  0  0  0
   -2.9554   19.4909  -30.4909 H   0  0  0  0  0  0  0  0  0  0  0  0
   -5.6470   23.9390  -28.3890 H   0  0  0  0  0  0  0  0  0  0  0  0
   -5.0710   25.6080  -28.6940 H   0  0  0  0  0  0  0  0  0  0  0  0
   -8.4009   23.5904  -31.0438 H   0  0  0  0  0  0  0  0  0  0  0  0
   -9.6143   21.2149  -32.0835 H   0  0  0  0  0  0  0  0  0  0  0  0
   -9.0783   18.9404  -33.0191 H   0  0  0  0  0  0  0  0  0  0  0  0
   -4.8246   19.7063  -32.4414 H   0  0  0  0  0  0  0  0  0  0  0  0
  1  2  1  0
  2  3  1  0
  3  4  1  0
  4  5  2  0
  4  6  1  0
  2  7  1  0
  7  8  2  0
  7  9  1  0
  9 10  1  0
 10 11  1  0
 11 12  2  0
 11 13  1  0
  9 14  1  0
 14 15  2  0
 14 16  1  0
 16 17  1  0
 17 18  1  0
 18 19  1  0
 18 20  2  0
 17 21  2  0
 21 22  1  0
 22 23  2  0
 23 24  1  0
 24 25  2  0
 25 26  1  0
 26 27  1  0
 26 28  1  0
 26 29  1  0
 25 30  1  0
 30 31  2  0
 31 16  1  0
 31 22  1  0
  1 32  1  0
  1 33  1  0
  1 34  1  0
  3 35  1  0
  3 36  1  0
 10 37  1  0
 10 38  1  0
 19 39  1  0
 19 40  1  0
 21 41  1  0
 23 42  1  0
 24 43  1  0
 30 44  1  0
M  CHG  2   6  -1  13  -1
M  END
>  <UniqueID>  (50) 
50

>  <SMILES>  (50) 
CN(CC(=O)[O-])C(=O)N(CC(=O)[O-])C(=O)n1c(C(N)=O)cc2ccc(C(F)(F)F)cc21

>  <Energy>  (50) 
85.92661809242124

>  <Genealogy>  (50) 
CN(CC(=O)[O-])C(=O)N(CC(=O)[O-])C(=O)n1c(C(N)=O)cc2ccc(C(F)(F)F)cc21 (protonated)
CN(CC(=O)[O-])C(=O)N(CC(=O)[O-])C(=O)n1c(C(N)=O)cc2ccc(C(F)(F)F)cc21 (3D coordinates assigned)
CN(CC(=O)[O-])C(=O)N(CC(=O)[O-])C(=O)n1c(C(N)=O)cc2ccc(C(F)(F)F)cc21 (optimized conformer: 85.92661809242124 kcal/mol)

>  <smiles>  (50) 
CN(CC(=O)O)C(=O)N(CC(=O)O)C(=O)n1c(C(N)=O)cc2ccc(C(F)(F)F)cc21

>  <score_type>  (50) 
oracle

>  <origin>  (50) 
adg

>  <m_score__min__energy>  (50) 
-11.199999999999999

>  <m_primary>  (50) 
energy

$$$$
50:0
     RDKit          3D

 46 47  0  0  0  0  0  0  0  0999 V2000
   -0.0880   26.6590  -27.0360 C   0  0  0  0  0  0  0  0  0  0  0  0
   -1.2870   25.8160  -26.9640 N   0  0  0  0  0  0  0  0  0  0  0  0
   -2.0880   25.7910  -25.7340 C   0  0  0  0  0  0  0  0  0  0  0  0
   -1.7100   25.1210  -28.1590 C   0  0  0  0  0  0  0  0  0  0  0  0
   -1.4600   25.6450  -29.2800 O   0  0  0  0  0  0  0  0  0  0  0  0
   -2.3670   23.7430  -28.1050 C   0  0  0  0  0  0  0  0  0  0  0  0
   -3.8430   23.9190  -27.6970 C   0  0  0  0  0  0  0  0  0  0  0  0
   -1.6540   22.8410  -27.0720 C   0  0  0  0  0  0  0  0  0  0  0  0
   -2.2630   23.1250  -29.4310 N   0  0  0  0  0  0  0  0  0  0  0  0
   -3.1780   22.1990  -30.0330 C   0  0  0  0  0  0  0  0  0  0  0  0
   -3.3740   21.0630  -29.5250 O   0  0  0  0  0  0  0  0  0  0  0  0
   -3.8930   22.5840  -31.2590 C   0  0  0  0  0  0  0  0  0  0  0  0
   -3.2590   22.6840  -32.3440 O   0  0  0  0  0  0  0  0  0  0  0  0
   -5.3020   22.8570  -31.2310 N   0  0  0  0  0  0  0  0  0  0  0  0
   -5.9180   24.0200  -30.8780 C   0  0  0  0  0  0  0  0  0  0  0  0
   -5.2370   25.2890  -30.5420 C   0  0  0  0  0  0  0  0  0  0  0  0
   -3.8630   25.4670  -30.8750 N   0  0  0  0  0  0  0  0  0  0  0  0
   -5.8530   26.2120  -29.9450 O   0  0  0  0  0  0  0  0  0  0  0  0
   -7.3030   23.8710  -30.9220 C   0  0  0  0  0  0  0  0  0  0  0  0
   -7.5170   22.5680  -31.3140 C   0  0  0  0  0  0  0  0  0  0  0  0
   -8.7070   21.8690  -31.4920 C   0  0  0  0  0  0  0  0  0  0  0  0
   -8.6280   20.5160  -31.8630 C   0  0  0  0  0  0  0  0  0  0  0  0
   -7.3700   19.8890  -32.0580 C   0  0  0  0  0  0  0  0  0  0  0  0
   -7.2970   18.4220  -32.3980 C   0  0  0  0  0  0  0  0  0  0  0  0
   -8.5470   17.8360  -32.3020 F   0  0  0  0  0  0  0  0  0  0  0  0
   -6.8320   18.2420  -33.6900 F   0  0  0  0  0  0  0  0  0  0  0  0
   -6.4350   17.7940  -31.5170 F   0  0  0  0  0  0  0  0  0  0  0  0
   -6.1830   20.6280  -31.8400 C   0  0  0  0  0  0  0  0  0  0  0  0
   -6.2950   21.9780  -31.4900 C   0  0  0  0  0  0  0  0  0  0  0  0
    0.2532   26.8989  -26.0181 H   0  0  0  0  0  0  0  0  0  0  0  0
    0.7074   26.1203  -27.5719 H   0  0  0  0  0  0  0  0  0  0  0  0
   -0.3258   27.5897  -27.5719 H   0  0  0  0  0  0  0  0  0  0  0  0
   -1.4196   25.8119  -24.8606 H   0  0  0  0  0  0  0  0  0  0  0  0
   -2.7503   26.6689  -25.7099 H   0  0  0  0  0  0  0  0  0  0  0  0
   -2.6943   24.8735  -25.7099 H   0  0  0  0  0  0  0  0  0  0  0  0
   -3.9215   23.9284  -26.5998 H   0  0  0  0  0  0  0  0  0  0  0  0
   -4.2240   24.8689  -28.1000 H   0  0  0  0  0  0  0  0  0  0  0  0
   -4.4367   23.0853  -28.1000 H   0  0  0  0  0  0  0  0  0  0  0  0
   -1.9147   23.1708  -26.0555 H   0  0  0  0  0  0  0  0  0  0  0  0
   -1.9745   21.7982  -27.2127 H   0  0  0  0  0  0  0  0  0  0  0  0
   -0.5654   22.9121  -27.2127 H   0  0  0  0  0  0  0  0  0  0  0  0
   -3.1250   24.8650  -30.4500 H   0  0  0  0  0  0  0  0  0  0  0  0
   -8.0634   24.6320  -30.6925 H   0  0  0  0  0  0  0  0  0  0  0  0
   -9.6802   22.3608  -31.3467 H   0  0  0  0  0  0  0  0  0  0  0  0
   -9.5521   19.9361  -32.0039 H   0  0  0  0  0  0  0  0  0  0  0  0
   -5.1964   20.1527  -31.9432 H   0  0  0  0  0  0  0  0  0  0  0  0
  1  2  1  0
  2  3  1  0
  2  4  1  0
  4  5  2  0
  4  6  1  0
  6  7  1  0
  6  8  1  0
  6  9  1  0
  9 10  1  0
 10 11  2  0
 10 12  1  0
 12 13  2  0
 12 14  1  0
 14 15  1  0
 15 16  1  0
 16 17  1  0
 16 18  2  0
 15 19  2  0
 19 20  1  0
 20 21  2  0
 21 22  1  0
 22 23  2  0
 23 24  1  0
 24 25  1  0
 24 26  1  0
 24 27  1  0
 23 28  1  0
 28 29  2  0
 29 14  1  0
 29 20  1  0
  1 30  1  0
  1 31  1  0
  1 32  1  0
  3 33  1  0
  3 34  1  0
  3 35  1  0
  7 36  1  0
  7 37  1  0
  7 38  1  0
  8 39  1  0
  8 40  1  0
  8 41  1  0
 17 42  1  0
 19 43  1  0
 21 44  1  0
 22 45  1  0
 28 46  1  0
M  CHG  2   9  -1  17  -1
M  END
>  <UniqueID>  (51) 
51

>  <SMILES>  (51) 
CN(C)C(=O)C(C)(C)[N-]C(=O)C(=O)n1c(C([NH-])=O)cc2ccc(C(F)(F)F)cc21

>  <Energy>  (51) 
83.90016934462484

>  <Genealogy>  (51) 
CN(C)C(=O)C(C)(C)[N-]C(=O)C(=O)n1c(C([NH-])=O)cc2ccc(C(F)(F)F)cc21 (protonated)
CN(C)C(=O)C(C)(C)[N-]C(=O)C(=O)n1c(C([NH-])=O)cc2ccc(C(F)(F)F)cc21 (3D coordinates assigned)
CN(C)C(=O)C(C)(C)[N-]C(=O)C(=O)n1c(C([NH-])=O)cc2ccc(C(F)(F)F)cc21 (optimized conformer: 83.90016934462484 kcal/mol)

>  <smiles>  (51) 
CN(C)C(=O)C(C)(C)NC(=O)C(=O)n1c(C(N)=O)cc2ccc(C(F)(F)F)cc21

>  <score_type>  (51) 
oracle

>  <origin>  (51) 
adg

>  <m_score__min__energy>  (51) 
-11.74

>  <m_primary>  (51) 
energy

$$$$
51:0
     RDKit          3D

 28 29  0  0  0  0  0  0  0  0999 V2000
   -3.6240   22.4260  -28.9570 C   0  0  0  0  0  0  0  0  0  0  0  0
   -3.1420   22.3140  -30.1920 C   0  0  0  0  0  0  0  0  0  0  0  0
   -3.9870   22.4440  -31.3950 C   0  0  0  0  0  0  0  0  0  0  0  0
   -3.4600   22.2990  -32.5300 O   0  0  0  0  0  0  0  0  0  0  0  0
   -5.3930   22.7230  -31.3000 N   0  0  0  0  0  0  0  0  0  0  0  0
   -5.9880   23.9090  -30.9920 C   0  0  0  0  0  0  0  0  0  0  0  0
   -5.2900   25.1410  -30.5650 C   0  0  0  0  0  0  0  0  0  0  0  0
   -3.8810   25.2820  -30.7230 N   0  0  0  0  0  0  0  0  0  0  0  0
   -5.9460   26.0760  -30.0320 O   0  0  0  0  0  0  0  0  0  0  0  0
   -7.3740   23.7980  -31.0920 C   0  0  0  0  0  0  0  0  0  0  0  0
   -7.6090   22.4980  -31.4800 C   0  0  0  0  0  0  0  0  0  0  0  0
   -8.8090   21.8430  -31.7450 C   0  0  0  0  0  0  0  0  0  0  0  0
   -8.7490   20.5000  -32.1570 C   0  0  0  0  0  0  0  0  0  0  0  0
   -7.5000   19.8440  -32.3010 C   0  0  0  0  0  0  0  0  0  0  0  0
   -7.4380   18.4120  -32.7490 C   0  0  0  0  0  0  0  0  0  0  0  0
   -7.0020   17.6140  -31.7080 F   0  0  0  0  0  0  0  0  0  0  0  0
   -6.5610   18.2950  -33.8130 F   0  0  0  0  0  0  0  0  0  0  0  0
   -6.3030   20.5430  -32.0250 C   0  0  0  0  0  0  0  0  0  0  0  0
   -6.3970   21.8730  -31.6040 C   0  0  0  0  0  0  0  0  0  0  0  0
   -2.9519   22.3208  -28.0926 H   0  0  0  0  0  0  0  0  0  0  0  0
   -4.6947   22.6238  -28.8003 H   0  0  0  0  0  0  0  0  0  0  0  0
   -2.0678   22.1160  -30.3220 H   0  0  0  0  0  0  0  0  0  0  0  0
   -3.4800   26.0430  -31.3140 H   0  0  0  0  0  0  0  0  0  0  0  0
   -8.1212   24.5824  -30.9014 H   0  0  0  0  0  0  0  0  0  0  0  0
   -9.7737   22.3601  -31.6354 H   0  0  0  0  0  0  0  0  0  0  0  0
   -9.6795   19.9531  -32.3696 H   0  0  0  0  0  0  0  0  0  0  0  0
   -8.4421   18.0894  -33.0615 H   0  0  0  0  0  0  0  0  0  0  0  0
   -5.3242   20.0540  -32.1383 H   0  0  0  0  0  0  0  0  0  0  0  0
  1  2  2  0
  2  3  1  0
  3  4  2  0
  3  5  1  0
  5  6  1  0
  6  7  1  0
  7  8  1  0
  7  9  2  0
  6 10  2  0
 10 11  1  0
 11 12  2  0
 12 13  1  0
 13 14  2  0
 14 15  1  0
 15 16  1  0
 15 17  1  0
 14 18  1  0
 18 19  2  0
 19  5  1  0
 19 11  1  0
  1 20  1  0
  1 21  1  0
  2 22  1  0
  8 23  1  0
 10 24  1  0
 12 25  1  0
 13 26  1  0
 15 27  1  0
 18 28  1  0
M  CHG  1   8  -1
M  END
>  <UniqueID>  (52) 
52

>  <SMILES>  (52) 
C=CC(=O)n1c(C([NH-])=O)cc2ccc(C(F)F)cc21

>  <Energy>  (52) 
66.60076030466598

>  <Genealogy>  (52) 
C=CC(=O)n1c(C([NH-])=O)cc2ccc(C(F)F)cc21 (protonated)
C=CC(=O)n1c(C([NH-])=O)cc2ccc(C(F)F)cc21 (3D coordinates assigned)
C=CC(=O)n1c(C([NH-])=O)cc2ccc(C(F)F)cc21 (optimized conformer: 66.60076030466598 kcal/mol)

>  <smiles>  (52) 
C=CC(=O)n1c(C(N)=O)cc2ccc(C(F)F)cc21

>  <score_type>  (52) 
oracle

>  <origin>  (52) 
adg

>  <m_score__min__energy>  (52) 
-9.5700000000000003

>  <m_primary>  (52) 
energy

$$$$
52:0
     RDKit          3D

 38 39  0  0  0  0  0  0  0  0999 V2000
   -3.6420   24.5350  -27.5290 C   0  0  0  0  0  0  0  0  0  0  0  0
   -2.2980   24.5270  -28.1930 C   0  0  0  0  0  0  0  0  0  0  0  0
   -1.9840   25.4450  -28.9370 O   0  0  0  0  0  0  0  0  0  0  0  0
   -1.3290   23.4100  -27.9390 C   0  0  0  0  0  0  0  0  0  0  0  0
   -1.1150   22.6240  -29.1920 C   0  0  0  0  0  0  0  0  0  0  0  0
   -0.1350   22.8930  -29.9380 O   0  0  0  0  0  0  0  0  0  0  0  0
   -2.0420   21.5930  -29.5500 N   0  0  0  0  0  0  0  0  0  0  0  0
   -3.4900   21.7670  -29.5310 C   0  0  0  0  0  0  0  0  0  0  0  0
   -3.9250   22.6040  -30.6990 C   0  0  0  0  0  0  0  0  0  0  0  0
   -3.0610   23.0550  -31.4980 O   0  0  0  0  0  0  0  0  0  0  0  0
   -5.3170   22.8480  -30.9450 N   0  0  0  0  0  0  0  0  0  0  0  0
   -5.9800   24.0350  -30.8440 C   0  0  0  0  0  0  0  0  0  0  0  0
   -5.3840   25.3250  -30.4400 C   0  0  0  0  0  0  0  0  0  0  0  0
   -4.0700   25.6670  -30.8740 N   0  0  0  0  0  0  0  0  0  0  0  0
   -6.0200   26.1310  -29.7110 O   0  0  0  0  0  0  0  0  0  0  0  0
   -7.3110   23.8820  -31.2300 C   0  0  0  0  0  0  0  0  0  0  0  0
   -7.4440   22.5530  -31.5640 C   0  0  0  0  0  0  0  0  0  0  0  0
   -8.5520   21.8510  -32.0280 C   0  0  0  0  0  0  0  0  0  0  0  0
   -8.3990   20.4790  -32.2920 C   0  0  0  0  0  0  0  0  0  0  0  0
   -7.1560   19.8290  -32.0680 C   0  0  0  0  0  0  0  0  0  0  0  0
   -6.9920   18.3660  -32.3940 C   0  0  0  0  0  0  0  0  0  0  0  0
   -6.4960   18.2020  -33.6760 F   0  0  0  0  0  0  0  0  0  0  0  0
   -8.2080   17.7100  -32.3130 F   0  0  0  0  0  0  0  0  0  0  0  0
   -6.1110   17.7970  -31.4940 F   0  0  0  0  0  0  0  0  0  0  0  0
   -6.0490   20.5840  -31.6170 C   0  0  0  0  0  0  0  0  0  0  0  0
   -6.2270   21.9500  -31.3790 C   0  0  0  0  0  0  0  0  0  0  0  0
   -3.5114   24.5342  -26.4368 H   0  0  0  0  0  0  0  0  0  0  0  0
   -4.1951   25.4365  -27.8315 H   0  0  0  0  0  0  0  0  0  0  0  0
   -4.2058   23.6402  -27.8315 H   0  0  0  0  0  0  0  0  0  0  0  0
   -0.3690   23.8297  -27.6039 H   0  0  0  0  0  0  0  0  0  0  0  0
   -1.7378   22.7470  -27.1623 H   0  0  0  0  0  0  0  0  0  0  0  0
   -3.9755   20.7816  -29.5888 H   0  0  0  0  0  0  0  0  0  0  0  0
   -3.7794   22.2730  -28.5982 H   0  0  0  0  0  0  0  0  0  0  0  0
   -3.2530   25.0600  -30.6420 H   0  0  0  0  0  0  0  0  0  0  0  0
   -8.0896   24.6584  -31.2611 H   0  0  0  0  0  0  0  0  0  0  0  0
   -9.5178   22.3541  -32.1834 H   0  0  0  0  0  0  0  0  0  0  0  0
   -9.2524   19.9014  -32.6768 H   0  0  0  0  0  0  0  0  0  0  0  0
   -5.0705   20.1077  -31.4571 H   0  0  0  0  0  0  0  0  0  0  0  0
  1  2  1  0
  2  3  2  0
  2  4  1  0
  4  5  1  0
  5  6  2  0
  5  7  1  0
  7  8  1  0
  8  9  1  0
  9 10  2  0
  9 11  1  0
 11 12  1  0
 12 13  1  0
 13 14  1  0
 13 15  2  0
 12 16  2  0
 16 17  1  0
 17 18  2  0
 18 19  1  0
 19 20  2  0
 20 21  1  0
 21 22  1  0
 21 23  1  0
 21 24  1  0
 20 25  1  0
 25 26  2  0
 26 11  1  0
 26 17  1  0
  1 27  1  0
  1 28  1  0
  1 29  1  0
  4 30  1  0
  4 31  1  0
  8 32  1  0
  8 33  1  0
 14 34  1  0
 16 35  1  0
 18 36  1  0
 19 37  1  0
 25 38  1  0
M  CHG  2   7  -1  14  -1
M  END
>  <UniqueID>  (53) 
53

>  <SMILES>  (53) 
CC(=O)CC(=O)[N-]CC(=O)n1c(C([NH-])=O)cc2ccc(C(F)(F)F)cc21

>  <Energy>  (53) 
69.3602993557277

>  <Genealogy>  (53) 
CC(=O)CC(=O)[N-]CC(=O)n1c(C([NH-])=O)cc2ccc(C(F)(F)F)cc21 (protonated)
CC(=O)CC(=O)[N-]CC(=O)n1c(C([NH-])=O)cc2ccc(C(F)(F)F)cc21 (3D coordinates assigned)
CC(=O)CC(=O)[N-]CC(=O)n1c(C([NH-])=O)cc2ccc(C(F)(F)F)cc21 (optimized conformer: 69.3602993557277 kcal/mol)

>  <smiles>  (53) 
CC(=O)CC(=O)NCC(=O)n1c(C(N)=O)cc2ccc(C(F)(F)F)cc21

>  <score_type>  (53) 
oracle

>  <origin>  (53) 
adg

>  <m_score__min__energy>  (53) 
-11.52

>  <m_primary>  (53) 
energy

$$$$
53:0
     RDKit          3D

 61 64  0  0  0  0  0  0  0  0999 V2000
    3.7570   24.5930  -23.5940 C   0  0  0  0  0  0  0  0  0  0  0  0
    2.7930   24.5890  -24.6230 O   0  0  0  0  0  0  0  0  0  0  0  0
    3.3640   25.0370  -25.8380 C   0  0  0  0  0  0  0  0  0  0  0  0
    3.1410   26.5390  -26.0130 C   0  0  0  0  0  0  0  0  0  0  0  0
    1.9160   26.7950  -26.6950 O   0  0  0  0  0  0  0  0  0  0  0  0
    0.9630   25.8060  -26.9780 C   0  0  0  0  0  0  0  0  0  0  0  0
    1.2110   24.9430  -27.8660 O   0  0  0  0  0  0  0  0  0  0  0  0
   -0.3130   25.8130  -26.2980 N   0  0  0  0  0  0  0  0  0  0  0  0
   -0.6010   26.4130  -25.1070 C   0  0  0  0  0  0  0  0  0  0  0  0
    0.3750   26.9860  -24.1690 C   0  0  0  0  0  0  0  0  0  0  0  0
    1.1840   26.1360  -23.3580 N   0  0  0  0  0  0  0  0  0  0  0  0
    0.4500   28.2320  -24.0310 O   0  0  0  0  0  0  0  0  0  0  0  0
   -1.9610   26.3600  -24.8320 C   0  0  0  0  0  0  0  0  0  0  0  0
   -2.5140   25.6720  -25.8820 C   0  0  0  0  0  0  0  0  0  0  0  0
   -3.8360   25.2960  -26.0970 C   0  0  0  0  0  0  0  0  0  0  0  0
   -4.1320   24.5450  -27.2440 C   0  0  0  0  0  0  0  0  0  0  0  0
   -3.1080   24.1770  -28.1520 C   0  0  0  0  0  0  0  0  0  0  0  0
   -3.4230   23.3240  -29.3260 C   0  0  0  0  0  0  0  0  0  0  0  0
   -3.9650   23.8750  -30.4940 C   0  0  0  0  0  0  0  0  0  0  0  0
   -4.2680   23.0750  -31.5470 N   0  0  0  0  0  0  0  0  0  0  0  0
   -4.0570   21.7380  -31.5060 C   0  0  0  0  0  0  0  0  0  0  0  0
   -4.3920   20.8970  -32.6190 N   0  0  0  0  0  0  0  0  0  0  0  0
   -5.7160   20.7380  -33.2420 C   0  0  0  0  0  0  0  0  0  0  0  0
   -6.8400   21.4420  -32.4430 C   0  0  0  0  0  0  0  0  0  0  0  0
   -7.7030   20.5070  -31.5920 C   0  0  0  0  0  0  0  0  0  0  0  0
   -8.1290   19.3380  -32.3780 N   0  0  0  0  0  0  0  0  0  0  0  0
   -9.0870   18.5350  -31.6000 C   0  0  0  0  0  0  0  0  0  0  0  0
   -6.9590   18.5160  -32.7250 C   0  0  0  0  0  0  0  0  0  0  0  0
   -6.0140   19.2780  -33.6620 C   0  0  0  0  0  0  0  0  0  0  0  0
   -3.5240   21.1810  -30.3860 N   0  0  0  0  0  0  0  0  0  0  0  0
   -3.2080   21.9380  -29.3030 C   0  0  0  0  0  0  0  0  0  0  0  0
   -1.7770   24.5920  -27.9070 C   0  0  0  0  0  0  0  0  0  0  0  0
   -1.5050   25.3470  -26.7550 C   0  0  0  0  0  0  0  0  0  0  0  0
    3.2508   24.5909  -22.6174 H   0  0  0  0  0  0  0  0  0  0  0  0
    4.3898   23.6975  -23.6809 H   0  0  0  0  0  0  0  0  0  0  0  0
    4.3824   25.4937  -23.6809 H   0  0  0  0  0  0  0  0  0  0  0  0
    4.4443   24.8302  -25.8281 H   0  0  0  0  0  0  0  0  0  0  0  0
    2.8838   24.5065  -26.6735 H   0  0  0  0  0  0  0  0  0  0  0  0
    3.1083   27.0161  -25.0224 H   0  0  0  0  0  0  0  0  0  0  0  0
    3.9683   26.9500  -26.6101 H   0  0  0  0  0  0  0  0  0  0  0  0
    1.8850   26.5440  -22.7050 H   0  0  0  0  0  0  0  0  0  0  0  0
    1.0650   25.1030  -23.3840 H   0  0  0  0  0  0  0  0  0  0  0  0
   -2.4829   26.7797  -23.9594 H   0  0  0  0  0  0  0  0  0  0  0  0
   -4.6271   25.5797  -25.3873 H   0  0  0  0  0  0  0  0  0  0  0  0
   -5.1699   24.2384  -27.4409 H   0  0  0  0  0  0  0  0  0  0  0  0
   -4.1453   24.9582  -30.5577 H   0  0  0  0  0  0  0  0  0  0  0  0
   -3.6140   20.3320  -33.0250 H   0  0  0  0  0  0  0  0  0  0  0  0
   -5.6890   21.2821  -34.1976 H   0  0  0  0  0  0  0  0  0  0  0  0
   -6.3738   22.1808  -31.7745 H   0  0  0  0  0  0  0  0  0  0  0  0
   -7.5128   21.8942  -33.1866 H   0  0  0  0  0  0  0  0  0  0  0  0
   -7.1194   20.1661  -30.7242 H   0  0  0  0  0  0  0  0  0  0  0  0
   -8.5965   21.0547  -31.2578 H   0  0  0  0  0  0  0  0  0  0  0  0
   -8.9056   18.6871  -30.5258 H   0  0  0  0  0  0  0  0  0  0  0  0
  -10.1125   18.8473  -31.8465 H   0  0  0  0  0  0  0  0  0  0  0  0
   -8.9586   17.4707  -31.8465 H   0  0  0  0  0  0  0  0  0  0  0  0
   -6.4180   18.2524  -31.8042 H   0  0  0  0  0  0  0  0  0  0  0  0
   -7.3072   17.6080  -33.2390 H   0  0  0  0  0  0  0  0  0  0  0  0
   -5.0596   18.7325  -33.7021 H   0  0  0  0  0  0  0  0  0  0  0  0
   -6.5244   19.3352  -34.6347 H   0  0  0  0  0  0  0  0  0  0  0  0
   -2.7828   21.4632  -28.4065 H   0  0  0  0  0  0  0  0  0  0  0  0
   -0.9703   24.3277  -28.6066 H   0  0  0  0  0  0  0  0  0  0  0  0
  1  2  1  0
  2  3  1  0
  3  4  1  0
  4  5  1  0
  5  6  1  0
  6  7  2  0
  6  8  1  0
  8  9  1  0
  9 10  1  0
 10 11  1  0
 10 12  2  0
  9 13  2  0
 13 14  1  0
 14 15  2  0
 15 16  1  0
 16 17  2  0
 17 18  1  0
 18 19  2  0
 19 20  1  0
 20 21  2  0
 21 22  1  0
 22 23  1  0
 23 24  1  0
 24 25  1  0
 25 26  1  0
 26 27  1  0
 26 28  1  0
 28 29  1  0
 21 30  1  0
 30 31  2  0
 17 32  1  0
 32 33  2  0
 33  8  1  0
 33 14  1  0
 31 18  1  0
 29 23  1  0
  1 34  1  0
  1 35  1  0
  1 36  1  0
  3 37  1  0
  3 38  1  0
  4 39  1  0
  4 40  1  0
 11 41  1  0
 11 42  1  0
 13 43  1  0
 15 44  1  0
 16 45  1  0
 19 46  1  0
 22 47  1  0
 23 48  1  0
 24 49  1  0
 24 50  1  0
 25 51  1  0
 25 52  1  0
 27 53  1  0
 27 54  1  0
 27 55  1  0
 28 56  1  0
 28 57  1  0
 29 58  1  0
 29 59  1  0
 31 60  1  0
 32 61  1  0
M  END
>  <UniqueID>  (54) 
54

>  <SMILES>  (54) 
COCCOC(=O)n1c(C(N)=O)cc2ccc(-c3cnc(NC4CCN(C)CC4)nc3)cc21

>  <Energy>  (54) 
114.87136250541693

>  <Genealogy>  (54) 
COCCOC(=O)n1c(C(N)=O)cc2ccc(-c3cnc(NC4CCN(C)CC4)nc3)cc21 (3D coordinates assigned)
COCCOC(=O)n1c(C(N)=O)cc2ccc(-c3cnc(NC4CCN(C)CC4)nc3)cc21 (nonaromatic ring conformer: 114.87136250541693 kcal/mol)

>  <smiles>  (54) 
COCCOC(=O)n1c(C(N)=O)cc2ccc(-c3cnc(NC4CCN(C)CC4)nc3)cc21

>  <score_type>  (54) 
oracle

>  <origin>  (54) 
adg

>  <m_score__min__energy>  (54) 
-9.8900000000000006

>  <m_primary>  (54) 
energy

$$$$
54:0
     RDKit          3D

 57 59  0  0  0  0  0  0  0  0999 V2000
   -7.2980   13.4290  -34.8810 C   0  0  0  0  0  0  0  0  0  0  0  0
   -5.9850   13.7120  -34.3220 N   0  0  0  0  0  0  0  0  0  0  0  0
   -5.7120   14.8820  -33.5440 C   0  0  0  0  0  0  0  0  0  0  0  0
   -4.9590   14.8040  -32.5360 O   0  0  0  0  0  0  0  0  0  0  0  0
   -6.2400   16.2350  -33.9730 C   0  0  1  0  0  0  0  0  0  0  0  0
   -6.5290   17.2070  -32.8290 C   0  0  0  0  0  0  0  0  0  0  0  0
   -6.3800   18.5060  -33.4510 N   0  0  0  0  0  0  0  0  0  0  0  0
   -6.6100   19.7690  -32.7860 C   0  0  0  0  0  0  0  0  0  0  0  0
   -7.9340   20.2440  -32.5840 C   0  0  0  0  0  0  0  0  0  0  0  0
   -8.1710   21.5050  -32.0110 C   0  0  0  0  0  0  0  0  0  0  0  0
   -7.0720   22.2690  -31.6390 C   0  0  0  0  0  0  0  0  0  0  0  0
   -7.0110   23.5400  -31.1060 C   0  0  0  0  0  0  0  0  0  0  0  0
   -5.6520   23.8120  -30.9630 C   0  0  0  0  0  0  0  0  0  0  0  0
   -5.1180   25.0600  -30.3770 C   0  0  0  0  0  0  0  0  0  0  0  0
   -3.8790   25.5930  -30.8440 N   0  0  0  0  0  0  0  0  0  0  0  0
   -5.7580   25.6770  -29.4850 O   0  0  0  0  0  0  0  0  0  0  0  0
   -4.9070   22.7520  -31.3900 N   0  0  0  0  0  0  0  0  0  0  0  0
   -3.4780   22.6480  -31.4440 C   0  0  0  0  0  0  0  0  0  0  0  0
   -2.7850   23.1180  -30.5010 O   0  0  0  0  0  0  0  0  0  0  0  0
   -2.8210   21.9710  -32.5690 C   0  0  0  0  0  0  0  0  0  0  0  0
   -3.4080   21.9070  -33.6810 O   0  0  0  0  0  0  0  0  0  0  0  0
   -1.5160   21.4020  -32.3880 N   0  0  0  0  0  0  0  0  0  0  0  0
   -0.9560   20.2080  -33.0350 C   0  0  0  0  0  0  0  0  0  0  0  0
   -2.1360   19.2880  -33.3960 C   0  0  0  0  0  0  0  0  0  0  0  0
   -0.0190   19.4420  -32.0800 C   0  0  0  0  0  0  0  0  0  0  0  0
   -0.2220   20.5970  -34.3380 C   0  0  0  0  0  0  0  0  0  0  0  0
   -0.4610   21.9380  -34.6760 O   0  0  0  0  0  0  0  0  0  0  0  0
   -5.7890   21.8170  -31.7970 C   0  0  0  0  0  0  0  0  0  0  0  0
   -5.5190   20.5700  -32.3670 C   0  0  0  0  0  0  0  0  0  0  0  0
   -5.8260   18.3670  -34.7910 C   0  0  0  0  0  0  0  0  0  0  0  0
   -5.3810   16.9680  -34.9330 N   0  0  0  0  0  0  0  0  0  0  0  0
   -3.9410   16.8820  -34.5980 C   0  0  0  0  0  0  0  0  0  0  0  0
   -8.0185   13.2737  -34.0644 H   0  0  0  0  0  0  0  0  0  0  0  0
   -7.6234   14.2776  -35.5006 H   0  0  0  0  0  0  0  0  0  0  0  0
   -7.2449   12.5217  -35.5006 H   0  0  0  0  0  0  0  0  0  0  0  0
   -7.1789   15.9340  -34.4607 H   0  0  0  0  0  0  0  0  0  0  0  0
   -7.5499   17.0694  -32.4433 H   0  0  0  0  0  0  0  0  0  0  0  0
   -5.8641   17.0646  -31.9644 H   0  0  0  0  0  0  0  0  0  0  0  0
   -8.7863   19.6150  -32.8807 H   0  0  0  0  0  0  0  0  0  0  0  0
   -9.1957   21.8759  -31.8615 H   0  0  0  0  0  0  0  0  0  0  0  0
   -7.8545   24.1977  -30.8490 H   0  0  0  0  0  0  0  0  0  0  0  0
   -2.9730   25.2860  -30.4310 H   0  0  0  0  0  0  0  0  0  0  0  0
   -2.6089   18.9193  -32.4738 H   0  0  0  0  0  0  0  0  0  0  0  0
   -2.8734   19.8519  -33.9861 H   0  0  0  0  0  0  0  0  0  0  0  0
   -1.7689   18.4353  -33.9861 H   0  0  0  0  0  0  0  0  0  0  0  0
   -0.2935   19.6664  -31.0387 H   0  0  0  0  0  0  0  0  0  0  0  0
   -0.1159   18.3612  -32.2599 H   0  0  0  0  0  0  0  0  0  0  0  0
    1.0210   19.7519  -32.2599 H   0  0  0  0  0  0  0  0  0  0  0  0
    0.8591   20.4497  -34.1981 H   0  0  0  0  0  0  0  0  0  0  0  0
   -0.5988   19.9608  -35.1524 H   0  0  0  0  0  0  0  0  0  0  0  0
   -1.4070   22.1210  -34.4450 H   0  0  0  0  0  0  0  0  0  0  0  0
   -4.4837   20.2185  -32.4876 H   0  0  0  0  0  0  0  0  0  0  0  0
   -6.5952   18.5965  -35.5431 H   0  0  0  0  0  0  0  0  0  0  0  0
   -4.9869   19.0621  -34.9419 H   0  0  0  0  0  0  0  0  0  0  0  0
   -3.8187   16.8747  -33.5048 H   0  0  0  0  0  0  0  0  0  0  0  0
   -3.5209   15.9572  -35.0202 H   0  0  0  0  0  0  0  0  0  0  0  0
   -3.4138   17.7503  -35.0202 H   0  0  0  0  0  0  0  0  0  0  0  0
  1  2  1  0
  2  3  1  0
  3  4  2  0
  3  5  1  0
  5  6  1  0
  6  7  1  0
  7  8  1  0
  8  9  2  0
  9 10  1  0
 10 11  2  0
 11 12  1  0
 12 13  2  0
 13 14  1  0
 14 15  1  0
 14 16  2  0
 13 17  1  0
 17 18  1  0
 18 19  2  0
 18 20  1  0
 20 21  2  0
 20 22  1  0
 22 23  1  0
 23 24  1  0
 23 25  1  0
 23 26  1  0
 26 27  1  0
 17 28  1  0
 28 29  2  0
  7 30  1  0
 30 31  1  0
 31 32  1  0
 31  5  1  0
 29  8  1  0
 28 11  1  0
  1 33  1  0
  1 34  1  0
  1 35  1  0
  5 36  1  6
  6 37  1  0
  6 38  1  0
  9 39  1  0
 10 40  1  0
 12 41  1  0
 15 42  1  0
 24 43  1  0
 24 44  1  0
 24 45  1  0
 25 46  1  0
 25 47  1  0
 25 48  1  0
 26 49  1  0
 26 50  1  0
 27 51  1  0
 29 52  1  0
 30 53  1  0
 30 54  1  0
 32 55  1  0
 32 56  1  0
 32 57  1  0
M  CHG  3   2  -1  15  -1  22  -1
M  END
>  <UniqueID>  (55) 
55

>  <SMILES>  (55) 
C[N-]C(=O)[C@H]1CN(c2ccc3cc(C([NH-])=O)n(C(=O)C(=O)[N-]C(C)(C)CO)c3c2)CN1C

>  <Energy>  (55) 
102.48421042856596

>  <Genealogy>  (55) 
C[N-]C(=O)[C@H]1CN(c2ccc3cc(C([NH-])=O)n(C(=O)C(=O)[N-]C(C)(C)CO)c3c2)CN1C (protonated)
C[N-]C(=O)[C@H]1CN(c2ccc3cc(C([NH-])=O)n(C(=O)C(=O)[N-]C(C)(C)CO)c3c2)CN1C (3D coordinates assigned)
C[N-]C(=O)[C@H]1CN(c2ccc3cc(C([NH-])=O)n(C(=O)C(=O)[N-]C(C)(C)CO)c3c2)CN1C (nonaromatic ring conformer: 102.48421042856596 kcal/mol)

>  <smiles>  (55) 
CNC(=O)[C@H]1CN(c2ccc3cc(C(N)=O)n(C(=O)C(=O)NC(C)(C)CO)c3c2)CN1C

>  <score_type>  (55) 
oracle

>  <origin>  (55) 
adg

>  <m_score__min__energy>  (55) 
-12.710000000000001

>  <m_primary>  (55) 
energy

$$$$
55:0
     RDKit          3D

 44 45  0  0  0  0  0  0  0  0999 V2000
   -6.7800   18.2850  -32.2740 C   0  0  0  0  0  0  0  0  0  0  0  0
   -6.9550   19.7510  -32.0120 C   0  0  0  0  0  0  0  0  0  0  0  0
   -8.2430   20.3350  -32.0940 C   0  0  0  0  0  0  0  0  0  0  0  0
   -8.4310   21.7000  -31.8140 C   0  0  0  0  0  0  0  0  0  0  0  0
   -7.3140   22.4510  -31.4580 C   0  0  0  0  0  0  0  0  0  0  0  0
   -7.2140   23.7800  -31.1120 C   0  0  0  0  0  0  0  0  0  0  0  0
   -5.8640   23.9870  -30.8260 C   0  0  0  0  0  0  0  0  0  0  0  0
   -5.2980   25.3010  -30.4540 C   0  0  0  0  0  0  0  0  0  0  0  0
   -3.9700   25.6620  -30.8270 N   0  0  0  0  0  0  0  0  0  0  0  0
   -6.0090   26.1310  -29.8280 O   0  0  0  0  0  0  0  0  0  0  0  0
   -5.1610   22.8320  -30.9900 N   0  0  0  0  0  0  0  0  0  0  0  0
   -3.7680   22.6050  -30.7260 C   0  0  0  0  0  0  0  0  0  0  0  0
   -2.9080   22.9530  -31.5810 O   0  0  0  0  0  0  0  0  0  0  0  0
   -3.3310   21.9860  -29.4690 C   0  0  0  0  0  0  0  0  0  0  0  0
   -3.1430   20.7400  -29.4170 O   0  0  0  0  0  0  0  0  0  0  0  0
   -3.1420   22.8060  -28.3060 N   0  0  0  0  0  0  0  0  0  0  0  0
   -1.9470   23.5860  -27.9380 C   0  0  2  0  0  0  0  0  0  0  0  0
   -1.4000   24.2910  -29.1740 C   0  0  0  0  0  0  0  0  0  0  0  0
   -0.8010   23.6480  -30.0770 O   0  0  0  0  0  0  0  0  0  0  0  0
   -1.5980   25.6580  -29.3440 O   0  0  0  0  0  0  0  0  0  0  0  0
   -0.8870   22.5660  -27.3790 C   0  0  0  0  0  0  0  0  0  0  0  0
    0.3230   23.2700  -26.7270 C   0  0  0  0  0  0  0  0  0  0  0  0
   -1.4530   21.5290  -26.3890 C   0  0  0  0  0  0  0  0  0  0  0  0
   -2.3760   24.6160  -26.8450 C   0  0  0  0  0  0  0  0  0  0  0  0
   -1.9290   24.2520  -25.5870 F   0  0  0  0  0  0  0  0  0  0  0  0
   -3.7570   24.7220  -26.8080 F   0  0  0  0  0  0  0  0  0  0  0  0
   -1.8580   25.8670  -27.1200 F   0  0  0  0  0  0  0  0  0  0  0  0
   -6.0620   21.9010  -31.3730 C   0  0  0  0  0  0  0  0  0  0  0  0
   -5.8500   20.5400  -31.6210 C   0  0  0  0  0  0  0  0  0  0  0  0
   -6.7157   17.7466  -31.3169 H   0  0  0  0  0  0  0  0  0  0  0  0
   -7.6398   17.9100  -32.8486 H   0  0  0  0  0  0  0  0  0  0  0  0
   -5.8561   18.1229  -32.8486 H   0  0  0  0  0  0  0  0  0  0  0  0
   -9.1050   19.7142  -32.3797 H   0  0  0  0  0  0  0  0  0  0  0  0
   -9.4285   22.1597  -31.8743 H   0  0  0  0  0  0  0  0  0  0  0  0
   -8.0258   24.5211  -31.0700 H   0  0  0  0  0  0  0  0  0  0  0  0
   -3.1770   24.9920  -30.7070 H   0  0  0  0  0  0  0  0  0  0  0  0
   -0.5614   22.0201  -28.2768 H   0  0  0  0  0  0  0  0  0  0  0  0
    0.2318   23.2170  -25.6321 H   0  0  0  0  0  0  0  0  0  0  0  0
    1.2512   22.7709  -27.0423 H   0  0  0  0  0  0  0  0  0  0  0  0
    0.3479   24.3236  -27.0423 H   0  0  0  0  0  0  0  0  0  0  0  0
   -1.2685   21.8670  -25.3586 H   0  0  0  0  0  0  0  0  0  0  0  0
   -2.5356   21.4203  -26.5509 H   0  0  0  0  0  0  0  0  0  0  0  0
   -0.9588   20.5597  -26.5509 H   0  0  0  0  0  0  0  0  0  0  0  0
   -4.8492   20.0961  -31.5143 H   0  0  0  0  0  0  0  0  0  0  0  0
  1  2  1  0
  2  3  2  0
  3  4  1  0
  4  5  2  0
  5  6  1  0
  6  7  2  0
  7  8  1  0
  8  9  1  0
  8 10  2  0
  7 11  1  0
 11 12  1  0
 12 13  2  0
 12 14  1  0
 14 15  2  0
 14 16  1  0
 17 16  1  6
 17 18  1  0
 18 19  2  0
 18 20  1  0
 17 21  1  0
 21 22  1  0
 21 23  1  0
 17 24  1  0
 24 25  1  0
 24 26  1  0
 24 27  1  0
 11 28  1  0
 28 29  2  0
 29  2  1  0
 28  5  1  0
  1 30  1  0
  1 31  1  0
  1 32  1  0
  3 33  1  0
  4 34  1  0
  6 35  1  0
  9 36  1  0
 21 37  1  0
 22 38  1  0
 22 39  1  0
 22 40  1  0
 23 41  1  0
 23 42  1  0
 23 43  1  0
 29 44  1  0
M  CHG  3   9  -1  16  -1  20  -1
M  END
>  <UniqueID>  (56) 
56

>  <SMILES>  (56) 
Cc1ccc2cc(C([NH-])=O)n(C(=O)C(=O)[N-][C@](C(=O)[O-])(C(C)C)C(F)(F)F)c2c1

>  <Energy>  (56) 
85.86746629967014

>  <Genealogy>  (56) 
Cc1ccc2cc(C([NH-])=O)n(C(=O)C(=O)[N-]C(C(=O)[O-])(C(C)C)C(F)(F)F)c2c1 (protonated)
Cc1ccc2cc(C([NH-])=O)n(C(=O)C(=O)[N-][C@](C(=O)[O-])(C(C)C)C(F)(F)F)c2c1 (chirality)
Cc1ccc2cc(C([NH-])=O)n(C(=O)C(=O)[N-][C@](C(=O)[O-])(C(C)C)C(F)(F)F)c2c1 (3D coordinates assigned)
Cc1ccc2cc(C([NH-])=O)n(C(=O)C(=O)[N-][C@](C(=O)[O-])(C(C)C)C(F)(F)F)c2c1 (optimized conformer: 85.86746629967014 kcal/mol)

>  <smiles>  (56) 
Cc1ccc2cc(C(N)=O)n(C(=O)C(=O)NC(C(=O)O)(C(C)C)C(F)(F)F)c2c1

>  <score_type>  (56) 
oracle

>  <origin>  (56) 
adg

>  <m_score__min__energy>  (56) 
-13.34

>  <m_primary>  (56) 
energy

$$$$
56:0
     RDKit          3D

 39 41  0  0  0  0  0  0  0  0999 V2000
   -9.0010   23.2560  -31.9580 N   0  0  0  0  0  0  0  0  0  0  0  0
   -8.6750   22.1470  -31.9790 C   0  0  0  0  0  0  0  0  0  0  0  0
   -8.2590   20.7330  -32.0040 C   0  0  0  0  0  0  0  0  0  0  0  0
   -6.7540   20.5650  -31.8990 C   0  0  0  0  0  0  0  0  0  0  0  0
   -6.1180   19.4350  -32.4800 C   0  0  0  0  0  0  0  0  0  0  0  0
   -4.7220   19.2930  -32.4350 C   0  0  0  0  0  0  0  0  0  0  0  0
   -3.9810   20.3100  -31.8410 C   0  0  0  0  0  0  0  0  0  0  0  0
   -2.6230   20.4170  -31.6480 C   0  0  0  0  0  0  0  0  0  0  0  0
   -2.4380   21.6440  -31.0180 C   0  0  0  0  0  0  0  0  0  0  0  0
   -1.1090   22.1940  -30.6810 C   0  0  0  0  0  0  0  0  0  0  0  0
   -0.9700   23.4900  -30.0990 N   0  0  0  0  0  0  0  0  0  0  0  0
   -0.0760   21.5290  -30.9620 O   0  0  0  0  0  0  0  0  0  0  0  0
   -3.6330   22.2670  -30.8160 N   0  0  0  0  0  0  0  0  0  0  0  0
   -3.8700   23.4920  -30.1040 C   0  0  0  0  0  0  0  0  0  0  0  0
   -3.8250   24.5930  -30.7170 O   0  0  0  0  0  0  0  0  0  0  0  0
   -4.1470   23.4590  -28.7320 O   0  0  0  0  0  0  0  0  0  0  0  0
   -3.1470   23.2730  -27.7330 C   0  0  0  0  0  0  0  0  0  0  0  0
   -2.2590   24.5130  -27.6130 C   0  0  0  0  0  0  0  0  0  0  0  0
   -2.3930   25.3260  -28.7480 O   0  0  0  0  0  0  0  0  0  0  0  0
   -4.5690   21.4380  -31.3290 C   0  0  0  0  0  0  0  0  0  0  0  0
   -5.9600   21.5950  -31.3400 C   0  0  0  0  0  0  0  0  0  0  0  0
   -8.9450   19.9240  -33.0950 C   0  0  0  0  0  0  0  0  0  0  0  0
   -9.6940   19.1740  -32.1700 O   0  0  0  0  0  0  0  0  0  0  0  0
   -9.0920   19.8450  -31.0900 C   0  0  0  0  0  0  0  0  0  0  0  0
   -6.7270   18.6618  -32.9712 H   0  0  0  0  0  0  0  0  0  0  0  0
   -4.2289   18.4047  -32.8566 H   0  0  0  0  0  0  0  0  0  0  0  0
   -1.8490   19.6885  -31.9311 H   0  0  0  0  0  0  0  0  0  0  0  0
   -0.0260   23.8450  -29.8280 H   0  0  0  0  0  0  0  0  0  0  0  0
   -1.7870   24.1350  -30.0150 H   0  0  0  0  0  0  0  0  0  0  0  0
   -3.6351   23.0844  -26.7654 H   0  0  0  0  0  0  0  0  0  0  0  0
   -2.5187   22.4167  -28.0194 H   0  0  0  0  0  0  0  0  0  0  0  0
   -2.5549   25.0850  -26.7212 H   0  0  0  0  0  0  0  0  0  0  0  0
   -1.2103   24.1921  -27.5276 H   0  0  0  0  0  0  0  0  0  0  0  0
   -3.3660   25.4660  -28.8830 H   0  0  0  0  0  0  0  0  0  0  0  0
   -6.4263   22.4998  -30.9230 H   0  0  0  0  0  0  0  0  0  0  0  0
   -9.5655   20.5346  -33.7674 H   0  0  0  0  0  0  0  0  0  0  0  0
   -8.3235   19.3911  -33.8297 H   0  0  0  0  0  0  0  0  0  0  0  0
   -9.8072   20.4048  -30.4694 H   0  0  0  0  0  0  0  0  0  0  0  0
   -8.5811   19.2530  -30.3164 H   0  0  0  0  0  0  0  0  0  0  0  0
  1  2  3  0
  2  3  1  0
  3  4  1  0
  4  5  2  0
  5  6  1  0
  6  7  2  0
  7  8  1  0
  8  9  2  0
  9 10  1  0
 10 11  1  0
 10 12  2  0
  9 13  1  0
 13 14  1  0
 14 15  2  0
 14 16  1  0
 16 17  1  0
 17 18  1  0
 18 19  1  0
 13 20  1  0
 20 21  2  0
  3 22  1  0
 22 23  1  0
 23 24  1  0
 24  3  1  0
 21  4  1  0
 20  7  1  0
  5 25  1  0
  6 26  1  0
  8 27  1  0
 11 28  1  0
 11 29  1  0
 17 30  1  0
 17 31  1  0
 18 32  1  0
 18 33  1  0
 19 34  1  0
 21 35  1  0
 22 36  1  0
 22 37  1  0
 24 38  1  0
 24 39  1  0
M  END
>  <UniqueID>  (57) 
57

>  <SMILES>  (57) 
N#CC1(c2ccc3cc(C(N)=O)n(C(=O)OCCO)c3c2)COC1

>  <Energy>  (57) 
142.20431300195426

>  <Genealogy>  (57) 
N#CC1(c2ccc3cc(C(N)=O)n(C(=O)OCCO)c3c2)COC1 (3D coordinates assigned)
N#CC1(c2ccc3cc(C(N)=O)n(C(=O)OCCO)c3c2)COC1 (nonaromatic ring conformer: 142.20431300195426 kcal/mol)

>  <smiles>  (57) 
N#CC1(c2ccc3cc(C(N)=O)n(C(=O)OCCO)c3c2)COC1

>  <score_type>  (57) 
oracle

>  <origin>  (57) 
adg

>  <m_score__min__energy>  (57) 
-9.5999999999999996

>  <m_primary>  (57) 
energy

$$$$
57:0
     RDKit          3D

 39 40  0  0  0  0  0  0  0  0999 V2000
   -3.1360   24.5680  -27.2910 C   0  0  0  0  0  0  0  0  0  0  0  0
   -1.8990   23.8280  -27.8130 C   0  0  2  0  0  0  0  0  0  0  0  0
   -1.0510   24.6950  -28.7060 C   0  0  0  0  0  0  0  0  0  0  0  0
   -1.5730   25.6740  -29.3030 O   0  0  0  0  0  0  0  0  0  0  0  0
    0.3140   24.4620  -28.8450 O   0  0  0  0  0  0  0  0  0  0  0  0
   -2.2870   22.5840  -28.5050 N   0  0  0  0  0  0  0  0  0  0  0  0
   -1.2680   21.5950  -28.8830 C   0  0  0  0  0  0  0  0  0  0  0  0
   -3.6380   22.4490  -29.0030 C   0  0  0  0  0  0  0  0  0  0  0  0
   -4.5950   22.3980  -28.1830 O   0  0  0  0  0  0  0  0  0  0  0  0
   -3.9430   22.3680  -30.4490 C   0  0  0  0  0  0  0  0  0  0  0  0
   -3.0370   22.1040  -31.2840 O   0  0  0  0  0  0  0  0  0  0  0  0
   -5.2760   22.6080  -30.9200 N   0  0  0  0  0  0  0  0  0  0  0  0
   -5.9480   23.7920  -30.9780 C   0  0  0  0  0  0  0  0  0  0  0  0
   -5.4510   25.0880  -30.4720 C   0  0  0  0  0  0  0  0  0  0  0  0
   -4.0760   25.4320  -30.6260 N   0  0  0  0  0  0  0  0  0  0  0  0
   -6.2330   25.9070  -29.9210 O   0  0  0  0  0  0  0  0  0  0  0  0
   -7.2150   23.6050  -31.5250 C   0  0  0  0  0  0  0  0  0  0  0  0
   -7.3010   22.2560  -31.7940 C   0  0  0  0  0  0  0  0  0  0  0  0
   -8.3460   21.5120  -32.3320 C   0  0  0  0  0  0  0  0  0  0  0  0
   -8.1540   20.1280  -32.4960 C   0  0  0  0  0  0  0  0  0  0  0  0
   -6.9210   19.5190  -32.1390 C   0  0  0  0  0  0  0  0  0  0  0  0
   -6.7440   18.0280  -32.2760 C   0  0  0  0  0  0  0  0  0  0  0  0
   -6.2630   17.4840  -31.0980 F   0  0  0  0  0  0  0  0  0  0  0  0
   -5.8450   17.7690  -33.2940 F   0  0  0  0  0  0  0  0  0  0  0  0
   -7.9510   17.4190  -32.5740 F   0  0  0  0  0  0  0  0  0  0  0  0
   -5.8940   20.3080  -31.5710 C   0  0  0  0  0  0  0  0  0  0  0  0
   -6.1190   21.6790  -31.4150 C   0  0  0  0  0  0  0  0  0  0  0  0
   -3.1288   24.5637  -26.1910 H   0  0  0  0  0  0  0  0  0  0  0  0
   -3.1223   25.6064  -27.6537 H   0  0  0  0  0  0  0  0  0  0  0  0
   -4.0445   24.0649  -27.6537 H   0  0  0  0  0  0  0  0  0  0  0  0
   -1.2847   23.5671  -26.9386 H   0  0  0  0  0  0  0  0  0  0  0  0
   -0.8223   21.1624  -27.9751 H   0  0  0  0  0  0  0  0  0  0  0  0
   -1.7350   20.7966  -29.4784 H   0  0  0  0  0  0  0  0  0  0  0  0
   -0.4839   22.0856  -29.4784 H   0  0  0  0  0  0  0  0  0  0  0  0
   -3.4900   25.6860  -29.8000 H   0  0  0  0  0  0  0  0  0  0  0  0
   -7.9837   24.3711  -31.7043 H   0  0  0  0  0  0  0  0  0  0  0  0
   -9.2933   21.9910  -32.6203 H   0  0  0  0  0  0  0  0  0  0  0  0
   -8.9673   19.5106  -32.9051 H   0  0  0  0  0  0  0  0  0  0  0  0
   -4.9416   19.8542  -31.2596 H   0  0  0  0  0  0  0  0  0  0  0  0
  1  2  1  0
  2  3  1  0
  3  4  2  0
  3  5  1  0
  2  6  1  0
  6  7  1  0
  6  8  1  0
  8  9  2  0
  8 10  1  0
 10 11  2  0
 10 12  1  0
 12 13  1  0
 13 14  1  0
 14 15  1  0
 14 16  2  0
 13 17  2  0
 17 18  1  0
 18 19  2  0
 19 20  1  0
 20 21  2  0
 21 22  1  0
 22 23  1  0
 22 24  1  0
 22 25  1  0
 21 26  1  0
 26 27  2  0
 27 12  1  0
 27 18  1  0
  1 28  1  0
  1 29  1  0
  1 30  1  0
  2 31  1  1
  7 32  1  0
  7 33  1  0
  7 34  1  0
 15 35  1  0
 17 36  1  0
 19 37  1  0
 20 38  1  0
 26 39  1  0
M  CHG  2   5  -1  15  -1
M  END
>  <UniqueID>  (58) 
58

>  <SMILES>  (58) 
C[C@H](C(=O)[O-])N(C)C(=O)C(=O)n1c(C([NH-])=O)cc2ccc(C(F)(F)F)cc21

>  <Energy>  (58) 
80.30363577053552

>  <Genealogy>  (58) 
CC(C(=O)[O-])N(C)C(=O)C(=O)n1c(C([NH-])=O)cc2ccc(C(F)(F)F)cc21 (protonated)
C[C@H](C(=O)[O-])N(C)C(=O)C(=O)n1c(C([NH-])=O)cc2ccc(C(F)(F)F)cc21 (chirality)
C[C@H](C(=O)[O-])N(C)C(=O)C(=O)n1c(C([NH-])=O)cc2ccc(C(F)(F)F)cc21 (3D coordinates assigned)
C[C@H](C(=O)[O-])N(C)C(=O)C(=O)n1c(C([NH-])=O)cc2ccc(C(F)(F)F)cc21 (optimized conformer: 80.30363577053552 kcal/mol)

>  <smiles>  (58) 
CC(C(=O)O)N(C)C(=O)C(=O)n1c(C(N)=O)cc2ccc(C(F)(F)F)cc21

>  <score_type>  (58) 
oracle

>  <origin>  (58) 
adg

>  <m_score__min__energy>  (58) 
-12.539999999999999

>  <m_primary>  (58) 
energy

$$$$
58:0
     RDKit          3D

 42 44  0  0  0  0  0  0  0  0999 V2000
   -3.8670   25.6170  -30.8610 N   0  0  0  0  0  0  0  0  0  0  0  0
   -5.1950   25.3280  -30.4340 C   0  0  0  0  0  0  0  0  0  0  0  0
   -5.8240   26.1900  -29.7660 O   0  0  0  0  0  0  0  0  0  0  0  0
   -5.8520   24.0500  -30.7870 C   0  0  0  0  0  0  0  0  0  0  0  0
   -7.2150   23.9310  -31.0570 C   0  0  0  0  0  0  0  0  0  0  0  0
   -7.4060   22.6120  -31.4080 C   0  0  0  0  0  0  0  0  0  0  0  0
   -8.5670   21.9360  -31.7650 C   0  0  0  0  0  0  0  0  0  0  0  0
   -8.4680   20.5650  -32.0670 C   0  0  0  0  0  0  0  0  0  0  0  0
   -7.2150   19.9040  -32.0230 C   0  0  0  0  0  0  0  0  0  0  0  0
   -7.1220   18.4200  -32.2800 C   0  0  0  0  0  0  0  0  0  0  0  0
   -6.6700   18.2110  -33.5720 F   0  0  0  0  0  0  0  0  0  0  0  0
   -6.2520   17.8140  -31.3900 F   0  0  0  0  0  0  0  0  0  0  0  0
   -8.3660   17.8320  -32.1380 F   0  0  0  0  0  0  0  0  0  0  0  0
   -6.0640   20.6220  -31.6310 C   0  0  0  0  0  0  0  0  0  0  0  0
   -6.1930   21.9850  -31.3450 C   0  0  0  0  0  0  0  0  0  0  0  0
   -5.2320   22.8500  -30.9630 N   0  0  0  0  0  0  0  0  0  0  0  0
   -3.8400   22.5430  -30.7980 C   0  0  0  0  0  0  0  0  0  0  0  0
   -2.9890   23.0640  -31.5670 O   0  0  0  0  0  0  0  0  0  0  0  0
   -3.3990   21.5680  -29.7500 C   0  0  0  0  0  0  0  0  0  0  0  0
   -3.4220   22.2270  -28.3990 C   0  0  0  0  0  0  0  0  0  0  0  0
   -4.1360   21.7260  -27.4920 O   0  0  0  0  0  0  0  0  0  0  0  0
   -2.5900   23.3620  -28.0990 N   0  0  0  0  0  0  0  0  0  0  0  0
   -2.9750   24.3840  -27.1390 C   0  0  0  0  0  0  0  0  0  0  0  0
   -1.7860   25.3350  -27.0530 C   0  0  0  0  0  0  0  0  0  0  0  0
   -0.9340   25.0550  -28.3010 C   0  0  2  0  0  0  0  0  0  0  0  0
   -1.2080   25.9860  -29.3210 O   0  0  0  0  0  0  0  0  0  0  0  0
   -1.3110   23.6420  -28.7430 C   0  0  0  0  0  0  0  0  0  0  0  0
   -3.0490   25.1100  -30.4630 H   0  0  0  0  0  0  0  0  0  0  0  0
   -7.9767   24.7226  -31.0015 H   0  0  0  0  0  0  0  0  0  0  0  0
   -9.5346   22.4573  -31.8101 H   0  0  0  0  0  0  0  0  0  0  0  0
   -9.3720   20.0008  -32.3399 H   0  0  0  0  0  0  0  0  0  0  0  0
   -5.0880   20.1207  -31.5524 H   0  0  0  0  0  0  0  0  0  0  0  0
   -4.0792   20.7035  -29.7462 H   0  0  0  0  0  0  0  0  0  0  0  0
   -2.3752   21.2333  -29.9733 H   0  0  0  0  0  0  0  0  0  0  0  0
   -3.8706   24.9196  -27.4869 H   0  0  0  0  0  0  0  0  0  0  0  0
   -3.2204   23.9496  -26.1586 H   0  0  0  0  0  0  0  0  0  0  0  0
   -2.1305   26.3796  -27.0510 H   0  0  0  0  0  0  0  0  0  0  0  0
   -1.2111   25.1814  -26.1278 H   0  0  0  0  0  0  0  0  0  0  0  0
    0.1407   25.1429  -28.0833 H   0  0  0  0  0  0  0  0  0  0  0  0
   -2.0080   25.6610  -29.8170 H   0  0  0  0  0  0  0  0  0  0  0  0
   -1.4129   23.5955  -29.8373 H   0  0  0  0  0  0  0  0  0  0  0  0
   -0.5423   22.9071  -28.4620 H   0  0  0  0  0  0  0  0  0  0  0  0
  1  2  1  0
  2  3  2  0
  2  4  1  0
  4  5  2  0
  5  6  1  0
  6  7  2  0
  7  8  1  0
  8  9  2  0
  9 10  1  0
 10 11  1  0
 10 12  1  0
 10 13  1  0
  9 14  1  0
 14 15  2  0
 15 16  1  0
 16 17  1  0
 17 18  2  0
 17 19  1  0
 19 20  1  0
 20 21  2  0
 20 22  1  0
 22 23  1  0
 23 24  1  0
 24 25  1  0
 25 26  1  0
 25 27  1  0
 16  4  1  0
 27 22  1  0
 15  6  1  0
  1 28  1  0
  5 29  1  0
  7 30  1  0
  8 31  1  0
 14 32  1  0
 19 33  1  0
 19 34  1  0
 23 35  1  0
 23 36  1  0
 24 37  1  0
 24 38  1  0
 25 39  1  1
 26 40  1  0
 27 41  1  0
 27 42  1  0
M  CHG  1   1  -1
M  END
>  <UniqueID>  (59) 
59

>  <SMILES>  (59) 
[NH-]C(=O)c1cc2ccc(C(F)(F)F)cc2n1C(=O)CC(=O)N1CC[C@H](O)C1

>  <Energy>  (59) 
82.50246207875966

>  <Genealogy>  (59) 
[NH-]C(=O)c1cc2ccc(C(F)(F)F)cc2n1C(=O)CC(=O)N1CCC(O)C1 (protonated)
[NH-]C(=O)c1cc2ccc(C(F)(F)F)cc2n1C(=O)CC(=O)N1CC[C@H](O)C1 (chirality)
[NH-]C(=O)c1cc2ccc(C(F)(F)F)cc2n1C(=O)CC(=O)N1CC[C@H](O)C1 (3D coordinates assigned)
[NH-]C(=O)c1cc2ccc(C(F)(F)F)cc2n1C(=O)CC(=O)N1CC[C@H](O)C1 (nonaromatic ring conformer: 82.50246207875966 kcal/mol)

>  <smiles>  (59) 
NC(=O)c1cc2ccc(C(F)(F)F)cc2n1C(=O)CC(=O)N1CCC(O)C1

>  <score_type>  (59) 
oracle

>  <origin>  (59) 
adg

>  <m_score__min__energy>  (59) 
-11.51

>  <m_primary>  (59) 
energy

$$$$
59:0
     RDKit          3D

 36 37  0  0  0  0  0  0  0  0999 V2000
   -3.5700   23.5710  -27.4420 C   0  0  0  0  0  0  0  0  0  0  0  0
   -2.7050   23.0210  -28.4890 N   0  0  0  0  0  0  0  0  0  0  0  0
   -1.2560   23.2760  -28.4470 C   0  0  0  0  0  0  0  0  0  0  0  0
   -0.9600   24.7260  -28.6650 C   0  0  0  0  0  0  0  0  0  0  0  0
   -1.7580   25.4450  -29.3250 O   0  0  0  0  0  0  0  0  0  0  0  0
    0.2100   25.2800  -28.1600 O   0  0  0  0  0  0  0  0  0  0  0  0
   -3.3090   22.1510  -29.4740 C   0  0  0  0  0  0  0  0  0  0  0  0
   -3.5040   20.9390  -29.1810 O   0  0  0  0  0  0  0  0  0  0  0  0
   -3.7380   22.6280  -30.8100 C   0  0  0  0  0  0  0  0  0  0  0  0
   -2.8890   22.9050  -31.6950 O   0  0  0  0  0  0  0  0  0  0  0  0
   -5.1330   22.8090  -31.1030 N   0  0  0  0  0  0  0  0  0  0  0  0
   -5.8760   23.9400  -30.9420 C   0  0  0  0  0  0  0  0  0  0  0  0
   -5.3570   25.2660  -30.5440 C   0  0  0  0  0  0  0  0  0  0  0  0
   -4.0180   25.6460  -30.8370 N   0  0  0  0  0  0  0  0  0  0  0  0
   -6.1150   26.0810  -29.9550 O   0  0  0  0  0  0  0  0  0  0  0  0
   -7.2150   23.6910  -31.2330 C   0  0  0  0  0  0  0  0  0  0  0  0
   -7.2720   22.3590  -31.5730 C   0  0  0  0  0  0  0  0  0  0  0  0
   -8.3620   21.5730  -31.9350 C   0  0  0  0  0  0  0  0  0  0  0  0
   -8.1330   20.2120  -32.1990 C   0  0  0  0  0  0  0  0  0  0  0  0
   -6.8340   19.6540  -32.0650 C   0  0  0  0  0  0  0  0  0  0  0  0
   -6.6120   18.1970  -32.3840 C   0  0  0  0  0  0  0  0  0  0  0  0
   -5.4650   18.0190  -33.1390 F   0  0  0  0  0  0  0  0  0  0  0  0
   -7.6960   17.7190  -33.0990 F   0  0  0  0  0  0  0  0  0  0  0  0
   -6.4840   17.4670  -31.2170 F   0  0  0  0  0  0  0  0  0  0  0  0
   -5.7510   20.4890  -31.7060 C   0  0  0  0  0  0  0  0  0  0  0  0
   -6.0040   21.8470  -31.4770 C   0  0  0  0  0  0  0  0  0  0  0  0
   -3.1611   23.3110  -26.4545 H   0  0  0  0  0  0  0  0  0  0  0  0
   -3.6172   24.6654  -27.5428 H   0  0  0  0  0  0  0  0  0  0  0  0
   -4.5810   23.1495  -27.5428 H   0  0  0  0  0  0  0  0  0  0  0  0
   -0.8658   22.9731  -27.4641 H   0  0  0  0  0  0  0  0  0  0  0  0
   -0.7749   22.6959  -29.2483 H   0  0  0  0  0  0  0  0  0  0  0  0
   -3.2500   24.9400  -30.8480 H   0  0  0  0  0  0  0  0  0  0  0  0
   -8.0494   24.4069  -31.1984 H   0  0  0  0  0  0  0  0  0  0  0  0
   -9.3712   22.0037  -32.0120 H   0  0  0  0  0  0  0  0  0  0  0  0
   -8.9700   19.5711  -32.5132 H   0  0  0  0  0  0  0  0  0  0  0  0
   -4.7339   20.0815  -31.6089 H   0  0  0  0  0  0  0  0  0  0  0  0
  1  2  1  0
  2  3  1  0
  3  4  1  0
  4  5  2  0
  4  6  1  0
  2  7  1  0
  7  8  2  0
  7  9  1  0
  9 10  2  0
  9 11  1  0
 11 12  1  0
 12 13  1  0
 13 14  1  0
 13 15  2  0
 12 16  2  0
 16 17  1  0
 17 18  2  0
 18 19  1  0
 19 20  2  0
 20 21  1  0
 21 22  1  0
 21 23  1  0
 21 24  1  0
 20 25  1  0
 25 26  2  0
 26 11  1  0
 26 17  1  0
  1 27  1  0
  1 28  1  0
  1 29  1  0
  3 30  1  0
  3 31  1  0
 14 32  1  0
 16 33  1  0
 18 34  1  0
 19 35  1  0
 25 36  1  0
M  CHG  2   6  -1  14  -1
M  END
>  <UniqueID>  (60) 
60

>  <SMILES>  (60) 
CN(CC(=O)[O-])C(=O)C(=O)n1c(C([NH-])=O)cc2ccc(C(F)(F)F)cc21

>  <Energy>  (60) 
78.10363275577501

>  <Genealogy>  (60) 
CN(CC(=O)[O-])C(=O)C(=O)n1c(C([NH-])=O)cc2ccc(C(F)(F)F)cc21 (protonated)
CN(CC(=O)[O-])C(=O)C(=O)n1c(C([NH-])=O)cc2ccc(C(F)(F)F)cc21 (3D coordinates assigned)
CN(CC(=O)[O-])C(=O)C(=O)n1c(C([NH-])=O)cc2ccc(C(F)(F)F)cc21 (optimized conformer: 78.10363275577501 kcal/mol)

>  <smiles>  (60) 
CN(CC(=O)O)C(=O)C(=O)n1c(C(N)=O)cc2ccc(C(F)(F)F)cc21

>  <score_type>  (60) 
oracle

>  <origin>  (60) 
adg

>  <m_score__min__energy>  (60) 
-12.24

>  <m_primary>  (60) 
energy

$$$$
60:0
     RDKit          3D

 42 43  0  0  0  0  0  0  0  0999 V2000
    0.8450   23.2050  -27.4970 C   0  0  0  0  0  0  0  0  0  0  0  0
   -0.5940   22.9810  -27.7210 N   0  0  0  0  0  0  0  0  0  0  0  0
   -1.0860   21.9750  -26.7660 C   0  0  0  0  0  0  0  0  0  0  0  0
   -1.3580   24.2400  -27.5760 C   0  0  0  0  0  0  0  0  0  0  0  0
   -1.4090   25.0130  -28.9010 C   0  0  0  0  0  0  0  0  0  0  0  0
   -2.7880   25.1930  -29.3460 N   0  0  0  0  0  0  0  0  0  0  0  0
   -3.7350   24.1240  -29.4370 C   0  0  0  0  0  0  0  0  0  0  0  0
   -3.9900   23.4130  -28.4280 O   0  0  0  0  0  0  0  0  0  0  0  0
   -4.4200   23.8640  -30.7110 C   0  0  0  0  0  0  0  0  0  0  0  0
   -4.9340   24.8220  -31.3470 O   0  0  0  0  0  0  0  0  0  0  0  0
   -4.5090   22.5310  -31.2400 N   0  0  0  0  0  0  0  0  0  0  0  0
   -3.4880   21.6500  -31.4370 C   0  0  0  0  0  0  0  0  0  0  0  0
   -2.0500   21.9570  -31.2580 C   0  0  0  0  0  0  0  0  0  0  0  0
   -1.5360   22.3550  -29.9860 N   0  0  0  0  0  0  0  0  0  0  0  0
   -1.2570   21.8530  -32.2320 O   0  0  0  0  0  0  0  0  0  0  0  0
   -3.9830   20.4280  -31.8930 C   0  0  0  0  0  0  0  0  0  0  0  0
   -5.3490   20.5880  -31.9590 C   0  0  0  0  0  0  0  0  0  0  0  0
   -6.3410   19.6840  -32.3210 C   0  0  0  0  0  0  0  0  0  0  0  0
   -7.6780   20.1100  -32.2590 C   0  0  0  0  0  0  0  0  0  0  0  0
   -8.0010   21.4280  -31.8410 C   0  0  0  0  0  0  0  0  0  0  0  0
   -9.4340   21.8830  -31.7330 C   0  0  0  0  0  0  0  0  0  0  0  0
  -10.2480   20.9960  -32.4130 F   0  0  0  0  0  0  0  0  0  0  0  0
   -9.6040   23.1490  -32.2680 F   0  0  0  0  0  0  0  0  0  0  0  0
   -9.8160   21.9190  -30.4040 F   0  0  0  0  0  0  0  0  0  0  0  0
   -6.9640   22.3110  -31.4620 C   0  0  0  0  0  0  0  0  0  0  0  0
   -5.6410   21.8650  -31.5550 C   0  0  0  0  0  0  0  0  0  0  0  0
    1.0473   23.2365  -26.4162 H   0  0  0  0  0  0  0  0  0  0  0  0
    1.4191   22.3854  -27.9538 H   0  0  0  0  0  0  0  0  0  0  0  0
    1.1428   24.1603  -27.9538 H   0  0  0  0  0  0  0  0  0  0  0  0
   -0.9129   22.3289  -25.7390 H   0  0  0  0  0  0  0  0  0  0  0  0
   -2.1632   21.8167  -26.9226 H   0  0  0  0  0  0  0  0  0  0  0  0
   -0.5496   21.0275  -26.9226 H   0  0  0  0  0  0  0  0  0  0  0  0
   -2.3843   24.0026  -27.2592 H   0  0  0  0  0  0  0  0  0  0  0  0
   -0.8561   24.8679  -26.8251 H   0  0  0  0  0  0  0  0  0  0  0  0
   -0.9441   26.0000  -28.7604 H   0  0  0  0  0  0  0  0  0  0  0  0
   -0.8653   24.4378  -29.6648 H   0  0  0  0  0  0  0  0  0  0  0  0
   -2.1640   22.5180  -29.1690 H   0  0  0  0  0  0  0  0  0  0  0  0
   -0.5130   22.5280  -29.8670 H   0  0  0  0  0  0  0  0  0  0  0  0
   -3.4045   19.5273  -32.1462 H   0  0  0  0  0  0  0  0  0  0  0  0
   -6.0863   18.6646  -32.6466 H   0  0  0  0  0  0  0  0  0  0  0  0
   -8.4838   19.4149  -32.5374 H   0  0  0  0  0  0  0  0  0  0  0  0
   -7.1919   23.3252  -31.1023 H   0  0  0  0  0  0  0  0  0  0  0  0
  1  2  1  0
  2  3  1  0
  2  4  1  0
  4  5  1  0
  5  6  1  0
  6  7  1  0
  7  8  2  0
  7  9  1  0
  9 10  2  0
  9 11  1  0
 11 12  1  0
 12 13  1  0
 13 14  1  0
 13 15  2  0
 12 16  2  0
 16 17  1  0
 17 18  2  0
 18 19  1  0
 19 20  2  0
 20 21  1  0
 21 22  1  0
 21 23  1  0
 21 24  1  0
 20 25  1  0
 25 26  2  0
 26 11  1  0
 26 17  1  0
  1 27  1  0
  1 28  1  0
  1 29  1  0
  3 30  1  0
  3 31  1  0
  3 32  1  0
  4 33  1  0
  4 34  1  0
  5 35  1  0
  5 36  1  0
 14 37  1  0
 14 38  1  0
 16 39  1  0
 18 40  1  0
 19 41  1  0
 25 42  1  0
M  CHG  1   6  -1
M  END
>  <UniqueID>  (61) 
61

>  <SMILES>  (61) 
CN(C)CC[N-]C(=O)C(=O)n1c(C(N)=O)cc2ccc(C(F)(F)F)cc21

>  <Energy>  (61) 
77.27159798179272

>  <Genealogy>  (61) 
CN(C)CC[N-]C(=O)C(=O)n1c(C(N)=O)cc2ccc(C(F)(F)F)cc21 (protonated)
CN(C)CC[N-]C(=O)C(=O)n1c(C(N)=O)cc2ccc(C(F)(F)F)cc21 (3D coordinates assigned)
CN(C)CC[N-]C(=O)C(=O)n1c(C(N)=O)cc2ccc(C(F)(F)F)cc21 (optimized conformer: 77.27159798179272 kcal/mol)

>  <smiles>  (61) 
CN(C)CCNC(=O)C(=O)n1c(C(N)=O)cc2ccc(C(F)(F)F)cc21

>  <score_type>  (61) 
oracle

>  <origin>  (61) 
adg

>  <m_score__min__energy>  (61) 
-9.1999999999999993

>  <m_primary>  (61) 
energy

$$$$
62:0
     RDKit          3D

 45 46  0  0  0  0  0  0  0  0999 V2000
   -2.2520   22.2970  -27.4480 C   0  0  0  0  0  0  0  0  0  0  0  0
   -2.6780   23.6900  -27.9470 C   0  0  0  0  0  0  0  0  0  0  0  0
   -3.6140   24.3230  -26.8870 C   0  0  0  0  0  0  0  0  0  0  0  0
   -4.7300   24.9250  -27.4810 O   0  0  0  0  0  0  0  0  0  0  0  0
   -1.4090   24.5510  -28.1950 C   0  0  0  0  0  0  0  0  0  0  0  0
   -1.5650   25.3890  -29.3100 O   0  0  0  0  0  0  0  0  0  0  0  0
   -3.4040   23.4820  -29.2080 N   0  0  0  0  0  0  0  0  0  0  0  0
   -2.8910   22.9900  -30.4530 C   0  0  0  0  0  0  0  0  0  0  0  0
   -1.6600   22.7670  -30.6050 O   0  0  0  0  0  0  0  0  0  0  0  0
   -3.8190   22.7280  -31.5630 C   0  0  0  0  0  0  0  0  0  0  0  0
   -3.3700   22.3160  -32.6650 O   0  0  0  0  0  0  0  0  0  0  0  0
   -5.2310   22.9540  -31.4100 N   0  0  0  0  0  0  0  0  0  0  0  0
   -5.8460   24.0420  -30.8680 C   0  0  0  0  0  0  0  0  0  0  0  0
   -5.1820   25.2950  -30.4520 C   0  0  0  0  0  0  0  0  0  0  0  0
   -3.8630   25.6090  -30.8920 N   0  0  0  0  0  0  0  0  0  0  0  0
   -5.8000   26.1170  -29.7240 O   0  0  0  0  0  0  0  0  0  0  0  0
   -7.2230   23.8390  -30.8010 C   0  0  0  0  0  0  0  0  0  0  0  0
   -7.4340   22.5810  -31.3200 C   0  0  0  0  0  0  0  0  0  0  0  0
   -8.6130   21.8600  -31.4790 C   0  0  0  0  0  0  0  0  0  0  0  0
   -8.5270   20.5650  -32.0150 C   0  0  0  0  0  0  0  0  0  0  0  0
   -7.2740   20.0080  -32.3770 C   0  0  0  0  0  0  0  0  0  0  0  0
   -7.2280   18.6760  -32.9230 N   0  0  0  0  0  0  0  0  0  0  0  0
   -6.4580   17.5900  -32.3140 C   0  0  0  0  0  0  0  0  0  0  0  0
   -6.2340   16.4840  -33.2960 C   0  0  0  0  0  0  0  0  0  0  0  0
   -5.5100   15.5000  -32.9890 O   0  0  0  0  0  0  0  0  0  0  0  0
   -6.8670   16.5150  -34.5340 O   0  0  0  0  0  0  0  0  0  0  0  0
   -6.0960   20.7720  -32.1930 C   0  0  0  0  0  0  0  0  0  0  0  0
   -6.2150   22.0670  -31.6770 C   0  0  0  0  0  0  0  0  0  0  0  0
   -2.2488   22.2867  -26.3481 H   0  0  0  0  0  0  0  0  0  0  0  0
   -2.9603   21.5419  -27.8197 H   0  0  0  0  0  0  0  0  0  0  0  0
   -1.2425   22.0672  -27.8197 H   0  0  0  0  0  0  0  0  0  0  0  0
   -3.9565   23.5370  -26.1978 H   0  0  0  0  0  0  0  0  0  0  0  0
   -3.0499   25.0984  -26.3480 H   0  0  0  0  0  0  0  0  0  0  0  0
   -4.4410   25.2140  -28.3860 H   0  0  0  0  0  0  0  0  0  0  0  0
   -1.2183   25.1706  -27.3063 H   0  0  0  0  0  0  0  0  0  0  0  0
   -0.5647   23.8730  -28.3887 H   0  0  0  0  0  0  0  0  0  0  0  0
   -1.9350   24.8300  -30.0420 H   0  0  0  0  0  0  0  0  0  0  0  0
   -3.0280   25.2760  -30.3620 H   0  0  0  0  0  0  0  0  0  0  0  0
   -7.9812   24.5363  -30.4151 H   0  0  0  0  0  0  0  0  0  0  0  0
   -9.5837   22.2915  -31.1934 H   0  0  0  0  0  0  0  0  0  0  0  0
   -9.4442   19.9744  -32.1561 H   0  0  0  0  0  0  0  0  0  0  0  0
   -7.7510   18.4890  -33.8100 H   0  0  0  0  0  0  0  0  0  0  0  0
   -5.4847   17.9800  -31.9815 H   0  0  0  0  0  0  0  0  0  0  0  0
   -7.0233   17.1931  -31.4579 H   0  0  0  0  0  0  0  0  0  0  0  0
   -5.1102   20.3569  -32.4498 H   0  0  0  0  0  0  0  0  0  0  0  0
  1  2  1  0
  2  3  1  0
  3  4  1  0
  2  5  1  0
  5  6  1  0
  2  7  1  0
  7  8  1  0
  8  9  2  0
  8 10  1  0
 10 11  2  0
 10 12  1  0
 12 13  1  0
 13 14  1  0
 14 15  1  0
 14 16  2  0
 13 17  2  0
 17 18  1  0
 18 19  2  0
 19 20  1  0
 20 21  2  0
 21 22  1  0
 22 23  1  0
 23 24  1  0
 24 25  2  0
 24 26  1  0
 21 27  1  0
 27 28  2  0
 28 12  1  0
 28 18  1  0
  1 29  1  0
  1 30  1  0
  1 31  1  0
  3 32  1  0
  3 33  1  0
  4 34  1  0
  5 35  1  0
  5 36  1  0
  6 37  1  0
 15 38  1  0
 17 39  1  0
 19 40  1  0
 20 41  1  0
 22 42  1  0
 23 43  1  0
 23 44  1  0
 27 45  1  0
M  CHG  3   7  -1  15  -1  26  -1
M  END
>  <UniqueID>  (62) 
62

>  <SMILES>  (62) 
CC(CO)(CO)[N-]C(=O)C(=O)n1c(C([NH-])=O)cc2ccc(NCC(=O)[O-])cc21

>  <Energy>  (62) 
80.5716425926046

>  <Genealogy>  (62) 
CC(CO)(CO)[N-]C(=O)C(=O)n1c(C([NH-])=O)cc2ccc(NCC(=O)[O-])cc21 (protonated)
CC(CO)(CO)[N-]C(=O)C(=O)n1c(C([NH-])=O)cc2ccc(NCC(=O)[O-])cc21 (3D coordinates assigned)
CC(CO)(CO)[N-]C(=O)C(=O)n1c(C([NH-])=O)cc2ccc(NCC(=O)[O-])cc21 (optimized conformer: 80.5716425926046 kcal/mol)

>  <smiles>  (62) 
CC(CO)(CO)NC(=O)C(=O)n1c(C(N)=O)cc2ccc(NCC(=O)O)cc21

>  <score_type>  (62) 
oracle

>  <origin>  (62) 
adg

>  <m_score__min__energy>  (62) 
-11.32

>  <m_primary>  (62) 
energy

$$$$
63:0
     RDKit          3D

 41 44  0  0  0  0  0  0  0  0999 V2000
   -5.2380   17.7790  -35.3700 N   0  0  0  0  0  0  0  0  0  0  0  0
   -5.7560   17.9630  -34.3520 C   0  0  0  0  0  0  0  0  0  0  0  0
   -6.4170   18.1950  -33.0550 C   0  0  0  0  0  0  0  0  0  0  0  0
   -6.6450   19.6300  -32.5700 C   0  0  0  0  0  0  0  0  0  0  0  0
   -7.9550   20.1880  -32.6110 C   0  0  0  0  0  0  0  0  0  0  0  0
   -8.2030   21.5030  -32.1810 C   0  0  0  0  0  0  0  0  0  0  0  0
   -7.1310   22.2450  -31.7010 C   0  0  0  0  0  0  0  0  0  0  0  0
   -7.0840   23.5440  -31.2450 C   0  0  0  0  0  0  0  0  0  0  0  0
   -5.7490   23.7680  -30.9120 C   0  0  0  0  0  0  0  0  0  0  0  0
   -5.2400   25.0350  -30.3460 C   0  0  0  0  0  0  0  0  0  0  0  0
   -3.8610   25.3690  -30.4800 N   0  0  0  0  0  0  0  0  0  0  0  0
   -6.0140   25.8330  -29.7540 O   0  0  0  0  0  0  0  0  0  0  0  0
   -5.0080   22.6510  -31.1480 N   0  0  0  0  0  0  0  0  0  0  0  0
   -3.5910   22.4910  -30.9790 C   0  0  0  0  0  0  0  0  0  0  0  0
   -2.8420   22.5500  -31.9900 O   0  0  0  0  0  0  0  0  0  0  0  0
   -3.0220   22.2310  -29.6380 C   0  0  0  0  0  0  0  0  0  0  0  0
   -2.6820   21.0540  -29.3380 O   0  0  0  0  0  0  0  0  0  0  0  0
   -2.8200   23.3070  -28.6400 C   0  0  0  0  0  0  0  0  0  0  0  0
   -3.7870   23.5770  -27.6530 C   0  0  0  0  0  0  0  0  0  0  0  0
   -3.5700   24.5870  -26.7110 C   0  0  0  0  0  0  0  0  0  0  0  0
   -2.3870   25.3290  -26.7370 C   0  0  0  0  0  0  0  0  0  0  0  0
   -1.4140   25.0580  -27.7020 C   0  0  0  0  0  0  0  0  0  0  0  0
   -0.2640   25.7760  -27.7230 F   0  0  0  0  0  0  0  0  0  0  0  0
   -1.6260   24.0480  -28.6460 C   0  0  0  0  0  0  0  0  0  0  0  0
   -5.8660   21.7310  -31.6360 C   0  0  0  0  0  0  0  0  0  0  0  0
   -5.5820   20.4350  -32.0760 C   0  0  0  0  0  0  0  0  0  0  0  0
   -7.4690   17.1460  -32.7070 C   0  0  0  0  0  0  0  0  0  0  0  0
   -6.1120   17.1270  -32.0090 C   0  0  0  0  0  0  0  0  0  0  0  0
   -8.7893   19.5775  -32.9867 H   0  0  0  0  0  0  0  0  0  0  0  0
   -9.2152   21.9316  -32.2232 H   0  0  0  0  0  0  0  0  0  0  0  0
   -7.9209   24.2529  -31.1615 H   0  0  0  0  0  0  0  0  0  0  0  0
   -3.5390   26.0340  -31.2200 H   0  0  0  0  0  0  0  0  0  0  0  0
   -4.7173   22.9908  -27.6229 H   0  0  0  0  0  0  0  0  0  0  0  0
   -4.3331   24.7979  -25.9473 H   0  0  0  0  0  0  0  0  0  0  0  0
   -2.2215   26.1266  -25.9978 H   0  0  0  0  0  0  0  0  0  0  0  0
   -0.8529   23.8322  -29.3982 H   0  0  0  0  0  0  0  0  0  0  0  0
   -4.5542   20.0447  -32.0407 H   0  0  0  0  0  0  0  0  0  0  0  0
   -8.3710   17.4359  -32.1481 H   0  0  0  0  0  0  0  0  0  0  0  0
   -8.0591   16.4160  -33.2805 H   0  0  0  0  0  0  0  0  0  0  0  0
   -6.0359   17.4032  -30.9470 H   0  0  0  0  0  0  0  0  0  0  0  0
   -5.3187   16.3776  -31.8710 H   0  0  0  0  0  0  0  0  0  0  0  0
  1  2  3  0
  2  3  1  0
  3  4  1  0
  4  5  2  0
  5  6  1  0
  6  7  2  0
  7  8  1  0
  8  9  2  0
  9 10  1  0
 10 11  1  0
 10 12  2  0
  9 13  1  0
 13 14  1  0
 14 15  2  0
 14 16  1  0
 16 17  2  0
 16 18  1  0
 18 19  2  0
 19 20  1  0
 20 21  2  0
 21 22  1  0
 22 23  1  0
 22 24  2  0
 13 25  1  0
 25 26  2  0
  3 27  1  0
 27 28  1  0
 28  3  1  0
 26  4  1  0
 25  7  1  0
 24 18  1  0
  5 29  1  0
  6 30  1  0
  8 31  1  0
 11 32  1  0
 19 33  1  0
 20 34  1  0
 21 35  1  0
 24 36  1  0
 26 37  1  0
 27 38  1  0
 27 39  1  0
 28 40  1  0
 28 41  1  0
M  CHG  1  11  -1
M  END
>  <UniqueID>  (63) 
63

>  <SMILES>  (63) 
N#CC1(c2ccc3cc(C([NH-])=O)n(C(=O)C(=O)c4cccc(F)c4)c3c2)CC1

>  <Energy>  (63) 
360.06939413364444

>  <Genealogy>  (63) 
N#CC1(c2ccc3cc(C([NH-])=O)n(C(=O)C(=O)c4cccc(F)c4)c3c2)CC1 (protonated)
N#CC1(c2ccc3cc(C([NH-])=O)n(C(=O)C(=O)c4cccc(F)c4)c3c2)CC1 (3D coordinates assigned)
N#CC1(c2ccc3cc(C([NH-])=O)n(C(=O)C(=O)c4cccc(F)c4)c3c2)CC1 (nonaromatic ring conformer: 360.06939413364444 kcal/mol)

>  <smiles>  (63) 
N#CC1(c2ccc3cc(C(N)=O)n(C(=O)C(=O)c4cccc(F)c4)c3c2)CC1

>  <score_type>  (63) 
oracle

>  <origin>  (63) 
adg

>  <m_score__min__energy>  (63) 
-12.300000000000001

>  <m_primary>  (63) 
energy

$$$$
64:0
     RDKit          3D

 53 55  0  0  0  0  0  0  0  0999 V2000
   -4.2660   16.9670  -33.4680 C   0  0  0  0  0  0  0  0  0  0  0  0
   -5.0500   18.2040  -33.3160 N   0  0  0  0  0  0  0  0  0  0  0  0
   -5.6900   18.5810  -34.5890 C   0  0  0  0  0  0  0  0  0  0  0  0
   -6.0540   18.0330  -32.2810 C   0  0  0  0  0  0  0  0  0  0  0  0
   -5.7740   17.4490  -31.2390 O   0  0  0  0  0  0  0  0  0  0  0  0
   -7.4490   18.5780  -32.4590 C   0  0  0  0  0  0  0  0  0  0  0  0
   -7.4930   20.0310  -32.0800 C   0  0  0  0  0  0  0  0  0  0  0  0
   -8.6980   20.7670  -32.1990 C   0  0  0  0  0  0  0  0  0  0  0  0
   -8.7320   22.1380  -31.8900 C   0  0  0  0  0  0  0  0  0  0  0  0
   -7.5490   22.7410  -31.4700 C   0  0  0  0  0  0  0  0  0  0  0  0
   -7.2900   24.0550  -31.1510 C   0  0  0  0  0  0  0  0  0  0  0  0
   -5.9330   24.0970  -30.8350 C   0  0  0  0  0  0  0  0  0  0  0  0
   -5.2350   25.3220  -30.3920 C   0  0  0  0  0  0  0  0  0  0  0  0
   -3.9180   25.6240  -30.8490 N   0  0  0  0  0  0  0  0  0  0  0  0
   -5.7980   26.0980  -29.5720 O   0  0  0  0  0  0  0  0  0  0  0  0
   -5.3760   22.8590  -30.9550 N   0  0  0  0  0  0  0  0  0  0  0  0
   -3.9900   22.5100  -30.8100 C   0  0  0  0  0  0  0  0  0  0  0  0
   -3.1030   23.3090  -31.2150 O   0  0  0  0  0  0  0  0  0  0  0  0
   -3.5910   21.2490  -30.0980 C   0  0  0  0  0  0  0  0  0  0  0  0
   -2.2100   20.4420  -30.9010 S   0  0  0  0  0  0  0  0  0  0  0  0
   -1.2580   19.9550  -29.8420 O   0  0  0  0  0  0  0  0  0  0  0  0
   -2.7110   19.2680  -31.6910 O   0  0  0  0  0  0  0  0  0  0  0  0
   -1.4220   21.5800  -31.9820 N   0  0  0  0  0  0  0  0  0  0  0  0
   -0.0930   21.0900  -32.3720 C   0  0  0  0  0  0  0  0  0  0  0  0
   -0.4690   20.9770  -33.8440 C   0  0  2  0  0  0  0  0  0  0  0  0
    0.2840   21.9040  -34.7060 C   0  0  0  0  0  0  0  0  0  0  0  0
    0.8780   22.6300  -35.3860 N   0  0  0  0  0  0  0  0  0  0  0  0
   -1.8260   21.5260  -33.4060 C   0  0  1  0  0  0  0  0  0  0  0  0
   -3.0180   20.6600  -33.7540 C   0  0  0  0  0  0  0  0  0  0  0  0
   -4.1750   21.0570  -33.4620 O   0  0  0  0  0  0  0  0  0  0  0  0
   -2.8600   19.4320  -34.3880 O   0  0  0  0  0  0  0  0  0  0  0  0
   -6.3770   22.0420  -31.3450 C   0  0  0  0  0  0  0  0  0  0  0  0
   -6.3130   20.6810  -31.6570 C   0  0  0  0  0  0  0  0  0  0  0  0
   -4.0135   16.5685  -32.4743 H   0  0  0  0  0  0  0  0  0  0  0  0
   -4.8580   16.2234  -34.0216 H   0  0  0  0  0  0  0  0  0  0  0  0
   -3.3408   17.1850  -34.0216 H   0  0  0  0  0  0  0  0  0  0  0  0
   -4.3900   18.9740  -33.0550 H   0  0  0  0  0  0  0  0  0  0  0  0
   -6.6210   19.1294  -34.3830 H   0  0  0  0  0  0  0  0  0  0  0  0
   -5.0075   19.2213  -35.1670 H   0  0  0  0  0  0  0  0  0  0  0  0
   -5.9192   17.6736  -35.1670 H   0  0  0  0  0  0  0  0  0  0  0  0
   -7.7501   18.4681  -33.5113 H   0  0  0  0  0  0  0  0  0  0  0  0
   -8.1378   18.0177  -31.8097 H   0  0  0  0  0  0  0  0  0  0  0  0
   -9.6148   20.2612  -32.5361 H   0  0  0  0  0  0  0  0  0  0  0  0
   -9.6637   22.7163  -31.9772 H   0  0  0  0  0  0  0  0  0  0  0  0
   -8.0023   24.8932  -31.1465 H   0  0  0  0  0  0  0  0  0  0  0  0
   -3.0790   25.2870  -30.3250 H   0  0  0  0  0  0  0  0  0  0  0  0
   -3.3065   21.4980  -29.0650 H   0  0  0  0  0  0  0  0  0  0  0  0
   -4.4481   20.5597  -30.1164 H   0  0  0  0  0  0  0  0  0  0  0  0
    0.7119   21.8153  -32.1822 H   0  0  0  0  0  0  0  0  0  0  0  0
    0.3120   20.2034  -31.8622 H   0  0  0  0  0  0  0  0  0  0  0  0
   -0.3556   20.0505  -34.4260 H   0  0  0  0  0  0  0  0  0  0  0  0
   -2.2111   22.4487  -33.8647 H   0  0  0  0  0  0  0  0  0  0  0  0
   -5.3651   20.1289  -31.5749 H   0  0  0  0  0  0  0  0  0  0  0  0
  1  2  1  0
  2  3  1  0
  2  4  1  0
  4  5  2  0
  4  6  1  0
  6  7  1  0
  7  8  2  0
  8  9  1  0
  9 10  2  0
 10 11  1  0
 11 12  2  0
 12 13  1  0
 13 14  1  0
 13 15  2  0
 12 16  1  0
 16 17  1  0
 17 18  2  0
 17 19  1  0
 19 20  1  0
 20 21  2  0
 20 22  2  0
 20 23  1  0
 23 24  1  0
 24 25  1  0
 25 26  1  0
 26 27  3  0
 25 28  1  0
 28 29  1  0
 29 30  2  0
 29 31  1  0
 16 32  1  0
 32 33  2  0
 33  7  1  0
 32 10  1  0
 28 23  1  0
  1 34  1  0
  1 35  1  0
  1 36  1  0
  2 37  1  0
  3 38  1  0
  3 39  1  0
  3 40  1  0
  6 41  1  0
  6 42  1  0
  8 43  1  0
  9 44  1  0
 11 45  1  0
 14 46  1  0
 19 47  1  0
 19 48  1  0
 24 49  1  0
 24 50  1  0
 25 51  1  6
 28 52  1  6
 33 53  1  0
M  CHG  3   2   1  14  -1  31  -1
M  END
>  <UniqueID>  (64) 
64

>  <SMILES>  (64) 
C[NH+](C)C(=O)Cc1ccc2cc(C([NH-])=O)n(C(=O)CS(=O)(=O)N3C[C@H](C#N)[C@H]3C(=O)[O-])c2c1

>  <Energy>  (64) 
162.42465036560134

>  <Genealogy>  (64) 
C[NH+](C)C(=O)Cc1ccc2cc(C([NH-])=O)n(C(=O)CS(=O)(=O)N3C[C@H](C#N)[C@H]3C(=O)[O-])c2c1 (protonated)
C[NH+](C)C(=O)Cc1ccc2cc(C([NH-])=O)n(C(=O)CS(=O)(=O)N3C[C@H](C#N)[C@H]3C(=O)[O-])c2c1 (3D coordinates assigned)
C[NH+](C)C(=O)Cc1ccc2cc(C([NH-])=O)n(C(=O)CS(=O)(=O)N3C[C@H](C#N)[C@H]3C(=O)[O-])c2c1 (nonaromatic ring conformer: 162.42465036560134 kcal/mol)

>  <smiles>  (64) 
CN(C)C(=O)Cc1ccc2cc(C(N)=O)n(C(=O)CS(=O)(=O)N3C[C@H](C#N)[C@H]3C(=O)O)c2c1

>  <score_type>  (64) 
oracle

>  <origin>  (64) 
adg

>  <m_score__min__energy>  (64) 
-13.19

>  <m_primary>  (64) 
energy

$$$$
65:0
     RDKit          3D

 52 54  0  0  0  0  0  0  0  0999 V2000
   -0.9950   23.4710  -29.2900 C   0  0  0  0  0  0  0  0  0  0  0  0
   -2.1700   23.3890  -28.4150 N   0  0  0  0  0  0  0  0  0  0  0  0
   -2.3850   24.4020  -27.3770 C   0  0  0  0  0  0  0  0  0  0  0  0
   -3.1330   22.3210  -28.5620 C   0  0  0  0  0  0  0  0  0  0  0  0
   -4.1660   22.3060  -27.8400 O   0  0  0  0  0  0  0  0  0  0  0  0
   -2.9300   21.1990  -29.5450 C   0  0  0  0  0  0  0  0  0  0  0  0
   -3.4680   21.5430  -30.8180 O   0  0  0  0  0  0  0  0  0  0  0  0
   -4.2880   22.6560  -31.0320 C   0  0  0  0  0  0  0  0  0  0  0  0
   -3.7800   23.7990  -31.2020 O   0  0  0  0  0  0  0  0  0  0  0  0
   -5.7150   22.4950  -31.0490 N   0  0  0  0  0  0  0  0  0  0  0  0
   -6.6480   23.3680  -30.5760 C   0  0  0  0  0  0  0  0  0  0  0  0
   -6.3720   24.5870  -29.7880 C   0  0  0  0  0  0  0  0  0  0  0  0
   -5.1100   24.7860  -29.1510 N   0  0  0  0  0  0  0  0  0  0  0  0
   -7.2840   25.4420  -29.6320 O   0  0  0  0  0  0  0  0  0  0  0  0
   -7.9330   22.9400  -30.9030 C   0  0  0  0  0  0  0  0  0  0  0  0
   -7.7580   21.7610  -31.5890 C   0  0  0  0  0  0  0  0  0  0  0  0
   -8.7000   20.9160  -32.1670 C   0  0  0  0  0  0  0  0  0  0  0  0
   -8.2350   19.7870  -32.8600 C   0  0  0  0  0  0  0  0  0  0  0  0
   -6.8440   19.5300  -32.9780 C   0  0  0  0  0  0  0  0  0  0  0  0
   -6.3750   18.3760  -33.7020 N   0  0  0  0  0  0  0  0  0  0  0  0
   -5.7300   18.5230  -35.0080 C   0  0  0  0  0  0  0  0  0  0  0  0
   -4.3990   17.7820  -34.9910 C   0  0  0  0  0  0  0  0  0  0  0  0
   -4.5740   16.3930  -34.5420 N   0  0  0  0  0  0  0  0  0  0  0  0
   -3.5800   15.3880  -34.9210 C   0  0  0  0  0  0  0  0  0  0  0  0
   -5.6160   16.0450  -33.6050 C   0  0  0  0  0  0  0  0  0  0  0  0
   -5.6600   14.8850  -33.1120 O   0  0  0  0  0  0  0  0  0  0  0  0
   -6.6970   17.0230  -33.2370 C   0  0  0  0  0  0  0  0  0  0  0  0
   -5.9190   20.4100  -32.3720 C   0  0  0  0  0  0  0  0  0  0  0  0
   -6.4120   21.5150  -31.6680 C   0  0  0  0  0  0  0  0  0  0  0  0
   -0.0844   23.5345  -28.6761 H   0  0  0  0  0  0  0  0  0  0  0  0
   -0.9473   22.5740  -29.9249 H   0  0  0  0  0  0  0  0  0  0  0  0
   -1.0724   24.3659  -29.9249 H   0  0  0  0  0  0  0  0  0  0  0  0
   -2.2863   23.9371  -26.3850 H   0  0  0  0  0  0  0  0  0  0  0  0
   -1.6364   25.2009  -27.4837 H   0  0  0  0  0  0  0  0  0  0  0  0
   -3.3936   24.8280  -27.4837 H   0  0  0  0  0  0  0  0  0  0  0  0
   -1.8531   21.0006  -29.6495 H   0  0  0  0  0  0  0  0  0  0  0  0
   -3.4480   20.3032  -29.1719 H   0  0  0  0  0  0  0  0  0  0  0  0
   -4.3960   24.0260  -29.1180 H   0  0  0  0  0  0  0  0  0  0  0  0
   -4.9180   25.6730  -28.6360 H   0  0  0  0  0  0  0  0  0  0  0  0
   -8.8839   23.4385  -30.6637 H   0  0  0  0  0  0  0  0  0  0  0  0
   -9.7765   21.1261  -32.0836 H   0  0  0  0  0  0  0  0  0  0  0  0
   -8.9567   19.0938  -33.3167 H   0  0  0  0  0  0  0  0  0  0  0  0
   -6.3781   18.0989  -35.7891 H   0  0  0  0  0  0  0  0  0  0  0  0
   -5.5589   19.5888  -35.2197 H   0  0  0  0  0  0  0  0  0  0  0  0
   -3.9750   17.7811  -36.0060 H   0  0  0  0  0  0  0  0  0  0  0  0
   -3.7224   18.2937  -34.2907 H   0  0  0  0  0  0  0  0  0  0  0  0
   -3.1421   14.9452  -34.0142 H   0  0  0  0  0  0  0  0  0  0  0  0
   -4.0640   14.6001  -35.5168 H   0  0  0  0  0  0  0  0  0  0  0  0
   -2.7868   15.8633  -35.5168 H   0  0  0  0  0  0  0  0  0  0  0  0
   -7.6426   16.7016  -33.6981 H   0  0  0  0  0  0  0  0  0  0  0  0
   -6.7852   17.0454  -32.1408 H   0  0  0  0  0  0  0  0  0  0  0  0
   -4.8366   20.2308  -32.4517 H   0  0  0  0  0  0  0  0  0  0  0  0
  1  2  1  0
  2  3  1  0
  2  4  1  0
  4  5  2  0
  4  6  1  0
  6  7  1  0
  7  8  1  0
  8  9  2  0
  8 10  1  0
 10 11  1  0
 11 12  1  0
 12 13  1  0
 12 14  2  0
 11 15  2  0
 15 16  1  0
 16 17  2  0
 17 18  1  0
 18 19  2  0
 19 20  1  0
 20 21  1  0
 21 22  1  0
 22 23  1  0
 23 24  1  0
 23 25  1  0
 25 26  2  0
 25 27  1  0
 19 28  1  0
 28 29  2  0
 29 10  1  0
 29 16  1  0
 27 20  1  0
  1 30  1  0
  1 31  1  0
  1 32  1  0
  3 33  1  0
  3 34  1  0
  3 35  1  0
  6 36  1  0
  6 37  1  0
 13 38  1  0
 13 39  1  0
 15 40  1  0
 17 41  1  0
 18 42  1  0
 21 43  1  0
 21 44  1  0
 22 45  1  0
 22 46  1  0
 24 47  1  0
 24 48  1  0
 24 49  1  0
 27 50  1  0
 27 51  1  0
 28 52  1  0
M  END
>  <UniqueID>  (65) 
65

>  <SMILES>  (65) 
CN(C)C(=O)COC(=O)n1c(C(N)=O)cc2ccc(N3CCN(C)C(=O)C3)cc21

>  <Energy>  (65) 
89.3704721838935

>  <Genealogy>  (65) 
CN(C)C(=O)COC(=O)n1c(C(N)=O)cc2ccc(N3CCN(C)C(=O)C3)cc21 (3D coordinates assigned)
CN(C)C(=O)COC(=O)n1c(C(N)=O)cc2ccc(N3CCN(C)C(=O)C3)cc21 (nonaromatic ring conformer: 89.3704721838935 kcal/mol)

>  <smiles>  (65) 
CN(C)C(=O)COC(=O)n1c(C(N)=O)cc2ccc(N3CCN(C)C(=O)C3)cc21

>  <score_type>  (65) 
oracle

>  <origin>  (65) 
adg

>  <m_score__min__energy>  (65) 
-9.9499999999999993

>  <m_primary>  (65) 
energy

$$$$
66:0
     RDKit          3D

 42 44  0  0  0  0  0  0  0  0999 V2000
   -4.1840   24.3770  -27.1350 C   0  0  0  0  0  0  0  0  0  0  0  0
   -2.7500   24.5880  -27.3360 N   0  0  0  0  0  0  0  0  0  0  0  0
   -2.1230   24.1810  -28.5680 C   0  0  0  0  0  0  0  0  0  0  0  0
   -1.6630   25.0540  -29.3520 O   0  0  0  0  0  0  0  0  0  0  0  0
   -1.9870   22.7290  -28.9470 C   0  0  0  0  0  0  0  0  0  0  0  0
   -3.2050   22.2550  -29.5160 O   0  0  0  0  0  0  0  0  0  0  0  0
   -3.6540   22.6410  -30.7850 C   0  0  0  0  0  0  0  0  0  0  0  0
   -2.8310   22.8480  -31.7180 O   0  0  0  0  0  0  0  0  0  0  0  0
   -5.0560   22.8270  -31.0160 N   0  0  0  0  0  0  0  0  0  0  0  0
   -5.7550   23.9970  -31.0230 C   0  0  0  0  0  0  0  0  0  0  0  0
   -5.2360   25.3150  -30.6150 C   0  0  0  0  0  0  0  0  0  0  0  0
   -3.8720   25.6660  -30.8390 N   0  0  0  0  0  0  0  0  0  0  0  0
   -5.9950   26.1310  -30.0270 O   0  0  0  0  0  0  0  0  0  0  0  0
   -7.0790   23.7710  -31.3940 C   0  0  0  0  0  0  0  0  0  0  0  0
   -7.1720   22.4180  -31.6130 C   0  0  0  0  0  0  0  0  0  0  0  0
   -8.2590   21.6490  -32.0150 C   0  0  0  0  0  0  0  0  0  0  0  0
   -8.0570   20.2720  -32.2030 C   0  0  0  0  0  0  0  0  0  0  0  0
   -6.7730   19.6940  -32.0160 C   0  0  0  0  0  0  0  0  0  0  0  0
   -6.5470   18.2170  -32.2200 C   0  0  0  0  0  0  0  0  0  0  0  0
   -6.3590   17.6080  -30.9910 F   0  0  0  0  0  0  0  0  0  0  0  0
   -7.6270   17.6250  -32.8530 F   0  0  0  0  0  0  0  0  0  0  0  0
   -5.4220   18.0140  -32.9990 F   0  0  0  0  0  0  0  0  0  0  0  0
   -5.7010   20.5060  -31.5850 C   0  0  0  0  0  0  0  0  0  0  0  0
   -5.9370   21.8700  -31.3830 C   0  0  0  0  0  0  0  0  0  0  0  0
   -1.8870   24.7840  -26.1650 C   0  0  0  0  0  0  0  0  0  0  0  0
   -2.0000   26.1400  -25.4800 C   0  0  0  0  0  0  0  0  0  0  0  0
   -0.8130   25.8430  -26.3770 C   0  0  0  0  0  0  0  0  0  0  0  0
   -4.4024   24.3449  -26.0574 H   0  0  0  0  0  0  0  0  0  0  0  0
   -4.7445   25.2023  -27.5983 H   0  0  0  0  0  0  0  0  0  0  0  0
   -4.4830   23.4252  -27.5983 H   0  0  0  0  0  0  0  0  0  0  0  0
   -1.1754   22.6192  -29.6814 H   0  0  0  0  0  0  0  0  0  0  0  0
   -1.7582   22.1416  -28.0456 H   0  0  0  0  0  0  0  0  0  0  0  0
   -3.1330   24.9280  -30.9320 H   0  0  0  0  0  0  0  0  0  0  0  0
   -7.8804   24.5182  -31.4910 H   0  0  0  0  0  0  0  0  0  0  0  0
   -9.2462   22.1052  -32.1805 H   0  0  0  0  0  0  0  0  0  0  0  0
   -8.9028   19.6337  -32.4984 H   0  0  0  0  0  0  0  0  0  0  0  0
   -4.7034   20.0759  -31.4121 H   0  0  0  0  0  0  0  0  0  0  0  0
   -1.9179   23.7416  -25.8151 H   0  0  0  0  0  0  0  0  0  0  0  0
   -2.7682   26.8574  -25.8044 H   0  0  0  0  0  0  0  0  0  0  0  0
   -2.1231   26.4776  -24.4403 H   0  0  0  0  0  0  0  0  0  0  0  0
   -0.7211   26.3453  -27.3513 H   0  0  0  0  0  0  0  0  0  0  0  0
    0.2798   25.8764  -26.2561 H   0  0  0  0  0  0  0  0  0  0  0  0
  1  2  1  0
  2  3  1  0
  3  4  2  0
  3  5  1  0
  5  6  1  0
  6  7  1  0
  7  8  2  0
  7  9  1  0
  9 10  1  0
 10 11  1  0
 11 12  1  0
 11 13  2  0
 10 14  2  0
 14 15  1  0
 15 16  2  0
 16 17  1  0
 17 18  2  0
 18 19  1  0
 19 20  1  0
 19 21  1  0
 19 22  1  0
 18 23  1  0
 23 24  2  0
  2 25  1  0
 25 26  1  0
 26 27  1  0
 24  9  1  0
 27 25  1  0
 24 15  1  0
  1 28  1  0
  1 29  1  0
  1 30  1  0
  5 31  1  0
  5 32  1  0
 12 33  1  0
 14 34  1  0
 16 35  1  0
 17 36  1  0
 23 37  1  0
 25 38  1  0
 26 39  1  0
 26 40  1  0
 27 41  1  0
 27 42  1  0
M  CHG  1  12  -1
M  END
>  <UniqueID>  (66) 
66

>  <SMILES>  (66) 
CN(C(=O)COC(=O)n1c(C([NH-])=O)cc2ccc(C(F)(F)F)cc21)C1CC1

>  <Energy>  (66) 
347.60720017310325

>  <Genealogy>  (66) 
CN(C(=O)COC(=O)n1c(C([NH-])=O)cc2ccc(C(F)(F)F)cc21)C1CC1 (protonated)
CN(C(=O)COC(=O)n1c(C([NH-])=O)cc2ccc(C(F)(F)F)cc21)C1CC1 (3D coordinates assigned)
CN(C(=O)COC(=O)n1c(C([NH-])=O)cc2ccc(C(F)(F)F)cc21)C1CC1 (nonaromatic ring conformer: 347.60720017310325 kcal/mol)

>  <smiles>  (66) 
CN(C(=O)COC(=O)n1c(C(N)=O)cc2ccc(C(F)(F)F)cc21)C1CC1

>  <score_type>  (66) 
oracle

>  <origin>  (66) 
adg

>  <m_score__min__energy>  (66) 
-10.33

>  <m_primary>  (66) 
energy

$$$$
67:0
     RDKit          3D

 43 44  0  0  0  0  0  0  0  0999 V2000
   -4.0730   24.1620  -27.4630 C   0  0  0  0  0  0  0  0  0  0  0  0
   -2.9970   24.4930  -28.3300 O   0  0  0  0  0  0  0  0  0  0  0  0
   -2.2520   23.5250  -29.0100 C   0  0  0  0  0  0  0  0  0  0  0  0
   -1.2600   23.8540  -29.7170 O   0  0  0  0  0  0  0  0  0  0  0  0
   -2.5950   22.0800  -28.8440 C   0  0  0  0  0  0  0  0  0  0  0  0
   -3.2450   21.5920  -30.0150 O   0  0  0  0  0  0  0  0  0  0  0  0
   -3.7180   22.4270  -31.0330 C   0  0  0  0  0  0  0  0  0  0  0  0
   -2.9120   22.9960  -31.8190 O   0  0  0  0  0  0  0  0  0  0  0  0
   -5.1280   22.6650  -31.1640 N   0  0  0  0  0  0  0  0  0  0  0  0
   -5.7990   23.8350  -30.9740 C   0  0  0  0  0  0  0  0  0  0  0  0
   -5.2200   25.0900  -30.4510 C   0  0  0  0  0  0  0  0  0  0  0  0
   -3.8740   25.4390  -30.7670 N   0  0  0  0  0  0  0  0  0  0  0  0
   -5.9130   25.8770  -29.7520 O   0  0  0  0  0  0  0  0  0  0  0  0
   -7.1500   23.6770  -31.2780 C   0  0  0  0  0  0  0  0  0  0  0  0
   -7.2850   22.3620  -31.6620 C   0  0  0  0  0  0  0  0  0  0  0  0
   -8.4110   21.6660  -32.0900 C   0  0  0  0  0  0  0  0  0  0  0  0
   -8.2510   20.3210  -32.4640 C   0  0  0  0  0  0  0  0  0  0  0  0
   -6.9770   19.6980  -32.4120 C   0  0  0  0  0  0  0  0  0  0  0  0
   -6.8240   18.2530  -32.8430 C   0  0  1  0  0  0  0  0  0  0  0  0
   -6.1610   18.1520  -34.2240 C   0  0  0  0  0  0  0  0  0  0  0  0
   -6.0760   17.4660  -31.8030 C   0  0  0  0  0  0  0  0  0  0  0  0
   -6.4920   17.4210  -30.6120 O   0  0  0  0  0  0  0  0  0  0  0  0
   -4.9400   16.7450  -32.1830 O   0  0  0  0  0  0  0  0  0  0  0  0
   -4.9640   15.3400  -32.4110 C   0  0  0  0  0  0  0  0  0  0  0  0
   -5.8580   20.4420  -31.9670 C   0  0  0  0  0  0  0  0  0  0  0  0
   -6.0510   21.7740  -31.5850 C   0  0  0  0  0  0  0  0  0  0  0  0
   -3.7458   24.2626  -26.4176 H   0  0  0  0  0  0  0  0  0  0  0  0
   -4.9172   24.8420  -27.6501 H   0  0  0  0  0  0  0  0  0  0  0  0
   -4.3890   23.1251  -27.6501 H   0  0  0  0  0  0  0  0  0  0  0  0
   -1.6731   21.5047  -28.6734 H   0  0  0  0  0  0  0  0  0  0  0  0
   -3.2716   21.9676  -27.9840 H   0  0  0  0  0  0  0  0  0  0  0  0
   -3.0830   24.8060  -30.5140 H   0  0  0  0  0  0  0  0  0  0  0  0
   -7.9400   24.4404  -31.2228 H   0  0  0  0  0  0  0  0  0  0  0  0
   -9.3961   22.1535  -32.1343 H   0  0  0  0  0  0  0  0  0  0  0  0
   -9.1244   19.7436  -32.8014 H   0  0  0  0  0  0  0  0  0  0  0  0
   -7.8274   17.8119  -32.9357 H   0  0  0  0  0  0  0  0  0  0  0  0
   -5.0804   17.9874  -34.1008 H   0  0  0  0  0  0  0  0  0  0  0  0
   -6.5990   17.3102  -34.7804 H   0  0  0  0  0  0  0  0  0  0  0  0
   -6.3285   19.0860  -34.7804 H   0  0  0  0  0  0  0  0  0  0  0  0
   -4.9730   14.8120  -31.4460 H   0  0  0  0  0  0  0  0  0  0  0  0
   -5.8668   15.0765  -32.9816 H   0  0  0  0  0  0  0  0  0  0  0  0
   -4.0707   15.0458  -32.9816 H   0  0  0  0  0  0  0  0  0  0  0  0
   -4.8592   19.9832  -31.9225 H   0  0  0  0  0  0  0  0  0  0  0  0
  1  2  1  0
  2  3  1  0
  3  4  2  0
  3  5  1  0
  5  6  1  0
  6  7  1  0
  7  8  2  0
  7  9  1  0
  9 10  1  0
 10 11  1  0
 11 12  1  0
 11 13  2  0
 10 14  2  0
 14 15  1  0
 15 16  2  0
 16 17  1  0
 17 18  2  0
 18 19  1  0
 19 20  1  0
 19 21  1  0
 21 22  2  0
 21 23  1  0
 23 24  1  0
 18 25  1  0
 25 26  2  0
 26  9  1  0
 26 15  1  0
  1 27  1  0
  1 28  1  0
  1 29  1  0
  5 30  1  0
  5 31  1  0
 12 32  1  0
 14 33  1  0
 16 34  1  0
 17 35  1  0
 19 36  1  6
 20 37  1  0
 20 38  1  0
 20 39  1  0
 24 40  1  0
 24 41  1  0
 24 42  1  0
 25 43  1  0
M  CHG  1  12  -1
M  END
>  <UniqueID>  (67) 
67

>  <SMILES>  (67) 
COC(=O)COC(=O)n1c(C([NH-])=O)cc2ccc([C@@H](C)C(=O)OC)cc21

>  <Energy>  (67) 
72.73386085972145

>  <Genealogy>  (67) 
COC(=O)COC(=O)n1c(C([NH-])=O)cc2ccc(C(C)C(=O)OC)cc21 (protonated)
COC(=O)COC(=O)n1c(C([NH-])=O)cc2ccc([C@@H](C)C(=O)OC)cc21 (chirality)
COC(=O)COC(=O)n1c(C([NH-])=O)cc2ccc([C@@H](C)C(=O)OC)cc21 (3D coordinates assigned)
COC(=O)COC(=O)n1c(C([NH-])=O)cc2ccc([C@@H](C)C(=O)OC)cc21 (optimized conformer: 72.73386085972145 kcal/mol)

>  <smiles>  (67) 
COC(=O)COC(=O)n1c(C(N)=O)cc2ccc(C(C)C(=O)OC)cc21

>  <score_type>  (67) 
oracle

>  <origin>  (67) 
adg

>  <m_score__min__energy>  (67) 
-10.300000000000001

>  <m_primary>  (67) 
energy

$$$$
68:0
     RDKit          3D

 35 36  0  0  0  0  0  0  0  0999 V2000
   -3.5970   25.1830  -29.7730 N   0  0  0  0  0  0  0  0  0  0  0  0
   -4.9790   25.2580  -30.1290 C   0  0  0  0  0  0  0  0  0  0  0  0
   -5.5620   26.3740  -30.1080 O   0  0  0  0  0  0  0  0  0  0  0  0
   -5.7190   24.0610  -30.5780 C   0  0  0  0  0  0  0  0  0  0  0  0
   -7.0440   24.0960  -31.0050 C   0  0  0  0  0  0  0  0  0  0  0  0
   -7.3300   22.8090  -31.4020 C   0  0  0  0  0  0  0  0  0  0  0  0
   -8.5080   22.2740  -31.9140 C   0  0  0  0  0  0  0  0  0  0  0  0
   -8.5300   20.9020  -32.2160 C   0  0  0  0  0  0  0  0  0  0  0  0
   -7.3930   20.0870  -31.9770 C   0  0  0  0  0  0  0  0  0  0  0  0
   -7.4190   18.6230  -32.3390 C   0  0  0  0  0  0  0  0  0  0  0  0
   -6.8760   18.4570  -33.5990 F   0  0  0  0  0  0  0  0  0  0  0  0
   -8.7170   18.1420  -32.3390 F   0  0  0  0  0  0  0  0  0  0  0  0
   -6.6840   17.8820  -31.4290 F   0  0  0  0  0  0  0  0  0  0  0  0
   -6.2090   20.6740  -31.4750 C   0  0  0  0  0  0  0  0  0  0  0  0
   -6.2070   22.0470  -31.2030 C   0  0  0  0  0  0  0  0  0  0  0  0
   -5.2090   22.8030  -30.6930 N   0  0  0  0  0  0  0  0  0  0  0  0
   -3.9180   22.3430  -30.2630 C   0  0  0  0  0  0  0  0  0  0  0  0
   -3.5850   22.4500  -29.0520 O   0  0  0  0  0  0  0  0  0  0  0  0
   -3.0360   21.7780  -31.1910 O   0  0  0  0  0  0  0  0  0  0  0  0
   -1.9320   20.9520  -30.8260 C   0  0  0  0  0  0  0  0  0  0  0  0
   -0.8720   21.7600  -30.0760 C   0  0  0  0  0  0  0  0  0  0  0  0
   -1.1890   23.1510  -30.0870 O   0  0  0  0  0  0  0  0  0  0  0  0
   -0.8650   24.0230  -29.0430 C   0  0  0  0  0  0  0  0  0  0  0  0
   -1.1870   25.2390  -29.0870 O   0  0  0  0  0  0  0  0  0  0  0  0
    0.0100   23.4120  -27.6550 Cl  0  0  0  0  0  0  0  0  0  0  0  0
   -3.0420   24.3170  -29.9450 H   0  0  0  0  0  0  0  0  0  0  0  0
   -3.1030   26.0300  -29.4160 H   0  0  0  0  0  0  0  0  0  0  0  0
   -7.7177   24.9654  -31.0216 H   0  0  0  0  0  0  0  0  0  0  0  0
   -9.3940   22.9052  -32.0772 H   0  0  0  0  0  0  0  0  0  0  0  0
   -9.4395   20.4541  -32.6429 H   0  0  0  0  0  0  0  0  0  0  0  0
   -5.3093   20.0653  -31.3020 H   0  0  0  0  0  0  0  0  0  0  0  0
   -2.2896   20.1379  -30.1784 H   0  0  0  0  0  0  0  0  0  0  0  0
   -1.4803   20.5433  -31.7419 H   0  0  0  0  0  0  0  0  0  0  0  0
   -0.8230   21.4102  -29.0343 H   0  0  0  0  0  0  0  0  0  0  0  0
    0.0974   21.6168  -30.5758 H   0  0  0  0  0  0  0  0  0  0  0  0
  1  2  1  0
  2  3  2  0
  2  4  1  0
  4  5  2  0
  5  6  1  0
  6  7  2  0
  7  8  1  0
  8  9  2  0
  9 10  1  0
 10 11  1  0
 10 12  1  0
 10 13  1  0
  9 14  1  0
 14 15  2  0
 15 16  1  0
 16 17  1  0
 17 18  2  0
 17 19  1  0
 19 20  1  0
 20 21  1  0
 21 22  1  0
 22 23  1  0
 23 24  2  0
 23 25  1  0
 16  4  1  0
 15  6  1  0
  1 26  1  0
  1 27  1  0
  5 28  1  0
  7 29  1  0
  8 30  1  0
 14 31  1  0
 20 32  1  0
 20 33  1  0
 21 34  1  0
 21 35  1  0
M  END
>  <UniqueID>  (68) 
68

>  <SMILES>  (68) 
NC(=O)c1cc2ccc(C(F)(F)F)cc2n1C(=O)OCCOC(=O)Cl

>  <Energy>  (68) 
70.39571156065335

>  <Genealogy>  (68) 
NC(=O)c1cc2ccc(C(F)(F)F)cc2n1C(=O)OCCOC(=O)Cl (3D coordinates assigned)
NC(=O)c1cc2ccc(C(F)(F)F)cc2n1C(=O)OCCOC(=O)Cl (optimized conformer: 70.39571156065335 kcal/mol)

>  <smiles>  (68) 
NC(=O)c1cc2ccc(C(F)(F)F)cc2n1C(=O)OCCOC(=O)Cl

>  <score_type>  (68) 
oracle

>  <origin>  (68) 
adg

>  <m_score__min__energy>  (68) 
-7.5199999999999996

>  <m_primary>  (68) 
energy

$$$$
69:0
     RDKit          3D

 45 48  0  0  0  0  0  0  0  0999 V2000
   -4.3740   15.4890  -32.8040 C   0  0  0  0  0  0  0  0  0  0  0  0
   -5.0290   15.8890  -34.0410 N   0  0  0  0  0  0  0  0  0  0  0  0
   -5.5820   17.1860  -34.2900 C   0  0  0  0  0  0  0  0  0  0  0  0
   -5.3580   17.7340  -35.4010 O   0  0  0  0  0  0  0  0  0  0  0  0
   -6.3990   17.8980  -33.2860 C   0  0  0  0  0  0  0  0  0  0  0  0
   -7.2940   17.2960  -32.4210 C   0  0  0  0  0  0  0  0  0  0  0  0
   -7.8610   18.3100  -31.6750 C   0  0  0  0  0  0  0  0  0  0  0  0
   -7.2950   19.4890  -32.1130 C   0  0  0  0  0  0  0  0  0  0  0  0
   -6.4090   19.2380  -33.0980 N   0  0  0  0  0  0  0  0  0  0  0  0
   -5.6110   20.2520  -33.7940 C   0  0  0  0  0  0  0  0  0  0  0  0
   -4.4390   20.6850  -32.9500 C   0  0  0  0  0  0  0  0  0  0  0  0
   -3.2560   19.9070  -32.9240 C   0  0  0  0  0  0  0  0  0  0  0  0
   -2.1510   20.3070  -32.1540 C   0  0  0  0  0  0  0  0  0  0  0  0
   -2.2560   21.4870  -31.4250 C   0  0  0  0  0  0  0  0  0  0  0  0
   -1.3360   22.1150  -30.6170 C   0  0  0  0  0  0  0  0  0  0  0  0
   -1.9750   23.2630  -30.1530 C   0  0  0  0  0  0  0  0  0  0  0  0
   -1.3710   24.1900  -29.1740 C   0  0  0  0  0  0  0  0  0  0  0  0
   -1.9500   25.4750  -28.9600 N   0  0  0  0  0  0  0  0  0  0  0  0
   -0.3250   23.8740  -28.5470 O   0  0  0  0  0  0  0  0  0  0  0  0
   -3.2370   23.3460  -30.6610 N   0  0  0  0  0  0  0  0  0  0  0  0
   -4.1910   24.4050  -30.4810 C   0  0  0  0  0  0  0  0  0  0  0  0
   -3.8930   25.5780  -30.8300 O   0  0  0  0  0  0  0  0  0  0  0  0
   -5.4530   24.1250  -29.8640 N   0  0  0  0  0  0  0  0  0  0  0  0
   -6.5800   23.4860  -30.4770 C   0  0  0  0  0  0  0  0  0  0  0  0
   -7.4300   22.5350  -29.9550 C   0  0  0  0  0  0  0  0  0  0  0  0
   -8.3650   22.2540  -30.8830 N   0  0  0  0  0  0  0  0  0  0  0  0
   -8.1140   22.9950  -31.9270 O   0  0  0  0  0  0  0  0  0  0  0  0
   -7.0590   23.7530  -31.7360 C   0  0  0  0  0  0  0  0  0  0  0  0
   -3.3950   22.2500  -31.4350 C   0  0  0  0  0  0  0  0  0  0  0  0
   -4.5030   21.8870  -32.2080 C   0  0  0  0  0  0  0  0  0  0  0  0
   -4.9611   15.8475  -31.9457 H   0  0  0  0  0  0  0  0  0  0  0  0
   -4.3011   14.3921  -32.7658 H   0  0  0  0  0  0  0  0  0  0  0  0
   -3.3649   15.9251  -32.7658 H   0  0  0  0  0  0  0  0  0  0  0  0
   -7.5115   16.2206  -32.3426 H   0  0  0  0  0  0  0  0  0  0  0  0
   -8.6177   18.1990  -30.8844 H   0  0  0  0  0  0  0  0  0  0  0  0
   -7.5316   20.4876  -31.7169 H   0  0  0  0  0  0  0  0  0  0  0  0
   -5.2383   19.8308  -34.7394 H   0  0  0  0  0  0  0  0  0  0  0  0
   -6.2472   21.1279  -33.9888 H   0  0  0  0  0  0  0  0  0  0  0  0
   -3.2017   18.9796  -33.5130 H   0  0  0  0  0  0  0  0  0  0  0  0
   -1.2306   19.7052  -32.1284 H   0  0  0  0  0  0  0  0  0  0  0  0
   -0.3134   21.7816  -30.3864 H   0  0  0  0  0  0  0  0  0  0  0  0
   -2.9220   25.6850  -29.2770 H   0  0  0  0  0  0  0  0  0  0  0  0
   -7.3575   22.0838  -28.9544 H   0  0  0  0  0  0  0  0  0  0  0  0
   -6.6359   24.4711  -32.4538 H   0  0  0  0  0  0  0  0  0  0  0  0
   -5.4016   22.5208  -32.2379 H   0  0  0  0  0  0  0  0  0  0  0  0
  1  2  1  0
  2  3  1  0
  3  4  2  0
  3  5  1  0
  5  6  2  0
  6  7  1  0
  7  8  2  0
  8  9  1  0
  9 10  1  0
 10 11  1  0
 11 12  2  0
 12 13  1  0
 13 14  2  0
 14 15  1  0
 15 16  2  0
 16 17  1  0
 17 18  1  0
 17 19  2  0
 16 20  1  0
 20 21  1  0
 21 22  2  0
 21 23  1  0
 23 24  1  0
 24 25  1  0
 25 26  2  0
 26 27  1  0
 27 28  1  0
 20 29  1  0
 29 30  2  0
  9  5  1  0
 30 11  1  0
 29 14  1  0
 28 24  2  0
  1 31  1  0
  1 32  1  0
  1 33  1  0
  6 34  1  0
  7 35  1  0
  8 36  1  0
 10 37  1  0
 10 38  1  0
 12 39  1  0
 13 40  1  0
 15 41  1  0
 18 42  1  0
 25 43  1  0
 28 44  1  0
 30 45  1  0
M  CHG  3   2  -1  18  -1  23  -1
M  END
>  <UniqueID>  (69) 
69

>  <SMILES>  (69) 
C[N-]C(=O)c1cccn1Cc1ccc2cc(C([NH-])=O)n(C(=O)[N-]c3cnoc3)c2c1

>  <Energy>  (69) 
149.4435957358135

>  <Genealogy>  (69) 
C[N-]C(=O)c1cccn1Cc1ccc2cc(C([NH-])=O)n(C(=O)[N-]c3cnoc3)c2c1 (protonated)
C[N-]C(=O)c1cccn1Cc1ccc2cc(C([NH-])=O)n(C(=O)[N-]c3cnoc3)c2c1 (3D coordinates assigned)
C[N-]C(=O)c1cccn1Cc1ccc2cc(C([NH-])=O)n(C(=O)[N-]c3cnoc3)c2c1 (optimized conformer: 149.4435957358135 kcal/mol)

>  <smiles>  (69) 
CNC(=O)c1cccn1Cc1ccc2cc(C(N)=O)n(C(=O)Nc3cnoc3)c2c1

>  <score_type>  (69) 
oracle

>  <origin>  (69) 
adg

>  <m_score__min__energy>  (69) 
-12.130000000000001

>  <m_primary>  (69) 
energy

$$$$
70:0
     RDKit          3D

 44 45  0  0  0  0  0  0  0  0999 V2000
   -3.1700   20.1790  -31.1920 C   0  0  0  0  0  0  0  0  0  0  0  0
   -3.0880   21.5020  -31.3830 C   0  0  0  0  0  0  0  0  0  0  0  0
   -1.8320   22.2230  -30.9550 C   0  0  0  0  0  0  0  0  0  0  0  0
   -2.0720   22.9910  -29.7330 N   0  0  0  0  0  0  0  0  0  0  0  0
   -1.8490   22.4520  -28.4260 C   0  0  0  0  0  0  0  0  0  0  0  0
   -1.3410   21.3050  -28.2870 O   0  0  0  0  0  0  0  0  0  0  0  0
   -2.2150   23.2070  -27.3060 O   0  0  0  0  0  0  0  0  0  0  0  0
   -1.5480   24.4060  -26.9170 C   0  0  2  0  0  0  0  0  0  0  0  0
   -2.5670   25.3830  -26.3380 C   0  0  0  0  0  0  0  0  0  0  0  0
   -0.8630   25.0190  -28.1040 C   0  0  0  0  0  0  0  0  0  0  0  0
    0.3880   24.9450  -28.2220 O   0  0  0  0  0  0  0  0  0  0  0  0
   -1.6060   25.6930  -29.0650 O   0  0  0  0  0  0  0  0  0  0  0  0
   -4.2020   22.2530  -32.0210 C   0  0  0  0  0  0  0  0  0  0  0  0
   -4.1010   22.6220  -33.2210 O   0  0  0  0  0  0  0  0  0  0  0  0
   -5.4040   22.5650  -31.2980 N   0  0  0  0  0  0  0  0  0  0  0  0
   -5.5610   23.4960  -30.3170 C   0  0  0  0  0  0  0  0  0  0  0  0
   -4.5340   24.4640  -29.8790 C   0  0  0  0  0  0  0  0  0  0  0  0
   -3.8460   25.2560  -30.8460 N   0  0  0  0  0  0  0  0  0  0  0  0
   -4.2430   24.5880  -28.6600 O   0  0  0  0  0  0  0  0  0  0  0  0
   -6.8520   23.4400  -29.7940 C   0  0  0  0  0  0  0  0  0  0  0  0
   -7.4830   22.4320  -30.4880 C   0  0  0  0  0  0  0  0  0  0  0  0
   -8.7740   21.9300  -30.3620 C   0  0  0  0  0  0  0  0  0  0  0  0
   -9.1480   20.8600  -31.1940 C   0  0  0  0  0  0  0  0  0  0  0  0
   -8.2310   20.3190  -32.1290 C   0  0  0  0  0  0  0  0  0  0  0  0
   -8.6240   19.1590  -32.9930 C   0  0  0  0  0  0  0  0  0  0  0  0
   -6.9240   20.8440  -32.2180 C   0  0  0  0  0  0  0  0  0  0  0  0
   -6.5850   21.9170  -31.3870 C   0  0  0  0  0  0  0  0  0  0  0  0
   -4.0759   19.6344  -31.4965 H   0  0  0  0  0  0  0  0  0  0  0  0
   -2.3314   19.6369  -30.7306 H   0  0  0  0  0  0  0  0  0  0  0  0
   -1.0372   21.4857  -30.7687 H   0  0  0  0  0  0  0  0  0  0  0  0
   -1.5288   22.9141  -31.7553 H   0  0  0  0  0  0  0  0  0  0  0  0
   -2.4770   23.9500  -29.8150 H   0  0  0  0  0  0  0  0  0  0  0  0
   -0.7903   24.1741  -26.1541 H   0  0  0  0  0  0  0  0  0  0  0  0
   -2.5278   25.3454  -25.2393 H   0  0  0  0  0  0  0  0  0  0  0  0
   -2.3323   26.4023  -26.6786 H   0  0  0  0  0  0  0  0  0  0  0  0
   -3.5755   25.1057  -26.6786 H   0  0  0  0  0  0  0  0  0  0  0  0
   -2.8040   25.3260  -30.8390 H   0  0  0  0  0  0  0  0  0  0  0  0
   -7.2763   24.0676  -28.9965 H   0  0  0  0  0  0  0  0  0  0  0  0
   -9.4801   22.3566  -29.6344 H   0  0  0  0  0  0  0  0  0  0  0  0
  -10.1615   20.4391  -31.1184 H   0  0  0  0  0  0  0  0  0  0  0  0
   -8.9120   18.3090  -32.3569 H   0  0  0  0  0  0  0  0  0  0  0  0
   -9.4749   19.4465  -33.6281 H   0  0  0  0  0  0  0  0  0  0  0  0
   -7.7736   18.8701  -33.6281 H   0  0  0  0  0  0  0  0  0  0  0  0
   -6.1919   20.4210  -32.9216 H   0  0  0  0  0  0  0  0  0  0  0  0
  1  2  2  0
  2  3  1  0
  3  4  1  0
  4  5  1  0
  5  6  2  0
  5  7  1  0
  7  8  1  0
  8  9  1  0
  8 10  1  0
 10 11  2  0
 10 12  1  0
  2 13  1  0
 13 14  2  0
 13 15  1  0
 15 16  1  0
 16 17  1  0
 17 18  1  0
 17 19  2  0
 16 20  2  0
 20 21  1  0
 21 22  2  0
 22 23  1  0
 23 24  2  0
 24 25  1  0
 24 26  1  0
 26 27  2  0
 27 15  1  0
 27 21  1  0
  1 28  1  0
  1 29  1  0
  3 30  1  0
  3 31  1  0
  4 32  1  0
  8 33  1  1
  9 34  1  0
  9 35  1  0
  9 36  1  0
 18 37  1  0
 20 38  1  0
 22 39  1  0
 23 40  1  0
 25 41  1  0
 25 42  1  0
 25 43  1  0
 26 44  1  0
M  CHG  2  12  -1  18  -1
M  END
>  <UniqueID>  (70) 
70

>  <SMILES>  (70) 
C=C(CNC(=O)O[C@H](C)C(=O)[O-])C(=O)n1c(C([NH-])=O)cc2ccc(C)cc21

>  <Energy>  (70) 
73.64075678396058

>  <Genealogy>  (70) 
C=C(CNC(=O)OC(C)C(=O)[O-])C(=O)n1c(C([NH-])=O)cc2ccc(C)cc21 (protonated)
C=C(CNC(=O)O[C@H](C)C(=O)[O-])C(=O)n1c(C([NH-])=O)cc2ccc(C)cc21 (chirality)
C=C(CNC(=O)O[C@H](C)C(=O)[O-])C(=O)n1c(C([NH-])=O)cc2ccc(C)cc21 (3D coordinates assigned)
C=C(CNC(=O)O[C@H](C)C(=O)[O-])C(=O)n1c(C([NH-])=O)cc2ccc(C)cc21 (optimized conformer: 73.64075678396058 kcal/mol)

>  <smiles>  (70) 
C=C(CNC(=O)OC(C)C(=O)O)C(=O)n1c(C(N)=O)cc2ccc(C)cc21

>  <score_type>  (70) 
oracle

>  <origin>  (70) 
adg

>  <m_score__min__energy>  (70) 
-12.75

>  <m_primary>  (70) 
energy

$$$$
71:0
     RDKit          3D

 35 36  0  0  0  0  0  0  0  0999 V2000
   -3.9350   25.6620  -30.8370 N   0  0  0  0  0  0  0  0  0  0  0  0
   -5.2570   25.2750  -30.4700 C   0  0  0  0  0  0  0  0  0  0  0  0
   -5.9400   26.0330  -29.7330 O   0  0  0  0  0  0  0  0  0  0  0  0
   -5.7950   23.9740  -30.9240 C   0  0  0  0  0  0  0  0  0  0  0  0
   -7.1570   23.6890  -30.9940 C   0  0  0  0  0  0  0  0  0  0  0  0
   -7.2380   22.4310  -31.5460 C   0  0  0  0  0  0  0  0  0  0  0  0
   -8.3540   21.6500  -31.8360 C   0  0  0  0  0  0  0  0  0  0  0  0
   -8.1410   20.3750  -32.3830 C   0  0  0  0  0  0  0  0  0  0  0  0
   -6.8260   19.9020  -32.6230 C   0  0  0  0  0  0  0  0  0  0  0  0
   -6.6030   18.5300  -33.1920 C   0  0  0  0  0  0  0  0  0  0  0  0
   -5.7710   18.6110  -34.2950 F   0  0  0  0  0  0  0  0  0  0  0  0
   -6.0160   17.7200  -32.2370 F   0  0  0  0  0  0  0  0  0  0  0  0
   -5.7190   20.7210  -32.3140 C   0  0  0  0  0  0  0  0  0  0  0  0
   -5.9610   21.9950  -31.7850 C   0  0  0  0  0  0  0  0  0  0  0  0
   -5.0620   22.9290  -31.4050 N   0  0  0  0  0  0  0  0  0  0  0  0
   -3.6330   22.8040  -31.4580 C   0  0  0  0  0  0  0  0  0  0  0  0
   -3.0860   22.2520  -32.4500 O   0  0  0  0  0  0  0  0  0  0  0  0
   -2.8550   23.3190  -30.4150 O   0  0  0  0  0  0  0  0  0  0  0  0
   -2.0230   22.5130  -29.5810 C   0  0  0  0  0  0  0  0  0  0  0  0
   -1.0440   23.3740  -28.7730 C   0  0  0  0  0  0  0  0  0  0  0  0
   -1.6670   24.6970  -28.3130 C   0  0  0  0  0  0  0  0  0  0  0  0
   -1.3810   25.7280  -29.2200 O   0  0  0  0  0  0  0  0  0  0  0  0
   -3.1030   25.2020  -30.4070 H   0  0  0  0  0  0  0  0  0  0  0  0
   -7.9903   24.3326  -30.6757 H   0  0  0  0  0  0  0  0  0  0  0  0
   -9.3713   22.0210  -31.6423 H   0  0  0  0  0  0  0  0  0  0  0  0
   -9.0026   19.7365  -32.6279 H   0  0  0  0  0  0  0  0  0  0  0  0
   -7.5713   18.1035  -33.4927 H   0  0  0  0  0  0  0  0  0  0  0  0
   -4.6914   20.3674  -32.4844 H   0  0  0  0  0  0  0  0  0  0  0  0
   -2.6570   21.9430  -28.8859 H   0  0  0  0  0  0  0  0  0  0  0  0
   -1.4414   21.8344  -30.2223 H   0  0  0  0  0  0  0  0  0  0  0  0
   -0.7250   22.8071  -27.8859 H   0  0  0  0  0  0  0  0  0  0  0  0
   -0.1929   23.6150  -29.4268 H   0  0  0  0  0  0  0  0  0  0  0  0
   -2.7577   24.5748  -28.2391 H   0  0  0  0  0  0  0  0  0  0  0  0
   -1.2425   24.9632  -27.3337 H   0  0  0  0  0  0  0  0  0  0  0  0
   -2.0630   25.6710  -29.9400 H   0  0  0  0  0  0  0  0  0  0  0  0
  1  2  1  0
  2  3  2  0
  2  4  1  0
  4  5  2  0
  5  6  1  0
  6  7  2  0
  7  8  1  0
  8  9  2  0
  9 10  1  0
 10 11  1  0
 10 12  1  0
  9 13  1  0
 13 14  2  0
 14 15  1  0
 15 16  1  0
 16 17  2  0
 16 18  1  0
 18 19  1  0
 19 20  1  0
 20 21  1  0
 21 22  1  0
 15  4  1  0
 14  6  1  0
  1 23  1  0
  5 24  1  0
  7 25  1  0
  8 26  1  0
 10 27  1  0
 13 28  1  0
 19 29  1  0
 19 30  1  0
 20 31  1  0
 20 32  1  0
 21 33  1  0
 21 34  1  0
 22 35  1  0
M  CHG  1   1  -1
M  END
>  <UniqueID>  (71) 
71

>  <SMILES>  (71) 
[NH-]C(=O)c1cc2ccc(C(F)F)cc2n1C(=O)OCCCO

>  <Energy>  (71) 
68.09982489056371

>  <Genealogy>  (71) 
[NH-]C(=O)c1cc2ccc(C(F)F)cc2n1C(=O)OCCCO (protonated)
[NH-]C(=O)c1cc2ccc(C(F)F)cc2n1C(=O)OCCCO (3D coordinates assigned)
[NH-]C(=O)c1cc2ccc(C(F)F)cc2n1C(=O)OCCCO (optimized conformer: 68.09982489056371 kcal/mol)

>  <smiles>  (71) 
NC(=O)c1cc2ccc(C(F)F)cc2n1C(=O)OCCCO

>  <score_type>  (71) 
oracle

>  <origin>  (71) 
adg

>  <m_score__min__energy>  (71) 
-9.8300000000000001

>  <m_primary>  (71) 
energy

$$$$
72:0
     RDKit          3D

 46 47  0  0  0  0  0  0  0  0999 V2000
   -7.6070   18.5910  -32.3620 C   0  0  0  0  0  0  0  0  0  0  0  0
   -7.5340   19.9850  -31.8170 C   0  0  0  0  0  0  0  0  0  0  0  0
   -8.7050   20.6240  -31.3330 C   0  0  0  0  0  0  0  0  0  0  0  0
   -8.6560   21.9470  -30.8580 C   0  0  0  0  0  0  0  0  0  0  0  0
   -7.4290   22.6040  -30.8830 C   0  0  0  0  0  0  0  0  0  0  0  0
   -7.1060   23.8970  -30.5320 C   0  0  0  0  0  0  0  0  0  0  0  0
   -5.7490   24.0320  -30.8280 C   0  0  0  0  0  0  0  0  0  0  0  0
   -4.9650   25.2600  -30.5810 C   0  0  0  0  0  0  0  0  0  0  0  0
   -3.6490   25.1690  -30.0360 N   0  0  0  0  0  0  0  0  0  0  0  0
   -5.4530   26.3950  -30.8360 O   0  0  0  0  0  0  0  0  0  0  0  0
   -5.2590   22.8710  -31.3450 N   0  0  0  0  0  0  0  0  0  0  0  0
   -3.9400   22.6270  -31.8590 C   0  0  0  0  0  0  0  0  0  0  0  0
   -3.7910   21.8450  -32.8340 O   0  0  0  0  0  0  0  0  0  0  0  0
   -2.8120   23.2470  -31.3050 O   0  0  0  0  0  0  0  0  0  0  0  0
   -1.9430   22.6370  -30.3900 C   0  0  0  0  0  0  0  0  0  0  0  0
   -0.8470   22.1410  -30.7700 O   0  0  0  0  0  0  0  0  0  0  0  0
   -2.3470   22.5150  -28.9460 C   0  0  0  0  0  0  0  0  0  0  0  0
   -1.8590   23.7020  -28.0520 C   0  0  0  0  0  0  0  0  0  0  0  0
   -1.1070   23.0810  -26.8770 C   0  0  0  0  0  0  0  0  0  0  0  0
   -0.0060   23.4970  -26.5480 O   0  0  0  0  0  0  0  0  0  0  0  0
   -0.8900   24.5350  -28.8840 C   0  0  0  0  0  0  0  0  0  0  0  0
   -1.1820   25.6570  -29.2720 O   0  0  0  0  0  0  0  0  0  0  0  0
   -3.0080   24.5500  -27.5620 N   0  0  0  0  0  0  0  0  0  0  0  0
   -2.7180   25.2550  -26.2920 C   0  0  0  0  0  0  0  0  0  0  0  0
   -4.2650   23.7830  -27.3880 C   0  0  0  0  0  0  0  0  0  0  0  0
   -6.2940   22.0040  -31.3620 C   0  0  0  0  0  0  0  0  0  0  0  0
   -6.3110   20.6910  -31.8490 C   0  0  0  0  0  0  0  0  0  0  0  0
   -7.6446   17.8732  -31.5293 H   0  0  0  0  0  0  0  0  0  0  0  0
   -8.5119   18.4852  -32.9784 H   0  0  0  0  0  0  0  0  0  0  0  0
   -6.7181   18.3913  -32.9784 H   0  0  0  0  0  0  0  0  0  0  0  0
   -9.6606   20.0792  -31.3293 H   0  0  0  0  0  0  0  0  0  0  0  0
   -9.5593   22.4470  -30.4785 H   0  0  0  0  0  0  0  0  0  0  0  0
   -7.7755   24.6602  -30.1086 H   0  0  0  0  0  0  0  0  0  0  0  0
   -2.8090   25.2720  -30.6480 H   0  0  0  0  0  0  0  0  0  0  0  0
   -3.4450   22.4713  -28.8955 H   0  0  0  0  0  0  0  0  0  0  0  0
   -1.8712   21.6032  -28.5559 H   0  0  0  0  0  0  0  0  0  0  0  0
   -1.5620   22.2488  -26.3198 H   0  0  0  0  0  0  0  0  0  0  0  0
    0.0944   24.1168  -29.1410 H   0  0  0  0  0  0  0  0  0  0  0  0
   -3.2090   25.2860  -28.2790 H   0  0  0  0  0  0  0  0  0  0  0  0
   -2.9845   24.6072  -25.4439 H   0  0  0  0  0  0  0  0  0  0  0  0
   -1.6465   25.4990  -26.2445 H   0  0  0  0  0  0  0  0  0  0  0  0
   -3.3077   26.1824  -26.2445 H   0  0  0  0  0  0  0  0  0  0  0  0
   -4.4719   23.6567  -26.3150 H   0  0  0  0  0  0  0  0  0  0  0  0
   -5.0956   24.3283  -27.8599 H   0  0  0  0  0  0  0  0  0  0  0  0
   -4.1600   22.7950  -27.8599 H   0  0  0  0  0  0  0  0  0  0  0  0
   -5.3978   20.2228  -32.2452 H   0  0  0  0  0  0  0  0  0  0  0  0
  1  2  1  0
  2  3  2  0
  3  4  1  0
  4  5  2  0
  5  6  1  0
  6  7  2  0
  7  8  1  0
  8  9  1  0
  8 10  2  0
  7 11  1  0
 11 12  1  0
 12 13  2  0
 12 14  1  0
 14 15  1  0
 15 16  2  0
 15 17  1  0
 17 18  1  0
 18 19  1  0
 19 20  2  0
 18 21  1  0
 21 22  2  0
 18 23  1  0
 23 24  1  0
 23 25  1  0
 11 26  1  0
 26 27  2  0
 27  2  1  0
 26  5  1  0
  1 28  1  0
  1 29  1  0
  1 30  1  0
  3 31  1  0
  4 32  1  0
  6 33  1  0
  9 34  1  0
 17 35  1  0
 17 36  1  0
 19 37  1  0
 21 38  1  0
 23 39  1  0
 24 40  1  0
 24 41  1  0
 24 42  1  0
 25 43  1  0
 25 44  1  0
 25 45  1  0
 27 46  1  0
M  CHG  2   9  -1  23   1
M  END
>  <UniqueID>  (72) 
72

>  <SMILES>  (72) 
Cc1ccc2cc(C([NH-])=O)n(C(=O)OC(=O)CC(C=O)(C=O)[NH+](C)C)c2c1

>  <Energy>  (72) 
95.357524826727

>  <Genealogy>  (72) 
Cc1ccc2cc(C([NH-])=O)n(C(=O)OC(=O)CC(C=O)(C=O)[NH+](C)C)c2c1 (protonated)
Cc1ccc2cc(C([NH-])=O)n(C(=O)OC(=O)CC(C=O)(C=O)[NH+](C)C)c2c1 (3D coordinates assigned)
Cc1ccc2cc(C([NH-])=O)n(C(=O)OC(=O)CC(C=O)(C=O)[NH+](C)C)c2c1 (optimized conformer: 95.357524826727 kcal/mol)

>  <smiles>  (72) 
Cc1ccc2cc(C(N)=O)n(C(=O)OC(=O)CC(C=O)(C=O)N(C)C)c2c1

>  <score_type>  (72) 
oracle

>  <origin>  (72) 
adg

>  <m_score__min__energy>  (72) 
-9.7699999999999996

>  <m_primary>  (72) 
energy

$$$$
73:0
     RDKit          3D

 40 42  0  0  0  0  0  0  0  0999 V2000
   -7.0930   18.4470  -32.8580 C   0  0  0  0  0  0  0  0  0  0  0  0
   -7.1910   19.8760  -32.4150 C   0  0  0  0  0  0  0  0  0  0  0  0
   -8.4570   20.5070  -32.3300 C   0  0  0  0  0  0  0  0  0  0  0  0
   -8.5640   21.8380  -31.8920 C   0  0  0  0  0  0  0  0  0  0  0  0
   -7.3960   22.5020  -31.5290 C   0  0  0  0  0  0  0  0  0  0  0  0
   -7.2100   23.7940  -31.0930 C   0  0  0  0  0  0  0  0  0  0  0  0
   -5.8380   23.9190  -30.8830 C   0  0  0  0  0  0  0  0  0  0  0  0
   -5.2080   25.1340  -30.3250 C   0  0  0  0  0  0  0  0  0  0  0  0
   -3.9760   25.6260  -30.8470 N   0  0  0  0  0  0  0  0  0  0  0  0
   -5.7390   25.7180  -29.3440 O   0  0  0  0  0  0  0  0  0  0  0  0
   -5.2000   22.7520  -31.1830 N   0  0  0  0  0  0  0  0  0  0  0  0
   -3.7860   22.5000  -31.1940 C   0  0  0  0  0  0  0  0  0  0  0  0
   -3.1730   22.4020  -32.2920 O   0  0  0  0  0  0  0  0  0  0  0  0
   -3.0730   22.3830  -29.9580 N   0  0  0  0  0  0  0  0  0  0  0  0
   -2.9790   23.4530  -28.9690 C   0  0  2  0  0  0  0  0  0  0  0  0
   -1.6820   23.2820  -28.1520 C   0  0  0  0  0  0  0  0  0  0  0  0
   -1.7880   23.8830  -26.7380 C   0  0  0  0  0  0  0  0  0  0  0  0
   -2.8280   25.0070  -26.6880 C   0  0  0  0  0  0  0  0  0  0  0  0
   -4.1790   24.5300  -27.0450 N   0  0  0  0  0  0  0  0  0  0  0  0
   -4.2060   23.4380  -28.0400 C   0  0  0  0  0  0  0  0  0  0  0  0
   -6.1670   21.8940  -31.5760 C   0  0  0  0  0  0  0  0  0  0  0  0
   -6.0280   20.5760  -32.0250 C   0  0  0  0  0  0  0  0  0  0  0  0
   -7.0481   17.7918  -31.9756 H   0  0  0  0  0  0  0  0  0  0  0  0
   -7.9756   18.1889  -33.4617 H   0  0  0  0  0  0  0  0  0  0  0  0
   -6.1835   18.3118  -33.4617 H   0  0  0  0  0  0  0  0  0  0  0  0
   -9.3637   19.9502  -32.6092 H   0  0  0  0  0  0  0  0  0  0  0  0
   -9.5413   22.3398  -31.8377 H   0  0  0  0  0  0  0  0  0  0  0  0
   -7.9806   24.5644  -30.9423 H   0  0  0  0  0  0  0  0  0  0  0  0
   -3.0620   25.3010  -30.4600 H   0  0  0  0  0  0  0  0  0  0  0  0
   -2.9555   24.4230  -29.4872 H   0  0  0  0  0  0  0  0  0  0  0  0
   -1.4612   22.2081  -28.0625 H   0  0  0  0  0  0  0  0  0  0  0  0
   -0.8815   23.8185  -28.6824 H   0  0  0  0  0  0  0  0  0  0  0  0
   -2.0818   23.0913  -26.0331 H   0  0  0  0  0  0  0  0  0  0  0  0
   -0.8088   24.3032  -26.4648 H   0  0  0  0  0  0  0  0  0  0  0  0
   -2.8554   25.4198  -25.6687 H   0  0  0  0  0  0  0  0  0  0  0  0
   -2.5345   25.7729  -27.4210 H   0  0  0  0  0  0  0  0  0  0  0  0
   -4.7160   25.3440  -27.4270 H   0  0  0  0  0  0  0  0  0  0  0  0
   -4.2324   22.4762  -27.5068 H   0  0  0  0  0  0  0  0  0  0  0  0
   -5.0994   23.5797  -28.6659 H   0  0  0  0  0  0  0  0  0  0  0  0
   -5.0387   20.0976  -32.0730 H   0  0  0  0  0  0  0  0  0  0  0  0
  1  2  1  0
  2  3  2  0
  3  4  1  0
  4  5  2  0
  5  6  1  0
  6  7  2  0
  7  8  1  0
  8  9  1  0
  8 10  2  0
  7 11  1  0
 11 12  1  0
 12 13  2  0
 12 14  1  0
 14 15  1  0
 15 16  1  0
 16 17  1  0
 17 18  1  0
 18 19  1  0
 19 20  1  0
 11 21  1  0
 21 22  2  0
 22  2  1  0
 21  5  1  0
 20 15  1  0
  1 23  1  0
  1 24  1  0
  1 25  1  0
  3 26  1  0
  4 27  1  0
  6 28  1  0
  9 29  1  0
 15 30  1  6
 16 31  1  0
 16 32  1  0
 17 33  1  0
 17 34  1  0
 18 35  1  0
 18 36  1  0
 19 37  1  0
 20 38  1  0
 20 39  1  0
 22 40  1  0
M  CHG  2   9  -1  14  -1
M  END
>  <UniqueID>  (73) 
73

>  <SMILES>  (73) 
Cc1ccc2cc(C([NH-])=O)n(C(=O)[N-][C@@H]3CCCNC3)c2c1

>  <Energy>  (73) 
83.4037480937223

>  <Genealogy>  (73) 
Cc1ccc2cc(C([NH-])=O)n(C(=O)[N-]C3CCCNC3)c2c1 (protonated)
Cc1ccc2cc(C([NH-])=O)n(C(=O)[N-][C@@H]3CCCNC3)c2c1 (chirality)
Cc1ccc2cc(C([NH-])=O)n(C(=O)[N-][C@@H]3CCCNC3)c2c1 (3D coordinates assigned)
Cc1ccc2cc(C([NH-])=O)n(C(=O)[N-][C@@H]3CCCNC3)c2c1 (nonaromatic ring conformer: 83.4037480937223 kcal/mol)

>  <smiles>  (73) 
Cc1ccc2cc(C(N)=O)n(C(=O)NC3CCCNC3)c2c1

>  <score_type>  (73) 
oracle

>  <origin>  (73) 
adg

>  <m_score__min__energy>  (73) 
-11.5

>  <m_primary>  (73) 
energy

$$$$
74:0
     RDKit          3D

 44 45  0  0  0  0  0  0  0  0999 V2000
   -6.1150   17.9550  -34.2680 C   0  0  0  0  0  0  0  0  0  0  0  0
   -6.8650   18.0920  -32.9380 C   0  0  1  0  0  0  0  0  0  0  0  0
   -6.1850   17.3380  -31.8280 C   0  0  0  0  0  0  0  0  0  0  0  0
   -6.4900   17.5460  -30.6220 O   0  0  0  0  0  0  0  0  0  0  0  0
   -5.2460   16.3610  -32.1340 O   0  0  0  0  0  0  0  0  0  0  0  0
   -7.0510   19.5470  -32.5610 C   0  0  0  0  0  0  0  0  0  0  0  0
   -8.3150   20.1810  -32.7000 C   0  0  0  0  0  0  0  0  0  0  0  0
   -8.4920   21.5250  -32.3290 C   0  0  0  0  0  0  0  0  0  0  0  0
   -7.3910   22.2140  -31.8310 C   0  0  0  0  0  0  0  0  0  0  0  0
   -7.2900   23.5060  -31.3660 C   0  0  0  0  0  0  0  0  0  0  0  0
   -5.9640   23.6530  -30.9660 C   0  0  0  0  0  0  0  0  0  0  0  0
   -5.3980   24.9210  -30.4610 C   0  0  0  0  0  0  0  0  0  0  0  0
   -3.9930   25.1500  -30.5350 N   0  0  0  0  0  0  0  0  0  0  0  0
   -6.1380   25.7930  -29.9340 O   0  0  0  0  0  0  0  0  0  0  0  0
   -5.2730   22.4970  -31.1750 N   0  0  0  0  0  0  0  0  0  0  0  0
   -3.9120   22.2100  -30.8200 C   0  0  0  0  0  0  0  0  0  0  0  0
   -2.9980   22.3490  -31.6770 O   0  0  0  0  0  0  0  0  0  0  0  0
   -3.6150   21.7500  -29.5320 O   0  0  0  0  0  0  0  0  0  0  0  0
   -2.2940   21.4570  -29.0740 C   0  0  0  0  0  0  0  0  0  0  0  0
   -1.4580   22.7460  -28.9150 C   0  0  1  0  0  0  0  0  0  0  0  0
   -1.3160   23.4300  -30.2070 N   0  0  0  0  0  0  0  0  0  0  0  0
   -2.0470   23.7140  -27.8620 C   0  0  0  0  0  0  0  0  0  0  0  0
   -1.5910   25.1290  -28.0620 C   0  0  0  0  0  0  0  0  0  0  0  0
   -1.2040   25.8190  -27.0820 O   0  0  0  0  0  0  0  0  0  0  0  0
   -1.5470   25.6720  -29.3410 O   0  0  0  0  0  0  0  0  0  0  0  0
   -6.1600   21.6270  -31.7040 C   0  0  0  0  0  0  0  0  0  0  0  0
   -5.9590   20.2840  -32.0460 C   0  0  0  0  0  0  0  0  0  0  0  0
   -5.0505   17.7606  -34.0703 H   0  0  0  0  0  0  0  0  0  0  0  0
   -6.5396   17.1195  -34.8440 H   0  0  0  0  0  0  0  0  0  0  0  0
   -6.2168   18.8866  -34.8440 H   0  0  0  0  0  0  0  0  0  0  0  0
   -7.8586   17.6427  -33.0827 H   0  0  0  0  0  0  0  0  0  0  0  0
   -9.1660   19.6125  -33.1032 H   0  0  0  0  0  0  0  0  0  0  0  0
   -9.4708   22.0168  -32.4293 H   0  0  0  0  0  0  0  0  0  0  0  0
   -8.0877   24.2621  -31.3201 H   0  0  0  0  0  0  0  0  0  0  0  0
   -3.4880   25.6420  -29.7650 H   0  0  0  0  0  0  0  0  0  0  0  0
   -2.3565   20.9478  -28.1009 H   0  0  0  0  0  0  0  0  0  0  0  0
   -1.8025   20.8133  -29.8184 H   0  0  0  0  0  0  0  0  0  0  0  0
   -0.4664   22.4373  -28.5524 H   0  0  0  0  0  0  0  0  0  0  0  0
   -2.2040   23.9270  -30.4490 H   0  0  0  0  0  0  0  0  0  0  0  0
   -0.5320   24.1210  -30.1770 H   0  0  0  0  0  0  0  0  0  0  0  0
   -1.1230   22.7280  -30.9590 H   0  0  0  0  0  0  0  0  0  0  0  0
   -3.1445   23.6843  -27.9307 H   0  0  0  0  0  0  0  0  0  0  0  0
   -1.6939   23.3863  -26.8731 H   0  0  0  0  0  0  0  0  0  0  0  0
   -4.9736   19.8125  -31.9170 H   0  0  0  0  0  0  0  0  0  0  0  0
  1  2  1  0
  2  3  1  0
  3  4  2  0
  3  5  1  0
  2  6  1  0
  6  7  2  0
  7  8  1  0
  8  9  2  0
  9 10  1  0
 10 11  2  0
 11 12  1  0
 12 13  1  0
 12 14  2  0
 11 15  1  0
 15 16  1  0
 16 17  2  0
 16 18  1  0
 18 19  1  0
 19 20  1  0
 20 21  1  0
 20 22  1  0
 22 23  1  0
 23 24  2  0
 23 25  1  0
 15 26  1  0
 26 27  2  0
 27  6  1  0
 26  9  1  0
  1 28  1  0
  1 29  1  0
  1 30  1  0
  2 31  1  6
  7 32  1  0
  8 33  1  0
 10 34  1  0
 13 35  1  0
 19 36  1  0
 19 37  1  0
 20 38  1  1
 21 39  1  0
 21 40  1  0
 21 41  1  0
 22 42  1  0
 22 43  1  0
 27 44  1  0
M  CHG  4   5  -1  13  -1  21   1  25  -1
M  END
>  <UniqueID>  (74) 
74

>  <SMILES>  (74) 
C[C@@H](C(=O)[O-])c1ccc2cc(C([NH-])=O)n(C(=O)OC[C@@H]([NH3+])CC(=O)[O-])c2c1

>  <Energy>  (74) 
77.62094310029391

>  <Genealogy>  (74) 
CC(C(=O)[O-])c1ccc2cc(C([NH-])=O)n(C(=O)OC[C@@H]([NH3+])CC(=O)[O-])c2c1 (protonated)
C[C@@H](C(=O)[O-])c1ccc2cc(C([NH-])=O)n(C(=O)OC[C@@H]([NH3+])CC(=O)[O-])c2c1 (chirality)
C[C@@H](C(=O)[O-])c1ccc2cc(C([NH-])=O)n(C(=O)OC[C@@H]([NH3+])CC(=O)[O-])c2c1 (3D coordinates assigned)
C[C@@H](C(=O)[O-])c1ccc2cc(C([NH-])=O)n(C(=O)OC[C@@H]([NH3+])CC(=O)[O-])c2c1 (optimized conformer: 77.62094310029391 kcal/mol)

>  <smiles>  (74) 
CC(C(=O)O)c1ccc2cc(C(N)=O)n(C(=O)OC[C@@H](N)CC(=O)O)c2c1

>  <score_type>  (74) 
oracle

>  <origin>  (74) 
adg

>  <m_score__min__energy>  (74) 
-11.16

>  <m_primary>  (74) 
energy

$$$$
75:0
     RDKit          3D

 42 44  0  0  0  0  0  0  0  0999 V2000
   -3.1140   20.4200  -29.8930 C   0  0  0  0  0  0  0  0  0  0  0  0
   -3.5150   21.8290  -29.8330 N   0  0  0  0  0  0  0  0  0  0  0  0
   -3.3090   22.5840  -28.6190 C   0  0  0  0  0  0  0  0  0  0  0  0
   -3.6170   22.0790  -27.5050 O   0  0  0  0  0  0  0  0  0  0  0  0
   -2.8270   23.9400  -28.6790 N   0  0  0  0  0  0  0  0  0  0  0  0
   -1.8980   24.5870  -27.7380 C   0  0  0  0  0  0  0  0  0  0  0  0
   -0.9060   25.5460  -28.3220 C   0  0  0  0  0  0  0  0  0  0  0  0
   -1.2190   26.2530  -29.3150 O   0  0  0  0  0  0  0  0  0  0  0  0
    0.3780   25.6220  -27.7980 O   0  0  0  0  0  0  0  0  0  0  0  0
   -1.4670   23.8370  -26.4820 C   0  0  0  0  0  0  0  0  0  0  0  0
   -2.4890   24.9720  -26.3900 C   0  0  0  0  0  0  0  0  0  0  0  0
   -4.0730   22.4500  -31.0110 C   0  0  0  0  0  0  0  0  0  0  0  0
   -3.3300   22.7420  -31.9870 O   0  0  0  0  0  0  0  0  0  0  0  0
   -5.4700   22.7840  -31.0700 N   0  0  0  0  0  0  0  0  0  0  0  0
   -6.0460   24.0060  -30.8970 C   0  0  0  0  0  0  0  0  0  0  0  0
   -5.3430   25.2430  -30.4990 C   0  0  0  0  0  0  0  0  0  0  0  0
   -3.9300   25.3390  -30.6600 N   0  0  0  0  0  0  0  0  0  0  0  0
   -5.9810   26.2250  -30.0360 O   0  0  0  0  0  0  0  0  0  0  0  0
   -7.4250   23.9220  -31.0790 C   0  0  0  0  0  0  0  0  0  0  0  0
   -7.6760   22.5980  -31.3630 C   0  0  0  0  0  0  0  0  0  0  0  0
   -8.8780   21.9490  -31.6260 C   0  0  0  0  0  0  0  0  0  0  0  0
   -8.8370   20.5700  -31.8960 C   0  0  0  0  0  0  0  0  0  0  0  0
   -7.6020   19.8720  -31.9220 C   0  0  0  0  0  0  0  0  0  0  0  0
   -7.5740   18.3860  -32.1720 C   0  0  0  0  0  0  0  0  0  0  0  0
   -7.1820   18.1160  -33.4710 F   0  0  0  0  0  0  0  0  0  0  0  0
   -6.6840   17.7630  -31.3130 F   0  0  0  0  0  0  0  0  0  0  0  0
   -8.8390   17.8660  -31.9650 F   0  0  0  0  0  0  0  0  0  0  0  0
   -6.4050   20.5650  -31.6240 C   0  0  0  0  0  0  0  0  0  0  0  0
   -6.4800   21.9330  -31.3490 C   0  0  0  0  0  0  0  0  0  0  0  0
   -3.0021   20.0268  -28.8718 H   0  0  0  0  0  0  0  0  0  0  0  0
   -3.8834   19.8422  -30.4261 H   0  0  0  0  0  0  0  0  0  0  0  0
   -2.1557   20.3339  -30.4261 H   0  0  0  0  0  0  0  0  0  0  0  0
   -3.1300   24.5130  -29.4980 H   0  0  0  0  0  0  0  0  0  0  0  0
   -1.7850   22.7956  -26.3260 H   0  0  0  0  0  0  0  0  0  0  0  0
   -0.5041   23.6142  -25.9991 H   0  0  0  0  0  0  0  0  0  0  0  0
   -3.5423   24.7470  -26.1667 H   0  0  0  0  0  0  0  0  0  0  0  0
   -2.5659   25.9048  -25.8120 H   0  0  0  0  0  0  0  0  0  0  0  0
   -3.5100   26.0550  -31.2950 H   0  0  0  0  0  0  0  0  0  0  0  0
   -8.1576   24.7397  -31.0104 H   0  0  0  0  0  0  0  0  0  0  0  0
   -9.8312   22.4980  -31.6228 H   0  0  0  0  0  0  0  0  0  0  0  0
   -9.7732   20.0258  -32.0893 H   0  0  0  0  0  0  0  0  0  0  0  0
   -5.4387   20.0396  -31.6092 H   0  0  0  0  0  0  0  0  0  0  0  0
  1  2  1  0
  2  3  1  0
  3  4  2  0
  3  5  1  0
  5  6  1  0
  6  7  1  0
  7  8  2  0
  7  9  1  0
  6 10  1  0
 10 11  1  0
  2 12  1  0
 12 13  2  0
 12 14  1  0
 14 15  1  0
 15 16  1  0
 16 17  1  0
 16 18  2  0
 15 19  2  0
 19 20  1  0
 20 21  2  0
 21 22  1  0
 22 23  2  0
 23 24  1  0
 24 25  1  0
 24 26  1  0
 24 27  1  0
 23 28  1  0
 28 29  2  0
 11  6  1  0
 29 14  1  0
 29 20  1  0
  1 30  1  0
  1 31  1  0
  1 32  1  0
  5 33  1  0
 10 34  1  0
 10 35  1  0
 11 36  1  0
 11 37  1  0
 17 38  1  0
 19 39  1  0
 21 40  1  0
 22 41  1  0
 28 42  1  0
M  CHG  2   9  -1  17  -1
M  END
>  <UniqueID>  (75) 
75

>  <SMILES>  (75) 
CN(C(=O)NC1(C(=O)[O-])CC1)C(=O)n1c(C([NH-])=O)cc2ccc(C(F)(F)F)cc21

>  <Energy>  (75) 
359.41768708849105

>  <Genealogy>  (75) 
CN(C(=O)NC1(C(=O)[O-])CC1)C(=O)n1c(C([NH-])=O)cc2ccc(C(F)(F)F)cc21 (protonated)
CN(C(=O)NC1(C(=O)[O-])CC1)C(=O)n1c(C([NH-])=O)cc2ccc(C(F)(F)F)cc21 (3D coordinates assigned)
CN(C(=O)NC1(C(=O)[O-])CC1)C(=O)n1c(C([NH-])=O)cc2ccc(C(F)(F)F)cc21 (nonaromatic ring conformer: 359.41768708849105 kcal/mol)

>  <smiles>  (75) 
CN(C(=O)NC1(C(=O)O)CC1)C(=O)n1c(C(N)=O)cc2ccc(C(F)(F)F)cc21

>  <score_type>  (75) 
oracle

>  <origin>  (75) 
adg

>  <m_score__min__energy>  (75) 
-13.02

>  <m_primary>  (75) 
energy

$$$$
76:0
     RDKit          3D

 41 42  0  0  0  0  0  0  0  0999 V2000
   -2.9170   25.2980  -30.4470 H   0  0  0  0  0  0  0  0  0  0  0  0
   -3.8750   25.4100  -30.8460 N   0  0  0  0  0  0  0  0  0  0  0  0
   -5.0010   24.7890  -30.2320 C   0  0  0  0  0  0  0  0  0  0  0  0
   -5.4410   25.2490  -29.1440 O   0  0  0  0  0  0  0  0  0  0  0  0
   -5.6420   23.6020  -30.8380 C   0  0  0  0  0  0  0  0  0  0  0  0
   -7.0200   23.3990  -30.8750 C   0  0  0  0  0  0  0  0  0  0  0  0
   -7.8034   24.0766  -30.5047 H   0  0  0  0  0  0  0  0  0  0  0  0
   -7.1940   22.1710  -31.4730 C   0  0  0  0  0  0  0  0  0  0  0  0
   -8.3590   21.4720  -31.7730 C   0  0  0  0  0  0  0  0  0  0  0  0
   -9.3474   21.8821  -31.5182 H   0  0  0  0  0  0  0  0  0  0  0  0
   -8.2350   20.2270  -32.4110 C   0  0  0  0  0  0  0  0  0  0  0  0
   -9.1383   19.6492  -32.6565 H   0  0  0  0  0  0  0  0  0  0  0  0
   -6.9590   19.7070  -32.7420 C   0  0  0  0  0  0  0  0  0  0  0  0
   -6.8490   18.3760  -33.4290 C   0  0  0  0  0  0  0  0  0  0  0  0
   -7.8540   18.0343  -33.7176 H   0  0  0  0  0  0  0  0  0  0  0  0
   -6.0600   18.5000  -34.5580 F   0  0  0  0  0  0  0  0  0  0  0  0
   -6.2770   17.4550  -32.5710 F   0  0  0  0  0  0  0  0  0  0  0  0
   -5.7970   20.4470  -32.4240 C   0  0  0  0  0  0  0  0  0  0  0  0
   -4.7973   20.0651  -32.6785 H   0  0  0  0  0  0  0  0  0  0  0  0
   -5.9520   21.6760  -31.7780 C   0  0  0  0  0  0  0  0  0  0  0  0
   -4.9910   22.5410  -31.3900 N   0  0  0  0  0  0  0  0  0  0  0  0
   -3.5790   22.3920  -31.6040 C   0  0  0  0  0  0  0  0  0  0  0  0
   -3.1650   21.9410  -32.7050 O   0  0  0  0  0  0  0  0  0  0  0  0
   -2.5980   22.7470  -30.5630 C   0  0  0  0  0  0  0  0  0  0  0  0
   -1.6234   23.1535  -30.8711 H   0  0  0  0  0  0  0  0  0  0  0  0
   -2.8470   22.5940  -29.2600 C   0  0  0  0  0  0  0  0  0  0  0  0
   -3.8087   22.1666  -28.9398 H   0  0  0  0  0  0  0  0  0  0  0  0
   -1.6640   23.0640  -28.0480 S   0  0  0  0  0  0  0  0  0  0  0  0
   -0.2780   22.7850  -28.5600 O   0  0  0  0  0  0  0  0  0  0  0  0
   -1.8900   22.2350  -26.8150 O   0  0  0  0  0  0  0  0  0  0  0  0
   -1.8200   24.8050  -27.6320 C   0  0  0  0  0  0  0  0  0  0  0  0
   -2.3090   25.4780  -28.7660 O   0  0  0  0  0  0  0  0  0  0  0  0
   -3.2980   25.3880  -28.7740 H   0  0  0  0  0  0  0  0  0  0  0  0
   -0.4380   25.3640  -27.2490 C   0  0  0  0  0  0  0  0  0  0  0  0
   -0.3480   25.4004  -26.1533 H   0  0  0  0  0  0  0  0  0  0  0  0
    0.3476   24.7129  -27.6600 H   0  0  0  0  0  0  0  0  0  0  0  0
   -0.3259   26.3782  -27.6600 H   0  0  0  0  0  0  0  0  0  0  0  0
   -2.8030   24.9720  -26.4620 C   0  0  0  0  0  0  0  0  0  0  0  0
   -2.2593   24.8796  -25.5102 H   0  0  0  0  0  0  0  0  0  0  0  0
   -3.2761   25.9634  -26.5193 H   0  0  0  0  0  0  0  0  0  0  0  0
   -3.5770   24.1925  -26.5193 H   0  0  0  0  0  0  0  0  0  0  0  0
  1  2  1  0
  2  3  1  0
  3  4  2  0
  3  5  1  0
  5  6  2  0
  6  7  1  0
  6  8  1  0
  8  9  2  0
  9 10  1  0
  9 11  1  0
 11 12  1  0
 11 13  2  0
 13 14  1  0
 14 15  1  0
 14 16  1  0
 14 17  1  0
 13 18  1  0
 18 19  1  0
 18 20  2  0
 20 21  1  0
 21 22  1  0
 22 23  2  0
 22 24  1  0
 24 25  1  0
 24 26  2  0
 26 27  1  0
 26 28  1  0
 28 29  2  0
 28 30  2  0
 28 31  1  0
 31 32  1  0
 32 33  1  0
 31 34  1  0
 34 35  1  0
 34 36  1  0
 34 37  1  0
 31 38  1  0
 38 39  1  0
 38 40  1  0
 38 41  1  0
 21  5  1  0
 20  8  1  0
M  CHG  1   2  -1
M  END
>  <UniqueID>  (76) 
76

>  <SMILES>  (76) 
CC(C)(O)S(=O)(=O)/C=C/C(=O)n1c(C([NH-])=O)cc2ccc(C(F)F)cc21

>  <Energy>  (76) 
72.87385258229834

>  <Genealogy>  (76) 
CC(C)(O)S(=O)(=O)/C=C/C(=O)n1c(C([NH-])=O)cc2ccc(C(F)F)cc21 (protonated)
CC(C)(O)S(=O)(=O)/C=C/C(=O)n1c(C([NH-])=O)cc2ccc(C(F)F)cc21 (cis-trans isomerization)
CC(C)(O)S(=O)(=O)/C=C/C(=O)n1c(C([NH-])=O)cc2ccc(C(F)F)cc21 (3D coordinates assigned)
CC(C)(O)S(=O)(=O)/C=C/C(=O)n1c(C([NH-])=O)cc2ccc(C(F)F)cc21 (optimized conformer: 72.87385258229834 kcal/mol)

>  <smiles>  (76) 
CC(C)(O)S(=O)(=O)/C=C/C(=O)n1c(C(N)=O)cc2ccc(C(F)F)cc21

>  <score_type>  (76) 
oracle

>  <origin>  (76) 
adg

>  <m_score__min__energy>  (76) 
-11.59

>  <m_primary>  (76) 
energy

$$$$
77:0
     RDKit          3D

 36 37  0  0  0  0  0  0  0  0999 V2000
   -1.2670   25.9840  -27.5700 C   0  0  0  0  0  0  0  0  0  0  0  0
   -1.4300   25.4110  -28.8620 O   0  0  0  0  0  0  0  0  0  0  0  0
   -0.8060   24.2200  -29.2410 C   0  0  0  0  0  0  0  0  0  0  0  0
    0.3470   23.9360  -28.8110 O   0  0  0  0  0  0  0  0  0  0  0  0
   -1.4770   23.3490  -30.1030 O   0  0  0  0  0  0  0  0  0  0  0  0
   -1.8530   22.0280  -29.7280 C   0  0  0  0  0  0  0  0  0  0  0  0
   -3.2580   21.8650  -29.8930 O   0  0  0  0  0  0  0  0  0  0  0  0
   -3.9010   22.0520  -31.1200 C   0  0  0  0  0  0  0  0  0  0  0  0
   -3.2790   21.8540  -32.1990 O   0  0  0  0  0  0  0  0  0  0  0  0
   -5.2760   22.4700  -31.1460 N   0  0  0  0  0  0  0  0  0  0  0  0
   -5.7690   23.6980  -30.8180 C   0  0  0  0  0  0  0  0  0  0  0  0
   -4.9670   24.9040  -30.5310 C   0  0  0  0  0  0  0  0  0  0  0  0
   -3.6590   24.8060  -29.9670 N   0  0  0  0  0  0  0  0  0  0  0  0
   -5.4220   26.0370  -30.8410 O   0  0  0  0  0  0  0  0  0  0  0  0
   -7.1610   23.6890  -30.8300 C   0  0  0  0  0  0  0  0  0  0  0  0
   -7.5130   22.4100  -31.1920 C   0  0  0  0  0  0  0  0  0  0  0  0
   -8.7730   21.8380  -31.3320 C   0  0  0  0  0  0  0  0  0  0  0  0
   -8.8450   20.4770  -31.6700 C   0  0  0  0  0  0  0  0  0  0  0  0
   -7.6640   19.7150  -31.8700 C   0  0  0  0  0  0  0  0  0  0  0  0
   -7.7550   18.2400  -32.1680 C   0  0  0  0  0  0  0  0  0  0  0  0
   -7.3790   17.9830  -33.4750 F   0  0  0  0  0  0  0  0  0  0  0  0
   -6.9160   17.5510  -31.3140 F   0  0  0  0  0  0  0  0  0  0  0  0
   -9.0510   17.7850  -31.9950 F   0  0  0  0  0  0  0  0  0  0  0  0
   -6.4020   20.3280  -31.6910 C   0  0  0  0  0  0  0  0  0  0  0  0
   -6.3600   21.6920  -31.3760 C   0  0  0  0  0  0  0  0  0  0  0  0
   -1.4827   25.2258  -26.8028 H   0  0  0  0  0  0  0  0  0  0  0  0
   -0.2323   26.3389  -27.4542 H   0  0  0  0  0  0  0  0  0  0  0  0
   -1.9600   26.8303  -27.4542 H   0  0  0  0  0  0  0  0  0  0  0  0
   -1.3234   21.3026  -30.3632 H   0  0  0  0  0  0  0  0  0  0  0  0
   -1.5874   21.8584  -28.6741 H   0  0  0  0  0  0  0  0  0  0  0  0
   -3.1230   25.6700  -29.7330 H   0  0  0  0  0  0  0  0  0  0  0  0
   -3.1900   23.8810  -29.8520 H   0  0  0  0  0  0  0  0  0  0  0  0
   -7.8356   24.5266  -30.5991 H   0  0  0  0  0  0  0  0  0  0  0  0
   -9.6855   22.4338  -31.1825 H   0  0  0  0  0  0  0  0  0  0  0  0
   -9.8279   19.9957  -31.7811 H   0  0  0  0  0  0  0  0  0  0  0  0
   -5.4743   19.7465  -31.7968 H   0  0  0  0  0  0  0  0  0  0  0  0
  1  2  1  0
  2  3  1  0
  3  4  2  0
  3  5  1  0
  5  6  1  0
  6  7  1  0
  7  8  1  0
  8  9  2  0
  8 10  1  0
 10 11  1  0
 11 12  1  0
 12 13  1  0
 12 14  2  0
 11 15  2  0
 15 16  1  0
 16 17  2  0
 17 18  1  0
 18 19  2  0
 19 20  1  0
 20 21  1  0
 20 22  1  0
 20 23  1  0
 19 24  1  0
 24 25  2  0
 25 10  1  0
 25 16  1  0
  1 26  1  0
  1 27  1  0
  1 28  1  0
  6 29  1  0
  6 30  1  0
 13 31  1  0
 13 32  1  0
 15 33  1  0
 17 34  1  0
 18 35  1  0
 24 36  1  0
M  END
>  <UniqueID>  (77) 
77

>  <SMILES>  (77) 
COC(=O)OCOC(=O)n1c(C(N)=O)cc2ccc(C(F)(F)F)cc21

>  <Energy>  (77) 
70.34251418442688

>  <Genealogy>  (77) 
COC(=O)OCOC(=O)n1c(C(N)=O)cc2ccc(C(F)(F)F)cc21 (3D coordinates assigned)
COC(=O)OCOC(=O)n1c(C(N)=O)cc2ccc(C(F)(F)F)cc21 (optimized conformer: 70.34251418442688 kcal/mol)

>  <smiles>  (77) 
COC(=O)OCOC(=O)n1c(C(N)=O)cc2ccc(C(F)(F)F)cc21

>  <score_type>  (77) 
oracle

>  <origin>  (77) 
adg

>  <m_score__min__energy>  (77) 
-7.1200000000000001

>  <m_primary>  (77) 
energy

$$$$
78:0
     RDKit          3D

 43 45  0  0  0  0  0  0  0  0999 V2000
    1.1900   24.0120  -27.3860 C   0  0  0  0  0  0  0  0  0  0  0  0
    0.5560   24.5170  -28.5560 O   0  0  0  0  0  0  0  0  0  0  0  0
   -0.8000   24.2980  -28.8320 C   0  0  0  0  0  0  0  0  0  0  0  0
   -1.5230   25.2310  -29.2810 O   0  0  0  0  0  0  0  0  0  0  0  0
   -1.4000   22.9440  -28.5720 C   0  0  0  0  0  0  0  0  0  0  0  0
   -1.9250   22.2050  -29.8310 C   0  0  0  0  0  0  0  0  0  0  0  0
   -2.8250   23.0020  -30.6050 O   0  0  0  0  0  0  0  0  0  0  0  0
   -3.7260   22.4860  -31.5430 C   0  0  0  0  0  0  0  0  0  0  0  0
   -3.2850   21.9040  -32.5710 O   0  0  0  0  0  0  0  0  0  0  0  0
   -5.1470   22.6650  -31.3630 N   0  0  0  0  0  0  0  0  0  0  0  0
   -5.7980   23.8250  -31.0480 C   0  0  0  0  0  0  0  0  0  0  0  0
   -5.1660   25.1010  -30.6720 C   0  0  0  0  0  0  0  0  0  0  0  0
   -3.9140   25.1210  -29.9840 N   0  0  0  0  0  0  0  0  0  0  0  0
   -5.7760   26.1840  -30.8870 O   0  0  0  0  0  0  0  0  0  0  0  0
   -7.1760   23.6600  -31.1150 C   0  0  0  0  0  0  0  0  0  0  0  0
   -7.3670   22.3440  -31.4540 C   0  0  0  0  0  0  0  0  0  0  0  0
   -8.5520   21.6380  -31.6380 C   0  0  0  0  0  0  0  0  0  0  0  0
   -8.4650   20.2770  -31.9740 C   0  0  0  0  0  0  0  0  0  0  0  0
   -7.2060   19.6400  -32.1000 C   0  0  0  0  0  0  0  0  0  0  0  0
   -7.1350   18.1870  -32.4960 C   0  0  0  0  0  0  0  0  0  0  0  0
   -6.1960   17.5480  -31.7080 F   0  0  0  0  0  0  0  0  0  0  0  0
   -6.7690   18.0640  -33.8250 F   0  0  0  0  0  0  0  0  0  0  0  0
   -8.3620   17.5660  -32.3260 F   0  0  0  0  0  0  0  0  0  0  0  0
   -6.0220   20.3990  -31.9270 C   0  0  0  0  0  0  0  0  0  0  0  0
   -6.1320   21.7610  -31.5990 C   0  0  0  0  0  0  0  0  0  0  0  0
   -0.8700   21.5670  -30.7140 C   0  0  0  0  0  0  0  0  0  0  0  0
   -1.3740   20.2700  -30.4890 O   0  0  0  0  0  0  0  0  0  0  0  0
   -2.3970   20.7730  -29.6630 C   0  0  0  0  0  0  0  0  0  0  0  0
    0.6865   24.4130  -26.4940 H   0  0  0  0  0  0  0  0  0  0  0  0
    1.1272   22.9138  -27.3799 H   0  0  0  0  0  0  0  0  0  0  0  0
    2.2463   24.3189  -27.3799 H   0  0  0  0  0  0  0  0  0  0  0  0
   -0.6296   22.3140  -28.1034 H   0  0  0  0  0  0  0  0  0  0  0  0
   -2.2761   23.1151  -27.9291 H   0  0  0  0  0  0  0  0  0  0  0  0
   -3.4430   24.2310  -29.7030 H   0  0  0  0  0  0  0  0  0  0  0  0
   -3.4730   26.0300  -29.7210 H   0  0  0  0  0  0  0  0  0  0  0  0
   -7.9489   24.4217  -30.9348 H   0  0  0  0  0  0  0  0  0  0  0  0
   -9.5284   22.1315  -31.5236 H   0  0  0  0  0  0  0  0  0  0  0  0
   -9.3857   19.6987  -32.1413 H   0  0  0  0  0  0  0  0  0  0  0  0
   -5.0341   19.9303  -32.0473 H   0  0  0  0  0  0  0  0  0  0  0  0
   -0.9280   21.8839  -31.7658 H   0  0  0  0  0  0  0  0  0  0  0  0
    0.1914   21.7698  -30.5084 H   0  0  0  0  0  0  0  0  0  0  0  0
   -3.4077   20.5950  -30.0589 H   0  0  0  0  0  0  0  0  0  0  0  0
   -2.5112   20.3651  -28.6478 H   0  0  0  0  0  0  0  0  0  0  0  0
  1  2  1  0
  2  3  1  0
  3  4  2  0
  3  5  1  0
  5  6  1  0
  6  7  1  0
  7  8  1  0
  8  9  2  0
  8 10  1  0
 10 11  1  0
 11 12  1  0
 12 13  1  0
 12 14  2  0
 11 15  2  0
 15 16  1  0
 16 17  2  0
 17 18  1  0
 18 19  2  0
 19 20  1  0
 20 21  1  0
 20 22  1  0
 20 23  1  0
 19 24  1  0
 24 25  2  0
  6 26  1  0
 26 27  1  0
 27 28  1  0
 28  6  1  0
 25 10  1  0
 25 16  1  0
  1 29  1  0
  1 30  1  0
  1 31  1  0
  5 32  1  0
  5 33  1  0
 13 34  1  0
 13 35  1  0
 15 36  1  0
 17 37  1  0
 18 38  1  0
 24 39  1  0
 26 40  1  0
 26 41  1  0
 28 42  1  0
 28 43  1  0
M  END
>  <UniqueID>  (78) 
78

>  <SMILES>  (78) 
COC(=O)CC1(OC(=O)n2c(C(N)=O)cc3ccc(C(F)(F)F)cc32)COC1

>  <Energy>  (78) 
148.79403310522812

>  <Genealogy>  (78) 
COC(=O)CC1(OC(=O)n2c(C(N)=O)cc3ccc(C(F)(F)F)cc32)COC1 (3D coordinates assigned)
COC(=O)CC1(OC(=O)n2c(C(N)=O)cc3ccc(C(F)(F)F)cc32)COC1 (nonaromatic ring conformer: 148.79403310522812 kcal/mol)

>  <smiles>  (78) 
COC(=O)CC1(OC(=O)n2c(C(N)=O)cc3ccc(C(F)(F)F)cc32)COC1

>  <score_type>  (78) 
oracle

>  <origin>  (78) 
adg

>  <m_score__min__energy>  (78) 
-8.8200000000000003

>  <m_primary>  (78) 
energy

$$$$
79:0
     RDKit          3D

 39 40  0  0  0  0  0  0  0  0999 V2000
   -6.7360   18.2430  -32.4400 C   0  0  0  0  0  0  0  0  0  0  0  0
   -6.9170   19.7050  -32.1590 C   0  0  0  0  0  0  0  0  0  0  0  0
   -8.2050   20.2890  -32.2410 C   0  0  0  0  0  0  0  0  0  0  0  0
   -8.3950   21.6490  -31.9400 C   0  0  0  0  0  0  0  0  0  0  0  0
   -7.2820   22.3940  -31.5580 C   0  0  0  0  0  0  0  0  0  0  0  0
   -7.1830   23.7160  -31.1850 C   0  0  0  0  0  0  0  0  0  0  0  0
   -5.8360   23.9160  -30.8850 C   0  0  0  0  0  0  0  0  0  0  0  0
   -5.2700   25.2170  -30.4720 C   0  0  0  0  0  0  0  0  0  0  0  0
   -3.9660   25.6190  -30.8890 N   0  0  0  0  0  0  0  0  0  0  0  0
   -5.9560   25.9990  -29.7610 O   0  0  0  0  0  0  0  0  0  0  0  0
   -5.1330   22.7640  -31.0690 N   0  0  0  0  0  0  0  0  0  0  0  0
   -3.7410   22.5340  -30.8090 C   0  0  0  0  0  0  0  0  0  0  0  0
   -2.8830   23.0600  -31.5650 O   0  0  0  0  0  0  0  0  0  0  0  0
   -3.3270   21.7090  -29.6490 C   0  0  0  0  0  0  0  0  0  0  0  0
   -3.5020   20.4620  -29.7120 O   0  0  0  0  0  0  0  0  0  0  0  0
   -2.7520   22.2800  -28.4520 N   0  0  0  0  0  0  0  0  0  0  0  0
   -1.7540   21.5400  -27.6700 C   0  0  0  0  0  0  0  0  0  0  0  0
   -3.2570   23.5690  -27.9560 C   0  0  0  0  0  0  0  0  0  0  0  0
   -2.1310   24.3570  -27.2800 C   0  0  0  0  0  0  0  0  0  0  0  0
   -1.1650   24.8720  -28.2980 C   0  0  0  0  0  0  0  0  0  0  0  0
    0.0490   24.5410  -28.2440 O   0  0  0  0  0  0  0  0  0  0  0  0
   -1.6140   25.6730  -29.3400 O   0  0  0  0  0  0  0  0  0  0  0  0
   -6.0310   21.8410  -31.4750 C   0  0  0  0  0  0  0  0  0  0  0  0
   -5.8150   20.4870  -31.7500 C   0  0  0  0  0  0  0  0  0  0  0  0
   -6.6679   17.6927  -31.4900 H   0  0  0  0  0  0  0  0  0  0  0  0
   -7.5950   17.8716  -33.0181 H   0  0  0  0  0  0  0  0  0  0  0  0
   -5.8123   18.0923  -33.0181 H   0  0  0  0  0  0  0  0  0  0  0  0
   -9.0645   19.6726  -32.5430 H   0  0  0  0  0  0  0  0  0  0  0  0
   -9.3915   22.1103  -32.0042 H   0  0  0  0  0  0  0  0  0  0  0  0
   -7.9944   24.4570  -31.1344 H   0  0  0  0  0  0  0  0  0  0  0  0
   -3.1300   25.0310  -30.6770 H   0  0  0  0  0  0  0  0  0  0  0  0
   -1.9485   21.6842  -26.5970 H   0  0  0  0  0  0  0  0  0  0  0  0
   -1.8178   20.4692  -27.9135 H   0  0  0  0  0  0  0  0  0  0  0  0
   -0.7479   21.9121  -27.9135 H   0  0  0  0  0  0  0  0  0  0  0  0
   -3.6522   24.1529  -28.8003 H   0  0  0  0  0  0  0  0  0  0  0  0
   -4.0538   23.3820  -27.2210 H   0  0  0  0  0  0  0  0  0  0  0  0
   -2.5634   25.2058  -26.7300 H   0  0  0  0  0  0  0  0  0  0  0  0
   -1.5958   23.6890  -26.5891 H   0  0  0  0  0  0  0  0  0  0  0  0
   -4.8135   20.0432  -31.6503 H   0  0  0  0  0  0  0  0  0  0  0  0
  1  2  1  0
  2  3  2  0
  3  4  1  0
  4  5  2  0
  5  6  1  0
  6  7  2  0
  7  8  1  0
  8  9  1  0
  8 10  2  0
  7 11  1  0
 11 12  1  0
 12 13  2  0
 12 14  1  0
 14 15  2  0
 14 16  1  0
 16 17  1  0
 16 18  1  0
 18 19  1  0
 19 20  1  0
 20 21  2  0
 20 22  1  0
 11 23  1  0
 23 24  2  0
 24  2  1  0
 23  5  1  0
  1 25  1  0
  1 26  1  0
  1 27  1  0
  3 28  1  0
  4 29  1  0
  6 30  1  0
  9 31  1  0
 17 32  1  0
 17 33  1  0
 17 34  1  0
 18 35  1  0
 18 36  1  0
 19 37  1  0
 19 38  1  0
 24 39  1  0
M  CHG  2   9  -1  22  -1
M  END
>  <UniqueID>  (79) 
79

>  <SMILES>  (79) 
Cc1ccc2cc(C([NH-])=O)n(C(=O)C(=O)N(C)CCC(=O)[O-])c2c1

>  <Energy>  (79) 
75.64476443706688

>  <Genealogy>  (79) 
Cc1ccc2cc(C([NH-])=O)n(C(=O)C(=O)N(C)CCC(=O)[O-])c2c1 (protonated)
Cc1ccc2cc(C([NH-])=O)n(C(=O)C(=O)N(C)CCC(=O)[O-])c2c1 (3D coordinates assigned)
Cc1ccc2cc(C([NH-])=O)n(C(=O)C(=O)N(C)CCC(=O)[O-])c2c1 (optimized conformer: 75.64476443706688 kcal/mol)

>  <smiles>  (79) 
Cc1ccc2cc(C(N)=O)n(C(=O)C(=O)N(C)CCC(=O)O)c2c1

>  <score_type>  (79) 
oracle

>  <origin>  (79) 
adg

>  <m_score__min__energy>  (79) 
-12.699999999999999

>  <m_primary>  (79) 
energy

$$$$
80:0
     RDKit          3D

 51 52  0  0  0  0  0  0  0  0999 V2000
   -1.2350   23.5880  -26.3310 C   0  0  0  0  0  0  0  0  0  0  0  0
   -1.9780   24.5880  -27.2370 C   0  0  0  0  0  0  0  0  0  0  0  0
   -1.4590   26.0200  -27.0090 C   0  0  0  0  0  0  0  0  0  0  0  0
   -3.4770   24.5430  -26.9020 C   0  0  0  0  0  0  0  0  0  0  0  0
   -1.8430   24.2160  -28.6140 O   0  0  0  0  0  0  0  0  0  0  0  0
   -0.6980   23.6830  -29.2280 C   0  0  0  0  0  0  0  0  0  0  0  0
    0.4580   23.9970  -28.8390 O   0  0  0  0  0  0  0  0  0  0  0  0
   -0.8510   22.7020  -30.3520 C   0  0  0  0  0  0  0  0  0  0  0  0
   -1.8440   21.6710  -30.0160 N   0  0  0  0  0  0  0  0  0  0  0  0
   -1.3640   20.4290  -29.3940 C   0  0  0  0  0  0  0  0  0  0  0  0
   -1.7080   20.4120  -27.9690 C   0  0  0  0  0  0  0  0  0  0  0  0
   -1.9800   20.3990  -26.8450 N   0  0  0  0  0  0  0  0  0  0  0  0
   -3.2540   21.9990  -30.1090 C   0  0  0  0  0  0  0  0  0  0  0  0
   -3.9280   22.1070  -29.0480 O   0  0  0  0  0  0  0  0  0  0  0  0
   -3.9630   22.1890  -31.3970 C   0  0  0  0  0  0  0  0  0  0  0  0
   -3.3950   21.9530  -32.4960 O   0  0  0  0  0  0  0  0  0  0  0  0
   -5.3250   22.6420  -31.4060 N   0  0  0  0  0  0  0  0  0  0  0  0
   -5.7890   23.8590  -31.0140 C   0  0  0  0  0  0  0  0  0  0  0  0
   -4.9550   25.0180  -30.6330 C   0  0  0  0  0  0  0  0  0  0  0  0
   -3.6520   24.8460  -30.0720 N   0  0  0  0  0  0  0  0  0  0  0  0
   -5.3870   26.1830  -30.8410 O   0  0  0  0  0  0  0  0  0  0  0  0
   -7.1820   23.8690  -31.0050 C   0  0  0  0  0  0  0  0  0  0  0  0
   -7.5590   22.6080  -31.4110 C   0  0  0  0  0  0  0  0  0  0  0  0
   -8.8260   22.0520  -31.5550 C   0  0  0  0  0  0  0  0  0  0  0  0
   -8.9140   20.7040  -31.9450 C   0  0  0  0  0  0  0  0  0  0  0  0
   -7.7410   19.9390  -32.1690 C   0  0  0  0  0  0  0  0  0  0  0  0
   -7.8380   18.4950  -32.5740 C   0  0  0  0  0  0  0  0  0  0  0  0
   -6.6870   17.8280  -32.1970 F   0  0  0  0  0  0  0  0  0  0  0  0
   -8.9280   17.9110  -31.9560 F   0  0  0  0  0  0  0  0  0  0  0  0
   -6.4720   20.5360  -32.0050 C   0  0  0  0  0  0  0  0  0  0  0  0
   -6.4170   21.8850  -31.6400 C   0  0  0  0  0  0  0  0  0  0  0  0
   -1.4219   23.8396  -25.2766 H   0  0  0  0  0  0  0  0  0  0  0  0
   -1.5972   22.5695  -26.5347 H   0  0  0  0  0  0  0  0  0  0  0  0
   -0.1553   23.6408  -26.5347 H   0  0  0  0  0  0  0  0  0  0  0  0
   -1.3878   26.2166  -25.9291 H   0  0  0  0  0  0  0  0  0  0  0  0
   -0.4649   26.1271  -27.4676 H   0  0  0  0  0  0  0  0  0  0  0  0
   -2.1537   26.7391  -27.4676 H   0  0  0  0  0  0  0  0  0  0  0  0
   -3.6087   24.5390  -25.8099 H   0  0  0  0  0  0  0  0  0  0  0  0
   -3.9746   25.4266  -27.3281 H   0  0  0  0  0  0  0  0  0  0  0  0
   -3.9207   23.6311  -27.3281 H   0  0  0  0  0  0  0  0  0  0  0  0
   -1.1789   23.2373  -31.2553 H   0  0  0  0  0  0  0  0  0  0  0  0
    0.1187   22.2129  -30.5265 H   0  0  0  0  0  0  0  0  0  0  0  0
   -1.8339   19.5679  -29.8917 H   0  0  0  0  0  0  0  0  0  0  0  0
   -0.2706   20.3729  -29.5005 H   0  0  0  0  0  0  0  0  0  0  0  0
   -3.1080   25.6780  -29.7500 H   0  0  0  0  0  0  0  0  0  0  0  0
   -3.1810   23.9170  -30.0640 H   0  0  0  0  0  0  0  0  0  0  0  0
   -7.8410   24.7063  -30.7317 H   0  0  0  0  0  0  0  0  0  0  0  0
   -9.7313   22.6487  -31.3694 H   0  0  0  0  0  0  0  0  0  0  0  0
   -9.9018   20.2385  -32.0776 H   0  0  0  0  0  0  0  0  0  0  0  0
   -7.9578   18.4332  -33.6657 H   0  0  0  0  0  0  0  0  0  0  0  0
   -5.5508   19.9553  -32.1602 H   0  0  0  0  0  0  0  0  0  0  0  0
  1  2  1  0
  2  3  1  0
  2  4  1  0
  2  5  1  0
  5  6  1  0
  6  7  2  0
  6  8  1  0
  8  9  1  0
  9 10  1  0
 10 11  1  0
 11 12  3  0
  9 13  1  0
 13 14  2  0
 13 15  1  0
 15 16  2  0
 15 17  1  0
 17 18  1  0
 18 19  1  0
 19 20  1  0
 19 21  2  0
 18 22  2  0
 22 23  1  0
 23 24  2  0
 24 25  1  0
 25 26  2  0
 26 27  1  0
 27 28  1  0
 27 29  1  0
 26 30  1  0
 30 31  2  0
 31 17  1  0
 31 23  1  0
  1 32  1  0
  1 33  1  0
  1 34  1  0
  3 35  1  0
  3 36  1  0
  3 37  1  0
  4 38  1  0
  4 39  1  0
  4 40  1  0
  8 41  1  0
  8 42  1  0
 10 43  1  0
 10 44  1  0
 20 45  1  0
 20 46  1  0
 22 47  1  0
 24 48  1  0
 25 49  1  0
 27 50  1  0
 30 51  1  0
M  END
>  <UniqueID>  (80) 
80

>  <SMILES>  (80) 
CC(C)(C)OC(=O)CN(CC#N)C(=O)C(=O)n1c(C(N)=O)cc2ccc(C(F)F)cc21

>  <Energy>  (80) 
85.34461709997908

>  <Genealogy>  (80) 
CC(C)(C)OC(=O)CN(CC#N)C(=O)C(=O)n1c(C(N)=O)cc2ccc(C(F)F)cc21 (3D coordinates assigned)
CC(C)(C)OC(=O)CN(CC#N)C(=O)C(=O)n1c(C(N)=O)cc2ccc(C(F)F)cc21 (optimized conformer: 85.34461709997908 kcal/mol)

>  <smiles>  (80) 
CC(C)(C)OC(=O)CN(CC#N)C(=O)C(=O)n1c(C(N)=O)cc2ccc(C(F)F)cc21

>  <score_type>  (80) 
oracle

>  <origin>  (80) 
adg

>  <m_score__min__energy>  (80) 
-9.9299999999999997

>  <m_primary>  (80) 
energy

$$$$
81:0
     RDKit          3D

 34 35  0  0  0  0  0  0  0  0999 V2000
   -2.9790   25.2850  -30.3480 H   0  0  0  0  0  0  0  0  0  0  0  0
   -3.8900   25.3480  -30.8540 N   0  0  0  0  0  0  0  0  0  0  0  0
   -5.0720   24.7640  -30.3090 C   0  0  0  0  0  0  0  0  0  0  0  0
   -5.6320   25.3080  -29.3220 O   0  0  0  0  0  0  0  0  0  0  0  0
   -5.6050   23.5120  -30.8770 C   0  0  0  0  0  0  0  0  0  0  0  0
   -6.9630   23.2120  -30.9520 C   0  0  0  0  0  0  0  0  0  0  0  0
   -7.7998   23.8056  -30.5552 H   0  0  0  0  0  0  0  0  0  0  0  0
   -7.0360   22.0150  -31.6280 C   0  0  0  0  0  0  0  0  0  0  0  0
   -8.1410   21.2420  -31.9680 C   0  0  0  0  0  0  0  0  0  0  0  0
   -9.1605   21.5689  -31.7153 H   0  0  0  0  0  0  0  0  0  0  0  0
   -7.9160   20.0310  -32.6440 C   0  0  0  0  0  0  0  0  0  0  0  0
   -8.7702   19.3942  -32.9174 H   0  0  0  0  0  0  0  0  0  0  0  0
   -6.6000   19.6200  -32.9780 C   0  0  0  0  0  0  0  0  0  0  0  0
   -6.3680   18.2900  -33.6500 C   0  0  0  0  0  0  0  0  0  0  0  0
   -6.1170   18.4620  -35.0010 F   0  0  0  0  0  0  0  0  0  0  0  0
   -5.2810   17.6680  -33.0650 F   0  0  0  0  0  0  0  0  0  0  0  0
   -7.4790   17.4760  -33.5160 F   0  0  0  0  0  0  0  0  0  0  0  0
   -5.5010   20.4230  -32.5930 C   0  0  0  0  0  0  0  0  0  0  0  0
   -4.4695   20.1062  -32.8065 H   0  0  0  0  0  0  0  0  0  0  0  0
   -5.7580   21.6300  -31.9340 C   0  0  0  0  0  0  0  0  0  0  0  0
   -4.8670   22.5350  -31.4750 N   0  0  0  0  0  0  0  0  0  0  0  0
   -3.4370   22.4200  -31.5440 C   0  0  0  0  0  0  0  0  0  0  0  0
   -2.9040   21.9370  -32.5780 O   0  0  0  0  0  0  0  0  0  0  0  0
   -2.6300   22.8050  -30.4180 N   0  0  0  0  0  0  0  0  0  0  0  0
   -3.1050   23.2750  -29.6150 H   0  0  0  0  0  0  0  0  0  0  0  0
   -1.2540   22.4150  -30.2560 C   0  0  0  0  0  0  0  0  0  0  0  0
   -0.6980   21.6630  -31.1000 O   0  0  0  0  0  0  0  0  0  0  0  0
   -0.5050   22.7840  -29.0410 C   0  0  0  0  0  0  0  0  0  0  0  0
    0.3347   22.1378  -28.7453 H   0  0  0  0  0  0  0  0  0  0  0  0
   -0.7700   23.8470  -28.2700 C   0  0  0  0  0  0  0  0  0  0  0  0
   -0.2631   23.9071  -27.2956 H   0  0  0  0  0  0  0  0  0  0  0  0
   -1.6890   24.9420  -28.6280 C   0  0  0  0  0  0  0  0  0  0  0  0
   -2.8830   24.9030  -28.2300 O   0  0  0  0  0  0  0  0  0  0  0  0
   -1.2400   26.0550  -29.3270 O   0  0  0  0  0  0  0  0  0  0  0  0
  1  2  1  0
  2  3  1  0
  3  4  2  0
  3  5  1  0
  5  6  2  0
  6  7  1  0
  6  8  1  0
  8  9  2  0
  9 10  1  0
  9 11  1  0
 11 12  1  0
 11 13  2  0
 13 14  1  0
 14 15  1  0
 14 16  1  0
 14 17  1  0
 13 18  1  0
 18 19  1  0
 18 20  2  0
 20 21  1  0
 21 22  1  0
 22 23  2  0
 22 24  1  0
 24 25  1  0
 24 26  1  0
 26 27  2  0
 26 28  1  0
 28 29  1  0
 28 30  2  0
 30 31  1  0
 30 32  1  0
 32 33  2  0
 32 34  1  0
 21  5  1  0
 20  8  1  0
M  CHG  2   2  -1  34  -1
M  END
>  <UniqueID>  (81) 
81

>  <SMILES>  (81) 
[NH-]C(=O)c1cc2ccc(C(F)(F)F)cc2n1C(=O)NC(=O)/C=C\C(=O)[O-]

>  <Energy>  (81) 
80.83273169246984

>  <Genealogy>  (81) 
[NH-]C(=O)c1cc2ccc(C(F)(F)F)cc2n1C(=O)NC(=O)/C=C\C(=O)[O-] (protonated)
[NH-]C(=O)c1cc2ccc(C(F)(F)F)cc2n1C(=O)NC(=O)/C=C\C(=O)[O-] (cis-trans isomerization)
[NH-]C(=O)c1cc2ccc(C(F)(F)F)cc2n1C(=O)NC(=O)/C=C\C(=O)[O-] (3D coordinates assigned)
[NH-]C(=O)c1cc2ccc(C(F)(F)F)cc2n1C(=O)NC(=O)/C=C\C(=O)[O-] (optimized conformer: 80.83273169246984 kcal/mol)

>  <smiles>  (81) 
NC(=O)c1cc2ccc(C(F)(F)F)cc2n1C(=O)NC(=O)/C=C\C(=O)O

>  <score_type>  (81) 
oracle

>  <origin>  (81) 
adg

>  <m_score__min__energy>  (81) 
-12.390000000000001

>  <m_primary>  (81) 
energy

$$$$
82:0
     RDKit          3D

 53 54  0  0  0  0  0  0  0  0999 V2000
   -2.8050   20.1330  -32.0920 C   0  0  0  0  0  0  0  0  0  0  0  0
   -2.5910   21.1750  -33.1870 C   0  0  1  0  0  0  0  0  0  0  0  0
   -3.4420   22.3000  -32.9710 O   0  0  0  0  0  0  0  0  0  0  0  0
   -3.8670   22.7210  -31.7060 C   0  0  0  0  0  0  0  0  0  0  0  0
   -3.0400   22.8450  -30.7630 O   0  0  0  0  0  0  0  0  0  0  0  0
   -5.2620   22.9800  -31.4750 N   0  0  0  0  0  0  0  0  0  0  0  0
   -5.8290   24.1360  -31.0280 C   0  0  0  0  0  0  0  0  0  0  0  0
   -5.1030   25.3210  -30.5250 C   0  0  0  0  0  0  0  0  0  0  0  0
   -3.6810   25.2920  -30.4250 N   0  0  0  0  0  0  0  0  0  0  0  0
   -5.7210   26.3750  -30.2200 O   0  0  0  0  0  0  0  0  0  0  0  0
   -7.2180   24.0320  -31.0280 C   0  0  0  0  0  0  0  0  0  0  0  0
   -7.4880   22.7630  -31.4890 C   0  0  0  0  0  0  0  0  0  0  0  0
   -8.7070   22.1310  -31.7010 C   0  0  0  0  0  0  0  0  0  0  0  0
   -8.6920   20.8230  -32.2150 C   0  0  0  0  0  0  0  0  0  0  0  0
   -7.4630   20.1770  -32.5190 C   0  0  0  0  0  0  0  0  0  0  0  0
   -7.4200   18.8400  -33.0570 N   0  0  0  0  0  0  0  0  0  0  0  0
   -6.8720   17.6750  -32.3570 C   0  0  0  0  0  0  0  0  0  0  0  0
   -5.6480   17.1110  -33.0880 C   0  0  0  0  0  0  0  0  0  0  0  0
   -5.2580   17.9780  -34.2430 C   0  0  0  0  0  0  0  0  0  0  0  0
   -6.0600   18.1630  -35.1960 O   0  0  0  0  0  0  0  0  0  0  0  0
   -3.9910   18.5470  -34.2890 O   0  0  0  0  0  0  0  0  0  0  0  0
   -6.2470   20.8540  -32.2820 C   0  0  0  0  0  0  0  0  0  0  0  0
   -6.2920   22.1490  -31.7520 C   0  0  0  0  0  0  0  0  0  0  0  0
   -1.2330   21.6020  -33.1540 O   0  0  0  0  0  0  0  0  0  0  0  0
   -0.3360   21.3750  -34.2050 C   0  0  0  0  0  0  0  0  0  0  0  0
   -0.0160   22.3230  -34.9780 O   0  0  0  0  0  0  0  0  0  0  0  0
    0.3140   20.0150  -34.3670 C   0  0  0  0  0  0  0  0  0  0  0  0
    1.0610   19.6680  -33.0680 C   0  0  0  0  0  0  0  0  0  0  0  0
   -0.7560   18.9400  -34.6440 C   0  0  0  0  0  0  0  0  0  0  0  0
    1.3100   20.0400  -35.5440 C   0  0  0  0  0  0  0  0  0  0  0  0
   -2.7067   20.6114  -31.1064 H   0  0  0  0  0  0  0  0  0  0  0  0
   -3.8110   19.6991  -32.1903 H   0  0  0  0  0  0  0  0  0  0  0  0
   -2.0514   19.3377  -32.1903 H   0  0  0  0  0  0  0  0  0  0  0  0
   -2.8291   20.7303  -34.1645 H   0  0  0  0  0  0  0  0  0  0  0  0
   -3.0930   24.9550  -31.2190 H   0  0  0  0  0  0  0  0  0  0  0  0
   -7.9445   24.8001  -30.7244 H   0  0  0  0  0  0  0  0  0  0  0  0
   -9.6556   22.6392  -31.4733 H   0  0  0  0  0  0  0  0  0  0  0  0
   -9.6414   20.2937  -32.3838 H   0  0  0  0  0  0  0  0  0  0  0  0
   -7.8170   18.6760  -34.0100 H   0  0  0  0  0  0  0  0  0  0  0  0
   -6.5761   17.9741  -31.3407 H   0  0  0  0  0  0  0  0  0  0  0  0
   -7.6463   16.8944  -32.3229 H   0  0  0  0  0  0  0  0  0  0  0  0
   -4.8053   17.0522  -32.3834 H   0  0  0  0  0  0  0  0  0  0  0  0
   -5.9030   16.1128  -33.4735 H   0  0  0  0  0  0  0  0  0  0  0  0
   -5.2838   20.3737  -32.5092 H   0  0  0  0  0  0  0  0  0  0  0  0
    0.4447   19.9543  -32.2030 H   0  0  0  0  0  0  0  0  0  0  0  0
    1.2579   18.5862  -33.0360 H   0  0  0  0  0  0  0  0  0  0  0  0
    2.0146   20.2153  -33.0360 H   0  0  0  0  0  0  0  0  0  0  0  0
   -1.1419   18.5523  -33.6897 H   0  0  0  0  0  0  0  0  0  0  0  0
   -1.5813   19.3840  -35.2200 H   0  0  0  0  0  0  0  0  0  0  0  0
   -0.3082   18.1168  -35.2200 H   0  0  0  0  0  0  0  0  0  0  0  0
    2.3381   20.0658  -35.1538 H   0  0  0  0  0  0  0  0  0  0  0  0
    1.1737   19.1382  -36.1589 H   0  0  0  0  0  0  0  0  0  0  0  0
    1.1286   20.9339  -36.1589 H   0  0  0  0  0  0  0  0  0  0  0  0
  1  2  1  0
  2  3  1  0
  3  4  1  0
  4  5  2  0
  4  6  1  0
  6  7  1  0
  7  8  1  0
  8  9  1  0
  8 10  2  0
  7 11  2  0
 11 12  1  0
 12 13  2  0
 13 14  1  0
 14 15  2  0
 15 16  1  0
 16 17  1  0
 17 18  1  0
 18 19  1  0
 19 20  2  0
 19 21  1  0
 15 22  1  0
 22 23  2  0
  2 24  1  0
 24 25  1  0
 25 26  2  0
 25 27  1  0
 27 28  1  0
 27 29  1  0
 27 30  1  0
 23  6  1  0
 23 12  1  0
  1 31  1  0
  1 32  1  0
  1 33  1  0
  2 34  1  6
  9 35  1  0
 11 36  1  0
 13 37  1  0
 14 38  1  0
 16 39  1  0
 17 40  1  0
 17 41  1  0
 18 42  1  0
 18 43  1  0
 22 44  1  0
 28 45  1  0
 28 46  1  0
 28 47  1  0
 29 48  1  0
 29 49  1  0
 29 50  1  0
 30 51  1  0
 30 52  1  0
 30 53  1  0
M  CHG  2   9  -1  21  -1
M  END
>  <UniqueID>  (82) 
82

>  <SMILES>  (82) 
C[C@@H](OC(=O)n1c(C([NH-])=O)cc2ccc(NCCC(=O)[O-])cc21)OC(=O)C(C)(C)C

>  <Energy>  (82) 
77.90224571047116

>  <Genealogy>  (82) 
CC(OC(=O)n1c(C([NH-])=O)cc2ccc(NCCC(=O)[O-])cc21)OC(=O)C(C)(C)C (protonated)
C[C@@H](OC(=O)n1c(C([NH-])=O)cc2ccc(NCCC(=O)[O-])cc21)OC(=O)C(C)(C)C (chirality)
C[C@@H](OC(=O)n1c(C([NH-])=O)cc2ccc(NCCC(=O)[O-])cc21)OC(=O)C(C)(C)C (3D coordinates assigned)
C[C@@H](OC(=O)n1c(C([NH-])=O)cc2ccc(NCCC(=O)[O-])cc21)OC(=O)C(C)(C)C (optimized conformer: 77.90224571047116 kcal/mol)

>  <smiles>  (82) 
CC(OC(=O)n1c(C(N)=O)cc2ccc(NCCC(=O)O)cc21)OC(=O)C(C)(C)C

>  <score_type>  (82) 
oracle

>  <origin>  (82) 
adg

>  <m_score__min__energy>  (82) 
-11.27

>  <m_primary>  (82) 
energy

$$$$
83:0
     RDKit          3D

 64 66  0  0  0  0  0  0  0  0999 V2000
    1.1240   27.8930  -23.0060 C   0  0  0  0  0  0  0  0  0  0  0  0
    1.1150   28.0110  -24.4120 O   0  0  0  0  0  0  0  0  0  0  0  0
   -0.0410   28.7050  -24.8450 C   0  0  0  0  0  0  0  0  0  0  0  0
   -1.1620   27.7130  -25.1650 C   0  0  0  0  0  0  0  0  0  0  0  0
   -0.5940   26.3750  -25.4530 N   0  0  0  0  0  0  0  0  0  0  0  0
   -1.5770   25.2780  -25.3610 C   0  0  0  0  0  0  0  0  0  0  0  0
   -2.5680   25.2520  -26.5400 C   0  0  0  0  0  0  0  0  0  0  0  0
   -1.9140   25.3970  -27.8550 N   0  0  0  0  0  0  0  0  0  0  0  0
   -1.7810   24.1690  -28.6680 C   0  0  0  0  0  0  0  0  0  0  0  0
   -2.4710   22.9430  -28.0450 C   0  0  0  0  0  0  0  0  0  0  0  0
   -2.3770   21.6990  -28.9450 C   0  0  2  0  0  0  0  0  0  0  0  0
   -3.5740   21.5340  -29.7090 O   0  0  0  0  0  0  0  0  0  0  0  0
   -3.9500   22.3630  -30.7740 C   0  0  0  0  0  0  0  0  0  0  0  0
   -3.0850   22.7880  -31.5880 O   0  0  0  0  0  0  0  0  0  0  0  0
   -5.3340   22.7080  -30.9530 N   0  0  0  0  0  0  0  0  0  0  0  0
   -5.9340   23.9070  -30.7040 C   0  0  0  0  0  0  0  0  0  0  0  0
   -5.2490   25.1640  -30.3350 C   0  0  0  0  0  0  0  0  0  0  0  0
   -3.8520   25.3070  -30.5790 N   0  0  0  0  0  0  0  0  0  0  0  0
   -5.8740   26.0970  -29.7680 O   0  0  0  0  0  0  0  0  0  0  0  0
   -7.3070   23.8210  -30.9210 C   0  0  0  0  0  0  0  0  0  0  0  0
   -7.5330   22.5240  -31.3200 C   0  0  0  0  0  0  0  0  0  0  0  0
   -8.7250   21.8850  -31.6450 C   0  0  0  0  0  0  0  0  0  0  0  0
   -8.6700   20.5240  -31.9880 C   0  0  0  0  0  0  0  0  0  0  0  0
   -7.4320   19.8310  -32.0120 C   0  0  0  0  0  0  0  0  0  0  0  0
   -7.3930   18.3550  -32.3220 C   0  0  0  0  0  0  0  0  0  0  0  0
   -6.8770   18.1340  -33.5860 F   0  0  0  0  0  0  0  0  0  0  0  0
   -8.6760   17.8450  -32.2640 F   0  0  0  0  0  0  0  0  0  0  0  0
   -6.5990   17.6860  -31.4080 F   0  0  0  0  0  0  0  0  0  0  0  0
   -6.2450   20.5110  -31.6520 C   0  0  0  0  0  0  0  0  0  0  0  0
   -6.3280   21.8720  -31.3320 C   0  0  0  0  0  0  0  0  0  0  0  0
   -2.1950   20.4820  -28.0890 C   0  0  0  0  0  0  0  0  0  0  0  0
   -1.1660   19.7650  -28.2270 O   0  0  0  0  0  0  0  0  0  0  0  0
   -3.1480   20.1770  -27.1130 O   0  0  0  0  0  0  0  0  0  0  0  0
   -3.1170   18.9700  -26.3620 C   0  0  0  0  0  0  0  0  0  0  0  0
   -0.8150   26.3760  -27.9400 C   0  0  0  0  0  0  0  0  0  0  0  0
    0.1320   26.3160  -26.7320 C   0  0  0  0  0  0  0  0  0  0  0  0
    1.0477   28.8928  -22.5536 H   0  0  0  0  0  0  0  0  0  0  0  0
    0.2701   27.2788  -22.6841 H   0  0  0  0  0  0  0  0  0  0  0  0
    2.0612   27.4154  -22.6841 H   0  0  0  0  0  0  0  0  0  0  0  0
   -0.3751   29.3871  -24.0493 H   0  0  0  0  0  0  0  0  0  0  0  0
    0.2021   29.2780  -25.7520 H   0  0  0  0  0  0  0  0  0  0  0  0
   -1.8412   27.6416  -24.3027 H   0  0  0  0  0  0  0  0  0  0  0  0
   -1.7133   28.0669  -26.0487 H   0  0  0  0  0  0  0  0  0  0  0  0
   -1.0333   24.3220  -25.3399 H   0  0  0  0  0  0  0  0  0  0  0  0
   -2.1631   25.4398  -24.4443 H   0  0  0  0  0  0  0  0  0  0  0  0
   -3.1072   24.2934  -26.5219 H   0  0  0  0  0  0  0  0  0  0  0  0
   -3.2447   26.1103  -26.4161 H   0  0  0  0  0  0  0  0  0  0  0  0
   -2.2276   24.3553  -29.6559 H   0  0  0  0  0  0  0  0  0  0  0  0
   -0.7074   23.9382  -28.7324 H   0  0  0  0  0  0  0  0  0  0  0  0
   -1.9910   22.7190  -27.0809 H   0  0  0  0  0  0  0  0  0  0  0  0
   -3.5363   23.1857  -27.9171 H   0  0  0  0  0  0  0  0  0  0  0  0
   -1.5241   21.8292  -29.6274 H   0  0  0  0  0  0  0  0  0  0  0  0
   -3.4950   26.0280  -31.2470 H   0  0  0  0  0  0  0  0  0  0  0  0
   -8.0526   24.6206  -30.7992 H   0  0  0  0  0  0  0  0  0  0  0  0
   -9.6812   22.4287  -31.6338 H   0  0  0  0  0  0  0  0  0  0  0  0
   -9.5974   19.9892  -32.2409 H   0  0  0  0  0  0  0  0  0  0  0  0
   -5.2801   19.9836  -31.6241 H   0  0  0  0  0  0  0  0  0  0  0  0
   -3.1231   19.2063  -25.2877 H   0  0  0  0  0  0  0  0  0  0  0  0
   -3.9998   18.3619  -26.6087 H   0  0  0  0  0  0  0  0  0  0  0  0
   -2.2041   18.4080  -26.6087 H   0  0  0  0  0  0  0  0  0  0  0  0
   -0.2342   26.1737  -28.8520 H   0  0  0  0  0  0  0  0  0  0  0  0
   -1.2662   27.3790  -27.9569 H   0  0  0  0  0  0  0  0  0  0  0  0
    0.7002   25.3751  -26.7737 H   0  0  0  0  0  0  0  0  0  0  0  0
    0.7992   27.1891  -26.7822 H   0  0  0  0  0  0  0  0  0  0  0  0
  1  2  1  0
  2  3  1  0
  3  4  1  0
  4  5  1  0
  5  6  1  0
  6  7  1  0
  7  8  1  0
  8  9  1  0
  9 10  1  0
 10 11  1  0
 11 12  1  0
 12 13  1  0
 13 14  2  0
 13 15  1  0
 15 16  1  0
 16 17  1  0
 17 18  1  0
 17 19  2  0
 16 20  2  0
 20 21  1  0
 21 22  2  0
 22 23  1  0
 23 24  2  0
 24 25  1  0
 25 26  1  0
 25 27  1  0
 25 28  1  0
 24 29  1  0
 29 30  2  0
 11 31  1  0
 31 32  2  0
 31 33  1  0
 33 34  1  0
  8 35  1  0
 35 36  1  0
 36  5  1  0
 30 15  1  0
 30 21  1  0
  1 37  1  0
  1 38  1  0
  1 39  1  0
  3 40  1  0
  3 41  1  0
  4 42  1  0
  4 43  1  0
  6 44  1  0
  6 45  1  0
  7 46  1  0
  7 47  1  0
  9 48  1  0
  9 49  1  0
 10 50  1  0
 10 51  1  0
 11 52  1  6
 18 53  1  0
 20 54  1  0
 22 55  1  0
 23 56  1  0
 29 57  1  0
 34 58  1  0
 34 59  1  0
 34 60  1  0
 35 61  1  0
 35 62  1  0
 36 63  1  0
 36 64  1  0
M  CHG  1  18  -1
M  END
>  <UniqueID>  (83) 
83

>  <SMILES>  (83) 
COCCN1CCN(CC[C@H](OC(=O)n2c(C([NH-])=O)cc3ccc(C(F)(F)F)cc32)C(=O)OC)CC1

>  <Energy>  (83) 
112.28465443373997

>  <Genealogy>  (83) 
COCCN1CCN(CCC(OC(=O)n2c(C([NH-])=O)cc3ccc(C(F)(F)F)cc32)C(=O)OC)CC1 (protonated)
COCCN1CCN(CC[C@H](OC(=O)n2c(C([NH-])=O)cc3ccc(C(F)(F)F)cc32)C(=O)OC)CC1 (chirality)
COCCN1CCN(CC[C@H](OC(=O)n2c(C([NH-])=O)cc3ccc(C(F)(F)F)cc32)C(=O)OC)CC1 (3D coordinates assigned)
COCCN1CCN(CC[C@H](OC(=O)n2c(C([NH-])=O)cc3ccc(C(F)(F)F)cc32)C(=O)OC)CC1 (nonaromatic ring conformer: 112.28465443373997 kcal/mol)

>  <smiles>  (83) 
COCCN1CCN(CCC(OC(=O)n2c(C(N)=O)cc3ccc(C(F)(F)F)cc32)C(=O)OC)CC1

>  <score_type>  (83) 
oracle

>  <origin>  (83) 
adg

>  <m_score__min__energy>  (83) 
-10.869999999999999

>  <m_primary>  (83) 
energy

$$$$
84:0
     RDKit          3D

 38 39  0  0  0  0  0  0  0  0999 V2000
    0.4560   22.8790  -26.7900 C   0  0  0  0  0  0  0  0  0  0  0  0
    0.1190   23.1580  -28.2510 C   0  0  2  0  0  0  0  0  0  0  0  0
    0.1310   24.5660  -28.4980 O   0  0  0  0  0  0  0  0  0  0  0  0
   -0.8980   25.4330  -28.1110 C   0  0  0  0  0  0  0  0  0  0  0  0
   -1.5810   26.0510  -28.9700 O   0  0  0  0  0  0  0  0  0  0  0  0
   -1.1670   25.6130  -26.7620 O   0  0  0  0  0  0  0  0  0  0  0  0
   -1.1770   22.6360  -28.5290 O   0  0  0  0  0  0  0  0  0  0  0  0
   -1.7100   22.5660  -29.8210 C   0  0  0  0  0  0  0  0  0  0  0  0
   -0.9500   22.6440  -30.8220 O   0  0  0  0  0  0  0  0  0  0  0  0
   -3.1300   22.4500  -29.9880 N   0  0  0  0  0  0  0  0  0  0  0  0
   -3.7950   22.4540  -31.2610 C   0  0  0  0  0  0  0  0  0  0  0  0
   -3.1410   22.2700  -32.3260 O   0  0  0  0  0  0  0  0  0  0  0  0
   -5.2180   22.6640  -31.3240 N   0  0  0  0  0  0  0  0  0  0  0  0
   -5.9250   23.7920  -31.0240 C   0  0  0  0  0  0  0  0  0  0  0  0
   -5.3680   25.0980  -30.6180 C   0  0  0  0  0  0  0  0  0  0  0  0
   -3.9540   25.2750  -30.5710 N   0  0  0  0  0  0  0  0  0  0  0  0
   -6.1100   26.0670  -30.3160 O   0  0  0  0  0  0  0  0  0  0  0  0
   -7.2910   23.5740  -31.2100 C   0  0  0  0  0  0  0  0  0  0  0  0
   -7.3990   22.2730  -31.6420 C   0  0  0  0  0  0  0  0  0  0  0  0
   -8.5270   21.5320  -31.9750 C   0  0  0  0  0  0  0  0  0  0  0  0
   -8.3480   20.1970  -32.3780 C   0  0  0  0  0  0  0  0  0  0  0  0
   -7.0460   19.6270  -32.4390 C   0  0  0  0  0  0  0  0  0  0  0  0
   -6.8360   18.1900  -32.8530 C   0  0  0  0  0  0  0  0  0  0  0  0
   -5.8280   17.5840  -32.1260 F   0  0  0  0  0  0  0  0  0  0  0  0
   -8.0060   17.4810  -32.6460 F   0  0  0  0  0  0  0  0  0  0  0  0
   -6.5060   18.1380  -34.1950 F   0  0  0  0  0  0  0  0  0  0  0  0
   -5.9250   20.4140  -32.0900 C   0  0  0  0  0  0  0  0  0  0  0  0
   -6.1330   21.7460  -31.7090 C   0  0  0  0  0  0  0  0  0  0  0  0
   -0.2283   23.4455  -26.1412 H   0  0  0  0  0  0  0  0  0  0  0  0
    0.3469   21.8033  -26.5875 H   0  0  0  0  0  0  0  0  0  0  0  0
    1.4924   23.1870  -26.5875 H   0  0  0  0  0  0  0  0  0  0  0  0
    0.8671   22.6791  -28.8998 H   0  0  0  0  0  0  0  0  0  0  0  0
   -3.7150   22.3970  -29.1250 H   0  0  0  0  0  0  0  0  0  0  0  0
   -3.4990   25.6740  -29.7210 H   0  0  0  0  0  0  0  0  0  0  0  0
   -8.1085   24.2914  -31.0457 H   0  0  0  0  0  0  0  0  0  0  0  0
   -9.5314   21.9776  -31.9246 H   0  0  0  0  0  0  0  0  0  0  0  0
   -9.2228   19.5876  -32.6487 H   0  0  0  0  0  0  0  0  0  0  0  0
   -4.9106   19.9895  -32.1170 H   0  0  0  0  0  0  0  0  0  0  0  0
  1  2  1  0
  2  3  1  0
  3  4  1  0
  4  5  2  0
  4  6  1  0
  2  7  1  0
  7  8  1  0
  8  9  2  0
  8 10  1  0
 10 11  1  0
 11 12  2  0
 11 13  1  0
 13 14  1  0
 14 15  1  0
 15 16  1  0
 15 17  2  0
 14 18  2  0
 18 19  1  0
 19 20  2  0
 20 21  1  0
 21 22  2  0
 22 23  1  0
 23 24  1  0
 23 25  1  0
 23 26  1  0
 22 27  1  0
 27 28  2  0
 28 13  1  0
 28 19  1  0
  1 29  1  0
  1 30  1  0
  1 31  1  0
  2 32  1  6
 10 33  1  0
 16 34  1  0
 18 35  1  0
 20 36  1  0
 21 37  1  0
 27 38  1  0
M  CHG  2   6  -1  16  -1
M  END
>  <UniqueID>  (84) 
84

>  <SMILES>  (84) 
C[C@H](OC(=O)[O-])OC(=O)NC(=O)n1c(C([NH-])=O)cc2ccc(C(F)(F)F)cc21

>  <Energy>  (84) 
73.37399958625727

>  <Genealogy>  (84) 
CC(OC(=O)[O-])OC(=O)NC(=O)n1c(C([NH-])=O)cc2ccc(C(F)(F)F)cc21 (protonated)
C[C@H](OC(=O)[O-])OC(=O)NC(=O)n1c(C([NH-])=O)cc2ccc(C(F)(F)F)cc21 (chirality)
C[C@H](OC(=O)[O-])OC(=O)NC(=O)n1c(C([NH-])=O)cc2ccc(C(F)(F)F)cc21 (3D coordinates assigned)
C[C@H](OC(=O)[O-])OC(=O)NC(=O)n1c(C([NH-])=O)cc2ccc(C(F)(F)F)cc21 (optimized conformer: 73.37399958625727 kcal/mol)

>  <smiles>  (84) 
CC(OC(=O)O)OC(=O)NC(=O)n1c(C(N)=O)cc2ccc(C(F)(F)F)cc21

>  <score_type>  (84) 
oracle

>  <origin>  (84) 
adg

>  <m_score__min__energy>  (84) 
-11.880000000000001

>  <m_primary>  (84) 
energy

$$$$
85:0
     RDKit          3D

 39 40  0  0  0  0  0  0  0  0999 V2000
   -3.9050   25.6170  -30.8520 N   0  0  0  0  0  0  0  0  0  0  0  0
   -5.2340   25.3040  -30.4410 C   0  0  0  0  0  0  0  0  0  0  0  0
   -5.8640   26.1180  -29.7170 O   0  0  0  0  0  0  0  0  0  0  0  0
   -5.8640   24.0410  -30.8850 C   0  0  0  0  0  0  0  0  0  0  0  0
   -7.2220   23.9100  -31.1710 C   0  0  0  0  0  0  0  0  0  0  0  0
   -7.3980   22.5830  -31.4990 C   0  0  0  0  0  0  0  0  0  0  0  0
   -8.5490   21.8980  -31.8750 C   0  0  0  0  0  0  0  0  0  0  0  0
   -8.4310   20.5310  -32.1780 C   0  0  0  0  0  0  0  0  0  0  0  0
   -7.1710   19.8810  -32.1260 C   0  0  0  0  0  0  0  0  0  0  0  0
   -7.0660   18.4050  -32.4150 C   0  0  0  0  0  0  0  0  0  0  0  0
   -8.3040   17.7970  -32.3070 F   0  0  0  0  0  0  0  0  0  0  0  0
   -6.5890   18.1900  -33.6970 F   0  0  0  0  0  0  0  0  0  0  0  0
   -6.1980   17.8250  -31.5090 F   0  0  0  0  0  0  0  0  0  0  0  0
   -6.0290   20.6090  -31.7200 C   0  0  0  0  0  0  0  0  0  0  0  0
   -6.1800   21.9640  -31.4060 C   0  0  0  0  0  0  0  0  0  0  0  0
   -5.2300   22.8440  -31.0250 N   0  0  0  0  0  0  0  0  0  0  0  0
   -3.8280   22.5720  -30.8710 C   0  0  0  0  0  0  0  0  0  0  0  0
   -3.0050   23.0900  -31.6730 O   0  0  0  0  0  0  0  0  0  0  0  0
   -3.3460   21.7050  -29.7800 C   0  0  0  0  0  0  0  0  0  0  0  0
   -3.3510   20.4540  -29.9360 O   0  0  0  0  0  0  0  0  0  0  0  0
   -2.8860   22.2720  -28.5450 N   0  0  0  0  0  0  0  0  0  0  0  0
   -2.4010   21.4260  -27.4550 C   0  0  0  0  0  0  0  0  0  0  0  0
   -1.4480   22.1830  -26.5850 C   0  0  0  0  0  0  0  0  0  0  0  0
   -0.7130   21.5620  -25.7720 O   0  0  0  0  0  0  0  0  0  0  0  0
   -1.3450   23.6050  -26.7200 N   0  0  0  0  0  0  0  0  0  0  0  0
   -0.4260   24.2620  -27.6420 C   0  0  0  0  0  0  0  0  0  0  0  0
   -1.1550   24.7100  -28.8680 C   0  0  0  0  0  0  0  0  0  0  0  0
   -1.3330   23.9120  -29.8250 O   0  0  0  0  0  0  0  0  0  0  0  0
   -1.6110   26.0190  -28.9680 O   0  0  0  0  0  0  0  0  0  0  0  0
   -3.0870   25.1020  -30.4560 H   0  0  0  0  0  0  0  0  0  0  0  0
   -7.9893   24.6976  -31.1413 H   0  0  0  0  0  0  0  0  0  0  0  0
   -9.5207   22.4103  -31.9333 H   0  0  0  0  0  0  0  0  0  0  0  0
   -9.3267   19.9577  -32.4590 H   0  0  0  0  0  0  0  0  0  0  0  0
   -5.0452   20.1216  -31.6526 H   0  0  0  0  0  0  0  0  0  0  0  0
   -2.8910   23.3110  -28.4290 H   0  0  0  0  0  0  0  0  0  0  0  0
   -3.2560   21.0915  -26.8491 H   0  0  0  0  0  0  0  0  0  0  0  0
   -1.8771   20.5595  -27.8848 H   0  0  0  0  0  0  0  0  0  0  0  0
    0.0225   25.1357  -27.1466 H   0  0  0  0  0  0  0  0  0  0  0  0
    0.3602   23.5497  -27.9327 H   0  0  0  0  0  0  0  0  0  0  0  0
  1  2  1  0
  2  3  2  0
  2  4  1  0
  4  5  2  0
  5  6  1  0
  6  7  2  0
  7  8  1  0
  8  9  2  0
  9 10  1  0
 10 11  1  0
 10 12  1  0
 10 13  1  0
  9 14  1  0
 14 15  2  0
 15 16  1  0
 16 17  1  0
 17 18  2  0
 17 19  1  0
 19 20  2  0
 19 21  1  0
 21 22  1  0
 22 23  1  0
 23 24  2  0
 23 25  1  0
 25 26  1  0
 26 27  1  0
 27 28  2  0
 27 29  1  0
 16  4  1  0
 15  6  1  0
  1 30  1  0
  5 31  1  0
  7 32  1  0
  8 33  1  0
 14 34  1  0
 21 35  1  0
 22 36  1  0
 22 37  1  0
 26 38  1  0
 26 39  1  0
M  CHG  3   1  -1  25  -1  29  -1
M  END
>  <UniqueID>  (85) 
85

>  <SMILES>  (85) 
[NH-]C(=O)c1cc2ccc(C(F)(F)F)cc2n1C(=O)C(=O)NCC(=O)[N-]CC(=O)[O-]

>  <Energy>  (85) 
72.92992701988368

>  <Genealogy>  (85) 
[NH-]C(=O)c1cc2ccc(C(F)(F)F)cc2n1C(=O)C(=O)NCC(=O)[N-]CC(=O)[O-] (protonated)
[NH-]C(=O)c1cc2ccc(C(F)(F)F)cc2n1C(=O)C(=O)NCC(=O)[N-]CC(=O)[O-] (3D coordinates assigned)
[NH-]C(=O)c1cc2ccc(C(F)(F)F)cc2n1C(=O)C(=O)NCC(=O)[N-]CC(=O)[O-] (optimized conformer: 72.92992701988368 kcal/mol)

>  <smiles>  (85) 
NC(=O)c1cc2ccc(C(F)(F)F)cc2n1C(=O)C(=O)NCC(=O)NCC(=O)O

>  <score_type>  (85) 
oracle

>  <origin>  (85) 
adg

>  <m_score__min__energy>  (85) 
-12.17

>  <m_primary>  (85) 
energy

$$$$
86:0
     RDKit          3D

 44 45  0  0  0  0  0  0  0  0999 V2000
   -4.2050   24.5530  -27.1570 C   0  0  0  0  0  0  0  0  0  0  0  0
   -2.7710   24.1670  -26.7680 C   0  0  0  0  0  0  0  0  0  0  0  0
   -1.8730   25.4000  -26.6080 C   0  0  0  0  0  0  0  0  0  0  0  0
   -2.1880   23.1990  -27.7250 N   0  0  0  0  0  0  0  0  0  0  0  0
   -1.2120   22.2160  -27.2320 C   0  0  0  0  0  0  0  0  0  0  0  0
   -2.5640   23.1930  -29.1270 C   0  0  0  0  0  0  0  0  0  0  0  0
   -2.1500   24.1010  -29.8980 O   0  0  0  0  0  0  0  0  0  0  0  0
   -3.3920   22.0910  -29.7340 C   0  0  0  0  0  0  0  0  0  0  0  0
   -4.0710   22.5970  -30.9700 C   0  0  0  0  0  0  0  0  0  0  0  0
   -3.3820   22.9290  -31.9720 O   0  0  0  0  0  0  0  0  0  0  0  0
   -5.4900   22.8060  -30.9840 N   0  0  0  0  0  0  0  0  0  0  0  0
   -6.1650   23.9800  -30.8390 C   0  0  0  0  0  0  0  0  0  0  0  0
   -5.5750   25.2710  -30.4320 C   0  0  0  0  0  0  0  0  0  0  0  0
   -4.2420   25.6310  -30.8020 N   0  0  0  0  0  0  0  0  0  0  0  0
   -6.2450   26.0570  -29.7100 O   0  0  0  0  0  0  0  0  0  0  0  0
   -7.5180   23.8030  -31.1190 C   0  0  0  0  0  0  0  0  0  0  0  0
   -7.6510   22.4690  -31.4330 C   0  0  0  0  0  0  0  0  0  0  0  0
   -8.7720   21.7490  -31.8340 C   0  0  0  0  0  0  0  0  0  0  0  0
   -8.6060   20.3890  -32.1510 C   0  0  0  0  0  0  0  0  0  0  0  0
   -7.3330   19.7710  -32.0500 C   0  0  0  0  0  0  0  0  0  0  0  0
   -7.1610   18.3270  -32.4460 C   0  0  0  0  0  0  0  0  0  0  0  0
   -6.7870   18.2590  -33.7750 F   0  0  0  0  0  0  0  0  0  0  0  0
   -8.3470   17.6340  -32.2760 F   0  0  0  0  0  0  0  0  0  0  0  0
   -6.1890   17.7180  -31.6730 F   0  0  0  0  0  0  0  0  0  0  0  0
   -6.2130   20.5440  -31.6630 C   0  0  0  0  0  0  0  0  0  0  0  0
   -6.4130   21.8910  -31.3430 C   0  0  0  0  0  0  0  0  0  0  0  0
   -4.8013   24.7135  -26.2467 H   0  0  0  0  0  0  0  0  0  0  0  0
   -4.1872   25.4783  -27.7515 H   0  0  0  0  0  0  0  0  0  0  0  0
   -4.6541   23.7438  -27.7515 H   0  0  0  0  0  0  0  0  0  0  0  0
   -2.8266   23.6718  -25.7874 H   0  0  0  0  0  0  0  0  0  0  0  0
   -1.7220   25.6073  -25.5383 H   0  0  0  0  0  0  0  0  0  0  0  0
   -0.9005   25.2097  -27.0855 H   0  0  0  0  0  0  0  0  0  0  0  0
   -2.3525   26.2673  -27.0855 H   0  0  0  0  0  0  0  0  0  0  0  0
   -1.2136   22.2176  -26.1320 H   0  0  0  0  0  0  0  0  0  0  0  0
   -1.4835   21.2147  -27.5976 H   0  0  0  0  0  0  0  0  0  0  0  0
   -0.2088   22.4803  -27.5976 H   0  0  0  0  0  0  0  0  0  0  0  0
   -2.7402   21.2441  -29.9947 H   0  0  0  0  0  0  0  0  0  0  0  0
   -4.1505   21.7613  -29.0087 H   0  0  0  0  0  0  0  0  0  0  0  0
   -3.8670   26.5740  -30.5560 H   0  0  0  0  0  0  0  0  0  0  0  0
   -3.5980   24.9400  -31.2460 H   0  0  0  0  0  0  0  0  0  0  0  0
   -8.3104   24.5656  -31.0945 H   0  0  0  0  0  0  0  0  0  0  0  0
   -9.7592   22.2295  -31.9011 H   0  0  0  0  0  0  0  0  0  0  0  0
   -9.4729   19.7978  -32.4810 H   0  0  0  0  0  0  0  0  0  0  0  0
   -5.2092   20.0966  -31.6149 H   0  0  0  0  0  0  0  0  0  0  0  0
  1  2  1  0
  2  3  1  0
  2  4  1  0
  4  5  1  0
  4  6  1  0
  6  7  2  0
  6  8  1  0
  8  9  1  0
  9 10  2  0
  9 11  1  0
 11 12  1  0
 12 13  1  0
 13 14  1  0
 13 15  2  0
 12 16  2  0
 16 17  1  0
 17 18  2  0
 18 19  1  0
 19 20  2  0
 20 21  1  0
 21 22  1  0
 21 23  1  0
 21 24  1  0
 20 25  1  0
 25 26  2  0
 26 11  1  0
 26 17  1  0
  1 27  1  0
  1 28  1  0
  1 29  1  0
  2 30  1  0
  3 31  1  0
  3 32  1  0
  3 33  1  0
  5 34  1  0
  5 35  1  0
  5 36  1  0
  8 37  1  0
  8 38  1  0
 14 39  1  0
 14 40  1  0
 16 41  1  0
 18 42  1  0
 19 43  1  0
 25 44  1  0
M  END
>  <UniqueID>  (86) 
86

>  <SMILES>  (86) 
CC(C)N(C)C(=O)CC(=O)n1c(C(N)=O)cc2ccc(C(F)(F)F)cc21

>  <Energy>  (86) 
77.85397582114432

>  <Genealogy>  (86) 
CC(C)N(C)C(=O)CC(=O)n1c(C(N)=O)cc2ccc(C(F)(F)F)cc21 (3D coordinates assigned)
CC(C)N(C)C(=O)CC(=O)n1c(C(N)=O)cc2ccc(C(F)(F)F)cc21 (optimized conformer: 77.85397582114432 kcal/mol)

>  <smiles>  (86) 
CC(C)N(C)C(=O)CC(=O)n1c(C(N)=O)cc2ccc(C(F)(F)F)cc21

>  <score_type>  (86) 
oracle

>  <origin>  (86) 
adg

>  <m_score__min__energy>  (86) 
-8.6600000000000001

>  <m_primary>  (86) 
energy

$$$$
87:0
     RDKit          3D

 37 38  0  0  0  0  0  0  0  0999 V2000
   -2.9620   24.8800  -26.6930 C   0  0  0  0  0  0  0  0  0  0  0  0
   -3.2170   23.9670  -27.8130 N   0  0  0  0  0  0  0  0  0  0  0  0
   -4.2270   22.9130  -27.6690 C   0  0  0  0  0  0  0  0  0  0  0  0
   -2.5240   24.1920  -29.0620 C   0  0  0  0  0  0  0  0  0  0  0  0
   -1.9530   25.2990  -29.2590 O   0  0  0  0  0  0  0  0  0  0  0  0
   -2.4410   23.1780  -30.1340 C   0  0  0  0  0  0  0  0  0  0  0  0
   -1.5980   22.2430  -30.0750 O   0  0  0  0  0  0  0  0  0  0  0  0
   -3.3000   23.2960  -31.2360 O   0  0  0  0  0  0  0  0  0  0  0  0
   -4.1760   22.3010  -31.6900 C   0  0  0  0  0  0  0  0  0  0  0  0
   -3.7360   21.2730  -32.2750 O   0  0  0  0  0  0  0  0  0  0  0  0
   -5.5900   22.4560  -31.4890 N   0  0  0  0  0  0  0  0  0  0  0  0
   -6.2340   23.4910  -30.8770 C   0  0  0  0  0  0  0  0  0  0  0  0
   -5.6130   24.7540  -30.4330 C   0  0  0  0  0  0  0  0  0  0  0  0
   -5.8490   25.2750  -29.1240 N   0  0  0  0  0  0  0  0  0  0  0  0
   -4.8160   25.3560  -31.2020 O   0  0  0  0  0  0  0  0  0  0  0  0
   -7.5960   23.2270  -30.7640 C   0  0  0  0  0  0  0  0  0  0  0  0
   -7.7750   21.9920  -31.3430 C   0  0  0  0  0  0  0  0  0  0  0  0
   -8.9340   21.2350  -31.4950 C   0  0  0  0  0  0  0  0  0  0  0  0
   -8.8220   19.9720  -32.1000 C   0  0  0  0  0  0  0  0  0  0  0  0
   -7.5620   19.4890  -32.5280 C   0  0  0  0  0  0  0  0  0  0  0  0
   -7.4600   18.1950  -33.1290 N   0  0  0  0  0  0  0  0  0  0  0  0
   -6.4080   20.2810  -32.3570 C   0  0  0  0  0  0  0  0  0  0  0  0
   -6.5500   21.5450  -31.7720 C   0  0  0  0  0  0  0  0  0  0  0  0
   -3.1112   24.3457  -25.7431 H   0  0  0  0  0  0  0  0  0  0  0  0
   -1.9268   25.2478  -26.7481 H   0  0  0  0  0  0  0  0  0  0  0  0
   -3.6568   25.7310  -26.7481 H   0  0  0  0  0  0  0  0  0  0  0  0
   -4.4090   22.7230  -26.6009 H   0  0  0  0  0  0  0  0  0  0  0  0
   -5.1632   23.2342  -28.1490 H   0  0  0  0  0  0  0  0  0  0  0  0
   -3.8662   21.9914  -28.1490 H   0  0  0  0  0  0  0  0  0  0  0  0
   -6.3630   24.7180  -28.4070 H   0  0  0  0  0  0  0  0  0  0  0  0
   -5.4320   26.1900  -28.8410 H   0  0  0  0  0  0  0  0  0  0  0  0
   -8.3649   23.8687  -30.3090 H   0  0  0  0  0  0  0  0  0  0  0  0
   -9.9077   21.6145  -31.1517 H   0  0  0  0  0  0  0  0  0  0  0  0
   -9.7205   19.3535  -32.2423 H   0  0  0  0  0  0  0  0  0  0  0  0
   -6.6700   17.5560  -32.8880 H   0  0  0  0  0  0  0  0  0  0  0  0
   -8.1720   17.8690  -33.8190 H   0  0  0  0  0  0  0  0  0  0  0  0
   -5.4208   19.9149  -32.6753 H   0  0  0  0  0  0  0  0  0  0  0  0
  1  2  1  0
  2  3  1  0
  2  4  1  0
  4  5  2  0
  4  6  1  0
  6  7  2  0
  6  8  1  0
  8  9  1  0
  9 10  2  0
  9 11  1  0
 11 12  1  0
 12 13  1  0
 13 14  1  0
 13 15  2  0
 12 16  2  0
 16 17  1  0
 17 18  2  0
 18 19  1  0
 19 20  2  0
 20 21  1  0
 20 22  1  0
 22 23  2  0
 23 11  1  0
 23 17  1  0
  1 24  1  0
  1 25  1  0
  1 26  1  0
  3 27  1  0
  3 28  1  0
  3 29  1  0
 14 30  1  0
 14 31  1  0
 16 32  1  0
 18 33  1  0
 19 34  1  0
 21 35  1  0
 21 36  1  0
 22 37  1  0
M  END
>  <UniqueID>  (87) 
87

>  <SMILES>  (87) 
CN(C)C(=O)C(=O)OC(=O)n1c(C(N)=O)cc2ccc(N)cc21

>  <Energy>  (87) 
76.31112508224967

>  <Genealogy>  (87) 
CN(C)C(=O)C(=O)OC(=O)n1c(C(N)=O)cc2ccc(N)cc21 (3D coordinates assigned)
CN(C)C(=O)C(=O)OC(=O)n1c(C(N)=O)cc2ccc(N)cc21 (optimized conformer: 76.31112508224967 kcal/mol)

>  <smiles>  (87) 
CN(C)C(=O)C(=O)OC(=O)n1c(C(N)=O)cc2ccc(N)cc21

>  <score_type>  (87) 
oracle

>  <origin>  (87) 
adg

>  <m_score__min__energy>  (87) 
-8.3599999999999994

>  <m_primary>  (87) 
energy

$$$$
88:0
     RDKit          3D

 41 42  0  0  0  0  0  0  0  0999 V2000
   -7.5600   17.9620  -33.0720 C   0  0  0  0  0  0  0  0  0  0  0  0
   -7.5610   19.3200  -32.4370 C   0  0  0  0  0  0  0  0  0  0  0  0
   -8.7420   19.8210  -31.8350 C   0  0  0  0  0  0  0  0  0  0  0  0
   -8.7420   21.0700  -31.1900 C   0  0  0  0  0  0  0  0  0  0  0  0
   -7.5520   21.7910  -31.1650 C   0  0  0  0  0  0  0  0  0  0  0  0
   -7.2570   22.9950  -30.5640 C   0  0  0  0  0  0  0  0  0  0  0  0
   -5.9070   23.2150  -30.8250 C   0  0  0  0  0  0  0  0  0  0  0  0
   -5.1690   24.4100  -30.3640 C   0  0  0  0  0  0  0  0  0  0  0  0
   -5.1540   24.7890  -28.9870 N   0  0  0  0  0  0  0  0  0  0  0  0
   -4.5040   25.0830  -31.1950 O   0  0  0  0  0  0  0  0  0  0  0  0
   -5.3860   22.1900  -31.5550 N   0  0  0  0  0  0  0  0  0  0  0  0
   -4.0080   21.9820  -31.9020 C   0  0  0  0  0  0  0  0  0  0  0  0
   -3.6650   21.9810  -33.1150 O   0  0  0  0  0  0  0  0  0  0  0  0
   -2.9950   21.7470  -30.8620 C   0  0  0  0  0  0  0  0  0  0  0  0
   -2.6420   20.5690  -30.5880 O   0  0  0  0  0  0  0  0  0  0  0  0
   -2.4120   22.8650  -30.1780 N   0  0  0  0  0  0  0  0  0  0  0  0
   -2.1490   22.9720  -28.7380 C   0  0  0  0  0  0  0  0  0  0  0  0
   -3.1390   22.0890  -27.9550 C   0  0  0  0  0  0  0  0  0  0  0  0
   -0.7220   22.4580  -28.4830 C   0  0  0  0  0  0  0  0  0  0  0  0
   -2.2610   24.4440  -28.2680 C   0  0  0  0  0  0  0  0  0  0  0  0
   -2.5610   25.2980  -29.3420 O   0  0  0  0  0  0  0  0  0  0  0  0
   -6.4030   21.3230  -31.7490 C   0  0  0  0  0  0  0  0  0  0  0  0
   -6.3670   20.0700  -32.3730 C   0  0  0  0  0  0  0  0  0  0  0  0
   -7.5594   17.1906  -32.2878 H   0  0  0  0  0  0  0  0  0  0  0  0
   -8.4581   17.8488  -33.6970 H   0  0  0  0  0  0  0  0  0  0  0  0
   -6.6618   17.8502  -33.6970 H   0  0  0  0  0  0  0  0  0  0  0  0
   -9.6671   19.2271  -31.8728 H   0  0  0  0  0  0  0  0  0  0  0  0
   -9.6544   21.4652  -30.7196 H   0  0  0  0  0  0  0  0  0  0  0  0
   -7.9418   23.6441  -29.9986 H   0  0  0  0  0  0  0  0  0  0  0  0
   -4.6740   25.6680  -28.6920 H   0  0  0  0  0  0  0  0  0  0  0  0
   -5.5240   24.1550  -28.2460 H   0  0  0  0  0  0  0  0  0  0  0  0
   -2.9812   22.2297  -26.8755 H   0  0  0  0  0  0  0  0  0  0  0  0
   -4.1692   22.3736  -28.2152 H   0  0  0  0  0  0  0  0  0  0  0  0
   -2.9735   21.0331  -28.2152 H   0  0  0  0  0  0  0  0  0  0  0  0
   -0.5436   22.3937  -27.3995 H   0  0  0  0  0  0  0  0  0  0  0  0
   -0.6053   21.4613  -28.9336 H   0  0  0  0  0  0  0  0  0  0  0  0
    0.0034   23.1513  -28.9336 H   0  0  0  0  0  0  0  0  0  0  0  0
   -3.0590   24.5206  -27.5148 H   0  0  0  0  0  0  0  0  0  0  0  0
   -1.2941   24.7480  -27.8404 H   0  0  0  0  0  0  0  0  0  0  0  0
   -2.6530   24.7240  -30.1470 H   0  0  0  0  0  0  0  0  0  0  0  0
   -5.4322   19.6802  -32.8023 H   0  0  0  0  0  0  0  0  0  0  0  0
  1  2  1  0
  2  3  2  0
  3  4  1  0
  4  5  2  0
  5  6  1  0
  6  7  2  0
  7  8  1  0
  8  9  1  0
  8 10  2  0
  7 11  1  0
 11 12  1  0
 12 13  2  0
 12 14  1  0
 14 15  2  0
 14 16  1  0
 16 17  1  0
 17 18  1  0
 17 19  1  0
 17 20  1  0
 20 21  1  0
 11 22  1  0
 22 23  2  0
 23  2  1  0
 22  5  1  0
  1 24  1  0
  1 25  1  0
  1 26  1  0
  3 27  1  0
  4 28  1  0
  6 29  1  0
  9 30  1  0
  9 31  1  0
 18 32  1  0
 18 33  1  0
 18 34  1  0
 19 35  1  0
 19 36  1  0
 19 37  1  0
 20 38  1  0
 20 39  1  0
 21 40  1  0
 23 41  1  0
M  CHG  1  16  -1
M  END
>  <UniqueID>  (88) 
88

>  <SMILES>  (88) 
Cc1ccc2cc(C(N)=O)n(C(=O)C(=O)[N-]C(C)(C)CO)c2c1

>  <Energy>  (88) 
75.0184910380421

>  <Genealogy>  (88) 
Cc1ccc2cc(C(N)=O)n(C(=O)C(=O)[N-]C(C)(C)CO)c2c1 (protonated)
Cc1ccc2cc(C(N)=O)n(C(=O)C(=O)[N-]C(C)(C)CO)c2c1 (3D coordinates assigned)
Cc1ccc2cc(C(N)=O)n(C(=O)C(=O)[N-]C(C)(C)CO)c2c1 (optimized conformer: 75.0184910380421 kcal/mol)

>  <smiles>  (88) 
Cc1ccc2cc(C(N)=O)n(C(=O)C(=O)NC(C)(C)CO)c2c1

>  <score_type>  (88) 
oracle

>  <origin>  (88) 
adg

>  <m_score__min__energy>  (88) 
-10.49

>  <m_primary>  (88) 
energy

$$$$
89:0
     RDKit          3D

 38 39  0  0  0  0  0  0  0  0999 V2000
   -0.8730   25.8570  -27.8790 C   0  0  0  0  0  0  0  0  0  0  0  0
   -1.3900   24.8990  -28.9390 C   0  0  0  0  0  0  0  0  0  0  0  0
   -2.7330   25.2910  -29.3430 N   0  0  0  0  0  0  0  0  0  0  0  0
   -3.5130   24.5510  -30.2840 C   0  0  0  0  0  0  0  0  0  0  0  0
   -4.4350   25.1160  -30.9340 O   0  0  0  0  0  0  0  0  0  0  0  0
   -3.2630   23.0890  -30.4630 C   0  0  0  0  0  0  0  0  0  0  0  0
   -4.5050   22.4220  -30.6600 O   0  0  0  0  0  0  0  0  0  0  0  0
   -5.0020   22.0900  -31.9220 C   0  0  0  0  0  0  0  0  0  0  0  0
   -4.3550   22.3980  -32.9600 O   0  0  0  0  0  0  0  0  0  0  0  0
   -6.2600   21.4050  -32.0350 N   0  0  0  0  0  0  0  0  0  0  0  0
   -7.5080   21.9200  -31.8510 C   0  0  0  0  0  0  0  0  0  0  0  0
   -7.8340   23.3450  -31.6450 C   0  0  0  0  0  0  0  0  0  0  0  0
   -6.9350   24.2180  -30.9610 N   0  0  0  0  0  0  0  0  0  0  0  0
   -8.8990   23.8120  -32.1300 O   0  0  0  0  0  0  0  0  0  0  0  0
   -8.4720   20.9180  -31.9390 C   0  0  0  0  0  0  0  0  0  0  0  0
   -7.7720   19.7630  -32.1980 C   0  0  0  0  0  0  0  0  0  0  0  0
   -8.2310   18.4610  -32.3760 C   0  0  0  0  0  0  0  0  0  0  0  0
   -7.2810   17.4520  -32.6010 C   0  0  0  0  0  0  0  0  0  0  0  0
   -5.8970   17.7560  -32.6260 C   0  0  0  0  0  0  0  0  0  0  0  0
   -4.8950   16.6630  -32.8670 C   0  0  0  0  0  0  0  0  0  0  0  0
   -5.0910   16.1220  -34.1240 F   0  0  0  0  0  0  0  0  0  0  0  0
   -5.0420   15.6710  -31.9140 F   0  0  0  0  0  0  0  0  0  0  0  0
   -5.4680   19.0890  -32.4460 C   0  0  0  0  0  0  0  0  0  0  0  0
   -6.4380   20.0810  -32.2490 C   0  0  0  0  0  0  0  0  0  0  0  0
   -1.0918   25.4515  -26.8802 H   0  0  0  0  0  0  0  0  0  0  0  0
    0.2140   25.9800  -27.9947 H   0  0  0  0  0  0  0  0  0  0  0  0
   -1.3668   26.8331  -27.9947 H   0  0  0  0  0  0  0  0  0  0  0  0
   -0.7228   24.9264  -29.8131 H   0  0  0  0  0  0  0  0  0  0  0  0
   -1.4171   23.8797  -28.5262 H   0  0  0  0  0  0  0  0  0  0  0  0
   -2.6175   22.9308  -31.3395 H   0  0  0  0  0  0  0  0  0  0  0  0
   -2.7657   22.6870  -29.5679 H   0  0  0  0  0  0  0  0  0  0  0  0
   -7.1990   25.2140  -30.7900 H   0  0  0  0  0  0  0  0  0  0  0  0
   -5.9750   23.9060  -30.6990 H   0  0  0  0  0  0  0  0  0  0  0  0
   -9.5606   21.0274  -31.8255 H   0  0  0  0  0  0  0  0  0  0  0  0
   -9.3058   18.2296  -32.3414 H   0  0  0  0  0  0  0  0  0  0  0  0
   -7.6141   16.4157  -32.7594 H   0  0  0  0  0  0  0  0  0  0  0  0
   -3.8813   17.0849  -32.8006 H   0  0  0  0  0  0  0  0  0  0  0  0
   -4.3978   19.3429  -32.4601 H   0  0  0  0  0  0  0  0  0  0  0  0
  1  2  1  0
  2  3  1  0
  3  4  1  0
  4  5  2  0
  4  6  1  0
  6  7  1  0
  7  8  1  0
  8  9  2  0
  8 10  1  0
 10 11  1  0
 11 12  1  0
 12 13  1  0
 12 14  2  0
 11 15  2  0
 15 16  1  0
 16 17  2  0
 17 18  1  0
 18 19  2  0
 19 20  1  0
 20 21  1  0
 20 22  1  0
 19 23  1  0
 23 24  2  0
 24 10  1  0
 24 16  1  0
  1 25  1  0
  1 26  1  0
  1 27  1  0
  2 28  1  0
  2 29  1  0
  6 30  1  0
  6 31  1  0
 13 32  1  0
 13 33  1  0
 15 34  1  0
 17 35  1  0
 18 36  1  0
 20 37  1  0
 23 38  1  0
M  CHG  1   3  -1
M  END
>  <UniqueID>  (89) 
89

>  <SMILES>  (89) 
CC[N-]C(=O)COC(=O)n1c(C(N)=O)cc2ccc(C(F)F)cc21

>  <Energy>  (89) 
67.5136743624826

>  <Genealogy>  (89) 
CC[N-]C(=O)COC(=O)n1c(C(N)=O)cc2ccc(C(F)F)cc21 (protonated)
CC[N-]C(=O)COC(=O)n1c(C(N)=O)cc2ccc(C(F)F)cc21 (3D coordinates assigned)
CC[N-]C(=O)COC(=O)n1c(C(N)=O)cc2ccc(C(F)F)cc21 (optimized conformer: 67.5136743624826 kcal/mol)

>  <smiles>  (89) 
CCNC(=O)COC(=O)n1c(C(N)=O)cc2ccc(C(F)F)cc21

>  <score_type>  (89) 
oracle

>  <origin>  (89) 
adg

>  <m_score__min__energy>  (89) 
-9.7599999999999998

>  <m_primary>  (89) 
energy

$$$$
90:0
     RDKit          3D

 39 40  0  0  0  0  0  0  0  0999 V2000
   -5.4480   18.9060  -34.3920 C   0  0  0  0  0  0  0  0  0  0  0  0
   -5.7660   20.0360  -33.4040 C   0  0  1  0  0  0  0  0  0  0  0  0
   -6.7890   19.6040  -32.3720 C   0  0  0  0  0  0  0  0  0  0  0  0
   -6.4080   19.2090  -31.2760 O   0  0  0  0  0  0  0  0  0  0  0  0
   -8.2090   19.6840  -32.6600 N   0  0  0  0  0  0  0  0  0  0  0  0
   -8.9260   18.5890  -31.9880 C   0  0  0  0  0  0  0  0  0  0  0  0
   -8.7400   20.9920  -32.2440 C   0  0  0  0  0  0  0  0  0  0  0  0
   -4.5180   20.5570  -32.7200 C   0  0  0  0  0  0  0  0  0  0  0  0
   -3.2860   19.8540  -32.8100 C   0  0  0  0  0  0  0  0  0  0  0  0
   -2.1400   20.3230  -32.1460 C   0  0  0  0  0  0  0  0  0  0  0  0
   -2.2500   21.4930  -31.4030 C   0  0  0  0  0  0  0  0  0  0  0  0
   -1.3090   22.1480  -30.6420 C   0  0  0  0  0  0  0  0  0  0  0  0
   -1.9690   23.2510  -30.1060 C   0  0  0  0  0  0  0  0  0  0  0  0
   -1.2980   24.2800  -29.2830 C   0  0  0  0  0  0  0  0  0  0  0  0
   -1.9790   25.4940  -28.9730 N   0  0  0  0  0  0  0  0  0  0  0  0
   -0.1440   24.0850  -28.8200 O   0  0  0  0  0  0  0  0  0  0  0  0
   -3.2710   23.2740  -30.5130 N   0  0  0  0  0  0  0  0  0  0  0  0
   -4.2990   24.2020  -30.1350 C   0  0  0  0  0  0  0  0  0  0  0  0
   -5.0690   23.9390  -29.1720 O   0  0  0  0  0  0  0  0  0  0  0  0
   -4.4660   25.3890  -30.8450 O   0  0  0  0  0  0  0  0  0  0  0  0
   -5.4260   26.2670  -30.5040 F   0  0  0  0  0  0  0  0  0  0  0  0
   -3.4250   22.1920  -31.3090 C   0  0  0  0  0  0  0  0  0  0  0  0
   -4.5870   21.7390  -31.9450 C   0  0  0  0  0  0  0  0  0  0  0  0
   -5.1911   17.9931  -33.8346 H   0  0  0  0  0  0  0  0  0  0  0  0
   -6.3270   18.7141  -35.0248 H   0  0  0  0  0  0  0  0  0  0  0  0
   -4.5979   19.2007  -35.0248 H   0  0  0  0  0  0  0  0  0  0  0  0
   -6.1973   20.8571  -33.9955 H   0  0  0  0  0  0  0  0  0  0  0  0
   -8.3730   19.5900  -33.6900 H   0  0  0  0  0  0  0  0  0  0  0  0
   -8.8452   18.7124  -30.8979 H   0  0  0  0  0  0  0  0  0  0  0  0
   -9.9858   18.6100  -32.2818 H   0  0  0  0  0  0  0  0  0  0  0  0
   -8.4830   17.6260  -32.2818 H   0  0  0  0  0  0  0  0  0  0  0  0
   -8.7620   21.0463  -31.1456 H   0  0  0  0  0  0  0  0  0  0  0  0
   -8.0952   21.7915  -32.6378 H   0  0  0  0  0  0  0  0  0  0  0  0
   -9.7596   21.1159  -32.6378 H   0  0  0  0  0  0  0  0  0  0  0  0
   -3.2290   18.9316  -33.4067 H   0  0  0  0  0  0  0  0  0  0  0  0
   -1.1850   19.7811  -32.2120 H   0  0  0  0  0  0  0  0  0  0  0  0
   -0.2581   21.8611  -30.4894 H   0  0  0  0  0  0  0  0  0  0  0  0
   -2.9440   25.6740  -29.3260 H   0  0  0  0  0  0  0  0  0  0  0  0
   -5.5336   22.2902  -31.8444 H   0  0  0  0  0  0  0  0  0  0  0  0
  1  2  1  0
  2  3  1  0
  3  4  2  0
  3  5  1  0
  5  6  1  0
  5  7  1  0
  2  8  1  0
  8  9  2  0
  9 10  1  0
 10 11  2  0
 11 12  1  0
 12 13  2  0
 13 14  1  0
 14 15  1  0
 14 16  2  0
 13 17  1  0
 17 18  1  0
 18 19  2  0
 18 20  1  0
 20 21  1  0
 17 22  1  0
 22 23  2  0
 23  8  1  0
 22 11  1  0
  1 24  1  0
  1 25  1  0
  1 26  1  0
  2 27  1  6
  5 28  1  0
  6 29  1  0
  6 30  1  0
  6 31  1  0
  7 32  1  0
  7 33  1  0
  7 34  1  0
  9 35  1  0
 10 36  1  0
 12 37  1  0
 15 38  1  0
 23 39  1  0
M  CHG  2   5   1  15  -1
M  END
>  <UniqueID>  (90) 
90

>  <SMILES>  (90) 
C[C@@H](C(=O)[NH+](C)C)c1ccc2cc(C([NH-])=O)n(C(=O)OF)c2c1

>  <Energy>  (90) 
75.23543319567747

>  <Genealogy>  (90) 
CC(C(=O)[NH+](C)C)c1ccc2cc(C([NH-])=O)n(C(=O)OF)c2c1 (protonated)
C[C@@H](C(=O)[NH+](C)C)c1ccc2cc(C([NH-])=O)n(C(=O)OF)c2c1 (chirality)
C[C@@H](C(=O)[NH+](C)C)c1ccc2cc(C([NH-])=O)n(C(=O)OF)c2c1 (3D coordinates assigned)
C[C@@H](C(=O)[NH+](C)C)c1ccc2cc(C([NH-])=O)n(C(=O)OF)c2c1 (optimized conformer: 75.23543319567747 kcal/mol)

>  <smiles>  (90) 
CC(C(=O)N(C)C)c1ccc2cc(C(N)=O)n(C(=O)OF)c2c1

>  <score_type>  (90) 
oracle

>  <origin>  (90) 
adg

>  <m_score__min__energy>  (90) 
-9.8399999999999999

>  <m_primary>  (90) 
energy

$$$$
91:0
     RDKit          3D

 41 42  0  0  0  0  0  0  0  0999 V2000
   -3.4910   19.2180  -34.0360 C   0  0  0  0  0  0  0  0  0  0  0  0
   -4.6810   18.7400  -33.1910 C   0  0  2  0  0  0  0  0  0  0  0  0
   -5.5830   17.7890  -33.9580 C   0  0  0  0  0  0  0  0  0  0  0  0
   -6.1070   18.1800  -35.0390 O   0  0  0  0  0  0  0  0  0  0  0  0
   -5.9020   16.4700  -33.4570 N   0  0  0  0  0  0  0  0  0  0  0  0
   -5.3500   15.9830  -32.1870 C   0  0  0  0  0  0  0  0  0  0  0  0
   -6.8040   15.6160  -34.2360 C   0  0  0  0  0  0  0  0  0  0  0  0
   -5.4660   19.9270  -32.6700 C   0  0  0  0  0  0  0  0  0  0  0  0
   -6.8760   19.9930  -32.8300 C   0  0  0  0  0  0  0  0  0  0  0  0
   -7.5990   21.1040  -32.3710 C   0  0  0  0  0  0  0  0  0  0  0  0
   -6.8940   22.1330  -31.7560 C   0  0  0  0  0  0  0  0  0  0  0  0
   -7.3430   23.3340  -31.2550 C   0  0  0  0  0  0  0  0  0  0  0  0
   -6.2060   23.9790  -30.7750 C   0  0  0  0  0  0  0  0  0  0  0  0
   -6.2440   25.2860  -30.0920 C   0  0  0  0  0  0  0  0  0  0  0  0
   -5.3720   26.3500  -30.4790 N   0  0  0  0  0  0  0  0  0  0  0  0
   -7.0200   25.4520  -29.1130 O   0  0  0  0  0  0  0  0  0  0  0  0
   -5.0950   23.2170  -30.9830 N   0  0  0  0  0  0  0  0  0  0  0  0
   -3.7290   23.5890  -30.7370 C   0  0  0  0  0  0  0  0  0  0  0  0
   -2.7940   22.8520  -31.1530 O   0  0  0  0  0  0  0  0  0  0  0  0
   -3.4510   24.7720  -30.0380 O   0  0  0  0  0  0  0  0  0  0  0  0
   -2.4910   24.9010  -29.0260 C   0  0  0  0  0  0  0  0  0  0  0  0
   -1.5080   25.6790  -29.1480 O   0  0  0  0  0  0  0  0  0  0  0  0
   -2.6270   24.1530  -27.8650 O   0  0  0  0  0  0  0  0  0  0  0  0
   -5.5350   22.0880  -31.5830 C   0  0  0  0  0  0  0  0  0  0  0  0
   -4.7850   21.0020  -32.0520 C   0  0  0  0  0  0  0  0  0  0  0  0
   -2.6774   19.5448  -33.3717 H   0  0  0  0  0  0  0  0  0  0  0  0
   -3.1369   18.3924  -34.6707 H   0  0  0  0  0  0  0  0  0  0  0  0
   -3.8064   20.0592  -34.6707 H   0  0  0  0  0  0  0  0  0  0  0  0
   -4.2762   18.1777  -32.3366 H   0  0  0  0  0  0  0  0  0  0  0  0
   -5.8850   16.4550  -31.3497 H   0  0  0  0  0  0  0  0  0  0  0  0
   -5.4699   14.8910  -32.1298 H   0  0  0  0  0  0  0  0  0  0  0  0
   -4.2815   16.2380  -32.1298 H   0  0  0  0  0  0  0  0  0  0  0  0
   -7.4297   15.0236  -33.5522 H   0  0  0  0  0  0  0  0  0  0  0  0
   -7.4470   16.2440  -34.8701 H   0  0  0  0  0  0  0  0  0  0  0  0
   -6.2120   14.9396  -34.8701 H   0  0  0  0  0  0  0  0  0  0  0  0
   -7.4070   19.1633  -33.3195 H   0  0  0  0  0  0  0  0  0  0  0  0
   -8.6907   21.1596  -32.4938 H   0  0  0  0  0  0  0  0  0  0  0  0
   -8.3784   23.7049  -31.2376 H   0  0  0  0  0  0  0  0  0  0  0  0
   -4.6060   26.1940  -31.1710 H   0  0  0  0  0  0  0  0  0  0  0  0
   -5.4410   27.2810  -30.0120 H   0  0  0  0  0  0  0  0  0  0  0  0
   -3.6906   20.9854  -31.9422 H   0  0  0  0  0  0  0  0  0  0  0  0
  1  2  1  0
  2  3  1  0
  3  4  2  0
  3  5  1  0
  5  6  1  0
  5  7  1  0
  2  8  1  0
  8  9  2  0
  9 10  1  0
 10 11  2  0
 11 12  1  0
 12 13  2  0
 13 14  1  0
 14 15  1  0
 14 16  2  0
 13 17  1  0
 17 18  1  0
 18 19  2  0
 18 20  1  0
 20 21  1  0
 21 22  2  0
 21 23  1  0
 17 24  1  0
 24 25  2  0
 25  8  1  0
 24 11  1  0
  1 26  1  0
  1 27  1  0
  1 28  1  0
  2 29  1  1
  6 30  1  0
  6 31  1  0
  6 32  1  0
  7 33  1  0
  7 34  1  0
  7 35  1  0
  9 36  1  0
 10 37  1  0
 12 38  1  0
 15 39  1  0
 15 40  1  0
 25 41  1  0
M  CHG  1  23  -1
M  END
>  <UniqueID>  (91) 
91

>  <SMILES>  (91) 
C[C@H](C(=O)N(C)C)c1ccc2cc(C(N)=O)n(C(=O)OC(=O)[O-])c2c1

>  <Energy>  (91) 
77.70897742225978

>  <Genealogy>  (91) 
CC(C(=O)N(C)C)c1ccc2cc(C(N)=O)n(C(=O)OC(=O)[O-])c2c1 (protonated)
C[C@H](C(=O)N(C)C)c1ccc2cc(C(N)=O)n(C(=O)OC(=O)[O-])c2c1 (chirality)
C[C@H](C(=O)N(C)C)c1ccc2cc(C(N)=O)n(C(=O)OC(=O)[O-])c2c1 (3D coordinates assigned)
C[C@H](C(=O)N(C)C)c1ccc2cc(C(N)=O)n(C(=O)OC(=O)[O-])c2c1 (optimized conformer: 77.70897742225978 kcal/mol)

>  <smiles>  (91) 
CC(C(=O)N(C)C)c1ccc2cc(C(N)=O)n(C(=O)OC(=O)O)c2c1

>  <score_type>  (91) 
oracle

>  <origin>  (91) 
adg

>  <m_score__min__energy>  (91) 
-9.9800000000000004

>  <m_primary>  (91) 
energy

$$$$
92:0
     RDKit          3D

 42 44  0  0  0  0  0  0  0  0999 V2000
   -4.1380   25.6730  -30.7370 N   0  0  0  0  0  0  0  0  0  0  0  0
   -5.4010   25.1370  -30.3260 C   0  0  0  0  0  0  0  0  0  0  0  0
   -6.1050   25.7720  -29.4960 O   0  0  0  0  0  0  0  0  0  0  0  0
   -5.8700   23.8420  -30.8440 C   0  0  0  0  0  0  0  0  0  0  0  0
   -7.1750   23.6040  -31.2820 C   0  0  0  0  0  0  0  0  0  0  0  0
   -7.1760   22.2970  -31.7200 C   0  0  0  0  0  0  0  0  0  0  0  0
   -8.2090   21.5260  -32.2460 C   0  0  0  0  0  0  0  0  0  0  0  0
   -7.9170   20.2010  -32.6190 C   0  0  0  0  0  0  0  0  0  0  0  0
   -6.6100   19.6810  -32.4550 C   0  0  0  0  0  0  0  0  0  0  0  0
   -6.3270   18.3250  -32.8450 C   0  0  0  0  0  0  0  0  0  0  0  0
   -6.0930   17.1910  -33.1760 C   0  0  0  0  0  0  0  0  0  0  0  0
   -5.8040   15.8050  -33.5960 C   0  0  0  0  0  0  0  0  0  0  0  0
   -6.9210   15.1280  -34.1060 O   0  0  0  0  0  0  0  0  0  0  0  0
   -4.5790   15.6700  -34.4720 C   0  0  0  0  0  0  0  0  0  0  0  0
   -3.8750   14.9430  -33.4890 O   0  0  0  0  0  0  0  0  0  0  0  0
   -4.9810   14.9940  -32.6170 C   0  0  0  0  0  0  0  0  0  0  0  0
   -5.5890   20.4830  -31.9090 C   0  0  0  0  0  0  0  0  0  0  0  0
   -5.9050   21.7990  -31.5580 C   0  0  0  0  0  0  0  0  0  0  0  0
   -5.0980   22.7330  -31.0140 N   0  0  0  0  0  0  0  0  0  0  0  0
   -3.6890   22.6070  -30.7680 C   0  0  0  0  0  0  0  0  0  0  0  0
   -2.8640   23.0870  -31.5930 O   0  0  0  0  0  0  0  0  0  0  0  0
   -3.1920   21.8960  -29.5860 C   0  0  0  0  0  0  0  0  0  0  0  0
   -3.4130   20.6610  -29.4540 O   0  0  0  0  0  0  0  0  0  0  0  0
   -2.4490   22.5960  -28.6280 O   0  0  0  0  0  0  0  0  0  0  0  0
   -3.0100   23.5640  -27.7400 C   0  0  0  0  0  0  0  0  0  0  0  0
   -2.4040   24.9420  -28.0020 C   0  0  0  0  0  0  0  0  0  0  0  0
   -2.0140   25.0550  -29.3460 O   0  0  0  0  0  0  0  0  0  0  0  0
   -3.2920   25.0640  -30.8250 H   0  0  0  0  0  0  0  0  0  0  0  0
   -8.0201   24.3082  -31.2782 H   0  0  0  0  0  0  0  0  0  0  0  0
   -9.2212   21.9394  -32.3662 H   0  0  0  0  0  0  0  0  0  0  0  0
   -8.7092   19.5649  -33.0408 H   0  0  0  0  0  0  0  0  0  0  0  0
   -6.5870   14.2540  -34.4410 H   0  0  0  0  0  0  0  0  0  0  0  0
   -4.7602   15.0985  -35.3942 H   0  0  0  0  0  0  0  0  0  0  0  0
   -4.1220   16.5780  -34.8923 H   0  0  0  0  0  0  0  0  0  0  0  0
   -5.4109   14.0060  -32.3955 H   0  0  0  0  0  0  0  0  0  0  0  0
   -4.8375   15.3769  -31.5958 H   0  0  0  0  0  0  0  0  0  0  0  0
   -4.5736   20.0860  -31.7631 H   0  0  0  0  0  0  0  0  0  0  0  0
   -4.0979   23.6110  -27.8956 H   0  0  0  0  0  0  0  0  0  0  0  0
   -2.7887   23.2681  -26.7039 H   0  0  0  0  0  0  0  0  0  0  0  0
   -3.1515   25.7164  -27.7747 H   0  0  0  0  0  0  0  0  0  0  0  0
   -1.5199   25.0720  -27.3606 H   0  0  0  0  0  0  0  0  0  0  0  0
   -2.5810   24.4170  -29.8540 H   0  0  0  0  0  0  0  0  0  0  0  0
  1  2  1  0
  2  3  2  0
  2  4  1  0
  4  5  2  0
  5  6  1  0
  6  7  2  0
  7  8  1  0
  8  9  2  0
  9 10  1  0
 10 11  3  0
 11 12  1  0
 12 13  1  0
 12 14  1  0
 14 15  1  0
 15 16  1  0
  9 17  1  0
 17 18  2  0
 18 19  1  0
 19 20  1  0
 20 21  2  0
 20 22  1  0
 22 23  2  0
 22 24  1  0
 24 25  1  0
 25 26  1  0
 26 27  1  0
 19  4  1  0
 18  6  1  0
 16 12  1  0
  1 28  1  0
  5 29  1  0
  7 30  1  0
  8 31  1  0
 13 32  1  0
 14 33  1  0
 14 34  1  0
 16 35  1  0
 16 36  1  0
 17 37  1  0
 25 38  1  0
 25 39  1  0
 26 40  1  0
 26 41  1  0
 27 42  1  0
M  CHG  1   1  -1
M  END
>  <UniqueID>  (92) 
92

>  <SMILES>  (92) 
[NH-]C(=O)c1cc2ccc(C#CC3(O)COC3)cc2n1C(=O)C(=O)OCCO

>  <Energy>  (92) 
143.2899769423161

>  <Genealogy>  (92) 
[NH-]C(=O)c1cc2ccc(C#CC3(O)COC3)cc2n1C(=O)C(=O)OCCO (protonated)
[NH-]C(=O)c1cc2ccc(C#CC3(O)COC3)cc2n1C(=O)C(=O)OCCO (3D coordinates assigned)
[NH-]C(=O)c1cc2ccc(C#CC3(O)COC3)cc2n1C(=O)C(=O)OCCO (nonaromatic ring conformer: 143.2899769423161 kcal/mol)

>  <smiles>  (92) 
NC(=O)c1cc2ccc(C#CC3(O)COC3)cc2n1C(=O)C(=O)OCCO

>  <score_type>  (92) 
oracle

>  <origin>  (92) 
adg

>  <m_score__min__energy>  (92) 
-10.83

>  <m_primary>  (92) 
energy

$$$$
93:0
     RDKit          3D

 47 49  0  0  0  0  0  0  0  0999 V2000
   -1.3600   18.1820  -34.5610 C   0  0  0  0  0  0  0  0  0  0  0  0
   -1.9750   18.4760  -33.2570 N   0  0  0  0  0  0  0  0  0  0  0  0
   -1.0120   18.2830  -32.1610 C   0  0  0  0  0  0  0  0  0  0  0  0
   -2.5340   19.8150  -33.2330 C   0  0  0  0  0  0  0  0  0  0  0  0
   -3.3690   20.1290  -34.0690 O   0  0  0  0  0  0  0  0  0  0  0  0
   -2.0940   20.8580  -32.2310 C   0  0  0  0  0  0  0  0  0  0  0  0
   -2.8560   22.0530  -32.3840 O   0  0  0  0  0  0  0  0  0  0  0  0
   -3.5030   22.6970  -31.3220 C   0  0  0  0  0  0  0  0  0  0  0  0
   -2.8380   23.1560  -30.3550 O   0  0  0  0  0  0  0  0  0  0  0  0
   -4.9330   22.8170  -31.3270 N   0  0  0  0  0  0  0  0  0  0  0  0
   -5.6820   23.9150  -31.0180 C   0  0  0  0  0  0  0  0  0  0  0  0
   -5.1690   25.1820  -30.4580 C   0  0  0  0  0  0  0  0  0  0  0  0
   -3.8860   25.6620  -30.8490 N   0  0  0  0  0  0  0  0  0  0  0  0
   -5.8680   25.8660  -29.6640 O   0  0  0  0  0  0  0  0  0  0  0  0
   -7.0350   23.6580  -31.2280 C   0  0  0  0  0  0  0  0  0  0  0  0
   -7.0950   22.3570  -31.6740 C   0  0  0  0  0  0  0  0  0  0  0  0
   -8.1930   21.5880  -32.0500 C   0  0  0  0  0  0  0  0  0  0  0  0
   -7.9560   20.2800  -32.5040 C   0  0  0  0  0  0  0  0  0  0  0  0
   -6.6370   19.7740  -32.5800 C   0  0  0  0  0  0  0  0  0  0  0  0
   -6.4080   18.4480  -33.0570 N   0  0  0  0  0  0  0  0  0  0  0  0
   -6.3650   17.0810  -32.4990 C   0  0  0  0  0  0  0  0  0  0  0  0
   -6.0530   16.3960  -33.7930 C   0  0  0  0  0  0  0  0  0  0  0  0
   -7.0940   15.6010  -34.2470 F   0  0  0  0  0  0  0  0  0  0  0  0
   -4.7030   15.7340  -33.8530 C   0  0  0  0  0  0  0  0  0  0  0  0
   -4.5890   14.5850  -34.3550 O   0  0  0  0  0  0  0  0  0  0  0  0
   -3.5740   16.3770  -33.3570 O   0  0  0  0  0  0  0  0  0  0  0  0
   -6.1010   17.7890  -34.3420 C   0  0  0  0  0  0  0  0  0  0  0  0
   -5.5480   20.5790  -32.1910 C   0  0  0  0  0  0  0  0  0  0  0  0
   -5.8130   21.8720  -31.7250 C   0  0  0  0  0  0  0  0  0  0  0  0
   -0.3775   17.7123  -34.4055 H   0  0  0  0  0  0  0  0  0  0  0  0
   -2.0087   17.4966  -35.1262 H   0  0  0  0  0  0  0  0  0  0  0  0
   -1.2340   19.1173  -35.1262 H   0  0  0  0  0  0  0  0  0  0  0  0
   -2.7500   17.7850  -33.1150 H   0  0  0  0  0  0  0  0  0  0  0  0
   -1.5294   18.3867  -31.1958 H   0  0  0  0  0  0  0  0  0  0  0  0
   -0.5699   17.2784  -32.2340 H   0  0  0  0  0  0  0  0  0  0  0  0
   -0.2169   19.0397  -32.2340 H   0  0  0  0  0  0  0  0  0  0  0  0
   -2.2377   20.4653  -31.2136 H   0  0  0  0  0  0  0  0  0  0  0  0
   -1.0325   21.0896  -32.4028 H   0  0  0  0  0  0  0  0  0  0  0  0
   -3.0140   25.2720  -30.4260 H   0  0  0  0  0  0  0  0  0  0  0  0
   -7.8769   24.3483  -31.0708 H   0  0  0  0  0  0  0  0  0  0  0  0
   -9.2145   21.9922  -31.9933 H   0  0  0  0  0  0  0  0  0  0  0  0
   -8.8025   19.6442  -32.8027 H   0  0  0  0  0  0  0  0  0  0  0  0
   -5.5716   16.9530  -31.7479 H   0  0  0  0  0  0  0  0  0  0  0  0
   -7.2520   16.7348  -31.9481 H   0  0  0  0  0  0  0  0  0  0  0  0
   -5.1391   18.1122  -34.7667 H   0  0  0  0  0  0  0  0  0  0  0  0
   -6.7889   17.9758  -35.1798 H   0  0  0  0  0  0  0  0  0  0  0  0
   -4.5167   20.2013  -32.2519 H   0  0  0  0  0  0  0  0  0  0  0  0
  1  2  1  0
  2  3  1  0
  2  4  1  0
  4  5  2  0
  4  6  1  0
  6  7  1  0
  7  8  1  0
  8  9  2  0
  8 10  1  0
 10 11  1  0
 11 12  1  0
 12 13  1  0
 12 14  2  0
 11 15  2  0
 15 16  1  0
 16 17  2  0
 17 18  1  0
 18 19  2  0
 19 20  1  0
 20 21  1  0
 21 22  1  0
 22 23  1  0
 22 24  1  0
 24 25  2  0
 24 26  1  0
 22 27  1  0
 19 28  1  0
 28 29  2  0
 29 10  1  0
 29 16  1  0
 27 20  1  0
  1 30  1  0
  1 31  1  0
  1 32  1  0
  2 33  1  0
  3 34  1  0
  3 35  1  0
  3 36  1  0
  6 37  1  0
  6 38  1  0
 13 39  1  0
 15 40  1  0
 17 41  1  0
 18 42  1  0
 21 43  1  0
 21 44  1  0
 27 45  1  0
 27 46  1  0
 28 47  1  0
M  CHG  3   2   1  13  -1  26  -1
M  END
>  <UniqueID>  (93) 
93

>  <SMILES>  (93) 
C[NH+](C)C(=O)COC(=O)n1c(C([NH-])=O)cc2ccc(N3CC(F)(C(=O)[O-])C3)cc21

>  <Energy>  (93) 
131.45386084236083

>  <Genealogy>  (93) 
C[NH+](C)C(=O)COC(=O)n1c(C([NH-])=O)cc2ccc(N3CC(F)(C(=O)[O-])C3)cc21 (protonated)
C[NH+](C)C(=O)COC(=O)n1c(C([NH-])=O)cc2ccc(N3CC(F)(C(=O)[O-])C3)cc21 (3D coordinates assigned)
C[NH+](C)C(=O)COC(=O)n1c(C([NH-])=O)cc2ccc(N3CC(F)(C(=O)[O-])C3)cc21 (nonaromatic ring conformer: 131.45386084236083 kcal/mol)

>  <smiles>  (93) 
CN(C)C(=O)COC(=O)n1c(C(N)=O)cc2ccc(N3CC(F)(C(=O)O)C3)cc21

>  <score_type>  (93) 
oracle

>  <origin>  (93) 
adg

>  <m_score__min__energy>  (93) 
-9.9499999999999993

>  <m_primary>  (93) 
energy

$$$$
94:0
     RDKit          3D

 40 41  0  0  0  0  0  0  0  0999 V2000
   -6.5960   23.5090  -30.6430 C   0  0  0  0  0  0  0  0  0  0  0  0
   -5.3890   23.9250  -30.2370 C   0  0  0  0  0  0  0  0  0  0  0  0
   -5.0010   25.3480  -30.4090 C   0  0  0  0  0  0  0  0  0  0  0  0
   -3.8630   25.6540  -30.8560 O   0  0  0  0  0  0  0  0  0  0  0  0
   -5.8930   26.3660  -30.0990 O   0  0  0  0  0  0  0  0  0  0  0  0
   -4.4540   22.9610  -29.6020 C   0  0  0  0  0  0  0  0  0  0  0  0
   -4.6860   22.5350  -28.4380 O   0  0  0  0  0  0  0  0  0  0  0  0
   -3.2700   22.5140  -30.2820 N   0  0  0  0  0  0  0  0  0  0  0  0
   -1.9760   22.8680  -30.0410 C   0  0  0  0  0  0  0  0  0  0  0  0
   -1.5250   23.8780  -29.0610 C   0  0  0  0  0  0  0  0  0  0  0  0
   -1.7410   25.2630  -29.3180 N   0  0  0  0  0  0  0  0  0  0  0  0
   -0.9700   23.5300  -27.9860 O   0  0  0  0  0  0  0  0  0  0  0  0
   -1.1170   22.1880  -30.9040 C   0  0  0  0  0  0  0  0  0  0  0  0
   -1.9330   21.4100  -31.6930 C   0  0  0  0  0  0  0  0  0  0  0  0
   -1.6140   20.5330  -32.7260 C   0  0  0  0  0  0  0  0  0  0  0  0
   -2.6660   19.8560  -33.3630 C   0  0  0  0  0  0  0  0  0  0  0  0
   -4.0090   20.0550  -32.9520 C   0  0  0  0  0  0  0  0  0  0  0  0
   -5.1320   19.3440  -33.6610 C   0  0  0  0  0  0  0  0  0  0  0  0
   -6.4880   19.6770  -33.0790 C   0  0  0  0  0  0  0  0  0  0  0  0
   -7.0720   20.7400  -33.4320 O   0  0  0  0  0  0  0  0  0  0  0  0
   -7.1360   18.7870  -32.1460 N   0  0  0  0  0  0  0  0  0  0  0  0
   -6.5040   17.5220  -31.7510 C   0  0  0  0  0  0  0  0  0  0  0  0
   -8.4460   19.1560  -31.5990 C   0  0  0  0  0  0  0  0  0  0  0  0
   -4.2960   20.9620  -31.9070 C   0  0  0  0  0  0  0  0  0  0  0  0
   -3.2270   21.6290  -31.3000 C   0  0  0  0  0  0  0  0  0  0  0  0
   -6.8858   22.4554  -30.5167 H   0  0  0  0  0  0  0  0  0  0  0  0
   -7.2972   24.2210  -31.1027 H   0  0  0  0  0  0  0  0  0  0  0  0
   -2.7030   25.6680  -29.3010 H   0  0  0  0  0  0  0  0  0  0  0  0
   -0.0200   22.2586  -30.9452 H   0  0  0  0  0  0  0  0  0  0  0  0
   -0.5697   20.3753  -33.0337 H   0  0  0  0  0  0  0  0  0  0  0  0
   -2.4466   19.1640  -34.1894 H   0  0  0  0  0  0  0  0  0  0  0  0
   -5.1215   19.6374  -34.7211 H   0  0  0  0  0  0  0  0  0  0  0  0
   -4.9725   18.2625  -33.5388 H   0  0  0  0  0  0  0  0  0  0  0  0
   -6.4709   17.4557  -30.6535 H   0  0  0  0  0  0  0  0  0  0  0  0
   -7.0873   16.6799  -32.1518 H   0  0  0  0  0  0  0  0  0  0  0  0
   -5.4804   17.4827  -32.1518 H   0  0  0  0  0  0  0  0  0  0  0  0
   -8.4012   19.1434  -30.5000 H   0  0  0  0  0  0  0  0  0  0  0  0
   -8.7161   20.1652  -31.9434 H   0  0  0  0  0  0  0  0  0  0  0  0
   -9.2031   18.4362  -31.9434 H   0  0  0  0  0  0  0  0  0  0  0  0
   -5.3314   21.1385  -31.5801 H   0  0  0  0  0  0  0  0  0  0  0  0
  1  2  2  0
  2  3  1  0
  3  4  2  0
  3  5  1  0
  2  6  1  0
  6  7  2  0
  6  8  1  0
  8  9  1  0
  9 10  1  0
 10 11  1  0
 10 12  2  0
  9 13  2  0
 13 14  1  0
 14 15  2  0
 15 16  1  0
 16 17  2  0
 17 18  1  0
 18 19  1  0
 19 20  2  0
 19 21  1  0
 21 22  1  0
 21 23  1  0
 17 24  1  0
 24 25  2  0
 25  8  1  0
 25 14  1  0
  1 26  1  0
  1 27  1  0
 11 28  1  0
 13 29  1  0
 15 30  1  0
 16 31  1  0
 18 32  1  0
 18 33  1  0
 22 34  1  0
 22 35  1  0
 22 36  1  0
 23 37  1  0
 23 38  1  0
 23 39  1  0
 24 40  1  0
M  CHG  2   5  -1  11  -1
M  END
>  <UniqueID>  (94) 
94

>  <SMILES>  (94) 
C=C(C(=O)[O-])C(=O)n1c(C([NH-])=O)cc2ccc(CC(=O)N(C)C)cc21

>  <Energy>  (94) 
78.8396127018988

>  <Genealogy>  (94) 
C=C(C(=O)[O-])C(=O)n1c(C([NH-])=O)cc2ccc(CC(=O)N(C)C)cc21 (protonated)
C=C(C(=O)[O-])C(=O)n1c(C([NH-])=O)cc2ccc(CC(=O)N(C)C)cc21 (3D coordinates assigned)
C=C(C(=O)[O-])C(=O)n1c(C([NH-])=O)cc2ccc(CC(=O)N(C)C)cc21 (optimized conformer: 78.8396127018988 kcal/mol)

>  <smiles>  (94) 
C=C(C(=O)O)C(=O)n1c(C(N)=O)cc2ccc(CC(=O)N(C)C)cc21

>  <score_type>  (94) 
oracle

>  <origin>  (94) 
adg

>  <m_score__min__energy>  (94) 
-12.470000000000001

>  <m_primary>  (94) 
energy

$$$$
95:0
     RDKit          3D

 42 43  0  0  0  0  0  0  0  0999 V2000
   -3.4880   24.5470  -27.6170 C   0  0  0  0  0  0  0  0  0  0  0  0
   -2.0420   24.0330  -27.5870 C   0  0  2  0  0  0  0  0  0  0  0  0
   -1.1310   24.8880  -28.4240 C   0  0  0  0  0  0  0  0  0  0  0  0
   -1.6190   25.6730  -29.2800 O   0  0  0  0  0  0  0  0  0  0  0  0
    0.2430   24.8810  -28.2110 O   0  0  0  0  0  0  0  0  0  0  0  0
   -1.9530   22.6270  -28.0210 N   0  0  0  0  0  0  0  0  0  0  0  0
   -1.7360   21.5550  -27.0450 C   0  0  0  0  0  0  0  0  0  0  0  0
   -2.0250   22.2740  -29.4130 C   0  0  0  0  0  0  0  0  0  0  0  0
   -1.0700   22.5730  -30.1820 O   0  0  0  0  0  0  0  0  0  0  0  0
   -3.2680   21.6580  -29.9800 C   0  0  0  0  0  0  0  0  0  0  0  0
   -3.8650   22.5380  -31.0400 C   0  0  0  0  0  0  0  0  0  0  0  0
   -3.1190   23.0590  -31.9120 O   0  0  0  0  0  0  0  0  0  0  0  0
   -5.2720   22.8230  -31.0420 N   0  0  0  0  0  0  0  0  0  0  0  0
   -5.8870   24.0150  -30.7950 C   0  0  0  0  0  0  0  0  0  0  0  0
   -5.2200   25.2850  -30.4360 C   0  0  0  0  0  0  0  0  0  0  0  0
   -3.8850   25.5670  -30.8480 N   0  0  0  0  0  0  0  0  0  0  0  0
   -5.8390   26.1390  -29.7470 O   0  0  0  0  0  0  0  0  0  0  0  0
   -7.2720   23.8690  -30.8720 C   0  0  0  0  0  0  0  0  0  0  0  0
   -7.4850   22.5470  -31.1880 C   0  0  0  0  0  0  0  0  0  0  0  0
   -8.6730   21.8530  -31.3850 C   0  0  0  0  0  0  0  0  0  0  0  0
   -8.5930   20.4880  -31.7090 C   0  0  0  0  0  0  0  0  0  0  0  0
   -7.3340   19.8480  -31.8560 C   0  0  0  0  0  0  0  0  0  0  0  0
   -7.2670   18.3720  -32.1560 C   0  0  0  0  0  0  0  0  0  0  0  0
   -6.8690   18.1570  -33.4640 F   0  0  0  0  0  0  0  0  0  0  0  0
   -6.3630   17.7410  -31.3190 F   0  0  0  0  0  0  0  0  0  0  0  0
   -8.5190   17.8140  -31.9690 F   0  0  0  0  0  0  0  0  0  0  0  0
   -6.1470   20.5850  -31.6260 C   0  0  0  0  0  0  0  0  0  0  0  0
   -6.2610   21.9380  -31.2870 C   0  0  0  0  0  0  0  0  0  0  0  0
   -3.8525   24.6766  -26.5873 H   0  0  0  0  0  0  0  0  0  0  0  0
   -3.5231   25.5127  -28.1426 H   0  0  0  0  0  0  0  0  0  0  0  0
   -4.1247   23.8201  -28.1426 H   0  0  0  0  0  0  0  0  0  0  0  0
   -1.7102   24.0936  -26.5400 H   0  0  0  0  0  0  0  0  0  0  0  0
   -1.8187   21.9636  -26.0271 H   0  0  0  0  0  0  0  0  0  0  0  0
   -2.4935   20.7703  -27.1878 H   0  0  0  0  0  0  0  0  0  0  0  0
   -0.7329   21.1267  -27.1878 H   0  0  0  0  0  0  0  0  0  0  0  0
   -3.0176   20.6818  -30.4209 H   0  0  0  0  0  0  0  0  0  0  0  0
   -4.0016   21.5359  -29.1695 H   0  0  0  0  0  0  0  0  0  0  0  0
   -3.1170   24.8830  -30.6770 H   0  0  0  0  0  0  0  0  0  0  0  0
   -8.0335   24.6469  -30.7135 H   0  0  0  0  0  0  0  0  0  0  0  0
   -9.6462   22.3569  -31.2902 H   0  0  0  0  0  0  0  0  0  0  0  0
   -9.5170   19.9082  -31.8505 H   0  0  0  0  0  0  0  0  0  0  0  0
   -5.1604   20.1062  -31.7116 H   0  0  0  0  0  0  0  0  0  0  0  0
  1  2  1  0
  2  3  1  0
  3  4  2  0
  3  5  1  0
  2  6  1  0
  6  7  1  0
  6  8  1  0
  8  9  2  0
  8 10  1  0
 10 11  1  0
 11 12  2  0
 11 13  1  0
 13 14  1  0
 14 15  1  0
 15 16  1  0
 15 17  2  0
 14 18  2  0
 18 19  1  0
 19 20  2  0
 20 21  1  0
 21 22  2  0
 22 23  1  0
 23 24  1  0
 23 25  1  0
 23 26  1  0
 22 27  1  0
 27 28  2  0
 28 13  1  0
 28 19  1  0
  1 29  1  0
  1 30  1  0
  1 31  1  0
  2 32  1  1
  7 33  1  0
  7 34  1  0
  7 35  1  0
 10 36  1  0
 10 37  1  0
 16 38  1  0
 18 39  1  0
 20 40  1  0
 21 41  1  0
 27 42  1  0
M  CHG  2   5  -1  16  -1
M  END
>  <UniqueID>  (95) 
95

>  <SMILES>  (95) 
C[C@H](C(=O)[O-])N(C)C(=O)CC(=O)n1c(C([NH-])=O)cc2ccc(C(F)(F)F)cc21

>  <Energy>  (95) 
82.76196153994908

>  <Genealogy>  (95) 
CC(C(=O)[O-])N(C)C(=O)CC(=O)n1c(C([NH-])=O)cc2ccc(C(F)(F)F)cc21 (protonated)
C[C@H](C(=O)[O-])N(C)C(=O)CC(=O)n1c(C([NH-])=O)cc2ccc(C(F)(F)F)cc21 (chirality)
C[C@H](C(=O)[O-])N(C)C(=O)CC(=O)n1c(C([NH-])=O)cc2ccc(C(F)(F)F)cc21 (3D coordinates assigned)
C[C@H](C(=O)[O-])N(C)C(=O)CC(=O)n1c(C([NH-])=O)cc2ccc(C(F)(F)F)cc21 (optimized conformer: 82.76196153994908 kcal/mol)

>  <smiles>  (95) 
CC(C(=O)O)N(C)C(=O)CC(=O)n1c(C(N)=O)cc2ccc(C(F)(F)F)cc21

>  <score_type>  (95) 
oracle

>  <origin>  (95) 
adg

>  <m_score__min__energy>  (95) 
-13.07

>  <m_primary>  (95) 
energy

$$$$
96:0
     RDKit          3D

 33 34  0  0  0  0  0  0  0  0999 V2000
   -5.5680   16.7000  -33.1920 C   0  0  0  0  0  0  0  0  0  0  0  0
   -4.7790   17.8230  -32.6970 N   0  0  0  0  0  0  0  0  0  0  0  0
   -5.3070   19.1510  -32.5240 C   0  0  0  0  0  0  0  0  0  0  0  0
   -6.5140   19.5030  -33.1800 C   0  0  0  0  0  0  0  0  0  0  0  0
   -7.0580   20.7910  -33.0460 C   0  0  0  0  0  0  0  0  0  0  0  0
   -6.3820   21.7040  -32.2440 C   0  0  0  0  0  0  0  0  0  0  0  0
   -6.6710   23.0200  -31.9620 C   0  0  0  0  0  0  0  0  0  0  0  0
   -5.6460   23.4520  -31.1210 C   0  0  0  0  0  0  0  0  0  0  0  0
   -5.5880   24.8030  -30.5250 C   0  0  0  0  0  0  0  0  0  0  0  0
   -4.5090   25.6770  -30.8490 N   0  0  0  0  0  0  0  0  0  0  0  0
   -6.4940   25.2050  -29.7490 O   0  0  0  0  0  0  0  0  0  0  0  0
   -4.7610   22.4410  -30.8920 N   0  0  0  0  0  0  0  0  0  0  0  0
   -3.5480   22.4950  -30.1240 C   0  0  0  0  0  0  0  0  0  0  0  0
   -3.2080   21.4910  -29.4430 O   0  0  0  0  0  0  0  0  0  0  0  0
   -2.7150   23.7200  -30.1620 C   0  0  0  0  0  0  0  0  0  0  0  0
   -2.4570   24.5350  -29.1250 C   0  0  0  0  0  0  0  0  0  0  0  0
   -3.0000   24.3230  -27.7430 C   0  0  0  0  0  0  0  0  0  0  0  0
   -1.6420   25.6410  -29.3430 O   0  0  0  0  0  0  0  0  0  0  0  0
   -5.2240   21.3790  -31.5890 C   0  0  0  0  0  0  0  0  0  0  0  0
   -4.6470   20.1110  -31.7190 C   0  0  0  0  0  0  0  0  0  0  0  0
   -5.9686   16.1299  -32.3408 H   0  0  0  0  0  0  0  0  0  0  0  0
   -6.4000   17.0781  -33.8042 H   0  0  0  0  0  0  0  0  0  0  0  0
   -4.9303   16.0454  -33.8042 H   0  0  0  0  0  0  0  0  0  0  0  0
   -3.7750   17.6450  -32.4650 H   0  0  0  0  0  0  0  0  0  0  0  0
   -7.0310   18.7575  -33.8020 H   0  0  0  0  0  0  0  0  0  0  0  0
   -7.9901   21.0690  -33.5597 H   0  0  0  0  0  0  0  0  0  0  0  0
   -7.5286   23.6064  -32.3234 H   0  0  0  0  0  0  0  0  0  0  0  0
   -3.8710   26.0390  -30.1060 H   0  0  0  0  0  0  0  0  0  0  0  0
   -2.2657   23.9873  -31.1298 H   0  0  0  0  0  0  0  0  0  0  0  0
   -2.2426   24.6187  -27.0021 H   0  0  0  0  0  0  0  0  0  0  0  0
   -3.9045   24.9341  -27.6067 H   0  0  0  0  0  0  0  0  0  0  0  0
   -3.2512   23.2608  -27.6067 H   0  0  0  0  0  0  0  0  0  0  0  0
   -3.7040   19.8659  -31.2085 H   0  0  0  0  0  0  0  0  0  0  0  0
  1  2  1  0
  2  3  1  0
  3  4  2  0
  4  5  1  0
  5  6  2  0
  6  7  1  0
  7  8  2  0
  8  9  1  0
  9 10  1  0
  9 11  2  0
  8 12  1  0
 12 13  1  0
 13 14  2  0
 13 15  1  0
 15 16  2  3
 16 17  1  0
 16 18  1  0
 12 19  1  0
 19 20  2  0
 20  3  1  0
 19  6  1  0
  1 21  1  0
  1 22  1  0
  1 23  1  0
  2 24  1  0
  4 25  1  0
  5 26  1  0
  7 27  1  0
 10 28  1  0
 15 29  1  0
 17 30  1  0
 17 31  1  0
 17 32  1  0
 20 33  1  0
M  CHG  2  10  -1  18  -1
M  END
>  <UniqueID>  (96) 
96

>  <SMILES>  (96) 
CNc1ccc2cc(C([NH-])=O)n(C(=O)C=C(C)[O-])c2c1

>  <Energy>  (96) 
71.98310894302514

>  <Genealogy>  (96) 
CNc1ccc2cc(C([NH-])=O)n(C(=O)C=C(C)[O-])c2c1 (protonated)
CNc1ccc2cc(C([NH-])=O)n(C(=O)C=C(C)[O-])c2c1 (3D coordinates assigned)
CNc1ccc2cc(C([NH-])=O)n(C(=O)C=C(C)[O-])c2c1 (optimized conformer: 71.98310894302514 kcal/mol)

>  <smiles>  (96) 
CNc1ccc2cc(C(N)=O)n(C(=O)C=C(C)O)c2c1

>  <score_type>  (96) 
oracle

>  <origin>  (96) 
adg

>  <m_score__min__energy>  (96) 
-11.85

>  <m_primary>  (96) 
energy

$$$$
97:0
     RDKit          3D

 55 58  0  0  0  0  0  0  0  0999 V2000
   -1.7190   21.5930  -29.9050 C   0  0  0  0  0  0  0  0  0  0  0  0
   -2.5370   22.5720  -30.2820 C   0  0  0  0  0  0  0  0  0  0  0  0
   -3.3880   22.4670  -31.4800 C   0  0  0  0  0  0  0  0  0  0  0  0
   -2.8820   22.2780  -32.6160 O   0  0  0  0  0  0  0  0  0  0  0  0
   -4.8140   22.5390  -31.3460 N   0  0  0  0  0  0  0  0  0  0  0  0
   -5.5550   23.5150  -30.7520 C   0  0  0  0  0  0  0  0  0  0  0  0
   -5.0230   24.7720  -30.1930 C   0  0  0  0  0  0  0  0  0  0  0  0
   -3.9120   25.4100  -30.8160 N   0  0  0  0  0  0  0  0  0  0  0  0
   -5.5290   25.2820  -29.1590 O   0  0  0  0  0  0  0  0  0  0  0  0
   -6.9140   23.2410  -30.8930 C   0  0  0  0  0  0  0  0  0  0  0  0
   -6.9830   22.0740  -31.6210 C   0  0  0  0  0  0  0  0  0  0  0  0
   -8.0870   21.3740  -32.1030 C   0  0  0  0  0  0  0  0  0  0  0  0
   -7.8500   20.1680  -32.7830 C   0  0  0  0  0  0  0  0  0  0  0  0
   -6.5260   19.6980  -32.9960 C   0  0  0  0  0  0  0  0  0  0  0  0
   -6.2980   18.3960  -33.5710 N   0  0  0  0  0  0  0  0  0  0  0  0
   -6.9710   17.2430  -32.9540 C   0  0  0  0  0  0  0  0  0  0  0  0
   -6.8100   15.9720  -33.7920 C   0  0  0  0  0  0  0  0  0  0  0  0
   -5.3440   15.8190  -34.2090 C   0  0  0  0  0  0  0  0  0  0  0  0
   -4.8320   17.0300  -35.0320 C   0  0  2  0  0  0  0  0  0  0  0  0
   -3.4100   17.3690  -34.6290 C   0  0  0  0  0  0  0  0  0  0  0  0
   -2.4830   16.8890  -35.2690 O   0  0  0  0  0  0  0  0  0  0  0  0
   -3.1500   18.2480  -33.5010 N   0  0  0  0  0  0  0  0  0  0  0  0
   -2.8040   19.6080  -33.9390 C   0  0  0  0  0  0  0  0  0  0  0  0
   -1.2860   19.6790  -34.0470 C   0  0  0  0  0  0  0  0  0  0  0  0
   -0.7590   18.4880  -33.2600 C   0  0  0  0  0  0  0  0  0  0  0  0
   -1.9960   17.7760  -32.7270 C   0  0  0  0  0  0  0  0  0  0  0  0
   -5.7510   18.2730  -34.9250 C   0  0  0  0  0  0  0  0  0  0  0  0
   -5.4330   20.4800  -32.5550 C   0  0  0  0  0  0  0  0  0  0  0  0
   -5.7000   21.6710  -31.8770 C   0  0  0  0  0  0  0  0  0  0  0  0
   -1.0995   21.7103  -29.0036 H   0  0  0  0  0  0  0  0  0  0  0  0
   -1.6621   20.6661  -30.4947 H   0  0  0  0  0  0  0  0  0  0  0  0
   -2.5794   23.4909  -29.6789 H   0  0  0  0  0  0  0  0  0  0  0  0
   -2.9420   25.2940  -30.4540 H   0  0  0  0  0  0  0  0  0  0  0  0
   -7.7556   23.8330  -30.5042 H   0  0  0  0  0  0  0  0  0  0  0  0
   -9.1092   21.7528  -31.9561 H   0  0  0  0  0  0  0  0  0  0  0  0
   -8.7011   19.5792  -33.1558 H   0  0  0  0  0  0  0  0  0  0  0  0
   -6.5376   17.0695  -31.9580 H   0  0  0  0  0  0  0  0  0  0  0  0
   -8.0447   17.4720  -32.8850 H   0  0  0  0  0  0  0  0  0  0  0  0
   -7.1151   15.0989  -33.1965 H   0  0  0  0  0  0  0  0  0  0  0  0
   -7.4417   16.0417  -34.6898 H   0  0  0  0  0  0  0  0  0  0  0  0
   -4.7277   15.7220  -33.3031 H   0  0  0  0  0  0  0  0  0  0  0  0
   -5.2689   14.9255  -34.8463 H   0  0  0  0  0  0  0  0  0  0  0  0
   -4.8498   16.7304  -36.0903 H   0  0  0  0  0  0  0  0  0  0  0  0
   -3.9950   18.2900  -32.8820 H   0  0  0  0  0  0  0  0  0  0  0  0
   -3.2608   19.8154  -34.9179 H   0  0  0  0  0  0  0  0  0  0  0  0
   -3.1779   20.3540  -33.2223 H   0  0  0  0  0  0  0  0  0  0  0  0
   -0.9732   19.6116  -35.0994 H   0  0  0  0  0  0  0  0  0  0  0  0
   -0.8958   20.6293  -33.6536 H   0  0  0  0  0  0  0  0  0  0  0  0
   -0.1820   17.8187  -33.9151 H   0  0  0  0  0  0  0  0  0  0  0  0
   -0.0849   18.7998  -32.4485 H   0  0  0  0  0  0  0  0  0  0  0  0
   -1.8835   16.6884  -32.8475 H   0  0  0  0  0  0  0  0  0  0  0  0
   -2.1346   17.9925  -31.6575 H   0  0  0  0  0  0  0  0  0  0  0  0
   -5.1679   19.1750  -35.1625 H   0  0  0  0  0  0  0  0  0  0  0  0
   -6.5838   18.1600  -35.6346 H   0  0  0  0  0  0  0  0  0  0  0  0
   -4.3980   20.1577  -32.7416 H   0  0  0  0  0  0  0  0  0  0  0  0
  1  2  2  0
  2  3  1  0
  3  4  2  0
  3  5  1  0
  5  6  1  0
  6  7  1  0
  7  8  1  0
  7  9  2  0
  6 10  2  0
 10 11  1  0
 11 12  2  0
 12 13  1  0
 13 14  2  0
 14 15  1  0
 15 16  1  0
 16 17  1  0
 17 18  1  0
 18 19  1  0
 19 20  1  0
 20 21  2  0
 20 22  1  0
 22 23  1  0
 23 24  1  0
 24 25  1  0
 25 26  1  0
 19 27  1  0
 14 28  1  0
 28 29  2  0
 29  5  1  0
 29 11  1  0
 27 15  1  0
 26 22  1  0
  1 30  1  0
  1 31  1  0
  2 32  1  0
  8 33  1  0
 10 34  1  0
 12 35  1  0
 13 36  1  0
 16 37  1  0
 16 38  1  0
 17 39  1  0
 17 40  1  0
 18 41  1  0
 18 42  1  0
 19 43  1  6
 22 44  1  0
 23 45  1  0
 23 46  1  0
 24 47  1  0
 24 48  1  0
 25 49  1  0
 25 50  1  0
 26 51  1  0
 26 52  1  0
 27 53  1  0
 27 54  1  0
 28 55  1  0
M  CHG  2   8  -1  22   1
M  END
>  <UniqueID>  (97) 
97

>  <SMILES>  (97) 
C=CC(=O)n1c(C([NH-])=O)cc2ccc(N3CCC[C@H](C(=O)[NH+]4CCCC4)C3)cc21

>  <Energy>  (97) 
106.81399575719486

>  <Genealogy>  (97) 
C=CC(=O)n1c(C([NH-])=O)cc2ccc(N3CCCC(C(=O)[NH+]4CCCC4)C3)cc21 (protonated)
C=CC(=O)n1c(C([NH-])=O)cc2ccc(N3CCC[C@H](C(=O)[NH+]4CCCC4)C3)cc21 (chirality)
C=CC(=O)n1c(C([NH-])=O)cc2ccc(N3CCC[C@H](C(=O)[NH+]4CCCC4)C3)cc21 (3D coordinates assigned)
C=CC(=O)n1c(C([NH-])=O)cc2ccc(N3CCC[C@H](C(=O)[NH+]4CCCC4)C3)cc21 (nonaromatic ring conformer: 106.81399575719486 kcal/mol)

>  <smiles>  (97) 
C=CC(=O)n1c(C(N)=O)cc2ccc(N3CCCC(C(=O)N4CCCC4)C3)cc21

>  <score_type>  (97) 
oracle

>  <origin>  (97) 
adg

>  <m_score__min__energy>  (97) 
-11.43

>  <m_primary>  (97) 
energy

$$$$
98:0
     RDKit          3D

 40 41  0  0  0  0  0  0  0  0999 V2000
   -3.0530   20.7180  -29.3450 C   0  0  0  0  0  0  0  0  0  0  0  0
   -3.0900   22.1730  -29.5660 N   0  0  0  0  0  0  0  0  0  0  0  0
   -3.6580   22.6630  -30.8080 C   0  0  0  0  0  0  0  0  0  0  0  0
   -2.9040   23.0450  -31.7430 O   0  0  0  0  0  0  0  0  0  0  0  0
   -5.0820   22.7210  -30.9990 N   0  0  0  0  0  0  0  0  0  0  0  0
   -5.8850   23.8210  -30.9460 C   0  0  0  0  0  0  0  0  0  0  0  0
   -5.4690   25.1750  -30.5200 C   0  0  0  0  0  0  0  0  0  0  0  0
   -4.1740   25.6790  -30.8360 N   0  0  0  0  0  0  0  0  0  0  0  0
   -6.2560   25.8830  -29.8380 O   0  0  0  0  0  0  0  0  0  0  0  0
   -7.1930   23.4870  -31.2870 C   0  0  0  0  0  0  0  0  0  0  0  0
   -7.1680   22.1370  -31.5530 C   0  0  0  0  0  0  0  0  0  0  0  0
   -8.1930   21.2820  -31.9490 C   0  0  0  0  0  0  0  0  0  0  0  0
   -7.8730   19.9320  -32.1740 C   0  0  0  0  0  0  0  0  0  0  0  0
   -6.5450   19.4660  -32.0060 C   0  0  0  0  0  0  0  0  0  0  0  0
   -6.2220   18.0210  -32.2590 C   0  0  0  0  0  0  0  0  0  0  0  0
   -7.2270   17.4450  -33.0140 F   0  0  0  0  0  0  0  0  0  0  0  0
   -6.1140   17.3500  -31.0550 F   0  0  0  0  0  0  0  0  0  0  0  0
   -5.5320   20.3660  -31.6050 C   0  0  0  0  0  0  0  0  0  0  0  0
   -5.8820   21.6990  -31.3750 C   0  0  0  0  0  0  0  0  0  0  0  0
   -2.6470   23.1320  -28.5090 C   0  0  0  0  0  0  0  0  0  0  0  0
   -2.0130   22.3500  -27.3360 C   0  0  0  0  0  0  0  0  0  0  0  0
   -3.8180   23.9620  -27.9290 C   0  0  0  0  0  0  0  0  0  0  0  0
   -1.6500   24.1110  -29.0960 C   0  0  0  0  0  0  0  0  0  0  0  0
   -1.9930   25.3030  -29.3180 O   0  0  0  0  0  0  0  0  0  0  0  0
   -0.3310   23.7340  -29.3220 O   0  0  0  0  0  0  0  0  0  0  0  0
   -3.0477   20.5112  -28.2646 H   0  0  0  0  0  0  0  0  0  0  0  0
   -3.9397   20.2550  -29.8026 H   0  0  0  0  0  0  0  0  0  0  0  0
   -2.1440   20.3006  -29.8026 H   0  0  0  0  0  0  0  0  0  0  0  0
   -3.3520   25.0400  -30.9090 H   0  0  0  0  0  0  0  0  0  0  0  0
   -8.0621   24.1596  -31.3339 H   0  0  0  0  0  0  0  0  0  0  0  0
   -9.2206   21.6513  -32.0816 H   0  0  0  0  0  0  0  0  0  0  0  0
   -8.6612   19.2300  -32.4836 H   0  0  0  0  0  0  0  0  0  0  0  0
   -5.2685   17.9547  -32.8035 H   0  0  0  0  0  0  0  0  0  0  0  0
   -4.4938   20.0256  -31.4771 H   0  0  0  0  0  0  0  0  0  0  0  0
   -2.3582   22.7758  -26.3823 H   0  0  0  0  0  0  0  0  0  0  0  0
   -2.3125   21.2932  -27.3955 H   0  0  0  0  0  0  0  0  0  0  0  0
   -0.9171   22.4245  -27.3955 H   0  0  0  0  0  0  0  0  0  0  0  0
   -3.7784   23.9339  -26.8301 H   0  0  0  0  0  0  0  0  0  0  0  0
   -3.7345   25.0037  -28.2724 H   0  0  0  0  0  0  0  0  0  0  0  0
   -4.7732   23.5382  -28.2724 H   0  0  0  0  0  0  0  0  0  0  0  0
  1  2  1  0
  2  3  1  0
  3  4  2  0
  3  5  1  0
  5  6  1  0
  6  7  1  0
  7  8  1  0
  7  9  2  0
  6 10  2  0
 10 11  1  0
 11 12  2  0
 12 13  1  0
 13 14  2  0
 14 15  1  0
 15 16  1  0
 15 17  1  0
 14 18  1  0
 18 19  2  0
  2 20  1  0
 20 21  1  0
 20 22  1  0
 20 23  1  0
 23 24  2  0
 23 25  1  0
 19  5  1  0
 19 11  1  0
  1 26  1  0
  1 27  1  0
  1 28  1  0
  8 29  1  0
 10 30  1  0
 12 31  1  0
 13 32  1  0
 15 33  1  0
 18 34  1  0
 21 35  1  0
 21 36  1  0
 21 37  1  0
 22 38  1  0
 22 39  1  0
 22 40  1  0
M  CHG  2   8  -1  25  -1
M  END
>  <UniqueID>  (98) 
98

>  <SMILES>  (98) 
CN(C(=O)n1c(C([NH-])=O)cc2ccc(C(F)F)cc21)C(C)(C)C(=O)[O-]

>  <Energy>  (98) 
82.08185959182141

>  <Genealogy>  (98) 
CN(C(=O)n1c(C([NH-])=O)cc2ccc(C(F)F)cc21)C(C)(C)C(=O)[O-] (protonated)
CN(C(=O)n1c(C([NH-])=O)cc2ccc(C(F)F)cc21)C(C)(C)C(=O)[O-] (3D coordinates assigned)
CN(C(=O)n1c(C([NH-])=O)cc2ccc(C(F)F)cc21)C(C)(C)C(=O)[O-] (optimized conformer: 82.08185959182141 kcal/mol)

>  <smiles>  (98) 
CN(C(=O)n1c(C(N)=O)cc2ccc(C(F)F)cc21)C(C)(C)C(=O)O

>  <score_type>  (98) 
oracle

>  <origin>  (98) 
adg

>  <m_score__min__energy>  (98) 
-11.76

>  <m_primary>  (98) 
energy

$$$$
99:0
     RDKit          3D

 49 50  0  0  0  0  0  0  0  0999 V2000
   -3.2540   19.3540  -33.8460 C   0  0  0  0  0  0  0  0  0  0  0  0
   -3.6080   17.9980  -33.2430 C   0  0  0  0  0  0  0  0  0  0  0  0
   -4.8340   17.5180  -33.7870 O   0  0  0  0  0  0  0  0  0  0  0  0
   -5.9630   18.3240  -33.9760 C   0  0  0  0  0  0  0  0  0  0  0  0
   -6.1190   18.9800  -35.0430 O   0  0  0  0  0  0  0  0  0  0  0  0
   -6.9610   18.4550  -32.8680 C   0  0  0  0  0  0  0  0  0  0  0  0
   -7.0990   19.8920  -32.4310 C   0  0  0  0  0  0  0  0  0  0  0  0
   -8.3820   20.4870  -32.3310 C   0  0  0  0  0  0  0  0  0  0  0  0
   -8.5230   21.8170  -31.9010 C   0  0  0  0  0  0  0  0  0  0  0  0
   -7.3710   22.5230  -31.5700 C   0  0  0  0  0  0  0  0  0  0  0  0
   -7.2200   23.8250  -31.1530 C   0  0  0  0  0  0  0  0  0  0  0  0
   -5.8490   24.0030  -30.9830 C   0  0  0  0  0  0  0  0  0  0  0  0
   -5.2530   25.2470  -30.4540 C   0  0  0  0  0  0  0  0  0  0  0  0
   -3.9510   25.6640  -30.8560 N   0  0  0  0  0  0  0  0  0  0  0  0
   -5.8790   25.9210  -29.5930 O   0  0  0  0  0  0  0  0  0  0  0  0
   -5.1740   22.8590  -31.2930 N   0  0  0  0  0  0  0  0  0  0  0  0
   -3.7510   22.6680  -31.3730 C   0  0  0  0  0  0  0  0  0  0  0  0
   -3.2620   22.0020  -32.3250 O   0  0  0  0  0  0  0  0  0  0  0  0
   -2.9260   23.1780  -30.3620 O   0  0  0  0  0  0  0  0  0  0  0  0
   -3.2030   23.1220  -28.9910 C   0  0  0  0  0  0  0  0  0  0  0  0
   -4.3430   22.7940  -28.5650 O   0  0  0  0  0  0  0  0  0  0  0  0
   -2.1080   23.4270  -28.0140 C   0  0  0  0  0  0  0  0  0  0  0  0
   -1.6220   24.8550  -28.1160 C   0  0  0  0  0  0  0  0  0  0  0  0
   -1.5240   25.4020  -29.2490 O   0  0  0  0  0  0  0  0  0  0  0  0
   -1.2900   25.6130  -26.9320 N   0  0  0  0  0  0  0  0  0  0  0  0
   -1.4360   25.0200  -25.5980 C   0  0  0  0  0  0  0  0  0  0  0  0
   -0.8050   26.9900  -27.0770 C   0  0  0  0  0  0  0  0  0  0  0  0
   -6.1240   21.9600  -31.6430 C   0  0  0  0  0  0  0  0  0  0  0  0
   -5.9530   20.6390  -32.0730 C   0  0  0  0  0  0  0  0  0  0  0  0
   -3.0654   20.0765  -33.0383 H   0  0  0  0  0  0  0  0  0  0  0  0
   -2.3517   19.2547  -34.4672 H   0  0  0  0  0  0  0  0  0  0  0  0
   -4.0897   19.7085  -34.4672 H   0  0  0  0  0  0  0  0  0  0  0  0
   -2.8056   17.2802  -33.4687 H   0  0  0  0  0  0  0  0  0  0  0  0
   -3.7198   18.1096  -32.1544 H   0  0  0  0  0  0  0  0  0  0  0  0
   -7.9377   18.0905  -33.2189 H   0  0  0  0  0  0  0  0  0  0  0  0
   -6.6126   17.8602  -32.0108 H   0  0  0  0  0  0  0  0  0  0  0  0
   -9.2757   19.9015  -32.5927 H   0  0  0  0  0  0  0  0  0  0  0  0
   -9.5152   22.2863  -31.8282 H   0  0  0  0  0  0  0  0  0  0  0  0
   -8.0139   24.5684  -30.9886 H   0  0  0  0  0  0  0  0  0  0  0  0
   -3.0980   25.2990  -30.3750 H   0  0  0  0  0  0  0  0  0  0  0  0
   -2.4861   23.2550  -26.9954 H   0  0  0  0  0  0  0  0  0  0  0  0
   -1.2590   22.7676  -28.2471 H   0  0  0  0  0  0  0  0  0  0  0  0
   -1.2471   25.7874  -24.8329 H   0  0  0  0  0  0  0  0  0  0  0  0
   -2.4573   24.6287  -25.4805 H   0  0  0  0  0  0  0  0  0  0  0  0
   -0.7131   24.1993  -25.4805 H   0  0  0  0  0  0  0  0  0  0  0  0
   -0.6497   27.4308  -26.0812 H   0  0  0  0  0  0  0  0  0  0  0  0
    0.1463   26.9874  -27.6292 H   0  0  0  0  0  0  0  0  0  0  0  0
   -1.5479   27.5842  -27.6292 H   0  0  0  0  0  0  0  0  0  0  0  0
   -4.9496   20.1920  -32.1311 H   0  0  0  0  0  0  0  0  0  0  0  0
  1  2  1  0
  2  3  1  0
  3  4  1  0
  4  5  2  0
  4  6  1  0
  6  7  1  0
  7  8  2  0
  8  9  1  0
  9 10  2  0
 10 11  1  0
 11 12  2  0
 12 13  1  0
 13 14  1  0
 13 15  2  0
 12 16  1  0
 16 17  1  0
 17 18  2  0
 17 19  1  0
 19 20  1  0
 20 21  2  0
 20 22  1  0
 22 23  1  0
 23 24  2  0
 23 25  1  0
 25 26  1  0
 25 27  1  0
 16 28  1  0
 28 29  2  0
 29  7  1  0
 28 10  1  0
  1 30  1  0
  1 31  1  0
  1 32  1  0
  2 33  1  0
  2 34  1  0
  6 35  1  0
  6 36  1  0
  8 37  1  0
  9 38  1  0
 11 39  1  0
 14 40  1  0
 22 41  1  0
 22 42  1  0
 26 43  1  0
 26 44  1  0
 26 45  1  0
 27 46  1  0
 27 47  1  0
 27 48  1  0
 29 49  1  0
M  CHG  1  14  -1
M  END
>  <UniqueID>  (99) 
99

>  <SMILES>  (99) 
CCOC(=O)Cc1ccc2cc(C([NH-])=O)n(C(=O)OC(=O)CC(=O)N(C)C)c2c1

>  <Energy>  (99) 
78.97561559415743

>  <Genealogy>  (99) 
CCOC(=O)Cc1ccc2cc(C([NH-])=O)n(C(=O)OC(=O)CC(=O)N(C)C)c2c1 (protonated)
CCOC(=O)Cc1ccc2cc(C([NH-])=O)n(C(=O)OC(=O)CC(=O)N(C)C)c2c1 (3D coordinates assigned)
CCOC(=O)Cc1ccc2cc(C([NH-])=O)n(C(=O)OC(=O)CC(=O)N(C)C)c2c1 (optimized conformer: 78.97561559415743 kcal/mol)

>  <smiles>  (99) 
CCOC(=O)Cc1ccc2cc(C(N)=O)n(C(=O)OC(=O)CC(=O)N(C)C)c2c1

>  <score_type>  (99) 
oracle

>  <origin>  (99) 
adg

>  <m_score__min__energy>  (99) 
-10.75

>  <m_primary>  (99) 
energy

$$$$
