0:0
     RDKit          3D

 37 39  0  0  0  0  0  0  0  0999 V2000
   -3.9270   25.6720  -30.8230 N   0  0  0  0  0  0  0  0  0  0  0  0
   -5.1720   25.0820  -30.4600 C   0  0  0  0  0  0  0  0  0  0  0  0
   -5.9510   25.7100  -29.6940 O   0  0  0  0  0  0  0  0  0  0  0  0
   -5.5750   23.7630  -30.9940 C   0  0  0  0  0  0  0  0  0  0  0  0
   -6.8820   23.4460  -31.3600 C   0  0  0  0  0  0  0  0  0  0  0  0
   -6.8240   22.1600  -31.8460 C   0  0  0  0  0  0  0  0  0  0  0  0
   -7.8380   21.3350  -32.3250 C   0  0  0  0  0  0  0  0  0  0  0  0
   -7.4940   20.0330  -32.7260 C   0  0  0  0  0  0  0  0  0  0  0  0
   -6.1530   19.5820  -32.6400 C   0  0  0  0  0  0  0  0  0  0  0  0
   -5.8040   18.1710  -33.0270 C   0  0  0  0  0  0  0  0  0  0  0  0
   -4.8910   18.1580  -34.2550 C   0  0  0  0  0  0  0  0  0  0  0  0
   -3.6320   18.6790  -33.9260 O   0  0  0  0  0  0  0  0  0  0  0  0
   -5.1540   20.4420  -32.1330 C   0  0  0  0  0  0  0  0  0  0  0  0
   -5.5230   21.7400  -31.7620 C   0  0  0  0  0  0  0  0  0  0  0  0
   -4.7430   22.7140  -31.2440 N   0  0  0  0  0  0  0  0  0  0  0  0
   -3.3440   22.6120  -30.9430 C   0  0  0  0  0  0  0  0  0  0  0  0
   -2.8770   23.2070  -29.9340 O   0  0  0  0  0  0  0  0  0  0  0  0
   -2.4500   21.8300  -31.8080 C   0  0  0  0  0  0  0  0  0  0  0  0
   -1.1960   21.3500  -31.4840 C   0  0  0  0  0  0  0  0  0  0  0  0
   -0.7160   20.6940  -32.5550 N   0  0  0  0  0  0  0  0  0  0  0  0
   -1.6880   20.8030  -33.4800 C   0  0  0  0  0  0  0  0  0  0  0  0
   -1.6030   20.2440  -34.7880 N   0  0  0  0  0  0  0  0  0  0  0  0
   -2.7260   21.4810  -33.0450 O   0  0  0  0  0  0  0  0  0  0  0  0
   -3.0250   25.2950  -30.4580 H   0  0  0  0  0  0  0  0  0  0  0  0
   -7.7715   24.0879  -31.2778 H   0  0  0  0  0  0  0  0  0  0  0  0
   -8.8767   21.6915  -32.3876 H   0  0  0  0  0  0  0  0  0  0  0  0
   -8.2725   19.3575  -33.1102 H   0  0  0  0  0  0  0  0  0  0  0  0
   -5.2871   17.6835  -32.1873 H   0  0  0  0  0  0  0  0  0  0  0  0
   -6.7310   17.6308  -33.2693 H   0  0  0  0  0  0  0  0  0  0  0  0
   -4.7748   17.1236  -34.6108 H   0  0  0  0  0  0  0  0  0  0  0  0
   -5.3414   18.7776  -35.0445 H   0  0  0  0  0  0  0  0  0  0  0  0
   -3.7620   19.6490  -33.7570 H   0  0  0  0  0  0  0  0  0  0  0  0
   -4.1132   20.1006  -32.0324 H   0  0  0  0  0  0  0  0  0  0  0  0
   -0.6814   21.4812  -30.5207 H   0  0  0  0  0  0  0  0  0  0  0  0
    0.2050   20.2110  -32.6460 H   0  0  0  0  0  0  0  0  0  0  0  0
   -1.7900   19.2280  -34.9360 H   0  0  0  0  0  0  0  0  0  0  0  0
   -1.3540   20.8440  -35.6040 H   0  0  0  0  0  0  0  0  0  0  0  0
  1  2  1  0
  2  3  2  0
  2  4  1  0
  4  5  2  0
  5  6  1  0
  6  7  2  0
  7  8  1  0
  8  9  2  0
  9 10  1  0
 10 11  1  0
 11 12  1  0
  9 13  1  0
 13 14  2  0
 14 15  1  0
 15 16  1  0
 16 17  2  0
 16 18  1  0
 18 19  2  0
 19 20  1  0
 20 21  2  0
 21 22  1  0
 21 23  1  0
 15  4  1  0
 23 18  1  0
 14  6  1  0
  1 24  1  0
  5 25  1  0
  7 26  1  0
  8 27  1  0
 10 28  1  0
 10 29  1  0
 11 30  1  0
 11 31  1  0
 12 32  1  0
 13 33  1  0
 19 34  1  0
 20 35  1  0
 22 36  1  0
 22 37  1  0
M  CHG  2   1  -1  20   1
M  END
>  <UniqueID>  (1) 
1

>  <SMILES>  (1) 
[NH-]C(=O)c1cc2ccc(CCO)cc2n1C(=O)c1c[nH+]c(N)o1

>  <Energy>  (1) 
104.90555834306261

>  <Genealogy>  (1) 
[NH-]C(=O)c1cc2ccc(CCO)cc2n1C(=O)c1c[nH+]c(N)o1 (protonated)
[NH-]C(=O)c1cc2ccc(CCO)cc2n1C(=O)c1c[nH+]c(N)o1 (3D coordinates assigned)
[NH-]C(=O)c1cc2ccc(CCO)cc2n1C(=O)c1c[nH+]c(N)o1 (optimized conformer: 104.90555834306261 kcal/mol)

>  <smiles>  (1) 
NC(=O)c1cc2ccc(CCO)cc2n1C(=O)c1cnc(N)o1

>  <score_type>  (1) 
oracle

>  <origin>  (1) 
adg

>  <m_score__min__energy>  (1) 
-9.3599999999999994

>  <m_primary>  (1) 
energy

$$$$
1:0
     RDKit          3D

 31 32  0  0  0  0  0  0  0  0999 V2000
   -8.6570   18.7170  -31.9550 C   0  0  0  0  0  0  0  0  0  0  0  0
   -7.3910   18.7960  -32.6670 N   0  0  0  0  0  0  0  0  0  0  0  0
   -6.7070   20.0310  -32.8960 C   0  0  0  0  0  0  0  0  0  0  0  0
   -7.3650   21.0890  -33.0950 O   0  0  0  0  0  0  0  0  0  0  0  0
   -5.2700   20.0730  -32.8890 N   0  0  0  0  0  0  0  0  0  0  0  0
   -4.4160   19.2430  -33.5520 C   0  0  0  0  0  0  0  0  0  0  0  0
   -4.8010   18.2180  -34.5420 C   0  0  0  0  0  0  0  0  0  0  0  0
   -6.1440   18.1140  -35.0170 N   0  0  0  0  0  0  0  0  0  0  0  0
   -3.9180   17.4560  -35.0180 O   0  0  0  0  0  0  0  0  0  0  0  0
   -3.0960   19.5140  -33.2030 C   0  0  0  0  0  0  0  0  0  0  0  0
   -3.1640   20.5550  -32.3060 C   0  0  0  0  0  0  0  0  0  0  0  0
   -2.1450   21.2180  -31.6280 C   0  0  0  0  0  0  0  0  0  0  0  0
   -2.5060   22.2350  -30.7280 C   0  0  0  0  0  0  0  0  0  0  0  0
   -3.8690   22.5530  -30.5080 C   0  0  0  0  0  0  0  0  0  0  0  0
   -4.2410   23.6540  -29.5540 C   0  0  0  0  0  0  0  0  0  0  0  0
   -3.5420   24.9190  -29.9340 C   0  0  0  0  0  0  0  0  0  0  0  0
   -4.0000   25.6460  -30.8550 O   0  0  0  0  0  0  0  0  0  0  0  0
   -2.3550   25.2730  -29.3040 O   0  0  0  0  0  0  0  0  0  0  0  0
   -4.8760   21.8650  -31.2210 C   0  0  0  0  0  0  0  0  0  0  0  0
   -4.4870   20.8730  -32.1300 C   0  0  0  0  0  0  0  0  0  0  0  0
   -8.4695   18.7287  -30.8712 H   0  0  0  0  0  0  0  0  0  0  0  0
   -9.2854   19.5777  -32.2277 H   0  0  0  0  0  0  0  0  0  0  0  0
   -9.1735   17.7849  -32.2277 H   0  0  0  0  0  0  0  0  0  0  0  0
   -6.8580   18.8360  -34.7810 H   0  0  0  0  0  0  0  0  0  0  0  0
   -6.4050   17.3550  -35.6860 H   0  0  0  0  0  0  0  0  0  0  0  0
   -2.1915   19.0045  -33.5668 H   0  0  0  0  0  0  0  0  0  0  0  0
   -1.0898   20.9540  -31.7917 H   0  0  0  0  0  0  0  0  0  0  0  0
   -1.7232   22.7893  -30.1894 H   0  0  0  0  0  0  0  0  0  0  0  0
   -5.3287   23.8143  -29.5894 H   0  0  0  0  0  0  0  0  0  0  0  0
   -3.9386   23.3667  -28.5362 H   0  0  0  0  0  0  0  0  0  0  0  0
   -5.9389   22.1024  -31.0662 H   0  0  0  0  0  0  0  0  0  0  0  0
  1  2  1  0
  2  3  1  0
  3  4  2  0
  3  5  1  0
  5  6  1  0
  6  7  1  0
  7  8  1  0
  7  9  2  0
  6 10  2  0
 10 11  1  0
 11 12  2  0
 12 13  1  0
 13 14  2  0
 14 15  1  0
 15 16  1  0
 16 17  2  0
 16 18  1  0
 14 19  1  0
 19 20  2  0
 20  5  1  0
 20 11  1  0
  1 21  1  0
  1 22  1  0
  1 23  1  0
  8 24  1  0
  8 25  1  0
 10 26  1  0
 12 27  1  0
 13 28  1  0
 15 29  1  0
 15 30  1  0
 19 31  1  0
M  CHG  2   2  -1  18  -1
M  END
>  <UniqueID>  (2) 
2

>  <SMILES>  (2) 
C[N-]C(=O)n1c(C(N)=O)cc2ccc(CC(=O)[O-])cc21

>  <Energy>  (2) 
66.94732429899186

>  <Genealogy>  (2) 
C[N-]C(=O)n1c(C(N)=O)cc2ccc(CC(=O)[O-])cc21 (protonated)
C[N-]C(=O)n1c(C(N)=O)cc2ccc(CC(=O)[O-])cc21 (3D coordinates assigned)
C[N-]C(=O)n1c(C(N)=O)cc2ccc(CC(=O)[O-])cc21 (optimized conformer: 66.94732429899186 kcal/mol)

>  <smiles>  (2) 
CNC(=O)n1c(C(N)=O)cc2ccc(CC(=O)O)cc21

>  <score_type>  (2) 
oracle

>  <origin>  (2) 
adg

>  <m_score__min__energy>  (2) 
-9.2699999999999996

>  <m_primary>  (2) 
energy

$$$$
2:0
     RDKit          3D

 55 56  0  0  0  0  0  0  0  0999 V2000
   -7.2120   23.4040  -32.4140 C   0  0  0  0  0  0  0  0  0  0  0  0
   -6.4290   22.8800  -31.4690 C   0  0  0  0  0  0  0  0  0  0  0  0
   -6.2420   23.5750  -30.1540 C   0  0  0  0  0  0  0  0  0  0  0  0
   -4.9010   23.4060  -29.7060 O   0  0  0  0  0  0  0  0  0  0  0  0
   -3.8110   23.9530  -30.3860 C   0  0  0  0  0  0  0  0  0  0  0  0
   -3.8820   25.1130  -30.8760 O   0  0  0  0  0  0  0  0  0  0  0  0
   -2.5980   23.1960  -30.5170 N   0  0  0  0  0  0  0  0  0  0  0  0
   -1.4220   23.3810  -29.8530 C   0  0  0  0  0  0  0  0  0  0  0  0
   -1.0930   24.5190  -28.9700 C   0  0  0  0  0  0  0  0  0  0  0  0
   -1.9160   25.6820  -28.9320 N   0  0  0  0  0  0  0  0  0  0  0  0
   -0.0450   24.4830  -28.2710 O   0  0  0  0  0  0  0  0  0  0  0  0
   -0.5140   22.3760  -30.1790 C   0  0  0  0  0  0  0  0  0  0  0  0
   -1.1740   21.5670  -31.0750 C   0  0  0  0  0  0  0  0  0  0  0  0
   -0.7470   20.4060  -31.7130 C   0  0  0  0  0  0  0  0  0  0  0  0
   -1.6520   19.7530  -32.5640 C   0  0  0  0  0  0  0  0  0  0  0  0
   -2.9630   20.2580  -32.7530 C   0  0  0  0  0  0  0  0  0  0  0  0
   -3.9080   19.5530  -33.6880 C   0  0  0  0  0  0  0  0  0  0  0  0
   -3.5420   18.0730  -33.8380 C   0  0  0  0  0  0  0  0  0  0  0  0
   -4.7210   17.2150  -33.6510 N   0  0  0  0  0  0  0  0  0  0  0  0
   -4.6100   15.9600  -32.9050 C   0  0  0  0  0  0  0  0  0  0  0  0
   -6.0040   17.6120  -34.1680 C   0  0  0  0  0  0  0  0  0  0  0  0
   -6.1170   17.9460  -35.3790 O   0  0  0  0  0  0  0  0  0  0  0  0
   -7.1170   17.6360  -33.3130 O   0  0  0  0  0  0  0  0  0  0  0  0
   -7.4200   18.6470  -32.3400 C   0  0  0  0  0  0  0  0  0  0  0  0
   -8.7730   18.3580  -31.6630 C   0  0  0  0  0  0  0  0  0  0  0  0
   -7.5180   19.9830  -33.0910 C   0  0  0  0  0  0  0  0  0  0  0  0
   -6.2990   18.7430  -31.2880 C   0  0  0  0  0  0  0  0  0  0  0  0
   -3.3590   21.4440  -32.0940 C   0  0  0  0  0  0  0  0  0  0  0  0
   -2.4310   22.0830  -31.2640 C   0  0  0  0  0  0  0  0  0  0  0  0
   -7.3396   22.8825  -33.3741 H   0  0  0  0  0  0  0  0  0  0  0  0
   -7.7298   24.3574  -32.2329 H   0  0  0  0  0  0  0  0  0  0  0  0
   -5.9144   21.9262  -31.6573 H   0  0  0  0  0  0  0  0  0  0  0  0
   -6.4545   24.6476  -30.2743 H   0  0  0  0  0  0  0  0  0  0  0  0
   -6.9300   23.1419  -29.4130 H   0  0  0  0  0  0  0  0  0  0  0  0
   -2.8760   25.6740  -29.3440 H   0  0  0  0  0  0  0  0  0  0  0  0
    0.5118   22.2551  -29.8007 H   0  0  0  0  0  0  0  0  0  0  0  0
    0.2680   20.0126  -31.5551 H   0  0  0  0  0  0  0  0  0  0  0  0
   -1.3404   18.8388  -33.0904 H   0  0  0  0  0  0  0  0  0  0  0  0
   -4.9305   19.6307  -33.2898 H   0  0  0  0  0  0  0  0  0  0  0  0
   -3.8381   20.0298  -34.6768 H   0  0  0  0  0  0  0  0  0  0  0  0
   -3.1311   17.9047  -34.8444 H   0  0  0  0  0  0  0  0  0  0  0  0
   -2.7981   17.8172  -33.0691 H   0  0  0  0  0  0  0  0  0  0  0  0
   -4.6288   16.1721  -31.8258 H   0  0  0  0  0  0  0  0  0  0  0  0
   -5.4536   15.3034  -33.1644 H   0  0  0  0  0  0  0  0  0  0  0  0
   -3.6643   15.4617  -33.1644 H   0  0  0  0  0  0  0  0  0  0  0  0
   -8.6493   18.3844  -30.5703 H   0  0  0  0  0  0  0  0  0  0  0  0
   -9.5056   19.1199  -31.9676 H   0  0  0  0  0  0  0  0  0  0  0  0
   -9.1304   17.3633  -31.9676 H   0  0  0  0  0  0  0  0  0  0  0  0
   -7.5785   20.8078  -32.3657 H   0  0  0  0  0  0  0  0  0  0  0  0
   -6.6271   20.1148  -33.7226 H   0  0  0  0  0  0  0  0  0  0  0  0
   -8.4186   19.9834  -33.7226 H   0  0  0  0  0  0  0  0  0  0  0  0
   -6.7379   18.7054  -30.2800 H   0  0  0  0  0  0  0  0  0  0  0  0
   -5.6026   17.9012  -31.4163 H   0  0  0  0  0  0  0  0  0  0  0  0
   -5.7559   19.6909  -31.4163 H   0  0  0  0  0  0  0  0  0  0  0  0
   -4.3706   21.8542  -32.2300 H   0  0  0  0  0  0  0  0  0  0  0  0
  1  2  2  0
  2  3  1  0
  3  4  1  0
  4  5  1  0
  5  6  2  0
  5  7  1  0
  7  8  1  0
  8  9  1  0
  9 10  1  0
  9 11  2  0
  8 12  2  0
 12 13  1  0
 13 14  2  0
 14 15  1  0
 15 16  2  0
 16 17  1  0
 17 18  1  0
 18 19  1  0
 19 20  1  0
 19 21  1  0
 21 22  2  0
 21 23  1  0
 23 24  1  0
 24 25  1  0
 24 26  1  0
 24 27  1  0
 16 28  1  0
 28 29  2  0
 29  7  1  0
 29 13  1  0
  1 30  1  0
  1 31  1  0
  2 32  1  0
  3 33  1  0
  3 34  1  0
 10 35  1  0
 12 36  1  0
 14 37  1  0
 15 38  1  0
 17 39  1  0
 17 40  1  0
 18 41  1  0
 18 42  1  0
 20 43  1  0
 20 44  1  0
 20 45  1  0
 25 46  1  0
 25 47  1  0
 25 48  1  0
 26 49  1  0
 26 50  1  0
 26 51  1  0
 27 52  1  0
 27 53  1  0
 27 54  1  0
 28 55  1  0
M  CHG  1  10  -1
M  END
>  <UniqueID>  (3) 
3

>  <SMILES>  (3) 
C=CCOC(=O)n1c(C([NH-])=O)cc2ccc(CCN(C)C(=O)OC(C)(C)C)cc21

>  <Energy>  (3) 
75.19686758988612

>  <Genealogy>  (3) 
C=CCOC(=O)n1c(C([NH-])=O)cc2ccc(CCN(C)C(=O)OC(C)(C)C)cc21 (protonated)
C=CCOC(=O)n1c(C([NH-])=O)cc2ccc(CCN(C)C(=O)OC(C)(C)C)cc21 (3D coordinates assigned)
C=CCOC(=O)n1c(C([NH-])=O)cc2ccc(CCN(C)C(=O)OC(C)(C)C)cc21 (optimized conformer: 75.19686758988612 kcal/mol)

>  <smiles>  (3) 
C=CCOC(=O)n1c(C(N)=O)cc2ccc(CCN(C)C(=O)OC(C)(C)C)cc21

>  <score_type>  (3) 
oracle

>  <origin>  (3) 
adg

>  <m_score__min__energy>  (3) 
-10.699999999999999

>  <m_primary>  (3) 
energy

$$$$
3:0
     RDKit          3D

 33 35  0  0  0  0  0  0  0  0999 V2000
   -1.6170   25.6580  -28.9600 N   0  0  0  0  0  0  0  0  0  0  0  0
   -1.1430   24.3270  -29.1380 C   0  0  0  0  0  0  0  0  0  0  0  0
   -0.1690   23.9220  -28.4480 O   0  0  0  0  0  0  0  0  0  0  0  0
   -1.8100   23.3990  -30.0740 C   0  0  0  0  0  0  0  0  0  0  0  0
   -1.1990   22.2550  -30.5830 C   0  0  0  0  0  0  0  0  0  0  0  0
   -2.1670   21.6240  -31.3290 C   0  0  0  0  0  0  0  0  0  0  0  0
   -2.1050   20.4420  -32.0610 C   0  0  0  0  0  0  0  0  0  0  0  0
   -3.2550   20.0370  -32.7580 C   0  0  0  0  0  0  0  0  0  0  0  0
   -4.4310   20.8260  -32.7280 C   0  0  0  0  0  0  0  0  0  0  0  0
   -5.6640   20.3680  -33.4550 C   0  0  0  0  0  0  0  0  0  0  0  0
   -5.9610   18.9450  -33.1080 C   0  0  0  0  0  0  0  0  0  0  0  0
   -6.3540   18.4800  -31.8670 C   0  0  0  0  0  0  0  0  0  0  0  0
   -6.4760   17.1140  -32.0010 C   0  0  0  0  0  0  0  0  0  0  0  0
   -6.1460   16.8350  -33.3140 C   0  0  0  0  0  0  0  0  0  0  0  0
   -6.1270   15.5060  -33.9310 C   0  0  0  0  0  0  0  0  0  0  0  0
   -5.0730   14.8190  -33.9160 O   0  0  0  0  0  0  0  0  0  0  0  0
   -7.2700   14.9970  -34.5360 O   0  0  0  0  0  0  0  0  0  0  0  0
   -5.8410   17.9430  -33.9490 O   0  0  0  0  0  0  0  0  0  0  0  0
   -4.4610   22.0140  -31.9650 C   0  0  0  0  0  0  0  0  0  0  0  0
   -3.3080   22.3840  -31.2640 C   0  0  0  0  0  0  0  0  0  0  0  0
   -3.1050   23.4780  -30.4990 N   0  0  0  0  0  0  0  0  0  0  0  0
   -4.0450   24.5390  -30.2670 C   0  0  0  0  0  0  0  0  0  0  0  0
   -3.8760   25.6680  -30.8000 O   0  0  0  0  0  0  0  0  0  0  0  0
   -5.1650   24.3230  -29.4740 O   0  0  0  0  0  0  0  0  0  0  0  0
   -2.6380   25.8730  -28.9880 H   0  0  0  0  0  0  0  0  0  0  0  0
   -0.1617   21.9260  -30.4222 H   0  0  0  0  0  0  0  0  0  0  0  0
   -1.1830   19.8430  -32.0927 H   0  0  0  0  0  0  0  0  0  0  0  0
   -3.2424   19.0989  -33.3322 H   0  0  0  0  0  0  0  0  0  0  0  0
   -6.5155   20.9999  -33.1626 H   0  0  0  0  0  0  0  0  0  0  0  0
   -5.4957   20.4485  -34.5391 H   0  0  0  0  0  0  0  0  0  0  0  0
   -6.5324   19.0768  -30.9603 H   0  0  0  0  0  0  0  0  0  0  0  0
   -6.7742   16.3946  -31.2241 H   0  0  0  0  0  0  0  0  0  0  0  0
   -5.3690   22.6335  -31.9228 H   0  0  0  0  0  0  0  0  0  0  0  0
  1  2  1  0
  2  3  2  0
  2  4  1  0
  4  5  2  0
  5  6  1  0
  6  7  2  0
  7  8  1  0
  8  9  2  0
  9 10  1  0
 10 11  1  0
 11 12  2  0
 12 13  1  0
 13 14  2  0
 14 15  1  0
 15 16  2  0
 15 17  1  0
 14 18  1  0
  9 19  1  0
 19 20  2  0
 20 21  1  0
 21 22  1  0
 22 23  2  0
 22 24  1  0
 21  4  1  0
 20  6  1  0
 18 11  1  0
  1 25  1  0
  5 26  1  0
  7 27  1  0
  8 28  1  0
 10 29  1  0
 10 30  1  0
 12 31  1  0
 13 32  1  0
 19 33  1  0
M  CHG  3   1  -1  17  -1  24  -1
M  END
>  <UniqueID>  (4) 
4

>  <SMILES>  (4) 
[NH-]C(=O)c1cc2ccc(Cc3ccc(C(=O)[O-])o3)cc2n1C(=O)[O-]

>  <Energy>  (4) 
98.39407703758324

>  <Genealogy>  (4) 
[NH-]C(=O)c1cc2ccc(Cc3ccc(C(=O)[O-])o3)cc2n1C(=O)[O-] (protonated)
[NH-]C(=O)c1cc2ccc(Cc3ccc(C(=O)[O-])o3)cc2n1C(=O)[O-] (3D coordinates assigned)
[NH-]C(=O)c1cc2ccc(Cc3ccc(C(=O)[O-])o3)cc2n1C(=O)[O-] (optimized conformer: 98.39407703758324 kcal/mol)

>  <smiles>  (4) 
NC(=O)c1cc2ccc(Cc3ccc(C(=O)O)o3)cc2n1C(=O)O

>  <score_type>  (4) 
oracle

>  <origin>  (4) 
adg

>  <m_score__min__energy>  (4) 
-11.369999999999999

>  <m_primary>  (4) 
energy

$$$$
4:0
     RDKit          3D

 61 63  0  0  0  0  0  0  0  0999 V2000
   -1.7380   15.7680  -35.7640 C   0  0  0  0  0  0  0  0  0  0  0  0
   -2.8080   15.7980  -34.6730 C   0  0  0  0  0  0  0  0  0  0  0  0
   -2.7250   17.0570  -33.7580 C   0  0  1  0  0  0  0  0  0  0  0  0
   -1.4720   17.9490  -34.0390 C   0  0  0  0  0  0  0  0  0  0  0  0
   -1.6780   19.4720  -33.9270 C   0  0  0  0  0  0  0  0  0  0  0  0
   -0.3840   20.2830  -33.6640 C   0  0  0  0  0  0  0  0  0  0  0  0
   -0.1180   21.3650  -34.7210 C   0  0  0  0  0  0  0  0  0  0  0  0
   -0.3710   20.8860  -32.2510 C   0  0  0  0  0  0  0  0  0  0  0  0
   -4.0360   17.7830  -33.6810 N   0  0  2  0  0  0  0  0  0  0  0  0
   -4.7600   17.6400  -32.3790 C   0  0  0  0  0  0  0  0  0  0  0  0
   -6.2910   17.5380  -32.5120 C   0  0  0  0  0  0  0  0  0  0  0  0
   -6.8650   18.5400  -33.5310 C   0  0  1  0  0  0  0  0  0  0  0  0
   -6.9860   19.9300  -32.9120 C   0  0  0  0  0  0  0  0  0  0  0  0
   -8.2800   20.4310  -32.5990 C   0  0  0  0  0  0  0  0  0  0  0  0
   -8.4400   21.6740  -31.9650 C   0  0  0  0  0  0  0  0  0  0  0  0
   -7.2950   22.3920  -31.6360 C   0  0  0  0  0  0  0  0  0  0  0  0
   -7.1650   23.6270  -31.0440 C   0  0  0  0  0  0  0  0  0  0  0  0
   -5.7900   23.8610  -30.9750 C   0  0  0  0  0  0  0  0  0  0  0  0
   -5.2020   25.0620  -30.3420 C   0  0  0  0  0  0  0  0  0  0  0  0
   -3.9950   25.6390  -30.8350 N   0  0  0  0  0  0  0  0  0  0  0  0
   -5.7510   25.5640  -29.3250 O   0  0  0  0  0  0  0  0  0  0  0  0
   -5.1020   22.8150  -31.5150 N   0  0  0  0  0  0  0  0  0  0  0  0
   -3.6850   22.7100  -31.7300 C   0  0  0  0  0  0  0  0  0  0  0  0
   -2.8780   23.1810  -30.8830 O   0  0  0  0  0  0  0  0  0  0  0  0
   -3.1940   22.0200  -32.8320 O   0  0  0  0  0  0  0  0  0  0  0  0
   -6.0380   21.9230  -31.9090 C   0  0  0  0  0  0  0  0  0  0  0  0
   -5.8500   20.6950  -32.5540 C   0  0  0  0  0  0  0  0  0  0  0  0
   -6.1010   18.5040  -34.8860 C   0  0  0  0  0  0  0  0  0  0  0  0
   -4.8940   17.5470  -34.8660 C   0  0  0  0  0  0  0  0  0  0  0  0
   -0.7413   15.7401  -35.2994 H   0  0  0  0  0  0  0  0  0  0  0  0
   -1.8765   14.8734  -36.3889 H   0  0  0  0  0  0  0  0  0  0  0  0
   -1.8261   16.6690  -36.3889 H   0  0  0  0  0  0  0  0  0  0  0  0
   -3.7970   15.7815  -35.1542 H   0  0  0  0  0  0  0  0  0  0  0  0
   -2.6424   14.9196  -34.0319 H   0  0  0  0  0  0  0  0  0  0  0  0
   -2.5450   16.7035  -32.7320 H   0  0  0  0  0  0  0  0  0  0  0  0
   -0.6894   17.6631  -33.3208 H   0  0  0  0  0  0  0  0  0  0  0  0
   -1.2119   17.7653  -35.0919 H   0  0  0  0  0  0  0  0  0  0  0  0
   -2.1200   19.8282  -34.8692 H   0  0  0  0  0  0  0  0  0  0  0  0
   -2.3288   19.6341  -33.0551 H   0  0  0  0  0  0  0  0  0  0  0  0
    0.4405   19.5591  -33.7419 H   0  0  0  0  0  0  0  0  0  0  0  0
    0.1159   22.3164  -34.2210 H   0  0  0  0  0  0  0  0  0  0  0  0
    0.7325   21.0623  -35.3496 H   0  0  0  0  0  0  0  0  0  0  0  0
   -1.0119   21.4912  -35.3496 H   0  0  0  0  0  0  0  0  0  0  0  0
   -0.3885   20.0763  -31.5066 H   0  0  0  0  0  0  0  0  0  0  0  0
    0.5403   21.4874  -32.1173 H   0  0  0  0  0  0  0  0  0  0  0  0
   -1.2556   21.5261  -32.1173 H   0  0  0  0  0  0  0  0  0  0  0  0
   -3.7670   18.7930  -33.7460 H   0  0  0  0  0  0  0  0  0  0  0  0
   -4.3962   16.7292  -31.8809 H   0  0  0  0  0  0  0  0  0  0  0  0
   -4.5545   18.5541  -31.8027 H   0  0  0  0  0  0  0  0  0  0  0  0
   -6.5494   16.5190  -32.8360 H   0  0  0  0  0  0  0  0  0  0  0  0
   -6.7272   17.7744  -31.5303 H   0  0  0  0  0  0  0  0  0  0  0  0
   -7.8891   18.2308  -33.7873 H   0  0  0  0  0  0  0  0  0  0  0  0
   -9.1685   19.8361  -32.8573 H   0  0  0  0  0  0  0  0  0  0  0  0
   -9.4410   22.0680  -31.7355 H   0  0  0  0  0  0  0  0  0  0  0  0
   -7.9724   24.2893  -30.6985 H   0  0  0  0  0  0  0  0  0  0  0  0
   -3.0630   25.2980  -30.5100 H   0  0  0  0  0  0  0  0  0  0  0  0
   -4.8367   20.3306  -32.7789 H   0  0  0  0  0  0  0  0  0  0  0  0
   -6.7963   18.1762  -35.6728 H   0  0  0  0  0  0  0  0  0  0  0  0
   -5.7171   19.5171  -35.0765 H   0  0  0  0  0  0  0  0  0  0  0  0
   -5.2600   16.5099  -34.8420 H   0  0  0  0  0  0  0  0  0  0  0  0
   -4.2935   17.7284  -35.7696 H   0  0  0  0  0  0  0  0  0  0  0  0
  1  2  1  0
  2  3  1  0
  3  4  1  0
  4  5  1  0
  5  6  1  0
  6  7  1  0
  6  8  1  0
  3  9  1  0
  9 10  1  0
 10 11  1  0
 11 12  1  0
 12 13  1  0
 13 14  2  0
 14 15  1  0
 15 16  2  0
 16 17  1  0
 17 18  2  0
 18 19  1  0
 19 20  1  0
 19 21  2  0
 18 22  1  0
 22 23  1  0
 23 24  2  0
 23 25  1  0
 22 26  1  0
 26 27  2  0
 12 28  1  0
 28 29  1  0
 29  9  1  0
 27 13  1  0
 26 16  1  0
  1 30  1  0
  1 31  1  0
  1 32  1  0
  2 33  1  0
  2 34  1  0
  3 35  1  1
  4 36  1  0
  4 37  1  0
  5 38  1  0
  5 39  1  0
  6 40  1  0
  7 41  1  0
  7 42  1  0
  7 43  1  0
  8 44  1  0
  8 45  1  0
  8 46  1  0
  9 47  1  6
 10 48  1  0
 10 49  1  0
 11 50  1  0
 11 51  1  0
 12 52  1  6
 14 53  1  0
 15 54  1  0
 17 55  1  0
 20 56  1  0
 27 57  1  0
 28 58  1  0
 28 59  1  0
 29 60  1  0
 29 61  1  0
M  CHG  3   9   1  20  -1  25  -1
M  END
>  <UniqueID>  (5) 
5

>  <SMILES>  (5) 
CC[C@@H](CCC(C)C)[NH+]1CCC(c2ccc3cc(C([NH-])=O)n(C(=O)[O-])c3c2)CC1

>  <Energy>  (5) 
114.96862489232355

>  <Genealogy>  (5) 
CCC(CCC(C)C)[NH+]1CCC(c2ccc3cc(C([NH-])=O)n(C(=O)[O-])c3c2)CC1 (protonated)
CC[C@@H](CCC(C)C)[NH+]1CCC(c2ccc3cc(C([NH-])=O)n(C(=O)[O-])c3c2)CC1 (chirality)
CC[C@@H](CCC(C)C)[NH+]1CCC(c2ccc3cc(C([NH-])=O)n(C(=O)[O-])c3c2)CC1 (3D coordinates assigned)
CC[C@@H](CCC(C)C)[NH+]1CCC(c2ccc3cc(C([NH-])=O)n(C(=O)[O-])c3c2)CC1 (nonaromatic ring conformer: 114.96862489232355 kcal/mol)

>  <smiles>  (5) 
CCC(CCC(C)C)N1CCC(c2ccc3cc(C(N)=O)n(C(=O)O)c3c2)CC1

>  <score_type>  (5) 
oracle

>  <origin>  (5) 
adg

>  <m_score__min__energy>  (5) 
-12.210000000000001

>  <m_primary>  (5) 
energy

$$$$
5:0
     RDKit          3D

 36 37  0  0  0  0  0  0  0  0999 V2000
   -8.2120   21.0260  -32.2790 C   0  0  0  0  0  0  0  0  0  0  0  0
   -7.8200   19.6850  -32.7480 N   0  0  0  0  0  0  0  0  0  0  0  0
   -8.7100   18.6490  -32.1940 C   0  0  0  0  0  0  0  0  0  0  0  0
   -6.3780   19.3900  -32.5460 C   0  0  0  0  0  0  0  0  0  0  0  0
   -5.3840   20.2090  -33.4060 C   0  0  0  0  0  0  0  0  0  0  0  0
   -4.1770   20.6960  -32.6460 C   0  0  0  0  0  0  0  0  0  0  0  0
   -2.9790   19.9390  -32.6520 C   0  0  0  0  0  0  0  0  0  0  0  0
   -1.8510   20.3790  -31.9400 C   0  0  0  0  0  0  0  0  0  0  0  0
   -1.9500   21.5740  -31.2330 C   0  0  0  0  0  0  0  0  0  0  0  0
   -1.0220   22.2160  -30.4470 C   0  0  0  0  0  0  0  0  0  0  0  0
   -1.6610   23.3610  -29.9790 C   0  0  0  0  0  0  0  0  0  0  0  0
   -0.9890   24.3910  -29.1610 C   0  0  0  0  0  0  0  0  0  0  0  0
   -1.5960   25.6700  -28.9910 N   0  0  0  0  0  0  0  0  0  0  0  0
    0.0990   24.1440  -28.5770 O   0  0  0  0  0  0  0  0  0  0  0  0
   -2.9390   23.4210  -30.4510 N   0  0  0  0  0  0  0  0  0  0  0  0
   -3.9430   24.4040  -30.1460 C   0  0  0  0  0  0  0  0  0  0  0  0
   -4.8530   24.1460  -29.3140 O   0  0  0  0  0  0  0  0  0  0  0  0
   -3.9040   25.6580  -30.7430 O   0  0  0  0  0  0  0  0  0  0  0  0
   -3.0990   22.3210  -31.2190 C   0  0  0  0  0  0  0  0  0  0  0  0
   -4.2450   21.8960  -31.9020 C   0  0  0  0  0  0  0  0  0  0  0  0
   -8.2169   21.0429  -31.1791 H   0  0  0  0  0  0  0  0  0  0  0  0
   -7.4938   21.7700  -32.6539 H   0  0  0  0  0  0  0  0  0  0  0  0
   -9.2179   21.2660  -32.6539 H   0  0  0  0  0  0  0  0  0  0  0  0
   -7.9720   19.6830  -33.7860 H   0  0  0  0  0  0  0  0  0  0  0  0
   -8.6774   18.6870  -31.0951 H   0  0  0  0  0  0  0  0  0  0  0  0
   -9.7397   18.8287  -32.5367 H   0  0  0  0  0  0  0  0  0  0  0  0
   -8.3772   17.6582  -32.5367 H   0  0  0  0  0  0  0  0  0  0  0  0
   -6.1418   19.5797  -31.4885 H   0  0  0  0  0  0  0  0  0  0  0  0
   -6.2454   18.3441  -32.8599 H   0  0  0  0  0  0  0  0  0  0  0  0
   -5.0384   19.5740  -34.2351 H   0  0  0  0  0  0  0  0  0  0  0  0
   -5.9236   21.1018  -33.7548 H   0  0  0  0  0  0  0  0  0  0  0  0
   -2.9320   18.9979  -33.2196 H   0  0  0  0  0  0  0  0  0  0  0  0
   -0.9177   19.7969  -31.9411 H   0  0  0  0  0  0  0  0  0  0  0  0
    0.0076   21.8931  -30.2332 H   0  0  0  0  0  0  0  0  0  0  0  0
   -2.6340   25.7750  -28.9850 H   0  0  0  0  0  0  0  0  0  0  0  0
   -5.1753   22.4815  -31.8606 H   0  0  0  0  0  0  0  0  0  0  0  0
  1  2  1  0
  2  3  1  0
  2  4  1  0
  4  5  1  0
  5  6  1  0
  6  7  2  0
  7  8  1  0
  8  9  2  0
  9 10  1  0
 10 11  2  0
 11 12  1  0
 12 13  1  0
 12 14  2  0
 11 15  1  0
 15 16  1  0
 16 17  2  0
 16 18  1  0
 15 19  1  0
 19 20  2  0
 20  6  1  0
 19  9  1  0
  1 21  1  0
  1 22  1  0
  1 23  1  0
  2 24  1  0
  3 25  1  0
  3 26  1  0
  3 27  1  0
  4 28  1  0
  4 29  1  0
  5 30  1  0
  5 31  1  0
  7 32  1  0
  8 33  1  0
 10 34  1  0
 13 35  1  0
 20 36  1  0
M  CHG  3   2   1  13  -1  18  -1
M  END
>  <UniqueID>  (6) 
6

>  <SMILES>  (6) 
C[NH+](C)CCc1ccc2cc(C([NH-])=O)n(C(=O)[O-])c2c1

>  <Energy>  (6) 
78.26742833499797

>  <Genealogy>  (6) 
C[NH+](C)CCc1ccc2cc(C([NH-])=O)n(C(=O)[O-])c2c1 (protonated)
C[NH+](C)CCc1ccc2cc(C([NH-])=O)n(C(=O)[O-])c2c1 (3D coordinates assigned)
C[NH+](C)CCc1ccc2cc(C([NH-])=O)n(C(=O)[O-])c2c1 (optimized conformer: 78.26742833499797 kcal/mol)

>  <smiles>  (6) 
CN(C)CCc1ccc2cc(C(N)=O)n(C(=O)O)c2c1

>  <score_type>  (6) 
oracle

>  <origin>  (6) 
adg

>  <m_score__min__energy>  (6) 
-10.81

>  <m_primary>  (6) 
energy

$$$$
6:0
     RDKit          3D

 45 47  0  0  0  0  0  0  0  0999 V2000
   -3.5270   22.0500  -32.5300 C   0  0  0  0  0  0  0  0  0  0  0  0
   -4.1790   22.7520  -31.3810 C   0  0  0  0  0  0  0  0  0  0  0  0
   -3.4620   23.1840  -30.4380 O   0  0  0  0  0  0  0  0  0  0  0  0
   -5.6020   22.9400  -31.3390 N   0  0  0  0  0  0  0  0  0  0  0  0
   -6.2800   24.0040  -30.8220 C   0  0  0  0  0  0  0  0  0  0  0  0
   -5.6560   25.2460  -30.3100 C   0  0  0  0  0  0  0  0  0  0  0  0
   -4.2980   25.5650  -30.6170 N   0  0  0  0  0  0  0  0  0  0  0  0
   -6.3170   26.0290  -29.5770 O   0  0  0  0  0  0  0  0  0  0  0  0
   -7.6550   23.7880  -30.9010 C   0  0  0  0  0  0  0  0  0  0  0  0
   -7.7980   22.5480  -31.4790 C   0  0  0  0  0  0  0  0  0  0  0  0
   -8.9490   21.8250  -31.7710 C   0  0  0  0  0  0  0  0  0  0  0  0
   -8.8000   20.5470  -32.3320 C   0  0  0  0  0  0  0  0  0  0  0  0
   -7.5130   20.0070  -32.5880 C   0  0  0  0  0  0  0  0  0  0  0  0
   -7.4130   18.6840  -33.1540 N   0  0  0  0  0  0  0  0  0  0  0  0
   -6.1530   17.9500  -33.3310 C   0  0  0  0  0  0  0  0  0  0  0  0
   -5.3530   18.4990  -34.5380 C   0  0  0  0  0  0  0  0  0  0  0  0
   -4.5530   17.4070  -35.2810 C   0  0  0  0  0  0  0  0  0  0  0  0
   -4.0500   16.3480  -34.3820 N   0  0  0  0  0  0  0  0  0  0  0  0
   -2.9390   16.8210  -33.5390 C   0  0  0  0  0  0  0  0  0  0  0  0
   -5.1140   15.6650  -33.5980 C   0  0  0  0  0  0  0  0  0  0  0  0
   -6.4340   16.4550  -33.5110 C   0  0  0  0  0  0  0  0  0  0  0  0
   -6.3660   20.7770  -32.2730 C   0  0  0  0  0  0  0  0  0  0  0  0
   -6.5460   22.0540  -31.7320 C   0  0  0  0  0  0  0  0  0  0  0  0
   -2.8251   21.2943  -32.1474 H   0  0  0  0  0  0  0  0  0  0  0  0
   -4.2963   21.5585  -33.1437 H   0  0  0  0  0  0  0  0  0  0  0  0
   -2.9801   22.7810  -33.1437 H   0  0  0  0  0  0  0  0  0  0  0  0
   -3.8670   26.4370  -30.2350 H   0  0  0  0  0  0  0  0  0  0  0  0
   -3.7320   24.9790  -31.2710 H   0  0  0  0  0  0  0  0  0  0  0  0
   -8.4561   24.4658  -30.5710 H   0  0  0  0  0  0  0  0  0  0  0  0
   -9.9466   22.2420  -31.5685 H   0  0  0  0  0  0  0  0  0  0  0  0
   -9.6943   19.9552  -32.5769 H   0  0  0  0  0  0  0  0  0  0  0  0
   -8.3050   18.2110  -33.4260 H   0  0  0  0  0  0  0  0  0  0  0  0
   -5.5423   18.0918  -32.4272 H   0  0  0  0  0  0  0  0  0  0  0  0
   -6.0585   18.9589  -35.2457 H   0  0  0  0  0  0  0  0  0  0  0  0
   -4.6281   19.2281  -34.1470 H   0  0  0  0  0  0  0  0  0  0  0  0
   -5.2071   16.9452  -36.0352 H   0  0  0  0  0  0  0  0  0  0  0  0
   -3.6787   17.8932  -35.7384 H   0  0  0  0  0  0  0  0  0  0  0  0
   -3.2086   16.7062  -32.4787 H   0  0  0  0  0  0  0  0  0  0  0  0
   -2.0374   16.2287  -33.7543 H   0  0  0  0  0  0  0  0  0  0  0  0
   -2.7411   17.8814  -33.7543 H   0  0  0  0  0  0  0  0  0  0  0  0
   -5.3227   14.6940  -34.0709 H   0  0  0  0  0  0  0  0  0  0  0  0
   -4.7359   15.5633  -32.5700 H   0  0  0  0  0  0  0  0  0  0  0  0
   -7.0084   16.3034  -34.4368 H   0  0  0  0  0  0  0  0  0  0  0  0
   -7.0085   16.0940  -32.6452 H   0  0  0  0  0  0  0  0  0  0  0  0
   -5.3559   20.3790  -32.4501 H   0  0  0  0  0  0  0  0  0  0  0  0
  1  2  1  0
  2  3  2  0
  2  4  1  0
  4  5  1  0
  5  6  1  0
  6  7  1  0
  6  8  2  0
  5  9  2  0
  9 10  1  0
 10 11  2  0
 11 12  1  0
 12 13  2  0
 13 14  1  0
 14 15  1  0
 15 16  1  0
 16 17  1  0
 17 18  1  0
 18 19  1  0
 18 20  1  0
 20 21  1  0
 13 22  1  0
 22 23  2  0
 23  4  1  0
 23 10  1  0
 21 15  1  0
  1 24  1  0
  1 25  1  0
  1 26  1  0
  7 27  1  0
  7 28  1  0
  9 29  1  0
 11 30  1  0
 12 31  1  0
 14 32  1  0
 15 33  1  0
 16 34  1  0
 16 35  1  0
 17 36  1  0
 17 37  1  0
 19 38  1  0
 19 39  1  0
 19 40  1  0
 20 41  1  0
 20 42  1  0
 21 43  1  0
 21 44  1  0
 22 45  1  0
M  END
>  <UniqueID>  (7) 
7

>  <SMILES>  (7) 
CC(=O)n1c(C(N)=O)cc2ccc(NC3CCN(C)CC3)cc21

>  <Energy>  (7) 
93.45002368628079

>  <Genealogy>  (7) 
CC(=O)n1c(C(N)=O)cc2ccc(NC3CCN(C)CC3)cc21 (3D coordinates assigned)
CC(=O)n1c(C(N)=O)cc2ccc(NC3CCN(C)CC3)cc21 (nonaromatic ring conformer: 93.45002368628079 kcal/mol)

>  <smiles>  (7) 
CC(=O)n1c(C(N)=O)cc2ccc(NC3CCN(C)CC3)cc21

>  <score_type>  (7) 
oracle

>  <origin>  (7) 
adg

>  <m_score__min__energy>  (7) 
-9.5700000000000003

>  <m_primary>  (7) 
energy

$$$$
7:0
     RDKit          3D

 59 60  0  0  0  0  0  0  0  0999 V2000
   -7.3060   23.4450  -32.3710 C   0  0  0  0  0  0  0  0  0  0  0  0
   -8.1110   22.7320  -31.2880 C   0  0  0  0  0  0  0  0  0  0  0  0
   -9.3850   22.1060  -31.8640 C   0  0  0  0  0  0  0  0  0  0  0  0
   -9.2490   20.5920  -32.0180 C   0  0  0  0  0  0  0  0  0  0  0  0
   -8.1000   20.2720  -32.7990 O   0  0  0  0  0  0  0  0  0  0  0  0
   -7.1030   19.4040  -32.3440 C   0  0  0  0  0  0  0  0  0  0  0  0
   -7.4050   18.4180  -31.6180 O   0  0  0  0  0  0  0  0  0  0  0  0
   -5.7330   19.6230  -32.7210 N   0  0  0  0  0  0  0  0  0  0  0  0
   -5.0270   19.0000  -33.7090 C   0  0  0  0  0  0  0  0  0  0  0  0
   -5.4940   17.8570  -34.5220 C   0  0  0  0  0  0  0  0  0  0  0  0
   -6.2810   16.8330  -33.9190 N   0  0  0  0  0  0  0  0  0  0  0  0
   -5.2370   17.7920  -35.7530 O   0  0  0  0  0  0  0  0  0  0  0  0
   -3.7460   19.5370  -33.8060 C   0  0  0  0  0  0  0  0  0  0  0  0
   -3.6810   20.5080  -32.8350 C   0  0  0  0  0  0  0  0  0  0  0  0
   -2.6370   21.3620  -32.4920 C   0  0  0  0  0  0  0  0  0  0  0  0
   -2.8540   22.2820  -31.4530 C   0  0  0  0  0  0  0  0  0  0  0  0
   -4.1020   22.3360  -30.7830 C   0  0  0  0  0  0  0  0  0  0  0  0
   -4.3120   23.3210  -29.6620 C   0  0  0  0  0  0  0  0  0  0  0  0
   -3.7730   24.6770  -30.0310 C   0  0  0  0  0  0  0  0  0  0  0  0
   -4.2730   25.2890  -31.0130 O   0  0  0  0  0  0  0  0  0  0  0  0
   -2.6750   25.2750  -29.3330 N   0  0  0  0  0  0  0  0  0  0  0  0
   -1.4540   24.5690  -28.9620 C   0  0  0  0  0  0  0  0  0  0  0  0
   -1.6350   23.8530  -27.6240 C   0  0  0  0  0  0  0  0  0  0  0  0
   -1.3890   22.3390  -27.7450 C   0  0  0  0  0  0  0  0  0  0  0  0
   -2.6830   21.5250  -27.5340 C   0  0  0  0  0  0  0  0  0  0  0  0
   -2.4660   20.0010  -27.5980 C   0  0  0  0  0  0  0  0  0  0  0  0
   -2.7930   19.2740  -26.2870 C   0  0  0  0  0  0  0  0  0  0  0  0
   -4.0420   18.6410  -26.3590 O   0  0  0  0  0  0  0  0  0  0  0  0
   -5.1450   21.4680  -31.1750 C   0  0  0  0  0  0  0  0  0  0  0  0
   -4.8930   20.5420  -32.1940 C   0  0  0  0  0  0  0  0  0  0  0  0
   -6.5617   24.1042  -31.9005 H   0  0  0  0  0  0  0  0  0  0  0  0
   -6.7926   22.7000  -32.9966 H   0  0  0  0  0  0  0  0  0  0  0  0
   -7.9836   24.0447  -32.9966 H   0  0  0  0  0  0  0  0  0  0  0  0
   -7.4911   21.9392  -30.8440 H   0  0  0  0  0  0  0  0  0  0  0  0
   -8.4005   23.4713  -30.5267 H   0  0  0  0  0  0  0  0  0  0  0  0
  -10.2256   22.3218  -31.1881 H   0  0  0  0  0  0  0  0  0  0  0  0
   -9.5602   22.5383  -32.8602 H   0  0  0  0  0  0  0  0  0  0  0  0
   -9.1495   20.1342  -31.0228 H   0  0  0  0  0  0  0  0  0  0  0  0
  -10.1443   20.2036  -32.5256 H   0  0  0  0  0  0  0  0  0  0  0  0
   -7.0610   17.0700  -33.2670 H   0  0  0  0  0  0  0  0  0  0  0  0
   -2.9533   19.2458  -34.5108 H   0  0  0  0  0  0  0  0  0  0  0  0
   -1.6720   21.3179  -33.0181 H   0  0  0  0  0  0  0  0  0  0  0  0
   -2.0469   22.9679  -31.1561 H   0  0  0  0  0  0  0  0  0  0  0  0
   -5.3888   23.4058  -29.4540 H   0  0  0  0  0  0  0  0  0  0  0  0
   -3.7762   22.9600  -28.7717 H   0  0  0  0  0  0  0  0  0  0  0  0
   -1.2137   23.8285  -29.7392 H   0  0  0  0  0  0  0  0  0  0  0  0
   -0.6362   25.2985  -28.8672 H   0  0  0  0  0  0  0  0  0  0  0  0
   -0.9232   24.2719  -26.8975 H   0  0  0  0  0  0  0  0  0  0  0  0
   -2.6735   24.0041  -27.2945 H   0  0  0  0  0  0  0  0  0  0  0  0
   -0.9927   22.1225  -28.7480 H   0  0  0  0  0  0  0  0  0  0  0  0
   -0.6725   22.0474  -26.9630 H   0  0  0  0  0  0  0  0  0  0  0  0
   -3.0960   21.7770  -26.5461 H   0  0  0  0  0  0  0  0  0  0  0  0
   -3.3693   21.7894  -28.3520 H   0  0  0  0  0  0  0  0  0  0  0  0
   -3.1091   19.5920  -28.3912 H   0  0  0  0  0  0  0  0  0  0  0  0
   -1.3966   19.8375  -27.7972 H   0  0  0  0  0  0  0  0  0  0  0  0
   -2.0179   18.5182  -26.0923 H   0  0  0  0  0  0  0  0  0  0  0  0
   -2.8231   20.0150  -25.4746 H   0  0  0  0  0  0  0  0  0  0  0  0
   -4.6520   19.1470  -25.7630 H   0  0  0  0  0  0  0  0  0  0  0  0
   -6.1316   21.5185  -30.6912 H   0  0  0  0  0  0  0  0  0  0  0  0
  1  2  1  0
  2  3  1  0
  3  4  1  0
  4  5  1  0
  5  6  1  0
  6  7  2  0
  6  8  1  0
  8  9  1  0
  9 10  1  0
 10 11  1  0
 10 12  2  0
  9 13  2  0
 13 14  1  0
 14 15  2  0
 15 16  1  0
 16 17  2  0
 17 18  1  0
 18 19  1  0
 19 20  2  0
 19 21  1  0
 21 22  1  0
 22 23  1  0
 23 24  1  0
 24 25  1  0
 25 26  1  0
 26 27  1  0
 27 28  1  0
 17 29  1  0
 29 30  2  0
 30  8  1  0
 30 14  1  0
  1 31  1  0
  1 32  1  0
  1 33  1  0
  2 34  1  0
  2 35  1  0
  3 36  1  0
  3 37  1  0
  4 38  1  0
  4 39  1  0
 11 40  1  0
 13 41  1  0
 15 42  1  0
 16 43  1  0
 18 44  1  0
 18 45  1  0
 22 46  1  0
 22 47  1  0
 23 48  1  0
 23 49  1  0
 24 50  1  0
 24 51  1  0
 25 52  1  0
 25 53  1  0
 26 54  1  0
 26 55  1  0
 27 56  1  0
 27 57  1  0
 28 58  1  0
 29 59  1  0
M  CHG  2  11  -1  21  -1
M  END
>  <UniqueID>  (8) 
8

>  <SMILES>  (8) 
CCCCOC(=O)n1c(C([NH-])=O)cc2ccc(CC(=O)[N-]CCCCCCO)cc21

>  <Energy>  (8) 
74.05862715121906

>  <Genealogy>  (8) 
CCCCOC(=O)n1c(C([NH-])=O)cc2ccc(CC(=O)[N-]CCCCCCO)cc21 (protonated)
CCCCOC(=O)n1c(C([NH-])=O)cc2ccc(CC(=O)[N-]CCCCCCO)cc21 (3D coordinates assigned)
CCCCOC(=O)n1c(C([NH-])=O)cc2ccc(CC(=O)[N-]CCCCCCO)cc21 (optimized conformer: 74.05862715121906 kcal/mol)

>  <smiles>  (8) 
CCCCOC(=O)n1c(C(N)=O)cc2ccc(CC(=O)NCCCCCCO)cc21

>  <score_type>  (8) 
oracle

>  <origin>  (8) 
adg

>  <m_score__min__energy>  (8) 
-9.9299999999999997

>  <m_primary>  (8) 
energy

$$$$
8:0
     RDKit          3D

 39 40  0  0  0  0  0  0  0  0999 V2000
   -3.4430   20.2540  -31.9960 C   0  0  0  0  0  0  0  0  0  0  0  0
   -4.0510   19.5600  -33.1740 C   0  0  0  0  0  0  0  0  0  0  0  0
   -3.3700   19.4260  -34.2250 O   0  0  0  0  0  0  0  0  0  0  0  0
   -5.4000   19.0650  -33.1280 N   0  0  0  0  0  0  0  0  0  0  0  0
   -5.8250   17.8130  -33.4500 C   0  0  0  0  0  0  0  0  0  0  0  0
   -4.9960   16.7460  -34.0500 C   0  0  0  0  0  0  0  0  0  0  0  0
   -4.0910   17.0220  -35.1210 N   0  0  0  0  0  0  0  0  0  0  0  0
   -5.1240   15.5610  -33.6430 O   0  0  0  0  0  0  0  0  0  0  0  0
   -7.1780   17.6600  -33.1570 C   0  0  0  0  0  0  0  0  0  0  0  0
   -7.5760   18.8730  -32.6430 C   0  0  0  0  0  0  0  0  0  0  0  0
   -8.8190   19.2770  -32.1660 C   0  0  0  0  0  0  0  0  0  0  0  0
   -8.9350   20.5770  -31.6480 C   0  0  0  0  0  0  0  0  0  0  0  0
   -7.8110   21.4380  -31.6010 C   0  0  0  0  0  0  0  0  0  0  0  0
   -7.9470   22.8360  -31.0540 C   0  0  0  0  0  0  0  0  0  0  0  0
   -6.9950   23.0920  -29.8710 C   0  0  0  0  0  0  0  0  0  0  0  0
   -5.9830   24.2280  -30.1080 C   0  0  0  0  0  0  0  0  0  0  0  0
   -4.6300   23.9660  -29.4350 C   0  0  0  0  0  0  0  0  0  0  0  0
   -3.6010   24.9250  -29.9450 C   0  0  0  0  0  0  0  0  0  0  0  0
   -3.8620   25.6710  -30.9260 O   0  0  0  0  0  0  0  0  0  0  0  0
   -2.3720   25.0300  -29.3070 O   0  0  0  0  0  0  0  0  0  0  0  0
   -6.5640   20.9930  -32.0920 C   0  0  0  0  0  0  0  0  0  0  0  0
   -6.4840   19.7030  -32.6290 C   0  0  0  0  0  0  0  0  0  0  0  0
   -3.8320   19.8099  -31.0679 H   0  0  0  0  0  0  0  0  0  0  0  0
   -2.3494   20.1393  -32.0271 H   0  0  0  0  0  0  0  0  0  0  0  0
   -3.7006   21.3230  -32.0271 H   0  0  0  0  0  0  0  0  0  0  0  0
   -3.4780   16.2650  -35.4940 H   0  0  0  0  0  0  0  0  0  0  0  0
   -4.0970   17.9430  -35.6110 H   0  0  0  0  0  0  0  0  0  0  0  0
   -7.7960   16.7621  -33.3048 H   0  0  0  0  0  0  0  0  0  0  0  0
   -9.6845   18.5987  -32.1938 H   0  0  0  0  0  0  0  0  0  0  0  0
   -9.9078   20.9301  -31.2752 H   0  0  0  0  0  0  0  0  0  0  0  0
   -7.7177   23.5539  -31.8552 H   0  0  0  0  0  0  0  0  0  0  0  0
   -8.9781   22.9581  -30.6907 H   0  0  0  0  0  0  0  0  0  0  0  0
   -7.6014   23.3488  -28.9899 H   0  0  0  0  0  0  0  0  0  0  0  0
   -6.4092   22.1713  -29.7325 H   0  0  0  0  0  0  0  0  0  0  0  0
   -5.8223   24.3358  -31.1908 H   0  0  0  0  0  0  0  0  0  0  0  0
   -6.4021   25.1437  -29.6655 H   0  0  0  0  0  0  0  0  0  0  0  0
   -4.7355   24.0918  -28.3473 H   0  0  0  0  0  0  0  0  0  0  0  0
   -4.3083   22.9399  -29.6667 H   0  0  0  0  0  0  0  0  0  0  0  0
   -5.6780   21.6437  -32.0534 H   0  0  0  0  0  0  0  0  0  0  0  0
  1  2  1  0
  2  3  2  0
  2  4  1  0
  4  5  1  0
  5  6  1  0
  6  7  1  0
  6  8  2  0
  5  9  2  0
  9 10  1  0
 10 11  2  0
 11 12  1  0
 12 13  2  0
 13 14  1  0
 14 15  1  0
 15 16  1  0
 16 17  1  0
 17 18  1  0
 18 19  2  0
 18 20  1  0
 13 21  1  0
 21 22  2  0
 22  4  1  0
 22 10  1  0
  1 23  1  0
  1 24  1  0
  1 25  1  0
  7 26  1  0
  7 27  1  0
  9 28  1  0
 11 29  1  0
 12 30  1  0
 14 31  1  0
 14 32  1  0
 15 33  1  0
 15 34  1  0
 16 35  1  0
 16 36  1  0
 17 37  1  0
 17 38  1  0
 21 39  1  0
M  CHG  1  20  -1
M  END
>  <UniqueID>  (9) 
9

>  <SMILES>  (9) 
CC(=O)n1c(C(N)=O)cc2ccc(CCCCC(=O)[O-])cc21

>  <Energy>  (9) 
71.21304467680609

>  <Genealogy>  (9) 
CC(=O)n1c(C(N)=O)cc2ccc(CCCCC(=O)[O-])cc21 (protonated)
CC(=O)n1c(C(N)=O)cc2ccc(CCCCC(=O)[O-])cc21 (3D coordinates assigned)
CC(=O)n1c(C(N)=O)cc2ccc(CCCCC(=O)[O-])cc21 (optimized conformer: 71.21304467680609 kcal/mol)

>  <smiles>  (9) 
CC(=O)n1c(C(N)=O)cc2ccc(CCCCC(=O)O)cc21

>  <score_type>  (9) 
oracle

>  <origin>  (9) 
adg

>  <m_score__min__energy>  (9) 
-10.890000000000001

>  <m_primary>  (9) 
energy

$$$$
9:0
     RDKit          3D

 41 43  0  0  0  0  0  0  0  0999 V2000
   -4.9940   24.4330  -28.8250 C   0  0  0  0  0  0  0  0  0  0  0  0
   -4.0300   24.5040  -29.9650 C   0  0  0  0  0  0  0  0  0  0  0  0
   -3.9910   25.5410  -30.6800 O   0  0  0  0  0  0  0  0  0  0  0  0
   -3.0810   23.4490  -30.1880 N   0  0  0  0  0  0  0  0  0  0  0  0
   -1.7490   23.4400  -29.8980 C   0  0  0  0  0  0  0  0  0  0  0  0
   -1.0170   24.4970  -29.1680 C   0  0  0  0  0  0  0  0  0  0  0  0
   -1.6270   25.7700  -28.9590 N   0  0  0  0  0  0  0  0  0  0  0  0
    0.1540   24.2960  -28.7470 O   0  0  0  0  0  0  0  0  0  0  0  0
   -1.1680   22.2460  -30.3230 C   0  0  0  0  0  0  0  0  0  0  0  0
   -2.1980   21.5140  -30.8740 C   0  0  0  0  0  0  0  0  0  0  0  0
   -2.1930   20.2480  -31.4510 C   0  0  0  0  0  0  0  0  0  0  0  0
   -3.4100   19.7420  -31.9410 C   0  0  0  0  0  0  0  0  0  0  0  0
   -4.5980   20.5110  -31.8570 C   0  0  0  0  0  0  0  0  0  0  0  0
   -5.8750   19.9640  -32.3540 C   0  0  0  0  0  0  0  0  0  0  0  0
   -6.0870   18.7250  -32.9400 C   0  0  0  0  0  0  0  0  0  0  0  0
   -5.0580   17.6750  -33.2200 C   0  0  0  0  0  0  0  0  0  0  0  0
   -7.4020   18.5540  -33.1790 N   0  0  0  0  0  0  0  0  0  0  0  0
   -8.0290   19.6510  -32.7800 N   0  0  0  0  0  0  0  0  0  0  0  0
   -9.4780   19.8090  -32.8370 C   0  0  0  0  0  0  0  0  0  0  0  0
   -7.1370   20.5360  -32.2780 C   0  0  0  0  0  0  0  0  0  0  0  0
   -7.5010   21.8090  -31.5600 C   0  0  0  0  0  0  0  0  0  0  0  0
   -7.3880   22.9010  -32.4290 O   0  0  0  0  0  0  0  0  0  0  0  0
   -4.5630   21.7940  -31.2670 C   0  0  0  0  0  0  0  0  0  0  0  0
   -3.3410   22.2640  -30.7760 C   0  0  0  0  0  0  0  0  0  0  0  0
   -4.4416   24.4737  -27.8746 H   0  0  0  0  0  0  0  0  0  0  0  0
   -5.6909   25.2823  -28.8807 H   0  0  0  0  0  0  0  0  0  0  0  0
   -5.5590   23.4908  -28.8807 H   0  0  0  0  0  0  0  0  0  0  0  0
   -2.6660   25.8730  -28.9620 H   0  0  0  0  0  0  0  0  0  0  0  0
   -0.1119   21.9507  -30.2369 H   0  0  0  0  0  0  0  0  0  0  0  0
   -1.2655   19.6609  -31.5217 H   0  0  0  0  0  0  0  0  0  0  0  0
   -3.4405   18.7400  -32.3938 H   0  0  0  0  0  0  0  0  0  0  0  0
   -4.6701   17.2792  -32.2698 H   0  0  0  0  0  0  0  0  0  0  0  0
   -5.5153   16.8584  -33.7980 H   0  0  0  0  0  0  0  0  0  0  0  0
   -4.2323   18.1157  -33.7980 H   0  0  0  0  0  0  0  0  0  0  0  0
   -9.8825   19.8531  -31.8150 H   0  0  0  0  0  0  0  0  0  0  0  0
   -9.7247   20.7394  -33.3695 H   0  0  0  0  0  0  0  0  0  0  0  0
   -9.9194   18.9537  -33.3695 H   0  0  0  0  0  0  0  0  0  0  0  0
   -8.5370   21.7385  -31.1972 H   0  0  0  0  0  0  0  0  0  0  0  0
   -6.8160   21.9520  -30.7113 H   0  0  0  0  0  0  0  0  0  0  0  0
   -6.7320   22.6410  -33.1270 H   0  0  0  0  0  0  0  0  0  0  0  0
   -5.4733   22.4074  -31.1957 H   0  0  0  0  0  0  0  0  0  0  0  0
  1  2  1  0
  2  3  2  0
  2  4  1  0
  4  5  1  0
  5  6  1  0
  6  7  1  0
  6  8  2  0
  5  9  2  0
  9 10  1  0
 10 11  2  0
 11 12  1  0
 12 13  2  0
 13 14  1  0
 14 15  1  0
 15 16  1  0
 15 17  2  0
 17 18  1  0
 18 19  1  0
 18 20  1  0
 20 21  1  0
 21 22  1  0
 13 23  1  0
 23 24  2  0
 24  4  1  0
 24 10  1  0
 20 14  2  0
  1 25  1  0
  1 26  1  0
  1 27  1  0
  7 28  1  0
  9 29  1  0
 11 30  1  0
 12 31  1  0
 16 32  1  0
 16 33  1  0
 16 34  1  0
 19 35  1  0
 19 36  1  0
 19 37  1  0
 21 38  1  0
 21 39  1  0
 22 40  1  0
 23 41  1  0
M  CHG  1   7  -1
M  END
>  <UniqueID>  (10) 
10

>  <SMILES>  (10) 
CC(=O)n1c(C([NH-])=O)cc2ccc(-c3c(C)nn(C)c3CO)cc21

>  <Energy>  (10) 
115.05994928913333

>  <Genealogy>  (10) 
CC(=O)n1c(C([NH-])=O)cc2ccc(-c3c(C)nn(C)c3CO)cc21 (protonated)
CC(=O)n1c(C([NH-])=O)cc2ccc(-c3c(C)nn(C)c3CO)cc21 (3D coordinates assigned)
CC(=O)n1c(C([NH-])=O)cc2ccc(-c3c(C)nn(C)c3CO)cc21 (optimized conformer: 115.05994928913333 kcal/mol)

>  <smiles>  (10) 
CC(=O)n1c(C(N)=O)cc2ccc(-c3c(C)nn(C)c3CO)cc21

>  <score_type>  (10) 
oracle

>  <origin>  (10) 
adg

>  <m_score__min__energy>  (10) 
-10.699999999999999

>  <m_primary>  (10) 
energy

$$$$
10:0
     RDKit          3D

 42 44  0  0  0  0  0  0  0  0999 V2000
   -6.8560   16.1910  -34.0180 C   0  0  0  0  0  0  0  0  0  0  0  0
   -5.3700   16.3360  -34.4100 C   0  0  1  0  0  0  0  0  0  0  0  0
   -5.0800   17.7390  -34.9640 C   0  0  0  0  0  0  0  0  0  0  0  0
   -3.7900   18.1730  -34.2880 C   0  0  1  0  0  0  0  0  0  0  0  0
   -3.7310   19.6130  -33.9870 N   0  0  0  0  0  0  0  0  0  0  0  0
   -4.7040   20.4250  -33.2880 C   0  0  0  0  0  0  0  0  0  0  0  0
   -6.1060   20.1960  -33.3740 C   0  0  0  0  0  0  0  0  0  0  0  0
   -7.0150   21.0180  -32.6890 C   0  0  0  0  0  0  0  0  0  0  0  0
   -6.5070   22.0550  -31.9180 C   0  0  0  0  0  0  0  0  0  0  0  0
   -7.1630   23.0090  -31.1750 C   0  0  0  0  0  0  0  0  0  0  0  0
   -6.1600   23.8000  -30.6200 C   0  0  0  0  0  0  0  0  0  0  0  0
   -6.4130   24.9040  -29.6680 C   0  0  0  0  0  0  0  0  0  0  0  0
   -5.4180   25.2920  -28.7190 N   0  0  0  0  0  0  0  0  0  0  0  0
   -7.5020   25.5370  -29.7060 O   0  0  0  0  0  0  0  0  0  0  0  0
   -4.9310   23.3540  -31.0070 N   0  0  0  0  0  0  0  0  0  0  0  0
   -3.6500   23.9310  -30.6980 C   0  0  0  0  0  0  0  0  0  0  0  0
   -2.6260   23.2020  -30.6190 O   0  0  0  0  0  0  0  0  0  0  0  0
   -3.5310   25.2950  -30.4700 O   0  0  0  0  0  0  0  0  0  0  0  0
   -5.1620   22.2840  -31.8000 C   0  0  0  0  0  0  0  0  0  0  0  0
   -4.2340   21.4930  -32.4890 C   0  0  0  0  0  0  0  0  0  0  0  0
   -3.6330   17.2870  -33.0610 C   0  0  0  0  0  0  0  0  0  0  0  0
   -4.3820   16.0560  -33.3360 N   0  0  0  0  0  0  0  0  0  0  0  0
   -4.8850   15.4280  -32.1020 C   0  0  0  0  0  0  0  0  0  0  0  0
   -6.9469   16.1821  -32.9218 H   0  0  0  0  0  0  0  0  0  0  0  0
   -7.4273   17.0377  -34.4264 H   0  0  0  0  0  0  0  0  0  0  0  0
   -7.2528   15.2499  -34.4264 H   0  0  0  0  0  0  0  0  0  0  0  0
   -5.2351   15.5548  -35.1726 H   0  0  0  0  0  0  0  0  0  0  0  0
   -4.9509   17.7039  -36.0558 H   0  0  0  0  0  0  0  0  0  0  0  0
   -5.9050   18.4390  -34.7655 H   0  0  0  0  0  0  0  0  0  0  0  0
   -2.9382   18.0400  -34.9712 H   0  0  0  0  0  0  0  0  0  0  0  0
   -2.8720   20.1000  -34.3330 H   0  0  0  0  0  0  0  0  0  0  0  0
   -6.4828   19.3631  -33.9859 H   0  0  0  0  0  0  0  0  0  0  0  0
   -8.0990   20.8454  -32.7611 H   0  0  0  0  0  0  0  0  0  0  0  0
   -8.2495   23.1229  -31.0465 H   0  0  0  0  0  0  0  0  0  0  0  0
   -4.5260   24.7590  -28.6180 H   0  0  0  0  0  0  0  0  0  0  0  0
   -5.5910   26.0980  -28.0770 H   0  0  0  0  0  0  0  0  0  0  0  0
   -3.1564   21.6993  -32.4099 H   0  0  0  0  0  0  0  0  0  0  0  0
   -2.5708   17.0557  -32.8929 H   0  0  0  0  0  0  0  0  0  0  0  0
   -4.0108   17.7886  -32.1579 H   0  0  0  0  0  0  0  0  0  0  0  0
   -4.4671   15.9497  -31.2284 H   0  0  0  0  0  0  0  0  0  0  0  0
   -5.9827   15.4941  -32.0781 H   0  0  0  0  0  0  0  0  0  0  0  0
   -4.5807   14.3712  -32.0781 H   0  0  0  0  0  0  0  0  0  0  0  0
  1  2  1  0
  2  3  1  0
  3  4  1  0
  4  5  1  0
  5  6  1  0
  6  7  2  0
  7  8  1  0
  8  9  2  0
  9 10  1  0
 10 11  2  0
 11 12  1  0
 12 13  1  0
 12 14  2  0
 11 15  1  0
 15 16  1  0
 16 17  2  0
 16 18  1  0
 15 19  1  0
 19 20  2  0
  4 21  1  0
 21 22  1  0
 22 23  1  0
 22  2  1  0
 20  6  1  0
 19  9  1  0
  1 24  1  0
  1 25  1  0
  1 26  1  0
  2 27  1  6
  3 28  1  0
  3 29  1  0
  4 30  1  6
  5 31  1  0
  7 32  1  0
  8 33  1  0
 10 34  1  0
 13 35  1  0
 13 36  1  0
 20 37  1  0
 21 38  1  0
 21 39  1  0
 23 40  1  0
 23 41  1  0
 23 42  1  0
M  CHG  1  18  -1
M  END
>  <UniqueID>  (11) 
11

>  <SMILES>  (11) 
C[C@H]1C[C@@H](Nc2ccc3cc(C(N)=O)n(C(=O)[O-])c3c2)CN1C

>  <Energy>  (11) 
94.42590093192251

>  <Genealogy>  (11) 
C[C@H]1C[C@@H](Nc2ccc3cc(C(N)=O)n(C(=O)[O-])c3c2)CN1C (protonated)
C[C@H]1C[C@@H](Nc2ccc3cc(C(N)=O)n(C(=O)[O-])c3c2)CN1C (3D coordinates assigned)
C[C@H]1C[C@@H](Nc2ccc3cc(C(N)=O)n(C(=O)[O-])c3c2)CN1C (nonaromatic ring conformer: 94.42590093192251 kcal/mol)

>  <smiles>  (11) 
C[C@H]1C[C@@H](Nc2ccc3cc(C(N)=O)n(C(=O)O)c3c2)CN1C

>  <score_type>  (11) 
oracle

>  <origin>  (11) 
adg

>  <m_score__min__energy>  (11) 
-9.5899999999999999

>  <m_primary>  (11) 
energy

$$$$
11:0
     RDKit          3D

 27 28  0  0  0  0  0  0  0  0999 V2000
   -3.9100   25.6290  -30.8460 N   0  0  0  0  0  0  0  0  0  0  0  0
   -5.2210   25.2690  -30.4190 C   0  0  0  0  0  0  0  0  0  0  0  0
   -5.8790   26.0700  -29.7040 O   0  0  0  0  0  0  0  0  0  0  0  0
   -5.8380   23.9980  -30.8510 C   0  0  0  0  0  0  0  0  0  0  0  0
   -7.2120   23.7690  -30.8360 C   0  0  0  0  0  0  0  0  0  0  0  0
   -7.3820   22.5240  -31.3970 C   0  0  0  0  0  0  0  0  0  0  0  0
   -8.5450   21.7920  -31.6150 C   0  0  0  0  0  0  0  0  0  0  0  0
   -8.4210   20.5140  -32.1840 C   0  0  0  0  0  0  0  0  0  0  0  0
   -7.1460   19.9940  -32.5230 C   0  0  0  0  0  0  0  0  0  0  0  0
   -7.0240   18.6070  -33.0880 C   0  0  0  0  0  0  0  0  0  0  0  0
   -5.7390   18.4720  -33.8410 C   0  0  0  0  0  0  0  0  0  0  0  0
   -4.6630   18.2490  -33.2240 O   0  0  0  0  0  0  0  0  0  0  0  0
   -5.7350   18.5400  -35.2280 O   0  0  0  0  0  0  0  0  0  0  0  0
   -5.9860   20.7620  -32.2750 C   0  0  0  0  0  0  0  0  0  0  0  0
   -6.1420   22.0390  -31.7240 C   0  0  0  0  0  0  0  0  0  0  0  0
   -5.1810   22.9300  -31.3900 N   0  0  0  0  0  0  0  0  0  0  0  0
   -3.7630   22.7310  -31.4970 C   0  0  0  0  0  0  0  0  0  0  0  0
   -2.8990   23.1360  -30.4380 N   0  0  0  0  0  0  0  0  0  0  0  0
   -3.2780   22.1670  -32.5150 O   0  0  0  0  0  0  0  0  0  0  0  0
   -3.0660   25.2930  -30.3310 H   0  0  0  0  0  0  0  0  0  0  0  0
   -7.9954   24.4412  -30.4561 H   0  0  0  0  0  0  0  0  0  0  0  0
   -9.5309   22.2015  -31.3499 H   0  0  0  0  0  0  0  0  0  0  0  0
   -9.3219   19.9104  -32.3685 H   0  0  0  0  0  0  0  0  0  0  0  0
   -7.0430   17.8760  -32.2662 H   0  0  0  0  0  0  0  0  0  0  0  0
   -7.8646   18.4211  -33.7726 H   0  0  0  0  0  0  0  0  0  0  0  0
   -4.9866   20.3665  -32.5089 H   0  0  0  0  0  0  0  0  0  0  0  0
   -2.4640   24.0850  -30.4360 H   0  0  0  0  0  0  0  0  0  0  0  0
  1  2  1  0
  2  3  2  0
  2  4  1  0
  4  5  2  0
  5  6  1  0
  6  7  2  0
  7  8  1  0
  8  9  2  0
  9 10  1  0
 10 11  1  0
 11 12  2  0
 11 13  1  0
  9 14  1  0
 14 15  2  0
 15 16  1  0
 16 17  1  0
 17 18  1  0
 17 19  2  0
 16  4  1  0
 15  6  1  0
  1 20  1  0
  5 21  1  0
  7 22  1  0
  8 23  1  0
 10 24  1  0
 10 25  1  0
 14 26  1  0
 18 27  1  0
M  CHG  3   1  -1  13  -1  18  -1
M  END
>  <UniqueID>  (12) 
12

>  <SMILES>  (12) 
[NH-]C(=O)c1cc2ccc(CC(=O)[O-])cc2n1C([NH-])=O

>  <Energy>  (12) 
65.33305912474336

>  <Genealogy>  (12) 
[NH-]C(=O)c1cc2ccc(CC(=O)[O-])cc2n1C([NH-])=O (protonated)
[NH-]C(=O)c1cc2ccc(CC(=O)[O-])cc2n1C([NH-])=O (3D coordinates assigned)
[NH-]C(=O)c1cc2ccc(CC(=O)[O-])cc2n1C([NH-])=O (optimized conformer: 65.33305912474336 kcal/mol)

>  <smiles>  (12) 
NC(=O)c1cc2ccc(CC(=O)O)cc2n1C(N)=O

>  <score_type>  (12) 
oracle

>  <origin>  (12) 
adg

>  <m_score__min__energy>  (12) 
-9.5600000000000005

>  <m_primary>  (12) 
energy

$$$$
12:0
     RDKit          3D

 29 30  0  0  0  0  0  0  0  0999 V2000
   -3.1390   21.9190  -32.6110 C   0  0  0  0  0  0  0  0  0  0  0  0
   -3.7360   22.7020  -31.4850 C   0  0  0  0  0  0  0  0  0  0  0  0
   -2.9850   23.1420  -30.5740 O   0  0  0  0  0  0  0  0  0  0  0  0
   -5.1570   22.8850  -31.3880 N   0  0  0  0  0  0  0  0  0  0  0  0
   -5.8380   24.0070  -31.0210 C   0  0  0  0  0  0  0  0  0  0  0  0
   -5.2410   25.2490  -30.4890 C   0  0  0  0  0  0  0  0  0  0  0  0
   -3.9210   25.6420  -30.8530 N   0  0  0  0  0  0  0  0  0  0  0  0
   -5.8900   25.9550  -29.6700 O   0  0  0  0  0  0  0  0  0  0  0  0
   -7.2130   23.8020  -31.1400 C   0  0  0  0  0  0  0  0  0  0  0  0
   -7.3510   22.5070  -31.5830 C   0  0  0  0  0  0  0  0  0  0  0  0
   -8.4990   21.7790  -31.8830 C   0  0  0  0  0  0  0  0  0  0  0  0
   -8.3410   20.4620  -32.3470 C   0  0  0  0  0  0  0  0  0  0  0  0
   -7.0480   19.8990  -32.4970 C   0  0  0  0  0  0  0  0  0  0  0  0
   -6.8900   18.5030  -33.0330 C   0  0  0  0  0  0  0  0  0  0  0  0
   -5.7730   18.4590  -34.0260 C   0  0  0  0  0  0  0  0  0  0  0  0
   -6.0160   18.5530  -35.2580 O   0  0  0  0  0  0  0  0  0  0  0  0
   -4.4670   18.2650  -33.5950 O   0  0  0  0  0  0  0  0  0  0  0  0
   -5.9050   20.6720  -32.1920 C   0  0  0  0  0  0  0  0  0  0  0  0
   -6.0950   21.9750  -31.7220 C   0  0  0  0  0  0  0  0  0  0  0  0
   -2.5193   21.1062  -32.2043 H   0  0  0  0  0  0  0  0  0  0  0  0
   -3.9436   21.4929  -33.2284 H   0  0  0  0  0  0  0  0  0  0  0  0
   -2.5151   22.5820  -33.2284 H   0  0  0  0  0  0  0  0  0  0  0  0
   -3.0900   25.2910  -30.3250 H   0  0  0  0  0  0  0  0  0  0  0  0
   -8.0159   24.5226  -30.9253 H   0  0  0  0  0  0  0  0  0  0  0  0
   -9.4988   22.2210  -31.7606 H   0  0  0  0  0  0  0  0  0  0  0  0
   -9.2287   19.8620  -32.5962 H   0  0  0  0  0  0  0  0  0  0  0  0
   -6.6662   17.8173  -32.2025 H   0  0  0  0  0  0  0  0  0  0  0  0
   -7.8243   18.1985  -33.5273 H   0  0  0  0  0  0  0  0  0  0  0  0
   -4.8933   20.2598  -32.3209 H   0  0  0  0  0  0  0  0  0  0  0  0
  1  2  1  0
  2  3  2  0
  2  4  1  0
  4  5  1  0
  5  6  1  0
  6  7  1  0
  6  8  2  0
  5  9  2  0
  9 10  1  0
 10 11  2  0
 11 12  1  0
 12 13  2  0
 13 14  1  0
 14 15  1  0
 15 16  2  0
 15 17  1  0
 13 18  1  0
 18 19  2  0
 19  4  1  0
 19 10  1  0
  1 20  1  0
  1 21  1  0
  1 22  1  0
  7 23  1  0
  9 24  1  0
 11 25  1  0
 12 26  1  0
 14 27  1  0
 14 28  1  0
 18 29  1  0
M  CHG  2   7  -1  17  -1
M  END
>  <UniqueID>  (13) 
13

>  <SMILES>  (13) 
CC(=O)n1c(C([NH-])=O)cc2ccc(CC(=O)[O-])cc21

>  <Energy>  (13) 
66.7957610016099

>  <Genealogy>  (13) 
CC(=O)n1c(C([NH-])=O)cc2ccc(CC(=O)[O-])cc21 (protonated)
CC(=O)n1c(C([NH-])=O)cc2ccc(CC(=O)[O-])cc21 (3D coordinates assigned)
CC(=O)n1c(C([NH-])=O)cc2ccc(CC(=O)[O-])cc21 (optimized conformer: 66.7957610016099 kcal/mol)

>  <smiles>  (13) 
CC(=O)n1c(C(N)=O)cc2ccc(CC(=O)O)cc21

>  <score_type>  (13) 
oracle

>  <origin>  (13) 
adg

>  <m_score__min__energy>  (13) 
-9.8399999999999999

>  <m_primary>  (13) 
energy

$$$$
13:0
     RDKit          3D

 32 34  0  0  0  0  0  0  0  0999 V2000
   -4.2000   25.5880  -30.7910 N   0  0  0  0  0  0  0  0  0  0  0  0
   -5.5180   25.1550  -30.4500 C   0  0  0  0  0  0  0  0  0  0  0  0
   -6.2260   25.8760  -29.6960 O   0  0  0  0  0  0  0  0  0  0  0  0
   -6.0520   23.8620  -30.9230 C   0  0  0  0  0  0  0  0  0  0  0  0
   -7.3940   23.6500  -31.2330 C   0  0  0  0  0  0  0  0  0  0  0  0
   -7.4830   22.3200  -31.5810 C   0  0  0  0  0  0  0  0  0  0  0  0
   -8.5830   21.5660  -31.9730 C   0  0  0  0  0  0  0  0  0  0  0  0
   -8.3760   20.2120  -32.2890 C   0  0  0  0  0  0  0  0  0  0  0  0
   -7.0770   19.6440  -32.2310 C   0  0  0  0  0  0  0  0  0  0  0  0
   -6.8750   18.1800  -32.5330 C   0  0  0  0  0  0  0  0  0  0  0  0
   -8.0690   17.5090  -32.3450 F   0  0  0  0  0  0  0  0  0  0  0  0
   -5.9160   17.6360  -31.6960 F   0  0  0  0  0  0  0  0  0  0  0  0
   -6.4580   18.0040  -33.8400 F   0  0  0  0  0  0  0  0  0  0  0  0
   -5.9870   20.4390  -31.8050 C   0  0  0  0  0  0  0  0  0  0  0  0
   -6.2270   21.7790  -31.4850 C   0  0  0  0  0  0  0  0  0  0  0  0
   -5.3380   22.7130  -31.0900 N   0  0  0  0  0  0  0  0  0  0  0  0
   -3.9190   22.5260  -30.9670 C   0  0  0  0  0  0  0  0  0  0  0  0
   -3.2880   23.1450  -30.0690 O   0  0  0  0  0  0  0  0  0  0  0  0
   -3.1980   21.6010  -31.8580 C   0  0  0  0  0  0  0  0  0  0  0  0
   -3.3160   21.5480  -33.2430 C   0  0  0  0  0  0  0  0  0  0  0  0
   -2.4870   20.5860  -33.8320 C   0  0  0  0  0  0  0  0  0  0  0  0
   -1.7090   19.8850  -32.9200 C   0  0  0  0  0  0  0  0  0  0  0  0
   -2.0530   20.4630  -31.3800 S   0  0  0  0  0  0  0  0  0  0  0  0
   -3.5160   24.9420  -31.2420 H   0  0  0  0  0  0  0  0  0  0  0  0
   -3.8710   26.5350  -30.5010 H   0  0  0  0  0  0  0  0  0  0  0  0
   -8.2092   24.3880  -31.2056 H   0  0  0  0  0  0  0  0  0  0  0  0
   -9.5852   22.0153  -32.0341 H   0  0  0  0  0  0  0  0  0  0  0  0
   -9.2307   19.5857  -32.5846 H   0  0  0  0  0  0  0  0  0  0  0  0
   -4.9756   20.0135  -31.7274 H   0  0  0  0  0  0  0  0  0  0  0  0
   -3.9930   22.1970  -33.8179 H   0  0  0  0  0  0  0  0  0  0  0  0
   -2.4548   20.4025  -34.9161 H   0  0  0  0  0  0  0  0  0  0  0  0
   -0.9909   19.0882  -33.1638 H   0  0  0  0  0  0  0  0  0  0  0  0
  1  2  1  0
  2  3  2  0
  2  4  1  0
  4  5  2  0
  5  6  1  0
  6  7  2  0
  7  8  1  0
  8  9  2  0
  9 10  1  0
 10 11  1  0
 10 12  1  0
 10 13  1  0
  9 14  1  0
 14 15  2  0
 15 16  1  0
 16 17  1  0
 17 18  2  0
 17 19  1  0
 19 20  2  0
 20 21  1  0
 21 22  2  0
 22 23  1  0
 16  4  1  0
 23 19  1  0
 15  6  1  0
  1 24  1  0
  1 25  1  0
  5 26  1  0
  7 27  1  0
  8 28  1  0
 14 29  1  0
 20 30  1  0
 21 31  1  0
 22 32  1  0
M  END
>  <UniqueID>  (14) 
14

>  <SMILES>  (14) 
NC(=O)c1cc2ccc(C(F)(F)F)cc2n1C(=O)c1cccs1

>  <Energy>  (14) 
101.23192335191655

>  <Genealogy>  (14) 
NC(=O)c1cc2ccc(C(F)(F)F)cc2n1C(=O)c1cccs1 (3D coordinates assigned)
NC(=O)c1cc2ccc(C(F)(F)F)cc2n1C(=O)c1cccs1 (optimized conformer: 101.23192335191655 kcal/mol)

>  <smiles>  (14) 
NC(=O)c1cc2ccc(C(F)(F)F)cc2n1C(=O)c1cccs1

>  <score_type>  (14) 
oracle

>  <origin>  (14) 
adg

>  <m_score__min__energy>  (14) 
-8.4299999999999997

>  <m_primary>  (14) 
energy

$$$$
14:0
     RDKit          3D

 50 53  0  0  0  0  0  0  0  0999 V2000
   -1.7330   25.3590  -28.9140 N   0  0  0  0  0  0  0  0  0  0  0  0
   -1.5020   23.9790  -28.6250 C   0  0  0  0  0  0  0  0  0  0  0  0
   -0.9690   23.6590  -27.5290 O   0  0  0  0  0  0  0  0  0  0  0  0
   -1.8310   22.9260  -29.6060 C   0  0  0  0  0  0  0  0  0  0  0  0
   -1.0300   21.8110  -29.8370 C   0  0  0  0  0  0  0  0  0  0  0  0
   -1.6610   21.1120  -30.8390 C   0  0  0  0  0  0  0  0  0  0  0  0
   -1.3060   19.9160  -31.4550 C   0  0  0  0  0  0  0  0  0  0  0  0
   -2.1630   19.4040  -32.4430 C   0  0  0  0  0  0  0  0  0  0  0  0
   -3.3570   20.0850  -32.7880 C   0  0  0  0  0  0  0  0  0  0  0  0
   -4.2660   19.5380  -33.8580 C   0  0  0  0  0  0  0  0  0  0  0  0
   -4.2700   17.9970  -33.8870 C   0  0  0  0  0  0  0  0  0  0  0  0
   -5.5610   17.4070  -33.5070 N   0  0  0  0  0  0  0  0  0  0  0  0
   -6.3240   18.2690  -32.1990 S   0  0  0  0  0  0  0  0  0  0  0  0
   -6.4480   17.3710  -30.7780 O   0  0  0  0  0  0  0  0  0  0  0  0
   -7.8280   19.1040  -32.7020 C   0  0  0  0  0  0  0  0  0  0  0  0
   -8.3950   20.0150  -31.6270 C   0  0  0  0  0  0  0  0  0  0  0  0
   -9.1000   18.7110  -31.9690 C   0  0  0  0  0  0  0  0  0  0  0  0
   -3.6900   21.2900  -32.1300 C   0  0  0  0  0  0  0  0  0  0  0  0
   -2.8050   21.7930  -31.1720 C   0  0  0  0  0  0  0  0  0  0  0  0
   -2.9200   22.9150  -30.4250 N   0  0  0  0  0  0  0  0  0  0  0  0
   -4.0210   23.8420  -30.4080 C   0  0  0  0  0  0  0  0  0  0  0  0
   -3.8270   25.0330  -30.7730 O   0  0  0  0  0  0  0  0  0  0  0  0
   -5.3940   23.4340  -29.9270 C   0  0  0  0  0  0  0  0  0  0  0  0
   -6.4160   24.5730  -29.9560 C   0  0  0  0  0  0  0  0  0  0  0  0
   -7.2550   23.7990  -30.9630 C   0  0  0  0  0  0  0  0  0  0  0  0
   -6.2330   22.6720  -30.9550 C   0  0  0  0  0  0  0  0  0  0  0  0
   -1.5440   26.0850  -28.1880 H   0  0  0  0  0  0  0  0  0  0  0  0
   -1.9890   25.6730  -29.8750 H   0  0  0  0  0  0  0  0  0  0  0  0
   -0.0923   21.5458  -29.3268 H   0  0  0  0  0  0  0  0  0  0  0  0
   -0.3823   19.3875  -31.1767 H   0  0  0  0  0  0  0  0  0  0  0  0
   -1.9048   18.4649  -32.9542 H   0  0  0  0  0  0  0  0  0  0  0  0
   -5.2901   19.8913  -33.6674 H   0  0  0  0  0  0  0  0  0  0  0  0
   -3.8944   19.8930  -34.8306 H   0  0  0  0  0  0  0  0  0  0  0  0
   -4.0233   17.6673  -34.9070 H   0  0  0  0  0  0  0  0  0  0  0  0
   -3.5291   17.6575  -33.1482 H   0  0  0  0  0  0  0  0  0  0  0  0
   -5.4320   16.4120  -33.2170 H   0  0  0  0  0  0  0  0  0  0  0  0
   -5.8600   16.5850  -30.9050 H   0  0  0  0  0  0  0  0  0  0  0  0
   -7.5598   19.1941  -33.7650 H   0  0  0  0  0  0  0  0  0  0  0  0
   -7.8726   20.1219  -30.6649 H   0  0  0  0  0  0  0  0  0  0  0  0
   -8.6943   21.0725  -31.5820 H   0  0  0  0  0  0  0  0  0  0  0  0
   -9.0872   17.8748  -31.2544 H   0  0  0  0  0  0  0  0  0  0  0  0
  -10.1201   18.4345  -32.2739 H   0  0  0  0  0  0  0  0  0  0  0  0
   -4.6244   21.8203  -32.3661 H   0  0  0  0  0  0  0  0  0  0  0  0
   -5.1061   22.9505  -28.9818 H   0  0  0  0  0  0  0  0  0  0  0  0
   -6.9192   24.7488  -28.9938 H   0  0  0  0  0  0  0  0  0  0  0  0
   -6.0950   25.6021  -30.1746 H   0  0  0  0  0  0  0  0  0  0  0  0
   -8.2475   23.5069  -30.5894 H   0  0  0  0  0  0  0  0  0  0  0  0
   -7.5570   24.2679  -31.9111 H   0  0  0  0  0  0  0  0  0  0  0  0
   -6.6268   21.7121  -30.5895 H   0  0  0  0  0  0  0  0  0  0  0  0
   -5.7795   22.3271  -31.8959 H   0  0  0  0  0  0  0  0  0  0  0  0
  1  2  1  0
  2  3  2  0
  2  4  1  0
  4  5  2  0
  5  6  1  0
  6  7  2  0
  7  8  1  0
  8  9  2  0
  9 10  1  0
 10 11  1  0
 11 12  1  0
 12 13  1  0
 13 14  1  1
 13 15  1  0
 15 16  1  0
 16 17  1  0
  9 18  1  0
 18 19  2  0
 19 20  1  0
 20 21  1  0
 21 22  2  0
 21 23  1  0
 23 24  1  0
 24 25  1  0
 25 26  1  0
 20  4  1  0
 26 23  1  0
 19  6  1  0
 17 15  1  0
  1 27  1  0
  1 28  1  0
  5 29  1  0
  7 30  1  0
  8 31  1  0
 10 32  1  0
 10 33  1  0
 11 34  1  0
 11 35  1  0
 12 36  1  0
 14 37  1  0
 15 38  1  0
 16 39  1  0
 16 40  1  0
 17 41  1  0
 17 42  1  0
 18 43  1  0
 23 44  1  0
 24 45  1  0
 24 46  1  0
 25 47  1  0
 25 48  1  0
 26 49  1  0
 26 50  1  0
M  CHG  1  13   1
M  END
>  <UniqueID>  (15) 
15

>  <SMILES>  (15) 
NC(=O)c1cc2ccc(CCN[S@+](O)C3CC3)cc2n1C(=O)C1CCC1

>  <Energy>  (15) 
410.7365469786672

>  <Genealogy>  (15) 
NC(=O)c1cc2ccc(CCN[S+](O)C3CC3)cc2n1C(=O)C1CCC1 (protonated)
NC(=O)c1cc2ccc(CCN[S@+](O)C3CC3)cc2n1C(=O)C1CCC1 (chirality)
NC(=O)c1cc2ccc(CCN[S@+](O)C3CC3)cc2n1C(=O)C1CCC1 (3D coordinates assigned)
NC(=O)c1cc2ccc(CCN[S@+](O)C3CC3)cc2n1C(=O)C1CCC1 (nonaromatic ring conformer: 410.7365469786672 kcal/mol)

>  <smiles>  (15) 
NC(=O)c1cc2ccc(CCN[S+]([O-])C3CC3)cc2n1C(=O)C1CCC1

>  <score_type>  (15) 
oracle

>  <origin>  (15) 
adg

>  <m_score__min__energy>  (15) 
-9.3100000000000005

>  <m_primary>  (15) 
energy

$$$$
15:0
     RDKit          3D

 34 36  0  0  0  0  0  0  0  0999 V2000
   -6.6870   23.7330  -31.2860 C   0  0  0  0  0  0  0  0  0  0  0  0
   -6.0370   25.0460  -30.8680 C   0  0  0  0  0  0  0  0  0  0  0  0
   -4.6160   24.9290  -30.8830 O   0  0  0  0  0  0  0  0  0  0  0  0
   -3.8780   24.3440  -29.8470 C   0  0  0  0  0  0  0  0  0  0  0  0
   -4.1860   24.5640  -28.6430 O   0  0  0  0  0  0  0  0  0  0  0  0
   -2.7870   23.4670  -30.1580 N   0  0  0  0  0  0  0  0  0  0  0  0
   -1.4930   23.5580  -29.7360 C   0  0  0  0  0  0  0  0  0  0  0  0
   -0.9010   24.6830  -28.9850 C   0  0  0  0  0  0  0  0  0  0  0  0
   -1.5400   25.9570  -28.9440 N   0  0  0  0  0  0  0  0  0  0  0  0
    0.2100   24.5330  -28.4080 O   0  0  0  0  0  0  0  0  0  0  0  0
   -0.7560   22.4640  -30.1860 C   0  0  0  0  0  0  0  0  0  0  0  0
   -1.6410   21.7000  -30.9110 C   0  0  0  0  0  0  0  0  0  0  0  0
   -1.4470   20.4950  -31.5750 C   0  0  0  0  0  0  0  0  0  0  0  0
   -2.5500   19.9120  -32.2210 C   0  0  0  0  0  0  0  0  0  0  0  0
   -3.8270   20.5330  -32.1880 C   0  0  0  0  0  0  0  0  0  0  0  0
   -4.9890   19.9010  -32.8640 C   0  0  0  0  0  0  0  0  0  0  0  0
   -6.3340   20.1550  -32.6590 C   0  0  0  0  0  0  0  0  0  0  0  0
   -7.0580   19.3700  -33.4780 N   0  0  0  0  0  0  0  0  0  0  0  0
   -6.2190   18.6530  -34.1660 O   0  0  0  0  0  0  0  0  0  0  0  0
   -4.9770   18.9260  -33.8440 C   0  0  0  0  0  0  0  0  0  0  0  0
   -3.9800   21.7600  -31.4970 C   0  0  0  0  0  0  0  0  0  0  0  0
   -2.8590   22.3260  -30.8800 C   0  0  0  0  0  0  0  0  0  0  0  0
   -6.9697   23.1620  -30.3893 H   0  0  0  0  0  0  0  0  0  0  0  0
   -7.5852   23.9430  -31.8852 H   0  0  0  0  0  0  0  0  0  0  0  0
   -5.9754   23.1460  -31.8852 H   0  0  0  0  0  0  0  0  0  0  0  0
   -6.3419   25.8390  -31.5667 H   0  0  0  0  0  0  0  0  0  0  0  0
   -6.3619   25.2935  -29.8467 H   0  0  0  0  0  0  0  0  0  0  0  0
   -2.5810   26.0370  -28.9720 H   0  0  0  0  0  0  0  0  0  0  0  0
    0.3081   22.2556  -30.0007 H   0  0  0  0  0  0  0  0  0  0  0  0
   -0.4590   20.0118  -31.5943 H   0  0  0  0  0  0  0  0  0  0  0  0
   -2.4229   18.9615  -32.7598 H   0  0  0  0  0  0  0  0  0  0  0  0
   -6.7449   20.8813  -31.9423 H   0  0  0  0  0  0  0  0  0  0  0  0
   -4.0806   18.4596  -34.2788 H   0  0  0  0  0  0  0  0  0  0  0  0
   -4.9598   22.2575  -31.4465 H   0  0  0  0  0  0  0  0  0  0  0  0
  1  2  1  0
  2  3  1  0
  3  4  1  0
  4  5  2  0
  4  6  1  0
  6  7  1  0
  7  8  1  0
  8  9  1  0
  8 10  2  0
  7 11  2  0
 11 12  1  0
 12 13  2  0
 13 14  1  0
 14 15  2  0
 15 16  1  0
 16 17  1  0
 17 18  2  0
 18 19  1  0
 19 20  1  0
 15 21  1  0
 21 22  2  0
 22  6  1  0
 22 12  1  0
 20 16  2  0
  1 23  1  0
  1 24  1  0
  1 25  1  0
  2 26  1  0
  2 27  1  0
  9 28  1  0
 11 29  1  0
 13 30  1  0
 14 31  1  0
 17 32  1  0
 20 33  1  0
 21 34  1  0
M  CHG  1   9  -1
M  END
>  <UniqueID>  (16) 
16

>  <SMILES>  (16) 
CCOC(=O)n1c(C([NH-])=O)cc2ccc(-c3cnoc3)cc21

>  <Energy>  (16) 
104.2072152407453

>  <Genealogy>  (16) 
CCOC(=O)n1c(C([NH-])=O)cc2ccc(-c3cnoc3)cc21 (protonated)
CCOC(=O)n1c(C([NH-])=O)cc2ccc(-c3cnoc3)cc21 (3D coordinates assigned)
CCOC(=O)n1c(C([NH-])=O)cc2ccc(-c3cnoc3)cc21 (optimized conformer: 104.2072152407453 kcal/mol)

>  <smiles>  (16) 
CCOC(=O)n1c(C(N)=O)cc2ccc(-c3cnoc3)cc21

>  <score_type>  (16) 
oracle

>  <origin>  (16) 
adg

>  <m_score__min__energy>  (16) 
-10.050000000000001

>  <m_primary>  (16) 
energy

$$$$
16:0
     RDKit          3D

 47 49  0  0  0  0  0  0  0  0999 V2000
   -2.3410   19.0740  -32.7400 C   0  0  0  0  0  0  0  0  0  0  0  0
   -1.8970   20.7990  -32.3680 S   0  0  0  0  0  0  0  0  0  0  0  0
   -3.2230   21.0310  -31.1320 C   0  0  0  0  0  0  0  0  0  0  0  0
   -3.8540   22.3890  -31.2540 C   0  0  0  0  0  0  0  0  0  0  0  0
   -3.1080   23.4050  -31.2890 O   0  0  0  0  0  0  0  0  0  0  0  0
   -5.2800   22.5610  -31.3340 N   0  0  0  0  0  0  0  0  0  0  0  0
   -6.0050   23.6000  -30.8340 C   0  0  0  0  0  0  0  0  0  0  0  0
   -5.4500   24.8240  -30.2200 C   0  0  0  0  0  0  0  0  0  0  0  0
   -5.8250   25.2310  -28.9030 N   0  0  0  0  0  0  0  0  0  0  0  0
   -4.5960   25.5000  -30.8520 O   0  0  0  0  0  0  0  0  0  0  0  0
   -7.3680   23.3680  -30.9890 C   0  0  0  0  0  0  0  0  0  0  0  0
   -7.4610   22.1440  -31.6090 C   0  0  0  0  0  0  0  0  0  0  0  0
   -8.5840   21.4170  -31.9890 C   0  0  0  0  0  0  0  0  0  0  0  0
   -8.3860   20.1580  -32.5770 C   0  0  0  0  0  0  0  0  0  0  0  0
   -7.0780   19.6360  -32.7550 C   0  0  0  0  0  0  0  0  0  0  0  0
   -6.8640   18.2740  -33.3920 C   0  0  0  0  0  0  0  0  0  0  0  0
   -6.0620   18.3630  -34.7190 C   0  0  0  0  0  0  0  0  0  0  0  0
   -4.6660   17.7410  -34.5960 C   0  0  0  0  0  0  0  0  0  0  0  0
   -4.7390   16.3200  -34.1820 N   0  0  0  0  0  0  0  0  0  0  0  0
   -3.4000   15.8290  -33.8210 C   0  0  0  0  0  0  0  0  0  0  0  0
   -5.7280   16.0370  -33.1050 C   0  0  0  0  0  0  0  0  0  0  0  0
   -6.2240   17.2990  -32.3850 C   0  0  0  0  0  0  0  0  0  0  0  0
   -5.9630   20.4070  -32.3550 C   0  0  0  0  0  0  0  0  0  0  0  0
   -6.1870   21.6710  -31.7980 C   0  0  0  0  0  0  0  0  0  0  0  0
   -2.4833   18.5211  -31.7998 H   0  0  0  0  0  0  0  0  0  0  0  0
   -3.2738   19.0529  -33.3226 H   0  0  0  0  0  0  0  0  0  0  0  0
   -1.5342   18.6052  -33.3226 H   0  0  0  0  0  0  0  0  0  0  0  0
   -3.9947   20.2625  -31.2864 H   0  0  0  0  0  0  0  0  0  0  0  0
   -2.7805   20.9435  -30.1287 H   0  0  0  0  0  0  0  0  0  0  0  0
   -5.4660   26.1300  -28.5120 H   0  0  0  0  0  0  0  0  0  0  0  0
   -6.3700   24.6000  -28.2750 H   0  0  0  0  0  0  0  0  0  0  0  0
   -8.1954   24.0242  -30.6811 H   0  0  0  0  0  0  0  0  0  0  0  0
   -9.5970   21.8166  -31.8334 H   0  0  0  0  0  0  0  0  0  0  0  0
   -9.2552   19.5685  -32.9040 H   0  0  0  0  0  0  0  0  0  0  0  0
   -7.8513   17.8729  -33.6648 H   0  0  0  0  0  0  0  0  0  0  0  0
   -6.6183   17.8317  -35.5053 H   0  0  0  0  0  0  0  0  0  0  0  0
   -5.9364   19.4274  -34.9664 H   0  0  0  0  0  0  0  0  0  0  0  0
   -4.1596   17.8038  -35.5705 H   0  0  0  0  0  0  0  0  0  0  0  0
   -4.1074   18.2959  -33.8279 H   0  0  0  0  0  0  0  0  0  0  0  0
   -3.3052   15.7942  -32.7256 H   0  0  0  0  0  0  0  0  0  0  0  0
   -3.2560   14.8196  -34.2337 H   0  0  0  0  0  0  0  0  0  0  0  0
   -2.6376   16.5061  -34.2337 H   0  0  0  0  0  0  0  0  0  0  0  0
   -6.5943   15.5277  -33.5523 H   0  0  0  0  0  0  0  0  0  0  0  0
   -5.2207   15.4133  -32.3543 H   0  0  0  0  0  0  0  0  0  0  0  0
   -6.9716   17.0154  -31.6296 H   0  0  0  0  0  0  0  0  0  0  0  0
   -5.3687   17.7944  -31.9022 H   0  0  0  0  0  0  0  0  0  0  0  0
   -4.9403   20.0214  -32.4790 H   0  0  0  0  0  0  0  0  0  0  0  0
  1  2  1  0
  2  3  1  0
  3  4  1  0
  4  5  2  0
  4  6  1  0
  6  7  1  0
  7  8  1  0
  8  9  1  0
  8 10  2  0
  7 11  2  0
 11 12  1  0
 12 13  2  0
 13 14  1  0
 14 15  2  0
 15 16  1  0
 16 17  1  0
 17 18  1  0
 18 19  1  0
 19 20  1  0
 19 21  1  0
 21 22  1  0
 15 23  1  0
 23 24  2  0
 24  6  1  0
 24 12  1  0
 22 16  1  0
  1 25  1  0
  1 26  1  0
  1 27  1  0
  3 28  1  0
  3 29  1  0
  9 30  1  0
  9 31  1  0
 11 32  1  0
 13 33  1  0
 14 34  1  0
 16 35  1  0
 17 36  1  0
 17 37  1  0
 18 38  1  0
 18 39  1  0
 20 40  1  0
 20 41  1  0
 20 42  1  0
 21 43  1  0
 21 44  1  0
 22 45  1  0
 22 46  1  0
 23 47  1  0
M  END
>  <UniqueID>  (17) 
17

>  <SMILES>  (17) 
CSCC(=O)n1c(C(N)=O)cc2ccc(C3CCN(C)CC3)cc21

>  <Energy>  (17) 
92.62515311732692

>  <Genealogy>  (17) 
CSCC(=O)n1c(C(N)=O)cc2ccc(C3CCN(C)CC3)cc21 (3D coordinates assigned)
CSCC(=O)n1c(C(N)=O)cc2ccc(C3CCN(C)CC3)cc21 (nonaromatic ring conformer: 92.62515311732692 kcal/mol)

>  <smiles>  (17) 
CSCC(=O)n1c(C(N)=O)cc2ccc(C3CCN(C)CC3)cc21

>  <score_type>  (17) 
oracle

>  <origin>  (17) 
adg

>  <m_score__min__energy>  (17) 
-10.050000000000001

>  <m_primary>  (17) 
energy

$$$$
17:0
     RDKit          3D

 37 39  0  0  0  0  0  0  0  0999 V2000
   -9.2990   19.5210  -32.2770 C   0  0  0  0  0  0  0  0  0  0  0  0
   -8.0980   19.6980  -33.1050 N   0  0  2  0  0  0  0  0  0  0  0  0
   -7.0180   18.7560  -32.7770 C   0  0  0  0  0  0  0  0  0  0  0  0
   -6.0920   19.8730  -32.3030 C   0  0  1  0  0  0  0  0  0  0  0  0
   -4.8360   20.0740  -33.1660 C   0  0  0  0  0  0  0  0  0  0  0  0
   -3.7180   20.6620  -32.3480 C   0  0  0  0  0  0  0  0  0  0  0  0
   -2.4710   19.9950  -32.2740 C   0  0  0  0  0  0  0  0  0  0  0  0
   -1.4100   20.5400  -31.5300 C   0  0  0  0  0  0  0  0  0  0  0  0
   -1.6220   21.7560  -30.8880 C   0  0  0  0  0  0  0  0  0  0  0  0
   -0.7790   22.4940  -30.0900 C   0  0  0  0  0  0  0  0  0  0  0  0
   -1.5120   23.6170  -29.7150 C   0  0  0  0  0  0  0  0  0  0  0  0
   -0.9470   24.7260  -28.9160 C   0  0  0  0  0  0  0  0  0  0  0  0
   -1.5920   25.9980  -28.9140 N   0  0  0  0  0  0  0  0  0  0  0  0
    0.0780   24.5540  -28.2060 O   0  0  0  0  0  0  0  0  0  0  0  0
   -2.7640   23.5740  -30.2530 N   0  0  0  0  0  0  0  0  0  0  0  0
   -3.8410   24.5050  -30.0630 C   0  0  0  0  0  0  0  0  0  0  0  0
   -4.7460   24.2670  -29.2190 O   0  0  0  0  0  0  0  0  0  0  0  0
   -3.9100   25.6640  -30.8240 O   0  0  0  0  0  0  0  0  0  0  0  0
   -2.8150   22.4280  -30.9700 C   0  0  0  0  0  0  0  0  0  0  0  0
   -3.8950   21.8980  -31.6870 C   0  0  0  0  0  0  0  0  0  0  0  0
   -7.2420   20.8080  -32.6640 C   0  0  0  0  0  0  0  0  0  0  0  0
   -9.0205   19.5620  -31.2136 H   0  0  0  0  0  0  0  0  0  0  0  0
  -10.0187   20.3228  -32.4988 H   0  0  0  0  0  0  0  0  0  0  0  0
   -9.7568   18.5457  -32.4988 H   0  0  0  0  0  0  0  0  0  0  0  0
   -8.3040   19.7320  -34.1320 H   0  0  0  0  0  0  0  0  0  0  0  0
   -7.2849   18.0415  -31.9844 H   0  0  0  0  0  0  0  0  0  0  0  0
   -6.6623   18.0619  -33.5527 H   0  0  0  0  0  0  0  0  0  0  0  0
   -5.6079   19.8624  -31.3153 H   0  0  0  0  0  0  0  0  0  0  0  0
   -4.5158   19.1021  -33.5697 H   0  0  0  0  0  0  0  0  0  0  0  0
   -5.0770   20.7667  -33.9858 H   0  0  0  0  0  0  0  0  0  0  0  0
   -2.3312   19.0412  -32.8038 H   0  0  0  0  0  0  0  0  0  0  0  0
   -0.4426   20.0214  -31.4577 H   0  0  0  0  0  0  0  0  0  0  0  0
    0.2555   22.2489  -29.8077 H   0  0  0  0  0  0  0  0  0  0  0  0
   -2.6320   26.0730  -28.9800 H   0  0  0  0  0  0  0  0  0  0  0  0
   -4.8564   22.4304  -31.7343 H   0  0  0  0  0  0  0  0  0  0  0  0
   -7.6470   21.3580  -31.8017 H   0  0  0  0  0  0  0  0  0  0  0  0
   -7.0530   21.6420  -33.3559 H   0  0  0  0  0  0  0  0  0  0  0  0
  1  2  1  0
  2  3  1  0
  3  4  1  0
  4  5  1  0
  5  6  1  0
  6  7  2  0
  7  8  1  0
  8  9  2  0
  9 10  1  0
 10 11  2  0
 11 12  1  0
 12 13  1  0
 12 14  2  0
 11 15  1  0
 15 16  1  0
 16 17  2  0
 16 18  1  0
 15 19  1  0
 19 20  2  0
  4 21  1  0
 21  2  1  0
 20  6  1  0
 19  9  1  0
  1 22  1  0
  1 23  1  0
  1 24  1  0
  2 25  1  6
  3 26  1  0
  3 27  1  0
  4 28  1  1
  5 29  1  0
  5 30  1  0
  7 31  1  0
  8 32  1  0
 10 33  1  0
 13 34  1  0
 20 35  1  0
 21 36  1  0
 21 37  1  0
M  CHG  3   2   1  13  -1  18  -1
M  END
>  <UniqueID>  (18) 
18

>  <SMILES>  (18) 
C[NH+]1CC(Cc2ccc3cc(C([NH-])=O)n(C(=O)[O-])c3c2)C1

>  <Energy>  (18) 
147.1763061475003

>  <Genealogy>  (18) 
C[NH+]1CC(Cc2ccc3cc(C([NH-])=O)n(C(=O)[O-])c3c2)C1 (protonated)
C[NH+]1CC(Cc2ccc3cc(C([NH-])=O)n(C(=O)[O-])c3c2)C1 (3D coordinates assigned)
C[NH+]1CC(Cc2ccc3cc(C([NH-])=O)n(C(=O)[O-])c3c2)C1 (nonaromatic ring conformer: 147.1763061475003 kcal/mol)

>  <smiles>  (18) 
CN1CC(Cc2ccc3cc(C(N)=O)n(C(=O)O)c3c2)C1

>  <score_type>  (18) 
oracle

>  <origin>  (18) 
adg

>  <m_score__min__energy>  (18) 
-11.34

>  <m_primary>  (18) 
energy

$$$$
18:0
     RDKit          3D

 37 39  0  0  0  0  0  0  0  0999 V2000
   -5.8610   13.9960  -34.1140 C   0  0  0  0  0  0  0  0  0  0  0  0
   -6.7670   15.0740  -33.8950 O   0  0  0  0  0  0  0  0  0  0  0  0
   -6.3800   16.4150  -33.7500 C   0  0  0  0  0  0  0  0  0  0  0  0
   -5.8620   17.0810  -34.8660 C   0  0  0  0  0  0  0  0  0  0  0  0
   -5.4640   18.4180  -34.7730 C   0  0  0  0  0  0  0  0  0  0  0  0
   -5.5940   19.1160  -33.5640 C   0  0  0  0  0  0  0  0  0  0  0  0
   -5.1520   20.4820  -33.4850 N   0  0  0  0  0  0  0  0  0  0  0  0
   -4.0030   20.9220  -32.7410 C   0  0  0  0  0  0  0  0  0  0  0  0
   -2.8050   20.1590  -32.7230 C   0  0  0  0  0  0  0  0  0  0  0  0
   -1.7020   20.5770  -31.9620 C   0  0  0  0  0  0  0  0  0  0  0  0
   -1.8230   21.7520  -31.2260 C   0  0  0  0  0  0  0  0  0  0  0  0
   -0.9250   22.3640  -30.3840 C   0  0  0  0  0  0  0  0  0  0  0  0
   -1.5820   23.4950  -29.9010 C   0  0  0  0  0  0  0  0  0  0  0  0
   -0.9390   24.4940  -29.0230 C   0  0  0  0  0  0  0  0  0  0  0  0
   -1.4460   25.8220  -28.9290 N   0  0  0  0  0  0  0  0  0  0  0  0
    0.1030   24.1850  -28.3860 O   0  0  0  0  0  0  0  0  0  0  0  0
   -2.8410   23.5730  -30.4180 N   0  0  0  0  0  0  0  0  0  0  0  0
   -3.8640   24.5280  -30.0950 C   0  0  0  0  0  0  0  0  0  0  0  0
   -3.8650   25.6660  -30.6350 O   0  0  0  0  0  0  0  0  0  0  0  0
   -4.8790   24.1970  -29.2050 O   0  0  0  0  0  0  0  0  0  0  0  0
   -2.9720   22.5000  -31.2300 C   0  0  0  0  0  0  0  0  0  0  0  0
   -4.0940   22.0970  -31.9650 C   0  0  0  0  0  0  0  0  0  0  0  0
   -6.0920   18.4420  -32.4360 C   0  0  0  0  0  0  0  0  0  0  0  0
   -6.4900   17.1040  -32.5290 C   0  0  0  0  0  0  0  0  0  0  0  0
   -5.5254   13.5966  -33.1456 H   0  0  0  0  0  0  0  0  0  0  0  0
   -6.3667   13.2018  -34.6827 H   0  0  0  0  0  0  0  0  0  0  0  0
   -4.9916   14.3575  -34.6827 H   0  0  0  0  0  0  0  0  0  0  0  0
   -5.7671   16.5486  -35.8239 H   0  0  0  0  0  0  0  0  0  0  0  0
   -5.0459   18.9259  -35.6546 H   0  0  0  0  0  0  0  0  0  0  0  0
   -5.7010   21.2030  -34.0060 H   0  0  0  0  0  0  0  0  0  0  0  0
   -2.7410   19.2316  -33.3111 H   0  0  0  0  0  0  0  0  0  0  0  0
   -0.7698   19.9932  -31.9478 H   0  0  0  0  0  0  0  0  0  0  0  0
    0.0955   22.0319  -30.1425 H   0  0  0  0  0  0  0  0  0  0  0  0
   -2.4720   26.0080  -28.9630 H   0  0  0  0  0  0  0  0  0  0  0  0
   -5.0246   22.6829  -31.9380 H   0  0  0  0  0  0  0  0  0  0  0  0
   -6.1694   18.9697  -31.4739 H   0  0  0  0  0  0  0  0  0  0  0  0
   -6.8906   16.5888  -31.6435 H   0  0  0  0  0  0  0  0  0  0  0  0
  1  2  1  0
  2  3  1  0
  3  4  2  0
  4  5  1  0
  5  6  2  0
  6  7  1  0
  7  8  1  0
  8  9  2  0
  9 10  1  0
 10 11  2  0
 11 12  1  0
 12 13  2  0
 13 14  1  0
 14 15  1  0
 14 16  2  0
 13 17  1  0
 17 18  1  0
 18 19  2  0
 18 20  1  0
 17 21  1  0
 21 22  2  0
  6 23  1  0
 23 24  2  0
 24  3  1  0
 22  8  1  0
 21 11  1  0
  1 25  1  0
  1 26  1  0
  1 27  1  0
  4 28  1  0
  5 29  1  0
  7 30  1  0
  9 31  1  0
 10 32  1  0
 12 33  1  0
 15 34  1  0
 22 35  1  0
 23 36  1  0
 24 37  1  0
M  CHG  2  15  -1  20  -1
M  END
>  <UniqueID>  (19) 
19

>  <SMILES>  (19) 
COc1ccc(Nc2ccc3cc(C([NH-])=O)n(C(=O)[O-])c3c2)cc1

>  <Energy>  (19) 
84.39457706423295

>  <Genealogy>  (19) 
COc1ccc(Nc2ccc3cc(C([NH-])=O)n(C(=O)[O-])c3c2)cc1 (protonated)
COc1ccc(Nc2ccc3cc(C([NH-])=O)n(C(=O)[O-])c3c2)cc1 (3D coordinates assigned)
COc1ccc(Nc2ccc3cc(C([NH-])=O)n(C(=O)[O-])c3c2)cc1 (optimized conformer: 84.39457706423295 kcal/mol)

>  <smiles>  (19) 
COc1ccc(Nc2ccc3cc(C(N)=O)n(C(=O)O)c3c2)cc1

>  <score_type>  (19) 
oracle

>  <origin>  (19) 
adg

>  <m_score__min__energy>  (19) 
-11.619999999999999

>  <m_primary>  (19) 
energy

$$$$
19:0
     RDKit          3D

 34 35  0  0  0  0  0  0  0  0999 V2000
   -7.5940   18.5810  -31.7210 C   0  0  0  0  0  0  0  0  0  0  0  0
   -7.9900   19.9450  -32.3270 C   0  0  0  0  0  0  0  0  0  0  0  0
   -8.2610   20.9620  -31.1980 C   0  0  0  0  0  0  0  0  0  0  0  0
   -9.1620   19.7840  -33.0930 O   0  0  0  0  0  0  0  0  0  0  0  0
   -6.8870   20.4650  -33.2870 C   0  0  0  0  0  0  0  0  0  0  0  0
   -5.5590   20.7550  -32.6240 C   0  0  0  0  0  0  0  0  0  0  0  0
   -4.4970   19.8210  -32.7180 C   0  0  0  0  0  0  0  0  0  0  0  0
   -3.2530   20.0880  -32.1240 C   0  0  0  0  0  0  0  0  0  0  0  0
   -3.1030   21.2870  -31.4350 C   0  0  0  0  0  0  0  0  0  0  0  0
   -2.0020   21.8070  -30.7930 C   0  0  0  0  0  0  0  0  0  0  0  0
   -2.4170   23.0380  -30.2890 C   0  0  0  0  0  0  0  0  0  0  0  0
   -1.5580   23.9010  -29.4500 C   0  0  0  0  0  0  0  0  0  0  0  0
   -1.8020   25.3010  -29.3450 N   0  0  0  0  0  0  0  0  0  0  0  0
   -0.6260   23.3860  -28.7770 O   0  0  0  0  0  0  0  0  0  0  0  0
   -3.7200   23.2750  -30.6130 N   0  0  0  0  0  0  0  0  0  0  0  0
   -4.4920   24.4610  -30.3590 C   0  0  0  0  0  0  0  0  0  0  0  0
   -5.5310   24.4040  -29.6490 O   0  0  0  0  0  0  0  0  0  0  0  0
   -4.0840   25.6850  -30.8730 O   0  0  0  0  0  0  0  0  0  0  0  0
   -4.1270   22.1920  -31.3110 C   0  0  0  0  0  0  0  0  0  0  0  0
   -5.3710   21.9580  -31.9080 C   0  0  0  0  0  0  0  0  0  0  0  0
   -7.6134   18.6480  -30.6232 H   0  0  0  0  0  0  0  0  0  0  0  0
   -8.3058   17.8113  -32.0541 H   0  0  0  0  0  0  0  0  0  0  0  0
   -6.5807   18.3121  -32.0541 H   0  0  0  0  0  0  0  0  0  0  0  0
   -8.1301   20.4706  -30.2226 H   0  0  0  0  0  0  0  0  0  0  0  0
   -7.5552   21.8014  -31.2834 H   0  0  0  0  0  0  0  0  0  0  0  0
   -9.2909   21.3388  -31.2834 H   0  0  0  0  0  0  0  0  0  0  0  0
   -9.0830   18.9430  -33.6140 H   0  0  0  0  0  0  0  0  0  0  0  0
   -6.7231   19.7046  -34.0648 H   0  0  0  0  0  0  0  0  0  0  0  0
   -7.2501   21.4226  -33.6885 H   0  0  0  0  0  0  0  0  0  0  0  0
   -4.6489   18.8771  -33.2620 H   0  0  0  0  0  0  0  0  0  0  0  0
   -2.4225   19.3709  -32.2012 H   0  0  0  0  0  0  0  0  0  0  0  0
   -1.0066   21.3485  -30.6981 H   0  0  0  0  0  0  0  0  0  0  0  0
   -2.7760   25.6780  -29.3380 H   0  0  0  0  0  0  0  0  0  0  0  0
   -6.1838   22.6941  -31.8216 H   0  0  0  0  0  0  0  0  0  0  0  0
  1  2  1  0
  2  3  1  0
  2  4  1  0
  2  5  1  0
  5  6  1  0
  6  7  2  0
  7  8  1  0
  8  9  2  0
  9 10  1  0
 10 11  2  0
 11 12  1  0
 12 13  1  0
 12 14  2  0
 11 15  1  0
 15 16  1  0
 16 17  2  0
 16 18  1  0
 15 19  1  0
 19 20  2  0
 20  6  1  0
 19  9  1  0
  1 21  1  0
  1 22  1  0
  1 23  1  0
  3 24  1  0
  3 25  1  0
  3 26  1  0
  4 27  1  0
  5 28  1  0
  5 29  1  0
  7 30  1  0
  8 31  1  0
 10 32  1  0
 13 33  1  0
 20 34  1  0
M  CHG  2  13  -1  18  -1
M  END
>  <UniqueID>  (20) 
20

>  <SMILES>  (20) 
CC(C)(O)Cc1ccc2cc(C([NH-])=O)n(C(=O)[O-])c2c1

>  <Energy>  (20) 
71.23524506818559

>  <Genealogy>  (20) 
CC(C)(O)Cc1ccc2cc(C([NH-])=O)n(C(=O)[O-])c2c1 (protonated)
CC(C)(O)Cc1ccc2cc(C([NH-])=O)n(C(=O)[O-])c2c1 (3D coordinates assigned)
CC(C)(O)Cc1ccc2cc(C([NH-])=O)n(C(=O)[O-])c2c1 (optimized conformer: 71.23524506818559 kcal/mol)

>  <smiles>  (20) 
CC(C)(O)Cc1ccc2cc(C(N)=O)n(C(=O)O)c2c1

>  <score_type>  (20) 
oracle

>  <origin>  (20) 
adg

>  <m_score__min__energy>  (20) 
-11.369999999999999

>  <m_primary>  (20) 
energy

$$$$
20:0
     RDKit          3D

 45 46  0  0  0  0  0  0  0  0999 V2000
   -4.2050   16.3930  -34.4540 C   0  0  0  0  0  0  0  0  0  0  0  0
   -5.5700   16.7420  -34.6680 O   0  0  0  0  0  0  0  0  0  0  0  0
   -6.1170   17.9500  -34.2150 C   0  0  0  0  0  0  0  0  0  0  0  0
   -6.1210   18.9730  -34.9590 O   0  0  0  0  0  0  0  0  0  0  0  0
   -6.6510   18.0440  -32.8130 C   0  0  0  0  0  0  0  0  0  0  0  0
   -5.7500   17.4660  -31.9330 F   0  0  0  0  0  0  0  0  0  0  0  0
   -7.8380   17.3290  -32.7400 F   0  0  0  0  0  0  0  0  0  0  0  0
   -6.8560   19.4920  -32.4290 C   0  0  0  0  0  0  0  0  0  0  0  0
   -8.1550   20.0690  -32.3930 C   0  0  0  0  0  0  0  0  0  0  0  0
   -8.3320   21.4090  -32.0140 C   0  0  0  0  0  0  0  0  0  0  0  0
   -7.1990   22.1590  -31.7090 C   0  0  0  0  0  0  0  0  0  0  0  0
   -7.0860   23.4490  -31.2480 C   0  0  0  0  0  0  0  0  0  0  0  0
   -5.7220   23.6580  -31.0480 C   0  0  0  0  0  0  0  0  0  0  0  0
   -5.1900   24.8460  -30.3380 C   0  0  0  0  0  0  0  0  0  0  0  0
   -5.7220   25.3000  -29.0960 N   0  0  0  0  0  0  0  0  0  0  0  0
   -4.2320   25.4820  -30.8510 O   0  0  0  0  0  0  0  0  0  0  0  0
   -5.0170   22.5470  -31.4130 N   0  0  0  0  0  0  0  0  0  0  0  0
   -3.6140   22.2940  -31.2520 C   0  0  0  0  0  0  0  0  0  0  0  0
   -2.9420   21.9520  -32.2640 O   0  0  0  0  0  0  0  0  0  0  0  0
   -2.9580   22.4360  -29.9710 N   0  0  0  0  0  0  0  0  0  0  0  0
   -1.6240   23.0490  -29.9580 C   0  0  0  0  0  0  0  0  0  0  0  0
   -3.6310   22.1870  -28.6750 C   0  0  0  0  0  0  0  0  0  0  0  0
   -3.0640   20.9420  -27.9760 C   0  0  0  0  0  0  0  0  0  0  0  0
   -3.6070   23.4150  -27.7490 C   0  0  0  0  0  0  0  0  0  0  0  0
   -5.9390   21.6270  -31.7650 C   0  0  0  0  0  0  0  0  0  0  0  0
   -5.7350   20.2840  -32.0860 C   0  0  0  0  0  0  0  0  0  0  0  0
   -4.0047   16.3418  -33.3736 H   0  0  0  0  0  0  0  0  0  0  0  0
   -4.0008   15.4138  -34.9116 H   0  0  0  0  0  0  0  0  0  0  0  0
   -3.5559   17.1541  -34.9116 H   0  0  0  0  0  0  0  0  0  0  0  0
   -9.0295   19.4596  -32.6647 H   0  0  0  0  0  0  0  0  0  0  0  0
   -9.3366   21.8537  -31.9595 H   0  0  0  0  0  0  0  0  0  0  0  0
   -7.9013   24.1665  -31.0734 H   0  0  0  0  0  0  0  0  0  0  0  0
   -6.2820   24.6740  -28.4820 H   0  0  0  0  0  0  0  0  0  0  0  0
   -5.3860   26.2000  -28.6900 H   0  0  0  0  0  0  0  0  0  0  0  0
   -1.2992   23.1983  -28.9177 H   0  0  0  0  0  0  0  0  0  0  0  0
   -0.9116   22.3879  -30.4733 H   0  0  0  0  0  0  0  0  0  0  0  0
   -1.6617   24.0201  -30.4733 H   0  0  0  0  0  0  0  0  0  0  0  0
   -4.6886   21.9903  -28.9046 H   0  0  0  0  0  0  0  0  0  0  0  0
   -3.1242   21.0743  -26.8856 H   0  0  0  0  0  0  0  0  0  0  0  0
   -3.6483   20.0579  -28.2709 H   0  0  0  0  0  0  0  0  0  0  0  0
   -2.0135   20.8024  -28.2709 H   0  0  0  0  0  0  0  0  0  0  0  0
   -3.6135   23.0835  -26.7002 H   0  0  0  0  0  0  0  0  0  0  0  0
   -2.6972   24.0023  -27.9423 H   0  0  0  0  0  0  0  0  0  0  0  0
   -4.4932   24.0374  -27.9423 H   0  0  0  0  0  0  0  0  0  0  0  0
   -4.7241   19.8506  -32.0726 H   0  0  0  0  0  0  0  0  0  0  0  0
  1  2  1  0
  2  3  1  0
  3  4  2  0
  3  5  1  0
  5  6  1  0
  5  7  1  0
  5  8  1  0
  8  9  2  0
  9 10  1  0
 10 11  2  0
 11 12  1  0
 12 13  2  0
 13 14  1  0
 14 15  1  0
 14 16  2  0
 13 17  1  0
 17 18  1  0
 18 19  2  0
 18 20  1  0
 20 21  1  0
 20 22  1  0
 22 23  1  0
 22 24  1  0
 17 25  1  0
 25 26  2  0
 26  8  1  0
 25 11  1  0
  1 27  1  0
  1 28  1  0
  1 29  1  0
  9 30  1  0
 10 31  1  0
 12 32  1  0
 15 33  1  0
 15 34  1  0
 21 35  1  0
 21 36  1  0
 21 37  1  0
 22 38  1  0
 23 39  1  0
 23 40  1  0
 23 41  1  0
 24 42  1  0
 24 43  1  0
 24 44  1  0
 26 45  1  0
M  END
>  <UniqueID>  (21) 
21

>  <SMILES>  (21) 
COC(=O)C(F)(F)c1ccc2cc(C(N)=O)n(C(=O)N(C)C(C)C)c2c1

>  <Energy>  (21) 
84.45950609790006

>  <Genealogy>  (21) 
COC(=O)C(F)(F)c1ccc2cc(C(N)=O)n(C(=O)N(C)C(C)C)c2c1 (3D coordinates assigned)
COC(=O)C(F)(F)c1ccc2cc(C(N)=O)n(C(=O)N(C)C(C)C)c2c1 (optimized conformer: 84.45950609790006 kcal/mol)

>  <smiles>  (21) 
COC(=O)C(F)(F)c1ccc2cc(C(N)=O)n(C(=O)N(C)C(C)C)c2c1

>  <score_type>  (21) 
oracle

>  <origin>  (21) 
adg

>  <m_score__min__energy>  (21) 
-8.8300000000000001

>  <m_primary>  (21) 
energy

$$$$
21:0
     RDKit          3D

 39 40  0  0  0  0  0  0  0  0999 V2000
   -3.5600   23.7370  -27.8890 C   0  0  0  0  0  0  0  0  0  0  0  0
   -2.5170   24.0580  -28.9590 C   0  0  0  0  0  0  0  0  0  0  0  0
   -2.8040   25.2970  -29.5050 F   0  0  0  0  0  0  0  0  0  0  0  0
   -1.2660   24.1190  -28.3710 F   0  0  0  0  0  0  0  0  0  0  0  0
   -2.5190   23.0110  -30.0820 C   0  0  0  0  0  0  0  0  0  0  0  0
   -3.3270   23.4260  -31.1840 O   0  0  0  0  0  0  0  0  0  0  0  0
   -4.2180   22.5820  -31.8560 C   0  0  0  0  0  0  0  0  0  0  0  0
   -3.8060   21.8150  -32.7700 O   0  0  0  0  0  0  0  0  0  0  0  0
   -5.6130   22.5960  -31.5110 N   0  0  0  0  0  0  0  0  0  0  0  0
   -6.2850   23.5600  -30.8200 C   0  0  0  0  0  0  0  0  0  0  0  0
   -5.7430   24.8730  -30.4200 C   0  0  0  0  0  0  0  0  0  0  0  0
   -6.0130   25.4220  -29.1290 N   0  0  0  0  0  0  0  0  0  0  0  0
   -4.9840   25.4970  -31.2090 O   0  0  0  0  0  0  0  0  0  0  0  0
   -7.5990   23.1670  -30.5780 C   0  0  0  0  0  0  0  0  0  0  0  0
   -7.7190   21.9270  -31.1610 C   0  0  0  0  0  0  0  0  0  0  0  0
   -8.8140   21.0700  -31.2200 C   0  0  0  0  0  0  0  0  0  0  0  0
   -8.6470   19.8330  -31.8640 C   0  0  0  0  0  0  0  0  0  0  0  0
   -7.3940   19.4690  -32.4160 C   0  0  0  0  0  0  0  0  0  0  0  0
   -7.2300   18.1460  -33.1180 C   0  0  0  0  0  0  0  0  0  0  0  0
   -5.9650   18.1260  -33.9830 C   0  0  0  0  0  0  0  0  0  0  0  0
   -6.1130   18.9630  -35.0980 O   0  0  0  0  0  0  0  0  0  0  0  0
   -6.3060   20.3670  -32.3430 C   0  0  0  0  0  0  0  0  0  0  0  0
   -6.5070   21.6030  -31.7150 C   0  0  0  0  0  0  0  0  0  0  0  0
   -3.1163   23.8736  -26.8918 H   0  0  0  0  0  0  0  0  0  0  0  0
   -4.4214   24.4116  -28.0026 H   0  0  0  0  0  0  0  0  0  0  0  0
   -3.8930   22.6948  -28.0026 H   0  0  0  0  0  0  0  0  0  0  0  0
   -1.4871   22.8607  -30.4322 H   0  0  0  0  0  0  0  0  0  0  0  0
   -2.9370   22.0759  -29.6809 H   0  0  0  0  0  0  0  0  0  0  0  0
   -6.4870   24.8550  -28.3920 H   0  0  0  0  0  0  0  0  0  0  0  0
   -5.6590   26.3710  -28.8780 H   0  0  0  0  0  0  0  0  0  0  0  0
   -8.3748   23.7282  -30.0365 H   0  0  0  0  0  0  0  0  0  0  0  0
   -9.7800   21.3526  -30.7762 H   0  0  0  0  0  0  0  0  0  0  0  0
   -9.4977   19.1398  -31.9405 H   0  0  0  0  0  0  0  0  0  0  0  0
   -7.1615   17.3471  -32.3649 H   0  0  0  0  0  0  0  0  0  0  0  0
   -8.1001   17.9909  -33.7728 H   0  0  0  0  0  0  0  0  0  0  0  0
   -5.1113   18.4727  -33.3821 H   0  0  0  0  0  0  0  0  0  0  0  0
   -5.7928   17.0976  -34.3335 H   0  0  0  0  0  0  0  0  0  0  0  0
   -7.0310   19.3360  -35.0580 H   0  0  0  0  0  0  0  0  0  0  0  0
   -5.3265   20.1026  -32.7682 H   0  0  0  0  0  0  0  0  0  0  0  0
  1  2  1  0
  2  3  1  0
  2  4  1  0
  2  5  1  0
  5  6  1  0
  6  7  1  0
  7  8  2  0
  7  9  1  0
  9 10  1  0
 10 11  1  0
 11 12  1  0
 11 13  2  0
 10 14  2  0
 14 15  1  0
 15 16  2  0
 16 17  1  0
 17 18  2  0
 18 19  1  0
 19 20  1  0
 20 21  1  0
 18 22  1  0
 22 23  2  0
 23  9  1  0
 23 15  1  0
  1 24  1  0
  1 25  1  0
  1 26  1  0
  5 27  1  0
  5 28  1  0
 12 29  1  0
 12 30  1  0
 14 31  1  0
 16 32  1  0
 17 33  1  0
 19 34  1  0
 19 35  1  0
 20 36  1  0
 20 37  1  0
 21 38  1  0
 22 39  1  0
M  END
>  <UniqueID>  (22) 
22

>  <SMILES>  (22) 
CC(F)(F)COC(=O)n1c(C(N)=O)cc2ccc(CCO)cc21

>  <Energy>  (22) 
70.22393384074591

>  <Genealogy>  (22) 
CC(F)(F)COC(=O)n1c(C(N)=O)cc2ccc(CCO)cc21 (3D coordinates assigned)
CC(F)(F)COC(=O)n1c(C(N)=O)cc2ccc(CCO)cc21 (optimized conformer: 70.22393384074591 kcal/mol)

>  <smiles>  (22) 
CC(F)(F)COC(=O)n1c(C(N)=O)cc2ccc(CCO)cc21

>  <score_type>  (22) 
oracle

>  <origin>  (22) 
adg

>  <m_score__min__energy>  (22) 
-8.7400000000000002

>  <m_primary>  (22) 
energy

$$$$
22:0
     RDKit          3D

 44 47  0  0  0  0  0  0  0  0999 V2000
   -0.5100   15.6890  -34.3230 C   0  0  0  0  0  0  0  0  0  0  0  0
   -1.6730   15.5210  -35.1950 N   0  0  0  0  0  0  0  0  0  0  0  0
   -2.8090   16.1920  -34.6320 C   0  0  0  0  0  0  0  0  0  0  0  0
   -3.4850   17.1720  -35.2830 N   0  0  0  0  0  0  0  0  0  0  0  0
   -4.5450   17.5810  -34.5450 C   0  0  0  0  0  0  0  0  0  0  0  0
   -5.4060   18.5490  -34.9390 N   0  0  0  0  0  0  0  0  0  0  0  0
   -6.4520   18.8910  -34.1330 C   0  0  0  0  0  0  0  0  0  0  0  0
   -6.6440   18.2670  -32.9200 N   0  0  0  0  0  0  0  0  0  0  0  0
   -7.8080   18.6380  -32.1000 C   0  0  0  0  0  0  0  0  0  0  0  0
   -7.7260   20.0880  -31.7080 C   0  0  0  0  0  0  0  0  0  0  0  0
   -8.9090   20.8340  -31.4740 C   0  0  0  0  0  0  0  0  0  0  0  0
   -8.8400   22.1970  -31.1360 C   0  0  0  0  0  0  0  0  0  0  0  0
   -7.5810   22.7860  -31.0540 C   0  0  0  0  0  0  0  0  0  0  0  0
   -7.2250   24.0750  -30.7300 C   0  0  0  0  0  0  0  0  0  0  0  0
   -5.8340   24.1030  -30.8010 C   0  0  0  0  0  0  0  0  0  0  0  0
   -5.0270   25.3220  -30.5810 C   0  0  0  0  0  0  0  0  0  0  0  0
   -3.6100   25.2240  -30.4610 N   0  0  0  0  0  0  0  0  0  0  0  0
   -5.5780   26.4490  -30.4740 O   0  0  0  0  0  0  0  0  0  0  0  0
   -5.3480   22.8800  -31.1550 N   0  0  0  0  0  0  0  0  0  0  0  0
   -3.9720   22.4910  -31.2970 C   0  0  0  0  0  0  0  0  0  0  0  0
   -3.4650   21.9110  -32.5790 C   0  0  0  0  0  0  0  0  0  0  0  0
   -3.1780   22.6310  -30.3280 O   0  0  0  0  0  0  0  0  0  0  0  0
   -6.4310   22.0830  -31.3030 C   0  0  0  0  0  0  0  0  0  0  0  0
   -6.4680   20.7210  -31.6190 C   0  0  0  0  0  0  0  0  0  0  0  0
   -5.7830   17.2750  -32.5150 C   0  0  0  0  0  0  0  0  0  0  0  0
   -5.9450   16.6750  -31.4170 O   0  0  0  0  0  0  0  0  0  0  0  0
   -4.7210   16.9380  -33.3410 C   0  0  0  0  0  0  0  0  0  0  0  0
   -3.5140   15.7840  -33.1420 S   0  0  0  0  0  0  0  0  0  0  0  0
   -0.8303   15.6427  -33.2717 H   0  0  0  0  0  0  0  0  0  0  0  0
    0.2157   14.8864  -34.5209 H   0  0  0  0  0  0  0  0  0  0  0  0
   -0.0411   16.6642  -34.5209 H   0  0  0  0  0  0  0  0  0  0  0  0
   -1.8880   14.5030  -35.2970 H   0  0  0  0  0  0  0  0  0  0  0  0
   -1.4630   15.9230  -36.1380 H   0  0  0  0  0  0  0  0  0  0  0  0
   -7.1518   19.6758  -34.4561 H   0  0  0  0  0  0  0  0  0  0  0  0
   -8.7285   18.4694  -32.6782 H   0  0  0  0  0  0  0  0  0  0  0  0
   -7.8178   18.0201  -31.1900 H   0  0  0  0  0  0  0  0  0  0  0  0
   -9.8893   20.3420  -31.5577 H   0  0  0  0  0  0  0  0  0  0  0  0
   -9.7524   22.7800  -30.9423 H   0  0  0  0  0  0  0  0  0  0  0  0
   -7.8962   24.9068  -30.4701 H   0  0  0  0  0  0  0  0  0  0  0  0
   -3.0540   24.6460  -31.1300 H   0  0  0  0  0  0  0  0  0  0  0  0
   -2.7557   21.0995  -32.3591 H   0  0  0  0  0  0  0  0  0  0  0  0
   -4.3094   21.5123  -33.1604 H   0  0  0  0  0  0  0  0  0  0  0  0
   -2.9570   22.6946  -33.1604 H   0  0  0  0  0  0  0  0  0  0  0  0
   -5.5397   20.1574  -31.7938 H   0  0  0  0  0  0  0  0  0  0  0  0
  1  2  1  0
  2  3  1  0
  3  4  2  0
  4  5  1  0
  5  6  1  0
  6  7  2  0
  7  8  1  0
  8  9  1  0
  9 10  1  0
 10 11  2  0
 11 12  1  0
 12 13  2  0
 13 14  1  0
 14 15  2  0
 15 16  1  0
 16 17  1  0
 16 18  2  0
 15 19  1  0
 19 20  1  0
 20 21  1  0
 20 22  2  0
 19 23  1  0
 23 24  2  0
  8 25  1  0
 25 26  2  0
 25 27  1  0
 27 28  1  0
 28  3  1  0
 27  5  2  0
 24 10  1  0
 23 13  1  0
  1 29  1  0
  1 30  1  0
  1 31  1  0
  2 32  1  0
  2 33  1  0
  7 34  1  0
  9 35  1  0
  9 36  1  0
 11 37  1  0
 12 38  1  0
 14 39  1  0
 17 40  1  0
 21 41  1  0
 21 42  1  0
 21 43  1  0
 24 44  1  0
M  CHG  2   2   1  17  -1
M  END
>  <UniqueID>  (23) 
23

>  <SMILES>  (23) 
C[NH2+]c1nc2ncn(Cc3ccc4cc(C([NH-])=O)n(C(C)=O)c4c3)c(=O)c2s1

>  <Energy>  (23) 
122.71305019449565

>  <Genealogy>  (23) 
C[NH2+]c1nc2ncn(Cc3ccc4cc(C([NH-])=O)n(C(C)=O)c4c3)c(=O)c2s1 (protonated)
C[NH2+]c1nc2ncn(Cc3ccc4cc(C([NH-])=O)n(C(C)=O)c4c3)c(=O)c2s1 (3D coordinates assigned)
C[NH2+]c1nc2ncn(Cc3ccc4cc(C([NH-])=O)n(C(C)=O)c4c3)c(=O)c2s1 (optimized conformer: 122.71305019449565 kcal/mol)

>  <smiles>  (23) 
CNc1nc2ncn(Cc3ccc4cc(C(N)=O)n(C(C)=O)c4c3)c(=O)c2s1

>  <score_type>  (23) 
oracle

>  <origin>  (23) 
adg

>  <m_score__min__energy>  (23) 
-11.039999999999999

>  <m_primary>  (23) 
energy

$$$$
23:0
     RDKit          3D

 29 30  0  0  0  0  0  0  0  0999 V2000
   -3.3350   22.5130  -28.9680 C   0  0  0  0  0  0  0  0  0  0  0  0
   -3.0840   23.0100  -30.2770 O   0  0  0  0  0  0  0  0  0  0  0  0
   -3.8590   22.6460  -31.3830 C   0  0  0  0  0  0  0  0  0  0  0  0
   -3.3030   22.2470  -32.4430 O   0  0  0  0  0  0  0  0  0  0  0  0
   -5.2920   22.7260  -31.3110 N   0  0  0  0  0  0  0  0  0  0  0  0
   -6.0470   23.8130  -30.9810 C   0  0  0  0  0  0  0  0  0  0  0  0
   -5.5340   25.1000  -30.4710 C   0  0  0  0  0  0  0  0  0  0  0  0
   -4.2000   25.5290  -30.7510 N   0  0  0  0  0  0  0  0  0  0  0  0
   -6.2670   25.8070  -29.7290 O   0  0  0  0  0  0  0  0  0  0  0  0
   -7.4020   23.5390  -31.1420 C   0  0  0  0  0  0  0  0  0  0  0  0
   -7.4590   22.2330  -31.5710 C   0  0  0  0  0  0  0  0  0  0  0  0
   -8.5610   21.4450  -31.8950 C   0  0  0  0  0  0  0  0  0  0  0  0
   -8.3260   20.1350  -32.3440 C   0  0  0  0  0  0  0  0  0  0  0  0
   -7.0030   19.6480  -32.4830 C   0  0  0  0  0  0  0  0  0  0  0  0
   -6.7650   18.2400  -32.9450 C   0  0  0  0  0  0  0  0  0  0  0  0
   -5.7090   18.2550  -34.5680 Br  0  0  0  0  0  0  0  0  0  0  0  0
   -5.9090   20.4710  -32.1360 C   0  0  0  0  0  0  0  0  0  0  0  0
   -6.1720   21.7640  -31.6680 C   0  0  0  0  0  0  0  0  0  0  0  0
   -2.9695   23.2368  -28.2247 H   0  0  0  0  0  0  0  0  0  0  0  0
   -4.4165   22.3638  -28.8336 H   0  0  0  0  0  0  0  0  0  0  0  0
   -2.8131   21.5541  -28.8336 H   0  0  0  0  0  0  0  0  0  0  0  0
   -3.8690   26.4600  -30.4150 H   0  0  0  0  0  0  0  0  0  0  0  0
   -3.5160   24.8920  -31.2150 H   0  0  0  0  0  0  0  0  0  0  0  0
   -8.2467   24.2208  -30.9643 H   0  0  0  0  0  0  0  0  0  0  0  0
   -9.5846   21.8369  -31.8020 H   0  0  0  0  0  0  0  0  0  0  0  0
   -9.1763   19.4818  -32.5897 H   0  0  0  0  0  0  0  0  0  0  0  0
   -6.2259   17.6849  -32.1632 H   0  0  0  0  0  0  0  0  0  0  0  0
   -7.7314   17.7537  -33.1438 H   0  0  0  0  0  0  0  0  0  0  0  0
   -4.8760   20.1052  -32.2311 H   0  0  0  0  0  0  0  0  0  0  0  0
  1  2  1  0
  2  3  1  0
  3  4  2  0
  3  5  1  0
  5  6  1  0
  6  7  1  0
  7  8  1  0
  7  9  2  0
  6 10  2  0
 10 11  1  0
 11 12  2  0
 12 13  1  0
 13 14  2  0
 14 15  1  0
 15 16  1  0
 14 17  1  0
 17 18  2  0
 18  5  1  0
 18 11  1  0
  1 19  1  0
  1 20  1  0
  1 21  1  0
  8 22  1  0
  8 23  1  0
 10 24  1  0
 12 25  1  0
 13 26  1  0
 15 27  1  0
 15 28  1  0
 17 29  1  0
M  END
>  <UniqueID>  (24) 
24

>  <SMILES>  (24) 
COC(=O)n1c(C(N)=O)cc2ccc(CBr)cc21

>  <Energy>  (24) 
65.645004514996

>  <Genealogy>  (24) 
COC(=O)n1c(C(N)=O)cc2ccc(CBr)cc21 (3D coordinates assigned)
COC(=O)n1c(C(N)=O)cc2ccc(CBr)cc21 (optimized conformer: 65.645004514996 kcal/mol)

>  <smiles>  (24) 
COC(=O)n1c(C(N)=O)cc2ccc(CBr)cc21

>  <score_type>  (24) 
oracle

>  <origin>  (24) 
adg

>  <m_score__min__energy>  (24) 
-7.7699999999999996

>  <m_primary>  (24) 
energy

$$$$
24:0
     RDKit          3D

 35 36  0  0  0  0  0  0  0  0999 V2000
   -5.9730   15.8040  -33.8510 C   0  0  0  0  0  0  0  0  0  0  0  0
   -5.7020   17.0460  -34.4870 O   0  0  0  0  0  0  0  0  0  0  0  0
   -6.1590   18.2670  -33.9830 C   0  0  0  0  0  0  0  0  0  0  0  0
   -5.9380   19.3430  -34.6020 O   0  0  0  0  0  0  0  0  0  0  0  0
   -6.9610   18.2870  -32.7210 C   0  0  0  0  0  0  0  0  0  0  0  0
   -7.1790   19.7050  -32.2750 C   0  0  0  0  0  0  0  0  0  0  0  0
   -8.4800   20.2670  -32.3060 C   0  0  0  0  0  0  0  0  0  0  0  0
   -8.6930   21.5980  -31.9110 C   0  0  0  0  0  0  0  0  0  0  0  0
   -7.5900   22.3440  -31.5090 C   0  0  0  0  0  0  0  0  0  0  0  0
   -7.5160   23.6440  -31.0640 C   0  0  0  0  0  0  0  0  0  0  0  0
   -6.1660   23.8690  -30.8010 C   0  0  0  0  0  0  0  0  0  0  0  0
   -5.6150   25.1770  -30.3830 C   0  0  0  0  0  0  0  0  0  0  0  0
   -4.2600   25.5260  -30.6770 N   0  0  0  0  0  0  0  0  0  0  0  0
   -6.3280   25.9870  -29.7340 O   0  0  0  0  0  0  0  0  0  0  0  0
   -5.4340   22.7500  -31.0720 N   0  0  0  0  0  0  0  0  0  0  0  0
   -4.0220   22.5570  -30.8820 C   0  0  0  0  0  0  0  0  0  0  0  0
   -3.4170   23.1850  -29.9720 O   0  0  0  0  0  0  0  0  0  0  0  0
   -3.3270   21.6630  -31.7020 O   0  0  0  0  0  0  0  0  0  0  0  0
   -3.3930   21.7130  -33.1220 C   0  0  0  0  0  0  0  0  0  0  0  0
   -6.3200   21.8260  -31.5040 C   0  0  0  0  0  0  0  0  0  0  0  0
   -6.0800   20.4970  -31.8730 C   0  0  0  0  0  0  0  0  0  0  0  0
   -5.9440   15.9370  -32.7595 H   0  0  0  0  0  0  0  0  0  0  0  0
   -6.9699   15.4484  -34.1507 H   0  0  0  0  0  0  0  0  0  0  0  0
   -5.2149   15.0655  -34.1507 H   0  0  0  0  0  0  0  0  0  0  0  0
   -7.9346   17.8074  -32.9001 H   0  0  0  0  0  0  0  0  0  0  0  0
   -6.4156   17.7410  -31.9371 H   0  0  0  0  0  0  0  0  0  0  0  0
   -9.3302   19.6554  -32.6423 H   0  0  0  0  0  0  0  0  0  0  0  0
   -9.7015   22.0371  -31.9193 H   0  0  0  0  0  0  0  0  0  0  0  0
   -8.3464   24.3550  -30.9418 H   0  0  0  0  0  0  0  0  0  0  0  0
   -3.6540   24.9070  -31.2590 H   0  0  0  0  0  0  0  0  0  0  0  0
   -3.8690   26.4340  -30.3420 H   0  0  0  0  0  0  0  0  0  0  0  0
   -4.2353   22.3511  -33.4277 H   0  0  0  0  0  0  0  0  0  0  0  0
   -2.4550   22.1292  -33.5182 H   0  0  0  0  0  0  0  0  0  0  0  0
   -3.5397   20.6974  -33.5182 H   0  0  0  0  0  0  0  0  0  0  0  0
   -5.0623   20.0801  -31.8506 H   0  0  0  0  0  0  0  0  0  0  0  0
  1  2  1  0
  2  3  1  0
  3  4  2  0
  3  5  1  0
  5  6  1  0
  6  7  2  0
  7  8  1  0
  8  9  2  0
  9 10  1  0
 10 11  2  0
 11 12  1  0
 12 13  1  0
 12 14  2  0
 11 15  1  0
 15 16  1  0
 16 17  2  0
 16 18  1  0
 18 19  1  0
 15 20  1  0
 20 21  2  0
 21  6  1  0
 20  9  1  0
  1 22  1  0
  1 23  1  0
  1 24  1  0
  5 25  1  0
  5 26  1  0
  7 27  1  0
  8 28  1  0
 10 29  1  0
 13 30  1  0
 13 31  1  0
 19 32  1  0
 19 33  1  0
 19 34  1  0
 21 35  1  0
M  END
>  <UniqueID>  (25) 
25

>  <SMILES>  (25) 
COC(=O)Cc1ccc2cc(C(N)=O)n(C(=O)OC)c2c1

>  <Energy>  (25) 
67.44068776443667

>  <Genealogy>  (25) 
COC(=O)Cc1ccc2cc(C(N)=O)n(C(=O)OC)c2c1 (3D coordinates assigned)
COC(=O)Cc1ccc2cc(C(N)=O)n(C(=O)OC)c2c1 (optimized conformer: 67.44068776443667 kcal/mol)

>  <smiles>  (25) 
COC(=O)Cc1ccc2cc(C(N)=O)n(C(=O)OC)c2c1

>  <score_type>  (25) 
oracle

>  <origin>  (25) 
adg

>  <m_score__min__energy>  (25) 
-7.8300000000000001

>  <m_primary>  (25) 
energy

$$$$
25:0
     RDKit          3D

 64 68  0  0  0  0  0  0  0  0999 V2000
   -4.0890   25.6410  -30.5120 N   0  0  0  0  0  0  0  0  0  0  0  0
   -5.1490   24.9370  -29.8750 C   0  0  0  0  0  0  0  0  0  0  0  0
   -5.5120   25.2940  -28.7210 O   0  0  0  0  0  0  0  0  0  0  0  0
   -5.8100   23.7860  -30.5270 C   0  0  0  0  0  0  0  0  0  0  0  0
   -7.1830   23.7280  -30.7580 C   0  0  0  0  0  0  0  0  0  0  0  0
   -7.4000   22.5200  -31.3750 C   0  0  0  0  0  0  0  0  0  0  0  0
   -8.5870   21.9380  -31.8100 C   0  0  0  0  0  0  0  0  0  0  0  0
   -8.5180   20.6650  -32.3990 C   0  0  0  0  0  0  0  0  0  0  0  0
   -7.2760   19.9880  -32.5290 C   0  0  0  0  0  0  0  0  0  0  0  0
   -7.2270   18.6210  -33.1900 C   0  0  0  0  0  0  0  0  0  0  0  0
   -7.1880   17.4580  -32.1590 C   0  0  0  0  0  0  0  0  0  0  0  0
   -5.8010   16.8070  -32.0310 C   0  0  0  0  0  0  0  0  0  0  0  0
   -5.2230   16.2740  -33.3980 C   0  0  0  0  0  0  0  0  0  0  0  0
   -3.6540   16.3960  -33.4090 C   0  0  0  0  0  0  0  0  0  0  0  0
   -2.9250   15.0800  -33.0760 C   0  0  0  0  0  0  0  0  0  0  0  0
   -3.6530   14.3000  -32.0730 N   0  0  0  0  0  0  0  0  0  0  0  0
   -4.9520   13.8230  -32.5820 C   0  0  0  0  0  0  0  0  0  0  0  0
   -5.6220   14.7840  -33.5940 C   0  0  0  0  0  0  0  0  0  0  0  0
   -5.8160   17.0870  -34.5990 C   0  0  0  0  0  0  0  0  0  0  0  0
   -6.0810   18.5460  -34.2230 C   0  0  0  0  0  0  0  0  0  0  0  0
   -6.0960   20.6090  -32.0550 C   0  0  0  0  0  0  0  0  0  0  0  0
   -6.1900   21.8930  -31.5060 C   0  0  0  0  0  0  0  0  0  0  0  0
   -5.1990   22.6630  -31.0060 N   0  0  0  0  0  0  0  0  0  0  0  0
   -3.7920   22.3660  -31.0380 C   0  0  0  0  0  0  0  0  0  0  0  0
   -2.9630   23.3050  -31.1760 O   0  0  0  0  0  0  0  0  0  0  0  0
   -3.2820   20.9550  -30.8530 C   0  0  0  0  0  0  0  0  0  0  0  0
   -2.9250   20.2120  -32.1620 C   0  0  2  0  0  0  0  0  0  0  0  0
   -1.5440   19.5610  -32.1560 C   0  0  0  0  0  0  0  0  0  0  0  0
   -0.9230   19.9550  -33.4850 C   0  0  0  0  0  0  0  0  0  0  0  0
   -1.5890   21.1760  -33.9290 N   0  0  0  0  0  0  0  0  0  0  0  0
   -2.9520   21.1010  -33.4090 C   0  0  0  0  0  0  0  0  0  0  0  0
   -3.1070   25.2880  -30.4700 H   0  0  0  0  0  0  0  0  0  0  0  0
   -7.9345   24.4889  -30.5006 H   0  0  0  0  0  0  0  0  0  0  0  0
   -9.5492   22.4588  -31.6960 H   0  0  0  0  0  0  0  0  0  0  0  0
   -9.4381   20.1857  -32.7646 H   0  0  0  0  0  0  0  0  0  0  0  0
   -8.1697   18.4886  -33.7411 H   0  0  0  0  0  0  0  0  0  0  0  0
   -7.4806   17.8533  -31.1751 H   0  0  0  0  0  0  0  0  0  0  0  0
   -7.8812   16.6820  -32.5159 H   0  0  0  0  0  0  0  0  0  0  0  0
   -5.1025   17.5542  -31.6263 H   0  0  0  0  0  0  0  0  0  0  0  0
   -5.9141   15.9364  -31.3682 H   0  0  0  0  0  0  0  0  0  0  0  0
   -3.3387   16.7231  -34.4108 H   0  0  0  0  0  0  0  0  0  0  0  0
   -3.3836   17.1189  -32.6252 H   0  0  0  0  0  0  0  0  0  0  0  0
   -2.8308   14.4817  -33.9943 H   0  0  0  0  0  0  0  0  0  0  0  0
   -1.9349   15.3290  -32.6664 H   0  0  0  0  0  0  0  0  0  0  0  0
   -3.7990   14.8900  -31.2220 H   0  0  0  0  0  0  0  0  0  0  0  0
   -4.7947   12.8535  -33.0774 H   0  0  0  0  0  0  0  0  0  0  0  0
   -5.6266   13.7512  -31.7161 H   0  0  0  0  0  0  0  0  0  0  0  0
   -5.3311   14.4771  -34.6095 H   0  0  0  0  0  0  0  0  0  0  0  0
   -6.7078   14.7174  -33.4308 H   0  0  0  0  0  0  0  0  0  0  0  0
   -5.1016   17.0591  -35.4349 H   0  0  0  0  0  0  0  0  0  0  0  0
   -6.7746   16.6278  -34.8820 H   0  0  0  0  0  0  0  0  0  0  0  0
   -5.1693   18.9826  -33.7891 H   0  0  0  0  0  0  0  0  0  0  0  0
   -6.3680   19.1068  -35.1248 H   0  0  0  0  0  0  0  0  0  0  0  0
   -5.1261   20.0938  -32.1167 H   0  0  0  0  0  0  0  0  0  0  0  0
   -2.3780   20.9981  -30.2277 H   0  0  0  0  0  0  0  0  0  0  0  0
   -4.1049   20.3886  -30.3926 H   0  0  0  0  0  0  0  0  0  0  0  0
   -3.7152   19.4480  -32.2053 H   0  0  0  0  0  0  0  0  0  0  0  0
   -0.9403   19.9408  -31.3185 H   0  0  0  0  0  0  0  0  0  0  0  0
   -1.6002   18.4695  -32.0315 H   0  0  0  0  0  0  0  0  0  0  0  0
    0.1541   20.1384  -33.3578 H   0  0  0  0  0  0  0  0  0  0  0  0
   -1.0463   19.1518  -34.2264 H   0  0  0  0  0  0  0  0  0  0  0  0
   -1.6200   21.1930  -34.9760 H   0  0  0  0  0  0  0  0  0  0  0  0
   -3.3081   22.1075  -33.1442 H   0  0  0  0  0  0  0  0  0  0  0  0
   -3.6314   20.6828  -34.1663 H   0  0  0  0  0  0  0  0  0  0  0  0
  1  2  1  0
  2  3  2  0
  2  4  1  0
  4  5  2  0
  5  6  1  0
  6  7  2  0
  7  8  1  0
  8  9  2  0
  9 10  1  0
 10 11  1  0
 11 12  1  0
 12 13  1  0
 13 14  1  0
 14 15  1  0
 15 16  1  0
 16 17  1  0
 17 18  1  0
 13 19  1  0
 19 20  1  0
  9 21  1  0
 21 22  2  0
 22 23  1  0
 23 24  1  0
 24 25  2  0
 24 26  1  0
 26 27  1  0
 27 28  1  0
 28 29  1  0
 29 30  1  0
 30 31  1  0
 23  4  1  0
 31 27  1  0
 22  6  1  0
 20 10  1  0
 18 13  1  0
  1 32  1  0
  5 33  1  0
  7 34  1  0
  8 35  1  0
 10 36  1  0
 11 37  1  0
 11 38  1  0
 12 39  1  0
 12 40  1  0
 14 41  1  0
 14 42  1  0
 15 43  1  0
 15 44  1  0
 16 45  1  0
 17 46  1  0
 17 47  1  0
 18 48  1  0
 18 49  1  0
 19 50  1  0
 19 51  1  0
 20 52  1  0
 20 53  1  0
 21 54  1  0
 26 55  1  0
 26 56  1  0
 27 57  1  6
 28 58  1  0
 28 59  1  0
 29 60  1  0
 29 61  1  0
 30 62  1  0
 31 63  1  0
 31 64  1  0
M  CHG  1   1  -1
M  END
>  <UniqueID>  (26) 
26

>  <SMILES>  (26) 
[NH-]C(=O)c1cc2ccc(C3CCC4(CCNCC4)CC3)cc2n1C(=O)C[C@@H]1CCNC1

>  <Energy>  (26) 
123.09553850977449

>  <Genealogy>  (26) 
[NH-]C(=O)c1cc2ccc(C3CCC4(CCNCC4)CC3)cc2n1C(=O)C[C@@H]1CCNC1 (protonated)
[NH-]C(=O)c1cc2ccc(C3CCC4(CCNCC4)CC3)cc2n1C(=O)C[C@@H]1CCNC1 (3D coordinates assigned)
[NH-]C(=O)c1cc2ccc(C3CCC4(CCNCC4)CC3)cc2n1C(=O)C[C@@H]1CCNC1 (nonaromatic ring conformer: 123.09553850977449 kcal/mol)

>  <smiles>  (26) 
NC(=O)c1cc2ccc(C3CCC4(CCNCC4)CC3)cc2n1C(=O)C[C@@H]1CCNC1

>  <score_type>  (26) 
oracle

>  <origin>  (26) 
adg

>  <m_score__min__energy>  (26) 
-13.470000000000001

>  <m_primary>  (26) 
energy

$$$$
26:0
     RDKit          3D

 31 32  0  0  0  0  0  0  0  0999 V2000
   -8.7540   18.0480  -31.8130 C   0  0  0  0  0  0  0  0  0  0  0  0
   -7.9940   18.9390  -32.8030 C   0  0  2  0  0  0  0  0  0  0  0  0
   -6.6610   18.3460  -33.1730 C   0  0  0  0  0  0  0  0  0  0  0  0
   -6.1890   17.3950  -32.4950 O   0  0  0  0  0  0  0  0  0  0  0  0
   -5.9670   18.7990  -34.2880 O   0  0  0  0  0  0  0  0  0  0  0  0
   -7.8220   20.3410  -32.2560 C   0  0  0  0  0  0  0  0  0  0  0  0
   -8.9480   21.0500  -31.7600 C   0  0  0  0  0  0  0  0  0  0  0  0
   -8.8110   22.3520  -31.2530 C   0  0  0  0  0  0  0  0  0  0  0  0
   -7.5410   22.9210  -31.2440 C   0  0  0  0  0  0  0  0  0  0  0  0
   -7.1300   24.1670  -30.8300 C   0  0  0  0  0  0  0  0  0  0  0  0
   -5.7560   24.1970  -31.0560 C   0  0  0  0  0  0  0  0  0  0  0  0
   -4.8890   25.3290  -30.6650 C   0  0  0  0  0  0  0  0  0  0  0  0
   -3.4960   25.1390  -30.4350 N   0  0  0  0  0  0  0  0  0  0  0  0
   -5.3950   26.4700  -30.4890 O   0  0  0  0  0  0  0  0  0  0  0  0
   -5.3360   23.0190  -31.6000 N   0  0  0  0  0  0  0  0  0  0  0  0
   -4.0180   22.6750  -32.0550 C   0  0  0  0  0  0  0  0  0  0  0  0
   -3.8030   22.2690  -33.4060 N   0  0  0  0  0  0  0  0  0  0  0  0
   -3.0500   22.6990  -31.2500 O   0  0  0  0  0  0  0  0  0  0  0  0
   -6.4400   22.2480  -31.7040 C   0  0  0  0  0  0  0  0  0  0  0  0
   -6.5460   20.9560  -32.2280 C   0  0  0  0  0  0  0  0  0  0  0  0
   -8.5012   18.3444  -30.7843 H   0  0  0  0  0  0  0  0  0  0  0  0
   -9.8363   18.1631  -31.9723 H   0  0  0  0  0  0  0  0  0  0  0  0
   -8.4696   16.9974  -31.9723 H   0  0  0  0  0  0  0  0  0  0  0  0
   -8.6002   18.9985  -33.7190 H   0  0  0  0  0  0  0  0  0  0  0  0
   -9.9393   20.5734  -31.7732 H   0  0  0  0  0  0  0  0  0  0  0  0
   -9.6822   22.9063  -30.8739 H   0  0  0  0  0  0  0  0  0  0  0  0
   -7.7542   24.9693  -30.4097 H   0  0  0  0  0  0  0  0  0  0  0  0
   -2.8570   24.8590  -31.2120 H   0  0  0  0  0  0  0  0  0  0  0  0
   -2.8430   22.0300  -33.7390 H   0  0  0  0  0  0  0  0  0  0  0  0
   -4.6070   22.1710  -34.0660 H   0  0  0  0  0  0  0  0  0  0  0  0
   -5.6590   20.4292  -32.6097 H   0  0  0  0  0  0  0  0  0  0  0  0
  1  2  1  0
  2  3  1  0
  3  4  2  0
  3  5  1  0
  2  6  1  0
  6  7  2  0
  7  8  1  0
  8  9  2  0
  9 10  1  0
 10 11  2  0
 11 12  1  0
 12 13  1  0
 12 14  2  0
 11 15  1  0
 15 16  1  0
 16 17  1  0
 16 18  2  0
 15 19  1  0
 19 20  2  0
 20  6  1  0
 19  9  1  0
  1 21  1  0
  1 22  1  0
  1 23  1  0
  2 24  1  6
  7 25  1  0
  8 26  1  0
 10 27  1  0
 13 28  1  0
 17 29  1  0
 17 30  1  0
 20 31  1  0
M  CHG  2   5  -1  13  -1
M  END
>  <UniqueID>  (27) 
27

>  <SMILES>  (27) 
C[C@H](C(=O)[O-])c1ccc2cc(C([NH-])=O)n(C(N)=O)c2c1

>  <Energy>  (27) 
68.41022912174196

>  <Genealogy>  (27) 
CC(C(=O)[O-])c1ccc2cc(C([NH-])=O)n(C(N)=O)c2c1 (protonated)
C[C@H](C(=O)[O-])c1ccc2cc(C([NH-])=O)n(C(N)=O)c2c1 (chirality)
C[C@H](C(=O)[O-])c1ccc2cc(C([NH-])=O)n(C(N)=O)c2c1 (3D coordinates assigned)
C[C@H](C(=O)[O-])c1ccc2cc(C([NH-])=O)n(C(N)=O)c2c1 (optimized conformer: 68.41022912174196 kcal/mol)

>  <smiles>  (27) 
CC(C(=O)O)c1ccc2cc(C(N)=O)n(C(N)=O)c2c1

>  <score_type>  (27) 
oracle

>  <origin>  (27) 
adg

>  <m_score__min__energy>  (27) 
-10.67

>  <m_primary>  (27) 
energy

$$$$
27:0
     RDKit          3D

 26 27  0  0  0  0  0  0  0  0999 V2000
   -5.8520   17.5790  -34.9400 N   0  0  0  0  0  0  0  0  0  0  0  0
   -5.1950   18.3280  -34.3520 C   0  0  0  0  0  0  0  0  0  0  0  0
   -4.3610   19.2750  -33.6060 C   0  0  0  0  0  0  0  0  0  0  0  0
   -5.2220   20.3440  -32.9940 C   0  0  0  0  0  0  0  0  0  0  0  0
   -6.6340   20.2350  -33.0440 C   0  0  0  0  0  0  0  0  0  0  0  0
   -7.4480   21.2060  -32.4400 C   0  0  0  0  0  0  0  0  0  0  0  0
   -6.8270   22.2700  -31.7940 C   0  0  0  0  0  0  0  0  0  0  0  0
   -7.3740   23.3280  -31.1070 C   0  0  0  0  0  0  0  0  0  0  0  0
   -6.2900   24.0760  -30.6530 C   0  0  0  0  0  0  0  0  0  0  0  0
   -6.4190   25.3650  -29.9390 C   0  0  0  0  0  0  0  0  0  0  0  0
   -5.6160   26.4870  -30.3090 N   0  0  0  0  0  0  0  0  0  0  0  0
   -7.2190   25.4750  -28.9730 O   0  0  0  0  0  0  0  0  0  0  0  0
   -5.1160   23.5000  -31.0430 N   0  0  0  0  0  0  0  0  0  0  0  0
   -3.7830   23.9270  -30.7150 C   0  0  0  0  0  0  0  0  0  0  0  0
   -2.8470   23.0890  -30.6330 O   0  0  0  0  0  0  0  0  0  0  0  0
   -3.5160   25.2680  -30.4670 O   0  0  0  0  0  0  0  0  0  0  0  0
   -5.4620   22.3950  -31.7410 C   0  0  0  0  0  0  0  0  0  0  0  0
   -4.6260   21.4330  -32.3190 C   0  0  0  0  0  0  0  0  0  0  0  0
   -3.8239   18.7390  -32.8096 H   0  0  0  0  0  0  0  0  0  0  0  0
   -3.6394   19.7409  -34.2931 H   0  0  0  0  0  0  0  0  0  0  0  0
   -7.0965   19.3814  -33.5611 H   0  0  0  0  0  0  0  0  0  0  0  0
   -8.5446   21.1279  -32.4764 H   0  0  0  0  0  0  0  0  0  0  0  0
   -8.4419   23.5392  -30.9492 H   0  0  0  0  0  0  0  0  0  0  0  0
   -5.6870   27.3810  -29.7730 H   0  0  0  0  0  0  0  0  0  0  0  0
   -4.9810   26.4510  -31.1370 H   0  0  0  0  0  0  0  0  0  0  0  0
   -3.5318   21.5224  -32.2496 H   0  0  0  0  0  0  0  0  0  0  0  0
  1  2  3  0
  2  3  1  0
  3  4  1  0
  4  5  2  0
  5  6  1  0
  6  7  2  0
  7  8  1  0
  8  9  2  0
  9 10  1  0
 10 11  1  0
 10 12  2  0
  9 13  1  0
 13 14  1  0
 14 15  2  0
 14 16  1  0
 13 17  1  0
 17 18  2  0
 18  4  1  0
 17  7  1  0
  3 19  1  0
  3 20  1  0
  5 21  1  0
  6 22  1  0
  8 23  1  0
 11 24  1  0
 11 25  1  0
 18 26  1  0
M  CHG  1  16  -1
M  END
>  <UniqueID>  (28) 
28

>  <SMILES>  (28) 
N#CCc1ccc2cc(C(N)=O)n(C(=O)[O-])c2c1

>  <Energy>  (28) 
63.78661701636301

>  <Genealogy>  (28) 
N#CCc1ccc2cc(C(N)=O)n(C(=O)[O-])c2c1 (protonated)
N#CCc1ccc2cc(C(N)=O)n(C(=O)[O-])c2c1 (3D coordinates assigned)
N#CCc1ccc2cc(C(N)=O)n(C(=O)[O-])c2c1 (optimized conformer: 63.78661701636301 kcal/mol)

>  <smiles>  (28) 
N#CCc1ccc2cc(C(N)=O)n(C(=O)O)c2c1

>  <score_type>  (28) 
oracle

>  <origin>  (28) 
adg

>  <m_score__min__energy>  (28) 
-8.6600000000000001

>  <m_primary>  (28) 
energy

$$$$
28:0
     RDKit          3D

 36 38  0  0  0  0  0  0  0  0999 V2000
   -8.5430   22.3070  -31.5600 C   0  0  0  0  0  0  0  0  0  0  0  0
   -8.0340   21.0880  -31.0690 O   0  0  0  0  0  0  0  0  0  0  0  0
   -7.7380   20.2390  -32.1560 C   0  0  0  0  0  0  0  0  0  0  0  0
   -6.6360   20.6920  -33.1460 C   0  0  0  0  0  0  0  0  0  0  0  0
   -5.3020   20.8820  -32.4710 C   0  0  0  0  0  0  0  0  0  0  0  0
   -4.3100   19.8750  -32.5630 C   0  0  0  0  0  0  0  0  0  0  0  0
   -3.0550   20.0510  -31.9580 C   0  0  0  0  0  0  0  0  0  0  0  0
   -2.8170   21.2460  -31.2840 C   0  0  0  0  0  0  0  0  0  0  0  0
   -1.7040   21.6610  -30.5910 C   0  0  0  0  0  0  0  0  0  0  0  0
   -2.0190   22.9310  -30.1180 C   0  0  0  0  0  0  0  0  0  0  0  0
   -1.0680   23.7760  -29.3690 C   0  0  0  0  0  0  0  0  0  0  0  0
   -1.2640   25.1860  -29.2540 N   0  0  0  0  0  0  0  0  0  0  0  0
   -0.0350   23.2540  -28.8720 O   0  0  0  0  0  0  0  0  0  0  0  0
   -3.2820   23.2860  -30.4890 N   0  0  0  0  0  0  0  0  0  0  0  0
   -4.0070   24.4640  -30.0970 C   0  0  0  0  0  0  0  0  0  0  0  0
   -4.7630   24.4440  -29.0910 O   0  0  0  0  0  0  0  0  0  0  0  0
   -3.8750   25.6420  -30.8230 O   0  0  0  0  0  0  0  0  0  0  0  0
   -3.7560   22.2410  -31.2070 C   0  0  0  0  0  0  0  0  0  0  0  0
   -5.0240   22.0830  -31.7810 C   0  0  0  0  0  0  0  0  0  0  0  0
   -7.5490   18.7980  -31.6790 C   0  0  0  0  0  0  0  0  0  0  0  0
   -8.7730   19.1620  -32.4930 C   0  0  0  0  0  0  0  0  0  0  0  0
   -8.8147   22.9576  -30.7156 H   0  0  0  0  0  0  0  0  0  0  0  0
   -7.7770   22.8035  -32.1738 H   0  0  0  0  0  0  0  0  0  0  0  0
   -9.4346   22.1114  -32.1738 H   0  0  0  0  0  0  0  0  0  0  0  0
   -6.5297   19.9281  -33.9304 H   0  0  0  0  0  0  0  0  0  0  0  0
   -6.9406   21.6615  -33.5671 H   0  0  0  0  0  0  0  0  0  0  0  0
   -4.5246   18.9470  -33.1132 H   0  0  0  0  0  0  0  0  0  0  0  0
   -2.2836   19.2689  -32.0148 H   0  0  0  0  0  0  0  0  0  0  0  0
   -0.7653   21.1072  -30.4424 H   0  0  0  0  0  0  0  0  0  0  0  0
   -2.0160   25.6710  -29.7920 H   0  0  0  0  0  0  0  0  0  0  0  0
   -0.6010   25.7630  -28.6910 H   0  0  0  0  0  0  0  0  0  0  0  0
   -5.7839   22.8739  -31.6966 H   0  0  0  0  0  0  0  0  0  0  0  0
   -6.7610   18.1718  -32.1228 H   0  0  0  0  0  0  0  0  0  0  0  0
   -7.3811   18.3201  -30.7026 H   0  0  0  0  0  0  0  0  0  0  0  0
   -8.8724   18.8002  -33.5270 H   0  0  0  0  0  0  0  0  0  0  0  0
   -9.8588   19.0575  -32.3509 H   0  0  0  0  0  0  0  0  0  0  0  0
  1  2  1  0
  2  3  1  0
  3  4  1  0
  4  5  1  0
  5  6  2  0
  6  7  1  0
  7  8  2  0
  8  9  1  0
  9 10  2  0
 10 11  1  0
 11 12  1  0
 11 13  2  0
 10 14  1  0
 14 15  1  0
 15 16  2  0
 15 17  1  0
 14 18  1  0
 18 19  2  0
  3 20  1  0
 20 21  1  0
 21  3  1  0
 19  5  1  0
 18  8  1  0
  1 22  1  0
  1 23  1  0
  1 24  1  0
  4 25  1  0
  4 26  1  0
  6 27  1  0
  7 28  1  0
  9 29  1  0
 12 30  1  0
 12 31  1  0
 19 32  1  0
 20 33  1  0
 20 34  1  0
 21 35  1  0
 21 36  1  0
M  CHG  1  17  -1
M  END
>  <UniqueID>  (29) 
29

>  <SMILES>  (29) 
COC1(Cc2ccc3cc(C(N)=O)n(C(=O)[O-])c3c2)CC1

>  <Energy>  (29) 
346.3844259385903

>  <Genealogy>  (29) 
COC1(Cc2ccc3cc(C(N)=O)n(C(=O)[O-])c3c2)CC1 (protonated)
COC1(Cc2ccc3cc(C(N)=O)n(C(=O)[O-])c3c2)CC1 (3D coordinates assigned)
COC1(Cc2ccc3cc(C(N)=O)n(C(=O)[O-])c3c2)CC1 (nonaromatic ring conformer: 346.3844259385903 kcal/mol)

>  <smiles>  (29) 
COC1(Cc2ccc3cc(C(N)=O)n(C(=O)O)c3c2)CC1

>  <score_type>  (29) 
oracle

>  <origin>  (29) 
adg

>  <m_score__min__energy>  (29) 
-8.9600000000000009

>  <m_primary>  (29) 
energy

$$$$
29:0
     RDKit          3D

 38 40  0  0  0  0  0  0  0  0999 V2000
   -9.6620   21.5880  -30.6430 C   0  0  0  0  0  0  0  0  0  0  0  0
   -8.5530   20.8060  -31.2680 C   0  0  0  0  0  0  0  0  0  0  0  0
   -8.4760   19.4620  -31.2670 N   0  0  0  0  0  0  0  0  0  0  0  0
   -7.3810   19.1650  -31.9970 C   0  0  0  0  0  0  0  0  0  0  0  0
   -6.9670   17.7610  -32.3140 C   0  0  0  0  0  0  0  0  0  0  0  0
   -6.7730   20.2780  -32.4770 N   0  0  0  0  0  0  0  0  0  0  0  0
   -5.6130   20.3460  -33.3710 C   0  0  0  0  0  0  0  0  0  0  0  0
   -4.3890   20.7870  -32.6130 C   0  0  0  0  0  0  0  0  0  0  0  0
   -3.2050   20.0070  -32.6480 C   0  0  0  0  0  0  0  0  0  0  0  0
   -2.0500   20.4290  -31.9710 C   0  0  0  0  0  0  0  0  0  0  0  0
   -2.1100   21.6260  -31.2630 C   0  0  0  0  0  0  0  0  0  0  0  0
   -1.1340   22.2780  -30.5450 C   0  0  0  0  0  0  0  0  0  0  0  0
   -1.7410   23.4360  -30.0620 C   0  0  0  0  0  0  0  0  0  0  0  0
   -1.0640   24.3930  -29.1630 C   0  0  0  0  0  0  0  0  0  0  0  0
   -1.6230   25.6880  -28.9550 N   0  0  0  0  0  0  0  0  0  0  0  0
    0.0220   24.0940  -28.6010 O   0  0  0  0  0  0  0  0  0  0  0  0
   -3.0410   23.5000  -30.4720 N   0  0  0  0  0  0  0  0  0  0  0  0
   -3.9870   24.5580  -30.2460 C   0  0  0  0  0  0  0  0  0  0  0  0
   -3.8650   25.6610  -30.8420 O   0  0  0  0  0  0  0  0  0  0  0  0
   -5.0600   24.3670  -29.3850 O   0  0  0  0  0  0  0  0  0  0  0  0
   -3.2510   22.3830  -31.2030 C   0  0  0  0  0  0  0  0  0  0  0  0
   -4.4110   21.9950  -31.8840 C   0  0  0  0  0  0  0  0  0  0  0  0
   -7.5140   21.3110  -32.0220 C   0  0  0  0  0  0  0  0  0  0  0  0
   -7.2220   23.0100  -32.3720 Cl  0  0  0  0  0  0  0  0  0  0  0  0
   -9.5796   21.5299  -29.5476 H   0  0  0  0  0  0  0  0  0  0  0  0
   -9.5939   22.6389  -30.9606 H   0  0  0  0  0  0  0  0  0  0  0  0
  -10.6290   21.1709  -30.9606 H   0  0  0  0  0  0  0  0  0  0  0  0
   -9.1400   18.7910  -30.8200 H   0  0  0  0  0  0  0  0  0  0  0  0
   -6.8036   17.2067  -31.3780 H   0  0  0  0  0  0  0  0  0  0  0  0
   -7.7582   17.2685  -32.8984 H   0  0  0  0  0  0  0  0  0  0  0  0
   -6.0352   17.7766  -32.8984 H   0  0  0  0  0  0  0  0  0  0  0  0
   -5.4315   19.3516  -33.8049 H   0  0  0  0  0  0  0  0  0  0  0  0
   -5.8201   21.0752  -34.1681 H   0  0  0  0  0  0  0  0  0  0  0  0
   -3.1917   19.0622  -33.2111 H   0  0  0  0  0  0  0  0  0  0  0  0
   -1.1263   19.8324  -31.9991 H   0  0  0  0  0  0  0  0  0  0  0  0
   -0.0949   21.9540  -30.3859 H   0  0  0  0  0  0  0  0  0  0  0  0
   -2.6530   25.8450  -29.0160 H   0  0  0  0  0  0  0  0  0  0  0  0
   -5.3178   22.6169  -31.8516 H   0  0  0  0  0  0  0  0  0  0  0  0
  1  2  1  0
  2  3  1  0
  3  4  2  0
  4  5  1  0
  4  6  1  0
  6  7  1  0
  7  8  1  0
  8  9  2  0
  9 10  1  0
 10 11  2  0
 11 12  1  0
 12 13  2  0
 13 14  1  0
 14 15  1  0
 14 16  2  0
 13 17  1  0
 17 18  1  0
 18 19  2  0
 18 20  1  0
 17 21  1  0
 21 22  2  0
  6 23  1  0
 23 24  1  0
 23  2  2  0
 22  8  1  0
 21 11  1  0
  1 25  1  0
  1 26  1  0
  1 27  1  0
  3 28  1  0
  5 29  1  0
  5 30  1  0
  5 31  1  0
  7 32  1  0
  7 33  1  0
  9 34  1  0
 10 35  1  0
 12 36  1  0
 15 37  1  0
 22 38  1  0
M  CHG  3   3   1  15  -1  20  -1
M  END
>  <UniqueID>  (30) 
30

>  <SMILES>  (30) 
Cc1[nH+]c(C)n(Cc2ccc3cc(C([NH-])=O)n(C(=O)[O-])c3c2)c1Cl

>  <Energy>  (30) 
106.85573163773202

>  <Genealogy>  (30) 
Cc1[nH+]c(C)n(Cc2ccc3cc(C([NH-])=O)n(C(=O)[O-])c3c2)c1Cl (protonated)
Cc1[nH+]c(C)n(Cc2ccc3cc(C([NH-])=O)n(C(=O)[O-])c3c2)c1Cl (3D coordinates assigned)
Cc1[nH+]c(C)n(Cc2ccc3cc(C([NH-])=O)n(C(=O)[O-])c3c2)c1Cl (optimized conformer: 106.85573163773202 kcal/mol)

>  <smiles>  (30) 
Cc1nc(C)n(Cc2ccc3cc(C(N)=O)n(C(=O)O)c3c2)c1Cl

>  <score_type>  (30) 
oracle

>  <origin>  (30) 
adg

>  <m_score__min__energy>  (30) 
-12.380000000000001

>  <m_primary>  (30) 
energy

$$$$
30:0
     RDKit          3D

 31 32  0  0  0  0  0  0  0  0999 V2000
   -3.8910   25.6510  -30.8490 N   0  0  0  0  0  0  0  0  0  0  0  0
   -5.2130   25.3340  -30.4220 C   0  0  0  0  0  0  0  0  0  0  0  0
   -5.8060   26.1130  -29.6280 O   0  0  0  0  0  0  0  0  0  0  0  0
   -5.8800   24.0910  -30.8640 C   0  0  0  0  0  0  0  0  0  0  0  0
   -7.2600   23.9730  -31.0200 C   0  0  0  0  0  0  0  0  0  0  0  0
   -7.4770   22.6610  -31.3770 C   0  0  0  0  0  0  0  0  0  0  0  0
   -8.6640   21.9960  -31.6690 C   0  0  0  0  0  0  0  0  0  0  0  0
   -8.5870   20.6430  -32.0390 C   0  0  0  0  0  0  0  0  0  0  0  0
   -7.3330   19.9890  -32.1240 C   0  0  0  0  0  0  0  0  0  0  0  0
   -7.2590   18.5330  -32.5100 C   0  0  0  0  0  0  0  0  0  0  0  0
   -5.8330   18.1120  -32.8930 C   0  0  0  0  0  0  0  0  0  0  0  0
   -5.6110   18.1180  -34.4100 C   0  0  0  0  0  0  0  0  0  0  0  0
   -6.1060   19.3050  -34.9670 O   0  0  0  0  0  0  0  0  0  0  0  0
   -6.1490   20.6960  -31.8190 C   0  0  0  0  0  0  0  0  0  0  0  0
   -6.2580   22.0350  -31.4310 C   0  0  0  0  0  0  0  0  0  0  0  0
   -5.2690   22.8990  -31.1160 N   0  0  0  0  0  0  0  0  0  0  0  0
   -3.8620   22.6210  -31.1230 C   0  0  0  0  0  0  0  0  0  0  0  0
   -3.1150   23.1150  -30.2380 O   0  0  0  0  0  0  0  0  0  0  0  0
   -3.1450   21.5480  -32.3830 S   0  0  0  0  0  0  0  0  0  0  0  0
   -3.0580   25.2930  -30.3300 H   0  0  0  0  0  0  0  0  0  0  0  0
   -8.0157   24.7611  -30.8862 H   0  0  0  0  0  0  0  0  0  0  0  0
   -9.6328   22.5139  -31.6119 H   0  0  0  0  0  0  0  0  0  0  0  0
   -9.5085   20.0863  -32.2647 H   0  0  0  0  0  0  0  0  0  0  0  0
   -7.5931   17.9222  -31.6583 H   0  0  0  0  0  0  0  0  0  0  0  0
   -7.9057   18.3803  -33.3866 H   0  0  0  0  0  0  0  0  0  0  0  0
   -5.1214   18.8107  -32.4288 H   0  0  0  0  0  0  0  0  0  0  0  0
   -5.6787   17.0835  -32.5349 H   0  0  0  0  0  0  0  0  0  0  0  0
   -4.5341   18.0396  -34.6199 H   0  0  0  0  0  0  0  0  0  0  0  0
   -6.1434   17.2639  -34.8540 H   0  0  0  0  0  0  0  0  0  0  0  0
   -6.8420   19.0450  -35.5810 H   0  0  0  0  0  0  0  0  0  0  0  0
   -5.1664   20.2059  -31.8850 H   0  0  0  0  0  0  0  0  0  0  0  0
  1  2  1  0
  2  3  2  0
  2  4  1  0
  4  5  2  0
  5  6  1  0
  6  7  2  0
  7  8  1  0
  8  9  2  0
  9 10  1  0
 10 11  1  0
 11 12  1  0
 12 13  1  0
  9 14  1  0
 14 15  2  0
 15 16  1  0
 16 17  1  0
 17 18  2  0
 17 19  1  0
 16  4  1  0
 15  6  1  0
  1 20  1  0
  5 21  1  0
  7 22  1  0
  8 23  1  0
 10 24  1  0
 10 25  1  0
 11 26  1  0
 11 27  1  0
 12 28  1  0
 12 29  1  0
 13 30  1  0
 14 31  1  0
M  CHG  2   1  -1  19  -1
M  END
>  <UniqueID>  (31) 
31

>  <SMILES>  (31) 
[NH-]C(=O)c1cc2ccc(CCCO)cc2n1C(=O)[S-]

>  <Energy>  (31) 
66.82249459741237

>  <Genealogy>  (31) 
[NH-]C(=O)c1cc2ccc(CCCO)cc2n1C(=O)[S-] (protonated)
[NH-]C(=O)c1cc2ccc(CCCO)cc2n1C(=O)[S-] (3D coordinates assigned)
[NH-]C(=O)c1cc2ccc(CCCO)cc2n1C(=O)[S-] (optimized conformer: 66.82249459741237 kcal/mol)

>  <smiles>  (31) 
NC(=O)c1cc2ccc(CCCO)cc2n1C(=O)S

>  <score_type>  (31) 
oracle

>  <origin>  (31) 
adg

>  <m_score__min__energy>  (31) 
-10.19

>  <m_primary>  (31) 
energy

$$$$
31:0
     RDKit          3D

 31 33  0  0  0  0  0  0  0  0999 V2000
   -3.9190   25.6690  -30.8450 N   0  0  0  0  0  0  0  0  0  0  0  0
   -5.1530   25.0260  -30.5330 C   0  0  0  0  0  0  0  0  0  0  0  0
   -5.9520   25.5800  -29.7340 O   0  0  0  0  0  0  0  0  0  0  0  0
   -5.4590   23.7020  -31.1130 C   0  0  0  0  0  0  0  0  0  0  0  0
   -6.7400   23.3110  -31.4980 C   0  0  0  0  0  0  0  0  0  0  0  0
   -6.5860   22.0680  -32.0670 C   0  0  0  0  0  0  0  0  0  0  0  0
   -7.5370   21.2080  -32.6080 C   0  0  0  0  0  0  0  0  0  0  0  0
   -7.1010   19.9670  -33.1010 C   0  0  0  0  0  0  0  0  0  0  0  0
   -5.7290   19.6100  -33.0450 C   0  0  0  0  0  0  0  0  0  0  0  0
   -5.2900   18.2870  -33.5430 C   0  0  0  0  0  0  0  0  0  0  0  0
   -4.6790   18.1940  -34.8020 C   0  0  0  0  0  0  0  0  0  0  0  0
   -4.2730   16.9550  -35.2950 C   0  0  0  0  0  0  0  0  0  0  0  0
   -4.4750   15.8130  -34.5220 C   0  0  0  0  0  0  0  0  0  0  0  0
   -5.0560   15.9100  -33.2980 N   0  0  0  0  0  0  0  0  0  0  0  0
   -5.4650   17.1060  -32.7880 C   0  0  0  0  0  0  0  0  0  0  0  0
   -6.1430   17.1420  -31.1620 Cl  0  0  0  0  0  0  0  0  0  0  0  0
   -4.7950   20.5050  -32.4760 C   0  0  0  0  0  0  0  0  0  0  0  0
   -5.2560   21.7420  -32.0110 C   0  0  0  0  0  0  0  0  0  0  0  0
   -4.5490   22.7340  -31.4240 N   0  0  0  0  0  0  0  0  0  0  0  0
   -3.1420   22.7220  -31.1300 C   0  0  0  0  0  0  0  0  0  0  0  0
   -2.7140   23.2080  -30.0500 O   0  0  0  0  0  0  0  0  0  0  0  0
   -2.2380   22.2000  -32.0470 O   0  0  0  0  0  0  0  0  0  0  0  0
   -3.0140   25.2980  -30.4810 H   0  0  0  0  0  0  0  0  0  0  0  0
   -7.6755   23.8762  -31.3734 H   0  0  0  0  0  0  0  0  0  0  0  0
   -8.5990   21.4917  -32.6484 H   0  0  0  0  0  0  0  0  0  0  0  0
   -7.8296   19.2659  -33.5342 H   0  0  0  0  0  0  0  0  0  0  0  0
   -4.5197   19.1018  -35.4024 H   0  0  0  0  0  0  0  0  0  0  0  0
   -3.7979   16.8793  -36.2842 H   0  0  0  0  0  0  0  0  0  0  0  0
   -4.1629   14.8299  -34.9043 H   0  0  0  0  0  0  0  0  0  0  0  0
   -5.1840   15.0400  -32.7320 H   0  0  0  0  0  0  0  0  0  0  0  0
   -3.7311   20.2359  -32.4004 H   0  0  0  0  0  0  0  0  0  0  0  0
  1  2  1  0
  2  3  2  0
  2  4  1  0
  4  5  2  0
  5  6  1  0
  6  7  2  0
  7  8  1  0
  8  9  2  0
  9 10  1  0
 10 11  2  0
 11 12  1  0
 12 13  2  0
 13 14  1  0
 14 15  2  0
 15 16  1  0
  9 17  1  0
 17 18  2  0
 18 19  1  0
 19 20  1  0
 20 21  2  0
 20 22  1  0
 19  4  1  0
 18  6  1  0
 15 10  1  0
  1 23  1  0
  5 24  1  0
  7 25  1  0
  8 26  1  0
 11 27  1  0
 12 28  1  0
 13 29  1  0
 14 30  1  0
 17 31  1  0
M  CHG  3   1  -1  14   1  22  -1
M  END
>  <UniqueID>  (32) 
32

>  <SMILES>  (32) 
[NH-]C(=O)c1cc2ccc(-c3ccc[nH+]c3Cl)cc2n1C(=O)[O-]

>  <Energy>  (32) 
80.78466209217692

>  <Genealogy>  (32) 
[NH-]C(=O)c1cc2ccc(-c3ccc[nH+]c3Cl)cc2n1C(=O)[O-] (protonated)
[NH-]C(=O)c1cc2ccc(-c3ccc[nH+]c3Cl)cc2n1C(=O)[O-] (3D coordinates assigned)
[NH-]C(=O)c1cc2ccc(-c3ccc[nH+]c3Cl)cc2n1C(=O)[O-] (optimized conformer: 80.78466209217692 kcal/mol)

>  <smiles>  (32) 
NC(=O)c1cc2ccc(-c3cccnc3Cl)cc2n1C(=O)O

>  <score_type>  (32) 
oracle

>  <origin>  (32) 
adg

>  <m_score__min__energy>  (32) 
-11.19

>  <m_primary>  (32) 
energy

$$$$
32:0
     RDKit          3D

 50 52  0  0  0  0  0  0  0  0999 V2000
   -6.6230   23.5820  -30.2910 C   0  0  0  0  0  0  0  0  0  0  0  0
   -5.3160   23.3200  -29.5510 C   0  0  0  0  0  0  0  0  0  0  0  0
   -4.1550   23.8160  -30.3570 C   0  0  0  0  0  0  0  0  0  0  0  0
   -4.1810   24.9790  -30.8420 O   0  0  0  0  0  0  0  0  0  0  0  0
   -2.9690   23.0200  -30.4850 N   0  0  0  0  0  0  0  0  0  0  0  0
   -1.7770   23.1780  -29.8470 C   0  0  0  0  0  0  0  0  0  0  0  0
   -1.4820   24.1930  -28.8150 C   0  0  0  0  0  0  0  0  0  0  0  0
   -1.9640   25.5250  -28.9690 N   0  0  0  0  0  0  0  0  0  0  0  0
   -0.7900   23.9000  -27.8040 O   0  0  0  0  0  0  0  0  0  0  0  0
   -0.8760   22.1950  -30.2540 C   0  0  0  0  0  0  0  0  0  0  0  0
   -1.5640   21.4210  -31.1620 C   0  0  0  0  0  0  0  0  0  0  0  0
   -1.1650   20.2900  -31.8690 C   0  0  0  0  0  0  0  0  0  0  0  0
   -2.0990   19.6880  -32.7310 C   0  0  0  0  0  0  0  0  0  0  0  0
   -3.3970   20.2370  -32.8850 C   0  0  0  0  0  0  0  0  0  0  0  0
   -4.4090   19.5570  -33.7710 C   0  0  0  0  0  0  0  0  0  0  0  0
   -5.3290   18.6320  -32.9610 C   0  0  0  0  0  0  0  0  0  0  0  0
   -6.4140   19.4000  -32.3130 N   0  0  0  0  0  0  0  0  0  0  0  0
   -7.5480   18.5250  -31.9560 C   0  0  0  0  0  0  0  0  0  0  0  0
   -8.7570   19.3420  -31.4540 C   0  0  0  0  0  0  0  0  0  0  0  0
   -8.3480   20.7240  -31.1480 N   0  0  0  0  0  0  0  0  0  0  0  0
   -9.4670   21.4740  -30.5570 C   0  0  0  0  0  0  0  0  0  0  0  0
   -7.8640   21.4030  -32.3700 C   0  0  0  0  0  0  0  0  0  0  0  0
   -6.8800   20.5160  -33.1590 C   0  0  0  0  0  0  0  0  0  0  0  0
   -3.7660   21.3840  -32.1500 C   0  0  0  0  0  0  0  0  0  0  0  0
   -2.8240   21.9440  -31.2830 C   0  0  0  0  0  0  0  0  0  0  0  0
   -7.4309   23.7439  -29.5622 H   0  0  0  0  0  0  0  0  0  0  0  0
   -6.5140   24.4762  -30.9223 H   0  0  0  0  0  0  0  0  0  0  0  0
   -6.8671   22.7149  -30.9223 H   0  0  0  0  0  0  0  0  0  0  0  0
   -5.3357   23.8424  -28.5832 H   0  0  0  0  0  0  0  0  0  0  0  0
   -5.2052   22.2372  -29.3920 H   0  0  0  0  0  0  0  0  0  0  0  0
   -2.9540   25.7080  -29.2470 H   0  0  0  0  0  0  0  0  0  0  0  0
    0.1642   22.0651  -29.9205 H   0  0  0  0  0  0  0  0  0  0  0  0
   -0.1505   19.8799  -31.7568 H   0  0  0  0  0  0  0  0  0  0  0  0
   -1.8199   18.7831  -33.2907 H   0  0  0  0  0  0  0  0  0  0  0  0
   -5.0207   20.3233  -34.2697 H   0  0  0  0  0  0  0  0  0  0  0  0
   -3.8687   18.9477  -34.5105 H   0  0  0  0  0  0  0  0  0  0  0  0
   -5.7709   17.8837  -33.6353 H   0  0  0  0  0  0  0  0  0  0  0  0
   -4.7317   18.1405  -32.1789 H   0  0  0  0  0  0  0  0  0  0  0  0
   -7.8492   17.9501  -32.8441 H   0  0  0  0  0  0  0  0  0  0  0  0
   -7.2247   17.8544  -31.1462 H   0  0  0  0  0  0  0  0  0  0  0  0
   -9.5334   19.3573  -32.2331 H   0  0  0  0  0  0  0  0  0  0  0  0
   -9.1504   18.8742  -30.5394 H   0  0  0  0  0  0  0  0  0  0  0  0
   -9.3998   21.4290  -29.4600 H   0  0  0  0  0  0  0  0  0  0  0  0
   -9.4189   22.5230  -30.8845 H   0  0  0  0  0  0  0  0  0  0  0  0
  -10.4190   21.0309  -30.8845 H   0  0  0  0  0  0  0  0  0  0  0  0
   -8.7253   21.6396  -33.0121 H   0  0  0  0  0  0  0  0  0  0  0  0
   -7.3359   22.3196  -32.0686 H   0  0  0  0  0  0  0  0  0  0  0  0
   -7.3866   20.1120  -34.0479 H   0  0  0  0  0  0  0  0  0  0  0  0
   -6.0145   21.1220  -33.4650 H   0  0  0  0  0  0  0  0  0  0  0  0
   -4.7680   21.8252  -32.2568 H   0  0  0  0  0  0  0  0  0  0  0  0
  1  2  1  0
  2  3  1  0
  3  4  2  0
  3  5  1  0
  5  6  1  0
  6  7  1  0
  7  8  1  0
  7  9  2  0
  6 10  2  0
 10 11  1  0
 11 12  2  0
 12 13  1  0
 13 14  2  0
 14 15  1  0
 15 16  1  0
 16 17  1  0
 17 18  1  0
 18 19  1  0
 19 20  1  0
 20 21  1  0
 20 22  1  0
 22 23  1  0
 14 24  1  0
 24 25  2  0
 25  5  1  0
 25 11  1  0
 23 17  1  0
  1 26  1  0
  1 27  1  0
  1 28  1  0
  2 29  1  0
  2 30  1  0
  8 31  1  0
 10 32  1  0
 12 33  1  0
 13 34  1  0
 15 35  1  0
 15 36  1  0
 16 37  1  0
 16 38  1  0
 18 39  1  0
 18 40  1  0
 19 41  1  0
 19 42  1  0
 21 43  1  0
 21 44  1  0
 21 45  1  0
 22 46  1  0
 22 47  1  0
 23 48  1  0
 23 49  1  0
 24 50  1  0
M  CHG  1   8  -1
M  END
>  <UniqueID>  (33) 
33

>  <SMILES>  (33) 
CCC(=O)n1c(C([NH-])=O)cc2ccc(CCN3CCN(C)CC3)cc21

>  <Energy>  (33) 
90.4390141659689

>  <Genealogy>  (33) 
CCC(=O)n1c(C([NH-])=O)cc2ccc(CCN3CCN(C)CC3)cc21 (protonated)
CCC(=O)n1c(C([NH-])=O)cc2ccc(CCN3CCN(C)CC3)cc21 (3D coordinates assigned)
CCC(=O)n1c(C([NH-])=O)cc2ccc(CCN3CCN(C)CC3)cc21 (nonaromatic ring conformer: 90.4390141659689 kcal/mol)

>  <smiles>  (33) 
CCC(=O)n1c(C(N)=O)cc2ccc(CCN3CCN(C)CC3)cc21

>  <score_type>  (33) 
oracle

>  <origin>  (33) 
adg

>  <m_score__min__energy>  (33) 
-11.44

>  <m_primary>  (33) 
energy

$$$$
33:0
     RDKit          3D

 28 29  0  0  0  0  0  0  0  0999 V2000
   -3.4190   22.9440  -28.7590 C   0  0  0  0  0  0  0  0  0  0  0  0
   -2.9460   23.1430  -30.0850 O   0  0  0  0  0  0  0  0  0  0  0  0
   -3.6690   22.7410  -31.2130 C   0  0  0  0  0  0  0  0  0  0  0  0
   -3.0810   22.1860  -32.1810 O   0  0  0  0  0  0  0  0  0  0  0  0
   -5.0910   22.9410  -31.2580 N   0  0  0  0  0  0  0  0  0  0  0  0
   -5.7900   24.0470  -30.8730 C   0  0  0  0  0  0  0  0  0  0  0  0
   -5.2060   25.3430  -30.4690 C   0  0  0  0  0  0  0  0  0  0  0  0
   -3.8660   25.6630  -30.8400 N   0  0  0  0  0  0  0  0  0  0  0  0
   -5.8630   26.1570  -29.7690 O   0  0  0  0  0  0  0  0  0  0  0  0
   -7.1600   23.8260  -30.9930 C   0  0  0  0  0  0  0  0  0  0  0  0
   -7.2820   22.5420  -31.4720 C   0  0  0  0  0  0  0  0  0  0  0  0
   -8.4230   21.8060  -31.7770 C   0  0  0  0  0  0  0  0  0  0  0  0
   -8.2540   20.4900  -32.2380 C   0  0  0  0  0  0  0  0  0  0  0  0
   -6.9580   19.9250  -32.3620 C   0  0  0  0  0  0  0  0  0  0  0  0
   -6.7890   18.5240  -32.8950 C   0  0  0  0  0  0  0  0  0  0  0  0
   -6.4450   18.5500  -34.2350 F   0  0  0  0  0  0  0  0  0  0  0  0
   -5.7910   17.8860  -32.1850 F   0  0  0  0  0  0  0  0  0  0  0  0
   -7.9650   17.8070  -32.7640 F   0  0  0  0  0  0  0  0  0  0  0  0
   -5.8230   20.7150  -32.0640 C   0  0  0  0  0  0  0  0  0  0  0  0
   -6.0200   22.0280  -31.6230 C   0  0  0  0  0  0  0  0  0  0  0  0
   -2.6495   23.2678  -28.0428 H   0  0  0  0  0  0  0  0  0  0  0  0
   -4.3350   23.5330  -28.6042 H   0  0  0  0  0  0  0  0  0  0  0  0
   -3.6384   21.8773  -28.6042 H   0  0  0  0  0  0  0  0  0  0  0  0
   -3.0570   25.2960  -30.2920 H   0  0  0  0  0  0  0  0  0  0  0  0
   -7.9721   24.5289  -30.7553 H   0  0  0  0  0  0  0  0  0  0  0  0
   -9.4264   22.2415  -31.6606 H   0  0  0  0  0  0  0  0  0  0  0  0
   -9.1364   19.8904  -32.5060 H   0  0  0  0  0  0  0  0  0  0  0  0
   -4.8081   20.3060  -32.1765 H   0  0  0  0  0  0  0  0  0  0  0  0
  1  2  1  0
  2  3  1  0
  3  4  2  0
  3  5  1  0
  5  6  1  0
  6  7  1  0
  7  8  1  0
  7  9  2  0
  6 10  2  0
 10 11  1  0
 11 12  2  0
 12 13  1  0
 13 14  2  0
 14 15  1  0
 15 16  1  0
 15 17  1  0
 15 18  1  0
 14 19  1  0
 19 20  2  0
 20  5  1  0
 20 11  1  0
  1 21  1  0
  1 22  1  0
  1 23  1  0
  8 24  1  0
 10 25  1  0
 12 26  1  0
 13 27  1  0
 19 28  1  0
M  CHG  1   8  -1
M  END
>  <UniqueID>  (34) 
34

>  <SMILES>  (34) 
COC(=O)n1c(C([NH-])=O)cc2ccc(C(F)(F)F)cc21

>  <Energy>  (34) 
65.86795829916201

>  <Genealogy>  (34) 
COC(=O)n1c(C([NH-])=O)cc2ccc(C(F)(F)F)cc21 (protonated)
COC(=O)n1c(C([NH-])=O)cc2ccc(C(F)(F)F)cc21 (3D coordinates assigned)
COC(=O)n1c(C([NH-])=O)cc2ccc(C(F)(F)F)cc21 (optimized conformer: 65.86795829916201 kcal/mol)

>  <smiles>  (34) 
COC(=O)n1c(C(N)=O)cc2ccc(C(F)(F)F)cc21

>  <score_type>  (34) 
oracle

>  <origin>  (34) 
adg

>  <m_score__min__energy>  (34) 
-8.7599999999999998

>  <m_primary>  (34) 
energy

$$$$
34:0
     RDKit          3D

 37 39  0  0  0  0  0  0  0  0999 V2000
   -3.2360   23.3890  -28.2060 C   0  0  0  0  0  0  0  0  0  0  0  0
   -2.8440   24.3290  -29.2950 C   0  0  0  0  0  0  0  0  0  0  0  0
   -2.0670   25.2890  -29.0380 O   0  0  0  0  0  0  0  0  0  0  0  0
   -3.3790   24.1480  -30.5780 O   0  0  0  0  0  0  0  0  0  0  0  0
   -3.9930   22.9780  -31.0430 C   0  0  0  0  0  0  0  0  0  0  0  0
   -3.2930   21.9680  -31.3210 O   0  0  0  0  0  0  0  0  0  0  0  0
   -5.4220   22.9510  -31.2560 N   0  0  0  0  0  0  0  0  0  0  0  0
   -6.3370   23.8810  -30.8480 C   0  0  0  0  0  0  0  0  0  0  0  0
   -6.0350   25.1990  -30.2640 C   0  0  0  0  0  0  0  0  0  0  0  0
   -4.9660   25.9940  -30.7740 N   0  0  0  0  0  0  0  0  0  0  0  0
   -6.7770   25.6590  -29.3560 O   0  0  0  0  0  0  0  0  0  0  0  0
   -7.6350   23.4270  -31.0470 C   0  0  0  0  0  0  0  0  0  0  0  0
   -7.5000   22.1890  -31.6260 C   0  0  0  0  0  0  0  0  0  0  0  0
   -8.4780   21.2980  -32.0540 C   0  0  0  0  0  0  0  0  0  0  0  0
   -8.0620   20.0920  -32.6370 C   0  0  0  0  0  0  0  0  0  0  0  0
   -6.6830   19.7990  -32.7960 C   0  0  0  0  0  0  0  0  0  0  0  0
   -6.2530   18.5260  -33.4300 C   0  0  0  0  0  0  0  0  0  0  0  0
   -5.1670   18.4990  -34.3210 C   0  0  0  0  0  0  0  0  0  0  0  0
   -4.7790   17.2900  -34.9030 C   0  0  0  0  0  0  0  0  0  0  0  0
   -5.4470   16.1450  -34.6080 N   0  0  0  0  0  0  0  0  0  0  0  0
   -6.5010   16.1360  -33.7500 C   0  0  0  0  0  0  0  0  0  0  0  0
   -6.9230   17.3220  -33.1450 C   0  0  0  0  0  0  0  0  0  0  0  0
   -5.7190   20.7350  -32.3500 C   0  0  0  0  0  0  0  0  0  0  0  0
   -6.1590   21.9230  -31.7480 C   0  0  0  0  0  0  0  0  0  0  0  0
   -3.0409   23.8569  -27.2298 H   0  0  0  0  0  0  0  0  0  0  0  0
   -4.3071   23.1540  -28.2924 H   0  0  0  0  0  0  0  0  0  0  0  0
   -2.6492   22.4626  -28.2924 H   0  0  0  0  0  0  0  0  0  0  0  0
   -4.7540   26.9250  -30.3500 H   0  0  0  0  0  0  0  0  0  0  0  0
   -4.4170   25.6800  -31.6050 H   0  0  0  0  0  0  0  0  0  0  0  0
   -8.5705   23.9477  -30.7948 H   0  0  0  0  0  0  0  0  0  0  0  0
   -9.5466   21.5321  -31.9387 H   0  0  0  0  0  0  0  0  0  0  0  0
   -8.8144   19.3643  -32.9752 H   0  0  0  0  0  0  0  0  0  0  0  0
   -4.6247   19.4259  -34.5592 H   0  0  0  0  0  0  0  0  0  0  0  0
   -3.9301   17.2652  -35.6021 H   0  0  0  0  0  0  0  0  0  0  0  0
   -7.0228   15.1926  -33.5316 H   0  0  0  0  0  0  0  0  0  0  0  0
   -7.7749   17.3148  -32.4492 H   0  0  0  0  0  0  0  0  0  0  0  0
   -4.6445   20.5342  -32.4733 H   0  0  0  0  0  0  0  0  0  0  0  0
  1  2  1  0
  2  3  2  0
  2  4  1  0
  4  5  1  0
  5  6  2  0
  5  7  1  0
  7  8  1  0
  8  9  1  0
  9 10  1  0
  9 11  2  0
  8 12  2  0
 12 13  1  0
 13 14  2  0
 14 15  1  0
 15 16  2  0
 16 17  1  0
 17 18  2  0
 18 19  1  0
 19 20  2  0
 20 21  1  0
 21 22  2  0
 16 23  1  0
 23 24  2  0
 24  7  1  0
 24 13  1  0
 22 17  1  0
  1 25  1  0
  1 26  1  0
  1 27  1  0
 10 28  1  0
 10 29  1  0
 12 30  1  0
 14 31  1  0
 15 32  1  0
 18 33  1  0
 19 34  1  0
 21 35  1  0
 22 36  1  0
 23 37  1  0
M  END
>  <UniqueID>  (35) 
35

>  <SMILES>  (35) 
CC(=O)OC(=O)n1c(C(N)=O)cc2ccc(-c3ccncc3)cc21

>  <Energy>  (35) 
86.92458819791068

>  <Genealogy>  (35) 
CC(=O)OC(=O)n1c(C(N)=O)cc2ccc(-c3ccncc3)cc21 (3D coordinates assigned)
CC(=O)OC(=O)n1c(C(N)=O)cc2ccc(-c3ccncc3)cc21 (optimized conformer: 86.92458819791068 kcal/mol)

>  <smiles>  (35) 
CC(=O)OC(=O)n1c(C(N)=O)cc2ccc(-c3ccncc3)cc21

>  <score_type>  (35) 
oracle

>  <origin>  (35) 
adg

>  <m_score__min__energy>  (35) 
-9.8200000000000003

>  <m_primary>  (35) 
energy

$$$$
35:0
     RDKit          3D

 32 34  0  0  0  0  0  0  0  0999 V2000
   -4.1980   18.9020  -34.1960 C   0  0  0  0  0  0  0  0  0  0  0  0
   -5.3910   18.0980  -33.7910 C   0  0  0  0  0  0  0  0  0  0  0  0
   -5.5280   16.8190  -34.0560 O   0  0  0  0  0  0  0  0  0  0  0  0
   -6.6440   16.3540  -33.5740 N   0  0  0  0  0  0  0  0  0  0  0  0
   -7.2740   17.3760  -32.9630 C   0  0  0  0  0  0  0  0  0  0  0  0
   -6.5100   18.5210  -33.0900 C   0  0  0  0  0  0  0  0  0  0  0  0
   -6.8370   19.8630  -32.5590 C   0  0  0  0  0  0  0  0  0  0  0  0
   -8.1910   20.2780  -32.4870 C   0  0  0  0  0  0  0  0  0  0  0  0
   -8.5290   21.5420  -31.9780 C   0  0  0  0  0  0  0  0  0  0  0  0
   -7.4950   22.3770  -31.5670 C   0  0  0  0  0  0  0  0  0  0  0  0
   -7.5470   23.6400  -31.0260 C   0  0  0  0  0  0  0  0  0  0  0  0
   -6.2220   23.9910  -30.7910 C   0  0  0  0  0  0  0  0  0  0  0  0
   -5.8260   25.2930  -30.2300 C   0  0  0  0  0  0  0  0  0  0  0  0
   -6.4380   25.7910  -29.0410 N   0  0  0  0  0  0  0  0  0  0  0  0
   -4.9900   26.0050  -30.8460 O   0  0  0  0  0  0  0  0  0  0  0  0
   -5.3740   23.0020  -31.1950 N   0  0  0  0  0  0  0  0  0  0  0  0
   -3.9350   23.0640  -31.2670 C   0  0  0  0  0  0  0  0  0  0  0  0
   -3.2150   24.0460  -30.5240 N   0  0  0  0  0  0  0  0  0  0  0  0
   -3.2920   22.2310  -31.9570 O   0  0  0  0  0  0  0  0  0  0  0  0
   -6.1760   22.0110  -31.6560 C   0  0  0  0  0  0  0  0  0  0  0  0
   -5.8140   20.7470  -32.1430 C   0  0  0  0  0  0  0  0  0  0  0  0
   -3.6723   19.2563  -33.2971 H   0  0  0  0  0  0  0  0  0  0  0  0
   -3.5199   18.2759  -34.7945 H   0  0  0  0  0  0  0  0  0  0  0  0
   -4.5238   19.7655  -34.7945 H   0  0  0  0  0  0  0  0  0  0  0  0
   -8.2423   17.3099  -32.4454 H   0  0  0  0  0  0  0  0  0  0  0  0
   -8.9860   19.6015  -32.8341 H   0  0  0  0  0  0  0  0  0  0  0  0
   -9.5789   21.8622  -31.9064 H   0  0  0  0  0  0  0  0  0  0  0  0
   -8.4441   24.2433  -30.8227 H   0  0  0  0  0  0  0  0  0  0  0  0
   -6.1410   26.7090  -28.6420 H   0  0  0  0  0  0  0  0  0  0  0  0
   -7.2280   25.2770  -28.5920 H   0  0  0  0  0  0  0  0  0  0  0  0
   -3.1190   25.0240  -30.8770 H   0  0  0  0  0  0  0  0  0  0  0  0
   -4.7567   20.4490  -32.2004 H   0  0  0  0  0  0  0  0  0  0  0  0
  1  2  1  0
  2  3  1  0
  3  4  1  0
  4  5  2  0
  5  6  1  0
  6  7  1  0
  7  8  2  0
  8  9  1  0
  9 10  2  0
 10 11  1  0
 11 12  2  0
 12 13  1  0
 13 14  1  0
 13 15  2  0
 12 16  1  0
 16 17  1  0
 17 18  1  0
 17 19  2  0
 16 20  1  0
 20 21  2  0
  6  2  2  0
 21  7  1  0
 20 10  1  0
  1 22  1  0
  1 23  1  0
  1 24  1  0
  5 25  1  0
  8 26  1  0
  9 27  1  0
 11 28  1  0
 14 29  1  0
 14 30  1  0
 18 31  1  0
 21 32  1  0
M  CHG  1  18  -1
M  END
>  <UniqueID>  (36) 
36

>  <SMILES>  (36) 
Cc1oncc1-c1ccc2cc(C(N)=O)n(C([NH-])=O)c2c1

>  <Energy>  (36) 
110.74528363503005

>  <Genealogy>  (36) 
Cc1oncc1-c1ccc2cc(C(N)=O)n(C([NH-])=O)c2c1 (protonated)
Cc1oncc1-c1ccc2cc(C(N)=O)n(C([NH-])=O)c2c1 (3D coordinates assigned)
Cc1oncc1-c1ccc2cc(C(N)=O)n(C([NH-])=O)c2c1 (optimized conformer: 110.74528363503005 kcal/mol)

>  <smiles>  (36) 
Cc1oncc1-c1ccc2cc(C(N)=O)n(C(N)=O)c2c1

>  <score_type>  (36) 
oracle

>  <origin>  (36) 
adg

>  <m_score__min__energy>  (36) 
-9.3499999999999996

>  <m_primary>  (36) 
energy

$$$$
36:0
     RDKit          3D

 27 28  0  0  0  0  0  0  0  0999 V2000
   -3.3410   22.1290  -29.6650 C   0  0  0  0  0  0  0  0  0  0  0  0
   -4.0450   22.3720  -30.9610 C   0  0  0  0  0  0  0  0  0  0  0  0
   -3.4010   22.2800  -32.0390 O   0  0  0  0  0  0  0  0  0  0  0  0
   -5.4440   22.6980  -30.9900 N   0  0  0  0  0  0  0  0  0  0  0  0
   -6.0140   23.9250  -30.8200 C   0  0  0  0  0  0  0  0  0  0  0  0
   -5.3050   25.1660  -30.4400 C   0  0  0  0  0  0  0  0  0  0  0  0
   -3.8960   25.2900  -30.6090 N   0  0  0  0  0  0  0  0  0  0  0  0
   -5.9500   26.1200  -29.9260 O   0  0  0  0  0  0  0  0  0  0  0  0
   -7.3940   23.8490  -30.9950 C   0  0  0  0  0  0  0  0  0  0  0  0
   -7.6540   22.5280  -31.2800 C   0  0  0  0  0  0  0  0  0  0  0  0
   -8.8610   21.8920  -31.5490 C   0  0  0  0  0  0  0  0  0  0  0  0
   -8.8320   20.5160  -31.8360 C   0  0  0  0  0  0  0  0  0  0  0  0
   -7.6010   19.8100  -31.8770 C   0  0  0  0  0  0  0  0  0  0  0  0
   -7.5850   18.3280  -32.1510 C   0  0  0  0  0  0  0  0  0  0  0  0
   -8.8400   17.7800  -31.9490 F   0  0  0  0  0  0  0  0  0  0  0  0
   -6.6920   17.6850  -31.3120 F   0  0  0  0  0  0  0  0  0  0  0  0
   -7.2060   18.1120  -33.4630 F   0  0  0  0  0  0  0  0  0  0  0  0
   -6.3970   20.4910  -31.5770 C   0  0  0  0  0  0  0  0  0  0  0  0
   -6.4610   21.8560  -31.2750 C   0  0  0  0  0  0  0  0  0  0  0  0
   -4.0183   22.3628  -28.8304 H   0  0  0  0  0  0  0  0  0  0  0  0
   -3.0364   21.0737  -29.6055 H   0  0  0  0  0  0  0  0  0  0  0  0
   -2.4503   22.7717  -29.6055 H   0  0  0  0  0  0  0  0  0  0  0  0
   -3.4920   26.0290  -31.2270 H   0  0  0  0  0  0  0  0  0  0  0  0
   -8.1216   24.6707  -30.9211 H   0  0  0  0  0  0  0  0  0  0  0  0
   -9.8097   22.4486  -31.5376 H   0  0  0  0  0  0  0  0  0  0  0  0
   -9.7731   19.9808  -32.0308 H   0  0  0  0  0  0  0  0  0  0  0  0
   -5.4337   19.9599  -31.5811 H   0  0  0  0  0  0  0  0  0  0  0  0
  1  2  1  0
  2  3  2  0
  2  4  1  0
  4  5  1  0
  5  6  1  0
  6  7  1  0
  6  8  2  0
  5  9  2  0
  9 10  1  0
 10 11  2  0
 11 12  1  0
 12 13  2  0
 13 14  1  0
 14 15  1  0
 14 16  1  0
 14 17  1  0
 13 18  1  0
 18 19  2  0
 19  4  1  0
 19 10  1  0
  1 20  1  0
  1 21  1  0
  1 22  1  0
  7 23  1  0
  9 24  1  0
 11 25  1  0
 12 26  1  0
 18 27  1  0
M  CHG  1   7  -1
M  END
>  <UniqueID>  (37) 
37

>  <SMILES>  (37) 
CC(=O)n1c(C([NH-])=O)cc2ccc(C(F)(F)F)cc21

>  <Energy>  (37) 
66.79461410067017

>  <Genealogy>  (37) 
CC(=O)n1c(C([NH-])=O)cc2ccc(C(F)(F)F)cc21 (protonated)
CC(=O)n1c(C([NH-])=O)cc2ccc(C(F)(F)F)cc21 (3D coordinates assigned)
CC(=O)n1c(C([NH-])=O)cc2ccc(C(F)(F)F)cc21 (optimized conformer: 66.79461410067017 kcal/mol)

>  <smiles>  (37) 
CC(=O)n1c(C(N)=O)cc2ccc(C(F)(F)F)cc21

>  <score_type>  (37) 
oracle

>  <origin>  (37) 
adg

>  <m_score__min__energy>  (37) 
-9.4900000000000002

>  <m_primary>  (37) 
energy

$$$$
37:0
     RDKit          3D

 50 51  0  0  0  0  0  0  0  0999 V2000
   -2.5310   20.6910  -27.5310 C   0  0  0  0  0  0  0  0  0  0  0  0
   -1.8350   21.9820  -27.9420 C   0  0  0  0  0  0  0  0  0  0  0  0
   -2.7270   22.8310  -29.2380 S   0  0  0  0  0  0  0  0  0  0  0  0
   -1.7500   23.6170  -30.0670 O   0  0  0  0  0  0  0  0  0  0  0  0
   -3.7090   23.7820  -28.6160 O   0  0  0  0  0  0  0  0  0  0  0  0
   -3.5980   21.6970  -30.3060 C   0  0  0  0  0  0  0  0  0  0  0  0
   -4.2500   22.4220  -31.4480 C   0  0  0  0  0  0  0  0  0  0  0  0
   -3.5830   22.6570  -32.4910 O   0  0  0  0  0  0  0  0  0  0  0  0
   -5.6120   22.8700  -31.3560 N   0  0  0  0  0  0  0  0  0  0  0  0
   -6.0680   24.0960  -30.9690 C   0  0  0  0  0  0  0  0  0  0  0  0
   -5.2420   25.2350  -30.5060 C   0  0  0  0  0  0  0  0  0  0  0  0
   -3.8610   25.3350  -30.8410 N   0  0  0  0  0  0  0  0  0  0  0  0
   -5.7650   26.1320  -29.7880 O   0  0  0  0  0  0  0  0  0  0  0  0
   -7.4590   24.1440  -31.0470 C   0  0  0  0  0  0  0  0  0  0  0  0
   -7.8430   22.9100  -31.5140 C   0  0  0  0  0  0  0  0  0  0  0  0
   -9.1130   22.4200  -31.8100 C   0  0  0  0  0  0  0  0  0  0  0  0
   -9.2120   21.1190  -32.3300 C   0  0  0  0  0  0  0  0  0  0  0  0
   -8.0490   20.3450  -32.5690 C   0  0  0  0  0  0  0  0  0  0  0  0
   -8.1630   19.0040  -33.0890 N   0  0  0  0  0  0  0  0  0  0  0  0
   -7.8070   18.0300  -32.0450 C   0  0  0  0  0  0  0  0  0  0  0  0
   -6.4010   17.4540  -32.2740 C   0  0  0  0  0  0  0  0  0  0  0  0
   -5.7590   18.0660  -33.4590 N   0  0  0  0  0  0  0  0  0  0  0  0
   -5.6830   17.0940  -34.5600 C   0  0  0  0  0  0  0  0  0  0  0  0
   -4.4070   18.5530  -33.1370 C   0  0  0  0  0  0  0  0  0  0  0  0
   -6.7780   20.8760  -32.2510 C   0  0  0  0  0  0  0  0  0  0  0  0
   -6.7110   22.1610  -31.7020 C   0  0  0  0  0  0  0  0  0  0  0  0
   -2.5657   20.6265  -26.4334 H   0  0  0  0  0  0  0  0  0  0  0  0
   -3.5555   20.6833  -27.9314 H   0  0  0  0  0  0  0  0  0  0  0  0
   -1.9744   19.8308  -27.9314 H   0  0  0  0  0  0  0  0  0  0  0  0
   -1.7643   22.6433  -27.0658 H   0  0  0  0  0  0  0  0  0  0  0  0
   -0.8360   21.7260  -28.3246 H   0  0  0  0  0  0  0  0  0  0  0  0
   -2.8848   20.9620  -30.7075 H   0  0  0  0  0  0  0  0  0  0  0  0
   -4.3809   21.1952  -29.7184 H   0  0  0  0  0  0  0  0  0  0  0  0
   -3.1250   25.3010  -30.1010 H   0  0  0  0  0  0  0  0  0  0  0  0
   -8.1116   24.9911  -30.7891 H   0  0  0  0  0  0  0  0  0  0  0  0
  -10.0107   23.0331  -31.6417 H   0  0  0  0  0  0  0  0  0  0  0  0
  -10.2025   20.6964  -32.5541 H   0  0  0  0  0  0  0  0  0  0  0  0
   -7.5280   18.8940  -33.9140 H   0  0  0  0  0  0  0  0  0  0  0  0
   -9.1460   18.8350  -33.4110 H   0  0  0  0  0  0  0  0  0  0  0  0
   -7.8344   18.5291  -31.0651 H   0  0  0  0  0  0  0  0  0  0  0  0
   -8.5310   17.2026  -32.0811 H   0  0  0  0  0  0  0  0  0  0  0  0
   -5.7822   17.6544  -31.3869 H   0  0  0  0  0  0  0  0  0  0  0  0
   -6.4917   16.3714  -32.4468 H   0  0  0  0  0  0  0  0  0  0  0  0
   -5.6035   16.0776  -34.1470 H   0  0  0  0  0  0  0  0  0  0  0  0
   -6.5897   17.1687  -35.1783 H   0  0  0  0  0  0  0  0  0  0  0  0
   -4.7989   17.3087  -35.1783 H   0  0  0  0  0  0  0  0  0  0  0  0
   -4.2837   18.5974  -32.0448 H   0  0  0  0  0  0  0  0  0  0  0  0
   -3.6593   17.8677  -33.5628 H   0  0  0  0  0  0  0  0  0  0  0  0
   -4.2681   19.5577  -33.5628 H   0  0  0  0  0  0  0  0  0  0  0  0
   -5.8631   20.2924  -32.4310 H   0  0  0  0  0  0  0  0  0  0  0  0
  1  2  1  0
  2  3  1  0
  3  4  2  0
  3  5  2  0
  3  6  1  0
  6  7  1  0
  7  8  2  0
  7  9  1  0
  9 10  1  0
 10 11  1  0
 11 12  1  0
 11 13  2  0
 10 14  2  0
 14 15  1  0
 15 16  2  0
 16 17  1  0
 17 18  2  0
 18 19  1  0
 19 20  1  0
 20 21  1  0
 21 22  1  0
 22 23  1  0
 22 24  1  0
 18 25  1  0
 25 26  2  0
 26  9  1  0
 26 15  1  0
  1 27  1  0
  1 28  1  0
  1 29  1  0
  2 30  1  0
  2 31  1  0
  6 32  1  0
  6 33  1  0
 12 34  1  0
 14 35  1  0
 16 36  1  0
 17 37  1  0
 19 38  1  0
 19 39  1  0
 20 40  1  0
 20 41  1  0
 21 42  1  0
 21 43  1  0
 23 44  1  0
 23 45  1  0
 23 46  1  0
 24 47  1  0
 24 48  1  0
 24 49  1  0
 25 50  1  0
M  CHG  2  12  -1  19   1
M  END
>  <UniqueID>  (38) 
38

>  <SMILES>  (38) 
CCS(=O)(=O)CC(=O)n1c(C([NH-])=O)cc2ccc([NH2+]CCN(C)C)cc21

>  <Energy>  (38) 
76.35440769512326

>  <Genealogy>  (38) 
CCS(=O)(=O)CC(=O)n1c(C([NH-])=O)cc2ccc([NH2+]CCN(C)C)cc21 (protonated)
CCS(=O)(=O)CC(=O)n1c(C([NH-])=O)cc2ccc([NH2+]CCN(C)C)cc21 (3D coordinates assigned)
CCS(=O)(=O)CC(=O)n1c(C([NH-])=O)cc2ccc([NH2+]CCN(C)C)cc21 (optimized conformer: 76.35440769512326 kcal/mol)

>  <smiles>  (38) 
CCS(=O)(=O)CC(=O)n1c(C(N)=O)cc2ccc(NCCN(C)C)cc21

>  <score_type>  (38) 
oracle

>  <origin>  (38) 
adg

>  <m_score__min__energy>  (38) 
-10.050000000000001

>  <m_primary>  (38) 
energy

$$$$
38:0
     RDKit          3D

 43 44  0  0  0  0  0  0  0  0999 V2000
   -2.2280   21.5560  -32.4340 C   0  0  0  0  0  0  0  0  0  0  0  0
   -3.2840   22.3780  -31.9520 O   0  0  0  0  0  0  0  0  0  0  0  0
   -4.2380   21.9210  -31.0380 C   0  0  0  0  0  0  0  0  0  0  0  0
   -3.8870   21.2090  -30.0580 O   0  0  0  0  0  0  0  0  0  0  0  0
   -5.6220   22.2670  -31.2180 N   0  0  0  0  0  0  0  0  0  0  0  0
   -6.2200   23.4520  -30.9090 C   0  0  0  0  0  0  0  0  0  0  0  0
   -5.5300   24.6860  -30.4850 C   0  0  0  0  0  0  0  0  0  0  0  0
   -5.8400   25.3170  -29.2420 N   0  0  0  0  0  0  0  0  0  0  0  0
   -4.6120   25.1590  -31.2050 O   0  0  0  0  0  0  0  0  0  0  0  0
   -7.5980   23.3710  -31.0940 C   0  0  0  0  0  0  0  0  0  0  0  0
   -7.8290   22.0910  -31.5440 C   0  0  0  0  0  0  0  0  0  0  0  0
   -9.0250   21.4640  -31.8780 C   0  0  0  0  0  0  0  0  0  0  0  0
   -8.9750   20.1190  -32.2790 C   0  0  0  0  0  0  0  0  0  0  0  0
   -7.7410   19.4240  -32.3220 C   0  0  0  0  0  0  0  0  0  0  0  0
   -7.7010   17.9710  -32.7290 C   0  0  0  0  0  0  0  0  0  0  0  0
   -6.2990   17.5040  -33.1570 C   0  0  0  0  0  0  0  0  0  0  0  0
   -5.8640   17.9050  -34.5910 C   0  0  0  0  0  0  0  0  0  0  0  0
   -4.4130   18.1230  -34.8050 N   0  0  0  0  0  0  0  0  0  0  0  0
   -3.7870   19.0350  -33.8370 C   0  0  0  0  0  0  0  0  0  0  0  0
   -3.6270   16.8960  -34.9900 C   0  0  0  0  0  0  0  0  0  0  0  0
   -6.5440   20.0980  -31.9850 C   0  0  0  0  0  0  0  0  0  0  0  0
   -6.6210   21.4440  -31.6090 C   0  0  0  0  0  0  0  0  0  0  0  0
   -1.6785   21.1282  -31.5825 H   0  0  0  0  0  0  0  0  0  0  0  0
   -2.6461   20.7433  -33.0461 H   0  0  0  0  0  0  0  0  0  0  0  0
   -1.5428   22.1608  -33.0461 H   0  0  0  0  0  0  0  0  0  0  0  0
   -6.4740   24.8620  -28.5480 H   0  0  0  0  0  0  0  0  0  0  0  0
   -5.3710   26.2120  -28.9760 H   0  0  0  0  0  0  0  0  0  0  0  0
   -8.3427   24.1612  -30.9180 H   0  0  0  0  0  0  0  0  0  0  0  0
   -9.9813   22.0055  -31.8295 H   0  0  0  0  0  0  0  0  0  0  0  0
   -9.9026   19.6002  -32.5624 H   0  0  0  0  0  0  0  0  0  0  0  0
   -8.0288   17.3590  -31.8758 H   0  0  0  0  0  0  0  0  0  0  0  0
   -8.3656   17.8547  -33.5978 H   0  0  0  0  0  0  0  0  0  0  0  0
   -5.5709   17.9306  -32.4514 H   0  0  0  0  0  0  0  0  0  0  0  0
   -6.3350   16.4046  -33.1515 H   0  0  0  0  0  0  0  0  0  0  0  0
   -6.1862   17.1052  -35.2740 H   0  0  0  0  0  0  0  0  0  0  0  0
   -6.3358   18.8813  -34.7763 H   0  0  0  0  0  0  0  0  0  0  0  0
   -4.0173   18.6994  -32.8151 H   0  0  0  0  0  0  0  0  0  0  0  0
   -2.6971   19.0358  -33.9858 H   0  0  0  0  0  0  0  0  0  0  0  0
   -4.1781   20.0523  -33.9858 H   0  0  0  0  0  0  0  0  0  0  0  0
   -3.3603   16.4797  -34.0073 H   0  0  0  0  0  0  0  0  0  0  0  0
   -4.2223   16.1602  -35.5506 H   0  0  0  0  0  0  0  0  0  0  0  0
   -2.7097   17.1292  -35.5506 H   0  0  0  0  0  0  0  0  0  0  0  0
   -5.5758   19.5768  -32.0176 H   0  0  0  0  0  0  0  0  0  0  0  0
  1  2  1  0
  2  3  1  0
  3  4  2  0
  3  5  1  0
  5  6  1  0
  6  7  1  0
  7  8  1  0
  7  9  2  0
  6 10  2  0
 10 11  1  0
 11 12  2  0
 12 13  1  0
 13 14  2  0
 14 15  1  0
 15 16  1  0
 16 17  1  0
 17 18  1  0
 18 19  1  0
 18 20  1  0
 14 21  1  0
 21 22  2  0
 22  5  1  0
 22 11  1  0
  1 23  1  0
  1 24  1  0
  1 25  1  0
  8 26  1  0
  8 27  1  0
 10 28  1  0
 12 29  1  0
 13 30  1  0
 15 31  1  0
 15 32  1  0
 16 33  1  0
 16 34  1  0
 17 35  1  0
 17 36  1  0
 19 37  1  0
 19 38  1  0
 19 39  1  0
 20 40  1  0
 20 41  1  0
 20 42  1  0
 21 43  1  0
M  END
>  <UniqueID>  (39) 
39

>  <SMILES>  (39) 
COC(=O)n1c(C(N)=O)cc2ccc(CCCN(C)C)cc21

>  <Energy>  (39) 
83.8347002103981

>  <Genealogy>  (39) 
COC(=O)n1c(C(N)=O)cc2ccc(CCCN(C)C)cc21 (3D coordinates assigned)
COC(=O)n1c(C(N)=O)cc2ccc(CCCN(C)C)cc21 (optimized conformer: 83.8347002103981 kcal/mol)

>  <smiles>  (39) 
COC(=O)n1c(C(N)=O)cc2ccc(CCCN(C)C)cc21

>  <score_type>  (39) 
oracle

>  <origin>  (39) 
adg

>  <m_score__min__energy>  (39) 
-8.1999999999999993

>  <m_primary>  (39) 
energy

$$$$
39:0
     RDKit          3D

 42 44  0  0  0  0  0  0  0  0999 V2000
   -4.2410   24.1750  -27.6400 C   0  0  0  0  0  0  0  0  0  0  0  0
   -4.8040   24.0410  -28.9400 O   0  0  0  0  0  0  0  0  0  0  0  0
   -4.0680   24.2570  -30.1080 C   0  0  0  0  0  0  0  0  0  0  0  0
   -4.2720   25.2880  -30.8060 O   0  0  0  0  0  0  0  0  0  0  0  0
   -3.0550   23.3160  -30.4980 N   0  0  0  0  0  0  0  0  0  0  0  0
   -1.7480   23.2780  -30.1080 C   0  0  0  0  0  0  0  0  0  0  0  0
   -1.0510   24.3040  -29.3050 C   0  0  0  0  0  0  0  0  0  0  0  0
   -1.7120   25.5280  -28.9910 N   0  0  0  0  0  0  0  0  0  0  0  0
    0.1090   24.0990  -28.8620 O   0  0  0  0  0  0  0  0  0  0  0  0
   -1.1110   22.1580  -30.6420 C   0  0  0  0  0  0  0  0  0  0  0  0
   -2.0730   21.5110  -31.3830 C   0  0  0  0  0  0  0  0  0  0  0  0
   -1.9920   20.3340  -32.1220 C   0  0  0  0  0  0  0  0  0  0  0  0
   -3.1550   19.8800  -32.7670 C   0  0  0  0  0  0  0  0  0  0  0  0
   -4.3750   20.5950  -32.6540 C   0  0  0  0  0  0  0  0  0  0  0  0
   -5.6220   20.0940  -33.3580 C   0  0  2  0  0  0  0  0  0  0  0  0
   -6.8820   20.8370  -32.8230 C   0  0  0  0  0  0  0  0  0  0  0  0
   -8.1450   19.9690  -32.8380 C   0  0  0  0  0  0  0  0  0  0  0  0
   -7.8720   18.7190  -32.0640 C   0  0  0  0  0  0  0  0  0  0  0  0
   -8.7570   18.2270  -31.3130 O   0  0  0  0  0  0  0  0  0  0  0  0
   -6.5870   18.0970  -32.1970 N   0  0  0  0  0  0  0  0  0  0  0  0
   -6.1710   17.0440  -31.2680 C   0  0  0  0  0  0  0  0  0  0  0  0
   -5.7190   18.5430  -33.2940 C   0  0  0  0  0  0  0  0  0  0  0  0
   -4.4100   21.7910  -31.9000 C   0  0  0  0  0  0  0  0  0  0  0  0
   -3.2350   22.2290  -31.2810 C   0  0  0  0  0  0  0  0  0  0  0  0
   -5.0176   23.9902  -26.8832 H   0  0  0  0  0  0  0  0  0  0  0  0
   -3.4271   23.4455  -27.5159 H   0  0  0  0  0  0  0  0  0  0  0  0
   -3.8430   25.1930  -27.5159 H   0  0  0  0  0  0  0  0  0  0  0  0
   -2.7010   25.6920  -29.2820 H   0  0  0  0  0  0  0  0  0  0  0  0
   -0.0627   21.8562  -30.5008 H   0  0  0  0  0  0  0  0  0  0  0  0
   -1.0468   19.7766  -32.1987 H   0  0  0  0  0  0  0  0  0  0  0  0
   -3.1189   18.9587  -33.3670 H   0  0  0  0  0  0  0  0  0  0  0  0
   -5.5596   20.3338  -34.4297 H   0  0  0  0  0  0  0  0  0  0  0  0
   -6.6878   21.1542  -31.7878 H   0  0  0  0  0  0  0  0  0  0  0  0
   -7.0650   21.6929  -33.4893 H   0  0  0  0  0  0  0  0  0  0  0  0
   -8.9778   20.5179  -32.3743 H   0  0  0  0  0  0  0  0  0  0  0  0
   -8.4174   19.7185  -33.8739 H   0  0  0  0  0  0  0  0  0  0  0  0
   -6.3086   17.3922  -30.2337 H   0  0  0  0  0  0  0  0  0  0  0  0
   -6.7813   16.1444  -31.4363 H   0  0  0  0  0  0  0  0  0  0  0  0
   -5.1107   16.8045  -31.4363 H   0  0  0  0  0  0  0  0  0  0  0  0
   -4.7113   18.1290  -33.1419 H   0  0  0  0  0  0  0  0  0  0  0  0
   -6.1530   18.1877  -34.2402 H   0  0  0  0  0  0  0  0  0  0  0  0
   -5.3430   22.3654  -31.8024 H   0  0  0  0  0  0  0  0  0  0  0  0
  1  2  1  0
  2  3  1  0
  3  4  2  0
  3  5  1  0
  5  6  1  0
  6  7  1  0
  7  8  1  0
  7  9  2  0
  6 10  2  0
 10 11  1  0
 11 12  2  0
 12 13  1  0
 13 14  2  0
 14 15  1  0
 15 16  1  0
 16 17  1  0
 17 18  1  0
 18 19  2  0
 18 20  1  0
 20 21  1  0
 20 22  1  0
 14 23  1  0
 23 24  2  0
 24  5  1  0
 24 11  1  0
 22 15  1  0
  1 25  1  0
  1 26  1  0
  1 27  1  0
  8 28  1  0
 10 29  1  0
 12 30  1  0
 13 31  1  0
 15 32  1  6
 16 33  1  0
 16 34  1  0
 17 35  1  0
 17 36  1  0
 21 37  1  0
 21 38  1  0
 21 39  1  0
 22 40  1  0
 22 41  1  0
 23 42  1  0
M  CHG  1   8  -1
M  END
>  <UniqueID>  (40) 
40

>  <SMILES>  (40) 
COC(=O)n1c(C([NH-])=O)cc2ccc([C@@H]3CCC(=O)N(C)C3)cc21

>  <Energy>  (40) 
80.8364097732567

>  <Genealogy>  (40) 
COC(=O)n1c(C([NH-])=O)cc2ccc(C3CCC(=O)N(C)C3)cc21 (protonated)
COC(=O)n1c(C([NH-])=O)cc2ccc([C@@H]3CCC(=O)N(C)C3)cc21 (chirality)
COC(=O)n1c(C([NH-])=O)cc2ccc([C@@H]3CCC(=O)N(C)C3)cc21 (3D coordinates assigned)
COC(=O)n1c(C([NH-])=O)cc2ccc([C@@H]3CCC(=O)N(C)C3)cc21 (nonaromatic ring conformer: 80.8364097732567 kcal/mol)

>  <smiles>  (40) 
COC(=O)n1c(C(N)=O)cc2ccc(C3CCC(=O)N(C)C3)cc21

>  <score_type>  (40) 
oracle

>  <origin>  (40) 
adg

>  <m_score__min__energy>  (40) 
-10.99

>  <m_primary>  (40) 
energy

$$$$
40:0
     RDKit          3D

 42 44  0  0  0  0  0  0  0  0999 V2000
   -3.4600   20.8730  -33.1150 C   0  0  0  0  0  0  0  0  0  0  0  0
   -3.8070   20.6420  -31.7550 O   0  0  0  0  0  0  0  0  0  0  0  0
   -4.3390   21.6410  -30.9320 C   0  0  0  0  0  0  0  0  0  0  0  0
   -3.6280   22.1710  -30.0360 O   0  0  0  0  0  0  0  0  0  0  0  0
   -5.6970   22.0720  -31.1200 N   0  0  0  0  0  0  0  0  0  0  0  0
   -6.2210   23.3010  -30.8470 C   0  0  0  0  0  0  0  0  0  0  0  0
   -5.4450   24.4960  -30.4500 C   0  0  0  0  0  0  0  0  0  0  0  0
   -5.7270   25.1750  -29.2250 N   0  0  0  0  0  0  0  0  0  0  0  0
   -4.5460   24.9480  -31.2080 O   0  0  0  0  0  0  0  0  0  0  0  0
   -7.5930   23.3110  -31.0910 C   0  0  0  0  0  0  0  0  0  0  0  0
   -7.8970   22.0420  -31.5260 C   0  0  0  0  0  0  0  0  0  0  0  0
   -9.1200   21.4950  -31.9030 C   0  0  0  0  0  0  0  0  0  0  0  0
   -9.1450   20.1450  -32.2890 C   0  0  0  0  0  0  0  0  0  0  0  0
   -7.9600   19.3680  -32.2800 C   0  0  0  0  0  0  0  0  0  0  0  0
   -7.9930   17.9230  -32.7120 C   0  0  0  0  0  0  0  0  0  0  0  0
   -6.6540   17.4780  -33.3230 C   0  0  2  0  0  0  0  0  0  0  0  0
   -5.5700   17.2380  -32.2380 C   0  0  0  0  0  0  0  0  0  0  0  0
   -4.2200   17.5820  -32.7150 N   0  0  0  0  0  0  0  0  0  0  0  0
   -4.0610   17.2550  -34.1370 C   0  0  0  0  0  0  0  0  0  0  0  0
   -5.1220   17.9820  -34.9930 C   0  0  0  0  0  0  0  0  0  0  0  0
   -6.2100   18.4710  -34.2260 O   0  0  0  0  0  0  0  0  0  0  0  0
   -6.7370   19.9600  -31.8940 C   0  0  0  0  0  0  0  0  0  0  0  0
   -6.7360   21.3120  -31.5330 C   0  0  0  0  0  0  0  0  0  0  0  0
   -2.5452   21.4820  -33.1616 H   0  0  0  0  0  0  0  0  0  0  0  0
   -3.2855   19.9102  -33.6175 H   0  0  0  0  0  0  0  0  0  0  0  0
   -4.2810   21.4054  -33.6175 H   0  0  0  0  0  0  0  0  0  0  0  0
   -5.2000   26.0410  -28.9720 H   0  0  0  0  0  0  0  0  0  0  0  0
   -6.4280   24.8020  -28.5470 H   0  0  0  0  0  0  0  0  0  0  0  0
   -8.2863   24.1553  -30.9628 H   0  0  0  0  0  0  0  0  0  0  0  0
  -10.0380   22.1010  -31.8987 H   0  0  0  0  0  0  0  0  0  0  0  0
  -10.0945   19.6859  -32.6016 H   0  0  0  0  0  0  0  0  0  0  0  0
   -8.2108   17.2945  -31.8359 H   0  0  0  0  0  0  0  0  0  0  0  0
   -8.7722   17.8141  -33.4808 H   0  0  0  0  0  0  0  0  0  0  0  0
   -6.8154   16.5232  -33.8448 H   0  0  0  0  0  0  0  0  0  0  0  0
   -5.8042   17.8579  -31.3600 H   0  0  0  0  0  0  0  0  0  0  0  0
   -5.5763   16.1674  -31.9853 H   0  0  0  0  0  0  0  0  0  0  0  0
   -4.0780   18.6140  -32.6000 H   0  0  0  0  0  0  0  0  0  0  0  0
   -3.0584   17.5641  -34.4675 H   0  0  0  0  0  0  0  0  0  0  0  0
   -4.1906   16.1701  -34.2643 H   0  0  0  0  0  0  0  0  0  0  0  0
   -4.6413   18.8309  -35.5011 H   0  0  0  0  0  0  0  0  0  0  0  0
   -5.5254   17.2510  -35.7092 H   0  0  0  0  0  0  0  0  0  0  0  0
   -5.8074   19.3722  -31.8776 H   0  0  0  0  0  0  0  0  0  0  0  0
  1  2  1  0
  2  3  1  0
  3  4  2  0
  3  5  1  0
  5  6  1  0
  6  7  1  0
  7  8  1  0
  7  9  2  0
  6 10  2  0
 10 11  1  0
 11 12  2  0
 12 13  1  0
 13 14  2  0
 14 15  1  0
 15 16  1  0
 16 17  1  0
 17 18  1  0
 18 19  1  0
 19 20  1  0
 20 21  1  0
 14 22  1  0
 22 23  2  0
 23  5  1  0
 23 11  1  0
 21 16  1  0
  1 24  1  0
  1 25  1  0
  1 26  1  0
  8 27  1  0
  8 28  1  0
 10 29  1  0
 12 30  1  0
 13 31  1  0
 15 32  1  0
 15 33  1  0
 16 34  1  6
 17 35  1  0
 17 36  1  0
 18 37  1  0
 19 38  1  0
 19 39  1  0
 20 40  1  0
 20 41  1  0
 22 42  1  0
M  END
>  <UniqueID>  (41) 
41

>  <SMILES>  (41) 
COC(=O)n1c(C(N)=O)cc2ccc(C[C@@H]3CNCCO3)cc21

>  <Energy>  (41) 
86.06393471379758

>  <Genealogy>  (41) 
COC(=O)n1c(C(N)=O)cc2ccc(C[C@@H]3CNCCO3)cc21 (3D coordinates assigned)
COC(=O)n1c(C(N)=O)cc2ccc(C[C@@H]3CNCCO3)cc21 (nonaromatic ring conformer: 86.06393471379758 kcal/mol)

>  <smiles>  (41) 
COC(=O)n1c(C(N)=O)cc2ccc(C[C@@H]3CNCCO3)cc21

>  <score_type>  (41) 
oracle

>  <origin>  (41) 
adg

>  <m_score__min__energy>  (41) 
-8.6799999999999997

>  <m_primary>  (41) 
energy

$$$$
41:0
     RDKit          3D

 45 47  0  0  0  0  0  0  0  0999 V2000
   -3.7060   21.3800  -29.9820 C   0  0  0  0  0  0  0  0  0  0  0  0
   -4.1010   22.4870  -30.9070 C   0  0  0  0  0  0  0  0  0  0  0  0
   -3.2170   23.0520  -31.6050 O   0  0  0  0  0  0  0  0  0  0  0  0
   -5.4690   22.9180  -31.0000 N   0  0  0  0  0  0  0  0  0  0  0  0
   -5.9670   24.1600  -30.7430 C   0  0  0  0  0  0  0  0  0  0  0  0
   -5.1720   25.3570  -30.3950 C   0  0  0  0  0  0  0  0  0  0  0  0
   -3.7470   25.2870  -30.3960 N   0  0  0  0  0  0  0  0  0  0  0  0
   -5.7360   26.4360  -30.0770 O   0  0  0  0  0  0  0  0  0  0  0  0
   -7.3500   24.1760  -30.9170 C   0  0  0  0  0  0  0  0  0  0  0  0
   -7.6860   22.8950  -31.2930 C   0  0  0  0  0  0  0  0  0  0  0  0
   -8.9300   22.3440  -31.5840 C   0  0  0  0  0  0  0  0  0  0  0  0
   -8.9830   20.9820  -31.9240 C   0  0  0  0  0  0  0  0  0  0  0  0
   -7.8010   20.1990  -31.9640 C   0  0  0  0  0  0  0  0  0  0  0  0
   -7.8670   18.7330  -32.3290 C   0  0  0  0  0  0  0  0  0  0  0  0
   -6.5370   18.1440  -32.8600 C   0  0  0  0  0  0  0  0  0  0  0  0
   -6.5990   16.6140  -33.0860 C   0  0  0  0  0  0  0  0  0  0  0  0
   -5.6880   16.1400  -34.2360 C   0  0  0  0  0  0  0  0  0  0  0  0
   -4.4220   16.8990  -34.3180 N   0  0  0  0  0  0  0  0  0  0  0  0
   -3.5060   16.5630  -33.2150 C   0  0  0  0  0  0  0  0  0  0  0  0
   -4.6060   18.3660  -34.4780 C   0  0  0  0  0  0  0  0  0  0  0  0
   -6.0160   18.8680  -34.1120 C   0  0  0  0  0  0  0  0  0  0  0  0
   -6.5600   20.7920  -31.6400 C   0  0  0  0  0  0  0  0  0  0  0  0
   -6.5340   22.1550  -31.3310 C   0  0  0  0  0  0  0  0  0  0  0  0
   -3.8247   21.7127  -28.9403 H   0  0  0  0  0  0  0  0  0  0  0  0
   -4.3473   20.5047  -30.1627 H   0  0  0  0  0  0  0  0  0  0  0  0
   -2.6555   21.1084  -30.1627 H   0  0  0  0  0  0  0  0  0  0  0  0
   -3.1930   25.6470  -31.2040 H   0  0  0  0  0  0  0  0  0  0  0  0
   -8.0289   25.0309  -30.7824 H   0  0  0  0  0  0  0  0  0  0  0  0
   -9.8435   22.9558  -31.5489 H   0  0  0  0  0  0  0  0  0  0  0  0
   -9.9515   20.5178  -32.1617 H   0  0  0  0  0  0  0  0  0  0  0  0
   -8.1591   18.1681  -31.4315 H   0  0  0  0  0  0  0  0  0  0  0  0
   -8.5968   18.6465  -33.1474 H   0  0  0  0  0  0  0  0  0  0  0  0
   -5.8078   18.3225  -32.0560 H   0  0  0  0  0  0  0  0  0  0  0  0
   -6.2864   16.1095  -32.1599 H   0  0  0  0  0  0  0  0  0  0  0  0
   -7.6342   16.3624  -33.3598 H   0  0  0  0  0  0  0  0  0  0  0  0
   -5.4505   15.0773  -34.0803 H   0  0  0  0  0  0  0  0  0  0  0  0
   -6.2327   16.3044  -35.1774 H   0  0  0  0  0  0  0  0  0  0  0  0
   -4.0072   16.7468  -32.2532 H   0  0  0  0  0  0  0  0  0  0  0  0
   -3.2226   15.5024  -33.2839 H   0  0  0  0  0  0  0  0  0  0  0  0
   -2.6040   17.1888  -33.2839 H   0  0  0  0  0  0  0  0  0  0  0  0
   -3.8786   18.8778  -33.8308 H   0  0  0  0  0  0  0  0  0  0  0  0
   -4.4574   18.5893  -35.5448 H   0  0  0  0  0  0  0  0  0  0  0  0
   -5.9753   19.9493  -33.9142 H   0  0  0  0  0  0  0  0  0  0  0  0
   -6.6962   18.6614  -34.9514 H   0  0  0  0  0  0  0  0  0  0  0  0
   -5.6361   20.1951  -31.6311 H   0  0  0  0  0  0  0  0  0  0  0  0
  1  2  1  0
  2  3  2  0
  2  4  1  0
  4  5  1  0
  5  6  1  0
  6  7  1  0
  6  8  2  0
  5  9  2  0
  9 10  1  0
 10 11  2  0
 11 12  1  0
 12 13  2  0
 13 14  1  0
 14 15  1  0
 15 16  1  0
 16 17  1  0
 17 18  1  0
 18 19  1  0
 18 20  1  0
 20 21  1  0
 13 22  1  0
 22 23  2  0
 23  4  1  0
 23 10  1  0
 21 15  1  0
  1 24  1  0
  1 25  1  0
  1 26  1  0
  7 27  1  0
  9 28  1  0
 11 29  1  0
 12 30  1  0
 14 31  1  0
 14 32  1  0
 15 33  1  0
 16 34  1  0
 16 35  1  0
 17 36  1  0
 17 37  1  0
 19 38  1  0
 19 39  1  0
 19 40  1  0
 20 41  1  0
 20 42  1  0
 21 43  1  0
 21 44  1  0
 22 45  1  0
M  CHG  1   7  -1
M  END
>  <UniqueID>  (42) 
42

>  <SMILES>  (42) 
CC(=O)n1c(C([NH-])=O)cc2ccc(CC3CCN(C)CC3)cc21

>  <Energy>  (42) 
91.88506768522923

>  <Genealogy>  (42) 
CC(=O)n1c(C([NH-])=O)cc2ccc(CC3CCN(C)CC3)cc21 (protonated)
CC(=O)n1c(C([NH-])=O)cc2ccc(CC3CCN(C)CC3)cc21 (3D coordinates assigned)
CC(=O)n1c(C([NH-])=O)cc2ccc(CC3CCN(C)CC3)cc21 (nonaromatic ring conformer: 91.88506768522923 kcal/mol)

>  <smiles>  (42) 
CC(=O)n1c(C(N)=O)cc2ccc(CC3CCN(C)CC3)cc21

>  <score_type>  (42) 
oracle

>  <origin>  (42) 
adg

>  <m_score__min__energy>  (42) 
-11.720000000000001

>  <m_primary>  (42) 
energy

$$$$
42:0
     RDKit          3D

 39 41  0  0  0  0  0  0  0  0999 V2000
   -8.0630   18.3070  -31.6110 C   0  0  0  0  0  0  0  0  0  0  0  0
   -7.8330   18.7230  -33.0090 N   0  0  0  0  0  0  0  0  0  0  0  0
   -7.7840   20.1820  -33.1700 C   0  0  0  0  0  0  0  0  0  0  0  0
   -6.5840   20.8260  -32.4620 C   0  0  0  0  0  0  0  0  0  0  0  0
   -5.3420   20.0200  -32.4770 N   0  0  0  0  0  0  0  0  0  0  0  0
   -4.1250   20.5880  -31.8960 C   0  0  0  0  0  0  0  0  0  0  0  0
   -2.8860   19.8780  -31.9360 C   0  0  0  0  0  0  0  0  0  0  0  0
   -1.7170   20.4110  -31.3730 C   0  0  0  0  0  0  0  0  0  0  0  0
   -1.7900   21.6590  -30.7720 C   0  0  0  0  0  0  0  0  0  0  0  0
   -0.8160   22.3880  -30.1300 C   0  0  0  0  0  0  0  0  0  0  0  0
   -1.4480   23.5560  -29.7080 C   0  0  0  0  0  0  0  0  0  0  0  0
   -0.7400   24.6670  -29.0390 C   0  0  0  0  0  0  0  0  0  0  0  0
   -1.3620   25.9470  -28.9420 N   0  0  0  0  0  0  0  0  0  0  0  0
    0.3950   24.4920  -28.5210 O   0  0  0  0  0  0  0  0  0  0  0  0
   -2.7630   23.5440  -30.0710 N   0  0  0  0  0  0  0  0  0  0  0  0
   -3.7680   24.5280  -29.7760 C   0  0  0  0  0  0  0  0  0  0  0  0
   -4.5750   24.3470  -28.8270 O   0  0  0  0  0  0  0  0  0  0  0  0
   -3.8710   25.6770  -30.5480 O   0  0  0  0  0  0  0  0  0  0  0  0
   -2.9530   22.3750  -30.7240 C   0  0  0  0  0  0  0  0  0  0  0  0
   -4.1410   21.8630  -31.2580 C   0  0  0  0  0  0  0  0  0  0  0  0
   -5.3300   18.6070  -32.9180 C   0  0  0  0  0  0  0  0  0  0  0  0
   -6.6240   18.1250  -33.5900 C   0  0  0  0  0  0  0  0  0  0  0  0
   -7.6450   19.0630  -30.9300 H   0  0  0  0  0  0  0  0  0  0  0  0
   -9.1437   18.2086  -31.4308 H   0  0  0  0  0  0  0  0  0  0  0  0
   -7.5716   17.3395  -31.4308 H   0  0  0  0  0  0  0  0  0  0  0  0
   -8.6490   18.3760  -33.5680 H   0  0  0  0  0  0  0  0  0  0  0  0
   -7.7228   20.4139  -34.2435 H   0  0  0  0  0  0  0  0  0  0  0  0
   -8.6951   20.5934  -32.7110 H   0  0  0  0  0  0  0  0  0  0  0  0
   -6.3731   21.7870  -32.9539 H   0  0  0  0  0  0  0  0  0  0  0  0
   -6.8702   20.9299  -31.4050 H   0  0  0  0  0  0  0  0  0  0  0  0
   -2.8478   18.8906  -32.4194 H   0  0  0  0  0  0  0  0  0  0  0  0
   -0.7687   19.8547  -31.4072 H   0  0  0  0  0  0  0  0  0  0  0  0
    0.2375   22.1084  -29.9814 H   0  0  0  0  0  0  0  0  0  0  0  0
   -2.4020   26.0420  -28.9730 H   0  0  0  0  0  0  0  0  0  0  0  0
   -5.0763   22.4376  -31.1863 H   0  0  0  0  0  0  0  0  0  0  0  0
   -4.5056   18.4805  -33.6352 H   0  0  0  0  0  0  0  0  0  0  0  0
   -5.2134   18.0019  -32.0068 H   0  0  0  0  0  0  0  0  0  0  0  0
   -6.5824   18.3868  -34.6576 H   0  0  0  0  0  0  0  0  0  0  0  0
   -6.6888   17.0380  -33.4344 H   0  0  0  0  0  0  0  0  0  0  0  0
  1  2  1  0
  2  3  1  0
  3  4  1  0
  4  5  1  0
  5  6  1  0
  6  7  2  0
  7  8  1  0
  8  9  2  0
  9 10  1  0
 10 11  2  0
 11 12  1  0
 12 13  1  0
 12 14  2  0
 11 15  1  0
 15 16  1  0
 16 17  2  0
 16 18  1  0
 15 19  1  0
 19 20  2  0
  5 21  1  0
 21 22  1  0
 22  2  1  0
 20  6  1  0
 19  9  1  0
  1 23  1  0
  1 24  1  0
  1 25  1  0
  2 26  1  0
  3 27  1  0
  3 28  1  0
  4 29  1  0
  4 30  1  0
  7 31  1  0
  8 32  1  0
 10 33  1  0
 13 34  1  0
 20 35  1  0
 21 36  1  0
 21 37  1  0
 22 38  1  0
 22 39  1  0
M  CHG  3   2   1  13  -1  18  -1
M  END
>  <UniqueID>  (43) 
43

>  <SMILES>  (43) 
C[NH+]1CCN(c2ccc3cc(C([NH-])=O)n(C(=O)[O-])c3c2)CC1

>  <Energy>  (43) 
90.4233248514288

>  <Genealogy>  (43) 
C[NH+]1CCN(c2ccc3cc(C([NH-])=O)n(C(=O)[O-])c3c2)CC1 (protonated)
C[NH+]1CCN(c2ccc3cc(C([NH-])=O)n(C(=O)[O-])c3c2)CC1 (3D coordinates assigned)
C[NH+]1CCN(c2ccc3cc(C([NH-])=O)n(C(=O)[O-])c3c2)CC1 (nonaromatic ring conformer: 90.4233248514288 kcal/mol)

>  <smiles>  (43) 
CN1CCN(c2ccc3cc(C(N)=O)n(C(=O)O)c3c2)CC1

>  <score_type>  (43) 
oracle

>  <origin>  (43) 
adg

>  <m_score__min__energy>  (43) 
-11.02

>  <m_primary>  (43) 
energy

$$$$
43:0
     RDKit          3D

 48 50  0  0  0  0  0  0  0  0999 V2000
   -1.8140   21.9030  -31.7910 C   0  0  0  0  0  0  0  0  0  0  0  0
   -2.7920   21.0160  -32.4230 C   0  0  0  0  0  0  0  0  0  0  0  0
   -3.5980   20.2820  -32.9410 C   0  0  0  0  0  0  0  0  0  0  0  0
   -4.5660   19.4050  -33.5500 C   0  0  0  0  0  0  0  0  0  0  0  0
   -4.2490   18.7830  -34.5990 O   0  0  0  0  0  0  0  0  0  0  0  0
   -5.8550   19.1950  -32.9420 N   0  0  0  0  0  0  0  0  0  0  0  0
   -6.6720   18.1090  -33.0710 C   0  0  0  0  0  0  0  0  0  0  0  0
   -6.3100   16.8280  -33.7070 C   0  0  0  0  0  0  0  0  0  0  0  0
   -4.9410   16.4240  -33.8350 N   0  0  0  0  0  0  0  0  0  0  0  0
   -7.2230   16.0530  -34.1010 O   0  0  0  0  0  0  0  0  0  0  0  0
   -7.9030   18.3410  -32.4650 C   0  0  0  0  0  0  0  0  0  0  0  0
   -7.8150   19.6100  -31.9420 C   0  0  0  0  0  0  0  0  0  0  0  0
   -8.7600   20.3540  -31.2420 C   0  0  0  0  0  0  0  0  0  0  0  0
   -8.4100   21.6560  -30.8440 C   0  0  0  0  0  0  0  0  0  0  0  0
   -7.1380   22.1910  -31.1650 C   0  0  0  0  0  0  0  0  0  0  0  0
   -6.7630   23.5720  -30.7000 C   0  0  0  0  0  0  0  0  0  0  0  0
   -5.6530   24.1100  -31.5460 C   0  0  0  0  0  0  0  0  0  0  0  0
   -5.5890   23.8060  -32.7690 O   0  0  0  0  0  0  0  0  0  0  0  0
   -4.6350   24.9200  -30.9530 N   0  0  0  0  0  0  0  0  0  0  0  0
   -3.4530   24.3890  -30.5400 O   0  0  0  0  0  0  0  0  0  0  0  0
   -3.2970   24.7310  -29.1800 C   0  0  1  0  0  0  0  0  0  0  0  0
   -3.4980   23.4670  -28.3220 C   0  0  0  0  0  0  0  0  0  0  0  0
   -2.3980   22.4320  -28.6020 C   0  0  0  0  0  0  0  0  0  0  0  0
   -1.0750   23.1000  -29.0070 C   0  0  0  0  0  0  0  0  0  0  0  0
   -1.0080   24.5390  -28.4750 C   0  0  0  0  0  0  0  0  0  0  0  0
   -2.0390   25.3790  -28.9790 O   0  0  0  0  0  0  0  0  0  0  0  0
   -6.2020   21.4030  -31.8710 C   0  0  0  0  0  0  0  0  0  0  0  0
   -6.5700   20.1040  -32.2400 C   0  0  0  0  0  0  0  0  0  0  0  0
   -1.9007   21.8244  -30.6972 H   0  0  0  0  0  0  0  0  0  0  0  0
   -0.7998   21.6103  -32.1004 H   0  0  0  0  0  0  0  0  0  0  0  0
   -2.0066   22.9409  -32.1004 H   0  0  0  0  0  0  0  0  0  0  0  0
   -4.6980   15.5200  -34.2970 H   0  0  0  0  0  0  0  0  0  0  0  0
   -4.1740   16.9810  -33.3960 H   0  0  0  0  0  0  0  0  0  0  0  0
   -8.7624   17.6562  -32.4150 H   0  0  0  0  0  0  0  0  0  0  0  0
   -9.7502   19.9362  -31.0074 H   0  0  0  0  0  0  0  0  0  0  0  0
   -9.1303   22.2650  -30.2781 H   0  0  0  0  0  0  0  0  0  0  0  0
   -7.6375   24.2343  -30.7814 H   0  0  0  0  0  0  0  0  0  0  0  0
   -6.4295   23.5235  -29.6529 H   0  0  0  0  0  0  0  0  0  0  0  0
   -4.0592   25.4577  -28.8623 H   0  0  0  0  0  0  0  0  0  0  0  0
   -3.4677   23.7455  -27.2583 H   0  0  0  0  0  0  0  0  0  0  0  0
   -4.4714   23.0218  -28.5758 H   0  0  0  0  0  0  0  0  0  0  0  0
   -2.2316   21.8347  -27.6934 H   0  0  0  0  0  0  0  0  0  0  0  0
   -2.7302   21.7978  -29.4371 H   0  0  0  0  0  0  0  0  0  0  0  0
   -0.2366   22.5220  -28.5912 H   0  0  0  0  0  0  0  0  0  0  0  0
   -1.0136   23.1258  -30.1050 H   0  0  0  0  0  0  0  0  0  0  0  0
   -1.0885   24.5088  -27.3784 H   0  0  0  0  0  0  0  0  0  0  0  0
   -0.0509   24.9641  -28.8117 H   0  0  0  0  0  0  0  0  0  0  0  0
   -5.2082   21.8006  -32.1246 H   0  0  0  0  0  0  0  0  0  0  0  0
  1  2  1  0
  2  3  3  0
  3  4  1  0
  4  5  2  0
  4  6  1  0
  6  7  1  0
  7  8  1  0
  8  9  1  0
  8 10  2  0
  7 11  2  0
 11 12  1  0
 12 13  2  0
 13 14  1  0
 14 15  2  0
 15 16  1  0
 16 17  1  0
 17 18  2  0
 17 19  1  0
 19 20  1  0
 20 21  1  0
 21 22  1  0
 22 23  1  0
 23 24  1  0
 24 25  1  0
 25 26  1  0
 15 27  1  0
 27 28  2  0
 28  6  1  0
 28 12  1  0
 26 21  1  0
  1 29  1  0
  1 30  1  0
  1 31  1  0
  9 32  1  0
  9 33  1  0
 11 34  1  0
 13 35  1  0
 14 36  1  0
 16 37  1  0
 16 38  1  0
 21 39  1  1
 22 40  1  0
 22 41  1  0
 23 42  1  0
 23 43  1  0
 24 44  1  0
 24 45  1  0
 25 46  1  0
 25 47  1  0
 27 48  1  0
M  CHG  1  19  -1
M  END
>  <UniqueID>  (44) 
44

>  <SMILES>  (44) 
CC#CC(=O)n1c(C(N)=O)cc2ccc(CC(=O)[N-]O[C@H]3CCCCO3)cc21

>  <Energy>  (44) 
90.64168265538612

>  <Genealogy>  (44) 
CC#CC(=O)n1c(C(N)=O)cc2ccc(CC(=O)[N-]OC3CCCCO3)cc21 (protonated)
CC#CC(=O)n1c(C(N)=O)cc2ccc(CC(=O)[N-]O[C@H]3CCCCO3)cc21 (chirality)
CC#CC(=O)n1c(C(N)=O)cc2ccc(CC(=O)[N-]O[C@H]3CCCCO3)cc21 (3D coordinates assigned)
CC#CC(=O)n1c(C(N)=O)cc2ccc(CC(=O)[N-]O[C@H]3CCCCO3)cc21 (nonaromatic ring conformer: 90.64168265538612 kcal/mol)

>  <smiles>  (44) 
CC#CC(=O)n1c(C(N)=O)cc2ccc(CC(=O)NOC3CCCCO3)cc21

>  <score_type>  (44) 
oracle

>  <origin>  (44) 
adg

>  <m_score__min__energy>  (44) 
-10.67

>  <m_primary>  (44) 
energy

$$$$
44:0
     RDKit          3D

 27 28  0  0  0  0  0  0  0  0999 V2000
   -5.6250   26.5330  -30.2510 N   0  0  0  0  0  0  0  0  0  0  0  0
   -6.4160   25.4000  -29.8910 C   0  0  0  0  0  0  0  0  0  0  0  0
   -7.2820   25.5150  -28.9820 O   0  0  0  0  0  0  0  0  0  0  0  0
   -6.2860   24.1170  -30.6100 C   0  0  0  0  0  0  0  0  0  0  0  0
   -7.3760   23.3620  -31.0300 C   0  0  0  0  0  0  0  0  0  0  0  0
   -6.8390   22.2950  -31.7100 C   0  0  0  0  0  0  0  0  0  0  0  0
   -7.4710   21.2240  -32.3350 C   0  0  0  0  0  0  0  0  0  0  0  0
   -6.6650   20.2430  -32.9360 C   0  0  0  0  0  0  0  0  0  0  0  0
   -5.2520   20.3380  -32.8850 C   0  0  0  0  0  0  0  0  0  0  0  0
   -4.4030   19.2900  -33.5480 C   0  0  0  0  0  0  0  0  0  0  0  0
   -5.2640   18.2670  -34.2240 C   0  0  0  0  0  0  0  0  0  0  0  0
   -5.7850   18.5120  -35.3000 O   0  0  0  0  0  0  0  0  0  0  0  0
   -4.6450   21.4450  -32.2480 C   0  0  0  0  0  0  0  0  0  0  0  0
   -5.4720   22.4200  -31.6770 C   0  0  0  0  0  0  0  0  0  0  0  0
   -5.1170   23.5360  -31.0000 N   0  0  0  0  0  0  0  0  0  0  0  0
   -3.7820   23.9470  -30.6540 C   0  0  0  0  0  0  0  0  0  0  0  0
   -2.8690   23.0940  -30.5040 O   0  0  0  0  0  0  0  0  0  0  0  0
   -3.4890   25.2940  -30.4720 O   0  0  0  0  0  0  0  0  0  0  0  0
   -5.7060   27.4210  -29.7090 H   0  0  0  0  0  0  0  0  0  0  0  0
   -5.0210   26.5200  -31.1020 H   0  0  0  0  0  0  0  0  0  0  0  0
   -8.4412   23.5737  -30.8552 H   0  0  0  0  0  0  0  0  0  0  0  0
   -8.5681   21.1481  -32.3576 H   0  0  0  0  0  0  0  0  0  0  0  0
   -7.1353   19.3926  -33.4514 H   0  0  0  0  0  0  0  0  0  0  0  0
   -3.7551   19.7694  -34.2966 H   0  0  0  0  0  0  0  0  0  0  0  0
   -3.7921   18.7903  -32.7818 H   0  0  0  0  0  0  0  0  0  0  0  0
   -5.4275   17.2891  -33.7475 H   0  0  0  0  0  0  0  0  0  0  0  0
   -3.5499   21.5379  -32.2022 H   0  0  0  0  0  0  0  0  0  0  0  0
  1  2  1  0
  2  3  2  0
  2  4  1  0
  4  5  2  0
  5  6  1  0
  6  7  2  0
  7  8  1  0
  8  9  2  0
  9 10  1  0
 10 11  1  0
 11 12  2  0
  9 13  1  0
 13 14  2  0
 14 15  1  0
 15 16  1  0
 16 17  2  0
 16 18  1  0
 15  4  1  0
 14  6  1  0
  1 19  1  0
  1 20  1  0
  5 21  1  0
  7 22  1  0
  8 23  1  0
 10 24  1  0
 10 25  1  0
 11 26  1  0
 13 27  1  0
M  CHG  1  18  -1
M  END
>  <UniqueID>  (45) 
45

>  <SMILES>  (45) 
NC(=O)c1cc2ccc(CC=O)cc2n1C(=O)[O-]

>  <Energy>  (45) 
65.52864220675681

>  <Genealogy>  (45) 
NC(=O)c1cc2ccc(CC=O)cc2n1C(=O)[O-] (protonated)
NC(=O)c1cc2ccc(CC=O)cc2n1C(=O)[O-] (3D coordinates assigned)
NC(=O)c1cc2ccc(CC=O)cc2n1C(=O)[O-] (optimized conformer: 65.52864220675681 kcal/mol)

>  <smiles>  (45) 
NC(=O)c1cc2ccc(CC=O)cc2n1C(=O)O

>  <score_type>  (45) 
oracle

>  <origin>  (45) 
adg

>  <m_score__min__energy>  (45) 
-8.3499999999999996

>  <m_primary>  (45) 
energy

$$$$
45:0
     RDKit          3D

 44 46  0  0  0  0  0  0  0  0999 V2000
   -2.4110   16.0770  -33.8030 C   0  0  0  0  0  0  0  0  0  0  0  0
   -3.8670   16.4360  -33.6620 C   0  0  0  0  0  0  0  0  0  0  0  0
   -4.2180   17.7450  -33.2860 C   0  0  0  0  0  0  0  0  0  0  0  0
   -5.5660   18.1190  -33.1430 C   0  0  0  0  0  0  0  0  0  0  0  0
   -5.9260   19.5070  -32.7550 C   0  0  0  0  0  0  0  0  0  0  0  0
   -7.2320   20.0050  -33.0050 C   0  0  0  0  0  0  0  0  0  0  0  0
   -7.5790   21.3200  -32.6530 C   0  0  0  0  0  0  0  0  0  0  0  0
   -6.6100   22.1110  -32.0460 C   0  0  0  0  0  0  0  0  0  0  0  0
   -6.6730   23.4200  -31.6290 C   0  0  0  0  0  0  0  0  0  0  0  0
   -5.4120   23.7020  -31.1060 C   0  0  0  0  0  0  0  0  0  0  0  0
   -5.0680   24.9880  -30.4640 C   0  0  0  0  0  0  0  0  0  0  0  0
   -3.8640   25.6610  -30.8260 N   0  0  0  0  0  0  0  0  0  0  0  0
   -5.8410   25.5190  -29.6240 O   0  0  0  0  0  0  0  0  0  0  0  0
   -4.5990   22.6100  -31.2040 N   0  0  0  0  0  0  0  0  0  0  0  0
   -3.2140   22.5050  -30.8370 C   0  0  0  0  0  0  0  0  0  0  0  0
   -2.4530   21.7070  -31.4440 O   0  0  0  0  0  0  0  0  0  0  0  0
   -2.7050   23.2670  -29.7920 O   0  0  0  0  0  0  0  0  0  0  0  0
   -5.3500   21.6440  -31.7780 C   0  0  0  0  0  0  0  0  0  0  0  0
   -4.9690   20.3450  -32.1350 C   0  0  0  0  0  0  0  0  0  0  0  0
   -6.5650   17.1600  -33.3680 C   0  0  0  0  0  0  0  0  0  0  0  0
   -6.2280   15.8550  -33.7270 C   0  0  0  0  0  0  0  0  0  0  0  0
   -4.8850   15.4800  -33.8790 C   0  0  0  0  0  0  0  0  0  0  0  0
   -4.5720   14.0780  -34.2310 C   0  0  0  0  0  0  0  0  0  0  0  0
   -4.5910   13.7400  -35.4460 O   0  0  0  0  0  0  0  0  0  0  0  0
   -4.2450   13.1000  -33.2210 N   0  0  0  0  0  0  0  0  0  0  0  0
   -3.6600   11.8210  -33.6290 C   0  0  0  0  0  0  0  0  0  0  0  0
   -4.5830   13.3420  -31.8140 C   0  0  0  0  0  0  0  0  0  0  0  0
   -1.9623   15.9664  -32.8048 H   0  0  0  0  0  0  0  0  0  0  0  0
   -2.3187   15.1292  -34.3536 H   0  0  0  0  0  0  0  0  0  0  0  0
   -1.8887   16.8733  -34.3536 H   0  0  0  0  0  0  0  0  0  0  0  0
   -3.4269   18.4867  -33.1012 H   0  0  0  0  0  0  0  0  0  0  0  0
   -7.9806   19.3537  -33.4797 H   0  0  0  0  0  0  0  0  0  0  0  0
   -8.5873   21.7122  -32.8517 H   0  0  0  0  0  0  0  0  0  0  0  0
   -7.5352   24.1000  -31.6943 H   0  0  0  0  0  0  0  0  0  0  0  0
   -2.9340   25.2980  -30.5240 H   0  0  0  0  0  0  0  0  0  0  0  0
   -3.9488   19.9839  -31.9380 H   0  0  0  0  0  0  0  0  0  0  0  0
   -7.6234   17.4397  -33.2603 H   0  0  0  0  0  0  0  0  0  0  0  0
   -7.0229   15.1129  -33.8925 H   0  0  0  0  0  0  0  0  0  0  0  0
   -3.3933   11.2380  -32.7351 H   0  0  0  0  0  0  0  0  0  0  0  0
   -4.3904   11.2586  -34.2292 H   0  0  0  0  0  0  0  0  0  0  0  0
   -2.7569   12.0057  -34.2292 H   0  0  0  0  0  0  0  0  0  0  0  0
   -3.8588   12.8235  -31.1685 H   0  0  0  0  0  0  0  0  0  0  0  0
   -4.5490   14.4222  -31.6093 H   0  0  0  0  0  0  0  0  0  0  0  0
   -5.5947   12.9617  -31.6093 H   0  0  0  0  0  0  0  0  0  0  0  0
  1  2  1  0
  2  3  2  0
  3  4  1  0
  4  5  1  0
  5  6  2  0
  6  7  1  0
  7  8  2  0
  8  9  1  0
  9 10  2  0
 10 11  1  0
 11 12  1  0
 11 13  2  0
 10 14  1  0
 14 15  1  0
 15 16  2  0
 15 17  1  0
 14 18  1  0
 18 19  2  0
  4 20  2  0
 20 21  1  0
 21 22  2  0
 22 23  1  0
 23 24  2  0
 23 25  1  0
 25 26  1  0
 25 27  1  0
 22  2  1  0
 19  5  1  0
 18  8  1  0
  1 28  1  0
  1 29  1  0
  1 30  1  0
  3 31  1  0
  6 32  1  0
  7 33  1  0
  9 34  1  0
 12 35  1  0
 19 36  1  0
 20 37  1  0
 21 38  1  0
 26 39  1  0
 26 40  1  0
 26 41  1  0
 27 42  1  0
 27 43  1  0
 27 44  1  0
M  CHG  2  12  -1  17  -1
M  END
>  <UniqueID>  (46) 
46

>  <SMILES>  (46) 
Cc1cc(-c2ccc3cc(C([NH-])=O)n(C(=O)[O-])c3c2)ccc1C(=O)N(C)C

>  <Energy>  (46) 
95.24886988353506

>  <Genealogy>  (46) 
Cc1cc(-c2ccc3cc(C([NH-])=O)n(C(=O)[O-])c3c2)ccc1C(=O)N(C)C (protonated)
Cc1cc(-c2ccc3cc(C([NH-])=O)n(C(=O)[O-])c3c2)ccc1C(=O)N(C)C (3D coordinates assigned)
Cc1cc(-c2ccc3cc(C([NH-])=O)n(C(=O)[O-])c3c2)ccc1C(=O)N(C)C (optimized conformer: 95.24886988353506 kcal/mol)

>  <smiles>  (46) 
Cc1cc(-c2ccc3cc(C(N)=O)n(C(=O)O)c3c2)ccc1C(=O)N(C)C

>  <score_type>  (46) 
oracle

>  <origin>  (46) 
adg

>  <m_score__min__energy>  (46) 
-11.08

>  <m_primary>  (46) 
energy

$$$$
46:0
     RDKit          3D

 44 45  0  0  0  0  0  0  0  0999 V2000
   -2.2140   20.9930  -32.9240 C   0  0  0  0  0  0  0  0  0  0  0  0
   -2.8250   22.2620  -32.7270 O   0  0  0  0  0  0  0  0  0  0  0  0
   -3.4660   22.6130  -31.5350 C   0  0  0  0  0  0  0  0  0  0  0  0
   -2.7930   22.8120  -30.4860 O   0  0  0  0  0  0  0  0  0  0  0  0
   -4.8980   22.7240  -31.4990 N   0  0  0  0  0  0  0  0  0  0  0  0
   -5.6420   23.7810  -31.0660 C   0  0  0  0  0  0  0  0  0  0  0  0
   -5.1230   24.9920  -30.3970 C   0  0  0  0  0  0  0  0  0  0  0  0
   -3.7320   25.2980  -30.4640 N   0  0  0  0  0  0  0  0  0  0  0  0
   -5.9000   25.7790  -29.7960 O   0  0  0  0  0  0  0  0  0  0  0  0
   -6.9990   23.5350  -31.2600 C   0  0  0  0  0  0  0  0  0  0  0  0
   -7.0670   22.2800  -31.8230 C   0  0  0  0  0  0  0  0  0  0  0  0
   -8.1720   21.5410  -32.2340 C   0  0  0  0  0  0  0  0  0  0  0  0
   -7.9440   20.2790  -32.8070 C   0  0  0  0  0  0  0  0  0  0  0  0
   -6.6260   19.7820  -32.9590 C   0  0  0  0  0  0  0  0  0  0  0  0
   -6.4120   18.4920  -33.5650 N   0  0  0  0  0  0  0  0  0  0  0  0
   -5.7260   18.4780  -34.8620 C   0  0  0  0  0  0  0  0  0  0  0  0
   -6.5990   17.2360  -32.8000 C   0  0  2  0  0  0  0  0  0  0  0  0
   -6.3770   17.4730  -31.2860 C   0  0  0  0  0  0  0  0  0  0  0  0
   -5.7240   16.1550  -33.3380 N   0  0  0  0  0  0  0  0  0  0  0  0
   -4.9170   15.4630  -32.3170 C   0  0  0  0  0  0  0  0  0  0  0  0
   -6.4610   15.1900  -34.1690 C   0  0  0  0  0  0  0  0  0  0  0  0
   -5.5280   20.5700  -32.5450 C   0  0  0  0  0  0  0  0  0  0  0  0
   -5.7850   21.8130  -31.9580 C   0  0  0  0  0  0  0  0  0  0  0  0
   -1.9941   20.5364  -31.9477 H   0  0  0  0  0  0  0  0  0  0  0  0
   -2.8969   20.3409  -33.4883 H   0  0  0  0  0  0  0  0  0  0  0  0
   -1.2784   21.1202  -33.4883 H   0  0  0  0  0  0  0  0  0  0  0  0
   -3.1160   24.8380  -31.1710 H   0  0  0  0  0  0  0  0  0  0  0  0
   -7.8388   24.2020  -31.0153 H   0  0  0  0  0  0  0  0  0  0  0  0
   -9.1927   21.9330  -32.1139 H   0  0  0  0  0  0  0  0  0  0  0  0
   -8.7973   19.6705  -33.1411 H   0  0  0  0  0  0  0  0  0  0  0  0
   -4.6381   18.4558  -34.7011 H   0  0  0  0  0  0  0  0  0  0  0  0
   -6.0312   17.5859  -35.4286 H   0  0  0  0  0  0  0  0  0  0  0  0
   -5.9945   19.3818  -35.4286 H   0  0  0  0  0  0  0  0  0  0  0  0
   -7.6397   16.9014  -32.9227 H   0  0  0  0  0  0  0  0  0  0  0  0
   -7.0177   16.7891  -30.7100 H   0  0  0  0  0  0  0  0  0  0  0  0
   -5.3223   17.2851  -31.0362 H   0  0  0  0  0  0  0  0  0  0  0  0
   -6.6333   18.5132  -31.0362 H   0  0  0  0  0  0  0  0  0  0  0  0
   -5.2616   15.7585  -31.3150 H   0  0  0  0  0  0  0  0  0  0  0  0
   -5.0282   14.3752  -32.4370 H   0  0  0  0  0  0  0  0  0  0  0  0
   -3.8589   15.7388  -32.4370 H   0  0  0  0  0  0  0  0  0  0  0  0
   -7.0002   14.4840  -33.5202 H   0  0  0  0  0  0  0  0  0  0  0  0
   -7.1807   15.7274  -34.8040 H   0  0  0  0  0  0  0  0  0  0  0  0
   -5.7531   14.6371  -34.8040 H   0  0  0  0  0  0  0  0  0  0  0  0
   -4.4961   20.2141  -32.6813 H   0  0  0  0  0  0  0  0  0  0  0  0
  1  2  1  0
  2  3  1  0
  3  4  2  0
  3  5  1  0
  5  6  1  0
  6  7  1  0
  7  8  1  0
  7  9  2  0
  6 10  2  0
 10 11  1  0
 11 12  2  0
 12 13  1  0
 13 14  2  0
 14 15  1  0
 15 16  1  0
 15 17  1  0
 17 18  1  0
 17 19  1  0
 19 20  1  0
 19 21  1  0
 14 22  1  0
 22 23  2  0
 23  5  1  0
 23 11  1  0
  1 24  1  0
  1 25  1  0
  1 26  1  0
  8 27  1  0
 10 28  1  0
 12 29  1  0
 13 30  1  0
 16 31  1  0
 16 32  1  0
 16 33  1  0
 17 34  1  1
 18 35  1  0
 18 36  1  0
 18 37  1  0
 20 38  1  0
 20 39  1  0
 20 40  1  0
 21 41  1  0
 21 42  1  0
 21 43  1  0
 22 44  1  0
M  CHG  1   8  -1
M  END
>  <UniqueID>  (47) 
47

>  <SMILES>  (47) 
COC(=O)n1c(C([NH-])=O)cc2ccc(N(C)[C@H](C)N(C)C)cc21

>  <Energy>  (47) 
89.33533675885953

>  <Genealogy>  (47) 
COC(=O)n1c(C([NH-])=O)cc2ccc(N(C)C(C)N(C)C)cc21 (protonated)
COC(=O)n1c(C([NH-])=O)cc2ccc(N(C)[C@H](C)N(C)C)cc21 (chirality)
COC(=O)n1c(C([NH-])=O)cc2ccc(N(C)[C@H](C)N(C)C)cc21 (3D coordinates assigned)
COC(=O)n1c(C([NH-])=O)cc2ccc(N(C)[C@H](C)N(C)C)cc21 (optimized conformer: 89.33533675885953 kcal/mol)

>  <smiles>  (47) 
COC(=O)n1c(C(N)=O)cc2ccc(N(C)C(C)N(C)C)cc21

>  <score_type>  (47) 
oracle

>  <origin>  (47) 
adg

>  <m_score__min__energy>  (47) 
-9.8300000000000001

>  <m_primary>  (47) 
energy

$$$$
47:0
     RDKit          3D

 41 43  0  0  0  0  0  0  0  0999 V2000
   -3.5470   21.6940  -30.0540 C   0  0  0  0  0  0  0  0  0  0  0  0
   -4.2510   22.1430  -31.2950 C   0  0  0  0  0  0  0  0  0  0  0  0
   -3.5990   22.2480  -32.3680 O   0  0  0  0  0  0  0  0  0  0  0  0
   -5.6550   22.4540  -31.2780 N   0  0  0  0  0  0  0  0  0  0  0  0
   -6.2370   23.6110  -30.8530 C   0  0  0  0  0  0  0  0  0  0  0  0
   -5.5080   24.8310  -30.4370 C   0  0  0  0  0  0  0  0  0  0  0  0
   -5.8690   25.5290  -29.2420 N   0  0  0  0  0  0  0  0  0  0  0  0
   -4.5710   25.2800  -31.1470 O   0  0  0  0  0  0  0  0  0  0  0  0
   -7.6260   23.5130  -30.9280 C   0  0  0  0  0  0  0  0  0  0  0  0
   -7.8770   22.2490  -31.4110 C   0  0  0  0  0  0  0  0  0  0  0  0
   -9.0890   21.6100  -31.6570 C   0  0  0  0  0  0  0  0  0  0  0  0
   -9.0520   20.2820  -32.1130 C   0  0  0  0  0  0  0  0  0  0  0  0
   -7.8140   19.6200  -32.3100 C   0  0  0  0  0  0  0  0  0  0  0  0
   -7.7880   18.1730  -32.7270 C   0  0  0  0  0  0  0  0  0  0  0  0
   -6.6070   17.4200  -32.0980 C   0  0  0  0  0  0  0  0  0  0  0  0
   -5.3970   17.4200  -33.0020 C   0  0  0  0  0  0  0  0  0  0  0  0
   -4.3170   18.2740  -32.7220 C   0  0  0  0  0  0  0  0  0  0  0  0
   -3.2110   18.3170  -33.5770 C   0  0  0  0  0  0  0  0  0  0  0  0
   -3.1770   17.5150  -34.7200 C   0  0  0  0  0  0  0  0  0  0  0  0
   -4.2510   16.6690  -35.0120 C   0  0  0  0  0  0  0  0  0  0  0  0
   -5.3600   16.6200  -34.1620 C   0  0  0  0  0  0  0  0  0  0  0  0
   -6.3970   15.8030  -34.4750 F   0  0  0  0  0  0  0  0  0  0  0  0
   -6.6060   20.3000  -32.0450 C   0  0  0  0  0  0  0  0  0  0  0  0
   -6.6720   21.6280  -31.6110 C   0  0  0  0  0  0  0  0  0  0  0  0
   -4.0999   22.0466  -29.1708 H   0  0  0  0  0  0  0  0  0  0  0  0
   -3.4946   20.5953  -30.0393 H   0  0  0  0  0  0  0  0  0  0  0  0
   -2.5287   22.1098  -30.0393 H   0  0  0  0  0  0  0  0  0  0  0  0
   -5.3720   26.4090  -28.9810 H   0  0  0  0  0  0  0  0  0  0  0  0
   -6.5950   25.1580  -28.5910 H   0  0  0  0  0  0  0  0  0  0  0  0
   -8.3643   24.2826  -30.6584 H   0  0  0  0  0  0  0  0  0  0  0  0
  -10.0460   22.1289  -31.4992 H   0  0  0  0  0  0  0  0  0  0  0  0
   -9.9927   19.7505  -32.3192 H   0  0  0  0  0  0  0  0  0  0  0  0
   -8.7258   17.6939  -32.4092 H   0  0  0  0  0  0  0  0  0  0  0  0
   -7.6752   18.1341  -33.8205 H   0  0  0  0  0  0  0  0  0  0  0  0
   -6.3412   17.9050  -31.1471 H   0  0  0  0  0  0  0  0  0  0  0  0
   -6.9137   16.3760  -31.9368 H   0  0  0  0  0  0  0  0  0  0  0  0
   -4.3414   18.9118  -31.8261 H   0  0  0  0  0  0  0  0  0  0  0  0
   -2.3663   18.9837  -33.3488 H   0  0  0  0  0  0  0  0  0  0  0  0
   -2.3054   17.5490  -35.3902 H   0  0  0  0  0  0  0  0  0  0  0  0
   -4.2234   16.0396  -35.9137 H   0  0  0  0  0  0  0  0  0  0  0  0
   -5.6362   19.7978  -32.1766 H   0  0  0  0  0  0  0  0  0  0  0  0
  1  2  1  0
  2  3  2  0
  2  4  1  0
  4  5  1  0
  5  6  1  0
  6  7  1  0
  6  8  2  0
  5  9  2  0
  9 10  1  0
 10 11  2  0
 11 12  1  0
 12 13  2  0
 13 14  1  0
 14 15  1  0
 15 16  1  0
 16 17  2  0
 17 18  1  0
 18 19  2  0
 19 20  1  0
 20 21  2  0
 21 22  1  0
 13 23  1  0
 23 24  2  0
 24  4  1  0
 24 10  1  0
 21 16  1  0
  1 25  1  0
  1 26  1  0
  1 27  1  0
  7 28  1  0
  7 29  1  0
  9 30  1  0
 11 31  1  0
 12 32  1  0
 14 33  1  0
 14 34  1  0
 15 35  1  0
 15 36  1  0
 17 37  1  0
 18 38  1  0
 19 39  1  0
 20 40  1  0
 23 41  1  0
M  END
>  <UniqueID>  (48) 
48

>  <SMILES>  (48) 
CC(=O)n1c(C(N)=O)cc2ccc(CCc3ccccc3F)cc21

>  <Energy>  (48) 
77.89493072131708

>  <Genealogy>  (48) 
CC(=O)n1c(C(N)=O)cc2ccc(CCc3ccccc3F)cc21 (3D coordinates assigned)
CC(=O)n1c(C(N)=O)cc2ccc(CCc3ccccc3F)cc21 (optimized conformer: 77.89493072131708 kcal/mol)

>  <smiles>  (48) 
CC(=O)n1c(C(N)=O)cc2ccc(CCc3ccccc3F)cc21

>  <score_type>  (48) 
oracle

>  <origin>  (48) 
adg

>  <m_score__min__energy>  (48) 
-9.4199999999999999

>  <m_primary>  (48) 
energy

$$$$
48:0
     RDKit          3D

 69 71  0  0  0  0  0  0  0  0999 V2000
    0.5750   24.1220  -27.9670 C   0  0  0  0  0  0  0  0  0  0  0  0
   -0.4880   24.9230  -28.5900 N   0  0  0  0  0  0  0  0  0  0  0  0
   -1.1080   25.8380  -27.6160 C   0  0  0  0  0  0  0  0  0  0  0  0
   -1.4760   24.1060  -29.3350 C   0  0  0  0  0  0  0  0  0  0  0  0
   -2.9400   24.5550  -29.1660 C   0  0  0  0  0  0  0  0  0  0  0  0
   -3.5090   24.9520  -30.4510 N   0  0  0  0  0  0  0  0  0  0  0  0
   -4.9040   25.1920  -30.6550 C   0  0  0  0  0  0  0  0  0  0  0  0
   -5.3500   26.3620  -30.5630 O   0  0  0  0  0  0  0  0  0  0  0  0
   -5.8180   24.1000  -31.0140 C   0  0  0  0  0  0  0  0  0  0  0  0
   -7.1750   24.1690  -30.6900 C   0  0  0  0  0  0  0  0  0  0  0  0
   -7.9970   23.1300  -30.9860 N   0  0  0  0  0  0  0  0  0  0  0  0
   -7.5530   22.0030  -31.6130 C   0  0  0  0  0  0  0  0  0  0  0  0
   -8.4750   20.9220  -31.8380 N   0  0  0  0  0  0  0  0  0  0  0  0
   -8.2200   19.5990  -31.2650 C   0  0  0  0  0  0  0  0  0  0  0  0
   -9.8220   21.2250  -32.3160 C   0  0  0  0  0  0  0  0  0  0  0  0
   -6.1950   21.9150  -32.0090 C   0  0  0  0  0  0  0  0  0  0  0  0
   -5.6760   20.7760  -32.8040 C   0  0  0  0  0  0  0  0  0  0  0  0
   -6.5440   20.0430  -33.6530 C   0  0  0  0  0  0  0  0  0  0  0  0
   -6.0650   18.9550  -34.4020 C   0  0  0  0  0  0  0  0  0  0  0  0
   -4.7170   18.6270  -34.2860 C   0  0  0  0  0  0  0  0  0  0  0  0
   -4.0010   17.6180  -34.8840 C   0  0  0  0  0  0  0  0  0  0  0  0
   -2.6990   17.7530  -34.4060 C   0  0  0  0  0  0  0  0  0  0  0  0
   -1.5660   16.9170  -34.8630 C   0  0  0  0  0  0  0  0  0  0  0  0
   -0.3430   17.5180  -35.2890 N   0  0  0  0  0  0  0  0  0  0  0  0
   -1.6570   15.6600  -34.8460 O   0  0  0  0  0  0  0  0  0  0  0  0
   -2.6140   18.8050  -33.5390 N   0  0  0  0  0  0  0  0  0  0  0  0
   -1.4620   19.2280  -32.7880 C   0  0  0  0  0  0  0  0  0  0  0  0
   -0.3670   19.4240  -33.3800 O   0  0  0  0  0  0  0  0  0  0  0  0
   -1.5760   19.4380  -31.4040 O   0  0  0  0  0  0  0  0  0  0  0  0
   -1.5050   20.6980  -30.7240 C   0  0  0  0  0  0  0  0  0  0  0  0
   -1.5060   21.7950  -31.8000 C   0  0  0  0  0  0  0  0  0  0  0  0
   -0.2000   20.7950  -29.9130 C   0  0  0  0  0  0  0  0  0  0  0  0
   -2.7320   20.8990  -29.8110 C   0  0  0  0  0  0  0  0  0  0  0  0
   -3.8600   19.3300  -33.4790 C   0  0  0  0  0  0  0  0  0  0  0  0
   -4.3170   20.4010  -32.7030 C   0  0  0  0  0  0  0  0  0  0  0  0
   -5.3310   22.9720  -31.6780 C   0  0  0  0  0  0  0  0  0  0  0  0
    0.4891   24.1867  -26.8723 H   0  0  0  0  0  0  0  0  0  0  0  0
    0.4753   23.0726  -28.2812 H   0  0  0  0  0  0  0  0  0  0  0  0
    1.5563   24.5072  -28.2812 H   0  0  0  0  0  0  0  0  0  0  0  0
   -0.8777   25.4981  -26.5955 H   0  0  0  0  0  0  0  0  0  0  0  0
   -0.7111   26.8534  -27.7626 H   0  0  0  0  0  0  0  0  0  0  0  0
   -2.1982   25.8457  -27.7626 H   0  0  0  0  0  0  0  0  0  0  0  0
   -1.2239   24.1545  -30.4046 H   0  0  0  0  0  0  0  0  0  0  0  0
   -1.4131   23.0886  -28.9215 H   0  0  0  0  0  0  0  0  0  0  0  0
   -3.5278   23.7222  -28.7525 H   0  0  0  0  0  0  0  0  0  0  0  0
   -2.9692   25.4178  -28.4842 H   0  0  0  0  0  0  0  0  0  0  0  0
   -7.5775   25.0651  -30.1951 H   0  0  0  0  0  0  0  0  0  0  0  0
   -8.2330   19.6662  -30.1671 H   0  0  0  0  0  0  0  0  0  0  0  0
   -8.9996   18.8984  -31.5987 H   0  0  0  0  0  0  0  0  0  0  0  0
   -7.2358   19.2384  -31.5987 H   0  0  0  0  0  0  0  0  0  0  0  0
  -10.4911   21.3755  -31.4559 H   0  0  0  0  0  0  0  0  0  0  0  0
   -9.7974   22.1401  -32.9260 H   0  0  0  0  0  0  0  0  0  0  0  0
  -10.1916   20.3876  -32.9260 H   0  0  0  0  0  0  0  0  0  0  0  0
   -7.6036   20.3293  -33.7259 H   0  0  0  0  0  0  0  0  0  0  0  0
   -6.7341   18.3804  -35.0594 H   0  0  0  0  0  0  0  0  0  0  0  0
   -4.3763   16.8632  -35.5907 H   0  0  0  0  0  0  0  0  0  0  0  0
    0.4530   16.9190  -35.6020 H   0  0  0  0  0  0  0  0  0  0  0  0
   -0.2430   18.5540  -35.3570 H   0  0  0  0  0  0  0  0  0  0  0  0
   -1.5069   22.7830  -31.3164 H   0  0  0  0  0  0  0  0  0  0  0  0
   -0.6078   21.6945  -32.4269 H   0  0  0  0  0  0  0  0  0  0  0  0
   -2.4041   21.6928  -32.4269 H   0  0  0  0  0  0  0  0  0  0  0  0
   -0.4340   20.7776  -28.8383 H   0  0  0  0  0  0  0  0  0  0  0  0
    0.4498   19.9427  -30.1606 H   0  0  0  0  0  0  0  0  0  0  0  0
    0.3166   21.7340  -30.1606 H   0  0  0  0  0  0  0  0  0  0  0  0
   -2.4179   20.8475  -28.7581 H   0  0  0  0  0  0  0  0  0  0  0  0
   -3.1813   21.8827  -30.0119 H   0  0  0  0  0  0  0  0  0  0  0  0
   -3.4717   20.1101  -30.0119 H   0  0  0  0  0  0  0  0  0  0  0  0
   -3.6338   20.9391  -32.0294 H   0  0  0  0  0  0  0  0  0  0  0  0
   -4.2652   22.9109  -31.9432 H   0  0  0  0  0  0  0  0  0  0  0  0
  1  2  1  0
  2  3  1  0
  2  4  1  0
  4  5  1  0
  5  6  1  0
  6  7  1  0
  7  8  2  0
  7  9  1  0
  9 10  2  0
 10 11  1  0
 11 12  2  0
 12 13  1  0
 13 14  1  0
 13 15  1  0
 12 16  1  0
 16 17  1  0
 17 18  2  0
 18 19  1  0
 19 20  2  0
 20 21  1  0
 21 22  2  0
 22 23  1  0
 23 24  1  0
 23 25  2  0
 22 26  1  0
 26 27  1  0
 27 28  2  0
 27 29  1  0
 29 30  1  0
 30 31  1  0
 30 32  1  0
 30 33  1  0
 26 34  1  0
 34 35  2  0
 16 36  2  0
 36  9  1  0
 35 17  1  0
 34 20  1  0
  1 37  1  0
  1 38  1  0
  1 39  1  0
  3 40  1  0
  3 41  1  0
  3 42  1  0
  4 43  1  0
  4 44  1  0
  5 45  1  0
  5 46  1  0
 10 47  1  0
 14 48  1  0
 14 49  1  0
 14 50  1  0
 15 51  1  0
 15 52  1  0
 15 53  1  0
 18 54  1  0
 19 55  1  0
 21 56  1  0
 24 57  1  0
 24 58  1  0
 31 59  1  0
 31 60  1  0
 31 61  1  0
 32 62  1  0
 32 63  1  0
 32 64  1  0
 33 65  1  0
 33 66  1  0
 33 67  1  0
 35 68  1  0
 36 69  1  0
M  CHG  1   6  -1
M  END
>  <UniqueID>  (49) 
49

>  <SMILES>  (49) 
CN(C)CC[N-]C(=O)c1cnc(N(C)C)c(-c2ccc3cc(C(N)=O)n(C(=O)OC(C)(C)C)c3c2)c1

>  <Energy>  (49) 
120.22198078336118

>  <Genealogy>  (49) 
CN(C)CC[N-]C(=O)c1cnc(N(C)C)c(-c2ccc3cc(C(N)=O)n(C(=O)OC(C)(C)C)c3c2)c1 (protonated)
CN(C)CC[N-]C(=O)c1cnc(N(C)C)c(-c2ccc3cc(C(N)=O)n(C(=O)OC(C)(C)C)c3c2)c1 (3D coordinates assigned)
CN(C)CC[N-]C(=O)c1cnc(N(C)C)c(-c2ccc3cc(C(N)=O)n(C(=O)OC(C)(C)C)c3c2)c1 (optimized conformer: 120.22198078336118 kcal/mol)

>  <smiles>  (49) 
CN(C)CCNC(=O)c1cnc(N(C)C)c(-c2ccc3cc(C(N)=O)n(C(=O)OC(C)(C)C)c3c2)c1

>  <score_type>  (49) 
oracle

>  <origin>  (49) 
adg

>  <m_score__min__energy>  (49) 
-10.52

>  <m_primary>  (49) 
energy

$$$$
49:0
     RDKit          3D

 35 38  0  0  0  0  0  0  0  0999 V2000
   -4.3170   15.0180  -34.5480 N   0  0  0  0  0  0  0  0  0  0  0  0
   -5.6650   15.3600  -34.2230 C   0  0  0  0  0  0  0  0  0  0  0  0
   -6.5740   14.5020  -34.3780 O   0  0  0  0  0  0  0  0  0  0  0  0
   -6.0010   16.6760  -33.6450 C   0  0  0  0  0  0  0  0  0  0  0  0
   -7.2520   16.9820  -33.1170 C   0  0  0  0  0  0  0  0  0  0  0  0
   -7.1380   18.2650  -32.6330 C   0  0  0  0  0  0  0  0  0  0  0  0
   -8.0880   19.0750  -32.0170 C   0  0  0  0  0  0  0  0  0  0  0  0
   -7.7060   20.3770  -31.6550 C   0  0  0  0  0  0  0  0  0  0  0  0
   -6.3960   20.8440  -31.9170 C   0  0  0  0  0  0  0  0  0  0  0  0
   -6.0240   22.2520  -31.5450 C   0  0  2  0  0  0  0  0  0  0  0  0
   -6.4500   23.5260  -32.2930 C   0  0  0  0  0  0  0  0  0  0  0  0
   -5.5730   23.8670  -31.0820 C   0  0  2  0  0  0  0  0  0  0  0  0
   -5.1790   25.2510  -30.6850 C   0  0  0  0  0  0  0  0  0  0  0  0
   -6.0240   26.0230  -30.1630 O   0  0  0  0  0  0  0  0  0  0  0  0
   -3.8640   25.6700  -30.8400 O   0  0  0  0  0  0  0  0  0  0  0  0
   -4.5770   22.7610  -31.4510 C   0  0  0  0  0  0  0  0  0  0  0  0
   -6.3690   22.8970  -30.1960 C   0  0  0  0  0  0  0  0  0  0  0  0
   -5.4610   19.9970  -32.5510 C   0  0  0  0  0  0  0  0  0  0  0  0
   -5.8590   18.6960  -32.8820 C   0  0  0  0  0  0  0  0  0  0  0  0
   -5.1480   17.7310  -33.5080 N   0  0  0  0  0  0  0  0  0  0  0  0
   -3.8120   17.8470  -34.0250 C   0  0  0  0  0  0  0  0  0  0  0  0
   -2.8760   18.2500  -33.2840 O   0  0  0  0  0  0  0  0  0  0  0  0
   -3.5350   17.5150  -35.3450 O   0  0  0  0  0  0  0  0  0  0  0  0
   -3.5230   15.6370  -34.2730 H   0  0  0  0  0  0  0  0  0  0  0  0
   -4.1030   14.0970  -34.9900 H   0  0  0  0  0  0  0  0  0  0  0  0
   -8.1419   16.3360  -33.0920 H   0  0  0  0  0  0  0  0  0  0  0  0
   -9.1057   18.7068  -31.8200 H   0  0  0  0  0  0  0  0  0  0  0  0
   -8.4323   21.0405  -31.1629 H   0  0  0  0  0  0  0  0  0  0  0  0
   -6.0436   23.7024  -33.2998 H   0  0  0  0  0  0  0  0  0  0  0  0
   -7.4452   23.8902  -32.5877 H   0  0  0  0  0  0  0  0  0  0  0  0
   -3.9981   22.8668  -32.3803 H   0  0  0  0  0  0  0  0  0  0  0  0
   -3.7071   22.3637  -30.9074 H   0  0  0  0  0  0  0  0  0  0  0  0
   -5.8881   22.5022  -29.2889 H   0  0  0  0  0  0  0  0  0  0  0  0
   -7.3331   23.0177  -29.6803 H   0  0  0  0  0  0  0  0  0  0  0  0
   -4.4447   20.3506  -32.7793 H   0  0  0  0  0  0  0  0  0  0  0  0
  1  2  1  0
  2  3  2  0
  2  4  1  0
  4  5  2  0
  5  6  1  0
  6  7  2  0
  7  8  1  0
  8  9  2  0
 10  9  1  6
 10 11  1  0
 11 12  1  0
 12 13  1  1
 13 14  2  0
 13 15  1  0
 12 16  1  0
 12 17  1  0
  9 18  1  0
 18 19  2  0
 19 20  1  0
 20 21  1  0
 21 22  2  0
 21 23  1  0
 20  4  1  0
 19  6  1  0
 16 10  1  0
 17 10  1  0
  1 24  1  0
  1 25  1  0
  5 26  1  0
  7 27  1  0
  8 28  1  0
 11 29  1  0
 11 30  1  0
 16 31  1  0
 16 32  1  0
 17 33  1  0
 17 34  1  0
 18 35  1  0
M  CHG  2  15  -1  23  -1
M  END
>  <UniqueID>  (50) 
50

>  <SMILES>  (50) 
NC(=O)c1cc2ccc(C34CC(C(=O)[O-])(C3)C4)cc2n1C(=O)[O-]

>  <Energy>  (50) 
370.08549268119543

>  <Genealogy>  (50) 
NC(=O)c1cc2ccc(C34CC(C(=O)[O-])(C3)C4)cc2n1C(=O)[O-] (protonated)
NC(=O)c1cc2ccc(C34CC(C(=O)[O-])(C3)C4)cc2n1C(=O)[O-] (3D coordinates assigned)
NC(=O)c1cc2ccc(C34CC(C(=O)[O-])(C3)C4)cc2n1C(=O)[O-] (nonaromatic ring conformer: 370.08549268119543 kcal/mol)

>  <smiles>  (50) 
NC(=O)c1cc2ccc(C34CC(C(=O)O)(C3)C4)cc2n1C(=O)O

>  <score_type>  (50) 
oracle

>  <origin>  (50) 
adg

>  <m_score__min__energy>  (50) 
-9.7300000000000004

>  <m_primary>  (50) 
energy

$$$$
50:0
     RDKit          3D

 25 26  0  0  0  0  0  0  0  0999 V2000
   -5.6500   26.4770  -30.2040 N   0  0  0  0  0  0  0  0  0  0  0  0
   -6.4290   25.3070  -29.9580 C   0  0  0  0  0  0  0  0  0  0  0  0
   -7.2550   25.3030  -29.0070 O   0  0  0  0  0  0  0  0  0  0  0  0
   -6.2380   24.0780  -30.7550 C   0  0  0  0  0  0  0  0  0  0  0  0
   -7.2870   23.3720  -31.3360 C   0  0  0  0  0  0  0  0  0  0  0  0
   -6.7040   22.2750  -31.9250 C   0  0  0  0  0  0  0  0  0  0  0  0
   -7.2830   21.2370  -32.6470 C   0  0  0  0  0  0  0  0  0  0  0  0
   -6.4370   20.2470  -33.1710 C   0  0  0  0  0  0  0  0  0  0  0  0
   -5.0310   20.3230  -32.9920 C   0  0  0  0  0  0  0  0  0  0  0  0
   -4.1360   19.2360  -33.5300 C   0  0  0  0  0  0  0  0  0  0  0  0
   -2.9370   19.7650  -33.9730 F   0  0  0  0  0  0  0  0  0  0  0  0
   -3.8820   18.3190  -32.5270 F   0  0  0  0  0  0  0  0  0  0  0  0
   -4.7400   18.5860  -34.5920 F   0  0  0  0  0  0  0  0  0  0  0  0
   -4.4840   21.3840  -32.2320 C   0  0  0  0  0  0  0  0  0  0  0  0
   -5.3520   22.3460  -31.7020 C   0  0  0  0  0  0  0  0  0  0  0  0
   -5.0490   23.4510  -30.9850 N   0  0  0  0  0  0  0  0  0  0  0  0
   -3.7330   23.9240  -30.6470 C   0  0  0  0  0  0  0  0  0  0  0  0
   -2.7930   23.1090  -30.4600 O   0  0  0  0  0  0  0  0  0  0  0  0
   -3.4850   25.2860  -30.5230 O   0  0  0  0  0  0  0  0  0  0  0  0
   -4.8440   26.4590  -30.8660 H   0  0  0  0  0  0  0  0  0  0  0  0
   -5.8260   27.3490  -29.6550 H   0  0  0  0  0  0  0  0  0  0  0  0
   -8.3549   23.6354  -31.3261 H   0  0  0  0  0  0  0  0  0  0  0  0
   -8.3710   21.1931  -32.8028 H   0  0  0  0  0  0  0  0  0  0  0  0
   -6.8690   19.4020  -33.7272 H   0  0  0  0  0  0  0  0  0  0  0  0
   -3.3994   21.4514  -32.0613 H   0  0  0  0  0  0  0  0  0  0  0  0
  1  2  1  0
  2  3  2  0
  2  4  1  0
  4  5  2  0
  5  6  1  0
  6  7  2  0
  7  8  1  0
  8  9  2  0
  9 10  1  0
 10 11  1  0
 10 12  1  0
 10 13  1  0
  9 14  1  0
 14 15  2  0
 15 16  1  0
 16 17  1  0
 17 18  2  0
 17 19  1  0
 16  4  1  0
 15  6  1  0
  1 20  1  0
  1 21  1  0
  5 22  1  0
  7 23  1  0
  8 24  1  0
 14 25  1  0
M  CHG  1  19  -1
M  END
>  <UniqueID>  (51) 
51

>  <SMILES>  (51) 
NC(=O)c1cc2ccc(C(F)(F)F)cc2n1C(=O)[O-]

>  <Energy>  (51) 
66.40579837158086

>  <Genealogy>  (51) 
NC(=O)c1cc2ccc(C(F)(F)F)cc2n1C(=O)[O-] (protonated)
NC(=O)c1cc2ccc(C(F)(F)F)cc2n1C(=O)[O-] (3D coordinates assigned)
NC(=O)c1cc2ccc(C(F)(F)F)cc2n1C(=O)[O-] (optimized conformer: 66.40579837158086 kcal/mol)

>  <smiles>  (51) 
NC(=O)c1cc2ccc(C(F)(F)F)cc2n1C(=O)O

>  <score_type>  (51) 
oracle

>  <origin>  (51) 
adg

>  <m_score__min__energy>  (51) 
-7.8399999999999999

>  <m_primary>  (51) 
energy

$$$$
51:0
     RDKit          3D

 38 40  0  0  0  0  0  0  0  0999 V2000
   -3.8650   25.4240  -30.4700 N   0  0  0  0  0  0  0  0  0  0  0  0
   -5.0150   24.6150  -30.7130 C   0  0  0  0  0  0  0  0  0  0  0  0
   -5.8700   24.9950  -31.5580 O   0  0  0  0  0  0  0  0  0  0  0  0
   -5.2590   23.3740  -29.8860 C   0  0  1  0  0  0  0  0  0  0  0  0
   -5.8820   22.2470  -30.6870 C   0  0  0  0  0  0  0  0  0  0  0  0
   -7.2940   22.1100  -30.7790 C   0  0  0  0  0  0  0  0  0  0  0  0
   -7.8690   21.0870  -31.5510 C   0  0  0  0  0  0  0  0  0  0  0  0
   -7.0140   20.2250  -32.2310 C   0  0  0  0  0  0  0  0  0  0  0  0
   -7.2990   19.1520  -33.0470 C   0  0  0  0  0  0  0  0  0  0  0  0
   -6.0590   18.6660  -33.4620 C   0  0  0  0  0  0  0  0  0  0  0  0
   -5.8770   17.5600  -34.4300 C   0  0  0  0  0  0  0  0  0  0  0  0
   -4.6680   17.4350  -35.1810 N   0  0  0  0  0  0  0  0  0  0  0  0
   -6.7870   16.7050  -34.5870 O   0  0  0  0  0  0  0  0  0  0  0  0
   -5.0530   19.4060  -32.9180 N   0  0  0  0  0  0  0  0  0  0  0  0
   -3.6370   19.2200  -33.0640 C   0  0  0  0  0  0  0  0  0  0  0  0
   -3.1630   18.0520  -33.0790 O   0  0  0  0  0  0  0  0  0  0  0  0
   -2.7160   20.3850  -33.2740 C   0  0  0  0  0  0  0  0  0  0  0  0
   -3.4380   21.4690  -33.7370 F   0  0  0  0  0  0  0  0  0  0  0  0
   -1.7270   20.0730  -34.1890 F   0  0  0  0  0  0  0  0  0  0  0  0
   -2.1210   20.7190  -32.0720 F   0  0  0  0  0  0  0  0  0  0  0  0
   -5.6520   20.3570  -32.1730 C   0  0  0  0  0  0  0  0  0  0  0  0
   -5.0500   21.3590  -31.4070 C   0  0  0  0  0  0  0  0  0  0  0  0
   -4.0250   22.9010  -29.2460 N   0  0  0  0  0  0  0  0  0  0  0  0
   -3.8290   22.5910  -27.9510 C   0  0  0  0  0  0  0  0  0  0  0  0
   -2.4970   22.2870  -27.7840 C   0  0  0  0  0  0  0  0  0  0  0  0
   -1.8520   22.4200  -28.9610 N   0  0  0  0  0  0  0  0  0  0  0  0
   -2.8140   22.8010  -29.8280 C   0  0  0  0  0  0  0  0  0  0  0  0
   -3.4810   26.0480  -31.2140 H   0  0  0  0  0  0  0  0  0  0  0  0
   -5.9779   23.6708  -29.1081 H   0  0  0  0  0  0  0  0  0  0  0  0
   -7.9444   22.8138  -30.2389 H   0  0  0  0  0  0  0  0  0  0  0  0
   -8.9609   20.9709  -31.6160 H   0  0  0  0  0  0  0  0  0  0  0  0
   -8.2922   18.7619  -33.3142 H   0  0  0  0  0  0  0  0  0  0  0  0
   -4.5390   16.6300  -35.8330 H   0  0  0  0  0  0  0  0  0  0  0  0
   -3.9170   18.1570  -35.1290 H   0  0  0  0  0  0  0  0  0  0  0  0
   -3.9550   21.4545  -31.3652 H   0  0  0  0  0  0  0  0  0  0  0  0
   -4.5980   22.5822  -27.1645 H   0  0  0  0  0  0  0  0  0  0  0  0
   -2.0301   21.9822  -26.8358 H   0  0  0  0  0  0  0  0  0  0  0  0
   -2.6295   23.0072  -30.8926 H   0  0  0  0  0  0  0  0  0  0  0  0
  1  2  1  0
  2  3  2  0
  2  4  1  0
  4  5  1  0
  5  6  2  0
  6  7  1  0
  7  8  2  0
  8  9  1  0
  9 10  2  0
 10 11  1  0
 11 12  1  0
 11 13  2  0
 10 14  1  0
 14 15  1  0
 15 16  2  0
 15 17  1  0
 17 18  1  0
 17 19  1  0
 17 20  1  0
 14 21  1  0
 21 22  2  0
  4 23  1  0
 23 24  1  0
 24 25  2  0
 25 26  1  0
 26 27  2  0
 22  5  1  0
 27 23  1  0
 21  8  1  0
  1 28  1  0
  4 29  1  1
  6 30  1  0
  7 31  1  0
  9 32  1  0
 12 33  1  0
 12 34  1  0
 22 35  1  0
 24 36  1  0
 25 37  1  0
 27 38  1  0
M  CHG  1   1  -1
M  END
>  <UniqueID>  (52) 
52

>  <SMILES>  (52) 
[NH-]C(=O)[C@@H](c1ccc2cc(C(N)=O)n(C(=O)C(F)(F)F)c2c1)n1ccnc1

>  <Energy>  (52) 
110.03410469021354

>  <Genealogy>  (52) 
[NH-]C(=O)C(c1ccc2cc(C(N)=O)n(C(=O)C(F)(F)F)c2c1)n1ccnc1 (protonated)
[NH-]C(=O)[C@@H](c1ccc2cc(C(N)=O)n(C(=O)C(F)(F)F)c2c1)n1ccnc1 (chirality)
[NH-]C(=O)[C@@H](c1ccc2cc(C(N)=O)n(C(=O)C(F)(F)F)c2c1)n1ccnc1 (3D coordinates assigned)
[NH-]C(=O)[C@@H](c1ccc2cc(C(N)=O)n(C(=O)C(F)(F)F)c2c1)n1ccnc1 (optimized conformer: 110.03410469021354 kcal/mol)

>  <smiles>  (52) 
NC(=O)c1cc2ccc(C(C(N)=O)n3ccnc3)cc2n1C(=O)C(F)(F)F

>  <score_type>  (52) 
oracle

>  <origin>  (52) 
adg

>  <m_score__min__energy>  (52) 
-9.5500000000000007

>  <m_primary>  (52) 
energy

$$$$
52:0
     RDKit          3D

 49 51  0  0  0  0  0  0  0  0999 V2000
   -3.9050   24.2670  -27.1540 C   0  0  0  0  0  0  0  0  0  0  0  0
   -3.2030   23.4100  -27.8990 C   0  0  0  0  0  0  0  0  0  0  0  0
   -3.8200   22.1460  -28.4270 C   0  0  0  0  0  0  0  0  0  0  0  0
   -3.3590   21.8740  -29.7490 O   0  0  0  0  0  0  0  0  0  0  0  0
   -3.7590   22.6140  -30.8690 C   0  0  0  0  0  0  0  0  0  0  0  0
   -2.8990   23.0670  -31.6730 O   0  0  0  0  0  0  0  0  0  0  0  0
   -5.1560   22.8310  -31.1170 N   0  0  0  0  0  0  0  0  0  0  0  0
   -5.9180   23.8890  -30.7200 C   0  0  0  0  0  0  0  0  0  0  0  0
   -5.4210   25.1310  -30.0930 C   0  0  0  0  0  0  0  0  0  0  0  0
   -4.1430   25.6640  -30.4340 N   0  0  0  0  0  0  0  0  0  0  0  0
   -6.1520   25.7550  -29.2790 O   0  0  0  0  0  0  0  0  0  0  0  0
   -7.2550   23.6820  -31.0580 C   0  0  0  0  0  0  0  0  0  0  0  0
   -7.2870   22.4560  -31.6830 C   0  0  0  0  0  0  0  0  0  0  0  0
   -8.3630   21.7450  -32.2050 C   0  0  0  0  0  0  0  0  0  0  0  0
   -8.1100   20.4790  -32.7590 C   0  0  0  0  0  0  0  0  0  0  0  0
   -6.7960   19.9470  -32.7760 C   0  0  0  0  0  0  0  0  0  0  0  0
   -6.5540   18.6380  -33.3150 N   0  0  0  0  0  0  0  0  0  0  0  0
   -5.6650   18.4550  -34.4660 C   0  0  0  0  0  0  0  0  0  0  0  0
   -4.7270   17.2850  -34.1770 C   0  0  0  0  0  0  0  0  0  0  0  0
   -5.4710   16.0250  -33.9540 N   0  0  0  0  0  0  0  0  0  0  0  0
   -4.5290   14.9080  -32.9950 S   0  0  0  0  0  0  0  0  0  0  0  0
   -4.6950   13.2310  -33.5780 C   0  0  0  0  0  0  0  0  0  0  0  0
   -3.0800   15.3030  -33.0600 O   0  0  0  0  0  0  0  0  0  0  0  0
   -4.9800   14.9700  -31.5610 O   0  0  0  0  0  0  0  0  0  0  0  0
   -6.8510   16.1750  -33.4320 C   0  0  0  0  0  0  0  0  0  0  0  0
   -7.0700   17.4580  -32.6110 C   0  0  0  0  0  0  0  0  0  0  0  0
   -5.7290   20.6980  -32.2330 C   0  0  0  0  0  0  0  0  0  0  0  0
   -6.0080   21.9630  -31.7050 C   0  0  0  0  0  0  0  0  0  0  0  0
   -3.4310   25.1860  -26.7789 H   0  0  0  0  0  0  0  0  0  0  0  0
   -4.9575   24.0541  -26.9153 H   0  0  0  0  0  0  0  0  0  0  0  0
   -2.1513   23.6339  -28.1310 H   0  0  0  0  0  0  0  0  0  0  0  0
   -3.5455   21.3081  -27.7693 H   0  0  0  0  0  0  0  0  0  0  0  0
   -4.9128   22.2695  -28.4519 H   0  0  0  0  0  0  0  0  0  0  0  0
   -3.3890   25.0500  -30.8110 H   0  0  0  0  0  0  0  0  0  0  0  0
   -8.1035   24.3552  -30.8660 H   0  0  0  0  0  0  0  0  0  0  0  0
   -9.3809   22.1615  -32.1846 H   0  0  0  0  0  0  0  0  0  0  0  0
   -8.9396   19.8948  -33.1838 H   0  0  0  0  0  0  0  0  0  0  0  0
   -6.2618   18.2382  -35.3642 H   0  0  0  0  0  0  0  0  0  0  0  0
   -5.0807   19.3709  -34.6385 H   0  0  0  0  0  0  0  0  0  0  0  0
   -4.0499   17.1517  -35.0336 H   0  0  0  0  0  0  0  0  0  0  0  0
   -4.1647   17.5164  -33.2603 H   0  0  0  0  0  0  0  0  0  0  0  0
   -4.7625   12.5488  -32.7178 H   0  0  0  0  0  0  0  0  0  0  0  0
   -5.6062   13.1433  -34.1879 H   0  0  0  0  0  0  0  0  0  0  0  0
   -3.8187   12.9664  -34.1879 H   0  0  0  0  0  0  0  0  0  0  0  0
   -7.5449   16.1870  -34.2854 H   0  0  0  0  0  0  0  0  0  0  0  0
   -7.0304   15.3273  -32.7544 H   0  0  0  0  0  0  0  0  0  0  0  0
   -8.1475   17.5898  -32.4334 H   0  0  0  0  0  0  0  0  0  0  0  0
   -6.5274   17.3574  -31.6595 H   0  0  0  0  0  0  0  0  0  0  0  0
   -4.7044   20.2977  -32.2257 H   0  0  0  0  0  0  0  0  0  0  0  0
  1  2  2  0
  2  3  1  0
  3  4  1  0
  4  5  1  0
  5  6  2  0
  5  7  1  0
  7  8  1  0
  8  9  1  0
  9 10  1  0
  9 11  2  0
  8 12  2  0
 12 13  1  0
 13 14  2  0
 14 15  1  0
 15 16  2  0
 16 17  1  0
 17 18  1  0
 18 19  1  0
 19 20  1  0
 20 21  1  0
 21 22  1  0
 21 23  2  0
 21 24  2  0
 20 25  1  0
 25 26  1  0
 16 27  1  0
 27 28  2  0
 28  7  1  0
 28 13  1  0
 26 17  1  0
  1 29  1  0
  1 30  1  0
  2 31  1  0
  3 32  1  0
  3 33  1  0
 10 34  1  0
 12 35  1  0
 14 36  1  0
 15 37  1  0
 18 38  1  0
 18 39  1  0
 19 40  1  0
 19 41  1  0
 22 42  1  0
 22 43  1  0
 22 44  1  0
 25 45  1  0
 25 46  1  0
 26 47  1  0
 26 48  1  0
 27 49  1  0
M  CHG  1  10  -1
M  END
>  <UniqueID>  (53) 
53

>  <SMILES>  (53) 
C=CCOC(=O)n1c(C([NH-])=O)cc2ccc(N3CCN(S(C)(=O)=O)CC3)cc21

>  <Energy>  (53) 
90.97464391511458

>  <Genealogy>  (53) 
C=CCOC(=O)n1c(C([NH-])=O)cc2ccc(N3CCN(S(C)(=O)=O)CC3)cc21 (protonated)
C=CCOC(=O)n1c(C([NH-])=O)cc2ccc(N3CCN(S(C)(=O)=O)CC3)cc21 (3D coordinates assigned)
C=CCOC(=O)n1c(C([NH-])=O)cc2ccc(N3CCN(S(C)(=O)=O)CC3)cc21 (nonaromatic ring conformer: 90.97464391511458 kcal/mol)

>  <smiles>  (53) 
C=CCOC(=O)n1c(C(N)=O)cc2ccc(N3CCN(S(C)(=O)=O)CC3)cc21

>  <score_type>  (53) 
oracle

>  <origin>  (53) 
adg

>  <m_score__min__energy>  (53) 
-11.300000000000001

>  <m_primary>  (53) 
energy

$$$$
53:0
     RDKit          3D

 40 42  0  0  0  0  0  0  0  0999 V2000
   -1.8640   25.6380  -28.9640 N   0  0  0  0  0  0  0  0  0  0  0  0
   -1.0860   24.4560  -29.1310 C   0  0  0  0  0  0  0  0  0  0  0  0
    0.0570   24.3910  -28.6020 O   0  0  0  0  0  0  0  0  0  0  0  0
   -1.5730   23.3330  -29.9590 C   0  0  0  0  0  0  0  0  0  0  0  0
   -0.7800   22.2420  -30.3100 C   0  0  0  0  0  0  0  0  0  0  0  0
   -1.5610   21.4790  -31.1480 C   0  0  0  0  0  0  0  0  0  0  0  0
   -1.2730   20.2780  -31.7890 C   0  0  0  0  0  0  0  0  0  0  0  0
   -2.2800   19.6960  -32.5790 C   0  0  0  0  0  0  0  0  0  0  0  0
   -3.5510   20.3110  -32.6960 C   0  0  0  0  0  0  0  0  0  0  0  0
   -4.6140   19.6870  -33.5660 C   0  0  0  0  0  0  0  0  0  0  0  0
   -5.9000   19.4160  -32.7980 C   0  0  0  0  0  0  0  0  0  0  0  0
   -5.8710   18.6040  -31.8820 O   0  0  0  0  0  0  0  0  0  0  0  0
   -7.1830   20.0210  -33.1420 N   0  0  0  0  0  0  0  0  0  0  0  0
   -8.3870   19.2720  -32.7100 C   0  0  0  0  0  0  0  0  0  0  0  0
   -8.7940   19.5790  -31.2550 C   0  0  0  0  0  0  0  0  0  0  0  0
   -8.9080   20.9700  -31.0370 O   0  0  0  0  0  0  0  0  0  0  0  0
   -7.6550   21.5830  -31.2560 C   0  0  0  0  0  0  0  0  0  0  0  0
   -7.2400   21.4400  -32.7250 C   0  0  0  0  0  0  0  0  0  0  0  0
   -3.8020   21.5370  -32.0390 C   0  0  0  0  0  0  0  0  0  0  0  0
   -2.7750   22.1040  -31.2750 C   0  0  0  0  0  0  0  0  0  0  0  0
   -2.8000   23.2440  -30.5490 N   0  0  0  0  0  0  0  0  0  0  0  0
   -3.9270   24.1170  -30.3770 C   0  0  0  0  0  0  0  0  0  0  0  0
   -4.9740   23.7010  -29.8130 O   0  0  0  0  0  0  0  0  0  0  0  0
   -3.8840   25.4220  -30.8530 O   0  0  0  0  0  0  0  0  0  0  0  0
   -2.8440   25.6910  -29.3170 H   0  0  0  0  0  0  0  0  0  0  0  0
    0.2507   22.0348  -29.9862 H   0  0  0  0  0  0  0  0  0  0  0  0
   -0.2886   19.7991  -31.6811 H   0  0  0  0  0  0  0  0  0  0  0  0
   -2.0792   18.7545  -33.1111 H   0  0  0  0  0  0  0  0  0  0  0  0
   -4.8362   20.3703  -34.3989 H   0  0  0  0  0  0  0  0  0  0  0  0
   -4.2290   18.7232  -33.9305 H   0  0  0  0  0  0  0  0  0  0  0  0
   -7.2170   20.0210  -34.1910 H   0  0  0  0  0  0  0  0  0  0  0  0
   -9.2234   19.5396  -33.3724 H   0  0  0  0  0  0  0  0  0  0  0  0
   -8.1471   18.2000  -32.7667 H   0  0  0  0  0  0  0  0  0  0  0  0
   -9.7633   19.1028  -31.0459 H   0  0  0  0  0  0  0  0  0  0  0  0
   -8.0148   19.1852  -30.5858 H   0  0  0  0  0  0  0  0  0  0  0  0
   -7.7243   22.6508  -31.0012 H   0  0  0  0  0  0  0  0  0  0  0  0
   -6.9016   21.0916  -30.6227 H   0  0  0  0  0  0  0  0  0  0  0  0
   -7.9712   21.9676  -33.3550 H   0  0  0  0  0  0  0  0  0  0  0  0
   -6.2352   21.8722  -32.8411 H   0  0  0  0  0  0  0  0  0  0  0  0
   -4.7799   22.0332  -32.1258 H   0  0  0  0  0  0  0  0  0  0  0  0
  1  2  1  0
  2  3  2  0
  2  4  1  0
  4  5  2  0
  5  6  1  0
  6  7  2  0
  7  8  1  0
  8  9  2  0
  9 10  1  0
 10 11  1  0
 11 12  2  0
 11 13  1  0
 13 14  1  0
 14 15  1  0
 15 16  1  0
 16 17  1  0
 17 18  1  0
  9 19  1  0
 19 20  2  0
 20 21  1  0
 21 22  1  0
 22 23  2  0
 22 24  1  0
 21  4  1  0
 20  6  1  0
 18 13  1  0
  1 25  1  0
  5 26  1  0
  7 27  1  0
  8 28  1  0
 10 29  1  0
 10 30  1  0
 13 31  1  0
 14 32  1  0
 14 33  1  0
 15 34  1  0
 15 35  1  0
 17 36  1  0
 17 37  1  0
 18 38  1  0
 18 39  1  0
 19 40  1  0
M  CHG  3   1  -1  13   1  24  -1
M  END
>  <UniqueID>  (54) 
54

>  <SMILES>  (54) 
[NH-]C(=O)c1cc2ccc(CC(=O)[NH+]3CCOCC3)cc2n1C(=O)[O-]

>  <Energy>  (54) 
92.10495125803915

>  <Genealogy>  (54) 
[NH-]C(=O)c1cc2ccc(CC(=O)[NH+]3CCOCC3)cc2n1C(=O)[O-] (protonated)
[NH-]C(=O)c1cc2ccc(CC(=O)[NH+]3CCOCC3)cc2n1C(=O)[O-] (3D coordinates assigned)
[NH-]C(=O)c1cc2ccc(CC(=O)[NH+]3CCOCC3)cc2n1C(=O)[O-] (nonaromatic ring conformer: 92.10495125803915 kcal/mol)

>  <smiles>  (54) 
NC(=O)c1cc2ccc(CC(=O)N3CCOCC3)cc2n1C(=O)O

>  <score_type>  (54) 
oracle

>  <origin>  (54) 
adg

>  <m_score__min__energy>  (54) 
-11.48

>  <m_primary>  (54) 
energy

$$$$
54:0
     RDKit          3D

 34 36  0  0  0  0  0  0  0  0999 V2000
   -3.8700   14.4860  -34.9220 C   0  0  0  0  0  0  0  0  0  0  0  0
   -2.7330   15.7520  -35.5680 S   0  0  0  0  0  0  0  0  0  0  0  0
   -3.6160   17.1020  -34.7930 C   0  0  0  0  0  0  0  0  0  0  0  0
   -4.9670   17.1790  -34.9030 N   0  0  0  0  0  0  0  0  0  0  0  0
   -5.6580   18.1960  -34.3250 C   0  0  0  0  0  0  0  0  0  0  0  0
   -4.9800   19.1870  -33.5980 C   0  0  0  0  0  0  0  0  0  0  0  0
   -5.7110   20.3070  -32.9530 C   0  0  0  0  0  0  0  0  0  0  0  0
   -7.1320   20.3290  -32.9520 C   0  0  0  0  0  0  0  0  0  0  0  0
   -7.8340   21.3770  -32.3350 C   0  0  0  0  0  0  0  0  0  0  0  0
   -7.0970   22.3920  -31.7320 C   0  0  0  0  0  0  0  0  0  0  0  0
   -7.5230   23.5060  -31.0480 C   0  0  0  0  0  0  0  0  0  0  0  0
   -6.3600   24.1650  -30.6540 C   0  0  0  0  0  0  0  0  0  0  0  0
   -6.3490   25.4730  -29.9640 C   0  0  0  0  0  0  0  0  0  0  0  0
   -5.4610   26.5120  -30.3820 N   0  0  0  0  0  0  0  0  0  0  0  0
   -7.1010   25.6720  -28.9730 O   0  0  0  0  0  0  0  0  0  0  0  0
   -5.2580   23.4840  -31.0780 N   0  0  0  0  0  0  0  0  0  0  0  0
   -3.8800   23.8020  -30.8170 C   0  0  0  0  0  0  0  0  0  0  0  0
   -3.0060   22.8960  -30.8170 O   0  0  0  0  0  0  0  0  0  0  0  0
   -3.5020   25.1100  -30.5420 O   0  0  0  0  0  0  0  0  0  0  0  0
   -5.7260   22.4000  -31.7390 C   0  0  0  0  0  0  0  0  0  0  0  0
   -5.0010   21.3590  -32.3300 C   0  0  0  0  0  0  0  0  0  0  0  0
   -3.5840   19.0810  -33.5030 C   0  0  0  0  0  0  0  0  0  0  0  0
   -2.9340   18.0490  -34.1010 N   0  0  0  0  0  0  0  0  0  0  0  0
   -3.8531   14.5048  -33.8223 H   0  0  0  0  0  0  0  0  0  0  0  0
   -4.8902   14.6942  -35.2766 H   0  0  0  0  0  0  0  0  0  0  0  0
   -3.5538   13.4939  -35.2766 H   0  0  0  0  0  0  0  0  0  0  0  0
   -6.7522   18.2429  -34.4271 H   0  0  0  0  0  0  0  0  0  0  0  0
   -7.6885   19.5155  -33.4403 H   0  0  0  0  0  0  0  0  0  0  0  0
   -8.9338   21.3952  -32.3284 H   0  0  0  0  0  0  0  0  0  0  0  0
   -8.5614   23.8121  -30.8531 H   0  0  0  0  0  0  0  0  0  0  0  0
   -5.4320   27.4170  -29.8630 H   0  0  0  0  0  0  0  0  0  0  0  0
   -4.8620   26.4040  -31.2300 H   0  0  0  0  0  0  0  0  0  0  0  0
   -3.9012   21.3593  -32.3102 H   0  0  0  0  0  0  0  0  0  0  0  0
   -3.0140   19.8364  -32.9422 H   0  0  0  0  0  0  0  0  0  0  0  0
  1  2  1  0
  2  3  1  0
  3  4  2  0
  4  5  1  0
  5  6  2  0
  6  7  1  0
  7  8  2  0
  8  9  1  0
  9 10  2  0
 10 11  1  0
 11 12  2  0
 12 13  1  0
 13 14  1  0
 13 15  2  0
 12 16  1  0
 16 17  1  0
 17 18  2  0
 17 19  1  0
 16 20  1  0
 20 21  2  0
  6 22  1  0
 22 23  2  0
 23  3  1  0
 21  7  1  0
 20 10  1  0
  1 24  1  0
  1 25  1  0
  1 26  1  0
  5 27  1  0
  8 28  1  0
  9 29  1  0
 11 30  1  0
 14 31  1  0
 14 32  1  0
 21 33  1  0
 22 34  1  0
M  CHG  1  19  -1
M  END
>  <UniqueID>  (55) 
55

>  <SMILES>  (55) 
CSc1ncc(-c2ccc3cc(C(N)=O)n(C(=O)[O-])c3c2)cn1

>  <Energy>  (55) 
78.03016791909347

>  <Genealogy>  (55) 
CSc1ncc(-c2ccc3cc(C(N)=O)n(C(=O)[O-])c3c2)cn1 (protonated)
CSc1ncc(-c2ccc3cc(C(N)=O)n(C(=O)[O-])c3c2)cn1 (3D coordinates assigned)
CSc1ncc(-c2ccc3cc(C(N)=O)n(C(=O)[O-])c3c2)cn1 (optimized conformer: 78.03016791909347 kcal/mol)

>  <smiles>  (55) 
CSc1ncc(-c2ccc3cc(C(N)=O)n(C(=O)O)c3c2)cn1

>  <score_type>  (55) 
oracle

>  <origin>  (55) 
adg

>  <m_score__min__energy>  (55) 
-9.3200000000000003

>  <m_primary>  (55) 
energy

$$$$
55:0
     RDKit          3D

 47 48  0  0  0  0  0  0  0  0999 V2000
   -3.0630   22.2180  -30.0590 C   0  0  0  0  0  0  0  0  0  0  0  0
   -3.7630   22.5670  -31.3340 C   0  0  0  0  0  0  0  0  0  0  0  0
   -3.1050   22.6010  -32.4100 O   0  0  0  0  0  0  0  0  0  0  0  0
   -5.1680   22.8730  -31.3450 N   0  0  0  0  0  0  0  0  0  0  0  0
   -5.7690   24.0370  -30.9680 C   0  0  0  0  0  0  0  0  0  0  0  0
   -5.0750   25.2710  -30.5400 C   0  0  0  0  0  0  0  0  0  0  0  0
   -3.6500   25.2980  -30.4780 N   0  0  0  0  0  0  0  0  0  0  0  0
   -5.7250   26.2960  -30.2080 O   0  0  0  0  0  0  0  0  0  0  0  0
   -7.1530   23.9390  -31.1070 C   0  0  0  0  0  0  0  0  0  0  0  0
   -7.3830   22.6690  -31.5860 C   0  0  0  0  0  0  0  0  0  0  0  0
   -8.5790   22.0320  -31.8990 C   0  0  0  0  0  0  0  0  0  0  0  0
   -8.5180   20.7060  -32.3610 C   0  0  0  0  0  0  0  0  0  0  0  0
   -7.2720   20.0420  -32.4970 C   0  0  0  0  0  0  0  0  0  0  0  0
   -7.2300   18.6070  -32.9620 C   0  0  0  0  0  0  0  0  0  0  0  0
   -6.0750   18.3510  -33.8960 C   0  0  0  0  0  0  0  0  0  0  0  0
   -6.0950   18.8990  -35.0340 O   0  0  0  0  0  0  0  0  0  0  0  0
   -4.9810   17.4730  -33.5490 N   0  0  0  0  0  0  0  0  0  0  0  0
   -5.2190   16.4130  -32.5650 C   0  0  0  0  0  0  0  0  0  0  0  0
   -3.6560   17.5740  -34.1810 C   0  0  0  0  0  0  0  0  0  0  0  0
   -2.7780   18.6260  -33.4710 C   0  0  2  0  0  0  0  0  0  0  0  0
   -3.5440   19.7480  -33.1120 O   0  0  0  0  0  0  0  0  0  0  0  0
   -1.5660   19.0540  -34.3140 C   0  0  0  0  0  0  0  0  0  0  0  0
   -1.3900   20.4670  -34.2540 O   0  0  0  0  0  0  0  0  0  0  0  0
   -0.5940   21.0630  -33.2990 N   0  0  0  0  0  0  0  0  0  0  0  0
   -0.9820   21.1020  -32.1140 O   0  0  0  0  0  0  0  0  0  0  0  0
    0.6360   21.5910  -33.6270 O   0  0  0  0  0  0  0  0  0  0  0  0
   -6.0800   20.7150  -32.1420 C   0  0  0  0  0  0  0  0  0  0  0  0
   -6.1690   22.0450  -31.7160 C   0  0  0  0  0  0  0  0  0  0  0  0
   -3.6825   22.5269  -29.2042 H   0  0  0  0  0  0  0  0  0  0  0  0
   -2.8966   21.1314  -30.0176 H   0  0  0  0  0  0  0  0  0  0  0  0
   -2.0951   22.7390  -30.0176 H   0  0  0  0  0  0  0  0  0  0  0  0
   -3.0690   24.8480  -31.2190 H   0  0  0  0  0  0  0  0  0  0  0  0
   -7.9021   24.7124  -30.8817 H   0  0  0  0  0  0  0  0  0  0  0  0
   -9.5431   22.5500  -31.7884 H   0  0  0  0  0  0  0  0  0  0  0  0
   -9.4471   20.1772  -32.6200 H   0  0  0  0  0  0  0  0  0  0  0  0
   -7.1291   17.9518  -32.0842 H   0  0  0  0  0  0  0  0  0  0  0  0
   -8.1619   18.3988  -33.5081 H   0  0  0  0  0  0  0  0  0  0  0  0
   -5.1260   16.8271  -31.5502 H   0  0  0  0  0  0  0  0  0  0  0  0
   -6.2311   16.0049  -32.7032 H   0  0  0  0  0  0  0  0  0  0  0  0
   -4.4785   15.6114  -32.7032 H   0  0  0  0  0  0  0  0  0  0  0  0
   -3.1572   16.5950  -34.1273 H   0  0  0  0  0  0  0  0  0  0  0  0
   -3.7920   17.8829  -35.2279 H   0  0  0  0  0  0  0  0  0  0  0  0
   -2.3847   18.1486  -32.5614 H   0  0  0  0  0  0  0  0  0  0  0  0
   -2.9190   20.4970  -32.9270 H   0  0  0  0  0  0  0  0  0  0  0  0
   -0.6629   18.5600  -33.9264 H   0  0  0  0  0  0  0  0  0  0  0  0
   -1.7391   18.7612  -35.3601 H   0  0  0  0  0  0  0  0  0  0  0  0
   -5.1068   20.2056  -32.1993 H   0  0  0  0  0  0  0  0  0  0  0  0
  1  2  1  0
  2  3  2  0
  2  4  1  0
  4  5  1  0
  5  6  1  0
  6  7  1  0
  6  8  2  0
  5  9  2  0
  9 10  1  0
 10 11  2  0
 11 12  1  0
 12 13  2  0
 13 14  1  0
 14 15  1  0
 15 16  2  0
 15 17  1  0
 17 18  1  0
 17 19  1  0
 19 20  1  0
 20 21  1  0
 20 22  1  0
 22 23  1  0
 23 24  1  0
 24 25  2  0
 24 26  1  0
 13 27  1  0
 27 28  2  0
 28  4  1  0
 28 10  1  0
  1 29  1  0
  1 30  1  0
  1 31  1  0
  7 32  1  0
  9 33  1  0
 11 34  1  0
 12 35  1  0
 14 36  1  0
 14 37  1  0
 18 38  1  0
 18 39  1  0
 18 40  1  0
 19 41  1  0
 19 42  1  0
 20 43  1  1
 21 44  1  0
 22 45  1  0
 22 46  1  0
 27 47  1  0
M  CHG  3   7  -1  24   1  26  -1
M  END
>  <UniqueID>  (56) 
56

>  <SMILES>  (56) 
CC(=O)n1c(C([NH-])=O)cc2ccc(CC(=O)N(C)C[C@H](O)CO[N+](=O)[O-])cc21

>  <Energy>  (56) 
78.30447261793303

>  <Genealogy>  (56) 
CC(=O)n1c(C([NH-])=O)cc2ccc(CC(=O)N(C)C[C@H](O)CO[N+](=O)[O-])cc21 (protonated)
CC(=O)n1c(C([NH-])=O)cc2ccc(CC(=O)N(C)C[C@H](O)CO[N+](=O)[O-])cc21 (3D coordinates assigned)
CC(=O)n1c(C([NH-])=O)cc2ccc(CC(=O)N(C)C[C@H](O)CO[N+](=O)[O-])cc21 (optimized conformer: 78.30447261793303 kcal/mol)

>  <smiles>  (56) 
CC(=O)n1c(C(N)=O)cc2ccc(CC(=O)N(C)C[C@H](O)CO[N+](=O)[O-])cc21

>  <score_type>  (56) 
oracle

>  <origin>  (56) 
adg

>  <m_score__min__energy>  (56) 
-10.6

>  <m_primary>  (56) 
energy

$$$$
56:0
     RDKit          3D

 40 42  0  0  0  0  0  0  0  0999 V2000
   -9.1030   20.8890  -31.1350 C   0  0  0  0  0  0  0  0  0  0  0  0
   -8.3890   20.8080  -32.4250 N   0  0  2  0  0  0  0  0  0  0  0  0
   -8.4800   19.4500  -33.0080 C   0  0  0  0  0  0  0  0  0  0  0  0
   -7.6890   18.3970  -32.2040 C   0  0  0  0  0  0  0  0  0  0  0  0
   -6.3790   18.9460  -31.6130 C   0  0  0  0  0  0  0  0  0  0  0  0
   -5.9080   20.2020  -32.3580 C   0  0  2  0  0  0  0  0  0  0  0  0
   -4.5760   20.7010  -31.8260 C   0  0  0  0  0  0  0  0  0  0  0  0
   -3.3960   19.9210  -31.9620 C   0  0  0  0  0  0  0  0  0  0  0  0
   -2.1640   20.3890  -31.4780 C   0  0  0  0  0  0  0  0  0  0  0  0
   -2.1380   21.6310  -30.8520 C   0  0  0  0  0  0  0  0  0  0  0  0
   -1.0800   22.3270  -30.3140 C   0  0  0  0  0  0  0  0  0  0  0  0
   -1.6260   23.5140  -29.8320 C   0  0  0  0  0  0  0  0  0  0  0  0
   -0.8450   24.5260  -29.0910 C   0  0  0  0  0  0  0  0  0  0  0  0
   -1.3350   25.8600  -28.9820 N   0  0  0  0  0  0  0  0  0  0  0  0
    0.2700   24.2360  -28.5850 O   0  0  0  0  0  0  0  0  0  0  0  0
   -2.9690   23.5540  -30.0680 N   0  0  0  0  0  0  0  0  0  0  0  0
   -3.8790   24.6310  -29.7900 C   0  0  0  0  0  0  0  0  0  0  0  0
   -3.8740   25.6670  -30.5030 O   0  0  0  0  0  0  0  0  0  0  0  0
   -4.7560   24.5500  -28.7140 O   0  0  0  0  0  0  0  0  0  0  0  0
   -3.2660   22.3910  -30.6920 C   0  0  0  0  0  0  0  0  0  0  0  0
   -4.5040   21.9580  -31.1810 C   0  0  0  0  0  0  0  0  0  0  0  0
   -6.9890   21.3140  -32.3180 C   0  0  0  0  0  0  0  0  0  0  0  0
   -8.3801   20.8070  -30.3100 H   0  0  0  0  0  0  0  0  0  0  0  0
   -9.6292   21.8526  -31.0670 H   0  0  0  0  0  0  0  0  0  0  0  0
   -9.8317   20.0678  -31.0670 H   0  0  0  0  0  0  0  0  0  0  0  0
   -8.9040   21.4460  -33.0790 H   0  0  0  0  0  0  0  0  0  0  0  0
   -9.5378   19.1495  -33.0343 H   0  0  0  0  0  0  0  0  0  0  0  0
   -8.0415   19.4935  -34.0159 H   0  0  0  0  0  0  0  0  0  0  0  0
   -8.3221   18.0389  -31.3788 H   0  0  0  0  0  0  0  0  0  0  0  0
   -7.4208   17.5879  -32.8992 H   0  0  0  0  0  0  0  0  0  0  0  0
   -6.5425   19.1984  -30.5549 H   0  0  0  0  0  0  0  0  0  0  0  0
   -5.6035   18.1728  -31.7162 H   0  0  0  0  0  0  0  0  0  0  0  0
   -5.7532   19.9248  -33.4112 H   0  0  0  0  0  0  0  0  0  0  0  0
   -3.4485   18.9379  -32.4528 H   0  0  0  0  0  0  0  0  0  0  0  0
   -1.2471   19.7917  -31.5904 H   0  0  0  0  0  0  0  0  0  0  0  0
   -0.0267   22.0126  -30.2733 H   0  0  0  0  0  0  0  0  0  0  0  0
   -2.3620   26.0560  -28.9630 H   0  0  0  0  0  0  0  0  0  0  0  0
   -5.4024   22.5823  -31.0661 H   0  0  0  0  0  0  0  0  0  0  0  0
   -6.8901   21.8577  -31.3669 H   0  0  0  0  0  0  0  0  0  0  0  0
   -6.8161   21.9557  -33.1946 H   0  0  0  0  0  0  0  0  0  0  0  0
  1  2  1  0
  2  3  1  0
  3  4  1  0
  4  5  1  0
  5  6  1  0
  6  7  1  0
  7  8  2  0
  8  9  1  0
  9 10  2  0
 10 11  1  0
 11 12  2  0
 12 13  1  0
 13 14  1  0
 13 15  2  0
 12 16  1  0
 16 17  1  0
 17 18  2  0
 17 19  1  0
 16 20  1  0
 20 21  2  0
  6 22  1  0
 22  2  1  0
 21  7  1  0
 20 10  1  0
  1 23  1  0
  1 24  1  0
  1 25  1  0
  2 26  1  6
  3 27  1  0
  3 28  1  0
  4 29  1  0
  4 30  1  0
  5 31  1  0
  5 32  1  0
  6 33  1  6
  8 34  1  0
  9 35  1  0
 11 36  1  0
 14 37  1  0
 21 38  1  0
 22 39  1  0
 22 40  1  0
M  CHG  3   2   1  14  -1  19  -1
M  END
>  <UniqueID>  (57) 
57

>  <SMILES>  (57) 
C[N@@H+]1CCC[C@H](c2ccc3cc(C([NH-])=O)n(C(=O)[O-])c3c2)C1

>  <Energy>  (57) 
90.34132572958791

>  <Genealogy>  (57) 
C[NH+]1CCCC(c2ccc3cc(C([NH-])=O)n(C(=O)[O-])c3c2)C1 (protonated)
C[N@@H+]1CCC[C@H](c2ccc3cc(C([NH-])=O)n(C(=O)[O-])c3c2)C1 (chirality)
C[N@@H+]1CCC[C@H](c2ccc3cc(C([NH-])=O)n(C(=O)[O-])c3c2)C1 (3D coordinates assigned)
C[N@@H+]1CCC[C@H](c2ccc3cc(C([NH-])=O)n(C(=O)[O-])c3c2)C1 (nonaromatic ring conformer: 90.34132572958791 kcal/mol)

>  <smiles>  (57) 
CN1CCCC(c2ccc3cc(C(N)=O)n(C(=O)O)c3c2)C1

>  <score_type>  (57) 
oracle

>  <origin>  (57) 
adg

>  <m_score__min__energy>  (57) 
-11.24

>  <m_primary>  (57) 
energy

$$$$
57:0
     RDKit          3D

 35 36  0  0  0  0  0  0  0  0999 V2000
   -4.2830   25.7930  -30.5020 N   0  0  0  0  0  0  0  0  0  0  0  0
   -5.5540   25.1750  -30.3090 C   0  0  0  0  0  0  0  0  0  0  0  0
   -6.4470   25.7920  -29.6710 O   0  0  0  0  0  0  0  0  0  0  0  0
   -5.8120   23.8310  -30.8680 C   0  0  0  0  0  0  0  0  0  0  0  0
   -7.0400   23.4320  -31.3910 C   0  0  0  0  0  0  0  0  0  0  0  0
   -6.8670   22.1200  -31.7710 C   0  0  0  0  0  0  0  0  0  0  0  0
   -7.7570   21.2370  -32.3730 C   0  0  0  0  0  0  0  0  0  0  0  0
   -7.2960   19.9490  -32.6880 C   0  0  0  0  0  0  0  0  0  0  0  0
   -5.9560   19.5630  -32.4060 C   0  0  0  0  0  0  0  0  0  0  0  0
   -5.4370   18.1830  -32.7700 C   0  0  1  0  0  0  0  0  0  0  0  0
   -6.1470   17.1030  -31.9920 C   0  0  0  0  0  0  0  0  0  0  0  0
   -6.1190   17.0750  -30.7710 O   0  0  0  0  0  0  0  0  0  0  0  0
   -5.4750   17.9270  -34.2880 C   0  0  0  0  0  0  0  0  0  0  0  0
   -4.1960   17.6710  -34.7510 F   0  0  0  0  0  0  0  0  0  0  0  0
   -6.2670   16.8240  -34.5540 F   0  0  0  0  0  0  0  0  0  0  0  0
   -5.9880   19.0170  -34.9700 F   0  0  0  0  0  0  0  0  0  0  0  0
   -5.0820   20.4980  -31.7990 C   0  0  0  0  0  0  0  0  0  0  0  0
   -5.5790   21.7660  -31.4770 C   0  0  0  0  0  0  0  0  0  0  0  0
   -4.9200   22.8030  -30.9170 N   0  0  0  0  0  0  0  0  0  0  0  0
   -3.5470   22.8110  -30.4950 C   0  0  0  0  0  0  0  0  0  0  0  0
   -2.6350   22.5700  -31.3300 O   0  0  0  0  0  0  0  0  0  0  0  0
   -3.1850   23.1580  -29.0830 C   0  0  0  0  0  0  0  0  0  0  0  0
   -1.5550   23.9600  -29.0340 P   0  0  0  0  0  0  0  0  0  0  0  0
   -0.6600   23.3580  -30.0920 O   0  0  0  0  0  0  0  0  0  0  0  0
   -1.7380   25.6130  -29.3310 O   0  0  0  0  0  0  0  0  0  0  0  0
   -0.8550   23.7390  -27.5100 O   0  0  0  0  0  0  0  0  0  0  0  0
   -3.5160   25.6730  -29.8040 H   0  0  0  0  0  0  0  0  0  0  0  0
   -7.9542   24.0370  -31.4813 H   0  0  0  0  0  0  0  0  0  0  0  0
   -8.7911   21.5388  -32.5956 H   0  0  0  0  0  0  0  0  0  0  0  0
   -7.9803   19.2282  -33.1594 H   0  0  0  0  0  0  0  0  0  0  0  0
   -4.3769   18.1494  -32.4783 H   0  0  0  0  0  0  0  0  0  0  0  0
   -6.7017   16.3241  -32.5357 H   0  0  0  0  0  0  0  0  0  0  0  0
   -4.0359   20.2333  -31.5855 H   0  0  0  0  0  0  0  0  0  0  0  0
   -3.9403   23.8440  -28.6721 H   0  0  0  0  0  0  0  0  0  0  0  0
   -3.1504   22.2362  -28.4837 H   0  0  0  0  0  0  0  0  0  0  0  0
  1  2  1  0
  2  3  2  0
  2  4  1  0
  4  5  2  0
  5  6  1  0
  6  7  2  0
  7  8  1  0
  8  9  2  0
  9 10  1  0
 10 11  1  0
 11 12  2  0
 10 13  1  0
 13 14  1  0
 13 15  1  0
 13 16  1  0
  9 17  1  0
 17 18  2  0
 18 19  1  0
 19 20  1  0
 20 21  2  0
 20 22  1  0
 22 23  1  0
 23 24  2  0
 23 25  1  0
 23 26  1  0
 19  4  1  0
 18  6  1  0
  1 27  1  0
  5 28  1  0
  7 29  1  0
  8 30  1  0
 10 31  1  1
 11 32  1  0
 17 33  1  0
 22 34  1  0
 22 35  1  0
M  CHG  3   1  -1  25  -1  26  -1
M  END
>  <UniqueID>  (58) 
58

>  <SMILES>  (58) 
[NH-]C(=O)c1cc2ccc([C@@H](C=O)C(F)(F)F)cc2n1C(=O)CP(=O)([O-])[O-]

>  <Energy>  (58) 
69.36355169732418

>  <Genealogy>  (58) 
[NH-]C(=O)c1cc2ccc(C(C=O)C(F)(F)F)cc2n1C(=O)CP(=O)([O-])[O-] (protonated)
[NH-]C(=O)c1cc2ccc([C@@H](C=O)C(F)(F)F)cc2n1C(=O)CP(=O)([O-])[O-] (chirality)
[NH-]C(=O)c1cc2ccc([C@@H](C=O)C(F)(F)F)cc2n1C(=O)CP(=O)([O-])[O-] (3D coordinates assigned)
[NH-]C(=O)c1cc2ccc([C@@H](C=O)C(F)(F)F)cc2n1C(=O)CP(=O)([O-])[O-] (optimized conformer: 69.36355169732418 kcal/mol)

>  <smiles>  (58) 
NC(=O)c1cc2ccc(C(C=O)C(F)(F)F)cc2n1C(=O)CP(=O)(O)O

>  <score_type>  (58) 
oracle

>  <origin>  (58) 
adg

>  <m_score__min__energy>  (58) 
-13.15

>  <m_primary>  (58) 
energy

$$$$
58:0
     RDKit          3D

 35 36  0  0  0  0  0  0  0  0999 V2000
   -6.0730   18.3430  -34.0820 C   0  0  0  0  0  0  0  0  0  0  0  0
   -7.0160   18.4180  -32.8760 C   0  0  0  0  0  0  0  0  0  0  0  0
   -6.5030   17.5520  -31.7190 C   0  0  0  0  0  0  0  0  0  0  0  0
   -7.2230   19.8530  -32.4330 C   0  0  0  0  0  0  0  0  0  0  0  0
   -8.5210   20.4300  -32.4080 C   0  0  0  0  0  0  0  0  0  0  0  0
   -8.7120   21.7560  -31.9860 C   0  0  0  0  0  0  0  0  0  0  0  0
   -7.5920   22.4850  -31.6020 C   0  0  0  0  0  0  0  0  0  0  0  0
   -7.4940   23.7750  -31.1290 C   0  0  0  0  0  0  0  0  0  0  0  0
   -6.1350   23.9780  -30.8900 C   0  0  0  0  0  0  0  0  0  0  0  0
   -5.5690   25.2590  -30.4170 C   0  0  0  0  0  0  0  0  0  0  0  0
   -4.2250   25.6030  -30.7410 N   0  0  0  0  0  0  0  0  0  0  0  0
   -6.2540   26.0440  -29.7110 O   0  0  0  0  0  0  0  0  0  0  0  0
   -5.4240   22.8590  -31.2030 N   0  0  0  0  0  0  0  0  0  0  0  0
   -4.0090   22.6560  -31.0620 C   0  0  0  0  0  0  0  0  0  0  0  0
   -3.3130   22.3910  -32.0790 O   0  0  0  0  0  0  0  0  0  0  0  0
   -3.3600   22.6900  -29.7080 C   0  0  0  0  0  0  0  0  0  0  0  0
   -2.0770   23.4630  -29.7370 C   0  0  0  0  0  0  0  0  0  0  0  0
   -2.0370   24.6160  -29.3380 O   0  0  0  0  0  0  0  0  0  0  0  0
   -6.3290   21.9540  -31.6340 C   0  0  0  0  0  0  0  0  0  0  0  0
   -6.1110   20.6310  -32.0320 C   0  0  0  0  0  0  0  0  0  0  0  0
   -5.0340   18.2604  -33.7304 H   0  0  0  0  0  0  0  0  0  0  0  0
   -6.3253   17.4621  -34.6905 H   0  0  0  0  0  0  0  0  0  0  0  0
   -6.1829   19.2527  -34.6905 H   0  0  0  0  0  0  0  0  0  0  0  0
   -7.9922   18.0183  -33.1879 H   0  0  0  0  0  0  0  0  0  0  0  0
   -6.7791   18.0181  -30.7617 H   0  0  0  0  0  0  0  0  0  0  0  0
   -6.9537   16.5506  -31.7827 H   0  0  0  0  0  0  0  0  0  0  0  0
   -5.4082   17.4661  -31.7827 H   0  0  0  0  0  0  0  0  0  0  0  0
   -9.3877   19.8305  -32.7232 H   0  0  0  0  0  0  0  0  0  0  0  0
   -9.7164   22.2038  -31.9601 H   0  0  0  0  0  0  0  0  0  0  0  0
   -8.3132   24.4923  -30.9730 H   0  0  0  0  0  0  0  0  0  0  0  0
   -3.4940   25.6740  -29.9980 H   0  0  0  0  0  0  0  0  0  0  0  0
   -4.0480   23.1648  -28.9930 H   0  0  0  0  0  0  0  0  0  0  0  0
   -3.1352   21.6566  -29.4054 H   0  0  0  0  0  0  0  0  0  0  0  0
   -1.1627   22.9873  -30.1213 H   0  0  0  0  0  0  0  0  0  0  0  0
   -5.0971   20.2045  -32.0333 H   0  0  0  0  0  0  0  0  0  0  0  0
  1  2  1  0
  2  3  1  0
  2  4  1  0
  4  5  2  0
  5  6  1  0
  6  7  2  0
  7  8  1  0
  8  9  2  0
  9 10  1  0
 10 11  1  0
 10 12  2  0
  9 13  1  0
 13 14  1  0
 14 15  2  0
 14 16  1  0
 16 17  1  0
 17 18  2  0
 13 19  1  0
 19 20  2  0
 20  4  1  0
 19  7  1  0
  1 21  1  0
  1 22  1  0
  1 23  1  0
  2 24  1  0
  3 25  1  0
  3 26  1  0
  3 27  1  0
  5 28  1  0
  6 29  1  0
  8 30  1  0
 11 31  1  0
 16 32  1  0
 16 33  1  0
 17 34  1  0
 20 35  1  0
M  CHG  1  11  -1
M  END
>  <UniqueID>  (59) 
59

>  <SMILES>  (59) 
CC(C)c1ccc2cc(C([NH-])=O)n(C(=O)CC=O)c2c1

>  <Energy>  (59) 
68.93873716799592

>  <Genealogy>  (59) 
CC(C)c1ccc2cc(C([NH-])=O)n(C(=O)CC=O)c2c1 (protonated)
CC(C)c1ccc2cc(C([NH-])=O)n(C(=O)CC=O)c2c1 (3D coordinates assigned)
CC(C)c1ccc2cc(C([NH-])=O)n(C(=O)CC=O)c2c1 (optimized conformer: 68.93873716799592 kcal/mol)

>  <smiles>  (59) 
CC(C)c1ccc2cc(C(N)=O)n(C(=O)CC=O)c2c1

>  <score_type>  (59) 
oracle

>  <origin>  (59) 
adg

>  <m_score__min__energy>  (59) 
-10.25

>  <m_primary>  (59) 
energy

$$$$
59:0
     RDKit          3D

 33 34  0  0  0  0  0  0  0  0999 V2000
   -6.1380   25.4300  -29.0490 N   0  0  0  0  0  0  0  0  0  0  0  0
   -5.6370   24.9780  -30.3090 C   0  0  0  0  0  0  0  0  0  0  0  0
   -4.7150   25.6280  -30.8710 O   0  0  0  0  0  0  0  0  0  0  0  0
   -6.1610   23.7420  -30.9320 C   0  0  0  0  0  0  0  0  0  0  0  0
   -7.5150   23.4170  -30.9910 C   0  0  0  0  0  0  0  0  0  0  0  0
   -7.5630   22.1620  -31.5560 C   0  0  0  0  0  0  0  0  0  0  0  0
   -8.6600   21.3610  -31.8600 C   0  0  0  0  0  0  0  0  0  0  0  0
   -8.4170   20.1180  -32.4690 C   0  0  0  0  0  0  0  0  0  0  0  0
   -7.0950   19.7040  -32.7640 C   0  0  0  0  0  0  0  0  0  0  0  0
   -6.8610   18.3780  -33.4320 C   0  0  0  0  0  0  0  0  0  0  0  0
   -6.2100   17.5260  -32.5590 F   0  0  0  0  0  0  0  0  0  0  0  0
   -6.0840   18.5550  -34.5630 F   0  0  0  0  0  0  0  0  0  0  0  0
   -6.0070   20.5440  -32.4420 C   0  0  0  0  0  0  0  0  0  0  0  0
   -6.2750   21.7700  -31.8190 C   0  0  0  0  0  0  0  0  0  0  0  0
   -5.4030   22.7300  -31.4410 N   0  0  0  0  0  0  0  0  0  0  0  0
   -3.9780   22.7140  -31.6220 C   0  0  0  0  0  0  0  0  0  0  0  0
   -3.4720   22.0640  -32.5790 O   0  0  0  0  0  0  0  0  0  0  0  0
   -3.1560   23.4260  -30.7400 O   0  0  0  0  0  0  0  0  0  0  0  0
   -2.7100   22.9070  -29.4890 C   0  0  0  0  0  0  0  0  0  0  0  0
   -2.2540   24.0410  -28.5700 C   0  0  0  0  0  0  0  0  0  0  0  0
   -2.5980   25.2820  -29.1220 O   0  0  0  0  0  0  0  0  0  0  0  0
   -5.7340   26.2810  -28.5990 H   0  0  0  0  0  0  0  0  0  0  0  0
   -6.9360   24.9480  -28.5790 H   0  0  0  0  0  0  0  0  0  0  0  0
   -8.3641   24.0317  -30.6575 H   0  0  0  0  0  0  0  0  0  0  0  0
   -9.6842   21.6903  -31.6309 H   0  0  0  0  0  0  0  0  0  0  0  0
   -9.2622   19.4599  -32.7191 H   0  0  0  0  0  0  0  0  0  0  0  0
   -7.8300   17.9426  -33.7175 H   0  0  0  0  0  0  0  0  0  0  0  0
   -4.9747   20.2435  -32.6744 H   0  0  0  0  0  0  0  0  0  0  0  0
   -3.5356   22.3615  -29.0085 H   0  0  0  0  0  0  0  0  0  0  0  0
   -1.8611   22.2305  -29.6671 H   0  0  0  0  0  0  0  0  0  0  0  0
   -2.7414   23.9321  -27.5899 H   0  0  0  0  0  0  0  0  0  0  0  0
   -1.1612   23.9910  -28.4549 H   0  0  0  0  0  0  0  0  0  0  0  0
   -3.5480   25.2160  -29.4010 H   0  0  0  0  0  0  0  0  0  0  0  0
  1  2  1  0
  2  3  2  0
  2  4  1  0
  4  5  2  0
  5  6  1  0
  6  7  2  0
  7  8  1  0
  8  9  2  0
  9 10  1  0
 10 11  1  0
 10 12  1  0
  9 13  1  0
 13 14  2  0
 14 15  1  0
 15 16  1  0
 16 17  2  0
 16 18  1  0
 18 19  1  0
 19 20  1  0
 20 21  1  0
 15  4  1  0
 14  6  1  0
  1 22  1  0
  1 23  1  0
  5 24  1  0
  7 25  1  0
  8 26  1  0
 10 27  1  0
 13 28  1  0
 19 29  1  0
 19 30  1  0
 20 31  1  0
 20 32  1  0
 21 33  1  0
M  END
>  <UniqueID>  (60) 
60

>  <SMILES>  (60) 
NC(=O)c1cc2ccc(C(F)F)cc2n1C(=O)OCCO

>  <Energy>  (60) 
67.79301852683302

>  <Genealogy>  (60) 
NC(=O)c1cc2ccc(C(F)F)cc2n1C(=O)OCCO (3D coordinates assigned)
NC(=O)c1cc2ccc(C(F)F)cc2n1C(=O)OCCO (optimized conformer: 67.79301852683302 kcal/mol)

>  <smiles>  (60) 
NC(=O)c1cc2ccc(C(F)F)cc2n1C(=O)OCCO

>  <score_type>  (60) 
oracle

>  <origin>  (60) 
adg

>  <m_score__min__energy>  (60) 
-8.0399999999999991

>  <m_primary>  (60) 
energy

$$$$
60:0
     RDKit          3D

 37 39  0  0  0  0  0  0  0  0999 V2000
   -4.9880   24.0550  -29.1380 C   0  0  0  0  0  0  0  0  0  0  0  0
   -3.8920   24.2580  -30.1360 C   0  0  0  0  0  0  0  0  0  0  0  0
   -3.8770   25.3110  -30.8280 O   0  0  0  0  0  0  0  0  0  0  0  0
   -2.8700   23.2660  -30.3200 N   0  0  0  0  0  0  0  0  0  0  0  0
   -1.5590   23.3480  -29.9580 C   0  0  0  0  0  0  0  0  0  0  0  0
   -0.9430   24.4370  -29.1700 C   0  0  0  0  0  0  0  0  0  0  0  0
   -1.6200   25.6750  -28.9710 N   0  0  0  0  0  0  0  0  0  0  0  0
    0.1840   24.2590  -28.6350 O   0  0  0  0  0  0  0  0  0  0  0  0
   -0.8630   22.2170  -30.3840 C   0  0  0  0  0  0  0  0  0  0  0  0
   -1.7970   21.4340  -31.0250 C   0  0  0  0  0  0  0  0  0  0  0  0
   -1.6510   20.2040  -31.6580 C   0  0  0  0  0  0  0  0  0  0  0  0
   -2.7830   19.6390  -32.2680 C   0  0  0  0  0  0  0  0  0  0  0  0
   -4.0300   20.3120  -32.2430 C   0  0  0  0  0  0  0  0  0  0  0  0
   -5.2120   19.7160  -32.9010 C   0  0  0  0  0  0  0  0  0  0  0  0
   -6.5530   19.9830  -32.6590 C   0  0  0  0  0  0  0  0  0  0  0  0
   -7.1240   20.9430  -31.6650 C   0  0  0  0  0  0  0  0  0  0  0  0
   -7.2960   19.2140  -33.4750 N   0  0  0  0  0  0  0  0  0  0  0  0
   -6.4940   18.5020  -34.2080 O   0  0  0  0  0  0  0  0  0  0  0  0
   -5.2410   18.7560  -33.9060 C   0  0  0  0  0  0  0  0  0  0  0  0
   -4.0750   18.0970  -34.5670 C   0  0  0  0  0  0  0  0  0  0  0  0
   -4.1380   21.5610  -31.5900 C   0  0  0  0  0  0  0  0  0  0  0  0
   -2.9990   22.0910  -30.9760 C   0  0  0  0  0  0  0  0  0  0  0  0
   -4.5764   24.1312  -28.1208 H   0  0  0  0  0  0  0  0  0  0  0  0
   -5.7603   24.8254  -29.2797 H   0  0  0  0  0  0  0  0  0  0  0  0
   -5.4331   23.0591  -29.2797 H   0  0  0  0  0  0  0  0  0  0  0  0
   -2.6540   25.7480  -29.0940 H   0  0  0  0  0  0  0  0  0  0  0  0
    0.2050   21.9971  -30.2388 H   0  0  0  0  0  0  0  0  0  0  0  0
   -0.6789   19.6896  -31.6802 H   0  0  0  0  0  0  0  0  0  0  0  0
   -2.7008   18.6639  -32.7704 H   0  0  0  0  0  0  0  0  0  0  0  0
   -6.9116   20.5859  -30.6465 H   0  0  0  0  0  0  0  0  0  0  0  0
   -6.6683   21.9338  -31.8086 H   0  0  0  0  0  0  0  0  0  0  0  0
   -8.2122   21.0156  -31.8086 H   0  0  0  0  0  0  0  0  0  0  0  0
   -8.3380   19.1850  -33.5310 H   0  0  0  0  0  0  0  0  0  0  0  0
   -3.3892   17.7094  -33.7993 H   0  0  0  0  0  0  0  0  0  0  0  0
   -4.4305   17.2662  -35.1943 H   0  0  0  0  0  0  0  0  0  0  0  0
   -3.5466   18.8300  -35.1943 H   0  0  0  0  0  0  0  0  0  0  0  0
   -5.0949   22.1029  -31.5655 H   0  0  0  0  0  0  0  0  0  0  0  0
  1  2  1  0
  2  3  2  0
  2  4  1  0
  4  5  1  0
  5  6  1  0
  6  7  1  0
  6  8  2  0
  5  9  2  0
  9 10  1  0
 10 11  2  0
 11 12  1  0
 12 13  2  0
 13 14  1  0
 14 15  1  0
 15 16  1  0
 15 17  2  0
 17 18  1  0
 18 19  1  0
 19 20  1  0
 13 21  1  0
 21 22  2  0
 22  4  1  0
 22 10  1  0
 19 14  2  0
  1 23  1  0
  1 24  1  0
  1 25  1  0
  7 26  1  0
  9 27  1  0
 11 28  1  0
 12 29  1  0
 16 30  1  0
 16 31  1  0
 16 32  1  0
 17 33  1  0
 20 34  1  0
 20 35  1  0
 20 36  1  0
 21 37  1  0
M  CHG  2   7  -1  17   1
M  END
>  <UniqueID>  (61) 
61

>  <SMILES>  (61) 
CC(=O)n1c(C([NH-])=O)cc2ccc(-c3c(C)[nH+]oc3C)cc21

>  <Energy>  (61) 
111.74517947574967

>  <Genealogy>  (61) 
CC(=O)n1c(C([NH-])=O)cc2ccc(-c3c(C)[nH+]oc3C)cc21 (protonated)
CC(=O)n1c(C([NH-])=O)cc2ccc(-c3c(C)[nH+]oc3C)cc21 (3D coordinates assigned)
CC(=O)n1c(C([NH-])=O)cc2ccc(-c3c(C)[nH+]oc3C)cc21 (optimized conformer: 111.74517947574967 kcal/mol)

>  <smiles>  (61) 
CC(=O)n1c(C(N)=O)cc2ccc(-c3c(C)noc3C)cc21

>  <score_type>  (61) 
oracle

>  <origin>  (61) 
adg

>  <m_score__min__energy>  (61) 
-10.619999999999999

>  <m_primary>  (61) 
energy

$$$$
61:0
     RDKit          3D

 39 41  0  0  0  0  0  0  0  0999 V2000
   -3.1310   20.0600  -33.4520 C   0  0  0  0  0  0  0  0  0  0  0  0
   -3.5710   21.5160  -33.3450 C   0  0  0  0  0  0  0  0  0  0  0  0
   -3.3170   22.0240  -32.0360 O   0  0  0  0  0  0  0  0  0  0  0  0
   -4.2210   21.9030  -30.9740 C   0  0  0  0  0  0  0  0  0  0  0  0
   -3.8280   21.4970  -29.8470 O   0  0  0  0  0  0  0  0  0  0  0  0
   -5.6010   22.2550  -31.1690 N   0  0  0  0  0  0  0  0  0  0  0  0
   -6.2010   23.4450  -30.8860 C   0  0  0  0  0  0  0  0  0  0  0  0
   -5.5020   24.6810  -30.4700 C   0  0  0  0  0  0  0  0  0  0  0  0
   -5.8450   25.3390  -29.2500 N   0  0  0  0  0  0  0  0  0  0  0  0
   -4.6140   25.1840  -31.2090 O   0  0  0  0  0  0  0  0  0  0  0  0
   -7.5710   23.3720  -31.1310 C   0  0  0  0  0  0  0  0  0  0  0  0
   -7.7940   22.0890  -31.5770 C   0  0  0  0  0  0  0  0  0  0  0  0
   -8.9820   21.4640  -31.9460 C   0  0  0  0  0  0  0  0  0  0  0  0
   -8.9230   20.1150  -32.3320 C   0  0  0  0  0  0  0  0  0  0  0  0
   -7.6880   19.4210  -32.3460 C   0  0  0  0  0  0  0  0  0  0  0  0
   -7.6470   17.9620  -32.7020 C   0  0  0  0  0  0  0  0  0  0  0  0
   -6.4700   17.6840  -33.5210 N   0  0  0  0  0  0  0  0  0  0  0  0
   -5.4990   16.7940  -33.2620 C   0  0  0  0  0  0  0  0  0  0  0  0
   -4.5410   16.9190  -34.2440 C   0  0  0  0  0  0  0  0  0  0  0  0
   -4.9030   17.8920  -35.1080 N   0  0  0  0  0  0  0  0  0  0  0  0
   -6.0830   18.3400  -34.6310 C   0  0  0  0  0  0  0  0  0  0  0  0
   -6.5040   20.0850  -31.9550 C   0  0  0  0  0  0  0  0  0  0  0  0
   -6.5900   21.4340  -31.5910 C   0  0  0  0  0  0  0  0  0  0  0  0
   -3.0041   19.6402  -32.4432 H   0  0  0  0  0  0  0  0  0  0  0  0
   -3.8955   19.4849  -33.9950 H   0  0  0  0  0  0  0  0  0  0  0  0
   -2.1760   20.0045  -33.9950 H   0  0  0  0  0  0  0  0  0  0  0  0
   -3.0146   22.1164  -34.0798 H   0  0  0  0  0  0  0  0  0  0  0  0
   -4.6512   21.5749  -33.5441 H   0  0  0  0  0  0  0  0  0  0  0  0
   -5.3720   26.2320  -28.9850 H   0  0  0  0  0  0  0  0  0  0  0  0
   -6.5350   24.9240  -28.5850 H   0  0  0  0  0  0  0  0  0  0  0  0
   -8.3159   24.1701  -30.9965 H   0  0  0  0  0  0  0  0  0  0  0  0
   -9.9370   22.0097  -31.9355 H   0  0  0  0  0  0  0  0  0  0  0  0
   -9.8449   19.5920  -32.6264 H   0  0  0  0  0  0  0  0  0  0  0  0
   -7.6003   17.3628  -31.7807 H   0  0  0  0  0  0  0  0  0  0  0  0
   -8.5529   17.7015  -33.2689 H   0  0  0  0  0  0  0  0  0  0  0  0
   -5.4730   16.0906  -32.4167 H   0  0  0  0  0  0  0  0  0  0  0  0
   -3.6221   16.3184  -34.3138 H   0  0  0  0  0  0  0  0  0  0  0  0
   -6.6634   19.1501  -35.0967 H   0  0  0  0  0  0  0  0  0  0  0  0
   -5.5398   19.5559  -31.9370 H   0  0  0  0  0  0  0  0  0  0  0  0
  1  2  1  0
  2  3  1  0
  3  4  1  0
  4  5  2  0
  4  6  1  0
  6  7  1  0
  7  8  1  0
  8  9  1  0
  8 10  2  0
  7 11  2  0
 11 12  1  0
 12 13  2  0
 13 14  1  0
 14 15  2  0
 15 16  1  0
 16 17  1  0
 17 18  1  0
 18 19  2  0
 19 20  1  0
 20 21  2  0
 15 22  1  0
 22 23  2  0
 23  6  1  0
 23 12  1  0
 21 17  1  0
  1 24  1  0
  1 25  1  0
  1 26  1  0
  2 27  1  0
  2 28  1  0
  9 29  1  0
  9 30  1  0
 11 31  1  0
 13 32  1  0
 14 33  1  0
 16 34  1  0
 16 35  1  0
 18 36  1  0
 19 37  1  0
 21 38  1  0
 22 39  1  0
M  END
>  <UniqueID>  (62) 
62

>  <SMILES>  (62) 
CCOC(=O)n1c(C(N)=O)cc2ccc(Cn3ccnc3)cc21

>  <Energy>  (62) 
102.8975136754569

>  <Genealogy>  (62) 
CCOC(=O)n1c(C(N)=O)cc2ccc(Cn3ccnc3)cc21 (3D coordinates assigned)
CCOC(=O)n1c(C(N)=O)cc2ccc(Cn3ccnc3)cc21 (optimized conformer: 102.8975136754569 kcal/mol)

>  <smiles>  (62) 
CCOC(=O)n1c(C(N)=O)cc2ccc(Cn3ccnc3)cc21

>  <score_type>  (62) 
oracle

>  <origin>  (62) 
adg

>  <m_score__min__energy>  (62) 
-8.4700000000000006

>  <m_primary>  (62) 
energy

$$$$
62:0
     RDKit          3D

 47 49  0  0  0  0  0  0  0  0999 V2000
   -4.9770   15.2880  -32.0310 C   0  0  0  0  0  0  0  0  0  0  0  0
   -5.4300   16.3550  -32.9130 N   0  0  0  0  0  0  0  0  0  0  0  0
   -6.2150   17.4560  -32.4320 C   0  0  0  0  0  0  0  0  0  0  0  0
   -6.5430   17.5140  -31.2130 O   0  0  0  0  0  0  0  0  0  0  0  0
   -6.7140   18.4980  -33.3990 C   0  0  2  0  0  0  0  0  0  0  0  0
   -5.7940   18.6460  -34.6220 C   0  0  0  0  0  0  0  0  0  0  0  0
   -6.9420   19.8040  -32.6640 C   0  0  0  0  0  0  0  0  0  0  0  0
   -8.2500   20.3020  -32.4120 C   0  0  0  0  0  0  0  0  0  0  0  0
   -8.4370   21.5370  -31.7680 C   0  0  0  0  0  0  0  0  0  0  0  0
   -7.3070   22.2750  -31.4270 C   0  0  0  0  0  0  0  0  0  0  0  0
   -7.2020   23.5050  -30.8200 C   0  0  0  0  0  0  0  0  0  0  0  0
   -5.8360   23.7810  -30.7750 C   0  0  0  0  0  0  0  0  0  0  0  0
   -5.2850   25.0660  -30.2920 C   0  0  0  0  0  0  0  0  0  0  0  0
   -4.0670   25.5630  -30.8410 N   0  0  0  0  0  0  0  0  0  0  0  0
   -5.8560   25.7100  -29.3730 O   0  0  0  0  0  0  0  0  0  0  0  0
   -5.1230   22.7530  -31.3210 N   0  0  0  0  0  0  0  0  0  0  0  0
   -3.6990   22.6430  -31.4860 C   0  0  0  0  0  0  0  0  0  0  0  0
   -2.9190   23.1070  -30.6110 O   0  0  0  0  0  0  0  0  0  0  0  0
   -3.1900   21.9850  -32.6070 O   0  0  0  0  0  0  0  0  0  0  0  0
   -2.4260   20.7890  -32.5430 C   0  0  0  0  0  0  0  0  0  0  0  0
   -1.3330   20.8500  -33.5610 C   0  0  0  0  0  0  0  0  0  0  0  0
   -0.6450   21.9300  -33.8520 O   0  0  0  0  0  0  0  0  0  0  0  0
    0.2120   21.5720  -34.7810 C   0  0  0  0  0  0  0  0  0  0  0  0
    1.0500   22.3550  -35.2980 O   0  0  0  0  0  0  0  0  0  0  0  0
    0.1050   20.3030  -35.1070 O   0  0  0  0  0  0  0  0  0  0  0  0
   -0.8620   19.8220  -34.3620 C   0  0  0  0  0  0  0  0  0  0  0  0
   -1.3200   18.4000  -34.3810 C   0  0  0  0  0  0  0  0  0  0  0  0
   -6.0400   21.8400  -31.7120 C   0  0  0  0  0  0  0  0  0  0  0  0
   -5.8250   20.5940  -32.3150 C   0  0  0  0  0  0  0  0  0  0  0  0
   -5.1084   15.5975  -30.9836 H   0  0  0  0  0  0  0  0  0  0  0  0
   -5.5670   14.3794  -32.2216 H   0  0  0  0  0  0  0  0  0  0  0  0
   -3.9135   15.0814  -32.2216 H   0  0  0  0  0  0  0  0  0  0  0  0
   -5.1860   16.3030  -33.9280 H   0  0  0  0  0  0  0  0  0  0  0  0
   -7.6797   18.1681  -33.8096 H   0  0  0  0  0  0  0  0  0  0  0  0
   -4.7601   18.8123  -34.2851 H   0  0  0  0  0  0  0  0  0  0  0  0
   -5.8392   17.7290  -35.2279 H   0  0  0  0  0  0  0  0  0  0  0  0
   -6.1245   19.5025  -35.2279 H   0  0  0  0  0  0  0  0  0  0  0  0
   -9.1254   19.7138  -32.7247 H   0  0  0  0  0  0  0  0  0  0  0  0
   -9.4466   21.9096  -31.5401 H   0  0  0  0  0  0  0  0  0  0  0  0
   -8.0221   24.1371  -30.4487 H   0  0  0  0  0  0  0  0  0  0  0  0
   -3.1420   25.2480  -30.4700 H   0  0  0  0  0  0  0  0  0  0  0  0
   -1.9886   20.6849  -31.5391 H   0  0  0  0  0  0  0  0  0  0  0  0
   -3.0744   19.9244  -32.7477 H   0  0  0  0  0  0  0  0  0  0  0  0
   -1.4364   18.0385  -33.3487 H   0  0  0  0  0  0  0  0  0  0  0  0
   -2.2853   18.3326  -34.9042 H   0  0  0  0  0  0  0  0  0  0  0  0
   -0.5755   17.7819  -34.9042 H   0  0  0  0  0  0  0  0  0  0  0  0
   -4.8035   20.2372  -32.5132 H   0  0  0  0  0  0  0  0  0  0  0  0
  1  2  1  0
  2  3  1  0
  3  4  2  0
  3  5  1  0
  5  6  1  0
  5  7  1  0
  7  8  2  0
  8  9  1  0
  9 10  2  0
 10 11  1  0
 11 12  2  0
 12 13  1  0
 13 14  1  0
 13 15  2  0
 12 16  1  0
 16 17  1  0
 17 18  2  0
 17 19  1  0
 19 20  1  0
 20 21  1  0
 21 22  1  0
 22 23  1  0
 23 24  2  0
 23 25  1  0
 25 26  1  0
 26 27  1  0
 16 28  1  0
 28 29  2  0
 29  7  1  0
 28 10  1  0
 26 21  2  0
  1 30  1  0
  1 31  1  0
  1 32  1  0
  2 33  1  0
  5 34  1  6
  6 35  1  0
  6 36  1  0
  6 37  1  0
  8 38  1  0
  9 39  1  0
 11 40  1  0
 14 41  1  0
 20 42  1  0
 20 43  1  0
 27 44  1  0
 27 45  1  0
 27 46  1  0
 29 47  1  0
M  CHG  1  14  -1
M  END
>  <UniqueID>  (63) 
63

>  <SMILES>  (63) 
CNC(=O)[C@H](C)c1ccc2cc(C([NH-])=O)n(C(=O)OCc3oc(=O)oc3C)c2c1

>  <Energy>  (63) 
110.39683871711378

>  <Genealogy>  (63) 
CNC(=O)C(C)c1ccc2cc(C([NH-])=O)n(C(=O)OCc3oc(=O)oc3C)c2c1 (protonated)
CNC(=O)[C@H](C)c1ccc2cc(C([NH-])=O)n(C(=O)OCc3oc(=O)oc3C)c2c1 (chirality)
CNC(=O)[C@H](C)c1ccc2cc(C([NH-])=O)n(C(=O)OCc3oc(=O)oc3C)c2c1 (3D coordinates assigned)
CNC(=O)[C@H](C)c1ccc2cc(C([NH-])=O)n(C(=O)OCc3oc(=O)oc3C)c2c1 (optimized conformer: 110.39683871711378 kcal/mol)

>  <smiles>  (63) 
CNC(=O)C(C)c1ccc2cc(C(N)=O)n(C(=O)OCc3oc(=O)oc3C)c2c1

>  <score_type>  (63) 
oracle

>  <origin>  (63) 
adg

>  <m_score__min__energy>  (63) 
-11.470000000000001

>  <m_primary>  (63) 
energy

$$$$
63:0
     RDKit          3D

 39 40  0  0  0  0  0  0  0  0999 V2000
    0.5140   20.4770  -36.1220 C   0  0  0  0  0  0  0  0  0  0  0  0
    0.4940   21.5290  -35.0570 C   0  0  0  0  0  0  0  0  0  0  0  0
    0.8330   22.6710  -35.3250 O   0  0  0  0  0  0  0  0  0  0  0  0
   -0.0500   21.1210  -33.3940 S   0  0  0  0  0  0  0  0  0  0  0  0
   -1.7900   20.8130  -33.8660 C   0  0  0  0  0  0  0  0  0  0  0  0
   -2.7190   21.1300  -32.6910 C   0  0  0  0  0  0  0  0  0  0  0  0
   -3.6940   20.0130  -32.4310 C   0  0  0  0  0  0  0  0  0  0  0  0
   -3.2890   18.8190  -32.4420 O   0  0  0  0  0  0  0  0  0  0  0  0
   -5.0900   20.2860  -32.1970 N   0  0  0  0  0  0  0  0  0  0  0  0
   -6.1540   19.7240  -32.8360 C   0  0  0  0  0  0  0  0  0  0  0  0
   -6.0950   18.6050  -33.8000 C   0  0  0  0  0  0  0  0  0  0  0  0
   -4.9600   18.4110  -34.6440 N   0  0  0  0  0  0  0  0  0  0  0  0
   -7.0440   17.7730  -33.8410 O   0  0  0  0  0  0  0  0  0  0  0  0
   -7.3390   20.3550  -32.4680 C   0  0  0  0  0  0  0  0  0  0  0  0
   -6.9710   21.3290  -31.5690 C   0  0  0  0  0  0  0  0  0  0  0  0
   -7.7460   22.2870  -30.9260 C   0  0  0  0  0  0  0  0  0  0  0  0
   -7.0900   23.2300  -30.1170 C   0  0  0  0  0  0  0  0  0  0  0  0
   -5.6820   23.1960  -29.9670 C   0  0  0  0  0  0  0  0  0  0  0  0
   -4.9800   24.2580  -29.1620 C   0  0  0  0  0  0  0  0  0  0  0  0
   -3.9560   24.9490  -30.0050 C   0  0  0  0  0  0  0  0  0  0  0  0
   -4.2320   25.2990  -31.1820 O   0  0  0  0  0  0  0  0  0  0  0  0
   -2.6880   25.1940  -29.4930 O   0  0  0  0  0  0  0  0  0  0  0  0
   -4.9280   22.2100  -30.6410 C   0  0  0  0  0  0  0  0  0  0  0  0
   -5.6060   21.2700  -31.4250 C   0  0  0  0  0  0  0  0  0  0  0  0
    0.5329   19.4817  -35.6540 H   0  0  0  0  0  0  0  0  0  0  0  0
   -0.3861   20.5711  -36.7473 H   0  0  0  0  0  0  0  0  0  0  0  0
    1.4099   20.6052  -36.7473 H   0  0  0  0  0  0  0  0  0  0  0  0
   -2.0536   21.4530  -34.7209 H   0  0  0  0  0  0  0  0  0  0  0  0
   -1.9061   19.7542  -34.1406 H   0  0  0  0  0  0  0  0  0  0  0  0
   -2.1102   21.2883  -31.7886 H   0  0  0  0  0  0  0  0  0  0  0  0
   -3.2938   22.0331  -32.9441 H   0  0  0  0  0  0  0  0  0  0  0  0
   -4.9790   17.6760  -35.3830 H   0  0  0  0  0  0  0  0  0  0  0  0
   -4.0650   18.9180  -34.4680 H   0  0  0  0  0  0  0  0  0  0  0  0
   -8.3547   20.1237  -32.8213 H   0  0  0  0  0  0  0  0  0  0  0  0
   -8.8392   22.3063  -31.0468 H   0  0  0  0  0  0  0  0  0  0  0  0
   -7.6752   24.0017  -29.5954 H   0  0  0  0  0  0  0  0  0  0  0  0
   -5.7174   24.9939  -28.8091 H   0  0  0  0  0  0  0  0  0  0  0  0
   -4.4805   23.7870  -28.3026 H   0  0  0  0  0  0  0  0  0  0  0  0
   -3.8320   22.1817  -30.5516 H   0  0  0  0  0  0  0  0  0  0  0  0
  1  2  1  0
  2  3  2  0
  2  4  1  0
  4  5  1  0
  5  6  1  0
  6  7  1  0
  7  8  2  0
  7  9  1  0
  9 10  1  0
 10 11  1  0
 11 12  1  0
 11 13  2  0
 10 14  2  0
 14 15  1  0
 15 16  2  0
 16 17  1  0
 17 18  2  0
 18 19  1  0
 19 20  1  0
 20 21  2  0
 20 22  1  0
 18 23  1  0
 23 24  2  0
 24  9  1  0
 24 15  1  0
  1 25  1  0
  1 26  1  0
  1 27  1  0
  5 28  1  0
  5 29  1  0
  6 30  1  0
  6 31  1  0
 12 32  1  0
 12 33  1  0
 14 34  1  0
 16 35  1  0
 17 36  1  0
 19 37  1  0
 19 38  1  0
 23 39  1  0
M  CHG  1  22  -1
M  END
>  <UniqueID>  (64) 
64

>  <SMILES>  (64) 
CC(=O)SCCC(=O)n1c(C(N)=O)cc2ccc(CC(=O)[O-])cc21

>  <Energy>  (64) 
69.8638178822302

>  <Genealogy>  (64) 
CC(=O)SCCC(=O)n1c(C(N)=O)cc2ccc(CC(=O)[O-])cc21 (protonated)
CC(=O)SCCC(=O)n1c(C(N)=O)cc2ccc(CC(=O)[O-])cc21 (3D coordinates assigned)
CC(=O)SCCC(=O)n1c(C(N)=O)cc2ccc(CC(=O)[O-])cc21 (optimized conformer: 69.8638178822302 kcal/mol)

>  <smiles>  (64) 
CC(=O)SCCC(=O)n1c(C(N)=O)cc2ccc(CC(=O)O)cc21

>  <score_type>  (64) 
oracle

>  <origin>  (64) 
adg

>  <m_score__min__energy>  (64) 
-10.48

>  <m_primary>  (64) 
energy

$$$$
64:0
     RDKit          3D

 34 35  0  0  0  0  0  0  0  0999 V2000
   -9.7700   21.2030  -32.0030 C   0  0  0  0  0  0  0  0  0  0  0  0
   -8.3060   20.9150  -31.9360 C   0  0  0  0  0  0  0  0  0  0  0  0
   -7.5930   21.5130  -31.0850 O   0  0  0  0  0  0  0  0  0  0  0  0
   -7.7300   19.9300  -32.8050 N   0  0  0  0  0  0  0  0  0  0  0  0
   -6.3480   19.4690  -32.6760 C   0  0  0  0  0  0  0  0  0  0  0  0
   -5.4110   20.3050  -33.5540 C   0  0  0  0  0  0  0  0  0  0  0  0
   -4.2190   20.7970  -32.7770 C   0  0  0  0  0  0  0  0  0  0  0  0
   -3.0180   20.0440  -32.7610 C   0  0  0  0  0  0  0  0  0  0  0  0
   -1.9140   20.4730  -32.0060 C   0  0  0  0  0  0  0  0  0  0  0  0
   -2.0430   21.6460  -31.2700 C   0  0  0  0  0  0  0  0  0  0  0  0
   -1.1300   22.2950  -30.4730 C   0  0  0  0  0  0  0  0  0  0  0  0
   -1.7950   23.4180  -29.9860 C   0  0  0  0  0  0  0  0  0  0  0  0
   -1.1990   24.3560  -29.0110 C   0  0  0  0  0  0  0  0  0  0  0  0
   -1.6180   25.7160  -28.9490 N   0  0  0  0  0  0  0  0  0  0  0  0
   -0.3430   23.9360  -28.1870 O   0  0  0  0  0  0  0  0  0  0  0  0
   -3.0690   23.4680  -30.4720 N   0  0  0  0  0  0  0  0  0  0  0  0
   -4.0480   24.5010  -30.2780 C   0  0  0  0  0  0  0  0  0  0  0  0
   -3.8700   25.6470  -30.7690 O   0  0  0  0  0  0  0  0  0  0  0  0
   -5.2130   24.2390  -29.5690 O   0  0  0  0  0  0  0  0  0  0  0  0
   -3.2050   22.3740  -31.2560 C   0  0  0  0  0  0  0  0  0  0  0  0
   -4.3140   21.9810  -32.0130 C   0  0  0  0  0  0  0  0  0  0  0  0
  -10.1751   21.2827  -30.9834 H   0  0  0  0  0  0  0  0  0  0  0  0
   -9.9332   22.1505  -32.5375 H   0  0  0  0  0  0  0  0  0  0  0  0
  -10.2799   20.3880  -32.5375 H   0  0  0  0  0  0  0  0  0  0  0  0
   -8.3560   19.4210  -33.4710 H   0  0  0  0  0  0  0  0  0  0  0  0
   -6.0342   19.5596  -31.6256 H   0  0  0  0  0  0  0  0  0  0  0  0
   -6.2945   18.4200  -33.0026 H   0  0  0  0  0  0  0  0  0  0  0  0
   -5.0601   19.6858  -34.3927 H   0  0  0  0  0  0  0  0  0  0  0  0
   -5.9694   21.1794  -33.9194 H   0  0  0  0  0  0  0  0  0  0  0  0
   -2.9500   19.1147  -33.3456 H   0  0  0  0  0  0  0  0  0  0  0  0
   -0.9759   19.8987  -31.9971 H   0  0  0  0  0  0  0  0  0  0  0  0
   -0.0935   21.9917  -30.2640 H   0  0  0  0  0  0  0  0  0  0  0  0
   -2.6310   25.9680  -28.9750 H   0  0  0  0  0  0  0  0  0  0  0  0
   -5.2370   22.5793  -32.0131 H   0  0  0  0  0  0  0  0  0  0  0  0
  1  2  1  0
  2  3  2  0
  2  4  1  0
  4  5  1  0
  5  6  1  0
  6  7  1  0
  7  8  2  0
  8  9  1  0
  9 10  2  0
 10 11  1  0
 11 12  2  0
 12 13  1  0
 13 14  1  0
 13 15  2  0
 12 16  1  0
 16 17  1  0
 17 18  2  0
 17 19  1  0
 16 20  1  0
 20 21  2  0
 21  7  1  0
 20 10  1  0
  1 22  1  0
  1 23  1  0
  1 24  1  0
  4 25  1  0
  5 26  1  0
  5 27  1  0
  6 28  1  0
  6 29  1  0
  8 30  1  0
  9 31  1  0
 11 32  1  0
 14 33  1  0
 21 34  1  0
M  CHG  2  14  -1  19  -1
M  END
>  <UniqueID>  (65) 
65

>  <SMILES>  (65) 
CC(=O)NCCc1ccc2cc(C([NH-])=O)n(C(=O)[O-])c2c1

>  <Energy>  (65) 
67.2598343022666

>  <Genealogy>  (65) 
CC(=O)NCCc1ccc2cc(C([NH-])=O)n(C(=O)[O-])c2c1 (protonated)
CC(=O)NCCc1ccc2cc(C([NH-])=O)n(C(=O)[O-])c2c1 (3D coordinates assigned)
CC(=O)NCCc1ccc2cc(C([NH-])=O)n(C(=O)[O-])c2c1 (optimized conformer: 67.2598343022666 kcal/mol)

>  <smiles>  (65) 
CC(=O)NCCc1ccc2cc(C(N)=O)n(C(=O)O)c2c1

>  <score_type>  (65) 
oracle

>  <origin>  (65) 
adg

>  <m_score__min__energy>  (65) 
-10.91

>  <m_primary>  (65) 
energy

$$$$
65:0
     RDKit          3D

 26 27  0  0  0  0  0  0  0  0999 V2000
   -1.6120   25.6660  -28.9800 N   0  0  0  0  0  0  0  0  0  0  0  0
   -1.0090   24.3930  -29.1930 C   0  0  0  0  0  0  0  0  0  0  0  0
    0.1450   24.1730  -28.7360 O   0  0  0  0  0  0  0  0  0  0  0  0
   -1.6920   23.3520  -29.9880 C   0  0  0  0  0  0  0  0  0  0  0  0
   -1.0700   22.1760  -30.4020 C   0  0  0  0  0  0  0  0  0  0  0  0
   -1.9970   21.5290  -31.1850 C   0  0  0  0  0  0  0  0  0  0  0  0
   -1.9110   20.3110  -31.8530 C   0  0  0  0  0  0  0  0  0  0  0  0
   -3.0350   19.8720  -32.5710 C   0  0  0  0  0  0  0  0  0  0  0  0
   -4.2230   20.6450  -32.5950 C   0  0  0  0  0  0  0  0  0  0  0  0
   -5.4130   20.1740  -33.3850 C   0  0  0  0  0  0  0  0  0  0  0  0
   -5.2460   18.7360  -33.7540 C   0  0  0  0  0  0  0  0  0  0  0  0
   -5.0100   18.4120  -34.9480 O   0  0  0  0  0  0  0  0  0  0  0  0
   -5.4010   17.7480  -32.7900 O   0  0  0  0  0  0  0  0  0  0  0  0
   -4.2700   21.8810  -31.9130 C   0  0  0  0  0  0  0  0  0  0  0  0
   -3.1290   22.3030  -31.2220 C   0  0  0  0  0  0  0  0  0  0  0  0
   -2.9580   23.4260  -30.4880 N   0  0  0  0  0  0  0  0  0  0  0  0
   -3.9510   24.4270  -30.2170 C   0  0  0  0  0  0  0  0  0  0  0  0
   -4.8870   24.1940  -29.4070 O   0  0  0  0  0  0  0  0  0  0  0  0
   -3.8740   25.6750  -30.8240 O   0  0  0  0  0  0  0  0  0  0  0  0
   -2.6480   25.7860  -29.0380 H   0  0  0  0  0  0  0  0  0  0  0  0
   -0.0531   21.8370  -30.1549 H   0  0  0  0  0  0  0  0  0  0  0  0
   -0.9901   19.7103  -31.8195 H   0  0  0  0  0  0  0  0  0  0  0  0
   -2.9933   18.9196  -33.1198 H   0  0  0  0  0  0  0  0  0  0  0  0
   -6.3226   20.2907  -32.7776 H   0  0  0  0  0  0  0  0  0  0  0  0
   -5.4971   20.7744  -34.3028 H   0  0  0  0  0  0  0  0  0  0  0  0
   -5.1814   22.4968  -31.9249 H   0  0  0  0  0  0  0  0  0  0  0  0
  1  2  1  0
  2  3  2  0
  2  4  1  0
  4  5  2  0
  5  6  1  0
  6  7  2  0
  7  8  1  0
  8  9  2  0
  9 10  1  0
 10 11  1  0
 11 12  2  0
 11 13  1  0
  9 14  1  0
 14 15  2  0
 15 16  1  0
 16 17  1  0
 17 18  2  0
 17 19  1  0
 16  4  1  0
 15  6  1  0
  1 20  1  0
  5 21  1  0
  7 22  1  0
  8 23  1  0
 10 24  1  0
 10 25  1  0
 14 26  1  0
M  CHG  3   1  -1  13  -1  19  -1
M  END
>  <UniqueID>  (66) 
66

>  <SMILES>  (66) 
[NH-]C(=O)c1cc2ccc(CC(=O)[O-])cc2n1C(=O)[O-]

>  <Energy>  (66) 
64.85566558067983

>  <Genealogy>  (66) 
[NH-]C(=O)c1cc2ccc(CC(=O)[O-])cc2n1C(=O)[O-] (protonated)
[NH-]C(=O)c1cc2ccc(CC(=O)[O-])cc2n1C(=O)[O-] (3D coordinates assigned)
[NH-]C(=O)c1cc2ccc(CC(=O)[O-])cc2n1C(=O)[O-] (optimized conformer: 64.85566558067983 kcal/mol)

>  <smiles>  (66) 
NC(=O)c1cc2ccc(CC(=O)O)cc2n1C(=O)O

>  <score_type>  (66) 
oracle

>  <origin>  (66) 
adg

>  <m_score__min__energy>  (66) 
-9.9399999999999995

>  <m_primary>  (66) 
energy

$$$$
66:0
     RDKit          3D

 32 34  0  0  0  0  0  0  0  0999 V2000
   -1.6030   26.0220  -28.9090 N   0  0  0  0  0  0  0  0  0  0  0  0
   -0.8990   24.7840  -28.8640 C   0  0  0  0  0  0  0  0  0  0  0  0
    0.1650   24.7020  -28.1940 O   0  0  0  0  0  0  0  0  0  0  0  0
   -1.3660   23.6150  -29.6390 C   0  0  0  0  0  0  0  0  0  0  0  0
   -0.5430   22.5460  -29.9810 C   0  0  0  0  0  0  0  0  0  0  0  0
   -1.3180   21.7250  -30.7680 C   0  0  0  0  0  0  0  0  0  0  0  0
   -1.0050   20.5150  -31.3780 C   0  0  0  0  0  0  0  0  0  0  0  0
   -2.0120   19.8690  -32.1140 C   0  0  0  0  0  0  0  0  0  0  0  0
   -3.3140   20.4290  -32.2170 C   0  0  0  0  0  0  0  0  0  0  0  0
   -4.3850   19.7500  -32.9900 C   0  0  0  0  0  0  0  0  0  0  0  0
   -4.0950   18.7800  -33.9630 C   0  0  0  0  0  0  0  0  0  0  0  0
   -5.1500   18.1790  -34.6480 C   0  0  0  0  0  0  0  0  0  0  0  0
   -6.4330   18.5280  -34.3670 N   0  0  0  0  0  0  0  0  0  0  0  0
   -6.7050   19.4610  -33.4140 C   0  0  0  0  0  0  0  0  0  0  0  0
   -8.0560   19.8180  -33.1190 N   0  0  0  0  0  0  0  0  0  0  0  0
   -5.6880   20.0580  -32.7390 N   0  0  0  0  0  0  0  0  0  0  0  0
   -3.5850   21.6670  -31.5890 C   0  0  0  0  0  0  0  0  0  0  0  0
   -2.5570   22.2990  -30.8770 C   0  0  0  0  0  0  0  0  0  0  0  0
   -2.6050   23.4600  -30.1870 N   0  0  0  0  0  0  0  0  0  0  0  0
   -3.7600   24.2930  -29.9950 C   0  0  0  0  0  0  0  0  0  0  0  0
   -4.6560   23.9610  -29.1740 O   0  0  0  0  0  0  0  0  0  0  0  0
   -3.8870   25.4870  -30.6930 O   0  0  0  0  0  0  0  0  0  0  0  0
   -2.6450   26.0460  -28.9600 H   0  0  0  0  0  0  0  0  0  0  0  0
    0.5049   22.3903  -29.6850 H   0  0  0  0  0  0  0  0  0  0  0  0
    0.0001   20.0774  -31.2869 H   0  0  0  0  0  0  0  0  0  0  0  0
   -1.7897   18.9166  -32.6175 H   0  0  0  0  0  0  0  0  0  0  0  0
   -3.0539   18.4994  -34.1808 H   0  0  0  0  0  0  0  0  0  0  0  0
   -4.9435   17.4207  -35.4176 H   0  0  0  0  0  0  0  0  0  0  0  0
   -7.2120   18.0670  -34.8880 H   0  0  0  0  0  0  0  0  0  0  0  0
   -8.7780   19.8440  -33.8720 H   0  0  0  0  0  0  0  0  0  0  0  0
   -8.3350   20.0570  -32.1410 H   0  0  0  0  0  0  0  0  0  0  0  0
   -4.5829   22.1245  -31.6582 H   0  0  0  0  0  0  0  0  0  0  0  0
  1  2  1  0
  2  3  2  0
  2  4  1  0
  4  5  2  0
  5  6  1  0
  6  7  2  0
  7  8  1  0
  8  9  2  0
  9 10  1  0
 10 11  2  0
 11 12  1  0
 12 13  2  0
 13 14  1  0
 14 15  1  0
 14 16  2  0
  9 17  1  0
 17 18  2  0
 18 19  1  0
 19 20  1  0
 20 21  2  0
 20 22  1  0
 19  4  1  0
 18  6  1  0
 16 10  1  0
  1 23  1  0
  5 24  1  0
  7 25  1  0
  8 26  1  0
 11 27  1  0
 12 28  1  0
 13 29  1  0
 15 30  1  0
 15 31  1  0
 17 32  1  0
M  CHG  3   1  -1  13   1  22  -1
M  END
>  <UniqueID>  (67) 
67

>  <SMILES>  (67) 
[NH-]C(=O)c1cc2ccc(-c3cc[nH+]c(N)n3)cc2n1C(=O)[O-]

>  <Energy>  (67) 
77.63662432178239

>  <Genealogy>  (67) 
[NH-]C(=O)c1cc2ccc(-c3cc[nH+]c(N)n3)cc2n1C(=O)[O-] (protonated)
[NH-]C(=O)c1cc2ccc(-c3cc[nH+]c(N)n3)cc2n1C(=O)[O-] (3D coordinates assigned)
[NH-]C(=O)c1cc2ccc(-c3cc[nH+]c(N)n3)cc2n1C(=O)[O-] (optimized conformer: 77.63662432178239 kcal/mol)

>  <smiles>  (67) 
NC(=O)c1cc2ccc(-c3ccnc(N)n3)cc2n1C(=O)O

>  <score_type>  (67) 
oracle

>  <origin>  (67) 
adg

>  <m_score__min__energy>  (67) 
-10.949999999999999

>  <m_primary>  (67) 
energy

$$$$
67:0
     RDKit          3D

 34 36  0  0  0  0  0  0  0  0999 V2000
   -0.0810   17.4890  -27.0400 N   0  0  0  0  0  0  0  0  0  0  0  0
    0.4290   18.5660  -27.8280 C   0  0  0  0  0  0  0  0  0  0  0  0
    1.6670   18.7990  -27.8290 O   0  0  0  0  0  0  0  0  0  0  0  0
   -0.4590   19.3600  -28.6970 C   0  0  0  0  0  0  0  0  0  0  0  0
   -0.1290   19.7170  -30.0020 C   0  0  0  0  0  0  0  0  0  0  0  0
   -1.2400   20.3660  -30.4920 C   0  0  0  0  0  0  0  0  0  0  0  0
   -1.4650   20.9370  -31.7410 C   0  0  0  0  0  0  0  0  0  0  0  0
   -2.7020   21.5620  -31.9650 C   0  0  0  0  0  0  0  0  0  0  0  0
   -3.6880   21.6000  -30.9480 C   0  0  0  0  0  0  0  0  0  0  0  0
   -4.9770   22.2850  -31.1900 C   0  0  0  0  0  0  0  0  0  0  0  0
   -6.0460   21.5230  -31.6960 C   0  0  0  0  0  0  0  0  0  0  0  0
   -7.2570   22.1290  -32.0270 C   0  0  0  0  0  0  0  0  0  0  0  0
   -7.4200   23.5020  -31.8610 C   0  0  0  0  0  0  0  0  0  0  0  0
   -6.3770   24.2740  -31.3470 C   0  0  0  0  0  0  0  0  0  0  0  0
   -5.1500   23.6820  -30.9900 C   0  0  0  0  0  0  0  0  0  0  0  0
   -4.1050   24.5350  -30.3700 C   0  0  0  0  0  0  0  0  0  0  0  0
   -3.8530   25.6740  -30.8440 O   0  0  0  0  0  0  0  0  0  0  0  0
   -3.4210   24.1150  -29.2350 O   0  0  0  0  0  0  0  0  0  0  0  0
   -3.4190   21.0210  -29.6870 C   0  0  0  0  0  0  0  0  0  0  0  0
   -2.1830   20.3940  -29.4960 C   0  0  0  0  0  0  0  0  0  0  0  0
   -1.7140   19.7880  -28.3820 N   0  0  0  0  0  0  0  0  0  0  0  0
   -2.3840   19.7320  -27.1110 C   0  0  0  0  0  0  0  0  0  0  0  0
   -2.5390   18.6370  -26.5090 O   0  0  0  0  0  0  0  0  0  0  0  0
   -1.0720   17.1760  -27.1380 H   0  0  0  0  0  0  0  0  0  0  0  0
    0.5550   16.9530  -26.4090 H   0  0  0  0  0  0  0  0  0  0  0  0
    0.8169   19.5222  -30.5286 H   0  0  0  0  0  0  0  0  0  0  0  0
   -0.6976   20.8998  -32.5282 H   0  0  0  0  0  0  0  0  0  0  0  0
   -2.9080   22.0271  -32.9403 H   0  0  0  0  0  0  0  0  0  0  0  0
   -5.9250   20.4381  -31.8318 H   0  0  0  0  0  0  0  0  0  0  0  0
   -8.0855   21.5214  -32.4201 H   0  0  0  0  0  0  0  0  0  0  0  0
   -8.3725   23.9790  -32.1355 H   0  0  0  0  0  0  0  0  0  0  0  0
   -6.5150   25.3578  -31.2192 H   0  0  0  0  0  0  0  0  0  0  0  0
   -4.1620   21.0623  -28.8770 H   0  0  0  0  0  0  0  0  0  0  0  0
   -2.7665   20.6587  -26.6583 H   0  0  0  0  0  0  0  0  0  0  0  0
  1  2  1  0
  2  3  2  0
  2  4  1  0
  4  5  2  0
  5  6  1  0
  6  7  2  0
  7  8  1  0
  8  9  2  0
  9 10  1  0
 10 11  2  0
 11 12  1  0
 12 13  2  0
 13 14  1  0
 14 15  2  0
 15 16  1  0
 16 17  2  0
 16 18  1  0
  9 19  1  0
 19 20  2  0
 20 21  1  0
 21 22  1  0
 22 23  2  0
 21  4  1  0
 20  6  1  0
 15 10  1  0
  1 24  1  0
  1 25  1  0
  5 26  1  0
  7 27  1  0
  8 28  1  0
 11 29  1  0
 12 30  1  0
 13 31  1  0
 14 32  1  0
 19 33  1  0
 22 34  1  0
M  CHG  1  18  -1
M  END
>  <UniqueID>  (68) 
68

>  <SMILES>  (68) 
NC(=O)c1cc2ccc(-c3ccccc3C(=O)[O-])cc2n1C=O

>  <Energy>  (68) 
86.47532884621465

>  <Genealogy>  (68) 
NC(=O)c1cc2ccc(-c3ccccc3C(=O)[O-])cc2n1C=O (protonated)
NC(=O)c1cc2ccc(-c3ccccc3C(=O)[O-])cc2n1C=O (3D coordinates assigned)
NC(=O)c1cc2ccc(-c3ccccc3C(=O)[O-])cc2n1C=O (optimized conformer: 86.47532884621465 kcal/mol)

>  <smiles>  (68) 
NC(=O)c1cc2ccc(-c3ccccc3C(=O)O)cc2n1C=O

>  <score_type>  (68) 
oracle

>  <origin>  (68) 
adg

>  <m_score__min__energy>  (68) 
-9.3800000000000008

>  <m_primary>  (68) 
energy

$$$$
68:0
     RDKit          3D

 37 40  0  0  0  0  0  0  0  0999 V2000
   -3.6740   25.2710  -30.4380 N   0  0  0  0  0  0  0  0  0  0  0  0
   -5.0920   25.2520  -30.5730 C   0  0  0  0  0  0  0  0  0  0  0  0
   -5.7270   26.3400  -30.5750 O   0  0  0  0  0  0  0  0  0  0  0  0
   -5.8160   23.9830  -30.7840 C   0  0  0  0  0  0  0  0  0  0  0  0
   -7.2040   23.9070  -30.8810 C   0  0  0  0  0  0  0  0  0  0  0  0
   -7.4770   22.5920  -31.1830 C   0  0  0  0  0  0  0  0  0  0  0  0
   -8.6960   21.9560  -31.3940 C   0  0  0  0  0  0  0  0  0  0  0  0
   -8.6820   20.5800  -31.6740 C   0  0  0  0  0  0  0  0  0  0  0  0
   -7.4580   19.8670  -31.7280 C   0  0  0  0  0  0  0  0  0  0  0  0
   -7.4500   18.3870  -32.0160 C   0  0  0  0  0  0  0  0  0  0  0  0
   -6.4000   18.0550  -32.9910 N   0  0  0  0  0  0  0  0  0  0  0  0
   -6.1200   18.8050  -34.0900 C   0  0  0  0  0  0  0  0  0  0  0  0
   -6.7530   19.8480  -34.4040 O   0  0  0  0  0  0  0  0  0  0  0  0
   -4.8270   18.1950  -34.9870 S   0  0  0  0  0  0  0  0  0  0  0  0
   -4.6090   16.9130  -33.9220 C   0  0  0  0  0  0  0  0  0  0  0  0
   -3.6590   15.8950  -33.9840 C   0  0  0  0  0  0  0  0  0  0  0  0
   -2.7550   15.8440  -34.9930 F   0  0  0  0  0  0  0  0  0  0  0  0
   -3.6580   14.9230  -32.9740 C   0  0  0  0  0  0  0  0  0  0  0  0
   -4.6000   14.9840  -31.9290 C   0  0  0  0  0  0  0  0  0  0  0  0
   -4.5900   14.0370  -30.9580 F   0  0  0  0  0  0  0  0  0  0  0  0
   -5.5500   16.0180  -31.8850 C   0  0  0  0  0  0  0  0  0  0  0  0
   -5.5470   16.9900  -32.8980 C   0  0  0  0  0  0  0  0  0  0  0  0
   -6.2390   20.5490  -31.5190 C   0  0  0  0  0  0  0  0  0  0  0  0
   -6.2830   21.9230  -31.2510 C   0  0  0  0  0  0  0  0  0  0  0  0
   -5.2530   22.7590  -30.9990 N   0  0  0  0  0  0  0  0  0  0  0  0
   -3.8730   22.3730  -30.8860 C   0  0  0  0  0  0  0  0  0  0  0  0
   -3.0070   22.8270  -31.6790 O   0  0  0  0  0  0  0  0  0  0  0  0
   -3.0570   24.9380  -31.2110 H   0  0  0  0  0  0  0  0  0  0  0  0
   -7.9277   24.7242  -30.7451 H   0  0  0  0  0  0  0  0  0  0  0  0
   -9.6425   22.5142  -31.3431 H   0  0  0  0  0  0  0  0  0  0  0  0
   -9.6295   20.0506  -31.8531 H   0  0  0  0  0  0  0  0  0  0  0  0
   -7.2623   17.8379  -31.0815 H   0  0  0  0  0  0  0  0  0  0  0  0
   -8.4262   18.1020  -32.4353 H   0  0  0  0  0  0  0  0  0  0  0  0
   -2.9183   14.1092  -32.9978 H   0  0  0  0  0  0  0  0  0  0  0  0
   -6.2856   16.0654  -31.0686 H   0  0  0  0  0  0  0  0  0  0  0  0
   -5.2788   20.0143  -31.5656 H   0  0  0  0  0  0  0  0  0  0  0  0
   -3.5693   21.6710  -30.0955 H   0  0  0  0  0  0  0  0  0  0  0  0
  1  2  1  0
  2  3  2  0
  2  4  1  0
  4  5  2  0
  5  6  1  0
  6  7  2  0
  7  8  1  0
  8  9  2  0
  9 10  1  0
 10 11  1  0
 11 12  1  0
 12 13  2  0
 12 14  1  0
 14 15  1  0
 15 16  2  0
 16 17  1  0
 16 18  1  0
 18 19  2  0
 19 20  1  0
 19 21  1  0
 21 22  2  0
  9 23  1  0
 23 24  2  0
 24 25  1  0
 25 26  1  0
 26 27  2  0
 25  4  1  0
 24  6  1  0
 22 11  1  0
 22 15  1  0
  1 28  1  0
  5 29  1  0
  7 30  1  0
  8 31  1  0
 10 32  1  0
 10 33  1  0
 18 34  1  0
 21 35  1  0
 23 36  1  0
 26 37  1  0
M  CHG  1   1  -1
M  END
>  <UniqueID>  (69) 
69

>  <SMILES>  (69) 
[NH-]C(=O)c1cc2ccc(Cn3c(=O)sc4c(F)cc(F)cc43)cc2n1C=O

>  <Energy>  (69) 
116.61230647249803

>  <Genealogy>  (69) 
[NH-]C(=O)c1cc2ccc(Cn3c(=O)sc4c(F)cc(F)cc43)cc2n1C=O (protonated)
[NH-]C(=O)c1cc2ccc(Cn3c(=O)sc4c(F)cc(F)cc43)cc2n1C=O (3D coordinates assigned)
[NH-]C(=O)c1cc2ccc(Cn3c(=O)sc4c(F)cc(F)cc43)cc2n1C=O (optimized conformer: 116.61230647249803 kcal/mol)

>  <smiles>  (69) 
NC(=O)c1cc2ccc(Cn3c(=O)sc4c(F)cc(F)cc43)cc2n1C=O

>  <score_type>  (69) 
oracle

>  <origin>  (69) 
adg

>  <m_score__min__energy>  (69) 
-11.27

>  <m_primary>  (69) 
energy

$$$$
69:0
     RDKit          3D

 63 68  0  0  0  0  0  0  0  0999 V2000
    3.6390   20.3220  -38.3930 N   0  0  0  0  0  0  0  0  0  0  0  0
    3.2660   19.1990  -37.5970 C   0  0  0  0  0  0  0  0  0  0  0  0
    3.7690   18.0680  -37.8430 O   0  0  0  0  0  0  0  0  0  0  0  0
    2.2310   19.3310  -36.5580 C   0  0  0  0  0  0  0  0  0  0  0  0
    1.2780   18.3510  -36.3030 C   0  0  0  0  0  0  0  0  0  0  0  0
    0.4240   18.9060  -35.3810 C   0  0  0  0  0  0  0  0  0  0  0  0
   -0.7010   18.3630  -34.7640 C   0  0  0  0  0  0  0  0  0  0  0  0
   -1.3720   19.1460  -33.8100 C   0  0  0  0  0  0  0  0  0  0  0  0
   -0.9010   20.4380  -33.4890 C   0  0  0  0  0  0  0  0  0  0  0  0
   -1.5520   21.2090  -32.4760 N   0  0  0  0  0  0  0  0  0  0  0  0
   -0.7230   21.9300  -31.5120 C   0  0  0  0  0  0  0  0  0  0  0  0
   -1.4670   21.8580  -30.1880 C   0  0  0  0  0  0  0  0  0  0  0  0
   -2.9190   21.6170  -30.5770 C   0  0  1  0  0  0  0  0  0  0  0  0
   -3.5660   22.9210  -30.8070 N   0  0  0  0  0  0  0  0  0  0  0  0
   -3.2320   24.1080  -30.0790 C   0  0  0  0  0  0  0  0  0  0  0  0
   -2.3670   24.0860  -29.1610 O   0  0  0  0  0  0  0  0  0  0  0  0
   -3.8730   25.3030  -30.3860 O   0  0  0  0  0  0  0  0  0  0  0  0
   -2.8220   20.7830  -31.8800 C   0  0  1  0  0  0  0  0  0  0  0  0
   -4.0730   20.9750  -32.8140 C   0  0  1  0  0  0  0  0  0  0  0  0
   -3.8700   22.1230  -33.6030 O   0  0  0  0  0  0  0  0  0  0  0  0
   -4.6240   19.8340  -33.7370 C   0  0  1  0  0  0  0  0  0  0  0  0
   -5.0660   18.5240  -33.1070 C   0  0  0  0  0  0  0  0  0  0  0  0
   -6.0940   19.3870  -33.8510 C   0  0  1  0  0  0  0  0  0  0  0  0
   -7.1600   20.0130  -32.9940 C   0  0  0  0  0  0  0  0  0  0  0  0
   -8.3290   19.3100  -32.6440 C   0  0  0  0  0  0  0  0  0  0  0  0
   -9.2760   19.9180  -31.8810 N   0  0  0  0  0  0  0  0  0  0  0  0
   -9.1320   21.2090  -31.4810 C   0  0  0  0  0  0  0  0  0  0  0  0
  -10.0900   21.7970  -30.7240 F   0  0  0  0  0  0  0  0  0  0  0  0
   -7.9980   21.9290  -31.8700 C   0  0  0  0  0  0  0  0  0  0  0  0
   -7.0450   21.3210  -32.6230 N   0  0  0  0  0  0  0  0  0  0  0  0
    0.2360   20.9620  -34.1410 C   0  0  0  0  0  0  0  0  0  0  0  0
    0.8770   20.1720  -35.1000 C   0  0  0  0  0  0  0  0  0  0  0  0
    1.9940   20.4470  -35.8100 N   0  0  0  0  0  0  0  0  0  0  0  0
    2.8400   21.6140  -35.7090 C   0  0  0  0  0  0  0  0  0  0  0  0
    4.0840   21.5010  -35.8980 O   0  0  0  0  0  0  0  0  0  0  0  0
    2.2910   22.9670  -35.3530 C   0  0  0  0  0  0  0  0  0  0  0  0
    1.1410   23.4580  -36.2190 C   0  0  0  0  0  0  0  0  0  0  0  0
    2.5370   24.0290  -36.4120 C   0  0  0  0  0  0  0  0  0  0  0  0
    3.9860   21.2020  -37.9510 H   0  0  0  0  0  0  0  0  0  0  0  0
    1.2202   17.3455  -36.7453 H   0  0  0  0  0  0  0  0  0  0  0  0
   -1.0531   17.3519  -35.0162 H   0  0  0  0  0  0  0  0  0  0  0  0
   -2.2688   18.7507  -33.3105 H   0  0  0  0  0  0  0  0  0  0  0  0
    0.2639   21.4523  -31.4230 H   0  0  0  0  0  0  0  0  0  0  0  0
   -0.5528   22.9710  -31.8240 H   0  0  0  0  0  0  0  0  0  0  0  0
   -1.0867   21.0288  -29.5733 H   0  0  0  0  0  0  0  0  0  0  0  0
   -1.3416   22.7716  -29.5884 H   0  0  0  0  0  0  0  0  0  0  0  0
   -3.5144   21.0961  -29.8127 H   0  0  0  0  0  0  0  0  0  0  0  0
   -4.2900   22.9990  -31.5600 H   0  0  0  0  0  0  0  0  0  0  0  0
   -2.8315   19.6982  -31.6978 H   0  0  0  0  0  0  0  0  0  0  0  0
   -4.8719   21.0217  -32.0593 H   0  0  0  0  0  0  0  0  0  0  0  0
   -3.1150   21.9320  -34.2270 H   0  0  0  0  0  0  0  0  0  0  0  0
   -3.8999   20.1780  -34.4902 H   0  0  0  0  0  0  0  0  0  0  0  0
   -4.7361   17.5683  -33.5403 H   0  0  0  0  0  0  0  0  0  0  0  0
   -5.0044   18.0904  -32.0979 H   0  0  0  0  0  0  0  0  0  0  0  0
   -6.7835   19.2786  -34.7012 H   0  0  0  0  0  0  0  0  0  0  0  0
   -8.4751   18.2748  -32.9860 H   0  0  0  0  0  0  0  0  0  0  0  0
   -7.8787   22.9801  -31.5684 H   0  0  0  0  0  0  0  0  0  0  0  0
    0.6090   21.9684  -33.9002 H   0  0  0  0  0  0  0  0  0  0  0  0
    2.4561   22.8795  -34.2690 H   0  0  0  0  0  0  0  0  0  0  0  0
    0.7066   22.7968  -36.9833 H   0  0  0  0  0  0  0  0  0  0  0  0
    0.1462   23.8845  -36.0228 H   0  0  0  0  0  0  0  0  0  0  0  0
    3.1124   23.7811  -37.3161 H   0  0  0  0  0  0  0  0  0  0  0  0
    2.9702   25.0401  -36.4134 H   0  0  0  0  0  0  0  0  0  0  0  0
  1  2  1  0
  2  3  2  0
  2  4  1  0
  4  5  2  0
  5  6  1  0
  6  7  2  0
  7  8  1  0
  8  9  2  0
  9 10  1  0
 10 11  1  0
 11 12  1  0
 12 13  1  0
 13 14  1  0
 14 15  1  0
 15 16  2  0
 15 17  1  0
 13 18  1  0
 18 19  1  0
 19 20  1  0
 19 21  1  0
 21 22  1  0
 22 23  1  0
 23 24  1  0
 24 25  2  0
 25 26  1  0
 26 27  2  0
 27 28  1  0
 27 29  1  0
 29 30  2  0
  9 31  1  0
 31 32  2  0
 32 33  1  0
 33 34  1  0
 34 35  2  0
 34 36  1  0
 36 37  1  0
 37 38  1  0
 33  4  1  0
 38 36  1  0
 32  6  1  0
 18 10  1  0
 23 21  1  0
 30 24  1  0
  1 39  1  0
  5 40  1  0
  7 41  1  0
  8 42  1  0
 11 43  1  0
 11 44  1  0
 12 45  1  0
 12 46  1  0
 13 47  1  1
 14 48  1  0
 18 49  1  1
 19 50  1  1
 20 51  1  0
 21 52  1  6
 22 53  1  0
 22 54  1  0
 23 55  1  6
 25 56  1  0
 29 57  1  0
 31 58  1  0
 36 59  1  0
 37 60  1  0
 37 61  1  0
 38 62  1  0
 38 63  1  0
M  CHG  2   1  -1  17  -1
M  END
>  <UniqueID>  (70) 
70

>  <SMILES>  (70) 
[NH-]C(=O)c1cc2ccc(N3CC[C@@H](NC(=O)[O-])[C@H]3[C@@H](O)[C@H]3C[C@H]3c3cnc(F)cn3)cc2n1C(=O)C1CC1

>  <Energy>  (70) 
663.2140963529846

>  <Genealogy>  (70) 
[NH-]C(=O)c1cc2ccc(N3CC[C@@H](NC(=O)[O-])C3[C@@H](O)[C@H]3C[C@H]3c3cnc(F)cn3)cc2n1C(=O)C1CC1 (protonated)
[NH-]C(=O)c1cc2ccc(N3CC[C@@H](NC(=O)[O-])[C@H]3[C@@H](O)[C@H]3C[C@H]3c3cnc(F)cn3)cc2n1C(=O)C1CC1 (chirality)
[NH-]C(=O)c1cc2ccc(N3CC[C@@H](NC(=O)[O-])[C@H]3[C@@H](O)[C@H]3C[C@H]3c3cnc(F)cn3)cc2n1C(=O)C1CC1 (3D coordinates assigned)
[NH-]C(=O)c1cc2ccc(N3CC[C@@H](NC(=O)[O-])[C@H]3[C@@H](O)[C@H]3C[C@H]3c3cnc(F)cn3)cc2n1C(=O)C1CC1 (nonaromatic ring conformer: 663.2140963529846 kcal/mol)

>  <smiles>  (70) 
NC(=O)c1cc2ccc(N3CC[C@@H](NC(=O)O)C3[C@@H](O)[C@H]3C[C@H]3c3cnc(F)cn3)cc2n1C(=O)C1CC1

>  <score_type>  (70) 
oracle

>  <origin>  (70) 
adg

>  <m_score__min__energy>  (70) 
-11.859999999999999

>  <m_primary>  (70) 
energy

$$$$
70:0
     RDKit          3D

 37 38  0  0  0  0  0  0  0  0999 V2000
   -4.4080   18.2200  -34.2420 C   0  0  0  0  0  0  0  0  0  0  0  0
   -5.2900   16.9830  -34.1080 C   0  0  0  0  0  0  0  0  0  0  0  0
   -5.7680   16.8530  -32.7720 O   0  0  0  0  0  0  0  0  0  0  0  0
   -6.6490   17.7640  -32.1780 C   0  0  0  0  0  0  0  0  0  0  0  0
   -6.7630   17.8300  -30.9240 O   0  0  0  0  0  0  0  0  0  0  0  0
   -7.4250   18.7040  -33.0440 C   0  0  0  0  0  0  0  0  0  0  0  0
   -7.4560   20.0670  -32.4120 C   0  0  0  0  0  0  0  0  0  0  0  0
   -8.6960   20.6670  -32.0810 C   0  0  0  0  0  0  0  0  0  0  0  0
   -8.7420   21.9630  -31.5390 C   0  0  0  0  0  0  0  0  0  0  0  0
   -7.5360   22.6310  -31.3430 C   0  0  0  0  0  0  0  0  0  0  0  0
   -7.2950   23.8990  -30.8670 C   0  0  0  0  0  0  0  0  0  0  0  0
   -5.9110   24.0500  -30.9050 C   0  0  0  0  0  0  0  0  0  0  0  0
   -5.2120   25.2500  -30.3980 C   0  0  0  0  0  0  0  0  0  0  0  0
   -3.9010   25.5820  -30.8490 N   0  0  0  0  0  0  0  0  0  0  0  0
   -5.7600   25.9650  -29.5180 O   0  0  0  0  0  0  0  0  0  0  0  0
   -5.3190   22.9230  -31.3930 N   0  0  0  0  0  0  0  0  0  0  0  0
   -3.9270   22.7050  -31.6690 C   0  0  0  0  0  0  0  0  0  0  0  0
   -3.0510   23.1560  -30.8820 O   0  0  0  0  0  0  0  0  0  0  0  0
   -3.5480   22.0140  -32.8240 O   0  0  0  0  0  0  0  0  0  0  0  0
   -2.5980   20.9550  -32.8080 C   0  0  0  0  0  0  0  0  0  0  0  0
   -6.3280   22.0620  -31.6510 C   0  0  0  0  0  0  0  0  0  0  0  0
   -6.2540   20.7800  -32.2100 C   0  0  0  0  0  0  0  0  0  0  0  0
   -4.1431   18.5916  -33.2411 H   0  0  0  0  0  0  0  0  0  0  0  0
   -3.4911   17.9589  -34.7908 H   0  0  0  0  0  0  0  0  0  0  0  0
   -4.9537   19.0017  -34.7908 H   0  0  0  0  0  0  0  0  0  0  0  0
   -6.1469   17.0736  -34.7918 H   0  0  0  0  0  0  0  0  0  0  0  0
   -4.6952   16.0930  -34.3611 H   0  0  0  0  0  0  0  0  0  0  0  0
   -6.9465   18.7701  -34.0323 H   0  0  0  0  0  0  0  0  0  0  0  0
   -8.4538   18.3310  -33.1557 H   0  0  0  0  0  0  0  0  0  0  0  0
   -9.6315   20.1134  -32.2498 H   0  0  0  0  0  0  0  0  0  0  0  0
   -9.7007   22.4349  -31.2778 H   0  0  0  0  0  0  0  0  0  0  0  0
   -8.0374   24.6367  -30.5284 H   0  0  0  0  0  0  0  0  0  0  0  0
   -3.0570   25.2670  -30.3220 H   0  0  0  0  0  0  0  0  0  0  0  0
   -2.3610   20.6908  -31.7668 H   0  0  0  0  0  0  0  0  0  0  0  0
   -3.0178   20.0780  -33.3224 H   0  0  0  0  0  0  0  0  0  0  0  0
   -1.6807   21.2775  -33.3224 H   0  0  0  0  0  0  0  0  0  0  0  0
   -5.2841   20.3397  -32.4847 H   0  0  0  0  0  0  0  0  0  0  0  0
  1  2  1  0
  2  3  1  0
  3  4  1  0
  4  5  2  0
  4  6  1  0
  6  7  1  0
  7  8  2  0
  8  9  1  0
  9 10  2  0
 10 11  1  0
 11 12  2  0
 12 13  1  0
 13 14  1  0
 13 15  2  0
 12 16  1  0
 16 17  1  0
 17 18  2  0
 17 19  1  0
 19 20  1  0
 16 21  1  0
 21 22  2  0
 22  7  1  0
 21 10  1  0
  1 23  1  0
  1 24  1  0
  1 25  1  0
  2 26  1  0
  2 27  1  0
  6 28  1  0
  6 29  1  0
  8 30  1  0
  9 31  1  0
 11 32  1  0
 14 33  1  0
 20 34  1  0
 20 35  1  0
 20 36  1  0
 22 37  1  0
M  CHG  1  14  -1
M  END
>  <UniqueID>  (71) 
71

>  <SMILES>  (71) 
CCOC(=O)Cc1ccc2cc(C([NH-])=O)n(C(=O)OC)c2c1

>  <Energy>  (71) 
67.92751502260498

>  <Genealogy>  (71) 
CCOC(=O)Cc1ccc2cc(C([NH-])=O)n(C(=O)OC)c2c1 (protonated)
CCOC(=O)Cc1ccc2cc(C([NH-])=O)n(C(=O)OC)c2c1 (3D coordinates assigned)
CCOC(=O)Cc1ccc2cc(C([NH-])=O)n(C(=O)OC)c2c1 (optimized conformer: 67.92751502260498 kcal/mol)

>  <smiles>  (71) 
CCOC(=O)Cc1ccc2cc(C(N)=O)n(C(=O)OC)c2c1

>  <score_type>  (71) 
oracle

>  <origin>  (71) 
adg

>  <m_score__min__energy>  (71) 
-9.6799999999999997

>  <m_primary>  (71) 
energy

$$$$
71:0
     RDKit          3D

 53 55  0  0  0  0  0  0  0  0999 V2000
   -2.3780   25.2980  -29.2420 N   0  0  0  0  0  0  0  0  0  0  0  0
   -2.8500   24.2930  -28.3480 C   0  0  0  0  0  0  0  0  0  0  0  0
   -3.8470   24.5390  -27.6170 O   0  0  0  0  0  0  0  0  0  0  0  0
   -2.2170   22.9580  -28.2960 C   0  0  0  0  0  0  0  0  0  0  0  0
   -1.8790   22.3130  -27.1070 C   0  0  0  0  0  0  0  0  0  0  0  0
   -1.3820   21.0860  -27.4860 C   0  0  0  0  0  0  0  0  0  0  0  0
   -0.8610   20.0520  -26.7130 C   0  0  0  0  0  0  0  0  0  0  0  0
   -0.3650   18.9180  -27.3780 C   0  0  0  0  0  0  0  0  0  0  0  0
   -0.4020   18.8370  -28.7930 C   0  0  0  0  0  0  0  0  0  0  0  0
    0.1650   17.6390  -29.5020 C   0  0  0  0  0  0  0  0  0  0  0  0
    1.2320   17.0020  -28.6690 C   0  0  0  0  0  0  0  0  0  0  0  0
    2.2640   17.6530  -28.3560 O   0  0  0  0  0  0  0  0  0  0  0  0
    1.1070   15.6750  -28.2750 O   0  0  0  0  0  0  0  0  0  0  0  0
   -0.9310   19.9090  -29.5430 C   0  0  0  0  0  0  0  0  0  0  0  0
   -1.4310   21.0200  -28.8540 C   0  0  0  0  0  0  0  0  0  0  0  0
   -1.9400   22.1600  -29.3660 N   0  0  0  0  0  0  0  0  0  0  0  0
   -2.0390   22.4790  -30.7610 C   0  0  0  0  0  0  0  0  0  0  0  0
   -1.1690   22.0520  -31.5680 O   0  0  0  0  0  0  0  0  0  0  0  0
   -3.1290   23.2810  -31.2290 N   0  0  0  0  0  0  0  0  0  0  0  0
   -4.4570   22.8100  -31.4980 C   0  0  0  0  0  0  0  0  0  0  0  0
   -4.6570   21.5060  -31.9880 C   0  0  0  0  0  0  0  0  0  0  0  0
   -5.9490   20.9960  -32.1700 C   0  0  0  0  0  0  0  0  0  0  0  0
   -6.1400   19.6530  -32.6580 N   0  0  0  0  0  0  0  0  0  0  0  0
   -6.6680   18.6180  -31.7550 C   0  0  0  0  0  0  0  0  0  0  0  0
   -7.9760   18.0380  -32.2910 C   0  0  0  0  0  0  0  0  0  0  0  0
   -9.2350   19.2960  -32.3900 Cl  0  0  0  0  0  0  0  0  0  0  0  0
   -5.8200   19.3260  -34.0570 C   0  0  0  0  0  0  0  0  0  0  0  0
   -4.7280   18.2590  -34.1410 C   0  0  0  0  0  0  0  0  0  0  0  0
   -3.1300   18.9560  -33.7630 Cl  0  0  0  0  0  0  0  0  0  0  0  0
   -7.0510   21.7960  -31.8530 C   0  0  0  0  0  0  0  0  0  0  0  0
   -6.8670   23.0850  -31.3510 C   0  0  0  0  0  0  0  0  0  0  0  0
   -5.5750   23.6090  -31.1630 C   0  0  0  0  0  0  0  0  0  0  0  0
   -5.4180   24.9440  -30.6400 N   0  0  0  0  0  0  0  0  0  0  0  0
   -6.3450   25.4850  -30.0010 O   0  0  0  0  0  0  0  0  0  0  0  0
   -4.2870   25.6830  -30.9040 O   0  0  0  0  0  0  0  0  0  0  0  0
   -2.6410   25.2840  -30.2530 H   0  0  0  0  0  0  0  0  0  0  0  0
   -1.9865   22.7017  -26.0836 H   0  0  0  0  0  0  0  0  0  0  0  0
   -0.8383   20.1207  -25.6154 H   0  0  0  0  0  0  0  0  0  0  0  0
    0.0559   18.0853  -26.7954 H   0  0  0  0  0  0  0  0  0  0  0  0
   -0.6386   16.9099  -29.6827 H   0  0  0  0  0  0  0  0  0  0  0  0
    0.6017   17.9618  -30.4586 H   0  0  0  0  0  0  0  0  0  0  0  0
   -0.9499   19.8723  -30.6422 H   0  0  0  0  0  0  0  0  0  0  0  0
   -3.7869   20.8786  -32.2314 H   0  0  0  0  0  0  0  0  0  0  0  0
   -5.9275   17.8098  -31.6624 H   0  0  0  0  0  0  0  0  0  0  0  0
   -6.8640   19.0759  -30.7742 H   0  0  0  0  0  0  0  0  0  0  0  0
   -7.8016   17.6230  -33.2947 H   0  0  0  0  0  0  0  0  0  0  0  0
   -8.3191   17.2501  -31.6043 H   0  0  0  0  0  0  0  0  0  0  0  0
   -6.7268   18.9509  -34.5540 H   0  0  0  0  0  0  0  0  0  0  0  0
   -5.4543   20.2376  -34.5523 H   0  0  0  0  0  0  0  0  0  0  0  0
   -4.9511   17.4574  -33.4215 H   0  0  0  0  0  0  0  0  0  0  0  0
   -4.7045   17.8588  -35.1653 H   0  0  0  0  0  0  0  0  0  0  0  0
   -8.0693   21.4069  -32.0002 H   0  0  0  0  0  0  0  0  0  0  0  0
   -7.7438   23.6995  -31.0989 H   0  0  0  0  0  0  0  0  0  0  0  0
  1  2  1  0
  2  3  2  0
  2  4  1  0
  4  5  2  0
  5  6  1  0
  6  7  2  0
  7  8  1  0
  8  9  2  0
  9 10  1  0
 10 11  1  0
 11 12  2  0
 11 13  1  0
  9 14  1  0
 14 15  2  0
 15 16  1  0
 16 17  1  0
 17 18  2  0
 17 19  1  0
 19 20  1  0
 20 21  2  0
 21 22  1  0
 22 23  1  0
 23 24  1  0
 24 25  1  0
 25 26  1  0
 23 27  1  0
 27 28  1  0
 28 29  1  0
 22 30  2  0
 30 31  1  0
 31 32  2  0
 32 33  1  0
 33 34  2  0
 33 35  1  0
 16  4  1  0
 32 20  1  0
 15  6  1  0
  1 36  1  0
  5 37  1  0
  7 38  1  0
  8 39  1  0
 10 40  1  0
 10 41  1  0
 14 42  1  0
 21 43  1  0
 24 44  1  0
 24 45  1  0
 25 46  1  0
 25 47  1  0
 27 48  1  0
 27 49  1  0
 28 50  1  0
 28 51  1  0
 30 52  1  0
 31 53  1  0
M  CHG  5   1  -1  13  -1  19  -1  33   1  35  -1
M  END
>  <UniqueID>  (72) 
72

>  <SMILES>  (72) 
[NH-]C(=O)c1cc2ccc(CC(=O)[O-])cc2n1C(=O)[N-]c1cc(N(CCCl)CCCl)ccc1[N+](=O)[O-]

>  <Energy>  (72) 
96.81568591941081

>  <Genealogy>  (72) 
[NH-]C(=O)c1cc2ccc(CC(=O)[O-])cc2n1C(=O)[N-]c1cc(N(CCCl)CCCl)ccc1[N+](=O)[O-] (protonated)
[NH-]C(=O)c1cc2ccc(CC(=O)[O-])cc2n1C(=O)[N-]c1cc(N(CCCl)CCCl)ccc1[N+](=O)[O-] (3D coordinates assigned)
[NH-]C(=O)c1cc2ccc(CC(=O)[O-])cc2n1C(=O)[N-]c1cc(N(CCCl)CCCl)ccc1[N+](=O)[O-] (optimized conformer: 96.81568591941081 kcal/mol)

>  <smiles>  (72) 
NC(=O)c1cc2ccc(CC(=O)O)cc2n1C(=O)Nc1cc(N(CCCl)CCCl)ccc1[N+](=O)[O-]

>  <score_type>  (72) 
oracle

>  <origin>  (72) 
adg

>  <m_score__min__energy>  (72) 
-12.93

>  <m_primary>  (72) 
energy

$$$$
72:0
     RDKit          3D

 38 40  0  0  0  0  0  0  0  0999 V2000
   -5.5230   26.5130  -30.3320 N   0  0  0  0  0  0  0  0  0  0  0  0
   -6.3620   25.4280  -29.9330 C   0  0  0  0  0  0  0  0  0  0  0  0
   -7.1680   25.5920  -28.9780 O   0  0  0  0  0  0  0  0  0  0  0  0
   -6.3490   24.1430  -30.6590 C   0  0  0  0  0  0  0  0  0  0  0  0
   -7.5060   23.4650  -31.0330 C   0  0  0  0  0  0  0  0  0  0  0  0
   -7.0690   22.3630  -31.7300 C   0  0  0  0  0  0  0  0  0  0  0  0
   -7.7970   21.3360  -32.3200 C   0  0  0  0  0  0  0  0  0  0  0  0
   -7.0850   20.2980  -32.9440 C   0  0  0  0  0  0  0  0  0  0  0  0
   -5.6680   20.2930  -32.9600 C   0  0  0  0  0  0  0  0  0  0  0  0
   -4.9850   19.1970  -33.6030 N   0  0  0  0  0  0  0  0  0  0  0  0
   -5.6440   18.1580  -34.4100 C   0  0  0  0  0  0  0  0  0  0  0  0
   -6.3380   17.1170  -33.5030 C   0  0  0  0  0  0  0  0  0  0  0  0
   -5.3740   15.9970  -33.0650 C   0  0  0  0  0  0  0  0  0  0  0  0
   -4.0300   16.4290  -33.1280 O   0  0  0  0  0  0  0  0  0  0  0  0
   -3.6320   16.5950  -34.4810 C   0  0  0  0  0  0  0  0  0  0  0  0
   -4.6180   17.4500  -35.3110 C   0  0  0  0  0  0  0  0  0  0  0  0
   -4.9630   21.3600  -32.3490 C   0  0  0  0  0  0  0  0  0  0  0  0
   -5.6980   22.3930  -31.7540 C   0  0  0  0  0  0  0  0  0  0  0  0
   -5.2390   23.4830  -31.0950 N   0  0  0  0  0  0  0  0  0  0  0  0
   -3.8670   23.8020  -30.8130 C   0  0  0  0  0  0  0  0  0  0  0  0
   -2.9850   22.9020  -30.8460 O   0  0  0  0  0  0  0  0  0  0  0  0
   -3.4940   25.1030  -30.5000 O   0  0  0  0  0  0  0  0  0  0  0  0
   -5.5160   27.4010  -29.7830 H   0  0  0  0  0  0  0  0  0  0  0  0
   -4.9710   26.4700  -31.2180 H   0  0  0  0  0  0  0  0  0  0  0  0
   -8.5464   23.7497  -30.8173 H   0  0  0  0  0  0  0  0  0  0  0  0
   -8.8968   21.3361  -32.2989 H   0  0  0  0  0  0  0  0  0  0  0  0
   -7.6354   19.4773  -33.4272 H   0  0  0  0  0  0  0  0  0  0  0  0
   -3.9450   19.1490  -33.4920 H   0  0  0  0  0  0  0  0  0  0  0  0
   -6.4041   18.6464  -35.0374 H   0  0  0  0  0  0  0  0  0  0  0  0
   -6.7208   17.6265  -32.6064 H   0  0  0  0  0  0  0  0  0  0  0  0
   -7.1543   16.6561  -34.0786 H   0  0  0  0  0  0  0  0  0  0  0  0
   -5.6092   15.7045  -32.0310 H   0  0  0  0  0  0  0  0  0  0  0  0
   -5.4986   15.1425  -33.7464 H   0  0  0  0  0  0  0  0  0  0  0  0
   -2.6471   17.0845  -34.4971 H   0  0  0  0  0  0  0  0  0  0  0  0
   -3.6066   15.5943  -34.9370 H   0  0  0  0  0  0  0  0  0  0  0  0
   -4.0506   18.2078  -35.8711 H   0  0  0  0  0  0  0  0  0  0  0  0
   -5.1616   16.7833  -35.9965 H   0  0  0  0  0  0  0  0  0  0  0  0
   -3.8631   21.3764  -32.3423 H   0  0  0  0  0  0  0  0  0  0  0  0
  1  2  1  0
  2  3  2  0
  2  4  1  0
  4  5  2  0
  5  6  1  0
  6  7  2  0
  7  8  1  0
  8  9  2  0
  9 10  1  0
 10 11  1  0
 11 12  1  0
 12 13  1  0
 13 14  1  0
 14 15  1  0
 15 16  1  0
  9 17  1  0
 17 18  2  0
 18 19  1  0
 19 20  1  0
 20 21  2  0
 20 22  1  0
 19  4  1  0
 18  6  1  0
 16 11  1  0
  1 23  1  0
  1 24  1  0
  5 25  1  0
  7 26  1  0
  8 27  1  0
 10 28  1  0
 11 29  1  0
 12 30  1  0
 12 31  1  0
 13 32  1  0
 13 33  1  0
 15 34  1  0
 15 35  1  0
 16 36  1  0
 16 37  1  0
 17 38  1  0
M  CHG  1  22  -1
M  END
>  <UniqueID>  (73) 
73

>  <SMILES>  (73) 
NC(=O)c1cc2ccc(NC3CCOCC3)cc2n1C(=O)[O-]

>  <Energy>  (73) 
86.79737052130189

>  <Genealogy>  (73) 
NC(=O)c1cc2ccc(NC3CCOCC3)cc2n1C(=O)[O-] (protonated)
NC(=O)c1cc2ccc(NC3CCOCC3)cc2n1C(=O)[O-] (3D coordinates assigned)
NC(=O)c1cc2ccc(NC3CCOCC3)cc2n1C(=O)[O-] (nonaromatic ring conformer: 86.79737052130189 kcal/mol)

>  <smiles>  (73) 
NC(=O)c1cc2ccc(NC3CCOCC3)cc2n1C(=O)O

>  <score_type>  (73) 
oracle

>  <origin>  (73) 
adg

>  <m_score__min__energy>  (73) 
-9.3300000000000001

>  <m_primary>  (73) 
energy

$$$$
73:0
     RDKit          3D

 45 46  0  0  0  0  0  0  0  0999 V2000
   -6.2700   25.0580  -29.7000 C   0  0  0  0  0  0  0  0  0  0  0  0
   -5.3470   23.8900  -30.0940 C   0  0  0  0  0  0  0  0  0  0  0  0
   -5.0060   23.0780  -28.8300 C   0  0  0  0  0  0  0  0  0  0  0  0
   -4.0800   24.4130  -30.7370 C   0  0  0  0  0  0  0  0  0  0  0  0
   -3.8670   25.6530  -30.8120 O   0  0  0  0  0  0  0  0  0  0  0  0
   -3.0970   23.5360  -31.1830 O   0  0  0  0  0  0  0  0  0  0  0  0
   -6.2310   22.7720  -31.3460 Si  0  0  0  0  0  4  0  0  0  0  0  0
   -7.5390   21.7270  -30.5140 C   0  0  0  0  0  0  0  0  0  0  0  0
   -7.0440   23.7940  -32.6830 C   0  0  0  0  0  0  0  0  0  0  0  0
   -5.0230   21.6650  -32.1290 C   0  0  0  0  0  0  0  0  0  0  0  0
   -4.2140   20.9350  -32.6440 C   0  0  0  0  0  0  0  0  0  0  0  0
   -3.2460   20.0650  -33.2550 C   0  0  0  0  0  0  0  0  0  0  0  0
   -3.4210   18.6630  -33.1960 C   0  0  0  0  0  0  0  0  0  0  0  0
   -2.4750   17.8030  -33.7800 C   0  0  0  0  0  0  0  0  0  0  0  0
   -1.3780   18.3770  -34.4180 C   0  0  0  0  0  0  0  0  0  0  0  0
   -0.3090   17.7830  -35.0500 C   0  0  0  0  0  0  0  0  0  0  0  0
    0.4870   18.8360  -35.4970 C   0  0  0  0  0  0  0  0  0  0  0  0
    1.7030   18.6500  -36.3150 C   0  0  0  0  0  0  0  0  0  0  0  0
    1.7420   19.1450  -37.6520 N   0  0  0  0  0  0  0  0  0  0  0  0
    2.7230   18.0870  -35.8360 O   0  0  0  0  0  0  0  0  0  0  0  0
   -0.0640   20.0320  -35.1480 N   0  0  0  0  0  0  0  0  0  0  0  0
    0.4690   21.3480  -35.3660 C   0  0  0  0  0  0  0  0  0  0  0  0
    1.3850   21.5900  -36.4330 N   0  0  0  0  0  0  0  0  0  0  0  0
    0.1550   22.2910  -34.5900 O   0  0  0  0  0  0  0  0  0  0  0  0
   -1.2070   19.7350  -34.4930 C   0  0  0  0  0  0  0  0  0  0  0  0
   -2.1250   20.6150  -33.9080 C   0  0  0  0  0  0  0  0  0  0  0  0
   -6.3253   25.1279  -28.6036 H   0  0  0  0  0  0  0  0  0  0  0  0
   -5.8674   25.9971  -30.1075 H   0  0  0  0  0  0  0  0  0  0  0  0
   -7.2767   24.8833  -30.1075 H   0  0  0  0  0  0  0  0  0  0  0  0
   -5.2543   23.6693  -27.9363 H   0  0  0  0  0  0  0  0  0  0  0  0
   -5.5882   22.1447  -28.8256 H   0  0  0  0  0  0  0  0  0  0  0  0
   -3.9320   22.8402  -28.8256 H   0  0  0  0  0  0  0  0  0  0  0  0
   -7.4349   21.8101  -29.4221 H   0  0  0  0  0  0  0  0  0  0  0  0
   -8.5364   22.0797  -30.8152 H   0  0  0  0  0  0  0  0  0  0  0  0
   -7.4152   20.6763  -30.8152 H   0  0  0  0  0  0  0  0  0  0  0  0
   -7.6654   24.5751  -32.2206 H   0  0  0  0  0  0  0  0  0  0  0  0
   -6.2697   24.2633  -33.3076 H   0  0  0  0  0  0  0  0  0  0  0  0
   -7.6754   23.1451  -33.3076 H   0  0  0  0  0  0  0  0  0  0  0  0
   -4.3028   18.2429  -32.6900 H   0  0  0  0  0  0  0  0  0  0  0  0
   -2.5972   16.7108  -33.7346 H   0  0  0  0  0  0  0  0  0  0  0  0
   -0.1227   16.7062  -35.1755 H   0  0  0  0  0  0  0  0  0  0  0  0
    1.0600   19.8640  -37.9790 H   0  0  0  0  0  0  0  0  0  0  0  0
    1.7610   22.5490  -36.5990 H   0  0  0  0  0  0  0  0  0  0  0  0
    1.7190   20.8050  -37.0340 H   0  0  0  0  0  0  0  0  0  0  0  0
   -1.9757   21.7037  -33.9566 H   0  0  0  0  0  0  0  0  0  0  0  0
  1  2  1  0
  2  3  1  0
  2  4  1  0
  4  5  2  0
  4  6  1  0
  2  7  1  0
  7  8  1  0
  7  9  1  0
  7 10  1  0
 10 11  3  0
 11 12  1  0
 12 13  2  0
 13 14  1  0
 14 15  2  0
 15 16  1  0
 16 17  2  0
 17 18  1  0
 18 19  1  0
 18 20  2  0
 17 21  1  0
 21 22  1  0
 22 23  1  0
 22 24  2  0
 21 25  1  0
 25 26  2  0
 26 12  1  0
 25 15  1  0
  1 27  1  0
  1 28  1  0
  1 29  1  0
  3 30  1  0
  3 31  1  0
  3 32  1  0
  8 33  1  0
  8 34  1  0
  8 35  1  0
  9 36  1  0
  9 37  1  0
  9 38  1  0
 13 39  1  0
 14 40  1  0
 16 41  1  0
 19 42  1  0
 23 43  1  0
 23 44  1  0
 26 45  1  0
M  CHG  2   6  -1  19  -1
M  END
>  <UniqueID>  (74) 
74

>  <SMILES>  (74) 
CC(C)(C(=O)[O-])[Si](C)(C)C#Cc1ccc2cc(C([NH-])=O)n(C(N)=O)c2c1

>  <Energy>  (74) 
63.76271050128611

>  <Genealogy>  (74) 
CC(C)(C(=O)[O-])[Si](C)(C)C#Cc1ccc2cc(C([NH-])=O)n(C(N)=O)c2c1 (protonated)
CC(C)(C(=O)[O-])[Si](C)(C)C#Cc1ccc2cc(C([NH-])=O)n(C(N)=O)c2c1 (3D coordinates assigned)
CC(C)(C(=O)[O-])[Si](C)(C)C#Cc1ccc2cc(C([NH-])=O)n(C(N)=O)c2c1 (optimized conformer: 63.76271050128611 kcal/mol)

>  <smiles>  (74) 
CC(C)(C(=O)O)[Si](C)(C)C#Cc1ccc2cc(C(N)=O)n(C(N)=O)c2c1

>  <score_type>  (74) 
oracle

>  <origin>  (74) 
adg

>  <m_score__min__energy>  (74) 
-10.19

>  <m_primary>  (74) 
energy

$$$$
74:0
     RDKit          3D

 45 47  0  0  0  0  0  0  0  0999 V2000
   -5.7290   17.8550  -34.8020 C   0  0  0  0  0  0  0  0  0  0  0  0
   -5.3410   18.1180  -33.4090 N   0  0  0  0  0  0  0  0  0  0  0  0
   -6.3570   17.9140  -32.3880 C   0  0  0  0  0  0  0  0  0  0  0  0
   -6.0530   17.2670  -31.3470 O   0  0  0  0  0  0  0  0  0  0  0  0
   -7.7340   18.5390  -32.4520 C   0  0  0  0  0  0  0  0  0  0  0  0
   -7.7050   19.9970  -32.0720 C   0  0  0  0  0  0  0  0  0  0  0  0
   -8.8940   20.7690  -32.1160 C   0  0  0  0  0  0  0  0  0  0  0  0
   -8.8750   22.1350  -31.7880 C   0  0  0  0  0  0  0  0  0  0  0  0
   -7.6570   22.6990  -31.4200 C   0  0  0  0  0  0  0  0  0  0  0  0
   -7.3530   23.9950  -31.0710 C   0  0  0  0  0  0  0  0  0  0  0  0
   -5.9830   23.9960  -30.8070 C   0  0  0  0  0  0  0  0  0  0  0  0
   -5.2530   25.1780  -30.3060 C   0  0  0  0  0  0  0  0  0  0  0  0
   -3.8540   25.3070  -30.5570 N   0  0  0  0  0  0  0  0  0  0  0  0
   -5.8570   26.0980  -29.6940 O   0  0  0  0  0  0  0  0  0  0  0  0
   -5.4590   22.7500  -30.9960 N   0  0  0  0  0  0  0  0  0  0  0  0
   -4.0840   22.3450  -30.8930 C   0  0  0  0  0  0  0  0  0  0  0  0
   -3.2010   22.9050  -31.5930 O   0  0  0  0  0  0  0  0  0  0  0  0
   -3.7190   21.3110  -30.0390 O   0  0  0  0  0  0  0  0  0  0  0  0
   -6.4990   21.9680  -31.3670 C   0  0  0  0  0  0  0  0  0  0  0  0
   -6.4860   20.6100  -31.7070 C   0  0  0  0  0  0  0  0  0  0  0  0
   -3.9740   18.6220  -33.1360 C   0  0  0  0  0  0  0  0  0  0  0  0
   -2.8860   17.7240  -33.7740 C   0  0  0  0  0  0  0  0  0  0  0  0
   -1.6570   18.5370  -34.1890 C   0  0  0  0  0  0  0  0  0  0  0  0
   -1.4330   19.5790  -33.2620 O   0  0  0  0  0  0  0  0  0  0  0  0
   -2.3750   20.6160  -33.4690 C   0  0  0  0  0  0  0  0  0  0  0  0
   -3.8440   20.1270  -33.4640 C   0  0  0  0  0  0  0  0  0  0  0  0
   -6.6394   17.2379  -34.8188 H   0  0  0  0  0  0  0  0  0  0  0  0
   -5.9229   18.8086  -35.3149 H   0  0  0  0  0  0  0  0  0  0  0  0
   -4.9150   17.3217  -35.3149 H   0  0  0  0  0  0  0  0  0  0  0  0
   -8.1199   18.4460  -33.4779 H   0  0  0  0  0  0  0  0  0  0  0  0
   -8.3823   18.0120  -31.7365 H   0  0  0  0  0  0  0  0  0  0  0  0
   -9.8411   20.2931  -32.4101 H   0  0  0  0  0  0  0  0  0  0  0  0
   -9.7935   22.7394  -31.8210 H   0  0  0  0  0  0  0  0  0  0  0  0
   -8.0437   24.8491  -31.0126 H   0  0  0  0  0  0  0  0  0  0  0  0
   -3.4920   26.0220  -31.2250 H   0  0  0  0  0  0  0  0  0  0  0  0
   -5.5489   20.0342  -31.6903 H   0  0  0  0  0  0  0  0  0  0  0  0
   -3.7927   18.5502  -32.0534 H   0  0  0  0  0  0  0  0  0  0  0  0
   -2.5793   16.9609  -33.0435 H   0  0  0  0  0  0  0  0  0  0  0  0
   -3.3101   17.2569  -34.6751 H   0  0  0  0  0  0  0  0  0  0  0  0
   -0.7765   17.8782  -34.2167 H   0  0  0  0  0  0  0  0  0  0  0  0
   -1.8295   18.9702  -35.1853 H   0  0  0  0  0  0  0  0  0  0  0  0
   -2.2536   21.3613  -32.6691 H   0  0  0  0  0  0  0  0  0  0  0  0
   -2.1780   21.0374  -34.4658 H   0  0  0  0  0  0  0  0  0  0  0  0
   -4.4026   20.7005  -32.7096 H   0  0  0  0  0  0  0  0  0  0  0  0
   -4.2475   20.2812  -34.4756 H   0  0  0  0  0  0  0  0  0  0  0  0
  1  2  1  0
  2  3  1  0
  3  4  2  0
  3  5  1  0
  5  6  1  0
  6  7  2  0
  7  8  1  0
  8  9  2  0
  9 10  1  0
 10 11  2  0
 11 12  1  0
 12 13  1  0
 12 14  2  0
 11 15  1  0
 15 16  1  0
 16 17  2  0
 16 18  1  0
 15 19  1  0
 19 20  2  0
  2 21  1  0
 21 22  1  0
 22 23  1  0
 23 24  1  0
 24 25  1  0
 25 26  1  0
 20  6  1  0
 26 21  1  0
 19  9  1  0
  1 27  1  0
  1 28  1  0
  1 29  1  0
  5 30  1  0
  5 31  1  0
  7 32  1  0
  8 33  1  0
 10 34  1  0
 13 35  1  0
 20 36  1  0
 21 37  1  0
 22 38  1  0
 22 39  1  0
 23 40  1  0
 23 41  1  0
 25 42  1  0
 25 43  1  0
 26 44  1  0
 26 45  1  0
M  CHG  2  13  -1  18  -1
M  END
>  <UniqueID>  (75) 
75

>  <SMILES>  (75) 
CN(C(=O)Cc1ccc2cc(C([NH-])=O)n(C(=O)[O-])c2c1)C1CCOCC1

>  <Energy>  (75) 
96.55763347740104

>  <Genealogy>  (75) 
CN(C(=O)Cc1ccc2cc(C([NH-])=O)n(C(=O)[O-])c2c1)C1CCOCC1 (protonated)
CN(C(=O)Cc1ccc2cc(C([NH-])=O)n(C(=O)[O-])c2c1)C1CCOCC1 (3D coordinates assigned)
CN(C(=O)Cc1ccc2cc(C([NH-])=O)n(C(=O)[O-])c2c1)C1CCOCC1 (nonaromatic ring conformer: 96.55763347740104 kcal/mol)

>  <smiles>  (75) 
CN(C(=O)Cc1ccc2cc(C(N)=O)n(C(=O)O)c2c1)C1CCOCC1

>  <score_type>  (75) 
oracle

>  <origin>  (75) 
adg

>  <m_score__min__energy>  (75) 
-12.5

>  <m_primary>  (75) 
energy

$$$$
75:0
     RDKit          3D

 39 41  0  0  0  0  0  0  0  0999 V2000
   -8.3390   23.0140  -31.9140 C   0  0  0  0  0  0  0  0  0  0  0  0
   -8.2050   21.5290  -32.0120 C   0  0  0  0  0  0  0  0  0  0  0  0
   -9.2910   20.6970  -31.7060 C   0  0  0  0  0  0  0  0  0  0  0  0
   -9.1490   19.3140  -31.8300 C   0  0  0  0  0  0  0  0  0  0  0  0
   -7.9360   18.7750  -32.2580 C   0  0  0  0  0  0  0  0  0  0  0  0
   -6.8680   19.6340  -32.5570 C   0  0  0  0  0  0  0  0  0  0  0  0
   -5.5630   19.0900  -33.0770 C   0  0  0  0  0  0  0  0  0  0  0  0
   -4.7870   20.1210  -33.7840 N   0  0  0  0  0  0  0  0  0  0  0  0
   -3.7420   20.6600  -32.9450 C   0  0  0  0  0  0  0  0  0  0  0  0
   -2.4870   20.0020  -32.8550 C   0  0  0  0  0  0  0  0  0  0  0  0
   -1.4740   20.5000  -32.0200 C   0  0  0  0  0  0  0  0  0  0  0  0
   -1.7450   21.6470  -31.2790 C   0  0  0  0  0  0  0  0  0  0  0  0
   -0.9400   22.3490  -30.4110 C   0  0  0  0  0  0  0  0  0  0  0  0
   -1.7220   23.4090  -29.9590 C   0  0  0  0  0  0  0  0  0  0  0  0
   -1.2660   24.3710  -28.9330 C   0  0  0  0  0  0  0  0  0  0  0  0
   -1.7110   25.7250  -28.9490 N   0  0  0  0  0  0  0  0  0  0  0  0
   -0.5130   23.9800  -28.0020 O   0  0  0  0  0  0  0  0  0  0  0  0
   -2.9580   23.3710  -30.5320 N   0  0  0  0  0  0  0  0  0  0  0  0
   -4.0250   24.3230  -30.3940 C   0  0  0  0  0  0  0  0  0  0  0  0
   -3.8710   25.5120  -30.7810 O   0  0  0  0  0  0  0  0  0  0  0  0
   -5.2470   23.9370  -29.8570 O   0  0  0  0  0  0  0  0  0  0  0  0
   -2.9570   22.2840  -31.3350 C   0  0  0  0  0  0  0  0  0  0  0  0
   -3.9780   21.8210  -32.1740 C   0  0  0  0  0  0  0  0  0  0  0  0
   -7.0340   20.9800  -32.4370 N   0  0  0  0  0  0  0  0  0  0  0  0
   -8.3658   23.3106  -30.8551 H   0  0  0  0  0  0  0  0  0  0  0  0
   -7.4804   23.4930  -32.4074 H   0  0  0  0  0  0  0  0  0  0  0  0
   -9.2694   23.3316  -32.4074 H   0  0  0  0  0  0  0  0  0  0  0  0
  -10.2454   21.1297  -31.3715 H   0  0  0  0  0  0  0  0  0  0  0  0
   -9.9927   18.6501  -31.5905 H   0  0  0  0  0  0  0  0  0  0  0  0
   -7.8178   17.6862  -32.3602 H   0  0  0  0  0  0  0  0  0  0  0  0
   -4.9698   18.7158  -32.2296 H   0  0  0  0  0  0  0  0  0  0  0  0
   -5.7875   18.2816  -33.7884 H   0  0  0  0  0  0  0  0  0  0  0  0
   -5.4340   20.8960  -34.0620 H   0  0  0  0  0  0  0  0  0  0  0  0
   -4.3850   19.7220  -34.6640 H   0  0  0  0  0  0  0  0  0  0  0  0
   -2.3064   19.0920  -33.4460 H   0  0  0  0  0  0  0  0  0  0  0  0
   -0.4967   19.9995  -31.9534 H   0  0  0  0  0  0  0  0  0  0  0  0
    0.0997   22.1213  -30.1334 H   0  0  0  0  0  0  0  0  0  0  0  0
   -2.7290   25.9570  -28.9650 H   0  0  0  0  0  0  0  0  0  0  0  0
   -4.9415   22.3486  -32.2318 H   0  0  0  0  0  0  0  0  0  0  0  0
  1  2  1  0
  2  3  2  0
  3  4  1  0
  4  5  2  0
  5  6  1  0
  6  7  1  0
  7  8  1  0
  8  9  1  0
  9 10  2  0
 10 11  1  0
 11 12  2  0
 12 13  1  0
 13 14  2  0
 14 15  1  0
 15 16  1  0
 15 17  2  0
 14 18  1  0
 18 19  1  0
 19 20  2  0
 19 21  1  0
 18 22  1  0
 22 23  2  0
  6 24  2  0
 24  2  1  0
 23  9  1  0
 22 12  1  0
  1 25  1  0
  1 26  1  0
  1 27  1  0
  3 28  1  0
  4 29  1  0
  5 30  1  0
  7 31  1  0
  7 32  1  0
  8 33  1  0
  8 34  1  0
 10 35  1  0
 11 36  1  0
 13 37  1  0
 16 38  1  0
 23 39  1  0
M  CHG  3   8   1  16  -1  21  -1
M  END
>  <UniqueID>  (76) 
76

>  <SMILES>  (76) 
Cc1cccc(C[NH2+]c2ccc3cc(C([NH-])=O)n(C(=O)[O-])c3c2)n1

>  <Energy>  (76) 
80.3551392614316

>  <Genealogy>  (76) 
Cc1cccc(C[NH2+]c2ccc3cc(C([NH-])=O)n(C(=O)[O-])c3c2)n1 (protonated)
Cc1cccc(C[NH2+]c2ccc3cc(C([NH-])=O)n(C(=O)[O-])c3c2)n1 (3D coordinates assigned)
Cc1cccc(C[NH2+]c2ccc3cc(C([NH-])=O)n(C(=O)[O-])c3c2)n1 (optimized conformer: 80.3551392614316 kcal/mol)

>  <smiles>  (76) 
Cc1cccc(CNc2ccc3cc(C(N)=O)n(C(=O)O)c3c2)n1

>  <score_type>  (76) 
oracle

>  <origin>  (76) 
adg

>  <m_score__min__energy>  (76) 
-11.779999999999999

>  <m_primary>  (76) 
energy

$$$$
76:0
     RDKit          3D

 32 33  0  0  0  0  0  0  0  0999 V2000
   -4.1290   23.0850  -27.9810 C   0  0  0  0  0  0  0  0  0  0  0  0
   -3.2070   22.0060  -28.5250 C   0  0  0  0  0  0  0  0  0  0  0  0
   -3.6550   21.6040  -29.8150 O   0  0  0  0  0  0  0  0  0  0  0  0
   -4.0450   22.5160  -30.7990 C   0  0  0  0  0  0  0  0  0  0  0  0
   -3.1750   23.1420  -31.4640 O   0  0  0  0  0  0  0  0  0  0  0  0
   -5.4420   22.7450  -31.0500 N   0  0  0  0  0  0  0  0  0  0  0  0
   -6.1600   23.8710  -30.7790 C   0  0  0  0  0  0  0  0  0  0  0  0
   -5.6090   25.1580  -30.3100 C   0  0  0  0  0  0  0  0  0  0  0  0
   -4.2540   25.5230  -30.5770 N   0  0  0  0  0  0  0  0  0  0  0  0
   -6.3620   25.9720  -29.7130 O   0  0  0  0  0  0  0  0  0  0  0  0
   -7.5100   23.6700  -31.0500 C   0  0  0  0  0  0  0  0  0  0  0  0
   -7.6000   22.3790  -31.5170 C   0  0  0  0  0  0  0  0  0  0  0  0
   -8.7150   21.6490  -31.9160 C   0  0  0  0  0  0  0  0  0  0  0  0
   -8.5210   20.3150  -32.3120 C   0  0  0  0  0  0  0  0  0  0  0  0
   -7.2260   19.7410  -32.3040 C   0  0  0  0  0  0  0  0  0  0  0  0
   -7.0410   18.3010  -32.6760 C   0  0  0  0  0  0  0  0  0  0  0  0
   -6.1200   20.5070  -31.8740 C   0  0  0  0  0  0  0  0  0  0  0  0
   -6.3380   21.8400  -31.5050 C   0  0  0  0  0  0  0  0  0  0  0  0
   -4.1103   23.0631  -26.8814 H   0  0  0  0  0  0  0  0  0  0  0  0
   -3.7892   24.0699  -28.3340 H   0  0  0  0  0  0  0  0  0  0  0  0
   -5.1548   22.9029  -28.3340 H   0  0  0  0  0  0  0  0  0  0  0  0
   -2.1834   22.4019  -28.5994 H   0  0  0  0  0  0  0  0  0  0  0  0
   -3.2172   21.1396  -27.8473 H   0  0  0  0  0  0  0  0  0  0  0  0
   -3.6560   24.9500  -31.2140 H   0  0  0  0  0  0  0  0  0  0  0  0
   -3.8700   26.4200  -30.2050 H   0  0  0  0  0  0  0  0  0  0  0  0
   -8.3309   24.3903  -30.9187 H   0  0  0  0  0  0  0  0  0  0  0  0
   -9.7173   22.1021  -31.9213 H   0  0  0  0  0  0  0  0  0  0  0  0
   -9.3829   19.7106  -32.6313 H   0  0  0  0  0  0  0  0  0  0  0  0
   -6.9629   17.6934  -31.7624 H   0  0  0  0  0  0  0  0  0  0  0  0
   -7.9030   17.9619  -33.2693 H   0  0  0  0  0  0  0  0  0  0  0  0
   -6.1213   18.1908  -33.2693 H   0  0  0  0  0  0  0  0  0  0  0  0
   -5.1126   20.0674  -31.8301 H   0  0  0  0  0  0  0  0  0  0  0  0
  1  2  1  0
  2  3  1  0
  3  4  1  0
  4  5  2  0
  4  6  1  0
  6  7  1  0
  7  8  1  0
  8  9  1  0
  8 10  2  0
  7 11  2  0
 11 12  1  0
 12 13  2  0
 13 14  1  0
 14 15  2  0
 15 16  1  0
 15 17  1  0
 17 18  2  0
 18  6  1  0
 18 12  1  0
  1 19  1  0
  1 20  1  0
  1 21  1  0
  2 22  1  0
  2 23  1  0
  9 24  1  0
  9 25  1  0
 11 26  1  0
 13 27  1  0
 14 28  1  0
 16 29  1  0
 16 30  1  0
 16 31  1  0
 17 32  1  0
M  END
>  <UniqueID>  (77) 
77

>  <SMILES>  (77) 
CCOC(=O)n1c(C(N)=O)cc2ccc(C)cc21

>  <Energy>  (77) 
65.77166833054122

>  <Genealogy>  (77) 
CCOC(=O)n1c(C(N)=O)cc2ccc(C)cc21 (3D coordinates assigned)
CCOC(=O)n1c(C(N)=O)cc2ccc(C)cc21 (optimized conformer: 65.77166833054122 kcal/mol)

>  <smiles>  (77) 
CCOC(=O)n1c(C(N)=O)cc2ccc(C)cc21

>  <score_type>  (77) 
oracle

>  <origin>  (77) 
adg

>  <m_score__min__energy>  (77) 
-7.8499999999999996

>  <m_primary>  (77) 
energy

$$$$
77:0
     RDKit          3D

 27 29  0  0  0  0  0  0  0  0999 V2000
   -6.0810   24.9080  -29.1540 N   0  0  0  0  0  0  0  0  0  0  0  0
   -6.4140   23.6840  -29.8080 C   0  0  0  0  0  0  0  0  0  0  0  0
   -7.5510   23.1730  -29.6230 O   0  0  0  0  0  0  0  0  0  0  0  0
   -5.4280   22.9710  -30.6460 C   0  0  0  0  0  0  0  0  0  0  0  0
   -5.7120   21.7880  -31.3210 C   0  0  0  0  0  0  0  0  0  0  0  0
   -4.5300   21.4210  -31.9220 C   0  0  0  0  0  0  0  0  0  0  0  0
   -4.2430   20.3290  -32.7340 C   0  0  0  0  0  0  0  0  0  0  0  0
   -2.9430   20.2170  -33.2540 C   0  0  0  0  0  0  0  0  0  0  0  0
   -1.9590   21.1970  -32.9650 C   0  0  0  0  0  0  0  0  0  0  0  0
   -0.5990   21.0750  -33.5300 C   0  0  0  0  0  0  0  0  0  0  0  0
   -0.0900   21.9200  -34.4520 N   0  0  0  0  0  0  0  0  0  0  0  0
    1.1090   21.4810  -34.6870 O   0  0  0  0  0  0  0  0  0  0  0  0
    1.3290   20.4240  -33.9510 C   0  0  0  0  0  0  0  0  0  0  0  0
    2.4080   19.7750  -33.9610 O   0  0  0  0  0  0  0  0  0  0  0  0
    0.2750   20.1020  -33.1810 N   0  0  0  0  0  0  0  0  0  0  0  0
   -2.2910   22.2950  -32.1370 C   0  0  0  0  0  0  0  0  0  0  0  0
   -3.5880   22.3700  -31.6130 C   0  0  0  0  0  0  0  0  0  0  0  0
   -4.1260   23.3320  -30.8300 N   0  0  0  0  0  0  0  0  0  0  0  0
   -3.4850   24.5430  -30.3920 C   0  0  0  0  0  0  0  0  0  0  0  0
   -3.8680   25.6590  -30.8290 O   0  0  0  0  0  0  0  0  0  0  0  0
   -2.4350   24.4940  -29.4830 O   0  0  0  0  0  0  0  0  0  0  0  0
   -5.1010   25.2670  -29.1490 H   0  0  0  0  0  0  0  0  0  0  0  0
   -6.8020   25.4180  -28.5970 H   0  0  0  0  0  0  0  0  0  0  0  0
   -6.6755   21.2592  -31.3648 H   0  0  0  0  0  0  0  0  0  0  0  0
   -5.0112   19.5755  -32.9622 H   0  0  0  0  0  0  0  0  0  0  0  0
   -2.6850   19.3594  -33.8927 H   0  0  0  0  0  0  0  0  0  0  0  0
   -1.5471   23.0727  -31.9097 H   0  0  0  0  0  0  0  0  0  0  0  0
  1  2  1  0
  2  3  2  0
  2  4  1  0
  4  5  2  0
  5  6  1  0
  6  7  2  0
  7  8  1  0
  8  9  2  0
  9 10  1  0
 10 11  2  0
 11 12  1  0
 12 13  1  0
 13 14  2  0
 13 15  1  0
  9 16  1  0
 16 17  2  0
 17 18  1  0
 18 19  1  0
 19 20  2  0
 19 21  1  0
 18  4  1  0
 17  6  1  0
 15 10  1  0
  1 22  1  0
  1 23  1  0
  5 24  1  0
  7 25  1  0
  8 26  1  0
 16 27  1  0
M  CHG  2  15  -1  21  -1
M  END
>  <UniqueID>  (78) 
78

>  <SMILES>  (78) 
NC(=O)c1cc2ccc(-c3noc(=O)[n-]3)cc2n1C(=O)[O-]

>  <Energy>  (78) 
104.56918990197654

>  <Genealogy>  (78) 
NC(=O)c1cc2ccc(-c3noc(=O)[n-]3)cc2n1C(=O)[O-] (protonated)
NC(=O)c1cc2ccc(-c3noc(=O)[n-]3)cc2n1C(=O)[O-] (3D coordinates assigned)
NC(=O)c1cc2ccc(-c3noc(=O)[n-]3)cc2n1C(=O)[O-] (optimized conformer: 104.56918990197654 kcal/mol)

>  <smiles>  (78) 
NC(=O)c1cc2ccc(-c3noc(=O)[nH]3)cc2n1C(=O)O

>  <score_type>  (78) 
oracle

>  <origin>  (78) 
adg

>  <m_score__min__energy>  (78) 
-8.6899999999999995

>  <m_primary>  (78) 
energy

$$$$
78:0
     RDKit          3D

 44 45  0  0  0  0  0  0  0  0999 V2000
   -9.5110   20.3980  -32.3870 C   0  0  0  0  0  0  0  0  0  0  0  0
   -8.7420   20.8650  -31.1510 C   0  0  0  0  0  0  0  0  0  0  0  0
   -7.8960   22.1180  -31.4310 C   0  0  1  0  0  0  0  0  0  0  0  0
   -7.2800   22.7880  -29.8960 Cl  0  0  0  0  0  0  0  0  0  0  0  0
   -6.7420   21.8270  -32.3510 C   0  0  0  0  0  0  0  0  0  0  0  0
   -5.9910   22.7720  -32.7120 O   0  0  0  0  0  0  0  0  0  0  0  0
   -6.5000   20.4900  -32.8200 N   0  0  0  0  0  0  0  0  0  0  0  0
   -5.3400   20.1380  -33.6400 C   0  0  0  0  0  0  0  0  0  0  0  0
   -4.3700   19.2470  -32.8580 C   0  0  0  0  0  0  0  0  0  0  0  0
   -3.2720   20.0560  -32.2160 C   0  0  0  0  0  0  0  0  0  0  0  0
   -1.9440   19.5630  -32.1960 C   0  0  0  0  0  0  0  0  0  0  0  0
   -0.9270   20.2740  -31.5370 C   0  0  0  0  0  0  0  0  0  0  0  0
   -1.2670   21.4710  -30.9140 C   0  0  0  0  0  0  0  0  0  0  0  0
   -0.4900   22.3360  -30.1790 C   0  0  0  0  0  0  0  0  0  0  0  0
   -1.3520   23.3550  -29.7770 C   0  0  0  0  0  0  0  0  0  0  0  0
   -0.9070   24.5480  -29.0270 C   0  0  0  0  0  0  0  0  0  0  0  0
   -1.7450   25.7000  -28.9640 N   0  0  0  0  0  0  0  0  0  0  0  0
    0.1900   24.5490  -28.4080 O   0  0  0  0  0  0  0  0  0  0  0  0
   -2.6130   23.1260  -30.2390 N   0  0  0  0  0  0  0  0  0  0  0  0
   -3.7980   23.8940  -29.9770 C   0  0  0  0  0  0  0  0  0  0  0  0
   -4.5210   23.6150  -28.9800 O   0  0  0  0  0  0  0  0  0  0  0  0
   -4.1330   24.9640  -30.8130 O   0  0  0  0  0  0  0  0  0  0  0  0
   -5.3890   25.6250  -30.7460 C   0  0  0  0  0  0  0  0  0  0  0  0
   -2.5440   21.9700  -30.9370 C   0  0  0  0  0  0  0  0  0  0  0  0
   -3.5800   21.2750  -31.5710 C   0  0  0  0  0  0  0  0  0  0  0  0
  -10.4121   19.8508  -32.0731 H   0  0  0  0  0  0  0  0  0  0  0  0
   -9.8033   21.2713  -32.9886 H   0  0  0  0  0  0  0  0  0  0  0  0
   -8.8709   19.7359  -32.9886 H   0  0  0  0  0  0  0  0  0  0  0  0
   -9.4622   21.0953  -30.3521 H   0  0  0  0  0  0  0  0  0  0  0  0
   -8.0584   20.0561  -30.8536 H   0  0  0  0  0  0  0  0  0  0  0  0
   -8.5470   22.8510  -31.9298 H   0  0  0  0  0  0  0  0  0  0  0  0
   -7.1040   19.7120  -32.4710 H   0  0  0  0  0  0  0  0  0  0  0  0
   -5.6821   19.5990  -34.5358 H   0  0  0  0  0  0  0  0  0  0  0  0
   -4.8168   21.0626  -33.9253 H   0  0  0  0  0  0  0  0  0  0  0  0
   -4.9273   18.7146  -32.0732 H   0  0  0  0  0  0  0  0  0  0  0  0
   -3.9097   18.5375  -33.5614 H   0  0  0  0  0  0  0  0  0  0  0  0
   -1.7069   18.6150  -32.7010 H   0  0  0  0  0  0  0  0  0  0  0  0
    0.1058   19.8962  -31.5142 H   0  0  0  0  0  0  0  0  0  0  0  0
    0.5832   22.2433  -29.9560 H   0  0  0  0  0  0  0  0  0  0  0  0
   -2.7200   25.6740  -29.3360 H   0  0  0  0  0  0  0  0  0  0  0  0
   -5.6698   25.7728  -29.6928 H   0  0  0  0  0  0  0  0  0  0  0  0
   -5.3165   26.6018  -31.2467 H   0  0  0  0  0  0  0  0  0  0  0  0
   -6.1530   25.0122  -31.2467 H   0  0  0  0  0  0  0  0  0  0  0  0
   -4.6076   21.6675  -31.5674 H   0  0  0  0  0  0  0  0  0  0  0  0
  1  2  1  0
  2  3  1  0
  3  4  1  0
  3  5  1  0
  5  6  2  0
  5  7  1  0
  7  8  1  0
  8  9  1  0
  9 10  1  0
 10 11  2  0
 11 12  1  0
 12 13  2  0
 13 14  1  0
 14 15  2  0
 15 16  1  0
 16 17  1  0
 16 18  2  0
 15 19  1  0
 19 20  1  0
 20 21  2  0
 20 22  1  0
 22 23  1  0
 19 24  1  0
 24 25  2  0
 25 10  1  0
 24 13  1  0
  1 26  1  0
  1 27  1  0
  1 28  1  0
  2 29  1  0
  2 30  1  0
  3 31  1  6
  7 32  1  0
  8 33  1  0
  8 34  1  0
  9 35  1  0
  9 36  1  0
 11 37  1  0
 12 38  1  0
 14 39  1  0
 17 40  1  0
 23 41  1  0
 23 42  1  0
 23 43  1  0
 25 44  1  0
M  CHG  1  17  -1
M  END
>  <UniqueID>  (79) 
79

>  <SMILES>  (79) 
CC[C@@H](Cl)C(=O)NCCc1ccc2cc(C([NH-])=O)n(C(=O)OC)c2c1

>  <Energy>  (79) 
69.47878219121573

>  <Genealogy>  (79) 
CCC(Cl)C(=O)NCCc1ccc2cc(C([NH-])=O)n(C(=O)OC)c2c1 (protonated)
CC[C@@H](Cl)C(=O)NCCc1ccc2cc(C([NH-])=O)n(C(=O)OC)c2c1 (chirality)
CC[C@@H](Cl)C(=O)NCCc1ccc2cc(C([NH-])=O)n(C(=O)OC)c2c1 (3D coordinates assigned)
CC[C@@H](Cl)C(=O)NCCc1ccc2cc(C([NH-])=O)n(C(=O)OC)c2c1 (optimized conformer: 69.47878219121573 kcal/mol)

>  <smiles>  (79) 
CCC(Cl)C(=O)NCCc1ccc2cc(C(N)=O)n(C(=O)OC)c2c1

>  <score_type>  (79) 
oracle

>  <origin>  (79) 
adg

>  <m_score__min__energy>  (79) 
-10.49

>  <m_primary>  (79) 
energy

$$$$
79:0
     RDKit          3D

 58 61  0  0  0  0  0  0  0  0999 V2000
   -3.5110   20.0640  -32.4750 C   0  0  0  0  0  0  0  0  0  0  0  0
   -4.2150   19.2340  -33.5010 C   0  0  0  0  0  0  0  0  0  0  0  0
   -3.6440   19.0000  -34.6000 O   0  0  0  0  0  0  0  0  0  0  0  0
   -5.5050   18.6610  -33.2320 N   0  0  0  0  0  0  0  0  0  0  0  0
   -5.8970   17.3640  -33.3880 C   0  0  0  0  0  0  0  0  0  0  0  0
   -5.0060   16.2360  -33.7330 C   0  0  0  0  0  0  0  0  0  0  0  0
   -4.2060   16.2710  -34.9160 N   0  0  0  0  0  0  0  0  0  0  0  0
   -4.9650   15.2150  -32.9950 O   0  0  0  0  0  0  0  0  0  0  0  0
   -7.2490   17.2240  -33.0750 C   0  0  0  0  0  0  0  0  0  0  0  0
   -7.6730   18.4830  -32.7150 C   0  0  0  0  0  0  0  0  0  0  0  0
   -8.9270   18.9240  -32.3040 C   0  0  0  0  0  0  0  0  0  0  0  0
   -9.0800   20.2880  -32.0020 C   0  0  0  0  0  0  0  0  0  0  0  0
   -7.9870   21.1820  -32.1300 C   0  0  0  0  0  0  0  0  0  0  0  0
   -8.1550   22.6360  -31.7760 C   0  0  0  0  0  0  0  0  0  0  0  0
   -7.0520   23.4790  -32.4510 C   0  0  0  0  0  0  0  0  0  0  0  0
   -5.9330   23.8520  -31.5570 N   0  0  0  0  0  0  0  0  0  0  0  0
   -4.9070   22.8060  -31.4180 C   0  0  0  0  0  0  0  0  0  0  0  0
   -3.6130   23.4090  -30.8420 C   0  0  0  0  0  0  0  0  0  0  0  0
   -3.8560   24.6960  -30.0030 C   0  0  0  0  0  0  0  0  0  0  0  0
   -2.7400   24.9120  -29.0440 N   0  0  0  0  0  0  0  0  0  0  0  0
   -3.1090   24.5630  -27.6660 C   0  0  0  0  0  0  0  0  0  0  0  0
   -1.8200   24.2400  -26.9340 C   0  0  0  0  0  0  0  0  0  0  0  0
   -0.8380   23.8390  -28.0180 C   0  0  0  0  0  0  0  0  0  0  0  0
   -1.5640   24.0780  -29.3350 C   0  0  0  0  0  0  0  0  0  0  0  0
   -5.2090   24.5690  -29.2630 C   0  0  0  0  0  0  0  0  0  0  0  0
   -6.3840   24.3640  -30.2460 C   0  0  0  0  0  0  0  0  0  0  0  0
   -6.7250   20.6960  -32.5370 C   0  0  0  0  0  0  0  0  0  0  0  0
   -6.6010   19.3310  -32.8170 C   0  0  0  0  0  0  0  0  0  0  0  0
   -3.7986   19.7249  -31.4689 H   0  0  0  0  0  0  0  0  0  0  0  0
   -2.4234   19.9578  -32.6008 H   0  0  0  0  0  0  0  0  0  0  0  0
   -3.7933   21.1197  -32.6008 H   0  0  0  0  0  0  0  0  0  0  0  0
   -4.1680   17.1200  -35.5210 H   0  0  0  0  0  0  0  0  0  0  0  0
   -3.6100   15.4510  -35.1700 H   0  0  0  0  0  0  0  0  0  0  0  0
   -7.8491   16.3028  -33.1087 H   0  0  0  0  0  0  0  0  0  0  0  0
   -9.7730   18.2262  -32.2181 H   0  0  0  0  0  0  0  0  0  0  0  0
  -10.0562   20.6653  -31.6634 H   0  0  0  0  0  0  0  0  0  0  0  0
   -9.1401   22.9827  -32.1214 H   0  0  0  0  0  0  0  0  0  0  0  0
   -8.0781   22.7513  -30.6848 H   0  0  0  0  0  0  0  0  0  0  0  0
   -6.6422   22.8995  -33.2914 H   0  0  0  0  0  0  0  0  0  0  0  0
   -7.5263   24.4193  -32.7686 H   0  0  0  0  0  0  0  0  0  0  0  0
   -5.2761   22.0218  -30.7407 H   0  0  0  0  0  0  0  0  0  0  0  0
   -4.6947   22.3755  -32.4077 H   0  0  0  0  0  0  0  0  0  0  0  0
   -3.1338   22.6572  -30.1977 H   0  0  0  0  0  0  0  0  0  0  0  0
   -2.9764   23.6901  -31.6939 H   0  0  0  0  0  0  0  0  0  0  0  0
   -3.8929   25.5697  -30.6703 H   0  0  0  0  0  0  0  0  0  0  0  0
   -3.6158   25.4117  -27.1834 H   0  0  0  0  0  0  0  0  0  0  0  0
   -3.7981   23.7058  -27.6476 H   0  0  0  0  0  0  0  0  0  0  0  0
   -1.4541   25.1227  -26.3891 H   0  0  0  0  0  0  0  0  0  0  0  0
   -1.9586   23.4428  -26.1889 H   0  0  0  0  0  0  0  0  0  0  0  0
    0.0699   24.4576  -27.9620 H   0  0  0  0  0  0  0  0  0  0  0  0
   -0.5196   22.7914  -27.9123 H   0  0  0  0  0  0  0  0  0  0  0  0
   -0.9000   24.5977  -30.0414 H   0  0  0  0  0  0  0  0  0  0  0  0
   -1.8677   23.1236  -29.7898 H   0  0  0  0  0  0  0  0  0  0  0  0
   -5.1618   23.7080  -28.5800 H   0  0  0  0  0  0  0  0  0  0  0  0
   -5.3851   25.5033  -28.7098 H   0  0  0  0  0  0  0  0  0  0  0  0
   -7.0903   23.6432  -29.8083 H   0  0  0  0  0  0  0  0  0  0  0  0
   -6.8602   25.3417  -30.4113 H   0  0  0  0  0  0  0  0  0  0  0  0
   -5.8628   21.3725  -32.6313 H   0  0  0  0  0  0  0  0  0  0  0  0
  1  2  1  0
  2  3  2  0
  2  4  1  0
  4  5  1  0
  5  6  1  0
  6  7  1  0
  6  8  2  0
  5  9  2  0
  9 10  1  0
 10 11  2  0
 11 12  1  0
 12 13  2  0
 13 14  1  0
 14 15  1  0
 15 16  1  0
 16 17  1  0
 17 18  1  0
 18 19  1  0
 19 20  1  0
 20 21  1  0
 21 22  1  0
 22 23  1  0
 23 24  1  0
 19 25  1  0
 25 26  1  0
 13 27  1  0
 27 28  2  0
 28  4  1  0
 28 10  1  0
 26 16  1  0
 24 20  1  0
  1 29  1  0
  1 30  1  0
  1 31  1  0
  7 32  1  0
  7 33  1  0
  9 34  1  0
 11 35  1  0
 12 36  1  0
 14 37  1  0
 14 38  1  0
 15 39  1  0
 15 40  1  0
 17 41  1  0
 17 42  1  0
 18 43  1  0
 18 44  1  0
 19 45  1  0
 21 46  1  0
 21 47  1  0
 22 48  1  0
 22 49  1  0
 23 50  1  0
 23 51  1  0
 24 52  1  0
 24 53  1  0
 25 54  1  0
 25 55  1  0
 26 56  1  0
 26 57  1  0
 27 58  1  0
M  END
>  <UniqueID>  (80) 
80

>  <SMILES>  (80) 
CC(=O)n1c(C(N)=O)cc2ccc(CCN3CCC(N4CCCC4)CC3)cc21

>  <Energy>  (80) 
109.48418649901383

>  <Genealogy>  (80) 
CC(=O)n1c(C(N)=O)cc2ccc(CCN3CCC(N4CCCC4)CC3)cc21 (3D coordinates assigned)
CC(=O)n1c(C(N)=O)cc2ccc(CCN3CCC(N4CCCC4)CC3)cc21 (nonaromatic ring conformer: 109.48418649901383 kcal/mol)

>  <smiles>  (80) 
CC(=O)n1c(C(N)=O)cc2ccc(CCN3CCC(N4CCCC4)CC3)cc21

>  <score_type>  (80) 
oracle

>  <origin>  (80) 
adg

>  <m_score__min__energy>  (80) 
-9.8100000000000005

>  <m_primary>  (80) 
energy

$$$$
80:0
     RDKit          3D

 37 38  0  0  0  0  0  0  0  0999 V2000
   -5.7110   18.1910  -34.6770 C   0  0  0  0  0  0  0  0  0  0  0  0
   -5.9760   18.1970  -33.1670 C   0  0  0  0  0  0  0  0  0  0  0  0
   -7.0490   17.1700  -32.7910 C   0  0  0  0  0  0  0  0  0  0  0  0
   -6.3570   19.5830  -32.6830 C   0  0  0  0  0  0  0  0  0  0  0  0
   -7.7110   20.0040  -32.7410 C   0  0  0  0  0  0  0  0  0  0  0  0
   -8.0830   21.2910  -32.3160 C   0  0  0  0  0  0  0  0  0  0  0  0
   -7.0880   22.1310  -31.8280 C   0  0  0  0  0  0  0  0  0  0  0  0
   -7.1650   23.4300  -31.3800 C   0  0  0  0  0  0  0  0  0  0  0  0
   -5.8620   23.7780  -31.0290 C   0  0  0  0  0  0  0  0  0  0  0  0
   -5.4960   25.0810  -30.4320 C   0  0  0  0  0  0  0  0  0  0  0  0
   -4.2130   25.6560  -30.6560 N   0  0  0  0  0  0  0  0  0  0  0  0
   -6.3170   25.6760  -29.6840 O   0  0  0  0  0  0  0  0  0  0  0  0
   -5.0130   22.7350  -31.2540 N   0  0  0  0  0  0  0  0  0  0  0  0
   -3.5870   22.7070  -31.0890 C   0  0  0  0  0  0  0  0  0  0  0  0
   -2.8820   21.9980  -31.8570 O   0  0  0  0  0  0  0  0  0  0  0  0
   -2.9710   23.4680  -30.0430 N   0  0  0  0  0  0  0  0  0  0  0  0
   -1.5440   23.3510  -29.7530 C   0  0  0  0  0  0  0  0  0  0  0  0
   -1.0460   24.5790  -29.0570 C   0  0  0  0  0  0  0  0  0  0  0  0
   -1.7690   25.6080  -28.9990 O   0  0  0  0  0  0  0  0  0  0  0  0
    0.2350   24.6050  -28.5220 O   0  0  0  0  0  0  0  0  0  0  0  0
   -5.7790   21.7360  -31.7460 C   0  0  0  0  0  0  0  0  0  0  0  0
   -5.3740   20.4720  -32.1850 C   0  0  0  0  0  0  0  0  0  0  0  0
   -4.6264   18.1664  -34.8588 H   0  0  0  0  0  0  0  0  0  0  0  0
   -6.1786   17.3032  -35.1278 H   0  0  0  0  0  0  0  0  0  0  0  0
   -6.1379   19.0990  -35.1278 H   0  0  0  0  0  0  0  0  0  0  0  0
   -5.0417   17.9095  -32.6626 H   0  0  0  0  0  0  0  0  0  0  0  0
   -7.1219   17.1002  -31.6956 H   0  0  0  0  0  0  0  0  0  0  0  0
   -8.0187   17.4851  -33.2037 H   0  0  0  0  0  0  0  0  0  0  0  0
   -6.7767   16.1874  -33.2037 H   0  0  0  0  0  0  0  0  0  0  0  0
   -8.4785   19.3149  -33.1231 H   0  0  0  0  0  0  0  0  0  0  0  0
   -9.1301   21.6239  -32.3679 H   0  0  0  0  0  0  0  0  0  0  0  0
   -8.0643   24.0600  -31.3132 H   0  0  0  0  0  0  0  0  0  0  0  0
   -3.4930   25.6740  -29.8990 H   0  0  0  0  0  0  0  0  0  0  0  0
   -3.5680   24.1200  -29.4840 H   0  0  0  0  0  0  0  0  0  0  0  0
   -1.3768   22.4764  -29.1072 H   0  0  0  0  0  0  0  0  0  0  0  0
   -0.9977   23.2340  -30.7006 H   0  0  0  0  0  0  0  0  0  0  0  0
   -4.3157   20.1749  -32.1444 H   0  0  0  0  0  0  0  0  0  0  0  0
  1  2  1  0
  2  3  1  0
  2  4  1  0
  4  5  2  0
  5  6  1  0
  6  7  2  0
  7  8  1  0
  8  9  2  0
  9 10  1  0
 10 11  1  0
 10 12  2  0
  9 13  1  0
 13 14  1  0
 14 15  2  0
 14 16  1  0
 16 17  1  0
 17 18  1  0
 18 19  2  0
 18 20  1  0
 13 21  1  0
 21 22  2  0
 22  4  1  0
 21  7  1  0
  1 23  1  0
  1 24  1  0
  1 25  1  0
  2 26  1  0
  3 27  1  0
  3 28  1  0
  3 29  1  0
  5 30  1  0
  6 31  1  0
  8 32  1  0
 11 33  1  0
 16 34  1  0
 17 35  1  0
 17 36  1  0
 22 37  1  0
M  CHG  2  11  -1  20  -1
M  END
>  <UniqueID>  (81) 
81

>  <SMILES>  (81) 
CC(C)c1ccc2cc(C([NH-])=O)n(C(=O)NCC(=O)[O-])c2c1

>  <Energy>  (81) 
69.66061484647997

>  <Genealogy>  (81) 
CC(C)c1ccc2cc(C([NH-])=O)n(C(=O)NCC(=O)[O-])c2c1 (protonated)
CC(C)c1ccc2cc(C([NH-])=O)n(C(=O)NCC(=O)[O-])c2c1 (3D coordinates assigned)
CC(C)c1ccc2cc(C([NH-])=O)n(C(=O)NCC(=O)[O-])c2c1 (optimized conformer: 69.66061484647997 kcal/mol)

>  <smiles>  (81) 
CC(C)c1ccc2cc(C(N)=O)n(C(=O)NCC(=O)O)c2c1

>  <score_type>  (81) 
oracle

>  <origin>  (81) 
adg

>  <m_score__min__energy>  (81) 
-12.74

>  <m_primary>  (81) 
energy

$$$$
81:0
     RDKit          3D

 40 42  0  0  0  0  0  0  0  0999 V2000
   -6.8560   17.0360  -32.7860 C   0  0  0  0  0  0  0  0  0  0  0  0
   -6.4220   18.2560  -33.4790 N   0  0  0  0  0  0  0  0  0  0  0  0
   -5.7270   18.1310  -34.7670 C   0  0  0  0  0  0  0  0  0  0  0  0
   -6.6740   19.5640  -32.9000 C   0  0  0  0  0  0  0  0  0  0  0  0
   -8.0010   20.0710  -32.7970 C   0  0  0  0  0  0  0  0  0  0  0  0
   -8.2530   21.3380  -32.2450 C   0  0  0  0  0  0  0  0  0  0  0  0
   -7.1700   22.0840  -31.7990 C   0  0  0  0  0  0  0  0  0  0  0  0
   -7.1290   23.3390  -31.2320 C   0  0  0  0  0  0  0  0  0  0  0  0
   -5.7790   23.5860  -30.9810 C   0  0  0  0  0  0  0  0  0  0  0  0
   -5.2600   24.7980  -30.3080 C   0  0  0  0  0  0  0  0  0  0  0  0
   -5.7710   25.2090  -29.0380 N   0  0  0  0  0  0  0  0  0  0  0  0
   -4.3450   25.4760  -30.8460 O   0  0  0  0  0  0  0  0  0  0  0  0
   -5.0230   22.5270  -31.3850 N   0  0  0  0  0  0  0  0  0  0  0  0
   -3.5930   22.3910  -31.3290 C   0  0  0  0  0  0  0  0  0  0  0  0
   -2.9520   22.2290  -32.4020 O   0  0  0  0  0  0  0  0  0  0  0  0
   -2.8660   22.4670  -30.0380 C   0  0  0  0  0  0  0  0  0  0  0  0
   -2.1050   23.6070  -29.7180 C   0  0  0  0  0  0  0  0  0  0  0  0
   -1.4180   23.6810  -28.5020 C   0  0  0  0  0  0  0  0  0  0  0  0
   -0.6820   24.7810  -28.2050 F   0  0  0  0  0  0  0  0  0  0  0  0
   -1.4870   22.6220  -27.5930 C   0  0  0  0  0  0  0  0  0  0  0  0
   -2.2460   21.4890  -27.8970 C   0  0  0  0  0  0  0  0  0  0  0  0
   -2.3180   20.4660  -27.0110 F   0  0  0  0  0  0  0  0  0  0  0  0
   -2.9350   21.4110  -29.1110 C   0  0  0  0  0  0  0  0  0  0  0  0
   -5.8880   21.6170  -31.8760 C   0  0  0  0  0  0  0  0  0  0  0  0
   -5.6010   20.3650  -32.4280 C   0  0  0  0  0  0  0  0  0  0  0  0
   -6.8003   17.1925  -31.6986 H   0  0  0  0  0  0  0  0  0  0  0  0
   -7.8926   16.8019  -33.0702 H   0  0  0  0  0  0  0  0  0  0  0  0
   -6.2002   16.1999  -33.0702 H   0  0  0  0  0  0  0  0  0  0  0  0
   -4.6585   17.9388  -34.5899 H   0  0  0  0  0  0  0  0  0  0  0  0
   -6.1600   17.2963  -35.3378 H   0  0  0  0  0  0  0  0  0  0  0  0
   -5.8420   19.0642  -35.3378 H   0  0  0  0  0  0  0  0  0  0  0  0
   -8.8426   19.4603  -33.1557 H   0  0  0  0  0  0  0  0  0  0  0  0
   -9.2787   21.7279  -32.1683 H   0  0  0  0  0  0  0  0  0  0  0  0
   -7.9794   24.0044  -31.0220 H   0  0  0  0  0  0  0  0  0  0  0  0
   -5.3710   26.0470  -28.5600 H   0  0  0  0  0  0  0  0  0  0  0  0
   -6.5730   24.7160  -28.5880 H   0  0  0  0  0  0  0  0  0  0  0  0
   -2.0503   24.4449  -30.4286 H   0  0  0  0  0  0  0  0  0  0  0  0
   -0.9439   22.6803  -26.6382 H   0  0  0  0  0  0  0  0  0  0  0  0
   -3.5347   20.5185  -29.3428 H   0  0  0  0  0  0  0  0  0  0  0  0
   -4.5630   20.0071  -32.4954 H   0  0  0  0  0  0  0  0  0  0  0  0
  1  2  1  0
  2  3  1  0
  2  4  1  0
  4  5  2  0
  5  6  1  0
  6  7  2  0
  7  8  1  0
  8  9  2  0
  9 10  1  0
 10 11  1  0
 10 12  2  0
  9 13  1  0
 13 14  1  0
 14 15  2  0
 14 16  1  0
 16 17  2  0
 17 18  1  0
 18 19  1  0
 18 20  2  0
 20 21  1  0
 21 22  1  0
 21 23  2  0
 13 24  1  0
 24 25  2  0
 25  4  1  0
 24  7  1  0
 23 16  1  0
  1 26  1  0
  1 27  1  0
  1 28  1  0
  3 29  1  0
  3 30  1  0
  3 31  1  0
  5 32  1  0
  6 33  1  0
  8 34  1  0
 11 35  1  0
 11 36  1  0
 17 37  1  0
 20 38  1  0
 23 39  1  0
 25 40  1  0
M  END
>  <UniqueID>  (82) 
82

>  <SMILES>  (82) 
CN(C)c1ccc2cc(C(N)=O)n(C(=O)c3cc(F)cc(F)c3)c2c1

>  <Energy>  (82) 
84.58963915155266

>  <Genealogy>  (82) 
CN(C)c1ccc2cc(C(N)=O)n(C(=O)c3cc(F)cc(F)c3)c2c1 (3D coordinates assigned)
CN(C)c1ccc2cc(C(N)=O)n(C(=O)c3cc(F)cc(F)c3)c2c1 (optimized conformer: 84.58963915155266 kcal/mol)

>  <smiles>  (82) 
CN(C)c1ccc2cc(C(N)=O)n(C(=O)c3cc(F)cc(F)c3)c2c1

>  <score_type>  (82) 
oracle

>  <origin>  (82) 
adg

>  <m_score__min__energy>  (82) 
-8.9800000000000004

>  <m_primary>  (82) 
energy

$$$$
82:0
     RDKit          3D

 43 45  0  0  0  0  0  0  0  0999 V2000
   -1.5180   26.0070  -28.9260 N   0  0  0  0  0  0  0  0  0  0  0  0
   -0.8440   24.7490  -28.9210 C   0  0  0  0  0  0  0  0  0  0  0  0
    0.1670   24.5950  -28.1880 O   0  0  0  0  0  0  0  0  0  0  0  0
   -1.3650   23.6340  -29.7390 C   0  0  0  0  0  0  0  0  0  0  0  0
   -0.5810   22.5600  -30.1590 C   0  0  0  0  0  0  0  0  0  0  0  0
   -1.4020   21.8020  -30.9610 C   0  0  0  0  0  0  0  0  0  0  0  0
   -1.1410   20.6150  -31.6390 C   0  0  0  0  0  0  0  0  0  0  0  0
   -2.1860   20.0350  -32.3770 C   0  0  0  0  0  0  0  0  0  0  0  0
   -3.4700   20.6380  -32.4170 C   0  0  0  0  0  0  0  0  0  0  0  0
   -4.5850   19.9930  -33.2220 C   0  0  0  0  0  0  0  0  0  0  0  0
   -4.5570   18.4450  -33.1240 C   0  0  0  0  0  0  0  0  0  0  0  0
   -5.7700   17.8910  -32.3680 C   0  0  0  0  0  0  0  0  0  0  0  0
   -7.0400   18.3010  -33.0120 N   0  0  0  0  0  0  0  0  0  0  0  0
   -8.1940   17.9040  -32.1770 C   0  0  0  0  0  0  0  0  0  0  0  0
   -9.1150   19.1030  -31.9290 C   0  0  0  0  0  0  0  0  0  0  0  0
   -9.8110   19.4310  -33.1000 O   0  0  0  0  0  0  0  0  0  0  0  0
   -7.0930   19.7380  -33.4060 C   0  0  0  0  0  0  0  0  0  0  0  0
   -5.9520   20.5820  -32.8230 C   0  0  0  0  0  0  0  0  0  0  0  0
   -3.6910   21.8490  -31.7170 C   0  0  0  0  0  0  0  0  0  0  0  0
   -2.6280   22.4130  -31.0040 C   0  0  0  0  0  0  0  0  0  0  0  0
   -2.6220   23.5400  -30.2560 N   0  0  0  0  0  0  0  0  0  0  0  0
   -3.7430   24.4040  -30.0060 C   0  0  0  0  0  0  0  0  0  0  0  0
   -3.8640   25.4880  -30.6350 O   0  0  0  0  0  0  0  0  0  0  0  0
   -4.7200   24.0390  -29.0880 O   0  0  0  0  0  0  0  0  0  0  0  0
   -2.5600   26.0580  -28.9690 H   0  0  0  0  0  0  0  0  0  0  0  0
    0.4703   22.3613  -29.9033 H   0  0  0  0  0  0  0  0  0  0  0  0
   -0.1471   20.1455  -31.5982 H   0  0  0  0  0  0  0  0  0  0  0  0
   -2.0068   19.1017  -32.9309 H   0  0  0  0  0  0  0  0  0  0  0  0
   -4.4170   20.2308  -34.2828 H   0  0  0  0  0  0  0  0  0  0  0  0
   -4.5515   18.0256  -34.1409 H   0  0  0  0  0  0  0  0  0  0  0  0
   -3.6524   18.1580  -32.5679 H   0  0  0  0  0  0  0  0  0  0  0  0
   -5.7131   16.7925  -32.3554 H   0  0  0  0  0  0  0  0  0  0  0  0
   -5.7543   18.2937  -31.3445 H   0  0  0  0  0  0  0  0  0  0  0  0
   -8.7593   17.1140  -32.6930 H   0  0  0  0  0  0  0  0  0  0  0  0
   -7.8227   17.5347  -31.2097 H   0  0  0  0  0  0  0  0  0  0  0  0
   -9.8355   18.8497  -31.1373 H   0  0  0  0  0  0  0  0  0  0  0  0
   -8.5053   19.9653  -31.6213 H   0  0  0  0  0  0  0  0  0  0  0  0
   -9.2170   19.1930  -33.8590 H   0  0  0  0  0  0  0  0  0  0  0  0
   -7.0439   19.7989  -34.5032 H   0  0  0  0  0  0  0  0  0  0  0  0
   -8.0318   20.1463  -33.0035 H   0  0  0  0  0  0  0  0  0  0  0  0
   -6.0293   21.6097  -33.2075 H   0  0  0  0  0  0  0  0  0  0  0  0
   -6.0332   20.5798  -31.7260 H   0  0  0  0  0  0  0  0  0  0  0  0
   -4.6774   22.3356  -31.7336 H   0  0  0  0  0  0  0  0  0  0  0  0
  1  2  1  0
  2  3  2  0
  2  4  1  0
  4  5  2  0
  5  6  1  0
  6  7  2  0
  7  8  1  0
  8  9  2  0
  9 10  1  0
 10 11  1  0
 11 12  1  0
 12 13  1  0
 13 14  1  0
 14 15  1  0
 15 16  1  0
 13 17  1  0
 17 18  1  0
  9 19  1  0
 19 20  2  0
 20 21  1  0
 21 22  1  0
 22 23  2  0
 22 24  1  0
 21  4  1  0
 20  6  1  0
 18 10  1  0
  1 25  1  0
  5 26  1  0
  7 27  1  0
  8 28  1  0
 10 29  1  0
 11 30  1  0
 11 31  1  0
 12 32  1  0
 12 33  1  0
 14 34  1  0
 14 35  1  0
 15 36  1  0
 15 37  1  0
 16 38  1  0
 17 39  1  0
 17 40  1  0
 18 41  1  0
 18 42  1  0
 19 43  1  0
M  CHG  2   1  -1  24  -1
M  END
>  <UniqueID>  (83) 
83

>  <SMILES>  (83) 
[NH-]C(=O)c1cc2ccc(C3CCN(CCO)CC3)cc2n1C(=O)[O-]

>  <Energy>  (83) 
91.37482405376096

>  <Genealogy>  (83) 
[NH-]C(=O)c1cc2ccc(C3CCN(CCO)CC3)cc2n1C(=O)[O-] (protonated)
[NH-]C(=O)c1cc2ccc(C3CCN(CCO)CC3)cc2n1C(=O)[O-] (3D coordinates assigned)
[NH-]C(=O)c1cc2ccc(C3CCN(CCO)CC3)cc2n1C(=O)[O-] (nonaromatic ring conformer: 91.37482405376096 kcal/mol)

>  <smiles>  (83) 
NC(=O)c1cc2ccc(C3CCN(CCO)CC3)cc2n1C(=O)O

>  <score_type>  (83) 
oracle

>  <origin>  (83) 
adg

>  <m_score__min__energy>  (83) 
-12.140000000000001

>  <m_primary>  (83) 
energy

$$$$
83:0
     RDKit          3D

 44 46  0  0  0  0  0  0  0  0999 V2000
   -3.4070   23.5500  -27.9350 C   0  0  0  0  0  0  0  0  0  0  0  0
   -3.6790   22.2920  -28.2960 C   0  0  0  0  0  0  0  0  0  0  0  0
   -3.2320   21.7280  -29.6190 C   0  0  0  0  0  0  0  0  0  0  0  0
   -3.6480   22.5890  -30.7800 C   0  0  0  0  0  0  0  0  0  0  0  0
   -2.7780   23.0900  -31.5430 O   0  0  0  0  0  0  0  0  0  0  0  0
   -5.0380   22.7460  -31.0980 N   0  0  0  0  0  0  0  0  0  0  0  0
   -5.8410   23.8070  -30.8040 C   0  0  0  0  0  0  0  0  0  0  0  0
   -5.4090   25.0790  -30.1840 C   0  0  0  0  0  0  0  0  0  0  0  0
   -4.1550   25.6690  -30.5170 N   0  0  0  0  0  0  0  0  0  0  0  0
   -6.1680   25.6660  -29.3690 O   0  0  0  0  0  0  0  0  0  0  0  0
   -7.1500   23.5550  -31.2130 C   0  0  0  0  0  0  0  0  0  0  0  0
   -7.1220   22.2960  -31.7700 C   0  0  0  0  0  0  0  0  0  0  0  0
   -8.1500   21.5360  -32.3200 C   0  0  0  0  0  0  0  0  0  0  0  0
   -7.8370   20.2500  -32.7930 C   0  0  0  0  0  0  0  0  0  0  0  0
   -6.5130   19.7480  -32.7060 C   0  0  0  0  0  0  0  0  0  0  0  0
   -6.1930   18.3830  -33.1890 C   0  0  0  0  0  0  0  0  0  0  0  0
   -7.1260   17.3510  -33.0030 C   0  0  0  0  0  0  0  0  0  0  0  0
   -6.8570   16.0580  -33.4550 C   0  0  0  0  0  0  0  0  0  0  0  0
   -5.6470   15.7680  -34.1020 C   0  0  0  0  0  0  0  0  0  0  0  0
   -5.3710   14.3960  -34.5820 C   0  0  0  0  0  0  0  0  0  0  0  0
   -4.1970   14.0430  -34.8760 O   0  0  0  0  0  0  0  0  0  0  0  0
   -6.4020   13.4740  -34.7160 O   0  0  0  0  0  0  0  0  0  0  0  0
   -4.7050   16.7960  -34.2830 C   0  0  0  0  0  0  0  0  0  0  0  0
   -4.9640   18.1040  -33.8240 C   0  0  0  0  0  0  0  0  0  0  0  0
   -4.0200   19.1350  -33.9640 O   0  0  0  0  0  0  0  0  0  0  0  0
   -2.6980   19.1030  -33.4360 C   0  0  0  0  0  0  0  0  0  0  0  0
   -5.5000   20.5490  -32.1310 C   0  0  0  0  0  0  0  0  0  0  0  0
   -5.8360   21.8300  -31.6850 C   0  0  0  0  0  0  0  0  0  0  0  0
   -3.7492   23.9288  -26.9606 H   0  0  0  0  0  0  0  0  0  0  0  0
   -2.8409   24.2064  -28.6123 H   0  0  0  0  0  0  0  0  0  0  0  0
   -4.2462   21.6496  -27.6063 H   0  0  0  0  0  0  0  0  0  0  0  0
   -2.1351   21.6459  -29.6154 H   0  0  0  0  0  0  0  0  0  0  0  0
   -3.7097   20.7449  -29.7428 H   0  0  0  0  0  0  0  0  0  0  0  0
   -3.3540   25.0840  -30.8440 H   0  0  0  0  0  0  0  0  0  0  0  0
   -8.0200   24.2205  -31.1121 H   0  0  0  0  0  0  0  0  0  0  0  0
   -9.1753   21.9294  -32.3826 H   0  0  0  0  0  0  0  0  0  0  0  0
   -8.6274   19.6259  -33.2355 H   0  0  0  0  0  0  0  0  0  0  0  0
   -8.0788   17.5633  -32.4959 H   0  0  0  0  0  0  0  0  0  0  0  0
   -7.5994   15.2608  -33.3026 H   0  0  0  0  0  0  0  0  0  0  0  0
   -3.7533   16.5771  -34.7894 H   0  0  0  0  0  0  0  0  0  0  0  0
   -2.7420   19.1041  -32.3369 H   0  0  0  0  0  0  0  0  0  0  0  0
   -2.1871   18.1922  -33.7816 H   0  0  0  0  0  0  0  0  0  0  0  0
   -2.1436   19.9880  -33.7816 H   0  0  0  0  0  0  0  0  0  0  0  0
   -4.4707   20.1725  -32.0368 H   0  0  0  0  0  0  0  0  0  0  0  0
  1  2  2  0
  2  3  1  0
  3  4  1  0
  4  5  2  0
  4  6  1  0
  6  7  1  0
  7  8  1  0
  8  9  1  0
  8 10  2  0
  7 11  2  0
 11 12  1  0
 12 13  2  0
 13 14  1  0
 14 15  2  0
 15 16  1  0
 16 17  2  0
 17 18  1  0
 18 19  2  0
 19 20  1  0
 20 21  2  0
 20 22  1  0
 19 23  1  0
 23 24  2  0
 24 25  1  0
 25 26  1  0
 15 27  1  0
 27 28  2  0
 28  6  1  0
 28 12  1  0
 24 16  1  0
  1 29  1  0
  1 30  1  0
  2 31  1  0
  3 32  1  0
  3 33  1  0
  9 34  1  0
 11 35  1  0
 13 36  1  0
 14 37  1  0
 17 38  1  0
 18 39  1  0
 23 40  1  0
 26 41  1  0
 26 42  1  0
 26 43  1  0
 27 44  1  0
M  CHG  2   9  -1  22  -1
M  END
>  <UniqueID>  (84) 
84

>  <SMILES>  (84) 
C=CCC(=O)n1c(C([NH-])=O)cc2ccc(-c3ccc(C(=O)[O-])cc3OC)cc21

>  <Energy>  (84) 
90.3756874372947

>  <Genealogy>  (84) 
C=CCC(=O)n1c(C([NH-])=O)cc2ccc(-c3ccc(C(=O)[O-])cc3OC)cc21 (protonated)
C=CCC(=O)n1c(C([NH-])=O)cc2ccc(-c3ccc(C(=O)[O-])cc3OC)cc21 (3D coordinates assigned)
C=CCC(=O)n1c(C([NH-])=O)cc2ccc(-c3ccc(C(=O)[O-])cc3OC)cc21 (optimized conformer: 90.3756874372947 kcal/mol)

>  <smiles>  (84) 
C=CCC(=O)n1c(C(N)=O)cc2ccc(-c3ccc(C(=O)O)cc3OC)cc21

>  <score_type>  (84) 
oracle

>  <origin>  (84) 
adg

>  <m_score__min__energy>  (84) 
-10.699999999999999

>  <m_primary>  (84) 
energy

$$$$
84:0
     RDKit          3D

 28 29  0  0  0  0  0  0  0  0999 V2000
   -3.7700   22.5410  -28.6860 C   0  0  0  0  0  0  0  0  0  0  0  0
   -3.4160   21.9730  -29.8370 C   0  0  0  0  0  0  0  0  0  0  0  0
   -4.0330   22.3320  -31.1280 C   0  0  0  0  0  0  0  0  0  0  0  0
   -3.3230   22.3170  -32.1680 O   0  0  0  0  0  0  0  0  0  0  0  0
   -5.4170   22.7040  -31.2240 N   0  0  0  0  0  0  0  0  0  0  0  0
   -5.9840   23.8940  -30.8840 C   0  0  0  0  0  0  0  0  0  0  0  0
   -5.2590   25.1070  -30.4510 C   0  0  0  0  0  0  0  0  0  0  0  0
   -3.8610   25.2540  -30.6910 N   0  0  0  0  0  0  0  0  0  0  0  0
   -5.8860   26.0400  -29.8800 O   0  0  0  0  0  0  0  0  0  0  0  0
   -7.3690   23.8330  -31.0360 C   0  0  0  0  0  0  0  0  0  0  0  0
   -7.6320   22.5560  -31.4790 C   0  0  0  0  0  0  0  0  0  0  0  0
   -8.8440   21.9390  -31.7730 C   0  0  0  0  0  0  0  0  0  0  0  0
   -8.8160   20.5940  -32.1810 C   0  0  0  0  0  0  0  0  0  0  0  0
   -7.5870   19.8980  -32.2930 C   0  0  0  0  0  0  0  0  0  0  0  0
   -7.5750   18.4510  -32.6840 C   0  0  0  0  0  0  0  0  0  0  0  0
   -6.3780   20.5520  -31.9690 C   0  0  0  0  0  0  0  0  0  0  0  0
   -6.4360   21.8940  -31.5800 C   0  0  0  0  0  0  0  0  0  0  0  0
   -3.2792   22.2381  -27.7493 H   0  0  0  0  0  0  0  0  0  0  0  0
   -4.5533   23.3132  -28.6717 H   0  0  0  0  0  0  0  0  0  0  0  0
   -2.6301   21.2034  -29.8248 H   0  0  0  0  0  0  0  0  0  0  0  0
   -3.4920   26.0580  -31.2450 H   0  0  0  0  0  0  0  0  0  0  0  0
   -8.0969   24.6349  -30.8430 H   0  0  0  0  0  0  0  0  0  0  0  0
   -9.7943   22.4865  -31.6888 H   0  0  0  0  0  0  0  0  0  0  0  0
   -9.7579   20.0766  -32.4157 H   0  0  0  0  0  0  0  0  0  0  0  0
   -7.5698   17.8265  -31.7785 H   0  0  0  0  0  0  0  0  0  0  0  0
   -8.4713   18.2248  -33.2802 H   0  0  0  0  0  0  0  0  0  0  0  0
   -6.6751   18.2397  -33.2802 H   0  0  0  0  0  0  0  0  0  0  0  0
   -5.4166   20.0201  -32.0212 H   0  0  0  0  0  0  0  0  0  0  0  0
  1  2  2  0
  2  3  1  0
  3  4  2  0
  3  5  1  0
  5  6  1  0
  6  7  1  0
  7  8  1  0
  7  9  2  0
  6 10  2  0
 10 11  1  0
 11 12  2  0
 12 13  1  0
 13 14  2  0
 14 15  1  0
 14 16  1  0
 16 17  2  0
 17  5  1  0
 17 11  1  0
  1 18  1  0
  1 19  1  0
  2 20  1  0
  8 21  1  0
 10 22  1  0
 12 23  1  0
 13 24  1  0
 15 25  1  0
 15 26  1  0
 15 27  1  0
 16 28  1  0
M  CHG  1   8  -1
M  END
>  <UniqueID>  (85) 
85

>  <SMILES>  (85) 
C=CC(=O)n1c(C([NH-])=O)cc2ccc(C)cc21

>  <Energy>  (85) 
66.22371508807703

>  <Genealogy>  (85) 
C=CC(=O)n1c(C([NH-])=O)cc2ccc(C)cc21 (protonated)
C=CC(=O)n1c(C([NH-])=O)cc2ccc(C)cc21 (3D coordinates assigned)
C=CC(=O)n1c(C([NH-])=O)cc2ccc(C)cc21 (optimized conformer: 66.22371508807703 kcal/mol)

>  <smiles>  (85) 
C=CC(=O)n1c(C(N)=O)cc2ccc(C)cc21

>  <score_type>  (85) 
oracle

>  <origin>  (85) 
adg

>  <m_score__min__energy>  (85) 
-9.75

>  <m_primary>  (85) 
energy

$$$$
85:0
     RDKit          3D

 39 40  0  0  0  0  0  0  0  0999 V2000
   -0.8630   26.4380  -28.2070 C   0  0  0  0  0  0  0  0  0  0  0  0
   -1.3710   25.5950  -29.2790 N   0  0  0  0  0  0  0  0  0  0  0  0
   -2.0500   24.3610  -29.0370 C   0  0  0  0  0  0  0  0  0  0  0  0
   -2.9550   24.2910  -28.1630 O   0  0  0  0  0  0  0  0  0  0  0  0
   -1.7080   23.1550  -29.8550 C   0  0  0  0  0  0  0  0  0  0  0  0
   -2.8210   22.8560  -30.8610 C   0  0  0  0  0  0  0  0  0  0  0  0
   -4.0810   22.4740  -30.1420 C   0  0  0  0  0  0  0  0  0  0  0  0
   -4.0160   22.0060  -28.9730 O   0  0  0  0  0  0  0  0  0  0  0  0
   -5.3610   22.7370  -30.7310 N   0  0  0  0  0  0  0  0  0  0  0  0
   -6.0540   23.9090  -30.7470 C   0  0  0  0  0  0  0  0  0  0  0  0
   -5.5580   25.2130  -30.2610 C   0  0  0  0  0  0  0  0  0  0  0  0
   -4.2190   25.6290  -30.5170 N   0  0  0  0  0  0  0  0  0  0  0  0
   -6.3340   25.9830  -29.6340 O   0  0  0  0  0  0  0  0  0  0  0  0
   -7.3000   23.7290  -31.3490 C   0  0  0  0  0  0  0  0  0  0  0  0
   -7.3420   22.4000  -31.7070 C   0  0  0  0  0  0  0  0  0  0  0  0
   -8.3530   21.6660  -32.3220 C   0  0  0  0  0  0  0  0  0  0  0  0
   -8.1340   20.2940  -32.5360 C   0  0  0  0  0  0  0  0  0  0  0  0
   -6.9140   19.6870  -32.1440 C   0  0  0  0  0  0  0  0  0  0  0  0
   -6.7080   18.2080  -32.3340 C   0  0  0  0  0  0  0  0  0  0  0  0
   -6.1740   17.9060  -33.7330 C   0  0  0  0  0  0  0  0  0  0  0  0
   -6.0840   19.0720  -34.4740 F   0  0  0  0  0  0  0  0  0  0  0  0
   -4.9190   17.3350  -33.6360 F   0  0  0  0  0  0  0  0  0  0  0  0
   -5.9130   20.4630  -31.5200 C   0  0  0  0  0  0  0  0  0  0  0  0
   -6.1590   21.8260  -31.3240 C   0  0  0  0  0  0  0  0  0  0  0  0
   -1.1293   25.9961  -27.2355 H   0  0  0  0  0  0  0  0  0  0  0  0
    0.2314   26.5140  -28.2876 H   0  0  0  0  0  0  0  0  0  0  0  0
   -1.3071   27.4411  -28.2876 H   0  0  0  0  0  0  0  0  0  0  0  0
   -0.7695   23.3403  -30.3981 H   0  0  0  0  0  0  0  0  0  0  0  0
   -1.5938   22.2909  -29.1839 H   0  0  0  0  0  0  0  0  0  0  0  0
   -3.0086   23.7513  -31.4720 H   0  0  0  0  0  0  0  0  0  0  0  0
   -2.5079   22.0207  -31.5046 H   0  0  0  0  0  0  0  0  0  0  0  0
   -3.5150   25.6750  -29.7470 H   0  0  0  0  0  0  0  0  0  0  0  0
   -8.0818   24.4870  -31.5044 H   0  0  0  0  0  0  0  0  0  0  0  0
   -9.2939   22.1450  -32.6308 H   0  0  0  0  0  0  0  0  0  0  0  0
   -8.9168   19.6853  -33.0122 H   0  0  0  0  0  0  0  0  0  0  0  0
   -5.9858   17.8463  -31.5873 H   0  0  0  0  0  0  0  0  0  0  0  0
   -7.6759   17.7002  -32.2107 H   0  0  0  0  0  0  0  0  0  0  0  0
   -6.8651   17.2112  -34.2327 H   0  0  0  0  0  0  0  0  0  0  0  0
   -4.9652   20.0080  -31.1967 H   0  0  0  0  0  0  0  0  0  0  0  0
  1  2  1  0
  2  3  1  0
  3  4  2  0
  3  5  1  0
  5  6  1  0
  6  7  1  0
  7  8  2  0
  7  9  1  0
  9 10  1  0
 10 11  1  0
 11 12  1  0
 11 13  2  0
 10 14  2  0
 14 15  1  0
 15 16  2  0
 16 17  1  0
 17 18  2  0
 18 19  1  0
 19 20  1  0
 20 21  1  0
 20 22  1  0
 18 23  1  0
 23 24  2  0
 24  9  1  0
 24 15  1  0
  1 25  1  0
  1 26  1  0
  1 27  1  0
  5 28  1  0
  5 29  1  0
  6 30  1  0
  6 31  1  0
 12 32  1  0
 14 33  1  0
 16 34  1  0
 17 35  1  0
 19 36  1  0
 19 37  1  0
 20 38  1  0
 23 39  1  0
M  CHG  2   2  -1  12  -1
M  END
>  <UniqueID>  (86) 
86

>  <SMILES>  (86) 
C[N-]C(=O)CCC(=O)n1c(C([NH-])=O)cc2ccc(CC(F)F)cc21

>  <Energy>  (86) 
68.52802046540268

>  <Genealogy>  (86) 
C[N-]C(=O)CCC(=O)n1c(C([NH-])=O)cc2ccc(CC(F)F)cc21 (protonated)
C[N-]C(=O)CCC(=O)n1c(C([NH-])=O)cc2ccc(CC(F)F)cc21 (3D coordinates assigned)
C[N-]C(=O)CCC(=O)n1c(C([NH-])=O)cc2ccc(CC(F)F)cc21 (optimized conformer: 68.52802046540268 kcal/mol)

>  <smiles>  (86) 
CNC(=O)CCC(=O)n1c(C(N)=O)cc2ccc(CC(F)F)cc21

>  <score_type>  (86) 
oracle

>  <origin>  (86) 
adg

>  <m_score__min__energy>  (86) 
-11.720000000000001

>  <m_primary>  (86) 
energy

$$$$
86:0
     RDKit          3D

 42 43  0  0  0  0  0  0  0  0999 V2000
   -4.2130   24.9220  -26.4430 C   0  0  0  0  0  0  0  0  0  0  0  0
   -3.3830   24.1430  -27.4630 C   0  0  0  0  0  0  0  0  0  0  0  0
   -4.2060   23.0860  -28.2160 C   0  0  0  0  0  0  0  0  0  0  0  0
   -3.3660   21.8710  -28.6310 C   0  0  0  0  0  0  0  0  0  0  0  0
   -3.6420   21.5160  -29.9840 O   0  0  0  0  0  0  0  0  0  0  0  0
   -4.0180   22.4430  -30.9640 C   0  0  0  0  0  0  0  0  0  0  0  0
   -3.1680   22.8810  -31.7870 O   0  0  0  0  0  0  0  0  0  0  0  0
   -5.3850   22.8720  -31.0480 N   0  0  0  0  0  0  0  0  0  0  0  0
   -5.8730   24.1400  -30.9330 C   0  0  0  0  0  0  0  0  0  0  0  0
   -5.1010   25.3350  -30.5300 C   0  0  0  0  0  0  0  0  0  0  0  0
   -3.6810   25.2910  -30.4260 N   0  0  0  0  0  0  0  0  0  0  0  0
   -5.7100   26.3950  -30.2250 O   0  0  0  0  0  0  0  0  0  0  0  0
   -7.2450   24.1580  -31.1710 C   0  0  0  0  0  0  0  0  0  0  0  0
   -7.5890   22.8500  -31.4260 C   0  0  0  0  0  0  0  0  0  0  0  0
   -8.8250   22.2950  -31.7440 C   0  0  0  0  0  0  0  0  0  0  0  0
   -8.8810   20.9140  -31.9950 C   0  0  0  0  0  0  0  0  0  0  0  0
   -7.7110   20.1190  -31.9230 C   0  0  0  0  0  0  0  0  0  0  0  0
   -7.7780   18.6470  -32.2420 C   0  0  0  0  0  0  0  0  0  0  0  0
   -6.3920   18.0700  -32.5550 C   0  0  0  0  0  0  0  0  0  0  0  0
   -6.0550   18.1980  -34.0100 C   0  0  0  0  0  0  0  0  0  0  0  0
   -6.1060   19.3220  -34.5750 O   0  0  0  0  0  0  0  0  0  0  0  0
   -5.7270   17.0700  -34.7500 O   0  0  0  0  0  0  0  0  0  0  0  0
   -6.4720   20.7190  -31.6050 C   0  0  0  0  0  0  0  0  0  0  0  0
   -6.4490   22.0940  -31.3450 C   0  0  0  0  0  0  0  0  0  0  0  0
   -3.9075   24.6352  -25.4259 H   0  0  0  0  0  0  0  0  0  0  0  0
   -4.0498   26.0006  -26.5845 H   0  0  0  0  0  0  0  0  0  0  0  0
   -5.2791   24.6908  -26.5845 H   0  0  0  0  0  0  0  0  0  0  0  0
   -2.9683   24.8524  -28.1943 H   0  0  0  0  0  0  0  0  0  0  0  0
   -2.5902   23.6156  -26.9122 H   0  0  0  0  0  0  0  0  0  0  0  0
   -5.0222   22.7437  -27.5628 H   0  0  0  0  0  0  0  0  0  0  0  0
   -4.5909   23.5546  -29.1338 H   0  0  0  0  0  0  0  0  0  0  0  0
   -2.2985   22.1170  -28.5311 H   0  0  0  0  0  0  0  0  0  0  0  0
   -3.6202   21.0217  -27.9798 H   0  0  0  0  0  0  0  0  0  0  0  0
   -3.0940   24.9650  -31.2260 H   0  0  0  0  0  0  0  0  0  0  0  0
   -7.9124   25.0323  -31.1580 H   0  0  0  0  0  0  0  0  0  0  0  0
   -9.7298   22.9183  -31.7971 H   0  0  0  0  0  0  0  0  0  0  0  0
   -9.8430   20.4454  -32.2500 H   0  0  0  0  0  0  0  0  0  0  0  0
   -8.1989   18.1137  -31.3769 H   0  0  0  0  0  0  0  0  0  0  0  0
   -8.4118   18.5178  -33.1317 H   0  0  0  0  0  0  0  0  0  0  0  0
   -5.6383   18.6124  -31.9653 H   0  0  0  0  0  0  0  0  0  0  0  0
   -6.3989   17.0007  -32.2969 H   0  0  0  0  0  0  0  0  0  0  0  0
   -5.5496   20.1211  -31.5629 H   0  0  0  0  0  0  0  0  0  0  0  0
  1  2  1  0
  2  3  1  0
  3  4  1  0
  4  5  1  0
  5  6  1  0
  6  7  2  0
  6  8  1  0
  8  9  1  0
  9 10  1  0
 10 11  1  0
 10 12  2  0
  9 13  2  0
 13 14  1  0
 14 15  2  0
 15 16  1  0
 16 17  2  0
 17 18  1  0
 18 19  1  0
 19 20  1  0
 20 21  2  0
 20 22  1  0
 17 23  1  0
 23 24  2  0
 24  8  1  0
 24 14  1  0
  1 25  1  0
  1 26  1  0
  1 27  1  0
  2 28  1  0
  2 29  1  0
  3 30  1  0
  3 31  1  0
  4 32  1  0
  4 33  1  0
 11 34  1  0
 13 35  1  0
 15 36  1  0
 16 37  1  0
 18 38  1  0
 18 39  1  0
 19 40  1  0
 19 41  1  0
 23 42  1  0
M  CHG  2  11  -1  22  -1
M  END
>  <UniqueID>  (87) 
87

>  <SMILES>  (87) 
CCCCOC(=O)n1c(C([NH-])=O)cc2ccc(CCC(=O)[O-])cc21

>  <Energy>  (87) 
70.28929466732335

>  <Genealogy>  (87) 
CCCCOC(=O)n1c(C([NH-])=O)cc2ccc(CCC(=O)[O-])cc21 (protonated)
CCCCOC(=O)n1c(C([NH-])=O)cc2ccc(CCC(=O)[O-])cc21 (3D coordinates assigned)
CCCCOC(=O)n1c(C([NH-])=O)cc2ccc(CCC(=O)[O-])cc21 (optimized conformer: 70.28929466732335 kcal/mol)

>  <smiles>  (87) 
CCCCOC(=O)n1c(C(N)=O)cc2ccc(CCC(=O)O)cc21

>  <score_type>  (87) 
oracle

>  <origin>  (87) 
adg

>  <m_score__min__energy>  (87) 
-10.18

>  <m_primary>  (87) 
energy

$$$$
87:0
     RDKit          3D

 34 35  0  0  0  0  0  0  0  0999 V2000
   -3.8030   24.3910  -27.1210 C   0  0  0  0  0  0  0  0  0  0  0  0
   -4.0910   23.0460  -27.7810 C   0  0  0  0  0  0  0  0  0  0  0  0
   -2.9420   22.6210  -28.6990 C   0  0  0  0  0  0  0  0  0  0  0  0
   -3.4340   21.8450  -29.7890 O   0  0  0  0  0  0  0  0  0  0  0  0
   -3.9480   22.4040  -30.9650 C   0  0  0  0  0  0  0  0  0  0  0  0
   -3.1950   22.6130  -31.9540 O   0  0  0  0  0  0  0  0  0  0  0  0
   -5.3460   22.7220  -31.0500 N   0  0  0  0  0  0  0  0  0  0  0  0
   -5.9530   23.8990  -30.7280 C   0  0  0  0  0  0  0  0  0  0  0  0
   -5.2690   25.1640  -30.3890 C   0  0  0  0  0  0  0  0  0  0  0  0
   -3.8670   25.3170  -30.5900 N   0  0  0  0  0  0  0  0  0  0  0  0
   -5.9400   26.1410  -29.9610 O   0  0  0  0  0  0  0  0  0  0  0  0
   -7.3370   23.7810  -30.8400 C   0  0  0  0  0  0  0  0  0  0  0  0
   -7.5610   22.4870  -31.2500 C   0  0  0  0  0  0  0  0  0  0  0  0
   -8.7580   21.8210  -31.4920 C   0  0  0  0  0  0  0  0  0  0  0  0
   -8.6950   20.4680  -31.8670 C   0  0  0  0  0  0  0  0  0  0  0  0
   -7.4450   19.8100  -32.0020 C   0  0  0  0  0  0  0  0  0  0  0  0
   -7.3930   18.3420  -32.3420 C   0  0  0  0  0  0  0  0  0  0  0  0
   -6.9110   18.1550  -33.6260 F   0  0  0  0  0  0  0  0  0  0  0  0
   -8.6670   17.8110  -32.2570 F   0  0  0  0  0  0  0  0  0  0  0  0
   -6.5630   17.6660  -31.4650 F   0  0  0  0  0  0  0  0  0  0  0  0
   -6.2520   20.5160  -31.7210 C   0  0  0  0  0  0  0  0  0  0  0  0
   -6.3440   21.8680  -31.3690 C   0  0  0  0  0  0  0  0  0  0  0  0
   -3.8277   24.2755  -26.0274 H   0  0  0  0  0  0  0  0  0  0  0  0
   -2.8086   24.7456  -27.4299 H   0  0  0  0  0  0  0  0  0  0  0  0
   -4.5651   25.1217  -27.4299 H   0  0  0  0  0  0  0  0  0  0  0  0
   -4.2256   22.2843  -26.9989 H   0  0  0  0  0  0  0  0  0  0  0  0
   -5.0029   23.1447  -28.3882 H   0  0  0  0  0  0  0  0  0  0  0  0
   -2.4409   23.5184  -29.0908 H   0  0  0  0  0  0  0  0  0  0  0  0
   -2.2317   22.0117  -28.1208 H   0  0  0  0  0  0  0  0  0  0  0  0
   -3.4920   26.0490  -31.2330 H   0  0  0  0  0  0  0  0  0  0  0  0
   -8.0905   24.5577  -30.6425 H   0  0  0  0  0  0  0  0  0  0  0  0
   -9.7242   22.3374  -31.3929 H   0  0  0  0  0  0  0  0  0  0  0  0
   -9.6252   19.9128  -32.0580 H   0  0  0  0  0  0  0  0  0  0  0  0
   -5.2746   20.0145  -31.7777 H   0  0  0  0  0  0  0  0  0  0  0  0
  1  2  1  0
  2  3  1  0
  3  4  1  0
  4  5  1  0
  5  6  2  0
  5  7  1  0
  7  8  1  0
  8  9  1  0
  9 10  1  0
  9 11  2  0
  8 12  2  0
 12 13  1  0
 13 14  2  0
 14 15  1  0
 15 16  2  0
 16 17  1  0
 17 18  1  0
 17 19  1  0
 17 20  1  0
 16 21  1  0
 21 22  2  0
 22  7  1  0
 22 13  1  0
  1 23  1  0
  1 24  1  0
  1 25  1  0
  2 26  1  0
  2 27  1  0
  3 28  1  0
  3 29  1  0
 10 30  1  0
 12 31  1  0
 14 32  1  0
 15 33  1  0
 21 34  1  0
M  CHG  1  10  -1
M  END
>  <UniqueID>  (88) 
88

>  <SMILES>  (88) 
CCCOC(=O)n1c(C([NH-])=O)cc2ccc(C(F)(F)F)cc21

>  <Energy>  (88) 
67.85053752660441

>  <Genealogy>  (88) 
CCCOC(=O)n1c(C([NH-])=O)cc2ccc(C(F)(F)F)cc21 (protonated)
CCCOC(=O)n1c(C([NH-])=O)cc2ccc(C(F)(F)F)cc21 (3D coordinates assigned)
CCCOC(=O)n1c(C([NH-])=O)cc2ccc(C(F)(F)F)cc21 (optimized conformer: 67.85053752660441 kcal/mol)

>  <smiles>  (88) 
CCCOC(=O)n1c(C(N)=O)cc2ccc(C(F)(F)F)cc21

>  <score_type>  (88) 
oracle

>  <origin>  (88) 
adg

>  <m_score__min__energy>  (88) 
-9.4399999999999995

>  <m_primary>  (88) 
energy

$$$$
88:0
     RDKit          3D

 28 29  0  0  0  0  0  0  0  0999 V2000
   -3.8430   25.3350  -30.5150 N   0  0  0  0  0  0  0  0  0  0  0  0
   -5.2250   25.1460  -30.2260 C   0  0  0  0  0  0  0  0  0  0  0  0
   -6.0560   26.0490  -30.5130 O   0  0  0  0  0  0  0  0  0  0  0  0
   -5.6820   23.9000  -29.5380 C   0  0  0  0  0  0  0  0  0  0  0  0
   -6.0720   22.8620  -30.5540 C   0  0  0  0  0  0  0  0  0  0  0  0
   -7.4400   22.5970  -30.8080 C   0  0  0  0  0  0  0  0  0  0  0  0
   -7.8180   21.6000  -31.7220 C   0  0  0  0  0  0  0  0  0  0  0  0
   -6.8100   20.8840  -32.3610 C   0  0  0  0  0  0  0  0  0  0  0  0
   -6.8960   19.8510  -33.2650 C   0  0  0  0  0  0  0  0  0  0  0  0
   -5.5790   19.5050  -33.5590 C   0  0  0  0  0  0  0  0  0  0  0  0
   -5.1990   18.4920  -34.5680 C   0  0  0  0  0  0  0  0  0  0  0  0
   -3.8290   18.1410  -34.7690 N   0  0  0  0  0  0  0  0  0  0  0  0
   -6.0880   17.9030  -35.2390 O   0  0  0  0  0  0  0  0  0  0  0  0
   -4.7110   20.2910  -32.8610 N   0  0  0  0  0  0  0  0  0  0  0  0
   -3.2770   20.2000  -32.8350 C   0  0  0  0  0  0  0  0  0  0  0  0
   -2.6910   19.6390  -31.8720 O   0  0  0  0  0  0  0  0  0  0  0  0
   -2.5210   20.7140  -33.8820 O   0  0  0  0  0  0  0  0  0  0  0  0
   -5.4810   21.1310  -32.1320 C   0  0  0  0  0  0  0  0  0  0  0  0
   -5.0760   22.1080  -31.2140 C   0  0  0  0  0  0  0  0  0  0  0  0
   -3.5340   26.0340  -31.2260 H   0  0  0  0  0  0  0  0  0  0  0  0
   -4.8654   23.5089  -28.9133 H   0  0  0  0  0  0  0  0  0  0  0  0
   -6.5541   24.1347  -28.9100 H   0  0  0  0  0  0  0  0  0  0  0  0
   -8.2137   23.1776  -30.2844 H   0  0  0  0  0  0  0  0  0  0  0  0
   -8.8785   21.3913  -31.9266 H   0  0  0  0  0  0  0  0  0  0  0  0
   -7.8112   19.3946  -33.6702 H   0  0  0  0  0  0  0  0  0  0  0  0
   -3.0610   18.6420  -34.2710 H   0  0  0  0  0  0  0  0  0  0  0  0
   -3.5750   17.3960  -35.4560 H   0  0  0  0  0  0  0  0  0  0  0  0
   -4.0091   22.2839  -31.0119 H   0  0  0  0  0  0  0  0  0  0  0  0
  1  2  1  0
  2  3  2  0
  2  4  1  0
  4  5  1  0
  5  6  2  0
  6  7  1  0
  7  8  2  0
  8  9  1  0
  9 10  2  0
 10 11  1  0
 11 12  1  0
 11 13  2  0
 10 14  1  0
 14 15  1  0
 15 16  2  0
 15 17  1  0
 14 18  1  0
 18 19  2  0
 19  5  1  0
 18  8  1  0
  1 20  1  0
  4 21  1  0
  4 22  1  0
  6 23  1  0
  7 24  1  0
  9 25  1  0
 12 26  1  0
 12 27  1  0
 19 28  1  0
M  CHG  2   1  -1  17  -1
M  END
>  <UniqueID>  (89) 
89

>  <SMILES>  (89) 
[NH-]C(=O)Cc1ccc2cc(C(N)=O)n(C(=O)[O-])c2c1

>  <Energy>  (89) 
65.16771997789144

>  <Genealogy>  (89) 
[NH-]C(=O)Cc1ccc2cc(C(N)=O)n(C(=O)[O-])c2c1 (protonated)
[NH-]C(=O)Cc1ccc2cc(C(N)=O)n(C(=O)[O-])c2c1 (3D coordinates assigned)
[NH-]C(=O)Cc1ccc2cc(C(N)=O)n(C(=O)[O-])c2c1 (optimized conformer: 65.16771997789144 kcal/mol)

>  <smiles>  (89) 
NC(=O)Cc1ccc2cc(C(N)=O)n(C(=O)O)c2c1

>  <score_type>  (89) 
oracle

>  <origin>  (89) 
adg

>  <m_score__min__energy>  (89) 
-9.3699999999999992

>  <m_primary>  (89) 
energy

$$$$
89:0
     RDKit          3D

 64 65  0  0  0  0  0  0  0  0999 V2000
   -3.7480   18.5490  -26.0220 C   0  0  0  0  0  0  0  0  0  0  0  0
   -2.3860   19.2390  -26.1100 C   0  0  0  0  0  0  0  0  0  0  0  0
   -2.0340   19.6390  -27.5520 C   0  0  0  0  0  0  0  0  0  0  0  0
   -2.0610   21.1630  -27.7520 C   0  0  0  0  0  0  0  0  0  0  0  0
   -0.9040   21.6530  -28.6380 C   0  0  0  0  0  0  0  0  0  0  0  0
   -0.5900   20.6660  -29.7710 C   0  0  0  0  0  0  0  0  0  0  0  0
   -0.5440   21.3680  -31.1280 C   0  0  0  0  0  0  0  0  0  0  0  0
    0.0650   20.5020  -32.0600 O   0  0  0  0  0  0  0  0  0  0  0  0
   -0.7310   20.4050  -33.2260 C   0  0  0  0  0  0  0  0  0  0  0  0
   -2.1490   19.9670  -32.8370 C   0  0  0  0  0  0  0  0  0  0  0  0
   -3.2410   20.8900  -33.3960 C   0  0  0  0  0  0  0  0  0  0  0  0
   -3.1600   22.2080  -32.7770 N   0  0  0  0  0  0  0  0  0  0  0  0
   -3.7230   22.5420  -31.5090 C   0  0  0  0  0  0  0  0  0  0  0  0
   -2.9830   22.6130  -30.4910 O   0  0  0  0  0  0  0  0  0  0  0  0
   -5.1380   22.7710  -31.3940 N   0  0  0  0  0  0  0  0  0  0  0  0
   -5.7760   23.8900  -30.9400 C   0  0  0  0  0  0  0  0  0  0  0  0
   -5.1400   25.1770  -30.5940 C   0  0  0  0  0  0  0  0  0  0  0  0
   -3.7250   25.2910  -30.4780 N   0  0  0  0  0  0  0  0  0  0  0  0
   -5.8540   26.2040  -30.4440 O   0  0  0  0  0  0  0  0  0  0  0  0
   -7.1550   23.6910  -30.9140 C   0  0  0  0  0  0  0  0  0  0  0  0
   -7.3500   22.4110  -31.3770 C   0  0  0  0  0  0  0  0  0  0  0  0
   -8.5310   21.6860  -31.5400 C   0  0  0  0  0  0  0  0  0  0  0  0
   -8.4350   20.3680  -32.0150 C   0  0  0  0  0  0  0  0  0  0  0  0
   -7.1750   19.8080  -32.3160 C   0  0  0  0  0  0  0  0  0  0  0  0
   -7.0850   18.4760  -32.8500 C   0  0  0  0  0  0  0  0  0  0  0  0
   -6.9950   17.3660  -33.3110 C   0  0  0  0  0  0  0  0  0  0  0  0
   -6.8700   16.0180  -33.8750 C   0  0  0  0  0  0  0  0  0  0  0  0
   -5.6160   15.8750  -34.5140 O   0  0  0  0  0  0  0  0  0  0  0  0
   -4.5830   16.3610  -33.6840 C   0  0  0  0  0  0  0  0  0  0  0  0
   -3.8050   17.3990  -34.4210 C   0  0  0  0  0  0  0  0  0  0  0  0
   -4.4000   18.3730  -34.9510 O   0  0  0  0  0  0  0  0  0  0  0  0
   -2.4190   17.3140  -34.4950 O   0  0  0  0  0  0  0  0  0  0  0  0
   -5.9980   20.5580  -32.1250 C   0  0  0  0  0  0  0  0  0  0  0  0
   -6.1190   21.8760  -31.6640 C   0  0  0  0  0  0  0  0  0  0  0  0
   -4.0213   18.4105  -24.9655 H   0  0  0  0  0  0  0  0  0  0  0  0
   -4.5071   19.1713  -26.5186 H   0  0  0  0  0  0  0  0  0  0  0  0
   -3.6953   17.5689  -26.5186 H   0  0  0  0  0  0  0  0  0  0  0  0
   -2.4057   20.1442  -25.4853 H   0  0  0  0  0  0  0  0  0  0  0  0
   -1.6227   18.5291  -25.7589 H   0  0  0  0  0  0  0  0  0  0  0  0
   -1.0254   19.2682  -27.7868 H   0  0  0  0  0  0  0  0  0  0  0  0
   -2.7874   19.1962  -28.2200 H   0  0  0  0  0  0  0  0  0  0  0  0
   -3.0133   21.4411  -28.2271 H   0  0  0  0  0  0  0  0  0  0  0  0
   -1.9534   21.6352  -26.7643 H   0  0  0  0  0  0  0  0  0  0  0  0
   -1.1796   22.6228  -29.0779 H   0  0  0  0  0  0  0  0  0  0  0  0
   -0.0073   21.7429  -28.0072 H   0  0  0  0  0  0  0  0  0  0  0  0
    0.3865   20.1981  -29.5772 H   0  0  0  0  0  0  0  0  0  0  0  0
   -1.3876   19.9091  -29.8006 H   0  0  0  0  0  0  0  0  0  0  0  0
   -1.5661   21.6072  -31.4567 H   0  0  0  0  0  0  0  0  0  0  0  0
    0.0317   22.3020  -31.0496 H   0  0  0  0  0  0  0  0  0  0  0  0
   -0.7728   21.3845  -33.7249 H   0  0  0  0  0  0  0  0  0  0  0  0
   -0.2919   19.6652  -33.9114 H   0  0  0  0  0  0  0  0  0  0  0  0
   -2.3191   18.9508  -33.2221 H   0  0  0  0  0  0  0  0  0  0  0  0
   -2.2150   20.0091  -31.7398 H   0  0  0  0  0  0  0  0  0  0  0  0
   -3.1079   20.9916  -34.4832 H   0  0  0  0  0  0  0  0  0  0  0  0
   -4.2255   20.4521  -33.1745 H   0  0  0  0  0  0  0  0  0  0  0  0
   -3.0900   24.7190  -31.0740 H   0  0  0  0  0  0  0  0  0  0  0  0
   -7.9252   24.4069  -30.5911 H   0  0  0  0  0  0  0  0  0  0  0  0
   -9.5077   22.1334  -31.3036 H   0  0  0  0  0  0  0  0  0  0  0  0
   -9.3470   19.7687  -32.1532 H   0  0  0  0  0  0  0  0  0  0  0  0
   -6.9539   15.2760  -33.0673 H   0  0  0  0  0  0  0  0  0  0  0  0
   -7.6709   15.8594  -34.6121 H   0  0  0  0  0  0  0  0  0  0  0  0
   -5.0187   16.8040  -32.7763 H   0  0  0  0  0  0  0  0  0  0  0  0
   -3.9167   15.5325  -33.4018 H   0  0  0  0  0  0  0  0  0  0  0  0
   -5.0101   20.1208  -32.3322 H   0  0  0  0  0  0  0  0  0  0  0  0
  1  2  1  0
  2  3  1  0
  3  4  1  0
  4  5  1  0
  5  6  1  0
  6  7  1  0
  7  8  1  0
  8  9  1  0
  9 10  1  0
 10 11  1  0
 11 12  1  0
 12 13  1  0
 13 14  2  0
 13 15  1  0
 15 16  1  0
 16 17  1  0
 17 18  1  0
 17 19  2  0
 16 20  2  0
 20 21  1  0
 21 22  2  0
 22 23  1  0
 23 24  2  0
 24 25  1  0
 25 26  3  0
 26 27  1  0
 27 28  1  0
 28 29  1  0
 29 30  1  0
 30 31  2  0
 30 32  1  0
 24 33  1  0
 33 34  2  0
 34 15  1  0
 34 21  1  0
  1 35  1  0
  1 36  1  0
  1 37  1  0
  2 38  1  0
  2 39  1  0
  3 40  1  0
  3 41  1  0
  4 42  1  0
  4 43  1  0
  5 44  1  0
  5 45  1  0
  6 46  1  0
  6 47  1  0
  7 48  1  0
  7 49  1  0
  9 50  1  0
  9 51  1  0
 10 52  1  0
 10 53  1  0
 11 54  1  0
 11 55  1  0
 18 56  1  0
 20 57  1  0
 22 58  1  0
 23 59  1  0
 27 60  1  0
 27 61  1  0
 29 62  1  0
 29 63  1  0
 33 64  1  0
M  CHG  3  12  -1  18  -1  32  -1
M  END
>  <UniqueID>  (90) 
90

>  <SMILES>  (90) 
CCCCCCCOCCC[N-]C(=O)n1c(C([NH-])=O)cc2ccc(C#CCOCC(=O)[O-])cc21

>  <Energy>  (90) 
76.90449444961263

>  <Genealogy>  (90) 
CCCCCCCOCCC[N-]C(=O)n1c(C([NH-])=O)cc2ccc(C#CCOCC(=O)[O-])cc21 (protonated)
CCCCCCCOCCC[N-]C(=O)n1c(C([NH-])=O)cc2ccc(C#CCOCC(=O)[O-])cc21 (3D coordinates assigned)
CCCCCCCOCCC[N-]C(=O)n1c(C([NH-])=O)cc2ccc(C#CCOCC(=O)[O-])cc21 (optimized conformer: 76.90449444961263 kcal/mol)

>  <smiles>  (90) 
CCCCCCCOCCCNC(=O)n1c(C(N)=O)cc2ccc(C#CCOCC(=O)O)cc21

>  <score_type>  (90) 
oracle

>  <origin>  (90) 
adg

>  <m_score__min__energy>  (90) 
-11.83

>  <m_primary>  (90) 
energy

$$$$
90:0
     RDKit          3D

 43 45  0  0  0  0  0  0  0  0999 V2000
   -2.9820   17.0500  -34.8950 C   0  0  0  0  0  0  0  0  0  0  0  0
   -4.4220   16.6150  -34.6160 C   0  0  0  0  0  0  0  0  0  0  0  0
   -5.0510   17.4300  -33.5540 N   0  0  2  0  0  0  0  0  0  0  0  0
   -5.6690   16.6200  -32.4960 C   0  0  0  0  0  0  0  0  0  0  0  0
   -6.7570   17.4730  -31.8690 C   0  0  0  0  0  0  0  0  0  0  0  0
   -7.1730   18.4500  -32.9690 C   0  0  1  0  0  0  0  0  0  0  0  0
   -7.2610   19.8810  -32.4690 C   0  0  0  0  0  0  0  0  0  0  0  0
   -8.5260   20.5130  -32.3600 C   0  0  0  0  0  0  0  0  0  0  0  0
   -8.6340   21.8370  -31.9020 C   0  0  0  0  0  0  0  0  0  0  0  0
   -7.4630   22.5030  -31.5540 C   0  0  0  0  0  0  0  0  0  0  0  0
   -7.2740   23.7880  -31.0960 C   0  0  0  0  0  0  0  0  0  0  0  0
   -5.8990   23.9160  -30.9120 C   0  0  0  0  0  0  0  0  0  0  0  0
   -5.2570   25.1200  -30.3430 C   0  0  0  0  0  0  0  0  0  0  0  0
   -3.8600   25.3340  -30.5280 N   0  0  0  0  0  0  0  0  0  0  0  0
   -5.9360   25.9780  -29.7220 O   0  0  0  0  0  0  0  0  0  0  0  0
   -5.2630   22.7610  -31.2540 N   0  0  0  0  0  0  0  0  0  0  0  0
   -3.8520   22.4930  -31.2650 C   0  0  0  0  0  0  0  0  0  0  0  0
   -3.0670   22.4650  -29.9910 C   0  0  0  0  0  0  0  0  0  0  0  0
   -3.2520   22.3410  -32.3620 O   0  0  0  0  0  0  0  0  0  0  0  0
   -6.2340   21.9050  -31.6380 C   0  0  0  0  0  0  0  0  0  0  0  0
   -6.0940   20.5940  -32.1000 C   0  0  0  0  0  0  0  0  0  0  0  0
   -6.1320   18.2750  -34.0870 C   0  0  0  0  0  0  0  0  0  0  0  0
   -2.4558   17.2089  -33.9422 H   0  0  0  0  0  0  0  0  0  0  0  0
   -2.4677   16.2671  -35.4717 H   0  0  0  0  0  0  0  0  0  0  0  0
   -2.9871   17.9867  -35.4717 H   0  0  0  0  0  0  0  0  0  0  0  0
   -5.0101   16.7202  -35.5396 H   0  0  0  0  0  0  0  0  0  0  0  0
   -4.4011   15.5695  -34.2746 H   0  0  0  0  0  0  0  0  0  0  0  0
   -4.3270   18.0550  -33.1230 H   0  0  0  0  0  0  0  0  0  0  0  0
   -6.1048   15.7056  -32.9250 H   0  0  0  0  0  0  0  0  0  0  0  0
   -4.9242   16.3164  -31.7457 H   0  0  0  0  0  0  0  0  0  0  0  0
   -7.6096   16.8492  -31.5626 H   0  0  0  0  0  0  0  0  0  0  0  0
   -6.4069   17.9920  -30.9645 H   0  0  0  0  0  0  0  0  0  0  0  0
   -8.1875   18.2341  -33.3352 H   0  0  0  0  0  0  0  0  0  0  0  0
   -9.4349   19.9592  -32.6378 H   0  0  0  0  0  0  0  0  0  0  0  0
   -9.6133   22.3313  -31.8211 H   0  0  0  0  0  0  0  0  0  0  0  0
   -8.0450   24.5512  -30.9141 H   0  0  0  0  0  0  0  0  0  0  0  0
   -3.5110   26.0350  -31.2180 H   0  0  0  0  0  0  0  0  0  0  0  0
   -3.7569   22.4896  -29.1346 H   0  0  0  0  0  0  0  0  0  0  0  0
   -2.4656   21.5448  -29.9510 H   0  0  0  0  0  0  0  0  0  0  0  0
   -2.4016   23.3400  -29.9510 H   0  0  0  0  0  0  0  0  0  0  0  0
   -5.1011   20.1266  -32.1754 H   0  0  0  0  0  0  0  0  0  0  0  0
   -6.5945   17.7885  -34.9585 H   0  0  0  0  0  0  0  0  0  0  0  0
   -5.7394   19.2511  -34.4082 H   0  0  0  0  0  0  0  0  0  0  0  0
  1  2  1  0
  2  3  1  0
  3  4  1  0
  4  5  1  0
  5  6  1  0
  6  7  1  0
  7  8  2  0
  8  9  1  0
  9 10  2  0
 10 11  1  0
 11 12  2  0
 12 13  1  0
 13 14  1  0
 13 15  2  0
 12 16  1  0
 16 17  1  0
 17 18  1  0
 17 19  2  0
 16 20  1  0
 20 21  2  0
  6 22  1  0
 22  3  1  0
 21  7  1  0
 20 10  1  0
  1 23  1  0
  1 24  1  0
  1 25  1  0
  2 26  1  0
  2 27  1  0
  3 28  1  1
  4 29  1  0
  4 30  1  0
  5 31  1  0
  5 32  1  0
  6 33  1  6
  8 34  1  0
  9 35  1  0
 11 36  1  0
 14 37  1  0
 18 38  1  0
 18 39  1  0
 18 40  1  0
 21 41  1  0
 22 42  1  0
 22 43  1  0
M  CHG  2   3   1  14  -1
M  END
>  <UniqueID>  (91) 
91

>  <SMILES>  (91) 
CC[N@@H+]1CC[C@@H](c2ccc3cc(C([NH-])=O)n(C(C)=O)c3c2)C1

>  <Energy>  (91) 
85.59193383113531

>  <Genealogy>  (91) 
CC[NH+]1CC[C@@H](c2ccc3cc(C([NH-])=O)n(C(C)=O)c3c2)C1 (protonated)
CC[N@@H+]1CC[C@@H](c2ccc3cc(C([NH-])=O)n(C(C)=O)c3c2)C1 (chirality)
CC[N@@H+]1CC[C@@H](c2ccc3cc(C([NH-])=O)n(C(C)=O)c3c2)C1 (3D coordinates assigned)
CC[N@@H+]1CC[C@@H](c2ccc3cc(C([NH-])=O)n(C(C)=O)c3c2)C1 (nonaromatic ring conformer: 85.59193383113531 kcal/mol)

>  <smiles>  (91) 
CCN1CC[C@@H](c2ccc3cc(C(N)=O)n(C(C)=O)c3c2)C1

>  <score_type>  (91) 
oracle

>  <origin>  (91) 
adg

>  <m_score__min__energy>  (91) 
-10.640000000000001

>  <m_primary>  (91) 
energy

$$$$
91:0
     RDKit          3D

 40 41  0  0  0  0  0  0  0  0999 V2000
   -5.5490   16.7600  -34.0650 C   0  0  0  0  0  0  0  0  0  0  0  0
   -6.7180   16.9990  -33.1230 C   0  0  0  0  0  0  0  0  0  0  0  0
   -7.3740   18.2120  -33.4780 O   0  0  0  0  0  0  0  0  0  0  0  0
   -7.9340   19.0720  -32.5280 C   0  0  0  0  0  0  0  0  0  0  0  0
   -8.6680   18.6160  -31.6080 O   0  0  0  0  0  0  0  0  0  0  0  0
   -7.5980   20.5380  -32.5830 C   0  0  1  0  0  0  0  0  0  0  0  0
   -8.6220   21.3930  -31.8270 C   0  0  0  0  0  0  0  0  0  0  0  0
   -6.1930   20.7800  -32.0710 C   0  0  0  0  0  0  0  0  0  0  0  0
   -5.1970   19.7700  -32.1740 C   0  0  0  0  0  0  0  0  0  0  0  0
   -3.8920   20.0000  -31.7120 C   0  0  0  0  0  0  0  0  0  0  0  0
   -3.6070   21.2370  -31.1460 C   0  0  0  0  0  0  0  0  0  0  0  0
   -2.4240   21.7310  -30.6460 C   0  0  0  0  0  0  0  0  0  0  0  0
   -2.7140   23.0250  -30.2210 C   0  0  0  0  0  0  0  0  0  0  0  0
   -1.7340   23.8930  -29.5340 C   0  0  0  0  0  0  0  0  0  0  0  0
   -1.9950   25.2790  -29.3330 N   0  0  0  0  0  0  0  0  0  0  0  0
   -0.6720   23.3930  -29.0770 O   0  0  0  0  0  0  0  0  0  0  0  0
   -4.0230   23.3250  -30.4570 N   0  0  0  0  0  0  0  0  0  0  0  0
   -4.6950   24.5760  -30.2450 C   0  0  0  0  0  0  0  0  0  0  0  0
   -4.3300   25.6030  -30.8790 O   0  0  0  0  0  0  0  0  0  0  0  0
   -5.7670   24.6440  -29.3500 O   0  0  0  0  0  0  0  0  0  0  0  0
   -6.7620   25.6580  -29.4200 C   0  0  0  0  0  0  0  0  0  0  0  0
   -4.5570   22.2180  -31.0210 C   0  0  0  0  0  0  0  0  0  0  0  0
   -5.8610   22.0250  -31.4900 C   0  0  0  0  0  0  0  0  0  0  0  0
   -4.6374   16.5736  -33.4782 H   0  0  0  0  0  0  0  0  0  0  0  0
   -5.7617   15.8868  -34.6992 H   0  0  0  0  0  0  0  0  0  0  0  0
   -5.4019   17.6467  -34.6992 H   0  0  0  0  0  0  0  0  0  0  0  0
   -7.4279   16.1622  -33.2000 H   0  0  0  0  0  0  0  0  0  0  0  0
   -6.3472   17.0717  -32.0899 H   0  0  0  0  0  0  0  0  0  0  0  0
   -7.6422   20.8499  -33.6369 H   0  0  0  0  0  0  0  0  0  0  0  0
   -8.4744   21.2697  -30.7439 H   0  0  0  0  0  0  0  0  0  0  0  0
   -8.4875   22.4507  -32.0974 H   0  0  0  0  0  0  0  0  0  0  0  0
   -9.6388   21.0719  -32.0974 H   0  0  0  0  0  0  0  0  0  0  0  0
   -5.4524   18.7978  -32.6207 H   0  0  0  0  0  0  0  0  0  0  0  0
   -3.1171   19.2238  -31.7954 H   0  0  0  0  0  0  0  0  0  0  0  0
   -1.4548   21.2135  -30.5932 H   0  0  0  0  0  0  0  0  0  0  0  0
   -2.9720   25.6480  -29.3360 H   0  0  0  0  0  0  0  0  0  0  0  0
   -7.0542   25.9558  -28.4022 H   0  0  0  0  0  0  0  0  0  0  0  0
   -6.3596   26.5302  -29.9560 H   0  0  0  0  0  0  0  0  0  0  0  0
   -7.6417   25.2721  -29.9560 H   0  0  0  0  0  0  0  0  0  0  0  0
   -6.6116   22.8249  -31.4083 H   0  0  0  0  0  0  0  0  0  0  0  0
  1  2  1  0
  2  3  1  0
  3  4  1  0
  4  5  2  0
  4  6  1  0
  6  7  1  0
  6  8  1  0
  8  9  2  0
  9 10  1  0
 10 11  2  0
 11 12  1  0
 12 13  2  0
 13 14  1  0
 14 15  1  0
 14 16  2  0
 13 17  1  0
 17 18  1  0
 18 19  2  0
 18 20  1  0
 20 21  1  0
 17 22  1  0
 22 23  2  0
 23  8  1  0
 22 11  1  0
  1 24  1  0
  1 25  1  0
  1 26  1  0
  2 27  1  0
  2 28  1  0
  6 29  1  6
  7 30  1  0
  7 31  1  0
  7 32  1  0
  9 33  1  0
 10 34  1  0
 12 35  1  0
 15 36  1  0
 21 37  1  0
 21 38  1  0
 21 39  1  0
 23 40  1  0
M  CHG  1  15  -1
M  END
>  <UniqueID>  (92) 
92

>  <SMILES>  (92) 
CCOC(=O)[C@@H](C)c1ccc2cc(C([NH-])=O)n(C(=O)OC)c2c1

>  <Energy>  (92) 
70.4480371458096

>  <Genealogy>  (92) 
CCOC(=O)C(C)c1ccc2cc(C([NH-])=O)n(C(=O)OC)c2c1 (protonated)
CCOC(=O)[C@@H](C)c1ccc2cc(C([NH-])=O)n(C(=O)OC)c2c1 (chirality)
CCOC(=O)[C@@H](C)c1ccc2cc(C([NH-])=O)n(C(=O)OC)c2c1 (3D coordinates assigned)
CCOC(=O)[C@@H](C)c1ccc2cc(C([NH-])=O)n(C(=O)OC)c2c1 (optimized conformer: 70.4480371458096 kcal/mol)

>  <smiles>  (92) 
CCOC(=O)C(C)c1ccc2cc(C(N)=O)n(C(=O)OC)c2c1

>  <score_type>  (92) 
oracle

>  <origin>  (92) 
adg

>  <m_score__min__energy>  (92) 
-10.15

>  <m_primary>  (92) 
energy

$$$$
92:0
     RDKit          3D

 46 48  0  0  0  0  0  0  0  0999 V2000
   -3.0610   21.3870  -28.9720 C   0  0  0  0  0  0  0  0  0  0  0  0
   -3.7610   21.3120  -30.2060 O   0  0  0  0  0  0  0  0  0  0  0  0
   -4.0750   22.4430  -30.9650 C   0  0  0  0  0  0  0  0  0  0  0  0
   -3.1690   23.0740  -31.5750 O   0  0  0  0  0  0  0  0  0  0  0  0
   -5.4350   22.8940  -31.0370 N   0  0  0  0  0  0  0  0  0  0  0  0
   -5.9260   24.1360  -30.7630 C   0  0  0  0  0  0  0  0  0  0  0  0
   -5.1260   25.3350  -30.4340 C   0  0  0  0  0  0  0  0  0  0  0  0
   -3.7050   25.2710  -30.3550 N   0  0  0  0  0  0  0  0  0  0  0  0
   -5.7030   26.4420  -30.2660 O   0  0  0  0  0  0  0  0  0  0  0  0
   -7.3110   24.1570  -30.9170 C   0  0  0  0  0  0  0  0  0  0  0  0
   -7.6550   22.8830  -31.3070 C   0  0  0  0  0  0  0  0  0  0  0  0
   -8.9020   22.3430  -31.6070 C   0  0  0  0  0  0  0  0  0  0  0  0
   -8.9640   20.9870  -31.9660 C   0  0  0  0  0  0  0  0  0  0  0  0
   -7.7890   20.1950  -31.9990 C   0  0  0  0  0  0  0  0  0  0  0  0
   -7.8690   18.7400  -32.3850 C   0  0  0  0  0  0  0  0  0  0  0  0
   -6.5680   18.0060  -32.0580 C   0  0  0  0  0  0  0  0  0  0  0  0
   -6.3690   16.9650  -32.9820 O   0  0  0  0  0  0  0  0  0  0  0  0
   -5.0260   16.8420  -33.1380 N   0  0  0  0  0  0  0  0  0  0  0  0
   -4.5780   17.7920  -34.5160 S   0  0  0  0  0  0  0  0  0  0  0  0
   -5.7640   18.5990  -34.9610 O   0  0  0  0  0  0  0  0  0  0  0  0
   -4.1680   16.8830  -35.6410 O   0  0  0  0  0  0  0  0  0  0  0  0
   -3.2370   18.8650  -34.1160 C   0  0  0  0  0  0  0  0  0  0  0  0
   -1.9160   18.4130  -34.2510 C   0  0  0  0  0  0  0  0  0  0  0  0
   -0.8470   19.2630  -33.9500 C   0  0  0  0  0  0  0  0  0  0  0  0
   -1.0930   20.5700  -33.5160 C   0  0  0  0  0  0  0  0  0  0  0  0
   -2.4070   21.0230  -33.3730 C   0  0  0  0  0  0  0  0  0  0  0  0
   -3.4780   20.1720  -33.6670 C   0  0  0  0  0  0  0  0  0  0  0  0
   -6.5390   20.7800  -31.6970 C   0  0  0  0  0  0  0  0  0  0  0  0
   -6.5050   22.1390  -31.3690 C   0  0  0  0  0  0  0  0  0  0  0  0
   -3.7760   21.3104  -28.1396 H   0  0  0  0  0  0  0  0  0  0  0  0
   -2.3368   20.5613  -28.9105 H   0  0  0  0  0  0  0  0  0  0  0  0
   -2.5282   22.3474  -28.9105 H   0  0  0  0  0  0  0  0  0  0  0  0
   -3.1200   25.2340  -31.2210 H   0  0  0  0  0  0  0  0  0  0  0  0
   -7.9862   25.0111  -30.7600 H   0  0  0  0  0  0  0  0  0  0  0  0
   -9.8117   22.9599  -31.5642 H   0  0  0  0  0  0  0  0  0  0  0  0
   -9.9332   20.5352  -32.2240 H   0  0  0  0  0  0  0  0  0  0  0  0
   -8.6952   18.2678  -31.8332 H   0  0  0  0  0  0  0  0  0  0  0  0
   -8.0396   18.6775  -33.4699 H   0  0  0  0  0  0  0  0  0  0  0  0
   -5.7257   18.7113  -32.1140 H   0  0  0  0  0  0  0  0  0  0  0  0
   -6.6302   17.5867  -31.0429 H   0  0  0  0  0  0  0  0  0  0  0  0
   -1.7202   17.3866  -34.5947 H   0  0  0  0  0  0  0  0  0  0  0  0
    0.1874   18.9038  -34.0545 H   0  0  0  0  0  0  0  0  0  0  0  0
   -0.2519   21.2411  -33.2873 H   0  0  0  0  0  0  0  0  0  0  0  0
   -2.5997   22.0499  -33.0289 H   0  0  0  0  0  0  0  0  0  0  0  0
   -4.5115   20.5287  -33.5458 H   0  0  0  0  0  0  0  0  0  0  0  0
   -5.6161   20.1818  -31.7193 H   0  0  0  0  0  0  0  0  0  0  0  0
  1  2  1  0
  2  3  1  0
  3  4  2  0
  3  5  1  0
  5  6  1  0
  6  7  1  0
  7  8  1  0
  7  9  2  0
  6 10  2  0
 10 11  1  0
 11 12  2  0
 12 13  1  0
 13 14  2  0
 14 15  1  0
 15 16  1  0
 16 17  1  0
 17 18  1  0
 18 19  1  0
 19 20  2  0
 19 21  2  0
 19 22  1  0
 22 23  2  0
 23 24  1  0
 24 25  2  0
 25 26  1  0
 26 27  2  0
 14 28  1  0
 28 29  2  0
 29  5  1  0
 29 11  1  0
 27 22  1  0
  1 30  1  0
  1 31  1  0
  1 32  1  0
  8 33  1  0
 10 34  1  0
 12 35  1  0
 13 36  1  0
 15 37  1  0
 15 38  1  0
 16 39  1  0
 16 40  1  0
 23 41  1  0
 24 42  1  0
 25 43  1  0
 26 44  1  0
 27 45  1  0
 28 46  1  0
M  CHG  2   8  -1  18  -1
M  END
>  <UniqueID>  (93) 
93

>  <SMILES>  (93) 
COC(=O)n1c(C([NH-])=O)cc2ccc(CCO[N-]S(=O)(=O)c3ccccc3)cc21

>  <Energy>  (93) 
78.63627818275391

>  <Genealogy>  (93) 
COC(=O)n1c(C([NH-])=O)cc2ccc(CCO[N-]S(=O)(=O)c3ccccc3)cc21 (protonated)
COC(=O)n1c(C([NH-])=O)cc2ccc(CCO[N-]S(=O)(=O)c3ccccc3)cc21 (3D coordinates assigned)
COC(=O)n1c(C([NH-])=O)cc2ccc(CCO[N-]S(=O)(=O)c3ccccc3)cc21 (optimized conformer: 78.63627818275391 kcal/mol)

>  <smiles>  (93) 
COC(=O)n1c(C(N)=O)cc2ccc(CCONS(=O)(=O)c3ccccc3)cc21

>  <score_type>  (93) 
oracle

>  <origin>  (93) 
adg

>  <m_score__min__energy>  (93) 
-10.800000000000001

>  <m_primary>  (93) 
energy

$$$$
93:0
     RDKit          3D

 46 47  0  0  0  0  0  0  0  0999 V2000
   -3.6200   21.5590  -30.3250 C   0  0  0  0  0  0  0  0  0  0  0  0
   -3.1500   22.7440  -30.7200 C   0  0  0  0  0  0  0  0  0  0  0  0
   -3.1890   23.9430  -29.8200 C   0  0  0  0  0  0  0  0  0  0  0  0
   -3.8220   25.0280  -30.4890 O   0  0  0  0  0  0  0  0  0  0  0  0
   -5.2030   25.2400  -30.4440 C   0  0  0  0  0  0  0  0  0  0  0  0
   -5.6740   26.4100  -30.4780 O   0  0  0  0  0  0  0  0  0  0  0  0
   -6.1320   24.0660  -30.3610 C   0  0  0  0  0  0  0  0  0  0  0  0
   -6.8890   23.8380  -31.6740 C   0  0  0  0  0  0  0  0  0  0  0  0
   -7.2350   22.3870  -31.8750 C   0  0  0  0  0  0  0  0  0  0  0  0
   -8.4470   21.8640  -31.3630 C   0  0  0  0  0  0  0  0  0  0  0  0
   -8.7520   20.4980  -31.4990 C   0  0  0  0  0  0  0  0  0  0  0  0
   -7.8260   19.6830  -32.1440 C   0  0  0  0  0  0  0  0  0  0  0  0
   -7.8530   18.3280  -32.3730 C   0  0  0  0  0  0  0  0  0  0  0  0
   -6.6660   18.0470  -33.0420 C   0  0  0  0  0  0  0  0  0  0  0  0
   -6.3200   16.7020  -33.5420 C   0  0  0  0  0  0  0  0  0  0  0  0
   -4.9620   16.2510  -33.5540 N   0  0  0  0  0  0  0  0  0  0  0  0
   -7.2270   15.9600  -34.0120 O   0  0  0  0  0  0  0  0  0  0  0  0
   -5.9220   19.1770  -33.2110 N   0  0  0  0  0  0  0  0  0  0  0  0
   -4.5880   19.2670  -33.7460 C   0  0  0  0  0  0  0  0  0  0  0  0
   -4.2220   18.5030  -34.6850 O   0  0  0  0  0  0  0  0  0  0  0  0
   -3.6900   20.1890  -33.2080 O   0  0  0  0  0  0  0  0  0  0  0  0
   -2.2960   19.9260  -33.0800 C   0  0  0  0  0  0  0  0  0  0  0  0
   -1.5240   21.1770  -33.3640 C   0  0  0  0  0  0  0  0  0  0  0  0
   -0.5070   21.1840  -34.2290 C   0  0  0  0  0  0  0  0  0  0  0  0
   -6.6510   20.1740  -32.6580 C   0  0  0  0  0  0  0  0  0  0  0  0
   -6.3190   21.5290  -32.5250 C   0  0  0  0  0  0  0  0  0  0  0  0
   -3.5787   20.6962  -31.0061 H   0  0  0  0  0  0  0  0  0  0  0  0
   -4.0487   21.4451  -29.3184 H   0  0  0  0  0  0  0  0  0  0  0  0
   -2.7241   22.8436  -31.7293 H   0  0  0  0  0  0  0  0  0  0  0  0
   -3.7532   23.6970  -28.9083 H   0  0  0  0  0  0  0  0  0  0  0  0
   -2.1612   24.2306  -29.5537 H   0  0  0  0  0  0  0  0  0  0  0  0
   -5.5455   23.1650  -30.1283 H   0  0  0  0  0  0  0  0  0  0  0  0
   -6.8721   24.2737  -29.5741 H   0  0  0  0  0  0  0  0  0  0  0  0
   -7.8182   24.4264  -31.6561 H   0  0  0  0  0  0  0  0  0  0  0  0
   -6.2379   24.1523  -32.5031 H   0  0  0  0  0  0  0  0  0  0  0  0
   -9.1568   22.5326  -30.8540 H   0  0  0  0  0  0  0  0  0  0  0  0
   -9.6938   20.0860  -31.1075 H   0  0  0  0  0  0  0  0  0  0  0  0
   -8.6436   17.6181  -32.0884 H   0  0  0  0  0  0  0  0  0  0  0  0
   -4.7270   15.3030  -33.9220 H   0  0  0  0  0  0  0  0  0  0  0  0
   -4.1830   16.8820  -33.2630 H   0  0  0  0  0  0  0  0  0  0  0  0
   -2.0795   19.5859  -32.0566 H   0  0  0  0  0  0  0  0  0  0  0  0
   -2.0032   19.1439  -33.7959 H   0  0  0  0  0  0  0  0  0  0  0  0
   -1.8003   22.1092  -32.8496 H   0  0  0  0  0  0  0  0  0  0  0  0
    0.0452   22.1157  -34.4211 H   0  0  0  0  0  0  0  0  0  0  0  0
   -0.2213   20.2580  -34.7495 H   0  0  0  0  0  0  0  0  0  0  0  0
   -5.3671   21.9160  -32.9176 H   0  0  0  0  0  0  0  0  0  0  0  0
  1  2  2  0
  2  3  1  0
  3  4  1  0
  4  5  1  0
  5  6  2  0
  5  7  1  0
  7  8  1  0
  8  9  1  0
  9 10  2  0
 10 11  1  0
 11 12  2  0
 12 13  1  0
 13 14  2  0
 14 15  1  0
 15 16  1  0
 15 17  2  0
 14 18  1  0
 18 19  1  0
 19 20  2  0
 19 21  1  0
 21 22  1  0
 22 23  1  0
 23 24  2  0
 18 25  1  0
 25 26  2  0
 26  9  1  0
 25 12  1  0
  1 27  1  0
  1 28  1  0
  2 29  1  0
  3 30  1  0
  3 31  1  0
  7 32  1  0
  7 33  1  0
  8 34  1  0
  8 35  1  0
 10 36  1  0
 11 37  1  0
 13 38  1  0
 16 39  1  0
 16 40  1  0
 22 41  1  0
 22 42  1  0
 23 43  1  0
 24 44  1  0
 24 45  1  0
 26 46  1  0
M  END
>  <UniqueID>  (94) 
94

>  <SMILES>  (94) 
C=CCOC(=O)CCc1ccc2cc(C(N)=O)n(C(=O)OCC=C)c2c1

>  <Energy>  (94) 
70.26796284553313

>  <Genealogy>  (94) 
C=CCOC(=O)CCc1ccc2cc(C(N)=O)n(C(=O)OCC=C)c2c1 (3D coordinates assigned)
C=CCOC(=O)CCc1ccc2cc(C(N)=O)n(C(=O)OCC=C)c2c1 (optimized conformer: 70.26796284553313 kcal/mol)

>  <smiles>  (94) 
C=CCOC(=O)CCc1ccc2cc(C(N)=O)n(C(=O)OCC=C)c2c1

>  <score_type>  (94) 
oracle

>  <origin>  (94) 
adg

>  <m_score__min__energy>  (94) 
-8.1500000000000004

>  <m_primary>  (94) 
energy

$$$$
94:0
     RDKit          3D

 43 45  0  0  0  0  0  0  0  0999 V2000
   -6.1150   25.6650  -29.0730 N   0  0  0  0  0  0  0  0  0  0  0  0
   -5.6940   25.0950  -30.3130 C   0  0  0  0  0  0  0  0  0  0  0  0
   -4.8150   25.6840  -30.9970 O   0  0  0  0  0  0  0  0  0  0  0  0
   -6.2190   23.7940  -30.7730 C   0  0  0  0  0  0  0  0  0  0  0  0
   -7.5690   23.4550  -30.7240 C   0  0  0  0  0  0  0  0  0  0  0  0
   -7.6490   22.2070  -31.3000 C   0  0  0  0  0  0  0  0  0  0  0  0
   -8.7560   21.3870  -31.5020 C   0  0  0  0  0  0  0  0  0  0  0  0
   -8.5440   20.1280  -32.0880 C   0  0  0  0  0  0  0  0  0  0  0  0
   -7.2400   19.7190  -32.4500 C   0  0  0  0  0  0  0  0  0  0  0  0
   -7.0310   18.4230  -33.0370 C   0  0  0  0  0  0  0  0  0  0  0  0
   -6.8420   17.3390  -33.5310 C   0  0  0  0  0  0  0  0  0  0  0  0
   -6.5960   16.0160  -34.1280 C   0  0  0  0  0  0  0  0  0  0  0  0
   -5.1980   15.5700  -33.9440 N   0  0  0  0  0  0  0  0  0  0  0  0
   -5.0860   14.1930  -33.3940 C   0  0  0  0  0  0  0  0  0  0  0  0
   -3.6460   13.7070  -33.1410 C   0  0  0  0  0  0  0  0  0  0  0  0
   -2.7230   14.8460  -32.6780 C   0  0  0  0  0  0  0  0  0  0  0  0
   -2.2060   15.5880  -33.7620 O   0  0  0  0  0  0  0  0  0  0  0  0
   -2.9780   16.7490  -33.9990 C   0  0  0  0  0  0  0  0  0  0  0  0
   -4.3550   16.6240  -33.3320 C   0  0  0  0  0  0  0  0  0  0  0  0
   -6.1390   20.5720  -32.2300 C   0  0  0  0  0  0  0  0  0  0  0  0
   -6.3810   21.8290  -31.6630 C   0  0  0  0  0  0  0  0  0  0  0  0
   -5.4880   22.7940  -31.3410 N   0  0  0  0  0  0  0  0  0  0  0  0
   -4.0550   22.7180  -31.4550 C   0  0  0  0  0  0  0  0  0  0  0  0
   -3.5170   21.8180  -32.1510 O   0  0  0  0  0  0  0  0  0  0  0  0
   -3.2490   23.6360  -30.7920 O   0  0  0  0  0  0  0  0  0  0  0  0
   -5.7610   26.6020  -28.7800 H   0  0  0  0  0  0  0  0  0  0  0  0
   -6.7130   25.1270  -28.4070 H   0  0  0  0  0  0  0  0  0  0  0  0
   -8.3941   24.0554  -30.3133 H   0  0  0  0  0  0  0  0  0  0  0  0
   -9.7651   21.7148  -31.2118 H   0  0  0  0  0  0  0  0  0  0  0  0
   -9.3971   19.4568  -32.2661 H   0  0  0  0  0  0  0  0  0  0  0  0
   -7.2665   15.2837  -33.6545 H   0  0  0  0  0  0  0  0  0  0  0  0
   -6.7858   16.0932  -35.2087 H   0  0  0  0  0  0  0  0  0  0  0  0
   -5.6292   14.1624  -32.4380 H   0  0  0  0  0  0  0  0  0  0  0  0
   -5.5067   13.5223  -34.1576 H   0  0  0  0  0  0  0  0  0  0  0  0
   -3.6659   12.9287  -32.3639 H   0  0  0  0  0  0  0  0  0  0  0  0
   -3.2498   13.3148  -34.0893 H   0  0  0  0  0  0  0  0  0  0  0  0
   -3.2951   15.5228  -32.0264 H   0  0  0  0  0  0  0  0  0  0  0  0
   -1.8745   14.3960  -32.1418 H   0  0  0  0  0  0  0  0  0  0  0  0
   -2.4535   17.6231  -33.5857 H   0  0  0  0  0  0  0  0  0  0  0  0
   -3.1174   16.8684  -35.0836 H   0  0  0  0  0  0  0  0  0  0  0  0
   -4.2095   16.3837  -32.2685 H   0  0  0  0  0  0  0  0  0  0  0  0
   -4.8758   17.5834  -33.4670 H   0  0  0  0  0  0  0  0  0  0  0  0
   -5.1188   20.2587  -32.4963 H   0  0  0  0  0  0  0  0  0  0  0  0
  1  2  1  0
  2  3  2  0
  2  4  1  0
  4  5  2  0
  5  6  1  0
  6  7  2  0
  7  8  1  0
  8  9  2  0
  9 10  1  0
 10 11  3  0
 11 12  1  0
 12 13  1  0
 13 14  1  0
 14 15  1  0
 15 16  1  0
 16 17  1  0
 17 18  1  0
 18 19  1  0
  9 20  1  0
 20 21  2  0
 21 22  1  0
 22 23  1  0
 23 24  2  0
 23 25  1  0
 22  4  1  0
 21  6  1  0
 19 13  1  0
  1 26  1  0
  1 27  1  0
  5 28  1  0
  7 29  1  0
  8 30  1  0
 12 31  1  0
 12 32  1  0
 14 33  1  0
 14 34  1  0
 15 35  1  0
 15 36  1  0
 16 37  1  0
 16 38  1  0
 18 39  1  0
 18 40  1  0
 19 41  1  0
 19 42  1  0
 20 43  1  0
M  CHG  1  25  -1
M  END
>  <UniqueID>  (95) 
95

>  <SMILES>  (95) 
NC(=O)c1cc2ccc(C#CCN3CCCOCC3)cc2n1C(=O)[O-]

>  <Energy>  (95) 
93.96844483010327

>  <Genealogy>  (95) 
NC(=O)c1cc2ccc(C#CCN3CCCOCC3)cc2n1C(=O)[O-] (protonated)
NC(=O)c1cc2ccc(C#CCN3CCCOCC3)cc2n1C(=O)[O-] (3D coordinates assigned)
NC(=O)c1cc2ccc(C#CCN3CCCOCC3)cc2n1C(=O)[O-] (nonaromatic ring conformer: 93.96844483010327 kcal/mol)

>  <smiles>  (95) 
NC(=O)c1cc2ccc(C#CCN3CCCOCC3)cc2n1C(=O)O

>  <score_type>  (95) 
oracle

>  <origin>  (95) 
adg

>  <m_score__min__energy>  (95) 
-7.71

>  <m_primary>  (95) 
energy

$$$$
95:0
     RDKit          3D

 31 32  0  0  0  0  0  0  0  0999 V2000
   -3.6810   25.2990  -30.4730 N   0  0  0  0  0  0  0  0  0  0  0  0
   -5.1040   25.3040  -30.5490 C   0  0  0  0  0  0  0  0  0  0  0  0
   -5.7250   26.3910  -30.4160 O   0  0  0  0  0  0  0  0  0  0  0  0
   -5.8550   24.0590  -30.8180 C   0  0  0  0  0  0  0  0  0  0  0  0
   -7.2450   23.9990  -30.9160 C   0  0  0  0  0  0  0  0  0  0  0  0
   -7.5310   22.6920  -31.2420 C   0  0  0  0  0  0  0  0  0  0  0  0
   -8.7550   22.0690  -31.4650 C   0  0  0  0  0  0  0  0  0  0  0  0
   -8.7500   20.6970  -31.7720 C   0  0  0  0  0  0  0  0  0  0  0  0
   -7.5320   19.9700  -31.8290 C   0  0  0  0  0  0  0  0  0  0  0  0
   -7.5350   18.5090  -32.2000 C   0  0  0  0  0  0  0  0  0  0  0  0
   -6.7810   17.7760  -31.3010 F   0  0  0  0  0  0  0  0  0  0  0  0
   -7.0020   18.3250  -33.4640 F   0  0  0  0  0  0  0  0  0  0  0  0
   -8.8350   18.0390  -32.1860 F   0  0  0  0  0  0  0  0  0  0  0  0
   -6.3060   20.6470  -31.6210 C   0  0  0  0  0  0  0  0  0  0  0  0
   -6.3450   22.0140  -31.3280 C   0  0  0  0  0  0  0  0  0  0  0  0
   -5.3090   22.8370  -31.0680 N   0  0  0  0  0  0  0  0  0  0  0  0
   -3.9300   22.4510  -30.9940 C   0  0  0  0  0  0  0  0  0  0  0  0
   -3.1750   22.6410  -31.9850 O   0  0  0  0  0  0  0  0  0  0  0  0
   -3.4070   21.7210  -29.7920 C   0  0  0  0  0  0  0  0  0  0  0  0
   -2.5990   22.6570  -28.8940 C   0  0  0  0  0  0  0  0  0  0  0  0
   -1.7990   23.5020  -29.6760 O   0  0  0  0  0  0  0  0  0  0  0  0
   -3.1150   24.6320  -31.0440 H   0  0  0  0  0  0  0  0  0  0  0  0
   -7.9605   24.8208  -30.7650 H   0  0  0  0  0  0  0  0  0  0  0  0
   -9.6976   22.6326  -31.4030 H   0  0  0  0  0  0  0  0  0  0  0  0
   -9.7009   20.1809  -31.9703 H   0  0  0  0  0  0  0  0  0  0  0  0
   -5.3475   20.1116  -31.6881 H   0  0  0  0  0  0  0  0  0  0  0  0
   -4.2546   21.3158  -29.2198 H   0  0  0  0  0  0  0  0  0  0  0  0
   -2.7498   20.9076  -30.1334 H   0  0  0  0  0  0  0  0  0  0  0  0
   -3.2875   23.2650  -28.2888 H   0  0  0  0  0  0  0  0  0  0  0  0
   -1.9534   22.0568  -28.2360 H   0  0  0  0  0  0  0  0  0  0  0  0
   -2.3950   23.8760  -30.3750 H   0  0  0  0  0  0  0  0  0  0  0  0
  1  2  1  0
  2  3  2  0
  2  4  1  0
  4  5  2  0
  5  6  1  0
  6  7  2  0
  7  8  1  0
  8  9  2  0
  9 10  1  0
 10 11  1  0
 10 12  1  0
 10 13  1  0
  9 14  1  0
 14 15  2  0
 15 16  1  0
 16 17  1  0
 17 18  2  0
 17 19  1  0
 19 20  1  0
 20 21  1  0
 16  4  1  0
 15  6  1  0
  1 22  1  0
  5 23  1  0
  7 24  1  0
  8 25  1  0
 14 26  1  0
 19 27  1  0
 19 28  1  0
 20 29  1  0
 20 30  1  0
 21 31  1  0
M  CHG  1   1  -1
M  END
>  <UniqueID>  (96) 
96

>  <SMILES>  (96) 
[NH-]C(=O)c1cc2ccc(C(F)(F)F)cc2n1C(=O)CCO

>  <Energy>  (96) 
68.03233405617952

>  <Genealogy>  (96) 
[NH-]C(=O)c1cc2ccc(C(F)(F)F)cc2n1C(=O)CCO (protonated)
[NH-]C(=O)c1cc2ccc(C(F)(F)F)cc2n1C(=O)CCO (3D coordinates assigned)
[NH-]C(=O)c1cc2ccc(C(F)(F)F)cc2n1C(=O)CCO (optimized conformer: 68.03233405617952 kcal/mol)

>  <smiles>  (96) 
NC(=O)c1cc2ccc(C(F)(F)F)cc2n1C(=O)CCO

>  <score_type>  (96) 
oracle

>  <origin>  (96) 
adg

>  <m_score__min__energy>  (96) 
-8.2899999999999991

>  <m_primary>  (96) 
energy

$$$$
96:0
     RDKit          3D

 37 38  0  0  0  0  0  0  0  0999 V2000
   -6.3770   17.3740  -33.8340 C   0  0  0  0  0  0  0  0  0  0  0  0
   -6.6050   18.4520  -33.3430 C   0  0  0  0  0  0  0  0  0  0  0  0
   -6.8760   19.7390  -32.7580 C   0  0  0  0  0  0  0  0  0  0  0  0
   -8.2110   20.1340  -32.5130 C   0  0  0  0  0  0  0  0  0  0  0  0
   -8.4890   21.3820  -31.9300 C   0  0  0  0  0  0  0  0  0  0  0  0
   -7.4120   22.2070  -31.6140 C   0  0  0  0  0  0  0  0  0  0  0  0
   -7.3940   23.4500  -31.0250 C   0  0  0  0  0  0  0  0  0  0  0  0
   -6.0470   23.8010  -30.9400 C   0  0  0  0  0  0  0  0  0  0  0  0
   -5.5630   25.1110  -30.4510 C   0  0  0  0  0  0  0  0  0  0  0  0
   -4.2100   25.5160  -30.6690 N   0  0  0  0  0  0  0  0  0  0  0  0
   -6.3350   25.8710  -29.8090 O   0  0  0  0  0  0  0  0  0  0  0  0
   -5.2640   22.8110  -31.4570 N   0  0  0  0  0  0  0  0  0  0  0  0
   -3.8290   22.7610  -31.5090 C   0  0  0  0  0  0  0  0  0  0  0  0
   -3.2580   22.2580  -32.5130 O   0  0  0  0  0  0  0  0  0  0  0  0
   -3.0840   23.2900  -30.4450 O   0  0  0  0  0  0  0  0  0  0  0  0
   -2.9090   22.6950  -29.1510 C   0  0  0  0  0  0  0  0  0  0  0  0
   -2.9910   21.1720  -29.3390 C   0  0  0  0  0  0  0  0  0  0  0  0
   -1.5270   23.0520  -28.5710 C   0  0  0  0  0  0  0  0  0  0  0  0
   -4.0320   23.1390  -28.1930 C   0  0  0  0  0  0  0  0  0  0  0  0
   -6.1140   21.8430  -31.8650 C   0  0  0  0  0  0  0  0  0  0  0  0
   -5.8080   20.5960  -32.4270 C   0  0  0  0  0  0  0  0  0  0  0  0
   -6.1691   16.3910  -34.2817 H   0  0  0  0  0  0  0  0  0  0  0  0
   -9.0379   19.4598  -32.7806 H   0  0  0  0  0  0  0  0  0  0  0  0
   -9.5236   21.6972  -31.7296 H   0  0  0  0  0  0  0  0  0  0  0  0
   -8.2591   24.0419  -30.6916 H   0  0  0  0  0  0  0  0  0  0  0  0
   -3.5560   24.9400  -31.2420 H   0  0  0  0  0  0  0  0  0  0  0  0
   -3.8680   26.4250  -30.2850 H   0  0  0  0  0  0  0  0  0  0  0  0
   -3.0174   20.6819  -28.3546 H   0  0  0  0  0  0  0  0  0  0  0  0
   -3.9040   20.9202  -29.8985 H   0  0  0  0  0  0  0  0  0  0  0  0
   -2.1103   20.8237  -29.8985 H   0  0  0  0  0  0  0  0  0  0  0  0
   -1.5761   23.0393  -27.4722 H   0  0  0  0  0  0  0  0  0  0  0  0
   -0.7845   22.3162  -28.9134 H   0  0  0  0  0  0  0  0  0  0  0  0
   -1.2337   24.0554  -28.9134 H   0  0  0  0  0  0  0  0  0  0  0  0
   -3.6997   23.0076  -27.1526 H   0  0  0  0  0  0  0  0  0  0  0  0
   -4.2686   24.1983  -28.3714 H   0  0  0  0  0  0  0  0  0  0  0  0
   -4.9291   22.5279  -28.3714 H   0  0  0  0  0  0  0  0  0  0  0  0
   -4.7648   20.2954  -32.6044 H   0  0  0  0  0  0  0  0  0  0  0  0
  1  2  3  0
  2  3  1  0
  3  4  2  0
  4  5  1  0
  5  6  2  0
  6  7  1  0
  7  8  2  0
  8  9  1  0
  9 10  1  0
  9 11  2  0
  8 12  1  0
 12 13  1  0
 13 14  2  0
 13 15  1  0
 15 16  1  0
 16 17  1  0
 16 18  1  0
 16 19  1  0
 12 20  1  0
 20 21  2  0
 21  3  1  0
 20  6  1  0
  1 22  1  0
  4 23  1  0
  5 24  1  0
  7 25  1  0
 10 26  1  0
 10 27  1  0
 17 28  1  0
 17 29  1  0
 17 30  1  0
 18 31  1  0
 18 32  1  0
 18 33  1  0
 19 34  1  0
 19 35  1  0
 19 36  1  0
 21 37  1  0
M  END
>  <UniqueID>  (97) 
97

>  <SMILES>  (97) 
C#Cc1ccc2cc(C(N)=O)n(C(=O)OC(C)(C)C)c2c1

>  <Energy>  (97) 
68.8696208476923

>  <Genealogy>  (97) 
C#Cc1ccc2cc(C(N)=O)n(C(=O)OC(C)(C)C)c2c1 (3D coordinates assigned)
C#Cc1ccc2cc(C(N)=O)n(C(=O)OC(C)(C)C)c2c1 (optimized conformer: 68.8696208476923 kcal/mol)

>  <smiles>  (97) 
C#Cc1ccc2cc(C(N)=O)n(C(=O)OC(C)(C)C)c2c1

>  <score_type>  (97) 
oracle

>  <origin>  (97) 
adg

>  <m_score__min__energy>  (97) 
-9.0299999999999994

>  <m_primary>  (97) 
energy

$$$$
