0:0
     RDKit          3D

 34 36  0  0  0  0  0  0  0  0999 V2000
   -4.2380   25.5880  -30.8090 N   0  0  0  0  0  0  0  0  0  0  0  0
   -5.5260   25.0510  -30.5220 C   0  0  0  0  0  0  0  0  0  0  0  0
   -6.3000   25.6810  -29.7520 O   0  0  0  0  0  0  0  0  0  0  0  0
   -5.9460   23.7460  -31.0750 C   0  0  0  0  0  0  0  0  0  0  0  0
   -7.2490   23.4620  -31.4790 C   0  0  0  0  0  0  0  0  0  0  0  0
   -7.2380   22.1320  -31.8350 C   0  0  0  0  0  0  0  0  0  0  0  0
   -8.2620   21.3240  -32.3170 C   0  0  0  0  0  0  0  0  0  0  0  0
   -7.9580   19.9860  -32.6230 C   0  0  0  0  0  0  0  0  0  0  0  0
   -6.6430   19.4820  -32.4440 C   0  0  0  0  0  0  0  0  0  0  0  0
   -6.3310   18.0770  -32.7790 C   0  0  0  0  0  0  0  0  0  0  0  0
   -6.4740   17.5480  -34.0120 N   0  0  0  0  0  0  0  0  0  0  0  0
   -6.0780   16.2760  -33.8200 C   0  0  0  0  0  0  0  0  0  0  0  0
   -5.7150   16.0410  -32.5470 N   0  0  0  0  0  0  0  0  0  0  0  0
   -5.8750   17.1750  -31.8890 N   0  0  0  0  0  0  0  0  0  0  0  0
   -5.6320   20.3350  -31.9460 C   0  0  0  0  0  0  0  0  0  0  0  0
   -5.9670   21.6590  -31.6460 C   0  0  0  0  0  0  0  0  0  0  0  0
   -5.1600   22.6390  -31.1890 N   0  0  0  0  0  0  0  0  0  0  0  0
   -3.7460   22.5300  -30.9690 C   0  0  0  0  0  0  0  0  0  0  0  0
   -2.9520   22.6460  -31.9410 O   0  0  0  0  0  0  0  0  0  0  0  0
   -3.1960   22.3830  -29.5770 C   0  0  0  0  0  0  0  0  0  0  0  0
   -3.0290   23.7440  -28.8900 C   0  0  0  0  0  0  0  0  0  0  0  0
   -1.7080   24.3790  -29.2110 C   0  0  0  0  0  0  0  0  0  0  0  0
   -1.6120   25.6310  -29.3050 O   0  0  0  0  0  0  0  0  0  0  0  0
   -0.5810   23.5880  -29.3880 O   0  0  0  0  0  0  0  0  0  0  0  0
   -3.5150   25.6790  -30.0630 H   0  0  0  0  0  0  0  0  0  0  0  0
   -8.1043   24.1532  -31.5074 H   0  0  0  0  0  0  0  0  0  0  0  0
   -9.2791   21.7198  -32.4547 H   0  0  0  0  0  0  0  0  0  0  0  0
   -8.7476   19.3224  -33.0053 H   0  0  0  0  0  0  0  0  0  0  0  0
   -6.0541   15.5153  -34.6142 H   0  0  0  0  0  0  0  0  0  0  0  0
   -4.6063   19.9662  -31.7980 H   0  0  0  0  0  0  0  0  0  0  0  0
   -3.8865   21.7658  -28.9835 H   0  0  0  0  0  0  0  0  0  0  0  0
   -2.2060   21.9085  -29.6462 H   0  0  0  0  0  0  0  0  0  0  0  0
   -3.8352   24.4126  -29.2263 H   0  0  0  0  0  0  0  0  0  0  0  0
   -3.0724   23.5827  -27.8028 H   0  0  0  0  0  0  0  0  0  0  0  0
  1  2  1  0
  2  3  2  0
  2  4  1  0
  4  5  2  0
  5  6  1  0
  6  7  2  0
  7  8  1  0
  8  9  2  0
  9 10  1  0
 10 11  2  0
 11 12  1  0
 12 13  2  0
 13 14  1  0
  9 15  1  0
 15 16  2  0
 16 17  1  0
 17 18  1  0
 18 19  2  0
 18 20  1  0
 20 21  1  0
 21 22  1  0
 22 23  2  0
 22 24  1  0
 17  4  1  0
 16  6  1  0
 14 10  1  0
  1 25  1  0
  5 26  1  0
  7 27  1  0
  8 28  1  0
 12 29  1  0
 15 30  1  0
 20 31  1  0
 20 32  1  0
 21 33  1  0
 21 34  1  0
M  CHG  3   1  -1  14  -1  24  -1
M  END
>  <UniqueID>  (1) 
1

>  <SMILES>  (1) 
[NH-]C(=O)c1cc2ccc(-c3ncn[n-]3)cc2n1C(=O)CCC(=O)[O-]

>  <Energy>  (1) 
104.35890129505924

>  <Genealogy>  (1) 
[NH-]C(=O)c1cc2ccc(-c3ncn[n-]3)cc2n1C(=O)CCC(=O)[O-] (protonated)
[NH-]C(=O)c1cc2ccc(-c3ncn[n-]3)cc2n1C(=O)CCC(=O)[O-] (3D coordinates assigned)
[NH-]C(=O)c1cc2ccc(-c3ncn[n-]3)cc2n1C(=O)CCC(=O)[O-] (optimized conformer: 104.35890129505924 kcal/mol)

>  <smiles>  (1) 
NC(=O)c1cc2ccc(-c3ncn[nH]3)cc2n1C(=O)CCC(=O)O

>  <score_type>  (1) 
oracle

>  <origin>  (1) 
adg

>  <m_score__min__energy>  (1) 
-12.66

>  <m_primary>  (1) 
energy

$$$$
1:0
     RDKit          3D

 57 58  0  0  0  0  0  0  0  0999 V2000
   -5.2740   17.8490  -34.8820 C   0  0  0  0  0  0  0  0  0  0  0  0
   -5.0260   18.6860  -33.6960 N   0  0  0  0  0  0  0  0  0  0  0  0
   -3.7240   19.3650  -33.8380 C   0  0  0  0  0  0  0  0  0  0  0  0
   -5.0630   17.8580  -32.4690 C   0  0  0  0  0  0  0  0  0  0  0  0
   -6.3380   16.9990  -32.4260 C   0  0  0  0  0  0  0  0  0  0  0  0
   -7.5750   17.8290  -32.0410 C   0  0  0  0  0  0  0  0  0  0  0  0
   -7.8950   18.8390  -33.0650 N   0  0  0  0  0  0  0  0  0  0  0  0
   -7.9020   20.1530  -32.4730 C   0  0  0  0  0  0  0  0  0  0  0  0
   -9.1070   20.8990  -32.3960 C   0  0  0  0  0  0  0  0  0  0  0  0
   -9.1080   22.2080  -31.8840 C   0  0  0  0  0  0  0  0  0  0  0  0
   -7.8930   22.7510  -31.4750 C   0  0  0  0  0  0  0  0  0  0  0  0
   -7.6030   23.9950  -30.9640 C   0  0  0  0  0  0  0  0  0  0  0  0
   -6.2250   24.0000  -30.7540 C   0  0  0  0  0  0  0  0  0  0  0  0
   -5.4780   25.1890  -30.2830 C   0  0  0  0  0  0  0  0  0  0  0  0
   -4.0770   25.3210  -30.5120 N   0  0  0  0  0  0  0  0  0  0  0  0
   -6.0920   26.1170  -29.6930 O   0  0  0  0  0  0  0  0  0  0  0  0
   -5.6860   22.8030  -31.1210 N   0  0  0  0  0  0  0  0  0  0  0  0
   -4.3120   22.3890  -31.0420 C   0  0  0  0  0  0  0  0  0  0  0  0
   -3.7020   22.0450  -32.0890 O   0  0  0  0  0  0  0  0  0  0  0  0
   -3.5900   22.3700  -29.7220 C   0  0  0  0  0  0  0  0  0  0  0  0
   -2.1570   22.9060  -29.8520 C   0  0  0  0  0  0  0  0  0  0  0  0
   -1.8280   23.9910  -28.8500 C   0  0  0  0  0  0  0  0  0  0  0  0
   -1.6710   25.1760  -29.2530 O   0  0  0  0  0  0  0  0  0  0  0  0
   -1.6160   23.6850  -27.4530 N   0  0  0  0  0  0  0  0  0  0  0  0
   -1.6010   22.2970  -26.9780 C   0  0  0  0  0  0  0  0  0  0  0  0
   -1.3910   24.7870  -26.5100 C   0  0  0  0  0  0  0  0  0  0  0  0
   -6.7180   22.0510  -31.5610 C   0  0  0  0  0  0  0  0  0  0  0  0
   -6.6900   20.7380  -32.0400 C   0  0  0  0  0  0  0  0  0  0  0  0
   -5.5730   16.8398  -34.5625 H   0  0  0  0  0  0  0  0  0  0  0  0
   -6.0782   18.2962  -35.4847 H   0  0  0  0  0  0  0  0  0  0  0  0
   -4.3560   17.7859  -35.4847 H   0  0  0  0  0  0  0  0  0  0  0  0
   -3.3119   19.5799  -32.8410 H   0  0  0  0  0  0  0  0  0  0  0  0
   -3.0293   18.7143  -34.3894 H   0  0  0  0  0  0  0  0  0  0  0  0
   -3.8600   20.3070  -34.3894 H   0  0  0  0  0  0  0  0  0  0  0  0
   -4.1832   17.1980  -32.4530 H   0  0  0  0  0  0  0  0  0  0  0  0
   -5.0584   18.5249  -31.5942 H   0  0  0  0  0  0  0  0  0  0  0  0
   -6.5020   16.5557  -33.4193 H   0  0  0  0  0  0  0  0  0  0  0  0
   -6.1988   16.2195  -31.6625 H   0  0  0  0  0  0  0  0  0  0  0  0
   -8.4355   17.1535  -31.9256 H   0  0  0  0  0  0  0  0  0  0  0  0
   -7.3559   18.3535  -31.0993 H   0  0  0  0  0  0  0  0  0  0  0  0
   -7.1810   18.7980  -33.8290 H   0  0  0  0  0  0  0  0  0  0  0  0
   -8.8280   18.6540  -33.4990 H   0  0  0  0  0  0  0  0  0  0  0  0
  -10.0495   20.4483  -32.7404 H   0  0  0  0  0  0  0  0  0  0  0  0
  -10.0408   22.7861  -31.8087 H   0  0  0  0  0  0  0  0  0  0  0  0
   -8.3099   24.8136  -30.7633 H   0  0  0  0  0  0  0  0  0  0  0  0
   -3.4400   25.6680  -29.7620 H   0  0  0  0  0  0  0  0  0  0  0  0
   -4.1413   22.9960  -29.0049 H   0  0  0  0  0  0  0  0  0  0  0  0
   -3.5365   21.3276  -29.3748 H   0  0  0  0  0  0  0  0  0  0  0  0
   -1.4573   22.0703  -29.7033 H   0  0  0  0  0  0  0  0  0  0  0  0
   -2.0664   23.3510  -30.8539 H   0  0  0  0  0  0  0  0  0  0  0  0
   -1.6009   22.2859  -25.8781 H   0  0  0  0  0  0  0  0  0  0  0  0
   -2.4935   21.7725  -27.3499 H   0  0  0  0  0  0  0  0  0  0  0  0
   -0.6973   21.7919  -27.3499 H   0  0  0  0  0  0  0  0  0  0  0  0
   -1.4681   24.4095  -25.4797 H   0  0  0  0  0  0  0  0  0  0  0  0
   -0.3882   25.2091  -26.6718 H   0  0  0  0  0  0  0  0  0  0  0  0
   -2.1481   25.5684  -26.6718 H   0  0  0  0  0  0  0  0  0  0  0  0
   -5.7469   20.1732  -32.0791 H   0  0  0  0  0  0  0  0  0  0  0  0
  1  2  1  0
  2  3  1  0
  2  4  1  0
  4  5  1  0
  5  6  1  0
  6  7  1  0
  7  8  1  0
  8  9  2  0
  9 10  1  0
 10 11  2  0
 11 12  1  0
 12 13  2  0
 13 14  1  0
 14 15  1  0
 14 16  2  0
 13 17  1  0
 17 18  1  0
 18 19  2  0
 18 20  1  0
 20 21  1  0
 21 22  1  0
 22 23  2  0
 22 24  1  0
 24 25  1  0
 24 26  1  0
 17 27  1  0
 27 28  2  0
 28  8  1  0
 27 11  1  0
  1 29  1  0
  1 30  1  0
  1 31  1  0
  3 32  1  0
  3 33  1  0
  3 34  1  0
  4 35  1  0
  4 36  1  0
  5 37  1  0
  5 38  1  0
  6 39  1  0
  6 40  1  0
  7 41  1  0
  7 42  1  0
  9 43  1  0
 10 44  1  0
 12 45  1  0
 15 46  1  0
 20 47  1  0
 20 48  1  0
 21 49  1  0
 21 50  1  0
 25 51  1  0
 25 52  1  0
 25 53  1  0
 26 54  1  0
 26 55  1  0
 26 56  1  0
 28 57  1  0
M  CHG  2   7   1  15  -1
M  END
>  <UniqueID>  (2) 
2

>  <SMILES>  (2) 
CN(C)CCC[NH2+]c1ccc2cc(C([NH-])=O)n(C(=O)CCC(=O)N(C)C)c2c1

>  <Energy>  (2) 
89.51463394776435

>  <Genealogy>  (2) 
CN(C)CCC[NH2+]c1ccc2cc(C([NH-])=O)n(C(=O)CCC(=O)N(C)C)c2c1 (protonated)
CN(C)CCC[NH2+]c1ccc2cc(C([NH-])=O)n(C(=O)CCC(=O)N(C)C)c2c1 (3D coordinates assigned)
CN(C)CCC[NH2+]c1ccc2cc(C([NH-])=O)n(C(=O)CCC(=O)N(C)C)c2c1 (optimized conformer: 89.51463394776435 kcal/mol)

>  <smiles>  (2) 
CN(C)CCCNc1ccc2cc(C(N)=O)n(C(=O)CCC(=O)N(C)C)c2c1

>  <score_type>  (2) 
oracle

>  <origin>  (2) 
adg

>  <m_score__min__energy>  (2) 
-10.710000000000001

>  <m_primary>  (2) 
energy

$$$$
2:0
     RDKit          3D

 34 36  0  0  0  0  0  0  0  0999 V2000
   -7.6090   20.9270  -32.3480 C   0  0  0  0  0  0  0  0  0  0  0  0
   -6.4290   20.4270  -33.1910 C   0  0  1  0  0  0  0  0  0  0  0  0
   -5.1060   20.7170  -32.5110 C   0  0  0  0  0  0  0  0  0  0  0  0
   -4.0290   19.8030  -32.6450 C   0  0  0  0  0  0  0  0  0  0  0  0
   -2.7890   20.0600  -32.0370 C   0  0  0  0  0  0  0  0  0  0  0  0
   -2.6540   21.2300  -31.2960 C   0  0  0  0  0  0  0  0  0  0  0  0
   -1.5590   21.7360  -30.6370 C   0  0  0  0  0  0  0  0  0  0  0  0
   -1.9870   22.9390  -30.0830 C   0  0  0  0  0  0  0  0  0  0  0  0
   -1.1320   23.7900  -29.2320 C   0  0  0  0  0  0  0  0  0  0  0  0
   -1.2540   25.2120  -29.2490 N   0  0  0  0  0  0  0  0  0  0  0  0
   -0.3190   23.2500  -28.4360 O   0  0  0  0  0  0  0  0  0  0  0  0
   -3.2920   23.1770  -30.3970 N   0  0  0  0  0  0  0  0  0  0  0  0
   -4.0600   24.3580  -30.1070 C   0  0  0  0  0  0  0  0  0  0  0  0
   -4.9280   24.3430  -29.1950 O   0  0  0  0  0  0  0  0  0  0  0  0
   -3.8530   25.5280  -30.8270 O   0  0  0  0  0  0  0  0  0  0  0  0
   -3.6870   22.1180  -31.1390 C   0  0  0  0  0  0  0  0  0  0  0  0
   -4.9260   21.8990  -31.7550 C   0  0  0  0  0  0  0  0  0  0  0  0
   -6.5430   18.9970  -33.5050 N   0  0  0  0  0  0  0  0  0  0  0  0
   -7.0300   18.0070  -32.7330 C   0  0  0  0  0  0  0  0  0  0  0  0
   -6.8510   16.8380  -33.4350 C   0  0  0  0  0  0  0  0  0  0  0  0
   -6.2520   17.1420  -34.6030 N   0  0  0  0  0  0  0  0  0  0  0  0
   -6.0710   18.4540  -34.6160 N   0  0  0  0  0  0  0  0  0  0  0  0
   -7.3663   20.8242  -31.2801 H   0  0  0  0  0  0  0  0  0  0  0  0
   -7.8030   21.9847  -32.5797 H   0  0  0  0  0  0  0  0  0  0  0  0
   -8.5039   20.3307  -32.5797 H   0  0  0  0  0  0  0  0  0  0  0  0
   -6.4606   20.9800  -34.1413 H   0  0  0  0  0  0  0  0  0  0  0  0
   -4.1666   18.8827  -33.2316 H   0  0  0  0  0  0  0  0  0  0  0  0
   -1.9496   19.3571  -32.1435 H   0  0  0  0  0  0  0  0  0  0  0  0
   -0.5579   21.2861  -30.5632 H   0  0  0  0  0  0  0  0  0  0  0  0
   -0.6140   25.8000  -28.6700 H   0  0  0  0  0  0  0  0  0  0  0  0
   -2.0300   25.6800  -29.7660 H   0  0  0  0  0  0  0  0  0  0  0  0
   -5.7413   22.6304  -31.6530 H   0  0  0  0  0  0  0  0  0  0  0  0
   -7.4825   18.1126  -31.7359 H   0  0  0  0  0  0  0  0  0  0  0  0
   -7.1451   15.8318  -33.1016 H   0  0  0  0  0  0  0  0  0  0  0  0
  1  2  1  0
  2  3  1  0
  3  4  2  0
  4  5  1  0
  5  6  2  0
  6  7  1  0
  7  8  2  0
  8  9  1  0
  9 10  1  0
  9 11  2  0
  8 12  1  0
 12 13  1  0
 13 14  2  0
 13 15  1  0
 12 16  1  0
 16 17  2  0
  2 18  1  0
 18 19  1  0
 19 20  2  0
 20 21  1  0
 21 22  2  0
 17  3  1  0
 22 18  1  0
 16  6  1  0
  1 23  1  0
  1 24  1  0
  1 25  1  0
  2 26  1  6
  4 27  1  0
  5 28  1  0
  7 29  1  0
 10 30  1  0
 10 31  1  0
 17 32  1  0
 19 33  1  0
 20 34  1  0
M  CHG  1  15  -1
M  END
>  <UniqueID>  (3) 
3

>  <SMILES>  (3) 
C[C@@H](c1ccc2cc(C(N)=O)n(C(=O)[O-])c2c1)n1ccnn1

>  <Energy>  (3) 
109.93114289494478

>  <Genealogy>  (3) 
CC(c1ccc2cc(C(N)=O)n(C(=O)[O-])c2c1)n1ccnn1 (protonated)
C[C@@H](c1ccc2cc(C(N)=O)n(C(=O)[O-])c2c1)n1ccnn1 (chirality)
C[C@@H](c1ccc2cc(C(N)=O)n(C(=O)[O-])c2c1)n1ccnn1 (3D coordinates assigned)
C[C@@H](c1ccc2cc(C(N)=O)n(C(=O)[O-])c2c1)n1ccnn1 (optimized conformer: 109.93114289494478 kcal/mol)

>  <smiles>  (3) 
CC(c1ccc2cc(C(N)=O)n(C(=O)O)c2c1)n1ccnn1

>  <score_type>  (3) 
oracle

>  <origin>  (3) 
adg

>  <m_score__min__energy>  (3) 
-9.1300000000000008

>  <m_primary>  (3) 
energy

$$$$
3:0
     RDKit          3D

 41 42  0  0  0  0  0  0  0  0999 V2000
   -1.5130   25.6740  -29.0820 N   0  0  0  0  0  0  0  0  0  0  0  0
   -2.3090   24.5160  -28.8430 C   0  0  0  0  0  0  0  0  0  0  0  0
   -3.2700   24.5700  -28.0310 O   0  0  0  0  0  0  0  0  0  0  0  0
   -2.0320   23.2510  -29.5920 C   0  0  0  0  0  0  0  0  0  0  0  0
   -3.3130   22.4320  -29.7540 C   0  0  0  0  0  0  0  0  0  0  0  0
   -3.9060   22.6600  -31.1120 C   0  0  0  0  0  0  0  0  0  0  0  0
   -3.1730   22.5890  -32.1350 O   0  0  0  0  0  0  0  0  0  0  0  0
   -5.3210   22.8360  -31.2630 N   0  0  0  0  0  0  0  0  0  0  0  0
   -6.0710   23.9240  -30.9340 C   0  0  0  0  0  0  0  0  0  0  0  0
   -5.5490   25.2240  -30.4660 C   0  0  0  0  0  0  0  0  0  0  0  0
   -4.2040   25.6120  -30.7280 N   0  0  0  0  0  0  0  0  0  0  0  0
   -6.3110   26.0170  -29.8490 O   0  0  0  0  0  0  0  0  0  0  0  0
   -7.4240   23.6610  -31.1500 C   0  0  0  0  0  0  0  0  0  0  0  0
   -7.4740   22.3690  -31.6260 C   0  0  0  0  0  0  0  0  0  0  0  0
   -8.5670   21.5840  -31.9830 C   0  0  0  0  0  0  0  0  0  0  0  0
   -8.3190   20.2670  -32.4100 C   0  0  0  0  0  0  0  0  0  0  0  0
   -6.9940   19.7670  -32.4780 C   0  0  0  0  0  0  0  0  0  0  0  0
   -6.7440   18.3410  -32.8910 C   0  0  0  0  0  0  0  0  0  0  0  0
   -6.1070   18.2920  -34.2870 C   0  0  0  0  0  0  0  0  0  0  0  0
   -5.2690   17.0240  -34.4980 C   0  0  0  0  0  0  0  0  0  0  0  0
   -5.9370   15.8160  -33.9180 C   0  0  0  0  0  0  0  0  0  0  0  0
   -5.3270   15.0880  -33.0920 O   0  0  0  0  0  0  0  0  0  0  0  0
   -7.2240   15.4760  -34.3150 O   0  0  0  0  0  0  0  0  0  0  0  0
   -5.9120   20.5910  -32.0980 C   0  0  0  0  0  0  0  0  0  0  0  0
   -6.1890   21.8970  -31.6850 C   0  0  0  0  0  0  0  0  0  0  0  0
   -1.2070   25.9240  -30.0480 H   0  0  0  0  0  0  0  0  0  0  0  0
   -1.6331   23.4994  -30.5866 H   0  0  0  0  0  0  0  0  0  0  0  0
   -1.2992   22.6565  -29.0267 H   0  0  0  0  0  0  0  0  0  0  0  0
   -3.0787   21.3639  -29.6346 H   0  0  0  0  0  0  0  0  0  0  0  0
   -4.0383   22.7456  -28.9888 H   0  0  0  0  0  0  0  0  0  0  0  0
   -3.5010   25.6690  -29.9570 H   0  0  0  0  0  0  0  0  0  0  0  0
   -8.2712   24.3409  -30.9770 H   0  0  0  0  0  0  0  0  0  0  0  0
   -9.5916   21.9810  -31.9327 H   0  0  0  0  0  0  0  0  0  0  0  0
   -9.1611   19.6187  -32.6939 H   0  0  0  0  0  0  0  0  0  0  0  0
   -6.0655   17.8674  -32.1662 H   0  0  0  0  0  0  0  0  0  0  0  0
   -7.7035   17.8037  -32.9175 H   0  0  0  0  0  0  0  0  0  0  0  0
   -6.9064   18.3180  -35.0422 H   0  0  0  0  0  0  0  0  0  0  0  0
   -5.4371   19.1592  -34.3829 H   0  0  0  0  0  0  0  0  0  0  0  0
   -5.1244   16.8677  -35.5772 H   0  0  0  0  0  0  0  0  0  0  0  0
   -4.3047   17.1612  -33.9869 H   0  0  0  0  0  0  0  0  0  0  0  0
   -4.8787   20.2149  -32.1263 H   0  0  0  0  0  0  0  0  0  0  0  0
  1  2  1  0
  2  3  2  0
  2  4  1  0
  4  5  1  0
  5  6  1  0
  6  7  2  0
  6  8  1  0
  8  9  1  0
  9 10  1  0
 10 11  1  0
 10 12  2  0
  9 13  2  0
 13 14  1  0
 14 15  2  0
 15 16  1  0
 16 17  2  0
 17 18  1  0
 18 19  1  0
 19 20  1  0
 20 21  1  0
 21 22  2  0
 21 23  1  0
 17 24  1  0
 24 25  2  0
 25  8  1  0
 25 14  1  0
  1 26  1  0
  4 27  1  0
  4 28  1  0
  5 29  1  0
  5 30  1  0
 11 31  1  0
 13 32  1  0
 15 33  1  0
 16 34  1  0
 18 35  1  0
 18 36  1  0
 19 37  1  0
 19 38  1  0
 20 39  1  0
 20 40  1  0
 24 41  1  0
M  CHG  3   1  -1  11  -1  23  -1
M  END
>  <UniqueID>  (4) 
4

>  <SMILES>  (4) 
[NH-]C(=O)CCC(=O)n1c(C([NH-])=O)cc2ccc(CCCC(=O)[O-])cc21

>  <Energy>  (4) 
70.3080776713687

>  <Genealogy>  (4) 
[NH-]C(=O)CCC(=O)n1c(C([NH-])=O)cc2ccc(CCCC(=O)[O-])cc21 (protonated)
[NH-]C(=O)CCC(=O)n1c(C([NH-])=O)cc2ccc(CCCC(=O)[O-])cc21 (3D coordinates assigned)
[NH-]C(=O)CCC(=O)n1c(C([NH-])=O)cc2ccc(CCCC(=O)[O-])cc21 (optimized conformer: 70.3080776713687 kcal/mol)

>  <smiles>  (4) 
NC(=O)CCC(=O)n1c(C(N)=O)cc2ccc(CCCC(=O)O)cc21

>  <score_type>  (4) 
oracle

>  <origin>  (4) 
adg

>  <m_score__min__energy>  (4) 
-13.029999999999999

>  <m_primary>  (4) 
energy

$$$$
4:0
     RDKit          3D

 30 31  0  0  0  0  0  0  0  0999 V2000
   -4.2150   25.6140  -30.8470 N   0  0  0  0  0  0  0  0  0  0  0  0
   -5.5620   25.2380  -30.5540 C   0  0  0  0  0  0  0  0  0  0  0  0
   -6.3070   26.0540  -29.9490 O   0  0  0  0  0  0  0  0  0  0  0  0
   -6.0900   23.9180  -30.9680 C   0  0  0  0  0  0  0  0  0  0  0  0
   -7.4380   23.6470  -31.2060 C   0  0  0  0  0  0  0  0  0  0  0  0
   -7.4960   22.2970  -31.4780 C   0  0  0  0  0  0  0  0  0  0  0  0
   -8.5860   21.4890  -31.7820 C   0  0  0  0  0  0  0  0  0  0  0  0
   -8.3480   20.1260  -32.0270 C   0  0  0  0  0  0  0  0  0  0  0  0
   -7.0290   19.6000  -31.9850 C   0  0  0  0  0  0  0  0  0  0  0  0
   -6.7910   18.1280  -32.2100 C   0  0  0  0  0  0  0  0  0  0  0  0
   -7.9930   17.4560  -32.3530 F   0  0  0  0  0  0  0  0  0  0  0  0
   -6.1110   17.5750  -31.1390 F   0  0  0  0  0  0  0  0  0  0  0  0
   -6.0400   17.9590  -33.3570 F   0  0  0  0  0  0  0  0  0  0  0  0
   -5.9520   20.4510  -31.6460 C   0  0  0  0  0  0  0  0  0  0  0  0
   -6.2230   21.8000  -31.3980 C   0  0  0  0  0  0  0  0  0  0  0  0
   -5.3510   22.7800  -31.0880 N   0  0  0  0  0  0  0  0  0  0  0  0
   -3.9270   22.6380  -30.9760 C   0  0  0  0  0  0  0  0  0  0  0  0
   -3.1950   22.8800  -31.9730 O   0  0  0  0  0  0  0  0  0  0  0  0
   -3.2970   22.3170  -29.6570 C   0  0  0  0  0  0  0  0  0  0  0  0
   -3.1890   23.8140  -28.6580 S   0  0  0  0  0  0  0  0  0  0  0  0
   -2.1650   23.4600  -27.5870 O   0  0  0  0  0  0  0  0  0  0  0  0
   -2.3420   24.8960  -29.6620 O   0  0  0  0  0  0  0  0  0  0  0  0
   -3.8680   26.5620  -30.5800 H   0  0  0  0  0  0  0  0  0  0  0  0
   -3.5450   24.9470  -31.2880 H   0  0  0  0  0  0  0  0  0  0  0  0
   -8.2760   24.3592  -31.1817 H   0  0  0  0  0  0  0  0  0  0  0  0
   -9.6036   21.9041  -31.8293 H   0  0  0  0  0  0  0  0  0  0  0  0
   -9.1925   19.4587  -32.2539 H   0  0  0  0  0  0  0  0  0  0  0  0
   -4.9256   20.0611  -31.5790 H   0  0  0  0  0  0  0  0  0  0  0  0
   -3.9091   21.5694  -29.1312 H   0  0  0  0  0  0  0  0  0  0  0  0
   -2.2867   21.9149  -29.8230 H   0  0  0  0  0  0  0  0  0  0  0  0
  1  2  1  0
  2  3  2  0
  2  4  1  0
  4  5  2  0
  5  6  1  0
  6  7  2  0
  7  8  1  0
  8  9  2  0
  9 10  1  0
 10 11  1  0
 10 12  1  0
 10 13  1  0
  9 14  1  0
 14 15  2  0
 15 16  1  0
 16 17  1  0
 17 18  2  0
 17 19  1  0
 19 20  1  0
 20 21  2  0
 20 22  1  6
 16  4  1  0
 15  6  1  0
  1 23  1  0
  1 24  1  0
  5 25  1  0
  7 26  1  0
  8 27  1  0
 14 28  1  0
 19 29  1  0
 19 30  1  0
M  CHG  1  22  -1
M  END
>  <UniqueID>  (5) 
5

>  <SMILES>  (5) 
NC(=O)c1cc2ccc(C(F)(F)F)cc2n1C(=O)C[S@@](=O)[O-]

>  <Energy>  (5) 
66.45833535273685

>  <Genealogy>  (5) 
NC(=O)c1cc2ccc(C(F)(F)F)cc2n1C(=O)CS(=O)[O-] (protonated)
NC(=O)c1cc2ccc(C(F)(F)F)cc2n1C(=O)C[S@@](=O)[O-] (chirality)
NC(=O)c1cc2ccc(C(F)(F)F)cc2n1C(=O)C[S@@](=O)[O-] (3D coordinates assigned)
NC(=O)c1cc2ccc(C(F)(F)F)cc2n1C(=O)C[S@@](=O)[O-] (optimized conformer: 66.45833535273685 kcal/mol)

>  <smiles>  (5) 
NC(=O)c1cc2ccc(C(F)(F)F)cc2n1C(=O)CS(=O)O

>  <score_type>  (5) 
oracle

>  <origin>  (5) 
adg

>  <m_score__min__energy>  (5) 
-10.26

>  <m_primary>  (5) 
energy

$$$$
5:0
     RDKit          3D

 43 45  0  0  0  0  0  0  0  0999 V2000
   -5.2500   15.9490  -33.0140 C   0  0  0  0  0  0  0  0  0  0  0  0
   -5.2750   16.9100  -34.0620 O   0  0  0  0  0  0  0  0  0  0  0  0
   -6.1850   17.9730  -34.0880 C   0  0  0  0  0  0  0  0  0  0  0  0
   -6.0980   18.8740  -34.9660 O   0  0  0  0  0  0  0  0  0  0  0  0
   -7.2470   18.0560  -33.0380 C   0  0  0  0  0  0  0  0  0  0  0  0
   -7.3630   19.4640  -32.5220 C   0  0  0  0  0  0  0  0  0  0  0  0
   -8.6260   20.1040  -32.4620 C   0  0  0  0  0  0  0  0  0  0  0  0
   -8.7410   21.4180  -31.9750 C   0  0  0  0  0  0  0  0  0  0  0  0
   -7.5790   22.0690  -31.5760 C   0  0  0  0  0  0  0  0  0  0  0  0
   -7.4050   23.3210  -31.0270 C   0  0  0  0  0  0  0  0  0  0  0  0
   -6.0350   23.4340  -30.7950 C   0  0  0  0  0  0  0  0  0  0  0  0
   -5.3980   24.6420  -30.2340 C   0  0  0  0  0  0  0  0  0  0  0  0
   -5.7900   25.1650  -28.9660 N   0  0  0  0  0  0  0  0  0  0  0  0
   -4.4550   25.1920  -30.8630 O   0  0  0  0  0  0  0  0  0  0  0  0
   -5.3910   22.2970  -31.1790 N   0  0  0  0  0  0  0  0  0  0  0  0
   -4.0140   21.9450  -30.9660 C   0  0  0  0  0  0  0  0  0  0  0  0
   -3.6610   21.4850  -29.8470 O   0  0  0  0  0  0  0  0  0  0  0  0
   -2.9950   22.0770  -32.0710 C   0  0  0  0  0  0  0  0  0  0  0  0
   -3.4700   21.5260  -33.4110 C   0  0  0  0  0  0  0  0  0  0  0  0
   -2.4740   20.4430  -33.4150 N   0  0  0  0  0  0  0  0  0  0  0  0
   -3.1170   19.1280  -33.2570 C   0  0  0  0  0  0  0  0  0  0  0  0
   -1.9710   20.9480  -32.1280 C   0  0  0  0  0  0  0  0  0  0  0  0
   -6.3480   21.4740  -31.6550 C   0  0  0  0  0  0  0  0  0  0  0  0
   -6.2040   20.1600  -32.1120 C   0  0  0  0  0  0  0  0  0  0  0  0
   -5.2634   16.4652  -32.0427 H   0  0  0  0  0  0  0  0  0  0  0  0
   -6.1315   15.2959  -33.0943 H   0  0  0  0  0  0  0  0  0  0  0  0
   -4.3358   15.3426  -33.0943 H   0  0  0  0  0  0  0  0  0  0  0  0
   -8.2101   17.7479  -33.4710 H   0  0  0  0  0  0  0  0  0  0  0  0
   -6.9782   17.3907  -32.2043 H   0  0  0  0  0  0  0  0  0  0  0  0
   -9.5250   19.5676  -32.7997 H   0  0  0  0  0  0  0  0  0  0  0  0
   -9.7200   21.9156  -31.9116 H   0  0  0  0  0  0  0  0  0  0  0  0
   -8.1815   24.0712  -30.8167 H   0  0  0  0  0  0  0  0  0  0  0  0
   -5.3660   26.0490  -28.6100 H   0  0  0  0  0  0  0  0  0  0  0  0
   -6.4350   24.6330  -28.3410 H   0  0  0  0  0  0  0  0  0  0  0  0
   -2.7160   23.1285  -31.9084 H   0  0  0  0  0  0  0  0  0  0  0  0
   -4.5083   21.1634  -33.3899 H   0  0  0  0  0  0  0  0  0  0  0  0
   -3.5130   22.2056  -34.2749 H   0  0  0  0  0  0  0  0  0  0  0  0
   -3.2282   18.9005  -32.1865 H   0  0  0  0  0  0  0  0  0  0  0  0
   -4.1084   19.1450  -33.7332 H   0  0  0  0  0  0  0  0  0  0  0  0
   -2.4947   18.3560  -33.7332 H   0  0  0  0  0  0  0  0  0  0  0  0
   -2.0734   20.2246  -31.3057 H   0  0  0  0  0  0  0  0  0  0  0  0
   -0.9037   21.1995  -32.0413 H   0  0  0  0  0  0  0  0  0  0  0  0
   -5.2145   19.6812  -32.1511 H   0  0  0  0  0  0  0  0  0  0  0  0
  1  2  1  0
  2  3  1  0
  3  4  2  0
  3  5  1  0
  5  6  1  0
  6  7  2  0
  7  8  1  0
  8  9  2  0
  9 10  1  0
 10 11  2  0
 11 12  1  0
 12 13  1  0
 12 14  2  0
 11 15  1  0
 15 16  1  0
 16 17  2  0
 16 18  1  0
 18 19  1  0
 19 20  1  0
 20 21  1  0
 20 22  1  0
 15 23  1  0
 23 24  2  0
 24  6  1  0
 23  9  1  0
 22 18  1  0
  1 25  1  0
  1 26  1  0
  1 27  1  0
  5 28  1  0
  5 29  1  0
  7 30  1  0
  8 31  1  0
 10 32  1  0
 13 33  1  0
 13 34  1  0
 18 35  1  0
 19 36  1  0
 19 37  1  0
 21 38  1  0
 21 39  1  0
 21 40  1  0
 22 41  1  0
 22 42  1  0
 24 43  1  0
M  END
>  <UniqueID>  (6) 
6

>  <SMILES>  (6) 
COC(=O)Cc1ccc2cc(C(N)=O)n(C(=O)C3CN(C)C3)c2c1

>  <Energy>  (6) 
148.85153520409736

>  <Genealogy>  (6) 
COC(=O)Cc1ccc2cc(C(N)=O)n(C(=O)C3CN(C)C3)c2c1 (3D coordinates assigned)
COC(=O)Cc1ccc2cc(C(N)=O)n(C(=O)C3CN(C)C3)c2c1 (nonaromatic ring conformer: 148.85153520409736 kcal/mol)

>  <smiles>  (6) 
COC(=O)Cc1ccc2cc(C(N)=O)n(C(=O)C3CN(C)C3)c2c1

>  <score_type>  (6) 
oracle

>  <origin>  (6) 
adg

>  <m_score__min__energy>  (6) 
-8.6699999999999999

>  <m_primary>  (6) 
energy

$$$$
6:0
     RDKit          3D

 31 33  0  0  0  0  0  0  0  0999 V2000
   -6.0250   25.3990  -28.9660 N   0  0  0  0  0  0  0  0  0  0  0  0
   -5.8990   25.1230  -30.3620 C   0  0  0  0  0  0  0  0  0  0  0  0
   -5.4500   26.0210  -31.1240 O   0  0  0  0  0  0  0  0  0  0  0  0
   -6.3030   23.8110  -30.9200 C   0  0  0  0  0  0  0  0  0  0  0  0
   -7.6250   23.3930  -31.0770 C   0  0  0  0  0  0  0  0  0  0  0  0
   -7.5480   22.1530  -31.6700 C   0  0  0  0  0  0  0  0  0  0  0  0
   -8.5590   21.2670  -32.0270 C   0  0  0  0  0  0  0  0  0  0  0  0
   -8.1870   20.0330  -32.5870 C   0  0  0  0  0  0  0  0  0  0  0  0
   -6.8190   19.7110  -32.7890 C   0  0  0  0  0  0  0  0  0  0  0  0
   -6.4290   18.3590  -33.3340 C   0  0  0  0  0  0  0  0  0  0  0  0
   -5.3540   17.8420  -32.6330 F   0  0  0  0  0  0  0  0  0  0  0  0
   -7.5020   17.4950  -33.2160 F   0  0  0  0  0  0  0  0  0  0  0  0
   -6.0710   18.4560  -34.6680 F   0  0  0  0  0  0  0  0  0  0  0  0
   -5.8220   20.6290  -32.3890 C   0  0  0  0  0  0  0  0  0  0  0  0
   -6.2230   21.8570  -31.8540 C   0  0  0  0  0  0  0  0  0  0  0  0
   -5.4480   22.8680  -31.4050 N   0  0  0  0  0  0  0  0  0  0  0  0
   -4.0120   22.8970  -31.3780 C   0  0  0  0  0  0  0  0  0  0  0  0
   -3.3610   22.3810  -32.3260 O   0  0  0  0  0  0  0  0  0  0  0  0
   -3.2950   23.5080  -30.2470 C   0  0  0  0  0  0  0  0  0  0  0  0
   -2.7320   22.8400  -29.1850 C   0  0  0  0  0  0  0  0  0  0  0  0
   -2.1800   23.7370  -28.3500 N   0  0  0  0  0  0  0  0  0  0  0  0
   -2.4320   24.9280  -28.9340 C   0  0  0  0  0  0  0  0  0  0  0  0
   -3.1140   24.8310  -30.0940 N   0  0  0  0  0  0  0  0  0  0  0  0
   -6.3290   24.6640  -28.2890 H   0  0  0  0  0  0  0  0  0  0  0  0
   -5.7700   26.3400  -28.5950 H   0  0  0  0  0  0  0  0  0  0  0  0
   -8.5355   23.9385  -30.7882 H   0  0  0  0  0  0  0  0  0  0  0  0
   -9.6177   21.5244  -31.8756 H   0  0  0  0  0  0  0  0  0  0  0  0
   -8.9642   19.3086  -32.8720 H   0  0  0  0  0  0  0  0  0  0  0  0
   -4.7552   20.3832  -32.4960 H   0  0  0  0  0  0  0  0  0  0  0  0
   -2.7332   21.7493  -29.0421 H   0  0  0  0  0  0  0  0  0  0  0  0
   -2.1110   25.8882  -28.5039 H   0  0  0  0  0  0  0  0  0  0  0  0
  1  2  1  0
  2  3  2  0
  2  4  1  0
  4  5  2  0
  5  6  1  0
  6  7  2  0
  7  8  1  0
  8  9  2  0
  9 10  1  0
 10 11  1  0
 10 12  1  0
 10 13  1  0
  9 14  1  0
 14 15  2  0
 15 16  1  0
 16 17  1  0
 17 18  2  0
 17 19  1  0
 19 20  2  0
 20 21  1  0
 21 22  2  0
 22 23  1  0
 16  4  1  0
 23 19  1  0
 15  6  1  0
  1 24  1  0
  1 25  1  0
  5 26  1  0
  7 27  1  0
  8 28  1  0
 14 29  1  0
 20 30  1  0
 22 31  1  0
M  CHG  1  23  -1
M  END
>  <UniqueID>  (7) 
7

>  <SMILES>  (7) 
NC(=O)c1cc2ccc(C(F)(F)F)cc2n1C(=O)c1cnc[n-]1

>  <Energy>  (7) 
100.54879189515285

>  <Genealogy>  (7) 
NC(=O)c1cc2ccc(C(F)(F)F)cc2n1C(=O)c1cnc[n-]1 (protonated)
NC(=O)c1cc2ccc(C(F)(F)F)cc2n1C(=O)c1cnc[n-]1 (3D coordinates assigned)
NC(=O)c1cc2ccc(C(F)(F)F)cc2n1C(=O)c1cnc[n-]1 (optimized conformer: 100.54879189515285 kcal/mol)

>  <smiles>  (7) 
NC(=O)c1cc2ccc(C(F)(F)F)cc2n1C(=O)c1cnc[nH]1

>  <score_type>  (7) 
oracle

>  <origin>  (7) 
adg

>  <m_score__min__energy>  (7) 
-9.1999999999999993

>  <m_primary>  (7) 
energy

$$$$
7:0
     RDKit          3D

 49 52  0  0  0  0  0  0  0  0999 V2000
   -1.0390   21.6210  -26.6510 C   0  0  0  0  0  0  0  0  0  0  0  0
   -1.5330   22.6870  -27.5730 C   0  0  0  0  0  0  0  0  0  0  0  0
   -1.0280   23.8950  -27.6580 O   0  0  0  0  0  0  0  0  0  0  0  0
   -1.7250   24.5090  -28.5880 C   0  0  0  0  0  0  0  0  0  0  0  0
   -1.5190   25.7000  -28.9420 O   0  0  0  0  0  0  0  0  0  0  0  0
   -2.6580   23.7460  -29.1070 O   0  0  0  0  0  0  0  0  0  0  0  0
   -2.5640   22.5920  -28.4890 C   0  0  0  0  0  0  0  0  0  0  0  0
   -3.4210   21.4030  -28.7700 C   0  0  0  0  0  0  0  0  0  0  0  0
   -3.6460   21.3080  -30.1710 O   0  0  0  0  0  0  0  0  0  0  0  0
   -4.0530   22.3960  -30.9490 C   0  0  0  0  0  0  0  0  0  0  0  0
   -3.2060   23.0570  -31.6080 O   0  0  0  0  0  0  0  0  0  0  0  0
   -5.4390   22.7670  -30.9830 N   0  0  0  0  0  0  0  0  0  0  0  0
   -5.9730   24.0080  -30.7920 C   0  0  0  0  0  0  0  0  0  0  0  0
   -5.2380   25.2090  -30.3440 C   0  0  0  0  0  0  0  0  0  0  0  0
   -3.9450   25.5140  -30.8610 N   0  0  0  0  0  0  0  0  0  0  0  0
   -5.7370   25.9490  -29.4550 O   0  0  0  0  0  0  0  0  0  0  0  0
   -7.3490   23.9850  -30.9980 C   0  0  0  0  0  0  0  0  0  0  0  0
   -7.6490   22.6810  -31.3150 C   0  0  0  0  0  0  0  0  0  0  0  0
   -8.8730   22.0940  -31.6180 C   0  0  0  0  0  0  0  0  0  0  0  0
   -8.8870   20.7250  -31.9350 C   0  0  0  0  0  0  0  0  0  0  0  0
   -7.6810   19.9760  -31.9670 C   0  0  0  0  0  0  0  0  0  0  0  0
   -7.6980   18.5030  -32.3010 C   0  0  0  0  0  0  0  0  0  0  0  0
   -6.4270   17.8070  -31.8700 C   0  0  0  0  0  0  0  0  0  0  0  0
   -6.2760   17.5490  -30.6820 O   0  0  0  0  0  0  0  0  0  0  0  0
   -5.5020   17.2780  -32.8550 N   0  0  0  0  0  0  0  0  0  0  0  0
   -4.7330   18.2950  -33.5960 C   0  0  0  0  0  0  0  0  0  0  0  0
   -5.3320   17.8820  -34.9260 C   0  0  0  0  0  0  0  0  0  0  0  0
   -4.4180   17.3050  -35.7900 F   0  0  0  0  0  0  0  0  0  0  0  0
   -6.1110   18.8660  -35.5110 F   0  0  0  0  0  0  0  0  0  0  0  0
   -6.1300   16.8710  -34.1230 C   0  0  0  0  0  0  0  0  0  0  0  0
   -6.4600   20.6070  -31.6400 C   0  0  0  0  0  0  0  0  0  0  0  0
   -6.4800   21.9660  -31.3040 C   0  0  0  0  0  0  0  0  0  0  0  0
   -1.1869   21.9402  -25.6088 H   0  0  0  0  0  0  0  0  0  0  0  0
   -1.5980   20.6912  -26.8326 H   0  0  0  0  0  0  0  0  0  0  0  0
    0.0318   21.4465  -26.8326 H   0  0  0  0  0  0  0  0  0  0  0  0
   -2.9145   20.4928  -28.4164 H   0  0  0  0  0  0  0  0  0  0  0  0
   -4.3834   21.5100  -28.2481 H   0  0  0  0  0  0  0  0  0  0  0  0
   -3.0830   25.1680  -30.3880 H   0  0  0  0  0  0  0  0  0  0  0  0
   -8.0485   24.8307  -30.9231 H   0  0  0  0  0  0  0  0  0  0  0  0
   -9.8017   22.6834  -31.6098 H   0  0  0  0  0  0  0  0  0  0  0  0
   -9.8422   20.2284  -32.1607 H   0  0  0  0  0  0  0  0  0  0  0  0
   -8.5507   18.0331  -31.7891 H   0  0  0  0  0  0  0  0  0  0  0  0
   -7.7843   18.4045  -33.3932 H   0  0  0  0  0  0  0  0  0  0  0  0
   -4.8870   16.5270  -32.4580 H   0  0  0  0  0  0  0  0  0  0  0  0
   -4.9785   19.3274  -33.3063 H   0  0  0  0  0  0  0  0  0  0  0  0
   -3.6385   18.3176  -33.4889 H   0  0  0  0  0  0  0  0  0  0  0  0
   -7.2154   17.0474  -34.1510 H   0  0  0  0  0  0  0  0  0  0  0  0
   -6.0969   15.8117  -34.4176 H   0  0  0  0  0  0  0  0  0  0  0  0
   -5.5153   20.0435  -31.6492 H   0  0  0  0  0  0  0  0  0  0  0  0
  1  2  1  0
  2  3  1  0
  3  4  1  0
  4  5  2  0
  4  6  1  0
  6  7  1  0
  7  8  1  0
  8  9  1  0
  9 10  1  0
 10 11  2  0
 10 12  1  0
 12 13  1  0
 13 14  1  0
 14 15  1  0
 14 16  2  0
 13 17  2  0
 17 18  1  0
 18 19  2  0
 19 20  1  0
 20 21  2  0
 21 22  1  0
 22 23  1  0
 23 24  2  0
 23 25  1  0
 25 26  1  0
 26 27  1  0
 27 28  1  0
 27 29  1  0
 27 30  1  0
 21 31  1  0
 31 32  2  0
  7  2  2  0
 32 12  1  0
 32 18  1  0
 30 25  1  0
  1 33  1  0
  1 34  1  0
  1 35  1  0
  8 36  1  0
  8 37  1  0
 15 38  1  0
 17 39  1  0
 19 40  1  0
 20 41  1  0
 22 42  1  0
 22 43  1  0
 25 44  1  0
 26 45  1  0
 26 46  1  0
 30 47  1  0
 30 48  1  0
 31 49  1  0
M  CHG  2  15  -1  25   1
M  END
>  <UniqueID>  (8) 
8

>  <SMILES>  (8) 
Cc1oc(=O)oc1COC(=O)n1c(C([NH-])=O)cc2ccc(CC(=O)[NH+]3CC(F)(F)C3)cc21

>  <Energy>  (8) 
196.23536090300394

>  <Genealogy>  (8) 
Cc1oc(=O)oc1COC(=O)n1c(C([NH-])=O)cc2ccc(CC(=O)[NH+]3CC(F)(F)C3)cc21 (protonated)
Cc1oc(=O)oc1COC(=O)n1c(C([NH-])=O)cc2ccc(CC(=O)[NH+]3CC(F)(F)C3)cc21 (3D coordinates assigned)
Cc1oc(=O)oc1COC(=O)n1c(C([NH-])=O)cc2ccc(CC(=O)[NH+]3CC(F)(F)C3)cc21 (nonaromatic ring conformer: 196.23536090300394 kcal/mol)

>  <smiles>  (8) 
Cc1oc(=O)oc1COC(=O)n1c(C(N)=O)cc2ccc(CC(=O)N3CC(F)(F)C3)cc21

>  <score_type>  (8) 
oracle

>  <origin>  (8) 
adg

>  <m_score__min__energy>  (8) 
-11.59

>  <m_primary>  (8) 
energy

$$$$
8:0
     RDKit          3D

 53 54  0  0  0  0  0  0  0  0999 V2000
   -9.0770   18.7610  -32.3390 C   0  0  0  0  0  0  0  0  0  0  0  0
   -8.5610   20.1310  -32.0140 C   0  0  0  0  0  0  0  0  0  0  0  0
   -9.4540   21.2290  -31.9630 C   0  0  0  0  0  0  0  0  0  0  0  0
   -8.9810   22.5240  -31.6960 C   0  0  0  0  0  0  0  0  0  0  0  0
   -7.6140   22.6920  -31.4940 C   0  0  0  0  0  0  0  0  0  0  0  0
   -6.8930   23.8380  -31.2560 C   0  0  0  0  0  0  0  0  0  0  0  0
   -5.5690   23.4250  -31.1560 C   0  0  0  0  0  0  0  0  0  0  0  0
   -4.4580   24.3420  -30.8370 C   0  0  0  0  0  0  0  0  0  0  0  0
   -3.1570   23.8410  -30.5140 N   0  0  0  0  0  0  0  0  0  0  0  0
   -4.6720   25.5810  -30.7970 O   0  0  0  0  0  0  0  0  0  0  0  0
   -5.4650   22.0780  -31.3440 N   0  0  0  0  0  0  0  0  0  0  0  0
   -4.2560   21.3020  -31.4330 C   0  0  0  0  0  0  0  0  0  0  0  0
   -4.1680   20.1930  -30.8390 O   0  0  0  0  0  0  0  0  0  0  0  0
   -3.1720   21.7850  -32.1790 O   0  0  0  0  0  0  0  0  0  0  0  0
   -1.8420   21.2930  -32.0330 C   0  0  2  0  0  0  0  0  0  0  0  0
   -1.0640   22.2390  -31.3000 O   0  0  0  0  0  0  0  0  0  0  0  0
   -0.7940   22.1210  -29.9330 C   0  0  0  0  0  0  0  0  0  0  0  0
   -0.1060   21.1600  -29.4930 O   0  0  0  0  0  0  0  0  0  0  0  0
   -1.3110   23.0840  -29.0610 O   0  0  0  0  0  0  0  0  0  0  0  0
   -0.5060   23.8860  -28.2010 C   0  0  2  0  0  0  0  0  0  0  0  0
   -0.8610   23.6210  -26.8480 O   0  0  0  0  0  0  0  0  0  0  0  0
   -1.6950   24.4670  -26.1110 C   0  0  0  0  0  0  0  0  0  0  0  0
   -2.8340   24.7890  -26.5530 O   0  0  0  0  0  0  0  0  0  0  0  0
   -1.2510   24.9500  -24.8750 O   0  0  0  0  0  0  0  0  0  0  0  0
   -0.3910   26.0840  -24.7350 C   0  0  0  0  0  0  0  0  0  0  0  0
   -0.8190   26.8800  -23.5030 C   0  0  0  0  0  0  0  0  0  0  0  0
    1.0670   25.6300  -24.5990 C   0  0  0  0  0  0  0  0  0  0  0  0
   -0.7350   25.3340  -28.4930 C   0  0  0  0  0  0  0  0  0  0  0  0
   -1.6120   25.6810  -29.3290 O   0  0  0  0  0  0  0  0  0  0  0  0
    0.0130   26.3050  -27.8380 O   0  0  0  0  0  0  0  0  0  0  0  0
   -1.2500   21.0920  -33.3930 C   0  0  0  0  0  0  0  0  0  0  0  0
   -0.0980   21.5280  -33.6550 O   0  0  0  0  0  0  0  0  0  0  0  0
   -1.9860   20.4490  -34.3830 O   0  0  0  0  0  0  0  0  0  0  0  0
   -6.7320   21.6410  -31.5440 C   0  0  0  0  0  0  0  0  0  0  0  0
   -7.1770   20.3410  -31.8250 C   0  0  0  0  0  0  0  0  0  0  0  0
   -9.2824   18.2157  -31.4060 H   0  0  0  0  0  0  0  0  0  0  0  0
  -10.0041   18.8478  -32.9247 H   0  0  0  0  0  0  0  0  0  0  0  0
   -8.3231   18.2146  -32.9247 H   0  0  0  0  0  0  0  0  0  0  0  0
  -10.5283   21.0659  -32.1342 H   0  0  0  0  0  0  0  0  0  0  0  0
   -9.6701   23.3800  -31.6479 H   0  0  0  0  0  0  0  0  0  0  0  0
   -7.2808   24.8633  -31.1642 H   0  0  0  0  0  0  0  0  0  0  0  0
   -2.3710   24.5050  -30.3390 H   0  0  0  0  0  0  0  0  0  0  0  0
   -2.9960   22.8170  -30.3720 H   0  0  0  0  0  0  0  0  0  0  0  0
   -1.8503   20.3372  -31.4887 H   0  0  0  0  0  0  0  0  0  0  0  0
    0.5544   23.6451  -28.3671 H   0  0  0  0  0  0  0  0  0  0  0  0
   -0.4690   26.7208  -25.6285 H   0  0  0  0  0  0  0  0  0  0  0  0
   -0.5257   26.3345  -22.5939 H   0  0  0  0  0  0  0  0  0  0  0  0
   -0.3287   27.8646  -23.5141 H   0  0  0  0  0  0  0  0  0  0  0  0
   -1.9108   27.0139  -23.5141 H   0  0  0  0  0  0  0  0  0  0  0  0
    1.3279   25.5488  -23.5335 H   0  0  0  0  0  0  0  0  0  0  0  0
    1.1926   24.6502  -25.0830 H   0  0  0  0  0  0  0  0  0  0  0  0
    1.7267   26.3653  -25.0830 H   0  0  0  0  0  0  0  0  0  0  0  0
   -6.4655   19.5052  -31.8965 H   0  0  0  0  0  0  0  0  0  0  0  0
  1  2  1  0
  2  3  2  0
  3  4  1  0
  4  5  2  0
  5  6  1  0
  6  7  2  0
  7  8  1  0
  8  9  1  0
  8 10  2  0
  7 11  1  0
 11 12  1  0
 12 13  2  0
 12 14  1  0
 14 15  1  0
 15 16  1  0
 16 17  1  0
 17 18  2  0
 17 19  1  0
 19 20  1  0
 20 21  1  0
 21 22  1  0
 22 23  2  0
 22 24  1  0
 24 25  1  0
 25 26  1  0
 25 27  1  0
 20 28  1  0
 28 29  2  0
 28 30  1  0
 15 31  1  0
 31 32  2  0
 31 33  1  0
 11 34  1  0
 34 35  2  0
 35  2  1  0
 34  5  1  0
  1 36  1  0
  1 37  1  0
  1 38  1  0
  3 39  1  0
  4 40  1  0
  6 41  1  0
  9 42  1  0
  9 43  1  0
 15 44  1  1
 20 45  1  1
 25 46  1  0
 26 47  1  0
 26 48  1  0
 26 49  1  0
 27 50  1  0
 27 51  1  0
 27 52  1  0
 35 53  1  0
M  CHG  2  30  -1  33  -1
M  END
>  <UniqueID>  (9) 
9

>  <SMILES>  (9) 
Cc1ccc2cc(C(N)=O)n(C(=O)O[C@H](OC(=O)O[C@H](OC(=O)OC(C)C)C(=O)[O-])C(=O)[O-])c2c1

>  <Energy>  (9) 
78.76229140448466

>  <Genealogy>  (9) 
Cc1ccc2cc(C(N)=O)n(C(=O)OC(OC(=O)OC(OC(=O)OC(C)C)C(=O)[O-])C(=O)[O-])c2c1 (protonated)
Cc1ccc2cc(C(N)=O)n(C(=O)O[C@H](OC(=O)O[C@H](OC(=O)OC(C)C)C(=O)[O-])C(=O)[O-])c2c1 (chirality)
Cc1ccc2cc(C(N)=O)n(C(=O)O[C@H](OC(=O)O[C@H](OC(=O)OC(C)C)C(=O)[O-])C(=O)[O-])c2c1 (3D coordinates assigned)
Cc1ccc2cc(C(N)=O)n(C(=O)O[C@H](OC(=O)O[C@H](OC(=O)OC(C)C)C(=O)[O-])C(=O)[O-])c2c1 (optimized conformer: 78.76229140448466 kcal/mol)

>  <smiles>  (9) 
Cc1ccc2cc(C(N)=O)n(C(=O)OC(OC(=O)OC(OC(=O)OC(C)C)C(=O)O)C(=O)O)c2c1

>  <score_type>  (9) 
oracle

>  <origin>  (9) 
adg

>  <m_score__min__energy>  (9) 
-10.869999999999999

>  <m_primary>  (9) 
energy

$$$$
9:0
     RDKit          3D

 38 39  0  0  0  0  0  0  0  0999 V2000
   -4.0810   18.2190  -32.7280 C   0  0  0  0  0  0  0  0  0  0  0  0
   -5.6230   18.3210  -32.6480 C   0  0  0  0  0  0  0  0  0  0  0  0
   -6.1180   17.3720  -31.5340 C   0  0  0  0  0  0  0  0  0  0  0  0
   -6.1610   17.8890  -34.0020 C   0  0  0  0  0  0  0  0  0  0  0  0
   -6.8620   16.8470  -34.1250 O   0  0  0  0  0  0  0  0  0  0  0  0
   -5.8230   18.6090  -35.1430 O   0  0  0  0  0  0  0  0  0  0  0  0
   -6.1250   19.7420  -32.3330 C   0  0  0  0  0  0  0  0  0  0  0  0
   -7.4490   20.1810  -32.6350 C   0  0  0  0  0  0  0  0  0  0  0  0
   -7.8650   21.4930  -32.3430 C   0  0  0  0  0  0  0  0  0  0  0  0
   -6.9450   22.3570  -31.7620 C   0  0  0  0  0  0  0  0  0  0  0  0
   -7.0800   23.6760  -31.3850 C   0  0  0  0  0  0  0  0  0  0  0  0
   -5.8380   24.0390  -30.8640 C   0  0  0  0  0  0  0  0  0  0  0  0
   -5.5690   25.3440  -30.2320 C   0  0  0  0  0  0  0  0  0  0  0  0
   -4.3430   26.0330  -30.4720 N   0  0  0  0  0  0  0  0  0  0  0  0
   -6.4140   25.8470  -29.4420 O   0  0  0  0  0  0  0  0  0  0  0  0
   -4.9690   22.9920  -30.9330 N   0  0  0  0  0  0  0  0  0  0  0  0
   -3.5730   22.9760  -30.5890 C   0  0  0  0  0  0  0  0  0  0  0  0
   -2.7010   22.9190  -31.4980 O   0  0  0  0  0  0  0  0  0  0  0  0
   -3.1350   23.0820  -29.1570 C   0  0  0  0  0  0  0  0  0  0  0  0
   -1.5620   23.9870  -29.0390 P   0  0  0  0  0  0  0  0  0  0  0  0
   -0.5900   23.4390  -30.0590 O   0  0  0  0  0  0  0  0  0  0  0  0
   -0.9220   23.7880  -27.4870 O   0  0  0  0  0  0  0  0  0  0  0  0
   -1.8240   25.6310  -29.3400 O   0  0  0  0  0  0  0  0  0  0  0  0
   -5.6640   21.9690  -31.4760 C   0  0  0  0  0  0  0  0  0  0  0  0
   -5.2180   20.6760  -31.7640 C   0  0  0  0  0  0  0  0  0  0  0  0
   -3.6621   18.1913  -31.7113 H   0  0  0  0  0  0  0  0  0  0  0  0
   -3.8017   17.3004  -33.2648 H   0  0  0  0  0  0  0  0  0  0  0  0
   -3.6831   19.0928  -33.2648 H   0  0  0  0  0  0  0  0  0  0  0  0
   -5.8896   17.8098  -30.5511 H   0  0  0  0  0  0  0  0  0  0  0  0
   -7.2047   17.2306  -31.6289 H   0  0  0  0  0  0  0  0  0  0  0  0
   -5.6121   16.3999  -31.6289 H   0  0  0  0  0  0  0  0  0  0  0  0
   -8.1565   19.4815  -33.1042 H   0  0  0  0  0  0  0  0  0  0  0  0
   -8.8892   21.8252  -32.5682 H   0  0  0  0  0  0  0  0  0  0  0  0
   -7.9760   24.3076  -31.4757 H   0  0  0  0  0  0  0  0  0  0  0  0
   -3.4780   25.5100  -30.7380 H   0  0  0  0  0  0  0  0  0  0  0  0
   -3.9047   23.6170  -28.5814 H   0  0  0  0  0  0  0  0  0  0  0  0
   -2.9946   22.0692  -28.7514 H   0  0  0  0  0  0  0  0  0  0  0  0
   -4.1783   20.3853  -31.5529 H   0  0  0  0  0  0  0  0  0  0  0  0
  1  2  1  0
  2  3  1  0
  2  4  1  0
  4  5  2  0
  4  6  1  0
  2  7  1  0
  7  8  2  0
  8  9  1  0
  9 10  2  0
 10 11  1  0
 11 12  2  0
 12 13  1  0
 13 14  1  0
 13 15  2  0
 12 16  1  0
 16 17  1  0
 17 18  2  0
 17 19  1  0
 19 20  1  0
 20 21  2  0
 20 22  1  0
 20 23  1  0
 16 24  1  0
 24 25  2  0
 25  7  1  0
 24 10  1  0
  1 26  1  0
  1 27  1  0
  1 28  1  0
  3 29  1  0
  3 30  1  0
  3 31  1  0
  8 32  1  0
  9 33  1  0
 11 34  1  0
 14 35  1  0
 19 36  1  0
 19 37  1  0
 25 38  1  0
M  CHG  4   6  -1  14  -1  22  -1  23  -1
M  END
>  <UniqueID>  (10) 
10

>  <SMILES>  (10) 
CC(C)(C(=O)[O-])c1ccc2cc(C([NH-])=O)n(C(=O)CP(=O)([O-])[O-])c2c1

>  <Energy>  (10) 
76.00189702082821

>  <Genealogy>  (10) 
CC(C)(C(=O)[O-])c1ccc2cc(C([NH-])=O)n(C(=O)CP(=O)([O-])[O-])c2c1 (protonated)
CC(C)(C(=O)[O-])c1ccc2cc(C([NH-])=O)n(C(=O)CP(=O)([O-])[O-])c2c1 (3D coordinates assigned)
CC(C)(C(=O)[O-])c1ccc2cc(C([NH-])=O)n(C(=O)CP(=O)([O-])[O-])c2c1 (optimized conformer: 76.00189702082821 kcal/mol)

>  <smiles>  (10) 
CC(C)(C(=O)O)c1ccc2cc(C(N)=O)n(C(=O)CP(=O)(O)O)c2c1

>  <score_type>  (10) 
oracle

>  <origin>  (10) 
adg

>  <m_score__min__energy>  (10) 
-13.19

>  <m_primary>  (10) 
energy

$$$$
10:0
     RDKit          3D

 40 41  0  0  0  0  0  0  0  0999 V2000
   -2.6680   20.4850  -28.4430 C   0  0  0  0  0  0  0  0  0  0  0  0
   -1.8270   21.7730  -28.5390 C   0  0  0  0  0  0  0  0  0  0  0  0
   -1.4800   22.2460  -27.1080 C   0  0  0  0  0  0  0  0  0  0  0  0
   -0.6210   21.4320  -29.1860 O   0  0  0  0  0  0  0  0  0  0  0  0
   -2.5590   22.9030  -29.3570 C   0  0  1  0  0  0  0  0  0  0  0  0
   -1.7620   24.1880  -29.3280 C   0  0  0  0  0  0  0  0  0  0  0  0
   -2.3560   25.2980  -29.3260 O   0  0  0  0  0  0  0  0  0  0  0  0
   -0.3720   24.1600  -29.2790 O   0  0  0  0  0  0  0  0  0  0  0  0
   -2.9350   22.5460  -30.7910 C   0  0  0  0  0  0  0  0  0  0  0  0
   -2.0470   22.2150  -31.6200 O   0  0  0  0  0  0  0  0  0  0  0  0
   -4.3130   22.4950  -31.2080 N   0  0  0  0  0  0  0  0  0  0  0  0
   -5.2580   23.4640  -31.0440 C   0  0  0  0  0  0  0  0  0  0  0  0
   -5.0560   24.7410  -30.3200 C   0  0  0  0  0  0  0  0  0  0  0  0
   -5.6090   24.9430  -29.0170 N   0  0  0  0  0  0  0  0  0  0  0  0
   -4.3800   25.6640  -30.8440 O   0  0  0  0  0  0  0  0  0  0  0  0
   -6.4670   23.0640  -31.6130 C   0  0  0  0  0  0  0  0  0  0  0  0
   -6.2260   21.8180  -32.1440 C   0  0  0  0  0  0  0  0  0  0  0  0
   -7.0720   20.9710  -32.8530 C   0  0  0  0  0  0  0  0  0  0  0  0
   -6.5460   19.7570  -33.3220 C   0  0  0  0  0  0  0  0  0  0  0  0
   -5.1930   19.4080  -33.0730 C   0  0  0  0  0  0  0  0  0  0  0  0
   -4.6200   18.1320  -33.6390 C   0  0  0  0  0  0  0  0  0  0  0  0
   -4.9850   17.0470  -32.8610 F   0  0  0  0  0  0  0  0  0  0  0  0
   -3.2420   18.2250  -33.6660 F   0  0  0  0  0  0  0  0  0  0  0  0
   -5.0830   17.9170  -34.9250 F   0  0  0  0  0  0  0  0  0  0  0  0
   -4.3600   20.3090  -32.3720 C   0  0  0  0  0  0  0  0  0  0  0  0
   -4.9180   21.4990  -31.8930 C   0  0  0  0  0  0  0  0  0  0  0  0
   -2.8328   20.2327  -27.3851 H   0  0  0  0  0  0  0  0  0  0  0  0
   -3.6378   20.6426  -28.9377 H   0  0  0  0  0  0  0  0  0  0  0  0
   -2.1337   19.6605  -28.9377 H   0  0  0  0  0  0  0  0  0  0  0  0
   -1.9653   21.5844  -26.3754 H   0  0  0  0  0  0  0  0  0  0  0  0
   -0.3898   22.2137  -26.9654 H   0  0  0  0  0  0  0  0  0  0  0  0
   -1.8381   23.2763  -26.9654 H   0  0  0  0  0  0  0  0  0  0  0  0
   -0.4950   22.0560  -29.9490 H   0  0  0  0  0  0  0  0  0  0  0  0
   -3.5202   23.0343  -28.8384 H   0  0  0  0  0  0  0  0  0  0  0  0
   -6.2340   24.2370  -28.5710 H   0  0  0  0  0  0  0  0  0  0  0  0
   -5.4260   25.8360  -28.5060 H   0  0  0  0  0  0  0  0  0  0  0  0
   -7.4126   23.6257  -31.6329 H   0  0  0  0  0  0  0  0  0  0  0  0
   -8.1209   21.2443  -33.0403 H   0  0  0  0  0  0  0  0  0  0  0  0
   -7.1897   19.0684  -33.8889 H   0  0  0  0  0  0  0  0  0  0  0  0
   -3.2969   20.0798  -32.2068 H   0  0  0  0  0  0  0  0  0  0  0  0
  1  2  1  0
  2  3  1  0
  2  4  1  0
  2  5  1  0
  5  6  1  0
  6  7  2  0
  6  8  1  0
  5  9  1  0
  9 10  2  0
  9 11  1  0
 11 12  1  0
 12 13  1  0
 13 14  1  0
 13 15  2  0
 12 16  2  0
 16 17  1  0
 17 18  2  0
 18 19  1  0
 19 20  2  0
 20 21  1  0
 21 22  1  0
 21 23  1  0
 21 24  1  0
 20 25  1  0
 25 26  2  0
 26 11  1  0
 26 17  1  0
  1 27  1  0
  1 28  1  0
  1 29  1  0
  3 30  1  0
  3 31  1  0
  3 32  1  0
  4 33  1  0
  5 34  1  1
 14 35  1  0
 14 36  1  0
 16 37  1  0
 18 38  1  0
 19 39  1  0
 25 40  1  0
M  CHG  1   8  -1
M  END
>  <UniqueID>  (11) 
11

>  <SMILES>  (11) 
CC(C)(O)[C@@H](C(=O)[O-])C(=O)n1c(C(N)=O)cc2ccc(C(F)(F)F)cc21

>  <Energy>  (11) 
83.02212269954356

>  <Genealogy>  (11) 
CC(C)(O)C(C(=O)[O-])C(=O)n1c(C(N)=O)cc2ccc(C(F)(F)F)cc21 (protonated)
CC(C)(O)[C@@H](C(=O)[O-])C(=O)n1c(C(N)=O)cc2ccc(C(F)(F)F)cc21 (chirality)
CC(C)(O)[C@@H](C(=O)[O-])C(=O)n1c(C(N)=O)cc2ccc(C(F)(F)F)cc21 (3D coordinates assigned)
CC(C)(O)[C@@H](C(=O)[O-])C(=O)n1c(C(N)=O)cc2ccc(C(F)(F)F)cc21 (optimized conformer: 83.02212269954356 kcal/mol)

>  <smiles>  (11) 
CC(C)(O)C(C(=O)O)C(=O)n1c(C(N)=O)cc2ccc(C(F)(F)F)cc21

>  <score_type>  (11) 
oracle

>  <origin>  (11) 
adg

>  <m_score__min__energy>  (11) 
-10.1

>  <m_primary>  (11) 
energy

$$$$
11:0
     RDKit          3D

 41 43  0  0  0  0  0  0  0  0999 V2000
   -6.4600   16.8110  -32.9020 C   0  0  0  0  0  0  0  0  0  0  0  0
   -6.8140   17.9210  -33.8040 N   0  0  0  0  0  0  0  0  0  0  0  0
   -7.2570   19.1220  -33.0880 C   0  0  0  0  0  0  0  0  0  0  0  0
   -6.1420   19.7720  -32.2550 C   0  0  0  0  0  0  0  0  0  0  0  0
   -4.7900   19.6960  -32.8520 N   0  0  0  0  0  0  0  0  0  0  0  0
   -3.6780   20.3480  -32.1600 C   0  0  0  0  0  0  0  0  0  0  0  0
   -2.3830   19.7440  -32.1080 C   0  0  0  0  0  0  0  0  0  0  0  0
   -1.3130   20.3600  -31.4400 C   0  0  0  0  0  0  0  0  0  0  0  0
   -1.5380   21.5880  -30.8360 C   0  0  0  0  0  0  0  0  0  0  0  0
   -0.6860   22.3860  -30.1070 C   0  0  0  0  0  0  0  0  0  0  0  0
   -1.4480   23.4910  -29.7330 C   0  0  0  0  0  0  0  0  0  0  0  0
   -0.9140   24.6380  -28.9670 C   0  0  0  0  0  0  0  0  0  0  0  0
   -1.6150   25.8800  -28.9680 N   0  0  0  0  0  0  0  0  0  0  0  0
    0.1450   24.5290  -28.2970 O   0  0  0  0  0  0  0  0  0  0  0  0
   -2.7170   23.3780  -30.2140 N   0  0  0  0  0  0  0  0  0  0  0  0
   -3.8120   24.2860  -30.0170 C   0  0  0  0  0  0  0  0  0  0  0  0
   -3.8570   25.3630  -30.6680 O   0  0  0  0  0  0  0  0  0  0  0  0
   -4.9130   23.9580  -29.0570 C   0  0  0  0  0  0  0  0  0  0  0  0
   -6.4010   23.5750  -29.9560 Cl  0  0  0  0  0  0  0  0  0  0  0  0
   -2.7560   22.2050  -30.8840 C   0  0  0  0  0  0  0  0  0  0  0  0
   -3.8480   21.6110  -31.5220 C   0  0  0  0  0  0  0  0  0  0  0  0
   -4.5000   18.8530  -34.0330 C   0  0  0  0  0  0  0  0  0  0  0  0
   -5.7340   18.2700  -34.7340 C   0  0  0  0  0  0  0  0  0  0  0  0
   -6.5648   17.1396  -31.8575 H   0  0  0  0  0  0  0  0  0  0  0  0
   -7.1311   15.9594  -33.0876 H   0  0  0  0  0  0  0  0  0  0  0  0
   -5.4198   16.5052  -33.0876 H   0  0  0  0  0  0  0  0  0  0  0  0
   -7.6171   19.8557  -33.8242 H   0  0  0  0  0  0  0  0  0  0  0  0
   -8.0506   18.8146  -32.3911 H   0  0  0  0  0  0  0  0  0  0  0  0
   -6.3945   20.8336  -32.1161 H   0  0  0  0  0  0  0  0  0  0  0  0
   -6.0939   19.2075  -31.3121 H   0  0  0  0  0  0  0  0  0  0  0  0
   -2.2216   18.7748  -32.6026 H   0  0  0  0  0  0  0  0  0  0  0  0
   -0.3233   19.8819  -31.3968 H   0  0  0  0  0  0  0  0  0  0  0  0
    0.3707   22.1928  -29.8702 H   0  0  0  0  0  0  0  0  0  0  0  0
   -2.6590   25.9070  -28.9710 H   0  0  0  0  0  0  0  0  0  0  0  0
   -4.6203   23.0899  -28.4481 H   0  0  0  0  0  0  0  0  0  0  0  0
   -5.0956   24.8238  -28.4035 H   0  0  0  0  0  0  0  0  0  0  0  0
   -4.8271   22.1122  -31.5317 H   0  0  0  0  0  0  0  0  0  0  0  0
   -3.9510   19.4660  -34.7630 H   0  0  0  0  0  0  0  0  0  0  0  0
   -3.9231   17.9931  -33.6619 H   0  0  0  0  0  0  0  0  0  0  0  0
   -6.1147   19.0143  -35.4489 H   0  0  0  0  0  0  0  0  0  0  0  0
   -5.4191   17.3420  -35.2336 H   0  0  0  0  0  0  0  0  0  0  0  0
  1  2  1  0
  2  3  1  0
  3  4  1  0
  4  5  1  0
  5  6  1  0
  6  7  2  0
  7  8  1  0
  8  9  2  0
  9 10  1  0
 10 11  2  0
 11 12  1  0
 12 13  1  0
 12 14  2  0
 11 15  1  0
 15 16  1  0
 16 17  2  0
 16 18  1  0
 18 19  1  0
 15 20  1  0
 20 21  2  0
  5 22  1  0
 22 23  1  0
 23  2  1  0
 21  6  1  0
 20  9  1  0
  1 24  1  0
  1 25  1  0
  1 26  1  0
  3 27  1  0
  3 28  1  0
  4 29  1  0
  4 30  1  0
  7 31  1  0
  8 32  1  0
 10 33  1  0
 13 34  1  0
 18 35  1  0
 18 36  1  0
 21 37  1  0
 22 38  1  0
 22 39  1  0
 23 40  1  0
 23 41  1  0
M  CHG  1  13  -1
M  END
>  <UniqueID>  (12) 
12

>  <SMILES>  (12) 
CN1CCN(c2ccc3cc(C([NH-])=O)n(C(=O)CCl)c3c2)CC1

>  <Energy>  (12) 
90.93546269781487

>  <Genealogy>  (12) 
CN1CCN(c2ccc3cc(C([NH-])=O)n(C(=O)CCl)c3c2)CC1 (protonated)
CN1CCN(c2ccc3cc(C([NH-])=O)n(C(=O)CCl)c3c2)CC1 (3D coordinates assigned)
CN1CCN(c2ccc3cc(C([NH-])=O)n(C(=O)CCl)c3c2)CC1 (nonaromatic ring conformer: 90.93546269781487 kcal/mol)

>  <smiles>  (12) 
CN1CCN(c2ccc3cc(C(N)=O)n(C(=O)CCl)c3c2)CC1

>  <score_type>  (12) 
oracle

>  <origin>  (12) 
adg

>  <m_score__min__energy>  (12) 
-10.640000000000001

>  <m_primary>  (12) 
energy

$$$$
12:0
     RDKit          3D

 36 37  0  0  0  0  0  0  0  0999 V2000
   -3.8810   23.3960  -28.0100 C   0  0  0  0  0  0  0  0  0  0  0  0
   -3.0600   22.5230  -28.9520 C   0  0  0  0  0  0  0  0  0  0  0  0
   -2.9470   23.1350  -30.2340 O   0  0  0  0  0  0  0  0  0  0  0  0
   -3.6830   22.7250  -31.3520 C   0  0  0  0  0  0  0  0  0  0  0  0
   -3.1010   22.2160  -32.3480 O   0  0  0  0  0  0  0  0  0  0  0  0
   -5.1060   22.9120  -31.3730 N   0  0  0  0  0  0  0  0  0  0  0  0
   -5.8160   23.9870  -30.9250 C   0  0  0  0  0  0  0  0  0  0  0  0
   -5.2500   25.2700  -30.4600 C   0  0  0  0  0  0  0  0  0  0  0  0
   -3.9360   25.6720  -30.8370 N   0  0  0  0  0  0  0  0  0  0  0  0
   -5.9550   26.0430  -29.7590 O   0  0  0  0  0  0  0  0  0  0  0  0
   -7.1850   23.7500  -31.0430 C   0  0  0  0  0  0  0  0  0  0  0  0
   -7.2910   22.4910  -31.5890 C   0  0  0  0  0  0  0  0  0  0  0  0
   -8.4200   21.7500  -31.9110 C   0  0  0  0  0  0  0  0  0  0  0  0
   -8.2370   20.4610  -32.4380 C   0  0  0  0  0  0  0  0  0  0  0  0
   -6.9320   19.9230  -32.6300 C   0  0  0  0  0  0  0  0  0  0  0  0
   -6.7530   18.5860  -33.1650 N   0  0  0  0  0  0  0  0  0  0  0  0
   -6.0440   18.3790  -34.4350 C   0  0  0  0  0  0  0  0  0  0  0  0
   -7.2770   17.4180  -32.4470 C   0  0  0  0  0  0  0  0  0  0  0  0
   -5.8090   20.7190  -32.2840 C   0  0  0  0  0  0  0  0  0  0  0  0
   -6.0250   22.0070  -31.7790 C   0  0  0  0  0  0  0  0  0  0  0  0
   -3.6394   23.1391  -26.9681 H   0  0  0  0  0  0  0  0  0  0  0  0
   -3.6438   24.4547  -28.1911 H   0  0  0  0  0  0  0  0  0  0  0  0
   -4.9523   23.2241  -28.1911 H   0  0  0  0  0  0  0  0  0  0  0  0
   -2.0544   22.3817  -28.5292 H   0  0  0  0  0  0  0  0  0  0  0  0
   -3.5653   21.5526  -29.0661 H   0  0  0  0  0  0  0  0  0  0  0  0
   -3.0960   25.2990  -30.3420 H   0  0  0  0  0  0  0  0  0  0  0  0
   -8.0057   24.4255  -30.7599 H   0  0  0  0  0  0  0  0  0  0  0  0
   -9.4289   22.1606  -31.7578 H   0  0  0  0  0  0  0  0  0  0  0  0
   -9.1160   19.8569  -32.7070 H   0  0  0  0  0  0  0  0  0  0  0  0
   -5.0065   18.0761  -34.2306 H   0  0  0  0  0  0  0  0  0  0  0  0
   -6.5491   17.5908  -35.0127 H   0  0  0  0  0  0  0  0  0  0  0  0
   -6.0456   19.3151  -35.0127 H   0  0  0  0  0  0  0  0  0  0  0  0
   -7.2002   17.5891  -31.3631 H   0  0  0  0  0  0  0  0  0  0  0  0
   -8.3312   17.2624  -32.7199 H   0  0  0  0  0  0  0  0  0  0  0  0
   -6.6923   16.5271  -32.7199 H   0  0  0  0  0  0  0  0  0  0  0  0
   -4.7874   20.3311  -32.4103 H   0  0  0  0  0  0  0  0  0  0  0  0
  1  2  1  0
  2  3  1  0
  3  4  1  0
  4  5  2  0
  4  6  1  0
  6  7  1  0
  7  8  1  0
  8  9  1  0
  8 10  2  0
  7 11  2  0
 11 12  1  0
 12 13  2  0
 13 14  1  0
 14 15  2  0
 15 16  1  0
 16 17  1  0
 16 18  1  0
 15 19  1  0
 19 20  2  0
 20  6  1  0
 20 12  1  0
  1 21  1  0
  1 22  1  0
  1 23  1  0
  2 24  1  0
  2 25  1  0
  9 26  1  0
 11 27  1  0
 13 28  1  0
 14 29  1  0
 17 30  1  0
 17 31  1  0
 17 32  1  0
 18 33  1  0
 18 34  1  0
 18 35  1  0
 19 36  1  0
M  CHG  1   9  -1
M  END
>  <UniqueID>  (13) 
13

>  <SMILES>  (13) 
CCOC(=O)n1c(C([NH-])=O)cc2ccc(N(C)C)cc21

>  <Energy>  (13) 
72.54287437002806

>  <Genealogy>  (13) 
CCOC(=O)n1c(C([NH-])=O)cc2ccc(N(C)C)cc21 (protonated)
CCOC(=O)n1c(C([NH-])=O)cc2ccc(N(C)C)cc21 (3D coordinates assigned)
CCOC(=O)n1c(C([NH-])=O)cc2ccc(N(C)C)cc21 (optimized conformer: 72.54287437002806 kcal/mol)

>  <smiles>  (13) 
CCOC(=O)n1c(C(N)=O)cc2ccc(N(C)C)cc21

>  <score_type>  (13) 
oracle

>  <origin>  (13) 
adg

>  <m_score__min__energy>  (13) 
-9.3000000000000007

>  <m_primary>  (13) 
energy

$$$$
13:0
     RDKit          3D

 44 46  0  0  0  0  0  0  0  0999 V2000
   -1.6200   22.9290  -30.1920 N   0  0  0  0  0  0  0  0  0  0  0  0
   -2.7620   23.7820  -30.0960 C   0  0  0  0  0  0  0  0  0  0  0  0
   -2.6320   24.9230  -29.5800 O   0  0  0  0  0  0  0  0  0  0  0  0
   -4.0760   23.3490  -30.6220 C   0  0  0  0  0  0  0  0  0  0  0  0
   -5.2680   24.0380  -30.4050 C   0  0  0  0  0  0  0  0  0  0  0  0
   -6.2480   23.2620  -30.9800 C   0  0  0  0  0  0  0  0  0  0  0  0
   -7.6200   23.4770  -31.0690 C   0  0  0  0  0  0  0  0  0  0  0  0
   -8.3940   22.5220  -31.7480 C   0  0  0  0  0  0  0  0  0  0  0  0
   -7.7890   21.3750  -32.3300 C   0  0  0  0  0  0  0  0  0  0  0  0
   -8.5570   20.3900  -33.0480 N   0  0  0  0  0  0  0  0  0  0  0  0
   -9.5440   19.4970  -32.4390 C   0  0  0  0  0  0  0  0  0  0  0  0
   -8.8840   18.1930  -31.9830 C   0  0  0  0  0  0  0  0  0  0  0  0
   -7.4540   18.2170  -32.2930 N   0  0  0  0  0  0  0  0  0  0  0  0
   -6.5240   18.1870  -31.2950 C   0  0  0  0  0  0  0  0  0  0  0  0
   -5.2030   18.2390  -31.6020 N   0  0  0  0  0  0  0  0  0  0  0  0
   -4.7940   18.3280  -32.8930 C   0  0  0  0  0  0  0  0  0  0  0  0
   -3.4020   18.3830  -33.2000 N   0  0  0  0  0  0  0  0  0  0  0  0
   -5.7530   18.3720  -33.9060 C   0  0  0  0  0  0  0  0  0  0  0  0
   -7.0650   18.3180  -33.5680 N   0  0  0  0  0  0  0  0  0  0  0  0
   -6.3910   21.1990  -32.2190 C   0  0  0  0  0  0  0  0  0  0  0  0
   -5.6460   22.1570  -31.5180 C   0  0  0  0  0  0  0  0  0  0  0  0
   -4.3120   22.1930  -31.3070 N   0  0  0  0  0  0  0  0  0  0  0  0
   -3.3440   21.2380  -31.7700 C   0  0  0  0  0  0  0  0  0  0  0  0
   -2.9950   20.2830  -31.0250 O   0  0  0  0  0  0  0  0  0  0  0  0
   -2.7750   21.3730  -33.0770 N   0  0  0  0  0  0  0  0  0  0  0  0
   -1.3910   21.0390  -33.3860 C   0  0  0  0  0  0  0  0  0  0  0  0
   -0.8470   22.0100  -34.2070 F   0  0  0  0  0  0  0  0  0  0  0  0
   -1.3520   19.8220  -34.0370 F   0  0  0  0  0  0  0  0  0  0  0  0
   -0.6560   20.9530  -32.2180 F   0  0  0  0  0  0  0  0  0  0  0  0
   -0.6890   23.2590  -29.8520 H   0  0  0  0  0  0  0  0  0  0  0  0
   -1.6980   21.9540  -30.5590 H   0  0  0  0  0  0  0  0  0  0  0  0
   -5.3977   24.9983  -29.8845 H   0  0  0  0  0  0  0  0  0  0  0  0
   -8.0842   24.3680  -30.6211 H   0  0  0  0  0  0  0  0  0  0  0  0
   -9.4818   22.6633  -31.8305 H   0  0  0  0  0  0  0  0  0  0  0  0
   -8.4150   20.3050  -34.0800 H   0  0  0  0  0  0  0  0  0  0  0  0
   -9.9953   19.9968  -31.5693 H   0  0  0  0  0  0  0  0  0  0  0  0
  -10.3161   19.2607  -33.1860 H   0  0  0  0  0  0  0  0  0  0  0  0
   -9.0189   18.0774  -30.8974 H   0  0  0  0  0  0  0  0  0  0  0  0
   -9.3523   17.3491  -32.5108 H   0  0  0  0  0  0  0  0  0  0  0  0
   -6.8440   18.1209  -30.2447 H   0  0  0  0  0  0  0  0  0  0  0  0
   -2.8330   19.2120  -32.9190 H   0  0  0  0  0  0  0  0  0  0  0  0
   -2.9320   17.6000  -33.7070 H   0  0  0  0  0  0  0  0  0  0  0  0
   -5.4497   18.4492  -34.9605 H   0  0  0  0  0  0  0  0  0  0  0  0
   -5.8975   20.3274  -32.6738 H   0  0  0  0  0  0  0  0  0  0  0  0
  1  2  1  0
  2  3  2  0
  2  4  1  0
  4  5  2  0
  5  6  1  0
  6  7  2  0
  7  8  1  0
  8  9  2  0
  9 10  1  0
 10 11  1  0
 11 12  1  0
 12 13  1  0
 13 14  2  0
 14 15  1  0
 15 16  2  0
 16 17  1  0
 16 18  1  0
 18 19  2  0
  9 20  1  0
 20 21  2  0
 21 22  1  0
 22 23  1  0
 23 24  2  0
 23 25  1  0
 25 26  1  0
 26 27  1  0
 26 28  1  0
 26 29  1  0
 22  4  1  0
 21  6  1  0
 19 13  1  0
  1 30  1  0
  1 31  1  0
  5 32  1  0
  7 33  1  0
  8 34  1  0
 10 35  1  0
 11 36  1  0
 11 37  1  0
 12 38  1  0
 12 39  1  0
 14 40  1  0
 17 41  1  0
 17 42  1  0
 18 43  1  0
 20 44  1  0
M  CHG  2  13   1  25  -1
M  END
>  <UniqueID>  (14) 
14

>  <SMILES>  (14) 
NC(=O)c1cc2ccc(NCC[n+]3cnc(N)cn3)cc2n1C(=O)[N-]C(F)(F)F

>  <Energy>  (14) 
80.33012705532839

>  <Genealogy>  (14) 
NC(=O)c1cc2ccc(NCC[n+]3cnc(N)cn3)cc2n1C(=O)[N-]C(F)(F)F (protonated)
NC(=O)c1cc2ccc(NCC[n+]3cnc(N)cn3)cc2n1C(=O)[N-]C(F)(F)F (3D coordinates assigned)
NC(=O)c1cc2ccc(NCC[n+]3cnc(N)cn3)cc2n1C(=O)[N-]C(F)(F)F (optimized conformer: 80.33012705532839 kcal/mol)

>  <smiles>  (14) 
NC(=O)c1cc2ccc(NCC[n+]3cnc(N)cn3)cc2n1C(=O)NC(F)(F)F

>  <score_type>  (14) 
oracle

>  <origin>  (14) 
adg

>  <m_score__min__energy>  (14) 
-8

>  <m_primary>  (14) 
energy

$$$$
14:0
     RDKit          3D

 51 53  0  0  0  0  0  0  0  0999 V2000
   -1.7600   25.6660  -28.9630 N   0  0  0  0  0  0  0  0  0  0  0  0
   -1.0940   24.4340  -29.2290 C   0  0  0  0  0  0  0  0  0  0  0  0
    0.0640   24.2480  -28.7690 O   0  0  0  0  0  0  0  0  0  0  0  0
   -1.7360   23.3830  -30.0470 C   0  0  0  0  0  0  0  0  0  0  0  0
   -1.0750   22.2470  -30.5140 C   0  0  0  0  0  0  0  0  0  0  0  0
   -2.0120   21.5530  -31.2470 C   0  0  0  0  0  0  0  0  0  0  0  0
   -1.9090   20.3440  -31.9280 C   0  0  0  0  0  0  0  0  0  0  0  0
   -3.0520   19.8590  -32.5860 C   0  0  0  0  0  0  0  0  0  0  0  0
   -4.2660   20.5920  -32.5610 C   0  0  0  0  0  0  0  0  0  0  0  0
   -5.4990   20.0440  -33.2310 C   0  0  0  0  0  0  0  0  0  0  0  0
   -6.7710   20.8260  -32.8500 C   0  0  0  0  0  0  0  0  0  0  0  0
   -7.5090   20.2930  -31.5980 C   0  0  0  0  0  0  0  0  0  0  0  0
   -8.3970   21.3040  -30.9650 N   0  0  0  0  0  0  0  0  0  0  0  0
   -7.6170   22.3060  -30.2210 C   0  0  0  0  0  0  0  0  0  0  0  0
   -7.2990   23.4360  -31.1810 C   0  0  0  0  0  0  0  0  0  0  0  0
   -8.3960   23.3800  -32.2270 C   0  0  0  0  0  0  0  0  0  0  0  0
   -9.1540   22.0820  -31.9640 C   0  0  0  0  0  0  0  0  0  0  0  0
   -4.3310   21.8170  -31.8610 C   0  0  0  0  0  0  0  0  0  0  0  0
   -3.1820   22.2660  -31.2090 C   0  0  0  0  0  0  0  0  0  0  0  0
   -3.0300   23.3830  -30.4690 N   0  0  0  0  0  0  0  0  0  0  0  0
   -4.0570   24.3350  -30.1640 C   0  0  0  0  0  0  0  0  0  0  0  0
   -4.2410   25.3140  -30.9350 O   0  0  0  0  0  0  0  0  0  0  0  0
   -4.9760   24.1310  -28.9860 C   0  0  2  0  0  0  0  0  0  0  0  0
   -5.7510   25.2800  -28.7440 O   0  0  0  0  0  0  0  0  0  0  0  0
   -4.1830   23.7220  -27.7350 C   0  0  0  0  0  0  0  0  0  0  0  0
   -3.5620   24.8400  -27.1610 O   0  0  0  0  0  0  0  0  0  0  0  0
   -2.7990   25.7430  -29.0380 H   0  0  0  0  0  0  0  0  0  0  0  0
   -0.0270   21.9650  -30.3348 H   0  0  0  0  0  0  0  0  0  0  0  0
   -0.9619   19.7850  -31.9506 H   0  0  0  0  0  0  0  0  0  0  0  0
   -3.0048   18.9016  -33.1257 H   0  0  0  0  0  0  0  0  0  0  0  0
   -5.3631   20.0999  -34.3211 H   0  0  0  0  0  0  0  0  0  0  0  0
   -5.6303   19.0051  -32.8941 H   0  0  0  0  0  0  0  0  0  0  0  0
   -6.4863   21.8715  -32.6604 H   0  0  0  0  0  0  0  0  0  0  0  0
   -7.4687   20.7127  -33.6928 H   0  0  0  0  0  0  0  0  0  0  0  0
   -8.1203   19.4280  -31.8947 H   0  0  0  0  0  0  0  0  0  0  0  0
   -6.7418   20.0232  -30.8573 H   0  0  0  0  0  0  0  0  0  0  0  0
   -9.0570   20.8400  -30.2990 H   0  0  0  0  0  0  0  0  0  0  0  0
   -8.2054   22.6870  -29.3733 H   0  0  0  0  0  0  0  0  0  0  0  0
   -6.6925   21.8620  -29.8233 H   0  0  0  0  0  0  0  0  0  0  0  0
   -7.3122   24.4035  -30.6578 H   0  0  0  0  0  0  0  0  0  0  0  0
   -6.2979   23.3327  -31.6250 H   0  0  0  0  0  0  0  0  0  0  0  0
   -9.0686   24.2442  -32.1236 H   0  0  0  0  0  0  0  0  0  0  0  0
   -7.9853   23.4099  -33.2470 H   0  0  0  0  0  0  0  0  0  0  0  0
  -10.1585   22.3086  -31.5771 H   0  0  0  0  0  0  0  0  0  0  0  0
   -9.2592   21.5065  -32.8955 H   0  0  0  0  0  0  0  0  0  0  0  0
   -5.2624   22.4014  -31.8306 H   0  0  0  0  0  0  0  0  0  0  0  0
   -5.6647   23.3092  -29.2316 H   0  0  0  0  0  0  0  0  0  0  0  0
   -5.3480   25.7640  -27.9770 H   0  0  0  0  0  0  0  0  0  0  0  0
   -4.8693   23.2728  -27.0020 H   0  0  0  0  0  0  0  0  0  0  0  0
   -3.4100   22.9952  -28.0252 H   0  0  0  0  0  0  0  0  0  0  0  0
   -3.6230   25.5740  -27.8280 H   0  0  0  0  0  0  0  0  0  0  0  0
  1  2  1  0
  2  3  2  0
  2  4  1  0
  4  5  2  0
  5  6  1  0
  6  7  2  0
  7  8  1  0
  8  9  2  0
  9 10  1  0
 10 11  1  0
 11 12  1  0
 12 13  1  0
 13 14  1  0
 14 15  1  0
 15 16  1  0
 16 17  1  0
  9 18  1  0
 18 19  2  0
 19 20  1  0
 20 21  1  0
 21 22  2  0
 21 23  1  0
 23 24  1  0
 23 25  1  0
 25 26  1  0
 20  4  1  0
 19  6  1  0
 17 13  1  0
  1 27  1  0
  5 28  1  0
  7 29  1  0
  8 30  1  0
 10 31  1  0
 10 32  1  0
 11 33  1  0
 11 34  1  0
 12 35  1  0
 12 36  1  0
 13 37  1  0
 14 38  1  0
 14 39  1  0
 15 40  1  0
 15 41  1  0
 16 42  1  0
 16 43  1  0
 17 44  1  0
 17 45  1  0
 18 46  1  0
 23 47  1  6
 24 48  1  0
 25 49  1  0
 25 50  1  0
 26 51  1  0
M  CHG  2   1  -1  13   1
M  END
>  <UniqueID>  (15) 
15

>  <SMILES>  (15) 
[NH-]C(=O)c1cc2ccc(CCC[NH+]3CCCC3)cc2n1C(=O)[C@H](O)CO

>  <Energy>  (15) 
92.18290765892965

>  <Genealogy>  (15) 
[NH-]C(=O)c1cc2ccc(CCC[NH+]3CCCC3)cc2n1C(=O)C(O)CO (protonated)
[NH-]C(=O)c1cc2ccc(CCC[NH+]3CCCC3)cc2n1C(=O)[C@H](O)CO (chirality)
[NH-]C(=O)c1cc2ccc(CCC[NH+]3CCCC3)cc2n1C(=O)[C@H](O)CO (3D coordinates assigned)
[NH-]C(=O)c1cc2ccc(CCC[NH+]3CCCC3)cc2n1C(=O)[C@H](O)CO (nonaromatic ring conformer: 92.18290765892965 kcal/mol)

>  <smiles>  (15) 
NC(=O)c1cc2ccc(CCCN3CCCC3)cc2n1C(=O)C(O)CO

>  <score_type>  (15) 
oracle

>  <origin>  (15) 
adg

>  <m_score__min__energy>  (15) 
-10.140000000000001

>  <m_primary>  (15) 
energy

$$$$
15:0
     RDKit          3D

 46 47  0  0  0  0  0  0  0  0999 V2000
   -3.2920   20.3400  -33.3510 C   0  0  0  0  0  0  0  0  0  0  0  0
   -3.5700   19.2080  -34.1650 O   0  0  0  0  0  0  0  0  0  0  0  0
   -4.7880   18.5280  -34.1160 C   0  0  0  0  0  0  0  0  0  0  0  0
   -5.7040   18.7960  -34.9430 O   0  0  0  0  0  0  0  0  0  0  0  0
   -4.9860   17.5210  -33.1180 N   0  0  0  0  0  0  0  0  0  0  0  0
   -5.7380   17.7320  -31.8830 C   0  0  0  0  0  0  0  0  0  0  0  0
   -7.1680   18.2000  -32.1780 C   0  0  0  0  0  0  0  0  0  0  0  0
   -7.3340   19.6790  -31.9470 C   0  0  0  0  0  0  0  0  0  0  0  0
   -8.6290   20.2540  -31.9320 C   0  0  0  0  0  0  0  0  0  0  0  0
   -8.8060   21.6130  -31.6220 C   0  0  0  0  0  0  0  0  0  0  0  0
   -7.6730   22.3690  -31.3360 C   0  0  0  0  0  0  0  0  0  0  0  0
   -7.5640   23.6810  -30.9310 C   0  0  0  0  0  0  0  0  0  0  0  0
   -6.2020   23.8920  -30.7330 C   0  0  0  0  0  0  0  0  0  0  0  0
   -5.6300   25.1880  -30.3150 C   0  0  0  0  0  0  0  0  0  0  0  0
   -4.2700   25.5240  -30.5980 N   0  0  0  0  0  0  0  0  0  0  0  0
   -6.3670   26.0340  -29.7440 O   0  0  0  0  0  0  0  0  0  0  0  0
   -5.4960   22.7580  -30.9990 N   0  0  0  0  0  0  0  0  0  0  0  0
   -4.0970   22.5300  -30.7790 C   0  0  0  0  0  0  0  0  0  0  0  0
   -3.2450   23.0510  -31.5490 O   0  0  0  0  0  0  0  0  0  0  0  0
   -3.6870   21.7240  -29.7090 O   0  0  0  0  0  0  0  0  0  0  0  0
   -3.7520   22.1250  -28.3410 C   0  0  0  0  0  0  0  0  0  0  0  0
   -3.9580   23.6380  -28.2170 C   0  0  0  0  0  0  0  0  0  0  0  0
   -2.6390   24.4170  -28.2170 C   0  0  0  0  0  0  0  0  0  0  0  0
   -2.3210   24.8280  -29.5180 O   0  0  0  0  0  0  0  0  0  0  0  0
   -6.4100   21.8340  -31.3680 C   0  0  0  0  0  0  0  0  0  0  0  0
   -6.2060   20.4810  -31.6590 C   0  0  0  0  0  0  0  0  0  0  0  0
   -3.3619   20.0553  -32.2908 H   0  0  0  0  0  0  0  0  0  0  0  0
   -2.2773   20.7061  -33.5662 H   0  0  0  0  0  0  0  0  0  0  0  0
   -4.0217   21.1345  -33.5662 H   0  0  0  0  0  0  0  0  0  0  0  0
   -5.7783   16.7870  -31.3215 H   0  0  0  0  0  0  0  0  0  0  0  0
   -5.2307   18.5110  -31.2949 H   0  0  0  0  0  0  0  0  0  0  0  0
   -7.4062   17.9752  -33.2281 H   0  0  0  0  0  0  0  0  0  0  0  0
   -7.8479   17.6699  -31.4948 H   0  0  0  0  0  0  0  0  0  0  0  0
   -9.5045   19.6302  -32.1654 H   0  0  0  0  0  0  0  0  0  0  0  0
   -9.8086   22.0652  -31.6059 H   0  0  0  0  0  0  0  0  0  0  0  0
   -8.3789   24.4070  -30.7934 H   0  0  0  0  0  0  0  0  0  0  0  0
   -3.6840   24.9250  -31.2190 H   0  0  0  0  0  0  0  0  0  0  0  0
   -3.8720   26.4250  -30.2530 H   0  0  0  0  0  0  0  0  0  0  0  0
   -4.5920   21.6074  -27.8548 H   0  0  0  0  0  0  0  0  0  0  0  0
   -2.8009   21.8617  -27.8550 H   0  0  0  0  0  0  0  0  0  0  0  0
   -4.5688   23.9805  -29.0653 H   0  0  0  0  0  0  0  0  0  0  0  0
   -4.4553   23.8274  -27.2543 H   0  0  0  0  0  0  0  0  0  0  0  0
   -2.7391   25.3014  -27.5706 H   0  0  0  0  0  0  0  0  0  0  0  0
   -1.8369   23.7656  -27.8397 H   0  0  0  0  0  0  0  0  0  0  0  0
   -2.3930   24.0240  -30.0970 H   0  0  0  0  0  0  0  0  0  0  0  0
   -5.1932   20.0518  -31.6636 H   0  0  0  0  0  0  0  0  0  0  0  0
  1  2  1  0
  2  3  1  0
  3  4  2  0
  3  5  1  0
  5  6  1  0
  6  7  1  0
  7  8  1  0
  8  9  2  0
  9 10  1  0
 10 11  2  0
 11 12  1  0
 12 13  2  0
 13 14  1  0
 14 15  1  0
 14 16  2  0
 13 17  1  0
 17 18  1  0
 18 19  2  0
 18 20  1  0
 20 21  1  0
 21 22  1  0
 22 23  1  0
 23 24  1  0
 17 25  1  0
 25 26  2  0
 26  8  1  0
 25 11  1  0
  1 27  1  0
  1 28  1  0
  1 29  1  0
  6 30  1  0
  6 31  1  0
  7 32  1  0
  7 33  1  0
  9 34  1  0
 10 35  1  0
 12 36  1  0
 15 37  1  0
 15 38  1  0
 21 39  1  0
 21 40  1  0
 22 41  1  0
 22 42  1  0
 23 43  1  0
 23 44  1  0
 24 45  1  0
 26 46  1  0
M  CHG  1   5  -1
M  END
>  <UniqueID>  (16) 
16

>  <SMILES>  (16) 
COC(=O)[N-]CCc1ccc2cc(C(N)=O)n(C(=O)OCCCO)c2c1

>  <Energy>  (16) 
71.52533821503488

>  <Genealogy>  (16) 
COC(=O)[N-]CCc1ccc2cc(C(N)=O)n(C(=O)OCCCO)c2c1 (protonated)
COC(=O)[N-]CCc1ccc2cc(C(N)=O)n(C(=O)OCCCO)c2c1 (3D coordinates assigned)
COC(=O)[N-]CCc1ccc2cc(C(N)=O)n(C(=O)OCCCO)c2c1 (optimized conformer: 71.52533821503488 kcal/mol)

>  <smiles>  (16) 
COC(=O)NCCc1ccc2cc(C(N)=O)n(C(=O)OCCCO)c2c1

>  <score_type>  (16) 
oracle

>  <origin>  (16) 
adg

>  <m_score__min__energy>  (16) 
-8.9299999999999997

>  <m_primary>  (16) 
energy

$$$$
16:0
     RDKit          3D

 43 45  0  0  0  0  0  0  0  0999 V2000
   -6.8300   17.2090  -33.5100 C   0  0  0  0  0  0  0  0  0  0  0  0
   -6.9490   18.2640  -33.0340 N   0  0  0  0  0  0  0  0  0  0  0  0
   -7.0800   19.5170  -32.4750 C   0  0  0  0  0  0  0  0  0  0  0  0
   -8.3510   19.9410  -32.1560 C   0  0  0  0  0  0  0  0  0  0  0  0
   -8.5160   21.1890  -31.5950 C   0  0  0  0  0  0  0  0  0  0  0  0
   -7.4040   21.9880  -31.3650 C   0  0  0  0  0  0  0  0  0  0  0  0
   -7.2930   23.2440  -30.8300 C   0  0  0  0  0  0  0  0  0  0  0  0
   -5.9440   23.6230  -30.8080 C   0  0  0  0  0  0  0  0  0  0  0  0
   -5.4930   24.8920  -30.3000 C   0  0  0  0  0  0  0  0  0  0  0  0
   -6.0310   25.3630  -29.0400 N   0  0  0  0  0  0  0  0  0  0  0  0
   -4.6680   25.6610  -30.8300 O   0  0  0  0  0  0  0  0  0  0  0  0
   -5.2570   22.5930  -31.3300 N   0  0  0  0  0  0  0  0  0  0  0  0
   -3.8640   22.4910  -31.5290 C   0  0  0  0  0  0  0  0  0  0  0  0
   -3.0910   23.4580  -31.1960 O   0  0  0  0  0  0  0  0  0  0  0  0
   -3.2080   21.4030  -32.0750 O   0  0  0  0  0  0  0  0  0  0  0  0
   -2.0900   20.8220  -31.4100 C   0  0  0  0  0  0  0  0  0  0  0  0
   -0.9920   21.8070  -31.1780 C   0  0  0  0  0  0  0  0  0  0  0  0
   -0.5930   21.8940  -29.7430 C   0  0  0  0  0  0  0  0  0  0  0  0
   -1.5620   22.6690  -28.9860 N   0  0  0  0  0  0  0  0  0  0  0  0
   -2.6290   21.9920  -28.4740 C   0  0  0  0  0  0  0  0  0  0  0  0
   -3.5960   22.6510  -27.7440 C   0  0  0  0  0  0  0  0  0  0  0  0
   -4.6670   21.9680  -27.2300 F   0  0  0  0  0  0  0  0  0  0  0  0
   -3.4560   24.0090  -27.5440 C   0  0  0  0  0  0  0  0  0  0  0  0
   -4.3290   24.6280  -26.8790 O   0  0  0  0  0  0  0  0  0  0  0  0
   -2.3850   24.6430  -28.0670 N   0  0  0  0  0  0  0  0  0  0  0  0
   -1.4480   23.9900  -28.7780 C   0  0  0  0  0  0  0  0  0  0  0  0
   -0.4580   24.6090  -29.2560 O   0  0  0  0  0  0  0  0  0  0  0  0
   -6.1230   21.5950  -31.6720 C   0  0  0  0  0  0  0  0  0  0  0  0
   -5.9790   20.3400  -32.2330 C   0  0  0  0  0  0  0  0  0  0  0  0
   -9.2202   19.2941  -32.3459 H   0  0  0  0  0  0  0  0  0  0  0  0
   -9.5213   21.5494  -31.3314 H   0  0  0  0  0  0  0  0  0  0  0  0
   -8.1321   23.8594  -30.4732 H   0  0  0  0  0  0  0  0  0  0  0  0
   -5.3940   25.6140  -28.2510 H   0  0  0  0  0  0  0  0  0  0  0  0
   -7.0710   25.4280  -28.9810 H   0  0  0  0  0  0  0  0  0  0  0  0
   -2.4224   20.4279  -30.4383 H   0  0  0  0  0  0  0  0  0  0  0  0
   -1.6940   20.0232  -32.0543 H   0  0  0  0  0  0  0  0  0  0  0  0
   -0.1157   21.5035  -31.7696 H   0  0  0  0  0  0  0  0  0  0  0  0
   -1.3631   22.7971  -31.4812 H   0  0  0  0  0  0  0  0  0  0  0  0
   -0.5345   20.8793  -29.3224 H   0  0  0  0  0  0  0  0  0  0  0  0
    0.3859   22.3914  -29.6778 H   0  0  0  0  0  0  0  0  0  0  0  0
   -2.7195   20.9091  -28.6449 H   0  0  0  0  0  0  0  0  0  0  0  0
   -2.3230   25.6690  -27.8900 H   0  0  0  0  0  0  0  0  0  0  0  0
   -4.9727   19.9813  -32.4950 H   0  0  0  0  0  0  0  0  0  0  0  0
  1  2  3  0
  2  3  1  0
  3  4  2  0
  4  5  1  0
  5  6  2  0
  6  7  1  0
  7  8  2  0
  8  9  1  0
  9 10  1  0
  9 11  2  0
  8 12  1  0
 12 13  1  0
 13 14  2  0
 13 15  1  0
 15 16  1  0
 16 17  1  0
 17 18  1  0
 18 19  1  0
 19 20  1  0
 20 21  2  0
 21 22  1  0
 21 23  1  0
 23 24  2  0
 23 25  1  0
 25 26  1  0
 26 27  2  0
 12 28  1  0
 28 29  2  0
 29  3  1  0
 28  6  1  0
 26 19  1  0
  4 30  1  0
  5 31  1  0
  7 32  1  0
 10 33  1  0
 10 34  1  0
 16 35  1  0
 16 36  1  0
 17 37  1  0
 17 38  1  0
 18 39  1  0
 18 40  1  0
 20 41  1  0
 25 42  1  0
 29 43  1  0
M  CHG  2   1  -1   2   1
M  END
>  <smiles>  (17) 
[C-]#[N+]c1ccc2cc(C(N)=O)n(C(=O)OCCCn3cc(F)c(=O)[nH]c3=O)c2c1

>  <score_type>  (17) 
oracle

>  <origin>  (17) 
adg

>  <m_score__min__energy>  (17) 
-9.3699999999999992

>  <m_primary>  (17) 
energy

$$$$
17:0
     RDKit          3D

 30 31  0  0  0  0  0  0  0  0999 V2000
   -2.0300   25.1960  -29.3360 N   0  0  0  0  0  0  0  0  0  0  0  0
   -1.9320   23.7770  -29.4150 C   0  0  0  0  0  0  0  0  0  0  0  0
   -0.7980   23.2270  -29.4370 O   0  0  0  0  0  0  0  0  0  0  0  0
   -3.1710   22.9390  -29.4870 C   0  0  0  0  0  0  0  0  0  0  0  0
   -3.6130   22.7370  -30.9080 C   0  0  0  0  0  0  0  0  0  0  0  0
   -2.7540   22.5410  -31.8110 O   0  0  0  0  0  0  0  0  0  0  0  0
   -5.0100   22.6650  -31.2320 N   0  0  0  0  0  0  0  0  0  0  0  0
   -5.9470   23.6430  -31.0830 C   0  0  0  0  0  0  0  0  0  0  0  0
   -5.6870   25.0240  -30.6260 C   0  0  0  0  0  0  0  0  0  0  0  0
   -4.4210   25.6290  -30.8750 N   0  0  0  0  0  0  0  0  0  0  0  0
   -6.5680   25.6730  -30.0000 O   0  0  0  0  0  0  0  0  0  0  0  0
   -7.2020   23.1790  -31.4730 C   0  0  0  0  0  0  0  0  0  0  0  0
   -7.0020   21.8740  -31.8670 C   0  0  0  0  0  0  0  0  0  0  0  0
   -7.9120   20.9290  -32.3340 C   0  0  0  0  0  0  0  0  0  0  0  0
   -7.4280   19.6460  -32.6390 C   0  0  0  0  0  0  0  0  0  0  0  0
   -6.0570   19.3310  -32.4670 C   0  0  0  0  0  0  0  0  0  0  0  0
   -5.5630   17.9480  -32.7830 C   0  0  0  0  0  0  0  0  0  0  0  0
   -6.1930   17.4750  -33.9190 F   0  0  0  0  0  0  0  0  0  0  0  0
   -5.8380   17.1030  -31.7230 F   0  0  0  0  0  0  0  0  0  0  0  0
   -5.1650   20.3160  -31.9870 C   0  0  0  0  0  0  0  0  0  0  0  0
   -5.6710   21.5890  -31.7090 C   0  0  0  0  0  0  0  0  0  0  0  0
   -2.9610   25.6670  -29.2690 H   0  0  0  0  0  0  0  0  0  0  0  0
   -2.9668   21.9582  -29.0327 H   0  0  0  0  0  0  0  0  0  0  0  0
   -3.9739   23.4602  -28.9451 H   0  0  0  0  0  0  0  0  0  0  0  0
   -3.8660   26.0510  -30.0970 H   0  0  0  0  0  0  0  0  0  0  0  0
   -8.1504   23.7362  -31.4674 H   0  0  0  0  0  0  0  0  0  0  0  0
   -8.9757   21.1792  -32.4600 H   0  0  0  0  0  0  0  0  0  0  0  0
   -8.1201   18.8782  -33.0151 H   0  0  0  0  0  0  0  0  0  0  0  0
   -4.4770   17.9838  -32.9541 H   0  0  0  0  0  0  0  0  0  0  0  0
   -4.0998   20.0870  -31.8360 H   0  0  0  0  0  0  0  0  0  0  0  0
  1  2  1  0
  2  3  2  0
  2  4  1  0
  4  5  1  0
  5  6  2  0
  5  7  1  0
  7  8  1  0
  8  9  1  0
  9 10  1  0
  9 11  2  0
  8 12  2  0
 12 13  1  0
 13 14  2  0
 14 15  1  0
 15 16  2  0
 16 17  1  0
 17 18  1  0
 17 19  1  0
 16 20  1  0
 20 21  2  0
 21  7  1  0
 21 13  1  0
  1 22  1  0
  4 23  1  0
  4 24  1  0
 10 25  1  0
 12 26  1  0
 14 27  1  0
 15 28  1  0
 17 29  1  0
 20 30  1  0
M  CHG  2   1  -1  10  -1
M  END
>  <UniqueID>  (18) 
17

>  <SMILES>  (18) 
[NH-]C(=O)CC(=O)n1c(C([NH-])=O)cc2ccc(C(F)F)cc21

>  <Energy>  (18) 
67.47490521927756

>  <Genealogy>  (18) 
[NH-]C(=O)CC(=O)n1c(C([NH-])=O)cc2ccc(C(F)F)cc21 (protonated)
[NH-]C(=O)CC(=O)n1c(C([NH-])=O)cc2ccc(C(F)F)cc21 (3D coordinates assigned)
[NH-]C(=O)CC(=O)n1c(C([NH-])=O)cc2ccc(C(F)F)cc21 (optimized conformer: 67.47490521927756 kcal/mol)

>  <smiles>  (18) 
NC(=O)CC(=O)n1c(C(N)=O)cc2ccc(C(F)F)cc21

>  <score_type>  (18) 
oracle

>  <origin>  (18) 
adg

>  <m_score__min__energy>  (18) 
-11.66

>  <m_primary>  (18) 
energy

$$$$
18:0
     RDKit          3D

 43 44  0  0  0  0  0  0  0  0999 V2000
   -2.7660   25.3350  -26.2010 C   0  0  0  0  0  0  0  0  0  0  0  0
   -3.0780   24.5650  -27.3400 O   0  0  0  0  0  0  0  0  0  0  0  0
   -1.9620   24.5100  -28.2100 C   0  0  2  0  0  0  0  0  0  0  0  0
   -2.2340   25.2870  -29.3490 O   0  0  0  0  0  0  0  0  0  0  0  0
   -1.7370   23.0490  -28.6410 C   0  0  0  0  0  0  0  0  0  0  0  0
   -2.8800   22.1010  -28.2290 C   0  0  0  0  0  0  0  0  0  0  0  0
   -3.2230   21.0380  -29.2820 C   0  0  0  0  0  0  0  0  0  0  0  0
   -3.2110   21.5860  -30.5990 O   0  0  0  0  0  0  0  0  0  0  0  0
   -3.9750   22.6930  -30.9810 C   0  0  0  0  0  0  0  0  0  0  0  0
   -3.4140   23.7920  -31.2450 O   0  0  0  0  0  0  0  0  0  0  0  0
   -5.4040   22.5770  -31.0750 N   0  0  0  0  0  0  0  0  0  0  0  0
   -6.3390   23.4430  -30.5910 C   0  0  0  0  0  0  0  0  0  0  0  0
   -6.0720   24.6100  -29.7290 C   0  0  0  0  0  0  0  0  0  0  0  0
   -4.7860   24.8180  -29.1420 N   0  0  0  0  0  0  0  0  0  0  0  0
   -7.0090   25.4080  -29.4580 O   0  0  0  0  0  0  0  0  0  0  0  0
   -7.6190   23.0470  -30.9670 C   0  0  0  0  0  0  0  0  0  0  0  0
   -7.4420   21.8890  -31.6900 C   0  0  0  0  0  0  0  0  0  0  0  0
   -8.3830   21.0640  -32.2980 C   0  0  0  0  0  0  0  0  0  0  0  0
   -7.9180   19.9380  -32.9970 C   0  0  0  0  0  0  0  0  0  0  0  0
   -6.5290   19.6710  -33.1010 C   0  0  0  0  0  0  0  0  0  0  0  0
   -6.0410   18.4390  -33.8220 C   0  0  0  0  0  0  0  0  0  0  0  0
   -4.7650   18.1360  -33.3880 F   0  0  0  0  0  0  0  0  0  0  0  0
   -6.8710   17.3610  -33.5670 F   0  0  0  0  0  0  0  0  0  0  0  0
   -6.0150   18.6520  -35.1890 F   0  0  0  0  0  0  0  0  0  0  0  0
   -5.6050   20.5230  -32.4510 C   0  0  0  0  0  0  0  0  0  0  0  0
   -6.0970   21.6260  -31.7430 C   0  0  0  0  0  0  0  0  0  0  0  0
   -2.9995   24.7587  -25.2936 H   0  0  0  0  0  0  0  0  0  0  0  0
   -1.6951   25.5863  -26.2103 H   0  0  0  0  0  0  0  0  0  0  0  0
   -3.3599   26.2608  -26.2103 H   0  0  0  0  0  0  0  0  0  0  0  0
   -1.0660   24.8930  -27.6995 H   0  0  0  0  0  0  0  0  0  0  0  0
   -1.8650   24.7940  -30.1290 H   0  0  0  0  0  0  0  0  0  0  0  0
   -1.6395   23.0207  -29.7363 H   0  0  0  0  0  0  0  0  0  0  0  0
   -0.8277   22.6986  -28.1307 H   0  0  0  0  0  0  0  0  0  0  0  0
   -2.5852   21.5868  -27.3023 H   0  0  0  0  0  0  0  0  0  0  0  0
   -3.7781   22.7233  -28.1023 H   0  0  0  0  0  0  0  0  0  0  0  0
   -2.4826   20.2265  -29.2254 H   0  0  0  0  0  0  0  0  0  0  0  0
   -4.2346   20.6592  -29.0742 H   0  0  0  0  0  0  0  0  0  0  0  0
   -4.6040   25.6710  -28.5670 H   0  0  0  0  0  0  0  0  0  0  0  0
   -4.0400   24.0900  -29.2050 H   0  0  0  0  0  0  0  0  0  0  0  0
   -8.5689   23.5513  -30.7359 H   0  0  0  0  0  0  0  0  0  0  0  0
   -9.4583   21.2868  -32.2332 H   0  0  0  0  0  0  0  0  0  0  0  0
   -8.6396   19.2552  -33.4693 H   0  0  0  0  0  0  0  0  0  0  0  0
   -4.5245   20.3232  -32.5009 H   0  0  0  0  0  0  0  0  0  0  0  0
  1  2  1  0
  2  3  1  0
  3  4  1  0
  3  5  1  0
  5  6  1  0
  6  7  1  0
  7  8  1  0
  8  9  1  0
  9 10  2  0
  9 11  1  0
 11 12  1  0
 12 13  1  0
 13 14  1  0
 13 15  2  0
 12 16  2  0
 16 17  1  0
 17 18  2  0
 18 19  1  0
 19 20  2  0
 20 21  1  0
 21 22  1  0
 21 23  1  0
 21 24  1  0
 20 25  1  0
 25 26  2  0
 26 11  1  0
 26 17  1  0
  1 27  1  0
  1 28  1  0
  1 29  1  0
  3 30  1  1
  4 31  1  0
  5 32  1  0
  5 33  1  0
  6 34  1  0
  6 35  1  0
  7 36  1  0
  7 37  1  0
 14 38  1  0
 14 39  1  0
 16 40  1  0
 18 41  1  0
 19 42  1  0
 25 43  1  0
M  END
>  <UniqueID>  (19) 
18

>  <SMILES>  (19) 
CO[C@H](O)CCCOC(=O)n1c(C(N)=O)cc2ccc(C(F)(F)F)cc21

>  <Energy>  (19) 
78.47960395319802

>  <Genealogy>  (19) 
CO[C@H](O)CCCOC(=O)n1c(C(N)=O)cc2ccc(C(F)(F)F)cc21 (3D coordinates assigned)
CO[C@H](O)CCCOC(=O)n1c(C(N)=O)cc2ccc(C(F)(F)F)cc21 (optimized conformer: 78.47960395319802 kcal/mol)

>  <smiles>  (19) 
CO[C@H](O)CCCOC(=O)n1c(C(N)=O)cc2ccc(C(F)(F)F)cc21

>  <score_type>  (19) 
oracle

>  <origin>  (19) 
adg

>  <m_score__min__energy>  (19) 
-8.0399999999999991

>  <m_primary>  (19) 
energy

$$$$
19:0
     RDKit          3D

 51 53  0  0  0  0  0  0  0  0999 V2000
   -1.1240   24.8990  -25.5530 C   0  0  0  0  0  0  0  0  0  0  0  0
   -2.0100   25.4870  -26.5730 N   0  0  0  0  0  0  0  0  0  0  0  0
   -3.2800   24.7370  -26.7140 C   0  0  0  0  0  0  0  0  0  0  0  0
   -3.2860   23.7590  -27.9040 C   0  0  0  0  0  0  0  0  0  0  0  0
   -1.9300   23.2320  -28.1360 N   0  0  0  0  0  0  0  0  0  0  0  0
   -1.9670   22.1320  -29.1260 C   0  0  0  0  0  0  0  0  0  0  0  0
   -3.4060   21.7370  -29.5030 C   0  0  0  0  0  0  0  0  0  0  0  0
   -3.9160   22.4830  -30.7070 C   0  0  0  0  0  0  0  0  0  0  0  0
   -3.1040   23.0520  -31.4840 O   0  0  0  0  0  0  0  0  0  0  0  0
   -5.3280   22.6450  -30.9200 N   0  0  0  0  0  0  0  0  0  0  0  0
   -6.0500   23.7950  -30.7970 C   0  0  0  0  0  0  0  0  0  0  0  0
   -5.5220   25.0850  -30.2990 C   0  0  0  0  0  0  0  0  0  0  0  0
   -4.2130   25.5310  -30.6610 N   0  0  0  0  0  0  0  0  0  0  0  0
   -6.2340   25.8160  -29.5590 O   0  0  0  0  0  0  0  0  0  0  0  0
   -7.3820   23.5700  -31.1470 C   0  0  0  0  0  0  0  0  0  0  0  0
   -7.4490   22.2400  -31.4950 C   0  0  0  0  0  0  0  0  0  0  0  0
   -8.5270   21.4880  -31.9520 C   0  0  0  0  0  0  0  0  0  0  0  0
   -8.3000   20.1400  -32.2770 C   0  0  0  0  0  0  0  0  0  0  0  0
   -7.0090   19.5670  -32.1350 C   0  0  0  0  0  0  0  0  0  0  0  0
   -6.7620   18.1320  -32.5450 C   0  0  0  0  0  0  0  0  0  0  0  0
   -6.0830   18.0820  -33.9110 C   0  0  0  0  0  0  0  0  0  0  0  0
   -5.9540   17.5010  -31.6120 F   0  0  0  0  0  0  0  0  0  0  0  0
   -7.9590   17.4380  -32.6080 F   0  0  0  0  0  0  0  0  0  0  0  0
   -5.9370   20.3730  -31.6880 C   0  0  0  0  0  0  0  0  0  0  0  0
   -6.1960   21.7050  -31.3530 C   0  0  0  0  0  0  0  0  0  0  0  0
   -1.0100   24.3170  -28.5570 C   0  0  0  0  0  0  0  0  0  0  0  0
   -1.3200   25.6640  -27.8640 C   0  0  0  0  0  0  0  0  0  0  0  0
   -1.5017   25.1497  -24.5507 H   0  0  0  0  0  0  0  0  0  0  0  0
   -1.1011   23.8058  -25.6734 H   0  0  0  0  0  0  0  0  0  0  0  0
   -0.1078   25.3025  -25.6734 H   0  0  0  0  0  0  0  0  0  0  0  0
   -3.4502   24.1635  -25.7909 H   0  0  0  0  0  0  0  0  0  0  0  0
   -4.0739   25.4759  -26.8979 H   0  0  0  0  0  0  0  0  0  0  0  0
   -3.9678   22.9241  -27.6847 H   0  0  0  0  0  0  0  0  0  0  0  0
   -3.6230   24.2922  -28.8052 H   0  0  0  0  0  0  0  0  0  0  0  0
   -1.4388   22.4557  -30.0350 H   0  0  0  0  0  0  0  0  0  0  0  0
   -1.4835   21.2538  -28.6732 H   0  0  0  0  0  0  0  0  0  0  0  0
   -3.4296   20.6590  -29.7208 H   0  0  0  0  0  0  0  0  0  0  0  0
   -4.0550   21.9942  -28.6529 H   0  0  0  0  0  0  0  0  0  0  0  0
   -3.8700   26.4610  -30.3320 H   0  0  0  0  0  0  0  0  0  0  0  0
   -3.5660   24.9300  -31.2140 H   0  0  0  0  0  0  0  0  0  0  0  0
   -8.2042   24.3007  -31.1452 H   0  0  0  0  0  0  0  0  0  0  0  0
   -9.5266   21.9353  -32.0557 H   0  0  0  0  0  0  0  0  0  0  0  0
   -9.1319   19.5218  -32.6456 H   0  0  0  0  0  0  0  0  0  0  0  0
   -4.9942   18.0018  -33.7765 H   0  0  0  0  0  0  0  0  0  0  0  0
   -6.4487   17.2084  -34.4705 H   0  0  0  0  0  0  0  0  0  0  0  0
   -6.3168   18.9998  -34.4705 H   0  0  0  0  0  0  0  0  0  0  0  0
   -4.9206   19.9606  -31.6056 H   0  0  0  0  0  0  0  0  0  0  0  0
    0.0199   24.0217  -28.3077 H   0  0  0  0  0  0  0  0  0  0  0  0
   -1.1406   24.4623  -29.6395 H   0  0  0  0  0  0  0  0  0  0  0  0
   -0.3738   26.1968  -27.6885 H   0  0  0  0  0  0  0  0  0  0  0  0
   -1.9880   26.2352  -28.5254 H   0  0  0  0  0  0  0  0  0  0  0  0
  1  2  1  0
  2  3  1  0
  3  4  1  0
  4  5  1  0
  5  6  1  0
  6  7  1  0
  7  8  1  0
  8  9  2  0
  8 10  1  0
 10 11  1  0
 11 12  1  0
 12 13  1  0
 12 14  2  0
 11 15  2  0
 15 16  1  0
 16 17  2  0
 17 18  1  0
 18 19  2  0
 19 20  1  0
 20 21  1  0
 20 22  1  0
 20 23  1  0
 19 24  1  0
 24 25  2  0
  5 26  1  0
 26 27  1  0
 27  2  1  0
 25 10  1  0
 25 16  1  0
  1 28  1  0
  1 29  1  0
  1 30  1  0
  3 31  1  0
  3 32  1  0
  4 33  1  0
  4 34  1  0
  6 35  1  0
  6 36  1  0
  7 37  1  0
  7 38  1  0
 13 39  1  0
 13 40  1  0
 15 41  1  0
 17 42  1  0
 18 43  1  0
 21 44  1  0
 21 45  1  0
 21 46  1  0
 24 47  1  0
 26 48  1  0
 26 49  1  0
 27 50  1  0
 27 51  1  0
M  END
>  <UniqueID>  (20) 
19

>  <SMILES>  (20) 
CN1CCN(CCC(=O)n2c(C(N)=O)cc3ccc(C(C)(F)F)cc32)CC1

>  <Energy>  (20) 
98.80589465853892

>  <Genealogy>  (20) 
CN1CCN(CCC(=O)n2c(C(N)=O)cc3ccc(C(C)(F)F)cc32)CC1 (3D coordinates assigned)
CN1CCN(CCC(=O)n2c(C(N)=O)cc3ccc(C(C)(F)F)cc32)CC1 (nonaromatic ring conformer: 98.80589465853892 kcal/mol)

>  <smiles>  (20) 
CN1CCN(CCC(=O)n2c(C(N)=O)cc3ccc(C(C)(F)F)cc32)CC1

>  <score_type>  (20) 
oracle

>  <origin>  (20) 
adg

>  <m_score__min__energy>  (20) 
-9.4700000000000006

>  <m_primary>  (20) 
energy

$$$$
20:0
     RDKit          3D

 35 36  0  0  0  0  0  0  0  0999 V2000
   -8.6790   18.5700  -32.2370 C   0  0  0  0  0  0  0  0  0  0  0  0
   -7.2350   18.7830  -32.1180 N   0  0  0  0  0  0  0  0  0  0  0  0
   -6.4260   17.9320  -31.2390 C   0  0  0  0  0  0  0  0  0  0  0  0
   -6.6220   19.8850  -32.8140 C   0  0  0  0  0  0  0  0  0  0  0  0
   -7.3410   20.7850  -33.3320 O   0  0  0  0  0  0  0  0  0  0  0  0
   -5.1950   19.9820  -32.9240 N   0  0  0  0  0  0  0  0  0  0  0  0
   -4.3650   19.1950  -33.6620 C   0  0  0  0  0  0  0  0  0  0  0  0
   -4.8090   18.1330  -34.5950 C   0  0  0  0  0  0  0  0  0  0  0  0
   -6.1270   18.1410  -35.1480 N   0  0  0  0  0  0  0  0  0  0  0  0
   -4.0250   17.1980  -34.9040 O   0  0  0  0  0  0  0  0  0  0  0  0
   -3.0360   19.5630  -33.4450 C   0  0  0  0  0  0  0  0  0  0  0  0
   -3.0850   20.5980  -32.5380 C   0  0  0  0  0  0  0  0  0  0  0  0
   -2.0560   21.3280  -31.9490 C   0  0  0  0  0  0  0  0  0  0  0  0
   -2.4030   22.3220  -31.0180 C   0  0  0  0  0  0  0  0  0  0  0  0
   -3.7610   22.5680  -30.6950 C   0  0  0  0  0  0  0  0  0  0  0  0
   -4.1180   23.6050  -29.6680 C   0  0  0  0  0  0  0  0  0  0  0  0
   -3.4660   24.9070  -30.0040 C   0  0  0  0  0  0  0  0  0  0  0  0
   -3.9840   25.6730  -30.8580 O   0  0  0  0  0  0  0  0  0  0  0  0
   -2.3120   25.2990  -29.3380 O   0  0  0  0  0  0  0  0  0  0  0  0
   -4.7770   21.7960  -31.3020 C   0  0  0  0  0  0  0  0  0  0  0  0
   -4.4010   20.8270  -32.2360 C   0  0  0  0  0  0  0  0  0  0  0  0
   -9.1239   18.5044  -31.2331 H   0  0  0  0  0  0  0  0  0  0  0  0
   -9.1299   19.4113  -32.7836 H   0  0  0  0  0  0  0  0  0  0  0  0
   -8.8678   17.6343  -32.7836 H   0  0  0  0  0  0  0  0  0  0  0  0
   -6.6520   18.1697  -30.1890 H   0  0  0  0  0  0  0  0  0  0  0  0
   -6.6606   16.8752  -31.4344 H   0  0  0  0  0  0  0  0  0  0  0  0
   -5.3587   18.1128  -31.4344 H   0  0  0  0  0  0  0  0  0  0  0  0
   -6.7910   18.9270  -34.9740 H   0  0  0  0  0  0  0  0  0  0  0  0
   -6.4340   17.3660  -35.7760 H   0  0  0  0  0  0  0  0  0  0  0  0
   -2.1390   19.1198  -33.9021 H   0  0  0  0  0  0  0  0  0  0  0  0
   -1.0040   21.1328  -32.2044 H   0  0  0  0  0  0  0  0  0  0  0  0
   -1.6125   22.9152  -30.5350 H   0  0  0  0  0  0  0  0  0  0  0  0
   -5.2097   23.7388  -29.6504 H   0  0  0  0  0  0  0  0  0  0  0  0
   -3.7657   23.2703  -28.6812 H   0  0  0  0  0  0  0  0  0  0  0  0
   -5.8352   21.9535  -31.0462 H   0  0  0  0  0  0  0  0  0  0  0  0
  1  2  1  0
  2  3  1  0
  2  4  1  0
  4  5  2  0
  4  6  1  0
  6  7  1  0
  7  8  1  0
  8  9  1  0
  8 10  2  0
  7 11  2  0
 11 12  1  0
 12 13  2  0
 13 14  1  0
 14 15  2  0
 15 16  1  0
 16 17  1  0
 17 18  2  0
 17 19  1  0
 15 20  1  0
 20 21  2  0
 21  6  1  0
 21 12  1  0
  1 22  1  0
  1 23  1  0
  1 24  1  0
  3 25  1  0
  3 26  1  0
  3 27  1  0
  9 28  1  0
  9 29  1  0
 11 30  1  0
 13 31  1  0
 14 32  1  0
 16 33  1  0
 16 34  1  0
 20 35  1  0
M  CHG  1  19  -1
M  END
>  <UniqueID>  (21) 
20

>  <SMILES>  (21) 
CN(C)C(=O)n1c(C(N)=O)cc2ccc(CC(=O)[O-])cc21

>  <Energy>  (21) 
70.0941543863167

>  <Genealogy>  (21) 
CN(C)C(=O)n1c(C(N)=O)cc2ccc(CC(=O)[O-])cc21 (protonated)
CN(C)C(=O)n1c(C(N)=O)cc2ccc(CC(=O)[O-])cc21 (3D coordinates assigned)
CN(C)C(=O)n1c(C(N)=O)cc2ccc(CC(=O)[O-])cc21 (optimized conformer: 70.0941543863167 kcal/mol)

>  <smiles>  (21) 
CN(C)C(=O)n1c(C(N)=O)cc2ccc(CC(=O)O)cc21

>  <score_type>  (21) 
oracle

>  <origin>  (21) 
adg

>  <m_score__min__energy>  (21) 
-9.7899999999999991

>  <m_primary>  (21) 
energy

$$$$
21:0
     RDKit          3D

 40 43  0  0  0  0  0  0  0  0999 V2000
   -3.6950   25.2800  -30.4910 N   0  0  0  0  0  0  0  0  0  0  0  0
   -4.6460   24.4520  -29.8230 C   0  0  0  0  0  0  0  0  0  0  0  0
   -4.9250   24.6810  -28.6170 O   0  0  0  0  0  0  0  0  0  0  0  0
   -5.3070   23.3530  -30.5540 C   0  0  0  0  0  0  0  0  0  0  0  0
   -6.6180   23.4040  -31.0250 C   0  0  0  0  0  0  0  0  0  0  0  0
   -6.8470   22.1740  -31.6030 C   0  0  0  0  0  0  0  0  0  0  0  0
   -7.9710   21.6840  -32.2600 C   0  0  0  0  0  0  0  0  0  0  0  0
   -7.9040   20.3880  -32.8040 C   0  0  0  0  0  0  0  0  0  0  0  0
   -6.7220   19.6120  -32.6840 C   0  0  0  0  0  0  0  0  0  0  0  0
   -6.6470   18.2670  -33.2940 C   0  0  0  0  0  0  0  0  0  0  0  0
   -7.2740   17.1760  -32.8170 N   0  0  0  0  0  0  0  0  0  0  0  0
   -6.9290   16.2010  -33.6400 N   0  0  0  0  0  0  0  0  0  0  0  0
   -6.1270   16.6740  -34.5810 N   0  0  0  0  0  0  0  0  0  0  0  0
   -5.9290   17.9680  -34.3920 N   0  0  0  0  0  0  0  0  0  0  0  0
   -5.6050   20.1420  -31.9980 C   0  0  0  0  0  0  0  0  0  0  0  0
   -5.7050   21.4300  -31.4670 C   0  0  0  0  0  0  0  0  0  0  0  0
   -4.7530   22.1400  -30.8280 N   0  0  0  0  0  0  0  0  0  0  0  0
   -3.4070   21.7110  -30.5900 C   0  0  0  0  0  0  0  0  0  0  0  0
   -2.4910   22.0620  -31.3800 O   0  0  0  0  0  0  0  0  0  0  0  0
   -3.0620   20.9650  -29.3370 C   0  0  0  0  0  0  0  0  0  0  0  0
   -1.9460   20.1310  -29.5770 O   0  0  0  0  0  0  0  0  0  0  0  0
   -0.9420   20.3490  -28.6080 C   0  0  0  0  0  0  0  0  0  0  0  0
   -0.9730   21.7810  -28.1970 C   0  0  0  0  0  0  0  0  0  0  0  0
   -1.2790   22.1920  -26.9460 N   0  0  0  0  0  0  0  0  0  0  0  0
   -1.1540   23.5390  -26.8080 C   0  0  0  0  0  0  0  0  0  0  0  0
   -0.7310   24.2050  -27.9560 C   0  0  0  0  0  0  0  0  0  0  0  0
   -0.4980   25.6480  -28.0830 C   0  0  0  0  0  0  0  0  0  0  0  0
    0.3880   26.2100  -27.3860 O   0  0  0  0  0  0  0  0  0  0  0  0
   -1.2540   26.4020  -28.9730 O   0  0  0  0  0  0  0  0  0  0  0  0
   -0.5110   23.0700  -29.1780 S   0  0  0  0  0  0  0  0  0  0  0  0
   -2.6950   25.2960  -30.1930 H   0  0  0  0  0  0  0  0  0  0  0  0
   -7.3207   24.2471  -30.9510 H   0  0  0  0  0  0  0  0  0  0  0  0
   -8.8839   22.2908  -32.3514 H   0  0  0  0  0  0  0  0  0  0  0  0
   -8.7772   19.9720  -33.3279 H   0  0  0  0  0  0  0  0  0  0  0  0
   -4.6814   19.5553  -31.8854 H   0  0  0  0  0  0  0  0  0  0  0  0
   -2.8191   21.6817  -28.5387 H   0  0  0  0  0  0  0  0  0  0  0  0
   -3.9200   20.3495  -29.0288 H   0  0  0  0  0  0  0  0  0  0  0  0
   -1.1280   19.7092  -27.7327 H   0  0  0  0  0  0  0  0  0  0  0  0
    0.0437   20.1028  -29.0297 H   0  0  0  0  0  0  0  0  0  0  0  0
   -1.3699   24.0614  -25.8644 H   0  0  0  0  0  0  0  0  0  0  0  0
  1  2  1  0
  2  3  2  0
  2  4  1  0
  4  5  2  0
  5  6  1  0
  6  7  2  0
  7  8  1  0
  8  9  2  0
  9 10  1  0
 10 11  1  0
 11 12  2  0
 12 13  1  0
 13 14  1  0
  9 15  1  0
 15 16  2  0
 16 17  1  0
 17 18  1  0
 18 19  2  0
 18 20  1  0
 20 21  1  0
 21 22  1  0
 22 23  1  0
 23 24  2  0
 24 25  1  0
 25 26  2  0
 26 27  1  0
 27 28  2  0
 27 29  1  0
 26 30  1  0
 17  4  1  0
 30 23  1  0
 16  6  1  0
 14 10  2  0
  1 31  1  0
  5 32  1  0
  7 33  1  0
  8 34  1  0
 15 35  1  0
 20 36  1  0
 20 37  1  0
 22 38  1  0
 22 39  1  0
 25 40  1  0
M  CHG  3   1  -1  13  -1  29  -1
M  END
>  <UniqueID>  (22) 
21

>  <SMILES>  (22) 
[NH-]C(=O)c1cc2ccc(-c3nn[n-]n3)cc2n1C(=O)COCc1ncc(C(=O)[O-])s1

>  <Energy>  (22) 
149.2065164148802

>  <Genealogy>  (22) 
[NH-]C(=O)c1cc2ccc(-c3nn[n-]n3)cc2n1C(=O)COCc1ncc(C(=O)[O-])s1 (protonated)
[NH-]C(=O)c1cc2ccc(-c3nn[n-]n3)cc2n1C(=O)COCc1ncc(C(=O)[O-])s1 (3D coordinates assigned)
[NH-]C(=O)c1cc2ccc(-c3nn[n-]n3)cc2n1C(=O)COCc1ncc(C(=O)[O-])s1 (optimized conformer: 149.2065164148802 kcal/mol)

>  <smiles>  (22) 
NC(=O)c1cc2ccc(-c3nn[nH]n3)cc2n1C(=O)COCc1ncc(C(=O)O)s1

>  <score_type>  (22) 
oracle

>  <origin>  (22) 
adg

>  <m_score__min__energy>  (22) 
-12.619999999999999

>  <m_primary>  (22) 
energy

$$$$
22:0
     RDKit          3D

 52 54  0  0  0  0  0  0  0  0999 V2000
   -6.6540   23.3930  -32.2580 C   0  0  0  0  0  0  0  0  0  0  0  0
   -6.6980   24.0820  -30.8990 C   0  0  0  0  0  0  0  0  0  0  0  0
   -5.7640   25.2970  -30.8700 C   0  0  0  0  0  0  0  0  0  0  0  0
   -4.3980   24.8850  -30.8470 O   0  0  0  0  0  0  0  0  0  0  0  0
   -3.7890   24.2940  -29.7350 C   0  0  0  0  0  0  0  0  0  0  0  0
   -4.1910   24.5470  -28.5680 O   0  0  0  0  0  0  0  0  0  0  0  0
   -2.6920   23.3920  -29.9280 N   0  0  0  0  0  0  0  0  0  0  0  0
   -1.3780   23.6080  -29.6480 C   0  0  0  0  0  0  0  0  0  0  0  0
   -0.8290   24.7880  -28.9450 C   0  0  0  0  0  0  0  0  0  0  0  0
   -1.5430   26.0200  -28.9220 N   0  0  0  0  0  0  0  0  0  0  0  0
    0.2680   24.6960  -28.3340 O   0  0  0  0  0  0  0  0  0  0  0  0
   -0.6060   22.5290  -30.0730 C   0  0  0  0  0  0  0  0  0  0  0  0
   -1.4980   21.6390  -30.6290 C   0  0  0  0  0  0  0  0  0  0  0  0
   -1.2760   20.4070  -31.2380 C   0  0  0  0  0  0  0  0  0  0  0  0
   -2.3820   19.7360  -31.7850 C   0  0  0  0  0  0  0  0  0  0  0  0
   -3.6760   20.3080  -31.7210 C   0  0  0  0  0  0  0  0  0  0  0  0
   -4.7840   19.6560  -32.3590 N   0  0  0  0  0  0  0  0  0  0  0  0
   -5.5100   18.6110  -31.6320 C   0  0  0  0  0  0  0  0  0  0  0  0
   -6.6180   17.9980  -32.5040 C   0  0  0  0  0  0  0  0  0  0  0  0
   -7.4930   19.0120  -33.1570 N   0  0  0  0  0  0  0  0  0  0  0  0
   -8.9080   19.3410  -32.1810 S   0  0  0  0  0  0  0  0  0  0  0  0
   -8.6710   20.8200  -31.2150 C   0  0  0  0  0  0  0  0  0  0  0  0
   -9.1480   18.1960  -31.2360 O   0  0  0  0  0  0  0  0  0  0  0  0
  -10.1160   19.5110  -33.0590 O   0  0  0  0  0  0  0  0  0  0  0  0
   -6.8180   20.2870  -33.5180 C   0  0  0  0  0  0  0  0  0  0  0  0
   -5.3020   20.1380  -33.6380 C   0  0  0  0  0  0  0  0  0  0  0  0
   -3.8660   21.5510  -31.0860 C   0  0  0  0  0  0  0  0  0  0  0  0
   -2.7500   22.1870  -30.5310 C   0  0  0  0  0  0  0  0  0  0  0  0
   -6.5845   22.3045  -32.1152 H   0  0  0  0  0  0  0  0  0  0  0  0
   -7.5692   23.6314  -32.8198 H   0  0  0  0  0  0  0  0  0  0  0  0
   -5.7766   23.7459  -32.8198 H   0  0  0  0  0  0  0  0  0  0  0  0
   -7.7270   24.4141  -30.6970 H   0  0  0  0  0  0  0  0  0  0  0  0
   -6.3670   23.3665  -30.1319 H   0  0  0  0  0  0  0  0  0  0  0  0
   -5.9410   25.9095  -31.7664 H   0  0  0  0  0  0  0  0  0  0  0  0
   -5.9720   25.8802  -29.9608 H   0  0  0  0  0  0  0  0  0  0  0  0
   -2.5860   26.0410  -28.9680 H   0  0  0  0  0  0  0  0  0  0  0  0
    0.4842   22.4126  -29.9835 H   0  0  0  0  0  0  0  0  0  0  0  0
   -0.2666   19.9729  -31.2892 H   0  0  0  0  0  0  0  0  0  0  0  0
   -2.2419   18.7574  -32.2674 H   0  0  0  0  0  0  0  0  0  0  0  0
   -4.8038   17.8199  -31.3397 H   0  0  0  0  0  0  0  0  0  0  0  0
   -5.9746   19.0623  -30.7429 H   0  0  0  0  0  0  0  0  0  0  0  0
   -6.1458   17.3890  -33.2889 H   0  0  0  0  0  0  0  0  0  0  0  0
   -7.2582   17.4000  -31.8388 H   0  0  0  0  0  0  0  0  0  0  0  0
   -7.8490   18.5810  -34.0410 H   0  0  0  0  0  0  0  0  0  0  0  0
   -8.7112   20.5693  -30.1447 H   0  0  0  0  0  0  0  0  0  0  0  0
   -7.6909   21.2597  -31.4521 H   0  0  0  0  0  0  0  0  0  0  0  0
   -9.4646   21.5439  -31.4521 H   0  0  0  0  0  0  0  0  0  0  0  0
   -7.2150   20.6344  -34.4833 H   0  0  0  0  0  0  0  0  0  0  0  0
   -7.0183   21.0088  -32.7124 H   0  0  0  0  0  0  0  0  0  0  0  0
   -5.0612   19.4161  -34.4323 H   0  0  0  0  0  0  0  0  0  0  0  0
   -4.8455   21.1065  -33.8903 H   0  0  0  0  0  0  0  0  0  0  0  0
   -4.8644   22.0091  -31.0280 H   0  0  0  0  0  0  0  0  0  0  0  0
  1  2  1  0
  2  3  1  0
  3  4  1  0
  4  5  1  0
  5  6  2  0
  5  7  1  0
  7  8  1  0
  8  9  1  0
  9 10  1  0
  9 11  2  0
  8 12  2  0
 12 13  1  0
 13 14  2  0
 14 15  1  0
 15 16  2  0
 16 17  1  0
 17 18  1  0
 18 19  1  0
 19 20  1  0
 20 21  1  0
 21 22  1  0
 21 23  2  0
 21 24  2  0
 20 25  1  0
 25 26  1  0
 16 27  1  0
 27 28  2  0
 28  7  1  0
 28 13  1  0
 26 17  1  0
  1 29  1  0
  1 30  1  0
  1 31  1  0
  2 32  1  0
  2 33  1  0
  3 34  1  0
  3 35  1  0
 10 36  1  0
 12 37  1  0
 14 38  1  0
 15 39  1  0
 18 40  1  0
 18 41  1  0
 19 42  1  0
 19 43  1  0
 20 44  1  0
 22 45  1  0
 22 46  1  0
 22 47  1  0
 25 48  1  0
 25 49  1  0
 26 50  1  0
 26 51  1  0
 27 52  1  0
M  CHG  2  10  -1  20   1
M  END
>  <UniqueID>  (23) 
22

>  <SMILES>  (23) 
CCCOC(=O)n1c(C([NH-])=O)cc2ccc(N3CC[NH+](S(C)(=O)=O)CC3)cc21

>  <Energy>  (23) 
93.08723924012763

>  <Genealogy>  (23) 
CCCOC(=O)n1c(C([NH-])=O)cc2ccc(N3CC[NH+](S(C)(=O)=O)CC3)cc21 (protonated)
CCCOC(=O)n1c(C([NH-])=O)cc2ccc(N3CC[NH+](S(C)(=O)=O)CC3)cc21 (3D coordinates assigned)
CCCOC(=O)n1c(C([NH-])=O)cc2ccc(N3CC[NH+](S(C)(=O)=O)CC3)cc21 (nonaromatic ring conformer: 93.08723924012763 kcal/mol)

>  <smiles>  (23) 
CCCOC(=O)n1c(C(N)=O)cc2ccc(N3CCN(S(C)(=O)=O)CC3)cc21

>  <score_type>  (23) 
oracle

>  <origin>  (23) 
adg

>  <m_score__min__energy>  (23) 
-11.25

>  <m_primary>  (23) 
energy

$$$$
23:0
     RDKit          3D

 38 39  0  0  0  0  0  0  0  0999 V2000
   -5.7220   16.6480  -32.4100 C   0  0  0  0  0  0  0  0  0  0  0  0
   -6.3690   17.1180  -33.4800 C   0  0  0  0  0  0  0  0  0  0  0  0
   -6.0640   18.4710  -34.0590 C   0  0  0  0  0  0  0  0  0  0  0  0
   -6.6390   19.5650  -33.1970 C   0  0  0  0  0  0  0  0  0  0  0  0
   -8.0390   19.6510  -32.9970 C   0  0  0  0  0  0  0  0  0  0  0  0
   -8.5850   20.6670  -32.1990 C   0  0  0  0  0  0  0  0  0  0  0  0
   -7.7130   21.5800  -31.6120 C   0  0  0  0  0  0  0  0  0  0  0  0
   -7.9890   22.6740  -30.8290 C   0  0  0  0  0  0  0  0  0  0  0  0
   -6.7550   23.2500  -30.5540 C   0  0  0  0  0  0  0  0  0  0  0  0
   -6.6210   24.5320  -29.8370 C   0  0  0  0  0  0  0  0  0  0  0  0
   -5.4620   24.8120  -29.0490 N   0  0  0  0  0  0  0  0  0  0  0  0
   -7.5000   25.4240  -29.9950 O   0  0  0  0  0  0  0  0  0  0  0  0
   -5.7380   22.5250  -31.1120 N   0  0  0  0  0  0  0  0  0  0  0  0
   -4.3210   22.7170  -30.8980 C   0  0  0  0  0  0  0  0  0  0  0  0
   -3.5390   22.8560  -31.8770 O   0  0  0  0  0  0  0  0  0  0  0  0
   -3.7990   22.7030  -29.5980 O   0  0  0  0  0  0  0  0  0  0  0  0
   -2.5510   23.2970  -29.2400 C   0  0  1  0  0  0  0  0  0  0  0  0
   -1.4310   22.6170  -30.0240 C   0  0  0  0  0  0  0  0  0  0  0  0
   -2.5710   24.7690  -29.5400 C   0  0  0  0  0  0  0  0  0  0  0  0
   -1.7710   25.5530  -28.9580 O   0  0  0  0  0  0  0  0  0  0  0  0
   -3.5060   25.2810  -30.4340 O   0  0  0  0  0  0  0  0  0  0  0  0
   -6.3500   21.5090  -31.7770 C   0  0  0  0  0  0  0  0  0  0  0  0
   -5.7810   20.4970  -32.5700 C   0  0  0  0  0  0  0  0  0  0  0  0
   -5.9692   15.6532  -32.0108 H   0  0  0  0  0  0  0  0  0  0  0  0
   -4.9420   17.2557  -31.9281 H   0  0  0  0  0  0  0  0  0  0  0  0
   -7.1463   16.4978  -33.9502 H   0  0  0  0  0  0  0  0  0  0  0  0
   -4.9732   18.5982  -34.1229 H   0  0  0  0  0  0  0  0  0  0  0  0
   -6.5168   18.5362  -35.0593 H   0  0  0  0  0  0  0  0  0  0  0  0
   -8.7037   18.9143  -33.4719 H   0  0  0  0  0  0  0  0  0  0  0  0
   -9.6712   20.7404  -32.0414 H   0  0  0  0  0  0  0  0  0  0  0  0
   -8.9769   23.0205  -30.4914 H   0  0  0  0  0  0  0  0  0  0  0  0
   -4.6860   24.1160  -28.9820 H   0  0  0  0  0  0  0  0  0  0  0  0
   -5.3610   25.7310  -28.5630 H   0  0  0  0  0  0  0  0  0  0  0  0
   -2.3788   23.1646  -28.1617 H   0  0  0  0  0  0  0  0  0  0  0  0
   -0.7069   22.1774  -29.3223 H   0  0  0  0  0  0  0  0  0  0  0  0
   -1.8558   21.8242  -30.6572 H   0  0  0  0  0  0  0  0  0  0  0  0
   -0.9235   23.3596  -30.6572 H   0  0  0  0  0  0  0  0  0  0  0  0
   -4.6906   20.4319  -32.6998 H   0  0  0  0  0  0  0  0  0  0  0  0
  1  2  2  0
  2  3  1  0
  3  4  1  0
  4  5  2  0
  5  6  1  0
  6  7  2  0
  7  8  1  0
  8  9  2  0
  9 10  1  0
 10 11  1  0
 10 12  2  0
  9 13  1  0
 13 14  1  0
 14 15  2  0
 14 16  1  0
 16 17  1  0
 17 18  1  0
 17 19  1  0
 19 20  2  0
 19 21  1  0
 13 22  1  0
 22 23  2  0
 23  4  1  0
 22  7  1  0
  1 24  1  0
  1 25  1  0
  2 26  1  0
  3 27  1  0
  3 28  1  0
  5 29  1  0
  6 30  1  0
  8 31  1  0
 11 32  1  0
 11 33  1  0
 17 34  1  1
 18 35  1  0
 18 36  1  0
 18 37  1  0
 23 38  1  0
M  CHG  1  21  -1
M  END
>  <UniqueID>  (24) 
23

>  <SMILES>  (24) 
C=CCc1ccc2cc(C(N)=O)n(C(=O)O[C@@H](C)C(=O)[O-])c2c1

>  <Energy>  (24) 
71.1741033672864

>  <Genealogy>  (24) 
C=CCc1ccc2cc(C(N)=O)n(C(=O)OC(C)C(=O)[O-])c2c1 (protonated)
C=CCc1ccc2cc(C(N)=O)n(C(=O)O[C@@H](C)C(=O)[O-])c2c1 (chirality)
C=CCc1ccc2cc(C(N)=O)n(C(=O)O[C@@H](C)C(=O)[O-])c2c1 (3D coordinates assigned)
C=CCc1ccc2cc(C(N)=O)n(C(=O)O[C@@H](C)C(=O)[O-])c2c1 (optimized conformer: 71.1741033672864 kcal/mol)

>  <smiles>  (24) 
C=CCc1ccc2cc(C(N)=O)n(C(=O)OC(C)C(=O)O)c2c1

>  <score_type>  (24) 
oracle

>  <origin>  (24) 
adg

>  <m_score__min__energy>  (24) 
-11.09

>  <m_primary>  (24) 
energy

$$$$
24:0
     RDKit          3D

 42 44  0  0  0  0  0  0  0  0999 V2000
   -1.9350   19.6690  -25.6970 C   0  0  0  0  0  0  0  0  0  0  0  0
   -1.3690   20.6930  -26.5080 O   0  0  0  0  0  0  0  0  0  0  0  0
   -1.9990   21.1810  -27.6560 C   0  0  0  0  0  0  0  0  0  0  0  0
   -2.7050   20.3020  -28.4770 C   0  0  0  0  0  0  0  0  0  0  0  0
   -3.3400   20.7910  -29.6190 C   0  0  0  0  0  0  0  0  0  0  0  0
   -3.2770   22.1570  -29.9370 C   0  0  0  0  0  0  0  0  0  0  0  0
   -3.9800   22.6660  -31.1410 C   0  0  0  0  0  0  0  0  0  0  0  0
   -3.3120   22.9720  -32.1660 O   0  0  0  0  0  0  0  0  0  0  0  0
   -5.4090   22.8140  -31.1680 N   0  0  0  0  0  0  0  0  0  0  0  0
   -6.1240   23.9570  -30.9780 C   0  0  0  0  0  0  0  0  0  0  0  0
   -5.5720   25.2580  -30.5500 C   0  0  0  0  0  0  0  0  0  0  0  0
   -4.2230   25.6250  -30.8410 N   0  0  0  0  0  0  0  0  0  0  0  0
   -6.2920   26.0420  -29.8750 O   0  0  0  0  0  0  0  0  0  0  0  0
   -7.4780   23.7350  -31.2180 C   0  0  0  0  0  0  0  0  0  0  0  0
   -7.5740   22.4040  -31.5600 C   0  0  0  0  0  0  0  0  0  0  0  0
   -8.6860   21.6470  -31.9110 C   0  0  0  0  0  0  0  0  0  0  0  0
   -8.4850   20.2970  -32.2490 C   0  0  0  0  0  0  0  0  0  0  0  0
   -7.1820   19.7370  -32.2400 C   0  0  0  0  0  0  0  0  0  0  0  0
   -6.9680   18.2990  -32.6140 C   0  0  0  0  0  0  0  0  0  0  0  0
   -8.1140   17.5730  -32.3440 F   0  0  0  0  0  0  0  0  0  0  0  0
   -6.6750   18.2050  -33.9620 F   0  0  0  0  0  0  0  0  0  0  0  0
   -6.0760   20.5400  -31.8860 C   0  0  0  0  0  0  0  0  0  0  0  0
   -6.3100   21.8740  -31.5310 C   0  0  0  0  0  0  0  0  0  0  0  0
   -2.5350   23.0100  -29.0920 C   0  0  0  0  0  0  0  0  0  0  0  0
   -2.4050   24.3690  -29.3970 O   0  0  0  0  0  0  0  0  0  0  0  0
   -1.6200   25.2640  -28.6200 C   0  0  0  0  0  0  0  0  0  0  0  0
   -1.9280   22.5000  -27.9840 N   0  0  0  0  0  0  0  0  0  0  0  0
   -1.7950   19.9223  -24.6358 H   0  0  0  0  0  0  0  0  0  0  0  0
   -3.0097   19.5812  -25.9143 H   0  0  0  0  0  0  0  0  0  0  0  0
   -1.4376   18.7122  -25.9143 H   0  0  0  0  0  0  0  0  0  0  0  0
   -2.7607   19.2324  -28.2263 H   0  0  0  0  0  0  0  0  0  0  0  0
   -3.8933   20.1021  -30.2742 H   0  0  0  0  0  0  0  0  0  0  0  0
   -3.8710   26.5720  -30.5780 H   0  0  0  0  0  0  0  0  0  0  0  0
   -3.5440   24.9310  -31.2220 H   0  0  0  0  0  0  0  0  0  0  0  0
   -8.2964   24.4667  -31.1491 H   0  0  0  0  0  0  0  0  0  0  0  0
   -9.6925   22.0907  -31.9239 H   0  0  0  0  0  0  0  0  0  0  0  0
   -9.3460   19.6696  -32.5228 H   0  0  0  0  0  0  0  0  0  0  0  0
   -6.1292   17.8956  -32.0277 H   0  0  0  0  0  0  0  0  0  0  0  0
   -5.0561   20.1279  -31.8890 H   0  0  0  0  0  0  0  0  0  0  0  0
   -1.7913   25.0687  -27.5511 H   0  0  0  0  0  0  0  0  0  0  0  0
   -0.5554   25.1157  -28.8538 H   0  0  0  0  0  0  0  0  0  0  0  0
   -1.9059   26.3001  -28.8538 H   0  0  0  0  0  0  0  0  0  0  0  0
  1  2  1  0
  2  3  1  0
  3  4  2  0
  4  5  1  0
  5  6  2  0
  6  7  1  0
  7  8  2  0
  7  9  1  0
  9 10  1  0
 10 11  1  0
 11 12  1  0
 11 13  2  0
 10 14  2  0
 14 15  1  0
 15 16  2  0
 16 17  1  0
 17 18  2  0
 18 19  1  0
 19 20  1  0
 19 21  1  0
 18 22  1  0
 22 23  2  0
  6 24  1  0
 24 25  1  0
 25 26  1  0
 24 27  2  0
 27  3  1  0
 23  9  1  0
 23 15  1  0
  1 28  1  0
  1 29  1  0
  1 30  1  0
  4 31  1  0
  5 32  1  0
 12 33  1  0
 12 34  1  0
 14 35  1  0
 16 36  1  0
 17 37  1  0
 19 38  1  0
 22 39  1  0
 26 40  1  0
 26 41  1  0
 26 42  1  0
M  END
>  <UniqueID>  (25) 
24

>  <SMILES>  (25) 
COc1ccc(C(=O)n2c(C(N)=O)cc3ccc(C(F)F)cc32)c(OC)n1

>  <Energy>  (25) 
81.95660088768959

>  <Genealogy>  (25) 
COc1ccc(C(=O)n2c(C(N)=O)cc3ccc(C(F)F)cc32)c(OC)n1 (3D coordinates assigned)
COc1ccc(C(=O)n2c(C(N)=O)cc3ccc(C(F)F)cc32)c(OC)n1 (optimized conformer: 81.95660088768959 kcal/mol)

>  <smiles>  (25) 
COc1ccc(C(=O)n2c(C(N)=O)cc3ccc(C(F)F)cc32)c(OC)n1

>  <score_type>  (25) 
oracle

>  <origin>  (25) 
adg

>  <m_score__min__energy>  (25) 
-8.2599999999999998

>  <m_primary>  (25) 
energy

$$$$
25:0
     RDKit          3D

 41 42  0  0  0  0  0  0  0  0999 V2000
   -9.4740   21.7850  -30.9260 C   0  0  0  0  0  0  0  0  0  0  0  0
   -8.0520   21.7670  -31.5020 C   0  0  0  0  0  0  0  0  0  0  0  0
   -7.5900   23.1830  -31.8750 C   0  0  0  0  0  0  0  0  0  0  0  0
   -7.8960   20.7670  -32.6720 C   0  0  0  0  0  0  0  0  0  0  0  0
   -7.6150   19.3020  -32.2600 C   0  0  0  0  0  0  0  0  0  0  0  0
   -6.1960   18.8960  -32.5690 C   0  0  0  0  0  0  0  0  0  0  0  0
   -5.7200   17.9030  -32.0400 O   0  0  0  0  0  0  0  0  0  0  0  0
   -5.3420   19.7240  -33.4890 C   0  0  0  0  0  0  0  0  0  0  0  0
   -4.1870   20.3110  -32.7280 C   0  0  0  0  0  0  0  0  0  0  0  0
   -2.9910   19.5660  -32.5680 C   0  0  0  0  0  0  0  0  0  0  0  0
   -1.9280   20.0740  -31.8030 C   0  0  0  0  0  0  0  0  0  0  0  0
   -2.0920   21.3200  -31.2040 C   0  0  0  0  0  0  0  0  0  0  0  0
   -1.2390   22.0310  -30.3920 C   0  0  0  0  0  0  0  0  0  0  0  0
   -1.9230   23.2030  -30.0740 C   0  0  0  0  0  0  0  0  0  0  0  0
   -1.3200   24.3020  -29.2950 C   0  0  0  0  0  0  0  0  0  0  0  0
   -2.1070   25.4040  -28.8520 N   0  0  0  0  0  0  0  0  0  0  0  0
   -0.0800   24.2990  -29.0720 O   0  0  0  0  0  0  0  0  0  0  0  0
   -3.1590   23.2080  -30.6530 N   0  0  0  0  0  0  0  0  0  0  0  0
   -4.2210   24.1640  -30.4930 C   0  0  0  0  0  0  0  0  0  0  0  0
   -4.0730   25.3620  -30.8500 O   0  0  0  0  0  0  0  0  0  0  0  0
   -3.2410   22.0540  -31.3490 C   0  0  0  0  0  0  0  0  0  0  0  0
   -4.3190   21.5700  -32.1000 C   0  0  0  0  0  0  0  0  0  0  0  0
   -9.4245   21.7844  -29.8271 H   0  0  0  0  0  0  0  0  0  0  0  0
   -9.9971   22.6898  -31.2690 H   0  0  0  0  0  0  0  0  0  0  0  0
  -10.0198   20.8937  -31.2690 H   0  0  0  0  0  0  0  0  0  0  0  0
   -7.3840   21.4012  -30.7083 H   0  0  0  0  0  0  0  0  0  0  0  0
   -7.4015   23.7606  -30.9580 H   0  0  0  0  0  0  0  0  0  0  0  0
   -6.6649   23.1228  -32.4671 H   0  0  0  0  0  0  0  0  0  0  0  0
   -8.3726   23.6800  -32.4671 H   0  0  0  0  0  0  0  0  0  0  0  0
   -8.8269   20.7822  -33.2578 H   0  0  0  0  0  0  0  0  0  0  0  0
   -7.0123   21.0976  -33.2375 H   0  0  0  0  0  0  0  0  0  0  0  0
   -7.7881   19.1967  -31.1788 H   0  0  0  0  0  0  0  0  0  0  0  0
   -8.2900   18.6499  -32.8337 H   0  0  0  0  0  0  0  0  0  0  0  0
   -4.9582   19.0882  -34.3005 H   0  0  0  0  0  0  0  0  0  0  0  0
   -5.9492   20.5392  -33.9094 H   0  0  0  0  0  0  0  0  0  0  0  0
   -2.8948   18.5807  -33.0476 H   0  0  0  0  0  0  0  0  0  0  0  0
   -0.9947   19.5048  -31.6810 H   0  0  0  0  0  0  0  0  0  0  0  0
   -0.2312   21.7370  -30.0635 H   0  0  0  0  0  0  0  0  0  0  0  0
   -2.9850   25.6710  -29.3510 H   0  0  0  0  0  0  0  0  0  0  0  0
   -5.1766   23.8439  -30.0522 H   0  0  0  0  0  0  0  0  0  0  0  0
   -5.2453   22.1550  -32.1987 H   0  0  0  0  0  0  0  0  0  0  0  0
  1  2  1  0
  2  3  1  0
  2  4  1  0
  4  5  1  0
  5  6  1  0
  6  7  2  0
  6  8  1  0
  8  9  1  0
  9 10  2  0
 10 11  1  0
 11 12  2  0
 12 13  1  0
 13 14  2  0
 14 15  1  0
 15 16  1  0
 15 17  2  0
 14 18  1  0
 18 19  1  0
 19 20  2  0
 18 21  1  0
 21 22  2  0
 22  9  1  0
 21 12  1  0
  1 23  1  0
  1 24  1  0
  1 25  1  0
  2 26  1  0
  3 27  1  0
  3 28  1  0
  3 29  1  0
  4 30  1  0
  4 31  1  0
  5 32  1  0
  5 33  1  0
  8 34  1  0
  8 35  1  0
 10 36  1  0
 11 37  1  0
 13 38  1  0
 16 39  1  0
 19 40  1  0
 22 41  1  0
M  CHG  1  16  -1
M  END
>  <UniqueID>  (26) 
25

>  <SMILES>  (26) 
CC(C)CCC(=O)Cc1ccc2cc(C([NH-])=O)n(C=O)c2c1

>  <Energy>  (26) 
72.37135546129797

>  <Genealogy>  (26) 
CC(C)CCC(=O)Cc1ccc2cc(C([NH-])=O)n(C=O)c2c1 (protonated)
CC(C)CCC(=O)Cc1ccc2cc(C([NH-])=O)n(C=O)c2c1 (3D coordinates assigned)
CC(C)CCC(=O)Cc1ccc2cc(C([NH-])=O)n(C=O)c2c1 (optimized conformer: 72.37135546129797 kcal/mol)

>  <smiles>  (26) 
CC(C)CCC(=O)Cc1ccc2cc(C(N)=O)n(C=O)c2c1

>  <score_type>  (26) 
oracle

>  <origin>  (26) 
adg

>  <m_score__min__energy>  (26) 
-10.35

>  <m_primary>  (26) 
energy

$$$$
26:0
     RDKit          3D

 25 26  0  0  0  0  0  0  0  0999 V2000
   -4.2580   25.5410  -30.5640 N   0  0  0  0  0  0  0  0  0  0  0  0
   -5.5790   25.0970  -30.2520 C   0  0  0  0  0  0  0  0  0  0  0  0
   -6.3080   25.8130  -29.5160 O   0  0  0  0  0  0  0  0  0  0  0  0
   -6.0800   23.7990  -30.7590 C   0  0  0  0  0  0  0  0  0  0  0  0
   -7.4150   23.5550  -31.0800 C   0  0  0  0  0  0  0  0  0  0  0  0
   -7.4440   22.2690  -31.5670 C   0  0  0  0  0  0  0  0  0  0  0  0
   -8.5220   21.5140  -32.0200 C   0  0  0  0  0  0  0  0  0  0  0  0
   -8.2730   20.1990  -32.4430 C   0  0  0  0  0  0  0  0  0  0  0  0
   -6.9620   19.6630  -32.3990 C   0  0  0  0  0  0  0  0  0  0  0  0
   -6.7040   18.2480  -32.8360 C   0  0  0  0  0  0  0  0  0  0  0  0
   -7.8080   17.4650  -32.5550 F   0  0  0  0  0  0  0  0  0  0  0  0
   -6.4570   18.2200  -34.1960 F   0  0  0  0  0  0  0  0  0  0  0  0
   -5.8930   20.4580  -31.9290 C   0  0  0  0  0  0  0  0  0  0  0  0
   -6.1660   21.7740  -31.5300 C   0  0  0  0  0  0  0  0  0  0  0  0
   -5.3140   22.7050  -31.0390 N   0  0  0  0  0  0  0  0  0  0  0  0
   -3.9030   22.5620  -30.7880 C   0  0  0  0  0  0  0  0  0  0  0  0
   -3.0760   23.3990  -31.2330 O   0  0  0  0  0  0  0  0  0  0  0  0
   -3.6450   25.0080  -31.2200 H   0  0  0  0  0  0  0  0  0  0  0  0
   -3.9010   26.4390  -30.1690 H   0  0  0  0  0  0  0  0  0  0  0  0
   -8.2645   24.2447  -30.9676 H   0  0  0  0  0  0  0  0  0  0  0  0
   -9.5379   21.9350  -32.0457 H   0  0  0  0  0  0  0  0  0  0  0  0
   -9.1032   19.5788  -32.8120 H   0  0  0  0  0  0  0  0  0  0  0  0
   -5.8298   17.8564  -32.2952 H   0  0  0  0  0  0  0  0  0  0  0  0
   -4.8711   20.0542  -31.8773 H   0  0  0  0  0  0  0  0  0  0  0  0
   -3.5426   21.7068  -30.1975 H   0  0  0  0  0  0  0  0  0  0  0  0
  1  2  1  0
  2  3  2  0
  2  4  1  0
  4  5  2  0
  5  6  1  0
  6  7  2  0
  7  8  1  0
  8  9  2  0
  9 10  1  0
 10 11  1  0
 10 12  1  0
  9 13  1  0
 13 14  2  0
 14 15  1  0
 15 16  1  0
 16 17  2  0
 15  4  1  0
 14  6  1  0
  1 18  1  0
  1 19  1  0
  5 20  1  0
  7 21  1  0
  8 22  1  0
 10 23  1  0
 13 24  1  0
 16 25  1  0
M  END
>  <UniqueID>  (27) 
26

>  <SMILES>  (27) 
NC(=O)c1cc2ccc(C(F)F)cc2n1C=O

>  <Energy>  (27) 
62.619061479146914

>  <Genealogy>  (27) 
NC(=O)c1cc2ccc(C(F)F)cc2n1C=O (3D coordinates assigned)
NC(=O)c1cc2ccc(C(F)F)cc2n1C=O (optimized conformer: 62.619061479146914 kcal/mol)

>  <smiles>  (27) 
NC(=O)c1cc2ccc(C(F)F)cc2n1C=O

>  <score_type>  (27) 
oracle

>  <origin>  (27) 
adg

>  <m_score__min__energy>  (27) 
-7.4299999999999997

>  <m_primary>  (27) 
energy

$$$$
27:0
     RDKit          3D

 31 33  0  0  0  0  0  0  0  0999 V2000
   -3.9590   25.6370  -30.8440 N   0  0  0  0  0  0  0  0  0  0  0  0
   -5.2020   25.1300  -30.3640 C   0  0  0  0  0  0  0  0  0  0  0  0
   -5.8060   25.7460  -29.4470 O   0  0  0  0  0  0  0  0  0  0  0  0
   -5.7560   23.8820  -30.9310 C   0  0  0  0  0  0  0  0  0  0  0  0
   -7.1120   23.6770  -31.1800 C   0  0  0  0  0  0  0  0  0  0  0  0
   -7.1950   22.4220  -31.7380 C   0  0  0  0  0  0  0  0  0  0  0  0
   -8.3060   21.7010  -32.1640 C   0  0  0  0  0  0  0  0  0  0  0  0
   -8.0990   20.4090  -32.6750 C   0  0  0  0  0  0  0  0  0  0  0  0
   -6.7920   19.8560  -32.7450 C   0  0  0  0  0  0  0  0  0  0  0  0
   -6.5600   18.4910  -33.2730 C   0  0  0  0  0  0  0  0  0  0  0  0
   -6.9660   17.2950  -32.7040 C   0  0  0  0  0  0  0  0  0  0  0  0
   -6.5220   16.3050  -33.5540 C   0  0  0  0  0  0  0  0  0  0  0  0
   -5.8750   16.9490  -34.5880 C   0  0  0  0  0  0  0  0  0  0  0  0
   -5.9150   18.2460  -34.3920 O   0  0  0  0  0  0  0  0  0  0  0  0
   -5.6900   20.6220  -32.3000 C   0  0  0  0  0  0  0  0  0  0  0  0
   -5.9260   21.9110  -31.8120 C   0  0  0  0  0  0  0  0  0  0  0  0
   -5.0310   22.7970  -31.3260 N   0  0  0  0  0  0  0  0  0  0  0  0
   -3.6140   22.6010  -31.1930 C   0  0  0  0  0  0  0  0  0  0  0  0
   -2.9970   23.1550  -30.2440 O   0  0  0  0  0  0  0  0  0  0  0  0
   -2.8520   21.7550  -32.1690 C   0  0  0  0  0  0  0  0  0  0  0  0
   -3.3390   21.9290  -33.4520 F   0  0  0  0  0  0  0  0  0  0  0  0
   -1.5180   22.1160  -32.1460 F   0  0  0  0  0  0  0  0  0  0  0  0
   -2.9650   20.4240  -31.8150 F   0  0  0  0  0  0  0  0  0  0  0  0
   -3.0530   25.2990  -30.4500 H   0  0  0  0  0  0  0  0  0  0  0  0
   -7.9401   24.3712  -30.9741 H   0  0  0  0  0  0  0  0  0  0  0  0
   -9.3170   22.1301  -32.1025 H   0  0  0  0  0  0  0  0  0  0  0  0
   -8.9586   19.8186  -33.0250 H   0  0  0  0  0  0  0  0  0  0  0  0
   -7.5270   17.1627  -31.7671 H   0  0  0  0  0  0  0  0  0  0  0  0
   -6.6565   15.2201  -33.4323 H   0  0  0  0  0  0  0  0  0  0  0  0
   -5.3984   16.4516  -35.4456 H   0  0  0  0  0  0  0  0  0  0  0  0
   -4.6695   20.2130  -32.3369 H   0  0  0  0  0  0  0  0  0  0  0  0
  1  2  1  0
  2  3  2  0
  2  4  1  0
  4  5  2  0
  5  6  1  0
  6  7  2  0
  7  8  1  0
  8  9  2  0
  9 10  1  0
 10 11  2  0
 11 12  1  0
 12 13  2  0
 13 14  1  0
  9 15  1  0
 15 16  2  0
 16 17  1  0
 17 18  1  0
 18 19  2  0
 18 20  1  0
 20 21  1  0
 20 22  1  0
 20 23  1  0
 17  4  1  0
 16  6  1  0
 14 10  1  0
  1 24  1  0
  5 25  1  0
  7 26  1  0
  8 27  1  0
 11 28  1  0
 12 29  1  0
 13 30  1  0
 15 31  1  0
M  CHG  1   1  -1
M  END
>  <UniqueID>  (28) 
27

>  <SMILES>  (28) 
[NH-]C(=O)c1cc2ccc(-c3ccco3)cc2n1C(=O)C(F)(F)F

>  <Energy>  (28) 
99.74722547799934

>  <Genealogy>  (28) 
[NH-]C(=O)c1cc2ccc(-c3ccco3)cc2n1C(=O)C(F)(F)F (protonated)
[NH-]C(=O)c1cc2ccc(-c3ccco3)cc2n1C(=O)C(F)(F)F (3D coordinates assigned)
[NH-]C(=O)c1cc2ccc(-c3ccco3)cc2n1C(=O)C(F)(F)F (optimized conformer: 99.74722547799934 kcal/mol)

>  <smiles>  (28) 
NC(=O)c1cc2ccc(-c3ccco3)cc2n1C(=O)C(F)(F)F

>  <score_type>  (28) 
oracle

>  <origin>  (28) 
adg

>  <m_score__min__energy>  (28) 
-9.8900000000000006

>  <m_primary>  (28) 
energy

$$$$
28:0
     RDKit          3D

 33 34  0  0  0  0  0  0  0  0999 V2000
   -9.5140   21.7010  -31.7790 N   0  0  0  0  0  0  0  0  0  0  0  0
   -9.1600   20.6140  -31.9590 C   0  0  0  0  0  0  0  0  0  0  0  0
   -8.7100   19.2370  -32.1860 C   0  0  0  0  0  0  0  0  0  0  0  0
   -7.2700   19.2320  -32.6160 C   0  0  0  0  0  0  0  0  0  0  0  0
   -6.7840   18.2050  -33.4640 C   0  0  0  0  0  0  0  0  0  0  0  0
   -5.4500   18.2120  -33.9030 C   0  0  0  0  0  0  0  0  0  0  0  0
   -4.6290   19.2540  -33.4800 C   0  0  0  0  0  0  0  0  0  0  0  0
   -3.3130   19.5220  -33.7800 C   0  0  0  0  0  0  0  0  0  0  0  0
   -3.0120   20.7020  -33.1040 C   0  0  0  0  0  0  0  0  0  0  0  0
   -1.6720   21.3270  -33.1060 C   0  0  0  0  0  0  0  0  0  0  0  0
   -0.8630   21.3270  -34.2800 N   0  0  0  0  0  0  0  0  0  0  0  0
   -1.2470   21.8980  -32.0670 O   0  0  0  0  0  0  0  0  0  0  0  0
   -4.1010   21.1480  -32.4150 N   0  0  0  0  0  0  0  0  0  0  0  0
   -4.2190   22.3620  -31.6580 C   0  0  0  0  0  0  0  0  0  0  0  0
   -4.7580   23.3740  -32.1850 O   0  0  0  0  0  0  0  0  0  0  0  0
   -3.6280   22.4650  -30.2800 C   0  0  0  0  0  0  0  0  0  0  0  0
   -4.1860   23.6700  -29.5160 C   0  0  0  0  0  0  0  0  0  0  0  0
   -3.4800   24.9220  -29.9260 C   0  0  0  0  0  0  0  0  0  0  0  0
   -3.9430   25.6380  -30.8520 O   0  0  0  0  0  0  0  0  0  0  0  0
   -2.2800   25.2730  -29.3190 O   0  0  0  0  0  0  0  0  0  0  0  0
   -5.0820   20.2520  -32.6570 C   0  0  0  0  0  0  0  0  0  0  0  0
   -6.4110   20.2810  -32.2200 C   0  0  0  0  0  0  0  0  0  0  0  0
   -8.8142   18.6613  -31.2545 H   0  0  0  0  0  0  0  0  0  0  0  0
   -9.3248   18.7815  -32.9763 H   0  0  0  0  0  0  0  0  0  0  0  0
   -7.4579   17.3954  -33.7809 H   0  0  0  0  0  0  0  0  0  0  0  0
   -5.0655   17.4186  -34.5608 H   0  0  0  0  0  0  0  0  0  0  0  0
   -2.6410   18.9297  -34.4185 H   0  0  0  0  0  0  0  0  0  0  0  0
   -0.9450   22.0900  -34.9890 H   0  0  0  0  0  0  0  0  0  0  0  0
   -3.8637   21.5475  -29.7209 H   0  0  0  0  0  0  0  0  0  0  0  0
   -2.5404   22.5950  -30.3808 H   0  0  0  0  0  0  0  0  0  0  0  0
   -5.2594   23.7716  -29.7342 H   0  0  0  0  0  0  0  0  0  0  0  0
   -4.0316   23.5109  -28.4386 H   0  0  0  0  0  0  0  0  0  0  0  0
   -6.7776   21.1002  -31.5840 H   0  0  0  0  0  0  0  0  0  0  0  0
  1  2  3  0
  2  3  1  0
  3  4  1  0
  4  5  2  0
  5  6  1  0
  6  7  2  0
  7  8  1  0
  8  9  2  0
  9 10  1  0
 10 11  1  0
 10 12  2  0
  9 13  1  0
 13 14  1  0
 14 15  2  0
 14 16  1  0
 16 17  1  0
 17 18  1  0
 18 19  2  0
 18 20  1  0
 13 21  1  0
 21 22  2  0
 22  4  1  0
 21  7  1  0
  3 23  1  0
  3 24  1  0
  5 25  1  0
  6 26  1  0
  8 27  1  0
 11 28  1  0
 16 29  1  0
 16 30  1  0
 17 31  1  0
 17 32  1  0
 22 33  1  0
M  CHG  2  11  -1  20  -1
M  END
>  <UniqueID>  (29) 
28

>  <SMILES>  (29) 
N#CCc1ccc2cc(C([NH-])=O)n(C(=O)CCC(=O)[O-])c2c1

>  <Energy>  (29) 
67.57062594176313

>  <Genealogy>  (29) 
N#CCc1ccc2cc(C([NH-])=O)n(C(=O)CCC(=O)[O-])c2c1 (protonated)
N#CCc1ccc2cc(C([NH-])=O)n(C(=O)CCC(=O)[O-])c2c1 (3D coordinates assigned)
N#CCc1ccc2cc(C([NH-])=O)n(C(=O)CCC(=O)[O-])c2c1 (optimized conformer: 67.57062594176313 kcal/mol)

>  <smiles>  (29) 
N#CCc1ccc2cc(C(N)=O)n(C(=O)CCC(=O)O)c2c1

>  <score_type>  (29) 
oracle

>  <origin>  (29) 
adg

>  <m_score__min__energy>  (29) 
-12.57

>  <m_primary>  (29) 
energy

$$$$
29:0
     RDKit          3D

 47 48  0  0  0  0  0  0  0  0999 V2000
   -0.9890   21.1910  -33.5050 C   0  0  0  0  0  0  0  0  0  0  0  0
   -1.1850   20.6470  -32.0910 C   0  0  0  0  0  0  0  0  0  0  0  0
   -0.5150   21.5650  -31.0650 C   0  0  0  0  0  0  0  0  0  0  0  0
   -2.5860   20.5480  -31.8260 O   0  0  0  0  0  0  0  0  0  0  0  0
   -3.5210   21.4910  -32.2650 C   0  0  0  0  0  0  0  0  0  0  0  0
   -3.9630   21.4580  -33.4460 O   0  0  0  0  0  0  0  0  0  0  0  0
   -3.9970   22.5290  -31.3390 C   0  0  0  0  0  0  0  0  0  0  0  0
   -3.1730   23.1210  -30.5900 O   0  0  0  0  0  0  0  0  0  0  0  0
   -5.3900   22.8710  -31.2800 N   0  0  0  0  0  0  0  0  0  0  0  0
   -5.9430   24.0620  -30.9180 C   0  0  0  0  0  0  0  0  0  0  0  0
   -5.1980   25.2610  -30.4780 C   0  0  0  0  0  0  0  0  0  0  0  0
   -3.8630   25.4740  -30.9310 N   0  0  0  0  0  0  0  0  0  0  0  0
   -5.7330   26.1070  -29.7140 O   0  0  0  0  0  0  0  0  0  0  0  0
   -7.3350   23.9840  -30.9600 C   0  0  0  0  0  0  0  0  0  0  0  0
   -7.6170   22.6970  -31.3650 C   0  0  0  0  0  0  0  0  0  0  0  0
   -8.8420   22.0660  -31.5660 C   0  0  0  0  0  0  0  0  0  0  0  0
   -8.8290   20.7250  -31.9890 C   0  0  0  0  0  0  0  0  0  0  0  0
   -7.6030   20.0510  -32.2200 C   0  0  0  0  0  0  0  0  0  0  0  0
   -7.5950   18.6140  -32.6680 C   0  0  0  0  0  0  0  0  0  0  0  0
   -6.1960   18.0540  -32.6200 C   0  0  0  0  0  0  0  0  0  0  0  0
   -5.9300   17.1980  -31.7830 O   0  0  0  0  0  0  0  0  0  0  0  0
   -5.1780   18.5070  -33.5510 N   0  0  0  0  0  0  0  0  0  0  0  0
   -4.0070   17.6150  -33.5050 C   0  0  0  0  0  0  0  0  0  0  0  0
   -5.7290   18.5710  -34.9130 C   0  0  0  0  0  0  0  0  0  0  0  0
   -6.3810   20.7240  -32.0030 C   0  0  0  0  0  0  0  0  0  0  0  0
   -6.4250   22.0490  -31.5560 C   0  0  0  0  0  0  0  0  0  0  0  0
   -0.6166   22.2247  -33.4518 H   0  0  0  0  0  0  0  0  0  0  0  0
   -0.2597   20.5656  -34.0407 H   0  0  0  0  0  0  0  0  0  0  0  0
   -1.9496   21.1745  -34.0407 H   0  0  0  0  0  0  0  0  0  0  0  0
   -0.7204   19.6530  -32.0124 H   0  0  0  0  0  0  0  0  0  0  0  0
   -0.7642   21.2235  -30.0495 H   0  0  0  0  0  0  0  0  0  0  0  0
    0.5758   21.5360  -31.2042 H   0  0  0  0  0  0  0  0  0  0  0  0
   -0.8752   22.5950  -31.2042 H   0  0  0  0  0  0  0  0  0  0  0  0
   -3.0480   25.2940  -30.3030 H   0  0  0  0  0  0  0  0  0  0  0  0
   -8.0549   24.7805  -30.7207 H   0  0  0  0  0  0  0  0  0  0  0  0
   -9.7894   22.5995  -31.3992 H   0  0  0  0  0  0  0  0  0  0  0  0
   -9.7797   20.1934  -32.1423 H   0  0  0  0  0  0  0  0  0  0  0  0
   -8.2441   18.0242  -32.0041 H   0  0  0  0  0  0  0  0  0  0  0  0
   -7.9639   18.5618  -33.7030 H   0  0  0  0  0  0  0  0  0  0  0  0
   -4.8550   19.4690  -33.2900 H   0  0  0  0  0  0  0  0  0  0  0  0
   -3.7412   17.4126  -32.4570 H   0  0  0  0  0  0  0  0  0  0  0  0
   -4.2468   16.6686  -34.0118 H   0  0  0  0  0  0  0  0  0  0  0  0
   -3.1583   18.0976  -34.0118 H   0  0  0  0  0  0  0  0  0  0  0  0
   -6.8205   18.6978  -34.8614 H   0  0  0  0  0  0  0  0  0  0  0  0
   -5.2857   19.4237  -35.4482 H   0  0  0  0  0  0  0  0  0  0  0  0
   -5.4930   17.6394  -35.4482 H   0  0  0  0  0  0  0  0  0  0  0  0
   -5.4196   20.2198  -32.1807 H   0  0  0  0  0  0  0  0  0  0  0  0
  1  2  1  0
  2  3  1  0
  2  4  1  0
  4  5  1  0
  5  6  2  0
  5  7  1  0
  7  8  2  0
  7  9  1  0
  9 10  1  0
 10 11  1  0
 11 12  1  0
 11 13  2  0
 10 14  2  0
 14 15  1  0
 15 16  2  0
 16 17  1  0
 17 18  2  0
 18 19  1  0
 19 20  1  0
 20 21  2  0
 20 22  1  0
 22 23  1  0
 22 24  1  0
 18 25  1  0
 25 26  2  0
 26  9  1  0
 26 15  1  0
  1 27  1  0
  1 28  1  0
  1 29  1  0
  2 30  1  0
  3 31  1  0
  3 32  1  0
  3 33  1  0
 12 34  1  0
 14 35  1  0
 16 36  1  0
 17 37  1  0
 19 38  1  0
 19 39  1  0
 22 40  1  0
 23 41  1  0
 23 42  1  0
 23 43  1  0
 24 44  1  0
 24 45  1  0
 24 46  1  0
 25 47  1  0
M  CHG  2  12  -1  22   1
M  END
>  <UniqueID>  (30) 
29

>  <SMILES>  (30) 
CC(C)OC(=O)C(=O)n1c(C([NH-])=O)cc2ccc(CC(=O)[NH+](C)C)cc21

>  <Energy>  (30) 
75.85076672594397

>  <Genealogy>  (30) 
CC(C)OC(=O)C(=O)n1c(C([NH-])=O)cc2ccc(CC(=O)[NH+](C)C)cc21 (protonated)
CC(C)OC(=O)C(=O)n1c(C([NH-])=O)cc2ccc(CC(=O)[NH+](C)C)cc21 (3D coordinates assigned)
CC(C)OC(=O)C(=O)n1c(C([NH-])=O)cc2ccc(CC(=O)[NH+](C)C)cc21 (optimized conformer: 75.85076672594397 kcal/mol)

>  <smiles>  (30) 
CC(C)OC(=O)C(=O)n1c(C(N)=O)cc2ccc(CC(=O)N(C)C)cc21

>  <score_type>  (30) 
oracle

>  <origin>  (30) 
adg

>  <m_score__min__energy>  (30) 
-9.9299999999999997

>  <m_primary>  (30) 
energy

$$$$
30:0
     RDKit          3D

 25 26  0  0  0  0  0  0  0  0999 V2000
   -5.5730   26.4520  -30.3410 N   0  0  0  0  0  0  0  0  0  0  0  0
   -6.3760   25.3380  -29.9500 C   0  0  0  0  0  0  0  0  0  0  0  0
   -7.2030   25.4730  -29.0090 O   0  0  0  0  0  0  0  0  0  0  0  0
   -6.3030   24.0510  -30.6700 C   0  0  0  0  0  0  0  0  0  0  0  0
   -7.4260   23.3250  -31.0540 C   0  0  0  0  0  0  0  0  0  0  0  0
   -6.9370   22.2400  -31.7450 C   0  0  0  0  0  0  0  0  0  0  0  0
   -7.6160   21.1870  -32.3490 C   0  0  0  0  0  0  0  0  0  0  0  0
   -6.8560   20.1810  -32.9670 C   0  0  0  0  0  0  0  0  0  0  0  0
   -5.4380   20.2270  -32.9480 C   0  0  0  0  0  0  0  0  0  0  0  0
   -4.6350   19.1590  -33.6450 C   0  0  0  0  0  0  0  0  0  0  0  0
   -5.3150   18.6770  -34.7500 F   0  0  0  0  0  0  0  0  0  0  0  0
   -4.3900   18.0970  -32.7920 F   0  0  0  0  0  0  0  0  0  0  0  0
   -3.4280   19.6930  -34.0570 F   0  0  0  0  0  0  0  0  0  0  0  0
   -4.7860   21.3260  -32.3420 C   0  0  0  0  0  0  0  0  0  0  0  0
   -5.5690   22.3260  -31.7520 C   0  0  0  0  0  0  0  0  0  0  0  0
   -5.1620   23.4360  -31.0930 N   0  0  0  0  0  0  0  0  0  0  0  0
   -3.8050   23.8110  -30.7970 C   0  0  0  0  0  0  0  0  0  0  0  0
   -2.8890   22.9470  -30.8130 O   0  0  0  0  0  0  0  0  0  0  0  0
   -3.4900   25.1290  -30.4900 O   0  0  0  0  0  0  0  0  0  0  0  0
   -5.0070   26.4260  -31.2170 H   0  0  0  0  0  0  0  0  0  0  0  0
   -5.6110   27.3420  -29.7960 H   0  0  0  0  0  0  0  0  0  0  0  0
   -8.4794   23.5666  -30.8491 H   0  0  0  0  0  0  0  0  0  0  0  0
   -8.7151   21.1437  -32.3427 H   0  0  0  0  0  0  0  0  0  0  0  0
   -7.3660   19.3473  -33.4719 H   0  0  0  0  0  0  0  0  0  0  0  0
   -3.6881   21.3938  -32.3343 H   0  0  0  0  0  0  0  0  0  0  0  0
  1  2  1  0
  2  3  2  0
  2  4  1  0
  4  5  2  0
  5  6  1  0
  6  7  2  0
  7  8  1  0
  8  9  2  0
  9 10  1  0
 10 11  1  0
 10 12  1  0
 10 13  1  0
  9 14  1  0
 14 15  2  0
 15 16  1  0
 16 17  1  0
 17 18  2  0
 17 19  1  0
 16  4  1  0
 15  6  1  0
  1 20  1  0
  1 21  1  0
  5 22  1  0
  7 23  1  0
  8 24  1  0
 14 25  1  0
M  CHG  1  19  -1
M  END
>  <UniqueID>  (31) 
30

>  <SMILES>  (31) 
NC(=O)c1cc2ccc(C(F)(F)F)cc2n1C(=O)[O-]

>  <Energy>  (31) 
66.40579828452356

>  <Genealogy>  (31) 
NC(=O)c1cc2ccc(C(F)(F)F)cc2n1C(=O)[O-] (protonated)
NC(=O)c1cc2ccc(C(F)(F)F)cc2n1C(=O)[O-] (3D coordinates assigned)
NC(=O)c1cc2ccc(C(F)(F)F)cc2n1C(=O)[O-] (optimized conformer: 66.40579828452356 kcal/mol)

>  <smiles>  (31) 
NC(=O)c1cc2ccc(C(F)(F)F)cc2n1C(=O)O

>  <score_type>  (31) 
oracle

>  <origin>  (31) 
adg

>  <m_score__min__energy>  (31) 
-8

>  <m_primary>  (31) 
energy

$$$$
31:0
     RDKit          3D

 44 46  0  0  0  0  0  0  0  0999 V2000
   -9.4250   22.2860  -31.8800 C   0  0  0  0  0  0  0  0  0  0  0  0
   -7.9950   21.8380  -31.9490 C   0  0  0  0  0  0  0  0  0  0  0  0
   -7.6430   20.6940  -32.7030 C   0  0  0  0  0  0  0  0  0  0  0  0
   -6.3000   20.3040  -32.8250 C   0  0  0  0  0  0  0  0  0  0  0  0
   -5.3350   21.0790  -32.1880 C   0  0  0  0  0  0  0  0  0  0  0  0
   -3.9640   20.9640  -32.1990 C   0  0  0  0  0  0  0  0  0  0  0  0
   -3.5010   22.0390  -31.4450 C   0  0  0  0  0  0  0  0  0  0  0  0
   -2.0690   22.2980  -31.1890 C   0  0  0  0  0  0  0  0  0  0  0  0
   -1.6470   23.3630  -30.3370 N   0  0  0  0  0  0  0  0  0  0  0  0
   -1.2030   21.5350  -31.6970 O   0  0  0  0  0  0  0  0  0  0  0  0
   -4.5400   22.7920  -30.9850 N   0  0  0  0  0  0  0  0  0  0  0  0
   -4.4510   24.0680  -30.3270 C   0  0  0  0  0  0  0  0  0  0  0  0
   -3.7450   24.9790  -30.8400 O   0  0  0  0  0  0  0  0  0  0  0  0
   -5.0640   24.2840  -28.9730 C   0  0  0  0  0  0  0  0  0  0  0  0
   -4.0100   23.7170  -27.6380 S   0  0  0  0  0  0  0  0  0  0  0  0
   -4.2480   22.2540  -27.3760 O   0  0  0  0  0  0  0  0  0  0  0  0
   -4.3920   24.4910  -26.4060 O   0  0  0  0  0  0  0  0  0  0  0  0
   -2.3260   24.0060  -28.0150 N   0  0  0  0  0  0  0  0  0  0  0  0
   -1.4630   22.9950  -27.3850 C   0  0  0  0  0  0  0  0  0  0  0  0
    0.0050   23.2370  -27.8000 C   0  0  0  0  0  0  0  0  0  0  0  0
    0.1920   24.4960  -28.4250 O   0  0  0  0  0  0  0  0  0  0  0  0
   -0.3910   25.5150  -27.6370 C   0  0  0  0  0  0  0  0  0  0  0  0
   -1.9230   25.3530  -27.5770 C   0  0  0  0  0  0  0  0  0  0  0  0
   -5.6580   22.1900  -31.4520 C   0  0  0  0  0  0  0  0  0  0  0  0
   -6.9870   22.6040  -31.3250 C   0  0  0  0  0  0  0  0  0  0  0  0
   -9.7290   22.3812  -30.8271 H   0  0  0  0  0  0  0  0  0  0  0  0
   -9.5288   23.2597  -32.3811 H   0  0  0  0  0  0  0  0  0  0  0  0
  -10.0658   21.5456  -32.3811 H   0  0  0  0  0  0  0  0  0  0  0  0
   -8.4288   20.1047  -33.1982 H   0  0  0  0  0  0  0  0  0  0  0  0
   -6.0189   19.4133  -33.4061 H   0  0  0  0  0  0  0  0  0  0  0  0
   -3.3627   20.1890  -32.6967 H   0  0  0  0  0  0  0  0  0  0  0  0
   -0.6290   23.5600  -30.2100 H   0  0  0  0  0  0  0  0  0  0  0  0
   -2.3300   23.8910  -29.7520 H   0  0  0  0  0  0  0  0  0  0  0  0
   -5.2529   25.3594  -28.8397 H   0  0  0  0  0  0  0  0  0  0  0  0
   -5.9949   23.6994  -28.9326 H   0  0  0  0  0  0  0  0  0  0  0  0
   -1.5512   23.0685  -26.2910 H   0  0  0  0  0  0  0  0  0  0  0  0
   -1.7751   21.9924  -27.7126 H   0  0  0  0  0  0  0  0  0  0  0  0
    0.6377   23.1918  -26.9013 H   0  0  0  0  0  0  0  0  0  0  0  0
    0.2794   22.4587  -28.5273 H   0  0  0  0  0  0  0  0  0  0  0  0
    0.0175   25.4602  -26.6171 H   0  0  0  0  0  0  0  0  0  0  0  0
   -0.1574   26.4890  -28.0917 H   0  0  0  0  0  0  0  0  0  0  0  0
   -2.2618   25.5119  -26.5426 H   0  0  0  0  0  0  0  0  0  0  0  0
   -2.3815   26.0932  -28.2492 H   0  0  0  0  0  0  0  0  0  0  0  0
   -7.2418   23.5072  -30.7512 H   0  0  0  0  0  0  0  0  0  0  0  0
  1  2  1  0
  2  3  2  0
  3  4  1  0
  4  5  2  0
  5  6  1  0
  6  7  2  0
  7  8  1  0
  8  9  1  0
  8 10  2  0
  7 11  1  0
 11 12  1  0
 12 13  2  0
 12 14  1  0
 14 15  1  0
 15 16  2  0
 15 17  2  0
 15 18  1  0
 18 19  1  0
 19 20  1  0
 20 21  1  0
 21 22  1  0
 22 23  1  0
 11 24  1  0
 24 25  2  0
 25  2  1  0
 24  5  1  0
 23 18  1  0
  1 26  1  0
  1 27  1  0
  1 28  1  0
  3 29  1  0
  4 30  1  0
  6 31  1  0
  9 32  1  0
  9 33  1  0
 14 34  1  0
 14 35  1  0
 19 36  1  0
 19 37  1  0
 20 38  1  0
 20 39  1  0
 22 40  1  0
 22 41  1  0
 23 42  1  0
 23 43  1  0
 25 44  1  0
M  END
>  <UniqueID>  (32) 
31

>  <SMILES>  (32) 
Cc1ccc2cc(C(N)=O)n(C(=O)CS(=O)(=O)N3CCOCC3)c2c1

>  <Energy>  (32) 
86.96704710924107

>  <Genealogy>  (32) 
Cc1ccc2cc(C(N)=O)n(C(=O)CS(=O)(=O)N3CCOCC3)c2c1 (3D coordinates assigned)
Cc1ccc2cc(C(N)=O)n(C(=O)CS(=O)(=O)N3CCOCC3)c2c1 (nonaromatic ring conformer: 86.96704710924107 kcal/mol)

>  <smiles>  (32) 
Cc1ccc2cc(C(N)=O)n(C(=O)CS(=O)(=O)N3CCOCC3)c2c1

>  <score_type>  (32) 
oracle

>  <origin>  (32) 
adg

>  <m_score__min__energy>  (32) 
-9.5600000000000005

>  <m_primary>  (32) 
energy

$$$$
32:0
     RDKit          3D

 35 36  0  0  0  0  0  0  0  0999 V2000
   -2.2130   24.9030  -29.4320 N   0  0  0  0  0  0  0  0  0  0  0  0
   -1.6320   23.6060  -29.5260 C   0  0  0  0  0  0  0  0  0  0  0  0
   -0.5990   23.3420  -28.8540 O   0  0  0  0  0  0  0  0  0  0  0  0
   -2.1980   22.5840  -30.4310 C   0  0  0  0  0  0  0  0  0  0  0  0
   -1.4250   21.7370  -31.2220 C   0  0  0  0  0  0  0  0  0  0  0  0
   -2.3270   21.0020  -31.9590 C   0  0  0  0  0  0  0  0  0  0  0  0
   -2.1120   20.0020  -32.9030 C   0  0  0  0  0  0  0  0  0  0  0  0
   -3.2380   19.4010  -33.4930 C   0  0  0  0  0  0  0  0  0  0  0  0
   -4.5470   19.8060  -33.1300 C   0  0  0  0  0  0  0  0  0  0  0  0
   -5.7370   19.1460  -33.7660 C   0  0  0  0  0  0  0  0  0  0  0  0
   -5.3580   18.5520  -34.9570 F   0  0  0  0  0  0  0  0  0  0  0  0
   -6.2440   18.1820  -32.9150 F   0  0  0  0  0  0  0  0  0  0  0  0
   -4.7250   20.8250  -32.1680 C   0  0  0  0  0  0  0  0  0  0  0  0
   -3.5860   21.4080  -31.6030 C   0  0  0  0  0  0  0  0  0  0  0  0
   -3.5240   22.3740  -30.6630 N   0  0  0  0  0  0  0  0  0  0  0  0
   -4.6440   22.9670  -29.9930 C   0  0  0  0  0  0  0  0  0  0  0  0
   -4.9850   22.5340  -28.8590 O   0  0  0  0  0  0  0  0  0  0  0  0
   -5.3380   24.1690  -30.6010 C   0  0  1  0  0  0  0  0  0  0  0  0
   -4.4180   25.2890  -30.8240 N   0  0  0  0  0  0  0  0  0  0  0  0
   -6.1170   23.8010  -31.8860 C   0  0  0  0  0  0  0  0  0  0  0  0
   -7.4160   23.0040  -31.6800 C   0  0  0  0  0  0  0  0  0  0  0  0
   -8.5150   23.7150  -32.1250 F   0  0  0  0  0  0  0  0  0  0  0  0
   -7.3370   21.8240  -32.3980 F   0  0  0  0  0  0  0  0  0  0  0  0
   -7.5830   22.6900  -30.3440 F   0  0  0  0  0  0  0  0  0  0  0  0
   -2.7760   25.2980  -30.2180 H   0  0  0  0  0  0  0  0  0  0  0  0
   -0.3275   21.6695  -31.2517 H   0  0  0  0  0  0  0  0  0  0  0  0
   -1.0934   19.6917  -33.1788 H   0  0  0  0  0  0  0  0  0  0  0  0
   -3.1017   18.6086  -34.2437 H   0  0  0  0  0  0  0  0  0  0  0  0
   -6.5089   19.9046  -33.9629 H   0  0  0  0  0  0  0  0  0  0  0  0
   -5.7326   21.1514  -31.8711 H   0  0  0  0  0  0  0  0  0  0  0  0
   -6.0780   24.5091  -29.8615 H   0  0  0  0  0  0  0  0  0  0  0  0
   -4.1850   25.7160  -29.8980 H   0  0  0  0  0  0  0  0  0  0  0  0
   -3.5200   24.9420  -31.2310 H   0  0  0  0  0  0  0  0  0  0  0  0
   -6.3745   24.7369  -32.4035 H   0  0  0  0  0  0  0  0  0  0  0  0
   -5.4502   23.1397  -32.4588 H   0  0  0  0  0  0  0  0  0  0  0  0
  1  2  1  0
  2  3  2  0
  2  4  1  0
  4  5  2  0
  5  6  1  0
  6  7  2  0
  7  8  1  0
  8  9  2  0
  9 10  1  0
 10 11  1  0
 10 12  1  0
  9 13  1  0
 13 14  2  0
 14 15  1  0
 15 16  1  0
 16 17  2  0
 16 18  1  0
 18 19  1  0
 18 20  1  0
 20 21  1  0
 21 22  1  0
 21 23  1  0
 21 24  1  0
 15  4  1  0
 14  6  1  0
  1 25  1  0
  5 26  1  0
  7 27  1  0
  8 28  1  0
 10 29  1  0
 13 30  1  0
 18 31  1  1
 19 32  1  0
 19 33  1  0
 20 34  1  0
 20 35  1  0
M  CHG  1   1  -1
M  END
>  <UniqueID>  (33) 
32

>  <SMILES>  (33) 
[NH-]C(=O)c1cc2ccc(C(F)F)cc2n1C(=O)[C@@H](N)CC(F)(F)F

>  <Energy>  (33) 
74.01652111711728

>  <Genealogy>  (33) 
[NH-]C(=O)c1cc2ccc(C(F)F)cc2n1C(=O)[C@@H](N)CC(F)(F)F (protonated)
[NH-]C(=O)c1cc2ccc(C(F)F)cc2n1C(=O)[C@@H](N)CC(F)(F)F (3D coordinates assigned)
[NH-]C(=O)c1cc2ccc(C(F)F)cc2n1C(=O)[C@@H](N)CC(F)(F)F (optimized conformer: 74.01652111711728 kcal/mol)

>  <smiles>  (33) 
NC(=O)c1cc2ccc(C(F)F)cc2n1C(=O)[C@@H](N)CC(F)(F)F

>  <score_type>  (33) 
oracle

>  <origin>  (33) 
adg

>  <m_score__min__energy>  (33) 
-9.1099999999999994

>  <m_primary>  (33) 
energy

$$$$
33:0
     RDKit          3D

 38 39  0  0  0  0  0  0  0  0999 V2000
   -1.2200   26.1410  -27.8170 C   0  0  0  0  0  0  0  0  0  0  0  0
   -1.0550   25.3280  -28.9560 O   0  0  0  0  0  0  0  0  0  0  0  0
   -0.3460   24.1600  -28.5950 C   0  0  0  0  0  0  0  0  0  0  0  0
   -1.2350   22.9430  -28.8480 C   0  0  0  0  0  0  0  0  0  0  0  0
   -2.1380   23.1830  -29.9730 N   0  0  0  0  0  0  0  0  0  0  0  0
   -3.0570   22.1890  -30.4510 C   0  0  0  0  0  0  0  0  0  0  0  0
   -3.0870   21.0460  -29.9170 O   0  0  0  0  0  0  0  0  0  0  0  0
   -3.9830   22.4910  -31.5560 C   0  0  0  0  0  0  0  0  0  0  0  0
   -3.5880   22.4300  -32.7520 O   0  0  0  0  0  0  0  0  0  0  0  0
   -5.3460   22.8420  -31.2840 N   0  0  0  0  0  0  0  0  0  0  0  0
   -5.8360   24.0600  -30.9220 C   0  0  0  0  0  0  0  0  0  0  0  0
   -5.0310   25.2610  -30.6150 C   0  0  0  0  0  0  0  0  0  0  0  0
   -3.6180   25.2620  -30.8000 N   0  0  0  0  0  0  0  0  0  0  0  0
   -5.5940   26.2940  -30.1670 O   0  0  0  0  0  0  0  0  0  0  0  0
   -7.2290   24.0180  -30.8440 C   0  0  0  0  0  0  0  0  0  0  0  0
   -7.5770   22.7280  -31.1800 C   0  0  0  0  0  0  0  0  0  0  0  0
   -8.8310   22.1340  -31.2930 C   0  0  0  0  0  0  0  0  0  0  0  0
   -8.8890   20.7900  -31.6970 C   0  0  0  0  0  0  0  0  0  0  0  0
   -7.7010   20.0710  -31.9900 C   0  0  0  0  0  0  0  0  0  0  0  0
   -7.7690   18.6340  -32.4240 C   0  0  0  0  0  0  0  0  0  0  0  0
   -6.7240   17.9250  -31.8640 F   0  0  0  0  0  0  0  0  0  0  0  0
   -8.9680   18.0820  -32.0150 F   0  0  0  0  0  0  0  0  0  0  0  0
   -6.4460   20.7060  -31.8560 C   0  0  0  0  0  0  0  0  0  0  0  0
   -6.4200   22.0410  -31.4410 C   0  0  0  0  0  0  0  0  0  0  0  0
   -1.0962   25.5310  -26.9100 H   0  0  0  0  0  0  0  0  0  0  0  0
   -0.4661   26.9420  -27.8259 H   0  0  0  0  0  0  0  0  0  0  0  0
   -2.2265   26.5847  -27.8259 H   0  0  0  0  0  0  0  0  0  0  0  0
    0.5688   24.0813  -29.2008 H   0  0  0  0  0  0  0  0  0  0  0  0
   -0.0703   24.2053  -27.5311 H   0  0  0  0  0  0  0  0  0  0  0  0
   -0.6001   22.0737  -29.0745 H   0  0  0  0  0  0  0  0  0  0  0  0
   -1.8373   22.7536  -27.9473 H   0  0  0  0  0  0  0  0  0  0  0  0
   -2.1420   24.1360  -30.4020 H   0  0  0  0  0  0  0  0  0  0  0  0
   -2.9690   25.2960  -29.9800 H   0  0  0  0  0  0  0  0  0  0  0  0
   -7.9060   24.8411  -30.5717 H   0  0  0  0  0  0  0  0  0  0  0  0
   -9.7482   22.6998  -31.0727 H   0  0  0  0  0  0  0  0  0  0  0  0
   -9.8646   20.2899  -31.7872 H   0  0  0  0  0  0  0  0  0  0  0  0
   -7.6960   18.5857  -33.5205 H   0  0  0  0  0  0  0  0  0  0  0  0
   -5.5135   20.1642  -32.0725 H   0  0  0  0  0  0  0  0  0  0  0  0
  1  2  1  0
  2  3  1  0
  3  4  1  0
  4  5  1  0
  5  6  1  0
  6  7  2  0
  6  8  1  0
  8  9  2  0
  8 10  1  0
 10 11  1  0
 11 12  1  0
 12 13  1  0
 12 14  2  0
 11 15  2  0
 15 16  1  0
 16 17  2  0
 17 18  1  0
 18 19  2  0
 19 20  1  0
 20 21  1  0
 20 22  1  0
 19 23  1  0
 23 24  2  0
 24 10  1  0
 24 16  1  0
  1 25  1  0
  1 26  1  0
  1 27  1  0
  3 28  1  0
  3 29  1  0
  4 30  1  0
  4 31  1  0
  5 32  1  0
 13 33  1  0
 15 34  1  0
 17 35  1  0
 18 36  1  0
 20 37  1  0
 23 38  1  0
M  CHG  1  13  -1
M  END
>  <UniqueID>  (34) 
33

>  <SMILES>  (34) 
COCCNC(=O)C(=O)n1c(C([NH-])=O)cc2ccc(C(F)F)cc21

>  <Energy>  (34) 
73.3962009752852

>  <Genealogy>  (34) 
COCCNC(=O)C(=O)n1c(C([NH-])=O)cc2ccc(C(F)F)cc21 (protonated)
COCCNC(=O)C(=O)n1c(C([NH-])=O)cc2ccc(C(F)F)cc21 (3D coordinates assigned)
COCCNC(=O)C(=O)n1c(C([NH-])=O)cc2ccc(C(F)F)cc21 (optimized conformer: 73.3962009752852 kcal/mol)

>  <smiles>  (34) 
COCCNC(=O)C(=O)n1c(C(N)=O)cc2ccc(C(F)F)cc21

>  <score_type>  (34) 
oracle

>  <origin>  (34) 
adg

>  <m_score__min__energy>  (34) 
-9.4199999999999999

>  <m_primary>  (34) 
energy

$$$$
34:0
     RDKit          3D

 59 61  0  0  0  0  0  0  0  0999 V2000
   -3.9860   16.4750  -32.7320 C   0  0  0  0  0  0  0  0  0  0  0  0
   -4.7320   16.2340  -33.9790 N   0  0  0  0  0  0  0  0  0  0  0  0
   -6.1510   15.9080  -33.7170 C   0  0  0  0  0  0  0  0  0  0  0  0
   -6.9180   17.1130  -33.1440 C   0  0  0  0  0  0  0  0  0  0  0  0
   -6.4720   18.3600  -33.7770 N   0  0  0  0  0  0  0  0  0  0  0  0
   -6.6950   19.6230  -33.1230 C   0  0  0  0  0  0  0  0  0  0  0  0
   -8.0160   20.0780  -32.8830 C   0  0  0  0  0  0  0  0  0  0  0  0
   -8.2470   21.2960  -32.2230 C   0  0  0  0  0  0  0  0  0  0  0  0
   -7.1420   22.0390  -31.8180 C   0  0  0  0  0  0  0  0  0  0  0  0
   -7.0850   23.2270  -31.1270 C   0  0  0  0  0  0  0  0  0  0  0  0
   -5.7270   23.4940  -30.9700 C   0  0  0  0  0  0  0  0  0  0  0  0
   -5.2130   24.7140  -30.3180 C   0  0  0  0  0  0  0  0  0  0  0  0
   -5.7350   25.1590  -29.0650 N   0  0  0  0  0  0  0  0  0  0  0  0
   -4.2600   25.3450  -30.8490 O   0  0  0  0  0  0  0  0  0  0  0  0
   -4.9720   22.5050  -31.5280 N   0  0  0  0  0  0  0  0  0  0  0  0
   -3.5430   22.3580  -31.4480 C   0  0  0  0  0  0  0  0  0  0  0  0
   -2.8620   22.1740  -32.4930 O   0  0  0  0  0  0  0  0  0  0  0  0
   -2.9140   22.4190  -30.2020 O   0  0  0  0  0  0  0  0  0  0  0  0
   -1.5220   22.6720  -30.0440 C   0  0  0  0  0  0  0  0  0  0  0  0
   -1.1130   22.5080  -28.5720 C   0  0  0  0  0  0  0  0  0  0  0  0
   -1.0220   23.8170  -27.7230 C   0  0  0  0  0  0  0  0  0  0  0  0
   -0.9590   23.4830  -26.2160 C   0  0  0  0  0  0  0  0  0  0  0  0
    0.2890   24.5340  -28.1200 C   0  0  0  0  0  0  0  0  0  0  0  0
   -2.2270   24.7560  -28.0120 C   0  0  0  0  0  0  0  0  0  0  0  0
   -2.1770   25.2780  -29.3160 O   0  0  0  0  0  0  0  0  0  0  0  0
   -5.8550   21.6210  -32.0470 C   0  0  0  0  0  0  0  0  0  0  0  0
   -5.5990   20.4000  -32.6840 C   0  0  0  0  0  0  0  0  0  0  0  0
   -5.7720   18.2810  -35.0620 C   0  0  0  0  0  0  0  0  0  0  0  0
   -4.5540   17.3440  -34.9520 C   0  0  0  0  0  0  0  0  0  0  0  0
   -4.6358   16.2651  -31.8696 H   0  0  0  0  0  0  0  0  0  0  0  0
   -3.1065   15.8153  -32.6976 H   0  0  0  0  0  0  0  0  0  0  0  0
   -3.6587   17.5246  -32.6976 H   0  0  0  0  0  0  0  0  0  0  0  0
   -6.6255   15.5998  -34.6603 H   0  0  0  0  0  0  0  0  0  0  0  0
   -6.1840   15.0972  -32.9744 H   0  0  0  0  0  0  0  0  0  0  0  0
   -7.9937   16.9781  -33.3302 H   0  0  0  0  0  0  0  0  0  0  0  0
   -6.7228   17.1753  -32.0633 H   0  0  0  0  0  0  0  0  0  0  0  0
   -8.8697   19.4703  -33.2175 H   0  0  0  0  0  0  0  0  0  0  0  0
   -9.2701   21.6519  -32.0320 H   0  0  0  0  0  0  0  0  0  0  0  0
   -7.9306   23.8357  -30.7741 H   0  0  0  0  0  0  0  0  0  0  0  0
   -5.3930   26.0490  -28.6400 H   0  0  0  0  0  0  0  0  0  0  0  0
   -6.4180   24.5780  -28.5310 H   0  0  0  0  0  0  0  0  0  0  0  0
   -0.9519   21.9612  -30.6602 H   0  0  0  0  0  0  0  0  0  0  0  0
   -1.3078   23.7031  -30.3618 H   0  0  0  0  0  0  0  0  0  0  0  0
   -1.8511   21.8488  -28.0916 H   0  0  0  0  0  0  0  0  0  0  0  0
   -0.0894   22.1061  -28.5976 H   0  0  0  0  0  0  0  0  0  0  0  0
   -1.1316   24.3979  -25.6301 H   0  0  0  0  0  0  0  0  0  0  0  0
   -1.7329   22.7402  -25.9724 H   0  0  0  0  0  0  0  0  0  0  0  0
    0.0323   23.0731  -25.9724 H   0  0  0  0  0  0  0  0  0  0  0  0
    0.8335   24.8318  -27.2118 H   0  0  0  0  0  0  0  0  0  0  0  0
    0.9141   23.8522  -28.7153 H   0  0  0  0  0  0  0  0  0  0  0  0
    0.0521   25.4281  -28.7153 H   0  0  0  0  0  0  0  0  0  0  0  0
   -3.1601   24.1862  -27.8915 H   0  0  0  0  0  0  0  0  0  0  0  0
   -2.1848   25.5966  -27.3038 H   0  0  0  0  0  0  0  0  0  0  0  0
   -2.5170   24.5710  -29.9240 H   0  0  0  0  0  0  0  0  0  0  0  0
   -4.5667   20.0532  -32.8393 H   0  0  0  0  0  0  0  0  0  0  0  0
   -6.4606   17.8925  -35.8268 H   0  0  0  0  0  0  0  0  0  0  0  0
   -5.4251   19.2865  -35.3423 H   0  0  0  0  0  0  0  0  0  0  0  0
   -4.3623   16.9077  -35.9434 H   0  0  0  0  0  0  0  0  0  0  0  0
   -3.7141   17.9545  -34.5888 H   0  0  0  0  0  0  0  0  0  0  0  0
  1  2  1  0
  2  3  1  0
  3  4  1  0
  4  5  1  0
  5  6  1  0
  6  7  2  0
  7  8  1  0
  8  9  2  0
  9 10  1  0
 10 11  2  0
 11 12  1  0
 12 13  1  0
 12 14  2  0
 11 15  1  0
 15 16  1  0
 16 17  2  0
 16 18  1  0
 18 19  1  0
 19 20  1  0
 20 21  1  0
 21 22  1  0
 21 23  1  0
 21 24  1  0
 24 25  1  0
 15 26  1  0
 26 27  2  0
  5 28  1  0
 28 29  1  0
 29  2  1  0
 27  6  1  0
 26  9  1  0
  1 30  1  0
  1 31  1  0
  1 32  1  0
  3 33  1  0
  3 34  1  0
  4 35  1  0
  4 36  1  0
  7 37  1  0
  8 38  1  0
 10 39  1  0
 13 40  1  0
 13 41  1  0
 19 42  1  0
 19 43  1  0
 20 44  1  0
 20 45  1  0
 22 46  1  0
 22 47  1  0
 22 48  1  0
 23 49  1  0
 23 50  1  0
 23 51  1  0
 24 52  1  0
 24 53  1  0
 25 54  1  0
 27 55  1  0
 28 56  1  0
 28 57  1  0
 29 58  1  0
 29 59  1  0
M  END
>  <UniqueID>  (35) 
34

>  <SMILES>  (35) 
CN1CCN(c2ccc3cc(C(N)=O)n(C(=O)OCCC(C)(C)CO)c3c2)CC1

>  <Energy>  (35) 
103.9920151981964

>  <Genealogy>  (35) 
CN1CCN(c2ccc3cc(C(N)=O)n(C(=O)OCCC(C)(C)CO)c3c2)CC1 (3D coordinates assigned)
CN1CCN(c2ccc3cc(C(N)=O)n(C(=O)OCCC(C)(C)CO)c3c2)CC1 (nonaromatic ring conformer: 103.9920151981964 kcal/mol)

>  <smiles>  (35) 
CN1CCN(c2ccc3cc(C(N)=O)n(C(=O)OCCC(C)(C)CO)c3c2)CC1

>  <score_type>  (35) 
oracle

>  <origin>  (35) 
adg

>  <m_score__min__energy>  (35) 
-10.42

>  <m_primary>  (35) 
energy

$$$$
35:0
     RDKit          3D

 28 29  0  0  0  0  0  0  0  0999 V2000
   -3.6860   22.4370  -28.6610 C   0  0  0  0  0  0  0  0  0  0  0  0
   -3.1660   22.3210  -29.8820 C   0  0  0  0  0  0  0  0  0  0  0  0
   -3.9750   22.4380  -31.1090 C   0  0  0  0  0  0  0  0  0  0  0  0
   -3.4160   22.2760  -32.2250 O   0  0  0  0  0  0  0  0  0  0  0  0
   -5.3830   22.7220  -31.0590 N   0  0  0  0  0  0  0  0  0  0  0  0
   -5.9820   23.9230  -30.8260 C   0  0  0  0  0  0  0  0  0  0  0  0
   -5.2920   25.1740  -30.4500 C   0  0  0  0  0  0  0  0  0  0  0  0
   -3.8840   25.3180  -30.6150 N   0  0  0  0  0  0  0  0  0  0  0  0
   -5.9530   26.1260  -29.9520 O   0  0  0  0  0  0  0  0  0  0  0  0
   -7.3660   23.8070  -30.9530 C   0  0  0  0  0  0  0  0  0  0  0  0
   -7.5940   22.4880  -31.2770 C   0  0  0  0  0  0  0  0  0  0  0  0
   -8.7860   21.8250  -31.5480 C   0  0  0  0  0  0  0  0  0  0  0  0
   -8.7180   20.4640  -31.8930 C   0  0  0  0  0  0  0  0  0  0  0  0
   -7.4710   19.7900  -31.9510 C   0  0  0  0  0  0  0  0  0  0  0  0
   -7.4070   18.3450  -32.3780 C   0  0  0  0  0  0  0  0  0  0  0  0
   -8.6750   17.7960  -32.3160 F   0  0  0  0  0  0  0  0  0  0  0  0
   -6.9320   18.2390  -33.6740 F   0  0  0  0  0  0  0  0  0  0  0  0
   -6.5640   17.6280  -31.5470 F   0  0  0  0  0  0  0  0  0  0  0  0
   -6.2790   20.5080  -31.6960 C   0  0  0  0  0  0  0  0  0  0  0  0
   -6.3800   21.8570  -31.3400 C   0  0  0  0  0  0  0  0  0  0  0  0
   -3.0392   22.3415  -27.7764 H   0  0  0  0  0  0  0  0  0  0  0  0
   -4.7622   22.6283  -28.5374 H   0  0  0  0  0  0  0  0  0  0  0  0
   -2.0871   22.1298  -29.9789 H   0  0  0  0  0  0  0  0  0  0  0  0
   -3.4880   26.0500  -31.2460 H   0  0  0  0  0  0  0  0  0  0  0  0
   -8.1163   24.6007  -30.8221 H   0  0  0  0  0  0  0  0  0  0  0  0
   -9.7516   22.3491  -31.4941 H   0  0  0  0  0  0  0  0  0  0  0  0
   -9.6434   19.9146  -32.1209 H   0  0  0  0  0  0  0  0  0  0  0  0
   -5.2975   20.0178  -31.7757 H   0  0  0  0  0  0  0  0  0  0  0  0
  1  2  2  0
  2  3  1  0
  3  4  2  0
  3  5  1  0
  5  6  1  0
  6  7  1  0
  7  8  1  0
  7  9  2  0
  6 10  2  0
 10 11  1  0
 11 12  2  0
 12 13  1  0
 13 14  2  0
 14 15  1  0
 15 16  1  0
 15 17  1  0
 15 18  1  0
 14 19  1  0
 19 20  2  0
 20  5  1  0
 20 11  1  0
  1 21  1  0
  1 22  1  0
  2 23  1  0
  8 24  1  0
 10 25  1  0
 12 26  1  0
 13 27  1  0
 19 28  1  0
M  CHG  1   8  -1
M  END
>  <UniqueID>  (36) 
35

>  <SMILES>  (36) 
C=CC(=O)n1c(C([NH-])=O)cc2ccc(C(F)(F)F)cc21

>  <Energy>  (36) 
67.62006979034541

>  <Genealogy>  (36) 
C=CC(=O)n1c(C([NH-])=O)cc2ccc(C(F)(F)F)cc21 (protonated)
C=CC(=O)n1c(C([NH-])=O)cc2ccc(C(F)(F)F)cc21 (3D coordinates assigned)
C=CC(=O)n1c(C([NH-])=O)cc2ccc(C(F)(F)F)cc21 (optimized conformer: 67.62006979034541 kcal/mol)

>  <smiles>  (36) 
C=CC(=O)n1c(C(N)=O)cc2ccc(C(F)(F)F)cc21

>  <score_type>  (36) 
oracle

>  <origin>  (36) 
adg

>  <m_score__min__energy>  (36) 
-9.5600000000000005

>  <m_primary>  (36) 
energy

$$$$
36:0
     RDKit          3D

 34 36  0  0  0  0  0  0  0  0999 V2000
   -1.1980   25.4010  -27.9580 C   0  0  0  0  0  0  0  0  0  0  0  0
   -1.8990   24.1970  -28.4900 C   0  0  0  0  0  0  0  0  0  0  0  0
   -2.4640   24.1440  -29.7150 N   0  0  0  0  0  0  0  0  0  0  0  0
   -3.1000   22.9590  -29.9290 C   0  0  0  0  0  0  0  0  0  0  0  0
   -3.7710   22.6660  -31.2090 C   0  0  0  0  0  0  0  0  0  0  0  0
   -3.0850   22.2900  -32.1960 O   0  0  0  0  0  0  0  0  0  0  0  0
   -5.1960   22.7810  -31.3430 N   0  0  0  0  0  0  0  0  0  0  0  0
   -5.9860   23.7980  -30.9000 C   0  0  0  0  0  0  0  0  0  0  0  0
   -5.5090   25.0720  -30.3210 C   0  0  0  0  0  0  0  0  0  0  0  0
   -6.1150   25.6340  -29.1560 N   0  0  0  0  0  0  0  0  0  0  0  0
   -4.5190   25.6530  -30.8400 O   0  0  0  0  0  0  0  0  0  0  0  0
   -7.3320   23.4820  -31.0690 C   0  0  0  0  0  0  0  0  0  0  0  0
   -7.3430   22.2270  -31.6340 C   0  0  0  0  0  0  0  0  0  0  0  0
   -8.4130   21.4180  -32.0020 C   0  0  0  0  0  0  0  0  0  0  0  0
   -8.1280   20.1460  -32.5250 C   0  0  0  0  0  0  0  0  0  0  0  0
   -6.7880   19.6910  -32.6430 C   0  0  0  0  0  0  0  0  0  0  0  0
   -6.4920   18.3390  -33.2400 C   0  0  0  0  0  0  0  0  0  0  0  0
   -7.6050   17.5200  -33.1680 F   0  0  0  0  0  0  0  0  0  0  0  0
   -6.1340   18.4980  -34.5660 F   0  0  0  0  0  0  0  0  0  0  0  0
   -5.4550   17.7220  -32.5620 F   0  0  0  0  0  0  0  0  0  0  0  0
   -5.7270   20.5520  -32.2730 C   0  0  0  0  0  0  0  0  0  0  0  0
   -6.0420   21.8220  -31.7800 C   0  0  0  0  0  0  0  0  0  0  0  0
   -3.0460   22.0610  -28.8640 C   0  0  0  0  0  0  0  0  0  0  0  0
   -2.1850   22.7910  -27.6170 S   0  0  0  0  0  0  0  0  0  0  0  0
   -1.2118   25.3773  -26.8583 H   0  0  0  0  0  0  0  0  0  0  0  0
   -0.1564   25.4050  -28.3116 H   0  0  0  0  0  0  0  0  0  0  0  0
   -1.7087   26.3088  -28.3116 H   0  0  0  0  0  0  0  0  0  0  0  0
   -6.7980   25.0900  -28.5840 H   0  0  0  0  0  0  0  0  0  0  0  0
   -5.8010   26.5640  -28.8010 H   0  0  0  0  0  0  0  0  0  0  0  0
   -8.2011   24.1032  -30.8068 H   0  0  0  0  0  0  0  0  0  0  0  0
   -9.4508   21.7639  -31.8869 H   0  0  0  0  0  0  0  0  0  0  0  0
   -8.9532   19.4940  -32.8473 H   0  0  0  0  0  0  0  0  0  0  0  0
   -4.6799   20.2297  -32.3710 H   0  0  0  0  0  0  0  0  0  0  0  0
   -3.4880   21.0539  -28.8429 H   0  0  0  0  0  0  0  0  0  0  0  0
  1  2  1  0
  2  3  2  0
  3  4  1  0
  4  5  1  0
  5  6  2  0
  5  7  1  0
  7  8  1  0
  8  9  1  0
  9 10  1  0
  9 11  2  0
  8 12  2  0
 12 13  1  0
 13 14  2  0
 14 15  1  0
 15 16  2  0
 16 17  1  0
 17 18  1  0
 17 19  1  0
 17 20  1  0
 16 21  1  0
 21 22  2  0
  4 23  2  0
 23 24  1  0
 24  2  1  0
 22  7  1  0
 22 13  1  0
  1 25  1  0
  1 26  1  0
  1 27  1  0
 10 28  1  0
 10 29  1  0
 12 30  1  0
 14 31  1  0
 15 32  1  0
 21 33  1  0
 23 34  1  0
M  END
>  <UniqueID>  (37) 
36

>  <SMILES>  (37) 
Cc1nc(C(=O)n2c(C(N)=O)cc3ccc(C(F)(F)F)cc32)cs1

>  <Energy>  (37) 
104.70056360661563

>  <Genealogy>  (37) 
Cc1nc(C(=O)n2c(C(N)=O)cc3ccc(C(F)(F)F)cc32)cs1 (3D coordinates assigned)
Cc1nc(C(=O)n2c(C(N)=O)cc3ccc(C(F)(F)F)cc32)cs1 (optimized conformer: 104.70056360661563 kcal/mol)

>  <smiles>  (37) 
Cc1nc(C(=O)n2c(C(N)=O)cc3ccc(C(F)(F)F)cc32)cs1

>  <score_type>  (37) 
oracle

>  <origin>  (37) 
adg

>  <m_score__min__energy>  (37) 
-8.8399999999999999

>  <m_primary>  (37) 
energy

$$$$
37:0
     RDKit          3D

 48 50  0  0  0  0  0  0  0  0999 V2000
   -3.1540   18.6420  -26.0620 C   0  0  0  0  0  0  0  0  0  0  0  0
   -1.8850   19.2160  -26.3530 O   0  0  0  0  0  0  0  0  0  0  0  0
   -1.4760   19.5250  -27.6560 C   0  0  0  0  0  0  0  0  0  0  0  0
   -0.8360   18.6730  -28.3330 O   0  0  0  0  0  0  0  0  0  0  0  0
   -1.7850   20.8160  -28.2120 N   0  0  0  0  0  0  0  0  0  0  0  0
   -1.0150   21.2930  -29.3710 C   0  0  0  0  0  0  0  0  0  0  0  0
   -1.5970   22.5940  -29.9310 C   0  0  0  0  0  0  0  0  0  0  0  0
   -3.0630   22.5200  -29.9150 N   0  0  0  0  0  0  0  0  0  0  0  0
   -3.8140   22.5160  -31.1460 C   0  0  0  0  0  0  0  0  0  0  0  0
   -3.2300   22.3240  -32.2460 O   0  0  0  0  0  0  0  0  0  0  0  0
   -5.2220   22.7830  -31.1440 N   0  0  0  0  0  0  0  0  0  0  0  0
   -5.8560   23.9450  -30.8320 C   0  0  0  0  0  0  0  0  0  0  0  0
   -5.1970   25.2200  -30.4750 C   0  0  0  0  0  0  0  0  0  0  0  0
   -3.8620   25.4960  -30.8880 N   0  0  0  0  0  0  0  0  0  0  0  0
   -5.8260   26.0830  -29.8070 O   0  0  0  0  0  0  0  0  0  0  0  0
   -7.2390   23.7830  -30.9320 C   0  0  0  0  0  0  0  0  0  0  0  0
   -7.4260   22.4720  -31.3130 C   0  0  0  0  0  0  0  0  0  0  0  0
   -8.5980   21.7600  -31.5460 C   0  0  0  0  0  0  0  0  0  0  0  0
   -8.4860   20.4060  -31.9090 C   0  0  0  0  0  0  0  0  0  0  0  0
   -7.2130   19.7920  -32.0430 C   0  0  0  0  0  0  0  0  0  0  0  0
   -7.1090   18.3270  -32.3830 C   0  0  0  0  0  0  0  0  0  0  0  0
   -6.2330   17.6890  -31.5210 F   0  0  0  0  0  0  0  0  0  0  0  0
   -8.3430   17.7100  -32.2810 F   0  0  0  0  0  0  0  0  0  0  0  0
   -6.6460   18.1950  -33.6780 F   0  0  0  0  0  0  0  0  0  0  0  0
   -6.0480   20.5440  -31.7690 C   0  0  0  0  0  0  0  0  0  0  0  0
   -6.1920   21.8910  -31.4290 C   0  0  0  0  0  0  0  0  0  0  0  0
   -3.7480   22.2750  -28.6320 C   0  0  2  0  0  0  0  0  0  0  0  0
   -4.4090   23.5710  -28.1240 C   0  0  0  0  0  0  0  0  0  0  0  0
   -3.5370   24.6610  -28.2560 O   0  0  0  0  0  0  0  0  0  0  0  0
   -2.7710   21.7060  -27.5770 C   0  0  0  0  0  0  0  0  0  0  0  0
   -3.2878   18.5815  -24.9718 H   0  0  0  0  0  0  0  0  0  0  0  0
   -3.9478   19.2687  -26.4946 H   0  0  0  0  0  0  0  0  0  0  0  0
   -3.2075   17.6320  -26.4946 H   0  0  0  0  0  0  0  0  0  0  0  0
    0.0254   21.4705  -29.0610 H   0  0  0  0  0  0  0  0  0  0  0  0
   -1.0622   20.5256  -30.1577 H   0  0  0  0  0  0  0  0  0  0  0  0
   -1.2657   23.4406  -29.3117 H   0  0  0  0  0  0  0  0  0  0  0  0
   -1.2480   22.7374  -30.9643 H   0  0  0  0  0  0  0  0  0  0  0  0
   -3.0510   25.2900  -30.2620 H   0  0  0  0  0  0  0  0  0  0  0  0
   -8.0145   24.5407  -30.7462 H   0  0  0  0  0  0  0  0  0  0  0  0
   -9.5824   22.2413  -31.4493 H   0  0  0  0  0  0  0  0  0  0  0  0
   -9.3959   19.8154  -32.0914 H   0  0  0  0  0  0  0  0  0  0  0  0
   -5.0522   20.0797  -31.8222 H   0  0  0  0  0  0  0  0  0  0  0  0
   -4.5331   21.5229  -28.7991 H   0  0  0  0  0  0  0  0  0  0  0  0
   -5.3195   23.7648  -28.7100 H   0  0  0  0  0  0  0  0  0  0  0  0
   -4.6573   23.4457  -27.0597 H   0  0  0  0  0  0  0  0  0  0  0  0
   -4.0410   25.3710  -28.7330 H   0  0  0  0  0  0  0  0  0  0  0  0
   -2.2443   22.5376  -27.0861 H   0  0  0  0  0  0  0  0  0  0  0  0
   -3.3446   21.1294  -26.8363 H   0  0  0  0  0  0  0  0  0  0  0  0
  1  2  1  0
  2  3  1  0
  3  4  2  0
  3  5  1  0
  5  6  1  0
  6  7  1  0
  7  8  1  0
  8  9  1  0
  9 10  2  0
  9 11  1  0
 11 12  1  0
 12 13  1  0
 13 14  1  0
 13 15  2  0
 12 16  2  0
 16 17  1  0
 17 18  2  0
 18 19  1  0
 19 20  2  0
 20 21  1  0
 21 22  1  0
 21 23  1  0
 21 24  1  0
 20 25  1  0
 25 26  2  0
  8 27  1  0
 27 28  1  0
 28 29  1  0
 27 30  1  0
 30  5  1  0
 26 11  1  0
 26 17  1  0
  1 31  1  0
  1 32  1  0
  1 33  1  0
  6 34  1  0
  6 35  1  0
  7 36  1  0
  7 37  1  0
 14 38  1  0
 16 39  1  0
 18 40  1  0
 19 41  1  0
 25 42  1  0
 27 43  1  6
 28 44  1  0
 28 45  1  0
 29 46  1  0
 30 47  1  0
 30 48  1  0
M  CHG  1  14  -1
M  END
>  <UniqueID>  (38) 
37

>  <SMILES>  (38) 
COC(=O)N1CCN(C(=O)n2c(C([NH-])=O)cc3ccc(C(F)(F)F)cc32)[C@H](CO)C1

>  <Energy>  (38) 
85.97137817757513

>  <Genealogy>  (38) 
COC(=O)N1CCN(C(=O)n2c(C([NH-])=O)cc3ccc(C(F)(F)F)cc32)[C@H](CO)C1 (protonated)
COC(=O)N1CCN(C(=O)n2c(C([NH-])=O)cc3ccc(C(F)(F)F)cc32)[C@H](CO)C1 (3D coordinates assigned)
COC(=O)N1CCN(C(=O)n2c(C([NH-])=O)cc3ccc(C(F)(F)F)cc32)[C@H](CO)C1 (nonaromatic ring conformer: 85.97137817757513 kcal/mol)

>  <smiles>  (38) 
COC(=O)N1CCN(C(=O)n2c(C(N)=O)cc3ccc(C(F)(F)F)cc32)[C@H](CO)C1

>  <score_type>  (38) 
oracle

>  <origin>  (38) 
adg

>  <m_score__min__energy>  (38) 
-11.119999999999999

>  <m_primary>  (38) 
energy

$$$$
38:0
     RDKit          3D

 33 35  0  0  0  0  0  0  0  0999 V2000
   -4.0080   25.6630  -30.8370 N   0  0  0  0  0  0  0  0  0  0  0  0
   -5.3690   25.3270  -30.5770 C   0  0  0  0  0  0  0  0  0  0  0  0
   -6.0910   26.1390  -29.9390 O   0  0  0  0  0  0  0  0  0  0  0  0
   -5.9240   24.0220  -30.9920 C   0  0  0  0  0  0  0  0  0  0  0  0
   -7.2630   23.8320  -31.3270 C   0  0  0  0  0  0  0  0  0  0  0  0
   -7.3920   22.4820  -31.5640 C   0  0  0  0  0  0  0  0  0  0  0  0
   -8.5050   21.7450  -31.9550 C   0  0  0  0  0  0  0  0  0  0  0  0
   -8.3400   20.3660  -32.1650 C   0  0  0  0  0  0  0  0  0  0  0  0
   -7.0770   19.7470  -31.9740 C   0  0  0  0  0  0  0  0  0  0  0  0
   -6.8990   18.2780  -32.2640 C   0  0  0  0  0  0  0  0  0  0  0  0
   -6.1510   17.6710  -31.2710 F   0  0  0  0  0  0  0  0  0  0  0  0
   -6.2460   18.1300  -33.4740 F   0  0  0  0  0  0  0  0  0  0  0  0
   -8.1260   17.6420  -32.3320 F   0  0  0  0  0  0  0  0  0  0  0  0
   -5.9650   20.5370  -31.6010 C   0  0  0  0  0  0  0  0  0  0  0  0
   -6.1630   21.9050  -31.3780 C   0  0  0  0  0  0  0  0  0  0  0  0
   -5.2490   22.8380  -31.0310 N   0  0  0  0  0  0  0  0  0  0  0  0
   -3.8450   22.6140  -30.8340 C   0  0  0  0  0  0  0  0  0  0  0  0
   -3.0260   22.8970  -31.7500 O   0  0  0  0  0  0  0  0  0  0  0  0
   -3.3960   22.0520  -29.6360 O   0  0  0  0  0  0  0  0  0  0  0  0
   -2.6280   22.7830  -28.6820 C   0  0  0  0  0  0  0  0  0  0  0  0
   -1.5490   23.6030  -29.3400 C   0  0  0  0  0  0  0  0  0  0  0  0
   -2.1750   24.8190  -29.0050 O   0  0  0  0  0  0  0  0  0  0  0  0
   -3.2260   24.1320  -28.3670 C   0  0  0  0  0  0  0  0  0  0  0  0
   -3.2680   24.9280  -30.8600 H   0  0  0  0  0  0  0  0  0  0  0  0
   -8.0500   24.5980  -31.3890 H   0  0  0  0  0  0  0  0  0  0  0  0
   -9.4838   22.2270  -32.0954 H   0  0  0  0  0  0  0  0  0  0  0  0
   -9.2004   19.7581  -32.4815 H   0  0  0  0  0  0  0  0  0  0  0  0
   -4.9675   20.0871  -31.4886 H   0  0  0  0  0  0  0  0  0  0  0  0
   -2.4441   22.0040  -27.9274 H   0  0  0  0  0  0  0  0  0  0  0  0
   -0.5592   23.4775  -28.8768 H   0  0  0  0  0  0  0  0  0  0  0  0
   -1.2983   23.4059  -30.3928 H   0  0  0  0  0  0  0  0  0  0  0  0
   -3.2956   24.3401  -27.2891 H   0  0  0  0  0  0  0  0  0  0  0  0
   -4.2620   24.3404  -28.6724 H   0  0  0  0  0  0  0  0  0  0  0  0
  1  2  1  0
  2  3  2  0
  2  4  1  0
  4  5  2  0
  5  6  1  0
  6  7  2  0
  7  8  1  0
  8  9  2  0
  9 10  1  0
 10 11  1  0
 10 12  1  0
 10 13  1  0
  9 14  1  0
 14 15  2  0
 15 16  1  0
 16 17  1  0
 17 18  2  0
 17 19  1  0
 19 20  1  0
 20 21  1  0
 21 22  1  0
 22 23  1  0
 16  4  1  0
 23 20  1  0
 15  6  1  0
  1 24  1  0
  5 25  1  0
  7 26  1  0
  8 27  1  0
 14 28  1  0
 20 29  1  0
 21 30  1  0
 21 31  1  0
 23 32  1  0
 23 33  1  0
M  CHG  1   1  -1
M  END
>  <UniqueID>  (39) 
38

>  <SMILES>  (39) 
[NH-]C(=O)c1cc2ccc(C(F)(F)F)cc2n1C(=O)OC1COC1

>  <Energy>  (39) 
135.3466201209212

>  <Genealogy>  (39) 
[NH-]C(=O)c1cc2ccc(C(F)(F)F)cc2n1C(=O)OC1COC1 (protonated)
[NH-]C(=O)c1cc2ccc(C(F)(F)F)cc2n1C(=O)OC1COC1 (3D coordinates assigned)
[NH-]C(=O)c1cc2ccc(C(F)(F)F)cc2n1C(=O)OC1COC1 (nonaromatic ring conformer: 135.3466201209212 kcal/mol)

>  <smiles>  (39) 
NC(=O)c1cc2ccc(C(F)(F)F)cc2n1C(=O)OC1COC1

>  <score_type>  (39) 
oracle

>  <origin>  (39) 
adg

>  <m_score__min__energy>  (39) 
-9.1500000000000004

>  <m_primary>  (39) 
energy

$$$$
39:0
     RDKit          3D

 32 33  0  0  0  0  0  0  0  0999 V2000
   -3.9980   25.6250  -30.8450 N   0  0  0  0  0  0  0  0  0  0  0  0
   -5.2170   25.1340  -30.2920 C   0  0  0  0  0  0  0  0  0  0  0  0
   -5.7230   25.7190  -29.3000 O   0  0  0  0  0  0  0  0  0  0  0  0
   -5.8810   23.9610  -30.8980 C   0  0  0  0  0  0  0  0  0  0  0  0
   -7.2650   23.8130  -30.9860 C   0  0  0  0  0  0  0  0  0  0  0  0
   -7.4630   22.5820  -31.5700 C   0  0  0  0  0  0  0  0  0  0  0  0
   -8.6450   21.9350  -31.9180 C   0  0  0  0  0  0  0  0  0  0  0  0
   -8.5500   20.6820  -32.5470 C   0  0  0  0  0  0  0  0  0  0  0  0
   -7.2830   20.1020  -32.8210 C   0  0  0  0  0  0  0  0  0  0  0  0
   -7.1990   18.8270  -33.4930 N   0  0  0  0  0  0  0  0  0  0  0  0
   -6.1290   17.9860  -32.9280 C   0  0  0  0  0  0  0  0  0  0  0  0
   -4.9820   17.7630  -33.9190 C   0  0  0  0  0  0  0  0  0  0  0  0
   -5.3760   18.1680  -35.1810 F   0  0  0  0  0  0  0  0  0  0  0  0
   -6.1060   20.7940  -32.4530 C   0  0  0  0  0  0  0  0  0  0  0  0
   -6.2320   22.0300  -31.8140 C   0  0  0  0  0  0  0  0  0  0  0  0
   -5.2520   22.8620  -31.4020 N   0  0  0  0  0  0  0  0  0  0  0  0
   -3.8390   22.6520  -31.5460 C   0  0  0  0  0  0  0  0  0  0  0  0
   -3.0460   23.1430  -30.6970 O   0  0  0  0  0  0  0  0  0  0  0  0
   -3.3030   21.8660  -32.6650 C   0  0  0  0  0  0  0  0  0  0  0  0
   -3.8220   21.9490  -33.8100 O   0  0  0  0  0  0  0  0  0  0  0  0
   -2.2270   21.0090  -32.4630 O   0  0  0  0  0  0  0  0  0  0  0  0
   -3.0740   25.2960  -30.4850 H   0  0  0  0  0  0  0  0  0  0  0  0
   -8.0345   24.5276  -30.6586 H   0  0  0  0  0  0  0  0  0  0  0  0
   -9.6238   22.3906  -31.7071 H   0  0  0  0  0  0  0  0  0  0  0  0
   -9.4670   20.1446  -32.8302 H   0  0  0  0  0  0  0  0  0  0  0  0
   -8.1150   18.3220  -33.4450 H   0  0  0  0  0  0  0  0  0  0  0  0
   -6.9940   18.9930  -34.5060 H   0  0  0  0  0  0  0  0  0  0  0  0
   -5.7294   18.4781  -32.0290 H   0  0  0  0  0  0  0  0  0  0  0  0
   -6.5631   17.0041  -32.6883 H   0  0  0  0  0  0  0  0  0  0  0  0
   -4.1059   18.3485  -33.6032 H   0  0  0  0  0  0  0  0  0  0  0  0
   -4.7210   16.6947  -33.9423 H   0  0  0  0  0  0  0  0  0  0  0  0
   -5.1139   20.3689  -32.6650 H   0  0  0  0  0  0  0  0  0  0  0  0
  1  2  1  0
  2  3  2  0
  2  4  1  0
  4  5  2  0
  5  6  1  0
  6  7  2  0
  7  8  1  0
  8  9  2  0
  9 10  1  0
 10 11  1  0
 11 12  1  0
 12 13  1  0
  9 14  1  0
 14 15  2  0
 15 16  1  0
 16 17  1  0
 17 18  2  0
 17 19  1  0
 19 20  2  0
 19 21  1  0
 16  4  1  0
 15  6  1  0
  1 22  1  0
  5 23  1  0
  7 24  1  0
  8 25  1  0
 10 26  1  0
 10 27  1  0
 11 28  1  0
 11 29  1  0
 12 30  1  0
 12 31  1  0
 14 32  1  0
M  CHG  3   1  -1  10   1  21  -1
M  END
>  <UniqueID>  (40) 
39

>  <SMILES>  (40) 
[NH-]C(=O)c1cc2ccc([NH2+]CCF)cc2n1C(=O)C(=O)[O-]

>  <Energy>  (40) 
70.18417600070974

>  <Genealogy>  (40) 
[NH-]C(=O)c1cc2ccc([NH2+]CCF)cc2n1C(=O)C(=O)[O-] (protonated)
[NH-]C(=O)c1cc2ccc([NH2+]CCF)cc2n1C(=O)C(=O)[O-] (3D coordinates assigned)
[NH-]C(=O)c1cc2ccc([NH2+]CCF)cc2n1C(=O)C(=O)[O-] (optimized conformer: 70.18417600070974 kcal/mol)

>  <smiles>  (40) 
NC(=O)c1cc2ccc(NCCF)cc2n1C(=O)C(=O)O

>  <score_type>  (40) 
oracle

>  <origin>  (40) 
adg

>  <m_score__min__energy>  (40) 
-8.8100000000000005

>  <m_primary>  (40) 
energy

$$$$
40:0
     RDKit          3D

 45 47  0  0  0  0  0  0  0  0999 V2000
   -4.2020   25.5120  -30.7570 N   0  0  0  0  0  0  0  0  0  0  0  0
   -5.5240   25.0210  -30.5230 C   0  0  0  0  0  0  0  0  0  0  0  0
   -6.3370   25.7330  -29.8770 O   0  0  0  0  0  0  0  0  0  0  0  0
   -5.9500   23.7130  -31.0660 C   0  0  0  0  0  0  0  0  0  0  0  0
   -7.2640   23.4140  -31.4250 C   0  0  0  0  0  0  0  0  0  0  0  0
   -7.2500   22.0860  -31.7840 C   0  0  0  0  0  0  0  0  0  0  0  0
   -8.2840   21.2720  -32.2350 C   0  0  0  0  0  0  0  0  0  0  0  0
   -7.9790   19.9410  -32.5630 C   0  0  0  0  0  0  0  0  0  0  0  0
   -6.6550   19.4480  -32.4410 C   0  0  0  0  0  0  0  0  0  0  0  0
   -6.3500   18.0860  -32.8020 N   0  0  0  0  0  0  0  0  0  0  0  0
   -6.4700   17.6590  -34.2080 C   0  0  0  0  0  0  0  0  0  0  0  0
   -5.0990   17.2870  -34.7730 C   0  0  0  0  0  0  0  0  0  0  0  0
   -4.3480   16.0320  -33.7530 S   0  0  0  0  0  0  0  0  0  0  0  0
   -4.2610   14.7360  -34.5100 O   0  0  0  0  0  0  0  0  0  0  0  0
   -2.9710   16.4660  -33.3390 O   0  0  0  0  0  0  0  0  0  0  0  0
   -5.3730   15.8170  -32.3100 C   0  0  0  0  0  0  0  0  0  0  0  0
   -5.8180   17.1800  -31.7630 C   0  0  0  0  0  0  0  0  0  0  0  0
   -5.6320   20.3080  -31.9800 C   0  0  0  0  0  0  0  0  0  0  0  0
   -5.9670   21.6260  -31.6430 C   0  0  0  0  0  0  0  0  0  0  0  0
   -5.1560   22.6130  -31.2010 N   0  0  0  0  0  0  0  0  0  0  0  0
   -3.7340   22.5360  -31.0020 C   0  0  0  0  0  0  0  0  0  0  0  0
   -2.9500   22.8700  -31.9320 O   0  0  0  0  0  0  0  0  0  0  0  0
   -3.2280   22.1150  -29.7660 O   0  0  0  0  0  0  0  0  0  0  0  0
   -3.4360   22.8190  -28.5420 C   0  0  1  0  0  0  0  0  0  0  0  0
   -3.2670   21.9330  -27.4930 F   0  0  0  0  0  0  0  0  0  0  0  0
   -2.4260   23.9570  -28.3890 C   0  0  0  0  0  0  0  0  0  0  0  0
   -2.1340   24.5360  -29.6330 O   0  0  0  0  0  0  0  0  0  0  0  0
   -3.9230   26.4530  -30.4020 H   0  0  0  0  0  0  0  0  0  0  0  0
   -3.4850   24.9290  -31.2430 H   0  0  0  0  0  0  0  0  0  0  0  0
   -8.1278   24.0951  -31.4218 H   0  0  0  0  0  0  0  0  0  0  0  0
   -9.3091   21.6590  -32.3317 H   0  0  0  0  0  0  0  0  0  0  0  0
   -8.7769   19.2727  -32.9189 H   0  0  0  0  0  0  0  0  0  0  0  0
   -7.1347   16.7844  -34.2653 H   0  0  0  0  0  0  0  0  0  0  0  0
   -6.8847   18.4895  -34.7981 H   0  0  0  0  0  0  0  0  0  0  0  0
   -5.2176   16.9031  -35.7970 H   0  0  0  0  0  0  0  0  0  0  0  0
   -4.4559   18.1793  -34.7848 H   0  0  0  0  0  0  0  0  0  0  0  0
   -6.2613   15.2274  -32.5808 H   0  0  0  0  0  0  0  0  0  0  0  0
   -4.7938   15.2931  -31.5354 H   0  0  0  0  0  0  0  0  0  0  0  0
   -6.6030   17.0139  -31.0105 H   0  0  0  0  0  0  0  0  0  0  0  0
   -4.9273   17.6642  -31.3362 H   0  0  0  0  0  0  0  0  0  0  0  0
   -4.5959   19.9502  -31.8879 H   0  0  0  0  0  0  0  0  0  0  0  0
   -4.4503   23.2446  -28.5428 H   0  0  0  0  0  0  0  0  0  0  0  0
   -2.8468   24.7253  -27.7237 H   0  0  0  0  0  0  0  0  0  0  0  0
   -1.4972   23.5487  -27.9640 H   0  0  0  0  0  0  0  0  0  0  0  0
   -1.9420   23.7900  -30.2590 H   0  0  0  0  0  0  0  0  0  0  0  0
  1  2  1  0
  2  3  2  0
  2  4  1  0
  4  5  2  0
  5  6  1  0
  6  7  2  0
  7  8  1  0
  8  9  2  0
  9 10  1  0
 10 11  1  0
 11 12  1  0
 12 13  1  0
 13 14  2  0
 13 15  2  0
 13 16  1  0
 16 17  1  0
  9 18  1  0
 18 19  2  0
 19 20  1  0
 20 21  1  0
 21 22  2  0
 21 23  1  0
 23 24  1  0
 24 25  1  0
 24 26  1  0
 26 27  1  0
 20  4  1  0
 19  6  1  0
 17 10  1  0
  1 28  1  0
  1 29  1  0
  5 30  1  0
  7 31  1  0
  8 32  1  0
 11 33  1  0
 11 34  1  0
 12 35  1  0
 12 36  1  0
 16 37  1  0
 16 38  1  0
 17 39  1  0
 17 40  1  0
 18 41  1  0
 24 42  1  6
 26 43  1  0
 26 44  1  0
 27 45  1  0
M  END
>  <UniqueID>  (41) 
40

>  <SMILES>  (41) 
NC(=O)c1cc2ccc(N3CCS(=O)(=O)CC3)cc2n1C(=O)O[C@@H](F)CO

>  <Energy>  (41) 
81.36431050049063

>  <Genealogy>  (41) 
NC(=O)c1cc2ccc(N3CCS(=O)(=O)CC3)cc2n1C(=O)O[C@@H](F)CO (chirality)
NC(=O)c1cc2ccc(N3CCS(=O)(=O)CC3)cc2n1C(=O)O[C@@H](F)CO (3D coordinates assigned)
NC(=O)c1cc2ccc(N3CCS(=O)(=O)CC3)cc2n1C(=O)O[C@@H](F)CO (nonaromatic ring conformer: 81.36431050049063 kcal/mol)

>  <smiles>  (41) 
NC(=O)c1cc2ccc(N3CCS(=O)(=O)CC3)cc2n1C(=O)OC(F)CO

>  <score_type>  (41) 
oracle

>  <origin>  (41) 
adg

>  <m_score__min__energy>  (41) 
-10.130000000000001

>  <m_primary>  (41) 
energy

$$$$
41:0
     RDKit          3D

 53 54  0  0  0  0  0  0  0  0999 V2000
   -3.0930   18.9640  -26.4640 C   0  0  0  0  0  0  0  0  0  0  0  0
   -2.0800   20.0640  -26.7540 C   0  0  0  0  0  0  0  0  0  0  0  0
   -2.1120   20.5290  -28.5220 S   0  0  0  0  0  0  0  0  0  0  0  0
   -3.0960   22.0670  -28.3490 C   0  0  0  0  0  0  0  0  0  0  0  0
   -2.8070   23.0760  -29.4840 C   0  0  1  0  0  0  0  0  0  0  0  0
   -1.3500   23.2600  -29.6600 N   0  0  0  0  0  0  0  0  0  0  0  0
   -0.8900   24.4860  -29.0640 C   0  0  0  0  0  0  0  0  0  0  0  0
    0.1920   24.5150  -28.4170 O   0  0  0  0  0  0  0  0  0  0  0  0
   -1.6170   25.6580  -29.2320 O   0  0  0  0  0  0  0  0  0  0  0  0
   -3.4440   22.6000  -30.7780 C   0  0  0  0  0  0  0  0  0  0  0  0
   -2.7160   22.2190  -31.7330 O   0  0  0  0  0  0  0  0  0  0  0  0
   -4.8630   22.7130  -30.9750 N   0  0  0  0  0  0  0  0  0  0  0  0
   -5.6280   23.8390  -30.9580 C   0  0  0  0  0  0  0  0  0  0  0  0
   -5.1900   25.1690  -30.4970 C   0  0  0  0  0  0  0  0  0  0  0  0
   -3.9070   25.6740  -30.8540 N   0  0  0  0  0  0  0  0  0  0  0  0
   -5.9320   25.8450  -29.7350 O   0  0  0  0  0  0  0  0  0  0  0  0
   -6.9400   23.5460  -31.3290 C   0  0  0  0  0  0  0  0  0  0  0  0
   -6.9570   22.1900  -31.5600 C   0  0  0  0  0  0  0  0  0  0  0  0
   -8.0040   21.3600  -31.9490 C   0  0  0  0  0  0  0  0  0  0  0  0
   -7.7300   19.9920  -32.1200 C   0  0  0  0  0  0  0  0  0  0  0  0
   -6.4250   19.4840  -31.9070 C   0  0  0  0  0  0  0  0  0  0  0  0
   -6.1510   18.0100  -32.0510 C   0  0  0  0  0  0  0  0  0  0  0  0
   -7.0730   17.3670  -33.0910 C   0  0  0  0  0  0  0  0  0  0  0  0
   -6.3010   17.0220  -34.3090 N   0  0  0  0  0  0  0  0  0  0  0  0
   -5.7120   18.2190  -34.9290 C   0  0  0  0  0  0  0  0  0  0  0  0
   -5.2480   16.0370  -34.0180 C   0  0  0  0  0  0  0  0  0  0  0  0
   -5.3900   20.3560  -31.5020 C   0  0  0  0  0  0  0  0  0  0  0  0
   -5.6930   21.7110  -31.3350 C   0  0  0  0  0  0  0  0  0  0  0  0
   -3.2031   18.8445  -25.3761 H   0  0  0  0  0  0  0  0  0  0  0  0
   -4.0644   19.2350  -26.9033 H   0  0  0  0  0  0  0  0  0  0  0  0
   -2.7430   18.0182  -26.9033 H   0  0  0  0  0  0  0  0  0  0  0  0
   -2.3226   20.9471  -26.1447 H   0  0  0  0  0  0  0  0  0  0  0  0
   -1.0752   19.6913  -26.5063 H   0  0  0  0  0  0  0  0  0  0  0  0
   -4.1648   21.8078  -28.3691 H   0  0  0  0  0  0  0  0  0  0  0  0
   -2.8168   22.5411  -27.3965 H   0  0  0  0  0  0  0  0  0  0  0  0
   -3.2442   24.0477  -29.2107 H   0  0  0  0  0  0  0  0  0  0  0  0
   -0.8260   22.4800  -29.2030 H   0  0  0  0  0  0  0  0  0  0  0  0
   -1.1090   23.2600  -30.6790 H   0  0  0  0  0  0  0  0  0  0  0  0
   -3.0390   25.2990  -30.4110 H   0  0  0  0  0  0  0  0  0  0  0  0
   -7.7814   24.2489  -31.4179 H   0  0  0  0  0  0  0  0  0  0  0  0
   -9.0141   21.7617  -32.1173 H   0  0  0  0  0  0  0  0  0  0  0  0
   -8.5374   19.3088  -32.4224 H   0  0  0  0  0  0  0  0  0  0  0  0
   -5.1059   17.8696  -32.3643 H   0  0  0  0  0  0  0  0  0  0  0  0
   -6.3367   17.5278  -31.0799 H   0  0  0  0  0  0  0  0  0  0  0  0
   -7.5160   16.4527  -32.6693 H   0  0  0  0  0  0  0  0  0  0  0  0
   -7.8685   18.0785  -33.3573 H   0  0  0  0  0  0  0  0  0  0  0  0
   -5.3722   18.9095  -34.1430 H   0  0  0  0  0  0  0  0  0  0  0  0
   -4.8558   17.9247  -35.5538 H   0  0  0  0  0  0  0  0  0  0  0  0
   -6.4675   18.7178  -35.5538 H   0  0  0  0  0  0  0  0  0  0  0  0
   -5.1354   15.9316  -32.9289 H   0  0  0  0  0  0  0  0  0  0  0  0
   -5.5242   15.0655  -34.4538 H   0  0  0  0  0  0  0  0  0  0  0  0
   -4.2970   16.3773  -34.4538 H   0  0  0  0  0  0  0  0  0  0  0  0
   -4.3723   19.9790  -31.3227 H   0  0  0  0  0  0  0  0  0  0  0  0
  1  2  1  0
  2  3  1  0
  3  4  1  0
  4  5  1  0
  5  6  1  0
  6  7  1  0
  7  8  2  0
  7  9  1  0
  5 10  1  0
 10 11  2  0
 10 12  1  0
 12 13  1  0
 13 14  1  0
 14 15  1  0
 14 16  2  0
 13 17  2  0
 17 18  1  0
 18 19  2  0
 19 20  1  0
 20 21  2  0
 21 22  1  0
 22 23  1  0
 23 24  1  0
 24 25  1  0
 24 26  1  0
 21 27  1  0
 27 28  2  0
 28 12  1  0
 28 18  1  0
  1 29  1  0
  1 30  1  0
  1 31  1  0
  2 32  1  0
  2 33  1  0
  4 34  1  0
  4 35  1  0
  5 36  1  1
  6 37  1  0
  6 38  1  0
 15 39  1  0
 17 40  1  0
 19 41  1  0
 20 42  1  0
 22 43  1  0
 22 44  1  0
 23 45  1  0
 23 46  1  0
 25 47  1  0
 25 48  1  0
 25 49  1  0
 26 50  1  0
 26 51  1  0
 26 52  1  0
 27 53  1  0
M  CHG  3   6   1   9  -1  15  -1
M  END
>  <UniqueID>  (42) 
41

>  <SMILES>  (42) 
CCSC[C@@H]([NH2+]C(=O)[O-])C(=O)n1c(C([NH-])=O)cc2ccc(CCN(C)C)cc21

>  <Energy>  (42) 
85.70379333684019

>  <Genealogy>  (42) 
CCSCC([NH2+]C(=O)[O-])C(=O)n1c(C([NH-])=O)cc2ccc(CCN(C)C)cc21 (protonated)
CCSC[C@@H]([NH2+]C(=O)[O-])C(=O)n1c(C([NH-])=O)cc2ccc(CCN(C)C)cc21 (chirality)
CCSC[C@@H]([NH2+]C(=O)[O-])C(=O)n1c(C([NH-])=O)cc2ccc(CCN(C)C)cc21 (3D coordinates assigned)
CCSC[C@@H]([NH2+]C(=O)[O-])C(=O)n1c(C([NH-])=O)cc2ccc(CCN(C)C)cc21 (optimized conformer: 85.70379333684019 kcal/mol)

>  <smiles>  (42) 
CCSCC(NC(=O)O)C(=O)n1c(C(N)=O)cc2ccc(CCN(C)C)cc21

>  <score_type>  (42) 
oracle

>  <origin>  (42) 
adg

>  <m_score__min__energy>  (42) 
-11.91

>  <m_primary>  (42) 
energy

$$$$
42:0
     RDKit          3D

 43 44  0  0  0  0  0  0  0  0999 V2000
   -4.4220   24.8690  -26.4350 C   0  0  0  0  0  0  0  0  0  0  0  0
   -3.3050   24.7980  -27.2950 O   0  0  0  0  0  0  0  0  0  0  0  0
   -2.2070   25.4960  -26.7370 C   0  0  0  0  0  0  0  0  0  0  0  0
   -1.0330   25.5510  -27.7180 C   0  0  0  0  0  0  0  0  0  0  0  0
   -1.4270   25.0810  -28.9950 O   0  0  0  0  0  0  0  0  0  0  0  0
   -0.7750   23.8710  -29.3330 C   0  0  0  0  0  0  0  0  0  0  0  0
   -1.7570   22.6880  -29.3230 C   0  0  0  0  0  0  0  0  0  0  0  0
   -3.0920   23.1000  -29.7580 N   0  0  0  0  0  0  0  0  0  0  0  0
   -3.8620   22.3300  -30.6940 C   0  0  0  0  0  0  0  0  0  0  0  0
   -3.3390   21.3470  -31.2850 O   0  0  0  0  0  0  0  0  0  0  0  0
   -5.2360   22.6610  -30.9460 N   0  0  0  0  0  0  0  0  0  0  0  0
   -5.8510   23.8610  -30.7500 C   0  0  0  0  0  0  0  0  0  0  0  0
   -5.1870   25.1140  -30.3340 C   0  0  0  0  0  0  0  0  0  0  0  0
   -3.8600   25.3950  -30.7730 N   0  0  0  0  0  0  0  0  0  0  0  0
   -5.7710   25.9320  -29.5740 O   0  0  0  0  0  0  0  0  0  0  0  0
   -7.2060   23.7710  -31.0610 C   0  0  0  0  0  0  0  0  0  0  0  0
   -7.4050   22.4660  -31.4540 C   0  0  0  0  0  0  0  0  0  0  0  0
   -8.5660   21.8210  -31.8650 C   0  0  0  0  0  0  0  0  0  0  0  0
   -8.4810   20.4550  -32.1880 C   0  0  0  0  0  0  0  0  0  0  0  0
   -7.2520   19.7570  -32.0720 C   0  0  0  0  0  0  0  0  0  0  0  0
   -7.1650   18.3030  -32.4600 C   0  0  0  0  0  0  0  0  0  0  0  0
   -6.7830   18.1750  -33.7840 F   0  0  0  0  0  0  0  0  0  0  0  0
   -6.2310   17.6740  -31.6590 F   0  0  0  0  0  0  0  0  0  0  0  0
   -8.3900   17.6780  -32.3010 F   0  0  0  0  0  0  0  0  0  0  0  0
   -6.0910   20.4570  -31.6710 C   0  0  0  0  0  0  0  0  0  0  0  0
   -6.2010   21.8190  -31.3730 C   0  0  0  0  0  0  0  0  0  0  0  0
   -4.0816   24.8474  -25.3892 H   0  0  0  0  0  0  0  0  0  0  0  0
   -4.9705   25.8038  -26.6228 H   0  0  0  0  0  0  0  0  0  0  0  0
   -5.0844   24.0111  -26.6228 H   0  0  0  0  0  0  0  0  0  0  0  0
   -2.5199   26.5220  -26.4932 H   0  0  0  0  0  0  0  0  0  0  0  0
   -1.8802   24.9658  -25.8303 H   0  0  0  0  0  0  0  0  0  0  0  0
   -0.6850   26.5907  -27.8071 H   0  0  0  0  0  0  0  0  0  0  0  0
   -0.2238   24.9097  -27.3385 H   0  0  0  0  0  0  0  0  0  0  0  0
   -0.3393   23.9670  -30.3385 H   0  0  0  0  0  0  0  0  0  0  0  0
    0.0098   23.6782  -28.5867 H   0  0  0  0  0  0  0  0  0  0  0  0
   -1.3841   21.9073  -30.0023 H   0  0  0  0  0  0  0  0  0  0  0  0
   -1.8300   22.3068  -28.2938 H   0  0  0  0  0  0  0  0  0  0  0  0
   -3.5560   23.8910  -29.2560 H   0  0  0  0  0  0  0  0  0  0  0  0
   -3.0500   25.3140  -30.1190 H   0  0  0  0  0  0  0  0  0  0  0  0
   -7.9576   24.5722  -31.0046 H   0  0  0  0  0  0  0  0  0  0  0  0
   -9.5211   22.3622  -31.9353 H   0  0  0  0  0  0  0  0  0  0  0  0
   -9.3784   19.9216  -32.5347 H   0  0  0  0  0  0  0  0  0  0  0  0
   -5.1222   19.9416  -31.5950 H   0  0  0  0  0  0  0  0  0  0  0  0
  1  2  1  0
  2  3  1  0
  3  4  1  0
  4  5  1  0
  5  6  1  0
  6  7  1  0
  7  8  1  0
  8  9  1  0
  9 10  2  0
  9 11  1  0
 11 12  1  0
 12 13  1  0
 13 14  1  0
 13 15  2  0
 12 16  2  0
 16 17  1  0
 17 18  2  0
 18 19  1  0
 19 20  2  0
 20 21  1  0
 21 22  1  0
 21 23  1  0
 21 24  1  0
 20 25  1  0
 25 26  2  0
 26 11  1  0
 26 17  1  0
  1 27  1  0
  1 28  1  0
  1 29  1  0
  3 30  1  0
  3 31  1  0
  4 32  1  0
  4 33  1  0
  6 34  1  0
  6 35  1  0
  7 36  1  0
  7 37  1  0
  8 38  1  0
 14 39  1  0
 16 40  1  0
 18 41  1  0
 19 42  1  0
 25 43  1  0
M  CHG  1  14  -1
M  END
>  <UniqueID>  (43) 
42

>  <SMILES>  (43) 
COCCOCCNC(=O)n1c(C([NH-])=O)cc2ccc(C(F)(F)F)cc21

>  <Energy>  (43) 
82.31419530113337

>  <Genealogy>  (43) 
COCCOCCNC(=O)n1c(C([NH-])=O)cc2ccc(C(F)(F)F)cc21 (protonated)
COCCOCCNC(=O)n1c(C([NH-])=O)cc2ccc(C(F)(F)F)cc21 (3D coordinates assigned)
COCCOCCNC(=O)n1c(C([NH-])=O)cc2ccc(C(F)(F)F)cc21 (optimized conformer: 82.31419530113337 kcal/mol)

>  <smiles>  (43) 
COCCOCCNC(=O)n1c(C(N)=O)cc2ccc(C(F)(F)F)cc21

>  <score_type>  (43) 
oracle

>  <origin>  (43) 
adg

>  <m_score__min__energy>  (43) 
-9.4499999999999993

>  <m_primary>  (43) 
energy

$$$$
43:0
     RDKit          3D

 38 39  0  0  0  0  0  0  0  0999 V2000
   -7.0480   23.5420  -32.0810 N   0  0  0  0  0  0  0  0  0  0  0  0
   -7.9540   22.8330  -31.9570 C   0  0  0  0  0  0  0  0  0  0  0  0
   -9.1020   21.9340  -31.8010 C   0  0  0  0  0  0  0  0  0  0  0  0
   -8.6330   20.5140  -31.4880 C   0  0  0  0  0  0  0  0  0  0  0  0
   -8.1970   19.8620  -32.6790 O   0  0  0  0  0  0  0  0  0  0  0  0
   -7.4460   18.6810  -32.6800 C   0  0  0  0  0  0  0  0  0  0  0  0
   -7.9920   17.5670  -32.4510 O   0  0  0  0  0  0  0  0  0  0  0  0
   -5.9850   18.7420  -32.9990 C   0  0  0  0  0  0  0  0  0  0  0  0
   -5.5530   20.1530  -33.4140 C   0  0  0  0  0  0  0  0  0  0  0  0
   -4.3540   20.6280  -32.6320 C   0  0  0  0  0  0  0  0  0  0  0  0
   -3.1250   19.9270  -32.7190 C   0  0  0  0  0  0  0  0  0  0  0  0
   -1.9870   20.3920  -32.0400 C   0  0  0  0  0  0  0  0  0  0  0  0
   -2.1080   21.5540  -31.2830 C   0  0  0  0  0  0  0  0  0  0  0  0
   -1.1580   22.2430  -30.5670 C   0  0  0  0  0  0  0  0  0  0  0  0
   -1.8260   23.3390  -30.0300 C   0  0  0  0  0  0  0  0  0  0  0  0
   -1.1840   24.3180  -29.1310 C   0  0  0  0  0  0  0  0  0  0  0  0
   -1.9310   25.3840  -28.5450 N   0  0  0  0  0  0  0  0  0  0  0  0
    0.0320   24.1780  -28.8300 O   0  0  0  0  0  0  0  0  0  0  0  0
   -3.1340   23.3410  -30.4090 N   0  0  0  0  0  0  0  0  0  0  0  0
   -4.1110   24.3680  -30.1640 C   0  0  0  0  0  0  0  0  0  0  0  0
   -5.1740   24.1040  -29.5440 O   0  0  0  0  0  0  0  0  0  0  0  0
   -3.8920   25.6650  -30.6140 O   0  0  0  0  0  0  0  0  0  0  0  0
   -3.2940   22.2360  -31.1750 C   0  0  0  0  0  0  0  0  0  0  0  0
   -4.4390   21.8040  -31.8550 C   0  0  0  0  0  0  0  0  0  0  0  0
   -9.7353   22.2956  -30.9774 H   0  0  0  0  0  0  0  0  0  0  0  0
   -9.6726   21.9203  -32.7413 H   0  0  0  0  0  0  0  0  0  0  0  0
   -7.7991   20.5570  -30.7720 H   0  0  0  0  0  0  0  0  0  0  0  0
   -9.4716   19.9475  -31.0569 H   0  0  0  0  0  0  0  0  0  0  0  0
   -5.4130   18.4416  -32.1087 H   0  0  0  0  0  0  0  0  0  0  0  0
   -5.7896   18.0622  -33.8414 H   0  0  0  0  0  0  0  0  0  0  0  0
   -5.2995   20.1467  -34.4844 H   0  0  0  0  0  0  0  0  0  0  0  0
   -6.3877   20.8391  -33.2076 H   0  0  0  0  0  0  0  0  0  0  0  0
   -3.0621   19.0104  -33.3239 H   0  0  0  0  0  0  0  0  0  0  0  0
   -1.0294   19.8545  -32.1044 H   0  0  0  0  0  0  0  0  0  0  0  0
   -0.0961   21.9832  -30.4447 H   0  0  0  0  0  0  0  0  0  0  0  0
   -2.9690   25.4320  -28.6420 H   0  0  0  0  0  0  0  0  0  0  0  0
   -1.4530   26.0890  -27.9400 H   0  0  0  0  0  0  0  0  0  0  0  0
   -5.3816   22.3668  -31.7857 H   0  0  0  0  0  0  0  0  0  0  0  0
  1  2  3  0
  2  3  1  0
  3  4  1  0
  4  5  1  0
  5  6  1  0
  6  7  2  0
  6  8  1  0
  8  9  1  0
  9 10  1  0
 10 11  2  0
 11 12  1  0
 12 13  2  0
 13 14  1  0
 14 15  2  0
 15 16  1  0
 16 17  1  0
 16 18  2  0
 15 19  1  0
 19 20  1  0
 20 21  2  0
 20 22  1  0
 19 23  1  0
 23 24  2  0
 24 10  1  0
 23 13  1  0
  3 25  1  0
  3 26  1  0
  4 27  1  0
  4 28  1  0
  8 29  1  0
  8 30  1  0
  9 31  1  0
  9 32  1  0
 11 33  1  0
 12 34  1  0
 14 35  1  0
 17 36  1  0
 17 37  1  0
 24 38  1  0
M  CHG  1  22  -1
M  END
>  <UniqueID>  (44) 
43

>  <SMILES>  (44) 
N#CCCOC(=O)CCc1ccc2cc(C(N)=O)n(C(=O)[O-])c2c1

>  <Energy>  (44) 
67.82967953769325

>  <Genealogy>  (44) 
N#CCCOC(=O)CCc1ccc2cc(C(N)=O)n(C(=O)[O-])c2c1 (protonated)
N#CCCOC(=O)CCc1ccc2cc(C(N)=O)n(C(=O)[O-])c2c1 (3D coordinates assigned)
N#CCCOC(=O)CCc1ccc2cc(C(N)=O)n(C(=O)[O-])c2c1 (optimized conformer: 67.82967953769325 kcal/mol)

>  <smiles>  (44) 
N#CCCOC(=O)CCc1ccc2cc(C(N)=O)n(C(=O)O)c2c1

>  <score_type>  (44) 
oracle

>  <origin>  (44) 
adg

>  <m_score__min__energy>  (44) 
-8.8699999999999992

>  <m_primary>  (44) 
energy

$$$$
44:0
     RDKit          3D

 35 36  0  0  0  0  0  0  0  0999 V2000
   -3.9540   25.6750  -30.8330 N   0  0  0  0  0  0  0  0  0  0  0  0
   -5.2000   25.0910  -30.4600 C   0  0  0  0  0  0  0  0  0  0  0  0
   -5.9670   25.7170  -29.6810 O   0  0  0  0  0  0  0  0  0  0  0  0
   -5.5950   23.7810  -31.0150 C   0  0  0  0  0  0  0  0  0  0  0  0
   -6.8950   23.4680  -31.4100 C   0  0  0  0  0  0  0  0  0  0  0  0
   -6.8570   22.1380  -31.7640 C   0  0  0  0  0  0  0  0  0  0  0  0
   -7.8670   21.3080  -32.2420 C   0  0  0  0  0  0  0  0  0  0  0  0
   -7.5360   19.9760  -32.5450 C   0  0  0  0  0  0  0  0  0  0  0  0
   -6.2130   19.4970  -32.3580 C   0  0  0  0  0  0  0  0  0  0  0  0
   -5.8510   18.0790  -32.7240 C   0  0  1  0  0  0  0  0  0  0  0  0
   -6.5800   17.1820  -31.9610 F   0  0  0  0  0  0  0  0  0  0  0  0
   -6.1000   17.8150  -34.2080 C   0  0  0  0  0  0  0  0  0  0  0  0
   -5.0290   18.2540  -34.9660 F   0  0  0  0  0  0  0  0  0  0  0  0
   -5.2130   20.3760  -31.8820 C   0  0  0  0  0  0  0  0  0  0  0  0
   -5.5750   21.6930  -31.5840 C   0  0  0  0  0  0  0  0  0  0  0  0
   -4.7870   22.6910  -31.1340 N   0  0  0  0  0  0  0  0  0  0  0  0
   -3.3720   22.6100  -30.9030 C   0  0  0  0  0  0  0  0  0  0  0  0
   -2.6030   22.2880  -31.8470 O   0  0  0  0  0  0  0  0  0  0  0  0
   -2.7890   23.0000  -29.5720 C   0  0  0  0  0  0  0  0  0  0  0  0
   -1.2840   23.2750  -29.6760 C   0  0  0  0  0  0  0  0  0  0  0  0
   -0.9090   24.5940  -29.0690 C   0  0  0  0  0  0  0  0  0  0  0  0
   -1.6200   25.6140  -29.2780 O   0  0  0  0  0  0  0  0  0  0  0  0
    0.2150   24.6940  -28.2620 O   0  0  0  0  0  0  0  0  0  0  0  0
   -3.0520   25.2940  -30.4680 H   0  0  0  0  0  0  0  0  0  0  0  0
   -7.7653   24.1403  -31.4337 H   0  0  0  0  0  0  0  0  0  0  0  0
   -8.8922   21.6828  -32.3784 H   0  0  0  0  0  0  0  0  0  0  0  0
   -8.3107   19.2973  -32.9313 H   0  0  0  0  0  0  0  0  0  0  0  0
   -4.7791   17.9412  -32.5189 H   0  0  0  0  0  0  0  0  0  0  0  0
   -6.2360   16.7348  -34.3654 H   0  0  0  0  0  0  0  0  0  0  0  0
   -7.0028   18.3609  -34.5192 H   0  0  0  0  0  0  0  0  0  0  0  0
   -4.1765   20.0323  -31.7495 H   0  0  0  0  0  0  0  0  0  0  0  0
   -3.2943   23.9087  -29.2130 H   0  0  0  0  0  0  0  0  0  0  0  0
   -2.9395   22.1653  -28.8716 H   0  0  0  0  0  0  0  0  0  0  0  0
   -0.7401   22.4756  -29.1515 H   0  0  0  0  0  0  0  0  0  0  0  0
   -1.0177   23.3048  -30.7429 H   0  0  0  0  0  0  0  0  0  0  0  0
  1  2  1  0
  2  3  2  0
  2  4  1  0
  4  5  2  0
  5  6  1  0
  6  7  2  0
  7  8  1  0
  8  9  2  0
  9 10  1  0
 10 11  1  0
 10 12  1  0
 12 13  1  0
  9 14  1  0
 14 15  2  0
 15 16  1  0
 16 17  1  0
 17 18  2  0
 17 19  1  0
 19 20  1  0
 20 21  1  0
 21 22  2  0
 21 23  1  0
 16  4  1  0
 15  6  1  0
  1 24  1  0
  5 25  1  0
  7 26  1  0
  8 27  1  0
 10 28  1  6
 12 29  1  0
 12 30  1  0
 14 31  1  0
 19 32  1  0
 19 33  1  0
 20 34  1  0
 20 35  1  0
M  CHG  2   1  -1  23  -1
M  END
>  <UniqueID>  (45) 
44

>  <SMILES>  (45) 
[NH-]C(=O)c1cc2ccc([C@@H](F)CF)cc2n1C(=O)CCC(=O)[O-]

>  <Energy>  (45) 
67.93801173086099

>  <Genealogy>  (45) 
[NH-]C(=O)c1cc2ccc(C(F)CF)cc2n1C(=O)CCC(=O)[O-] (protonated)
[NH-]C(=O)c1cc2ccc([C@@H](F)CF)cc2n1C(=O)CCC(=O)[O-] (chirality)
[NH-]C(=O)c1cc2ccc([C@@H](F)CF)cc2n1C(=O)CCC(=O)[O-] (3D coordinates assigned)
[NH-]C(=O)c1cc2ccc([C@@H](F)CF)cc2n1C(=O)CCC(=O)[O-] (optimized conformer: 67.93801173086099 kcal/mol)

>  <smiles>  (45) 
NC(=O)c1cc2ccc(C(F)CF)cc2n1C(=O)CCC(=O)O

>  <score_type>  (45) 
oracle

>  <origin>  (45) 
adg

>  <m_score__min__energy>  (45) 
-11.82

>  <m_primary>  (45) 
energy

$$$$
45:0
     RDKit          3D

 34 35  0  0  0  0  0  0  0  0999 V2000
   -9.4090   21.8770  -31.5940 C   0  0  0  0  0  0  0  0  0  0  0  0
   -8.4240   23.0390  -31.6090 C   0  0  0  0  0  0  0  0  0  0  0  0
   -7.3000   22.7840  -30.6480 C   0  0  0  0  0  0  0  0  0  0  0  0
   -7.5320   22.7880  -29.4100 O   0  0  0  0  0  0  0  0  0  0  0  0
   -5.9930   22.4340  -31.1260 N   0  0  0  0  0  0  0  0  0  0  0  0
   -4.8520   23.1760  -31.0770 C   0  0  0  0  0  0  0  0  0  0  0  0
   -4.6830   24.4610  -30.3660 C   0  0  0  0  0  0  0  0  0  0  0  0
   -5.3920   24.7420  -29.1570 N   0  0  0  0  0  0  0  0  0  0  0  0
   -3.8680   25.3120  -30.8120 O   0  0  0  0  0  0  0  0  0  0  0  0
   -3.8250   22.5410  -31.7710 C   0  0  0  0  0  0  0  0  0  0  0  0
   -4.3740   21.3690  -32.2390 C   0  0  0  0  0  0  0  0  0  0  0  0
   -3.8090   20.3610  -33.0150 C   0  0  0  0  0  0  0  0  0  0  0  0
   -4.6270   19.2800  -33.3890 C   0  0  0  0  0  0  0  0  0  0  0  0
   -5.9850   19.2260  -32.9820 C   0  0  0  0  0  0  0  0  0  0  0  0
   -6.8620   18.0850  -33.4320 C   0  0  2  0  0  0  0  0  0  0  0  0
   -7.9630   17.8170  -32.4110 C   0  0  0  0  0  0  0  0  0  0  0  0
   -6.1030   16.9400  -33.6060 F   0  0  0  0  0  0  0  0  0  0  0  0
   -6.5250   20.2760  -32.2050 C   0  0  0  0  0  0  0  0  0  0  0  0
   -5.6820   21.3290  -31.8360 C   0  0  0  0  0  0  0  0  0  0  0  0
   -9.6395   21.6051  -30.5533 H   0  0  0  0  0  0  0  0  0  0  0  0
  -10.3345   22.1742  -32.1089 H   0  0  0  0  0  0  0  0  0  0  0  0
   -8.9643   21.0127  -32.1089 H   0  0  0  0  0  0  0  0  0  0  0  0
   -8.0145   23.1541  -32.6234 H   0  0  0  0  0  0  0  0  0  0  0  0
   -8.9501   23.9568  -31.3076 H   0  0  0  0  0  0  0  0  0  0  0  0
   -5.9280   23.9990  -28.6570 H   0  0  0  0  0  0  0  0  0  0  0  0
   -5.3000   25.6780  -28.7050 H   0  0  0  0  0  0  0  0  0  0  0  0
   -2.7950   22.8996  -31.9144 H   0  0  0  0  0  0  0  0  0  0  0  0
   -2.7550   20.4085  -33.3261 H   0  0  0  0  0  0  0  0  0  0  0  0
   -4.2098   18.4683  -34.0031 H   0  0  0  0  0  0  0  0  0  0  0  0
   -7.3258   18.3645  -34.3895 H   0  0  0  0  0  0  0  0  0  0  0  0
   -7.5532   17.9168  -31.3951 H   0  0  0  0  0  0  0  0  0  0  0  0
   -8.7774   18.5431  -32.5508 H   0  0  0  0  0  0  0  0  0  0  0  0
   -8.3525   16.7978  -32.5508 H   0  0  0  0  0  0  0  0  0  0  0  0
   -7.5814   20.2651  -31.8984 H   0  0  0  0  0  0  0  0  0  0  0  0
  1  2  1  0
  2  3  1  0
  3  4  2  0
  3  5  1  0
  5  6  1  0
  6  7  1  0
  7  8  1  0
  7  9  2  0
  6 10  2  0
 10 11  1  0
 11 12  2  0
 12 13  1  0
 13 14  2  0
 14 15  1  0
 15 16  1  0
 15 17  1  0
 14 18  1  0
 18 19  2  0
 19  5  1  0
 19 11  1  0
  1 20  1  0
  1 21  1  0
  1 22  1  0
  2 23  1  0
  2 24  1  0
  8 25  1  0
  8 26  1  0
 10 27  1  0
 12 28  1  0
 13 29  1  0
 15 30  1  6
 16 31  1  0
 16 32  1  0
 16 33  1  0
 18 34  1  0
M  END
>  <UniqueID>  (46) 
45

>  <SMILES>  (46) 
CCC(=O)n1c(C(N)=O)cc2ccc([C@H](C)F)cc21

>  <Energy>  (46) 
67.86452544650044

>  <Genealogy>  (46) 
CCC(=O)n1c(C(N)=O)cc2ccc([C@H](C)F)cc21 (chirality)
CCC(=O)n1c(C(N)=O)cc2ccc([C@H](C)F)cc21 (3D coordinates assigned)
CCC(=O)n1c(C(N)=O)cc2ccc([C@H](C)F)cc21 (optimized conformer: 67.86452544650044 kcal/mol)

>  <smiles>  (46) 
CCC(=O)n1c(C(N)=O)cc2ccc(C(C)F)cc21

>  <score_type>  (46) 
oracle

>  <origin>  (46) 
adg

>  <m_score__min__energy>  (46) 
-7.8300000000000001

>  <m_primary>  (46) 
energy

$$$$
46:0
     RDKit          3D

 40 42  0  0  0  0  0  0  0  0999 V2000
   -4.9700   15.4800  -31.9430 C   0  0  0  0  0  0  0  0  0  0  0  0
   -5.5100   15.4520  -33.3060 N   0  0  0  0  0  0  0  0  0  0  0  0
   -5.1980   14.3210  -34.1850 C   0  0  0  0  0  0  0  0  0  0  0  0
   -6.4320   16.4630  -33.7710 C   0  0  0  0  0  0  0  0  0  0  0  0
   -7.2230   16.1830  -34.7140 O   0  0  0  0  0  0  0  0  0  0  0  0
   -6.4750   17.8250  -33.1860 C   0  0  0  0  0  0  0  0  0  0  0  0
   -5.3040   18.4290  -32.6950 C   0  0  0  0  0  0  0  0  0  0  0  0
   -5.3640   19.7100  -32.1190 C   0  0  0  0  0  0  0  0  0  0  0  0
   -4.1340   20.3650  -31.6020 C   0  0  0  0  0  0  0  0  0  0  0  0
   -2.8810   19.7030  -31.6840 C   0  0  0  0  0  0  0  0  0  0  0  0
   -1.7110   20.3170  -31.2100 C   0  0  0  0  0  0  0  0  0  0  0  0
   -1.8190   21.5870  -30.6520 C   0  0  0  0  0  0  0  0  0  0  0  0
   -0.8460   22.4140  -30.1420 C   0  0  0  0  0  0  0  0  0  0  0  0
   -1.5170   23.5630  -29.7310 C   0  0  0  0  0  0  0  0  0  0  0  0
   -0.8530   24.6860  -29.0380 C   0  0  0  0  0  0  0  0  0  0  0  0
   -1.4830   25.9610  -28.9370 N   0  0  0  0  0  0  0  0  0  0  0  0
    0.2640   24.5040  -28.4830 O   0  0  0  0  0  0  0  0  0  0  0  0
   -2.8520   23.4550  -29.9850 N   0  0  0  0  0  0  0  0  0  0  0  0
   -3.8650   24.4570  -29.7980 C   0  0  0  0  0  0  0  0  0  0  0  0
   -4.7590   24.3030  -28.9250 O   0  0  0  0  0  0  0  0  0  0  0  0
   -3.8840   25.5920  -30.5980 O   0  0  0  0  0  0  0  0  0  0  0  0
   -3.0210   22.2360  -30.5470 C   0  0  0  0  0  0  0  0  0  0  0  0
   -4.2010   21.6570  -31.0290 C   0  0  0  0  0  0  0  0  0  0  0  0
   -6.6060   20.3590  -32.0370 C   0  0  0  0  0  0  0  0  0  0  0  0
   -7.7490   19.7250  -32.5270 C   0  0  0  0  0  0  0  0  0  0  0  0
   -7.6580   18.4870  -33.0780 N   0  0  0  0  0  0  0  0  0  0  0  0
   -5.7977   15.4371  -31.2197 H   0  0  0  0  0  0  0  0  0  0  0  0
   -4.3071   14.6150  -31.7934 H   0  0  0  0  0  0  0  0  0  0  0  0
   -4.4001   16.4089  -31.7934 H   0  0  0  0  0  0  0  0  0  0  0  0
   -4.9546   13.4387  -33.5749 H   0  0  0  0  0  0  0  0  0  0  0  0
   -6.0685   14.0990  -34.8198 H   0  0  0  0  0  0  0  0  0  0  0  0
   -4.3368   14.5767  -34.8198 H   0  0  0  0  0  0  0  0  0  0  0  0
   -4.3420   17.8997  -32.7615 H   0  0  0  0  0  0  0  0  0  0  0  0
   -2.8262   18.6965  -32.1244 H   0  0  0  0  0  0  0  0  0  0  0  0
   -0.7376   19.8091  -31.2777 H   0  0  0  0  0  0  0  0  0  0  0  0
    0.2329   22.2111  -30.0733 H   0  0  0  0  0  0  0  0  0  0  0  0
   -2.5230   26.0500  -28.9690 H   0  0  0  0  0  0  0  0  0  0  0  0
   -5.1586   22.1943  -30.9637 H   0  0  0  0  0  0  0  0  0  0  0  0
   -6.6781   21.3612  -31.5893 H   0  0  0  0  0  0  0  0  0  0  0  0
   -8.7249   20.2289  -32.4668 H   0  0  0  0  0  0  0  0  0  0  0  0
  1  2  1  0
  2  3  1  0
  2  4  1  0
  4  5  2  0
  4  6  1  0
  6  7  2  0
  7  8  1  0
  8  9  1  0
  9 10  2  0
 10 11  1  0
 11 12  2  0
 12 13  1  0
 13 14  2  0
 14 15  1  0
 15 16  1  0
 15 17  2  0
 14 18  1  0
 18 19  1  0
 19 20  2  0
 19 21  1  0
 18 22  1  0
 22 23  2  0
  8 24  2  0
 24 25  1  0
 25 26  2  0
 26  6  1  0
 23  9  1  0
 22 12  1  0
  1 27  1  0
  1 28  1  0
  1 29  1  0
  3 30  1  0
  3 31  1  0
  3 32  1  0
  7 33  1  0
 10 34  1  0
 11 35  1  0
 13 36  1  0
 16 37  1  0
 23 38  1  0
 24 39  1  0
 25 40  1  0
M  CHG  2  16  -1  21  -1
M  END
>  <UniqueID>  (47) 
46

>  <SMILES>  (47) 
CN(C)C(=O)c1cc(-c2ccc3cc(C([NH-])=O)n(C(=O)[O-])c3c2)ccn1

>  <Energy>  (47) 
89.67104114752529

>  <Genealogy>  (47) 
CN(C)C(=O)c1cc(-c2ccc3cc(C([NH-])=O)n(C(=O)[O-])c3c2)ccn1 (protonated)
CN(C)C(=O)c1cc(-c2ccc3cc(C([NH-])=O)n(C(=O)[O-])c3c2)ccn1 (3D coordinates assigned)
CN(C)C(=O)c1cc(-c2ccc3cc(C([NH-])=O)n(C(=O)[O-])c3c2)ccn1 (optimized conformer: 89.67104114752529 kcal/mol)

>  <smiles>  (47) 
CN(C)C(=O)c1cc(-c2ccc3cc(C(N)=O)n(C(=O)O)c3c2)ccn1

>  <score_type>  (47) 
oracle

>  <origin>  (47) 
adg

>  <m_score__min__energy>  (47) 
-11.9

>  <m_primary>  (47) 
energy

$$$$
47:0
     RDKit          3D

 34 35  0  0  0  0  0  0  0  0999 V2000
   -7.6310   19.8240  -32.3700 C   0  0  0  0  0  0  0  0  0  0  0  0
   -6.2460   19.3090  -32.7990 C   0  0  1  0  0  0  0  0  0  0  0  0
   -6.3950   18.0440  -33.6730 C   0  0  0  0  0  0  0  0  0  0  0  0
   -5.9740   18.3090  -34.9830 O   0  0  0  0  0  0  0  0  0  0  0  0
   -5.5140   20.3790  -33.5130 N   0  0  0  0  0  0  0  0  0  0  0  0
   -4.3510   20.8180  -32.7770 C   0  0  0  0  0  0  0  0  0  0  0  0
   -3.1530   20.0560  -32.8010 C   0  0  0  0  0  0  0  0  0  0  0  0
   -2.0190   20.4770  -32.0890 C   0  0  0  0  0  0  0  0  0  0  0  0
   -2.1090   21.6570  -31.3570 C   0  0  0  0  0  0  0  0  0  0  0  0
   -1.1590   22.3000  -30.5980 C   0  0  0  0  0  0  0  0  0  0  0  0
   -1.7920   23.4370  -30.1000 C   0  0  0  0  0  0  0  0  0  0  0  0
   -1.1520   24.3760  -29.1550 C   0  0  0  0  0  0  0  0  0  0  0  0
   -1.7150   25.6680  -28.9470 N   0  0  0  0  0  0  0  0  0  0  0  0
   -0.0900   24.0630  -28.5550 O   0  0  0  0  0  0  0  0  0  0  0  0
   -3.0810   23.4990  -30.5390 N   0  0  0  0  0  0  0  0  0  0  0  0
   -4.0390   24.5450  -30.3110 C   0  0  0  0  0  0  0  0  0  0  0  0
   -3.8840   25.6770  -30.8410 O   0  0  0  0  0  0  0  0  0  0  0  0
   -5.1320   24.3280  -29.4800 O   0  0  0  0  0  0  0  0  0  0  0  0
   -3.2600   22.3990  -31.3060 C   0  0  0  0  0  0  0  0  0  0  0  0
   -4.4000   22.0140  -32.0210 C   0  0  0  0  0  0  0  0  0  0  0  0
   -7.6900   19.8459  -31.2718 H   0  0  0  0  0  0  0  0  0  0  0  0
   -7.7835   20.8389  -32.7657 H   0  0  0  0  0  0  0  0  0  0  0  0
   -8.4096   19.1553  -32.7657 H   0  0  0  0  0  0  0  0  0  0  0  0
   -5.6642   19.0323  -31.9074 H   0  0  0  0  0  0  0  0  0  0  0  0
   -5.7803   17.2357  -33.2502 H   0  0  0  0  0  0  0  0  0  0  0  0
   -7.4525   17.7417  -33.6899 H   0  0  0  0  0  0  0  0  0  0  0  0
   -6.7910   18.5470  -35.4930 H   0  0  0  0  0  0  0  0  0  0  0  0
   -6.1400   21.2070  -33.6460 H   0  0  0  0  0  0  0  0  0  0  0  0
   -5.2380   20.0480  -34.4690 H   0  0  0  0  0  0  0  0  0  0  0  0
   -3.1132   19.1245  -33.3847 H   0  0  0  0  0  0  0  0  0  0  0  0
   -1.0876   19.8920  -32.1090 H   0  0  0  0  0  0  0  0  0  0  0  0
   -0.1203   21.9838  -30.4216 H   0  0  0  0  0  0  0  0  0  0  0  0
   -2.7460   25.8230  -29.0190 H   0  0  0  0  0  0  0  0  0  0  0  0
   -5.3132   22.6267  -31.9961 H   0  0  0  0  0  0  0  0  0  0  0  0
  1  2  1  0
  2  3  1  0
  3  4  1  0
  2  5  1  0
  5  6  1  0
  6  7  2  0
  7  8  1  0
  8  9  2  0
  9 10  1  0
 10 11  2  0
 11 12  1  0
 12 13  1  0
 12 14  2  0
 11 15  1  0
 15 16  1  0
 16 17  2  0
 16 18  1  0
 15 19  1  0
 19 20  2  0
 20  6  1  0
 19  9  1  0
  1 21  1  0
  1 22  1  0
  1 23  1  0
  2 24  1  1
  3 25  1  0
  3 26  1  0
  4 27  1  0
  5 28  1  0
  5 29  1  0
  7 30  1  0
  8 31  1  0
 10 32  1  0
 13 33  1  0
 20 34  1  0
M  CHG  3   5   1  13  -1  18  -1
M  END
>  <UniqueID>  (48) 
47

>  <SMILES>  (48) 
C[C@@H](CO)[NH2+]c1ccc2cc(C([NH-])=O)n(C(=O)[O-])c2c1

>  <Energy>  (48) 
72.12800626939868

>  <Genealogy>  (48) 
CC(CO)[NH2+]c1ccc2cc(C([NH-])=O)n(C(=O)[O-])c2c1 (protonated)
C[C@@H](CO)[NH2+]c1ccc2cc(C([NH-])=O)n(C(=O)[O-])c2c1 (chirality)
C[C@@H](CO)[NH2+]c1ccc2cc(C([NH-])=O)n(C(=O)[O-])c2c1 (3D coordinates assigned)
C[C@@H](CO)[NH2+]c1ccc2cc(C([NH-])=O)n(C(=O)[O-])c2c1 (optimized conformer: 72.12800626939868 kcal/mol)

>  <smiles>  (48) 
CC(CO)Nc1ccc2cc(C(N)=O)n(C(=O)O)c2c1

>  <score_type>  (48) 
oracle

>  <origin>  (48) 
adg

>  <m_score__min__energy>  (48) 
-9.6999999999999993

>  <m_primary>  (48) 
energy

$$$$
48:0
     RDKit          3D

 41 43  0  0  0  0  0  0  0  0999 V2000
    0.1000   22.7800  -24.0990 C   0  0  0  0  0  0  0  0  0  0  0  0
   -0.1650   22.6170  -25.2170 N   0  0  0  0  0  0  0  0  0  0  0  0
   -0.4960   22.4410  -26.5590 C   0  0  0  0  0  0  0  0  0  0  0  0
   -1.1940   23.4700  -27.1540 C   0  0  0  0  0  0  0  0  0  0  0  0
   -1.5470   23.3490  -28.4760 C   0  0  0  0  0  0  0  0  0  0  0  0
   -1.2230   22.2180  -29.2390 C   0  0  0  0  0  0  0  0  0  0  0  0
   -1.6540   22.2260  -30.6360 C   0  0  0  0  0  0  0  0  0  0  0  0
   -2.9620   22.8660  -30.8430 N   0  0  0  0  0  0  0  0  0  0  0  0
   -4.1810   22.1740  -30.7820 C   0  0  0  0  0  0  0  0  0  0  0  0
   -4.0610   20.9140  -30.5560 O   0  0  0  0  0  0  0  0  0  0  0  0
   -5.4810   22.6900  -30.9440 N   0  0  0  0  0  0  0  0  0  0  0  0
   -5.9510   23.9460  -30.9250 C   0  0  0  0  0  0  0  0  0  0  0  0
   -5.3460   25.1820  -30.4690 C   0  0  0  0  0  0  0  0  0  0  0  0
   -6.0510   25.9660  -29.4730 N   0  0  0  0  0  0  0  0  0  0  0  0
   -4.2610   25.6720  -30.8390 O   0  0  0  0  0  0  0  0  0  0  0  0
   -7.3080   23.9400  -31.3130 C   0  0  0  0  0  0  0  0  0  0  0  0
   -7.6490   22.6400  -31.5630 C   0  0  0  0  0  0  0  0  0  0  0  0
   -8.8570   22.1190  -31.9710 C   0  0  0  0  0  0  0  0  0  0  0  0
   -8.9800   20.7620  -32.1700 C   0  0  0  0  0  0  0  0  0  0  0  0
   -7.8750   19.9840  -31.9480 C   0  0  0  0  0  0  0  0  0  0  0  0
   -8.0200   18.5120  -32.1700 C   0  0  0  0  0  0  0  0  0  0  0  0
   -7.2610   17.8080  -31.2750 F   0  0  0  0  0  0  0  0  0  0  0  0
   -7.5960   18.1510  -33.4290 F   0  0  0  0  0  0  0  0  0  0  0  0
   -9.3440   18.1650  -31.9670 F   0  0  0  0  0  0  0  0  0  0  0  0
   -6.6590   20.5210  -31.5360 C   0  0  0  0  0  0  0  0  0  0  0  0
   -6.5230   21.8940  -31.3320 C   0  0  0  0  0  0  0  0  0  0  0  0
   -0.5340   21.2360  -28.5990 C   0  0  0  0  0  0  0  0  0  0  0  0
   -0.1590   21.3160  -27.2690 C   0  0  0  0  0  0  0  0  0  0  0  0
   -1.4630   24.3700  -26.5816 H   0  0  0  0  0  0  0  0  0  0  0  0
   -2.1039   24.1688  -28.9533 H   0  0  0  0  0  0  0  0  0  0  0  0
   -0.9031   22.7688  -31.2289 H   0  0  0  0  0  0  0  0  0  0  0  0
   -1.7542   21.1764  -30.9496 H   0  0  0  0  0  0  0  0  0  0  0  0
   -2.9220   23.8640  -31.0830 H   0  0  0  0  0  0  0  0  0  0  0  0
   -6.8860   26.5380  -29.7250 H   0  0  0  0  0  0  0  0  0  0  0  0
   -5.6430   25.8970  -28.5170 H   0  0  0  0  0  0  0  0  0  0  0  0
   -7.9672   24.8165  -31.3982 H   0  0  0  0  0  0  0  0  0  0  0  0
   -9.7182   22.7829  -32.1369 H   0  0  0  0  0  0  0  0  0  0  0  0
   -9.9324   20.3184  -32.4958 H   0  0  0  0  0  0  0  0  0  0  0  0
   -5.7979   19.8570  -31.3698 H   0  0  0  0  0  0  0  0  0  0  0  0
   -0.2612   20.3337  -29.1660 H   0  0  0  0  0  0  0  0  0  0  0  0
    0.3970   20.4957  -26.7916 H   0  0  0  0  0  0  0  0  0  0  0  0
  1  2  3  0
  2  3  1  0
  3  4  2  0
  4  5  1  0
  5  6  2  0
  6  7  1  0
  7  8  1  0
  8  9  1  0
  9 10  2  0
  9 11  1  0
 11 12  1  0
 12 13  1  0
 13 14  1  0
 13 15  2  0
 12 16  2  0
 16 17  1  0
 17 18  2  0
 18 19  1  0
 19 20  2  0
 20 21  1  0
 21 22  1  0
 21 23  1  0
 21 24  1  0
 20 25  1  0
 25 26  2  0
  6 27  1  0
 27 28  2  0
 28  3  1  0
 26 11  1  0
 26 17  1  0
  4 29  1  0
  5 30  1  0
  7 31  1  0
  7 32  1  0
  8 33  1  0
 14 34  1  0
 14 35  1  0
 16 36  1  0
 18 37  1  0
 19 38  1  0
 25 39  1  0
 27 40  1  0
 28 41  1  0
M  CHG  2   1  -1   2   1
M  END
>  <smiles>  (49) 
[C-]#[N+]c1ccc(CNC(=O)n2c(C(N)=O)cc3ccc(C(F)(F)F)cc32)cc1

>  <score_type>  (49) 
oracle

>  <origin>  (49) 
adg

>  <m_score__min__energy>  (49) 
-9.2400000000000002

>  <m_primary>  (49) 
energy

$$$$
49:0
     RDKit          3D

 37 38  0  0  0  0  0  0  0  0999 V2000
   -3.2460   19.2580  -33.8300 C   0  0  0  0  0  0  0  0  0  0  0  0
   -4.0300   17.6370  -34.0940 S   0  0  0  0  0  0  0  0  0  0  0  0
   -5.6800   18.3280  -34.2370 C   0  0  0  0  0  0  0  0  0  0  0  0
   -6.0450   18.7990  -35.3020 O   0  0  0  0  0  0  0  0  0  0  0  0
   -6.6110   18.3180  -33.0600 C   0  0  0  0  0  0  0  0  0  0  0  0
   -6.8890   19.7230  -32.6030 C   0  0  0  0  0  0  0  0  0  0  0  0
   -8.2230   20.1890  -32.5020 C   0  0  0  0  0  0  0  0  0  0  0  0
   -8.4950   21.4850  -32.0330 C   0  0  0  0  0  0  0  0  0  0  0  0
   -7.4170   22.2880  -31.6730 C   0  0  0  0  0  0  0  0  0  0  0  0
   -7.4000   23.5620  -31.1540 C   0  0  0  0  0  0  0  0  0  0  0  0
   -6.0530   23.8610  -30.9620 C   0  0  0  0  0  0  0  0  0  0  0  0
   -5.5730   25.1690  -30.4720 C   0  0  0  0  0  0  0  0  0  0  0  0
   -4.1930   25.5290  -30.5510 N   0  0  0  0  0  0  0  0  0  0  0  0
   -6.4030   26.0040  -30.0250 O   0  0  0  0  0  0  0  0  0  0  0  0
   -5.2680   22.8110  -31.3330 N   0  0  0  0  0  0  0  0  0  0  0  0
   -3.8440   22.6870  -31.1840 C   0  0  0  0  0  0  0  0  0  0  0  0
   -3.1420   22.3000  -32.1590 O   0  0  0  0  0  0  0  0  0  0  0  0
   -3.2410   22.9980  -29.9600 O   0  0  0  0  0  0  0  0  0  0  0  0
   -1.8310   22.9780  -29.7540 C   0  0  0  0  0  0  0  0  0  0  0  0
   -1.3500   24.3280  -29.3240 C   0  0  0  0  0  0  0  0  0  0  0  0
   -2.1420   25.3080  -29.3190 O   0  0  0  0  0  0  0  0  0  0  0  0
   -0.0400   24.4980  -28.8980 O   0  0  0  0  0  0  0  0  0  0  0  0
   -6.1190   21.8550  -31.7710 C   0  0  0  0  0  0  0  0  0  0  0  0
   -5.8200   20.5620  -32.2160 C   0  0  0  0  0  0  0  0  0  0  0  0
   -3.1535   19.4492  -32.7507 H   0  0  0  0  0  0  0  0  0  0  0  0
   -2.2467   19.2613  -34.2899 H   0  0  0  0  0  0  0  0  0  0  0  0
   -3.8638   20.0434  -34.2899 H   0  0  0  0  0  0  0  0  0  0  0  0
   -7.5568   17.8367  -33.3495 H   0  0  0  0  0  0  0  0  0  0  0  0
   -6.1410   17.7602  -32.2366 H   0  0  0  0  0  0  0  0  0  0  0  0
   -9.0538   19.5297  -32.7936 H   0  0  0  0  0  0  0  0  0  0  0  0
   -9.5283   21.8537  -31.9528 H   0  0  0  0  0  0  0  0  0  0  0  0
   -8.2647   24.2064  -30.9371 H   0  0  0  0  0  0  0  0  0  0  0  0
   -3.8660   26.4400  -30.1620 H   0  0  0  0  0  0  0  0  0  0  0  0
   -3.5100   24.9340  -31.0710 H   0  0  0  0  0  0  0  0  0  0  0  0
   -1.5886   22.2410  -28.9742 H   0  0  0  0  0  0  0  0  0  0  0  0
   -1.3353   22.7052  -30.6973 H   0  0  0  0  0  0  0  0  0  0  0  0
   -4.7795   20.2081  -32.2632 H   0  0  0  0  0  0  0  0  0  0  0  0
  1  2  1  0
  2  3  1  0
  3  4  2  0
  3  5  1  0
  5  6  1  0
  6  7  2  0
  7  8  1  0
  8  9  2  0
  9 10  1  0
 10 11  2  0
 11 12  1  0
 12 13  1  0
 12 14  2  0
 11 15  1  0
 15 16  1  0
 16 17  2  0
 16 18  1  0
 18 19  1  0
 19 20  1  0
 20 21  2  0
 20 22  1  0
 15 23  1  0
 23 24  2  0
 24  6  1  0
 23  9  1  0
  1 25  1  0
  1 26  1  0
  1 27  1  0
  5 28  1  0
  5 29  1  0
  7 30  1  0
  8 31  1  0
 10 32  1  0
 13 33  1  0
 13 34  1  0
 19 35  1  0
 19 36  1  0
 24 37  1  0
M  CHG  1  22  -1
M  END
>  <UniqueID>  (50) 
48

>  <SMILES>  (50) 
CSC(=O)Cc1ccc2cc(C(N)=O)n(C(=O)OCC(=O)[O-])c2c1

>  <Energy>  (50) 
67.671149899624

>  <Genealogy>  (50) 
CSC(=O)Cc1ccc2cc(C(N)=O)n(C(=O)OCC(=O)[O-])c2c1 (protonated)
CSC(=O)Cc1ccc2cc(C(N)=O)n(C(=O)OCC(=O)[O-])c2c1 (3D coordinates assigned)
CSC(=O)Cc1ccc2cc(C(N)=O)n(C(=O)OCC(=O)[O-])c2c1 (optimized conformer: 67.671149899624 kcal/mol)

>  <smiles>  (50) 
CSC(=O)Cc1ccc2cc(C(N)=O)n(C(=O)OCC(=O)O)c2c1

>  <score_type>  (50) 
oracle

>  <origin>  (50) 
adg

>  <m_score__min__energy>  (50) 
-10.630000000000001

>  <m_primary>  (50) 
energy

$$$$
50:0
     RDKit          3D

 37 38  0  0  0  0  0  0  0  0999 V2000
   -3.0200   18.3380  -34.1740 C   0  0  0  0  0  0  0  0  0  0  0  0
   -4.2270   18.3190  -33.3600 N   0  0  0  0  0  0  0  0  0  0  0  0
   -5.5350   18.3960  -33.9440 C   0  0  0  0  0  0  0  0  0  0  0  0
   -5.6670   18.4860  -35.1950 O   0  0  0  0  0  0  0  0  0  0  0  0
   -6.7500   18.4170  -33.0690 C   0  0  0  0  0  0  0  0  0  0  0  0
   -6.9310   19.7870  -32.4750 C   0  0  0  0  0  0  0  0  0  0  0  0
   -8.2270   20.3480  -32.3600 C   0  0  0  0  0  0  0  0  0  0  0  0
   -8.4060   21.6360  -31.8300 C   0  0  0  0  0  0  0  0  0  0  0  0
   -7.2720   22.3430  -31.4400 C   0  0  0  0  0  0  0  0  0  0  0  0
   -7.1590   23.5950  -30.8810 C   0  0  0  0  0  0  0  0  0  0  0  0
   -5.7920   23.7960  -30.6960 C   0  0  0  0  0  0  0  0  0  0  0  0
   -5.2150   25.0590  -30.1910 C   0  0  0  0  0  0  0  0  0  0  0  0
   -4.1000   25.6680  -30.8350 N   0  0  0  0  0  0  0  0  0  0  0  0
   -5.7440   25.6330  -29.2000 O   0  0  0  0  0  0  0  0  0  0  0  0
   -5.0890   22.7060  -31.1190 N   0  0  0  0  0  0  0  0  0  0  0  0
   -3.6720   22.4880  -31.0390 C   0  0  0  0  0  0  0  0  0  0  0  0
   -3.1750   21.4160  -31.4790 O   0  0  0  0  0  0  0  0  0  0  0  0
   -2.8260   23.4960  -30.4760 N   0  0  0  0  0  0  0  0  0  0  0  0
   -1.7700   23.2150  -29.5120 C   0  0  0  0  0  0  0  0  0  0  0  0
   -1.1970   24.4910  -28.9850 C   0  0  0  0  0  0  0  0  0  0  0  0
   -0.0020   24.5310  -28.5870 O   0  0  0  0  0  0  0  0  0  0  0  0
   -1.9660   25.6470  -28.9690 O   0  0  0  0  0  0  0  0  0  0  0  0
   -6.0090   21.8270  -31.5730 C   0  0  0  0  0  0  0  0  0  0  0  0
   -5.8030   20.5390  -32.0780 C   0  0  0  0  0  0  0  0  0  0  0  0
   -2.1363   18.3519  -33.5191 H   0  0  0  0  0  0  0  0  0  0  0  0
   -2.9918   17.4402  -34.8089 H   0  0  0  0  0  0  0  0  0  0  0  0
   -3.0200   19.2363  -34.8089 H   0  0  0  0  0  0  0  0  0  0  0  0
   -4.1330   18.2540  -32.3210 H   0  0  0  0  0  0  0  0  0  0  0  0
   -7.6356   18.1598  -33.6687 H   0  0  0  0  0  0  0  0  0  0  0  0
   -6.6241   17.6849  -32.2578 H   0  0  0  0  0  0  0  0  0  0  0  0
   -9.1021   19.7685  -32.6893 H   0  0  0  0  0  0  0  0  0  0  0  0
   -9.4104   22.0724  -31.7263 H   0  0  0  0  0  0  0  0  0  0  0  0
   -7.9745   24.2901  -30.6327 H   0  0  0  0  0  0  0  0  0  0  0  0
   -3.1320   25.2990  -30.6970 H   0  0  0  0  0  0  0  0  0  0  0  0
   -2.1862   22.6319  -28.6773 H   0  0  0  0  0  0  0  0  0  0  0  0
   -0.9731   22.6432  -30.0101 H   0  0  0  0  0  0  0  0  0  0  0  0
   -4.7886   20.1223  -32.1638 H   0  0  0  0  0  0  0  0  0  0  0  0
  1  2  1  0
  2  3  1  0
  3  4  2  0
  3  5  1  0
  5  6  1  0
  6  7  2  0
  7  8  1  0
  8  9  2  0
  9 10  1  0
 10 11  2  0
 11 12  1  0
 12 13  1  0
 12 14  2  0
 11 15  1  0
 15 16  1  0
 16 17  2  0
 16 18  1  0
 18 19  1  0
 19 20  1  0
 20 21  2  0
 20 22  1  0
 15 23  1  0
 23 24  2  0
 24  6  1  0
 23  9  1  0
  1 25  1  0
  1 26  1  0
  1 27  1  0
  2 28  1  0
  5 29  1  0
  5 30  1  0
  7 31  1  0
  8 32  1  0
 10 33  1  0
 13 34  1  0
 19 35  1  0
 19 36  1  0
 24 37  1  0
M  CHG  3  13  -1  18  -1  22  -1
M  END
>  <UniqueID>  (51) 
49

>  <SMILES>  (51) 
CNC(=O)Cc1ccc2cc(C([NH-])=O)n(C(=O)[N-]CC(=O)[O-])c2c1

>  <Energy>  (51) 
68.23426650118428

>  <Genealogy>  (51) 
CNC(=O)Cc1ccc2cc(C([NH-])=O)n(C(=O)[N-]CC(=O)[O-])c2c1 (protonated)
CNC(=O)Cc1ccc2cc(C([NH-])=O)n(C(=O)[N-]CC(=O)[O-])c2c1 (3D coordinates assigned)
CNC(=O)Cc1ccc2cc(C([NH-])=O)n(C(=O)[N-]CC(=O)[O-])c2c1 (optimized conformer: 68.23426650118428 kcal/mol)

>  <smiles>  (51) 
CNC(=O)Cc1ccc2cc(C(N)=O)n(C(=O)NCC(=O)O)c2c1

>  <score_type>  (51) 
oracle

>  <origin>  (51) 
adg

>  <m_score__min__energy>  (51) 
-12.93

>  <m_primary>  (51) 
energy

$$$$
51:0
     RDKit          3D

 39 40  0  0  0  0  0  0  0  0999 V2000
   -4.2260   23.9280  -27.1040 C   0  0  0  0  0  0  0  0  0  0  0  0
   -3.1050   24.4390  -27.9070 N   0  0  0  0  0  0  0  0  0  0  0  0
   -2.1670   25.1990  -27.0720 C   0  0  0  0  0  0  0  0  0  0  0  0
   -2.2830   23.1320  -28.7270 S   0  0  0  0  0  0  0  0  0  0  0  0
   -1.3930   22.4230  -27.7430 O   0  0  0  0  0  0  0  0  0  0  0  0
   -1.4160   23.7040  -29.8140 O   0  0  0  0  0  0  0  0  0  0  0  0
   -3.4220   21.9620  -29.4740 C   0  0  0  0  0  0  0  0  0  0  0  0
   -3.9190   22.4540  -30.8030 C   0  0  0  0  0  0  0  0  0  0  0  0
   -3.1430   22.4490  -31.7950 O   0  0  0  0  0  0  0  0  0  0  0  0
   -5.2870   22.8530  -30.9740 N   0  0  0  0  0  0  0  0  0  0  0  0
   -5.8390   24.0810  -30.7620 C   0  0  0  0  0  0  0  0  0  0  0  0
   -5.0920   25.3200  -30.4640 C   0  0  0  0  0  0  0  0  0  0  0  0
   -3.6670   25.2990  -30.4300 N   0  0  0  0  0  0  0  0  0  0  0  0
   -5.7010   26.3920  -30.2090 O   0  0  0  0  0  0  0  0  0  0  0  0
   -7.2200   24.0330  -30.9470 C   0  0  0  0  0  0  0  0  0  0  0  0
   -7.4960   22.7290  -31.2940 C   0  0  0  0  0  0  0  0  0  0  0  0
   -8.7090   22.1170  -31.5890 C   0  0  0  0  0  0  0  0  0  0  0  0
   -8.6970   20.7450  -31.8960 C   0  0  0  0  0  0  0  0  0  0  0  0
   -7.4840   20.0090  -31.8870 C   0  0  0  0  0  0  0  0  0  0  0  0
   -7.4920   18.5460  -32.2530 C   0  0  0  0  0  0  0  0  0  0  0  0
   -6.6760   17.8170  -31.4070 F   0  0  0  0  0  0  0  0  0  0  0  0
   -8.7760   18.0370  -32.1620 F   0  0  0  0  0  0  0  0  0  0  0  0
   -7.0400   18.4000  -33.5510 F   0  0  0  0  0  0  0  0  0  0  0  0
   -6.2680   20.6750  -31.6060 C   0  0  0  0  0  0  0  0  0  0  0  0
   -6.3120   22.0400  -31.3090 C   0  0  0  0  0  0  0  0  0  0  0  0
   -3.9902   24.0355  -26.0350 H   0  0  0  0  0  0  0  0  0  0  0  0
   -5.1357   24.5004  -27.3382 H   0  0  0  0  0  0  0  0  0  0  0  0
   -4.3906   22.8659  -27.3382 H   0  0  0  0  0  0  0  0  0  0  0  0
   -3.4900   25.0810  -28.6380 H   0  0  0  0  0  0  0  0  0  0  0  0
   -2.3911   25.0175  -26.0105 H   0  0  0  0  0  0  0  0  0  0  0  0
   -1.1381   24.8767  -27.2899 H   0  0  0  0  0  0  0  0  0  0  0  0
   -2.2689   26.2724  -27.2899 H   0  0  0  0  0  0  0  0  0  0  0  0
   -2.9053   21.0017  -29.6182 H   0  0  0  0  0  0  0  0  0  0  0  0
   -4.2859   21.8433  -28.8035 H   0  0  0  0  0  0  0  0  0  0  0  0
   -3.1310   24.5220  -30.8760 H   0  0  0  0  0  0  0  0  0  0  0  0
   -7.9367   24.8605  -30.8389 H   0  0  0  0  0  0  0  0  0  0  0  0
   -9.6489   22.6884  -31.5824 H   0  0  0  0  0  0  0  0  0  0  0  0
   -9.6395   20.2360  -32.1462 H   0  0  0  0  0  0  0  0  0  0  0  0
   -5.3115   20.1320  -31.6209 H   0  0  0  0  0  0  0  0  0  0  0  0
  1  2  1  0
  2  3  1  0
  2  4  1  0
  4  5  2  0
  4  6  2  0
  4  7  1  0
  7  8  1  0
  8  9  2  0
  8 10  1  0
 10 11  1  0
 11 12  1  0
 12 13  1  0
 12 14  2  0
 11 15  2  0
 15 16  1  0
 16 17  2  0
 17 18  1  0
 18 19  2  0
 19 20  1  0
 20 21  1  0
 20 22  1  0
 20 23  1  0
 19 24  1  0
 24 25  2  0
 25 10  1  0
 25 16  1  0
  1 26  1  0
  1 27  1  0
  1 28  1  0
  2 29  1  0
  3 30  1  0
  3 31  1  0
  3 32  1  0
  7 33  1  0
  7 34  1  0
 13 35  1  0
 15 36  1  0
 17 37  1  0
 18 38  1  0
 24 39  1  0
M  CHG  2   2   1  13  -1
M  END
>  <UniqueID>  (52) 
50

>  <SMILES>  (52) 
C[NH+](C)S(=O)(=O)CC(=O)n1c(C([NH-])=O)cc2ccc(C(F)(F)F)cc21

>  <Energy>  (52) 
71.0842101017172

>  <Genealogy>  (52) 
C[NH+](C)S(=O)(=O)CC(=O)n1c(C([NH-])=O)cc2ccc(C(F)(F)F)cc21 (protonated)
C[NH+](C)S(=O)(=O)CC(=O)n1c(C([NH-])=O)cc2ccc(C(F)(F)F)cc21 (3D coordinates assigned)
C[NH+](C)S(=O)(=O)CC(=O)n1c(C([NH-])=O)cc2ccc(C(F)(F)F)cc21 (optimized conformer: 71.0842101017172 kcal/mol)

>  <smiles>  (52) 
CN(C)S(=O)(=O)CC(=O)n1c(C(N)=O)cc2ccc(C(F)(F)F)cc21

>  <score_type>  (52) 
oracle

>  <origin>  (52) 
adg

>  <m_score__min__energy>  (52) 
-8.8399999999999999

>  <m_primary>  (52) 
energy

$$$$
52:0
     RDKit          3D

 39 40  0  0  0  0  0  0  0  0999 V2000
   -1.5300   22.7420  -27.1000 C   0  0  0  0  0  0  0  0  0  0  0  0
   -2.1480   23.5350  -28.2690 C   0  0  0  0  0  0  0  0  0  0  0  0
   -3.4830   24.1490  -27.7930 C   0  0  0  0  0  0  0  0  0  0  0  0
   -2.4130   22.5710  -29.4530 C   0  0  0  0  0  0  0  0  0  0  0  0
   -2.9020   23.2710  -30.5980 O   0  0  0  0  0  0  0  0  0  0  0  0
   -3.8250   22.7410  -31.5070 C   0  0  0  0  0  0  0  0  0  0  0  0
   -3.4310   22.0820  -32.5080 O   0  0  0  0  0  0  0  0  0  0  0  0
   -5.2320   22.9190  -31.2750 N   0  0  0  0  0  0  0  0  0  0  0  0
   -5.8820   24.0540  -30.8880 C   0  0  0  0  0  0  0  0  0  0  0  0
   -5.2480   25.3230  -30.4710 C   0  0  0  0  0  0  0  0  0  0  0  0
   -3.9160   25.6420  -30.8590 N   0  0  0  0  0  0  0  0  0  0  0  0
   -5.8770   26.1140  -29.7180 O   0  0  0  0  0  0  0  0  0  0  0  0
   -7.2590   23.8420  -30.8550 C   0  0  0  0  0  0  0  0  0  0  0  0
   -7.4350   22.5300  -31.2280 C   0  0  0  0  0  0  0  0  0  0  0  0
   -8.6050   21.7900  -31.3630 C   0  0  0  0  0  0  0  0  0  0  0  0
   -8.4950   20.4550  -31.7860 C   0  0  0  0  0  0  0  0  0  0  0  0
   -7.2280   19.8940  -32.0920 C   0  0  0  0  0  0  0  0  0  0  0  0
   -7.1190   18.4490  -32.5110 C   0  0  0  0  0  0  0  0  0  0  0  0
   -8.3470   17.8340  -32.3480 F   0  0  0  0  0  0  0  0  0  0  0  0
   -6.1780   17.7870  -31.7420 F   0  0  0  0  0  0  0  0  0  0  0  0
   -6.7390   18.3520  -33.8380 F   0  0  0  0  0  0  0  0  0  0  0  0
   -6.0610   20.6730  -31.9200 C   0  0  0  0  0  0  0  0  0  0  0  0
   -6.1980   21.9940  -31.4780 C   0  0  0  0  0  0  0  0  0  0  0  0
   -1.1800   24.6230  -28.6930 C   0  0  0  0  0  0  0  0  0  0  0  0
    0.0460   24.3630  -28.8200 O   0  0  0  0  0  0  0  0  0  0  0  0
   -1.6260   25.9120  -28.9640 O   0  0  0  0  0  0  0  0  0  0  0  0
   -1.8664   23.1736  -26.1458 H   0  0  0  0  0  0  0  0  0  0  0  0
   -1.8498   21.6912  -27.1601 H   0  0  0  0  0  0  0  0  0  0  0  0
   -0.4329   22.7954  -27.1601 H   0  0  0  0  0  0  0  0  0  0  0  0
   -3.5095   24.1612  -26.6934 H   0  0  0  0  0  0  0  0  0  0  0  0
   -3.5698   25.1775  -28.1733 H   0  0  0  0  0  0  0  0  0  0  0  0
   -4.3204   23.5455  -28.1733 H   0  0  0  0  0  0  0  0  0  0  0  0
   -1.4736   22.0638  -29.7182 H   0  0  0  0  0  0  0  0  0  0  0  0
   -3.1764   21.8429  -29.1413 H   0  0  0  0  0  0  0  0  0  0  0  0
   -3.0980   25.2950  -30.3120 H   0  0  0  0  0  0  0  0  0  0  0  0
   -8.0394   24.5696  -30.5874 H   0  0  0  0  0  0  0  0  0  0  0  0
   -9.5864   22.2365  -31.1452 H   0  0  0  0  0  0  0  0  0  0  0  0
   -9.4006   19.8379  -31.8810 H   0  0  0  0  0  0  0  0  0  0  0  0
   -5.0672   20.2504  -32.1289 H   0  0  0  0  0  0  0  0  0  0  0  0
  1  2  1  0
  2  3  1  0
  2  4  1  0
  4  5  1  0
  5  6  1  0
  6  7  2  0
  6  8  1  0
  8  9  1  0
  9 10  1  0
 10 11  1  0
 10 12  2  0
  9 13  2  0
 13 14  1  0
 14 15  2  0
 15 16  1  0
 16 17  2  0
 17 18  1  0
 18 19  1  0
 18 20  1  0
 18 21  1  0
 17 22  1  0
 22 23  2  0
  2 24  1  0
 24 25  2  0
 24 26  1  0
 23  8  1  0
 23 14  1  0
  1 27  1  0
  1 28  1  0
  1 29  1  0
  3 30  1  0
  3 31  1  0
  3 32  1  0
  4 33  1  0
  4 34  1  0
 11 35  1  0
 13 36  1  0
 15 37  1  0
 16 38  1  0
 22 39  1  0
M  CHG  2  11  -1  26  -1
M  END
>  <UniqueID>  (53) 
51

>  <SMILES>  (53) 
CC(C)(COC(=O)n1c(C([NH-])=O)cc2ccc(C(F)(F)F)cc21)C(=O)[O-]

>  <Energy>  (53) 
75.70492422611974

>  <Genealogy>  (53) 
CC(C)(COC(=O)n1c(C([NH-])=O)cc2ccc(C(F)(F)F)cc21)C(=O)[O-] (protonated)
CC(C)(COC(=O)n1c(C([NH-])=O)cc2ccc(C(F)(F)F)cc21)C(=O)[O-] (3D coordinates assigned)
CC(C)(COC(=O)n1c(C([NH-])=O)cc2ccc(C(F)(F)F)cc21)C(=O)[O-] (optimized conformer: 75.70492422611974 kcal/mol)

>  <smiles>  (53) 
CC(C)(COC(=O)n1c(C(N)=O)cc2ccc(C(F)(F)F)cc21)C(=O)O

>  <score_type>  (53) 
oracle

>  <origin>  (53) 
adg

>  <m_score__min__energy>  (53) 
-13.06

>  <m_primary>  (53) 
energy

$$$$
53:0
     RDKit          3D

 32 33  0  0  0  0  0  0  0  0999 V2000
   -4.0910   24.1890  -27.2630 C   0  0  0  0  0  0  0  0  0  0  0  0
   -3.0750   23.9490  -28.0960 C   0  0  0  0  0  0  0  0  0  0  0  0
   -3.0770   22.7440  -28.9920 C   0  0  0  0  0  0  0  0  0  0  0  0
   -2.8690   23.1270  -30.3500 O   0  0  0  0  0  0  0  0  0  0  0  0
   -3.7070   22.7310  -31.3980 C   0  0  0  0  0  0  0  0  0  0  0  0
   -3.2180   22.2570  -32.4600 O   0  0  0  0  0  0  0  0  0  0  0  0
   -5.1280   22.8880  -31.2720 N   0  0  0  0  0  0  0  0  0  0  0  0
   -5.8150   24.0210  -30.9480 C   0  0  0  0  0  0  0  0  0  0  0  0
   -5.2230   25.2920  -30.4840 C   0  0  0  0  0  0  0  0  0  0  0  0
   -3.8920   25.6540  -30.8420 N   0  0  0  0  0  0  0  0  0  0  0  0
   -5.8830   26.0460  -29.7210 O   0  0  0  0  0  0  0  0  0  0  0  0
   -7.1880   23.8010  -31.0350 C   0  0  0  0  0  0  0  0  0  0  0  0
   -7.3230   22.4860  -31.4160 C   0  0  0  0  0  0  0  0  0  0  0  0
   -8.4710   21.7450  -31.6780 C   0  0  0  0  0  0  0  0  0  0  0  0
   -8.3150   20.4130  -32.0970 C   0  0  0  0  0  0  0  0  0  0  0  0
   -7.0220   19.8440  -32.2390 C   0  0  0  0  0  0  0  0  0  0  0  0
   -6.8660   18.4340  -32.7510 C   0  0  0  0  0  0  0  0  0  0  0  0
   -8.0640   17.7460  -32.6600 F   0  0  0  0  0  0  0  0  0  0  0  0
   -6.4680   18.4730  -34.0740 F   0  0  0  0  0  0  0  0  0  0  0  0
   -5.9160   17.7490  -32.0140 F   0  0  0  0  0  0  0  0  0  0  0  0
   -5.8810   20.6390  -31.9880 C   0  0  0  0  0  0  0  0  0  0  0  0
   -6.0670   21.9570  -31.5530 C   0  0  0  0  0  0  0  0  0  0  0  0
   -4.0721   25.0769  -26.6140 H   0  0  0  0  0  0  0  0  0  0  0  0
   -4.9467   23.4987  -27.2260 H   0  0  0  0  0  0  0  0  0  0  0  0
   -2.2236   24.6448  -28.1262 H   0  0  0  0  0  0  0  0  0  0  0  0
   -2.2720   22.0616  -28.6816 H   0  0  0  0  0  0  0  0  0  0  0  0
   -4.0532   22.2435  -28.9106 H   0  0  0  0  0  0  0  0  0  0  0  0
   -3.0730   25.2880  -30.3070 H   0  0  0  0  0  0  0  0  0  0  0  0
   -7.9930   24.5249  -30.8404 H   0  0  0  0  0  0  0  0  0  0  0  0
   -9.4707   22.1886  -31.5606 H   0  0  0  0  0  0  0  0  0  0  0  0
   -9.2044   19.8044  -32.3174 H   0  0  0  0  0  0  0  0  0  0  0  0
   -4.8693   20.2316  -32.1311 H   0  0  0  0  0  0  0  0  0  0  0  0
  1  2  2  0
  2  3  1  0
  3  4  1  0
  4  5  1  0
  5  6  2  0
  5  7  1  0
  7  8  1  0
  8  9  1  0
  9 10  1  0
  9 11  2  0
  8 12  2  0
 12 13  1  0
 13 14  2  0
 14 15  1  0
 15 16  2  0
 16 17  1  0
 17 18  1  0
 17 19  1  0
 17 20  1  0
 16 21  1  0
 21 22  2  0
 22  7  1  0
 22 13  1  0
  1 23  1  0
  1 24  1  0
  2 25  1  0
  3 26  1  0
  3 27  1  0
 10 28  1  0
 12 29  1  0
 14 30  1  0
 15 31  1  0
 21 32  1  0
M  CHG  1  10  -1
M  END
>  <UniqueID>  (54) 
52

>  <SMILES>  (54) 
C=CCOC(=O)n1c(C([NH-])=O)cc2ccc(C(F)(F)F)cc21

>  <Energy>  (54) 
67.91940332645206

>  <Genealogy>  (54) 
C=CCOC(=O)n1c(C([NH-])=O)cc2ccc(C(F)(F)F)cc21 (protonated)
C=CCOC(=O)n1c(C([NH-])=O)cc2ccc(C(F)(F)F)cc21 (3D coordinates assigned)
C=CCOC(=O)n1c(C([NH-])=O)cc2ccc(C(F)(F)F)cc21 (optimized conformer: 67.91940332645206 kcal/mol)

>  <smiles>  (54) 
C=CCOC(=O)n1c(C(N)=O)cc2ccc(C(F)(F)F)cc21

>  <score_type>  (54) 
oracle

>  <origin>  (54) 
adg

>  <m_score__min__energy>  (54) 
-9.4499999999999993

>  <m_primary>  (54) 
energy

$$$$
54:0
     RDKit          3D

 49 51  0  0  0  0  0  0  0  0999 V2000
   -6.5470   14.6920  -34.2300 C   0  0  0  0  0  0  0  0  0  0  0  0
   -6.3170   16.1260  -34.1140 N   0  0  0  0  0  0  0  0  0  0  0  0
   -6.9060   16.9450  -33.2260 C   0  0  0  0  0  0  0  0  0  0  0  0
   -6.4780   18.2370  -33.4820 C   0  0  0  0  0  0  0  0  0  0  0  0
   -6.8640   19.4760  -32.7630 C   0  0  0  0  0  0  0  0  0  0  0  0
   -8.2330   19.8010  -32.5700 C   0  0  0  0  0  0  0  0  0  0  0  0
   -8.6070   20.9790  -31.9000 C   0  0  0  0  0  0  0  0  0  0  0  0
   -7.5980   21.8080  -31.4230 C   0  0  0  0  0  0  0  0  0  0  0  0
   -7.6810   23.0180  -30.7720 C   0  0  0  0  0  0  0  0  0  0  0  0
   -6.3610   23.4020  -30.5430 C   0  0  0  0  0  0  0  0  0  0  0  0
   -5.9840   24.6260  -29.8080 C   0  0  0  0  0  0  0  0  0  0  0  0
   -4.6810   24.7790  -29.2450 N   0  0  0  0  0  0  0  0  0  0  0  0
   -6.8380   25.5350  -29.6390 O   0  0  0  0  0  0  0  0  0  0  0  0
   -5.4960   22.4760  -31.0460 N   0  0  0  0  0  0  0  0  0  0  0  0
   -4.0620   22.5500  -31.0880 C   0  0  0  0  0  0  0  0  0  0  0  0
   -3.4940   23.6580  -31.3000 O   0  0  0  0  0  0  0  0  0  0  0  0
   -3.2990   21.3920  -30.8920 O   0  0  0  0  0  0  0  0  0  0  0  0
   -2.6740   21.0650  -29.6530 C   0  0  0  0  0  0  0  0  0  0  0  0
   -1.9940   22.2680  -29.0830 C   0  0  0  0  0  0  0  0  0  0  0  0
   -0.8960   22.6530  -29.5720 O   0  0  0  0  0  0  0  0  0  0  0  0
   -2.5680   22.9400  -28.0000 O   0  0  0  0  0  0  0  0  0  0  0  0
   -1.7960   23.4610  -26.9220 C   0  0  0  0  0  0  0  0  0  0  0  0
   -1.7350   24.9870  -27.0100 C   0  0  0  0  0  0  0  0  0  0  0  0
   -1.2650   25.4600  -28.3880 C   0  0  0  0  0  0  0  0  0  0  0  0
   -2.3000   25.2900  -29.3150 O   0  0  0  0  0  0  0  0  0  0  0  0
   -6.2700   21.5030  -31.5790 C   0  0  0  0  0  0  0  0  0  0  0  0
   -5.8680   20.3500  -32.2630 C   0  0  0  0  0  0  0  0  0  0  0  0
   -5.6220   18.1150  -34.5680 C   0  0  0  0  0  0  0  0  0  0  0  0
   -5.5460   16.8210  -34.9360 N   0  0  0  0  0  0  0  0  0  0  0  0
   -6.6180   14.2496  -33.2254 H   0  0  0  0  0  0  0  0  0  0  0  0
   -7.4852   14.5141  -34.7761 H   0  0  0  0  0  0  0  0  0  0  0  0
   -5.7115   14.2296  -34.7761 H   0  0  0  0  0  0  0  0  0  0  0  0
   -7.6062   16.6419  -32.4337 H   0  0  0  0  0  0  0  0  0  0  0  0
   -9.0108   19.1222  -32.9497 H   0  0  0  0  0  0  0  0  0  0  0  0
   -9.6667   21.2372  -31.7574 H   0  0  0  0  0  0  0  0  0  0  0  0
   -8.5937   23.5647  -30.4924 H   0  0  0  0  0  0  0  0  0  0  0  0
   -4.4150   25.6710  -28.7700 H   0  0  0  0  0  0  0  0  0  0  0  0
   -4.0050   23.9830  -29.2240 H   0  0  0  0  0  0  0  0  0  0  0  0
   -3.4365   20.7091  -28.9445 H   0  0  0  0  0  0  0  0  0  0  0  0
   -1.9249   20.2783  -29.8261 H   0  0  0  0  0  0  0  0  0  0  0  0
   -2.2597   23.1696  -25.9680 H   0  0  0  0  0  0  0  0  0  0  0  0
   -0.7752   23.0554  -26.9806 H   0  0  0  0  0  0  0  0  0  0  0  0
   -2.7381   25.3949  -26.8169 H   0  0  0  0  0  0  0  0  0  0  0  0
   -1.0117   25.3434  -26.2618 H   0  0  0  0  0  0  0  0  0  0  0  0
   -0.9891   26.5236  -28.3367 H   0  0  0  0  0  0  0  0  0  0  0  0
   -0.3906   24.8704  -28.7007 H   0  0  0  0  0  0  0  0  0  0  0  0
   -2.2350   24.3520  -29.6310 H   0  0  0  0  0  0  0  0  0  0  0  0
   -4.8008   20.1273  -32.4092 H   0  0  0  0  0  0  0  0  0  0  0  0
   -5.0885   18.9458  -35.0529 H   0  0  0  0  0  0  0  0  0  0  0  0
  1  2  1  0
  2  3  1  0
  3  4  2  0
  4  5  1  0
  5  6  2  0
  6  7  1  0
  7  8  2  0
  8  9  1  0
  9 10  2  0
 10 11  1  0
 11 12  1  0
 11 13  2  0
 10 14  1  0
 14 15  1  0
 15 16  2  0
 15 17  1  0
 17 18  1  0
 18 19  1  0
 19 20  2  0
 19 21  1  0
 21 22  1  0
 22 23  1  0
 23 24  1  0
 24 25  1  0
 14 26  1  0
 26 27  2  0
  4 28  1  0
 28 29  2  0
 29  2  1  0
 27  5  1  0
 26  8  1  0
  1 30  1  0
  1 31  1  0
  1 32  1  0
  3 33  1  0
  6 34  1  0
  7 35  1  0
  9 36  1  0
 12 37  1  0
 12 38  1  0
 18 39  1  0
 18 40  1  0
 22 41  1  0
 22 42  1  0
 23 43  1  0
 23 44  1  0
 24 45  1  0
 24 46  1  0
 25 47  1  0
 27 48  1  0
 28 49  1  0
M  END
>  <UniqueID>  (55) 
53

>  <SMILES>  (55) 
Cn1cc(-c2ccc3cc(C(N)=O)n(C(=O)OCC(=O)OCCCO)c3c2)cn1

>  <Energy>  (55) 
111.24909460724004

>  <Genealogy>  (55) 
Cn1cc(-c2ccc3cc(C(N)=O)n(C(=O)OCC(=O)OCCCO)c3c2)cn1 (3D coordinates assigned)
Cn1cc(-c2ccc3cc(C(N)=O)n(C(=O)OCC(=O)OCCCO)c3c2)cn1 (optimized conformer: 111.24909460724004 kcal/mol)

>  <smiles>  (55) 
Cn1cc(-c2ccc3cc(C(N)=O)n(C(=O)OCC(=O)OCCCO)c3c2)cn1

>  <score_type>  (55) 
oracle

>  <origin>  (55) 
adg

>  <m_score__min__energy>  (55) 
-9.4399999999999995

>  <m_primary>  (55) 
energy

$$$$
55:0
     RDKit          3D

 50 52  0  0  0  0  0  0  0  0999 V2000
   -5.2710   24.9420  -28.8440 N   0  0  0  0  0  0  0  0  0  0  0  0
   -5.2150   24.5670  -30.2210 C   0  0  0  0  0  0  0  0  0  0  0  0
   -4.3840   25.1350  -30.9770 O   0  0  0  0  0  0  0  0  0  0  0  0
   -6.0920   23.5000  -30.7500 C   0  0  0  0  0  0  0  0  0  0  0  0
   -7.4070   23.7090  -31.1630 C   0  0  0  0  0  0  0  0  0  0  0  0
   -7.8890   22.4640  -31.4920 C   0  0  0  0  0  0  0  0  0  0  0  0
   -9.1380   22.0910  -31.9810 C   0  0  0  0  0  0  0  0  0  0  0  0
   -9.3550   20.7320  -32.2630 C   0  0  0  0  0  0  0  0  0  0  0  0
   -8.3280   19.7790  -32.0560 C   0  0  0  0  0  0  0  0  0  0  0  0
   -8.5880   18.3200  -32.3310 C   0  0  0  0  0  0  0  0  0  0  0  0
   -7.2840   17.5490  -32.5790 C   0  0  0  0  0  0  0  0  0  0  0  0
   -6.5350   18.1350  -33.6300 O   0  0  0  0  0  0  0  0  0  0  0  0
   -6.1000   17.1640  -34.5690 C   0  0  0  0  0  0  0  0  0  0  0  0
   -4.6670   17.5080  -34.9930 C   0  0  0  0  0  0  0  0  0  0  0  0
   -3.6740   17.3490  -33.8170 C   0  0  0  0  0  0  0  0  0  0  0  0
   -4.2180   16.6440  -32.7120 O   0  0  0  0  0  0  0  0  0  0  0  0
   -4.8370   15.4520  -33.1510 C   0  0  0  0  0  0  0  0  0  0  0  0
   -6.1300   15.7580  -33.9300 C   0  0  0  0  0  0  0  0  0  0  0  0
   -7.0700   20.1960  -31.5620 C   0  0  0  0  0  0  0  0  0  0  0  0
   -6.8870   21.5530  -31.2760 C   0  0  0  0  0  0  0  0  0  0  0  0
   -5.7750   22.1750  -30.8240 N   0  0  0  0  0  0  0  0  0  0  0  0
   -4.4940   21.5700  -30.5770 C   0  0  0  0  0  0  0  0  0  0  0  0
   -3.6350   22.1750  -29.8800 O   0  0  0  0  0  0  0  0  0  0  0  0
   -4.1960   20.3170  -31.1250 O   0  0  0  0  0  0  0  0  0  0  0  0
   -3.1480   20.1260  -32.0710 C   0  0  0  0  0  0  0  0  0  0  0  0
   -3.5250   20.7650  -33.4000 C   0  0  0  0  0  0  0  0  0  0  0  0
   -3.5040   22.1430  -33.2810 F   0  0  0  0  0  0  0  0  0  0  0  0
   -4.7910   20.3550  -33.7760 F   0  0  0  0  0  0  0  0  0  0  0  0
   -2.6190   20.3820  -34.3710 F   0  0  0  0  0  0  0  0  0  0  0  0
   -5.9830   24.5340  -28.1990 H   0  0  0  0  0  0  0  0  0  0  0  0
   -4.6210   25.6690  -28.4720 H   0  0  0  0  0  0  0  0  0  0  0  0
   -7.9450   24.6670  -31.2147 H   0  0  0  0  0  0  0  0  0  0  0  0
   -9.9302   22.8371  -32.1415 H   0  0  0  0  0  0  0  0  0  0  0  0
  -10.3320   20.4049  -32.6483 H   0  0  0  0  0  0  0  0  0  0  0  0
   -9.1032   17.8800  -31.4644 H   0  0  0  0  0  0  0  0  0  0  0  0
   -9.2080   18.2464  -33.2367 H   0  0  0  0  0  0  0  0  0  0  0  0
   -6.6806   17.5590  -31.6593 H   0  0  0  0  0  0  0  0  0  0  0  0
   -7.5377   16.5175  -32.8647 H   0  0  0  0  0  0  0  0  0  0  0  0
   -6.7665   17.1658  -35.4441 H   0  0  0  0  0  0  0  0  0  0  0  0
   -4.3647   16.8357  -35.8095 H   0  0  0  0  0  0  0  0  0  0  0  0
   -4.6470   18.5574  -35.3221 H   0  0  0  0  0  0  0  0  0  0  0  0
   -2.7901   16.8028  -34.1783 H   0  0  0  0  0  0  0  0  0  0  0  0
   -3.4224   18.3604  -33.4652 H   0  0  0  0  0  0  0  0  0  0  0  0
   -4.1425   14.9059  -33.8064 H   0  0  0  0  0  0  0  0  0  0  0  0
   -5.0930   14.8444  -32.2705 H   0  0  0  0  0  0  0  0  0  0  0  0
   -6.2512   15.0084  -34.7259 H   0  0  0  0  0  0  0  0  0  0  0  0
   -6.9705   15.7242  -33.2212 H   0  0  0  0  0  0  0  0  0  0  0  0
   -6.2566   19.4719  -31.4067 H   0  0  0  0  0  0  0  0  0  0  0  0
   -2.2257   20.5904  -31.6919 H   0  0  0  0  0  0  0  0  0  0  0  0
   -2.9880   19.0480  -32.2206 H   0  0  0  0  0  0  0  0  0  0  0  0
  1  2  1  0
  2  3  2  0
  2  4  1  0
  4  5  2  0
  5  6  1  0
  6  7  2  0
  7  8  1  0
  8  9  2  0
  9 10  1  0
 10 11  1  0
 11 12  1  0
 12 13  1  0
 13 14  1  0
 14 15  1  0
 15 16  1  0
 16 17  1  0
 17 18  1  0
  9 19  1  0
 19 20  2  0
 20 21  1  0
 21 22  1  0
 22 23  2  0
 22 24  1  0
 24 25  1  0
 25 26  1  0
 26 27  1  0
 26 28  1  0
 26 29  1  0
 21  4  1  0
 20  6  1  0
 18 13  1  0
  1 30  1  0
  1 31  1  0
  5 32  1  0
  7 33  1  0
  8 34  1  0
 10 35  1  0
 10 36  1  0
 11 37  1  0
 11 38  1  0
 13 39  1  0
 14 40  1  0
 14 41  1  0
 15 42  1  0
 15 43  1  0
 17 44  1  0
 17 45  1  0
 18 46  1  0
 18 47  1  0
 19 48  1  0
 25 49  1  0
 25 50  1  0
M  END
>  <UniqueID>  (56) 
54

>  <SMILES>  (56) 
NC(=O)c1cc2ccc(CCOC3CCOCC3)cc2n1C(=O)OCC(F)(F)F

>  <Energy>  (56) 
89.77460878072111

>  <Genealogy>  (56) 
NC(=O)c1cc2ccc(CCOC3CCOCC3)cc2n1C(=O)OCC(F)(F)F (3D coordinates assigned)
NC(=O)c1cc2ccc(CCOC3CCOCC3)cc2n1C(=O)OCC(F)(F)F (nonaromatic ring conformer: 89.77460878072111 kcal/mol)

>  <smiles>  (56) 
NC(=O)c1cc2ccc(CCOC3CCOCC3)cc2n1C(=O)OCC(F)(F)F

>  <score_type>  (56) 
oracle

>  <origin>  (56) 
adg

>  <m_score__min__energy>  (56) 
-8.6799999999999997

>  <m_primary>  (56) 
energy

$$$$
56:0
     RDKit          3D

 38 39  0  0  0  0  0  0  0  0999 V2000
   -3.8970   22.5270  -28.5700 C   0  0  0  0  0  0  0  0  0  0  0  0
   -3.1520   22.6950  -29.8920 C   0  0  0  0  0  0  0  0  0  0  0  0
   -4.0150   22.3310  -31.0680 C   0  0  0  0  0  0  0  0  0  0  0  0
   -3.4970   21.7760  -32.0740 O   0  0  0  0  0  0  0  0  0  0  0  0
   -5.4040   22.6920  -31.0930 N   0  0  0  0  0  0  0  0  0  0  0  0
   -5.9450   23.9240  -30.8720 C   0  0  0  0  0  0  0  0  0  0  0  0
   -5.2000   25.1330  -30.4630 C   0  0  0  0  0  0  0  0  0  0  0  0
   -3.8550   25.3210  -30.8970 N   0  0  0  0  0  0  0  0  0  0  0  0
   -5.7450   26.0160  -29.7500 O   0  0  0  0  0  0  0  0  0  0  0  0
   -7.3290   23.8850  -31.0300 C   0  0  0  0  0  0  0  0  0  0  0  0
   -7.6220   22.5810  -31.3590 C   0  0  0  0  0  0  0  0  0  0  0  0
   -8.8470   21.9800  -31.6330 C   0  0  0  0  0  0  0  0  0  0  0  0
   -8.8510   20.6140  -31.9650 C   0  0  0  0  0  0  0  0  0  0  0  0
   -7.6370   19.8850  -32.0340 C   0  0  0  0  0  0  0  0  0  0  0  0
   -7.6540   18.4180  -32.3650 C   0  0  0  0  0  0  0  0  0  0  0  0
   -6.2300   17.9020  -32.5810 C   0  0  0  0  0  0  0  0  0  0  0  0
   -5.4620   18.7150  -33.9730 S   0  0  0  0  0  0  0  0  0  0  0  0
   -4.1100   19.6420  -33.4240 N   0  0  0  0  0  0  0  0  0  0  0  0
   -6.4530   19.6290  -34.6370 O   0  0  0  0  0  0  0  0  0  0  0  0
   -4.9900   17.6880  -34.9640 O   0  0  0  0  0  0  0  0  0  0  0  0
   -6.4140   20.5290  -31.7390 C   0  0  0  0  0  0  0  0  0  0  0  0
   -6.4440   21.8820  -31.3930 C   0  0  0  0  0  0  0  0  0  0  0  0
   -3.1999   22.6842  -27.7337 H   0  0  0  0  0  0  0  0  0  0  0  0
   -4.7115   23.2640  -28.5119 H   0  0  0  0  0  0  0  0  0  0  0  0
   -4.3164   21.5117  -28.5119 H   0  0  0  0  0  0  0  0  0  0  0  0
   -2.8368   23.7441  -29.9925 H   0  0  0  0  0  0  0  0  0  0  0  0
   -2.2829   22.0208  -29.8834 H   0  0  0  0  0  0  0  0  0  0  0  0
   -3.0610   25.2690  -30.2220 H   0  0  0  0  0  0  0  0  0  0  0  0
   -8.0369   24.7192  -30.9160 H   0  0  0  0  0  0  0  0  0  0  0  0
   -9.7832   22.5561  -31.5911 H   0  0  0  0  0  0  0  0  0  0  0  0
   -9.8044   20.1063  -32.1731 H   0  0  0  0  0  0  0  0  0  0  0  0
   -8.1177   17.8648  -31.5350 H   0  0  0  0  0  0  0  0  0  0  0  0
   -8.2312   18.2680  -33.2893 H   0  0  0  0  0  0  0  0  0  0  0  0
   -5.6351   18.0974  -31.6766 H   0  0  0  0  0  0  0  0  0  0  0  0
   -6.2747   16.8221  -32.7855 H   0  0  0  0  0  0  0  0  0  0  0  0
   -4.1800   19.6980  -32.3840 H   0  0  0  0  0  0  0  0  0  0  0  0
   -4.2370   20.6130  -33.7880 H   0  0  0  0  0  0  0  0  0  0  0  0
   -5.4625   19.9786  -31.7808 H   0  0  0  0  0  0  0  0  0  0  0  0
  1  2  1  0
  2  3  1  0
  3  4  2  0
  3  5  1  0
  5  6  1  0
  6  7  1  0
  7  8  1  0
  7  9  2  0
  6 10  2  0
 10 11  1  0
 11 12  2  0
 12 13  1  0
 13 14  2  0
 14 15  1  0
 15 16  1  0
 16 17  1  0
 17 18  1  0
 17 19  2  0
 17 20  2  0
 14 21  1  0
 21 22  2  0
 22  5  1  0
 22 11  1  0
  1 23  1  0
  1 24  1  0
  1 25  1  0
  2 26  1  0
  2 27  1  0
  8 28  1  0
 10 29  1  0
 12 30  1  0
 13 31  1  0
 15 32  1  0
 15 33  1  0
 16 34  1  0
 16 35  1  0
 18 36  1  0
 18 37  1  0
 21 38  1  0
M  CHG  1   8  -1
M  END
>  <UniqueID>  (57) 
55

>  <SMILES>  (57) 
CCC(=O)n1c(C([NH-])=O)cc2ccc(CCS(N)(=O)=O)cc21

>  <Energy>  (57) 
65.26286964155946

>  <Genealogy>  (57) 
CCC(=O)n1c(C([NH-])=O)cc2ccc(CCS(N)(=O)=O)cc21 (protonated)
CCC(=O)n1c(C([NH-])=O)cc2ccc(CCS(N)(=O)=O)cc21 (3D coordinates assigned)
CCC(=O)n1c(C([NH-])=O)cc2ccc(CCS(N)(=O)=O)cc21 (optimized conformer: 65.26286964155946 kcal/mol)

>  <smiles>  (57) 
CCC(=O)n1c(C(N)=O)cc2ccc(CCS(N)(=O)=O)cc21

>  <score_type>  (57) 
oracle

>  <origin>  (57) 
adg

>  <m_score__min__energy>  (57) 
-11

>  <m_primary>  (57) 
energy

$$$$
57:0
     RDKit          3D

 53 54  0  0  0  0  0  0  0  0999 V2000
   -2.1590   24.5280  -27.1530 C   0  0  0  0  0  0  0  0  0  0  0  0
   -2.0540   24.2780  -28.5500 O   0  0  0  0  0  0  0  0  0  0  0  0
   -0.9980   23.5510  -29.1110 C   0  0  0  0  0  0  0  0  0  0  0  0
    0.1820   23.9900  -29.0300 O   0  0  0  0  0  0  0  0  0  0  0  0
   -1.2580   22.3060  -29.7880 N   0  0  0  0  0  0  0  0  0  0  0  0
   -1.0020   21.0410  -29.0950 C   0  0  0  0  0  0  0  0  0  0  0  0
   -1.7670   22.2890  -31.1680 C   0  0  0  0  0  0  0  0  0  0  0  0
   -2.9530   21.3240  -31.3230 C   0  0  0  0  0  0  0  0  0  0  0  0
   -4.1010   21.6450  -30.4030 C   0  0  0  0  0  0  0  0  0  0  0  0
   -3.9210   21.6300  -29.1560 O   0  0  0  0  0  0  0  0  0  0  0  0
   -5.3580   22.1070  -30.9270 N   0  0  0  0  0  0  0  0  0  0  0  0
   -5.8290   23.3850  -30.9190 C   0  0  0  0  0  0  0  0  0  0  0  0
   -5.0810   24.5800  -30.4770 C   0  0  0  0  0  0  0  0  0  0  0  0
   -4.3440   24.5850  -29.2530 N   0  0  0  0  0  0  0  0  0  0  0  0
   -5.0530   25.5990  -31.2160 O   0  0  0  0  0  0  0  0  0  0  0  0
   -7.1310   23.4330  -31.4120 C   0  0  0  0  0  0  0  0  0  0  0  0
   -7.4460   22.1340  -31.7330 C   0  0  0  0  0  0  0  0  0  0  0  0
   -8.6210   21.6000  -32.2540 C   0  0  0  0  0  0  0  0  0  0  0  0
   -8.6820   20.2120  -32.4560 C   0  0  0  0  0  0  0  0  0  0  0  0
   -7.5790   19.3860  -32.1250 C   0  0  0  0  0  0  0  0  0  0  0  0
   -7.6570   17.8970  -32.3390 C   0  0  0  0  0  0  0  0  0  0  0  0
   -6.7710   17.3940  -33.5030 C   0  0  0  0  0  0  0  0  0  0  0  0
   -5.3110   17.5850  -33.3330 N   0  0  0  0  0  0  0  0  0  0  0  0
   -4.7350   18.6070  -34.2190 C   0  0  0  0  0  0  0  0  0  0  0  0
   -4.5340   16.3360  -33.3620 C   0  0  0  0  0  0  0  0  0  0  0  0
   -6.4120   19.9620  -31.5780 C   0  0  0  0  0  0  0  0  0  0  0  0
   -6.3640   21.3500  -31.4220 C   0  0  0  0  0  0  0  0  0  0  0  0
   -1.7918   23.6538  -26.5954 H   0  0  0  0  0  0  0  0  0  0  0  0
   -1.5551   25.4095  -26.8919 H   0  0  0  0  0  0  0  0  0  0  0  0
   -3.2112   24.7140  -26.8919 H   0  0  0  0  0  0  0  0  0  0  0  0
   -1.0352   21.2052  -28.0078 H   0  0  0  0  0  0  0  0  0  0  0  0
   -1.7696   20.3058  -29.3784 H   0  0  0  0  0  0  0  0  0  0  0  0
   -0.0090   20.6621  -29.3784 H   0  0  0  0  0  0  0  0  0  0  0  0
   -2.0945   23.3033  -31.4400 H   0  0  0  0  0  0  0  0  0  0  0  0
   -0.9569   21.9466  -31.8287 H   0  0  0  0  0  0  0  0  0  0  0  0
   -3.3121   21.3749  -32.3615 H   0  0  0  0  0  0  0  0  0  0  0  0
   -2.5936   20.3183  -31.0598 H   0  0  0  0  0  0  0  0  0  0  0  0
   -3.8690   25.4570  -28.9330 H   0  0  0  0  0  0  0  0  0  0  0  0
   -4.1840   23.7060  -28.7140 H   0  0  0  0  0  0  0  0  0  0  0  0
   -7.7707   24.3211  -31.5212 H   0  0  0  0  0  0  0  0  0  0  0  0
   -9.4764   22.2463  -32.5002 H   0  0  0  0  0  0  0  0  0  0  0  0
   -9.5940   19.7616  -32.8749 H   0  0  0  0  0  0  0  0  0  0  0  0
   -7.3355   17.3950  -31.4145 H   0  0  0  0  0  0  0  0  0  0  0  0
   -8.6992   17.6617  -32.6005 H   0  0  0  0  0  0  0  0  0  0  0  0
   -6.9580   16.3173  -33.6282 H   0  0  0  0  0  0  0  0  0  0  0  0
   -7.0517   18.0020  -34.3757 H   0  0  0  0  0  0  0  0  0  0  0  0
   -4.2845   19.4064  -33.6124 H   0  0  0  0  0  0  0  0  0  0  0  0
   -3.9623   18.1487  -34.8538 H   0  0  0  0  0  0  0  0  0  0  0  0
   -5.5272   19.0306  -34.8538 H   0  0  0  0  0  0  0  0  0  0  0  0
   -4.3296   16.0074  -32.3323 H   0  0  0  0  0  0  0  0  0  0  0  0
   -5.1084   15.5590  -33.8877 H   0  0  0  0  0  0  0  0  0  0  0  0
   -3.5831   16.5078  -33.8877 H   0  0  0  0  0  0  0  0  0  0  0  0
   -5.5599   19.3327  -31.2813 H   0  0  0  0  0  0  0  0  0  0  0  0
  1  2  1  0
  2  3  1  0
  3  4  2  0
  3  5  1  0
  5  6  1  0
  5  7  1  0
  7  8  1  0
  8  9  1  0
  9 10  2  0
  9 11  1  0
 11 12  1  0
 12 13  1  0
 13 14  1  0
 13 15  2  0
 12 16  2  0
 16 17  1  0
 17 18  2  0
 18 19  1  0
 19 20  2  0
 20 21  1  0
 21 22  1  0
 22 23  1  0
 23 24  1  0
 23 25  1  0
 20 26  1  0
 26 27  2  0
 27 11  1  0
 27 17  1  0
  1 28  1  0
  1 29  1  0
  1 30  1  0
  6 31  1  0
  6 32  1  0
  6 33  1  0
  7 34  1  0
  7 35  1  0
  8 36  1  0
  8 37  1  0
 14 38  1  0
 14 39  1  0
 16 40  1  0
 18 41  1  0
 19 42  1  0
 21 43  1  0
 21 44  1  0
 22 45  1  0
 22 46  1  0
 24 47  1  0
 24 48  1  0
 24 49  1  0
 25 50  1  0
 25 51  1  0
 25 52  1  0
 26 53  1  0
M  END
>  <UniqueID>  (58) 
56

>  <SMILES>  (58) 
COC(=O)N(C)CCC(=O)n1c(C(N)=O)cc2ccc(CCN(C)C)cc21

>  <Energy>  (58) 
88.36110280038955

>  <Genealogy>  (58) 
COC(=O)N(C)CCC(=O)n1c(C(N)=O)cc2ccc(CCN(C)C)cc21 (3D coordinates assigned)
COC(=O)N(C)CCC(=O)n1c(C(N)=O)cc2ccc(CCN(C)C)cc21 (optimized conformer: 88.36110280038955 kcal/mol)

>  <smiles>  (58) 
COC(=O)N(C)CCC(=O)n1c(C(N)=O)cc2ccc(CCN(C)C)cc21

>  <score_type>  (58) 
oracle

>  <origin>  (58) 
adg

>  <m_score__min__energy>  (58) 
-9.9299999999999997

>  <m_primary>  (58) 
energy

$$$$
58:0
     RDKit          3D

 37 39  0  0  0  0  0  0  0  0999 V2000
   -3.8710   25.6690  -30.8350 N   0  0  0  0  0  0  0  0  0  0  0  0
   -5.1810   25.2770  -30.4340 C   0  0  0  0  0  0  0  0  0  0  0  0
   -5.8570   26.0460  -29.6980 O   0  0  0  0  0  0  0  0  0  0  0  0
   -5.7690   24.0030  -30.8970 C   0  0  0  0  0  0  0  0  0  0  0  0
   -7.1380   23.8010  -31.0730 C   0  0  0  0  0  0  0  0  0  0  0  0
   -7.2560   22.5250  -31.5810 C   0  0  0  0  0  0  0  0  0  0  0  0
   -8.3900   21.8000  -31.9360 C   0  0  0  0  0  0  0  0  0  0  0  0
   -8.2090   20.4900  -32.4140 C   0  0  0  0  0  0  0  0  0  0  0  0
   -6.9110   19.9370  -32.5220 C   0  0  0  0  0  0  0  0  0  0  0  0
   -6.7420   18.6020  -33.0020 N   0  0  0  0  0  0  0  0  0  0  0  0
   -6.0470   17.9220  -34.1130 C   0  0  0  0  0  0  0  0  0  0  0  0
   -6.4820   16.5360  -33.7440 C   0  0  0  0  0  0  0  0  0  0  0  0
   -5.3500   15.5880  -33.3100 C   0  0  0  0  0  0  0  0  0  0  0  0
   -5.0320   15.7480  -31.9520 O   0  0  0  0  0  0  0  0  0  0  0  0
   -7.1850   17.2460  -32.6260 C   0  0  0  0  0  0  0  0  0  0  0  0
   -5.7850   20.6990  -32.1550 C   0  0  0  0  0  0  0  0  0  0  0  0
   -5.9950   22.0030  -31.6930 C   0  0  0  0  0  0  0  0  0  0  0  0
   -5.0740   22.8950  -31.2740 N   0  0  0  0  0  0  0  0  0  0  0  0
   -3.6610   22.6620  -31.1840 C   0  0  0  0  0  0  0  0  0  0  0  0
   -3.0090   23.1460  -30.2210 O   0  0  0  0  0  0  0  0  0  0  0  0
   -2.9390   21.9470  -32.2820 C   0  0  0  0  0  0  0  0  0  0  0  0
   -1.2960   21.5320  -31.7400 S   0  0  0  0  0  0  0  0  0  0  0  0
   -3.0260   25.2910  -30.3510 H   0  0  0  0  0  0  0  0  0  0  0  0
   -7.9505   24.5092  -30.8532 H   0  0  0  0  0  0  0  0  0  0  0  0
   -9.3951   22.2376  -31.8455 H   0  0  0  0  0  0  0  0  0  0  0  0
   -9.0836   19.8903  -32.7063 H   0  0  0  0  0  0  0  0  0  0  0  0
   -6.4168   18.2348  -35.1006 H   0  0  0  0  0  0  0  0  0  0  0  0
   -4.9659   18.0992  -34.2124 H   0  0  0  0  0  0  0  0  0  0  0  0
   -6.9768   15.8410  -34.4383 H   0  0  0  0  0  0  0  0  0  0  0  0
   -5.6691   14.5494  -33.4816 H   0  0  0  0  0  0  0  0  0  0  0  0
   -4.4550   15.8279  -33.9028 H   0  0  0  0  0  0  0  0  0  0  0  0
   -5.3160   14.9090  -31.5040 H   0  0  0  0  0  0  0  0  0  0  0  0
   -8.2779   17.1288  -32.6688 H   0  0  0  0  0  0  0  0  0  0  0  0
   -6.9638   16.9118  -31.6016 H   0  0  0  0  0  0  0  0  0  0  0  0
   -4.7701   20.2813  -32.2293 H   0  0  0  0  0  0  0  0  0  0  0  0
   -3.4833   21.0266  -32.5401 H   0  0  0  0  0  0  0  0  0  0  0  0
   -2.8796   22.5983  -33.1665 H   0  0  0  0  0  0  0  0  0  0  0  0
  1  2  1  0
  2  3  2  0
  2  4  1  0
  4  5  2  0
  5  6  1  0
  6  7  2  0
  7  8  1  0
  8  9  2  0
  9 10  1  0
 10 11  1  0
 11 12  1  0
 12 13  1  0
 13 14  1  0
 12 15  1  0
  9 16  1  0
 16 17  2  0
 17 18  1  0
 18 19  1  0
 19 20  2  0
 19 21  1  0
 21 22  1  0
 18  4  1  0
 17  6  1  0
 15 10  1  0
  1 23  1  0
  5 24  1  0
  7 25  1  0
  8 26  1  0
 11 27  1  0
 11 28  1  0
 12 29  1  0
 13 30  1  0
 13 31  1  0
 14 32  1  0
 15 33  1  0
 15 34  1  0
 16 35  1  0
 21 36  1  0
 21 37  1  0
M  CHG  2   1  -1  22  -1
M  END
>  <UniqueID>  (59) 
57

>  <SMILES>  (59) 
[NH-]C(=O)c1cc2ccc(N3CC(CO)C3)cc2n1C(=O)C[S-]

>  <Energy>  (59) 
120.39219243944919

>  <Genealogy>  (59) 
[NH-]C(=O)c1cc2ccc(N3CC(CO)C3)cc2n1C(=O)C[S-] (protonated)
[NH-]C(=O)c1cc2ccc(N3CC(CO)C3)cc2n1C(=O)C[S-] (3D coordinates assigned)
[NH-]C(=O)c1cc2ccc(N3CC(CO)C3)cc2n1C(=O)C[S-] (nonaromatic ring conformer: 120.39219243944919 kcal/mol)

>  <smiles>  (59) 
NC(=O)c1cc2ccc(N3CC(CO)C3)cc2n1C(=O)CS

>  <score_type>  (59) 
oracle

>  <origin>  (59) 
adg

>  <m_score__min__energy>  (59) 
-10

>  <m_primary>  (59) 
energy

$$$$
59:0
     RDKit          3D

 34 36  0  0  0  0  0  0  0  0999 V2000
   -4.2190   25.5890  -30.7550 N   0  0  0  0  0  0  0  0  0  0  0  0
   -5.5650   25.2090  -30.4650 C   0  0  0  0  0  0  0  0  0  0  0  0
   -6.3010   26.0060  -29.8250 O   0  0  0  0  0  0  0  0  0  0  0  0
   -6.1030   23.9070  -30.9220 C   0  0  0  0  0  0  0  0  0  0  0  0
   -7.4510   23.6540  -31.1780 C   0  0  0  0  0  0  0  0  0  0  0  0
   -7.5110   22.3250  -31.5370 C   0  0  0  0  0  0  0  0  0  0  0  0
   -8.6020   21.5490  -31.9190 C   0  0  0  0  0  0  0  0  0  0  0  0
   -8.3640   20.2100  -32.2750 C   0  0  0  0  0  0  0  0  0  0  0  0
   -7.0490   19.6790  -32.2690 C   0  0  0  0  0  0  0  0  0  0  0  0
   -6.8240   18.2340  -32.6340 C   0  0  0  0  0  0  0  0  0  0  0  0
   -5.7910   17.7070  -31.8800 F   0  0  0  0  0  0  0  0  0  0  0  0
   -6.4950   18.1490  -33.9740 F   0  0  0  0  0  0  0  0  0  0  0  0
   -7.9590   17.4780  -32.3990 F   0  0  0  0  0  0  0  0  0  0  0  0
   -5.9690   20.4970  -31.8540 C   0  0  0  0  0  0  0  0  0  0  0  0
   -6.2400   21.8210  -31.4900 C   0  0  0  0  0  0  0  0  0  0  0  0
   -5.3680   22.7750  -31.1030 N   0  0  0  0  0  0  0  0  0  0  0  0
   -3.9410   22.6390  -31.0040 C   0  0  0  0  0  0  0  0  0  0  0  0
   -3.2380   22.7480  -32.0440 O   0  0  0  0  0  0  0  0  0  0  0  0
   -3.3020   22.3900  -29.6960 C   0  0  0  0  0  0  0  0  0  0  0  0
   -3.3870   21.2440  -29.1780 O   0  0  0  0  0  0  0  0  0  0  0  0
   -2.5690   23.4500  -28.9780 C   0  0  0  0  0  0  0  0  0  0  0  0
   -2.0580   23.3480  -27.6980 C   0  0  0  0  0  0  0  0  0  0  0  0
   -1.4570   24.5610  -27.4390 C   0  0  0  0  0  0  0  0  0  0  0  0
   -1.6370   25.3260  -28.5730 C   0  0  0  0  0  0  0  0  0  0  0  0
   -2.3030   24.6380  -29.4710 O   0  0  0  0  0  0  0  0  0  0  0  0
   -3.5580   24.9390  -31.2330 H   0  0  0  0  0  0  0  0  0  0  0  0
   -3.8620   26.5210  -30.4460 H   0  0  0  0  0  0  0  0  0  0  0  0
   -8.2879   24.3644  -31.1081 H   0  0  0  0  0  0  0  0  0  0  0  0
   -9.6179   21.9702  -31.9415 H   0  0  0  0  0  0  0  0  0  0  0  0
   -9.2084   19.5660  -32.5618 H   0  0  0  0  0  0  0  0  0  0  0  0
   -4.9432   20.1013  -31.8188 H   0  0  0  0  0  0  0  0  0  0  0  0
   -2.1184   22.4794  -27.0257 H   0  0  0  0  0  0  0  0  0  0  0  0
   -0.9389   24.8588  -26.5155 H   0  0  0  0  0  0  0  0  0  0  0  0
   -1.2768   26.3570  -28.7048 H   0  0  0  0  0  0  0  0  0  0  0  0
  1  2  1  0
  2  3  2  0
  2  4  1  0
  4  5  2  0
  5  6  1  0
  6  7  2  0
  7  8  1  0
  8  9  2  0
  9 10  1  0
 10 11  1  0
 10 12  1  0
 10 13  1  0
  9 14  1  0
 14 15  2  0
 15 16  1  0
 16 17  1  0
 17 18  2  0
 17 19  1  0
 19 20  2  0
 19 21  1  0
 21 22  2  0
 22 23  1  0
 23 24  2  0
 24 25  1  0
 16  4  1  0
 25 21  1  0
 15  6  1  0
  1 26  1  0
  1 27  1  0
  5 28  1  0
  7 29  1  0
  8 30  1  0
 14 31  1  0
 22 32  1  0
 23 33  1  0
 24 34  1  0
M  END
>  <UniqueID>  (60) 
58

>  <SMILES>  (60) 
NC(=O)c1cc2ccc(C(F)(F)F)cc2n1C(=O)C(=O)c1ccco1

>  <Energy>  (60) 
102.26792686466555

>  <Genealogy>  (60) 
NC(=O)c1cc2ccc(C(F)(F)F)cc2n1C(=O)C(=O)c1ccco1 (3D coordinates assigned)
NC(=O)c1cc2ccc(C(F)(F)F)cc2n1C(=O)C(=O)c1ccco1 (optimized conformer: 102.26792686466555 kcal/mol)

>  <smiles>  (60) 
NC(=O)c1cc2ccc(C(F)(F)F)cc2n1C(=O)C(=O)c1ccco1

>  <score_type>  (60) 
oracle

>  <origin>  (60) 
adg

>  <m_score__min__energy>  (60) 
-8.25

>  <m_primary>  (60) 
energy

$$$$
60:0
     RDKit          3D

 36 37  0  0  0  0  0  0  0  0999 V2000
   -2.1870   24.9450  -29.2120 N   0  0  0  0  0  0  0  0  0  0  0  0
   -0.9690   24.1500  -29.3430 C   0  0  0  0  0  0  0  0  0  0  0  0
   -1.2750   22.7440  -29.8760 C   0  0  0  0  0  0  0  0  0  0  0  0
   -2.4870   22.7640  -30.8120 C   0  0  0  0  0  0  0  0  0  0  0  0
   -3.7400   22.4720  -30.0420 C   0  0  0  0  0  0  0  0  0  0  0  0
   -3.6630   22.1390  -28.8290 O   0  0  0  0  0  0  0  0  0  0  0  0
   -5.0260   22.6810  -30.6410 N   0  0  0  0  0  0  0  0  0  0  0  0
   -5.7850   23.8120  -30.6190 C   0  0  0  0  0  0  0  0  0  0  0  0
   -5.3500   25.1180  -30.0730 C   0  0  0  0  0  0  0  0  0  0  0  0
   -6.1040   25.7750  -29.0520 N   0  0  0  0  0  0  0  0  0  0  0  0
   -4.3110   25.6730  -30.5200 O   0  0  0  0  0  0  0  0  0  0  0  0
   -7.0040   23.5890  -31.2600 C   0  0  0  0  0  0  0  0  0  0  0  0
   -6.9630   22.2760  -31.6750 C   0  0  0  0  0  0  0  0  0  0  0  0
   -7.9060   21.5230  -32.3670 C   0  0  0  0  0  0  0  0  0  0  0  0
   -7.5970   20.1820  -32.6530 C   0  0  0  0  0  0  0  0  0  0  0  0
   -6.3680   19.6130  -32.2280 C   0  0  0  0  0  0  0  0  0  0  0  0
   -6.0380   18.1850  -32.5780 C   0  0  0  0  0  0  0  0  0  0  0  0
   -6.9410   17.6790  -33.4970 F   0  0  0  0  0  0  0  0  0  0  0  0
   -6.0840   17.4130  -31.4320 F   0  0  0  0  0  0  0  0  0  0  0  0
   -4.7700   18.1020  -33.1270 F   0  0  0  0  0  0  0  0  0  0  0  0
   -5.4260   20.4200  -31.5480 C   0  0  0  0  0  0  0  0  0  0  0  0
   -5.7580   21.7520  -31.2890 C   0  0  0  0  0  0  0  0  0  0  0  0
   -2.2030   25.6670  -29.9680 H   0  0  0  0  0  0  0  0  0  0  0  0
   -3.0160   24.3220  -29.3480 H   0  0  0  0  0  0  0  0  0  0  0  0
   -0.2842   24.6559  -30.0394 H   0  0  0  0  0  0  0  0  0  0  0  0
   -0.5101   24.0517  -28.3481 H   0  0  0  0  0  0  0  0  0  0  0  0
   -0.4001   22.3703  -30.4282 H   0  0  0  0  0  0  0  0  0  0  0  0
   -1.5015   22.0873  -29.0231 H   0  0  0  0  0  0  0  0  0  0  0  0
   -2.5699   23.7569  -31.2781 H   0  0  0  0  0  0  0  0  0  0  0  0
   -2.3546   21.9952  -31.5875 H   0  0  0  0  0  0  0  0  0  0  0  0
   -5.8030   26.7120  -28.7030 H   0  0  0  0  0  0  0  0  0  0  0  0
   -6.9330   25.3230  -28.6110 H   0  0  0  0  0  0  0  0  0  0  0  0
   -7.8235   24.3086  -31.4035 H   0  0  0  0  0  0  0  0  0  0  0  0
   -8.8639   21.9635  -32.6807 H   0  0  0  0  0  0  0  0  0  0  0  0
   -8.3162   19.5661  -33.2129 H   0  0  0  0  0  0  0  0  0  0  0  0
   -4.4562   20.0089  -31.2310 H   0  0  0  0  0  0  0  0  0  0  0  0
  1  2  1  0
  2  3  1  0
  3  4  1  0
  4  5  1  0
  5  6  2  0
  5  7  1  0
  7  8  1  0
  8  9  1  0
  9 10  1  0
  9 11  2  0
  8 12  2  0
 12 13  1  0
 13 14  2  0
 14 15  1  0
 15 16  2  0
 16 17  1  0
 17 18  1  0
 17 19  1  0
 17 20  1  0
 16 21  1  0
 21 22  2  0
 22  7  1  0
 22 13  1  0
  1 23  1  0
  1 24  1  0
  2 25  1  0
  2 26  1  0
  3 27  1  0
  3 28  1  0
  4 29  1  0
  4 30  1  0
 10 31  1  0
 10 32  1  0
 12 33  1  0
 14 34  1  0
 15 35  1  0
 21 36  1  0
M  END
>  <UniqueID>  (61) 
59

>  <SMILES>  (61) 
NCCCC(=O)n1c(C(N)=O)cc2ccc(C(F)(F)F)cc21

>  <Energy>  (61) 
69.84140375884299

>  <Genealogy>  (61) 
NCCCC(=O)n1c(C(N)=O)cc2ccc(C(F)(F)F)cc21 (3D coordinates assigned)
NCCCC(=O)n1c(C(N)=O)cc2ccc(C(F)(F)F)cc21 (optimized conformer: 69.84140375884299 kcal/mol)

>  <smiles>  (61) 
NCCCC(=O)n1c(C(N)=O)cc2ccc(C(F)(F)F)cc21

>  <score_type>  (61) 
oracle

>  <origin>  (61) 
adg

>  <m_score__min__energy>  (61) 
-8.1199999999999992

>  <m_primary>  (61) 
energy

$$$$
61:0
     RDKit          3D

 34 35  0  0  0  0  0  0  0  0999 V2000
   -2.6580   24.9290  -27.6670 C   0  0  0  0  0  0  0  0  0  0  0  0
   -1.7990   25.1380  -28.7810 O   0  0  0  0  0  0  0  0  0  0  0  0
   -0.9080   24.1620  -29.2380 C   0  0  0  0  0  0  0  0  0  0  0  0
    0.3170   24.2210  -28.9450 O   0  0  0  0  0  0  0  0  0  0  0  0
   -1.4220   23.0170  -30.0540 C   0  0  0  0  0  0  0  0  0  0  0  0
   -2.8410   23.0850  -30.1750 O   0  0  0  0  0  0  0  0  0  0  0  0
   -3.5330   22.6620  -31.3160 C   0  0  0  0  0  0  0  0  0  0  0  0
   -2.9120   22.1530  -32.2880 O   0  0  0  0  0  0  0  0  0  0  0  0
   -4.9600   22.7990  -31.3720 N   0  0  0  0  0  0  0  0  0  0  0  0
   -5.7060   23.9040  -31.0870 C   0  0  0  0  0  0  0  0  0  0  0  0
   -5.2010   25.1630  -30.4990 C   0  0  0  0  0  0  0  0  0  0  0  0
   -3.9170   25.6730  -30.8480 N   0  0  0  0  0  0  0  0  0  0  0  0
   -5.8930   25.7720  -29.6400 O   0  0  0  0  0  0  0  0  0  0  0  0
   -7.0540   23.6620  -31.3430 C   0  0  0  0  0  0  0  0  0  0  0  0
   -7.1130   22.3600  -31.7870 C   0  0  0  0  0  0  0  0  0  0  0  0
   -8.2070   21.6010  -32.1910 C   0  0  0  0  0  0  0  0  0  0  0  0
   -7.9700   20.2860  -32.6260 C   0  0  0  0  0  0  0  0  0  0  0  0
   -6.6540   19.7600  -32.6550 C   0  0  0  0  0  0  0  0  0  0  0  0
   -6.4220   18.3570  -33.1390 C   0  0  0  0  0  0  0  0  0  0  0  0
   -7.5620   17.5990  -32.9360 F   0  0  0  0  0  0  0  0  0  0  0  0
   -6.1190   18.3730  -34.4870 F   0  0  0  0  0  0  0  0  0  0  0  0
   -5.5680   20.5620  -32.2390 C   0  0  0  0  0  0  0  0  0  0  0  0
   -5.8370   21.8620  -31.7940 C   0  0  0  0  0  0  0  0  0  0  0  0
   -2.0901   25.0672  -26.7351 H   0  0  0  0  0  0  0  0  0  0  0  0
   -3.4865   25.6518  -27.7021 H   0  0  0  0  0  0  0  0  0  0  0  0
   -3.0618   23.9064  -27.7021 H   0  0  0  0  0  0  0  0  0  0  0  0
   -0.9713   23.0564  -31.0566 H   0  0  0  0  0  0  0  0  0  0  0  0
   -1.1532   22.0753  -29.5531 H   0  0  0  0  0  0  0  0  0  0  0  0
   -3.0460   25.2430  -30.4660 H   0  0  0  0  0  0  0  0  0  0  0  0
   -7.8929   24.3623  -31.2171 H   0  0  0  0  0  0  0  0  0  0  0  0
   -9.2250   22.0171  -32.1705 H   0  0  0  0  0  0  0  0  0  0  0  0
   -8.8143   19.6584  -32.9473 H   0  0  0  0  0  0  0  0  0  0  0  0
   -5.5834   17.9174  -32.5791 H   0  0  0  0  0  0  0  0  0  0  0  0
   -4.5385   20.1755  -32.2640 H   0  0  0  0  0  0  0  0  0  0  0  0
  1  2  1  0
  2  3  1  0
  3  4  2  0
  3  5  1  0
  5  6  1  0
  6  7  1  0
  7  8  2  0
  7  9  1  0
  9 10  1  0
 10 11  1  0
 11 12  1  0
 11 13  2  0
 10 14  2  0
 14 15  1  0
 15 16  2  0
 16 17  1  0
 17 18  2  0
 18 19  1  0
 19 20  1  0
 19 21  1  0
 18 22  1  0
 22 23  2  0
 23  9  1  0
 23 15  1  0
  1 24  1  0
  1 25  1  0
  1 26  1  0
  5 27  1  0
  5 28  1  0
 12 29  1  0
 14 30  1  0
 16 31  1  0
 17 32  1  0
 19 33  1  0
 22 34  1  0
M  CHG  1  12  -1
M  END
>  <UniqueID>  (62) 
60

>  <SMILES>  (62) 
COC(=O)COC(=O)n1c(C([NH-])=O)cc2ccc(C(F)F)cc21

>  <Energy>  (62) 
68.19144719459936

>  <Genealogy>  (62) 
COC(=O)COC(=O)n1c(C([NH-])=O)cc2ccc(C(F)F)cc21 (protonated)
COC(=O)COC(=O)n1c(C([NH-])=O)cc2ccc(C(F)F)cc21 (3D coordinates assigned)
COC(=O)COC(=O)n1c(C([NH-])=O)cc2ccc(C(F)F)cc21 (optimized conformer: 68.19144719459936 kcal/mol)

>  <smiles>  (62) 
COC(=O)COC(=O)n1c(C(N)=O)cc2ccc(C(F)F)cc21

>  <score_type>  (62) 
oracle

>  <origin>  (62) 
adg

>  <m_score__min__energy>  (62) 
-9.7400000000000002

>  <m_primary>  (62) 
energy

$$$$
62:0
     RDKit          3D

 42 44  0  0  0  0  0  0  0  0999 V2000
   -4.1160   25.3300  -30.5000 N   0  0  0  0  0  0  0  0  0  0  0  0
   -5.4830   25.0010  -30.2630 C   0  0  0  0  0  0  0  0  0  0  0  0
   -6.2040   25.7990  -29.6080 O   0  0  0  0  0  0  0  0  0  0  0  0
   -6.0410   23.7400  -30.7940 C   0  0  0  0  0  0  0  0  0  0  0  0
   -7.3150   23.6180  -31.3470 C   0  0  0  0  0  0  0  0  0  0  0  0
   -7.4330   22.2890  -31.6970 C   0  0  0  0  0  0  0  0  0  0  0  0
   -8.4950   21.6010  -32.2750 C   0  0  0  0  0  0  0  0  0  0  0  0
   -8.3360   20.2250  -32.5160 C   0  0  0  0  0  0  0  0  0  0  0  0
   -7.1180   19.5670  -32.1950 C   0  0  0  0  0  0  0  0  0  0  0  0
   -6.9680   18.0830  -32.4160 C   0  0  0  0  0  0  0  0  0  0  0  0
   -6.4470   17.8330  -33.6730 F   0  0  0  0  0  0  0  0  0  0  0  0
   -8.1910   17.4430  -32.3190 F   0  0  0  0  0  0  0  0  0  0  0  0
   -6.1120   17.5670  -31.4630 F   0  0  0  0  0  0  0  0  0  0  0  0
   -6.0720   20.2980  -31.5870 C   0  0  0  0  0  0  0  0  0  0  0  0
   -6.2620   21.6630  -31.3600 C   0  0  0  0  0  0  0  0  0  0  0  0
   -5.4010   22.5400  -30.8110 N   0  0  0  0  0  0  0  0  0  0  0  0
   -4.0870   22.2370  -30.3220 C   0  0  0  0  0  0  0  0  0  0  0  0
   -3.9720   21.4480  -29.3460 O   0  0  0  0  0  0  0  0  0  0  0  0
   -2.8420   22.8490  -30.9360 C   0  0  2  0  0  0  0  0  0  0  0  0
   -2.1110   21.9280  -31.9210 C   0  0  0  0  0  0  0  0  0  0  0  0
   -1.0170   21.2490  -31.1050 C   0  0  0  0  0  0  0  0  0  0  0  0
   -0.7200   22.2040  -29.9570 C   0  0  0  0  0  0  0  0  0  0  0  0
   -1.8570   23.1100  -29.8910 N   0  0  0  0  0  0  0  0  0  0  0  0
   -1.9260   24.2340  -28.9930 C   0  0  0  0  0  0  0  0  0  0  0  0
   -1.3970   25.3310  -29.3220 O   0  0  0  0  0  0  0  0  0  0  0  0
   -2.6330   24.1200  -27.6700 C   0  0  0  0  0  0  0  0  0  0  0  0
   -3.8070   24.8880  -27.6530 O   0  0  0  0  0  0  0  0  0  0  0  0
   -3.5040   25.6710  -29.7240 H   0  0  0  0  0  0  0  0  0  0  0  0
   -8.0655   24.4117  -31.4765 H   0  0  0  0  0  0  0  0  0  0  0  0
   -9.4305   22.1177  -32.5355 H   0  0  0  0  0  0  0  0  0  0  0  0
   -9.1639   19.6512  -32.9581 H   0  0  0  0  0  0  0  0  0  0  0  0
   -5.1319   19.8042  -31.2998 H   0  0  0  0  0  0  0  0  0  0  0  0
   -3.2024   23.7480  -31.4574 H   0  0  0  0  0  0  0  0  0  0  0  0
   -2.8033   21.1797  -32.3344 H   0  0  0  0  0  0  0  0  0  0  0  0
   -1.6980   22.4867  -32.7738 H   0  0  0  0  0  0  0  0  0  0  0  0
   -1.3688   20.2807  -30.7194 H   0  0  0  0  0  0  0  0  0  0  0  0
   -0.1215   21.0444  -31.7101 H   0  0  0  0  0  0  0  0  0  0  0  0
   -0.6176   21.6484  -29.0132 H   0  0  0  0  0  0  0  0  0  0  0  0
    0.2226   22.7481  -30.1164 H   0  0  0  0  0  0  0  0  0  0  0  0
   -2.8915   23.0659  -27.4912 H   0  0  0  0  0  0  0  0  0  0  0  0
   -1.9613   24.4941  -26.8833 H   0  0  0  0  0  0  0  0  0  0  0  0
   -3.8990   25.2870  -28.5580 H   0  0  0  0  0  0  0  0  0  0  0  0
  1  2  1  0
  2  3  2  0
  2  4  1  0
  4  5  2  0
  5  6  1  0
  6  7  2  0
  7  8  1  0
  8  9  2  0
  9 10  1  0
 10 11  1  0
 10 12  1  0
 10 13  1  0
  9 14  1  0
 14 15  2  0
 15 16  1  0
 16 17  1  0
 17 18  2  0
 17 19  1  0
 19 20  1  0
 20 21  1  0
 21 22  1  0
 22 23  1  0
 23 24  1  0
 24 25  2  0
 24 26  1  0
 26 27  1  0
 16  4  1  0
 23 19  1  0
 15  6  1  0
  1 28  1  0
  5 29  1  0
  7 30  1  0
  8 31  1  0
 14 32  1  0
 19 33  1  6
 20 34  1  0
 20 35  1  0
 21 36  1  0
 21 37  1  0
 22 38  1  0
 22 39  1  0
 26 40  1  0
 26 41  1  0
 27 42  1  0
M  CHG  1   1  -1
M  END
>  <UniqueID>  (63) 
61

>  <SMILES>  (63) 
[NH-]C(=O)c1cc2ccc(C(F)(F)F)cc2n1C(=O)[C@@H]1CCCN1C(=O)CO

>  <Energy>  (63) 
84.1949125775285

>  <Genealogy>  (63) 
[NH-]C(=O)c1cc2ccc(C(F)(F)F)cc2n1C(=O)[C@@H]1CCCN1C(=O)CO (protonated)
[NH-]C(=O)c1cc2ccc(C(F)(F)F)cc2n1C(=O)[C@@H]1CCCN1C(=O)CO (3D coordinates assigned)
[NH-]C(=O)c1cc2ccc(C(F)(F)F)cc2n1C(=O)[C@@H]1CCCN1C(=O)CO (nonaromatic ring conformer: 84.1949125775285 kcal/mol)

>  <smiles>  (63) 
NC(=O)c1cc2ccc(C(F)(F)F)cc2n1C(=O)[C@@H]1CCCN1C(=O)CO

>  <score_type>  (63) 
oracle

>  <origin>  (63) 
adg

>  <m_score__min__energy>  (63) 
-10.33

>  <m_primary>  (63) 
energy

$$$$
63:0
     RDKit          3D

 38 39  0  0  0  0  0  0  0  0999 V2000
   -3.8300   23.8410  -27.6900 C   0  0  0  0  0  0  0  0  0  0  0  0
   -2.6990   23.9330  -28.6270 N   0  0  0  0  0  0  0  0  0  0  0  0
   -1.7430   24.9420  -28.1390 C   0  0  0  0  0  0  0  0  0  0  0  0
   -2.0560   22.6090  -28.7690 C   0  0  0  0  0  0  0  0  0  0  0  0
   -3.1010   21.4940  -28.8960 C   0  0  0  0  0  0  0  0  0  0  0  0
   -3.6350   21.4490  -30.2540 N   0  0  0  0  0  0  0  0  0  0  0  0
   -3.9830   22.6170  -31.0060 C   0  0  0  0  0  0  0  0  0  0  0  0
   -3.0840   23.2960  -31.5720 O   0  0  0  0  0  0  0  0  0  0  0  0
   -5.3610   22.9890  -31.1560 N   0  0  0  0  0  0  0  0  0  0  0  0
   -5.9460   24.1780  -30.8340 C   0  0  0  0  0  0  0  0  0  0  0  0
   -5.2400   25.4110  -30.4300 C   0  0  0  0  0  0  0  0  0  0  0  0
   -3.8980   25.6560  -30.8400 N   0  0  0  0  0  0  0  0  0  0  0  0
   -5.8480   26.2870  -29.7580 O   0  0  0  0  0  0  0  0  0  0  0  0
   -7.3240   24.1140  -31.0300 C   0  0  0  0  0  0  0  0  0  0  0  0
   -7.5670   22.8420  -31.4960 C   0  0  0  0  0  0  0  0  0  0  0  0
   -8.7670   22.2310  -31.8490 C   0  0  0  0  0  0  0  0  0  0  0  0
   -8.7230   20.8930  -32.2800 C   0  0  0  0  0  0  0  0  0  0  0  0
   -7.4930   20.1970  -32.3420 C   0  0  0  0  0  0  0  0  0  0  0  0
   -7.4630   18.8350  -32.7790 N   0  0  0  0  0  0  0  0  0  0  0  0
   -6.2950   20.8470  -31.9730 C   0  0  0  0  0  0  0  0  0  0  0  0
   -6.3660   22.1840  -31.5640 C   0  0  0  0  0  0  0  0  0  0  0  0
   -3.4536   23.8716  -26.6568 H   0  0  0  0  0  0  0  0  0  0  0  0
   -4.5137   24.6865  -27.8564 H   0  0  0  0  0  0  0  0  0  0  0  0
   -4.3681   22.8961  -27.8564 H   0  0  0  0  0  0  0  0  0  0  0  0
   -1.7413   24.9437  -27.0390 H   0  0  0  0  0  0  0  0  0  0  0  0
   -0.7349   24.7001  -28.5068 H   0  0  0  0  0  0  0  0  0  0  0  0
   -2.0389   25.9356  -28.5068 H   0  0  0  0  0  0  0  0  0  0  0  0
   -1.4239   22.6121  -29.6692 H   0  0  0  0  0  0  0  0  0  0  0  0
   -1.4513   22.4180  -27.8702 H   0  0  0  0  0  0  0  0  0  0  0  0
   -2.6310   20.5281  -28.6592 H   0  0  0  0  0  0  0  0  0  0  0  0
   -3.9246   21.6955  -28.1953 H   0  0  0  0  0  0  0  0  0  0  0  0
   -3.1010   25.1380  -30.4070 H   0  0  0  0  0  0  0  0  0  0  0  0
   -8.0609   24.9107  -30.8505 H   0  0  0  0  0  0  0  0  0  0  0  0
   -9.7199   22.7777  -31.7926 H   0  0  0  0  0  0  0  0  0  0  0  0
   -9.6532   20.3832  -32.5714 H   0  0  0  0  0  0  0  0  0  0  0  0
   -6.8580   18.1330  -32.2980 H   0  0  0  0  0  0  0  0  0  0  0  0
   -8.0340   18.5230  -33.5950 H   0  0  0  0  0  0  0  0  0  0  0  0
   -5.3317   20.3170  -32.0060 H   0  0  0  0  0  0  0  0  0  0  0  0
  1  2  1  0
  2  3  1  0
  2  4  1  0
  4  5  1  0
  5  6  1  0
  6  7  1  0
  7  8  2  0
  7  9  1  0
  9 10  1  0
 10 11  1  0
 11 12  1  0
 11 13  2  0
 10 14  2  0
 14 15  1  0
 15 16  2  0
 16 17  1  0
 17 18  2  0
 18 19  1  0
 18 20  1  0
 20 21  2  0
 21  9  1  0
 21 15  1  0
  1 22  1  0
  1 23  1  0
  1 24  1  0
  3 25  1  0
  3 26  1  0
  3 27  1  0
  4 28  1  0
  4 29  1  0
  5 30  1  0
  5 31  1  0
 12 32  1  0
 14 33  1  0
 16 34  1  0
 17 35  1  0
 19 36  1  0
 19 37  1  0
 20 38  1  0
M  CHG  2   6  -1  12  -1
M  END
>  <UniqueID>  (64) 
62

>  <SMILES>  (64) 
CN(C)CC[N-]C(=O)n1c(C([NH-])=O)cc2ccc(N)cc21

>  <Energy>  (64) 
73.7634736630956

>  <Genealogy>  (64) 
CN(C)CC[N-]C(=O)n1c(C([NH-])=O)cc2ccc(N)cc21 (protonated)
CN(C)CC[N-]C(=O)n1c(C([NH-])=O)cc2ccc(N)cc21 (3D coordinates assigned)
CN(C)CC[N-]C(=O)n1c(C([NH-])=O)cc2ccc(N)cc21 (optimized conformer: 73.7634736630956 kcal/mol)

>  <smiles>  (64) 
CN(C)CCNC(=O)n1c(C(N)=O)cc2ccc(N)cc21

>  <score_type>  (64) 
oracle

>  <origin>  (64) 
adg

>  <m_score__min__energy>  (64) 
-9.6199999999999992

>  <m_primary>  (64) 
energy

$$$$
64:0
     RDKit          3D

 54 56  0  0  0  0  0  0  0  0999 V2000
   -3.4520   18.2690  -34.2160 C   0  0  0  0  0  0  0  0  0  0  0  0
   -4.1480   19.3140  -33.7560 C   0  0  0  0  0  0  0  0  0  0  0  0
   -3.4580   20.5400  -33.2230 C   0  0  0  0  0  0  0  0  0  0  0  0
   -3.0060   20.2970  -31.8380 N   0  0  0  0  0  0  0  0  0  0  0  0
   -1.5380   20.3880  -31.7160 C   0  0  0  0  0  0  0  0  0  0  0  0
   -3.7760   21.0510  -30.8070 C   0  0  1  0  0  0  0  0  0  0  0  0
   -2.9780   21.0720  -29.4810 C   0  0  0  0  0  0  0  0  0  0  0  0
   -3.5560   22.0740  -28.4710 C   0  0  0  0  0  0  0  0  0  0  0  0
   -2.5750   23.6180  -28.4600 S   0  0  0  0  0  0  0  0  0  0  0  0
   -3.5620   24.4550  -27.1730 C   0  0  0  0  0  0  0  0  0  0  0  0
   -4.2000   22.4590  -31.2430 C   0  0  0  0  0  0  0  0  0  0  0  0
   -3.3140   23.2870  -31.5990 O   0  0  0  0  0  0  0  0  0  0  0  0
   -5.5820   22.8700  -31.2940 N   0  0  0  0  0  0  0  0  0  0  0  0
   -6.0960   24.0460  -30.8200 C   0  0  0  0  0  0  0  0  0  0  0  0
   -5.3330   25.1570  -30.2120 C   0  0  0  0  0  0  0  0  0  0  0  0
   -4.1530   25.6660  -30.8220 N   0  0  0  0  0  0  0  0  0  0  0  0
   -5.7530   25.6920  -29.1510 O   0  0  0  0  0  0  0  0  0  0  0  0
   -7.4800   24.0740  -30.9560 C   0  0  0  0  0  0  0  0  0  0  0  0
   -7.8160   22.8660  -31.5120 C   0  0  0  0  0  0  0  0  0  0  0  0
   -9.0720   22.3490  -31.8040 C   0  0  0  0  0  0  0  0  0  0  0  0
   -9.1480   21.0370  -32.2930 C   0  0  0  0  0  0  0  0  0  0  0  0
   -7.9770   20.2610  -32.4660 C   0  0  0  0  0  0  0  0  0  0  0  0
   -8.0970   18.9130  -32.9470 N   0  0  0  0  0  0  0  0  0  0  0  0
   -7.1410   17.8900  -32.6490 C   0  0  0  0  0  0  0  0  0  0  0  0
   -6.6800   17.0250  -33.5770 N   0  0  0  0  0  0  0  0  0  0  0  0
   -5.7870   16.2900  -32.8840 C   0  0  0  0  0  0  0  0  0  0  0  0
   -5.7420   16.7350  -31.5810 C   0  0  0  0  0  0  0  0  0  0  0  0
   -6.5910   17.7210  -31.4680 O   0  0  0  0  0  0  0  0  0  0  0  0
   -6.7170   20.8080  -32.1240 C   0  0  0  0  0  0  0  0  0  0  0  0
   -6.6580   22.1420  -31.6920 C   0  0  0  0  0  0  0  0  0  0  0  0
   -3.9791   17.3835  -34.6008 H   0  0  0  0  0  0  0  0  0  0  0  0
   -2.3523   18.2948  -34.2096 H   0  0  0  0  0  0  0  0  0  0  0  0
   -5.2473   19.2765  -33.7675 H   0  0  0  0  0  0  0  0  0  0  0  0
   -2.5887   20.7738  -33.8552 H   0  0  0  0  0  0  0  0  0  0  0  0
   -4.1612   21.3858  -33.2326 H   0  0  0  0  0  0  0  0  0  0  0  0
   -1.2589   20.4053  -30.6521 H   0  0  0  0  0  0  0  0  0  0  0  0
   -1.0749   19.5168  -32.2025 H   0  0  0  0  0  0  0  0  0  0  0  0
   -1.1861   21.3097  -32.2025 H   0  0  0  0  0  0  0  0  0  0  0  0
   -4.7253   20.5156  -30.6577 H   0  0  0  0  0  0  0  0  0  0  0  0
   -3.0037   20.0662  -29.0363 H   0  0  0  0  0  0  0  0  0  0  0  0
   -1.9481   21.3819  -29.7119 H   0  0  0  0  0  0  0  0  0  0  0  0
   -4.5946   22.3078  -28.7480 H   0  0  0  0  0  0  0  0  0  0  0  0
   -3.5210   21.6251  -27.4674 H   0  0  0  0  0  0  0  0  0  0  0  0
   -3.2025   24.1502  -26.1791 H   0  0  0  0  0  0  0  0  0  0  0  0
   -3.4583   25.5446  -27.2821 H   0  0  0  0  0  0  0  0  0  0  0  0
   -4.6201   24.1746  -27.2821 H   0  0  0  0  0  0  0  0  0  0  0  0
   -3.2170   25.2500  -30.6140 H   0  0  0  0  0  0  0  0  0  0  0  0
   -8.1608   24.8917  -30.6768 H   0  0  0  0  0  0  0  0  0  0  0  0
   -9.9804   22.9514  -31.6559 H   0  0  0  0  0  0  0  0  0  0  0  0
  -10.1283   20.6062  -32.5449 H   0  0  0  0  0  0  0  0  0  0  0  0
   -8.8070   18.7090  -33.6880 H   0  0  0  0  0  0  0  0  0  0  0  0
   -5.1879   15.4640  -33.2949 H   0  0  0  0  0  0  0  0  0  0  0  0
   -5.1053   16.3322  -30.7796 H   0  0  0  0  0  0  0  0  0  0  0  0
   -5.8030   20.2001  -32.1954 H   0  0  0  0  0  0  0  0  0  0  0  0
  1  2  2  0
  2  3  1  0
  3  4  1  0
  4  5  1  0
  4  6  1  0
  6  7  1  0
  7  8  1  0
  8  9  1  0
  9 10  1  0
  6 11  1  0
 11 12  2  0
 11 13  1  0
 13 14  1  0
 14 15  1  0
 15 16  1  0
 15 17  2  0
 14 18  2  0
 18 19  1  0
 19 20  2  0
 20 21  1  0
 21 22  2  0
 22 23  1  0
 23 24  1  0
 24 25  2  0
 25 26  1  0
 26 27  2  0
 27 28  1  0
 22 29  1  0
 29 30  2  0
 30 13  1  0
 30 19  1  0
 28 24  1  0
  1 31  1  0
  1 32  1  0
  2 33  1  0
  3 34  1  0
  3 35  1  0
  5 36  1  0
  5 37  1  0
  5 38  1  0
  6 39  1  1
  7 40  1  0
  7 41  1  0
  8 42  1  0
  8 43  1  0
 10 44  1  0
 10 45  1  0
 10 46  1  0
 16 47  1  0
 18 48  1  0
 20 49  1  0
 21 50  1  0
 23 51  1  0
 26 52  1  0
 27 53  1  0
 29 54  1  0
M  CHG  1  16  -1
M  END
>  <UniqueID>  (65) 
63

>  <SMILES>  (65) 
C=CCN(C)[C@@H](CCSC)C(=O)n1c(C([NH-])=O)cc2ccc(Nc3ncco3)cc21

>  <Energy>  (65) 
126.3010542730408

>  <Genealogy>  (65) 
C=CCN(C)C(CCSC)C(=O)n1c(C([NH-])=O)cc2ccc(Nc3ncco3)cc21 (protonated)
C=CCN(C)[C@@H](CCSC)C(=O)n1c(C([NH-])=O)cc2ccc(Nc3ncco3)cc21 (chirality)
C=CCN(C)[C@@H](CCSC)C(=O)n1c(C([NH-])=O)cc2ccc(Nc3ncco3)cc21 (3D coordinates assigned)
C=CCN(C)[C@@H](CCSC)C(=O)n1c(C([NH-])=O)cc2ccc(Nc3ncco3)cc21 (optimized conformer: 126.3010542730408 kcal/mol)

>  <smiles>  (65) 
C=CCN(C)C(CCSC)C(=O)n1c(C(N)=O)cc2ccc(Nc3ncco3)cc21

>  <score_type>  (65) 
oracle

>  <origin>  (65) 
adg

>  <m_score__min__energy>  (65) 
-10.960000000000001

>  <m_primary>  (65) 
energy

$$$$
65:0
     RDKit          3D

 53 54  0  0  0  0  0  0  0  0999 V2000
   -0.7000   20.0390  -31.1520 C   0  0  0  0  0  0  0  0  0  0  0  0
   -0.4580   21.0620  -31.9780 C   0  0  0  0  0  0  0  0  0  0  0  0
   -1.0180   21.1090  -33.3750 C   0  0  0  0  0  0  0  0  0  0  0  0
   -1.6500   19.7700  -33.7850 C   0  0  0  0  0  0  0  0  0  0  0  0
   -3.1680   19.6990  -33.5040 C   0  0  1  0  0  0  0  0  0  0  0  0
   -3.8070   20.9120  -33.8220 O   0  0  0  0  0  0  0  0  0  0  0  0
   -3.8190   18.5570  -34.2550 C   0  0  0  0  0  0  0  0  0  0  0  0
   -4.8620   17.8110  -33.8360 C   0  0  0  0  0  0  0  0  0  0  0  0
   -5.6090   17.9780  -32.5350 C   0  0  0  0  0  0  0  0  0  0  0  0
   -7.0180   18.5190  -32.7990 C   0  0  0  0  0  0  0  0  0  0  0  0
   -7.1520   19.9300  -32.2880 C   0  0  0  0  0  0  0  0  0  0  0  0
   -8.4170   20.5700  -32.2820 C   0  0  0  0  0  0  0  0  0  0  0  0
   -8.5450   21.8970  -31.8330 C   0  0  0  0  0  0  0  0  0  0  0  0
   -7.3930   22.5600  -31.4220 C   0  0  0  0  0  0  0  0  0  0  0  0
   -7.2330   23.8460  -30.9650 C   0  0  0  0  0  0  0  0  0  0  0  0
   -5.8700   23.9810  -30.7260 C   0  0  0  0  0  0  0  0  0  0  0  0
   -5.2690   25.2460  -30.2950 C   0  0  0  0  0  0  0  0  0  0  0  0
   -4.0260   25.6700  -30.8490 N   0  0  0  0  0  0  0  0  0  0  0  0
   -5.8860   25.9940  -29.4890 O   0  0  0  0  0  0  0  0  0  0  0  0
   -5.1990   22.8310  -31.0330 N   0  0  0  0  0  0  0  0  0  0  0  0
   -3.7700   22.6090  -31.0800 C   0  0  0  0  0  0  0  0  0  0  0  0
   -3.1710   22.6580  -32.1900 O   0  0  0  0  0  0  0  0  0  0  0  0
   -2.9630   22.2800  -29.8530 C   0  0  0  0  0  0  0  0  0  0  0  0
   -2.7990   23.4920  -28.9240 C   0  0  0  0  0  0  0  0  0  0  0  0
   -1.5470   24.2730  -29.2040 C   0  0  0  0  0  0  0  0  0  0  0  0
   -0.4390   23.6750  -29.2730 O   0  0  0  0  0  0  0  0  0  0  0  0
   -1.5730   25.6610  -29.2560 O   0  0  0  0  0  0  0  0  0  0  0  0
   -6.1550   21.9670  -31.4500 C   0  0  0  0  0  0  0  0  0  0  0  0
   -6.0040   20.6370  -31.8670 C   0  0  0  0  0  0  0  0  0  0  0  0
   -0.2741   20.0384  -30.1378 H   0  0  0  0  0  0  0  0  0  0  0  0
   -1.3250   19.1979  -31.4866 H   0  0  0  0  0  0  0  0  0  0  0  0
    0.1692   21.8945  -31.6265 H   0  0  0  0  0  0  0  0  0  0  0  0
   -1.7865   21.8945  -33.4237 H   0  0  0  0  0  0  0  0  0  0  0  0
   -0.1896   21.3207  -34.0671 H   0  0  0  0  0  0  0  0  0  0  0  0
   -1.4872   19.6226  -34.8629 H   0  0  0  0  0  0  0  0  0  0  0  0
   -1.1700   18.9850  -33.1821 H   0  0  0  0  0  0  0  0  0  0  0  0
   -3.2852   19.5159  -32.4257 H   0  0  0  0  0  0  0  0  0  0  0  0
   -3.1030   21.5580  -34.0910 H   0  0  0  0  0  0  0  0  0  0  0  0
   -3.3994   18.3107  -35.2415 H   0  0  0  0  0  0  0  0  0  0  0  0
   -5.1997   17.0057  -34.5050 H   0  0  0  0  0  0  0  0  0  0  0  0
   -5.6827   17.0032  -32.0307 H   0  0  0  0  0  0  0  0  0  0  0  0
   -5.0647   18.6905  -31.8977 H   0  0  0  0  0  0  0  0  0  0  0  0
   -7.2122   18.5073  -33.8817 H   0  0  0  0  0  0  0  0  0  0  0  0
   -7.7451   17.8824  -32.2735 H   0  0  0  0  0  0  0  0  0  0  0  0
   -9.3059   20.0243  -32.6314 H   0  0  0  0  0  0  0  0  0  0  0  0
   -9.5255   22.3950  -31.8076 H   0  0  0  0  0  0  0  0  0  0  0  0
   -8.0153   24.6055  -30.8195 H   0  0  0  0  0  0  0  0  0  0  0  0
   -3.1230   25.3000  -30.4790 H   0  0  0  0  0  0  0  0  0  0  0  0
   -3.4709   21.4761  -29.3001 H   0  0  0  0  0  0  0  0  0  0  0  0
   -1.9605   21.9685  -30.1818 H   0  0  0  0  0  0  0  0  0  0  0  0
   -3.6653   24.1567  -29.0568 H   0  0  0  0  0  0  0  0  0  0  0  0
   -2.7304   23.1133  -27.8935 H   0  0  0  0  0  0  0  0  0  0  0  0
   -5.0150   20.1555  -31.8663 H   0  0  0  0  0  0  0  0  0  0  0  0
  1  2  2  0
  2  3  1  0
  3  4  1  0
  4  5  1  0
  5  6  1  0
  5  7  1  0
  7  8  2  3
  8  9  1  0
  9 10  1  0
 10 11  1  0
 11 12  2  0
 12 13  1  0
 13 14  2  0
 14 15  1  0
 15 16  2  0
 16 17  1  0
 17 18  1  0
 17 19  2  0
 16 20  1  0
 20 21  1  0
 21 22  2  0
 21 23  1  0
 23 24  1  0
 24 25  1  0
 25 26  2  0
 25 27  1  0
 20 28  1  0
 28 29  2  0
 29 11  1  0
 28 14  1  0
  1 30  1  0
  1 31  1  0
  2 32  1  0
  3 33  1  0
  3 34  1  0
  4 35  1  0
  4 36  1  0
  5 37  1  1
  6 38  1  0
  7 39  1  0
  8 40  1  0
  9 41  1  0
  9 42  1  0
 10 43  1  0
 10 44  1  0
 12 45  1  0
 13 46  1  0
 15 47  1  0
 18 48  1  0
 23 49  1  0
 23 50  1  0
 24 51  1  0
 24 52  1  0
 29 53  1  0
M  CHG  2  18  -1  27  -1
M  END
>  <UniqueID>  (66) 
64

>  <SMILES>  (66) 
C=CCC[C@@H](O)C=CCCc1ccc2cc(C([NH-])=O)n(C(=O)CCC(=O)[O-])c2c1

>  <Energy>  (66) 
88.90255286948984

>  <Genealogy>  (66) 
C=CCC[C@@H](O)C=CCCc1ccc2cc(C([NH-])=O)n(C(=O)CCC(=O)[O-])c2c1 (protonated)
C=CCC[C@@H](O)C=CCCc1ccc2cc(C([NH-])=O)n(C(=O)CCC(=O)[O-])c2c1 (3D coordinates assigned)
C=CCC[C@@H](O)C=CCCc1ccc2cc(C([NH-])=O)n(C(=O)CCC(=O)[O-])c2c1 (optimized conformer: 88.90255286948984 kcal/mol)

>  <smiles>  (66) 
C=CCC[C@@H](O)C=CCCc1ccc2cc(C(N)=O)n(C(=O)CCC(=O)O)c2c1

>  <score_type>  (66) 
oracle

>  <origin>  (66) 
adg

>  <m_score__min__energy>  (66) 
-12.720000000000001

>  <m_primary>  (66) 
energy

$$$$
66:0
     RDKit          3D

 43 44  0  0  0  0  0  0  0  0999 V2000
   -1.6470   25.1500  -26.0290 C   0  0  0  0  0  0  0  0  0  0  0  0
   -2.8870   25.5590  -26.6890 N   0  0  0  0  0  0  0  0  0  0  0  0
   -3.9410   24.5640  -26.4570 C   0  0  0  0  0  0  0  0  0  0  0  0
   -4.2790   23.8270  -27.7540 C   0  0  0  0  0  0  0  0  0  0  0  0
   -4.4160   24.7750  -28.8550 N   0  0  0  0  0  0  0  0  0  0  0  0
   -4.0090   24.4980  -30.2000 C   0  0  0  0  0  0  0  0  0  0  0  0
   -4.4900   25.1580  -31.1610 O   0  0  0  0  0  0  0  0  0  0  0  0
   -3.0680   23.4450  -30.4530 N   0  0  0  0  0  0  0  0  0  0  0  0
   -1.7610   23.3760  -30.0770 C   0  0  0  0  0  0  0  0  0  0  0  0
   -1.0520   24.3590  -29.2290 C   0  0  0  0  0  0  0  0  0  0  0  0
   -1.5660   25.6820  -29.0950 N   0  0  0  0  0  0  0  0  0  0  0  0
    0.0170   24.0500  -28.6410 O   0  0  0  0  0  0  0  0  0  0  0  0
   -1.1800   22.2020  -30.5520 C   0  0  0  0  0  0  0  0  0  0  0  0
   -2.1820   21.5500  -31.2370 C   0  0  0  0  0  0  0  0  0  0  0  0
   -2.1610   20.3380  -31.9230 C   0  0  0  0  0  0  0  0  0  0  0  0
   -3.3410   19.9240  -32.5640 C   0  0  0  0  0  0  0  0  0  0  0  0
   -4.5060   20.7320  -32.5240 C   0  0  0  0  0  0  0  0  0  0  0  0
   -5.7680   20.2760  -33.2110 C   0  0  0  0  0  0  0  0  0  0  0  0
   -7.0290   20.7040  -32.4450 C   0  0  0  0  0  0  0  0  0  0  0  0
   -8.0700   19.5830  -32.3150 C   0  0  0  0  0  0  0  0  0  0  0  0
   -9.2060   19.8570  -33.0920 O   0  0  0  0  0  0  0  0  0  0  0  0
   -4.4900   21.9500  -31.8110 C   0  0  0  0  0  0  0  0  0  0  0  0
   -3.3090   22.3250  -31.1630 C   0  0  0  0  0  0  0  0  0  0  0  0
   -1.7805   25.1940  -24.9380 H   0  0  0  0  0  0  0  0  0  0  0  0
   -1.3954   24.1213  -26.3264 H   0  0  0  0  0  0  0  0  0  0  0  0
   -0.8327   25.8272  -26.3264 H   0  0  0  0  0  0  0  0  0  0  0  0
   -2.7010   25.6010  -27.7180 H   0  0  0  0  0  0  0  0  0  0  0  0
   -3.5937   23.8372  -25.7079 H   0  0  0  0  0  0  0  0  0  0  0  0
   -4.8431   25.0798  -26.0963 H   0  0  0  0  0  0  0  0  0  0  0  0
   -3.4739   23.1146  -27.9868 H   0  0  0  0  0  0  0  0  0  0  0  0
   -5.2307   23.2911  -27.6231 H   0  0  0  0  0  0  0  0  0  0  0  0
   -2.5870   25.8490  -28.9510 H   0  0  0  0  0  0  0  0  0  0  0  0
   -0.1419   21.8669  -30.4102 H   0  0  0  0  0  0  0  0  0  0  0  0
   -1.2491   19.7240  -31.9618 H   0  0  0  0  0  0  0  0  0  0  0  0
   -3.3614   18.9646  -33.1017 H   0  0  0  0  0  0  0  0  0  0  0  0
   -5.8004   20.7128  -34.2200 H   0  0  0  0  0  0  0  0  0  0  0  0
   -5.7532   19.1769  -33.2526 H   0  0  0  0  0  0  0  0  0  0  0  0
   -6.7324   21.0240  -31.4352 H   0  0  0  0  0  0  0  0  0  0  0  0
   -7.4970   21.5187  -33.0170 H   0  0  0  0  0  0  0  0  0  0  0  0
   -7.6230   18.6365  -32.6531 H   0  0  0  0  0  0  0  0  0  0  0  0
   -8.3763   19.5107  -31.2610 H   0  0  0  0  0  0  0  0  0  0  0  0
   -8.9470   19.7030  -34.0380 H   0  0  0  0  0  0  0  0  0  0  0  0
   -5.3846   22.5885  -31.7662 H   0  0  0  0  0  0  0  0  0  0  0  0
  1  2  1  0
  2  3  1  0
  3  4  1  0
  4  5  1  0
  5  6  1  0
  6  7  2  0
  6  8  1  0
  8  9  1  0
  9 10  1  0
 10 11  1  0
 10 12  2  0
  9 13  2  0
 13 14  1  0
 14 15  2  0
 15 16  1  0
 16 17  2  0
 17 18  1  0
 18 19  1  0
 19 20  1  0
 20 21  1  0
 17 22  1  0
 22 23  2  0
 23  8  1  0
 23 14  1  0
  1 24  1  0
  1 25  1  0
  1 26  1  0
  2 27  1  0
  3 28  1  0
  3 29  1  0
  4 30  1  0
  4 31  1  0
 11 32  1  0
 13 33  1  0
 15 34  1  0
 16 35  1  0
 18 36  1  0
 18 37  1  0
 19 38  1  0
 19 39  1  0
 20 40  1  0
 20 41  1  0
 21 42  1  0
 22 43  1  0
M  CHG  2   5  -1  11  -1
M  END
>  <UniqueID>  (67) 
65

>  <SMILES>  (67) 
CNCC[N-]C(=O)n1c(C([NH-])=O)cc2ccc(CCCO)cc21

>  <Energy>  (67) 
70.91288584833953

>  <Genealogy>  (67) 
CNCC[N-]C(=O)n1c(C([NH-])=O)cc2ccc(CCCO)cc21 (protonated)
CNCC[N-]C(=O)n1c(C([NH-])=O)cc2ccc(CCCO)cc21 (3D coordinates assigned)
CNCC[N-]C(=O)n1c(C([NH-])=O)cc2ccc(CCCO)cc21 (optimized conformer: 70.91288584833953 kcal/mol)

>  <smiles>  (67) 
CNCCNC(=O)n1c(C(N)=O)cc2ccc(CCCO)cc21

>  <score_type>  (67) 
oracle

>  <origin>  (67) 
adg

>  <m_score__min__energy>  (67) 
-9.8399999999999999

>  <m_primary>  (67) 
energy

$$$$
67:0
     RDKit          3D

 41 43  0  0  0  0  0  0  0  0999 V2000
   -0.9065   23.6580  -29.9637 H   0  0  0  0  0  0  0  0  0  0  0  0
   -1.9440   23.7570  -29.6120 C   0  0  0  0  0  0  0  0  0  0  0  0
   -2.3480   24.8740  -29.1000 N   0  0  0  0  0  0  0  0  0  0  0  0
   -1.4900   25.9410  -28.9620 O   0  0  0  0  0  0  0  0  0  0  0  0
   -0.8910   26.2140  -27.7060 C   0  0  0  0  0  0  0  0  0  0  0  0
   -1.5720   25.9036  -26.8998 H   0  0  0  0  0  0  0  0  0  0  0  0
    0.0543   25.6578  -27.6219 H   0  0  0  0  0  0  0  0  0  0  0  0
   -0.6907   27.2923  -27.6219 H   0  0  0  0  0  0  0  0  0  0  0  0
   -2.8860   22.5980  -29.7270 C   0  0  0  0  0  0  0  0  0  0  0  0
   -2.3371   21.6703  -29.5077 H   0  0  0  0  0  0  0  0  0  0  0  0
   -3.7059   22.7521  -29.0100 H   0  0  0  0  0  0  0  0  0  0  0  0
   -3.4840   22.4960  -31.1060 C   0  0  0  0  0  0  0  0  0  0  0  0
   -2.7190   22.3040  -32.0890 O   0  0  0  0  0  0  0  0  0  0  0  0
   -4.9010   22.5990  -31.3280 N   0  0  0  0  0  0  0  0  0  0  0  0
   -5.7180   23.6160  -30.9370 C   0  0  0  0  0  0  0  0  0  0  0  0
   -5.2860   24.8720  -30.2890 C   0  0  0  0  0  0  0  0  0  0  0  0
   -4.4120   25.5850  -30.8480 O   0  0  0  0  0  0  0  0  0  0  0  0
   -5.8030   25.2720  -29.0180 N   0  0  0  0  0  0  0  0  0  0  0  0
   -6.3650   24.6190  -28.4310 H   0  0  0  0  0  0  0  0  0  0  0  0
   -5.5290   26.1930  -28.6100 H   0  0  0  0  0  0  0  0  0  0  0  0
   -7.0460   23.3220  -31.2350 C   0  0  0  0  0  0  0  0  0  0  0  0
   -7.9292   23.9468  -31.0360 H   0  0  0  0  0  0  0  0  0  0  0  0
   -7.0170   22.0820  -31.8320 C   0  0  0  0  0  0  0  0  0  0  0  0
   -8.0590   21.3040  -32.3270 C   0  0  0  0  0  0  0  0  0  0  0  0
   -9.0983   21.6631  -32.2961 H   0  0  0  0  0  0  0  0  0  0  0  0
   -7.7440   20.0470  -32.8670 C   0  0  0  0  0  0  0  0  0  0  0  0
   -8.5455   19.4161  -33.2788 H   0  0  0  0  0  0  0  0  0  0  0  0
   -6.4020   19.5800  -32.8880 C   0  0  0  0  0  0  0  0  0  0  0  0
   -6.0810   18.2480  -33.4590 C   0  0  0  0  0  0  0  0  0  0  0  0
   -6.9460   17.1580  -33.2610 C   0  0  0  0  0  0  0  0  0  0  0  0
   -7.8685   17.2829  -32.6750 H   0  0  0  0  0  0  0  0  0  0  0  0
   -6.6270   15.9150  -33.8130 C   0  0  0  0  0  0  0  0  0  0  0  0
   -7.3013   15.0591  -33.6618 H   0  0  0  0  0  0  0  0  0  0  0  0
   -5.4870   15.7590  -34.5360 N   0  0  0  0  0  0  0  0  0  0  0  0
   -4.6300   16.7930  -34.7440 C   0  0  0  0  0  0  0  0  0  0  0  0
   -3.7139   16.6367  -35.3325 H   0  0  0  0  0  0  0  0  0  0  0  0
   -4.9100   18.0540  -34.2120 C   0  0  0  0  0  0  0  0  0  0  0  0
   -4.2172   18.8914  -34.3816 H   0  0  0  0  0  0  0  0  0  0  0  0
   -5.3750   20.3980  -32.3610 C   0  0  0  0  0  0  0  0  0  0  0  0
   -4.3321   20.0486  -32.3431 H   0  0  0  0  0  0  0  0  0  0  0  0
   -5.7140   21.6610  -31.8630 C   0  0  0  0  0  0  0  0  0  0  0  0
  1  2  1  0
  2  3  2  0
  3  4  1  0
  4  5  1  0
  5  6  1  0
  5  7  1  0
  5  8  1  0
  2  9  1  0
  9 10  1  0
  9 11  1  0
  9 12  1  0
 12 13  2  0
 12 14  1  0
 14 15  1  0
 15 16  1  0
 16 17  2  0
 16 18  1  0
 18 19  1  0
 18 20  1  0
 15 21  2  0
 21 22  1  0
 21 23  1  0
 23 24  2  0
 24 25  1  0
 24 26  1  0
 26 27  1  0
 26 28  2  0
 28 29  1  0
 29 30  2  0
 30 31  1  0
 30 32  1  0
 32 33  1  0
 32 34  2  0
 34 35  1  0
 35 36  1  0
 35 37  2  0
 37 38  1  0
 28 39  1  0
 39 40  1  0
 39 41  2  0
 41 14  1  0
 41 23  1  0
 37 29  1  0
M  END
>  <UniqueID>  (68) 
66

>  <SMILES>  (68) 
CO/N=C/CC(=O)n1c(C(N)=O)cc2ccc(-c3ccncc3)cc21

>  <Energy>  (68) 
82.87090113940177

>  <Genealogy>  (68) 
CO/N=C/CC(=O)n1c(C(N)=O)cc2ccc(-c3ccncc3)cc21 (cis-trans isomerization)
CO/N=C/CC(=O)n1c(C(N)=O)cc2ccc(-c3ccncc3)cc21 (3D coordinates assigned)
CO/N=C/CC(=O)n1c(C(N)=O)cc2ccc(-c3ccncc3)cc21 (optimized conformer: 82.87090113940177 kcal/mol)

>  <smiles>  (68) 
CO/N=C/CC(=O)n1c(C(N)=O)cc2ccc(-c3ccncc3)cc21

>  <score_type>  (68) 
oracle

>  <origin>  (68) 
adg

>  <m_score__min__energy>  (68) 
-10.300000000000001

>  <m_primary>  (68) 
energy

$$$$
68:0
     RDKit          3D

 31 32  0  0  0  0  0  0  0  0999 V2000
   -4.2210   25.5510  -30.6730 N   0  0  0  0  0  0  0  0  0  0  0  0
   -5.5780   25.1840  -30.4250 C   0  0  0  0  0  0  0  0  0  0  0  0
   -6.3570   26.0180  -29.8880 O   0  0  0  0  0  0  0  0  0  0  0  0
   -6.0990   23.8710  -30.8500 C   0  0  0  0  0  0  0  0  0  0  0  0
   -7.4480   23.6150  -31.0740 C   0  0  0  0  0  0  0  0  0  0  0  0
   -7.5030   22.3110  -31.5080 C   0  0  0  0  0  0  0  0  0  0  0  0
   -8.6030   21.5260  -31.8410 C   0  0  0  0  0  0  0  0  0  0  0  0
   -8.3740   20.1900  -32.2030 C   0  0  0  0  0  0  0  0  0  0  0  0
   -7.0570   19.6620  -32.2360 C   0  0  0  0  0  0  0  0  0  0  0  0
   -6.8320   18.2070  -32.5580 C   0  0  0  0  0  0  0  0  0  0  0  0
   -5.8540   17.6700  -31.7360 F   0  0  0  0  0  0  0  0  0  0  0  0
   -8.0120   17.5100  -32.3700 F   0  0  0  0  0  0  0  0  0  0  0  0
   -6.4230   18.0560  -33.8720 F   0  0  0  0  0  0  0  0  0  0  0  0
   -5.9670   20.4840  -31.8640 C   0  0  0  0  0  0  0  0  0  0  0  0
   -6.2220   21.8200  -31.5280 C   0  0  0  0  0  0  0  0  0  0  0  0
   -5.3460   22.7690  -31.1230 N   0  0  0  0  0  0  0  0  0  0  0  0
   -3.9360   22.6010  -30.8930 C   0  0  0  0  0  0  0  0  0  0  0  0
   -3.1140   22.8010  -31.8290 O   0  0  0  0  0  0  0  0  0  0  0  0
   -3.4820   22.1990  -29.6300 O   0  0  0  0  0  0  0  0  0  0  0  0
   -2.9770   23.1080  -28.6540 C   0  0  0  0  0  0  0  0  0  0  0  0
   -1.9950   24.0550  -29.2720 C   0  0  0  0  0  0  0  0  0  0  0  0
   -2.2780   25.2780  -29.3820 O   0  0  0  0  0  0  0  0  0  0  0  0
   -0.7780   23.5810  -29.7490 O   0  0  0  0  0  0  0  0  0  0  0  0
   -3.5900   24.9330  -31.2300 H   0  0  0  0  0  0  0  0  0  0  0  0
   -3.8690   26.4900  -30.3790 H   0  0  0  0  0  0  0  0  0  0  0  0
   -8.2909   24.3077  -30.9339 H   0  0  0  0  0  0  0  0  0  0  0  0
   -9.6216   21.9407  -31.8210 H   0  0  0  0  0  0  0  0  0  0  0  0
   -9.2252   19.5441  -32.4643 H   0  0  0  0  0  0  0  0  0  0  0  0
   -4.9429   20.0832  -31.8392 H   0  0  0  0  0  0  0  0  0  0  0  0
   -3.8132   23.6818  -28.2279 H   0  0  0  0  0  0  0  0  0  0  0  0
   -2.4676   22.5342  -27.8658 H   0  0  0  0  0  0  0  0  0  0  0  0
  1  2  1  0
  2  3  2  0
  2  4  1  0
  4  5  2  0
  5  6  1  0
  6  7  2  0
  7  8  1  0
  8  9  2  0
  9 10  1  0
 10 11  1  0
 10 12  1  0
 10 13  1  0
  9 14  1  0
 14 15  2  0
 15 16  1  0
 16 17  1  0
 17 18  2  0
 17 19  1  0
 19 20  1  0
 20 21  1  0
 21 22  2  0
 21 23  1  0
 16  4  1  0
 15  6  1  0
  1 24  1  0
  1 25  1  0
  5 26  1  0
  7 27  1  0
  8 28  1  0
 14 29  1  0
 20 30  1  0
 20 31  1  0
M  CHG  1  23  -1
M  END
>  <UniqueID>  (69) 
67

>  <SMILES>  (69) 
NC(=O)c1cc2ccc(C(F)(F)F)cc2n1C(=O)OCC(=O)[O-]

>  <Energy>  (69) 
69.04054386382896

>  <Genealogy>  (69) 
NC(=O)c1cc2ccc(C(F)(F)F)cc2n1C(=O)OCC(=O)[O-] (protonated)
NC(=O)c1cc2ccc(C(F)(F)F)cc2n1C(=O)OCC(=O)[O-] (3D coordinates assigned)
NC(=O)c1cc2ccc(C(F)(F)F)cc2n1C(=O)OCC(=O)[O-] (optimized conformer: 69.04054386382896 kcal/mol)

>  <smiles>  (69) 
NC(=O)c1cc2ccc(C(F)(F)F)cc2n1C(=O)OCC(=O)O

>  <score_type>  (69) 
oracle

>  <origin>  (69) 
adg

>  <m_score__min__energy>  (69) 
-10.43

>  <m_primary>  (69) 
energy

$$$$
69:0
     RDKit          3D

 44 47  0  0  0  0  0  0  0  0999 V2000
   -3.8780   25.6700  -30.8490 N   0  0  0  0  0  0  0  0  0  0  0  0
   -5.1370   25.1120  -30.4810 C   0  0  0  0  0  0  0  0  0  0  0  0
   -5.8790   25.7410  -29.6820 O   0  0  0  0  0  0  0  0  0  0  0  0
   -5.5370   23.7890  -31.0070 C   0  0  0  0  0  0  0  0  0  0  0  0
   -6.8560   23.4510  -31.3050 C   0  0  0  0  0  0  0  0  0  0  0  0
   -6.7950   22.1880  -31.8460 C   0  0  0  0  0  0  0  0  0  0  0  0
   -7.8160   21.3630  -32.3080 C   0  0  0  0  0  0  0  0  0  0  0  0
   -7.4670   20.0910  -32.7910 C   0  0  0  0  0  0  0  0  0  0  0  0
   -6.1140   19.6620  -32.8000 C   0  0  0  0  0  0  0  0  0  0  0  0
   -5.7580   18.3110  -33.3030 C   0  0  0  0  0  0  0  0  0  0  0  0
   -6.0670   17.1630  -32.5610 C   0  0  0  0  0  0  0  0  0  0  0  0
   -5.7260   15.9010  -33.0440 C   0  0  0  0  0  0  0  0  0  0  0  0
   -5.0710   15.7770  -34.2810 C   0  0  0  0  0  0  0  0  0  0  0  0
   -4.7090   14.4740  -34.7970 N   0  0  0  0  0  0  0  0  0  0  0  0
   -3.4420   14.1820  -35.4510 C   0  0  0  0  0  0  0  0  0  0  0  0
   -3.4210   12.6740  -35.6710 C   0  0  0  0  0  0  0  0  0  0  0  0
   -4.8760   12.2160  -35.5340 C   0  0  2  0  0  0  0  0  0  0  0  0
   -5.4760   12.0590  -36.7960 O   0  0  0  0  0  0  0  0  0  0  0  0
   -5.5750   13.3070  -34.7210 C   0  0  0  0  0  0  0  0  0  0  0  0
   -4.7800   16.9100  -34.9910 N   0  0  0  0  0  0  0  0  0  0  0  0
   -5.1040   18.1500  -34.5330 C   0  0  0  0  0  0  0  0  0  0  0  0
   -5.1060   20.5320  -32.3200 C   0  0  0  0  0  0  0  0  0  0  0  0
   -5.4810   21.8000  -31.8610 C   0  0  0  0  0  0  0  0  0  0  0  0
   -4.6950   22.7710  -31.3450 N   0  0  0  0  0  0  0  0  0  0  0  0
   -3.2730   22.6970  -31.1460 C   0  0  0  0  0  0  0  0  0  0  0  0
   -2.5320   22.1940  -32.0320 O   0  0  0  0  0  0  0  0  0  0  0  0
   -2.7010   23.2040  -29.9870 O   0  0  0  0  0  0  0  0  0  0  0  0
   -2.9880   25.2930  -30.4530 H   0  0  0  0  0  0  0  0  0  0  0  0
   -7.7547   24.0641  -31.1421 H   0  0  0  0  0  0  0  0  0  0  0  0
   -8.8641   21.6967  -32.2953 H   0  0  0  0  0  0  0  0  0  0  0  0
   -8.2523   19.4188  -33.1671 H   0  0  0  0  0  0  0  0  0  0  0  0
   -6.5809   17.2584  -31.5931 H   0  0  0  0  0  0  0  0  0  0  0  0
   -5.9694   15.0028  -32.4574 H   0  0  0  0  0  0  0  0  0  0  0  0
   -3.3783   14.7097  -36.4140 H   0  0  0  0  0  0  0  0  0  0  0  0
   -2.5881   14.5123  -34.8413 H   0  0  0  0  0  0  0  0  0  0  0  0
   -3.0373   12.4379  -36.6745 H   0  0  0  0  0  0  0  0  0  0  0  0
   -2.7655   12.1668  -34.9478 H   0  0  0  0  0  0  0  0  0  0  0  0
   -4.9482   11.2365  -35.0387 H   0  0  0  0  0  0  0  0  0  0  0  0
   -4.8280   11.5930  -37.3880 H   0  0  0  0  0  0  0  0  0  0  0  0
   -6.5614   13.5333  -35.1520 H   0  0  0  0  0  0  0  0  0  0  0  0
   -5.7407   12.9928  -33.6799 H   0  0  0  0  0  0  0  0  0  0  0  0
   -4.3070   16.8470  -35.9180 H   0  0  0  0  0  0  0  0  0  0  0  0
   -4.8501   19.0355  -35.1342 H   0  0  0  0  0  0  0  0  0  0  0  0
   -4.0516   20.2187  -32.3080 H   0  0  0  0  0  0  0  0  0  0  0  0
  1  2  1  0
  2  3  2  0
  2  4  1  0
  4  5  2  0
  5  6  1  0
  6  7  2  0
  7  8  1  0
  8  9  2  0
  9 10  1  0
 10 11  2  0
 11 12  1  0
 12 13  2  0
 13 14  1  0
 14 15  1  0
 15 16  1  0
 16 17  1  0
 17 18  1  0
 17 19  1  0
 13 20  1  0
 20 21  2  0
  9 22  1  0
 22 23  2  0
 23 24  1  0
 24 25  1  0
 25 26  2  0
 25 27  1  0
 24  4  1  0
 23  6  1  0
 21 10  1  0
 19 14  1  0
  1 28  1  0
  5 29  1  0
  7 30  1  0
  8 31  1  0
 11 32  1  0
 12 33  1  0
 15 34  1  0
 15 35  1  0
 16 36  1  0
 16 37  1  0
 17 38  1  1
 18 39  1  0
 19 40  1  0
 19 41  1  0
 20 42  1  0
 21 43  1  0
 22 44  1  0
M  CHG  3   1  -1  20   1  27  -1
M  END
>  <UniqueID>  (70) 
68

>  <SMILES>  (70) 
[NH-]C(=O)c1cc2ccc(-c3ccc(N4CC[C@H](O)C4)[nH+]c3)cc2n1C(=O)[O-]

>  <Energy>  (70) 
95.05790840568918

>  <Genealogy>  (70) 
[NH-]C(=O)c1cc2ccc(-c3ccc(N4CCC(O)C4)[nH+]c3)cc2n1C(=O)[O-] (protonated)
[NH-]C(=O)c1cc2ccc(-c3ccc(N4CC[C@H](O)C4)[nH+]c3)cc2n1C(=O)[O-] (chirality)
[NH-]C(=O)c1cc2ccc(-c3ccc(N4CC[C@H](O)C4)[nH+]c3)cc2n1C(=O)[O-] (3D coordinates assigned)
[NH-]C(=O)c1cc2ccc(-c3ccc(N4CC[C@H](O)C4)[nH+]c3)cc2n1C(=O)[O-] (nonaromatic ring conformer: 95.05790840568918 kcal/mol)

>  <smiles>  (70) 
NC(=O)c1cc2ccc(-c3ccc(N4CCC(O)C4)nc3)cc2n1C(=O)O

>  <score_type>  (70) 
oracle

>  <origin>  (70) 
adg

>  <m_score__min__energy>  (70) 
-10.140000000000001

>  <m_primary>  (70) 
energy

$$$$
70:0
     RDKit          3D

 61 63  0  0  0  0  0  0  0  0999 V2000
   -4.3140   13.2260  -30.8410 C   0  0  0  0  0  0  0  0  0  0  0  0
   -4.6040   13.7190  -32.1980 N   0  0  0  0  0  0  0  0  0  0  0  0
   -5.3590   12.7230  -32.9750 C   0  0  0  0  0  0  0  0  0  0  0  0
   -3.3980   14.2110  -32.9000 C   0  0  0  0  0  0  0  0  0  0  0  0
   -3.3580   13.8790  -34.4080 C   0  0  0  0  0  0  0  0  0  0  0  0
   -3.9940   14.9460  -35.1910 N   0  0  0  0  0  0  0  0  0  0  0  0
   -4.5230   16.1480  -34.5970 C   0  0  0  0  0  0  0  0  0  0  0  0
   -3.7330   17.3040  -34.4190 C   0  0  0  0  0  0  0  0  0  0  0  0
   -2.4400   17.3520  -34.8280 F   0  0  0  0  0  0  0  0  0  0  0  0
   -4.2870   18.4540  -33.8450 C   0  0  0  0  0  0  0  0  0  0  0  0
   -5.6310   18.4790  -33.4350 C   0  0  0  0  0  0  0  0  0  0  0  0
   -6.2120   19.7080  -32.8310 C   0  0  0  0  0  0  0  0  0  0  0  0
   -7.6230   19.8850  -32.7770 C   0  0  0  0  0  0  0  0  0  0  0  0
   -8.1810   21.0580  -32.2440 C   0  0  0  0  0  0  0  0  0  0  0  0
   -7.3120   22.0370  -31.7670 C   0  0  0  0  0  0  0  0  0  0  0  0
   -7.5820   23.2830  -31.2480 C   0  0  0  0  0  0  0  0  0  0  0  0
   -6.3340   23.8450  -30.9710 C   0  0  0  0  0  0  0  0  0  0  0  0
   -6.1390   25.1670  -30.3350 C   0  0  0  0  0  0  0  0  0  0  0  0
   -5.0710   26.0240  -30.7420 N   0  0  0  0  0  0  0  0  0  0  0  0
   -6.9360   25.5620  -29.4430 O   0  0  0  0  0  0  0  0  0  0  0  0
   -5.3370   22.9770  -31.3010 N   0  0  0  0  0  0  0  0  0  0  0  0
   -3.9220   23.2110  -31.2470 C   0  0  0  0  0  0  0  0  0  0  0  0
   -3.1600   22.6130  -32.0540 O   0  0  0  0  0  0  0  0  0  0  0  0
   -3.4110   24.1180  -30.3060 O   0  0  0  0  0  0  0  0  0  0  0  0
   -3.0140   23.8190  -28.9610 C   0  0  0  0  0  0  0  0  0  0  0  0
   -2.6150   22.3400  -28.8270 C   0  0  0  0  0  0  0  0  0  0  0  0
   -4.1440   24.1670  -27.9770 C   0  0  0  0  0  0  0  0  0  0  0  0
   -1.7930   24.6940  -28.6410 C   0  0  0  0  0  0  0  0  0  0  0  0
   -5.9500   21.8760  -31.7900 C   0  0  0  0  0  0  0  0  0  0  0  0
   -5.3640   20.7250  -32.3270 C   0  0  0  0  0  0  0  0  0  0  0  0
   -6.4170   17.3290  -33.6200 C   0  0  0  0  0  0  0  0  0  0  0  0
   -5.8730   16.1790  -34.2000 C   0  0  0  0  0  0  0  0  0  0  0  0
   -6.6600   15.0830  -34.3520 F   0  0  0  0  0  0  0  0  0  0  0  0
   -4.7263   13.9270  -30.1003 H   0  0  0  0  0  0  0  0  0  0  0  0
   -4.7737   12.2360  -30.7045 H   0  0  0  0  0  0  0  0  0  0  0  0
   -3.2254   13.1468  -30.7045 H   0  0  0  0  0  0  0  0  0  0  0  0
   -5.8779   12.0385  -32.2878 H   0  0  0  0  0  0  0  0  0  0  0  0
   -6.0975   13.2356  -33.6090 H   0  0  0  0  0  0  0  0  0  0  0  0
   -4.6660   12.1505  -33.6090 H   0  0  0  0  0  0  0  0  0  0  0  0
   -3.3562   15.3044  -32.7871 H   0  0  0  0  0  0  0  0  0  0  0  0
   -2.5380   13.6997  -32.4429 H   0  0  0  0  0  0  0  0  0  0  0  0
   -2.3106   13.7724  -34.7267 H   0  0  0  0  0  0  0  0  0  0  0  0
   -3.9059   12.9405  -34.5783 H   0  0  0  0  0  0  0  0  0  0  0  0
   -4.2280   14.7540  -36.1910 H   0  0  0  0  0  0  0  0  0  0  0  0
   -3.6624   19.3498  -33.7131 H   0  0  0  0  0  0  0  0  0  0  0  0
   -8.2847   19.0930  -33.1576 H   0  0  0  0  0  0  0  0  0  0  0  0
   -9.2711   21.1997  -32.2042 H   0  0  0  0  0  0  0  0  0  0  0  0
   -8.5700   23.7387  -31.0860 H   0  0  0  0  0  0  0  0  0  0  0  0
   -4.3570   25.7090  -31.4340 H   0  0  0  0  0  0  0  0  0  0  0  0
   -4.9690   26.9720  -30.3140 H   0  0  0  0  0  0  0  0  0  0  0  0
   -2.5434   22.0746  -27.7619 H   0  0  0  0  0  0  0  0  0  0  0  0
   -3.3752   21.7098  -29.3116 H   0  0  0  0  0  0  0  0  0  0  0  0
   -1.6409   22.1776  -29.3116 H   0  0  0  0  0  0  0  0  0  0  0  0
   -3.7793   24.0547  -26.9453 H   0  0  0  0  0  0  0  0  0  0  0  0
   -4.4660   25.2059  -28.1410 H   0  0  0  0  0  0  0  0  0  0  0  0
   -4.9947   23.4892  -28.1410 H   0  0  0  0  0  0  0  0  0  0  0  0
   -1.6771   24.7770  -27.5503 H   0  0  0  0  0  0  0  0  0  0  0  0
   -0.8905   24.2358  -29.0718 H   0  0  0  0  0  0  0  0  0  0  0  0
   -1.9368   25.6959  -29.0718 H   0  0  0  0  0  0  0  0  0  0  0  0
   -4.2702   20.6121  -32.3573 H   0  0  0  0  0  0  0  0  0  0  0  0
   -7.4710   17.3336  -33.3053 H   0  0  0  0  0  0  0  0  0  0  0  0
  1  2  1  0
  2  3  1  0
  2  4  1  0
  4  5  1  0
  5  6  1  0
  6  7  1  0
  7  8  2  0
  8  9  1  0
  8 10  1  0
 10 11  2  0
 11 12  1  0
 12 13  2  0
 13 14  1  0
 14 15  2  0
 15 16  1  0
 16 17  2  0
 17 18  1  0
 18 19  1  0
 18 20  2  0
 17 21  1  0
 21 22  1  0
 22 23  2  0
 22 24  1  0
 24 25  1  0
 25 26  1  0
 25 27  1  0
 25 28  1  0
 21 29  1  0
 29 30  2  0
 11 31  1  0
 31 32  2  0
 32 33  1  0
 32  7  1  0
 30 12  1  0
 29 15  1  0
  1 34  1  0
  1 35  1  0
  1 36  1  0
  3 37  1  0
  3 38  1  0
  3 39  1  0
  4 40  1  0
  4 41  1  0
  5 42  1  0
  5 43  1  0
  6 44  1  0
 10 45  1  0
 13 46  1  0
 14 47  1  0
 16 48  1  0
 19 49  1  0
 19 50  1  0
 26 51  1  0
 26 52  1  0
 26 53  1  0
 27 54  1  0
 27 55  1  0
 27 56  1  0
 28 57  1  0
 28 58  1  0
 28 59  1  0
 30 60  1  0
 31 61  1  0
M  END
>  <UniqueID>  (71) 
69

>  <SMILES>  (71) 
CN(C)CCNc1c(F)cc(-c2ccc3cc(C(N)=O)n(C(=O)OC(C)(C)C)c3c2)cc1F

>  <Energy>  (71) 
105.80987822834358

>  <Genealogy>  (71) 
CN(C)CCNc1c(F)cc(-c2ccc3cc(C(N)=O)n(C(=O)OC(C)(C)C)c3c2)cc1F (3D coordinates assigned)
CN(C)CCNc1c(F)cc(-c2ccc3cc(C(N)=O)n(C(=O)OC(C)(C)C)c3c2)cc1F (optimized conformer: 105.80987822834358 kcal/mol)

>  <smiles>  (71) 
CN(C)CCNc1c(F)cc(-c2ccc3cc(C(N)=O)n(C(=O)OC(C)(C)C)c3c2)cc1F

>  <score_type>  (71) 
oracle

>  <origin>  (71) 
adg

>  <m_score__min__energy>  (71) 
-9.3100000000000005

>  <m_primary>  (71) 
energy

$$$$
71:0
     RDKit          3D

 43 45  0  0  0  0  0  0  0  0999 V2000
   -8.9210   20.9080  -31.6030 C   0  0  0  0  0  0  0  0  0  0  0  0
   -9.4200   19.7980  -32.3130 O   0  0  0  0  0  0  0  0  0  0  0  0
   -9.1010   18.6140  -31.6140 C   0  0  0  0  0  0  0  0  0  0  0  0
   -7.9770   17.8730  -32.3360 C   0  0  0  0  0  0  0  0  0  0  0  0
   -7.3080   18.7530  -33.2950 N   0  0  0  0  0  0  0  0  0  0  0  0
   -5.8870   18.7340  -33.5120 C   0  0  0  0  0  0  0  0  0  0  0  0
   -5.3580   17.9870  -34.5210 N   0  0  0  0  0  0  0  0  0  0  0  0
   -4.0240   17.9480  -34.7670 C   0  0  0  0  0  0  0  0  0  0  0  0
   -3.1440   18.6860  -33.9760 C   0  0  0  0  0  0  0  0  0  0  0  0
   -3.6450   19.4680  -32.9230 C   0  0  0  0  0  0  0  0  0  0  0  0
   -2.7140   20.2480  -32.0710 C   0  0  0  0  0  0  0  0  0  0  0  0
   -1.4150   19.7510  -31.7920 C   0  0  0  0  0  0  0  0  0  0  0  0
   -0.5340   20.4670  -30.9670 C   0  0  0  0  0  0  0  0  0  0  0  0
   -0.9680   21.6810  -30.4450 C   0  0  0  0  0  0  0  0  0  0  0  0
   -0.3380   22.5490  -29.5840 C   0  0  0  0  0  0  0  0  0  0  0  0
   -1.2470   23.5820  -29.3720 C   0  0  0  0  0  0  0  0  0  0  0  0
   -0.9630   24.7570  -28.5240 C   0  0  0  0  0  0  0  0  0  0  0  0
   -2.0060   25.6370  -28.1020 N   0  0  0  0  0  0  0  0  0  0  0  0
    0.2290   25.0160  -28.2060 O   0  0  0  0  0  0  0  0  0  0  0  0
   -2.3970   23.3600  -30.0690 N   0  0  0  0  0  0  0  0  0  0  0  0
   -3.6050   24.1360  -30.0210 C   0  0  0  0  0  0  0  0  0  0  0  0
   -3.6340   25.2910  -30.5250 O   0  0  0  0  0  0  0  0  0  0  0  0
   -5.0710   23.4790  -29.3150 Cl  0  0  0  0  0  0  0  0  0  0  0  0
   -2.2120   22.1900  -30.7190 C   0  0  0  0  0  0  0  0  0  0  0  0
   -3.1220   21.4820  -31.5120 C   0  0  0  0  0  0  0  0  0  0  0  0
   -5.0340   19.4950  -32.6950 C   0  0  0  0  0  0  0  0  0  0  0  0
   -5.5560   20.2730  -31.7120 F   0  0  0  0  0  0  0  0  0  0  0  0
   -9.0054   20.7202  -30.5224 H   0  0  0  0  0  0  0  0  0  0  0  0
   -7.8648   21.0669  -31.8661 H   0  0  0  0  0  0  0  0  0  0  0  0
   -9.5032   21.8035  -31.8661 H   0  0  0  0  0  0  0  0  0  0  0  0
   -8.7748   18.8684  -30.5948 H   0  0  0  0  0  0  0  0  0  0  0  0
   -9.9906   17.9685  -31.5685 H   0  0  0  0  0  0  0  0  0  0  0  0
   -7.2430   17.5214  -31.5960 H   0  0  0  0  0  0  0  0  0  0  0  0
   -8.4090   17.0206  -32.8808 H   0  0  0  0  0  0  0  0  0  0  0  0
   -7.9030   19.4130  -33.8450 H   0  0  0  0  0  0  0  0  0  0  0  0
   -3.6359   17.3328  -35.5922 H   0  0  0  0  0  0  0  0  0  0  0  0
   -2.0628   18.6556  -34.1760 H   0  0  0  0  0  0  0  0  0  0  0  0
   -1.0945   18.7931  -32.2275 H   0  0  0  0  0  0  0  0  0  0  0  0
    0.4701   20.0796  -30.7399 H   0  0  0  0  0  0  0  0  0  0  0  0
    0.6696   22.4484  -29.1543 H   0  0  0  0  0  0  0  0  0  0  0  0
   -1.7900   26.4340  -27.4620 H   0  0  0  0  0  0  0  0  0  0  0  0
   -2.9690   25.5640  -28.4960 H   0  0  0  0  0  0  0  0  0  0  0  0
   -4.1322   21.8762  -31.6967 H   0  0  0  0  0  0  0  0  0  0  0  0
  1  2  1  0
  2  3  1  0
  3  4  1  0
  4  5  1  0
  5  6  1  0
  6  7  2  0
  7  8  1  0
  8  9  2  0
  9 10  1  0
 10 11  1  0
 11 12  2  0
 12 13  1  0
 13 14  2  0
 14 15  1  0
 15 16  2  0
 16 17  1  0
 17 18  1  0
 17 19  2  0
 16 20  1  0
 20 21  1  0
 21 22  2  0
 21 23  1  0
 20 24  1  0
 24 25  2  0
 10 26  2  0
 26 27  1  0
 26  6  1  0
 25 11  1  0
 24 14  1  0
  1 28  1  0
  1 29  1  0
  1 30  1  0
  3 31  1  0
  3 32  1  0
  4 33  1  0
  4 34  1  0
  5 35  1  0
  8 36  1  0
  9 37  1  0
 12 38  1  0
 13 39  1  0
 15 40  1  0
 18 41  1  0
 18 42  1  0
 25 43  1  0
M  END
>  <UniqueID>  (72) 
70

>  <SMILES>  (72) 
COCCNc1nccc(-c2ccc3cc(C(N)=O)n(C(=O)Cl)c3c2)c1F

>  <Energy>  (72) 
90.14522510404666

>  <Genealogy>  (72) 
COCCNc1nccc(-c2ccc3cc(C(N)=O)n(C(=O)Cl)c3c2)c1F (3D coordinates assigned)
COCCNc1nccc(-c2ccc3cc(C(N)=O)n(C(=O)Cl)c3c2)c1F (optimized conformer: 90.14522510404666 kcal/mol)

>  <smiles>  (72) 
COCCNc1nccc(-c2ccc3cc(C(N)=O)n(C(=O)Cl)c3c2)c1F

>  <score_type>  (72) 
oracle

>  <origin>  (72) 
adg

>  <m_score__min__energy>  (72) 
-8.6699999999999999

>  <m_primary>  (72) 
energy

$$$$
72:0
     RDKit          3D

 45 47  0  0  0  0  0  0  0  0999 V2000
   -5.4660   25.6220  -30.7560 C   0  0  0  0  0  0  0  0  0  0  0  0
   -4.2180   24.9450  -30.8450 O   0  0  0  0  0  0  0  0  0  0  0  0
   -3.9220   23.8070  -30.0890 C   0  0  0  0  0  0  0  0  0  0  0  0
   -4.7150   23.4170  -29.1890 O   0  0  0  0  0  0  0  0  0  0  0  0
   -2.6980   23.0930  -30.3240 N   0  0  0  0  0  0  0  0  0  0  0  0
   -1.4670   23.3540  -29.7980 C   0  0  0  0  0  0  0  0  0  0  0  0
   -1.1040   24.5340  -28.9850 C   0  0  0  0  0  0  0  0  0  0  0  0
   -1.9620   25.6720  -28.9650 N   0  0  0  0  0  0  0  0  0  0  0  0
   -0.0630   24.5340  -28.2780 O   0  0  0  0  0  0  0  0  0  0  0  0
   -0.5480   22.3880  -30.2030 C   0  0  0  0  0  0  0  0  0  0  0  0
   -1.2580   21.5240  -31.0050 C   0  0  0  0  0  0  0  0  0  0  0  0
   -0.8400   20.3770  -31.6680 C   0  0  0  0  0  0  0  0  0  0  0  0
   -1.7940   19.6590  -32.4080 C   0  0  0  0  0  0  0  0  0  0  0  0
   -3.1510   20.0870  -32.4720 C   0  0  0  0  0  0  0  0  0  0  0  0
   -4.1350   19.3380  -33.2350 N   0  0  0  0  0  0  0  0  0  0  0  0
   -3.9030   17.9250  -33.5530 C   0  0  0  0  0  0  0  0  0  0  0  0
   -5.4010   19.9500  -33.6670 C   0  0  0  0  0  0  0  0  0  0  0  0
   -6.5750   19.3950  -32.8520 C   0  0  0  0  0  0  0  0  0  0  0  0
   -7.4810   20.5060  -32.4110 C   0  0  0  0  0  0  0  0  0  0  0  0
   -8.8660   20.3040  -32.3060 C   0  0  0  0  0  0  0  0  0  0  0  0
   -9.6860   21.3670  -31.9270 C   0  0  0  0  0  0  0  0  0  0  0  0
   -9.1260   22.6190  -31.6670 C   0  0  0  0  0  0  0  0  0  0  0  0
   -7.7450   22.7880  -31.7920 C   0  0  0  0  0  0  0  0  0  0  0  0
   -6.9620   21.7400  -32.1620 N   0  0  0  0  0  0  0  0  0  0  0  0
   -3.5270   21.2650  -31.7760 C   0  0  0  0  0  0  0  0  0  0  0  0
   -2.5510   21.9690  -31.0630 C   0  0  0  0  0  0  0  0  0  0  0  0
   -5.7306   25.7656  -29.6980 H   0  0  0  0  0  0  0  0  0  0  0  0
   -5.3879   26.6014  -31.2506 H   0  0  0  0  0  0  0  0  0  0  0  0
   -6.2444   25.0225  -31.2506 H   0  0  0  0  0  0  0  0  0  0  0  0
   -2.9330   25.6190  -29.3440 H   0  0  0  0  0  0  0  0  0  0  0  0
    0.5180   22.3287  -29.9381 H   0  0  0  0  0  0  0  0  0  0  0  0
    0.2062   20.0413  -31.6151 H   0  0  0  0  0  0  0  0  0  0  0  0
   -1.4878   18.7505  -32.9474 H   0  0  0  0  0  0  0  0  0  0  0  0
   -3.8086   17.3499  -32.6201 H   0  0  0  0  0  0  0  0  0  0  0  0
   -4.7495   17.5372  -34.1387 H   0  0  0  0  0  0  0  0  0  0  0  0
   -2.9769   17.8282  -34.1387 H   0  0  0  0  0  0  0  0  0  0  0  0
   -5.3437   21.0390  -33.5228 H   0  0  0  0  0  0  0  0  0  0  0  0
   -5.5642   19.7146  -34.7291 H   0  0  0  0  0  0  0  0  0  0  0  0
   -7.1448   18.6884  -33.4733 H   0  0  0  0  0  0  0  0  0  0  0  0
   -6.1796   18.8842  -31.9617 H   0  0  0  0  0  0  0  0  0  0  0  0
   -9.3008   19.3166  -32.5206 H   0  0  0  0  0  0  0  0  0  0  0  0
  -10.7719   21.2189  -31.8332 H   0  0  0  0  0  0  0  0  0  0  0  0
   -9.7649   23.4628  -31.3671 H   0  0  0  0  0  0  0  0  0  0  0  0
   -7.2908   23.7695  -31.5910 H   0  0  0  0  0  0  0  0  0  0  0  0
   -4.5684   21.6186  -31.7968 H   0  0  0  0  0  0  0  0  0  0  0  0
  1  2  1  0
  2  3  1  0
  3  4  2  0
  3  5  1  0
  5  6  1  0
  6  7  1  0
  7  8  1  0
  7  9  2  0
  6 10  2  0
 10 11  1  0
 11 12  2  0
 12 13  1  0
 13 14  2  0
 14 15  1  0
 15 16  1  0
 15 17  1  0
 17 18  1  0
 18 19  1  0
 19 20  2  0
 20 21  1  0
 21 22  2  0
 22 23  1  0
 23 24  2  0
 14 25  1  0
 25 26  2  0
 26  5  1  0
 26 11  1  0
 24 19  1  0
  1 27  1  0
  1 28  1  0
  1 29  1  0
  8 30  1  0
 10 31  1  0
 12 32  1  0
 13 33  1  0
 16 34  1  0
 16 35  1  0
 16 36  1  0
 17 37  1  0
 17 38  1  0
 18 39  1  0
 18 40  1  0
 20 41  1  0
 21 42  1  0
 22 43  1  0
 23 44  1  0
 25 45  1  0
M  CHG  1   8  -1
M  END
>  <UniqueID>  (73) 
71

>  <SMILES>  (73) 
COC(=O)n1c(C([NH-])=O)cc2ccc(N(C)CCc3ccccn3)cc21

>  <Energy>  (73) 
84.03933128100851

>  <Genealogy>  (73) 
COC(=O)n1c(C([NH-])=O)cc2ccc(N(C)CCc3ccccn3)cc21 (protonated)
COC(=O)n1c(C([NH-])=O)cc2ccc(N(C)CCc3ccccn3)cc21 (3D coordinates assigned)
COC(=O)n1c(C([NH-])=O)cc2ccc(N(C)CCc3ccccn3)cc21 (optimized conformer: 84.03933128100851 kcal/mol)

>  <smiles>  (73) 
COC(=O)n1c(C(N)=O)cc2ccc(N(C)CCc3ccccn3)cc21

>  <score_type>  (73) 
oracle

>  <origin>  (73) 
adg

>  <m_score__min__energy>  (73) 
-10.699999999999999

>  <m_primary>  (73) 
energy

$$$$
73:0
     RDKit          3D

 41 43  0  0  0  0  0  0  0  0999 V2000
   -4.7570   13.0370  -34.1150 C   0  0  0  0  0  0  0  0  0  0  0  0
   -4.5730   14.7280  -33.5800 S   0  0  0  0  0  0  0  0  0  0  0  0
   -4.9740   14.7930  -32.1320 O   0  0  0  0  0  0  0  0  0  0  0  0
   -3.1190   15.0970  -33.6820 O   0  0  0  0  0  0  0  0  0  0  0  0
   -5.5500   15.8810  -34.4710 N   0  0  0  0  0  0  0  0  0  0  0  0
   -4.8080   17.0650  -34.9490 C   0  0  0  0  0  0  0  0  0  0  0  0
   -4.7180   18.2020  -33.9160 C   0  0  0  0  0  0  0  0  0  0  0  0
   -5.9960   18.4090  -33.2320 N   0  0  0  0  0  0  0  0  0  0  0  0
   -6.3030   19.7130  -32.7060 C   0  0  0  0  0  0  0  0  0  0  0  0
   -7.6520   20.1330  -32.6060 C   0  0  0  0  0  0  0  0  0  0  0  0
   -7.9710   21.4030  -32.0980 C   0  0  0  0  0  0  0  0  0  0  0  0
   -6.9240   22.2330  -31.7100 C   0  0  0  0  0  0  0  0  0  0  0  0
   -6.9530   23.5040  -31.1850 C   0  0  0  0  0  0  0  0  0  0  0  0
   -5.6180   23.8540  -30.9950 C   0  0  0  0  0  0  0  0  0  0  0  0
   -5.1870   25.1940  -30.5470 C   0  0  0  0  0  0  0  0  0  0  0  0
   -3.8880   25.6720  -30.8880 N   0  0  0  0  0  0  0  0  0  0  0  0
   -5.9330   25.8990  -29.8200 O   0  0  0  0  0  0  0  0  0  0  0  0
   -4.7950   22.8350  -31.3760 N   0  0  0  0  0  0  0  0  0  0  0  0
   -3.3620   22.7820  -31.2740 C   0  0  0  0  0  0  0  0  0  0  0  0
   -2.7800   23.2140  -30.2450 O   0  0  0  0  0  0  0  0  0  0  0  0
   -2.6020   22.2720  -32.3200 O   0  0  0  0  0  0  0  0  0  0  0  0
   -5.6110   21.8500  -31.8150 C   0  0  0  0  0  0  0  0  0  0  0  0
   -5.2660   20.5810  -32.2940 C   0  0  0  0  0  0  0  0  0  0  0  0
   -6.7060   17.2330  -32.7290 C   0  0  0  0  0  0  0  0  0  0  0  0
   -6.8430   16.2000  -33.8430 C   0  0  0  0  0  0  0  0  0  0  0  0
   -4.8285   12.3799  -33.2357 H   0  0  0  0  0  0  0  0  0  0  0  0
   -5.6709   12.9411  -34.7197 H   0  0  0  0  0  0  0  0  0  0  0  0
   -3.8851   12.7468  -34.7197 H   0  0  0  0  0  0  0  0  0  0  0  0
   -3.7862   16.7518  -35.2095 H   0  0  0  0  0  0  0  0  0  0  0  0
   -5.3609   17.4613  -35.8134 H   0  0  0  0  0  0  0  0  0  0  0  0
   -3.9507   17.9472  -33.1701 H   0  0  0  0  0  0  0  0  0  0  0  0
   -4.4565   19.1296  -34.4462 H   0  0  0  0  0  0  0  0  0  0  0  0
   -8.4579   19.4578  -32.9294 H   0  0  0  0  0  0  0  0  0  0  0  0
   -9.0171   21.7315  -32.0096 H   0  0  0  0  0  0  0  0  0  0  0  0
   -7.8409   24.1140  -30.9626 H   0  0  0  0  0  0  0  0  0  0  0  0
   -3.0360   25.2910  -30.4200 H   0  0  0  0  0  0  0  0  0  0  0  0
   -4.2133   20.2666  -32.3486 H   0  0  0  0  0  0  0  0  0  0  0  0
   -6.1420   16.7956  -31.8920 H   0  0  0  0  0  0  0  0  0  0  0  0
   -7.7069   17.5316  -32.3838 H   0  0  0  0  0  0  0  0  0  0  0  0
   -7.2680   15.2778  -33.4200 H   0  0  0  0  0  0  0  0  0  0  0  0
   -7.4978   16.6253  -34.6178 H   0  0  0  0  0  0  0  0  0  0  0  0
  1  2  1  0
  2  3  2  0
  2  4  2  0
  2  5  1  0
  5  6  1  0
  6  7  1  0
  7  8  1  0
  8  9  1  0
  9 10  2  0
 10 11  1  0
 11 12  2  0
 12 13  1  0
 13 14  2  0
 14 15  1  0
 15 16  1  0
 15 17  2  0
 14 18  1  0
 18 19  1  0
 19 20  2  0
 19 21  1  0
 18 22  1  0
 22 23  2  0
  8 24  1  0
 24 25  1  0
 25  5  1  0
 23  9  1  0
 22 12  1  0
  1 26  1  0
  1 27  1  0
  1 28  1  0
  6 29  1  0
  6 30  1  0
  7 31  1  0
  7 32  1  0
 10 33  1  0
 11 34  1  0
 13 35  1  0
 16 36  1  0
 23 37  1  0
 24 38  1  0
 24 39  1  0
 25 40  1  0
 25 41  1  0
M  CHG  2  16  -1  21  -1
M  END
>  <UniqueID>  (74) 
72

>  <SMILES>  (74) 
CS(=O)(=O)N1CCN(c2ccc3cc(C([NH-])=O)n(C(=O)[O-])c3c2)CC1

>  <Energy>  (74) 
87.23286550021719

>  <Genealogy>  (74) 
CS(=O)(=O)N1CCN(c2ccc3cc(C([NH-])=O)n(C(=O)[O-])c3c2)CC1 (protonated)
CS(=O)(=O)N1CCN(c2ccc3cc(C([NH-])=O)n(C(=O)[O-])c3c2)CC1 (3D coordinates assigned)
CS(=O)(=O)N1CCN(c2ccc3cc(C([NH-])=O)n(C(=O)[O-])c3c2)CC1 (nonaromatic ring conformer: 87.23286550021719 kcal/mol)

>  <smiles>  (74) 
CS(=O)(=O)N1CCN(c2ccc3cc(C(N)=O)n(C(=O)O)c3c2)CC1

>  <score_type>  (74) 
oracle

>  <origin>  (74) 
adg

>  <m_score__min__energy>  (74) 
-11.369999999999999

>  <m_primary>  (74) 
energy

$$$$
74:0
     RDKit          3D

 47 48  0  0  0  0  0  0  0  0999 V2000
   -3.1560   21.1410  -33.4230 C   0  0  0  0  0  0  0  0  0  0  0  0
   -3.6210   19.9980  -32.9190 C   0  0  0  0  0  0  0  0  0  0  0  0
   -4.6250   19.1720  -33.6180 C   0  0  0  0  0  0  0  0  0  0  0  0
   -4.3030   18.5190  -34.6490 O   0  0  0  0  0  0  0  0  0  0  0  0
   -5.9690   19.0840  -33.1150 N   0  0  0  0  0  0  0  0  0  0  0  0
   -6.7800   17.9850  -33.1040 C   0  0  0  0  0  0  0  0  0  0  0  0
   -6.3700   16.6170  -33.4980 C   0  0  0  0  0  0  0  0  0  0  0  0
   -4.9910   16.2370  -33.5010 N   0  0  0  0  0  0  0  0  0  0  0  0
   -7.2370   15.7750  -33.8560 O   0  0  0  0  0  0  0  0  0  0  0  0
   -8.0380   18.3120  -32.6000 C   0  0  0  0  0  0  0  0  0  0  0  0
   -7.9760   19.6550  -32.3060 C   0  0  0  0  0  0  0  0  0  0  0  0
   -8.9560   20.5030  -31.7960 C   0  0  0  0  0  0  0  0  0  0  0  0
   -8.6260   21.8580  -31.6230 C   0  0  0  0  0  0  0  0  0  0  0  0
   -7.3370   22.3380  -31.9660 C   0  0  0  0  0  0  0  0  0  0  0  0
   -7.0170   23.8020  -31.8210 C   0  0  0  0  0  0  0  0  0  0  0  0
   -6.6260   24.1270  -30.3750 C   0  0  0  0  0  0  0  0  0  0  0  0
   -5.6160   25.2310  -30.3290 C   0  0  0  0  0  0  0  0  0  0  0  0
   -5.9160   26.3340  -29.7980 O   0  0  0  0  0  0  0  0  0  0  0  0
   -4.3190   25.0320  -30.8990 N   0  0  0  0  0  0  0  0  0  0  0  0
   -3.3610   24.0720  -30.3650 C   0  0  0  0  0  0  0  0  0  0  0  0
   -2.8790   24.5410  -29.0340 C   0  0  0  0  0  0  0  0  0  0  0  0
   -3.3050   23.9870  -27.9840 O   0  0  0  0  0  0  0  0  0  0  0  0
   -1.9860   25.6160  -28.9680 O   0  0  0  0  0  0  0  0  0  0  0  0
   -0.9760   25.7380  -27.9670 C   0  0  0  0  0  0  0  0  0  0  0  0
   -0.1920   24.4380  -27.8280 C   0  0  0  0  0  0  0  0  0  0  0  0
   -6.3750   21.4500  -32.4970 C   0  0  0  0  0  0  0  0  0  0  0  0
   -6.7190   20.0990  -32.6290 C   0  0  0  0  0  0  0  0  0  0  0  0
   -2.4076   21.7236  -32.8658 H   0  0  0  0  0  0  0  0  0  0  0  0
   -3.5207   21.5017  -34.3961 H   0  0  0  0  0  0  0  0  0  0  0  0
   -3.2418   19.6570  -31.9443 H   0  0  0  0  0  0  0  0  0  0  0  0
   -4.2380   16.8980  -33.2110 H   0  0  0  0  0  0  0  0  0  0  0  0
   -4.7210   15.2630  -33.7650 H   0  0  0  0  0  0  0  0  0  0  0  0
   -8.8978   17.6392  -32.4658 H   0  0  0  0  0  0  0  0  0  0  0  0
   -9.9558   20.1245  -31.5370 H   0  0  0  0  0  0  0  0  0  0  0  0
   -9.3756   22.5533  -31.2173 H   0  0  0  0  0  0  0  0  0  0  0  0
   -6.1803   24.0572  -32.4880 H   0  0  0  0  0  0  0  0  0  0  0  0
   -7.9084   24.3885  -32.0882 H   0  0  0  0  0  0  0  0  0  0  0  0
   -7.5239   24.4372  -29.8204 H   0  0  0  0  0  0  0  0  0  0  0  0
   -6.1844   23.2280  -29.9203 H   0  0  0  0  0  0  0  0  0  0  0  0
   -3.8469   23.0913  -30.2546 H   0  0  0  0  0  0  0  0  0  0  0  0
   -2.5081   23.9823  -31.0538 H   0  0  0  0  0  0  0  0  0  0  0  0
   -0.2858   26.5472  -28.2478 H   0  0  0  0  0  0  0  0  0  0  0  0
   -1.4587   25.9633  -27.0046 H   0  0  0  0  0  0  0  0  0  0  0  0
   -0.0523   24.2063  -26.7618 H   0  0  0  0  0  0  0  0  0  0  0  0
   -0.7481   23.6210  -28.3110 H   0  0  0  0  0  0  0  0  0  0  0  0
    0.7901   24.5487  -28.3110 H   0  0  0  0  0  0  0  0  0  0  0  0
   -5.3807   21.8108  -32.7992 H   0  0  0  0  0  0  0  0  0  0  0  0
  1  2  2  0
  2  3  1  0
  3  4  2  0
  3  5  1  0
  5  6  1  0
  6  7  1  0
  7  8  1  0
  7  9  2  0
  6 10  2  0
 10 11  1  0
 11 12  2  0
 12 13  1  0
 13 14  2  0
 14 15  1  0
 15 16  1  0
 16 17  1  0
 17 18  2  0
 17 19  1  0
 19 20  1  0
 20 21  1  0
 21 22  2  0
 21 23  1  0
 23 24  1  0
 24 25  1  0
 14 26  1  0
 26 27  2  0
 27  5  1  0
 27 11  1  0
  1 28  1  0
  1 29  1  0
  2 30  1  0
  8 31  1  0
  8 32  1  0
 10 33  1  0
 12 34  1  0
 13 35  1  0
 15 36  1  0
 15 37  1  0
 16 38  1  0
 16 39  1  0
 20 40  1  0
 20 41  1  0
 24 42  1  0
 24 43  1  0
 25 44  1  0
 25 45  1  0
 25 46  1  0
 26 47  1  0
M  CHG  1  19  -1
M  END
>  <UniqueID>  (75) 
73

>  <SMILES>  (75) 
C=CC(=O)n1c(C(N)=O)cc2ccc(CCC(=O)[N-]CC(=O)OCC)cc21

>  <Energy>  (75) 
73.29166491690951

>  <Genealogy>  (75) 
C=CC(=O)n1c(C(N)=O)cc2ccc(CCC(=O)[N-]CC(=O)OCC)cc21 (protonated)
C=CC(=O)n1c(C(N)=O)cc2ccc(CCC(=O)[N-]CC(=O)OCC)cc21 (3D coordinates assigned)
C=CC(=O)n1c(C(N)=O)cc2ccc(CCC(=O)[N-]CC(=O)OCC)cc21 (optimized conformer: 73.29166491690951 kcal/mol)

>  <smiles>  (75) 
C=CC(=O)n1c(C(N)=O)cc2ccc(CCC(=O)NCC(=O)OCC)cc21

>  <score_type>  (75) 
oracle

>  <origin>  (75) 
adg

>  <m_score__min__energy>  (75) 
-10.630000000000001

>  <m_primary>  (75) 
energy

$$$$
75:0
     RDKit          3D

 32 33  0  0  0  0  0  0  0  0999 V2000
   -3.9580   25.6710  -30.9210 N   0  0  0  0  0  0  0  0  0  0  0  0
   -5.2610   25.3080  -30.4700 C   0  0  0  0  0  0  0  0  0  0  0  0
   -5.8930   26.0930  -29.7160 O   0  0  0  0  0  0  0  0  0  0  0  0
   -5.8680   24.0380  -30.9230 C   0  0  0  0  0  0  0  0  0  0  0  0
   -7.2430   23.8200  -30.9760 C   0  0  0  0  0  0  0  0  0  0  0  0
   -7.3890   22.5060  -31.3590 C   0  0  0  0  0  0  0  0  0  0  0  0
   -8.5430   21.7620  -31.5830 C   0  0  0  0  0  0  0  0  0  0  0  0
   -8.3980   20.4300  -32.0060 C   0  0  0  0  0  0  0  0  0  0  0  0
   -7.1090   19.8710  -32.2000 C   0  0  0  0  0  0  0  0  0  0  0  0
   -6.9580   18.4520  -32.6680 C   0  0  0  0  0  0  0  0  0  0  0  0
   -5.8740   17.8680  -32.0380 F   0  0  0  0  0  0  0  0  0  0  0  0
   -8.1020   17.7360  -32.3680 F   0  0  0  0  0  0  0  0  0  0  0  0
   -5.9610   20.6590  -31.9650 C   0  0  0  0  0  0  0  0  0  0  0  0
   -6.1350   21.9770  -31.5280 C   0  0  0  0  0  0  0  0  0  0  0  0
   -5.1900   22.9060  -31.2650 N   0  0  0  0  0  0  0  0  0  0  0  0
   -3.7710   22.7400  -31.4080 C   0  0  0  0  0  0  0  0  0  0  0  0
   -3.3030   22.1960  -32.4460 O   0  0  0  0  0  0  0  0  0  0  0  0
   -2.9140   23.1950  -30.3990 O   0  0  0  0  0  0  0  0  0  0  0  0
   -3.2560   23.2030  -29.0140 C   0  0  0  0  0  0  0  0  0  0  0  0
   -2.6290   24.4020  -28.3070 C   0  0  0  0  0  0  0  0  0  0  0  0
   -1.9800   25.2270  -29.2330 O   0  0  0  0  0  0  0  0  0  0  0  0
   -3.1030   25.3000  -30.4490 H   0  0  0  0  0  0  0  0  0  0  0  0
   -8.0420   24.5440  -30.7581 H   0  0  0  0  0  0  0  0  0  0  0  0
   -9.5394   22.2034  -31.4334 H   0  0  0  0  0  0  0  0  0  0  0  0
   -9.2919   19.8154  -32.1883 H   0  0  0  0  0  0  0  0  0  0  0  0
   -6.7984   18.4468  -33.7564 H   0  0  0  0  0  0  0  0  0  0  0  0
   -4.9534   20.2464  -32.1218 H   0  0  0  0  0  0  0  0  0  0  0  0
   -4.3501   23.2566  -28.9131 H   0  0  0  0  0  0  0  0  0  0  0  0
   -2.8732   22.2814  -28.5513 H   0  0  0  0  0  0  0  0  0  0  0  0
   -3.4174   24.9767  -27.7989 H   0  0  0  0  0  0  0  0  0  0  0  0
   -1.8939   24.0404  -27.5730 H   0  0  0  0  0  0  0  0  0  0  0  0
   -2.0780   24.7830  -30.1150 H   0  0  0  0  0  0  0  0  0  0  0  0
  1  2  1  0
  2  3  2  0
  2  4  1  0
  4  5  2  0
  5  6  1  0
  6  7  2  0
  7  8  1  0
  8  9  2  0
  9 10  1  0
 10 11  1  0
 10 12  1  0
  9 13  1  0
 13 14  2  0
 14 15  1  0
 15 16  1  0
 16 17  2  0
 16 18  1  0
 18 19  1  0
 19 20  1  0
 20 21  1  0
 15  4  1  0
 14  6  1  0
  1 22  1  0
  5 23  1  0
  7 24  1  0
  8 25  1  0
 10 26  1  0
 13 27  1  0
 19 28  1  0
 19 29  1  0
 20 30  1  0
 20 31  1  0
 21 32  1  0
M  CHG  1   1  -1
M  END
>  <UniqueID>  (76) 
74

>  <SMILES>  (76) 
[NH-]C(=O)c1cc2ccc(C(F)F)cc2n1C(=O)OCCO

>  <Energy>  (76) 
67.23978733523884

>  <Genealogy>  (76) 
[NH-]C(=O)c1cc2ccc(C(F)F)cc2n1C(=O)OCCO (protonated)
[NH-]C(=O)c1cc2ccc(C(F)F)cc2n1C(=O)OCCO (3D coordinates assigned)
[NH-]C(=O)c1cc2ccc(C(F)F)cc2n1C(=O)OCCO (optimized conformer: 67.23978733523884 kcal/mol)

>  <smiles>  (76) 
NC(=O)c1cc2ccc(C(F)F)cc2n1C(=O)OCCO

>  <score_type>  (76) 
oracle

>  <origin>  (76) 
adg

>  <m_score__min__energy>  (76) 
-9.4700000000000006

>  <m_primary>  (76) 
energy

$$$$
76:0
     RDKit          3D

 43 44  0  0  0  0  0  0  0  0999 V2000
   -5.3630   17.8520  -34.9560 C   0  0  0  0  0  0  0  0  0  0  0  0
   -5.9600   18.7790  -34.0780 O   0  0  0  0  0  0  0  0  0  0  0  0
   -6.0760   18.2010  -32.7950 C   0  0  0  0  0  0  0  0  0  0  0  0
   -7.4020   18.6220  -32.1590 C   0  0  0  0  0  0  0  0  0  0  0  0
   -7.4440   20.1060  -31.9160 C   0  0  0  0  0  0  0  0  0  0  0  0
   -8.6790   20.8020  -31.9510 C   0  0  0  0  0  0  0  0  0  0  0  0
   -8.7320   22.1810  -31.6770 C   0  0  0  0  0  0  0  0  0  0  0  0
   -7.5400   22.8310  -31.3680 C   0  0  0  0  0  0  0  0  0  0  0  0
   -7.3060   24.1440  -31.0230 C   0  0  0  0  0  0  0  0  0  0  0  0
   -5.9360   24.2240  -30.7840 C   0  0  0  0  0  0  0  0  0  0  0  0
   -5.2290   25.4760  -30.4460 C   0  0  0  0  0  0  0  0  0  0  0  0
   -3.8710   25.6560  -30.8440 N   0  0  0  0  0  0  0  0  0  0  0  0
   -5.8040   26.3790  -29.7840 O   0  0  0  0  0  0  0  0  0  0  0  0
   -5.3500   23.0080  -30.9700 N   0  0  0  0  0  0  0  0  0  0  0  0
   -3.9830   22.6390  -30.7300 C   0  0  0  0  0  0  0  0  0  0  0  0
   -3.0670   23.1530  -31.4280 O   0  0  0  0  0  0  0  0  0  0  0  0
   -3.6460   21.5600  -29.7410 C   0  0  0  0  0  0  0  0  0  0  0  0
   -3.3100   22.1440  -28.3670 C   0  0  0  0  0  0  0  0  0  0  0  0
   -3.4160   23.9280  -28.3710 S   0  0  0  0  0  0  0  0  0  0  0  0
   -3.6540   24.5540  -26.7270 C   0  0  0  0  0  0  0  0  0  0  0  0
   -2.0300   24.5940  -29.0460 O   0  0  0  0  0  0  0  0  0  0  0  0
   -6.3410   22.1710  -31.3330 C   0  0  0  0  0  0  0  0  0  0  0  0
   -6.2560   20.8000  -31.5950 C   0  0  0  0  0  0  0  0  0  0  0  0
   -4.8579   17.0677  -34.3731 H   0  0  0  0  0  0  0  0  0  0  0  0
   -6.1377   17.3961  -35.5901 H   0  0  0  0  0  0  0  0  0  0  0  0
   -4.6275   18.3687  -35.5901 H   0  0  0  0  0  0  0  0  0  0  0  0
   -6.0443   17.1050  -32.8833 H   0  0  0  0  0  0  0  0  0  0  0  0
   -5.2433   18.5445  -32.1636 H   0  0  0  0  0  0  0  0  0  0  0  0
   -8.2264   18.3456  -32.8327 H   0  0  0  0  0  0  0  0  0  0  0  0
   -7.5018   18.1084  -31.1914 H   0  0  0  0  0  0  0  0  0  0  0  0
   -9.6040   20.2588  -32.1946 H   0  0  0  0  0  0  0  0  0  0  0  0
   -9.6855   22.7287  -31.7060 H   0  0  0  0  0  0  0  0  0  0  0  0
   -8.0441   24.9565  -30.9515 H   0  0  0  0  0  0  0  0  0  0  0  0
   -3.1080   25.0890  -30.4130 H   0  0  0  0  0  0  0  0  0  0  0  0
   -4.5084   20.8845  -29.6412 H   0  0  0  0  0  0  0  0  0  0  0  0
   -2.7638   21.0165  -30.1102 H   0  0  0  0  0  0  0  0  0  0  0  0
   -4.0185   21.7453  -27.6260 H   0  0  0  0  0  0  0  0  0  0  0  0
   -2.2780   21.8598  -28.1138 H   0  0  0  0  0  0  0  0  0  0  0  0
   -3.3618   23.7855  -25.9962 H   0  0  0  0  0  0  0  0  0  0  0  0
   -3.0343   25.4514  -26.5831 H   0  0  0  0  0  0  0  0  0  0  0  0
   -4.7133   24.8130  -26.5831 H   0  0  0  0  0  0  0  0  0  0  0  0
   -2.1710   24.5180  -30.0240 H   0  0  0  0  0  0  0  0  0  0  0  0
   -5.2899   20.2758  -31.5523 H   0  0  0  0  0  0  0  0  0  0  0  0
  1  2  1  0
  2  3  1  0
  3  4  1  0
  4  5  1  0
  5  6  2  0
  6  7  1  0
  7  8  2  0
  8  9  1  0
  9 10  2  0
 10 11  1  0
 11 12  1  0
 11 13  2  0
 10 14  1  0
 14 15  1  0
 15 16  2  0
 15 17  1  0
 17 18  1  0
 18 19  1  0
 19 20  1  0
 19 21  1  1
 14 22  1  0
 22 23  2  0
 23  5  1  0
 22  8  1  0
  1 24  1  0
  1 25  1  0
  1 26  1  0
  3 27  1  0
  3 28  1  0
  4 29  1  0
  4 30  1  0
  6 31  1  0
  7 32  1  0
  9 33  1  0
 12 34  1  0
 17 35  1  0
 17 36  1  0
 18 37  1  0
 18 38  1  0
 20 39  1  0
 20 40  1  0
 20 41  1  0
 21 42  1  0
 23 43  1  0
M  CHG  2  12  -1  19   1
M  END
>  <UniqueID>  (77) 
75

>  <SMILES>  (77) 
COCCc1ccc2cc(C([NH-])=O)n(C(=O)CC[S@@+](C)O)c2c1

>  <Energy>  (77) 
67.83959680384909

>  <Genealogy>  (77) 
COCCc1ccc2cc(C([NH-])=O)n(C(=O)CC[S+](C)O)c2c1 (protonated)
COCCc1ccc2cc(C([NH-])=O)n(C(=O)CC[S@@+](C)O)c2c1 (chirality)
COCCc1ccc2cc(C([NH-])=O)n(C(=O)CC[S@@+](C)O)c2c1 (3D coordinates assigned)
COCCc1ccc2cc(C([NH-])=O)n(C(=O)CC[S@@+](C)O)c2c1 (optimized conformer: 67.83959680384909 kcal/mol)

>  <smiles>  (77) 
COCCc1ccc2cc(C(N)=O)n(C(=O)CC[S+](C)[O-])c2c1

>  <score_type>  (77) 
oracle

>  <origin>  (77) 
adg

>  <m_score__min__energy>  (77) 
-9.3399999999999999

>  <m_primary>  (77) 
energy

$$$$
77:0
     RDKit          3D

 35 37  0  0  0  0  0  0  0  0999 V2000
   -6.5100   14.5130  -34.2310 N   0  0  0  0  0  0  0  0  0  0  0  0
   -5.9300   15.5100  -34.1470 C   0  0  0  0  0  0  0  0  0  0  0  0
   -5.2070   16.7510  -34.0440 C   0  0  0  0  0  0  0  0  0  0  0  0
   -3.8770   16.8230  -34.4680 C   0  0  0  0  0  0  0  0  0  0  0  0
   -3.1770   18.0270  -34.3730 C   0  0  0  0  0  0  0  0  0  0  0  0
   -3.7940   19.1750  -33.8510 C   0  0  0  0  0  0  0  0  0  0  0  0
   -3.0600   20.4080  -33.8290 N   0  0  0  0  0  0  0  0  0  0  0  0
   -5.1340   19.1000  -33.3990 C   0  0  0  0  0  0  0  0  0  0  0  0
   -5.8210   20.2580  -32.7840 C   0  0  0  0  0  0  0  0  0  0  0  0
   -7.2350   20.2850  -32.7110 C   0  0  0  0  0  0  0  0  0  0  0  0
   -7.8980   21.3620  -32.1000 C   0  0  0  0  0  0  0  0  0  0  0  0
   -7.1240   22.3920  -31.5740 C   0  0  0  0  0  0  0  0  0  0  0  0
   -7.5080   23.5280  -30.9000 C   0  0  0  0  0  0  0  0  0  0  0  0
   -6.3230   24.1880  -30.5890 C   0  0  0  0  0  0  0  0  0  0  0  0
   -6.2780   25.5010  -29.9140 C   0  0  0  0  0  0  0  0  0  0  0  0
   -5.3970   26.5320  -30.3610 N   0  0  0  0  0  0  0  0  0  0  0  0
   -7.0720   25.7350  -28.9640 O   0  0  0  0  0  0  0  0  0  0  0  0
   -5.2450   23.4830  -31.0370 N   0  0  0  0  0  0  0  0  0  0  0  0
   -3.8570   23.7750  -30.8040 C   0  0  0  0  0  0  0  0  0  0  0  0
   -3.4940   24.9340  -30.4710 O   0  0  0  0  0  0  0  0  0  0  0  0
   -2.8970   22.7810  -30.9490 O   0  0  0  0  0  0  0  0  0  0  0  0
   -5.7540   22.3860  -31.6420 C   0  0  0  0  0  0  0  0  0  0  0  0
   -5.0670   21.3140  -32.2250 C   0  0  0  0  0  0  0  0  0  0  0  0
   -5.8320   17.8840  -33.5130 C   0  0  0  0  0  0  0  0  0  0  0  0
   -3.3815   15.9301  -34.8769 H   0  0  0  0  0  0  0  0  0  0  0  0
   -2.1313   18.0768  -34.7106 H   0  0  0  0  0  0  0  0  0  0  0  0
   -2.7890   20.8460  -32.9220 H   0  0  0  0  0  0  0  0  0  0  0  0
   -2.7170   20.8620  -34.7030 H   0  0  0  0  0  0  0  0  0  0  0  0
   -7.8190   19.4555  -33.1364 H   0  0  0  0  0  0  0  0  0  0  0  0
   -8.9959   21.3905  -32.0391 H   0  0  0  0  0  0  0  0  0  0  0  0
   -8.5328   23.8466  -30.6585 H   0  0  0  0  0  0  0  0  0  0  0  0
   -4.8480   26.4270  -31.2430 H   0  0  0  0  0  0  0  0  0  0  0  0
   -5.3530   27.4410  -29.8490 H   0  0  0  0  0  0  0  0  0  0  0  0
   -3.9674   21.2946  -32.2472 H   0  0  0  0  0  0  0  0  0  0  0  0
   -6.8791   17.8236  -33.1814 H   0  0  0  0  0  0  0  0  0  0  0  0
  1  2  3  0
  2  3  1  0
  3  4  2  0
  4  5  1  0
  5  6  2  0
  6  7  1  0
  6  8  1  0
  8  9  1  0
  9 10  2  0
 10 11  1  0
 11 12  2  0
 12 13  1  0
 13 14  2  0
 14 15  1  0
 15 16  1  0
 15 17  2  0
 14 18  1  0
 18 19  1  0
 19 20  2  0
 19 21  1  0
 18 22  1  0
 22 23  2  0
  8 24  2  0
 24  3  1  0
 23  9  1  0
 22 12  1  0
  4 25  1  0
  5 26  1  0
  7 27  1  0
  7 28  1  0
 10 29  1  0
 11 30  1  0
 13 31  1  0
 16 32  1  0
 16 33  1  0
 23 34  1  0
 24 35  1  0
M  CHG  1  21  -1
M  END
>  <UniqueID>  (78) 
76

>  <SMILES>  (78) 
N#Cc1ccc(N)c(-c2ccc3cc(C(N)=O)n(C(=O)[O-])c3c2)c1

>  <Energy>  (78) 
84.24511629646662

>  <Genealogy>  (78) 
N#Cc1ccc(N)c(-c2ccc3cc(C(N)=O)n(C(=O)[O-])c3c2)c1 (protonated)
N#Cc1ccc(N)c(-c2ccc3cc(C(N)=O)n(C(=O)[O-])c3c2)c1 (3D coordinates assigned)
N#Cc1ccc(N)c(-c2ccc3cc(C(N)=O)n(C(=O)[O-])c3c2)c1 (optimized conformer: 84.24511629646662 kcal/mol)

>  <smiles>  (78) 
N#Cc1ccc(N)c(-c2ccc3cc(C(N)=O)n(C(=O)O)c3c2)c1

>  <score_type>  (78) 
oracle

>  <origin>  (78) 
adg

>  <m_score__min__energy>  (78) 
-10.199999999999999

>  <m_primary>  (78) 
energy

$$$$
78:0
     RDKit          3D

 31 32  0  0  0  0  0  0  0  0999 V2000
   -5.8440   17.4550  -34.2290 C   0  0  0  0  0  0  0  0  0  0  0  0
   -6.0970   18.4940  -33.6720 C   0  0  0  0  0  0  0  0  0  0  0  0
   -6.3980   19.7350  -33.0080 C   0  0  0  0  0  0  0  0  0  0  0  0
   -7.7440   20.0970  -32.7680 C   0  0  0  0  0  0  0  0  0  0  0  0
   -8.0510   21.3000  -32.1090 C   0  0  0  0  0  0  0  0  0  0  0  0
   -6.9950   22.1150  -31.7140 C   0  0  0  0  0  0  0  0  0  0  0  0
   -7.0050   23.3140  -31.0400 C   0  0  0  0  0  0  0  0  0  0  0  0
   -5.6670   23.6740  -30.9020 C   0  0  0  0  0  0  0  0  0  0  0  0
   -5.2260   24.9530  -30.3070 C   0  0  0  0  0  0  0  0  0  0  0  0
   -4.1230   25.6740  -30.8510 N   0  0  0  0  0  0  0  0  0  0  0  0
   -5.8620   25.4420  -29.3360 O   0  0  0  0  0  0  0  0  0  0  0  0
   -4.8580   22.7280  -31.4600 N   0  0  0  0  0  0  0  0  0  0  0  0
   -3.4230   22.6840  -31.4590 C   0  0  0  0  0  0  0  0  0  0  0  0
   -2.8190   21.8910  -32.2320 O   0  0  0  0  0  0  0  0  0  0  0  0
   -2.7020   23.5420  -30.6200 O   0  0  0  0  0  0  0  0  0  0  0  0
   -2.4710   23.2780  -29.2380 C   0  0  0  0  0  0  0  0  0  0  0  0
   -2.2150   24.5790  -28.4810 C   0  0  0  0  0  0  0  0  0  0  0  0
   -1.5520   25.4850  -29.3180 O   0  0  0  0  0  0  0  0  0  0  0  0
   -5.6860   21.7820  -31.9570 C   0  0  0  0  0  0  0  0  0  0  0  0
   -5.3500   20.5820  -32.5930 C   0  0  0  0  0  0  0  0  0  0  0  0
   -5.6132   16.5071  -34.7372 H   0  0  0  0  0  0  0  0  0  0  0  0
   -8.5559   19.4328  -33.0992 H   0  0  0  0  0  0  0  0  0  0  0  0
   -9.0941   21.5881  -31.9117 H   0  0  0  0  0  0  0  0  0  0  0  0
   -7.8846   23.8710  -30.6849 H   0  0  0  0  0  0  0  0  0  0  0  0
   -3.1500   25.3060  -30.7710 H   0  0  0  0  0  0  0  0  0  0  0  0
   -3.3540   22.7791  -28.8122 H   0  0  0  0  0  0  0  0  0  0  0  0
   -1.5869   22.6306  -29.1422 H   0  0  0  0  0  0  0  0  0  0  0  0
   -3.1744   25.0111  -28.1602 H   0  0  0  0  0  0  0  0  0  0  0  0
   -1.5917   24.3724  -27.5985 H   0  0  0  0  0  0  0  0  0  0  0  0
   -2.1700   25.6660  -30.0720 H   0  0  0  0  0  0  0  0  0  0  0  0
   -4.2987   20.3073  -32.7643 H   0  0  0  0  0  0  0  0  0  0  0  0
  1  2  3  0
  2  3  1  0
  3  4  2  0
  4  5  1  0
  5  6  2  0
  6  7  1  0
  7  8  2  0
  8  9  1  0
  9 10  1  0
  9 11  2  0
  8 12  1  0
 12 13  1  0
 13 14  2  0
 13 15  1  0
 15 16  1  0
 16 17  1  0
 17 18  1  0
 12 19  1  0
 19 20  2  0
 20  3  1  0
 19  6  1  0
  1 21  1  0
  4 22  1  0
  5 23  1  0
  7 24  1  0
 10 25  1  0
 16 26  1  0
 16 27  1  0
 17 28  1  0
 17 29  1  0
 18 30  1  0
 20 31  1  0
M  CHG  1  10  -1
M  END
>  <UniqueID>  (79) 
77

>  <SMILES>  (79) 
C#Cc1ccc2cc(C([NH-])=O)n(C(=O)OCCO)c2c1

>  <Energy>  (79) 
64.73801670442212

>  <Genealogy>  (79) 
C#Cc1ccc2cc(C([NH-])=O)n(C(=O)OCCO)c2c1 (protonated)
C#Cc1ccc2cc(C([NH-])=O)n(C(=O)OCCO)c2c1 (3D coordinates assigned)
C#Cc1ccc2cc(C([NH-])=O)n(C(=O)OCCO)c2c1 (optimized conformer: 64.73801670442212 kcal/mol)

>  <smiles>  (79) 
C#Cc1ccc2cc(C(N)=O)n(C(=O)OCCO)c2c1

>  <score_type>  (79) 
oracle

>  <origin>  (79) 
adg

>  <m_score__min__energy>  (79) 
-10.4

>  <m_primary>  (79) 
energy

$$$$
79:0
     RDKit          3D

 46 47  0  0  0  0  0  0  0  0999 V2000
   -3.6500   16.3820  -34.9940 C   0  0  0  0  0  0  0  0  0  0  0  0
   -4.1520   17.0650  -33.8530 O   0  0  0  0  0  0  0  0  0  0  0  0
   -5.0200   18.1590  -33.9510 C   0  0  0  0  0  0  0  0  0  0  0  0
   -4.5740   19.3180  -34.1720 O   0  0  0  0  0  0  0  0  0  0  0  0
   -6.4870   17.9560  -33.7210 C   0  0  0  0  0  0  0  0  0  0  0  0
   -6.8800   18.2850  -32.2750 C   0  0  0  0  0  0  0  0  0  0  0  0
   -7.0290   19.7720  -32.0620 C   0  0  0  0  0  0  0  0  0  0  0  0
   -8.2920   20.3910  -32.2280 C   0  0  0  0  0  0  0  0  0  0  0  0
   -8.4540   21.7640  -31.9770 C   0  0  0  0  0  0  0  0  0  0  0  0
   -7.3420   22.4850  -31.5520 C   0  0  0  0  0  0  0  0  0  0  0  0
   -7.2320   23.8070  -31.1860 C   0  0  0  0  0  0  0  0  0  0  0  0
   -5.9030   23.9750  -30.8020 C   0  0  0  0  0  0  0  0  0  0  0  0
   -5.3320   25.2790  -30.4020 C   0  0  0  0  0  0  0  0  0  0  0  0
   -4.0320   25.6730  -30.8330 N   0  0  0  0  0  0  0  0  0  0  0  0
   -6.0220   26.0760  -29.7130 O   0  0  0  0  0  0  0  0  0  0  0  0
   -5.2190   22.8020  -30.9190 N   0  0  0  0  0  0  0  0  0  0  0  0
   -3.8730   22.5190  -30.4990 C   0  0  0  0  0  0  0  0  0  0  0  0
   -3.1500   21.7440  -31.1820 O   0  0  0  0  0  0  0  0  0  0  0  0
   -3.3560   23.1380  -29.3570 O   0  0  0  0  0  0  0  0  0  0  0  0
   -2.0250   23.6390  -29.2900 C   0  0  0  0  0  0  0  0  0  0  0  0
   -2.0210   24.9060  -28.6400 O   0  0  0  0  0  0  0  0  0  0  0  0
   -2.2500   25.0550  -27.2680 C   0  0  0  0  0  0  0  0  0  0  0  0
   -1.2990   25.3170  -26.4820 O   0  0  0  0  0  0  0  0  0  0  0  0
   -3.6410   24.9080  -26.7300 C   0  0  0  0  0  0  0  0  0  0  0  0
   -4.6240   24.9140  -27.8130 N   0  0  0  0  0  0  0  0  0  0  0  0
   -6.1120   21.9020  -31.3870 C   0  0  0  0  0  0  0  0  0  0  0  0
   -5.9230   20.5370  -31.6300 C   0  0  0  0  0  0  0  0  0  0  0  0
   -3.0275   15.5350  -34.6699 H   0  0  0  0  0  0  0  0  0  0  0  0
   -4.4907   16.0093  -35.5976 H   0  0  0  0  0  0  0  0  0  0  0  0
   -3.0433   17.0731  -35.5976 H   0  0  0  0  0  0  0  0  0  0  0  0
   -7.0497   18.6112  -34.4023 H   0  0  0  0  0  0  0  0  0  0  0  0
   -6.7231   16.8985  -33.9108 H   0  0  0  0  0  0  0  0  0  0  0  0
   -7.8372   17.7942  -32.0452 H   0  0  0  0  0  0  0  0  0  0  0  0
   -6.0816   17.9216  -31.6113 H   0  0  0  0  0  0  0  0  0  0  0  0
   -9.1539   19.7915  -32.5564 H   0  0  0  0  0  0  0  0  0  0  0  0
   -9.4296   22.2539  -32.1122 H   0  0  0  0  0  0  0  0  0  0  0  0
   -8.0249   24.5694  -31.1947 H   0  0  0  0  0  0  0  0  0  0  0  0
   -3.1760   25.2270  -30.4350 H   0  0  0  0  0  0  0  0  0  0  0  0
   -1.3976   22.9353  -28.7232 H   0  0  0  0  0  0  0  0  0  0  0  0
   -1.6264   23.7512  -30.3091 H   0  0  0  0  0  0  0  0  0  0  0  0
   -3.7160   23.9577  -26.1811 H   0  0  0  0  0  0  0  0  0  0  0  0
   -3.8502   25.7561  -26.0615 H   0  0  0  0  0  0  0  0  0  0  0  0
   -5.1080   23.9880  -27.8650 H   0  0  0  0  0  0  0  0  0  0  0  0
   -5.3270   25.6730  -27.6570 H   0  0  0  0  0  0  0  0  0  0  0  0
   -4.1340   25.0910  -28.7200 H   0  0  0  0  0  0  0  0  0  0  0  0
   -4.9368   20.0709  -31.4880 H   0  0  0  0  0  0  0  0  0  0  0  0
  1  2  1  0
  2  3  1  0
  3  4  2  0
  3  5  1  0
  5  6  1  0
  6  7  1  0
  7  8  2  0
  8  9  1  0
  9 10  2  0
 10 11  1  0
 11 12  2  0
 12 13  1  0
 13 14  1  0
 13 15  2  0
 12 16  1  0
 16 17  1  0
 17 18  2  0
 17 19  1  0
 19 20  1  0
 20 21  1  0
 21 22  1  0
 22 23  2  0
 22 24  1  0
 24 25  1  0
 16 26  1  0
 26 27  2  0
 27  7  1  0
 26 10  1  0
  1 28  1  0
  1 29  1  0
  1 30  1  0
  5 31  1  0
  5 32  1  0
  6 33  1  0
  6 34  1  0
  8 35  1  0
  9 36  1  0
 11 37  1  0
 14 38  1  0
 20 39  1  0
 20 40  1  0
 24 41  1  0
 24 42  1  0
 25 43  1  0
 25 44  1  0
 25 45  1  0
 27 46  1  0
M  CHG  2  14  -1  25   1
M  END
>  <UniqueID>  (80) 
78

>  <SMILES>  (80) 
COC(=O)CCc1ccc2cc(C([NH-])=O)n(C(=O)OCOC(=O)C[NH3+])c2c1

>  <Energy>  (80) 
71.18965639469123

>  <Genealogy>  (80) 
COC(=O)CCc1ccc2cc(C([NH-])=O)n(C(=O)OCOC(=O)C[NH3+])c2c1 (protonated)
COC(=O)CCc1ccc2cc(C([NH-])=O)n(C(=O)OCOC(=O)C[NH3+])c2c1 (3D coordinates assigned)
COC(=O)CCc1ccc2cc(C([NH-])=O)n(C(=O)OCOC(=O)C[NH3+])c2c1 (optimized conformer: 71.18965639469123 kcal/mol)

>  <smiles>  (80) 
COC(=O)CCc1ccc2cc(C(N)=O)n(C(=O)OCOC(=O)CN)c2c1

>  <score_type>  (80) 
oracle

>  <origin>  (80) 
adg

>  <m_score__min__energy>  (80) 
-9.5899999999999999

>  <m_primary>  (80) 
energy

$$$$
80:0
     RDKit          3D

 38 39  0  0  0  0  0  0  0  0999 V2000
   -3.4930   26.0500  -31.2220 H   0  0  0  0  0  0  0  0  0  0  0  0
   -3.8730   25.2860  -30.6190 N   0  0  0  0  0  0  0  0  0  0  0  0
   -5.2730   25.1620  -30.3870 C   0  0  0  0  0  0  0  0  0  0  0  0
   -5.8970   26.1210  -29.8620 O   0  0  0  0  0  0  0  0  0  0  0  0
   -6.0060   23.9400  -30.7840 C   0  0  0  0  0  0  0  0  0  0  0  0
   -7.3450   23.9340  -31.1710 C   0  0  0  0  0  0  0  0  0  0  0  0
   -8.0341   24.7909  -31.2015 H   0  0  0  0  0  0  0  0  0  0  0  0
   -7.6220   22.6280  -31.5070 C   0  0  0  0  0  0  0  0  0  0  0  0
   -8.8110   22.0450  -31.9320 C   0  0  0  0  0  0  0  0  0  0  0  0
   -9.7177   22.6501  -32.0798 H   0  0  0  0  0  0  0  0  0  0  0  0
   -8.8190   20.6590  -32.1670 C   0  0  0  0  0  0  0  0  0  0  0  0
   -9.7461   20.1692  -32.4996 H   0  0  0  0  0  0  0  0  0  0  0  0
   -7.6450   19.8850  -31.9800 C   0  0  0  0  0  0  0  0  0  0  0  0
   -7.6820   18.3900  -32.1720 C   0  0  0  0  0  0  0  0  0  0  0  0
   -6.8550   17.7580  -31.2590 F   0  0  0  0  0  0  0  0  0  0  0  0
   -8.9770   17.9400  -31.9950 F   0  0  0  0  0  0  0  0  0  0  0  0
   -7.2580   18.0500  -33.4460 F   0  0  0  0  0  0  0  0  0  0  0  0
   -6.4640   20.5120  -31.5200 C   0  0  0  0  0  0  0  0  0  0  0  0
   -5.5537   19.9255  -31.3264 H   0  0  0  0  0  0  0  0  0  0  0  0
   -6.4810   21.8960  -31.3170 C   0  0  0  0  0  0  0  0  0  0  0  0
   -5.4800   22.6870  -30.8750 N   0  0  0  0  0  0  0  0  0  0  0  0
   -4.1600   22.2610  -30.5120 C   0  0  0  0  0  0  0  0  0  0  0  0
   -3.6050   21.3370  -31.1670 O   0  0  0  0  0  0  0  0  0  0  0  0
   -3.4660   22.9130  -29.4360 N   0  0  0  0  0  0  0  0  0  0  0  0
   -3.8830   23.7880  -29.0460 H   0  0  0  0  0  0  0  0  0  0  0  0
   -2.1750   22.5200  -28.9470 C   0  0  0  0  0  0  0  0  0  0  0  0
   -0.8500   23.7400  -29.0230 S   0  0  0  0  0  0  0  0  0  0  0  0
   -1.7170   24.9330  -27.9580 C   0  0  0  0  0  0  0  0  0  0  0  0
   -1.5348   24.6823  -26.9026 H   0  0  0  0  0  0  0  0  0  0  0  0
   -1.3437   25.9471  -28.1637 H   0  0  0  0  0  0  0  0  0  0  0  0
   -2.7968   24.8910  -28.1637 H   0  0  0  0  0  0  0  0  0  0  0  0
   -1.9880   21.3060  -28.3950 C   0  0  0  0  0  0  0  0  0  0  0  0
   -2.8504   20.6264  -28.3292 H   0  0  0  0  0  0  0  0  0  0  0  0
   -0.6880   20.8370  -27.8730 C   0  0  0  0  0  0  0  0  0  0  0  0
    0.1623   21.5336  -27.8304 H   0  0  0  0  0  0  0  0  0  0  0  0
   -0.5310   19.5850  -27.4540 C   0  0  0  0  0  0  0  0  0  0  0  0
    0.4439   19.2523  -27.0682 H   0  0  0  0  0  0  0  0  0  0  0  0
   -1.3760   18.8819  -27.4931 H   0  0  0  0  0  0  0  0  0  0  0  0
  1  2  1  0
  2  3  1  0
  3  4  2  0
  3  5  1  0
  5  6  2  0
  6  7  1  0
  6  8  1  0
  8  9  2  0
  9 10  1  0
  9 11  1  0
 11 12  1  0
 11 13  2  0
 13 14  1  0
 14 15  1  0
 14 16  1  0
 14 17  1  0
 13 18  1  0
 18 19  1  0
 18 20  2  0
 20 21  1  0
 21 22  1  0
 22 23  2  0
 22 24  1  0
 24 25  1  0
 24 26  1  0
 26 27  1  0
 27 28  1  0
 28 29  1  0
 28 30  1  0
 28 31  1  0
 26 32  2  0
 32 33  1  0
 32 34  1  0
 34 35  1  0
 34 36  2  0
 36 37  1  0
 36 38  1  0
 21  5  1  0
 20  8  1  0
M  CHG  1   2  -1
M  END
>  <UniqueID>  (81) 
79

>  <SMILES>  (81) 
C=C/C=C(/NC(=O)n1c(C([NH-])=O)cc2ccc(C(F)(F)F)cc21)SC

>  <Energy>  (81) 
75.89066377586134

>  <Genealogy>  (81) 
C=C/C=C(/NC(=O)n1c(C([NH-])=O)cc2ccc(C(F)(F)F)cc21)SC (protonated)
C=C/C=C(/NC(=O)n1c(C([NH-])=O)cc2ccc(C(F)(F)F)cc21)SC (cis-trans isomerization)
C=C/C=C(/NC(=O)n1c(C([NH-])=O)cc2ccc(C(F)(F)F)cc21)SC (3D coordinates assigned)
C=C/C=C(/NC(=O)n1c(C([NH-])=O)cc2ccc(C(F)(F)F)cc21)SC (optimized conformer: 75.89066377586134 kcal/mol)

>  <smiles>  (81) 
C=C/C=C(/NC(=O)n1c(C(N)=O)cc2ccc(C(F)(F)F)cc21)SC

>  <score_type>  (81) 
oracle

>  <origin>  (81) 
adg

>  <m_score__min__energy>  (81) 
-10.25

>  <m_primary>  (81) 
energy

$$$$
81:0
     RDKit          3D

 36 38  0  0  0  0  0  0  0  0999 V2000
    1.7540   24.5300  -35.8640 C   0  0  0  0  0  0  0  0  0  0  0  0
    1.3190   23.2590  -36.4470 N   0  0  0  0  0  0  0  0  0  0  0  0
    1.9790   22.1390  -35.7710 C   0  0  0  0  0  0  0  0  0  0  0  0
    0.9930   21.4230  -34.9060 C   0  0  0  0  0  0  0  0  0  0  0  0
   -0.2120   21.9300  -34.5770 N   0  0  0  0  0  0  0  0  0  0  0  0
   -0.7430   20.9810  -33.7790 C   0  0  0  0  0  0  0  0  0  0  0  0
   -2.0860   21.0830  -33.1570 C   0  0  0  0  0  0  0  0  0  0  0  0
   -3.0640   20.0720  -33.3520 C   0  0  0  0  0  0  0  0  0  0  0  0
   -4.3300   20.1690  -32.7500 C   0  0  0  0  0  0  0  0  0  0  0  0
   -4.5960   21.2870  -31.9670 C   0  0  0  0  0  0  0  0  0  0  0  0
   -5.7230   21.6100  -31.2460 C   0  0  0  0  0  0  0  0  0  0  0  0
   -5.4340   22.8310  -30.6430 C   0  0  0  0  0  0  0  0  0  0  0  0
   -6.4050   23.5770  -29.8200 C   0  0  0  0  0  0  0  0  0  0  0  0
   -6.0510   24.8160  -29.2010 N   0  0  0  0  0  0  0  0  0  0  0  0
   -7.5820   23.1450  -29.7060 O   0  0  0  0  0  0  0  0  0  0  0  0
   -4.1740   23.2420  -30.9630 N   0  0  0  0  0  0  0  0  0  0  0  0
   -3.4730   24.3830  -30.4410 C   0  0  0  0  0  0  0  0  0  0  0  0
   -2.4970   24.2320  -29.6610 O   0  0  0  0  0  0  0  0  0  0  0  0
   -3.8710   25.6690  -30.7890 O   0  0  0  0  0  0  0  0  0  0  0  0
   -3.6750   22.2840  -31.7800 C   0  0  0  0  0  0  0  0  0  0  0  0
   -2.3990   22.2030  -32.3510 C   0  0  0  0  0  0  0  0  0  0  0  0
    0.1630   19.9420  -33.6520 C   0  0  0  0  0  0  0  0  0  0  0  0
    1.2210   20.2520  -34.3580 O   0  0  0  0  0  0  0  0  0  0  0  0
    1.7292   24.4576  -34.7667 H   0  0  0  0  0  0  0  0  0  0  0  0
    2.7795   24.7527  -36.1937 H   0  0  0  0  0  0  0  0  0  0  0  0
    1.0800   25.3344  -36.1937 H   0  0  0  0  0  0  0  0  0  0  0  0
    0.2880   23.1760  -36.2850 H   0  0  0  0  0  0  0  0  0  0  0  0
    2.3798   21.4429  -36.5225 H   0  0  0  0  0  0  0  0  0  0  0  0
    2.8006   22.5219  -35.1479 H   0  0  0  0  0  0  0  0  0  0  0  0
   -2.8276   19.2020  -33.9822 H   0  0  0  0  0  0  0  0  0  0  0  0
   -5.0875   19.3845  -32.8937 H   0  0  0  0  0  0  0  0  0  0  0  0
   -6.6528   21.0281  -31.1638 H   0  0  0  0  0  0  0  0  0  0  0  0
   -6.7400   25.3120  -28.5930 H   0  0  0  0  0  0  0  0  0  0  0  0
   -5.1420   25.2820  -29.4100 H   0  0  0  0  0  0  0  0  0  0  0  0
   -1.6549   22.9942  -32.1765 H   0  0  0  0  0  0  0  0  0  0  0  0
    0.0199   19.0230  -33.0647 H   0  0  0  0  0  0  0  0  0  0  0  0
  1  2  1  0
  2  3  1  0
  3  4  1  0
  4  5  2  0
  5  6  1  0
  6  7  1  0
  7  8  2  0
  8  9  1  0
  9 10  2  0
 10 11  1  0
 11 12  2  0
 12 13  1  0
 13 14  1  0
 13 15  2  0
 12 16  1  0
 16 17  1  0
 17 18  2  0
 17 19  1  0
 16 20  1  0
 20 21  2  0
  6 22  2  0
 22 23  1  0
 23  4  1  0
 21  7  1  0
 20 10  1  0
  1 24  1  0
  1 25  1  0
  1 26  1  0
  2 27  1  0
  3 28  1  0
  3 29  1  0
  8 30  1  0
  9 31  1  0
 11 32  1  0
 14 33  1  0
 14 34  1  0
 21 35  1  0
 22 36  1  0
M  CHG  1  19  -1
M  END
>  <UniqueID>  (82) 
80

>  <SMILES>  (82) 
CNCc1nc(-c2ccc3cc(C(N)=O)n(C(=O)[O-])c3c2)co1

>  <Energy>  (82) 
106.05211803214864

>  <Genealogy>  (82) 
CNCc1nc(-c2ccc3cc(C(N)=O)n(C(=O)[O-])c3c2)co1 (protonated)
CNCc1nc(-c2ccc3cc(C(N)=O)n(C(=O)[O-])c3c2)co1 (3D coordinates assigned)
CNCc1nc(-c2ccc3cc(C(N)=O)n(C(=O)[O-])c3c2)co1 (optimized conformer: 106.05211803214864 kcal/mol)

>  <smiles>  (82) 
CNCc1nc(-c2ccc3cc(C(N)=O)n(C(=O)O)c3c2)co1

>  <score_type>  (82) 
oracle

>  <origin>  (82) 
adg

>  <m_score__min__energy>  (82) 
-8.4399999999999995

>  <m_primary>  (82) 
energy

$$$$
82:0
     RDKit          3D

 38 40  0  0  0  0  0  0  0  0999 V2000
   -6.8850   18.3610  -33.0750 C   0  0  0  0  0  0  0  0  0  0  0  0
   -7.0930   19.7560  -32.5670 C   0  0  0  0  0  0  0  0  0  0  0  0
   -8.4060   20.2560  -32.3900 C   0  0  0  0  0  0  0  0  0  0  0  0
   -8.6150   21.5420  -31.8660 C   0  0  0  0  0  0  0  0  0  0  0  0
   -7.4980   22.2980  -31.5260 C   0  0  0  0  0  0  0  0  0  0  0  0
   -7.4220   23.5600  -30.9880 C   0  0  0  0  0  0  0  0  0  0  0  0
   -6.0640   23.8080  -30.8290 C   0  0  0  0  0  0  0  0  0  0  0  0
   -5.5430   25.0740  -30.2880 C   0  0  0  0  0  0  0  0  0  0  0  0
   -4.2330   25.5250  -30.6270 N   0  0  0  0  0  0  0  0  0  0  0  0
   -6.2360   25.7290  -29.4660 O   0  0  0  0  0  0  0  0  0  0  0  0
   -5.3160   22.7560  -31.2740 N   0  0  0  0  0  0  0  0  0  0  0  0
   -3.8790   22.6990  -31.4090 C   0  0  0  0  0  0  0  0  0  0  0  0
   -3.3590   22.3310  -32.4960 O   0  0  0  0  0  0  0  0  0  0  0  0
   -3.0340   23.0880  -30.3250 N   0  0  0  0  0  0  0  0  0  0  0  0
   -2.5790   22.1670  -29.2940 C   0  0  0  0  0  0  0  0  0  0  0  0
   -2.7390   22.8260  -27.9200 C   0  0  0  0  0  0  0  0  0  0  0  0
   -2.5930   24.3390  -27.9410 C   0  0  0  0  0  0  0  0  0  0  0  0
   -3.9910   24.5600  -27.5700 N   0  0  0  0  0  0  0  0  0  0  0  0
   -4.1810   23.1090  -27.5300 C   0  0  0  0  0  0  0  0  0  0  0  0
   -6.2160   21.8320  -31.6900 C   0  0  0  0  0  0  0  0  0  0  0  0
   -5.9830   20.5450  -32.1970 C   0  0  0  0  0  0  0  0  0  0  0  0
   -6.7823   17.6722  -32.2235 H   0  0  0  0  0  0  0  0  0  0  0  0
   -7.7484   18.0611  -33.6871 H   0  0  0  0  0  0  0  0  0  0  0  0
   -5.9717   18.3260  -33.6871 H   0  0  0  0  0  0  0  0  0  0  0  0
   -9.2691   19.6321  -32.6652 H   0  0  0  0  0  0  0  0  0  0  0  0
   -9.6314   21.9395  -31.7286 H   0  0  0  0  0  0  0  0  0  0  0  0
   -8.2572   24.2304  -30.7369 H   0  0  0  0  0  0  0  0  0  0  0  0
   -3.6110   24.9480  -31.2370 H   0  0  0  0  0  0  0  0  0  0  0  0
   -3.8720   26.4290  -30.2490 H   0  0  0  0  0  0  0  0  0  0  0  0
   -3.1800   21.2465  -29.3323 H   0  0  0  0  0  0  0  0  0  0  0  0
   -1.5208   21.9187  -29.4626 H   0  0  0  0  0  0  0  0  0  0  0  0
   -2.0785   22.1625  -27.3425 H   0  0  0  0  0  0  0  0  0  0  0  0
   -1.8784   24.7190  -27.1961 H   0  0  0  0  0  0  0  0  0  0  0  0
   -2.2057   24.8198  -28.8514 H   0  0  0  0  0  0  0  0  0  0  0  0
   -4.4990   24.9360  -28.4070 H   0  0  0  0  0  0  0  0  0  0  0  0
   -4.4457   22.7306  -26.5316 H   0  0  0  0  0  0  0  0  0  0  0  0
   -4.9881   22.6648  -28.1310 H   0  0  0  0  0  0  0  0  0  0  0  0
   -4.9583   20.1595  -32.3037 H   0  0  0  0  0  0  0  0  0  0  0  0
  1  2  1  0
  2  3  2  0
  3  4  1  0
  4  5  2  0
  5  6  1  0
  6  7  2  0
  7  8  1  0
  8  9  1  0
  8 10  2  0
  7 11  1  0
 11 12  1  0
 12 13  2  0
 12 14  1  0
 14 15  1  0
 15 16  1  0
 16 17  1  0
 17 18  1  0
 18 19  1  0
 11 20  1  0
 20 21  2  0
 21  2  1  0
 20  5  1  0
 19 16  1  0
  1 22  1  0
  1 23  1  0
  1 24  1  0
  3 25  1  0
  4 26  1  0
  6 27  1  0
  9 28  1  0
  9 29  1  0
 15 30  1  0
 15 31  1  0
 16 32  1  0
 17 33  1  0
 17 34  1  0
 18 35  1  0
 19 36  1  0
 19 37  1  0
 21 38  1  0
M  CHG  1  14  -1
M  END
>  <UniqueID>  (83) 
81

>  <SMILES>  (83) 
Cc1ccc2cc(C(N)=O)n(C(=O)[N-]CC3CNC3)c2c1

>  <Energy>  (83) 
142.97331490628332

>  <Genealogy>  (83) 
Cc1ccc2cc(C(N)=O)n(C(=O)[N-]CC3CNC3)c2c1 (protonated)
Cc1ccc2cc(C(N)=O)n(C(=O)[N-]CC3CNC3)c2c1 (3D coordinates assigned)
Cc1ccc2cc(C(N)=O)n(C(=O)[N-]CC3CNC3)c2c1 (nonaromatic ring conformer: 142.97331490628332 kcal/mol)

>  <smiles>  (83) 
Cc1ccc2cc(C(N)=O)n(C(=O)NCC3CNC3)c2c1

>  <score_type>  (83) 
oracle

>  <origin>  (83) 
adg

>  <m_score__min__energy>  (83) 
-9.5600000000000005

>  <m_primary>  (83) 
energy

$$$$
83:0
     RDKit          3D

 39 40  0  0  0  0  0  0  0  0999 V2000
   -6.1180   17.3840  -31.7480 C   0  0  0  0  0  0  0  0  0  0  0  0
   -6.5820   18.4650  -32.6350 N   0  0  0  0  0  0  0  0  0  0  0  0
   -5.4640   18.9590  -33.4670 C   0  0  0  0  0  0  0  0  0  0  0  0
   -5.3850   20.4880  -33.4020 C   0  0  0  0  0  0  0  0  0  0  0  0
   -4.1740   20.9240  -32.6230 C   0  0  0  0  0  0  0  0  0  0  0  0
   -2.9930   20.1410  -32.6460 C   0  0  0  0  0  0  0  0  0  0  0  0
   -1.8640   20.5270  -31.9060 C   0  0  0  0  0  0  0  0  0  0  0  0
   -1.9510   21.6860  -31.1400 C   0  0  0  0  0  0  0  0  0  0  0  0
   -1.0020   22.2990  -30.3550 C   0  0  0  0  0  0  0  0  0  0  0  0
   -1.6310   23.4240  -29.8290 C   0  0  0  0  0  0  0  0  0  0  0  0
   -0.9830   24.3400  -28.8700 C   0  0  0  0  0  0  0  0  0  0  0  0
   -1.7390   25.3220  -28.1600 N   0  0  0  0  0  0  0  0  0  0  0  0
    0.2480   24.2160  -28.6300 O   0  0  0  0  0  0  0  0  0  0  0  0
   -2.9130   23.5150  -30.2810 N   0  0  0  0  0  0  0  0  0  0  0  0
   -3.8380   24.5950  -30.0600 C   0  0  0  0  0  0  0  0  0  0  0  0
   -3.8730   25.5770  -30.8460 O   0  0  0  0  0  0  0  0  0  0  0  0
   -4.7000   24.5680  -28.9700 O   0  0  0  0  0  0  0  0  0  0  0  0
   -3.0950   22.4400  -31.0810 C   0  0  0  0  0  0  0  0  0  0  0  0
   -4.2290   22.0890  -31.8250 C   0  0  0  0  0  0  0  0  0  0  0  0
   -7.2160   19.5550  -31.8510 C   0  0  0  0  0  0  0  0  0  0  0  0
   -8.7350   19.4340  -31.9330 C   0  0  0  0  0  0  0  0  0  0  0  0
   -9.1970   19.9510  -33.1290 F   0  0  0  0  0  0  0  0  0  0  0  0
   -9.1020   18.1040  -31.8450 F   0  0  0  0  0  0  0  0  0  0  0  0
   -6.2488   17.6887  -30.6992 H   0  0  0  0  0  0  0  0  0  0  0  0
   -6.7047   16.4738  -31.9413 H   0  0  0  0  0  0  0  0  0  0  0  0
   -5.0541   17.1823  -31.9413 H   0  0  0  0  0  0  0  0  0  0  0  0
   -4.5204   18.5312  -33.0972 H   0  0  0  0  0  0  0  0  0  0  0  0
   -5.6338   18.6544  -34.5103 H   0  0  0  0  0  0  0  0  0  0  0  0
   -5.3214   20.8903  -34.4238 H   0  0  0  0  0  0  0  0  0  0  0  0
   -6.2860   20.8681  -32.8982 H   0  0  0  0  0  0  0  0  0  0  0  0
   -2.9605   19.2219  -33.2495 H   0  0  0  0  0  0  0  0  0  0  0  0
   -0.9392   19.9319  -31.9308 H   0  0  0  0  0  0  0  0  0  0  0  0
    0.0331   21.9703  -30.1802 H   0  0  0  0  0  0  0  0  0  0  0  0
   -2.7810   25.3420  -28.2120 H   0  0  0  0  0  0  0  0  0  0  0  0
   -1.2590   25.9850  -27.5120 H   0  0  0  0  0  0  0  0  0  0  0  0
   -5.1396   22.7050  -31.7889 H   0  0  0  0  0  0  0  0  0  0  0  0
   -6.8999   19.4805  -30.8000 H   0  0  0  0  0  0  0  0  0  0  0  0
   -6.9061   20.5267  -32.2631 H   0  0  0  0  0  0  0  0  0  0  0  0
   -9.1760   20.0009  -31.0998 H   0  0  0  0  0  0  0  0  0  0  0  0
  1  2  1  0
  2  3  1  0
  3  4  1  0
  4  5  1  0
  5  6  2  0
  6  7  1  0
  7  8  2  0
  8  9  1  0
  9 10  2  0
 10 11  1  0
 11 12  1  0
 11 13  2  0
 10 14  1  0
 14 15  1  0
 15 16  2  0
 15 17  1  0
 14 18  1  0
 18 19  2  0
  2 20  1  0
 20 21  1  0
 21 22  1  0
 21 23  1  0
 19  5  1  0
 18  8  1  0
  1 24  1  0
  1 25  1  0
  1 26  1  0
  3 27  1  0
  3 28  1  0
  4 29  1  0
  4 30  1  0
  6 31  1  0
  7 32  1  0
  9 33  1  0
 12 34  1  0
 12 35  1  0
 19 36  1  0
 20 37  1  0
 20 38  1  0
 21 39  1  0
M  CHG  1  17  -1
M  END
>  <UniqueID>  (84) 
82

>  <SMILES>  (84) 
CN(CCc1ccc2cc(C(N)=O)n(C(=O)[O-])c2c1)CC(F)F

>  <Energy>  (84) 
77.24139808502103

>  <Genealogy>  (84) 
CN(CCc1ccc2cc(C(N)=O)n(C(=O)[O-])c2c1)CC(F)F (protonated)
CN(CCc1ccc2cc(C(N)=O)n(C(=O)[O-])c2c1)CC(F)F (3D coordinates assigned)
CN(CCc1ccc2cc(C(N)=O)n(C(=O)[O-])c2c1)CC(F)F (optimized conformer: 77.24139808502103 kcal/mol)

>  <smiles>  (84) 
CN(CCc1ccc2cc(C(N)=O)n(C(=O)O)c2c1)CC(F)F

>  <score_type>  (84) 
oracle

>  <origin>  (84) 
adg

>  <m_score__min__energy>  (84) 
-8.3399999999999999

>  <m_primary>  (84) 
energy

$$$$
84:0
     RDKit          3D

 38 40  0  0  0  0  0  0  0  0999 V2000
   -0.0350   21.6110  -28.9480 C   0  0  0  0  0  0  0  0  0  0  0  0
   -0.8060   22.8840  -28.8380 C   0  0  0  0  0  0  0  0  0  0  0  0
   -0.2820   24.0840  -28.9320 O   0  0  0  0  0  0  0  0  0  0  0  0
   -1.2800   24.9240  -28.7800 C   0  0  0  0  0  0  0  0  0  0  0  0
   -1.1500   26.1750  -28.8120 O   0  0  0  0  0  0  0  0  0  0  0  0
   -2.4290   24.3170  -28.5910 O   0  0  0  0  0  0  0  0  0  0  0  0
   -2.1660   23.0310  -28.6250 C   0  0  0  0  0  0  0  0  0  0  0  0
   -3.1930   21.9540  -28.4550 C   0  0  0  0  0  0  0  0  0  0  0  0
   -3.6550   21.5060  -29.7270 O   0  0  0  0  0  0  0  0  0  0  0  0
   -4.0130   22.3750  -30.7650 C   0  0  0  0  0  0  0  0  0  0  0  0
   -3.1300   22.8570  -31.5250 O   0  0  0  0  0  0  0  0  0  0  0  0
   -5.3970   22.7040  -30.9740 N   0  0  0  0  0  0  0  0  0  0  0  0
   -6.0300   23.8650  -30.6450 C   0  0  0  0  0  0  0  0  0  0  0  0
   -5.3700   25.0940  -30.1510 C   0  0  0  0  0  0  0  0  0  0  0  0
   -3.9460   25.2030  -30.1380 N   0  0  0  0  0  0  0  0  0  0  0  0
   -6.0620   26.0470  -29.7060 O   0  0  0  0  0  0  0  0  0  0  0  0
   -7.3910   23.7770  -30.9310 C   0  0  0  0  0  0  0  0  0  0  0  0
   -7.5740   22.5170  -31.4520 C   0  0  0  0  0  0  0  0  0  0  0  0
   -8.7360   21.8910  -31.8900 C   0  0  0  0  0  0  0  0  0  0  0  0
   -8.6390   20.5670  -32.3520 C   0  0  0  0  0  0  0  0  0  0  0  0
   -7.3880   19.9010  -32.3700 C   0  0  0  0  0  0  0  0  0  0  0  0
   -7.3050   18.4720  -32.8170 C   0  0  0  0  0  0  0  0  0  0  0  0
   -6.4690   18.3800  -33.9140 F   0  0  0  0  0  0  0  0  0  0  0  0
   -6.2310   20.5630  -31.9040 C   0  0  0  0  0  0  0  0  0  0  0  0
   -6.3550   21.8880  -31.4660 C   0  0  0  0  0  0  0  0  0  0  0  0
    0.1940   21.2328  -27.9408 H   0  0  0  0  0  0  0  0  0  0  0  0
   -0.6336   20.8656  -29.4922 H   0  0  0  0  0  0  0  0  0  0  0  0
    0.9029   21.7962  -29.4922 H   0  0  0  0  0  0  0  0  0  0  0  0
   -2.7454   21.1080  -27.9129 H   0  0  0  0  0  0  0  0  0  0  0  0
   -4.0441   22.3575  -27.8869 H   0  0  0  0  0  0  0  0  0  0  0  0
   -3.3410   24.4560  -30.5460 H   0  0  0  0  0  0  0  0  0  0  0  0
   -3.4900   26.0590  -29.7530 H   0  0  0  0  0  0  0  0  0  0  0  0
   -8.1567   24.5509  -30.7736 H   0  0  0  0  0  0  0  0  0  0  0  0
   -9.7023   22.4163  -31.8753 H   0  0  0  0  0  0  0  0  0  0  0  0
   -9.5409   20.0437  -32.7023 H   0  0  0  0  0  0  0  0  0  0  0  0
   -6.9057   17.8545  -31.9989 H   0  0  0  0  0  0  0  0  0  0  0  0
   -8.3088   18.1144  -33.0900 H   0  0  0  0  0  0  0  0  0  0  0  0
   -5.2573   20.0515  -31.8854 H   0  0  0  0  0  0  0  0  0  0  0  0
  1  2  1  0
  2  3  1  0
  3  4  1  0
  4  5  2  0
  4  6  1  0
  6  7  1  0
  7  8  1  0
  8  9  1  0
  9 10  1  0
 10 11  2  0
 10 12  1  0
 12 13  1  0
 13 14  1  0
 14 15  1  0
 14 16  2  0
 13 17  2  0
 17 18  1  0
 18 19  2  0
 19 20  1  0
 20 21  2  0
 21 22  1  0
 22 23  1  0
 21 24  1  0
 24 25  2  0
  7  2  2  0
 25 12  1  0
 25 18  1  0
  1 26  1  0
  1 27  1  0
  1 28  1  0
  8 29  1  0
  8 30  1  0
 15 31  1  0
 15 32  1  0
 17 33  1  0
 19 34  1  0
 20 35  1  0
 22 36  1  0
 22 37  1  0
 24 38  1  0
M  END
>  <UniqueID>  (85) 
83

>  <SMILES>  (85) 
Cc1oc(=O)oc1COC(=O)n1c(C(N)=O)cc2ccc(CF)cc21

>  <Energy>  (85) 
107.47914928500441

>  <Genealogy>  (85) 
Cc1oc(=O)oc1COC(=O)n1c(C(N)=O)cc2ccc(CF)cc21 (3D coordinates assigned)
Cc1oc(=O)oc1COC(=O)n1c(C(N)=O)cc2ccc(CF)cc21 (optimized conformer: 107.47914928500441 kcal/mol)

>  <smiles>  (85) 
Cc1oc(=O)oc1COC(=O)n1c(C(N)=O)cc2ccc(CF)cc21

>  <score_type>  (85) 
oracle

>  <origin>  (85) 
adg

>  <m_score__min__energy>  (85) 
-8.2100000000000009

>  <m_primary>  (85) 
energy

$$$$
85:0
     RDKit          3D

 48 50  0  0  0  0  0  0  0  0999 V2000
   -6.1220   17.1900  -31.8930 C   0  0  0  0  0  0  0  0  0  0  0  0
   -6.1990   18.2670  -32.8900 N   0  0  0  0  0  0  0  0  0  0  0  0
   -5.7850   17.9850  -34.2690 C   0  0  0  0  0  0  0  0  0  0  0  0
   -6.6740   19.5870  -32.5160 C   0  0  0  0  0  0  0  0  0  0  0  0
   -8.0430   19.9440  -32.6890 C   0  0  0  0  0  0  0  0  0  0  0  0
   -8.5100   21.2220  -32.3360 C   0  0  0  0  0  0  0  0  0  0  0  0
   -7.6000   22.1290  -31.8100 C   0  0  0  0  0  0  0  0  0  0  0  0
   -7.7780   23.4310  -31.3970 C   0  0  0  0  0  0  0  0  0  0  0  0
   -6.5220   23.8570  -30.9630 C   0  0  0  0  0  0  0  0  0  0  0  0
   -6.2490   25.1760  -30.3530 C   0  0  0  0  0  0  0  0  0  0  0  0
   -5.1640   25.9860  -30.8130 N   0  0  0  0  0  0  0  0  0  0  0  0
   -6.9870   25.6080  -29.4290 O   0  0  0  0  0  0  0  0  0  0  0  0
   -5.6110   22.8550  -31.1070 N   0  0  0  0  0  0  0  0  0  0  0  0
   -4.2020   22.9000  -30.8400 C   0  0  0  0  0  0  0  0  0  0  0  0
   -3.4020   23.0860  -31.7950 O   0  0  0  0  0  0  0  0  0  0  0  0
   -3.7140   22.8560  -29.4110 C   0  0  0  0  0  0  0  0  0  0  0  0
   -2.9600   24.1310  -28.9320 C   0  0  0  0  0  0  0  0  0  0  0  0
   -3.1690   25.1870  -29.8430 O   0  0  0  0  0  0  0  0  0  0  0  0
   -3.4610   24.5800  -27.5290 C   0  0  0  0  0  0  0  0  0  0  0  0
   -2.3780   25.3420  -26.7410 C   0  0  0  0  0  0  0  0  0  0  0  0
   -1.4820   25.9870  -27.6220 O   0  0  0  0  0  0  0  0  0  0  0  0
   -0.6600   25.0310  -28.2710 C   0  0  0  0  0  0  0  0  0  0  0  0
   -1.4460   23.8240  -28.8370 C   0  0  0  0  0  0  0  0  0  0  0  0
   -6.2850   21.8070  -31.6230 C   0  0  0  0  0  0  0  0  0  0  0  0
   -5.7840   20.5490  -31.9710 C   0  0  0  0  0  0  0  0  0  0  0  0
   -6.1530   17.6231  -30.8823 H   0  0  0  0  0  0  0  0  0  0  0  0
   -6.9736   16.5064  -32.0252 H   0  0  0  0  0  0  0  0  0  0  0  0
   -5.1818   16.6345  -32.0252 H   0  0  0  0  0  0  0  0  0  0  0  0
   -4.8759   17.3658  -34.2595 H   0  0  0  0  0  0  0  0  0  0  0  0
   -6.5900   17.4466  -34.7907 H   0  0  0  0  0  0  0  0  0  0  0  0
   -5.5787   18.9312  -34.7907 H   0  0  0  0  0  0  0  0  0  0  0  0
   -8.7457   19.2073  -33.1056 H   0  0  0  0  0  0  0  0  0  0  0  0
   -9.5666   21.4957  -32.4727 H   0  0  0  0  0  0  0  0  0  0  0  0
   -8.7121   24.0118  -31.4071 H   0  0  0  0  0  0  0  0  0  0  0  0
   -5.0060   26.9310  -30.3970 H   0  0  0  0  0  0  0  0  0  0  0  0
   -4.4920   25.6400  -31.5310 H   0  0  0  0  0  0  0  0  0  0  0  0
   -4.5864   22.7100  -28.7571 H   0  0  0  0  0  0  0  0  0  0  0  0
   -2.9866   22.0324  -29.3605 H   0  0  0  0  0  0  0  0  0  0  0  0
   -3.0770   26.0420  -29.3460 H   0  0  0  0  0  0  0  0  0  0  0  0
   -4.3337   25.2371  -27.6580 H   0  0  0  0  0  0  0  0  0  0  0  0
   -3.7214   23.6765  -26.9581 H   0  0  0  0  0  0  0  0  0  0  0  0
   -2.8600   26.0953  -26.1005 H   0  0  0  0  0  0  0  0  0  0  0  0
   -1.8153   24.6234  -26.1270 H   0  0  0  0  0  0  0  0  0  0  0  0
   -0.1382   25.5275  -29.1024 H   0  0  0  0  0  0  0  0  0  0  0  0
    0.0371   24.6381  -27.5163 H   0  0  0  0  0  0  0  0  0  0  0  0
   -1.0649   23.5879  -29.8415 H   0  0  0  0  0  0  0  0  0  0  0  0
   -1.3076   22.9707  -28.1567 H   0  0  0  0  0  0  0  0  0  0  0  0
   -4.7204   20.3093  -31.8252 H   0  0  0  0  0  0  0  0  0  0  0  0
  1  2  1  0
  2  3  1  0
  2  4  1  0
  4  5  2  0
  5  6  1  0
  6  7  2  0
  7  8  1  0
  8  9  2  0
  9 10  1  0
 10 11  1  0
 10 12  2  0
  9 13  1  0
 13 14  1  0
 14 15  2  0
 14 16  1  0
 16 17  1  0
 17 18  1  0
 17 19  1  0
 19 20  1  0
 20 21  1  0
 21 22  1  0
 22 23  1  0
 13 24  1  0
 24 25  2  0
 25  4  1  0
 24  7  1  0
 23 17  1  0
  1 26  1  0
  1 27  1  0
  1 28  1  0
  3 29  1  0
  3 30  1  0
  3 31  1  0
  5 32  1  0
  6 33  1  0
  8 34  1  0
 11 35  1  0
 11 36  1  0
 16 37  1  0
 16 38  1  0
 18 39  1  0
 19 40  1  0
 19 41  1  0
 20 42  1  0
 20 43  1  0
 22 44  1  0
 22 45  1  0
 23 46  1  0
 23 47  1  0
 25 48  1  0
M  END
>  <UniqueID>  (86) 
84

>  <SMILES>  (86) 
CN(C)c1ccc2cc(C(N)=O)n(C(=O)CC3(O)CCOCC3)c2c1

>  <Energy>  (86) 
99.5796847084848

>  <Genealogy>  (86) 
CN(C)c1ccc2cc(C(N)=O)n(C(=O)CC3(O)CCOCC3)c2c1 (3D coordinates assigned)
CN(C)c1ccc2cc(C(N)=O)n(C(=O)CC3(O)CCOCC3)c2c1 (nonaromatic ring conformer: 99.5796847084848 kcal/mol)

>  <smiles>  (86) 
CN(C)c1ccc2cc(C(N)=O)n(C(=O)CC3(O)CCOCC3)c2c1

>  <score_type>  (86) 
oracle

>  <origin>  (86) 
adg

>  <m_score__min__energy>  (86) 
-9.9800000000000004

>  <m_primary>  (86) 
energy

$$$$
86:0
     RDKit          3D

 40 42  0  0  0  0  0  0  0  0999 V2000
   -0.0050   18.5310  -27.8410 C   0  0  0  0  0  0  0  0  0  0  0  0
   -1.3370   18.3330  -27.3840 O   0  0  0  0  0  0  0  0  0  0  0  0
   -2.2140   19.3920  -27.1280 C   0  0  0  0  0  0  0  0  0  0  0  0
   -3.1010   19.2760  -26.2350 O   0  0  0  0  0  0  0  0  0  0  0  0
   -2.1000   20.6470  -27.9010 C   0  0  0  0  0  0  0  0  0  0  0  0
   -1.3570   21.7330  -27.4110 C   0  0  0  0  0  0  0  0  0  0  0  0
   -1.2630   22.8790  -28.1330 N   0  0  0  0  0  0  0  0  0  0  0  0
   -1.8700   23.0210  -29.3400 C   0  0  0  0  0  0  0  0  0  0  0  0
   -2.6200   21.9680  -29.8850 C   0  0  0  0  0  0  0  0  0  0  0  0
   -3.2810   22.1150  -31.2040 C   0  0  0  0  0  0  0  0  0  0  0  0
   -2.5880   22.0910  -32.2580 O   0  0  0  0  0  0  0  0  0  0  0  0
   -4.7010   22.3110  -31.3070 N   0  0  0  0  0  0  0  0  0  0  0  0
   -5.4300   23.3860  -30.8940 C   0  0  0  0  0  0  0  0  0  0  0  0
   -4.8900   24.5510  -30.1560 C   0  0  0  0  0  0  0  0  0  0  0  0
   -5.3380   24.8530  -28.8340 N   0  0  0  0  0  0  0  0  0  0  0  0
   -4.0130   25.2830  -30.6870 O   0  0  0  0  0  0  0  0  0  0  0  0
   -6.7770   23.2060  -31.2080 C   0  0  0  0  0  0  0  0  0  0  0  0
   -6.8470   21.9760  -31.8220 C   0  0  0  0  0  0  0  0  0  0  0  0
   -7.9440   21.2890  -32.3310 C   0  0  0  0  0  0  0  0  0  0  0  0
   -7.7210   20.0310  -32.9180 C   0  0  0  0  0  0  0  0  0  0  0  0
   -6.4100   19.4940  -33.0040 C   0  0  0  0  0  0  0  0  0  0  0  0
   -6.1890   18.1240  -33.5970 C   0  0  0  0  0  0  0  0  0  0  0  0
   -7.2350   17.2980  -33.2320 F   0  0  0  0  0  0  0  0  0  0  0  0
   -6.1280   18.1940  -34.9770 F   0  0  0  0  0  0  0  0  0  0  0  0
   -5.0030   17.5790  -33.1370 F   0  0  0  0  0  0  0  0  0  0  0  0
   -5.3250   20.2120  -32.4520 C   0  0  0  0  0  0  0  0  0  0  0  0
   -5.5810   21.4570  -31.8670 C   0  0  0  0  0  0  0  0  0  0  0  0
   -2.7370   20.7790  -29.1450 C   0  0  0  0  0  0  0  0  0  0  0  0
    0.6681   18.6311  -26.9768 H   0  0  0  0  0  0  0  0  0  0  0  0
    0.3057   17.6692  -28.4499 H   0  0  0  0  0  0  0  0  0  0  0  0
    0.0416   19.4459  -28.4499 H   0  0  0  0  0  0  0  0  0  0  0  0
   -0.8491   21.6550  -26.4384 H   0  0  0  0  0  0  0  0  0  0  0  0
   -1.7729   23.9669  -29.8931 H   0  0  0  0  0  0  0  0  0  0  0  0
   -6.1110   24.3140  -28.3840 H   0  0  0  0  0  0  0  0  0  0  0  0
   -4.9260   25.6580  -28.3140 H   0  0  0  0  0  0  0  0  0  0  0  0
   -7.6070   23.8995  -31.0076 H   0  0  0  0  0  0  0  0  0  0  0  0
   -8.9558   21.7171  -32.2760 H   0  0  0  0  0  0  0  0  0  0  0  0
   -8.5714   19.4570  -33.3147 H   0  0  0  0  0  0  0  0  0  0  0  0
   -4.3046   19.8022  -32.4815 H   0  0  0  0  0  0  0  0  0  0  0  0
   -3.3327   19.9447  -29.5439 H   0  0  0  0  0  0  0  0  0  0  0  0
  1  2  1  0
  2  3  1  0
  3  4  2  0
  3  5  1  0
  5  6  2  0
  6  7  1  0
  7  8  2  0
  8  9  1  0
  9 10  1  0
 10 11  2  0
 10 12  1  0
 12 13  1  0
 13 14  1  0
 14 15  1  0
 14 16  2  0
 13 17  2  0
 17 18  1  0
 18 19  2  0
 19 20  1  0
 20 21  2  0
 21 22  1  0
 22 23  1  0
 22 24  1  0
 22 25  1  0
 21 26  1  0
 26 27  2  0
  9 28  2  0
 28  5  1  0
 27 12  1  0
 27 18  1  0
  1 29  1  0
  1 30  1  0
  1 31  1  0
  6 32  1  0
  8 33  1  0
 15 34  1  0
 15 35  1  0
 17 36  1  0
 19 37  1  0
 20 38  1  0
 26 39  1  0
 28 40  1  0
M  END
>  <UniqueID>  (87) 
85

>  <SMILES>  (87) 
COC(=O)c1cncc(C(=O)n2c(C(N)=O)cc3ccc(C(F)(F)F)cc32)c1

>  <Energy>  (87) 
82.66778345992984

>  <Genealogy>  (87) 
COC(=O)c1cncc(C(=O)n2c(C(N)=O)cc3ccc(C(F)(F)F)cc32)c1 (3D coordinates assigned)
COC(=O)c1cncc(C(=O)n2c(C(N)=O)cc3ccc(C(F)(F)F)cc32)c1 (optimized conformer: 82.66778345992984 kcal/mol)

>  <smiles>  (87) 
COC(=O)c1cncc(C(=O)n2c(C(N)=O)cc3ccc(C(F)(F)F)cc32)c1

>  <score_type>  (87) 
oracle

>  <origin>  (87) 
adg

>  <m_score__min__energy>  (87) 
-9.6199999999999992

>  <m_primary>  (87) 
energy

$$$$
87:0
     RDKit          3D

 28 29  0  0  0  0  0  0  0  0999 V2000
   -1.6210   24.4830  -28.9980 N   0  0  0  0  0  0  0  0  0  0  0  0
   -2.2990   23.5760  -29.2350 C   0  0  0  0  0  0  0  0  0  0  0  0
   -3.1600   22.4280  -29.5350 C   0  0  0  0  0  0  0  0  0  0  0  0
   -3.7680   22.5920  -30.8930 C   0  0  0  0  0  0  0  0  0  0  0  0
   -3.0290   22.5590  -31.9150 O   0  0  0  0  0  0  0  0  0  0  0  0
   -5.1770   22.8200  -31.0410 N   0  0  0  0  0  0  0  0  0  0  0  0
   -5.8500   23.9940  -30.8860 C   0  0  0  0  0  0  0  0  0  0  0  0
   -5.2590   25.2740  -30.4400 C   0  0  0  0  0  0  0  0  0  0  0  0
   -3.9420   25.6300  -30.8550 N   0  0  0  0  0  0  0  0  0  0  0  0
   -5.9120   26.0660  -29.7110 O   0  0  0  0  0  0  0  0  0  0  0  0
   -7.2050   23.8190  -31.1630 C   0  0  0  0  0  0  0  0  0  0  0  0
   -7.3400   22.4900  -31.4960 C   0  0  0  0  0  0  0  0  0  0  0  0
   -8.4660   21.7740  -31.8910 C   0  0  0  0  0  0  0  0  0  0  0  0
   -8.3040   20.4170  -32.2160 C   0  0  0  0  0  0  0  0  0  0  0  0
   -7.0300   19.7970  -32.1330 C   0  0  0  0  0  0  0  0  0  0  0  0
   -6.8590   18.3570  -32.5440 C   0  0  0  0  0  0  0  0  0  0  0  0
   -6.5100   18.2690  -33.8820 F   0  0  0  0  0  0  0  0  0  0  0  0
   -5.8640   17.7510  -31.7980 F   0  0  0  0  0  0  0  0  0  0  0  0
   -8.0490   17.6830  -32.3440 F   0  0  0  0  0  0  0  0  0  0  0  0
   -5.9050   20.5670  -31.7530 C   0  0  0  0  0  0  0  0  0  0  0  0
   -6.1010   21.9100  -31.4180 C   0  0  0  0  0  0  0  0  0  0  0  0
   -2.5606   21.5060  -29.5121 H   0  0  0  0  0  0  0  0  0  0  0  0
   -3.9607   22.3680  -28.7832 H   0  0  0  0  0  0  0  0  0  0  0  0
   -3.1050   25.2950  -30.3280 H   0  0  0  0  0  0  0  0  0  0  0  0
   -7.9976   24.5807  -31.1238 H   0  0  0  0  0  0  0  0  0  0  0  0
   -9.4531   22.2561  -31.9470 H   0  0  0  0  0  0  0  0  0  0  0  0
   -9.1750   19.8278  -32.5387 H   0  0  0  0  0  0  0  0  0  0  0  0
   -4.9006   20.1195  -31.7220 H   0  0  0  0  0  0  0  0  0  0  0  0
  1  2  3  0
  2  3  1  0
  3  4  1  0
  4  5  2  0
  4  6  1  0
  6  7  1  0
  7  8  1  0
  8  9  1  0
  8 10  2  0
  7 11  2  0
 11 12  1  0
 12 13  2  0
 13 14  1  0
 14 15  2  0
 15 16  1  0
 16 17  1  0
 16 18  1  0
 16 19  1  0
 15 20  1  0
 20 21  2  0
 21  6  1  0
 21 12  1  0
  3 22  1  0
  3 23  1  0
  9 24  1  0
 11 25  1  0
 13 26  1  0
 14 27  1  0
 20 28  1  0
M  CHG  1   9  -1
M  END
>  <UniqueID>  (88) 
86

>  <SMILES>  (88) 
N#CCC(=O)n1c(C([NH-])=O)cc2ccc(C(F)(F)F)cc21

>  <Energy>  (88) 
66.17025760153864

>  <Genealogy>  (88) 
N#CCC(=O)n1c(C([NH-])=O)cc2ccc(C(F)(F)F)cc21 (protonated)
N#CCC(=O)n1c(C([NH-])=O)cc2ccc(C(F)(F)F)cc21 (3D coordinates assigned)
N#CCC(=O)n1c(C([NH-])=O)cc2ccc(C(F)(F)F)cc21 (optimized conformer: 66.17025760153864 kcal/mol)

>  <smiles>  (88) 
N#CCC(=O)n1c(C(N)=O)cc2ccc(C(F)(F)F)cc21

>  <score_type>  (88) 
oracle

>  <origin>  (88) 
adg

>  <m_score__min__energy>  (88) 
-9.4800000000000004

>  <m_primary>  (88) 
energy

$$$$
88:0
     RDKit          3D

 51 52  0  0  0  0  0  0  0  0999 V2000
   -5.3760   16.3450  -34.1920 C   0  0  0  0  0  0  0  0  0  0  0  0
   -6.3500   17.3800  -33.8170 N   0  0  0  0  0  0  0  0  0  0  0  0
   -6.0100   18.6780  -34.4230 C   0  0  0  0  0  0  0  0  0  0  0  0
   -6.5910   17.4610  -32.3570 C   0  0  0  0  0  0  0  0  0  0  0  0
   -8.0360   17.8350  -31.9510 C   0  0  0  0  0  0  0  0  0  0  0  0
   -8.5100   19.0350  -32.6470 N   0  0  0  0  0  0  0  0  0  0  0  0
   -8.1670   20.3710  -32.2370 C   0  0  0  0  0  0  0  0  0  0  0  0
   -9.0940   21.4440  -32.3370 C   0  0  0  0  0  0  0  0  0  0  0  0
   -8.7420   22.7390  -31.9210 C   0  0  0  0  0  0  0  0  0  0  0  0
   -7.4610   22.9370  -31.4150 C   0  0  0  0  0  0  0  0  0  0  0  0
   -6.8700   24.0790  -30.9240 C   0  0  0  0  0  0  0  0  0  0  0  0
   -5.5830   23.6980  -30.5490 C   0  0  0  0  0  0  0  0  0  0  0  0
   -4.5550   24.6390  -30.0510 C   0  0  0  0  0  0  0  0  0  0  0  0
   -3.9180   24.4230  -28.7900 N   0  0  0  0  0  0  0  0  0  0  0  0
   -4.2520   25.6580  -30.7240 O   0  0  0  0  0  0  0  0  0  0  0  0
   -5.3890   22.3710  -30.7970 N   0  0  0  0  0  0  0  0  0  0  0  0
   -4.2220   21.5840  -30.5120 C   0  0  0  0  0  0  0  0  0  0  0  0
   -3.5880   21.7710  -29.4380 O   0  0  0  0  0  0  0  0  0  0  0  0
   -3.8130   20.6030  -31.4270 O   0  0  0  0  0  0  0  0  0  0  0  0
   -3.0710   20.8210  -32.6360 C   0  0  0  0  0  0  0  0  0  0  0  0
   -3.8490   21.8570  -33.4610 C   0  0  0  0  0  0  0  0  0  0  0  0
   -1.6720   21.3840  -32.3200 C   0  0  0  0  0  0  0  0  0  0  0  0
   -2.9630   19.5180  -33.4480 C   0  0  0  0  0  0  0  0  0  0  0  0
   -6.5470   21.9200  -31.3260 C   0  0  0  0  0  0  0  0  0  0  0  0
   -6.8780   20.6160  -31.7130 C   0  0  0  0  0  0  0  0  0  0  0  0
   -4.9517   15.8941  -33.2828 H   0  0  0  0  0  0  0  0  0  0  0  0
   -5.8778   15.5676  -34.7869 H   0  0  0  0  0  0  0  0  0  0  0  0
   -4.5696   16.7987  -34.7869 H   0  0  0  0  0  0  0  0  0  0  0  0
   -5.8172   19.4142  -33.6288 H   0  0  0  0  0  0  0  0  0  0  0  0
   -5.1106   18.5672  -35.0465 H   0  0  0  0  0  0  0  0  0  0  0  0
   -6.8482   19.0224  -35.0465 H   0  0  0  0  0  0  0  0  0  0  0  0
   -6.3566   16.4801  -31.9178 H   0  0  0  0  0  0  0  0  0  0  0  0
   -5.9481   18.2722  -31.9846 H   0  0  0  0  0  0  0  0  0  0  0  0
   -8.7025   16.9953  -32.1973 H   0  0  0  0  0  0  0  0  0  0  0  0
   -8.0415   18.0446  -30.8712 H   0  0  0  0  0  0  0  0  0  0  0  0
   -9.1330   18.9260  -33.4790 H   0  0  0  0  0  0  0  0  0  0  0  0
  -10.0986   21.2583  -32.7448 H   0  0  0  0  0  0  0  0  0  0  0  0
   -9.4576   23.5713  -31.9931 H   0  0  0  0  0  0  0  0  0  0  0  0
   -7.3185   25.0803  -30.8445 H   0  0  0  0  0  0  0  0  0  0  0  0
   -4.1010   23.5610  -28.2300 H   0  0  0  0  0  0  0  0  0  0  0  0
   -3.2220   25.1140  -28.4300 H   0  0  0  0  0  0  0  0  0  0  0  0
   -4.3692   22.5497  -32.7831 H   0  0  0  0  0  0  0  0  0  0  0  0
   -3.1493   22.4209  -34.0953 H   0  0  0  0  0  0  0  0  0  0  0  0
   -4.5857   21.3423  -34.0953 H   0  0  0  0  0  0  0  0  0  0  0  0
   -1.5364   21.4386  -31.2298 H   0  0  0  0  0  0  0  0  0  0  0  0
   -0.9051   20.7245  -32.7523 H   0  0  0  0  0  0  0  0  0  0  0  0
   -1.5757   22.3909  -32.7523 H   0  0  0  0  0  0  0  0  0  0  0  0
   -2.8921   18.6623  -32.7604 H   0  0  0  0  0  0  0  0  0  0  0  0
   -3.8549   19.4060  -34.0820 H   0  0  0  0  0  0  0  0  0  0  0  0
   -2.0648   19.5544  -34.0820 H   0  0  0  0  0  0  0  0  0  0  0  0
   -6.1491   19.7985  -31.6112 H   0  0  0  0  0  0  0  0  0  0  0  0
  1  2  1  0
  2  3  1  0
  2  4  1  0
  4  5  1  0
  5  6  1  0
  6  7  1  0
  7  8  2  0
  8  9  1  0
  9 10  2  0
 10 11  1  0
 11 12  2  0
 12 13  1  0
 13 14  1  0
 13 15  2  0
 12 16  1  0
 16 17  1  0
 17 18  2  0
 17 19  1  0
 19 20  1  0
 20 21  1  0
 20 22  1  0
 20 23  1  0
 16 24  1  0
 24 25  2  0
 25  7  1  0
 24 10  1  0
  1 26  1  0
  1 27  1  0
  1 28  1  0
  3 29  1  0
  3 30  1  0
  3 31  1  0
  4 32  1  0
  4 33  1  0
  5 34  1  0
  5 35  1  0
  6 36  1  0
  8 37  1  0
  9 38  1  0
 11 39  1  0
 14 40  1  0
 14 41  1  0
 21 42  1  0
 21 43  1  0
 21 44  1  0
 22 45  1  0
 22 46  1  0
 22 47  1  0
 23 48  1  0
 23 49  1  0
 23 50  1  0
 25 51  1  0
M  END
>  <UniqueID>  (89) 
87

>  <SMILES>  (89) 
CN(C)CCNc1ccc2cc(C(N)=O)n(C(=O)OC(C)(C)C)c2c1

>  <Energy>  (89) 
86.52493202442095

>  <Genealogy>  (89) 
CN(C)CCNc1ccc2cc(C(N)=O)n(C(=O)OC(C)(C)C)c2c1 (3D coordinates assigned)
CN(C)CCNc1ccc2cc(C(N)=O)n(C(=O)OC(C)(C)C)c2c1 (optimized conformer: 86.52493202442095 kcal/mol)

>  <smiles>  (89) 
CN(C)CCNc1ccc2cc(C(N)=O)n(C(=O)OC(C)(C)C)c2c1

>  <score_type>  (89) 
oracle

>  <origin>  (89) 
adg

>  <m_score__min__energy>  (89) 
-8.9499999999999993

>  <m_primary>  (89) 
energy

$$$$
89:0
     RDKit          3D

 46 48  0  0  0  0  0  0  0  0999 V2000
   -7.2400   18.4200  -32.7360 C   0  0  0  0  0  0  0  0  0  0  0  0
   -7.3450   19.8510  -32.2980 C   0  0  0  0  0  0  0  0  0  0  0  0
   -8.5930   20.5180  -32.3450 C   0  0  0  0  0  0  0  0  0  0  0  0
   -8.6990   21.8630  -31.9580 C   0  0  0  0  0  0  0  0  0  0  0  0
   -7.5380   22.5190  -31.5560 C   0  0  0  0  0  0  0  0  0  0  0  0
   -7.3650   23.8040  -31.0980 C   0  0  0  0  0  0  0  0  0  0  0  0
   -6.0050   23.9170  -30.8110 C   0  0  0  0  0  0  0  0  0  0  0  0
   -5.4020   25.1580  -30.2690 C   0  0  0  0  0  0  0  0  0  0  0  0
   -4.1450   25.6440  -30.7310 N   0  0  0  0  0  0  0  0  0  0  0  0
   -6.0130   25.8040  -29.3740 O   0  0  0  0  0  0  0  0  0  0  0  0
   -5.3560   22.7530  -31.1110 N   0  0  0  0  0  0  0  0  0  0  0  0
   -3.9570   22.4550  -30.9390 C   0  0  0  0  0  0  0  0  0  0  0  0
   -3.1050   23.1240  -31.5840 O   0  0  0  0  0  0  0  0  0  0  0  0
   -3.4540   21.4410  -29.9350 C   0  0  0  0  0  0  0  0  0  0  0  0
   -3.1000   22.0000  -28.5380 C   0  0  0  0  0  0  0  0  0  0  0  0
   -4.0670   23.0930  -28.0290 C   0  0  0  0  0  0  0  0  0  0  0  0
   -3.4800   24.4560  -28.0640 N   0  0  0  0  0  0  0  0  0  0  0  0
   -2.1330   24.4720  -28.6650 C   0  0  0  0  0  0  0  0  0  0  0  0
   -1.1160   24.3510  -27.5340 C   0  0  0  0  0  0  0  0  0  0  0  0
   -1.8940   24.5970  -26.2550 C   0  0  0  0  0  0  0  0  0  0  0  0
   -3.2900   24.9910  -26.7070 C   0  0  0  0  0  0  0  0  0  0  0  0
   -6.3150   21.9000  -31.5410 C   0  0  0  0  0  0  0  0  0  0  0  0
   -6.1880   20.5510  -31.8950 C   0  0  0  0  0  0  0  0  0  0  0  0
   -7.1922   17.7683  -31.8511 H   0  0  0  0  0  0  0  0  0  0  0  0
   -8.1212   18.1555  -33.3390 H   0  0  0  0  0  0  0  0  0  0  0  0
   -6.3297   18.2870  -33.3390 H   0  0  0  0  0  0  0  0  0  0  0  0
   -9.4875   19.9773  -32.6879 H   0  0  0  0  0  0  0  0  0  0  0  0
   -9.6684   22.3826  -31.9718 H   0  0  0  0  0  0  0  0  0  0  0  0
   -8.1367   24.5793  -30.9824 H   0  0  0  0  0  0  0  0  0  0  0  0
   -3.2770   25.0710  -30.6320 H   0  0  0  0  0  0  0  0  0  0  0  0
   -4.2351   20.6774  -29.8055 H   0  0  0  0  0  0  0  0  0  0  0  0
   -2.5128   21.0504  -30.3491 H   0  0  0  0  0  0  0  0  0  0  0  0
   -3.1124   21.1669  -27.8198 H   0  0  0  0  0  0  0  0  0  0  0  0
   -2.1099   22.4709  -28.6277 H   0  0  0  0  0  0  0  0  0  0  0  0
   -4.9679   23.0841  -28.6601 H   0  0  0  0  0  0  0  0  0  0  0  0
   -4.2962   22.8628  -26.9780 H   0  0  0  0  0  0  0  0  0  0  0  0
   -4.1180   25.0940  -28.5850 H   0  0  0  0  0  0  0  0  0  0  0  0
   -2.0230   23.6259  -29.3592 H   0  0  0  0  0  0  0  0  0  0  0  0
   -1.9739   25.4044  -29.2265 H   0  0  0  0  0  0  0  0  0  0  0  0
   -0.6705   23.3453  -27.5246 H   0  0  0  0  0  0  0  0  0  0  0  0
   -0.2904   25.0683  -27.6516 H   0  0  0  0  0  0  0  0  0  0  0  0
   -1.9301   23.6832  -25.6437 H   0  0  0  0  0  0  0  0  0  0  0  0
   -1.4279   25.3761  -25.6339 H   0  0  0  0  0  0  0  0  0  0  0  0
   -4.0405   24.5635  -26.0258 H   0  0  0  0  0  0  0  0  0  0  0  0
   -3.4061   26.0848  -26.7008 H   0  0  0  0  0  0  0  0  0  0  0  0
   -5.2098   20.0492  -31.8597 H   0  0  0  0  0  0  0  0  0  0  0  0
  1  2  1  0
  2  3  2  0
  3  4  1  0
  4  5  2  0
  5  6  1  0
  6  7  2  0
  7  8  1  0
  8  9  1  0
  8 10  2  0
  7 11  1  0
 11 12  1  0
 12 13  2  0
 12 14  1  0
 14 15  1  0
 15 16  1  0
 16 17  1  0
 17 18  1  0
 18 19  1  0
 19 20  1  0
 20 21  1  0
 11 22  1  0
 22 23  2  0
 23  2  1  0
 22  5  1  0
 21 17  1  0
  1 24  1  0
  1 25  1  0
  1 26  1  0
  3 27  1  0
  4 28  1  0
  6 29  1  0
  9 30  1  0
 14 31  1  0
 14 32  1  0
 15 33  1  0
 15 34  1  0
 16 35  1  0
 16 36  1  0
 17 37  1  0
 18 38  1  0
 18 39  1  0
 19 40  1  0
 19 41  1  0
 20 42  1  0
 20 43  1  0
 21 44  1  0
 21 45  1  0
 23 46  1  0
M  CHG  2   9  -1  17   1
M  END
>  <UniqueID>  (90) 
88

>  <SMILES>  (90) 
Cc1ccc2cc(C([NH-])=O)n(C(=O)CCC[NH+]3CCCC3)c2c1

>  <Energy>  (90) 
89.39502658347574

>  <Genealogy>  (90) 
Cc1ccc2cc(C([NH-])=O)n(C(=O)CCC[NH+]3CCCC3)c2c1 (protonated)
Cc1ccc2cc(C([NH-])=O)n(C(=O)CCC[NH+]3CCCC3)c2c1 (3D coordinates assigned)
Cc1ccc2cc(C([NH-])=O)n(C(=O)CCC[NH+]3CCCC3)c2c1 (nonaromatic ring conformer: 89.39502658347574 kcal/mol)

>  <smiles>  (90) 
Cc1ccc2cc(C(N)=O)n(C(=O)CCCN3CCCC3)c2c1

>  <score_type>  (90) 
oracle

>  <origin>  (90) 
adg

>  <m_score__min__energy>  (90) 
-10.289999999999999

>  <m_primary>  (90) 
energy

$$$$
90:0
     RDKit          3D

 29 30  0  0  0  0  0  0  0  0999 V2000
   -4.5090   25.6830  -30.8310 N   0  0  0  0  0  0  0  0  0  0  0  0
   -5.7760   25.1400  -30.4700 C   0  0  0  0  0  0  0  0  0  0  0  0
   -6.5710   25.8380  -29.7840 O   0  0  0  0  0  0  0  0  0  0  0  0
   -6.1810   23.7860  -30.9070 C   0  0  0  0  0  0  0  0  0  0  0  0
   -7.4930   23.4380  -31.2270 C   0  0  0  0  0  0  0  0  0  0  0  0
   -7.4360   22.1200  -31.6190 C   0  0  0  0  0  0  0  0  0  0  0  0
   -8.4500   21.2640  -32.0370 C   0  0  0  0  0  0  0  0  0  0  0  0
   -8.1040   19.9420  -32.3620 C   0  0  0  0  0  0  0  0  0  0  0  0
   -6.7650   19.4900  -32.2390 C   0  0  0  0  0  0  0  0  0  0  0  0
   -6.4020   18.0800  -32.6290 C   0  0  0  0  0  0  0  0  0  0  0  0
   -5.6170   17.4920  -31.6530 F   0  0  0  0  0  0  0  0  0  0  0  0
   -5.6940   18.0670  -33.8190 F   0  0  0  0  0  0  0  0  0  0  0  0
   -7.5580   17.3400  -32.7860 F   0  0  0  0  0  0  0  0  0  0  0  0
   -5.7590   20.3980  -31.8290 C   0  0  0  0  0  0  0  0  0  0  0  0
   -6.1320   21.7130  -31.5320 C   0  0  0  0  0  0  0  0  0  0  0  0
   -5.3490   22.7250  -31.1010 N   0  0  0  0  0  0  0  0  0  0  0  0
   -3.9390   22.6550  -30.8410 C   0  0  0  0  0  0  0  0  0  0  0  0
   -3.1580   22.2360  -31.7370 O   0  0  0  0  0  0  0  0  0  0  0  0
   -3.3930   23.0350  -29.4980 C   0  0  0  0  0  0  0  0  0  0  0  0
   -2.1760   23.8840  -29.6660 C   0  0  0  0  0  0  0  0  0  0  0  0
   -1.0920   23.3710  -30.0480 O   0  0  0  0  0  0  0  0  0  0  0  0
   -2.2250   25.2360  -29.3500 O   0  0  0  0  0  0  0  0  0  0  0  0
   -3.8510   26.0420  -30.1050 H   0  0  0  0  0  0  0  0  0  0  0  0
   -8.3843   24.0806  -31.1767 H   0  0  0  0  0  0  0  0  0  0  0  0
   -9.4909   21.6119  -32.1107 H   0  0  0  0  0  0  0  0  0  0  0  0
   -8.8810   19.2486  -32.7163 H   0  0  0  0  0  0  0  0  0  0  0  0
   -4.7101   20.0773  -31.7461 H   0  0  0  0  0  0  0  0  0  0  0  0
   -4.1560   23.5975  -28.9399 H   0  0  0  0  0  0  0  0  0  0  0  0
   -3.1248   22.1229  -28.9447 H   0  0  0  0  0  0  0  0  0  0  0  0
  1  2  1  0
  2  3  2  0
  2  4  1  0
  4  5  2  0
  5  6  1  0
  6  7  2  0
  7  8  1  0
  8  9  2  0
  9 10  1  0
 10 11  1  0
 10 12  1  0
 10 13  1  0
  9 14  1  0
 14 15  2  0
 15 16  1  0
 16 17  1  0
 17 18  2  0
 17 19  1  0
 19 20  1  0
 20 21  2  0
 20 22  1  0
 16  4  1  0
 15  6  1  0
  1 23  1  0
  5 24  1  0
  7 25  1  0
  8 26  1  0
 14 27  1  0
 19 28  1  0
 19 29  1  0
M  CHG  2   1  -1  22  -1
M  END
>  <UniqueID>  (91) 
89

>  <SMILES>  (91) 
[NH-]C(=O)c1cc2ccc(C(F)(F)F)cc2n1C(=O)CC(=O)[O-]

>  <Energy>  (91) 
67.87039935485366

>  <Genealogy>  (91) 
[NH-]C(=O)c1cc2ccc(C(F)(F)F)cc2n1C(=O)CC(=O)[O-] (protonated)
[NH-]C(=O)c1cc2ccc(C(F)(F)F)cc2n1C(=O)CC(=O)[O-] (3D coordinates assigned)
[NH-]C(=O)c1cc2ccc(C(F)(F)F)cc2n1C(=O)CC(=O)[O-] (optimized conformer: 67.87039935485366 kcal/mol)

>  <smiles>  (91) 
NC(=O)c1cc2ccc(C(F)(F)F)cc2n1C(=O)CC(=O)O

>  <score_type>  (91) 
oracle

>  <origin>  (91) 
adg

>  <m_score__min__energy>  (91) 
-10.99

>  <m_primary>  (91) 
energy

$$$$
91:0
     RDKit          3D

 44 45  0  0  0  0  0  0  0  0999 V2000
   -1.9430   25.8750  -25.6790 C   0  0  0  0  0  0  0  0  0  0  0  0
   -1.1930   26.7930  -26.6380 C   0  0  0  0  0  0  0  0  0  0  0  0
   -0.4560   25.9940  -27.6660 C   0  0  0  0  0  0  0  0  0  0  0  0
    0.7750   25.7590  -27.5150 O   0  0  0  0  0  0  0  0  0  0  0  0
   -1.1430   25.5380  -28.8330 N   0  0  0  0  0  0  0  0  0  0  0  0
   -1.0230   24.1750  -29.3370 C   0  0  0  0  0  0  0  0  0  0  0  0
   -2.2210   23.3350  -28.8930 C   0  0  0  0  0  0  0  0  0  0  0  0
   -3.5520   23.9740  -29.3090 C   0  0  0  0  0  0  0  0  0  0  0  0
   -3.6480   24.0420  -30.7300 O   0  0  0  0  0  0  0  0  0  0  0  0
   -4.2420   23.0440  -31.5100 C   0  0  0  0  0  0  0  0  0  0  0  0
   -3.5320   22.2990  -32.2410 O   0  0  0  0  0  0  0  0  0  0  0  0
   -5.6680   22.8680  -31.4810 N   0  0  0  0  0  0  0  0  0  0  0  0
   -6.6060   23.7680  -31.0710 C   0  0  0  0  0  0  0  0  0  0  0  0
   -6.3350   25.0640  -30.4210 C   0  0  0  0  0  0  0  0  0  0  0  0
   -5.3370   25.9520  -30.9280 N   0  0  0  0  0  0  0  0  0  0  0  0
   -6.9570   25.3720  -29.3690 O   0  0  0  0  0  0  0  0  0  0  0  0
   -7.8890   23.2770  -31.2960 C   0  0  0  0  0  0  0  0  0  0  0  0
   -7.7090   22.0300  -31.8480 C   0  0  0  0  0  0  0  0  0  0  0  0
   -8.6500   21.0950  -32.2670 C   0  0  0  0  0  0  0  0  0  0  0  0
   -8.1820   19.8950  -32.8290 C   0  0  0  0  0  0  0  0  0  0  0  0
   -6.7910   19.6630  -32.9880 C   0  0  0  0  0  0  0  0  0  0  0  0
   -6.3030   18.3580  -33.5640 C   0  0  0  0  0  0  0  0  0  0  0  0
   -6.0460   18.4860  -34.9180 F   0  0  0  0  0  0  0  0  0  0  0  0
   -7.2710   17.3880  -33.3790 F   0  0  0  0  0  0  0  0  0  0  0  0
   -5.1350   17.9540  -32.9390 F   0  0  0  0  0  0  0  0  0  0  0  0
   -5.8660   20.6290  -32.5290 C   0  0  0  0  0  0  0  0  0  0  0  0
   -6.3610   21.8060  -31.9520 C   0  0  0  0  0  0  0  0  0  0  0  0
   -1.7107   26.1594  -24.6421 H   0  0  0  0  0  0  0  0  0  0  0  0
   -3.0252   25.9699  -25.8515 H   0  0  0  0  0  0  0  0  0  0  0  0
   -1.6342   24.8334  -25.8515 H   0  0  0  0  0  0  0  0  0  0  0  0
   -1.9129   27.4543  -27.1424 H   0  0  0  0  0  0  0  0  0  0  0  0
   -0.4668   27.3873  -26.0640 H   0  0  0  0  0  0  0  0  0  0  0  0
   -0.9833   24.1972  -30.4361 H   0  0  0  0  0  0  0  0  0  0  0  0
   -0.1033   23.7255  -28.9345 H   0  0  0  0  0  0  0  0  0  0  0  0
   -2.1462   22.3381  -29.3518 H   0  0  0  0  0  0  0  0  0  0  0  0
   -2.2029   23.2681  -27.7952 H   0  0  0  0  0  0  0  0  0  0  0  0
   -4.3828   23.3681  -28.9182 H   0  0  0  0  0  0  0  0  0  0  0  0
   -3.6020   24.9934  -28.8988 H   0  0  0  0  0  0  0  0  0  0  0  0
   -4.6900   25.6570  -31.6910 H   0  0  0  0  0  0  0  0  0  0  0  0
   -5.1870   26.8830  -30.4780 H   0  0  0  0  0  0  0  0  0  0  0  0
   -8.8433   23.7791  -31.0787 H   0  0  0  0  0  0  0  0  0  0  0  0
   -9.7276   21.2891  -32.1616 H   0  0  0  0  0  0  0  0  0  0  0  0
   -8.9017   19.1272  -33.1491 H   0  0  0  0  0  0  0  0  0  0  0  0
   -4.7830   20.4604  -32.6227 H   0  0  0  0  0  0  0  0  0  0  0  0
  1  2  1  0
  2  3  1  0
  3  4  2  0
  3  5  1  0
  5  6  1  0
  6  7  1  0
  7  8  1  0
  8  9  1  0
  9 10  1  0
 10 11  2  0
 10 12  1  0
 12 13  1  0
 13 14  1  0
 14 15  1  0
 14 16  2  0
 13 17  2  0
 17 18  1  0
 18 19  2  0
 19 20  1  0
 20 21  2  0
 21 22  1  0
 22 23  1  0
 22 24  1  0
 22 25  1  0
 21 26  1  0
 26 27  2  0
 27 12  1  0
 27 18  1  0
  1 28  1  0
  1 29  1  0
  1 30  1  0
  2 31  1  0
  2 32  1  0
  6 33  1  0
  6 34  1  0
  7 35  1  0
  7 36  1  0
  8 37  1  0
  8 38  1  0
 15 39  1  0
 15 40  1  0
 17 41  1  0
 19 42  1  0
 20 43  1  0
 26 44  1  0
M  CHG  1   5  -1
M  END
>  <UniqueID>  (92) 
90

>  <SMILES>  (92) 
CCC(=O)[N-]CCCOC(=O)n1c(C(N)=O)cc2ccc(C(F)(F)F)cc21

>  <Energy>  (92) 
72.04778912773594

>  <Genealogy>  (92) 
CCC(=O)[N-]CCCOC(=O)n1c(C(N)=O)cc2ccc(C(F)(F)F)cc21 (protonated)
CCC(=O)[N-]CCCOC(=O)n1c(C(N)=O)cc2ccc(C(F)(F)F)cc21 (3D coordinates assigned)
CCC(=O)[N-]CCCOC(=O)n1c(C(N)=O)cc2ccc(C(F)(F)F)cc21 (optimized conformer: 72.04778912773594 kcal/mol)

>  <smiles>  (92) 
CCC(=O)NCCCOC(=O)n1c(C(N)=O)cc2ccc(C(F)(F)F)cc21

>  <score_type>  (92) 
oracle

>  <origin>  (92) 
adg

>  <m_score__min__energy>  (92) 
-10.48

>  <m_primary>  (92) 
energy

$$$$
92:0
     RDKit          3D

 49 51  0  0  0  0  0  0  0  0999 V2000
   -5.3260   26.1680  -30.4700 N   0  0  0  0  0  0  0  0  0  0  0  0
   -6.4030   25.3040  -30.1030 C   0  0  0  0  0  0  0  0  0  0  0  0
   -7.2580   25.7030  -29.2700 O   0  0  0  0  0  0  0  0  0  0  0  0
   -6.5070   23.9440  -30.6690 C   0  0  0  0  0  0  0  0  0  0  0  0
   -7.6780   23.4040  -31.1990 C   0  0  0  0  0  0  0  0  0  0  0  0
   -7.3160   22.1730  -31.7020 C   0  0  0  0  0  0  0  0  0  0  0  0
   -8.0860   21.1980  -32.3280 C   0  0  0  0  0  0  0  0  0  0  0  0
   -7.4500   20.0090  -32.7210 C   0  0  0  0  0  0  0  0  0  0  0  0
   -6.0610   19.8190  -32.4980 C   0  0  0  0  0  0  0  0  0  0  0  0
   -5.4040   18.5150  -32.8720 C   0  0  0  0  0  0  0  0  0  0  0  0
   -4.0270   18.6160  -32.7730 F   0  0  0  0  0  0  0  0  0  0  0  0
   -5.8240   17.4970  -32.0320 F   0  0  0  0  0  0  0  0  0  0  0  0
   -5.7390   18.1920  -34.1730 F   0  0  0  0  0  0  0  0  0  0  0  0
   -5.3190   20.8250  -31.8380 C   0  0  0  0  0  0  0  0  0  0  0  0
   -5.9760   22.0040  -31.4700 C   0  0  0  0  0  0  0  0  0  0  0  0
   -5.4660   23.0790  -30.8330 N   0  0  0  0  0  0  0  0  0  0  0  0
   -4.1170   23.2180  -30.3650 C   0  0  0  0  0  0  0  0  0  0  0  0
   -3.4000   24.1520  -30.8160 O   0  0  0  0  0  0  0  0  0  0  0  0
   -3.5150   22.1610  -29.4780 C   0  0  0  0  0  0  0  0  0  0  0  0
   -1.7070   22.3560  -29.2740 S   0  0  0  0  0  0  0  0  0  0  0  0
   -1.2570   21.4170  -30.7380 C   0  0  0  0  0  0  0  0  0  0  0  0
   -0.1750   20.5380  -30.7050 C   0  0  0  0  0  0  0  0  0  0  0  0
    0.2160   19.8830  -31.8730 C   0  0  0  0  0  0  0  0  0  0  0  0
   -0.4420   20.1030  -33.0540 N   0  0  0  0  0  0  0  0  0  0  0  0
    0.0640   19.4460  -34.2740 C   0  0  0  0  0  0  0  0  0  0  0  0
    1.0670   20.3290  -35.0310 C   0  0  0  0  0  0  0  0  0  0  0  0
    0.3910   21.3560  -35.9490 C   0  0  0  0  0  0  0  0  0  0  0  0
    0.1290   22.5470  -35.2610 O   0  0  0  0  0  0  0  0  0  0  0  0
   -1.5240   20.9500  -33.0940 C   0  0  0  0  0  0  0  0  0  0  0  0
   -2.1510   21.1460  -34.1700 O   0  0  0  0  0  0  0  0  0  0  0  0
   -1.9420   21.6160  -31.9370 C   0  0  0  0  0  0  0  0  0  0  0  0
   -5.2510   27.1210  -30.0490 H   0  0  0  0  0  0  0  0  0  0  0  0
   -4.6290   25.8880  -31.1950 H   0  0  0  0  0  0  0  0  0  0  0  0
   -8.6777   23.8627  -31.2128 H   0  0  0  0  0  0  0  0  0  0  0  0
   -9.1597   21.3535  -32.5096 H   0  0  0  0  0  0  0  0  0  0  0  0
   -8.0355   19.2151  -33.2077 H   0  0  0  0  0  0  0  0  0  0  0  0
   -4.2503   20.6841  -31.6189 H   0  0  0  0  0  0  0  0  0  0  0  0
   -3.9894   22.2209  -28.4874 H   0  0  0  0  0  0  0  0  0  0  0  0
   -3.6922   21.1861  -29.9556 H   0  0  0  0  0  0  0  0  0  0  0  0
    0.3668   20.3622  -29.7640 H   0  0  0  0  0  0  0  0  0  0  0  0
    1.0628   19.1815  -31.8452 H   0  0  0  0  0  0  0  0  0  0  0  0
    0.5613   18.5066  -33.9909 H   0  0  0  0  0  0  0  0  0  0  0  0
   -0.7924   19.2592  -34.9386 H   0  0  0  0  0  0  0  0  0  0  0  0
    1.6831   20.8681  -34.2963 H   0  0  0  0  0  0  0  0  0  0  0  0
    1.6715   19.6668  -35.6683 H   0  0  0  0  0  0  0  0  0  0  0  0
    1.0548   21.5703  -36.7996 H   0  0  0  0  0  0  0  0  0  0  0  0
   -0.5632   20.9372  -36.3013 H   0  0  0  0  0  0  0  0  0  0  0  0
   -0.8530   22.5740  -35.1110 H   0  0  0  0  0  0  0  0  0  0  0  0
   -2.8075   22.2940  -31.9724 H   0  0  0  0  0  0  0  0  0  0  0  0
  1  2  1  0
  2  3  2  0
  2  4  1  0
  4  5  2  0
  5  6  1  0
  6  7  2  0
  7  8  1  0
  8  9  2  0
  9 10  1  0
 10 11  1  0
 10 12  1  0
 10 13  1  0
  9 14  1  0
 14 15  2  0
 15 16  1  0
 16 17  1  0
 17 18  2  0
 17 19  1  0
 19 20  1  0
 20 21  1  0
 21 22  1  0
 22 23  2  0
 23 24  1  0
 24 25  1  0
 25 26  1  0
 26 27  1  0
 27 28  1  0
 24 29  1  0
 29 30  2  0
 29 31  1  0
 16  4  1  0
 31 21  2  0
 15  6  1  0
  1 32  1  0
  1 33  1  0
  5 34  1  0
  7 35  1  0
  8 36  1  0
 14 37  1  0
 19 38  1  0
 19 39  1  0
 22 40  1  0
 23 41  1  0
 25 42  1  0
 25 43  1  0
 26 44  1  0
 26 45  1  0
 27 46  1  0
 27 47  1  0
 28 48  1  0
 31 49  1  0
M  END
>  <UniqueID>  (93) 
91

>  <SMILES>  (93) 
NC(=O)c1cc2ccc(C(F)(F)F)cc2n1C(=O)CSc1ccn(CCCO)c(=O)c1

>  <Energy>  (93) 
86.41597941659576

>  <Genealogy>  (93) 
NC(=O)c1cc2ccc(C(F)(F)F)cc2n1C(=O)CSc1ccn(CCCO)c(=O)c1 (3D coordinates assigned)
NC(=O)c1cc2ccc(C(F)(F)F)cc2n1C(=O)CSc1ccn(CCCO)c(=O)c1 (optimized conformer: 86.41597941659576 kcal/mol)

>  <smiles>  (93) 
NC(=O)c1cc2ccc(C(F)(F)F)cc2n1C(=O)CSc1ccn(CCCO)c(=O)c1

>  <score_type>  (93) 
oracle

>  <origin>  (93) 
adg

>  <m_score__min__energy>  (93) 
-9.8200000000000003

>  <m_primary>  (93) 
energy

$$$$
93:0
     RDKit          3D

 36 38  0  0  0  0  0  0  0  0999 V2000
   -3.0330   21.0080  -29.3200 C   0  0  0  0  0  0  0  0  0  0  0  0
   -2.7350   22.5020  -29.1640 C   0  0  0  0  0  0  0  0  0  0  0  0
   -3.7490   23.1540  -28.2270 C   0  0  0  0  0  0  0  0  0  0  0  0
   -2.7990   23.1490  -30.4350 O   0  0  0  0  0  0  0  0  0  0  0  0
   -3.6070   22.7090  -31.4900 C   0  0  0  0  0  0  0  0  0  0  0  0
   -3.0890   22.1800  -32.5130 O   0  0  0  0  0  0  0  0  0  0  0  0
   -5.0320   22.8410  -31.3960 N   0  0  0  0  0  0  0  0  0  0  0  0
   -5.7520   23.9350  -31.0160 C   0  0  0  0  0  0  0  0  0  0  0  0
   -5.2010   25.1880  -30.4600 C   0  0  0  0  0  0  0  0  0  0  0  0
   -3.9130   25.6580  -30.8460 N   0  0  0  0  0  0  0  0  0  0  0  0
   -5.8580   25.8280  -29.5960 O   0  0  0  0  0  0  0  0  0  0  0  0
   -7.1180   23.6870  -31.1450 C   0  0  0  0  0  0  0  0  0  0  0  0
   -7.2130   22.3960  -31.6100 C   0  0  0  0  0  0  0  0  0  0  0  0
   -8.3360   21.6400  -31.9250 C   0  0  0  0  0  0  0  0  0  0  0  0
   -8.1400   20.3380  -32.4160 C   0  0  0  0  0  0  0  0  0  0  0  0
   -6.8300   19.8170  -32.5920 C   0  0  0  0  0  0  0  0  0  0  0  0
   -6.6120   18.4490  -33.1200 C   0  0  0  0  0  0  0  0  0  0  0  0
   -6.5130   17.3470  -32.3520 N   0  0  0  0  0  0  0  0  0  0  0  0
   -6.3250   16.3480  -33.2010 N   0  0  0  0  0  0  0  0  0  0  0  0
   -6.3080   16.8070  -34.4430 N   0  0  0  0  0  0  0  0  0  0  0  0
   -6.4860   18.1160  -34.4180 N   0  0  0  0  0  0  0  0  0  0  0  0
   -5.7150   20.6220  -32.2590 C   0  0  0  0  0  0  0  0  0  0  0  0
   -5.9420   21.9070  -31.7540 C   0  0  0  0  0  0  0  0  0  0  0  0
   -3.1250   20.5467  -28.3257 H   0  0  0  0  0  0  0  0  0  0  0  0
   -3.9748   20.8778  -29.8732 H   0  0  0  0  0  0  0  0  0  0  0  0
   -2.2132   20.5264  -29.8732 H   0  0  0  0  0  0  0  0  0  0  0  0
   -1.7252   22.6086  -28.7410 H   0  0  0  0  0  0  0  0  0  0  0  0
   -3.4572   22.9664  -27.1831 H   0  0  0  0  0  0  0  0  0  0  0  0
   -3.7744   24.2381  -28.4114 H   0  0  0  0  0  0  0  0  0  0  0  0
   -4.7459   22.7272  -28.4114 H   0  0  0  0  0  0  0  0  0  0  0  0
   -3.0480   25.2940  -30.3860 H   0  0  0  0  0  0  0  0  0  0  0  0
   -7.9447   24.3776  -30.9221 H   0  0  0  0  0  0  0  0  0  0  0  0
   -9.3487   22.0490  -31.7938 H   0  0  0  0  0  0  0  0  0  0  0  0
   -9.0110   19.7149  -32.6670 H   0  0  0  0  0  0  0  0  0  0  0  0
   -6.5150   18.7270  -35.2620 H   0  0  0  0  0  0  0  0  0  0  0  0
   -4.6905   20.2452  -32.3944 H   0  0  0  0  0  0  0  0  0  0  0  0
  1  2  1  0
  2  3  1  0
  2  4  1  0
  4  5  1  0
  5  6  2  0
  5  7  1  0
  7  8  1  0
  8  9  1  0
  9 10  1  0
  9 11  2  0
  8 12  2  0
 12 13  1  0
 13 14  2  0
 14 15  1  0
 15 16  2  0
 16 17  1  0
 17 18  2  0
 18 19  1  0
 19 20  1  0
 20 21  2  0
 16 22  1  0
 22 23  2  0
 23  7  1  0
 23 13  1  0
 21 17  1  0
  1 24  1  0
  1 25  1  0
  1 26  1  0
  2 27  1  0
  3 28  1  0
  3 29  1  0
  3 30  1  0
 10 31  1  0
 12 32  1  0
 14 33  1  0
 15 34  1  0
 21 35  1  0
 22 36  1  0
M  CHG  3  10  -1  19  -1  21   1
M  END
>  <UniqueID>  (94) 
92

>  <SMILES>  (94) 
CC(C)OC(=O)n1c(C([NH-])=O)cc2ccc(-c3n[n-]n[nH+]3)cc21

>  <Energy>  (94) 
111.84120804698411

>  <Genealogy>  (94) 
CC(C)OC(=O)n1c(C([NH-])=O)cc2ccc(-c3n[n-]n[nH+]3)cc21 (protonated)
CC(C)OC(=O)n1c(C([NH-])=O)cc2ccc(-c3n[n-]n[nH+]3)cc21 (3D coordinates assigned)
CC(C)OC(=O)n1c(C([NH-])=O)cc2ccc(-c3n[n-]n[nH+]3)cc21 (optimized conformer: 111.84120804698411 kcal/mol)

>  <smiles>  (94) 
CC(C)OC(=O)n1c(C(N)=O)cc2ccc(-c3nn[nH]n3)cc21

>  <score_type>  (94) 
oracle

>  <origin>  (94) 
adg

>  <m_score__min__energy>  (94) 
-10.75

>  <m_primary>  (94) 
energy

$$$$
94:0
     RDKit          3D

 45 47  0  0  0  0  0  0  0  0999 V2000
   -3.8360   24.2990  -27.6290 C   0  0  0  0  0  0  0  0  0  0  0  0
   -2.8830   23.9280  -28.6890 N   0  0  0  0  0  0  0  0  0  0  0  0
   -1.6760   24.7640  -28.5860 C   0  0  0  0  0  0  0  0  0  0  0  0
   -2.5220   22.4950  -28.6080 C   0  0  0  0  0  0  0  0  0  0  0  0
   -3.1850   21.6840  -29.7330 C   0  0  0  0  0  0  0  0  0  0  0  0
   -3.6570   22.5680  -30.8530 C   0  0  0  0  0  0  0  0  0  0  0  0
   -2.8200   23.1610  -31.5850 O   0  0  0  0  0  0  0  0  0  0  0  0
   -5.0600   22.7620  -31.0780 N   0  0  0  0  0  0  0  0  0  0  0  0
   -5.7730   23.9180  -30.9790 C   0  0  0  0  0  0  0  0  0  0  0  0
   -5.2610   25.2110  -30.4790 C   0  0  0  0  0  0  0  0  0  0  0  0
   -3.9490   25.6590  -30.8090 N   0  0  0  0  0  0  0  0  0  0  0  0
   -5.9810   25.9180  -29.7260 O   0  0  0  0  0  0  0  0  0  0  0  0
   -7.0940   23.7080  -31.3700 C   0  0  0  0  0  0  0  0  0  0  0  0
   -7.1660   22.3750  -31.7100 C   0  0  0  0  0  0  0  0  0  0  0  0
   -8.2380   21.6260  -32.1770 C   0  0  0  0  0  0  0  0  0  0  0  0
   -8.0180   20.2680  -32.4640 C   0  0  0  0  0  0  0  0  0  0  0  0
   -6.7370   19.6800  -32.2820 C   0  0  0  0  0  0  0  0  0  0  0  0
   -6.5160   18.2430  -32.5970 C   0  0  0  0  0  0  0  0  0  0  0  0
   -7.2410   17.4400  -33.4700 C   0  0  0  0  0  0  0  0  0  0  0  0
   -6.7230   16.1960  -33.4720 N   0  0  0  0  0  0  0  0  0  0  0  0
   -5.6970   16.1900  -32.6360 N   0  0  0  0  0  0  0  0  0  0  0  0
   -4.8850   15.0160  -32.3500 C   0  0  0  0  0  0  0  0  0  0  0  0
   -5.5370   17.4070  -32.0860 C   0  0  0  0  0  0  0  0  0  0  0  0
   -5.6730   20.4810  -31.8010 C   0  0  0  0  0  0  0  0  0  0  0  0
   -5.9250   21.8270  -31.5210 C   0  0  0  0  0  0  0  0  0  0  0  0
   -3.3777   24.1206  -26.6451 H   0  0  0  0  0  0  0  0  0  0  0  0
   -4.0952   25.3637  -27.7252 H   0  0  0  0  0  0  0  0  0  0  0  0
   -4.7468   23.6898  -27.7252 H   0  0  0  0  0  0  0  0  0  0  0  0
   -1.4350   24.9309  -27.5258 H   0  0  0  0  0  0  0  0  0  0  0  0
   -0.8341   24.2546  -29.0776 H   0  0  0  0  0  0  0  0  0  0  0  0
   -1.8569   25.7313  -29.0776 H   0  0  0  0  0  0  0  0  0  0  0  0
   -1.4297   22.3960  -28.6917 H   0  0  0  0  0  0  0  0  0  0  0  0
   -2.8773   22.1029  -27.6436 H   0  0  0  0  0  0  0  0  0  0  0  0
   -2.4549   20.9639  -30.1310 H   0  0  0  0  0  0  0  0  0  0  0  0
   -4.0603   21.1672  -29.3125 H   0  0  0  0  0  0  0  0  0  0  0  0
   -3.1090   25.1040  -30.5300 H   0  0  0  0  0  0  0  0  0  0  0  0
   -7.9064   24.4490  -31.4006 H   0  0  0  0  0  0  0  0  0  0  0  0
   -9.2292   22.0817  -32.3180 H   0  0  0  0  0  0  0  0  0  0  0  0
   -8.8496   19.6510  -32.8350 H   0  0  0  0  0  0  0  0  0  0  0  0
   -8.1042   17.7693  -34.0670 H   0  0  0  0  0  0  0  0  0  0  0  0
   -4.7964   14.8879  -31.2611 H   0  0  0  0  0  0  0  0  0  0  0  0
   -5.3612   14.1256  -32.7864 H   0  0  0  0  0  0  0  0  0  0  0  0
   -3.8839   15.1474  -32.7864 H   0  0  0  0  0  0  0  0  0  0  0  0
   -4.7631   17.6893  -31.3570 H   0  0  0  0  0  0  0  0  0  0  0  0
   -4.6706   20.0535  -31.6511 H   0  0  0  0  0  0  0  0  0  0  0  0
  1  2  1  0
  2  3  1  0
  2  4  1  0
  4  5  1  0
  5  6  1  0
  6  7  2  0
  6  8  1  0
  8  9  1  0
  9 10  1  0
 10 11  1  0
 10 12  2  0
  9 13  2  0
 13 14  1  0
 14 15  2  0
 15 16  1  0
 16 17  2  0
 17 18  1  0
 18 19  1  0
 19 20  2  0
 20 21  1  0
 21 22  1  0
 21 23  1  0
 17 24  1  0
 24 25  2  0
 25  8  1  0
 25 14  1  0
 23 18  2  0
  1 26  1  0
  1 27  1  0
  1 28  1  0
  3 29  1  0
  3 30  1  0
  3 31  1  0
  4 32  1  0
  4 33  1  0
  5 34  1  0
  5 35  1  0
 11 36  1  0
 13 37  1  0
 15 38  1  0
 16 39  1  0
 19 40  1  0
 22 41  1  0
 22 42  1  0
 22 43  1  0
 23 44  1  0
 24 45  1  0
M  CHG  1  11  -1
M  END
>  <UniqueID>  (95) 
93

>  <SMILES>  (95) 
CN(C)CCC(=O)n1c(C([NH-])=O)cc2ccc(-c3cnn(C)c3)cc21

>  <Energy>  (95) 
114.33936623926607

>  <Genealogy>  (95) 
CN(C)CCC(=O)n1c(C([NH-])=O)cc2ccc(-c3cnn(C)c3)cc21 (protonated)
CN(C)CCC(=O)n1c(C([NH-])=O)cc2ccc(-c3cnn(C)c3)cc21 (3D coordinates assigned)
CN(C)CCC(=O)n1c(C([NH-])=O)cc2ccc(-c3cnn(C)c3)cc21 (optimized conformer: 114.33936623926607 kcal/mol)

>  <smiles>  (95) 
CN(C)CCC(=O)n1c(C(N)=O)cc2ccc(-c3cnn(C)c3)cc21

>  <score_type>  (95) 
oracle

>  <origin>  (95) 
adg

>  <m_score__min__energy>  (95) 
-10.619999999999999

>  <m_primary>  (95) 
energy

$$$$
95:0
     RDKit          3D

 35 36  0  0  0  0  0  0  0  0999 V2000
   -4.1960   25.4700  -30.6420 N   0  0  0  0  0  0  0  0  0  0  0  0
   -5.5550   25.0770  -30.4400 C   0  0  0  0  0  0  0  0  0  0  0  0
   -6.3150   25.8160  -29.7590 O   0  0  0  0  0  0  0  0  0  0  0  0
   -6.0650   23.7930  -30.9600 C   0  0  0  0  0  0  0  0  0  0  0  0
   -7.4100   23.5590  -31.2330 C   0  0  0  0  0  0  0  0  0  0  0  0
   -7.4750   22.2460  -31.6360 C   0  0  0  0  0  0  0  0  0  0  0  0
   -8.5690   21.4910  -32.0520 C   0  0  0  0  0  0  0  0  0  0  0  0
   -8.3390   20.1660  -32.4570 C   0  0  0  0  0  0  0  0  0  0  0  0
   -7.0310   19.6230  -32.4420 C   0  0  0  0  0  0  0  0  0  0  0  0
   -6.7940   18.2170  -32.9260 C   0  0  0  0  0  0  0  0  0  0  0  0
   -5.7820   18.1880  -34.0750 C   0  0  0  0  0  0  0  0  0  0  0  0
   -5.9810   19.2700  -34.9460 O   0  0  0  0  0  0  0  0  0  0  0  0
   -5.9430   20.4220  -32.0250 C   0  0  0  0  0  0  0  0  0  0  0  0
   -6.2030   21.7320  -31.6060 C   0  0  0  0  0  0  0  0  0  0  0  0
   -5.3230   22.6740  -31.1950 N   0  0  0  0  0  0  0  0  0  0  0  0
   -3.8920   22.5560  -31.1510 C   0  0  0  0  0  0  0  0  0  0  0  0
   -3.2620   22.1400  -32.1610 O   0  0  0  0  0  0  0  0  0  0  0  0
   -3.2020   22.9060  -29.9840 O   0  0  0  0  0  0  0  0  0  0  0  0
   -1.7800   22.8830  -29.8770 C   0  0  0  0  0  0  0  0  0  0  0  0
   -1.2750   24.1970  -29.3690 C   0  0  0  0  0  0  0  0  0  0  0  0
   -0.0930   24.2980  -28.9490 O   0  0  0  0  0  0  0  0  0  0  0  0
   -2.1160   25.3010  -29.3340 O   0  0  0  0  0  0  0  0  0  0  0  0
   -3.5000   24.8110  -31.0550 H   0  0  0  0  0  0  0  0  0  0  0  0
   -3.8630   26.3990  -30.3040 H   0  0  0  0  0  0  0  0  0  0  0  0
   -8.2428   24.2722  -31.1451 H   0  0  0  0  0  0  0  0  0  0  0  0
   -9.5821   21.9194  -32.0630 H   0  0  0  0  0  0  0  0  0  0  0  0
   -9.1831   19.5438  -32.7892 H   0  0  0  0  0  0  0  0  0  0  0  0
   -6.4078   17.6114  -32.0928 H   0  0  0  0  0  0  0  0  0  0  0  0
   -7.7480   17.8103  -33.2928 H   0  0  0  0  0  0  0  0  0  0  0  0
   -4.7647   18.2422  -33.6601 H   0  0  0  0  0  0  0  0  0  0  0  0
   -5.9180   17.2535  -34.6392 H   0  0  0  0  0  0  0  0  0  0  0  0
   -6.8250   19.0890  -35.4350 H   0  0  0  0  0  0  0  0  0  0  0  0
   -4.9173   20.0246  -32.0295 H   0  0  0  0  0  0  0  0  0  0  0  0
   -1.4816   22.0859  -29.1802 H   0  0  0  0  0  0  0  0  0  0  0  0
   -1.3498   22.6952  -30.8718 H   0  0  0  0  0  0  0  0  0  0  0  0
  1  2  1  0
  2  3  2  0
  2  4  1  0
  4  5  2  0
  5  6  1  0
  6  7  2  0
  7  8  1  0
  8  9  2  0
  9 10  1  0
 10 11  1  0
 11 12  1  0
  9 13  1  0
 13 14  2  0
 14 15  1  0
 15 16  1  0
 16 17  2  0
 16 18  1  0
 18 19  1  0
 19 20  1  0
 20 21  2  0
 20 22  1  0
 15  4  1  0
 14  6  1  0
  1 23  1  0
  1 24  1  0
  5 25  1  0
  7 26  1  0
  8 27  1  0
 10 28  1  0
 10 29  1  0
 11 30  1  0
 11 31  1  0
 12 32  1  0
 13 33  1  0
 19 34  1  0
 19 35  1  0
M  CHG  1  22  -1
M  END
>  <UniqueID>  (96) 
94

>  <SMILES>  (96) 
NC(=O)c1cc2ccc(CCO)cc2n1C(=O)OCC(=O)[O-]

>  <Energy>  (96) 
69.31735642016024

>  <Genealogy>  (96) 
NC(=O)c1cc2ccc(CCO)cc2n1C(=O)OCC(=O)[O-] (protonated)
NC(=O)c1cc2ccc(CCO)cc2n1C(=O)OCC(=O)[O-] (3D coordinates assigned)
NC(=O)c1cc2ccc(CCO)cc2n1C(=O)OCC(=O)[O-] (optimized conformer: 69.31735642016024 kcal/mol)

>  <smiles>  (96) 
NC(=O)c1cc2ccc(CCO)cc2n1C(=O)OCC(=O)O

>  <score_type>  (96) 
oracle

>  <origin>  (96) 
adg

>  <m_score__min__energy>  (96) 
-10.16

>  <m_primary>  (96) 
energy

$$$$
96:0
     RDKit          3D

 44 45  0  0  0  0  0  0  0  0999 V2000
   -9.4240   19.3690  -32.7200 C   0  0  0  0  0  0  0  0  0  0  0  0
   -8.6020   19.4580  -31.5780 O   0  0  0  0  0  0  0  0  0  0  0  0
   -8.7810   20.7070  -30.9370 C   0  0  0  0  0  0  0  0  0  0  0  0
   -9.1600   21.7790  -31.9600 C   0  0  0  0  0  0  0  0  0  0  0  0
   -8.1120   22.7370  -32.0940 O   0  0  0  0  0  0  0  0  0  0  0  0
   -7.1050   22.9150  -31.1390 C   0  0  0  0  0  0  0  0  0  0  0  0
   -7.3900   23.3330  -29.9830 O   0  0  0  0  0  0  0  0  0  0  0  0
   -5.7380   22.6320  -31.4820 N   0  0  0  0  0  0  0  0  0  0  0  0
   -4.6240   23.2940  -31.0600 C   0  0  0  0  0  0  0  0  0  0  0  0
   -4.6170   24.5560  -30.2860 C   0  0  0  0  0  0  0  0  0  0  0  0
   -5.2420   24.6290  -29.0040 N   0  0  0  0  0  0  0  0  0  0  0  0
   -4.0300   25.5730  -30.7400 O   0  0  0  0  0  0  0  0  0  0  0  0
   -3.4740   22.6680  -31.5380 C   0  0  0  0  0  0  0  0  0  0  0  0
   -3.9220   21.5920  -32.2700 C   0  0  0  0  0  0  0  0  0  0  0  0
   -3.2040   20.6140  -32.9510 C   0  0  0  0  0  0  0  0  0  0  0  0
   -3.9270   19.5930  -33.5910 C   0  0  0  0  0  0  0  0  0  0  0  0
   -5.3430   19.5710  -33.5400 C   0  0  0  0  0  0  0  0  0  0  0  0
   -6.1030   18.4450  -34.1960 C   0  0  0  0  0  0  0  0  0  0  0  0
   -6.2920   17.2420  -33.2480 C   0  0  2  0  0  0  0  0  0  0  0  0
   -7.6400   17.1520  -32.8650 O   0  0  0  0  0  0  0  0  0  0  0  0
   -5.4200   17.3440  -31.9840 C   0  0  0  0  0  0  0  0  0  0  0  0
   -6.1530   17.8460  -30.8970 O   0  0  0  0  0  0  0  0  0  0  0  0
   -6.0370   20.5810  -32.8370 C   0  0  0  0  0  0  0  0  0  0  0  0
   -5.2920   21.5930  -32.2210 C   0  0  0  0  0  0  0  0  0  0  0  0
  -10.4729   19.2554  -32.4088 H   0  0  0  0  0  0  0  0  0  0  0  0
   -9.3169   20.2840  -33.3211 H   0  0  0  0  0  0  0  0  0  0  0  0
   -9.1235   18.4981  -33.3211 H   0  0  0  0  0  0  0  0  0  0  0  0
   -9.5829   20.6195  -30.1891 H   0  0  0  0  0  0  0  0  0  0  0  0
   -7.8393   20.9963  -30.4476 H   0  0  0  0  0  0  0  0  0  0  0  0
   -9.3401   21.3014  -32.9344 H   0  0  0  0  0  0  0  0  0  0  0  0
  -10.0690   22.2934  -31.6148 H   0  0  0  0  0  0  0  0  0  0  0  0
   -5.1970   25.5130  -28.4490 H   0  0  0  0  0  0  0  0  0  0  0  0
   -5.7840   23.8250  -28.6180 H   0  0  0  0  0  0  0  0  0  0  0  0
   -2.4302   22.9698  -31.3666 H   0  0  0  0  0  0  0  0  0  0  0  0
   -2.1049   20.6392  -32.9873 H   0  0  0  0  0  0  0  0  0  0  0  0
   -3.3889   18.8037  -34.1365 H   0  0  0  0  0  0  0  0  0  0  0  0
   -7.0930   18.8155  -34.5005 H   0  0  0  0  0  0  0  0  0  0  0  0
   -5.5200   18.1037  -35.0641 H   0  0  0  0  0  0  0  0  0  0  0  0
   -5.9804   16.3429  -33.7998 H   0  0  0  0  0  0  0  0  0  0  0  0
   -7.7050   17.5320  -31.9500 H   0  0  0  0  0  0  0  0  0  0  0  0
   -5.0407   16.3435  -31.7288 H   0  0  0  0  0  0  0  0  0  0  0  0
   -4.5891   18.0346  -32.1906 H   0  0  0  0  0  0  0  0  0  0  0  0
   -6.8670   18.4210  -31.2760 H   0  0  0  0  0  0  0  0  0  0  0  0
   -7.1352   20.5722  -32.7754 H   0  0  0  0  0  0  0  0  0  0  0  0
  1  2  1  0
  2  3  1  0
  3  4  1  0
  4  5  1  0
  5  6  1  0
  6  7  2  0
  6  8  1  0
  8  9  1  0
  9 10  1  0
 10 11  1  0
 10 12  2  0
  9 13  2  0
 13 14  1  0
 14 15  2  0
 15 16  1  0
 16 17  2  0
 17 18  1  0
 18 19  1  0
 19 20  1  0
 19 21  1  0
 21 22  1  0
 17 23  1  0
 23 24  2  0
 24  8  1  0
 24 14  1  0
  1 25  1  0
  1 26  1  0
  1 27  1  0
  3 28  1  0
  3 29  1  0
  4 30  1  0
  4 31  1  0
 11 32  1  0
 11 33  1  0
 13 34  1  0
 15 35  1  0
 16 36  1  0
 18 37  1  0
 18 38  1  0
 19 39  1  6
 20 40  1  0
 21 41  1  0
 21 42  1  0
 22 43  1  0
 23 44  1  0
M  END
>  <UniqueID>  (97) 
95

>  <SMILES>  (97) 
COCCOC(=O)n1c(C(N)=O)cc2ccc(C[C@H](O)CO)cc21

>  <Energy>  (97) 
77.40579549466023

>  <Genealogy>  (97) 
COCCOC(=O)n1c(C(N)=O)cc2ccc(C[C@H](O)CO)cc21 (chirality)
COCCOC(=O)n1c(C(N)=O)cc2ccc(C[C@H](O)CO)cc21 (3D coordinates assigned)
COCCOC(=O)n1c(C(N)=O)cc2ccc(C[C@H](O)CO)cc21 (optimized conformer: 77.40579549466023 kcal/mol)

>  <smiles>  (97) 
COCCOC(=O)n1c(C(N)=O)cc2ccc(CC(O)CO)cc21

>  <score_type>  (97) 
oracle

>  <origin>  (97) 
adg

>  <m_score__min__energy>  (97) 
-7.9299999999999997

>  <m_primary>  (97) 
energy

$$$$
97:0
     RDKit          3D

 35 36  0  0  0  0  0  0  0  0999 V2000
   -3.9240   23.0980  -28.1700 C   0  0  0  0  0  0  0  0  0  0  0  0
   -2.8630   22.4780  -29.0700 C   0  0  0  0  0  0  0  0  0  0  0  0
   -2.8510   23.1300  -30.3740 N   0  0  0  0  0  0  0  0  0  0  0  0
   -3.6990   22.7480  -31.4600 C   0  0  0  0  0  0  0  0  0  0  0  0
   -3.2010   22.2800  -32.5200 O   0  0  0  0  0  0  0  0  0  0  0  0
   -5.1210   22.9230  -31.3580 N   0  0  0  0  0  0  0  0  0  0  0  0
   -5.8020   24.0480  -30.9950 C   0  0  0  0  0  0  0  0  0  0  0  0
   -5.2030   25.2920  -30.4710 C   0  0  0  0  0  0  0  0  0  0  0  0
   -3.8770   25.6570  -30.8500 N   0  0  0  0  0  0  0  0  0  0  0  0
   -5.8610   26.0580  -29.7180 O   0  0  0  0  0  0  0  0  0  0  0  0
   -7.1770   23.8430  -31.1020 C   0  0  0  0  0  0  0  0  0  0  0  0
   -7.3190   22.5460  -31.5400 C   0  0  0  0  0  0  0  0  0  0  0  0
   -8.4700   21.8210  -31.8320 C   0  0  0  0  0  0  0  0  0  0  0  0
   -8.3180   20.5040  -32.2990 C   0  0  0  0  0  0  0  0  0  0  0  0
   -7.0280   19.9400  -32.4630 C   0  0  0  0  0  0  0  0  0  0  0  0
   -6.8760   18.5440  -33.0050 C   0  0  0  0  0  0  0  0  0  0  0  0
   -5.6970   18.4470  -33.9770 C   0  0  0  0  0  0  0  0  0  0  0  0
   -6.0830   18.8410  -35.2670 O   0  0  0  0  0  0  0  0  0  0  0  0
   -5.8820   20.7100  -32.1630 C   0  0  0  0  0  0  0  0  0  0  0  0
   -6.0640   22.0130  -31.6840 C   0  0  0  0  0  0  0  0  0  0  0  0
   -3.6503   22.9381  -27.1167 H   0  0  0  0  0  0  0  0  0  0  0  0
   -3.9908   24.1773  -28.3717 H   0  0  0  0  0  0  0  0  0  0  0  0
   -4.8971   22.6264  -28.3717 H   0  0  0  0  0  0  0  0  0  0  0  0
   -1.8760   22.5946  -28.5985 H   0  0  0  0  0  0  0  0  0  0  0  0
   -3.0950   21.4118  -29.2089 H   0  0  0  0  0  0  0  0  0  0  0  0
   -3.0510   25.2950  -30.3240 H   0  0  0  0  0  0  0  0  0  0  0  0
   -7.9779   24.5645  -30.8829 H   0  0  0  0  0  0  0  0  0  0  0  0
   -9.4680   22.2647  -31.7014 H   0  0  0  0  0  0  0  0  0  0  0  0
   -9.2088   19.9052  -32.5395 H   0  0  0  0  0  0  0  0  0  0  0  0
   -6.7071   17.8513  -32.1673 H   0  0  0  0  0  0  0  0  0  0  0  0
   -7.7954   18.2820  -33.5490 H   0  0  0  0  0  0  0  0  0  0  0  0
   -4.8858   19.1024  -33.6270 H   0  0  0  0  0  0  0  0  0  0  0  0
   -5.3549   17.4022  -34.0143 H   0  0  0  0  0  0  0  0  0  0  0  0
   -6.8890   19.4130  -35.1630 H   0  0  0  0  0  0  0  0  0  0  0  0
   -4.8723   20.2963  -32.3022 H   0  0  0  0  0  0  0  0  0  0  0  0
  1  2  1  0
  2  3  1  0
  3  4  1  0
  4  5  2  0
  4  6  1  0
  6  7  1  0
  7  8  1  0
  8  9  1  0
  8 10  2  0
  7 11  2  0
 11 12  1  0
 12 13  2  0
 13 14  1  0
 14 15  2  0
 15 16  1  0
 16 17  1  0
 17 18  1  0
 15 19  1  0
 19 20  2  0
 20  6  1  0
 20 12  1  0
  1 21  1  0
  1 22  1  0
  1 23  1  0
  2 24  1  0
  2 25  1  0
  9 26  1  0
 11 27  1  0
 13 28  1  0
 14 29  1  0
 16 30  1  0
 16 31  1  0
 17 32  1  0
 17 33  1  0
 18 34  1  0
 19 35  1  0
M  CHG  2   3  -1   9  -1
M  END
>  <UniqueID>  (98) 
96

>  <SMILES>  (98) 
CC[N-]C(=O)n1c(C([NH-])=O)cc2ccc(CCO)cc21

>  <Energy>  (98) 
66.94185763687376

>  <Genealogy>  (98) 
CC[N-]C(=O)n1c(C([NH-])=O)cc2ccc(CCO)cc21 (protonated)
CC[N-]C(=O)n1c(C([NH-])=O)cc2ccc(CCO)cc21 (3D coordinates assigned)
CC[N-]C(=O)n1c(C([NH-])=O)cc2ccc(CCO)cc21 (optimized conformer: 66.94185763687376 kcal/mol)

>  <smiles>  (98) 
CCNC(=O)n1c(C(N)=O)cc2ccc(CCO)cc21

>  <score_type>  (98) 
oracle

>  <origin>  (98) 
adg

>  <m_score__min__energy>  (98) 
-10.279999999999999

>  <m_primary>  (98) 
energy

$$$$
98:0
     RDKit          3D

 46 48  0  0  0  0  0  0  0  0999 V2000
   -4.0310   23.6200  -27.8320 C   0  0  0  0  0  0  0  0  0  0  0  0
   -3.4100   22.3730  -28.2730 N   0  0  0  0  0  0  0  0  0  0  0  0
   -2.8300   21.4680  -27.4600 C   0  0  0  0  0  0  0  0  0  0  0  0
   -2.3170   20.4260  -28.2100 C   0  0  0  0  0  0  0  0  0  0  0  0
   -1.5550   19.2720  -27.6880 C   0  0  0  0  0  0  0  0  0  0  0  0
   -1.9500   18.7190  -26.6220 O   0  0  0  0  0  0  0  0  0  0  0  0
   -0.3320   18.8320  -28.3280 N   0  0  0  0  0  0  0  0  0  0  0  0
    0.6400   19.9360  -28.3510 C   0  0  0  0  0  0  0  0  0  0  0  0
    0.2380   17.6550  -27.6490 C   0  0  0  0  0  0  0  0  0  0  0  0
   -2.6010   20.7080  -29.5340 C   0  0  0  0  0  0  0  0  0  0  0  0
   -3.2680   21.9210  -29.5410 C   0  0  0  0  0  0  0  0  0  0  0  0
   -3.7210   22.6200  -30.7660 C   0  0  0  0  0  0  0  0  0  0  0  0
   -2.8820   23.0350  -31.6090 O   0  0  0  0  0  0  0  0  0  0  0  0
   -5.1210   22.8380  -31.0040 N   0  0  0  0  0  0  0  0  0  0  0  0
   -5.8040   24.0150  -30.9290 C   0  0  0  0  0  0  0  0  0  0  0  0
   -5.2440   25.3110  -30.4950 C   0  0  0  0  0  0  0  0  0  0  0  0
   -3.9040   25.6580  -30.8400 N   0  0  0  0  0  0  0  0  0  0  0  0
   -5.9410   26.1280  -29.8380 O   0  0  0  0  0  0  0  0  0  0  0  0
   -7.1440   23.8230  -31.2620 C   0  0  0  0  0  0  0  0  0  0  0  0
   -7.2600   22.4800  -31.5470 C   0  0  0  0  0  0  0  0  0  0  0  0
   -8.3740   21.7370  -31.9290 C   0  0  0  0  0  0  0  0  0  0  0  0
   -8.1990   20.3620  -32.1610 C   0  0  0  0  0  0  0  0  0  0  0  0
   -6.9230   19.7610  -32.0210 C   0  0  0  0  0  0  0  0  0  0  0  0
   -6.7590   18.2870  -32.2590 C   0  0  0  0  0  0  0  0  0  0  0  0
   -6.0980   17.7160  -31.1870 F   0  0  0  0  0  0  0  0  0  0  0  0
   -8.0010   17.6940  -32.4000 F   0  0  0  0  0  0  0  0  0  0  0  0
   -5.8160   20.5500  -31.6370 C   0  0  0  0  0  0  0  0  0  0  0  0
   -6.0240   21.9110  -31.3900 C   0  0  0  0  0  0  0  0  0  0  0  0
   -4.0473   23.6527  -26.7326 H   0  0  0  0  0  0  0  0  0  0  0  0
   -3.4526   24.4734  -28.2157 H   0  0  0  0  0  0  0  0  0  0  0  0
   -5.0606   23.6726  -28.2157 H   0  0  0  0  0  0  0  0  0  0  0  0
   -2.7733   21.5466  -26.3643 H   0  0  0  0  0  0  0  0  0  0  0  0
   -0.5360   18.5460  -29.3140 H   0  0  0  0  0  0  0  0  0  0  0  0
    0.8930   20.2233  -27.3198 H   0  0  0  0  0  0  0  0  0  0  0  0
    1.5510   19.6116  -28.8752 H   0  0  0  0  0  0  0  0  0  0  0  0
    0.2028   20.7986  -28.8752 H   0  0  0  0  0  0  0  0  0  0  0  0
    0.1715   17.7922  -26.5596 H   0  0  0  0  0  0  0  0  0  0  0  0
   -0.3244   16.7556  -27.9403 H   0  0  0  0  0  0  0  0  0  0  0  0
    1.2923   17.5385  -27.9403 H   0  0  0  0  0  0  0  0  0  0  0  0
   -2.3471   20.0906  -30.4083 H   0  0  0  0  0  0  0  0  0  0  0  0
   -3.1170   24.9930  -30.6700 H   0  0  0  0  0  0  0  0  0  0  0  0
   -7.9395   24.5822  -31.2910 H   0  0  0  0  0  0  0  0  0  0  0  0
   -9.3597   22.2112  -32.0455 H   0  0  0  0  0  0  0  0  0  0  0  0
   -9.0615   19.7456  -32.4544 H   0  0  0  0  0  0  0  0  0  0  0  0
   -6.1746   18.1326  -33.1780 H   0  0  0  0  0  0  0  0  0  0  0  0
   -4.8152   20.1051  -31.5347 H   0  0  0  0  0  0  0  0  0  0  0  0
  1  2  1  0
  2  3  1  0
  3  4  2  0
  4  5  1  0
  5  6  2  0
  5  7  1  0
  7  8  1  0
  7  9  1  0
  4 10  1  0
 10 11  2  0
 11 12  1  0
 12 13  2  0
 12 14  1  0
 14 15  1  0
 15 16  1  0
 16 17  1  0
 16 18  2  0
 15 19  2  0
 19 20  1  0
 20 21  2  0
 21 22  1  0
 22 23  2  0
 23 24  1  0
 24 25  1  0
 24 26  1  0
 23 27  1  0
 27 28  2  0
 11  2  1  0
 28 14  1  0
 28 20  1  0
  1 29  1  0
  1 30  1  0
  1 31  1  0
  3 32  1  0
  7 33  1  0
  8 34  1  0
  8 35  1  0
  8 36  1  0
  9 37  1  0
  9 38  1  0
  9 39  1  0
 10 40  1  0
 17 41  1  0
 19 42  1  0
 21 43  1  0
 22 44  1  0
 24 45  1  0
 27 46  1  0
M  CHG  2   7   1  17  -1
M  END
>  <UniqueID>  (99) 
97

>  <SMILES>  (99) 
Cn1cc(C(=O)[NH+](C)C)cc1C(=O)n1c(C([NH-])=O)cc2ccc(C(F)F)cc21

>  <Energy>  (99) 
113.21231317157272

>  <Genealogy>  (99) 
Cn1cc(C(=O)[NH+](C)C)cc1C(=O)n1c(C([NH-])=O)cc2ccc(C(F)F)cc21 (protonated)
Cn1cc(C(=O)[NH+](C)C)cc1C(=O)n1c(C([NH-])=O)cc2ccc(C(F)F)cc21 (3D coordinates assigned)
Cn1cc(C(=O)[NH+](C)C)cc1C(=O)n1c(C([NH-])=O)cc2ccc(C(F)F)cc21 (optimized conformer: 113.21231317157272 kcal/mol)

>  <smiles>  (99) 
CN(C)C(=O)c1cc(C(=O)n2c(C(N)=O)cc3ccc(C(F)F)cc32)n(C)c1

>  <score_type>  (99) 
oracle

>  <origin>  (99) 
adg

>  <m_score__min__energy>  (99) 
-10.380000000000001

>  <m_primary>  (99) 
energy

$$$$
