0:0
     RDKit          3D

 42 44  0  0  0  0  0  0  0  0999 V2000
   -5.2830   24.9160  -28.8170 N   0  0  0  0  0  0  0  0  0  0  0  0
   -5.1250   24.5870  -30.1990 C   0  0  0  0  0  0  0  0  0  0  0  0
   -4.2980   25.2350  -30.8930 O   0  0  0  0  0  0  0  0  0  0  0  0
   -5.8960   23.4810  -30.8070 C   0  0  0  0  0  0  0  0  0  0  0  0
   -7.2830   23.4840  -30.9600 C   0  0  0  0  0  0  0  0  0  0  0  0
   -7.5970   22.2420  -31.4640 C   0  0  0  0  0  0  0  0  0  0  0  0
   -8.8330   21.6950  -31.8020 C   0  0  0  0  0  0  0  0  0  0  0  0
   -8.8570   20.3850  -32.3070 C   0  0  0  0  0  0  0  0  0  0  0  0
   -7.6550   19.6520  -32.4740 C   0  0  0  0  0  0  0  0  0  0  0  0
   -7.6920   18.2370  -32.9920 C   0  0  0  0  0  0  0  0  0  0  0  0
   -6.2770   17.7040  -33.2960 C   0  0  0  0  0  0  0  0  0  0  0  0
   -6.2530   16.1640  -33.4220 C   0  0  0  0  0  0  0  0  0  0  0  0
   -5.0170   15.6780  -34.2030 C   0  0  0  0  0  0  0  0  0  0  0  0
   -3.9770   16.6330  -34.1490 O   0  0  0  0  0  0  0  0  0  0  0  0
   -4.3220   17.7730  -34.9200 C   0  0  0  0  0  0  0  0  0  0  0  0
   -5.7210   18.3400  -34.5800 C   0  0  0  0  0  0  0  0  0  0  0  0
   -6.4200   20.2380  -32.1130 C   0  0  0  0  0  0  0  0  0  0  0  0
   -6.4300   21.5390  -31.6030 C   0  0  0  0  0  0  0  0  0  0  0  0
   -5.3780   22.2870  -31.2090 N   0  0  0  0  0  0  0  0  0  0  0  0
   -3.9970   21.8900  -31.2590 C   0  0  0  0  0  0  0  0  0  0  0  0
   -3.3300   21.8250  -30.1910 O   0  0  0  0  0  0  0  0  0  0  0  0
   -3.3390   21.5240  -32.5560 C   0  0  0  0  0  0  0  0  0  0  0  0
   -3.8790   22.2510  -33.6020 F   0  0  0  0  0  0  0  0  0  0  0  0
   -3.5260   20.1780  -32.8060 F   0  0  0  0  0  0  0  0  0  0  0  0
   -5.9980   24.4420  -28.2240 H   0  0  0  0  0  0  0  0  0  0  0  0
   -4.7040   25.6740  -28.3910 H   0  0  0  0  0  0  0  0  0  0  0  0
   -7.9778   24.3044  -30.7273 H   0  0  0  0  0  0  0  0  0  0  0  0
   -9.7614   22.2716  -31.6771 H   0  0  0  0  0  0  0  0  0  0  0  0
   -9.8183   19.9227  -32.5758 H   0  0  0  0  0  0  0  0  0  0  0  0
   -8.1608   17.5920  -32.2342 H   0  0  0  0  0  0  0  0  0  0  0  0
   -8.2699   18.2293  -33.9279 H   0  0  0  0  0  0  0  0  0  0  0  0
   -5.6386   17.9843  -32.4452 H   0  0  0  0  0  0  0  0  0  0  0  0
   -6.2343   15.7236  -32.4142 H   0  0  0  0  0  0  0  0  0  0  0  0
   -7.1526   15.8497  -33.9714 H   0  0  0  0  0  0  0  0  0  0  0  0
   -4.6620   14.7341  -33.7637 H   0  0  0  0  0  0  0  0  0  0  0  0
   -5.3027   15.5296  -35.2548 H   0  0  0  0  0  0  0  0  0  0  0  0
   -3.5732   18.5578  -34.7375 H   0  0  0  0  0  0  0  0  0  0  0  0
   -4.3444   17.4594  -35.9741 H   0  0  0  0  0  0  0  0  0  0  0  0
   -5.6431   19.4280  -34.4378 H   0  0  0  0  0  0  0  0  0  0  0  0
   -6.4042   18.1073  -35.4101 H   0  0  0  0  0  0  0  0  0  0  0  0
   -5.4766   19.6847  -32.2304 H   0  0  0  0  0  0  0  0  0  0  0  0
   -2.2658   21.7517  -32.4757 H   0  0  0  0  0  0  0  0  0  0  0  0
  1  2  1  0
  2  3  2  0
  2  4  1  0
  4  5  2  0
  5  6  1  0
  6  7  2  0
  7  8  1  0
  8  9  2  0
  9 10  1  0
 10 11  1  0
 11 12  1  0
 12 13  1  0
 13 14  1  0
 14 15  1  0
 15 16  1  0
  9 17  1  0
 17 18  2  0
 18 19  1  0
 19 20  1  0
 20 21  2  0
 20 22  1  0
 22 23  1  0
 22 24  1  0
 19  4  1  0
 18  6  1  0
 16 11  1  0
  1 25  1  0
  1 26  1  0
  5 27  1  0
  7 28  1  0
  8 29  1  0
 10 30  1  0
 10 31  1  0
 11 32  1  0
 12 33  1  0
 12 34  1  0
 13 35  1  0
 13 36  1  0
 15 37  1  0
 15 38  1  0
 16 39  1  0
 16 40  1  0
 17 41  1  0
 22 42  1  0
M  END
>  <UniqueID>  (1) 
1

>  <SMILES>  (1) 
NC(=O)c1cc2ccc(CC3CCOCC3)cc2n1C(=O)C(F)F

>  <Energy>  (1) 
86.33305564067761

>  <Genealogy>  (1) 
NC(=O)c1cc2ccc(CC3CCOCC3)cc2n1C(=O)C(F)F (3D coordinates assigned)
NC(=O)c1cc2ccc(CC3CCOCC3)cc2n1C(=O)C(F)F (nonaromatic ring conformer: 86.33305564067761 kcal/mol)

>  <smiles>  (1) 
NC(=O)c1cc2ccc(CC3CCOCC3)cc2n1C(=O)C(F)F

>  <score_type>  (1) 
oracle

>  <origin>  (1) 
adg

>  <m_score__min__energy>  (1) 
-9.1799999999999997

>  <m_primary>  (1) 
energy

$$$$
1:0
     RDKit          3D

 36 38  0  0  0  0  0  0  0  0999 V2000
   -0.5700   26.9430  -27.4420 C   0  0  0  0  0  0  0  0  0  0  0  0
   -1.2860   25.6660  -27.7350 C   0  0  0  0  0  0  0  0  0  0  0  0
   -1.7710   24.8250  -26.7360 C   0  0  0  0  0  0  0  0  0  0  0  0
   -2.4640   23.4840  -27.4790 S   0  0  0  0  0  0  0  0  0  0  0  0
   -2.1100   24.0320  -29.0260 C   0  0  0  0  0  0  0  0  0  0  0  0
   -2.4430   23.3160  -30.2180 N   0  0  0  0  0  0  0  0  0  0  0  0
   -3.3600   22.2170  -30.2900 C   0  0  0  0  0  0  0  0  0  0  0  0
   -3.0410   21.0880  -29.8310 O   0  0  0  0  0  0  0  0  0  0  0  0
   -4.6580   22.4100  -30.8740 N   0  0  0  0  0  0  0  0  0  0  0  0
   -5.3660   23.5710  -30.9710 C   0  0  0  0  0  0  0  0  0  0  0  0
   -5.0040   24.8650  -30.3570 C   0  0  0  0  0  0  0  0  0  0  0  0
   -3.8820   25.6110  -30.8200 N   0  0  0  0  0  0  0  0  0  0  0  0
   -5.6690   25.2980  -29.3770 O   0  0  0  0  0  0  0  0  0  0  0  0
   -6.5490   23.3620  -31.6780 C   0  0  0  0  0  0  0  0  0  0  0  0
   -6.5480   22.0250  -32.0070 C   0  0  0  0  0  0  0  0  0  0  0  0
   -7.4840   21.2760  -32.7130 C   0  0  0  0  0  0  0  0  0  0  0  0
   -7.2120   19.9140  -32.9270 C   0  0  0  0  0  0  0  0  0  0  0  0
   -6.0090   19.3350  -32.4500 C   0  0  0  0  0  0  0  0  0  0  0  0
   -5.7360   17.8730  -32.6680 C   0  0  0  0  0  0  0  0  0  0  0  0
   -6.0880   17.4890  -34.0690 C   0  0  0  0  0  0  0  0  0  0  0  0
   -5.6730   18.1790  -35.0370 O   0  0  0  0  0  0  0  0  0  0  0  0
   -6.8340   16.3430  -34.3090 O   0  0  0  0  0  0  0  0  0  0  0  0
   -5.0870   20.1250  -31.7280 C   0  0  0  0  0  0  0  0  0  0  0  0
   -5.3940   21.4740  -31.5120 C   0  0  0  0  0  0  0  0  0  0  0  0
   -1.4680   25.2190  -29.0070 N   0  0  0  0  0  0  0  0  0  0  0  0
   -0.4937   27.0791  -26.3531 H   0  0  0  0  0  0  0  0  0  0  0  0
    0.4390   26.9061  -27.8785 H   0  0  0  0  0  0  0  0  0  0  0  0
   -1.1278   27.7846  -27.8785 H   0  0  0  0  0  0  0  0  0  0  0  0
   -1.7114   25.0058  -25.6526 H   0  0  0  0  0  0  0  0  0  0  0  0
   -2.9070   25.2980  -30.6160 H   0  0  0  0  0  0  0  0  0  0  0  0
   -7.3203   24.1075  -31.9216 H   0  0  0  0  0  0  0  0  0  0  0  0
   -8.4086   21.7358  -33.0921 H   0  0  0  0  0  0  0  0  0  0  0  0
   -7.9389   19.2916  -33.4694 H   0  0  0  0  0  0  0  0  0  0  0  0
   -4.6689   17.6719  -32.4927 H   0  0  0  0  0  0  0  0  0  0  0  0
   -6.3473   17.2840  -31.9684 H   0  0  0  0  0  0  0  0  0  0  0  0
   -4.1514   19.6913  -31.3451 H   0  0  0  0  0  0  0  0  0  0  0  0
  1  2  1  0
  2  3  2  0
  3  4  1  0
  4  5  1  0
  5  6  1  0
  6  7  1  0
  7  8  2  0
  7  9  1  0
  9 10  1  0
 10 11  1  0
 11 12  1  0
 11 13  2  0
 10 14  2  0
 14 15  1  0
 15 16  2  0
 16 17  1  0
 17 18  2  0
 18 19  1  0
 19 20  1  0
 20 21  2  0
 20 22  1  0
 18 23  1  0
 23 24  2  0
  5 25  2  0
 25  2  1  0
 24  9  1  0
 24 15  1  0
  1 26  1  0
  1 27  1  0
  1 28  1  0
  3 29  1  0
 12 30  1  0
 14 31  1  0
 16 32  1  0
 17 33  1  0
 19 34  1  0
 19 35  1  0
 23 36  1  0
M  CHG  3   6  -1  12  -1  22  -1
M  END
>  <UniqueID>  (2) 
2

>  <SMILES>  (2) 
Cc1csc([N-]C(=O)n2c(C([NH-])=O)cc3ccc(CC(=O)[O-])cc32)n1

>  <Energy>  (2) 
104.63597809740834

>  <Genealogy>  (2) 
Cc1csc([N-]C(=O)n2c(C([NH-])=O)cc3ccc(CC(=O)[O-])cc32)n1 (protonated)
Cc1csc([N-]C(=O)n2c(C([NH-])=O)cc3ccc(CC(=O)[O-])cc32)n1 (3D coordinates assigned)
Cc1csc([N-]C(=O)n2c(C([NH-])=O)cc3ccc(CC(=O)[O-])cc32)n1 (optimized conformer: 104.63597809740834 kcal/mol)

>  <smiles>  (2) 
Cc1csc(NC(=O)n2c(C(N)=O)cc3ccc(CC(=O)O)cc32)n1

>  <score_type>  (2) 
oracle

>  <origin>  (2) 
adg

>  <m_score__min__energy>  (2) 
-11.18

>  <m_primary>  (2) 
energy

$$$$
2:0
     RDKit          3D

 53 55  0  0  0  0  0  0  0  0999 V2000
   -5.7350   23.0570  -31.8830 C   0  0  0  0  0  0  0  0  0  0  0  0
   -4.3280   23.2470  -31.8160 O   0  0  0  0  0  0  0  0  0  0  0  0
   -3.6160   23.1940  -30.6140 C   0  0  0  0  0  0  0  0  0  0  0  0
   -4.1030   23.6950  -29.5620 O   0  0  0  0  0  0  0  0  0  0  0  0
   -2.3360   22.5450  -30.5720 N   0  0  0  0  0  0  0  0  0  0  0  0
   -1.2040   22.9570  -29.9340 C   0  0  0  0  0  0  0  0  0  0  0  0
   -1.0110   24.2550  -29.2540 C   0  0  0  0  0  0  0  0  0  0  0  0
   -1.9920   25.2840  -29.3440 N   0  0  0  0  0  0  0  0  0  0  0  0
    0.0570   24.4750  -28.6240 O   0  0  0  0  0  0  0  0  0  0  0  0
   -0.1910   22.0100  -30.0770 C   0  0  0  0  0  0  0  0  0  0  0  0
   -0.7380   21.0030  -30.8380 C   0  0  0  0  0  0  0  0  0  0  0  0
   -0.1790   19.8080  -31.2790 C   0  0  0  0  0  0  0  0  0  0  0  0
   -0.9850   18.9410  -32.0340 C   0  0  0  0  0  0  0  0  0  0  0  0
   -2.3330   19.2770  -32.3360 C   0  0  0  0  0  0  0  0  0  0  0  0
   -3.2370   18.3390  -33.1200 C   0  0  1  0  0  0  0  0  0  0  0  0
   -3.0690   16.8380  -32.7590 C   0  0  0  0  0  0  0  0  0  0  0  0
   -3.6080   15.9040  -33.7860 N   0  0  1  0  0  0  0  0  0  0  0  0
   -2.6060   14.8520  -34.0450 C   0  0  0  0  0  0  0  0  0  0  0  0
   -4.8950   15.2750  -33.3730 C   0  0  0  0  0  0  0  0  0  0  0  0
   -6.0770   15.8550  -34.0990 C   0  0  0  0  0  0  0  0  0  0  0  0
   -7.2320   15.3890  -33.9100 O   0  0  0  0  0  0  0  0  0  0  0  0
   -5.9100   16.9460  -34.9420 O   0  0  0  0  0  0  0  0  0  0  0  0
   -4.6830   18.7900  -33.0070 C   0  0  0  0  0  0  0  0  0  0  0  0
   -5.4990   18.2760  -31.9800 C   0  0  0  0  0  0  0  0  0  0  0  0
   -6.8370   18.6630  -31.8720 C   0  0  0  0  0  0  0  0  0  0  0  0
   -7.3840   19.5640  -32.7920 C   0  0  0  0  0  0  0  0  0  0  0  0
   -8.7630   19.9610  -32.6810 C   0  0  0  0  0  0  0  0  0  0  0  0
   -9.8720   20.2810  -32.5920 N   0  0  0  0  0  0  0  0  0  0  0  0
   -6.5880   20.0750  -33.8230 C   0  0  0  0  0  0  0  0  0  0  0  0
   -5.2490   19.6900  -33.9330 C   0  0  0  0  0  0  0  0  0  0  0  0
   -2.8670   20.4920  -31.8480 C   0  0  0  0  0  0  0  0  0  0  0  0
   -2.0340   21.3480  -31.1220 C   0  0  0  0  0  0  0  0  0  0  0  0
   -6.1464   23.0014  -30.8643 H   0  0  0  0  0  0  0  0  0  0  0  0
   -6.1939   23.9013  -32.4183 H   0  0  0  0  0  0  0  0  0  0  0  0
   -5.9535   22.1212  -32.4183 H   0  0  0  0  0  0  0  0  0  0  0  0
   -2.7000   25.2850  -30.1120 H   0  0  0  0  0  0  0  0  0  0  0  0
    0.8291   22.0578  -29.6681 H   0  0  0  0  0  0  0  0  0  0  0  0
    0.8639   19.5498  -31.0431 H   0  0  0  0  0  0  0  0  0  0  0  0
   -0.5682   17.9897  -32.3964 H   0  0  0  0  0  0  0  0  0  0  0  0
   -2.9186   18.4063  -34.1707 H   0  0  0  0  0  0  0  0  0  0  0  0
   -1.9962   16.6308  -32.6320 H   0  0  0  0  0  0  0  0  0  0  0  0
   -3.6456   16.6657  -31.8382 H   0  0  0  0  0  0  0  0  0  0  0  0
   -3.7270   16.4170  -34.6910 H   0  0  0  0  0  0  0  0  0  0  0  0
   -2.2315   14.4588  -33.0884 H   0  0  0  0  0  0  0  0  0  0  0  0
   -3.0702   14.0371  -34.6198 H   0  0  0  0  0  0  0  0  0  0  0  0
   -1.7695   15.2760  -34.6198 H   0  0  0  0  0  0  0  0  0  0  0  0
   -4.8449   14.1968  -33.5849 H   0  0  0  0  0  0  0  0  0  0  0  0
   -5.0333   15.4695  -32.2992 H   0  0  0  0  0  0  0  0  0  0  0  0
   -5.0784   17.5628  -31.2559 H   0  0  0  0  0  0  0  0  0  0  0  0
   -7.4617   18.2585  -31.0620 H   0  0  0  0  0  0  0  0  0  0  0  0
   -7.0171   20.7815  -34.5488 H   0  0  0  0  0  0  0  0  0  0  0  0
   -4.6313   20.0927  -34.7492 H   0  0  0  0  0  0  0  0  0  0  0  0
   -3.9176   20.7583  -32.0361 H   0  0  0  0  0  0  0  0  0  0  0  0
  1  2  1  0
  2  3  1  0
  3  4  2  0
  3  5  1  0
  5  6  1  0
  6  7  1  0
  7  8  1  0
  7  9  2  0
  6 10  2  0
 10 11  1  0
 11 12  2  0
 12 13  1  0
 13 14  2  0
 14 15  1  0
 15 16  1  0
 16 17  1  0
 17 18  1  0
 17 19  1  0
 19 20  1  0
 20 21  2  0
 20 22  1  0
 15 23  1  0
 23 24  2  0
 24 25  1  0
 25 26  2  0
 26 27  1  0
 27 28  3  0
 26 29  1  0
 29 30  2  0
 14 31  1  0
 31 32  2  0
 32  5  1  0
 32 11  1  0
 30 23  1  0
  1 33  1  0
  1 34  1  0
  1 35  1  0
  8 36  1  0
 10 37  1  0
 12 38  1  0
 13 39  1  0
 15 40  1  6
 16 41  1  0
 16 42  1  0
 17 43  1  6
 18 44  1  0
 18 45  1  0
 18 46  1  0
 19 47  1  0
 19 48  1  0
 24 49  1  0
 25 50  1  0
 29 51  1  0
 30 52  1  0
 31 53  1  0
M  CHG  3   8  -1  17   1  22  -1
M  END
>  <UniqueID>  (3) 
3

>  <SMILES>  (3) 
COC(=O)n1c(C([NH-])=O)cc2ccc([C@@H](C[N@@H+](C)CC(=O)[O-])c3ccc(C#N)cc3)cc21

>  <Energy>  (3) 
96.4187701736205

>  <Genealogy>  (3) 
COC(=O)n1c(C([NH-])=O)cc2ccc(C(C[NH+](C)CC(=O)[O-])c3ccc(C#N)cc3)cc21 (protonated)
COC(=O)n1c(C([NH-])=O)cc2ccc([C@@H](C[N@@H+](C)CC(=O)[O-])c3ccc(C#N)cc3)cc21 (chirality)
COC(=O)n1c(C([NH-])=O)cc2ccc([C@@H](C[N@@H+](C)CC(=O)[O-])c3ccc(C#N)cc3)cc21 (3D coordinates assigned)
COC(=O)n1c(C([NH-])=O)cc2ccc([C@@H](C[N@@H+](C)CC(=O)[O-])c3ccc(C#N)cc3)cc21 (optimized conformer: 96.4187701736205 kcal/mol)

>  <smiles>  (3) 
COC(=O)n1c(C(N)=O)cc2ccc(C(CN(C)CC(=O)O)c3ccc(C#N)cc3)cc21

>  <score_type>  (3) 
oracle

>  <origin>  (3) 
adg

>  <m_score__min__energy>  (3) 
-10.960000000000001

>  <m_primary>  (3) 
energy

$$$$
3:0
     RDKit          3D

 52 53  0  0  0  0  0  0  0  0999 V2000
   -2.8820   19.9790  -32.3330 C   0  0  0  0  0  0  0  0  0  0  0  0
   -3.3330   21.0260  -33.3460 C   0  0  0  0  0  0  0  0  0  0  0  0
   -3.3730   22.3210  -32.7500 O   0  0  0  0  0  0  0  0  0  0  0  0
   -3.8780   22.5660  -31.4680 C   0  0  0  0  0  0  0  0  0  0  0  0
   -3.1130   22.5450  -30.4660 O   0  0  0  0  0  0  0  0  0  0  0  0
   -5.2690   22.8730  -31.2990 N   0  0  0  0  0  0  0  0  0  0  0  0
   -5.8260   24.0680  -30.9510 C   0  0  0  0  0  0  0  0  0  0  0  0
   -5.0930   25.2740  -30.5120 C   0  0  0  0  0  0  0  0  0  0  0  0
   -3.6680   25.2960  -30.4860 N   0  0  0  0  0  0  0  0  0  0  0  0
   -5.7340   26.2810  -30.1090 O   0  0  0  0  0  0  0  0  0  0  0  0
   -7.2170   23.9860  -30.9790 C   0  0  0  0  0  0  0  0  0  0  0  0
   -7.4970   22.6900  -31.3500 C   0  0  0  0  0  0  0  0  0  0  0  0
   -8.7230   22.0630  -31.5510 C   0  0  0  0  0  0  0  0  0  0  0  0
   -8.7140   20.7210  -31.9690 C   0  0  0  0  0  0  0  0  0  0  0  0
   -7.4900   20.0370  -32.1760 C   0  0  0  0  0  0  0  0  0  0  0  0
   -7.5000   18.6200  -32.6810 C   0  0  0  0  0  0  0  0  0  0  0  0
   -6.4210   18.4310  -33.7560 C   0  0  0  0  0  0  0  0  0  0  0  0
   -6.2730   16.9730  -34.2150 C   0  0  0  0  0  0  0  0  0  0  0  0
   -5.7190   15.9690  -33.1690 C   0  0  0  0  0  0  0  0  0  0  0  0
   -4.3170   15.4950  -33.3570 N   0  0  2  0  0  0  0  0  0  0  0  0
   -3.9680   14.3710  -32.4650 C   0  0  0  0  0  0  0  0  0  0  0  0
   -3.3110   16.5890  -33.2850 C   0  0  0  0  0  0  0  0  0  0  0  0
   -2.8870   17.0840  -34.6720 C   0  0  0  0  0  0  0  0  0  0  0  0
   -3.5430   16.3740  -35.6590 F   0  0  0  0  0  0  0  0  0  0  0  0
   -6.2660   20.7090  -31.9710 C   0  0  0  0  0  0  0  0  0  0  0  0
   -6.3040   22.0400  -31.5360 C   0  0  0  0  0  0  0  0  0  0  0  0
   -3.0461   20.3600  -31.3142 H   0  0  0  0  0  0  0  0  0  0  0  0
   -3.4622   19.0556  -32.4771 H   0  0  0  0  0  0  0  0  0  0  0  0
   -1.8124   19.7662  -32.4771 H   0  0  0  0  0  0  0  0  0  0  0  0
   -2.6278   21.0388  -34.1901 H   0  0  0  0  0  0  0  0  0  0  0  0
   -4.3431   20.7668  -33.6959 H   0  0  0  0  0  0  0  0  0  0  0  0
   -3.1090   24.6380  -31.0720 H   0  0  0  0  0  0  0  0  0  0  0  0
   -7.9374   24.7860  -30.7529 H   0  0  0  0  0  0  0  0  0  0  0  0
   -9.6688   22.6004  -31.3880 H   0  0  0  0  0  0  0  0  0  0  0  0
   -9.6662   20.1965  -32.1371 H   0  0  0  0  0  0  0  0  0  0  0  0
   -7.3021   17.9347  -31.8436 H   0  0  0  0  0  0  0  0  0  0  0  0
   -8.4850   18.4032  -33.1201 H   0  0  0  0  0  0  0  0  0  0  0  0
   -6.6849   19.0470  -34.6283 H   0  0  0  0  0  0  0  0  0  0  0  0
   -5.4609   18.7329  -33.3121 H   0  0  0  0  0  0  0  0  0  0  0  0
   -7.2669   16.6179  -34.5249 H   0  0  0  0  0  0  0  0  0  0  0  0
   -5.5239   16.9966  -35.0202 H   0  0  0  0  0  0  0  0  0  0  0  0
   -5.7755   16.4531  -32.1829 H   0  0  0  0  0  0  0  0  0  0  0  0
   -6.3409   15.0688  -33.2820 H   0  0  0  0  0  0  0  0  0  0  0  0
   -4.2960   15.1050  -34.3300 H   0  0  0  0  0  0  0  0  0  0  0  0
   -4.0671   14.6902  -31.4170 H   0  0  0  0  0  0  0  0  0  0  0  0
   -4.6462   13.5265  -32.6568 H   0  0  0  0  0  0  0  0  0  0  0  0
   -2.9307   14.0591  -32.6568 H   0  0  0  0  0  0  0  0  0  0  0  0
   -3.7446   17.4316  -32.7264 H   0  0  0  0  0  0  0  0  0  0  0  0
   -2.4170   16.1905  -32.7830 H   0  0  0  0  0  0  0  0  0  0  0  0
   -3.1357   18.1513  -34.7674 H   0  0  0  0  0  0  0  0  0  0  0  0
   -1.8031   16.9362  -34.7872 H   0  0  0  0  0  0  0  0  0  0  0  0
   -5.3068   20.2006  -32.1483 H   0  0  0  0  0  0  0  0  0  0  0  0
  1  2  1  0
  2  3  1  0
  3  4  1  0
  4  5  2  0
  4  6  1  0
  6  7  1  0
  7  8  1  0
  8  9  1  0
  8 10  2  0
  7 11  2  0
 11 12  1  0
 12 13  2  0
 13 14  1  0
 14 15  2  0
 15 16  1  0
 16 17  1  0
 17 18  1  0
 18 19  1  0
 19 20  1  0
 20 21  1  0
 20 22  1  0
 22 23  1  0
 23 24  1  0
 15 25  1  0
 25 26  2  0
 26  6  1  0
 26 12  1  0
  1 27  1  0
  1 28  1  0
  1 29  1  0
  2 30  1  0
  2 31  1  0
  9 32  1  0
 11 33  1  0
 13 34  1  0
 14 35  1  0
 16 36  1  0
 16 37  1  0
 17 38  1  0
 17 39  1  0
 18 40  1  0
 18 41  1  0
 19 42  1  0
 19 43  1  0
 20 44  1  6
 21 45  1  0
 21 46  1  0
 21 47  1  0
 22 48  1  0
 22 49  1  0
 23 50  1  0
 23 51  1  0
 25 52  1  0
M  CHG  2   9  -1  20   1
M  END
>  <UniqueID>  (4) 
4

>  <SMILES>  (4) 
CCOC(=O)n1c(C([NH-])=O)cc2ccc(CCCC[N@H+](C)CCF)cc21

>  <Energy>  (4) 
88.96319199672784

>  <Genealogy>  (4) 
CCOC(=O)n1c(C([NH-])=O)cc2ccc(CCCC[NH+](C)CCF)cc21 (protonated)
CCOC(=O)n1c(C([NH-])=O)cc2ccc(CCCC[N@H+](C)CCF)cc21 (chirality)
CCOC(=O)n1c(C([NH-])=O)cc2ccc(CCCC[N@H+](C)CCF)cc21 (3D coordinates assigned)
CCOC(=O)n1c(C([NH-])=O)cc2ccc(CCCC[N@H+](C)CCF)cc21 (optimized conformer: 88.96319199672784 kcal/mol)

>  <smiles>  (4) 
CCOC(=O)n1c(C(N)=O)cc2ccc(CCCCN(C)CCF)cc21

>  <score_type>  (4) 
oracle

>  <origin>  (4) 
adg

>  <m_score__min__energy>  (4) 
-8.9299999999999997

>  <m_primary>  (4) 
energy

$$$$
4:0
     RDKit          3D

 37 38  0  0  0  0  0  0  0  0999 V2000
   -7.4580   22.0300  -30.4540 C   0  0  0  0  0  0  0  0  0  0  0  0
   -8.3270   21.5020  -31.5120 N   0  0  0  0  0  0  0  0  0  0  0  0
   -9.4960   22.2720  -31.9500 C   0  0  0  0  0  0  0  0  0  0  0  0
   -8.0750   20.2140  -32.1180 C   0  0  0  0  0  0  0  0  0  0  0  0
   -8.9660   19.6780  -32.8300 O   0  0  0  0  0  0  0  0  0  0  0  0
   -6.7480   19.5080  -31.9900 C   0  0  0  0  0  0  0  0  0  0  0  0
   -5.7170   20.0630  -32.9820 C   0  0  0  0  0  0  0  0  0  0  0  0
   -4.4770   20.5550  -32.2810 C   0  0  0  0  0  0  0  0  0  0  0  0
   -3.2760   19.8080  -32.3510 C   0  0  0  0  0  0  0  0  0  0  0  0
   -2.0950   20.2930  -31.7660 C   0  0  0  0  0  0  0  0  0  0  0  0
   -2.1490   21.5220  -31.1140 C   0  0  0  0  0  0  0  0  0  0  0  0
   -1.1490   22.2400  -30.4990 C   0  0  0  0  0  0  0  0  0  0  0  0
   -1.7590   23.4060  -30.0420 C   0  0  0  0  0  0  0  0  0  0  0  0
   -1.0550   24.4300  -29.2420 C   0  0  0  0  0  0  0  0  0  0  0  0
   -1.6750   25.6740  -28.9320 N   0  0  0  0  0  0  0  0  0  0  0  0
    0.0930   24.1820  -28.7850 O   0  0  0  0  0  0  0  0  0  0  0  0
   -3.0830   23.4140  -30.3710 N   0  0  0  0  0  0  0  0  0  0  0  0
   -4.0370   24.4690  -30.1640 C   0  0  0  0  0  0  0  0  0  0  0  0
   -4.9820   24.3200  -29.3460 O   0  0  0  0  0  0  0  0  0  0  0  0
   -3.9090   25.6730  -30.8460 O   0  0  0  0  0  0  0  0  0  0  0  0
   -3.3060   22.2510  -31.0230 C   0  0  0  0  0  0  0  0  0  0  0  0
   -4.4920   21.8010  -31.6150 C   0  0  0  0  0  0  0  0  0  0  0  0
   -7.8799   21.7737  -29.4710 H   0  0  0  0  0  0  0  0  0  0  0  0
   -6.4550   21.5885  -30.5490 H   0  0  0  0  0  0  0  0  0  0  0  0
   -7.3877   23.1236  -30.5490 H   0  0  0  0  0  0  0  0  0  0  0  0
  -10.0469   22.6348  -31.0697 H   0  0  0  0  0  0  0  0  0  0  0  0
   -9.1649   23.1294  -32.5544 H   0  0  0  0  0  0  0  0  0  0  0  0
  -10.1530   21.6293  -32.5544 H   0  0  0  0  0  0  0  0  0  0  0  0
   -6.3683   19.6438  -30.9666 H   0  0  0  0  0  0  0  0  0  0  0  0
   -6.9017   18.4418  -32.2127 H   0  0  0  0  0  0  0  0  0  0  0  0
   -5.4358   19.2665  -33.6866 H   0  0  0  0  0  0  0  0  0  0  0  0
   -6.1727   20.9138  -33.5098 H   0  0  0  0  0  0  0  0  0  0  0  0
   -3.2680   18.8377  -32.8690 H   0  0  0  0  0  0  0  0  0  0  0  0
   -1.1575   19.7203  -31.8211 H   0  0  0  0  0  0  0  0  0  0  0  0
   -0.0923   21.9539  -30.3912 H   0  0  0  0  0  0  0  0  0  0  0  0
   -2.7030   25.8080  -29.0570 H   0  0  0  0  0  0  0  0  0  0  0  0
   -5.4119   22.4019  -31.5630 H   0  0  0  0  0  0  0  0  0  0  0  0
  1  2  1  0
  2  3  1  0
  2  4  1  0
  4  5  2  0
  4  6  1  0
  6  7  1  0
  7  8  1  0
  8  9  2  0
  9 10  1  0
 10 11  2  0
 11 12  1  0
 12 13  2  0
 13 14  1  0
 14 15  1  0
 14 16  2  0
 13 17  1  0
 17 18  1  0
 18 19  2  0
 18 20  1  0
 17 21  1  0
 21 22  2  0
 22  8  1  0
 21 11  1  0
  1 23  1  0
  1 24  1  0
  1 25  1  0
  3 26  1  0
  3 27  1  0
  3 28  1  0
  6 29  1  0
  6 30  1  0
  7 31  1  0
  7 32  1  0
  9 33  1  0
 10 34  1  0
 12 35  1  0
 15 36  1  0
 22 37  1  0
M  CHG  2  15  -1  20  -1
M  END
>  <UniqueID>  (5) 
5

>  <SMILES>  (5) 
CN(C)C(=O)CCc1ccc2cc(C([NH-])=O)n(C(=O)[O-])c2c1

>  <Energy>  (5) 
70.38764416477815

>  <Genealogy>  (5) 
CN(C)C(=O)CCc1ccc2cc(C([NH-])=O)n(C(=O)[O-])c2c1 (protonated)
CN(C)C(=O)CCc1ccc2cc(C([NH-])=O)n(C(=O)[O-])c2c1 (3D coordinates assigned)
CN(C)C(=O)CCc1ccc2cc(C([NH-])=O)n(C(=O)[O-])c2c1 (optimized conformer: 70.38764416477815 kcal/mol)

>  <smiles>  (5) 
CN(C)C(=O)CCc1ccc2cc(C(N)=O)n(C(=O)O)c2c1

>  <score_type>  (5) 
oracle

>  <origin>  (5) 
adg

>  <m_score__min__energy>  (5) 
-11.25

>  <m_primary>  (5) 
energy

$$$$
5:0
     RDKit          3D

 34 35  0  0  0  0  0  0  0  0999 V2000
   -7.5040   18.3880  -33.0770 C   0  0  0  0  0  0  0  0  0  0  0  0
   -6.1370   17.9930  -33.6560 C   0  0  0  0  0  0  0  0  0  0  0  0
   -6.0910   18.3190  -35.1610 C   0  0  0  0  0  0  0  0  0  0  0  0
   -5.0850   18.7760  -32.9790 C   0  0  0  0  0  0  0  0  0  0  0  0
   -4.2250   19.4150  -32.4260 C   0  0  0  0  0  0  0  0  0  0  0  0
   -3.2000   20.1770  -31.7660 C   0  0  0  0  0  0  0  0  0  0  0  0
   -1.8950   19.6470  -31.6450 C   0  0  0  0  0  0  0  0  0  0  0  0
   -0.8880   20.3770  -30.9910 C   0  0  0  0  0  0  0  0  0  0  0  0
   -1.2170   21.6300  -30.4800 C   0  0  0  0  0  0  0  0  0  0  0  0
   -0.4470   22.5310  -29.7820 C   0  0  0  0  0  0  0  0  0  0  0  0
   -1.2910   23.6060  -29.5110 C   0  0  0  0  0  0  0  0  0  0  0  0
   -0.8370   24.8450  -28.8480 C   0  0  0  0  0  0  0  0  0  0  0  0
   -1.5890   26.0510  -28.9530 N   0  0  0  0  0  0  0  0  0  0  0  0
    0.2570   24.8530  -28.2210 O   0  0  0  0  0  0  0  0  0  0  0  0
   -2.5380   23.3750  -30.0120 N   0  0  0  0  0  0  0  0  0  0  0  0
   -3.7100   24.1920  -29.8600 C   0  0  0  0  0  0  0  0  0  0  0  0
   -3.8160   25.2780  -30.4880 O   0  0  0  0  0  0  0  0  0  0  0  0
   -4.7520   23.7770  -29.0400 O   0  0  0  0  0  0  0  0  0  0  0  0
   -2.4760   22.1630  -30.6060 C   0  0  0  0  0  0  0  0  0  0  0  0
   -3.5030   21.4490  -31.2360 C   0  0  0  0  0  0  0  0  0  0  0  0
   -5.9010   16.5190  -33.4140 C   0  0  0  0  0  0  0  0  0  0  0  0
   -4.8720   16.1250  -32.8040 O   0  0  0  0  0  0  0  0  0  0  0  0
   -6.7730   15.5720  -33.9440 O   0  0  0  0  0  0  0  0  0  0  0  0
   -7.4548   18.3738  -31.9782 H   0  0  0  0  0  0  0  0  0  0  0  0
   -7.7687   19.3994  -33.4191 H   0  0  0  0  0  0  0  0  0  0  0  0
   -8.2674   17.6737  -33.4191 H   0  0  0  0  0  0  0  0  0  0  0  0
   -5.9385   19.3998  -35.2976 H   0  0  0  0  0  0  0  0  0  0  0  0
   -5.2615   17.7695  -35.6300 H   0  0  0  0  0  0  0  0  0  0  0  0
   -7.0402   18.0205  -35.6300 H   0  0  0  0  0  0  0  0  0  0  0  0
   -1.6663   18.6566  -32.0656 H   0  0  0  0  0  0  0  0  0  0  0  0
    0.1290   19.9712  -30.8859 H   0  0  0  0  0  0  0  0  0  0  0  0
    0.6105   22.4253  -29.4981 H   0  0  0  0  0  0  0  0  0  0  0  0
   -2.6320   26.0340  -28.9690 H   0  0  0  0  0  0  0  0  0  0  0  0
   -4.5170   21.8680  -31.3154 H   0  0  0  0  0  0  0  0  0  0  0  0
  1  2  1  0
  2  3  1  0
  2  4  1  0
  4  5  3  0
  5  6  1  0
  6  7  2  0
  7  8  1  0
  8  9  2  0
  9 10  1  0
 10 11  2  0
 11 12  1  0
 12 13  1  0
 12 14  2  0
 11 15  1  0
 15 16  1  0
 16 17  2  0
 16 18  1  0
 15 19  1  0
 19 20  2  0
  2 21  1  0
 21 22  2  0
 21 23  1  0
 20  6  1  0
 19  9  1  0
  1 24  1  0
  1 25  1  0
  1 26  1  0
  3 27  1  0
  3 28  1  0
  3 29  1  0
  7 30  1  0
  8 31  1  0
 10 32  1  0
 13 33  1  0
 20 34  1  0
M  CHG  3  13  -1  18  -1  23  -1
M  END
>  <UniqueID>  (6) 
6

>  <SMILES>  (6) 
CC(C)(C#Cc1ccc2cc(C([NH-])=O)n(C(=O)[O-])c2c1)C(=O)[O-]

>  <Energy>  (6) 
67.41899623291117

>  <Genealogy>  (6) 
CC(C)(C#Cc1ccc2cc(C([NH-])=O)n(C(=O)[O-])c2c1)C(=O)[O-] (protonated)
CC(C)(C#Cc1ccc2cc(C([NH-])=O)n(C(=O)[O-])c2c1)C(=O)[O-] (3D coordinates assigned)
CC(C)(C#Cc1ccc2cc(C([NH-])=O)n(C(=O)[O-])c2c1)C(=O)[O-] (optimized conformer: 67.41899623291117 kcal/mol)

>  <smiles>  (6) 
CC(C)(C#Cc1ccc2cc(C(N)=O)n(C(=O)O)c2c1)C(=O)O

>  <score_type>  (6) 
oracle

>  <origin>  (6) 
adg

>  <m_score__min__energy>  (6) 
-10.93

>  <m_primary>  (6) 
energy

$$$$
6:0
     RDKit          3D

 41 42  0  0  0  0  0  0  0  0999 V2000
   -7.6430   22.3330  -30.1150 C   0  0  0  0  0  0  0  0  0  0  0  0
   -8.5610   22.6750  -31.2160 N   0  0  0  0  0  0  0  0  0  0  0  0
   -7.8270   23.4080  -32.2610 C   0  0  0  0  0  0  0  0  0  0  0  0
   -9.2180   21.4660  -31.7690 C   0  0  0  0  0  0  0  0  0  0  0  0
   -8.2390   20.2920  -31.7690 C   0  0  0  0  0  0  0  0  0  0  0  0
   -7.0120   20.6680  -32.4540 N   0  0  0  0  0  0  0  0  0  0  0  0
   -6.0660   19.7230  -32.9640 C   0  0  0  0  0  0  0  0  0  0  0  0
   -6.2910   18.4850  -32.8700 O   0  0  0  0  0  0  0  0  0  0  0  0
   -4.8150   20.2000  -33.6420 C   0  0  0  0  0  0  0  0  0  0  0  0
   -3.7970   20.6640  -32.6320 C   0  0  0  0  0  0  0  0  0  0  0  0
   -2.5660   19.9750  -32.4930 C   0  0  0  0  0  0  0  0  0  0  0  0
   -1.5670   20.4620  -31.6330 C   0  0  0  0  0  0  0  0  0  0  0  0
   -1.8250   21.6360  -30.9330 C   0  0  0  0  0  0  0  0  0  0  0  0
   -1.0120   22.3590  -30.0910 C   0  0  0  0  0  0  0  0  0  0  0  0
   -1.7640   23.4680  -29.7120 C   0  0  0  0  0  0  0  0  0  0  0  0
   -1.2900   24.4810  -28.7470 C   0  0  0  0  0  0  0  0  0  0  0  0
   -1.6320   25.8540  -28.9360 N   0  0  0  0  0  0  0  0  0  0  0  0
   -0.5560   24.1580  -27.7770 O   0  0  0  0  0  0  0  0  0  0  0  0
   -2.9940   23.4370  -30.3020 N   0  0  0  0  0  0  0  0  0  0  0  0
   -4.0310   24.4300  -30.2340 C   0  0  0  0  0  0  0  0  0  0  0  0
   -3.8890   25.5400  -30.8130 O   0  0  0  0  0  0  0  0  0  0  0  0
   -5.2110   24.1670  -29.5500 O   0  0  0  0  0  0  0  0  0  0  0  0
   -3.0170   22.3070  -31.0430 C   0  0  0  0  0  0  0  0  0  0  0  0
   -4.0250   21.8490  -31.8980 C   0  0  0  0  0  0  0  0  0  0  0  0
   -8.1406   22.5184  -29.1517 H   0  0  0  0  0  0  0  0  0  0  0  0
   -7.3651   21.2710  -30.1858 H   0  0  0  0  0  0  0  0  0  0  0  0
   -6.7380   22.9543  -30.1858 H   0  0  0  0  0  0  0  0  0  0  0  0
   -7.1234   24.1106  -31.7906 H   0  0  0  0  0  0  0  0  0  0  0  0
   -7.2700   22.6950  -32.8865 H   0  0  0  0  0  0  0  0  0  0  0  0
   -8.5393   23.9660  -32.8865 H   0  0  0  0  0  0  0  0  0  0  0  0
  -10.0918   21.2115  -31.1511 H   0  0  0  0  0  0  0  0  0  0  0  0
   -9.5375   21.6694  -32.8017 H   0  0  0  0  0  0  0  0  0  0  0  0
   -8.0058   20.0121  -30.7311 H   0  0  0  0  0  0  0  0  0  0  0  0
   -8.6975   19.4392  -32.2911 H   0  0  0  0  0  0  0  0  0  0  0  0
   -4.3877   19.3747  -34.2305 H   0  0  0  0  0  0  0  0  0  0  0  0
   -5.0715   21.0467  -34.2957 H   0  0  0  0  0  0  0  0  0  0  0  0
   -2.3912   19.0509  -33.0634 H   0  0  0  0  0  0  0  0  0  0  0  0
   -0.6105   19.9312  -31.5170 H   0  0  0  0  0  0  0  0  0  0  0  0
    0.0148   22.1131  -29.7824 H   0  0  0  0  0  0  0  0  0  0  0  0
   -1.2350   26.4000  -29.7340 H   0  0  0  0  0  0  0  0  0  0  0  0
   -4.9727   22.3987  -31.9964 H   0  0  0  0  0  0  0  0  0  0  0  0
  1  2  1  0
  2  3  1  0
  2  4  1  0
  4  5  1  0
  5  6  1  0
  6  7  1  0
  7  8  2  0
  7  9  1  0
  9 10  1  0
 10 11  2  0
 11 12  1  0
 12 13  2  0
 13 14  1  0
 14 15  2  0
 15 16  1  0
 16 17  1  0
 16 18  2  0
 15 19  1  0
 19 20  1  0
 20 21  2  0
 20 22  1  0
 19 23  1  0
 23 24  2  0
 24 10  1  0
 23 13  1  0
  1 25  1  0
  1 26  1  0
  1 27  1  0
  3 28  1  0
  3 29  1  0
  3 30  1  0
  4 31  1  0
  4 32  1  0
  5 33  1  0
  5 34  1  0
  9 35  1  0
  9 36  1  0
 11 37  1  0
 12 38  1  0
 14 39  1  0
 17 40  1  0
 24 41  1  0
M  CHG  3   6  -1  17  -1  22  -1
M  END
>  <UniqueID>  (7) 
7

>  <SMILES>  (7) 
CN(C)CC[N-]C(=O)Cc1ccc2cc(C([NH-])=O)n(C(=O)[O-])c2c1

>  <Energy>  (7) 
74.53408029478713

>  <Genealogy>  (7) 
CN(C)CC[N-]C(=O)Cc1ccc2cc(C([NH-])=O)n(C(=O)[O-])c2c1 (protonated)
CN(C)CC[N-]C(=O)Cc1ccc2cc(C([NH-])=O)n(C(=O)[O-])c2c1 (3D coordinates assigned)
CN(C)CC[N-]C(=O)Cc1ccc2cc(C([NH-])=O)n(C(=O)[O-])c2c1 (optimized conformer: 74.53408029478713 kcal/mol)

>  <smiles>  (7) 
CN(C)CCNC(=O)Cc1ccc2cc(C(N)=O)n(C(=O)O)c2c1

>  <score_type>  (7) 
oracle

>  <origin>  (7) 
adg

>  <m_score__min__energy>  (7) 
-11

>  <m_primary>  (7) 
energy

$$$$
7:0
     RDKit          3D

 32 33  0  0  0  0  0  0  0  0999 V2000
   -8.8000   19.5440  -31.9780 C   0  0  0  0  0  0  0  0  0  0  0  0
   -7.8240   19.6860  -33.0620 N   0  0  0  0  0  0  0  0  0  0  0  0
   -6.7780   20.6650  -32.7230 C   0  0  0  0  0  0  0  0  0  0  0  0
   -5.4550   20.3430  -33.4320 C   0  0  0  0  0  0  0  0  0  0  0  0
   -4.2690   20.7840  -32.6150 C   0  0  0  0  0  0  0  0  0  0  0  0
   -3.1000   19.9850  -32.5700 C   0  0  0  0  0  0  0  0  0  0  0  0
   -1.9820   20.3960  -31.8260 C   0  0  0  0  0  0  0  0  0  0  0  0
   -2.0560   21.6120  -31.1530 C   0  0  0  0  0  0  0  0  0  0  0  0
   -1.1320   22.2340  -30.3460 C   0  0  0  0  0  0  0  0  0  0  0  0
   -1.7370   23.4210  -29.9380 C   0  0  0  0  0  0  0  0  0  0  0  0
   -1.0500   24.4410  -29.1190 C   0  0  0  0  0  0  0  0  0  0  0  0
   -1.6060   25.7420  -28.9480 N   0  0  0  0  0  0  0  0  0  0  0  0
    0.0690   24.1770  -28.6030 O   0  0  0  0  0  0  0  0  0  0  0  0
   -2.9910   23.5250  -30.4650 N   0  0  0  0  0  0  0  0  0  0  0  0
   -3.9680   24.5500  -30.2210 C   0  0  0  0  0  0  0  0  0  0  0  0
   -3.8690   25.6710  -30.7860 O   0  0  0  0  0  0  0  0  0  0  0  0
   -5.0160   24.3240  -29.3380 O   0  0  0  0  0  0  0  0  0  0  0  0
   -3.1700   22.4100  -31.2090 C   0  0  0  0  0  0  0  0  0  0  0  0
   -4.3050   22.0170  -31.9260 C   0  0  0  0  0  0  0  0  0  0  0  0
   -8.2851   19.6189  -31.0089 H   0  0  0  0  0  0  0  0  0  0  0  0
   -9.5531   20.3420  -32.0558 H   0  0  0  0  0  0  0  0  0  0  0  0
   -9.2944   18.5645  -32.0558 H   0  0  0  0  0  0  0  0  0  0  0  0
   -8.3410   20.0490  -33.8970 H   0  0  0  0  0  0  0  0  0  0  0  0
   -7.1132   21.6668  -33.0296 H   0  0  0  0  0  0  0  0  0  0  0  0
   -6.6064   20.6247  -31.6372 H   0  0  0  0  0  0  0  0  0  0  0  0
   -5.3923   19.2571  -33.5957 H   0  0  0  0  0  0  0  0  0  0  0  0
   -5.4355   20.8851  -34.3889 H   0  0  0  0  0  0  0  0  0  0  0  0
   -3.0677   19.0344  -33.1226 H   0  0  0  0  0  0  0  0  0  0  0  0
   -1.0751   19.7755  -31.7767 H   0  0  0  0  0  0  0  0  0  0  0  0
   -0.1283   21.8713  -30.0793 H   0  0  0  0  0  0  0  0  0  0  0  0
   -2.6390   25.8920  -28.9720 H   0  0  0  0  0  0  0  0  0  0  0  0
   -5.2029   22.6519  -31.9527 H   0  0  0  0  0  0  0  0  0  0  0  0
  1  2  1  0
  2  3  1  0
  3  4  1  0
  4  5  1  0
  5  6  2  0
  6  7  1  0
  7  8  2  0
  8  9  1  0
  9 10  2  0
 10 11  1  0
 11 12  1  0
 11 13  2  0
 10 14  1  0
 14 15  1  0
 15 16  2  0
 15 17  1  0
 14 18  1  0
 18 19  2  0
 19  5  1  0
 18  8  1  0
  1 20  1  0
  1 21  1  0
  1 22  1  0
  2 23  1  0
  3 24  1  0
  3 25  1  0
  4 26  1  0
  4 27  1  0
  6 28  1  0
  7 29  1  0
  9 30  1  0
 12 31  1  0
 19 32  1  0
M  CHG  2  12  -1  17  -1
M  END
>  <UniqueID>  (8) 
8

>  <SMILES>  (8) 
CNCCc1ccc2cc(C([NH-])=O)n(C(=O)[O-])c2c1

>  <Energy>  (8) 
68.72195884532604

>  <Genealogy>  (8) 
CNCCc1ccc2cc(C([NH-])=O)n(C(=O)[O-])c2c1 (protonated)
CNCCc1ccc2cc(C([NH-])=O)n(C(=O)[O-])c2c1 (3D coordinates assigned)
CNCCc1ccc2cc(C([NH-])=O)n(C(=O)[O-])c2c1 (optimized conformer: 68.72195884532604 kcal/mol)

>  <smiles>  (8) 
CNCCc1ccc2cc(C(N)=O)n(C(=O)O)c2c1

>  <score_type>  (8) 
oracle

>  <origin>  (8) 
adg

>  <m_score__min__energy>  (8) 
-10.82

>  <m_primary>  (8) 
energy

$$$$
8:0
     RDKit          3D

 36 38  0  0  0  0  0  0  0  0999 V2000
   -1.9590   25.5750  -28.9510 N   0  0  0  0  0  0  0  0  0  0  0  0
   -1.2400   24.3720  -29.2080 C   0  0  0  0  0  0  0  0  0  0  0  0
   -0.1510   24.1640  -28.6070 O   0  0  0  0  0  0  0  0  0  0  0  0
   -1.7800   23.3430  -30.1180 C   0  0  0  0  0  0  0  0  0  0  0  0
   -1.0500   22.2340  -30.5390 C   0  0  0  0  0  0  0  0  0  0  0  0
   -1.9260   21.4810  -31.2860 C   0  0  0  0  0  0  0  0  0  0  0  0
   -1.7290   20.2720  -31.9480 C   0  0  0  0  0  0  0  0  0  0  0  0
   -2.8090   19.7300  -32.6630 C   0  0  0  0  0  0  0  0  0  0  0  0
   -4.0520   20.4080  -32.7190 C   0  0  0  0  0  0  0  0  0  0  0  0
   -5.2090   19.8020  -33.4620 C   0  0  0  0  0  0  0  0  0  0  0  0
   -5.6940   18.5850  -32.7410 C   0  0  0  0  0  0  0  0  0  0  0  0
   -5.0210   17.5210  -32.7920 O   0  0  0  0  0  0  0  0  0  0  0  0
   -6.9200   18.6470  -32.0030 N   0  0  0  0  0  0  0  0  0  0  0  0
   -7.8230   19.7610  -31.9410 C   0  0  0  0  0  0  0  0  0  0  0  0
   -7.4120   20.9310  -31.2960 C   0  0  0  0  0  0  0  0  0  0  0  0
   -8.2790   22.0210  -31.2000 C   0  0  0  0  0  0  0  0  0  0  0  0
   -9.5620   21.9230  -31.7400 C   0  0  0  0  0  0  0  0  0  0  0  0
   -9.9600   20.7700  -32.3400 N   0  0  0  0  0  0  0  0  0  0  0  0
   -9.1330   19.6960  -32.4490 C   0  0  0  0  0  0  0  0  0  0  0  0
   -4.2180   21.6290  -32.0270 C   0  0  0  0  0  0  0  0  0  0  0  0
   -3.1300   22.1360  -31.3060 C   0  0  0  0  0  0  0  0  0  0  0  0
   -3.0570   23.2840  -30.5940 N   0  0  0  0  0  0  0  0  0  0  0  0
   -4.0900   24.2730  -30.4610 C   0  0  0  0  0  0  0  0  0  0  0  0
   -5.2030   23.9670  -29.9580 O   0  0  0  0  0  0  0  0  0  0  0  0
   -3.8810   25.5700  -30.9130 O   0  0  0  0  0  0  0  0  0  0  0  0
   -2.9530   25.6810  -29.2520 H   0  0  0  0  0  0  0  0  0  0  0  0
    0.0041   22.0081  -30.3204 H   0  0  0  0  0  0  0  0  0  0  0  0
   -0.7574   19.7575  -31.9119 H   0  0  0  0  0  0  0  0  0  0  0  0
   -2.6890   18.7692  -33.1850 H   0  0  0  0  0  0  0  0  0  0  0  0
   -6.0252   20.5365  -33.5282 H   0  0  0  0  0  0  0  0  0  0  0  0
   -4.8820   19.5182  -34.4732 H   0  0  0  0  0  0  0  0  0  0  0  0
   -6.4028   20.9931  -30.8629 H   0  0  0  0  0  0  0  0  0  0  0  0
   -7.9542   22.9475  -30.7039 H   0  0  0  0  0  0  0  0  0  0  0  0
  -10.2510   22.7784  -31.6802 H   0  0  0  0  0  0  0  0  0  0  0  0
   -9.4889   18.7755  -32.9349 H   0  0  0  0  0  0  0  0  0  0  0  0
   -5.1770   22.1671  -32.0541 H   0  0  0  0  0  0  0  0  0  0  0  0
  1  2  1  0
  2  3  2  0
  2  4  1  0
  4  5  2  0
  5  6  1  0
  6  7  2  0
  7  8  1  0
  8  9  2  0
  9 10  1  0
 10 11  1  0
 11 12  2  0
 11 13  1  0
 13 14  1  0
 14 15  2  0
 15 16  1  0
 16 17  2  0
 17 18  1  0
 18 19  2  0
  9 20  1  0
 20 21  2  0
 21 22  1  0
 22 23  1  0
 23 24  2  0
 23 25  1  0
 22  4  1  0
 21  6  1  0
 19 14  1  0
  1 26  1  0
  5 27  1  0
  7 28  1  0
  8 29  1  0
 10 30  1  0
 10 31  1  0
 15 32  1  0
 16 33  1  0
 17 34  1  0
 19 35  1  0
 20 36  1  0
M  CHG  3   1  -1  13  -1  25  -1
M  END
>  <UniqueID>  (9) 
9

>  <SMILES>  (9) 
[NH-]C(=O)c1cc2ccc(CC(=O)[N-]c3cccnc3)cc2n1C(=O)[O-]

>  <Energy>  (9) 
80.80685533839511

>  <Genealogy>  (9) 
[NH-]C(=O)c1cc2ccc(CC(=O)[N-]c3cccnc3)cc2n1C(=O)[O-] (protonated)
[NH-]C(=O)c1cc2ccc(CC(=O)[N-]c3cccnc3)cc2n1C(=O)[O-] (3D coordinates assigned)
[NH-]C(=O)c1cc2ccc(CC(=O)[N-]c3cccnc3)cc2n1C(=O)[O-] (optimized conformer: 80.80685533839511 kcal/mol)

>  <smiles>  (9) 
NC(=O)c1cc2ccc(CC(=O)Nc3cccnc3)cc2n1C(=O)O

>  <score_type>  (9) 
oracle

>  <origin>  (9) 
adg

>  <m_score__min__energy>  (9) 
-11.630000000000001

>  <m_primary>  (9) 
energy

$$$$
9:0
     RDKit          3D

 55 57  0  0  0  0  0  0  0  0999 V2000
   -1.3920   22.8890  -28.7130 C   0  0  0  0  0  0  0  0  0  0  0  0
   -2.8620   22.6560  -29.0960 C   0  0  0  0  0  0  0  0  0  0  0  0
   -3.7640   23.3220  -28.0390 C   0  0  0  0  0  0  0  0  0  0  0  0
   -3.1230   21.1380  -29.1530 C   0  0  0  0  0  0  0  0  0  0  0  0
   -3.0610   23.2560  -30.3840 O   0  0  0  0  0  0  0  0  0  0  0  0
   -3.8260   22.7330  -31.4390 C   0  0  0  0  0  0  0  0  0  0  0  0
   -3.2670   22.2340  -32.4530 O   0  0  0  0  0  0  0  0  0  0  0  0
   -5.2620   22.7710  -31.3560 N   0  0  0  0  0  0  0  0  0  0  0  0
   -6.0270   23.7620  -30.8170 C   0  0  0  0  0  0  0  0  0  0  0  0
   -5.5410   25.0750  -30.3540 C   0  0  0  0  0  0  0  0  0  0  0  0
   -4.2000   25.4960  -30.6130 N   0  0  0  0  0  0  0  0  0  0  0  0
   -6.3360   25.8610  -29.7740 O   0  0  0  0  0  0  0  0  0  0  0  0
   -7.3700   23.3970  -30.7980 C   0  0  0  0  0  0  0  0  0  0  0  0
   -7.4130   22.1440  -31.3620 C   0  0  0  0  0  0  0  0  0  0  0  0
   -8.4970   21.2950  -31.5580 C   0  0  0  0  0  0  0  0  0  0  0  0
   -8.2470   20.0250  -32.1020 C   0  0  0  0  0  0  0  0  0  0  0  0
   -6.9290   19.6300  -32.4370 C   0  0  0  0  0  0  0  0  0  0  0  0
   -6.6660   18.2300  -32.9300 C   0  0  0  0  0  0  0  0  0  0  0  0
   -5.5390   18.2210  -33.9630 C   0  0  0  0  0  0  0  0  0  0  0  0
   -4.2880   18.2670  -33.2980 O   0  0  0  0  0  0  0  0  0  0  0  0
   -3.2530   18.6250  -34.1940 C   0  0  0  0  0  0  0  0  0  0  0  0
   -2.2020   19.4460  -33.4900 C   0  0  0  0  0  0  0  0  0  0  0  0
   -2.0220   19.3240  -32.1010 C   0  0  0  0  0  0  0  0  0  0  0  0
   -1.0790   20.1180  -31.4410 C   0  0  0  0  0  0  0  0  0  0  0  0
   -0.3100   21.0380  -32.1610 C   0  0  0  0  0  0  0  0  0  0  0  0
   -0.4840   21.1630  -33.5410 C   0  0  0  0  0  0  0  0  0  0  0  0
   -1.4280   20.3750  -34.2060 C   0  0  0  0  0  0  0  0  0  0  0  0
   -5.8510   20.5170  -32.2170 C   0  0  0  0  0  0  0  0  0  0  0  0
   -6.1290   21.7850  -31.6890 C   0  0  0  0  0  0  0  0  0  0  0  0
   -1.2966   22.9041  -27.6173 H   0  0  0  0  0  0  0  0  0  0  0  0
   -0.7730   22.0777  -29.1238 H   0  0  0  0  0  0  0  0  0  0  0  0
   -1.0542   23.8519  -29.1238 H   0  0  0  0  0  0  0  0  0  0  0  0
   -3.4063   23.0579  -27.0329 H   0  0  0  0  0  0  0  0  0  0  0  0
   -3.7313   24.4143  -28.1648 H   0  0  0  0  0  0  0  0  0  0  0  0
   -4.7983   22.9692  -28.1648 H   0  0  0  0  0  0  0  0  0  0  0  0
   -3.1916   20.7391  -28.1302 H   0  0  0  0  0  0  0  0  0  0  0  0
   -4.0670   20.9480  -29.6848 H   0  0  0  0  0  0  0  0  0  0  0  0
   -2.2967   20.6436  -29.6848 H   0  0  0  0  0  0  0  0  0  0  0  0
   -3.5660   24.9250  -31.2150 H   0  0  0  0  0  0  0  0  0  0  0  0
   -3.8630   26.4200  -30.2640 H   0  0  0  0  0  0  0  0  0  0  0  0
   -8.2162   23.9854  -30.4138 H   0  0  0  0  0  0  0  0  0  0  0  0
   -9.5180   21.6086  -31.2951 H   0  0  0  0  0  0  0  0  0  0  0  0
   -9.0831   19.3301  -32.2696 H   0  0  0  0  0  0  0  0  0  0  0  0
   -6.3796   17.5956  -32.0783 H   0  0  0  0  0  0  0  0  0  0  0  0
   -7.5813   17.8451  -33.4034 H   0  0  0  0  0  0  0  0  0  0  0  0
   -5.6007   17.3024  -34.5649 H   0  0  0  0  0  0  0  0  0  0  0  0
   -5.6372   19.0975  -34.6204 H   0  0  0  0  0  0  0  0  0  0  0  0
   -2.7896   17.7114  -34.5947 H   0  0  0  0  0  0  0  0  0  0  0  0
   -3.6824   19.2236  -35.0109 H   0  0  0  0  0  0  0  0  0  0  0  0
   -2.6250   18.6015  -31.5315 H   0  0  0  0  0  0  0  0  0  0  0  0
   -0.9418   20.0189  -30.3541 H   0  0  0  0  0  0  0  0  0  0  0  0
    0.4312   21.6625  -31.6408 H   0  0  0  0  0  0  0  0  0  0  0  0
    0.1240   21.8842  -34.1068 H   0  0  0  0  0  0  0  0  0  0  0  0
   -1.5652   20.4824  -35.2921 H   0  0  0  0  0  0  0  0  0  0  0  0
   -4.8190   20.2194  -32.4544 H   0  0  0  0  0  0  0  0  0  0  0  0
  1  2  1  0
  2  3  1  0
  2  4  1  0
  2  5  1  0
  5  6  1  0
  6  7  2  0
  6  8  1  0
  8  9  1  0
  9 10  1  0
 10 11  1  0
 10 12  2  0
  9 13  2  0
 13 14  1  0
 14 15  2  0
 15 16  1  0
 16 17  2  0
 17 18  1  0
 18 19  1  0
 19 20  1  0
 20 21  1  0
 21 22  1  0
 22 23  2  0
 23 24  1  0
 24 25  2  0
 25 26  1  0
 26 27  2  0
 17 28  1  0
 28 29  2  0
 29  8  1  0
 29 14  1  0
 27 22  1  0
  1 30  1  0
  1 31  1  0
  1 32  1  0
  3 33  1  0
  3 34  1  0
  3 35  1  0
  4 36  1  0
  4 37  1  0
  4 38  1  0
 11 39  1  0
 11 40  1  0
 13 41  1  0
 15 42  1  0
 16 43  1  0
 18 44  1  0
 18 45  1  0
 19 46  1  0
 19 47  1  0
 21 48  1  0
 21 49  1  0
 23 50  1  0
 24 51  1  0
 25 52  1  0
 26 53  1  0
 27 54  1  0
 28 55  1  0
M  END
>  <UniqueID>  (10) 
10

>  <SMILES>  (10) 
CC(C)(C)OC(=O)n1c(C(N)=O)cc2ccc(CCOCc3ccccc3)cc21

>  <Energy>  (10) 
83.66120060330773

>  <Genealogy>  (10) 
CC(C)(C)OC(=O)n1c(C(N)=O)cc2ccc(CCOCc3ccccc3)cc21 (3D coordinates assigned)
CC(C)(C)OC(=O)n1c(C(N)=O)cc2ccc(CCOCc3ccccc3)cc21 (optimized conformer: 83.66120060330773 kcal/mol)

>  <smiles>  (10) 
CC(C)(C)OC(=O)n1c(C(N)=O)cc2ccc(CCOCc3ccccc3)cc21

>  <score_type>  (10) 
oracle

>  <origin>  (10) 
adg

>  <m_score__min__energy>  (10) 
-9.5800000000000001

>  <m_primary>  (10) 
energy

$$$$
10:0
     RDKit          3D

 36 38  0  0  0  0  0  0  0  0999 V2000
   -1.9710   25.5760  -28.9740 N   0  0  0  0  0  0  0  0  0  0  0  0
   -1.2560   24.3730  -29.2430 C   0  0  0  0  0  0  0  0  0  0  0  0
   -0.0870   24.2370  -28.7940 O   0  0  0  0  0  0  0  0  0  0  0  0
   -1.8440   23.3120  -30.0850 C   0  0  0  0  0  0  0  0  0  0  0  0
   -1.1620   22.1490  -30.4390 C   0  0  0  0  0  0  0  0  0  0  0  0
   -2.0040   21.4770  -31.2930 C   0  0  0  0  0  0  0  0  0  0  0  0
   -1.8320   20.2590  -31.9450 C   0  0  0  0  0  0  0  0  0  0  0  0
   -2.8820   19.7910  -32.7520 C   0  0  0  0  0  0  0  0  0  0  0  0
   -4.0800   20.5360  -32.8820 C   0  0  0  0  0  0  0  0  0  0  0  0
   -5.1830   20.0310  -33.7730 C   0  0  0  0  0  0  0  0  0  0  0  0
   -6.3950   19.7860  -32.9840 N   0  0  0  0  0  0  0  0  0  0  0  0
   -7.0840   20.8440  -32.5420 N   0  0  0  0  0  0  0  0  0  0  0  0
   -8.2000   20.7160  -31.7760 C   0  0  0  0  0  0  0  0  0  0  0  0
   -8.9370   21.9340  -31.3050 C   0  0  0  0  0  0  0  0  0  0  0  0
   -9.7170   21.6110  -30.2080 F   0  0  0  0  0  0  0  0  0  0  0  0
   -8.0310   22.9150  -30.9450 F   0  0  0  0  0  0  0  0  0  0  0  0
   -9.7550   22.4250  -32.3070 F   0  0  0  0  0  0  0  0  0  0  0  0
   -8.6430   19.4370  -31.4300 C   0  0  0  0  0  0  0  0  0  0  0  0
   -7.9310   18.3280  -31.8750 C   0  0  0  0  0  0  0  0  0  0  0  0
   -6.7910   18.5160  -32.6580 C   0  0  0  0  0  0  0  0  0  0  0  0
   -6.1400   17.5110  -33.0540 O   0  0  0  0  0  0  0  0  0  0  0  0
   -4.2160   21.7720  -32.2120 C   0  0  0  0  0  0  0  0  0  0  0  0
   -3.1470   22.2230  -31.4300 C   0  0  0  0  0  0  0  0  0  0  0  0
   -3.0660   23.3530  -30.6910 N   0  0  0  0  0  0  0  0  0  0  0  0
   -4.1020   24.3330  -30.5130 C   0  0  0  0  0  0  0  0  0  0  0  0
   -5.2070   24.0040  -30.0100 O   0  0  0  0  0  0  0  0  0  0  0  0
   -3.8820   25.6580  -30.8680 O   0  0  0  0  0  0  0  0  0  0  0  0
   -2.9750   25.6760  -29.2420 H   0  0  0  0  0  0  0  0  0  0  0  0
   -0.1618   21.8353  -30.1056 H   0  0  0  0  0  0  0  0  0  0  0  0
   -0.9028   19.6812  -31.8317 H   0  0  0  0  0  0  0  0  0  0  0  0
   -2.7731   18.8368  -33.2883 H   0  0  0  0  0  0  0  0  0  0  0  0
   -5.3983   20.7823  -34.5471 H   0  0  0  0  0  0  0  0  0  0  0  0
   -4.8633   19.0898  -34.2441 H   0  0  0  0  0  0  0  0  0  0  0  0
   -9.5444   19.3085  -30.8128 H   0  0  0  0  0  0  0  0  0  0  0  0
   -8.2632   17.3128  -31.6124 H   0  0  0  0  0  0  0  0  0  0  0  0
   -5.1383   22.3646  -32.3027 H   0  0  0  0  0  0  0  0  0  0  0  0
  1  2  1  0
  2  3  2  0
  2  4  1  0
  4  5  2  0
  5  6  1  0
  6  7  2  0
  7  8  1  0
  8  9  2  0
  9 10  1  0
 10 11  1  0
 11 12  1  0
 12 13  2  0
 13 14  1  0
 14 15  1  0
 14 16  1  0
 14 17  1  0
 13 18  1  0
 18 19  2  0
 19 20  1  0
 20 21  2  0
  9 22  1  0
 22 23  2  0
 23 24  1  0
 24 25  1  0
 25 26  2  0
 25 27  1  0
 24  4  1  0
 23  6  1  0
 20 11  1  0
  1 28  1  0
  5 29  1  0
  7 30  1  0
  8 31  1  0
 10 32  1  0
 10 33  1  0
 18 34  1  0
 19 35  1  0
 22 36  1  0
M  CHG  2   1  -1  27  -1
M  END
>  <UniqueID>  (11) 
11

>  <SMILES>  (11) 
[NH-]C(=O)c1cc2ccc(Cn3nc(C(F)(F)F)ccc3=O)cc2n1C(=O)[O-]

>  <Energy>  (11) 
78.66956796021022

>  <Genealogy>  (11) 
[NH-]C(=O)c1cc2ccc(Cn3nc(C(F)(F)F)ccc3=O)cc2n1C(=O)[O-] (protonated)
[NH-]C(=O)c1cc2ccc(Cn3nc(C(F)(F)F)ccc3=O)cc2n1C(=O)[O-] (3D coordinates assigned)
[NH-]C(=O)c1cc2ccc(Cn3nc(C(F)(F)F)ccc3=O)cc2n1C(=O)[O-] (optimized conformer: 78.66956796021022 kcal/mol)

>  <smiles>  (11) 
NC(=O)c1cc2ccc(Cn3nc(C(F)(F)F)ccc3=O)cc2n1C(=O)O

>  <score_type>  (11) 
oracle

>  <origin>  (11) 
adg

>  <m_score__min__energy>  (11) 
-12.32

>  <m_primary>  (11) 
energy

$$$$
11:0
     RDKit          3D

 47 48  0  0  0  0  0  0  0  0999 V2000
   -1.9240   25.7210  -26.4110 C   0  0  0  0  0  0  0  0  0  0  0  0
   -1.2380   26.4080  -27.5810 C   0  0  0  0  0  0  0  0  0  0  0  0
   -1.2260   25.5590  -28.7270 O   0  0  0  0  0  0  0  0  0  0  0  0
   -0.4550   24.3920  -28.8090 C   0  0  0  0  0  0  0  0  0  0  0  0
    0.6960   24.3560  -28.2940 O   0  0  0  0  0  0  0  0  0  0  0  0
   -0.9880   23.1910  -29.5170 C   0  0  0  0  0  0  0  0  0  0  0  0
   -2.5280   22.6180  -28.7960 S   0  0  0  0  0  0  0  0  0  0  0  0
   -3.3290   23.7940  -28.3190 O   0  0  0  0  0  0  0  0  0  0  0  0
   -2.1760   21.7690  -27.6030 O   0  0  0  0  0  0  0  0  0  0  0  0
   -3.5160   21.6130  -29.9190 C   0  0  0  0  0  0  0  0  0  0  0  0
   -4.1250   22.4180  -31.0400 C   0  0  0  0  0  0  0  0  0  0  0  0
   -3.3720   22.8660  -31.9550 O   0  0  0  0  0  0  0  0  0  0  0  0
   -5.5110   22.8280  -31.0140 N   0  0  0  0  0  0  0  0  0  0  0  0
   -5.9820   24.1030  -30.8690 C   0  0  0  0  0  0  0  0  0  0  0  0
   -5.1860   25.2940  -30.5270 C   0  0  0  0  0  0  0  0  0  0  0  0
   -3.7620   25.2840  -30.6010 N   0  0  0  0  0  0  0  0  0  0  0  0
   -5.7870   26.3360  -30.1180 O   0  0  0  0  0  0  0  0  0  0  0  0
   -7.3600   24.1490  -31.0650 C   0  0  0  0  0  0  0  0  0  0  0  0
   -7.7310   22.8620  -31.3490 C   0  0  0  0  0  0  0  0  0  0  0  0
   -8.9820   22.3540  -31.6750 C   0  0  0  0  0  0  0  0  0  0  0  0
   -9.0790   20.9860  -31.9770 C   0  0  0  0  0  0  0  0  0  0  0  0
   -7.9280   20.1640  -31.9570 C   0  0  0  0  0  0  0  0  0  0  0  0
   -8.0350   18.7000  -32.3000 C   0  0  0  0  0  0  0  0  0  0  0  0
   -6.8010   18.2230  -33.0230 C   0  0  0  0  0  0  0  0  0  0  0  0
   -5.9420   17.1370  -32.4540 C   0  0  0  0  0  0  0  0  0  0  0  0
   -6.4750   18.7490  -34.0790 O   0  0  0  0  0  0  0  0  0  0  0  0
   -6.6710   20.7230  -31.6400 C   0  0  0  0  0  0  0  0  0  0  0  0
   -6.6000   22.0790  -31.3130 C   0  0  0  0  0  0  0  0  0  0  0  0
   -1.5255   26.1201  -25.4666 H   0  0  0  0  0  0  0  0  0  0  0  0
   -3.0070   25.9076  -26.4600 H   0  0  0  0  0  0  0  0  0  0  0  0
   -1.7359   24.6383  -26.4600 H   0  0  0  0  0  0  0  0  0  0  0  0
   -1.7791   27.3345  -27.8235 H   0  0  0  0  0  0  0  0  0  0  0  0
   -0.1996   26.6356  -27.2983 H   0  0  0  0  0  0  0  0  0  0  0  0
   -1.1634   23.4487  -30.5719 H   0  0  0  0  0  0  0  0  0  0  0  0
   -0.2468   22.3836  -29.4241 H   0  0  0  0  0  0  0  0  0  0  0  0
   -2.8713   20.8353  -30.3545 H   0  0  0  0  0  0  0  0  0  0  0  0
   -4.3416   21.1787  -29.3361 H   0  0  0  0  0  0  0  0  0  0  0  0
   -3.2200   24.4080  -30.4170 H   0  0  0  0  0  0  0  0  0  0  0  0
   -8.0125   25.0325  -31.0045 H   0  0  0  0  0  0  0  0  0  0  0  0
   -9.8696   23.0034  -31.6960 H   0  0  0  0  0  0  0  0  0  0  0  0
  -10.0568   20.5507  -32.2309 H   0  0  0  0  0  0  0  0  0  0  0  0
   -8.1548   18.1210  -31.3724 H   0  0  0  0  0  0  0  0  0  0  0  0
   -8.9044   18.5569  -32.9586 H   0  0  0  0  0  0  0  0  0  0  0  0
   -5.9761   17.1802  -31.3554 H   0  0  0  0  0  0  0  0  0  0  0  0
   -6.3138   16.1592  -32.7943 H   0  0  0  0  0  0  0  0  0  0  0  0
   -4.9049   17.2736  -32.7943 H   0  0  0  0  0  0  0  0  0  0  0  0
   -5.7634   20.1015  -31.6504 H   0  0  0  0  0  0  0  0  0  0  0  0
  1  2  1  0
  2  3  1  0
  3  4  1  0
  4  5  2  0
  4  6  1  0
  6  7  1  0
  7  8  2  0
  7  9  2  0
  7 10  1  0
 10 11  1  0
 11 12  2  0
 11 13  1  0
 13 14  1  0
 14 15  1  0
 15 16  1  0
 15 17  2  0
 14 18  2  0
 18 19  1  0
 19 20  2  0
 20 21  1  0
 21 22  2  0
 22 23  1  0
 23 24  1  0
 24 25  1  0
 24 26  2  0
 22 27  1  0
 27 28  2  0
 28 13  1  0
 28 19  1  0
  1 29  1  0
  1 30  1  0
  1 31  1  0
  2 32  1  0
  2 33  1  0
  6 34  1  0
  6 35  1  0
 10 36  1  0
 10 37  1  0
 16 38  1  0
 18 39  1  0
 20 40  1  0
 21 41  1  0
 23 42  1  0
 23 43  1  0
 25 44  1  0
 25 45  1  0
 25 46  1  0
 27 47  1  0
M  CHG  1  16  -1
M  END
>  <UniqueID>  (12) 
12

>  <SMILES>  (12) 
CCOC(=O)CS(=O)(=O)CC(=O)n1c(C([NH-])=O)cc2ccc(CC(C)=O)cc21

>  <Energy>  (12) 
70.42673418663611

>  <Genealogy>  (12) 
CCOC(=O)CS(=O)(=O)CC(=O)n1c(C([NH-])=O)cc2ccc(CC(C)=O)cc21 (protonated)
CCOC(=O)CS(=O)(=O)CC(=O)n1c(C([NH-])=O)cc2ccc(CC(C)=O)cc21 (3D coordinates assigned)
CCOC(=O)CS(=O)(=O)CC(=O)n1c(C([NH-])=O)cc2ccc(CC(C)=O)cc21 (optimized conformer: 70.42673418663611 kcal/mol)

>  <smiles>  (12) 
CCOC(=O)CS(=O)(=O)CC(=O)n1c(C(N)=O)cc2ccc(CC(C)=O)cc21

>  <score_type>  (12) 
oracle

>  <origin>  (12) 
adg

>  <m_score__min__energy>  (12) 
-11.34

>  <m_primary>  (12) 
energy

$$$$
12:0
     RDKit          3D

 37 38  0  0  0  0  0  0  0  0999 V2000
   -3.9110   25.6730  -30.8410 N   0  0  0  0  0  0  0  0  0  0  0  0
   -5.2650   25.2850  -30.6190 C   0  0  0  0  0  0  0  0  0  0  0  0
   -6.0670   26.1100  -30.1080 O   0  0  0  0  0  0  0  0  0  0  0  0
   -5.7220   23.9410  -31.0320 C   0  0  0  0  0  0  0  0  0  0  0  0
   -7.0270   23.6650  -31.4340 C   0  0  0  0  0  0  0  0  0  0  0  0
   -7.0640   22.3070  -31.6440 C   0  0  0  0  0  0  0  0  0  0  0  0
   -8.1120   21.4960  -32.0720 C   0  0  0  0  0  0  0  0  0  0  0  0
   -7.8590   20.1240  -32.2350 C   0  0  0  0  0  0  0  0  0  0  0  0
   -6.5740   19.5910  -31.9680 C   0  0  0  0  0  0  0  0  0  0  0  0
   -6.3030   18.1270  -32.1920 C   0  0  0  0  0  0  0  0  0  0  0  0
   -6.5600   17.7510  -33.6540 C   0  0  0  0  0  0  0  0  0  0  0  0
   -5.4180   18.1870  -34.5150 C   0  0  0  0  0  0  0  0  0  0  0  0
   -5.3520   17.8140  -35.7160 O   0  0  0  0  0  0  0  0  0  0  0  0
   -4.3990   18.9650  -33.9800 O   0  0  0  0  0  0  0  0  0  0  0  0
   -5.5310   20.4460  -31.5490 C   0  0  0  0  0  0  0  0  0  0  0  0
   -5.8160   21.8060  -31.3770 C   0  0  0  0  0  0  0  0  0  0  0  0
   -4.9790   22.7990  -31.0010 N   0  0  0  0  0  0  0  0  0  0  0  0
   -3.5760   22.6690  -30.7160 C   0  0  0  0  0  0  0  0  0  0  0  0
   -2.7290   22.8510  -31.6320 O   0  0  0  0  0  0  0  0  0  0  0  0
   -3.1560   22.3770  -29.4120 O   0  0  0  0  0  0  0  0  0  0  0  0
   -3.3920   23.2300  -28.2930 C   0  0  0  0  0  0  0  0  0  0  0  0
   -2.2610   24.2440  -28.1260 C   0  0  0  0  0  0  0  0  0  0  0  0
   -1.9750   24.8780  -29.3430 O   0  0  0  0  0  0  0  0  0  0  0  0
   -3.1680   24.9580  -31.0000 H   0  0  0  0  0  0  0  0  0  0  0  0
   -7.8525   24.3815  -31.5572 H   0  0  0  0  0  0  0  0  0  0  0  0
   -9.1075   21.9170  -32.2762 H   0  0  0  0  0  0  0  0  0  0  0  0
   -8.6661   19.4574  -32.5731 H   0  0  0  0  0  0  0  0  0  0  0  0
   -5.2539   17.9107  -31.9418 H   0  0  0  0  0  0  0  0  0  0  0  0
   -6.9753   17.5387  -31.5502 H   0  0  0  0  0  0  0  0  0  0  0  0
   -6.6764   16.6600  -33.7322 H   0  0  0  0  0  0  0  0  0  0  0  0
   -7.4760   18.2554  -33.9955 H   0  0  0  0  0  0  0  0  0  0  0  0
   -4.5205   20.0535  -31.3625 H   0  0  0  0  0  0  0  0  0  0  0  0
   -4.3384   23.7694  -28.4457 H   0  0  0  0  0  0  0  0  0  0  0  0
   -3.4423   22.6102  -27.3857 H   0  0  0  0  0  0  0  0  0  0  0  0
   -2.5622   25.0013  -27.3873 H   0  0  0  0  0  0  0  0  0  0  0  0
   -1.3598   23.7130  -27.7856 H   0  0  0  0  0  0  0  0  0  0  0  0
   -2.3990   24.3350  -30.0570 H   0  0  0  0  0  0  0  0  0  0  0  0
  1  2  1  0
  2  3  2  0
  2  4  1  0
  4  5  2  0
  5  6  1  0
  6  7  2  0
  7  8  1  0
  8  9  2  0
  9 10  1  0
 10 11  1  0
 11 12  1  0
 12 13  2  0
 12 14  1  0
  9 15  1  0
 15 16  2  0
 16 17  1  0
 17 18  1  0
 18 19  2  0
 18 20  1  0
 20 21  1  0
 21 22  1  0
 22 23  1  0
 17  4  1  0
 16  6  1  0
  1 24  1  0
  5 25  1  0
  7 26  1  0
  8 27  1  0
 10 28  1  0
 10 29  1  0
 11 30  1  0
 11 31  1  0
 15 32  1  0
 21 33  1  0
 21 34  1  0
 22 35  1  0
 22 36  1  0
 23 37  1  0
M  CHG  2   1  -1  14  -1
M  END
>  <UniqueID>  (13) 
13

>  <SMILES>  (13) 
[NH-]C(=O)c1cc2ccc(CCC(=O)[O-])cc2n1C(=O)OCCO

>  <Energy>  (13) 
69.01666019599975

>  <Genealogy>  (13) 
[NH-]C(=O)c1cc2ccc(CCC(=O)[O-])cc2n1C(=O)OCCO (protonated)
[NH-]C(=O)c1cc2ccc(CCC(=O)[O-])cc2n1C(=O)OCCO (3D coordinates assigned)
[NH-]C(=O)c1cc2ccc(CCC(=O)[O-])cc2n1C(=O)OCCO (optimized conformer: 69.01666019599975 kcal/mol)

>  <smiles>  (13) 
NC(=O)c1cc2ccc(CCC(=O)O)cc2n1C(=O)OCCO

>  <score_type>  (13) 
oracle

>  <origin>  (13) 
adg

>  <m_score__min__energy>  (13) 
-10.119999999999999

>  <m_primary>  (13) 
energy

$$$$
13:0
     RDKit          3D

 46 48  0  0  0  0  0  0  0  0999 V2000
   -3.5060   24.9420  -30.4780 N   0  0  0  0  0  0  0  0  0  0  0  0
   -4.9020   25.0850  -30.7280 C   0  0  0  0  0  0  0  0  0  0  0  0
   -5.4140   26.2350  -30.7300 O   0  0  0  0  0  0  0  0  0  0  0  0
   -5.7380   23.8840  -30.9380 C   0  0  0  0  0  0  0  0  0  0  0  0
   -7.0460   23.7690  -30.4730 C   0  0  0  0  0  0  0  0  0  0  0  0
   -7.4950   22.5550  -30.9420 C   0  0  0  0  0  0  0  0  0  0  0  0
   -8.7240   21.9250  -30.7650 C   0  0  0  0  0  0  0  0  0  0  0  0
   -8.9010   20.6550  -31.3370 C   0  0  0  0  0  0  0  0  0  0  0  0
   -7.8530   20.0380  -32.0650 C   0  0  0  0  0  0  0  0  0  0  0  0
   -8.0390   18.6710  -32.6590 C   0  0  0  0  0  0  0  0  0  0  0  0
   -6.8070   18.0820  -32.8730 F   0  0  0  0  0  0  0  0  0  0  0  0
   -8.7770   17.8850  -31.7920 F   0  0  0  0  0  0  0  0  0  0  0  0
   -6.6180   20.7070  -32.2220 C   0  0  0  0  0  0  0  0  0  0  0  0
   -6.4760   21.9790  -31.6560 C   0  0  0  0  0  0  0  0  0  0  0  0
   -5.3890   22.7830  -31.6620 N   0  0  0  0  0  0  0  0  0  0  0  0
   -4.1080   22.4810  -32.2390 C   0  0  0  0  0  0  0  0  0  0  0  0
   -4.0430   21.9720  -33.3900 O   0  0  0  0  0  0  0  0  0  0  0  0
   -2.9410   22.7350  -31.5100 O   0  0  0  0  0  0  0  0  0  0  0  0
   -1.9470   21.7460  -31.2510 C   0  0  0  0  0  0  0  0  0  0  0  0
   -1.8360   21.4800  -29.7440 C   0  0  0  0  0  0  0  0  0  0  0  0
   -1.8030   22.7400  -28.9690 N   0  0  0  0  0  0  0  0  0  0  0  0
   -0.4460   22.9890  -28.4060 C   0  0  0  0  0  0  0  0  0  0  0  0
   -0.4000   24.0380  -27.2720 C   0  0  0  0  0  0  0  0  0  0  0  0
   -1.7730   25.1670  -27.3640 S   0  0  0  0  0  0  0  0  0  0  0  0
   -1.6010   26.0850  -28.5410 O   0  0  0  0  0  0  0  0  0  0  0  0
   -1.8640   25.9740  -26.1000 O   0  0  0  0  0  0  0  0  0  0  0  0
   -3.2370   24.1740  -27.5700 C   0  0  0  0  0  0  0  0  0  0  0  0
   -2.8500   22.7370  -27.9240 C   0  0  0  0  0  0  0  0  0  0  0  0
   -3.1430   24.1570  -29.8920 H   0  0  0  0  0  0  0  0  0  0  0  0
   -7.6022   24.4943  -29.8609 H   0  0  0  0  0  0  0  0  0  0  0  0
   -9.5314   22.4074  -30.1946 H   0  0  0  0  0  0  0  0  0  0  0  0
   -9.8624   20.1338  -31.2190 H   0  0  0  0  0  0  0  0  0  0  0  0
   -8.5712   18.7640  -33.6172 H   0  0  0  0  0  0  0  0  0  0  0  0
   -5.7897   20.2399  -32.7749 H   0  0  0  0  0  0  0  0  0  0  0  0
   -2.2220   20.8128  -31.7643 H   0  0  0  0  0  0  0  0  0  0  0  0
   -0.9772   22.1098  -31.6212 H   0  0  0  0  0  0  0  0  0  0  0  0
   -2.7035   20.8854  -29.4217 H   0  0  0  0  0  0  0  0  0  0  0  0
   -0.8970   20.9377  -29.5588 H   0  0  0  0  0  0  0  0  0  0  0  0
   -0.0599   22.0384  -28.0094 H   0  0  0  0  0  0  0  0  0  0  0  0
    0.1622   23.3936  -29.2284 H   0  0  0  0  0  0  0  0  0  0  0  0
   -0.4306   23.5175  -26.3034 H   0  0  0  0  0  0  0  0  0  0  0  0
    0.5287   24.6178  -27.3785 H   0  0  0  0  0  0  0  0  0  0  0  0
   -3.8129   24.1756  -26.6328 H   0  0  0  0  0  0  0  0  0  0  0  0
   -3.8464   24.5943  -28.3836 H   0  0  0  0  0  0  0  0  0  0  0  0
   -2.4671   22.2306  -27.0257 H   0  0  0  0  0  0  0  0  0  0  0  0
   -3.7364   22.2059  -28.3012 H   0  0  0  0  0  0  0  0  0  0  0  0
  1  2  1  0
  2  3  2  0
  2  4  1  0
  4  5  2  0
  5  6  1  0
  6  7  2  0
  7  8  1  0
  8  9  2  0
  9 10  1  0
 10 11  1  0
 10 12  1  0
  9 13  1  0
 13 14  2  0
 14 15  1  0
 15 16  1  0
 16 17  2  0
 16 18  1  0
 18 19  1  0
 19 20  1  0
 20 21  1  0
 21 22  1  0
 22 23  1  0
 23 24  1  0
 24 25  2  0
 24 26  2  0
 24 27  1  0
 27 28  1  0
 15  4  1  0
 28 21  1  0
 14  6  1  0
  1 29  1  0
  5 30  1  0
  7 31  1  0
  8 32  1  0
 10 33  1  0
 13 34  1  0
 19 35  1  0
 19 36  1  0
 20 37  1  0
 20 38  1  0
 22 39  1  0
 22 40  1  0
 23 41  1  0
 23 42  1  0
 27 43  1  0
 27 44  1  0
 28 45  1  0
 28 46  1  0
M  CHG  1   1  -1
M  END
>  <UniqueID>  (14) 
14

>  <SMILES>  (14) 
[NH-]C(=O)c1cc2ccc(C(F)F)cc2n1C(=O)OCCN1CCS(=O)(=O)CC1

>  <Energy>  (14) 
85.49808592947791

>  <Genealogy>  (14) 
[NH-]C(=O)c1cc2ccc(C(F)F)cc2n1C(=O)OCCN1CCS(=O)(=O)CC1 (protonated)
[NH-]C(=O)c1cc2ccc(C(F)F)cc2n1C(=O)OCCN1CCS(=O)(=O)CC1 (3D coordinates assigned)
[NH-]C(=O)c1cc2ccc(C(F)F)cc2n1C(=O)OCCN1CCS(=O)(=O)CC1 (nonaromatic ring conformer: 85.49808592947791 kcal/mol)

>  <smiles>  (14) 
NC(=O)c1cc2ccc(C(F)F)cc2n1C(=O)OCCN1CCS(=O)(=O)CC1

>  <score_type>  (14) 
oracle

>  <origin>  (14) 
adg

>  <m_score__min__energy>  (14) 
-10.92

>  <m_primary>  (14) 
energy

$$$$
14:0
     RDKit          3D

 51 52  0  0  0  0  0  0  0  0999 V2000
   -0.8650   26.5350  -27.6630 C   0  0  0  0  0  0  0  0  0  0  0  0
   -1.0740   26.0290  -28.9640 O   0  0  0  0  0  0  0  0  0  0  0  0
   -0.8850   24.6260  -28.9890 C   0  0  0  0  0  0  0  0  0  0  0  0
   -2.2220   23.9270  -29.2240 C   0  0  0  0  0  0  0  0  0  0  0  0
   -3.3030   24.9080  -29.2250 N   0  0  0  0  0  0  0  0  0  0  0  0
   -4.4250   24.8760  -30.1140 C   0  0  0  0  0  0  0  0  0  0  0  0
   -4.3340   25.4810  -31.2140 O   0  0  0  0  0  0  0  0  0  0  0  0
   -5.6650   24.0770  -29.7820 C   0  0  0  0  0  0  0  0  0  0  0  0
   -6.7680   24.1620  -30.8520 C   0  0  0  0  0  0  0  0  0  0  0  0
   -7.1930   22.8040  -31.3550 C   0  0  0  0  0  0  0  0  0  0  0  0
   -8.5390   22.3810  -31.2100 C   0  0  0  0  0  0  0  0  0  0  0  0
   -8.9420   21.1100  -31.6510 C   0  0  0  0  0  0  0  0  0  0  0  0
   -7.9840   20.2900  -32.2390 C   0  0  0  0  0  0  0  0  0  0  0  0
   -8.0850   18.9970  -32.7070 C   0  0  0  0  0  0  0  0  0  0  0  0
   -6.8050   18.6660  -33.1490 C   0  0  0  0  0  0  0  0  0  0  0  0
   -6.4560   17.3600  -33.7450 C   0  0  0  0  0  0  0  0  0  0  0  0
   -5.6040   17.2670  -34.8880 N   0  0  0  0  0  0  0  0  0  0  0  0
   -6.9450   16.3070  -33.2570 O   0  0  0  0  0  0  0  0  0  0  0  0
   -5.9510   19.7080  -32.9600 N   0  0  0  0  0  0  0  0  0  0  0  0
   -4.5280   19.7270  -33.1370 C   0  0  0  0  0  0  0  0  0  0  0  0
   -4.0290   19.3170  -34.2200 O   0  0  0  0  0  0  0  0  0  0  0  0
   -3.6430   20.3540  -32.1040 C   0  0  0  0  0  0  0  0  0  0  0  0
   -2.9240   21.5650  -32.6970 C   0  0  0  0  0  0  0  0  0  0  0  0
   -2.1050   22.1530  -31.7070 O   0  0  0  0  0  0  0  0  0  0  0  0
   -1.2930   21.1570  -31.1240 C   0  0  0  0  0  0  0  0  0  0  0  0
   -6.6860   20.6920  -32.4040 C   0  0  0  0  0  0  0  0  0  0  0  0
   -6.2510   21.9460  -31.9640 C   0  0  0  0  0  0  0  0  0  0  0  0
   -1.1756   25.7829  -26.9228 H   0  0  0  0  0  0  0  0  0  0  0  0
    0.2019   26.7653  -27.5262 H   0  0  0  0  0  0  0  0  0  0  0  0
   -1.4584   27.4511  -27.5262 H   0  0  0  0  0  0  0  0  0  0  0  0
   -0.1895   24.3658  -29.8005 H   0  0  0  0  0  0  0  0  0  0  0  0
   -0.4692   24.2988  -28.0246 H   0  0  0  0  0  0  0  0  0  0  0  0
   -2.1976   23.4104  -30.1948 H   0  0  0  0  0  0  0  0  0  0  0  0
   -2.3957   23.1981  -28.4187 H   0  0  0  0  0  0  0  0  0  0  0  0
   -5.3761   23.0220  -29.6657 H   0  0  0  0  0  0  0  0  0  0  0  0
   -6.0826   24.5053  -28.8589 H   0  0  0  0  0  0  0  0  0  0  0  0
   -7.6432   24.6665  -30.4167 H   0  0  0  0  0  0  0  0  0  0  0  0
   -6.3611   24.7221  -31.7068 H   0  0  0  0  0  0  0  0  0  0  0  0
   -9.2747   23.0553  -30.7474 H   0  0  0  0  0  0  0  0  0  0  0  0
   -9.9827   20.7732  -31.5351 H   0  0  0  0  0  0  0  0  0  0  0  0
   -8.9833   18.3625  -32.7273 H   0  0  0  0  0  0  0  0  0  0  0  0
   -5.3150   16.3300  -35.2490 H   0  0  0  0  0  0  0  0  0  0  0  0
   -5.3360   18.1140  -35.4350 H   0  0  0  0  0  0  0  0  0  0  0  0
   -4.2540   20.6763  -31.2480 H   0  0  0  0  0  0  0  0  0  0  0  0
   -2.8963   19.6172  -31.7730 H   0  0  0  0  0  0  0  0  0  0  0  0
   -2.3018   21.2438  -33.5454 H   0  0  0  0  0  0  0  0  0  0  0  0
   -3.6652   22.2992  -33.0457 H   0  0  0  0  0  0  0  0  0  0  0  0
   -1.3528   21.2303  -30.0281 H   0  0  0  0  0  0  0  0  0  0  0  0
   -1.6428   20.1646  -31.4447 H   0  0  0  0  0  0  0  0  0  0  0  0
   -0.2505   21.2997  -31.4447 H   0  0  0  0  0  0  0  0  0  0  0  0
   -5.2030   22.2559  -32.0889 H   0  0  0  0  0  0  0  0  0  0  0  0
  1  2  1  0
  2  3  1  0
  3  4  1  0
  4  5  1  0
  5  6  1  0
  6  7  2  0
  6  8  1  0
  8  9  1  0
  9 10  1  0
 10 11  2  0
 11 12  1  0
 12 13  2  0
 13 14  1  0
 14 15  2  0
 15 16  1  0
 16 17  1  0
 16 18  2  0
 15 19  1  0
 19 20  1  0
 20 21  2  0
 20 22  1  0
 22 23  1  0
 23 24  1  0
 24 25  1  0
 19 26  1  0
 26 27  2  0
 27 10  1  0
 26 13  1  0
  1 28  1  0
  1 29  1  0
  1 30  1  0
  3 31  1  0
  3 32  1  0
  4 33  1  0
  4 34  1  0
  8 35  1  0
  8 36  1  0
  9 37  1  0
  9 38  1  0
 11 39  1  0
 12 40  1  0
 14 41  1  0
 17 42  1  0
 17 43  1  0
 22 44  1  0
 22 45  1  0
 23 46  1  0
 23 47  1  0
 25 48  1  0
 25 49  1  0
 25 50  1  0
 27 51  1  0
M  CHG  1   5  -1
M  END
>  <UniqueID>  (15) 
15

>  <SMILES>  (15) 
COCC[N-]C(=O)CCc1ccc2cc(C(N)=O)n(C(=O)CCOC)c2c1

>  <Energy>  (15) 
84.90367148688719

>  <Genealogy>  (15) 
COCC[N-]C(=O)CCc1ccc2cc(C(N)=O)n(C(=O)CCOC)c2c1 (protonated)
COCC[N-]C(=O)CCc1ccc2cc(C(N)=O)n(C(=O)CCOC)c2c1 (3D coordinates assigned)
COCC[N-]C(=O)CCc1ccc2cc(C(N)=O)n(C(=O)CCOC)c2c1 (optimized conformer: 84.90367148688719 kcal/mol)

>  <smiles>  (15) 
COCCNC(=O)CCc1ccc2cc(C(N)=O)n(C(=O)CCOC)c2c1

>  <score_type>  (15) 
oracle

>  <origin>  (15) 
adg

>  <m_score__min__energy>  (15) 
-10.33

>  <m_primary>  (15) 
energy

$$$$
15:0
     RDKit          3D

 50 52  0  0  0  0  0  0  0  0999 V2000
   -9.4820   22.6640  -32.0470 C   0  0  0  0  0  0  0  0  0  0  0  0
   -8.0880   22.0050  -31.9080 C   0  0  0  0  0  0  0  0  0  0  0  0
   -7.0230   22.9900  -32.4490 C   0  0  0  0  0  0  0  0  0  0  0  0
   -7.7930   21.7130  -30.4150 C   0  0  0  0  0  0  0  0  0  0  0  0
   -8.0110   20.6930  -32.7450 C   0  0  0  0  0  0  0  0  0  0  0  0
   -7.1120   19.6280  -32.1570 C   0  0  0  0  0  0  0  0  0  0  0  0
   -7.6020   18.8450  -31.2900 O   0  0  0  0  0  0  0  0  0  0  0  0
   -5.7100   19.5270  -32.4960 N   0  0  0  0  0  0  0  0  0  0  0  0
   -5.1070   18.6410  -33.3420 C   0  0  0  0  0  0  0  0  0  0  0  0
   -5.7660   17.4940  -33.9900 C   0  0  0  0  0  0  0  0  0  0  0  0
   -6.8360   16.8030  -33.3310 N   0  0  0  0  0  0  0  0  0  0  0  0
   -5.3720   17.1120  -35.1310 O   0  0  0  0  0  0  0  0  0  0  0  0
   -3.7260   18.8270  -33.3600 C   0  0  0  0  0  0  0  0  0  0  0  0
   -3.4850   19.8500  -32.4720 C   0  0  0  0  0  0  0  0  0  0  0  0
   -2.2790   20.3690  -32.0220 C   0  0  0  0  0  0  0  0  0  0  0  0
   -2.3200   21.3600  -31.0240 C   0  0  0  0  0  0  0  0  0  0  0  0
   -3.5630   21.8490  -30.5290 C   0  0  0  0  0  0  0  0  0  0  0  0
   -3.6240   22.8770  -29.4070 C   0  0  2  0  0  0  0  0  0  0  0  0
   -5.0660   23.2370  -28.9810 C   0  0  0  0  0  0  0  0  0  0  0  0
   -5.7840   24.2110  -29.9430 C   0  0  1  0  0  0  0  0  0  0  0  0
   -6.9880   24.6620  -29.3730 O   0  0  0  0  0  0  0  0  0  0  0  0
   -4.9060   25.3750  -30.3400 C   0  0  0  0  0  0  0  0  0  0  0  0
   -5.4240   26.3960  -30.8600 O   0  0  0  0  0  0  0  0  0  0  0  0
   -3.4830   25.2890  -30.2340 N   0  0  0  0  0  0  0  0  0  0  0  0
   -2.8300   24.1100  -29.7610 C   0  0  0  0  0  0  0  0  0  0  0  0
   -1.5690   24.0810  -29.7000 O   0  0  0  0  0  0  0  0  0  0  0  0
   -4.7680   21.2980  -31.0280 C   0  0  0  0  0  0  0  0  0  0  0  0
   -4.6960   20.2670  -31.9730 C   0  0  0  0  0  0  0  0  0  0  0  0
   -9.8963   22.8599  -31.0470 H   0  0  0  0  0  0  0  0  0  0  0  0
   -9.3862   23.6122  -32.5964 H   0  0  0  0  0  0  0  0  0  0  0  0
  -10.1539   21.9882  -32.5964 H   0  0  0  0  0  0  0  0  0  0  0  0
   -6.5047   23.4693  -31.6054 H   0  0  0  0  0  0  0  0  0  0  0  0
   -6.2940   22.4409  -33.0630 H   0  0  0  0  0  0  0  0  0  0  0  0
   -7.5136   23.7596  -33.0630 H   0  0  0  0  0  0  0  0  0  0  0  0
   -8.4333   22.3468  -29.7839 H   0  0  0  0  0  0  0  0  0  0  0  0
   -8.0000   20.6541  -30.2006 H   0  0  0  0  0  0  0  0  0  0  0  0
   -6.7363   21.9308  -30.2006 H   0  0  0  0  0  0  0  0  0  0  0  0
   -9.0264   20.2783  -32.8286 H   0  0  0  0  0  0  0  0  0  0  0  0
   -7.5779   20.9668  -33.7184 H   0  0  0  0  0  0  0  0  0  0  0  0
   -7.3790   16.0530  -33.8260 H   0  0  0  0  0  0  0  0  0  0  0  0
   -7.0790   17.0340  -32.3380 H   0  0  0  0  0  0  0  0  0  0  0  0
   -2.9861   18.2737  -33.9570 H   0  0  0  0  0  0  0  0  0  0  0  0
   -1.3213   20.0167  -32.4326 H   0  0  0  0  0  0  0  0  0  0  0  0
   -1.3793   21.7627  -30.6205 H   0  0  0  0  0  0  0  0  0  0  0  0
   -3.1615   22.4034  -28.5285 H   0  0  0  0  0  0  0  0  0  0  0  0
   -5.6528   22.3080  -28.9286 H   0  0  0  0  0  0  0  0  0  0  0  0
   -4.9915   23.7480  -28.0097 H   0  0  0  0  0  0  0  0  0  0  0  0
   -6.0122   23.6556  -30.8647 H   0  0  0  0  0  0  0  0  0  0  0  0
   -7.0470   25.6390  -29.5270 H   0  0  0  0  0  0  0  0  0  0  0  0
   -5.7420   21.6725  -30.6801 H   0  0  0  0  0  0  0  0  0  0  0  0
  1  2  1  0
  2  3  1  0
  2  4  1  0
  2  5  1  0
  5  6  1  0
  6  7  2  0
  6  8  1  0
  8  9  1  0
  9 10  1  0
 10 11  1  0
 10 12  2  0
  9 13  2  0
 13 14  1  0
 14 15  2  0
 15 16  1  0
 16 17  2  0
 17 18  1  0
 18 19  1  0
 19 20  1  0
 20 21  1  0
 20 22  1  0
 22 23  2  0
 22 24  1  0
 24 25  1  0
 25 26  2  0
 17 27  1  0
 27 28  2  0
 28  8  1  0
 28 14  1  0
 25 18  1  0
  1 29  1  0
  1 30  1  0
  1 31  1  0
  3 32  1  0
  3 33  1  0
  3 34  1  0
  4 35  1  0
  4 36  1  0
  4 37  1  0
  5 38  1  0
  5 39  1  0
 11 40  1  0
 11 41  1  0
 13 42  1  0
 15 43  1  0
 16 44  1  0
 18 45  1  1
 19 46  1  0
 19 47  1  0
 20 48  1  6
 21 49  1  0
 27 50  1  0
M  CHG  1  24  -1
M  END
>  <UniqueID>  (16) 
16

>  <SMILES>  (16) 
CC(C)(C)CC(=O)n1c(C(N)=O)cc2ccc([C@@H]3C[C@@H](O)C(=O)[N-]C3=O)cc21

>  <Energy>  (16) 
91.18402488585915

>  <Genealogy>  (16) 
CC(C)(C)CC(=O)n1c(C(N)=O)cc2ccc([C@@H]3CC(O)C(=O)[N-]C3=O)cc21 (protonated)
CC(C)(C)CC(=O)n1c(C(N)=O)cc2ccc([C@@H]3C[C@@H](O)C(=O)[N-]C3=O)cc21 (chirality)
CC(C)(C)CC(=O)n1c(C(N)=O)cc2ccc([C@@H]3C[C@@H](O)C(=O)[N-]C3=O)cc21 (3D coordinates assigned)
CC(C)(C)CC(=O)n1c(C(N)=O)cc2ccc([C@@H]3C[C@@H](O)C(=O)[N-]C3=O)cc21 (nonaromatic ring conformer: 91.18402488585915 kcal/mol)

>  <smiles>  (16) 
CC(C)(C)CC(=O)n1c(C(N)=O)cc2ccc([C@@H]3CC(O)C(=O)NC3=O)cc21

>  <score_type>  (16) 
oracle

>  <origin>  (16) 
adg

>  <m_score__min__energy>  (16) 
-10.109999999999999

>  <m_primary>  (16) 
energy

$$$$
16:0
     RDKit          3D

 48 50  0  0  0  0  0  0  0  0999 V2000
   -5.4220   16.4040  -32.8530 C   0  0  0  0  0  0  0  0  0  0  0  0
   -4.8790   16.7390  -34.1820 N   0  0  0  0  0  0  0  0  0  0  0  0
   -5.7080   17.7420  -34.8780 C   0  0  0  0  0  0  0  0  0  0  0  0
   -5.6270   19.1340  -34.2120 C   0  0  0  0  0  0  0  0  0  0  0  0
   -4.3680   19.3380  -33.4550 N   0  0  0  0  0  0  0  0  0  0  0  0
   -4.0680   20.7750  -33.2650 C   0  0  0  0  0  0  0  0  0  0  0  0
   -2.9670   20.9930  -32.2240 C   0  0  0  0  0  0  0  0  0  0  0  0
   -3.2060   22.1970  -31.5020 O   0  0  0  0  0  0  0  0  0  0  0  0
   -4.1580   22.3050  -30.4870 C   0  0  0  0  0  0  0  0  0  0  0  0
   -3.8570   22.0020  -29.3010 O   0  0  0  0  0  0  0  0  0  0  0  0
   -5.4750   22.7910  -30.7970 N   0  0  0  0  0  0  0  0  0  0  0  0
   -5.8940   24.0880  -30.8680 C   0  0  0  0  0  0  0  0  0  0  0  0
   -5.1110   25.2790  -30.4840 C   0  0  0  0  0  0  0  0  0  0  0  0
   -3.6870   25.2410  -30.4490 N   0  0  0  0  0  0  0  0  0  0  0  0
   -5.7080   26.3300  -30.1280 O   0  0  0  0  0  0  0  0  0  0  0  0
   -7.2260   24.1490  -31.2710 C   0  0  0  0  0  0  0  0  0  0  0  0
   -7.6210   22.8410  -31.4270 C   0  0  0  0  0  0  0  0  0  0  0  0
   -8.8490   22.3200  -31.8210 C   0  0  0  0  0  0  0  0  0  0  0  0
   -8.9730   20.9240  -31.9190 C   0  0  0  0  0  0  0  0  0  0  0  0
   -7.8770   20.0760  -31.6140 C   0  0  0  0  0  0  0  0  0  0  0  0
   -8.0030   18.5820  -31.7760 C   0  0  0  0  0  0  0  0  0  0  0  0
   -6.9590   17.9640  -31.1130 F   0  0  0  0  0  0  0  0  0  0  0  0
   -7.9620   18.2280  -33.1130 F   0  0  0  0  0  0  0  0  0  0  0  0
   -9.2020   18.1350  -31.2470 F   0  0  0  0  0  0  0  0  0  0  0  0
   -6.6370   20.6470  -31.2450 C   0  0  0  0  0  0  0  0  0  0  0  0
   -6.5480   22.0410  -31.1350 C   0  0  0  0  0  0  0  0  0  0  0  0
   -3.2440   18.6650  -34.1270 C   0  0  0  0  0  0  0  0  0  0  0  0
   -3.4530   17.1380  -34.1200 C   0  0  0  0  0  0  0  0  0  0  0  0
   -4.7614   16.8116  -32.0736 H   0  0  0  0  0  0  0  0  0  0  0  0
   -6.4265   16.8396  -32.7469 H   0  0  0  0  0  0  0  0  0  0  0  0
   -5.4833   15.3108  -32.7469 H   0  0  0  0  0  0  0  0  0  0  0  0
   -5.3613   17.8270  -35.9185 H   0  0  0  0  0  0  0  0  0  0  0  0
   -6.7543   17.4061  -34.8293 H   0  0  0  0  0  0  0  0  0  0  0  0
   -5.6940   19.9028  -34.9959 H   0  0  0  0  0  0  0  0  0  0  0  0
   -6.4588   19.2068  -33.4959 H   0  0  0  0  0  0  0  0  0  0  0  0
   -3.7397   21.2002  -34.2249 H   0  0  0  0  0  0  0  0  0  0  0  0
   -4.9818   21.2704  -32.9051 H   0  0  0  0  0  0  0  0  0  0  0  0
   -2.9560   20.1450  -31.5234 H   0  0  0  0  0  0  0  0  0  0  0  0
   -1.9969   21.0680  -32.7371 H   0  0  0  0  0  0  0  0  0  0  0  0
   -3.1180   25.6610  -31.2170 H   0  0  0  0  0  0  0  0  0  0  0  0
   -7.8333   25.0522  -31.4307 H   0  0  0  0  0  0  0  0  0  0  0  0
   -9.6979   22.9814  -32.0491 H   0  0  0  0  0  0  0  0  0  0  0  0
   -9.9300   20.4837  -32.2356 H   0  0  0  0  0  0  0  0  0  0  0  0
   -5.7615   20.0107  -31.0486 H   0  0  0  0  0  0  0  0  0  0  0  0
   -3.1794   19.0176  -35.1670 H   0  0  0  0  0  0  0  0  0  0  0  0
   -2.3133   18.9011  -33.5904 H   0  0  0  0  0  0  0  0  0  0  0  0
   -2.9332   16.7109  -34.9903 H   0  0  0  0  0  0  0  0  0  0  0  0
   -3.0509   16.7595  -33.1687 H   0  0  0  0  0  0  0  0  0  0  0  0
  1  2  1  0
  2  3  1  0
  3  4  1  0
  4  5  1  0
  5  6  1  0
  6  7  1  0
  7  8  1  0
  8  9  1  0
  9 10  2  0
  9 11  1  0
 11 12  1  0
 12 13  1  0
 13 14  1  0
 13 15  2  0
 12 16  2  0
 16 17  1  0
 17 18  2  0
 18 19  1  0
 19 20  2  0
 20 21  1  0
 21 22  1  0
 21 23  1  0
 21 24  1  0
 20 25  1  0
 25 26  2  0
  5 27  1  0
 27 28  1  0
 28  2  1  0
 26 11  1  0
 26 17  1  0
  1 29  1  0
  1 30  1  0
  1 31  1  0
  3 32  1  0
  3 33  1  0
  4 34  1  0
  4 35  1  0
  6 36  1  0
  6 37  1  0
  7 38  1  0
  7 39  1  0
 14 40  1  0
 16 41  1  0
 18 42  1  0
 19 43  1  0
 25 44  1  0
 27 45  1  0
 27 46  1  0
 28 47  1  0
 28 48  1  0
M  CHG  1  14  -1
M  END
>  <UniqueID>  (17) 
17

>  <SMILES>  (17) 
CN1CCN(CCOC(=O)n2c(C([NH-])=O)cc3ccc(C(F)(F)F)cc32)CC1

>  <Energy>  (17) 
96.14868100829887

>  <Genealogy>  (17) 
CN1CCN(CCOC(=O)n2c(C([NH-])=O)cc3ccc(C(F)(F)F)cc32)CC1 (protonated)
CN1CCN(CCOC(=O)n2c(C([NH-])=O)cc3ccc(C(F)(F)F)cc32)CC1 (3D coordinates assigned)
CN1CCN(CCOC(=O)n2c(C([NH-])=O)cc3ccc(C(F)(F)F)cc32)CC1 (nonaromatic ring conformer: 96.14868100829887 kcal/mol)

>  <smiles>  (17) 
CN1CCN(CCOC(=O)n2c(C(N)=O)cc3ccc(C(F)(F)F)cc32)CC1

>  <score_type>  (17) 
oracle

>  <origin>  (17) 
adg

>  <m_score__min__energy>  (17) 
-10.56

>  <m_primary>  (17) 
energy

$$$$
17:0
     RDKit          3D

 34 35  0  0  0  0  0  0  0  0999 V2000
    0.8220   23.7050  -27.4290 C   0  0  0  0  0  0  0  0  0  0  0  0
    0.3930   24.4860  -28.5820 N   0  0  0  0  0  0  0  0  0  0  0  0
   -0.8820   24.3510  -29.2210 C   0  0  0  0  0  0  0  0  0  0  0  0
   -1.6460   25.3510  -29.2720 O   0  0  0  0  0  0  0  0  0  0  0  0
   -1.3540   23.0430  -29.7830 C   0  0  0  0  0  0  0  0  0  0  0  0
   -2.7960   23.0910  -29.9780 N   0  0  0  0  0  0  0  0  0  0  0  0
   -3.4240   22.7110  -31.2050 C   0  0  0  0  0  0  0  0  0  0  0  0
   -2.7260   22.2920  -32.1670 O   0  0  0  0  0  0  0  0  0  0  0  0
   -4.8540   22.7940  -31.3380 N   0  0  0  0  0  0  0  0  0  0  0  0
   -5.6500   23.8770  -31.1130 C   0  0  0  0  0  0  0  0  0  0  0  0
   -5.2170   25.1710  -30.5440 C   0  0  0  0  0  0  0  0  0  0  0  0
   -3.9150   25.6750  -30.8390 N   0  0  0  0  0  0  0  0  0  0  0  0
   -5.9940   25.8550  -29.8290 O   0  0  0  0  0  0  0  0  0  0  0  0
   -6.9760   23.5820  -31.4220 C   0  0  0  0  0  0  0  0  0  0  0  0
   -6.9700   22.2720  -31.8410 C   0  0  0  0  0  0  0  0  0  0  0  0
   -8.0190   21.4650  -32.2700 C   0  0  0  0  0  0  0  0  0  0  0  0
   -7.7210   20.1500  -32.6640 C   0  0  0  0  0  0  0  0  0  0  0  0
   -6.3850   19.6730  -32.6470 C   0  0  0  0  0  0  0  0  0  0  0  0
   -6.0900   18.2460  -33.0330 C   0  0  0  0  0  0  0  0  0  0  0  0
   -5.8820   18.1480  -34.3980 F   0  0  0  0  0  0  0  0  0  0  0  0
   -4.9550   17.7840  -32.3880 F   0  0  0  0  0  0  0  0  0  0  0  0
   -7.1620   17.4480  -32.6810 F   0  0  0  0  0  0  0  0  0  0  0  0
   -5.3500   20.5180  -32.1850 C   0  0  0  0  0  0  0  0  0  0  0  0
   -5.6780   21.8180  -31.7810 C   0  0  0  0  0  0  0  0  0  0  0  0
    0.5349   24.2277  -26.5047 H   0  0  0  0  0  0  0  0  0  0  0  0
    0.3403   22.7165  -27.4560 H   0  0  0  0  0  0  0  0  0  0  0  0
    1.9147   23.5813  -27.4560 H   0  0  0  0  0  0  0  0  0  0  0  0
   -0.8594   22.8587  -30.7481 H   0  0  0  0  0  0  0  0  0  0  0  0
   -1.1053   22.2318  -29.0829 H   0  0  0  0  0  0  0  0  0  0  0  0
   -3.0610   25.2110  -30.4590 H   0  0  0  0  0  0  0  0  0  0  0  0
   -7.8436   24.2541  -31.3468 H   0  0  0  0  0  0  0  0  0  0  0  0
   -9.0507   21.8453  -32.2998 H   0  0  0  0  0  0  0  0  0  0  0  0
   -8.5326   19.4826  -32.9894 H   0  0  0  0  0  0  0  0  0  0  0  0
   -4.3100   20.1621  -32.1438 H   0  0  0  0  0  0  0  0  0  0  0  0
  1  2  1  0
  2  3  1  0
  3  4  2  0
  3  5  1  0
  5  6  1  0
  6  7  1  0
  7  8  2  0
  7  9  1  0
  9 10  1  0
 10 11  1  0
 11 12  1  0
 11 13  2  0
 10 14  2  0
 14 15  1  0
 15 16  2  0
 16 17  1  0
 17 18  2  0
 18 19  1  0
 19 20  1  0
 19 21  1  0
 19 22  1  0
 18 23  1  0
 23 24  2  0
 24  9  1  0
 24 15  1  0
  1 25  1  0
  1 26  1  0
  1 27  1  0
  5 28  1  0
  5 29  1  0
 12 30  1  0
 14 31  1  0
 16 32  1  0
 17 33  1  0
 23 34  1  0
M  CHG  3   2  -1   6  -1  12  -1
M  END
>  <UniqueID>  (18) 
18

>  <SMILES>  (18) 
C[N-]C(=O)C[N-]C(=O)n1c(C([NH-])=O)cc2ccc(C(F)(F)F)cc21

>  <Energy>  (18) 
67.69515623142554

>  <Genealogy>  (18) 
C[N-]C(=O)C[N-]C(=O)n1c(C([NH-])=O)cc2ccc(C(F)(F)F)cc21 (protonated)
C[N-]C(=O)C[N-]C(=O)n1c(C([NH-])=O)cc2ccc(C(F)(F)F)cc21 (3D coordinates assigned)
C[N-]C(=O)C[N-]C(=O)n1c(C([NH-])=O)cc2ccc(C(F)(F)F)cc21 (optimized conformer: 67.69515623142554 kcal/mol)

>  <smiles>  (18) 
CNC(=O)CNC(=O)n1c(C(N)=O)cc2ccc(C(F)(F)F)cc21

>  <score_type>  (18) 
oracle

>  <origin>  (18) 
adg

>  <m_score__min__energy>  (18) 
-12.06

>  <m_primary>  (18) 
energy

$$$$
18:0
     RDKit          3D

 47 48  0  0  0  0  0  0  0  0999 V2000
   -9.1270   20.3110  -32.4600 C   0  0  0  0  0  0  0  0  0  0  0  0
   -7.8610   21.0050  -32.1800 N   0  0  0  0  0  0  0  0  0  0  0  0
   -6.6400   20.2400  -32.2970 C   0  0  0  0  0  0  0  0  0  0  0  0
   -6.5150   19.1520  -31.6720 O   0  0  0  0  0  0  0  0  0  0  0  0
   -5.5350   20.6940  -33.2160 C   0  0  0  0  0  0  0  0  0  0  0  0
   -4.2750   19.8220  -33.1090 C   0  0  0  0  0  0  0  0  0  0  0  0
   -3.2230   20.4600  -32.2390 C   0  0  0  0  0  0  0  0  0  0  0  0
   -1.9410   19.8680  -32.1260 C   0  0  0  0  0  0  0  0  0  0  0  0
   -0.9400   20.4710  -31.3480 C   0  0  0  0  0  0  0  0  0  0  0  0
   -1.2440   21.6680  -30.7060 C   0  0  0  0  0  0  0  0  0  0  0  0
   -0.4630   22.4610  -29.8990 C   0  0  0  0  0  0  0  0  0  0  0  0
   -1.2720   23.5410  -29.5480 C   0  0  0  0  0  0  0  0  0  0  0  0
   -0.7980   24.7030  -28.7630 C   0  0  0  0  0  0  0  0  0  0  0  0
   -1.5450   25.9200  -28.7400 N   0  0  0  0  0  0  0  0  0  0  0  0
    0.2560   24.6180  -28.0800 O   0  0  0  0  0  0  0  0  0  0  0  0
   -2.5050   23.4180  -30.1130 N   0  0  0  0  0  0  0  0  0  0  0  0
   -3.6330   24.2950  -29.9520 C   0  0  0  0  0  0  0  0  0  0  0  0
   -4.4550   24.1120  -29.0170 O   0  0  0  0  0  0  0  0  0  0  0  0
   -3.8190   25.3650  -30.8190 O   0  0  0  0  0  0  0  0  0  0  0  0
   -2.4730   22.2640  -30.8180 C   0  0  0  0  0  0  0  0  0  0  0  0
   -3.4980   21.6720  -31.5660 C   0  0  0  0  0  0  0  0  0  0  0  0
   -7.8560   22.3990  -31.6510 C   0  0  0  0  0  0  0  0  0  0  0  0
   -6.7190   23.2380  -32.2860 C   0  0  0  0  0  0  0  0  0  0  0  0
   -9.2040   23.0730  -31.9680 C   0  0  0  0  0  0  0  0  0  0  0  0
   -7.6230   22.4050  -30.1220 C   0  0  0  0  0  0  0  0  0  0  0  0
   -9.6158   20.0431  -31.5117 H   0  0  0  0  0  0  0  0  0  0  0  0
   -9.7878   20.9730  -33.0389 H   0  0  0  0  0  0  0  0  0  0  0  0
   -8.9243   19.3979  -33.0389 H   0  0  0  0  0  0  0  0  0  0  0  0
   -5.9019   20.6556  -34.2523 H   0  0  0  0  0  0  0  0  0  0  0  0
   -5.2564   21.7159  -32.9190 H   0  0  0  0  0  0  0  0  0  0  0  0
   -4.5515   18.8488  -32.6771 H   0  0  0  0  0  0  0  0  0  0  0  0
   -3.8560   19.7026  -34.1190 H   0  0  0  0  0  0  0  0  0  0  0  0
   -1.7277   18.9264  -32.6531 H   0  0  0  0  0  0  0  0  0  0  0  0
    0.0545   20.0114  -31.2488 H   0  0  0  0  0  0  0  0  0  0  0  0
    0.5788   22.2816  -29.5948 H   0  0  0  0  0  0  0  0  0  0  0  0
   -2.3950   26.0470  -29.3330 H   0  0  0  0  0  0  0  0  0  0  0  0
   -1.2230   26.7200  -28.1510 H   0  0  0  0  0  0  0  0  0  0  0  0
   -4.4922   22.1385  -31.6283 H   0  0  0  0  0  0  0  0  0  0  0  0
   -6.1078   23.6890  -31.4903 H   0  0  0  0  0  0  0  0  0  0  0  0
   -6.0876   22.5877  -32.9093 H   0  0  0  0  0  0  0  0  0  0  0  0
   -7.1542   24.0331  -32.9093 H   0  0  0  0  0  0  0  0  0  0  0  0
   -9.7159   23.3289  -31.0286 H   0  0  0  0  0  0  0  0  0  0  0  0
   -9.0278   23.9891  -32.5509 H   0  0  0  0  0  0  0  0  0  0  0  0
   -9.8311   22.3824  -32.5509 H   0  0  0  0  0  0  0  0  0  0  0  0
   -8.5927   22.3800  -29.6032 H   0  0  0  0  0  0  0  0  0  0  0  0
   -7.0322   21.5218  -29.8377 H   0  0  0  0  0  0  0  0  0  0  0  0
   -7.0784   23.3175  -29.8377 H   0  0  0  0  0  0  0  0  0  0  0  0
  1  2  1  0
  2  3  1  0
  3  4  2  0
  3  5  1  0
  5  6  1  0
  6  7  1  0
  7  8  2  0
  8  9  1  0
  9 10  2  0
 10 11  1  0
 11 12  2  0
 12 13  1  0
 13 14  1  0
 13 15  2  0
 12 16  1  0
 16 17  1  0
 17 18  2  0
 17 19  1  0
 16 20  1  0
 20 21  2  0
  2 22  1  0
 22 23  1  0
 22 24  1  0
 22 25  1  0
 21  7  1  0
 20 10  1  0
  1 26  1  0
  1 27  1  0
  1 28  1  0
  5 29  1  0
  5 30  1  0
  6 31  1  0
  6 32  1  0
  8 33  1  0
  9 34  1  0
 11 35  1  0
 14 36  1  0
 14 37  1  0
 21 38  1  0
 23 39  1  0
 23 40  1  0
 23 41  1  0
 24 42  1  0
 24 43  1  0
 24 44  1  0
 25 45  1  0
 25 46  1  0
 25 47  1  0
M  CHG  1  19  -1
M  END
>  <UniqueID>  (19) 
19

>  <SMILES>  (19) 
CN(C(=O)CCc1ccc2cc(C(N)=O)n(C(=O)[O-])c2c1)C(C)(C)C

>  <Energy>  (19) 
83.03430035306121

>  <Genealogy>  (19) 
CN(C(=O)CCc1ccc2cc(C(N)=O)n(C(=O)[O-])c2c1)C(C)(C)C (protonated)
CN(C(=O)CCc1ccc2cc(C(N)=O)n(C(=O)[O-])c2c1)C(C)(C)C (3D coordinates assigned)
CN(C(=O)CCc1ccc2cc(C(N)=O)n(C(=O)[O-])c2c1)C(C)(C)C (optimized conformer: 83.03430035306121 kcal/mol)

>  <smiles>  (19) 
CN(C(=O)CCc1ccc2cc(C(N)=O)n(C(=O)O)c2c1)C(C)(C)C

>  <score_type>  (19) 
oracle

>  <origin>  (19) 
adg

>  <m_score__min__energy>  (19) 
-9.3599999999999994

>  <m_primary>  (19) 
energy

$$$$
19:0
     RDKit          3D

 36 38  0  0  0  0  0  0  0  0999 V2000
   -3.3690   20.8380  -33.2370 C   0  0  0  0  0  0  0  0  0  0  0  0
   -3.1930   21.8340  -32.3710 C   0  0  0  0  0  0  0  0  0  0  0  0
   -3.8650   21.8810  -31.0590 C   0  0  0  0  0  0  0  0  0  0  0  0
   -3.2660   21.4210  -30.0500 O   0  0  0  0  0  0  0  0  0  0  0  0
   -5.1760   22.4470  -30.9020 N   0  0  0  0  0  0  0  0  0  0  0  0
   -5.5030   23.6690  -30.3960 C   0  0  0  0  0  0  0  0  0  0  0  0
   -4.5610   24.6330  -29.7880 C   0  0  0  0  0  0  0  0  0  0  0  0
   -3.9380   25.6480  -30.5720 N   0  0  0  0  0  0  0  0  0  0  0  0
   -4.2840   24.5450  -28.5620 O   0  0  0  0  0  0  0  0  0  0  0  0
   -6.8790   23.8780  -30.4820 C   0  0  0  0  0  0  0  0  0  0  0  0
   -7.3860   22.7390  -31.0660 C   0  0  0  0  0  0  0  0  0  0  0  0
   -8.6980   22.4020  -31.3900 C   0  0  0  0  0  0  0  0  0  0  0  0
   -8.9270   21.1540  -31.9950 C   0  0  0  0  0  0  0  0  0  0  0  0
   -7.8460   20.2820  -32.2810 C   0  0  0  0  0  0  0  0  0  0  0  0
   -8.1110   18.9290  -32.8800 C   0  0  0  0  0  0  0  0  0  0  0  0
   -7.0480   17.9990  -32.5010 N   0  0  0  0  0  0  0  0  0  0  0  0
   -6.8480   17.4710  -31.2740 C   0  0  0  0  0  0  0  0  0  0  0  0
   -5.7310   16.7180  -31.2290 N   0  0  0  0  0  0  0  0  0  0  0  0
   -5.2050   16.7840  -32.4660 C   0  0  0  0  0  0  0  0  0  0  0  0
   -3.7170   15.9930  -32.9520 Cl  0  0  0  0  0  0  0  0  0  0  0  0
   -6.0100   17.5780  -33.2520 C   0  0  0  0  0  0  0  0  0  0  0  0
   -5.7330   17.9920  -34.9370 Cl  0  0  0  0  0  0  0  0  0  0  0  0
   -6.5310   20.6590  -31.9380 C   0  0  0  0  0  0  0  0  0  0  0  0
   -6.3370   21.8960  -31.3160 C   0  0  0  0  0  0  0  0  0  0  0  0
   -2.8439   20.8503  -34.2035 H   0  0  0  0  0  0  0  0  0  0  0  0
   -4.0395   20.0029  -32.9859 H   0  0  0  0  0  0  0  0  0  0  0  0
   -2.5173   22.6573  -32.6460 H   0  0  0  0  0  0  0  0  0  0  0  0
   -3.1350   25.4240  -31.1990 H   0  0  0  0  0  0  0  0  0  0  0  0
   -7.4404   24.7649  -30.1530 H   0  0  0  0  0  0  0  0  0  0  0  0
   -9.5291   23.0910  -31.1790 H   0  0  0  0  0  0  0  0  0  0  0  0
   -9.9536   20.8512  -32.2488 H   0  0  0  0  0  0  0  0  0  0  0  0
   -9.0756   18.5498  -32.5116 H   0  0  0  0  0  0  0  0  0  0  0  0
   -8.1400   19.0180  -33.9760 H   0  0  0  0  0  0  0  0  0  0  0  0
   -7.5158   17.6356  -30.4155 H   0  0  0  0  0  0  0  0  0  0  0  0
   -5.3490   16.2060  -30.4040 H   0  0  0  0  0  0  0  0  0  0  0  0
   -5.6798   19.9967  -32.1543 H   0  0  0  0  0  0  0  0  0  0  0  0
  1  2  2  0
  2  3  1  0
  3  4  2  0
  3  5  1  0
  5  6  1  0
  6  7  1  0
  7  8  1  0
  7  9  2  0
  6 10  2  0
 10 11  1  0
 11 12  2  0
 12 13  1  0
 13 14  2  0
 14 15  1  0
 15 16  1  0
 16 17  1  0
 17 18  2  0
 18 19  1  0
 19 20  1  0
 19 21  2  0
 21 22  1  0
 14 23  1  0
 23 24  2  0
 24  5  1  0
 24 11  1  0
 21 16  1  0
  1 25  1  0
  1 26  1  0
  2 27  1  0
  8 28  1  0
 10 29  1  0
 12 30  1  0
 13 31  1  0
 15 32  1  0
 15 33  1  0
 17 34  1  0
 18 35  1  0
 23 36  1  0
M  CHG  2   8  -1  18   1
M  END
>  <UniqueID>  (20) 
20

>  <SMILES>  (20) 
C=CC(=O)n1c(C([NH-])=O)cc2ccc(Cn3c[nH+]c(Cl)c3Cl)cc21

>  <Energy>  (20) 
105.8238550159399

>  <Genealogy>  (20) 
C=CC(=O)n1c(C([NH-])=O)cc2ccc(Cn3c[nH+]c(Cl)c3Cl)cc21 (protonated)
C=CC(=O)n1c(C([NH-])=O)cc2ccc(Cn3c[nH+]c(Cl)c3Cl)cc21 (3D coordinates assigned)
C=CC(=O)n1c(C([NH-])=O)cc2ccc(Cn3c[nH+]c(Cl)c3Cl)cc21 (optimized conformer: 105.8238550159399 kcal/mol)

>  <smiles>  (20) 
C=CC(=O)n1c(C(N)=O)cc2ccc(Cn3cnc(Cl)c3Cl)cc21

>  <score_type>  (20) 
oracle

>  <origin>  (20) 
adg

>  <m_score__min__energy>  (20) 
-10.84

>  <m_primary>  (20) 
energy

$$$$
20:0
     RDKit          3D

 53 54  0  0  0  0  0  0  0  0999 V2000
   -9.7560   21.1650  -31.9510 C   0  0  0  0  0  0  0  0  0  0  0  0
   -8.8060   20.1110  -32.5290 C   0  0  0  0  0  0  0  0  0  0  0  0
   -8.7710   18.8730  -31.6230 C   0  0  0  0  0  0  0  0  0  0  0  0
   -7.3920   20.6890  -32.7090 C   0  0  0  0  0  0  0  0  0  0  0  0
   -6.5720   19.7630  -33.4150 O   0  0  0  0  0  0  0  0  0  0  0  0
   -5.4040   19.2220  -32.8750 C   0  0  0  0  0  0  0  0  0  0  0  0
   -5.4360   18.5550  -31.8030 O   0  0  0  0  0  0  0  0  0  0  0  0
   -4.1040   19.4230  -33.5860 C   0  0  0  0  0  0  0  0  0  0  0  0
   -3.1330   20.1560  -32.7020 C   0  0  0  0  0  0  0  0  0  0  0  0
   -1.8110   19.6710  -32.5480 C   0  0  0  0  0  0  0  0  0  0  0  0
   -0.8950   20.3410  -31.7190 C   0  0  0  0  0  0  0  0  0  0  0  0
   -1.3330   21.4810  -31.0500 C   0  0  0  0  0  0  0  0  0  0  0  0
   -0.6460   22.3370  -30.2190 C   0  0  0  0  0  0  0  0  0  0  0  0
   -1.5700   23.3110  -29.8500 C   0  0  0  0  0  0  0  0  0  0  0  0
   -1.2610   24.4080  -28.9110 C   0  0  0  0  0  0  0  0  0  0  0  0
   -2.2790   25.3010  -28.4540 N   0  0  0  0  0  0  0  0  0  0  0  0
   -0.0910   24.5220  -28.4560 O   0  0  0  0  0  0  0  0  0  0  0  0
   -2.7770   23.0760  -30.4360 N   0  0  0  0  0  0  0  0  0  0  0  0
   -3.9460   23.9130  -30.4030 C   0  0  0  0  0  0  0  0  0  0  0  0
   -3.8650   25.1170  -30.7700 O   0  0  0  0  0  0  0  0  0  0  0  0
   -5.1680   23.3720  -29.9750 O   0  0  0  0  0  0  0  0  0  0  0  0
   -6.4750   23.7600  -30.4230 C   0  0  0  0  0  0  0  0  0  0  0  0
   -6.5300   23.8010  -31.9630 C   0  0  0  0  0  0  0  0  0  0  0  0
   -7.4580   22.6920  -29.9180 C   0  0  0  0  0  0  0  0  0  0  0  0
   -6.8700   25.1260  -29.8270 C   0  0  0  0  0  0  0  0  0  0  0  0
   -2.6170   21.9500  -31.1660 C   0  0  0  0  0  0  0  0  0  0  0  0
   -3.5440   21.3130  -32.0020 C   0  0  0  0  0  0  0  0  0  0  0  0
   -9.7214   21.1266  -30.8522 H   0  0  0  0  0  0  0  0  0  0  0  0
   -9.4472   22.1639  -32.2929 H   0  0  0  0  0  0  0  0  0  0  0  0
  -10.7815   20.9612  -32.2929 H   0  0  0  0  0  0  0  0  0  0  0  0
   -9.1808   19.8120  -33.5190 H   0  0  0  0  0  0  0  0  0  0  0  0
   -8.7799   19.1893  -30.5695 H   0  0  0  0  0  0  0  0  0  0  0  0
   -9.6518   18.2458  -31.8250 H   0  0  0  0  0  0  0  0  0  0  0  0
   -7.8562   18.2965  -31.8250 H   0  0  0  0  0  0  0  0  0  0  0  0
   -7.4525   21.6287  -33.2776 H   0  0  0  0  0  0  0  0  0  0  0  0
   -6.9515   20.8788  -31.7191 H   0  0  0  0  0  0  0  0  0  0  0  0
   -3.6820   18.4433  -33.8543 H   0  0  0  0  0  0  0  0  0  0  0  0
   -4.2812   20.0186  -34.4937 H   0  0  0  0  0  0  0  0  0  0  0  0
   -1.4985   18.7616  -33.0822 H   0  0  0  0  0  0  0  0  0  0  0  0
    0.1361   19.9761  -31.6022 H   0  0  0  0  0  0  0  0  0  0  0  0
    0.4080   22.2665  -29.9121 H   0  0  0  0  0  0  0  0  0  0  0  0
   -2.0350   26.0800  -27.8000 H   0  0  0  0  0  0  0  0  0  0  0  0
   -3.2830   25.1480  -28.6930 H   0  0  0  0  0  0  0  0  0  0  0  0
   -7.3737   24.4300  -32.2831 H   0  0  0  0  0  0  0  0  0  0  0  0
   -5.5910   24.2212  -32.3524 H   0  0  0  0  0  0  0  0  0  0  0  0
   -6.6645   22.7811  -32.3524 H   0  0  0  0  0  0  0  0  0  0  0  0
   -7.4617   22.6879  -28.8180 H   0  0  0  0  0  0  0  0  0  0  0  0
   -8.4688   22.9201  -30.2873 H   0  0  0  0  0  0  0  0  0  0  0  0
   -7.1471   21.7036  -30.2873 H   0  0  0  0  0  0  0  0  0  0  0  0
   -6.8526   25.0657  -28.7288 H   0  0  0  0  0  0  0  0  0  0  0  0
   -6.1568   25.8929  -30.1635 H   0  0  0  0  0  0  0  0  0  0  0  0
   -7.8824   25.3939  -30.1635 H   0  0  0  0  0  0  0  0  0  0  0  0
   -4.5664   21.7039  -32.1107 H   0  0  0  0  0  0  0  0  0  0  0  0
  1  2  1  0
  2  3  1  0
  2  4  1  0
  4  5  1  0
  5  6  1  0
  6  7  2  0
  6  8  1  0
  8  9  1  0
  9 10  2  0
 10 11  1  0
 11 12  2  0
 12 13  1  0
 13 14  2  0
 14 15  1  0
 15 16  1  0
 15 17  2  0
 14 18  1  0
 18 19  1  0
 19 20  2  0
 19 21  1  0
 21 22  1  0
 22 23  1  0
 22 24  1  0
 22 25  1  0
 18 26  1  0
 26 27  2  0
 27  9  1  0
 26 12  1  0
  1 28  1  0
  1 29  1  0
  1 30  1  0
  2 31  1  0
  3 32  1  0
  3 33  1  0
  3 34  1  0
  4 35  1  0
  4 36  1  0
  8 37  1  0
  8 38  1  0
 10 39  1  0
 11 40  1  0
 13 41  1  0
 16 42  1  0
 16 43  1  0
 23 44  1  0
 23 45  1  0
 23 46  1  0
 24 47  1  0
 24 48  1  0
 24 49  1  0
 25 50  1  0
 25 51  1  0
 25 52  1  0
 27 53  1  0
M  END
>  <UniqueID>  (21) 
21

>  <SMILES>  (21) 
CC(C)COC(=O)Cc1ccc2cc(C(N)=O)n(C(=O)OC(C)(C)C)c2c1

>  <Energy>  (21) 
76.73302175357313

>  <Genealogy>  (21) 
CC(C)COC(=O)Cc1ccc2cc(C(N)=O)n(C(=O)OC(C)(C)C)c2c1 (3D coordinates assigned)
CC(C)COC(=O)Cc1ccc2cc(C(N)=O)n(C(=O)OC(C)(C)C)c2c1 (optimized conformer: 76.73302175357313 kcal/mol)

>  <smiles>  (21) 
CC(C)COC(=O)Cc1ccc2cc(C(N)=O)n(C(=O)OC(C)(C)C)c2c1

>  <score_type>  (21) 
oracle

>  <origin>  (21) 
adg

>  <m_score__min__energy>  (21) 
-9.0899999999999999

>  <m_primary>  (21) 
energy

$$$$
21:0
     RDKit          3D

 43 44  0  0  0  0  0  0  0  0999 V2000
   -2.4810   16.4010  -33.7860 C   0  0  0  0  0  0  0  0  0  0  0  0
   -2.4340   17.5100  -34.6560 O   0  0  0  0  0  0  0  0  0  0  0  0
   -1.3640   18.3690  -34.3080 C   0  0  0  0  0  0  0  0  0  0  0  0
   -1.8350   19.8210  -34.2010 C   0  0  0  0  0  0  0  0  0  0  0  0
   -3.2500   19.8840  -34.0310 O   0  0  0  0  0  0  0  0  0  0  0  0
   -3.8830   19.8980  -32.7810 C   0  0  0  0  0  0  0  0  0  0  0  0
   -3.2060   19.7710  -31.7230 O   0  0  0  0  0  0  0  0  0  0  0  0
   -5.3110   20.0330  -32.7060 N   0  0  0  0  0  0  0  0  0  0  0  0
   -6.2520   19.2610  -33.3200 C   0  0  0  0  0  0  0  0  0  0  0  0
   -5.9840   18.0220  -34.0840 C   0  0  0  0  0  0  0  0  0  0  0  0
   -4.8750   17.9440  -34.9810 N   0  0  0  0  0  0  0  0  0  0  0  0
   -6.7530   17.0320  -33.9710 O   0  0  0  0  0  0  0  0  0  0  0  0
   -7.5310   19.7450  -33.0460 C   0  0  0  0  0  0  0  0  0  0  0  0
   -7.3400   20.8440  -32.2390 C   0  0  0  0  0  0  0  0  0  0  0  0
   -8.2680   21.7090  -31.6740 C   0  0  0  0  0  0  0  0  0  0  0  0
   -7.7890   22.7750  -30.8960 C   0  0  0  0  0  0  0  0  0  0  0  0
   -6.3940   22.9730  -30.6990 C   0  0  0  0  0  0  0  0  0  0  0  0
   -5.9110   24.0830  -29.8970 N   0  0  0  0  0  0  0  0  0  0  0  0
   -6.7320   25.2900  -29.7360 C   0  0  0  0  0  0  0  0  0  0  0  0
   -4.6160   24.0190  -29.2010 C   0  0  0  0  0  0  0  0  0  0  0  0
   -3.6170   24.9240  -29.8550 C   0  0  0  0  0  0  0  0  0  0  0  0
   -3.9300   25.5680  -30.8910 O   0  0  0  0  0  0  0  0  0  0  0  0
   -2.3550   25.0880  -29.3010 O   0  0  0  0  0  0  0  0  0  0  0  0
   -5.4850   22.0630  -31.2990 C   0  0  0  0  0  0  0  0  0  0  0  0
   -5.9930   20.9970  -32.0500 C   0  0  0  0  0  0  0  0  0  0  0  0
   -2.4661   16.7519  -32.7436 H   0  0  0  0  0  0  0  0  0  0  0  0
   -3.4041   15.8311  -33.9679 H   0  0  0  0  0  0  0  0  0  0  0  0
   -1.6094   15.7550  -33.9679 H   0  0  0  0  0  0  0  0  0  0  0  0
   -0.9505   18.0532  -33.3388 H   0  0  0  0  0  0  0  0  0  0  0  0
   -0.5971   18.3077  -35.0942 H   0  0  0  0  0  0  0  0  0  0  0  0
   -1.3466   20.2957  -33.3372 H   0  0  0  0  0  0  0  0  0  0  0  0
   -1.5679   20.3473  -35.1293 H   0  0  0  0  0  0  0  0  0  0  0  0
   -4.1840   18.7210  -35.0600 H   0  0  0  0  0  0  0  0  0  0  0  0
   -4.7180   17.0780  -35.5440 H   0  0  0  0  0  0  0  0  0  0  0  0
   -8.4888   19.3357  -33.3995 H   0  0  0  0  0  0  0  0  0  0  0  0
   -9.3469   21.5632  -31.8314 H   0  0  0  0  0  0  0  0  0  0  0  0
   -8.5045   23.4690  -30.4308 H   0  0  0  0  0  0  0  0  0  0  0  0
   -6.8730   25.4973  -28.6650 H   0  0  0  0  0  0  0  0  0  0  0  0
   -6.2263   26.1435  -30.2112 H   0  0  0  0  0  0  0  0  0  0  0  0
   -7.7116   25.1332  -30.2112 H   0  0  0  0  0  0  0  0  0  0  0  0
   -4.7530   24.3289  -28.1545 H   0  0  0  0  0  0  0  0  0  0  0  0
   -4.2406   22.9861  -29.2476 H   0  0  0  0  0  0  0  0  0  0  0  0
   -4.3997   22.1934  -31.1758 H   0  0  0  0  0  0  0  0  0  0  0  0
  1  2  1  0
  2  3  1  0
  3  4  1  0
  4  5  1  0
  5  6  1  0
  6  7  2  0
  6  8  1  0
  8  9  1  0
  9 10  1  0
 10 11  1  0
 10 12  2  0
  9 13  2  0
 13 14  1  0
 14 15  2  0
 15 16  1  0
 16 17  2  0
 17 18  1  0
 18 19  1  0
 18 20  1  0
 20 21  1  0
 21 22  2  0
 21 23  1  0
 17 24  1  0
 24 25  2  0
 25  8  1  0
 25 14  1  0
  1 26  1  0
  1 27  1  0
  1 28  1  0
  3 29  1  0
  3 30  1  0
  4 31  1  0
  4 32  1  0
 11 33  1  0
 11 34  1  0
 13 35  1  0
 15 36  1  0
 16 37  1  0
 19 38  1  0
 19 39  1  0
 19 40  1  0
 20 41  1  0
 20 42  1  0
 24 43  1  0
M  CHG  1  23  -1
M  END
>  <UniqueID>  (22) 
22

>  <SMILES>  (22) 
COCCOC(=O)n1c(C(N)=O)cc2ccc(N(C)CC(=O)[O-])cc21

>  <Energy>  (22) 
81.52797379988985

>  <Genealogy>  (22) 
COCCOC(=O)n1c(C(N)=O)cc2ccc(N(C)CC(=O)[O-])cc21 (protonated)
COCCOC(=O)n1c(C(N)=O)cc2ccc(N(C)CC(=O)[O-])cc21 (3D coordinates assigned)
COCCOC(=O)n1c(C(N)=O)cc2ccc(N(C)CC(=O)[O-])cc21 (optimized conformer: 81.52797379988985 kcal/mol)

>  <smiles>  (22) 
COCCOC(=O)n1c(C(N)=O)cc2ccc(N(C)CC(=O)O)cc21

>  <score_type>  (22) 
oracle

>  <origin>  (22) 
adg

>  <m_score__min__energy>  (22) 
-9.7599999999999998

>  <m_primary>  (22) 
energy

$$$$
22:0
     RDKit          3D

 70 72  0  0  0  0  0  0  0  0999 V2000
   -3.5090   21.6750  -27.6730 C   0  0  0  0  0  0  0  0  0  0  0  0
   -3.2090   22.6060  -28.8540 C   0  0  1  0  0  0  0  0  0  0  0  0
   -1.7490   23.0700  -28.8310 C   0  0  0  0  0  0  0  0  0  0  0  0
   -1.4350   23.7400  -30.0200 O   0  0  0  0  0  0  0  0  0  0  0  0
   -3.4540   21.9250  -30.0840 O   0  0  0  0  0  0  0  0  0  0  0  0
   -3.9880   22.5460  -31.2210 C   0  0  0  0  0  0  0  0  0  0  0  0
   -3.2800   22.7120  -32.2510 O   0  0  0  0  0  0  0  0  0  0  0  0
   -5.3600   22.9680  -31.2210 N   0  0  0  0  0  0  0  0  0  0  0  0
   -5.8630   24.1700  -30.8210 C   0  0  0  0  0  0  0  0  0  0  0  0
   -5.0670   25.3620  -30.4590 C   0  0  0  0  0  0  0  0  0  0  0  0
   -3.6420   25.2940  -30.4690 N   0  0  0  0  0  0  0  0  0  0  0  0
   -5.6310   26.4300  -30.1060 O   0  0  0  0  0  0  0  0  0  0  0  0
   -7.2560   24.1560  -30.8700 C   0  0  0  0  0  0  0  0  0  0  0  0
   -7.5930   22.8990  -31.3170 C   0  0  0  0  0  0  0  0  0  0  0  0
   -8.8460   22.3260  -31.5180 C   0  0  0  0  0  0  0  0  0  0  0  0
   -8.8990   20.9860  -31.9340 C   0  0  0  0  0  0  0  0  0  0  0  0
   -7.7070   20.2480  -32.1450 C   0  0  0  0  0  0  0  0  0  0  0  0
   -7.7770   18.7940  -32.5360 C   0  0  0  0  0  0  0  0  0  0  0  0
   -6.3870   18.1350  -32.5580 C   0  0  0  0  0  0  0  0  0  0  0  0
   -5.5980   18.4890  -33.8400 C   0  0  0  0  0  0  0  0  0  0  0  0
   -4.2820   19.1220  -33.5960 N   0  0  0  0  0  0  0  0  0  0  0  0
   -3.9660   19.2960  -32.1640 C   0  0  0  0  0  0  0  0  0  0  0  0
   -2.4990   19.7240  -31.9260 C   0  0  0  0  0  0  0  0  0  0  0  0
   -1.8640   20.2410  -33.1520 N   0  0  0  0  0  0  0  0  0  0  0  0
   -0.9070   21.3170  -33.0860 C   0  0  0  0  0  0  0  0  0  0  0  0
   -0.5850   21.8080  -31.9700 O   0  0  0  0  0  0  0  0  0  0  0  0
   -0.3380   21.8070  -34.2730 O   0  0  0  0  0  0  0  0  0  0  0  0
    0.8470   21.3180  -34.9170 C   0  0  0  0  0  0  0  0  0  0  0  0
    0.4830   20.4270  -36.1200 C   0  0  0  0  0  0  0  0  0  0  0  0
    1.6060   20.4710  -33.8840 C   0  0  0  0  0  0  0  0  0  0  0  0
    1.7460   22.4890  -35.3570 C   0  0  0  0  0  0  0  0  0  0  0  0
   -2.0430   19.5380  -34.4310 C   0  0  0  0  0  0  0  0  0  0  0  0
   -3.1730   18.5140  -34.3440 C   0  0  0  0  0  0  0  0  0  0  0  0
   -6.4530   20.8650  -31.9340 C   0  0  0  0  0  0  0  0  0  0  0  0
   -6.4320   22.2030  -31.5250 C   0  0  0  0  0  0  0  0  0  0  0  0
   -3.3358   22.2126  -26.7291 H   0  0  0  0  0  0  0  0  0  0  0  0
   -4.5581   21.3477  -27.7214 H   0  0  0  0  0  0  0  0  0  0  0  0
   -2.8484   20.7968  -27.7214 H   0  0  0  0  0  0  0  0  0  0  0  0
   -3.8666   23.4836  -28.7679 H   0  0  0  0  0  0  0  0  0  0  0  0
   -1.5974   23.7502  -27.9799 H   0  0  0  0  0  0  0  0  0  0  0  0
   -1.0950   22.1912  -28.7311 H   0  0  0  0  0  0  0  0  0  0  0  0
   -2.2240   23.6360  -30.6100 H   0  0  0  0  0  0  0  0  0  0  0  0
   -3.1430   24.5810  -31.0460 H   0  0  0  0  0  0  0  0  0  0  0  0
   -7.9406   24.9759  -30.6071 H   0  0  0  0  0  0  0  0  0  0  0  0
   -9.7667   22.9057  -31.3558 H   0  0  0  0  0  0  0  0  0  0  0  0
   -9.8743   20.5044  -32.0977 H   0  0  0  0  0  0  0  0  0  0  0  0
   -8.4109   18.2617  -31.8116 H   0  0  0  0  0  0  0  0  0  0  0  0
   -8.1967   18.7352  -33.5511 H   0  0  0  0  0  0  0  0  0  0  0  0
   -5.8165   18.4803  -31.6832 H   0  0  0  0  0  0  0  0  0  0  0  0
   -6.5278   17.0443  -32.5362 H   0  0  0  0  0  0  0  0  0  0  0  0
   -5.4332   17.5621  -34.4089 H   0  0  0  0  0  0  0  0  0  0  0  0
   -6.2037   19.2271  -34.3862 H   0  0  0  0  0  0  0  0  0  0  0  0
   -4.6301   20.0680  -31.7480 H   0  0  0  0  0  0  0  0  0  0  0  0
   -4.1137   18.3244  -31.6699 H   0  0  0  0  0  0  0  0  0  0  0  0
   -2.4798   20.5113  -31.1580 H   0  0  0  0  0  0  0  0  0  0  0  0
   -1.9362   18.8358  -31.6029 H   0  0  0  0  0  0  0  0  0  0  0  0
    0.0901   19.4653  -35.7584 H   0  0  0  0  0  0  0  0  0  0  0  0
   -0.2819   20.9294  -36.7303 H   0  0  0  0  0  0  0  0  0  0  0  0
    1.3809   20.2501  -36.7303 H   0  0  0  0  0  0  0  0  0  0  0  0
    1.3218   20.7882  -32.8698 H   0  0  0  0  0  0  0  0  0  0  0  0
    1.3509   19.4098  -34.0213 H   0  0  0  0  0  0  0  0  0  0  0  0
    2.6887   20.6086  -34.0213 H   0  0  0  0  0  0  0  0  0  0  0  0
    2.1404   23.0027  -34.4678 H   0  0  0  0  0  0  0  0  0  0  0  0
    2.5822   22.1033  -35.9587 H   0  0  0  0  0  0  0  0  0  0  0  0
    1.1574   23.1972  -35.9587 H   0  0  0  0  0  0  0  0  0  0  0  0
   -2.2836   20.2725  -35.2137 H   0  0  0  0  0  0  0  0  0  0  0  0
   -1.1096   19.0077  -34.6711 H   0  0  0  0  0  0  0  0  0  0  0  0
   -3.5096   18.2430  -35.3556 H   0  0  0  0  0  0  0  0  0  0  0  0
   -2.8241   17.6030  -33.8357 H   0  0  0  0  0  0  0  0  0  0  0  0
   -5.5173   20.3075  -32.0874 H   0  0  0  0  0  0  0  0  0  0  0  0
  1  2  1  0
  2  3  1  0
  3  4  1  0
  2  5  1  0
  5  6  1  0
  6  7  2  0
  6  8  1  0
  8  9  1  0
  9 10  1  0
 10 11  1  0
 10 12  2  0
  9 13  2  0
 13 14  1  0
 14 15  2  0
 15 16  1  0
 16 17  2  0
 17 18  1  0
 18 19  1  0
 19 20  1  0
 20 21  1  0
 21 22  1  0
 22 23  1  0
 23 24  1  0
 24 25  1  0
 25 26  2  0
 25 27  1  0
 27 28  1  0
 28 29  1  0
 28 30  1  0
 28 31  1  0
 24 32  1  0
 32 33  1  0
 17 34  1  0
 34 35  2  0
 35  8  1  0
 35 14  1  0
 33 21  1  0
  1 36  1  0
  1 37  1  0
  1 38  1  0
  2 39  1  1
  3 40  1  0
  3 41  1  0
  4 42  1  0
 11 43  1  0
 13 44  1  0
 15 45  1  0
 16 46  1  0
 18 47  1  0
 18 48  1  0
 19 49  1  0
 19 50  1  0
 20 51  1  0
 20 52  1  0
 22 53  1  0
 22 54  1  0
 23 55  1  0
 23 56  1  0
 29 57  1  0
 29 58  1  0
 29 59  1  0
 30 60  1  0
 30 61  1  0
 30 62  1  0
 31 63  1  0
 31 64  1  0
 31 65  1  0
 32 66  1  0
 32 67  1  0
 33 68  1  0
 33 69  1  0
 34 70  1  0
M  CHG  1  11  -1
M  END
>  <UniqueID>  (23) 
23

>  <SMILES>  (23) 
C[C@@H](CO)OC(=O)n1c(C([NH-])=O)cc2ccc(CCCN3CCN(C(=O)OC(C)(C)C)CC3)cc21

>  <Energy>  (23) 
102.81178584385823

>  <Genealogy>  (23) 
CC(CO)OC(=O)n1c(C([NH-])=O)cc2ccc(CCCN3CCN(C(=O)OC(C)(C)C)CC3)cc21 (protonated)
C[C@@H](CO)OC(=O)n1c(C([NH-])=O)cc2ccc(CCCN3CCN(C(=O)OC(C)(C)C)CC3)cc21 (chirality)
C[C@@H](CO)OC(=O)n1c(C([NH-])=O)cc2ccc(CCCN3CCN(C(=O)OC(C)(C)C)CC3)cc21 (3D coordinates assigned)
C[C@@H](CO)OC(=O)n1c(C([NH-])=O)cc2ccc(CCCN3CCN(C(=O)OC(C)(C)C)CC3)cc21 (nonaromatic ring conformer: 102.81178584385823 kcal/mol)

>  <smiles>  (23) 
CC(CO)OC(=O)n1c(C(N)=O)cc2ccc(CCCN3CCN(C(=O)OC(C)(C)C)CC3)cc21

>  <score_type>  (23) 
oracle

>  <origin>  (23) 
adg

>  <m_score__min__energy>  (23) 
-11.529999999999999

>  <m_primary>  (23) 
energy

$$$$
23:0
     RDKit          3D

 45 47  0  0  0  0  0  0  0  0999 V2000
   -3.6210   21.8990  -30.4050 C   0  0  0  0  0  0  0  0  0  0  0  0
   -2.4930   21.6490  -31.2980 N   0  0  0  0  0  0  0  0  0  0  0  0
   -1.1840   21.7520  -30.9930 C   0  0  0  0  0  0  0  0  0  0  0  0
   -0.3850   21.4600  -32.0400 N   0  0  0  0  0  0  0  0  0  0  0  0
   -1.2360   21.1680  -33.0460 C   0  0  0  0  0  0  0  0  0  0  0  0
   -2.5320   21.2960  -32.5960 C   0  0  0  0  0  0  0  0  0  0  0  0
   -3.7730   21.0070  -33.3850 C   0  0  0  0  0  0  0  0  0  0  0  0
   -4.0170   19.5260  -33.4550 C   0  0  0  0  0  0  0  0  0  0  0  0
   -3.0660   18.7590  -33.7630 O   0  0  0  0  0  0  0  0  0  0  0  0
   -5.3050   18.9720  -33.1390 N   0  0  0  0  0  0  0  0  0  0  0  0
   -5.7970   17.7560  -33.5120 C   0  0  0  0  0  0  0  0  0  0  0  0
   -5.0610   16.7090  -34.2540 C   0  0  0  0  0  0  0  0  0  0  0  0
   -4.2160   17.0280  -35.3590 N   0  0  0  0  0  0  0  0  0  0  0  0
   -5.1490   15.5100  -33.8760 O   0  0  0  0  0  0  0  0  0  0  0  0
   -7.1290   17.6270  -33.1290 C   0  0  0  0  0  0  0  0  0  0  0  0
   -7.4460   18.8130  -32.5100 C   0  0  0  0  0  0  0  0  0  0  0  0
   -8.6610   19.2490  -31.9870 C   0  0  0  0  0  0  0  0  0  0  0  0
   -8.7310   20.5600  -31.4900 C   0  0  0  0  0  0  0  0  0  0  0  0
   -7.5990   21.4100  -31.5360 C   0  0  0  0  0  0  0  0  0  0  0  0
   -7.7100   22.8380  -31.0720 C   0  0  0  0  0  0  0  0  0  0  0  0
   -6.9800   23.8020  -32.0140 C   0  0  0  0  0  0  0  0  0  0  0  0
   -5.6260   23.9930  -31.6040 O   0  0  0  0  0  0  0  0  0  0  0  0
   -5.2310   24.9130  -30.6250 C   0  0  0  0  0  0  0  0  0  0  0  0
   -3.8660   25.3120  -30.5540 N   0  0  0  0  0  0  0  0  0  0  0  0
   -6.0660   25.3900  -29.8100 O   0  0  0  0  0  0  0  0  0  0  0  0
   -6.3850   20.9340  -32.0800 C   0  0  0  0  0  0  0  0  0  0  0  0
   -6.3330   19.6120  -32.5370 C   0  0  0  0  0  0  0  0  0  0  0  0
   -3.2850   21.8245  -29.3602 H   0  0  0  0  0  0  0  0  0  0  0  0
   -4.0195   22.9073  -30.5910 H   0  0  0  0  0  0  0  0  0  0  0  0
   -4.4082   21.1535  -30.5910 H   0  0  0  0  0  0  0  0  0  0  0  0
   -0.8089   22.0420  -30.0004 H   0  0  0  0  0  0  0  0  0  0  0  0
   -0.9415   20.8742  -34.0643 H   0  0  0  0  0  0  0  0  0  0  0  0
   -4.6322   21.4932  -32.8999 H   0  0  0  0  0  0  0  0  0  0  0  0
   -3.6450   21.3959  -34.4060 H   0  0  0  0  0  0  0  0  0  0  0  0
   -3.9610   18.0140  -35.5780 H   0  0  0  0  0  0  0  0  0  0  0  0
   -3.7550   16.2650  -35.9030 H   0  0  0  0  0  0  0  0  0  0  0  0
   -7.7878   16.7605  -33.2878 H   0  0  0  0  0  0  0  0  0  0  0  0
   -9.5388   18.5864  -31.9641 H   0  0  0  0  0  0  0  0  0  0  0  0
   -9.6736   20.9305  -31.0609 H   0  0  0  0  0  0  0  0  0  0  0  0
   -8.7732   23.1173  -31.0310 H   0  0  0  0  0  0  0  0  0  0  0  0
   -7.2428   22.9117  -30.0789 H   0  0  0  0  0  0  0  0  0  0  0  0
   -6.9920   23.3872  -33.0327 H   0  0  0  0  0  0  0  0  0  0  0  0
   -7.4941   24.7741  -31.9869 H   0  0  0  0  0  0  0  0  0  0  0  0
   -3.4740   26.0040  -31.2300 H   0  0  0  0  0  0  0  0  0  0  0  0
   -5.5018   21.5867  -32.1429 H   0  0  0  0  0  0  0  0  0  0  0  0
  1  2  1  0
  2  3  1  0
  3  4  2  0
  4  5  1  0
  5  6  2  0
  6  7  1  0
  7  8  1  0
  8  9  2  0
  8 10  1  0
 10 11  1  0
 11 12  1  0
 12 13  1  0
 12 14  2  0
 11 15  2  0
 15 16  1  0
 16 17  2  0
 17 18  1  0
 18 19  2  0
 19 20  1  0
 20 21  1  0
 21 22  1  0
 22 23  1  0
 23 24  1  0
 23 25  2  0
 19 26  1  0
 26 27  2  0
  6  2  1  0
 27 10  1  0
 27 16  1  0
  1 28  1  0
  1 29  1  0
  1 30  1  0
  3 31  1  0
  5 32  1  0
  7 33  1  0
  7 34  1  0
 13 35  1  0
 13 36  1  0
 15 37  1  0
 17 38  1  0
 18 39  1  0
 20 40  1  0
 20 41  1  0
 21 42  1  0
 21 43  1  0
 24 44  1  0
 26 45  1  0
M  CHG  1  24  -1
M  END
>  <UniqueID>  (24) 
24

>  <SMILES>  (24) 
Cn1cncc1CC(=O)n1c(C(N)=O)cc2ccc(CCOC([NH-])=O)cc21

>  <Energy>  (24) 
108.5739520674558

>  <Genealogy>  (24) 
Cn1cncc1CC(=O)n1c(C(N)=O)cc2ccc(CCOC([NH-])=O)cc21 (protonated)
Cn1cncc1CC(=O)n1c(C(N)=O)cc2ccc(CCOC([NH-])=O)cc21 (3D coordinates assigned)
Cn1cncc1CC(=O)n1c(C(N)=O)cc2ccc(CCOC([NH-])=O)cc21 (optimized conformer: 108.5739520674558 kcal/mol)

>  <smiles>  (24) 
Cn1cncc1CC(=O)n1c(C(N)=O)cc2ccc(CCOC(N)=O)cc21

>  <score_type>  (24) 
oracle

>  <origin>  (24) 
adg

>  <m_score__min__energy>  (24) 
-10.550000000000001

>  <m_primary>  (24) 
energy

$$$$
24:0
     RDKit          3D

 59 60  0  0  0  0  0  0  0  0999 V2000
   -3.4290   20.6230  -33.4590 C   0  0  0  0  0  0  0  0  0  0  0  0
   -3.9960   19.2700  -33.2980 N   0  0  0  0  0  0  0  0  0  0  0  0
   -2.9380   18.2800  -33.5530 C   0  0  0  0  0  0  0  0  0  0  0  0
   -5.1230   19.0520  -34.2310 C   0  0  0  0  0  0  0  0  0  0  0  0
   -5.2930   17.5710  -34.6000 C   0  0  0  0  0  0  0  0  0  0  0  0
   -6.2100   16.9170  -33.7250 O   0  0  0  0  0  0  0  0  0  0  0  0
   -6.0580   16.8540  -32.3340 C   0  0  0  0  0  0  0  0  0  0  0  0
   -5.3340   15.9710  -31.8010 O   0  0  0  0  0  0  0  0  0  0  0  0
   -6.7720   17.8510  -31.4740 C   0  0  0  0  0  0  0  0  0  0  0  0
   -7.7750   18.6870  -32.2780 C   0  0  0  0  0  0  0  0  0  0  0  0
   -7.7420   20.1430  -31.8860 C   0  0  0  0  0  0  0  0  0  0  0  0
   -8.9430   20.8930  -31.8290 C   0  0  0  0  0  0  0  0  0  0  0  0
   -8.9210   22.2560  -31.4910 C   0  0  0  0  0  0  0  0  0  0  0  0
   -7.6860   22.8430  -31.2290 C   0  0  0  0  0  0  0  0  0  0  0  0
   -7.3800   24.1330  -30.8580 C   0  0  0  0  0  0  0  0  0  0  0  0
   -5.9930   24.1560  -30.7170 C   0  0  0  0  0  0  0  0  0  0  0  0
   -5.2270   25.3790  -30.4000 C   0  0  0  0  0  0  0  0  0  0  0  0
   -3.8810   25.5360  -30.8390 N   0  0  0  0  0  0  0  0  0  0  0  0
   -5.7840   26.3180  -29.7700 O   0  0  0  0  0  0  0  0  0  0  0  0
   -5.4660   22.9280  -30.9860 N   0  0  0  0  0  0  0  0  0  0  0  0
   -4.0980   22.5140  -30.8630 C   0  0  0  0  0  0  0  0  0  0  0  0
   -3.2120   23.0520  -31.5830 O   0  0  0  0  0  0  0  0  0  0  0  0
   -3.7610   21.4950  -29.9650 O   0  0  0  0  0  0  0  0  0  0  0  0
   -3.0320   21.7180  -28.7580 C   0  0  0  0  0  0  0  0  0  0  0  0
   -2.0670   22.9010  -28.9100 C   0  0  0  0  0  0  0  0  0  0  0  0
   -2.7100   24.1660  -28.4860 N   0  0  0  0  0  0  0  0  0  0  0  0
   -1.7450   25.0500  -27.8110 C   0  0  0  0  0  0  0  0  0  0  0  0
   -3.8390   23.8860  -27.5850 C   0  0  0  0  0  0  0  0  0  0  0  0
   -6.5150   22.1360  -31.2960 C   0  0  0  0  0  0  0  0  0  0  0  0
   -6.5080   20.7710  -31.6050 C   0  0  0  0  0  0  0  0  0  0  0  0
   -3.2444   21.0635  -32.4681 H   0  0  0  0  0  0  0  0  0  0  0  0
   -2.4816   20.5598  -34.0145 H   0  0  0  0  0  0  0  0  0  0  0  0
   -4.1383   21.2541  -34.0145 H   0  0  0  0  0  0  0  0  0  0  0  0
   -2.5431   17.9105  -32.5952 H   0  0  0  0  0  0  0  0  0  0  0  0
   -3.3536   17.4389  -34.1273 H   0  0  0  0  0  0  0  0  0  0  0  0
   -2.1263   18.7505  -34.1273 H   0  0  0  0  0  0  0  0  0  0  0  0
   -6.0495   19.4073  -33.7564 H   0  0  0  0  0  0  0  0  0  0  0  0
   -4.9080   19.6077  -35.1557 H   0  0  0  0  0  0  0  0  0  0  0  0
   -5.6701   17.5004  -35.6309 H   0  0  0  0  0  0  0  0  0  0  0  0
   -4.3145   17.0772  -34.5067 H   0  0  0  0  0  0  0  0  0  0  0  0
   -7.3124   17.3137  -30.6807 H   0  0  0  0  0  0  0  0  0  0  0  0
   -6.0214   18.5345  -31.0504 H   0  0  0  0  0  0  0  0  0  0  0  0
   -7.5313   18.6018  -33.3473 H   0  0  0  0  0  0  0  0  0  0  0  0
   -8.7835   18.3019  -32.0669 H   0  0  0  0  0  0  0  0  0  0  0  0
   -9.9022   20.4027  -32.0517 H   0  0  0  0  0  0  0  0  0  0  0  0
   -9.8505   22.8415  -31.4350 H   0  0  0  0  0  0  0  0  0  0  0  0
   -8.0803   24.9675  -30.7054 H   0  0  0  0  0  0  0  0  0  0  0  0
   -3.1190   24.9280  -30.4650 H   0  0  0  0  0  0  0  0  0  0  0  0
   -3.7403   21.9336  -27.9444 H   0  0  0  0  0  0  0  0  0  0  0  0
   -2.4468   20.8150  -28.5298 H   0  0  0  0  0  0  0  0  0  0  0  0
   -1.1779   22.7227  -28.2873 H   0  0  0  0  0  0  0  0  0  0  0  0
   -1.7833   22.9890  -29.9691 H   0  0  0  0  0  0  0  0  0  0  0  0
   -1.8553   24.9490  -26.7212 H   0  0  0  0  0  0  0  0  0  0  0  0
   -0.7228   24.7684  -28.1038 H   0  0  0  0  0  0  0  0  0  0  0  0
   -1.9361   26.0930  -28.1038 H   0  0  0  0  0  0  0  0  0  0  0  0
   -3.5039   23.9691  -26.5406 H   0  0  0  0  0  0  0  0  0  0  0  0
   -4.6448   24.6115  -27.7704 H   0  0  0  0  0  0  0  0  0  0  0  0
   -4.2124   22.8680  -27.7704 H   0  0  0  0  0  0  0  0  0  0  0  0
   -5.5668   20.2022  -31.6285 H   0  0  0  0  0  0  0  0  0  0  0  0
  1  2  1  0
  2  3  1  0
  2  4  1  0
  4  5  1  0
  5  6  1  0
  6  7  1  0
  7  8  2  0
  7  9  1  0
  9 10  1  0
 10 11  1  0
 11 12  2  0
 12 13  1  0
 13 14  2  0
 14 15  1  0
 15 16  2  0
 16 17  1  0
 17 18  1  0
 17 19  2  0
 16 20  1  0
 20 21  1  0
 21 22  2  0
 21 23  1  0
 23 24  1  0
 24 25  1  0
 25 26  1  0
 26 27  1  0
 26 28  1  0
 20 29  1  0
 29 30  2  0
 30 11  1  0
 29 14  1  0
  1 31  1  0
  1 32  1  0
  1 33  1  0
  3 34  1  0
  3 35  1  0
  3 36  1  0
  4 37  1  0
  4 38  1  0
  5 39  1  0
  5 40  1  0
  9 41  1  0
  9 42  1  0
 10 43  1  0
 10 44  1  0
 12 45  1  0
 13 46  1  0
 15 47  1  0
 18 48  1  0
 24 49  1  0
 24 50  1  0
 25 51  1  0
 25 52  1  0
 27 53  1  0
 27 54  1  0
 27 55  1  0
 28 56  1  0
 28 57  1  0
 28 58  1  0
 30 59  1  0
M  CHG  1  18  -1
M  END
>  <UniqueID>  (25) 
25

>  <SMILES>  (25) 
CN(C)CCOC(=O)CCc1ccc2cc(C([NH-])=O)n(C(=O)OCCN(C)C)c2c1

>  <Energy>  (25) 
86.81659241509644

>  <Genealogy>  (25) 
CN(C)CCOC(=O)CCc1ccc2cc(C([NH-])=O)n(C(=O)OCCN(C)C)c2c1 (protonated)
CN(C)CCOC(=O)CCc1ccc2cc(C([NH-])=O)n(C(=O)OCCN(C)C)c2c1 (3D coordinates assigned)
CN(C)CCOC(=O)CCc1ccc2cc(C([NH-])=O)n(C(=O)OCCN(C)C)c2c1 (optimized conformer: 86.81659241509644 kcal/mol)

>  <smiles>  (25) 
CN(C)CCOC(=O)CCc1ccc2cc(C(N)=O)n(C(=O)OCCN(C)C)c2c1

>  <score_type>  (25) 
oracle

>  <origin>  (25) 
adg

>  <m_score__min__energy>  (25) 
-9.8300000000000001

>  <m_primary>  (25) 
energy

$$$$
25:0
     RDKit          3D

 30 31  0  0  0  0  0  0  0  0999 V2000
   -3.8730   25.3130  -30.6070 N   0  0  0  0  0  0  0  0  0  0  0  0
   -5.2780   25.1470  -30.4280 C   0  0  0  0  0  0  0  0  0  0  0  0
   -5.9390   26.0570  -29.8600 O   0  0  0  0  0  0  0  0  0  0  0  0
   -5.9470   23.9310  -30.9330 C   0  0  0  0  0  0  0  0  0  0  0  0
   -7.3210   23.8290  -31.1400 C   0  0  0  0  0  0  0  0  0  0  0  0
   -7.5340   22.5270  -31.5360 C   0  0  0  0  0  0  0  0  0  0  0  0
   -8.7140   21.8750  -31.8850 C   0  0  0  0  0  0  0  0  0  0  0  0
   -8.6300   20.5270  -32.2760 C   0  0  0  0  0  0  0  0  0  0  0  0
   -7.3800   19.8610  -32.3100 C   0  0  0  0  0  0  0  0  0  0  0  0
   -7.2930   18.4260  -32.7490 C   0  0  0  0  0  0  0  0  0  0  0  0
   -6.0890   17.8870  -32.3340 F   0  0  0  0  0  0  0  0  0  0  0  0
   -8.3330   17.7030  -32.1960 F   0  0  0  0  0  0  0  0  0  0  0  0
   -6.2040   20.5570  -31.9530 C   0  0  0  0  0  0  0  0  0  0  0  0
   -6.3210   21.8930  -31.5600 C   0  0  0  0  0  0  0  0  0  0  0  0
   -5.3370   22.7410  -31.1980 N   0  0  0  0  0  0  0  0  0  0  0  0
   -3.9360   22.4390  -31.1600 C   0  0  0  0  0  0  0  0  0  0  0  0
   -3.3020   22.2820  -32.2380 O   0  0  0  0  0  0  0  0  0  0  0  0
   -3.1960   22.4160  -29.8550 C   0  0  0  0  0  0  0  0  0  0  0  0
   -1.7080   22.6760  -30.0730 C   0  0  0  0  0  0  0  0  0  0  0  0
   -1.3830   23.9620  -29.6770 F   0  0  0  0  0  0  0  0  0  0  0  0
   -3.4950   26.0460  -31.2460 H   0  0  0  0  0  0  0  0  0  0  0  0
   -8.0751   24.6198  -31.0140 H   0  0  0  0  0  0  0  0  0  0  0  0
   -9.6812   22.3980  -31.8557 H   0  0  0  0  0  0  0  0  0  0  0  0
   -9.5440   19.9840  -32.5583 H   0  0  0  0  0  0  0  0  0  0  0  0
   -7.3596   18.3798  -33.8460 H   0  0  0  0  0  0  0  0  0  0  0  0
   -5.2227   20.0609  -31.9835 H   0  0  0  0  0  0  0  0  0  0  0  0
   -3.6054   23.1943  -29.1942 H   0  0  0  0  0  0  0  0  0  0  0  0
   -3.3178   21.4232  -29.3972 H   0  0  0  0  0  0  0  0  0  0  0  0
   -1.1232   21.9555  -29.4824 H   0  0  0  0  0  0  0  0  0  0  0  0
   -1.4771   22.5613  -31.1424 H   0  0  0  0  0  0  0  0  0  0  0  0
  1  2  1  0
  2  3  2  0
  2  4  1  0
  4  5  2  0
  5  6  1  0
  6  7  2  0
  7  8  1  0
  8  9  2  0
  9 10  1  0
 10 11  1  0
 10 12  1  0
  9 13  1  0
 13 14  2  0
 14 15  1  0
 15 16  1  0
 16 17  2  0
 16 18  1  0
 18 19  1  0
 19 20  1  0
 15  4  1  0
 14  6  1  0
  1 21  1  0
  5 22  1  0
  7 23  1  0
  8 24  1  0
 10 25  1  0
 13 26  1  0
 18 27  1  0
 18 28  1  0
 19 29  1  0
 19 30  1  0
M  CHG  1   1  -1
M  END
>  <UniqueID>  (26) 
26

>  <SMILES>  (26) 
[NH-]C(=O)c1cc2ccc(C(F)F)cc2n1C(=O)CCF

>  <Energy>  (26) 
65.89149623614817

>  <Genealogy>  (26) 
[NH-]C(=O)c1cc2ccc(C(F)F)cc2n1C(=O)CCF (protonated)
[NH-]C(=O)c1cc2ccc(C(F)F)cc2n1C(=O)CCF (3D coordinates assigned)
[NH-]C(=O)c1cc2ccc(C(F)F)cc2n1C(=O)CCF (optimized conformer: 65.89149623614817 kcal/mol)

>  <smiles>  (26) 
NC(=O)c1cc2ccc(C(F)F)cc2n1C(=O)CCF

>  <score_type>  (26) 
oracle

>  <origin>  (26) 
adg

>  <m_score__min__energy>  (26) 
-9.2599999999999998

>  <m_primary>  (26) 
energy

$$$$
26:0
     RDKit          3D

 44 46  0  0  0  0  0  0  0  0999 V2000
   -6.2360   25.5200  -29.3140 C   0  0  0  0  0  0  0  0  0  0  0  0
   -5.5480   24.3200  -29.7970 N   0  0  0  0  0  0  0  0  0  0  0  0
   -6.1540   22.9950  -29.6280 C   0  0  0  0  0  0  0  0  0  0  0  0
   -4.3070   24.4530  -30.5130 C   0  0  0  0  0  0  0  0  0  0  0  0
   -3.9790   25.5640  -31.0110 O   0  0  0  0  0  0  0  0  0  0  0  0
   -3.4170   23.3340  -30.6430 N   0  0  0  0  0  0  0  0  0  0  0  0
   -2.1760   23.1780  -30.1050 C   0  0  0  0  0  0  0  0  0  0  0  0
   -1.4380   24.1920  -29.3200 C   0  0  0  0  0  0  0  0  0  0  0  0
   -2.0470   25.4290  -28.9600 N   0  0  0  0  0  0  0  0  0  0  0  0
   -0.2440   23.9740  -28.9840 O   0  0  0  0  0  0  0  0  0  0  0  0
   -1.6590   21.9260  -30.4370 C   0  0  0  0  0  0  0  0  0  0  0  0
   -2.6320   21.3190  -31.2000 C   0  0  0  0  0  0  0  0  0  0  0  0
   -2.6480   20.0700  -31.8100 C   0  0  0  0  0  0  0  0  0  0  0  0
   -3.7920   19.7090  -32.5420 C   0  0  0  0  0  0  0  0  0  0  0  0
   -4.8970   20.5960  -32.6560 C   0  0  0  0  0  0  0  0  0  0  0  0
   -6.1330   20.1670  -33.4340 C   0  0  0  0  0  0  0  0  0  0  0  0
   -7.4530   20.5720  -32.7270 C   0  0  0  0  0  0  0  0  0  0  0  0
   -8.4410   19.4040  -32.6250 C   0  0  0  0  0  0  0  0  0  0  0  0
   -7.8170   18.2410  -31.9830 N   0  0  0  0  0  0  0  0  0  0  0  0
   -6.6020   17.7490  -32.6690 C   0  0  0  0  0  0  0  0  0  0  0  0
   -6.0790   18.6660  -33.7940 C   0  0  0  0  0  0  0  0  0  0  0  0
   -4.8380   21.8550  -32.0130 C   0  0  0  0  0  0  0  0  0  0  0  0
   -3.6820   22.1880  -31.3040 C   0  0  0  0  0  0  0  0  0  0  0  0
   -6.2381   25.5237  -28.2140 H   0  0  0  0  0  0  0  0  0  0  0  0
   -5.7140   26.4153  -29.6827 H   0  0  0  0  0  0  0  0  0  0  0  0
   -7.2724   25.5219  -29.6827 H   0  0  0  0  0  0  0  0  0  0  0  0
   -6.2558   22.7724  -28.5556 H   0  0  0  0  0  0  0  0  0  0  0  0
   -7.1471   22.9830  -30.1008 H   0  0  0  0  0  0  0  0  0  0  0  0
   -5.5136   22.2359  -30.1008 H   0  0  0  0  0  0  0  0  0  0  0  0
   -3.0030   25.6750  -29.2960 H   0  0  0  0  0  0  0  0  0  0  0  0
   -0.6814   21.5112  -30.1503 H   0  0  0  0  0  0  0  0  0  0  0  0
   -1.7916   19.3853  -31.7224 H   0  0  0  0  0  0  0  0  0  0  0  0
   -3.8330   18.7259  -33.0338 H   0  0  0  0  0  0  0  0  0  0  0  0
   -6.1278   20.7221  -34.3837 H   0  0  0  0  0  0  0  0  0  0  0  0
   -7.2168   20.9251  -31.7123 H   0  0  0  0  0  0  0  0  0  0  0  0
   -7.9273   21.3623  -33.3274 H   0  0  0  0  0  0  0  0  0  0  0  0
   -9.3107   19.7196  -32.0300 H   0  0  0  0  0  0  0  0  0  0  0  0
   -8.7517   19.1184  -33.6408 H   0  0  0  0  0  0  0  0  0  0  0  0
   -7.5750   18.4970  -30.9970 H   0  0  0  0  0  0  0  0  0  0  0  0
   -5.8055   17.6398  -31.9182 H   0  0  0  0  0  0  0  0  0  0  0  0
   -6.8798   16.7985  -33.1478 H   0  0  0  0  0  0  0  0  0  0  0  0
   -5.0343   18.3956  -34.0074 H   0  0  0  0  0  0  0  0  0  0  0  0
   -6.7325   18.5166  -34.6661 H   0  0  0  0  0  0  0  0  0  0  0  0
   -5.6839   22.5558  -32.0703 H   0  0  0  0  0  0  0  0  0  0  0  0
  1  2  1  0
  2  3  1  0
  2  4  1  0
  4  5  2  0
  4  6  1  0
  6  7  1  0
  7  8  1  0
  8  9  1  0
  8 10  2  0
  7 11  2  0
 11 12  1  0
 12 13  2  0
 13 14  1  0
 14 15  2  0
 15 16  1  0
 16 17  1  0
 17 18  1  0
 18 19  1  0
 19 20  1  0
 20 21  1  0
 15 22  1  0
 22 23  2  0
 23  6  1  0
 23 12  1  0
 21 16  1  0
  1 24  1  0
  1 25  1  0
  1 26  1  0
  3 27  1  0
  3 28  1  0
  3 29  1  0
  9 30  1  0
 11 31  1  0
 13 32  1  0
 14 33  1  0
 16 34  1  0
 17 35  1  0
 17 36  1  0
 18 37  1  0
 18 38  1  0
 19 39  1  0
 20 40  1  0
 20 41  1  0
 21 42  1  0
 21 43  1  0
 22 44  1  0
M  CHG  1   9  -1
M  END
>  <UniqueID>  (27) 
27

>  <SMILES>  (27) 
CN(C)C(=O)n1c(C([NH-])=O)cc2ccc(C3CCNCC3)cc21

>  <Energy>  (27) 
90.03618133862999

>  <Genealogy>  (27) 
CN(C)C(=O)n1c(C([NH-])=O)cc2ccc(C3CCNCC3)cc21 (protonated)
CN(C)C(=O)n1c(C([NH-])=O)cc2ccc(C3CCNCC3)cc21 (3D coordinates assigned)
CN(C)C(=O)n1c(C([NH-])=O)cc2ccc(C3CCNCC3)cc21 (nonaromatic ring conformer: 90.03618133862999 kcal/mol)

>  <smiles>  (27) 
CN(C)C(=O)n1c(C(N)=O)cc2ccc(C3CCNCC3)cc21

>  <score_type>  (27) 
oracle

>  <origin>  (27) 
adg

>  <m_score__min__energy>  (27) 
-11.5

>  <m_primary>  (27) 
energy

$$$$
27:0
     RDKit          3D

 25 26  0  0  0  0  0  0  0  0999 V2000
   -5.6850   26.4470  -30.2550 N   0  0  0  0  0  0  0  0  0  0  0  0
   -6.5180   25.3040  -30.0520 C   0  0  0  0  0  0  0  0  0  0  0  0
   -7.5090   25.3930  -29.2800 O   0  0  0  0  0  0  0  0  0  0  0  0
   -6.2770   24.0440  -30.7820 C   0  0  0  0  0  0  0  0  0  0  0  0
   -7.2970   23.2730  -31.3310 C   0  0  0  0  0  0  0  0  0  0  0  0
   -6.6610   22.2360  -31.9730 C   0  0  0  0  0  0  0  0  0  0  0  0
   -7.1960   21.1610  -32.6790 C   0  0  0  0  0  0  0  0  0  0  0  0
   -6.3050   20.2140  -33.2090 C   0  0  0  0  0  0  0  0  0  0  0  0
   -4.9080   20.3510  -33.0190 C   0  0  0  0  0  0  0  0  0  0  0  0
   -3.9750   19.3150  -33.5790 C   0  0  0  0  0  0  0  0  0  0  0  0
   -2.8680   19.9320  -34.1320 F   0  0  0  0  0  0  0  0  0  0  0  0
   -4.6250   18.5830  -34.5550 F   0  0  0  0  0  0  0  0  0  0  0  0
   -4.4020   21.4530  -32.2950 C   0  0  0  0  0  0  0  0  0  0  0  0
   -5.3100   22.3950  -31.7950 C   0  0  0  0  0  0  0  0  0  0  0  0
   -5.0580   23.5030  -31.0590 N   0  0  0  0  0  0  0  0  0  0  0  0
   -3.7790   23.9380  -30.5660 C   0  0  0  0  0  0  0  0  0  0  0  0
   -2.9090   23.0980  -30.2150 O   0  0  0  0  0  0  0  0  0  0  0  0
   -3.4910   25.2930  -30.4660 O   0  0  0  0  0  0  0  0  0  0  0  0
   -5.8480   27.3190  -29.7040 H   0  0  0  0  0  0  0  0  0  0  0  0
   -4.9610   26.4600  -31.0060 H   0  0  0  0  0  0  0  0  0  0  0  0
   -8.3800   23.4540  -31.2656 H   0  0  0  0  0  0  0  0  0  0  0  0
   -8.2824   21.0572  -32.8170 H   0  0  0  0  0  0  0  0  0  0  0  0
   -6.6958   19.3572  -33.7774 H   0  0  0  0  0  0  0  0  0  0  0  0
   -3.6537   18.6447  -32.7682 H   0  0  0  0  0  0  0  0  0  0  0  0
   -3.3210   21.5687  -32.1278 H   0  0  0  0  0  0  0  0  0  0  0  0
  1  2  1  0
  2  3  2  0
  2  4  1  0
  4  5  2  0
  5  6  1  0
  6  7  2  0
  7  8  1  0
  8  9  2  0
  9 10  1  0
 10 11  1  0
 10 12  1  0
  9 13  1  0
 13 14  2  0
 14 15  1  0
 15 16  1  0
 16 17  2  0
 16 18  1  0
 15  4  1  0
 14  6  1  0
  1 19  1  0
  1 20  1  0
  5 21  1  0
  7 22  1  0
  8 23  1  0
 10 24  1  0
 13 25  1  0
M  CHG  1  18  -1
M  END
>  <UniqueID>  (28) 
28

>  <SMILES>  (28) 
NC(=O)c1cc2ccc(C(F)F)cc2n1C(=O)[O-]

>  <Energy>  (28) 
65.25634284185193

>  <Genealogy>  (28) 
NC(=O)c1cc2ccc(C(F)F)cc2n1C(=O)[O-] (protonated)
NC(=O)c1cc2ccc(C(F)F)cc2n1C(=O)[O-] (3D coordinates assigned)
NC(=O)c1cc2ccc(C(F)F)cc2n1C(=O)[O-] (optimized conformer: 65.25634284185193 kcal/mol)

>  <smiles>  (28) 
NC(=O)c1cc2ccc(C(F)F)cc2n1C(=O)O

>  <score_type>  (28) 
oracle

>  <origin>  (28) 
adg

>  <m_score__min__energy>  (28) 
-7.9299999999999997

>  <m_primary>  (28) 
energy

$$$$
28:0
     RDKit          3D

 34 35  0  0  0  0  0  0  0  0999 V2000
   -7.5280   18.4320  -31.6330 C   0  0  0  0  0  0  0  0  0  0  0  0
   -7.0780   19.8920  -31.7650 C   0  0  2  0  0  0  0  0  0  0  0  0
   -8.1740   20.7620  -32.3160 C   0  0  0  0  0  0  0  0  0  0  0  0
   -9.2380   20.2380  -32.7380 O   0  0  0  0  0  0  0  0  0  0  0  0
   -8.0530   22.1480  -32.3100 O   0  0  0  0  0  0  0  0  0  0  0  0
   -5.8670   19.9950  -32.6000 N   0  0  0  0  0  0  0  0  0  0  0  0
   -5.8840   19.6030  -34.0100 C   0  0  0  0  0  0  0  0  0  0  0  0
   -4.6370   20.5020  -32.0600 C   0  0  0  0  0  0  0  0  0  0  0  0
   -3.4640   19.7130  -32.1200 C   0  0  0  0  0  0  0  0  0  0  0  0
   -2.2510   20.1980  -31.6010 C   0  0  0  0  0  0  0  0  0  0  0  0
   -2.2510   21.4600  -31.0140 C   0  0  0  0  0  0  0  0  0  0  0  0
   -1.2170   22.1790  -30.4590 C   0  0  0  0  0  0  0  0  0  0  0  0
   -1.7860   23.3770  -30.0350 C   0  0  0  0  0  0  0  0  0  0  0  0
   -1.0350   24.4140  -29.2970 C   0  0  0  0  0  0  0  0  0  0  0  0
   -1.6380   25.6630  -28.9670 N   0  0  0  0  0  0  0  0  0  0  0  0
    0.1390   24.1740  -28.9070 O   0  0  0  0  0  0  0  0  0  0  0  0
   -3.1190   23.4050  -30.3240 N   0  0  0  0  0  0  0  0  0  0  0  0
   -4.0410   24.4900  -30.1330 C   0  0  0  0  0  0  0  0  0  0  0  0
   -4.9770   24.3900  -29.2970 O   0  0  0  0  0  0  0  0  0  0  0  0
   -3.8950   25.6700  -30.8520 O   0  0  0  0  0  0  0  0  0  0  0  0
   -3.3880   22.2220  -30.9210 C   0  0  0  0  0  0  0  0  0  0  0  0
   -4.6040   21.7720  -31.4480 C   0  0  0  0  0  0  0  0  0  0  0  0
   -7.6093   18.1682  -30.5682 H   0  0  0  0  0  0  0  0  0  0  0  0
   -8.5070   18.3048  -32.1181 H   0  0  0  0  0  0  0  0  0  0  0  0
   -6.7904   17.7757  -32.1181 H   0  0  0  0  0  0  0  0  0  0  0  0
   -6.8381   20.2545  -30.7545 H   0  0  0  0  0  0  0  0  0  0  0  0
   -5.9315   18.5066  -34.0852 H   0  0  0  0  0  0  0  0  0  0  0  0
   -6.7639   20.0428  -34.5023 H   0  0  0  0  0  0  0  0  0  0  0  0
   -4.9693   19.9650  -34.5023 H   0  0  0  0  0  0  0  0  0  0  0  0
   -3.5016   18.7127  -32.5761 H   0  0  0  0  0  0  0  0  0  0  0  0
   -1.3303   19.5987  -31.6570 H   0  0  0  0  0  0  0  0  0  0  0  0
   -0.1644   21.8723  -30.3694 H   0  0  0  0  0  0  0  0  0  0  0  0
   -2.6640   25.8110  -29.0830 H   0  0  0  0  0  0  0  0  0  0  0  0
   -5.5101   22.3926  -31.3864 H   0  0  0  0  0  0  0  0  0  0  0  0
  1  2  1  0
  2  3  1  0
  3  4  2  0
  3  5  1  0
  2  6  1  0
  6  7  1  0
  6  8  1  0
  8  9  2  0
  9 10  1  0
 10 11  2  0
 11 12  1  0
 12 13  2  0
 13 14  1  0
 14 15  1  0
 14 16  2  0
 13 17  1  0
 17 18  1  0
 18 19  2  0
 18 20  1  0
 17 21  1  0
 21 22  2  0
 22  8  1  0
 21 11  1  0
  1 23  1  0
  1 24  1  0
  1 25  1  0
  2 26  1  1
  7 27  1  0
  7 28  1  0
  7 29  1  0
  9 30  1  0
 10 31  1  0
 12 32  1  0
 15 33  1  0
 22 34  1  0
M  CHG  3   5  -1  15  -1  20  -1
M  END
>  <UniqueID>  (29) 
29

>  <SMILES>  (29) 
C[C@H](C(=O)[O-])N(C)c1ccc2cc(C([NH-])=O)n(C(=O)[O-])c2c1

>  <Energy>  (29) 
76.80252027451921

>  <Genealogy>  (29) 
CC(C(=O)[O-])N(C)c1ccc2cc(C([NH-])=O)n(C(=O)[O-])c2c1 (protonated)
C[C@H](C(=O)[O-])N(C)c1ccc2cc(C([NH-])=O)n(C(=O)[O-])c2c1 (chirality)
C[C@H](C(=O)[O-])N(C)c1ccc2cc(C([NH-])=O)n(C(=O)[O-])c2c1 (3D coordinates assigned)
C[C@H](C(=O)[O-])N(C)c1ccc2cc(C([NH-])=O)n(C(=O)[O-])c2c1 (optimized conformer: 76.80252027451921 kcal/mol)

>  <smiles>  (29) 
CC(C(=O)O)N(C)c1ccc2cc(C(N)=O)n(C(=O)O)c2c1

>  <score_type>  (29) 
oracle

>  <origin>  (29) 
adg

>  <m_score__min__energy>  (29) 
-10.6

>  <m_primary>  (29) 
energy

$$$$
29:0
     RDKit          3D

 28 29  0  0  0  0  0  0  0  0999 V2000
   -2.1380   20.8950  -32.3850 C   0  0  0  0  0  0  0  0  0  0  0  0
   -2.9110   22.0790  -32.5370 O   0  0  0  0  0  0  0  0  0  0  0  0
   -3.5560   22.7020  -31.4650 C   0  0  0  0  0  0  0  0  0  0  0  0
   -2.8870   23.1430  -30.4900 O   0  0  0  0  0  0  0  0  0  0  0  0
   -4.9880   22.8150  -31.4630 N   0  0  0  0  0  0  0  0  0  0  0  0
   -5.7480   23.8250  -30.9500 C   0  0  0  0  0  0  0  0  0  0  0  0
   -5.2420   25.1000  -30.3970 C   0  0  0  0  0  0  0  0  0  0  0  0
   -4.0030   25.6320  -30.8610 N   0  0  0  0  0  0  0  0  0  0  0  0
   -5.8740   25.7080  -29.4940 O   0  0  0  0  0  0  0  0  0  0  0  0
   -7.1040   23.5330  -31.0870 C   0  0  0  0  0  0  0  0  0  0  0  0
   -7.1520   22.3080  -31.7120 C   0  0  0  0  0  0  0  0  0  0  0  0
   -8.2480   21.5320  -32.0750 C   0  0  0  0  0  0  0  0  0  0  0  0
   -8.0030   20.2860  -32.6770 C   0  0  0  0  0  0  0  0  0  0  0  0
   -6.6760   19.8440  -32.9160 C   0  0  0  0  0  0  0  0  0  0  0  0
   -6.4260   18.4790  -33.5050 C   0  0  0  0  0  0  0  0  0  0  0  0
   -5.3670   17.8580  -32.8650 F   0  0  0  0  0  0  0  0  0  0  0  0
   -6.1190   18.5780  -34.8520 F   0  0  0  0  0  0  0  0  0  0  0  0
   -7.5600   17.7050  -33.3560 F   0  0  0  0  0  0  0  0  0  0  0  0
   -5.5880   20.6530  -32.5100 C   0  0  0  0  0  0  0  0  0  0  0  0
   -5.8630   21.8970  -31.9290 C   0  0  0  0  0  0  0  0  0  0  0  0
   -1.9993   20.6826  -31.3147 H   0  0  0  0  0  0  0  0  0  0  0  0
   -2.6605   20.0523  -32.8614 H   0  0  0  0  0  0  0  0  0  0  0  0
   -1.1563   21.0343  -32.8614 H   0  0  0  0  0  0  0  0  0  0  0  0
   -3.0960   25.2990  -30.4670 H   0  0  0  0  0  0  0  0  0  0  0  0
   -7.9550   24.1506  -30.7641 H   0  0  0  0  0  0  0  0  0  0  0  0
   -9.2751   21.8830  -31.8963 H   0  0  0  0  0  0  0  0  0  0  0  0
   -8.8496   19.6460  -32.9662 H   0  0  0  0  0  0  0  0  0  0  0  0
   -4.5511   20.3126  -32.6476 H   0  0  0  0  0  0  0  0  0  0  0  0
  1  2  1  0
  2  3  1  0
  3  4  2  0
  3  5  1  0
  5  6  1  0
  6  7  1  0
  7  8  1  0
  7  9  2  0
  6 10  2  0
 10 11  1  0
 11 12  2  0
 12 13  1  0
 13 14  2  0
 14 15  1  0
 15 16  1  0
 15 17  1  0
 15 18  1  0
 14 19  1  0
 19 20  2  0
 20  5  1  0
 20 11  1  0
  1 21  1  0
  1 22  1  0
  1 23  1  0
  8 24  1  0
 10 25  1  0
 12 26  1  0
 13 27  1  0
 19 28  1  0
M  CHG  1   8  -1
M  END
>  <UniqueID>  (30) 
30

>  <SMILES>  (30) 
COC(=O)n1c(C([NH-])=O)cc2ccc(C(F)(F)F)cc21

>  <Energy>  (30) 
65.8099732466634

>  <Genealogy>  (30) 
COC(=O)n1c(C([NH-])=O)cc2ccc(C(F)(F)F)cc21 (protonated)
COC(=O)n1c(C([NH-])=O)cc2ccc(C(F)(F)F)cc21 (3D coordinates assigned)
COC(=O)n1c(C([NH-])=O)cc2ccc(C(F)(F)F)cc21 (optimized conformer: 65.8099732466634 kcal/mol)

>  <smiles>  (30) 
COC(=O)n1c(C(N)=O)cc2ccc(C(F)(F)F)cc21

>  <score_type>  (30) 
oracle

>  <origin>  (30) 
adg

>  <m_score__min__energy>  (30) 
-8.7899999999999991

>  <m_primary>  (30) 
energy

$$$$
30:0
     RDKit          3D

 45 47  0  0  0  0  0  0  0  0999 V2000
   -7.5680   22.5970  -29.3650 C   0  0  0  0  0  0  0  0  0  0  0  0
   -7.2820   23.1200  -30.7370 C   0  0  0  0  0  0  0  0  0  0  0  0
   -6.5090   24.1840  -31.0090 N   0  0  0  0  0  0  0  0  0  0  0  0
   -6.4890   24.3030  -32.3270 N   0  0  0  0  0  0  0  0  0  0  0  0
   -7.2250   23.3400  -32.8650 N   0  0  0  0  0  0  0  0  0  0  0  0
   -7.7250   22.5900  -31.8930 N   0  0  0  0  0  0  0  0  0  0  0  0
   -8.5980   21.4360  -32.0980 C   0  0  0  0  0  0  0  0  0  0  0  0
   -7.7980   20.2240  -32.6230 C   0  0  2  0  0  0  0  0  0  0  0  0
   -7.7900   19.0640  -31.6150 C   0  0  0  0  0  0  0  0  0  0  0  0
   -6.3710   20.6110  -33.0990 C   0  0  0  0  0  0  0  0  0  0  0  0
   -5.2330   19.6210  -32.7660 C   0  0  0  0  0  0  0  0  0  0  0  0
   -4.0110   20.2820  -32.1810 C   0  0  0  0  0  0  0  0  0  0  0  0
   -2.7470   19.6440  -32.2630 C   0  0  0  0  0  0  0  0  0  0  0  0
   -1.6070   20.2400  -31.7020 C   0  0  0  0  0  0  0  0  0  0  0  0
   -1.7580   21.4700  -31.0690 C   0  0  0  0  0  0  0  0  0  0  0  0
   -0.8200   22.2730  -30.4620 C   0  0  0  0  0  0  0  0  0  0  0  0
   -1.5250   23.3860  -30.0090 C   0  0  0  0  0  0  0  0  0  0  0  0
   -0.9080   24.4660  -29.2110 C   0  0  0  0  0  0  0  0  0  0  0  0
   -1.6130   25.6760  -28.9470 N   0  0  0  0  0  0  0  0  0  0  0  0
    0.2380   24.2980  -28.7150 O   0  0  0  0  0  0  0  0  0  0  0  0
   -2.8440   23.2810  -30.3320 N   0  0  0  0  0  0  0  0  0  0  0  0
   -3.8800   24.2550  -30.1220 C   0  0  0  0  0  0  0  0  0  0  0  0
   -3.9380   25.2860  -30.8420 O   0  0  0  0  0  0  0  0  0  0  0  0
   -4.8090   24.0830  -29.1030 O   0  0  0  0  0  0  0  0  0  0  0  0
   -2.9720   22.1010  -30.9790 C   0  0  0  0  0  0  0  0  0  0  0  0
   -4.1210   21.5400  -31.5460 C   0  0  0  0  0  0  0  0  0  0  0  0
   -7.1817   23.3034  -28.6154 H   0  0  0  0  0  0  0  0  0  0  0  0
   -8.6543   22.4824  -29.2353 H   0  0  0  0  0  0  0  0  0  0  0  0
   -7.0783   21.6206  -29.2353 H   0  0  0  0  0  0  0  0  0  0  0  0
   -6.0100   24.8080  -30.3370 H   0  0  0  0  0  0  0  0  0  0  0  0
   -9.0708   21.1681  -31.1416 H   0  0  0  0  0  0  0  0  0  0  0  0
   -9.3615   21.7020  -32.8439 H   0  0  0  0  0  0  0  0  0  0  0  0
   -8.3249   19.8616  -33.5180 H   0  0  0  0  0  0  0  0  0  0  0  0
   -7.7928   19.4675  -30.5917 H   0  0  0  0  0  0  0  0  0  0  0  0
   -8.6839   18.4409  -31.7659 H   0  0  0  0  0  0  0  0  0  0  0  0
   -6.8876   18.4533  -31.7659 H   0  0  0  0  0  0  0  0  0  0  0  0
   -6.4043   20.7240  -34.1927 H   0  0  0  0  0  0  0  0  0  0  0  0
   -6.1232   21.5301  -32.5478 H   0  0  0  0  0  0  0  0  0  0  0  0
   -5.6122   18.8864  -32.0404 H   0  0  0  0  0  0  0  0  0  0  0  0
   -4.9250   19.1529  -33.7126 H   0  0  0  0  0  0  0  0  0  0  0  0
   -2.6593   18.6724  -32.7713 H   0  0  0  0  0  0  0  0  0  0  0  0
   -0.6240   19.7498  -31.7609 H   0  0  0  0  0  0  0  0  0  0  0  0
    0.2574   22.0777  -30.3568 H   0  0  0  0  0  0  0  0  0  0  0  0
   -2.6360   25.7560  -29.1440 H   0  0  0  0  0  0  0  0  0  0  0  0
   -5.0865   22.0649  -31.4989 H   0  0  0  0  0  0  0  0  0  0  0  0
  1  2  1  0
  2  3  2  0
  3  4  1  0
  4  5  2  0
  5  6  1  0
  6  7  1  0
  7  8  1  0
  8  9  1  0
  8 10  1  0
 10 11  1  0
 11 12  1  0
 12 13  2  0
 13 14  1  0
 14 15  2  0
 15 16  1  0
 16 17  2  0
 17 18  1  0
 18 19  1  0
 18 20  2  0
 17 21  1  0
 21 22  1  0
 22 23  2  0
 22 24  1  0
 21 25  1  0
 25 26  2  0
  6  2  1  0
 26 12  1  0
 25 15  1  0
  1 27  1  0
  1 28  1  0
  1 29  1  0
  3 30  1  0
  7 31  1  0
  7 32  1  0
  8 33  1  6
  9 34  1  0
  9 35  1  0
  9 36  1  0
 10 37  1  0
 10 38  1  0
 11 39  1  0
 11 40  1  0
 13 41  1  0
 14 42  1  0
 16 43  1  0
 19 44  1  0
 26 45  1  0
M  CHG  3   3   1  19  -1  24  -1
M  END
>  <UniqueID>  (31) 
31

>  <SMILES>  (31) 
Cc1[nH+]nnn1C[C@H](C)CCc1ccc2cc(C([NH-])=O)n(C(=O)[O-])c2c1

>  <Energy>  (31) 
121.0986048299152

>  <Genealogy>  (31) 
Cc1[nH+]nnn1CC(C)CCc1ccc2cc(C([NH-])=O)n(C(=O)[O-])c2c1 (protonated)
Cc1[nH+]nnn1C[C@H](C)CCc1ccc2cc(C([NH-])=O)n(C(=O)[O-])c2c1 (chirality)
Cc1[nH+]nnn1C[C@H](C)CCc1ccc2cc(C([NH-])=O)n(C(=O)[O-])c2c1 (3D coordinates assigned)
Cc1[nH+]nnn1C[C@H](C)CCc1ccc2cc(C([NH-])=O)n(C(=O)[O-])c2c1 (optimized conformer: 121.0986048299152 kcal/mol)

>  <smiles>  (31) 
Cc1nnnn1CC(C)CCc1ccc2cc(C(N)=O)n(C(=O)O)c2c1

>  <score_type>  (31) 
oracle

>  <origin>  (31) 
adg

>  <m_score__min__energy>  (31) 
-12.27

>  <m_primary>  (31) 
energy

$$$$
31:0
     RDKit          3D

 41 42  0  0  0  0  0  0  0  0999 V2000
   -2.7560   21.0070  -29.0780 C   0  0  0  0  0  0  0  0  0  0  0  0
   -2.8520   22.5390  -28.9470 C   0  0  0  0  0  0  0  0  0  0  0  0
   -4.1460   22.8940  -28.1990 C   0  0  0  0  0  0  0  0  0  0  0  0
   -1.6520   23.0940  -28.1580 C   0  0  0  0  0  0  0  0  0  0  0  0
   -2.9300   23.1530  -30.2420 O   0  0  0  0  0  0  0  0  0  0  0  0
   -3.6990   22.7110  -31.3290 C   0  0  0  0  0  0  0  0  0  0  0  0
   -3.1570   22.1560  -32.3220 O   0  0  0  0  0  0  0  0  0  0  0  0
   -5.1190   22.9210  -31.3160 N   0  0  0  0  0  0  0  0  0  0  0  0
   -5.8030   24.0190  -30.8830 C   0  0  0  0  0  0  0  0  0  0  0  0
   -5.2040   25.2980  -30.4460 C   0  0  0  0  0  0  0  0  0  0  0  0
   -3.8770   25.6320  -30.8450 N   0  0  0  0  0  0  0  0  0  0  0  0
   -5.8380   26.0850  -29.6950 O   0  0  0  0  0  0  0  0  0  0  0  0
   -7.1770   23.8100  -30.9870 C   0  0  0  0  0  0  0  0  0  0  0  0
   -7.3150   22.5440  -31.5090 C   0  0  0  0  0  0  0  0  0  0  0  0
   -8.4650   21.8240  -31.8210 C   0  0  0  0  0  0  0  0  0  0  0  0
   -8.3110   20.5250  -32.3330 C   0  0  0  0  0  0  0  0  0  0  0  0
   -7.0190   19.9650  -32.5040 C   0  0  0  0  0  0  0  0  0  0  0  0
   -6.8640   18.5810  -33.0740 C   0  0  0  0  0  0  0  0  0  0  0  0
   -5.6770   18.5220  -34.0320 C   0  0  0  0  0  0  0  0  0  0  0  0
   -6.0890   18.9140  -35.3110 O   0  0  0  0  0  0  0  0  0  0  0  0
   -5.8750   20.7300  -32.1860 C   0  0  0  0  0  0  0  0  0  0  0  0
   -6.0580   22.0290  -31.6970 C   0  0  0  0  0  0  0  0  0  0  0  0
   -2.7276   20.5544  -28.0758 H   0  0  0  0  0  0  0  0  0  0  0  0
   -3.6323   20.6302  -29.6258 H   0  0  0  0  0  0  0  0  0  0  0  0
   -1.8395   20.7426  -29.6258 H   0  0  0  0  0  0  0  0  0  0  0  0
   -3.9679   22.8451  -27.1146 H   0  0  0  0  0  0  0  0  0  0  0  0
   -4.4607   23.9117  -28.4734 H   0  0  0  0  0  0  0  0  0  0  0  0
   -4.9360   22.1794  -28.4734 H   0  0  0  0  0  0  0  0  0  0  0  0
   -1.8486   23.0031  -27.0795 H   0  0  0  0  0  0  0  0  0  0  0  0
   -0.7480   22.5225  -28.4154 H   0  0  0  0  0  0  0  0  0  0  0  0
   -1.5021   24.1529  -28.4154 H   0  0  0  0  0  0  0  0  0  0  0  0
   -3.0520   25.2930  -30.3020 H   0  0  0  0  0  0  0  0  0  0  0  0
   -7.9805   24.5085  -30.7106 H   0  0  0  0  0  0  0  0  0  0  0  0
   -9.4641   22.2592  -31.6711 H   0  0  0  0  0  0  0  0  0  0  0  0
   -9.2002   19.9368  -32.6037 H   0  0  0  0  0  0  0  0  0  0  0  0
   -6.7006   17.8682  -32.2523 H   0  0  0  0  0  0  0  0  0  0  0  0
   -7.7786   18.3220  -33.6276 H   0  0  0  0  0  0  0  0  0  0  0  0
   -4.8861   19.1996  -33.6779 H   0  0  0  0  0  0  0  0  0  0  0  0
   -5.2886   17.4936  -34.0713 H   0  0  0  0  0  0  0  0  0  0  0  0
   -6.9120   19.4540  -35.1820 H   0  0  0  0  0  0  0  0  0  0  0  0
   -4.8649   20.3152  -32.3193 H   0  0  0  0  0  0  0  0  0  0  0  0
  1  2  1  0
  2  3  1  0
  2  4  1  0
  2  5  1  0
  5  6  1  0
  6  7  2  0
  6  8  1  0
  8  9  1  0
  9 10  1  0
 10 11  1  0
 10 12  2  0
  9 13  2  0
 13 14  1  0
 14 15  2  0
 15 16  1  0
 16 17  2  0
 17 18  1  0
 18 19  1  0
 19 20  1  0
 17 21  1  0
 21 22  2  0
 22  8  1  0
 22 14  1  0
  1 23  1  0
  1 24  1  0
  1 25  1  0
  3 26  1  0
  3 27  1  0
  3 28  1  0
  4 29  1  0
  4 30  1  0
  4 31  1  0
 11 32  1  0
 13 33  1  0
 15 34  1  0
 16 35  1  0
 18 36  1  0
 18 37  1  0
 19 38  1  0
 19 39  1  0
 20 40  1  0
 21 41  1  0
M  CHG  1  11  -1
M  END
>  <UniqueID>  (32) 
32

>  <SMILES>  (32) 
CC(C)(C)OC(=O)n1c(C([NH-])=O)cc2ccc(CCO)cc21

>  <Energy>  (32) 
70.97159658160443

>  <Genealogy>  (32) 
CC(C)(C)OC(=O)n1c(C([NH-])=O)cc2ccc(CCO)cc21 (protonated)
CC(C)(C)OC(=O)n1c(C([NH-])=O)cc2ccc(CCO)cc21 (3D coordinates assigned)
CC(C)(C)OC(=O)n1c(C([NH-])=O)cc2ccc(CCO)cc21 (optimized conformer: 70.97159658160443 kcal/mol)

>  <smiles>  (32) 
CC(C)(C)OC(=O)n1c(C(N)=O)cc2ccc(CCO)cc21

>  <score_type>  (32) 
oracle

>  <origin>  (32) 
adg

>  <m_score__min__energy>  (32) 
-10.33

>  <m_primary>  (32) 
energy

$$$$
32:0
     RDKit          3D

 43 45  0  0  0  0  0  0  0  0999 V2000
   -9.0770   19.0530  -32.0700 C   0  0  0  0  0  0  0  0  0  0  0  0
   -8.5130   20.4410  -32.0220 C   0  0  0  0  0  0  0  0  0  0  0  0
   -9.1470   21.4960  -31.3510 C   0  0  0  0  0  0  0  0  0  0  0  0
   -8.4540   22.6990  -31.4210 C   0  0  0  0  0  0  0  0  0  0  0  0
   -7.0590   22.4530  -32.3240 S   0  0  0  0  0  0  0  0  0  0  0  0
   -7.3060   20.8160  -32.6170 C   0  0  0  0  0  0  0  0  0  0  0  0
   -6.4240   19.9730  -33.4880 C   0  0  0  0  0  0  0  0  0  0  0  0
   -5.5250   19.1380  -32.6300 C   0  0  0  0  0  0  0  0  0  0  0  0
   -6.0140   18.2340  -31.9010 O   0  0  0  0  0  0  0  0  0  0  0  0
   -4.1290   19.4420  -32.5430 N   0  0  0  0  0  0  0  0  0  0  0  0
   -3.1060   18.8500  -33.2160 C   0  0  0  0  0  0  0  0  0  0  0  0
   -3.2400   17.6630  -34.0910 C   0  0  0  0  0  0  0  0  0  0  0  0
   -4.2950   16.7210  -33.8970 N   0  0  0  0  0  0  0  0  0  0  0  0
   -2.4210   17.4790  -35.0290 O   0  0  0  0  0  0  0  0  0  0  0  0
   -1.9050   19.5100  -32.9470 C   0  0  0  0  0  0  0  0  0  0  0  0
   -2.2390   20.5400  -32.0960 C   0  0  0  0  0  0  0  0  0  0  0  0
   -1.4480   21.5470  -31.5510 C   0  0  0  0  0  0  0  0  0  0  0  0
   -2.0760   22.5200  -30.7550 C   0  0  0  0  0  0  0  0  0  0  0  0
   -3.4750   22.4710  -30.5170 C   0  0  0  0  0  0  0  0  0  0  0  0
   -4.1380   23.5580  -29.6970 C   0  0  1  0  0  0  0  0  0  0  0  0
   -4.0940   23.2130  -28.2030 C   0  0  0  0  0  0  0  0  0  0  0  0
   -3.5140   24.8990  -29.9840 C   0  0  0  0  0  0  0  0  0  0  0  0
   -4.0300   25.6550  -30.8480 O   0  0  0  0  0  0  0  0  0  0  0  0
   -2.3480   25.2990  -29.3390 O   0  0  0  0  0  0  0  0  0  0  0  0
   -4.2430   21.4310  -31.0920 C   0  0  0  0  0  0  0  0  0  0  0  0
   -3.5870   20.4760  -31.8700 C   0  0  0  0  0  0  0  0  0  0  0  0
   -9.2275   18.6827  -31.0452 H   0  0  0  0  0  0  0  0  0  0  0  0
  -10.0408   19.0670  -32.6000 H   0  0  0  0  0  0  0  0  0  0  0  0
   -8.3766   18.3908  -32.6000 H   0  0  0  0  0  0  0  0  0  0  0  0
  -10.1031   21.3825  -30.8190 H   0  0  0  0  0  0  0  0  0  0  0  0
   -8.7658   23.6495  -30.9634 H   0  0  0  0  0  0  0  0  0  0  0  0
   -7.0465   19.3167  -34.1140 H   0  0  0  0  0  0  0  0  0  0  0  0
   -5.8146   20.6244  -34.1317 H   0  0  0  0  0  0  0  0  0  0  0  0
   -4.9440   16.7900  -33.0850 H   0  0  0  0  0  0  0  0  0  0  0  0
   -4.4040   15.9130  -34.5500 H   0  0  0  0  0  0  0  0  0  0  0  0
   -0.9055   19.2604  -33.3326 H   0  0  0  0  0  0  0  0  0  0  0  0
   -0.3645   21.5803  -31.7376 H   0  0  0  0  0  0  0  0  0  0  0  0
   -1.4770   23.3288  -30.3112 H   0  0  0  0  0  0  0  0  0  0  0  0
   -5.1969   23.6213  -29.9880 H   0  0  0  0  0  0  0  0  0  0  0  0
   -4.2113   24.1325  -27.6107 H   0  0  0  0  0  0  0  0  0  0  0  0
   -4.9105   22.5159  -27.9635 H   0  0  0  0  0  0  0  0  0  0  0  0
   -3.1287   22.7432  -27.9635 H   0  0  0  0  0  0  0  0  0  0  0  0
   -5.3296   21.3766  -30.9299 H   0  0  0  0  0  0  0  0  0  0  0  0
  1  2  1  0
  2  3  1  0
  3  4  2  0
  4  5  1  0
  5  6  1  0
  6  7  1  0
  7  8  1  0
  8  9  2  0
  8 10  1  0
 10 11  1  0
 11 12  1  0
 12 13  1  0
 12 14  2  0
 11 15  2  0
 15 16  1  0
 16 17  2  0
 17 18  1  0
 18 19  2  0
 19 20  1  0
 20 21  1  0
 20 22  1  0
 22 23  2  0
 22 24  1  0
 19 25  1  0
 25 26  2  0
  6  2  2  0
 26 10  1  0
 26 16  1  0
  1 27  1  0
  1 28  1  0
  1 29  1  0
  3 30  1  0
  4 31  1  0
  7 32  1  0
  7 33  1  0
 13 34  1  0
 13 35  1  0
 15 36  1  0
 17 37  1  0
 18 38  1  0
 20 39  1  6
 21 40  1  0
 21 41  1  0
 21 42  1  0
 25 43  1  0
M  CHG  1  24  -1
M  END
>  <UniqueID>  (33) 
33

>  <SMILES>  (33) 
Cc1ccsc1CC(=O)n1c(C(N)=O)cc2ccc([C@@H](C)C(=O)[O-])cc21

>  <Energy>  (33) 
102.50077758577243

>  <Genealogy>  (33) 
Cc1ccsc1CC(=O)n1c(C(N)=O)cc2ccc(C(C)C(=O)[O-])cc21 (protonated)
Cc1ccsc1CC(=O)n1c(C(N)=O)cc2ccc([C@@H](C)C(=O)[O-])cc21 (chirality)
Cc1ccsc1CC(=O)n1c(C(N)=O)cc2ccc([C@@H](C)C(=O)[O-])cc21 (3D coordinates assigned)
Cc1ccsc1CC(=O)n1c(C(N)=O)cc2ccc([C@@H](C)C(=O)[O-])cc21 (optimized conformer: 102.50077758577243 kcal/mol)

>  <smiles>  (33) 
Cc1ccsc1CC(=O)n1c(C(N)=O)cc2ccc(C(C)C(=O)O)cc21

>  <score_type>  (33) 
oracle

>  <origin>  (33) 
adg

>  <m_score__min__energy>  (33) 
-11.02

>  <m_primary>  (33) 
energy

$$$$
33:0
     RDKit          3D

 49 50  0  0  0  0  0  0  0  0999 V2000
   -3.8950   23.7480  -27.4930 C   0  0  0  0  0  0  0  0  0  0  0  0
   -4.2010   22.6770  -28.2290 C   0  0  0  0  0  0  0  0  0  0  0  0
   -3.1620   21.9630  -29.0390 C   0  0  0  0  0  0  0  0  0  0  0  0
   -3.7570   21.4200  -30.2120 O   0  0  0  0  0  0  0  0  0  0  0  0
   -4.1610   22.2100  -31.2910 C   0  0  0  0  0  0  0  0  0  0  0  0
   -3.3640   22.4440  -32.2410 O   0  0  0  0  0  0  0  0  0  0  0  0
   -5.4760   22.7880  -31.3000 N   0  0  0  0  0  0  0  0  0  0  0  0
   -5.8420   24.0470  -30.9260 C   0  0  0  0  0  0  0  0  0  0  0  0
   -4.9240   25.1580  -30.6010 C   0  0  0  0  0  0  0  0  0  0  0  0
   -3.5220   24.9380  -30.4780 N   0  0  0  0  0  0  0  0  0  0  0  0
   -5.3790   26.3270  -30.4780 O   0  0  0  0  0  0  0  0  0  0  0  0
   -7.2290   24.1800  -30.9520 C   0  0  0  0  0  0  0  0  0  0  0  0
   -7.7050   22.9570  -31.3640 C   0  0  0  0  0  0  0  0  0  0  0  0
   -9.0160   22.5150  -31.5280 C   0  0  0  0  0  0  0  0  0  0  0  0
   -9.2180   21.1760  -31.9040 C   0  0  0  0  0  0  0  0  0  0  0  0
   -8.1150   20.3110  -32.1140 C   0  0  0  0  0  0  0  0  0  0  0  0
   -8.3370   18.8630  -32.4560 C   0  0  0  0  0  0  0  0  0  0  0  0
   -7.0190   18.1490  -32.5020 C   0  0  0  0  0  0  0  0  0  0  0  0
   -6.5140   17.7190  -31.4310 O   0  0  0  0  0  0  0  0  0  0  0  0
   -6.3150   18.0290  -33.7510 N   0  0  0  0  0  0  0  0  0  0  0  0
   -4.8510   17.8900  -33.8860 C   0  0  0  0  0  0  0  0  0  0  0  0
   -4.4950   17.4930  -35.3330 C   0  0  0  0  0  0  0  0  0  0  0  0
   -4.3360   16.8260  -32.8950 C   0  0  0  0  0  0  0  0  0  0  0  0
   -4.1940   19.2570  -33.5550 C   0  0  0  0  0  0  0  0  0  0  0  0
   -3.8930   19.3740  -32.1870 O   0  0  0  0  0  0  0  0  0  0  0  0
   -6.8000   20.7980  -31.9440 C   0  0  0  0  0  0  0  0  0  0  0  0
   -6.6280   22.1360  -31.5720 C   0  0  0  0  0  0  0  0  0  0  0  0
   -4.6764   24.2543  -26.9072 H   0  0  0  0  0  0  0  0  0  0  0  0
   -2.8615   24.1242  -27.4724 H   0  0  0  0  0  0  0  0  0  0  0  0
   -5.2382   22.3108  -28.2411 H   0  0  0  0  0  0  0  0  0  0  0  0
   -2.3708   22.6717  -29.3250 H   0  0  0  0  0  0  0  0  0  0  0  0
   -2.7296   21.1483  -28.4396 H   0  0  0  0  0  0  0  0  0  0  0  0
   -3.0210   24.2890  -31.1220 H   0  0  0  0  0  0  0  0  0  0  0  0
   -7.8181   25.0733  -30.6972 H   0  0  0  0  0  0  0  0  0  0  0  0
   -9.8670   23.1934  -31.3681 H   0  0  0  0  0  0  0  0  0  0  0  0
  -10.2416   20.7957  -32.0365 H   0  0  0  0  0  0  0  0  0  0  0  0
   -8.9775   18.4002  -31.6908 H   0  0  0  0  0  0  0  0  0  0  0  0
   -8.8261   18.7906  -33.4386 H   0  0  0  0  0  0  0  0  0  0  0  0
   -6.8840   18.1660  -34.6170 H   0  0  0  0  0  0  0  0  0  0  0  0
   -3.7607   16.6741  -35.3184 H   0  0  0  0  0  0  0  0  0  0  0  0
   -5.4039   17.1612  -35.8564 H   0  0  0  0  0  0  0  0  0  0  0  0
   -4.0665   18.3605  -35.8564 H   0  0  0  0  0  0  0  0  0  0  0  0
   -4.5039   17.1728  -31.8647 H   0  0  0  0  0  0  0  0  0  0  0  0
   -4.8769   15.8819  -33.0568 H   0  0  0  0  0  0  0  0  0  0  0  0
   -3.2600   16.6645  -33.0568 H   0  0  0  0  0  0  0  0  0  0  0  0
   -3.2637   19.3544  -34.1338 H   0  0  0  0  0  0  0  0  0  0  0  0
   -4.9079   20.0518  -33.8172 H   0  0  0  0  0  0  0  0  0  0  0  0
   -3.5120   20.2800  -32.0490 H   0  0  0  0  0  0  0  0  0  0  0  0
   -5.9317   20.1410  -32.1003 H   0  0  0  0  0  0  0  0  0  0  0  0
  1  2  2  0
  2  3  1  0
  3  4  1  0
  4  5  1  0
  5  6  2  0
  5  7  1  0
  7  8  1  0
  8  9  1  0
  9 10  1  0
  9 11  2  0
  8 12  2  0
 12 13  1  0
 13 14  2  0
 14 15  1  0
 15 16  2  0
 16 17  1  0
 17 18  1  0
 18 19  2  0
 18 20  1  0
 20 21  1  0
 21 22  1  0
 21 23  1  0
 21 24  1  0
 24 25  1  0
 16 26  1  0
 26 27  2  0
 27  7  1  0
 27 13  1  0
  1 28  1  0
  1 29  1  0
  2 30  1  0
  3 31  1  0
  3 32  1  0
 10 33  1  0
 12 34  1  0
 14 35  1  0
 15 36  1  0
 17 37  1  0
 17 38  1  0
 20 39  1  0
 22 40  1  0
 22 41  1  0
 22 42  1  0
 23 43  1  0
 23 44  1  0
 23 45  1  0
 24 46  1  0
 24 47  1  0
 25 48  1  0
 26 49  1  0
M  CHG  1  10  -1
M  END
>  <UniqueID>  (34) 
34

>  <SMILES>  (34) 
C=CCOC(=O)n1c(C([NH-])=O)cc2ccc(CC(=O)NC(C)(C)CO)cc21

>  <Energy>  (34) 
76.21238255540874

>  <Genealogy>  (34) 
C=CCOC(=O)n1c(C([NH-])=O)cc2ccc(CC(=O)NC(C)(C)CO)cc21 (protonated)
C=CCOC(=O)n1c(C([NH-])=O)cc2ccc(CC(=O)NC(C)(C)CO)cc21 (3D coordinates assigned)
C=CCOC(=O)n1c(C([NH-])=O)cc2ccc(CC(=O)NC(C)(C)CO)cc21 (optimized conformer: 76.21238255540874 kcal/mol)

>  <smiles>  (34) 
C=CCOC(=O)n1c(C(N)=O)cc2ccc(CC(=O)NC(C)(C)CO)cc21

>  <score_type>  (34) 
oracle

>  <origin>  (34) 
adg

>  <m_score__min__energy>  (34) 
-9.7599999999999998

>  <m_primary>  (34) 
energy

$$$$
34:0
     RDKit          3D

 63 65  0  0  0  0  0  0  0  0999 V2000
   -4.2310   26.4470  -30.7970 H   0  0  0  0  0  0  0  0  0  0  0  0
   -3.9180   25.4520  -30.7750 N   0  0  0  0  0  0  0  0  0  0  0  0
   -4.6440   24.4740  -30.0360 C   0  0  0  0  0  0  0  0  0  0  0  0
   -4.7080   24.5690  -28.7810 O   0  0  0  0  0  0  0  0  0  0  0  0
   -5.2970   23.3550  -30.7440 C   0  0  0  0  0  0  0  0  0  0  0  0
   -6.6730   23.2380  -30.9170 C   0  0  0  0  0  0  0  0  0  0  0  0
   -7.4525   23.9141  -30.5359 H   0  0  0  0  0  0  0  0  0  0  0  0
   -6.8520   22.0970  -31.6660 C   0  0  0  0  0  0  0  0  0  0  0  0
   -8.0190   21.4930  -32.1220 C   0  0  0  0  0  0  0  0  0  0  0  0
   -9.0044   21.9377  -31.9191 H   0  0  0  0  0  0  0  0  0  0  0  0
   -7.9000   20.2970  -32.8500 C   0  0  0  0  0  0  0  0  0  0  0  0
   -8.8044   19.7960  -33.2257 H   0  0  0  0  0  0  0  0  0  0  0  0
   -6.6270   19.7300  -33.1050 C   0  0  0  0  0  0  0  0  0  0  0  0
   -6.5220   18.4320  -33.8590 C   0  0  0  0  0  0  0  0  0  0  0  0
   -7.3234   18.3817  -34.6108 H   0  0  0  0  0  0  0  0  0  0  0  0
   -5.5414   18.3810  -34.3548 H   0  0  0  0  0  0  0  0  0  0  0  0
   -6.6560   17.2730  -32.9100 C   0  0  0  0  0  0  0  0  0  0  0  0
   -7.2570   17.4600  -31.8150 O   0  0  0  0  0  0  0  0  0  0  0  0
   -6.0520   15.9900  -33.1860 N   0  0  0  0  0  0  0  0  0  0  0  0
   -6.6050   15.1150  -34.2260 C   0  0  0  0  0  0  0  0  0  0  0  0
   -7.1359   14.2750  -33.7543 H   0  0  0  0  0  0  0  0  0  0  0  0
   -7.3061   15.6869  -34.8517 H   0  0  0  0  0  0  0  0  0  0  0  0
   -5.7876   14.7272  -34.8517 H   0  0  0  0  0  0  0  0  0  0  0  0
   -4.8730   15.5630  -32.4180 C   0  0  0  0  0  0  0  0  0  0  0  0
   -4.8836   16.0549  -31.4342 H   0  0  0  0  0  0  0  0  0  0  0  0
   -4.9039   14.4704  -32.2945 H   0  0  0  0  0  0  0  0  0  0  0  0
   -3.5850   15.9440  -33.1600 C   0  0  0  0  0  0  0  0  0  0  0  0
   -2.7638   16.0287  -32.4331 H   0  0  0  0  0  0  0  0  0  0  0  0
   -3.3664   15.1624  -33.9025 H   0  0  0  0  0  0  0  0  0  0  0  0
   -3.7380   17.2370  -33.8700 N   0  0  0  0  0  0  0  0  0  0  0  0
   -2.6620   18.1590  -33.4730 C   0  0  0  0  0  0  0  0  0  0  0  0
   -2.6064   18.2067  -32.3754 H   0  0  0  0  0  0  0  0  0  0  0  0
   -1.7033   17.7978  -33.8734 H   0  0  0  0  0  0  0  0  0  0  0  0
   -2.8721   19.1618  -33.8734 H   0  0  0  0  0  0  0  0  0  0  0  0
   -3.7030   17.0400  -35.3300 C   0  0  0  0  0  0  0  0  0  0  0  0
   -3.5146   15.9793  -35.5525 H   0  0  0  0  0  0  0  0  0  0  0  0
   -4.6685   17.3397  -35.7637 H   0  0  0  0  0  0  0  0  0  0  0  0
   -2.8999   17.6539  -35.7637 H   0  0  0  0  0  0  0  0  0  0  0  0
   -5.4650   20.3790  -32.6340 C   0  0  0  0  0  0  0  0  0  0  0  0
   -4.4667   19.9590  -32.8265 H   0  0  0  0  0  0  0  0  0  0  0  0
   -5.6160   21.5670  -31.9180 C   0  0  0  0  0  0  0  0  0  0  0  0
   -4.6530   22.3220  -31.3570 N   0  0  0  0  0  0  0  0  0  0  0  0
   -3.2430   22.0430  -31.3730 C   0  0  0  0  0  0  0  0  0  0  0  0
   -2.6750   21.7920  -32.4690 O   0  0  0  0  0  0  0  0  0  0  0  0
   -2.4460   22.0230  -30.1290 C   0  0  0  0  0  0  0  0  0  0  0  0
   -1.6464   22.7670  -29.9985 H   0  0  0  0  0  0  0  0  0  0  0  0
   -2.6630   21.1330  -29.1580 C   0  0  0  0  0  0  0  0  0  0  0  0
   -3.4396   20.3653  -29.2904 H   0  0  0  0  0  0  0  0  0  0  0  0
   -1.8650   21.1640  -27.8910 C   0  0  0  0  0  0  0  0  0  0  0  0
   -2.5308   21.4042  -27.0490 H   0  0  0  0  0  0  0  0  0  0  0  0
   -1.0800   21.9292  -27.9820 H   0  0  0  0  0  0  0  0  0  0  0  0
   -1.2360   19.8640  -27.6530 N   0  0  0  0  0  0  0  0  0  0  0  0
   -0.1280   19.3940  -28.2540 C   0  0  0  0  0  0  0  0  0  0  0  0
    0.4996   19.9456  -28.9694 H   0  0  0  0  0  0  0  0  0  0  0  0
    0.0870   18.1020  -27.8200 C   0  0  0  0  0  0  0  0  0  0  0  0
    0.9176   17.4511  -28.1305 H   0  0  0  0  0  0  0  0  0  0  0  0
   -0.8890   17.7700  -26.9530 N   0  0  0  0  0  0  0  0  0  0  0  0
   -1.0100   16.8550  -26.4630 H   0  0  0  0  0  0  0  0  0  0  0  0
   -1.6820   18.8570  -26.8700 C   0  0  0  0  0  0  0  0  0  0  0  0
   -2.9230   18.9180  -26.0310 C   0  0  0  0  0  0  0  0  0  0  0  0
   -2.6468   18.9044  -24.9663 H   0  0  0  0  0  0  0  0  0  0  0  0
   -3.4723   19.8442  -26.2556 H   0  0  0  0  0  0  0  0  0  0  0  0
   -3.5604   18.0501  -26.2556 H   0  0  0  0  0  0  0  0  0  0  0  0
  1  2  1  0
  2  3  1  0
  3  4  2  0
  3  5  1  0
  5  6  2  0
  6  7  1  0
  6  8  1  0
  8  9  2  0
  9 10  1  0
  9 11  1  0
 11 12  1  0
 11 13  2  0
 13 14  1  0
 14 15  1  0
 14 16  1  0
 14 17  1  0
 17 18  2  0
 17 19  1  0
 19 20  1  0
 20 21  1  0
 20 22  1  0
 20 23  1  0
 19 24  1  0
 24 25  1  0
 24 26  1  0
 24 27  1  0
 27 28  1  0
 27 29  1  0
 27 30  1  0
 30 31  1  0
 31 32  1  0
 31 33  1  0
 31 34  1  0
 30 35  1  0
 35 36  1  0
 35 37  1  0
 35 38  1  0
 13 39  1  0
 39 40  1  0
 39 41  2  0
 41 42  1  0
 42 43  1  0
 43 44  2  0
 43 45  1  0
 45 46  1  0
 45 47  2  0
 47 48  1  0
 47 49  1  0
 49 50  1  0
 49 51  1  0
 49 52  1  0
 52 53  1  0
 53 54  1  0
 53 55  2  0
 55 56  1  0
 55 57  1  0
 57 58  1  0
 57 59  2  0
 59 60  1  0
 60 61  1  0
 60 62  1  0
 60 63  1  0
 42  5  1  0
 59 52  1  0
 41  8  1  0
M  CHG  2   2  -1  57   1
M  END
>  <UniqueID>  (35) 
35

>  <SMILES>  (35) 
Cc1[nH+]ccn1C/C=C/C(=O)n1c(C([NH-])=O)cc2ccc(CC(=O)N(C)CCN(C)C)cc21

>  <Energy>  (35) 
119.28331522240605

>  <Genealogy>  (35) 
Cc1[nH+]ccn1C/C=C/C(=O)n1c(C([NH-])=O)cc2ccc(CC(=O)N(C)CCN(C)C)cc21 (protonated)
Cc1[nH+]ccn1C/C=C/C(=O)n1c(C([NH-])=O)cc2ccc(CC(=O)N(C)CCN(C)C)cc21 (cis-trans isomerization)
Cc1[nH+]ccn1C/C=C/C(=O)n1c(C([NH-])=O)cc2ccc(CC(=O)N(C)CCN(C)C)cc21 (3D coordinates assigned)
Cc1[nH+]ccn1C/C=C/C(=O)n1c(C([NH-])=O)cc2ccc(CC(=O)N(C)CCN(C)C)cc21 (optimized conformer: 119.28331522240605 kcal/mol)

>  <smiles>  (35) 
Cc1nccn1C/C=C/C(=O)n1c(C(N)=O)cc2ccc(CC(=O)N(C)CCN(C)C)cc21

>  <score_type>  (35) 
oracle

>  <origin>  (35) 
adg

>  <m_score__min__energy>  (35) 
-12.119999999999999

>  <m_primary>  (35) 
energy

$$$$
35:0
     RDKit          3D

 61 63  0  0  0  0  0  0  0  0999 V2000
   -6.1020   16.7360  -30.8350 C   0  0  0  0  0  0  0  0  0  0  0  0
   -5.6390   17.7620  -31.8940 C   0  0  1  0  0  0  0  0  0  0  0  0
   -4.6630   17.1000  -32.9100 C   0  0  0  0  0  0  0  0  0  0  0  0
   -5.0990   17.3940  -34.6260 S   0  0  0  0  0  0  0  0  0  0  0  0
   -3.8610   16.6910  -35.7000 C   0  0  0  0  0  0  0  0  0  0  0  0
   -6.4140   16.7270  -34.9130 O   0  0  0  0  0  0  0  0  0  0  0  0
   -5.2270   18.8650  -34.9080 O   0  0  0  0  0  0  0  0  0  0  0  0
   -6.8170   18.4250  -32.5400 N   0  0  1  0  0  0  0  0  0  0  0  0
   -8.0700   17.6590  -32.3690 C   0  0  0  0  0  0  0  0  0  0  0  0
   -6.9650   19.8300  -32.1710 C   0  0  0  0  0  0  0  0  0  0  0  0
   -8.2630   20.4150  -32.1380 C   0  0  0  0  0  0  0  0  0  0  0  0
   -8.4390   21.7770  -31.8320 C   0  0  0  0  0  0  0  0  0  0  0  0
   -7.3080   22.5340  -31.5500 C   0  0  0  0  0  0  0  0  0  0  0  0
   -7.1890   23.8640  -31.2120 C   0  0  0  0  0  0  0  0  0  0  0  0
   -5.8240   24.0790  -31.0330 C   0  0  0  0  0  0  0  0  0  0  0  0
   -5.2470   25.3600  -30.5790 C   0  0  0  0  0  0  0  0  0  0  0  0
   -3.8820   25.6610  -30.8600 N   0  0  0  0  0  0  0  0  0  0  0  0
   -5.9500   26.2040  -29.9630 O   0  0  0  0  0  0  0  0  0  0  0  0
   -5.1300   22.9260  -31.2550 N   0  0  0  0  0  0  0  0  0  0  0  0
   -3.7210   22.6970  -31.1330 C   0  0  0  0  0  0  0  0  0  0  0  0
   -3.1530   22.9440  -30.0340 O   0  0  0  0  0  0  0  0  0  0  0  0
   -2.9690   21.9920  -32.2290 C   0  0  0  0  0  0  0  0  0  0  0  0
   -2.7490   20.4890  -31.9460 C   0  0  0  0  0  0  0  0  0  0  0  0
   -2.1060   19.8110  -33.0940 N   0  0  0  0  0  0  0  0  0  0  0  0
   -1.1160   20.6980  -33.7370 C   0  0  0  0  0  0  0  0  0  0  0  0
   -0.4690   19.9990  -34.9530 C   0  0  0  0  0  0  0  0  0  0  0  0
   -0.7220   18.6030  -34.9860 O   0  0  0  0  0  0  0  0  0  0  0  0
   -0.4470   18.0420  -33.7210 C   0  0  0  0  0  0  0  0  0  0  0  0
   -1.4780   18.5310  -32.6860 C   0  0  0  0  0  0  0  0  0  0  0  0
   -6.0520   21.9930  -31.5630 C   0  0  0  0  0  0  0  0  0  0  0  0
   -5.8410   20.6470  -31.8710 C   0  0  0  0  0  0  0  0  0  0  0  0
   -5.9195   17.1403  -29.8284 H   0  0  0  0  0  0  0  0  0  0  0  0
   -7.1766   16.5381  -30.9614 H   0  0  0  0  0  0  0  0  0  0  0  0
   -5.5394   15.7993  -30.9614 H   0  0  0  0  0  0  0  0  0  0  0  0
   -5.0702   18.5635  -31.3999 H   0  0  0  0  0  0  0  0  0  0  0  0
   -3.6540   17.5015  -32.7344 H   0  0  0  0  0  0  0  0  0  0  0  0
   -4.7169   16.0136  -32.7463 H   0  0  0  0  0  0  0  0  0  0  0  0
   -3.0633   16.2381  -35.0929 H   0  0  0  0  0  0  0  0  0  0  0  0
   -4.3215   15.9197  -36.3348 H   0  0  0  0  0  0  0  0  0  0  0  0
   -3.4345   17.4817  -36.3348 H   0  0  0  0  0  0  0  0  0  0  0  0
   -6.6580   18.3970  -33.5750 H   0  0  0  0  0  0  0  0  0  0  0  0
   -8.2784   17.5316  -31.2965 H   0  0  0  0  0  0  0  0  0  0  0  0
   -8.9004   18.2040  -32.8417 H   0  0  0  0  0  0  0  0  0  0  0  0
   -7.9634   16.6715  -32.8417 H   0  0  0  0  0  0  0  0  0  0  0  0
   -9.1428   19.7915  -32.3554 H   0  0  0  0  0  0  0  0  0  0  0  0
   -9.4417   22.2291  -31.8164 H   0  0  0  0  0  0  0  0  0  0  0  0
   -7.9995   24.6001  -31.1059 H   0  0  0  0  0  0  0  0  0  0  0  0
   -3.1120   25.0900  -30.4450 H   0  0  0  0  0  0  0  0  0  0  0  0
   -3.5390   22.0920  -33.1645 H   0  0  0  0  0  0  0  0  0  0  0  0
   -1.9762   22.4606  -32.2984 H   0  0  0  0  0  0  0  0  0  0  0  0
   -2.1048   20.3822  -31.0608 H   0  0  0  0  0  0  0  0  0  0  0  0
   -3.7301   20.0222  -31.7739 H   0  0  0  0  0  0  0  0  0  0  0  0
   -1.6185   21.6169  -34.0733 H   0  0  0  0  0  0  0  0  0  0  0  0
   -0.3295   20.9399  -33.0070 H   0  0  0  0  0  0  0  0  0  0  0  0
   -0.8707   20.4504  -35.8722 H   0  0  0  0  0  0  0  0  0  0  0  0
    0.6195   20.1356  -34.8720 H   0  0  0  0  0  0  0  0  0  0  0  0
   -0.4953   16.9453  -33.7917 H   0  0  0  0  0  0  0  0  0  0  0  0
    0.5581   18.3540  -33.4011 H   0  0  0  0  0  0  0  0  0  0  0  0
   -2.2631   17.7681  -32.5781 H   0  0  0  0  0  0  0  0  0  0  0  0
   -0.9531   18.6969  -31.7337 H   0  0  0  0  0  0  0  0  0  0  0  0
   -4.8243   20.2271  -31.8812 H   0  0  0  0  0  0  0  0  0  0  0  0
  1  2  1  0
  2  3  1  0
  3  4  1  0
  4  5  1  0
  4  6  2  0
  4  7  2  0
  2  8  1  0
  8  9  1  0
  8 10  1  0
 10 11  2  0
 11 12  1  0
 12 13  2  0
 13 14  1  0
 14 15  2  0
 15 16  1  0
 16 17  1  0
 16 18  2  0
 15 19  1  0
 19 20  1  0
 20 21  2  0
 20 22  1  0
 22 23  1  0
 23 24  1  0
 24 25  1  0
 25 26  1  0
 26 27  1  0
 27 28  1  0
 28 29  1  0
 19 30  1  0
 30 31  2  0
 31 10  1  0
 30 13  1  0
 29 24  1  0
  1 32  1  0
  1 33  1  0
  1 34  1  0
  2 35  1  1
  3 36  1  0
  3 37  1  0
  5 38  1  0
  5 39  1  0
  5 40  1  0
  8 41  1  6
  9 42  1  0
  9 43  1  0
  9 44  1  0
 11 45  1  0
 12 46  1  0
 14 47  1  0
 17 48  1  0
 22 49  1  0
 22 50  1  0
 23 51  1  0
 23 52  1  0
 25 53  1  0
 25 54  1  0
 26 55  1  0
 26 56  1  0
 28 57  1  0
 28 58  1  0
 29 59  1  0
 29 60  1  0
 31 61  1  0
M  CHG  2   8   1  17  -1
M  END
>  <UniqueID>  (36) 
36

>  <SMILES>  (36) 
C[C@@H](CS(C)(=O)=O)[N@@H+](C)c1ccc2cc(C([NH-])=O)n(C(=O)CCN3CCOCC3)c2c1

>  <Energy>  (36) 
114.32299434191653

>  <Genealogy>  (36) 
CC(CS(C)(=O)=O)[NH+](C)c1ccc2cc(C([NH-])=O)n(C(=O)CCN3CCOCC3)c2c1 (protonated)
C[C@@H](CS(C)(=O)=O)[N@@H+](C)c1ccc2cc(C([NH-])=O)n(C(=O)CCN3CCOCC3)c2c1 (chirality)
C[C@@H](CS(C)(=O)=O)[N@@H+](C)c1ccc2cc(C([NH-])=O)n(C(=O)CCN3CCOCC3)c2c1 (3D coordinates assigned)
C[C@@H](CS(C)(=O)=O)[N@@H+](C)c1ccc2cc(C([NH-])=O)n(C(=O)CCN3CCOCC3)c2c1 (nonaromatic ring conformer: 114.32299434191653 kcal/mol)

>  <smiles>  (36) 
CC(CS(C)(=O)=O)N(C)c1ccc2cc(C(N)=O)n(C(=O)CCN3CCOCC3)c2c1

>  <score_type>  (36) 
oracle

>  <origin>  (36) 
adg

>  <m_score__min__energy>  (36) 
-11.369999999999999

>  <m_primary>  (36) 
energy

$$$$
36:0
     RDKit          3D

 31 32  0  0  0  0  0  0  0  0999 V2000
   -4.1690   25.4680  -30.6310 N   0  0  0  0  0  0  0  0  0  0  0  0
   -5.5300   25.0520  -30.5050 C   0  0  0  0  0  0  0  0  0  0  0  0
   -6.3730   25.8400  -30.0010 O   0  0  0  0  0  0  0  0  0  0  0  0
   -5.9740   23.7420  -31.0190 C   0  0  0  0  0  0  0  0  0  0  0  0
   -7.3130   23.3870  -31.1510 C   0  0  0  0  0  0  0  0  0  0  0  0
   -7.3010   22.1400  -31.7330 C   0  0  0  0  0  0  0  0  0  0  0  0
   -8.3600   21.3140  -32.0940 C   0  0  0  0  0  0  0  0  0  0  0  0
   -8.0590   20.0640  -32.6570 C   0  0  0  0  0  0  0  0  0  0  0  0
   -6.7120   19.6490  -32.8240 C   0  0  0  0  0  0  0  0  0  0  0  0
   -6.4020   18.3200  -33.4660 C   0  0  0  0  0  0  0  0  0  0  0  0
   -6.0990   18.5210  -34.8010 F   0  0  0  0  0  0  0  0  0  0  0  0
   -7.4880   17.4660  -33.3740 F   0  0  0  0  0  0  0  0  0  0  0  0
   -5.3230   17.7160  -32.8450 F   0  0  0  0  0  0  0  0  0  0  0  0
   -5.6630   20.5270  -32.4630 C   0  0  0  0  0  0  0  0  0  0  0  0
   -5.9930   21.7780  -31.9250 C   0  0  0  0  0  0  0  0  0  0  0  0
   -5.1630   22.7530  -31.4880 N   0  0  0  0  0  0  0  0  0  0  0  0
   -3.7280   22.6970  -31.4080 C   0  0  0  0  0  0  0  0  0  0  0  0
   -3.0520   22.3760  -32.4220 O   0  0  0  0  0  0  0  0  0  0  0  0
   -3.0880   22.9920  -30.1990 O   0  0  0  0  0  0  0  0  0  0  0  0
   -1.6710   23.0070  -30.0420 C   0  0  0  0  0  0  0  0  0  0  0  0
   -1.2210   24.2630  -29.3660 C   0  0  0  0  0  0  0  0  0  0  0  0
   -0.0980   24.3100  -28.7990 O   0  0  0  0  0  0  0  0  0  0  0  0
   -2.0490   25.3790  -29.3450 O   0  0  0  0  0  0  0  0  0  0  0  0
   -3.4910   24.9160  -31.2010 H   0  0  0  0  0  0  0  0  0  0  0  0
   -3.8610   26.3840  -30.2360 H   0  0  0  0  0  0  0  0  0  0  0  0
   -8.1927   23.9768  -30.8538 H   0  0  0  0  0  0  0  0  0  0  0  0
   -9.4025   21.6309  -31.9428 H   0  0  0  0  0  0  0  0  0  0  0  0
   -8.8762   19.3986  -32.9723 H   0  0  0  0  0  0  0  0  0  0  0  0
   -4.6118   20.2341  -32.6016 H   0  0  0  0  0  0  0  0  0  0  0  0
   -1.3671   22.1422  -29.4339 H   0  0  0  0  0  0  0  0  0  0  0  0
   -1.2070   22.9590  -31.0382 H   0  0  0  0  0  0  0  0  0  0  0  0
  1  2  1  0
  2  3  2  0
  2  4  1  0
  4  5  2  0
  5  6  1  0
  6  7  2  0
  7  8  1  0
  8  9  2  0
  9 10  1  0
 10 11  1  0
 10 12  1  0
 10 13  1  0
  9 14  1  0
 14 15  2  0
 15 16  1  0
 16 17  1  0
 17 18  2  0
 17 19  1  0
 19 20  1  0
 20 21  1  0
 21 22  2  0
 21 23  1  0
 16  4  1  0
 15  6  1  0
  1 24  1  0
  1 25  1  0
  5 26  1  0
  7 27  1  0
  8 28  1  0
 14 29  1  0
 20 30  1  0
 20 31  1  0
M  CHG  1  23  -1
M  END
>  <UniqueID>  (37) 
37

>  <SMILES>  (37) 
NC(=O)c1cc2ccc(C(F)(F)F)cc2n1C(=O)OCC(=O)[O-]

>  <Energy>  (37) 
69.19160747948813

>  <Genealogy>  (37) 
NC(=O)c1cc2ccc(C(F)(F)F)cc2n1C(=O)OCC(=O)[O-] (protonated)
NC(=O)c1cc2ccc(C(F)(F)F)cc2n1C(=O)OCC(=O)[O-] (3D coordinates assigned)
NC(=O)c1cc2ccc(C(F)(F)F)cc2n1C(=O)OCC(=O)[O-] (optimized conformer: 69.19160747948813 kcal/mol)

>  <smiles>  (37) 
NC(=O)c1cc2ccc(C(F)(F)F)cc2n1C(=O)OCC(=O)O

>  <score_type>  (37) 
oracle

>  <origin>  (37) 
adg

>  <m_score__min__energy>  (37) 
-9.7699999999999996

>  <m_primary>  (37) 
energy

$$$$
37:0
     RDKit          3D

 42 46  0  0  0  0  0  0  0  0999 V2000
   -5.7100   17.7360  -35.0470 N   0  0  0  0  0  0  0  0  0  0  0  0
   -6.2010   18.0160  -34.0370 C   0  0  0  0  0  0  0  0  0  0  0  0
   -6.8260   18.3730  -32.7510 C   0  0  0  0  0  0  0  0  0  0  0  0
   -6.9580   19.8470  -32.3590 C   0  0  0  0  0  0  0  0  0  0  0  0
   -8.2370   20.4740  -32.3820 C   0  0  0  0  0  0  0  0  0  0  0  0
   -8.3960   21.8230  -32.0240 C   0  0  0  0  0  0  0  0  0  0  0  0
   -7.2670   22.5320  -31.6350 C   0  0  0  0  0  0  0  0  0  0  0  0
   -7.1320   23.8470  -31.2460 C   0  0  0  0  0  0  0  0  0  0  0  0
   -5.7750   24.0130  -30.9710 C   0  0  0  0  0  0  0  0  0  0  0  0
   -5.1840   25.2730  -30.4730 C   0  0  0  0  0  0  0  0  0  0  0  0
   -3.8690   25.6690  -30.8520 N   0  0  0  0  0  0  0  0  0  0  0  0
   -5.8430   26.0020  -29.6840 O   0  0  0  0  0  0  0  0  0  0  0  0
   -5.1040   22.8470  -31.1840 N   0  0  0  0  0  0  0  0  0  0  0  0
   -3.7000   22.6040  -31.0350 C   0  0  0  0  0  0  0  0  0  0  0  0
   -3.0690   23.1350  -30.0830 O   0  0  0  0  0  0  0  0  0  0  0  0
   -2.9820   21.6950  -31.9840 C   0  0  2  0  0  0  0  0  0  0  0  0
   -2.8680   20.1690  -31.8410 C   0  0  0  0  0  0  0  0  0  0  0  0
   -2.1170   20.6660  -33.0830 C   0  0  2  0  0  0  0  0  0  0  0  0
   -1.3740   19.7760  -34.0240 C   0  0  0  0  0  0  0  0  0  0  0  0
   -0.3810   20.2180  -34.6590 O   0  0  0  0  0  0  0  0  0  0  0  0
   -1.8090   18.4750  -34.2410 O   0  0  0  0  0  0  0  0  0  0  0  0
   -1.4790   21.8060  -32.2800 C   0  0  0  0  0  0  0  0  0  0  0  0
   -3.2970   21.5650  -33.4800 C   0  0  0  0  0  0  0  0  0  0  0  0
   -6.0290   21.9540  -31.5910 C   0  0  0  0  0  0  0  0  0  0  0  0
   -5.8340   20.6210  -31.9620 C   0  0  0  0  0  0  0  0  0  0  0  0
   -7.9450   17.4250  -32.3300 C   0  0  0  0  0  0  0  0  0  0  0  0
   -6.5840   17.3500  -31.6450 C   0  0  0  0  0  0  0  0  0  0  0  0
   -9.1180   19.8899  -32.6863 H   0  0  0  0  0  0  0  0  0  0  0  0
   -9.3852   22.3034  -32.0510 H   0  0  0  0  0  0  0  0  0  0  0  0
   -7.9258   24.6046  -31.1688 H   0  0  0  0  0  0  0  0  0  0  0  0
   -3.0290   25.2120  -30.4340 H   0  0  0  0  0  0  0  0  0  0  0  0
   -2.2829   19.7637  -31.0023 H   0  0  0  0  0  0  0  0  0  0  0  0
   -3.6411   19.3949  -31.7266 H   0  0  0  0  0  0  0  0  0  0  0  0
   -0.7676   21.5496  -31.4812 H   0  0  0  0  0  0  0  0  0  0  0  0
   -0.8684   22.6622  -32.6027 H   0  0  0  0  0  0  0  0  0  0  0  0
   -3.1013   22.4280  -34.1334 H   0  0  0  0  0  0  0  0  0  0  0  0
   -4.2371   21.3333  -34.0021 H   0  0  0  0  0  0  0  0  0  0  0  0
   -4.8273   20.1780  -31.9470 H   0  0  0  0  0  0  0  0  0  0  0  0
   -8.8163   17.8120  -31.7813 H   0  0  0  0  0  0  0  0  0  0  0  0
   -8.5933   16.7063  -32.8527 H   0  0  0  0  0  0  0  0  0  0  0  0
   -6.4740   17.6829  -30.6024 H   0  0  0  0  0  0  0  0  0  0  0  0
   -5.8445   16.5549  -31.4692 H   0  0  0  0  0  0  0  0  0  0  0  0
  1  2  3  0
  2  3  1  0
  3  4  1  0
  4  5  2  0
  5  6  1  0
  6  7  2  0
  7  8  1  0
  8  9  2  0
  9 10  1  0
 10 11  1  0
 10 12  2  0
  9 13  1  0
 13 14  1  0
 14 15  2  0
 16 14  1  1
 16 17  1  0
 17 18  1  0
 18 19  1  6
 19 20  2  0
 19 21  1  0
 18 22  1  0
 18 23  1  0
 13 24  1  0
 24 25  2  0
  3 26  1  0
 26 27  1  0
 27  3  1  0
 25  4  1  0
 24  7  1  0
 22 16  1  0
 23 16  1  0
  5 28  1  0
  6 29  1  0
  8 30  1  0
 11 31  1  0
 17 32  1  0
 17 33  1  0
 22 34  1  0
 22 35  1  0
 23 36  1  0
 23 37  1  0
 25 38  1  0
 26 39  1  0
 26 40  1  0
 27 41  1  0
 27 42  1  0
M  CHG  2  11  -1  21  -1
M  END
>  <UniqueID>  (38) 
38

>  <SMILES>  (38) 
N#CC1(c2ccc3cc(C([NH-])=O)n(C(=O)C45CC(C(=O)[O-])(C4)C5)c3c2)CC1

>  <Energy>  (38) 
647.6423842284904

>  <Genealogy>  (38) 
N#CC1(c2ccc3cc(C([NH-])=O)n(C(=O)C45CC(C(=O)[O-])(C4)C5)c3c2)CC1 (protonated)
N#CC1(c2ccc3cc(C([NH-])=O)n(C(=O)C45CC(C(=O)[O-])(C4)C5)c3c2)CC1 (3D coordinates assigned)
N#CC1(c2ccc3cc(C([NH-])=O)n(C(=O)C45CC(C(=O)[O-])(C4)C5)c3c2)CC1 (nonaromatic ring conformer: 647.6423842284904 kcal/mol)

>  <smiles>  (38) 
N#CC1(c2ccc3cc(C(N)=O)n(C(=O)C45CC(C(=O)O)(C4)C5)c3c2)CC1

>  <score_type>  (38) 
oracle

>  <origin>  (38) 
adg

>  <m_score__min__energy>  (38) 
-11.81

>  <m_primary>  (38) 
energy

$$$$
38:0
     RDKit          3D

 41 44  0  0  0  0  0  0  0  0999 V2000
   -6.5050   17.8860  -30.9640 C   0  0  0  0  0  0  0  0  0  0  0  0
   -6.1560   19.2250  -31.6220 C   0  0  2  0  0  0  0  0  0  0  0  0
   -7.4190   20.0360  -31.8130 C   0  0  0  0  0  0  0  0  0  0  0  0
   -8.9680   19.3650  -31.8540 S   0  0  0  0  0  0  0  0  0  0  0  0
   -9.7380   20.8250  -32.1460 C   0  0  0  0  0  0  0  0  0  0  0  0
   -8.8390   21.8300  -32.2050 N   0  0  0  0  0  0  0  0  0  0  0  0
   -7.5530   21.4220  -32.0080 C   0  0  0  0  0  0  0  0  0  0  0  0
   -6.4580   22.4110  -32.0030 C   0  0  0  0  0  0  0  0  0  0  0  0
   -6.6330   23.6030  -32.3630 O   0  0  0  0  0  0  0  0  0  0  0  0
   -5.4650   19.0360  -32.9100 N   0  0  0  0  0  0  0  0  0  0  0  0
   -6.0120   18.5210  -34.0000 N   0  0  0  0  0  0  0  0  0  0  0  0
   -5.1280   18.5610  -34.9860 N   0  0  0  0  0  0  0  0  0  0  0  0
   -3.9960   19.1040  -34.5600 N   0  0  0  0  0  0  0  0  0  0  0  0
   -4.2060   19.3830  -33.2590 C   0  0  0  0  0  0  0  0  0  0  0  0
   -3.2260   20.0860  -32.4080 C   0  0  0  0  0  0  0  0  0  0  0  0
   -1.9180   19.5610  -32.2770 C   0  0  0  0  0  0  0  0  0  0  0  0
   -0.9400   20.2510  -31.5410 C   0  0  0  0  0  0  0  0  0  0  0  0
   -1.3050   21.4500  -30.9360 C   0  0  0  0  0  0  0  0  0  0  0  0
   -0.5500   22.3380  -30.2070 C   0  0  0  0  0  0  0  0  0  0  0  0
   -1.4200   23.3710  -29.8660 C   0  0  0  0  0  0  0  0  0  0  0  0
   -1.0320   24.5110  -29.0080 C   0  0  0  0  0  0  0  0  0  0  0  0
   -1.8470   25.6810  -28.9740 N   0  0  0  0  0  0  0  0  0  0  0  0
    0.0280   24.4770  -28.3300 O   0  0  0  0  0  0  0  0  0  0  0  0
   -2.6660   23.1330  -30.3680 N   0  0  0  0  0  0  0  0  0  0  0  0
   -3.8200   23.9880  -30.3090 C   0  0  0  0  0  0  0  0  0  0  0  0
   -4.8750   23.5950  -29.7450 O   0  0  0  0  0  0  0  0  0  0  0  0
   -3.7730   25.2670  -30.8470 O   0  0  0  0  0  0  0  0  0  0  0  0
   -2.5780   21.9510  -31.0170 C   0  0  0  0  0  0  0  0  0  0  0  0
   -3.5700   21.2880  -31.7500 C   0  0  0  0  0  0  0  0  0  0  0  0
   -6.4762   17.9965  -29.8699 H   0  0  0  0  0  0  0  0  0  0  0  0
   -7.5138   17.5766  -31.2748 H   0  0  0  0  0  0  0  0  0  0  0  0
   -5.7756   17.1236  -31.2748 H   0  0  0  0  0  0  0  0  0  0  0  0
   -5.4659   19.7669  -30.9586 H   0  0  0  0  0  0  0  0  0  0  0  0
  -10.8239   20.9470  -32.2719 H   0  0  0  0  0  0  0  0  0  0  0  0
   -9.1150   22.8230  -32.3700 H   0  0  0  0  0  0  0  0  0  0  0  0
   -5.4569   22.0955  -31.6739 H   0  0  0  0  0  0  0  0  0  0  0  0
   -1.6648   18.6037  -32.7560 H   0  0  0  0  0  0  0  0  0  0  0  0
    0.0822   19.8559  -31.4460 H   0  0  0  0  0  0  0  0  0  0  0  0
    0.5155   22.2511  -29.9479 H   0  0  0  0  0  0  0  0  0  0  0  0
   -2.8240   25.6660  -29.3410 H   0  0  0  0  0  0  0  0  0  0  0  0
   -4.5910   21.6927  -31.8119 H   0  0  0  0  0  0  0  0  0  0  0  0
  1  2  1  0
  2  3  1  0
  3  4  1  0
  4  5  1  0
  5  6  2  0
  6  7  1  0
  7  8  1  0
  8  9  2  0
  2 10  1  0
 10 11  1  0
 11 12  2  0
 12 13  1  0
 13 14  2  0
 14 15  1  0
 15 16  2  0
 16 17  1  0
 17 18  2  0
 18 19  1  0
 19 20  2  0
 20 21  1  0
 21 22  1  0
 21 23  2  0
 20 24  1  0
 24 25  1  0
 25 26  2  0
 25 27  1  0
 24 28  1  0
 28 29  2  0
  7  3  2  0
 14 10  1  0
 29 15  1  0
 28 18  1  0
  1 30  1  0
  1 31  1  0
  1 32  1  0
  2 33  1  1
  5 34  1  0
  6 35  1  0
  8 36  1  0
 16 37  1  0
 17 38  1  0
 19 39  1  0
 22 40  1  0
 29 41  1  0
M  CHG  3   6   1  22  -1  27  -1
M  END
>  <UniqueID>  (39) 
39

>  <SMILES>  (39) 
C[C@H](c1sc[nH+]c1C=O)n1nnnc1-c1ccc2cc(C([NH-])=O)n(C(=O)[O-])c2c1

>  <Energy>  (39) 
156.46453664840044

>  <Genealogy>  (39) 
CC(c1sc[nH+]c1C=O)n1nnnc1-c1ccc2cc(C([NH-])=O)n(C(=O)[O-])c2c1 (protonated)
C[C@H](c1sc[nH+]c1C=O)n1nnnc1-c1ccc2cc(C([NH-])=O)n(C(=O)[O-])c2c1 (chirality)
C[C@H](c1sc[nH+]c1C=O)n1nnnc1-c1ccc2cc(C([NH-])=O)n(C(=O)[O-])c2c1 (3D coordinates assigned)
C[C@H](c1sc[nH+]c1C=O)n1nnnc1-c1ccc2cc(C([NH-])=O)n(C(=O)[O-])c2c1 (optimized conformer: 156.46453664840044 kcal/mol)

>  <smiles>  (39) 
CC(c1scnc1C=O)n1nnnc1-c1ccc2cc(C(N)=O)n(C(=O)O)c2c1

>  <score_type>  (39) 
oracle

>  <origin>  (39) 
adg

>  <m_score__min__energy>  (39) 
-12.35

>  <m_primary>  (39) 
energy

$$$$
39:0
     RDKit          3D

 37 39  0  0  0  0  0  0  0  0999 V2000
   -2.1810   25.3300  -28.4890 N   0  0  0  0  0  0  0  0  0  0  0  0
   -1.3490   24.3250  -29.0700 C   0  0  0  0  0  0  0  0  0  0  0  0
   -0.1420   24.2420  -28.7160 O   0  0  0  0  0  0  0  0  0  0  0  0
   -1.8920   23.3400  -30.0280 C   0  0  0  0  0  0  0  0  0  0  0  0
   -1.1820   22.2250  -30.4630 C   0  0  0  0  0  0  0  0  0  0  0  0
   -2.0510   21.5360  -31.2770 C   0  0  0  0  0  0  0  0  0  0  0  0
   -1.8690   20.3460  -31.9750 C   0  0  0  0  0  0  0  0  0  0  0  0
   -2.9370   19.8690  -32.7540 C   0  0  0  0  0  0  0  0  0  0  0  0
   -4.1470   20.5990  -32.8410 C   0  0  0  0  0  0  0  0  0  0  0  0
   -5.3030   20.0540  -33.6410 C   0  0  0  0  0  0  0  0  0  0  0  0
   -6.3270   19.3430  -32.7460 C   0  0  0  0  0  0  0  0  0  0  0  0
   -7.4280   20.2710  -32.3140 C   0  0  0  0  0  0  0  0  0  0  0  0
   -8.7730   19.8950  -32.4460 C   0  0  0  0  0  0  0  0  0  0  0  0
   -9.7740   20.8060  -32.1020 C   0  0  0  0  0  0  0  0  0  0  0  0
   -9.4280   22.0760  -31.6370 C   0  0  0  0  0  0  0  0  0  0  0  0
   -8.0790   22.4180  -31.5230 C   0  0  0  0  0  0  0  0  0  0  0  0
   -7.1190   21.5180  -31.8640 N   0  0  0  0  0  0  0  0  0  0  0  0
   -4.2940   21.8060  -32.1210 C   0  0  0  0  0  0  0  0  0  0  0  0
   -3.2280   22.2390  -31.3250 C   0  0  0  0  0  0  0  0  0  0  0  0
   -3.1460   23.3520  -30.5600 N   0  0  0  0  0  0  0  0  0  0  0  0
   -4.1450   24.3790  -30.4290 C   0  0  0  0  0  0  0  0  0  0  0  0
   -3.8630   25.5770  -30.6950 O   0  0  0  0  0  0  0  0  0  0  0  0
   -5.4300   24.0620  -30.0070 O   0  0  0  0  0  0  0  0  0  0  0  0
   -3.2160   25.3180  -28.6280 H   0  0  0  0  0  0  0  0  0  0  0  0
   -1.7710   26.0410  -27.8450 H   0  0  0  0  0  0  0  0  0  0  0  0
   -0.1467   21.9527  -30.2099 H   0  0  0  0  0  0  0  0  0  0  0  0
   -0.9183   19.7955  -31.9187 H   0  0  0  0  0  0  0  0  0  0  0  0
   -2.8320   18.9204  -33.3008 H   0  0  0  0  0  0  0  0  0  0  0  0
   -5.8006   20.8860  -34.1607 H   0  0  0  0  0  0  0  0  0  0  0  0
   -4.9076   19.3208  -34.3594 H   0  0  0  0  0  0  0  0  0  0  0  0
   -6.7670   18.5039  -33.3049 H   0  0  0  0  0  0  0  0  0  0  0  0
   -5.8058   18.9869  -31.8451 H   0  0  0  0  0  0  0  0  0  0  0  0
   -9.0364   18.8933  -32.8165 H   0  0  0  0  0  0  0  0  0  0  0  0
  -10.8328   20.5235  -32.1972 H   0  0  0  0  0  0  0  0  0  0  0  0
  -10.2099   22.7997  -31.3633 H   0  0  0  0  0  0  0  0  0  0  0  0
   -7.7932   23.4153  -31.1574 H   0  0  0  0  0  0  0  0  0  0  0  0
   -5.2236   22.3907  -32.1848 H   0  0  0  0  0  0  0  0  0  0  0  0
  1  2  1  0
  2  3  2  0
  2  4  1  0
  4  5  2  0
  5  6  1  0
  6  7  2  0
  7  8  1  0
  8  9  2  0
  9 10  1  0
 10 11  1  0
 11 12  1  0
 12 13  2  0
 13 14  1  0
 14 15  2  0
 15 16  1  0
 16 17  2  0
  9 18  1  0
 18 19  2  0
 19 20  1  0
 20 21  1  0
 21 22  2  0
 21 23  1  0
 20  4  1  0
 19  6  1  0
 17 12  1  0
  1 24  1  0
  1 25  1  0
  5 26  1  0
  7 27  1  0
  8 28  1  0
 10 29  1  0
 10 30  1  0
 11 31  1  0
 11 32  1  0
 13 33  1  0
 14 34  1  0
 15 35  1  0
 16 36  1  0
 18 37  1  0
M  CHG  1  23  -1
M  END
>  <UniqueID>  (40) 
40

>  <SMILES>  (40) 
NC(=O)c1cc2ccc(CCc3ccccn3)cc2n1C(=O)[O-]

>  <Energy>  (40) 
75.79942546525506

>  <Genealogy>  (40) 
NC(=O)c1cc2ccc(CCc3ccccn3)cc2n1C(=O)[O-] (protonated)
NC(=O)c1cc2ccc(CCc3ccccn3)cc2n1C(=O)[O-] (3D coordinates assigned)
NC(=O)c1cc2ccc(CCc3ccccn3)cc2n1C(=O)[O-] (optimized conformer: 75.79942546525506 kcal/mol)

>  <smiles>  (40) 
NC(=O)c1cc2ccc(CCc3ccccn3)cc2n1C(=O)O

>  <score_type>  (40) 
oracle

>  <origin>  (40) 
adg

>  <m_score__min__energy>  (40) 
-9.6400000000000006

>  <m_primary>  (40) 
energy

$$$$
40:0
     RDKit          3D

 42 44  0  0  0  0  0  0  0  0999 V2000
   -1.0670   18.3750  -34.3770 C   0  0  0  0  0  0  0  0  0  0  0  0
   -0.6140   19.7950  -34.3200 C   0  0  0  0  0  0  0  0  0  0  0  0
    0.4500   20.2660  -34.9290 O   0  0  0  0  0  0  0  0  0  0  0  0
    0.4850   21.5490  -34.6500 C   0  0  0  0  0  0  0  0  0  0  0  0
    1.3810   22.3280  -35.0660 O   0  0  0  0  0  0  0  0  0  0  0  0
   -0.5150   21.9300  -33.8890 O   0  0  0  0  0  0  0  0  0  0  0  0
   -1.2300   20.8500  -33.6700 C   0  0  0  0  0  0  0  0  0  0  0  0
   -2.4570   20.8020  -32.8210 C   0  0  0  0  0  0  0  0  0  0  0  0
   -3.0740   22.0830  -32.8280 O   0  0  0  0  0  0  0  0  0  0  0  0
   -3.5970   22.6800  -31.6770 C   0  0  0  0  0  0  0  0  0  0  0  0
   -2.8250   23.1470  -30.7960 O   0  0  0  0  0  0  0  0  0  0  0  0
   -5.0210   22.7850  -31.5150 N   0  0  0  0  0  0  0  0  0  0  0  0
   -5.7320   23.8410  -31.0260 C   0  0  0  0  0  0  0  0  0  0  0  0
   -5.1690   25.0630  -30.4160 C   0  0  0  0  0  0  0  0  0  0  0  0
   -3.9230   25.5960  -30.8560 N   0  0  0  0  0  0  0  0  0  0  0  0
   -5.7710   25.6150  -29.4570 O   0  0  0  0  0  0  0  0  0  0  0  0
   -7.0990   23.5800  -31.0930 C   0  0  0  0  0  0  0  0  0  0  0  0
   -7.2030   22.3180  -31.6290 C   0  0  0  0  0  0  0  0  0  0  0  0
   -8.3310   21.5600  -31.9140 C   0  0  0  0  0  0  0  0  0  0  0  0
   -8.1490   20.2900  -32.4850 C   0  0  0  0  0  0  0  0  0  0  0  0
   -6.8460   19.7920  -32.7750 C   0  0  0  0  0  0  0  0  0  0  0  0
   -6.6670   18.4770  -33.3730 N   0  0  0  0  0  0  0  0  0  0  0  0
   -5.8910   18.3170  -34.6110 C   0  0  0  0  0  0  0  0  0  0  0  0
   -7.2660   17.2870  -32.7570 C   0  0  0  0  0  0  0  0  0  0  0  0
   -5.7240   20.6080  -32.4670 C   0  0  0  0  0  0  0  0  0  0  0  0
   -5.9370   21.8590  -31.8770 C   0  0  0  0  0  0  0  0  0  0  0  0
   -1.1904   17.9882  -33.3547 H   0  0  0  0  0  0  0  0  0  0  0  0
   -2.0280   18.3178  -34.9092 H   0  0  0  0  0  0  0  0  0  0  0  0
   -0.3167   17.7718  -34.9092 H   0  0  0  0  0  0  0  0  0  0  0  0
   -3.1555   20.0538  -33.2239 H   0  0  0  0  0  0  0  0  0  0  0  0
   -2.1864   20.5250  -31.7914 H   0  0  0  0  0  0  0  0  0  0  0  0
   -3.0220   25.2660  -30.4450 H   0  0  0  0  0  0  0  0  0  0  0  0
   -7.9204   24.2427  -30.7830 H   0  0  0  0  0  0  0  0  0  0  0  0
   -9.3391   21.9437  -31.6985 H   0  0  0  0  0  0  0  0  0  0  0  0
   -9.0279   19.6688  -32.7124 H   0  0  0  0  0  0  0  0  0  0  0  0
   -4.8419   18.1007  -34.3608 H   0  0  0  0  0  0  0  0  0  0  0  0
   -6.3065   17.4856  -35.1994 H   0  0  0  0  0  0  0  0  0  0  0  0
   -5.9438   19.2449  -35.1994 H   0  0  0  0  0  0  0  0  0  0  0  0
   -7.2199   17.3785  -31.6618 H   0  0  0  0  0  0  0  0  0  0  0  0
   -8.3157   17.1992  -33.0738 H   0  0  0  0  0  0  0  0  0  0  0  0
   -6.7112   16.3915  -33.0738 H   0  0  0  0  0  0  0  0  0  0  0  0
   -4.7038   20.2616  -32.6889 H   0  0  0  0  0  0  0  0  0  0  0  0
  1  2  1  0
  2  3  1  0
  3  4  1  0
  4  5  2  0
  4  6  1  0
  6  7  1  0
  7  8  1  0
  8  9  1  0
  9 10  1  0
 10 11  2  0
 10 12  1  0
 12 13  1  0
 13 14  1  0
 14 15  1  0
 14 16  2  0
 13 17  2  0
 17 18  1  0
 18 19  2  0
 19 20  1  0
 20 21  2  0
 21 22  1  0
 22 23  1  0
 22 24  1  0
 21 25  1  0
 25 26  2  0
  7  2  2  0
 26 12  1  0
 26 18  1  0
  1 27  1  0
  1 28  1  0
  1 29  1  0
  8 30  1  0
  8 31  1  0
 15 32  1  0
 17 33  1  0
 19 34  1  0
 20 35  1  0
 23 36  1  0
 23 37  1  0
 23 38  1  0
 24 39  1  0
 24 40  1  0
 24 41  1  0
 25 42  1  0
M  CHG  1  15  -1
M  END
>  <UniqueID>  (41) 
41

>  <SMILES>  (41) 
Cc1oc(=O)oc1COC(=O)n1c(C([NH-])=O)cc2ccc(N(C)C)cc21

>  <Energy>  (41) 
112.18750636912291

>  <Genealogy>  (41) 
Cc1oc(=O)oc1COC(=O)n1c(C([NH-])=O)cc2ccc(N(C)C)cc21 (protonated)
Cc1oc(=O)oc1COC(=O)n1c(C([NH-])=O)cc2ccc(N(C)C)cc21 (3D coordinates assigned)
Cc1oc(=O)oc1COC(=O)n1c(C([NH-])=O)cc2ccc(N(C)C)cc21 (optimized conformer: 112.18750636912291 kcal/mol)

>  <smiles>  (41) 
Cc1oc(=O)oc1COC(=O)n1c(C(N)=O)cc2ccc(N(C)C)cc21

>  <score_type>  (41) 
oracle

>  <origin>  (41) 
adg

>  <m_score__min__energy>  (41) 
-10.91

>  <m_primary>  (41) 
energy

$$$$
41:0
     RDKit          3D

 49 51  0  0  0  0  0  0  0  0999 V2000
   -3.0310   19.5730  -27.0340 C   0  0  0  0  0  0  0  0  0  0  0  0
   -1.8710   20.3790  -26.6540 N   0  0  0  0  0  0  0  0  0  0  0  0
   -2.0350   21.7630  -27.1190 C   0  0  0  0  0  0  0  0  0  0  0  0
   -3.4850   22.0160  -27.5470 C   0  0  0  0  0  0  0  0  0  0  0  0
   -3.8820   23.4890  -27.3780 C   0  0  0  0  0  0  0  0  0  0  0  0
   -4.6440   24.0000  -28.6100 C   0  0  0  0  0  0  0  0  0  0  0  0
   -3.7110   24.3220  -29.7440 C   0  0  0  0  0  0  0  0  0  0  0  0
   -3.8870   25.3750  -30.4150 O   0  0  0  0  0  0  0  0  0  0  0  0
   -2.6610   23.4110  -30.1110 N   0  0  0  0  0  0  0  0  0  0  0  0
   -1.3430   23.4820  -29.7680 C   0  0  0  0  0  0  0  0  0  0  0  0
   -0.6940   24.5970  -29.0440 C   0  0  0  0  0  0  0  0  0  0  0  0
   -1.2710   25.9000  -29.0320 N   0  0  0  0  0  0  0  0  0  0  0  0
    0.4030   24.4040  -28.4580 O   0  0  0  0  0  0  0  0  0  0  0  0
   -0.6530   22.3710  -30.2480 C   0  0  0  0  0  0  0  0  0  0  0  0
   -1.5950   21.6110  -30.9030 C   0  0  0  0  0  0  0  0  0  0  0  0
   -1.4660   20.3910  -31.5580 C   0  0  0  0  0  0  0  0  0  0  0  0
   -2.6190   19.8170  -32.1220 C   0  0  0  0  0  0  0  0  0  0  0  0
   -3.8800   20.4640  -32.0160 C   0  0  0  0  0  0  0  0  0  0  0  0
   -5.0990   19.8510  -32.6030 C   0  0  0  0  0  0  0  0  0  0  0  0
   -5.2110   19.1630  -33.8050 C   0  0  0  0  0  0  0  0  0  0  0  0
   -6.4840   18.7530  -33.9490 N   0  0  0  0  0  0  0  0  0  0  0  0
   -7.1830   19.1600  -32.9040 N   0  0  0  0  0  0  0  0  0  0  0  0
   -8.5840   18.8320  -32.6690 C   0  0  0  0  0  0  0  0  0  0  0  0
   -6.3750   19.8210  -32.0550 C   0  0  0  0  0  0  0  0  0  0  0  0
   -3.9620   21.7020  -31.3380 C   0  0  0  0  0  0  0  0  0  0  0  0
   -2.7970   22.2590  -30.8040 C   0  0  0  0  0  0  0  0  0  0  0  0
   -3.5430   19.2172  -26.1278 H   0  0  0  0  0  0  0  0  0  0  0  0
   -3.7236   20.1854  -27.6300 H   0  0  0  0  0  0  0  0  0  0  0  0
   -2.6987   18.7102  -27.6300 H   0  0  0  0  0  0  0  0  0  0  0  0
   -1.0360   19.9710  -27.1380 H   0  0  0  0  0  0  0  0  0  0  0  0
   -1.7725   22.4527  -26.3033 H   0  0  0  0  0  0  0  0  0  0  0  0
   -1.3744   21.9293  -27.9827 H   0  0  0  0  0  0  0  0  0  0  0  0
   -3.5977   21.7363  -28.6049 H   0  0  0  0  0  0  0  0  0  0  0  0
   -4.1411   21.4099  -26.9050 H   0  0  0  0  0  0  0  0  0  0  0  0
   -4.5248   23.5886  -26.4909 H   0  0  0  0  0  0  0  0  0  0  0  0
   -2.9662   24.0869  -27.2602 H   0  0  0  0  0  0  0  0  0  0  0  0
   -5.3514   23.2246  -28.9391 H   0  0  0  0  0  0  0  0  0  0  0  0
   -5.1741   24.9218  -28.3285 H   0  0  0  0  0  0  0  0  0  0  0  0
   -2.3020   26.0300  -28.9360 H   0  0  0  0  0  0  0  0  0  0  0  0
    0.4176   22.1484  -30.1288 H   0  0  0  0  0  0  0  0  0  0  0  0
   -0.4899   19.8894  -31.6327 H   0  0  0  0  0  0  0  0  0  0  0  0
   -2.5442   18.8558  -32.6516 H   0  0  0  0  0  0  0  0  0  0  0  0
   -4.3945   18.9835  -34.5199 H   0  0  0  0  0  0  0  0  0  0  0  0
   -6.8640   18.1910  -34.7440 H   0  0  0  0  0  0  0  0  0  0  0  0
   -8.7736   18.7876  -31.5864 H   0  0  0  0  0  0  0  0  0  0  0  0
   -9.2225   19.6050  -33.1217 H   0  0  0  0  0  0  0  0  0  0  0  0
   -8.8130   17.8560  -33.1217 H   0  0  0  0  0  0  0  0  0  0  0  0
   -6.6736   20.2618  -31.0925 H   0  0  0  0  0  0  0  0  0  0  0  0
   -4.9275   22.2185  -31.2326 H   0  0  0  0  0  0  0  0  0  0  0  0
  1  2  1  0
  2  3  1  0
  3  4  1  0
  4  5  1  0
  5  6  1  0
  6  7  1  0
  7  8  2  0
  7  9  1  0
  9 10  1  0
 10 11  1  0
 11 12  1  0
 11 13  2  0
 10 14  2  0
 14 15  1  0
 15 16  2  0
 16 17  1  0
 17 18  2  0
 18 19  1  0
 19 20  1  0
 20 21  2  0
 21 22  1  0
 22 23  1  0
 22 24  1  0
 18 25  1  0
 25 26  2  0
 26  9  1  0
 26 15  1  0
 24 19  2  0
  1 27  1  0
  1 28  1  0
  1 29  1  0
  2 30  1  0
  3 31  1  0
  3 32  1  0
  4 33  1  0
  4 34  1  0
  5 35  1  0
  5 36  1  0
  6 37  1  0
  6 38  1  0
 12 39  1  0
 14 40  1  0
 16 41  1  0
 17 42  1  0
 20 43  1  0
 21 44  1  0
 23 45  1  0
 23 46  1  0
 23 47  1  0
 24 48  1  0
 25 49  1  0
M  CHG  2  12  -1  21   1
M  END
>  <UniqueID>  (42) 
42

>  <SMILES>  (42) 
CNCCCCC(=O)n1c(C([NH-])=O)cc2ccc(-c3c[nH+]n(C)c3)cc21

>  <Energy>  (42) 
112.27411147367361

>  <Genealogy>  (42) 
CNCCCCC(=O)n1c(C([NH-])=O)cc2ccc(-c3c[nH+]n(C)c3)cc21 (protonated)
CNCCCCC(=O)n1c(C([NH-])=O)cc2ccc(-c3c[nH+]n(C)c3)cc21 (3D coordinates assigned)
CNCCCCC(=O)n1c(C([NH-])=O)cc2ccc(-c3c[nH+]n(C)c3)cc21 (optimized conformer: 112.27411147367361 kcal/mol)

>  <smiles>  (42) 
CNCCCCC(=O)n1c(C(N)=O)cc2ccc(-c3cnn(C)c3)cc21

>  <score_type>  (42) 
oracle

>  <origin>  (42) 
adg

>  <m_score__min__energy>  (42) 
-11.109999999999999

>  <m_primary>  (42) 
energy

$$$$
42:0
     RDKit          3D

 39 40  0  0  0  0  0  0  0  0999 V2000
   -3.2290   24.1360  -27.7210 C   0  0  0  0  0  0  0  0  0  0  0  0
   -2.3580   24.5610  -28.8290 N   0  0  0  0  0  0  0  0  0  0  0  0
   -1.2470   25.3940  -28.3490 C   0  0  0  0  0  0  0  0  0  0  0  0
   -1.9220   23.4390  -29.6920 C   0  0  0  0  0  0  0  0  0  0  0  0
   -2.9560   22.2980  -29.8610 C   0  0  0  0  0  0  0  0  0  0  0  0
   -3.6310   22.3250  -31.2080 C   0  0  0  0  0  0  0  0  0  0  0  0
   -2.9340   22.1870  -32.2480 O   0  0  0  0  0  0  0  0  0  0  0  0
   -5.0550   22.5010  -31.3270 N   0  0  0  0  0  0  0  0  0  0  0  0
   -5.8190   23.5240  -30.8520 C   0  0  0  0  0  0  0  0  0  0  0  0
   -5.3170   24.7880  -30.2760 C   0  0  0  0  0  0  0  0  0  0  0  0
   -5.8390   25.3000  -29.0490 N   0  0  0  0  0  0  0  0  0  0  0  0
   -4.3790   25.4020  -30.8500 O   0  0  0  0  0  0  0  0  0  0  0  0
   -7.1720   23.2590  -31.0480 C   0  0  0  0  0  0  0  0  0  0  0  0
   -7.2150   22.0400  -31.6850 C   0  0  0  0  0  0  0  0  0  0  0  0
   -8.3050   21.2850  -32.1010 C   0  0  0  0  0  0  0  0  0  0  0  0
   -8.0550   20.0390  -32.7010 C   0  0  0  0  0  0  0  0  0  0  0  0
   -6.7260   19.5780  -32.8880 C   0  0  0  0  0  0  0  0  0  0  0  0
   -6.4710   18.2130  -33.4730 C   0  0  0  0  0  0  0  0  0  0  0  0
   -7.6030   17.4220  -33.3820 F   0  0  0  0  0  0  0  0  0  0  0  0
   -5.4390   17.6060  -32.7830 F   0  0  0  0  0  0  0  0  0  0  0  0
   -6.1220   18.3130  -34.8090 F   0  0  0  0  0  0  0  0  0  0  0  0
   -5.6440   20.3660  -32.4310 C   0  0  0  0  0  0  0  0  0  0  0  0
   -5.9240   21.6070  -31.8470 C   0  0  0  0  0  0  0  0  0  0  0  0
   -2.7444   24.3725  -26.7622 H   0  0  0  0  0  0  0  0  0  0  0  0
   -4.1906   24.6662  -27.7864 H   0  0  0  0  0  0  0  0  0  0  0  0
   -3.4029   23.0518  -27.7864 H   0  0  0  0  0  0  0  0  0  0  0  0
   -1.2408   25.3986  -27.2490 H   0  0  0  0  0  0  0  0  0  0  0  0
   -0.2954   24.9849  -28.7193 H   0  0  0  0  0  0  0  0  0  0  0  0
   -1.3730   26.4221  -28.7193 H   0  0  0  0  0  0  0  0  0  0  0  0
   -1.6962   23.8444  -30.6893 H   0  0  0  0  0  0  0  0  0  0  0  0
   -1.0504   22.9903  -29.1930 H   0  0  0  0  0  0  0  0  0  0  0  0
   -2.4394   21.3338  -29.7447 H   0  0  0  0  0  0  0  0  0  0  0  0
   -3.7334   22.4356  -29.0950 H   0  0  0  0  0  0  0  0  0  0  0  0
   -5.5060   26.2170  -28.6800 H   0  0  0  0  0  0  0  0  0  0  0  0
   -6.4940   24.7360  -28.4630 H   0  0  0  0  0  0  0  0  0  0  0  0
   -8.0246   23.8897  -30.7559 H   0  0  0  0  0  0  0  0  0  0  0  0
   -9.3330   21.6518  -31.9647 H   0  0  0  0  0  0  0  0  0  0  0  0
   -8.8987   19.4142  -33.0293 H   0  0  0  0  0  0  0  0  0  0  0  0
   -4.6074   20.0122  -32.5321 H   0  0  0  0  0  0  0  0  0  0  0  0
  1  2  1  0
  2  3  1  0
  2  4  1  0
  4  5  1  0
  5  6  1  0
  6  7  2  0
  6  8  1  0
  8  9  1  0
  9 10  1  0
 10 11  1  0
 10 12  2  0
  9 13  2  0
 13 14  1  0
 14 15  2  0
 15 16  1  0
 16 17  2  0
 17 18  1  0
 18 19  1  0
 18 20  1  0
 18 21  1  0
 17 22  1  0
 22 23  2  0
 23  8  1  0
 23 14  1  0
  1 24  1  0
  1 25  1  0
  1 26  1  0
  3 27  1  0
  3 28  1  0
  3 29  1  0
  4 30  1  0
  4 31  1  0
  5 32  1  0
  5 33  1  0
 11 34  1  0
 11 35  1  0
 13 36  1  0
 15 37  1  0
 16 38  1  0
 22 39  1  0
M  END
>  <UniqueID>  (43) 
43

>  <SMILES>  (43) 
CN(C)CCC(=O)n1c(C(N)=O)cc2ccc(C(F)(F)F)cc21

>  <Energy>  (43) 
81.2655622618652

>  <Genealogy>  (43) 
CN(C)CCC(=O)n1c(C(N)=O)cc2ccc(C(F)(F)F)cc21 (3D coordinates assigned)
CN(C)CCC(=O)n1c(C(N)=O)cc2ccc(C(F)(F)F)cc21 (optimized conformer: 81.2655622618652 kcal/mol)

>  <smiles>  (43) 
CN(C)CCC(=O)n1c(C(N)=O)cc2ccc(C(F)(F)F)cc21

>  <score_type>  (43) 
oracle

>  <origin>  (43) 
adg

>  <m_score__min__energy>  (43) 
-8.1799999999999997

>  <m_primary>  (43) 
energy

$$$$
43:0
     RDKit          3D

 48 50  0  0  0  0  0  0  0  0999 V2000
   -4.4560   14.4110  -32.2870 C   0  0  0  0  0  0  0  0  0  0  0  0
   -4.7840   15.8290  -32.5110 N   0  0  0  0  0  0  0  0  0  0  0  0
   -3.7150   16.4580  -33.3040 C   0  0  0  0  0  0  0  0  0  0  0  0
   -6.0850   15.9750  -33.2010 C   0  0  0  0  0  0  0  0  0  0  0  0
   -6.8110   17.2560  -32.7650 C   0  0  0  0  0  0  0  0  0  0  0  0
   -6.4380   18.4550  -33.6470 C   0  0  0  0  0  0  0  0  0  0  0  0
   -6.7480   19.7460  -32.9400 C   0  0  0  0  0  0  0  0  0  0  0  0
   -8.0920   20.1740  -32.7970 C   0  0  0  0  0  0  0  0  0  0  0  0
   -8.3920   21.3980  -32.1760 C   0  0  0  0  0  0  0  0  0  0  0  0
   -7.3310   22.1720  -31.7130 C   0  0  0  0  0  0  0  0  0  0  0  0
   -7.3320   23.4090  -31.1070 C   0  0  0  0  0  0  0  0  0  0  0  0
   -5.9910   23.7100  -30.8830 C   0  0  0  0  0  0  0  0  0  0  0  0
   -5.5300   24.9440  -30.2160 C   0  0  0  0  0  0  0  0  0  0  0  0
   -6.0950   25.3770  -28.9770 N   0  0  0  0  0  0  0  0  0  0  0  0
   -4.6480   25.6530  -30.7710 O   0  0  0  0  0  0  0  0  0  0  0  0
   -5.1920   22.7080  -31.3500 N   0  0  0  0  0  0  0  0  0  0  0  0
   -3.7560   22.6710  -31.4020 C   0  0  0  0  0  0  0  0  0  0  0  0
   -3.0990   23.6040  -30.8650 O   0  0  0  0  0  0  0  0  0  0  0  0
   -3.0400   21.5520  -32.0590 C   0  0  0  0  0  0  0  0  0  0  0  0
   -2.4720   20.5190  -31.2930 C   0  0  0  0  0  0  0  0  0  0  0  0
   -1.8010   19.4690  -31.9220 C   0  0  0  0  0  0  0  0  0  0  0  0
   -1.7070   19.4520  -33.3130 C   0  0  0  0  0  0  0  0  0  0  0  0
   -2.2690   20.4500  -34.0450 N   0  0  0  0  0  0  0  0  0  0  0  0
   -2.9270   21.4840  -33.4590 C   0  0  0  0  0  0  0  0  0  0  0  0
   -6.0270   21.7720  -31.8460 C   0  0  0  0  0  0  0  0  0  0  0  0
   -5.6970   20.5650  -32.4710 C   0  0  0  0  0  0  0  0  0  0  0  0
   -4.4099   14.2116  -31.2062 H   0  0  0  0  0  0  0  0  0  0  0  0
   -5.2316   13.7787  -32.7437 H   0  0  0  0  0  0  0  0  0  0  0  0
   -3.4815   14.1835  -32.7437 H   0  0  0  0  0  0  0  0  0  0  0  0
   -2.9673   16.8980  -32.6277 H   0  0  0  0  0  0  0  0  0  0  0  0
   -3.2340   15.6989  -33.9384 H   0  0  0  0  0  0  0  0  0  0  0  0
   -4.1450   17.2471  -33.9384 H   0  0  0  0  0  0  0  0  0  0  0  0
   -5.9118   16.0139  -34.2866 H   0  0  0  0  0  0  0  0  0  0  0  0
   -6.7153   15.1132  -32.9364 H   0  0  0  0  0  0  0  0  0  0  0  0
   -7.8963   17.0897  -32.8318 H   0  0  0  0  0  0  0  0  0  0  0  0
   -6.5070   17.4850  -31.7329 H   0  0  0  0  0  0  0  0  0  0  0  0
   -5.3625   18.4162  -33.8747 H   0  0  0  0  0  0  0  0  0  0  0  0
   -7.0244   18.4088  -34.5765 H   0  0  0  0  0  0  0  0  0  0  0  0
   -8.9081   19.5414  -33.1761 H   0  0  0  0  0  0  0  0  0  0  0  0
   -9.4327   21.7345  -32.0591 H   0  0  0  0  0  0  0  0  0  0  0  0
   -8.2059   24.0273  -30.8539 H   0  0  0  0  0  0  0  0  0  0  0  0
   -6.9490   24.9260  -28.5840 H   0  0  0  0  0  0  0  0  0  0  0  0
   -5.7090   26.2170  -28.4920 H   0  0  0  0  0  0  0  0  0  0  0  0
   -2.5565   20.5382  -30.1964 H   0  0  0  0  0  0  0  0  0  0  0  0
   -1.3503   18.6621  -31.3255 H   0  0  0  0  0  0  0  0  0  0  0  0
   -1.1778   18.6306  -33.8183 H   0  0  0  0  0  0  0  0  0  0  0  0
   -3.3737   22.2722  -34.0829 H   0  0  0  0  0  0  0  0  0  0  0  0
   -4.6469   20.2616  -32.5940 H   0  0  0  0  0  0  0  0  0  0  0  0
  1  2  1  0
  2  3  1  0
  2  4  1  0
  4  5  1  0
  5  6  1  0
  6  7  1  0
  7  8  2  0
  8  9  1  0
  9 10  2  0
 10 11  1  0
 11 12  2  0
 12 13  1  0
 13 14  1  0
 13 15  2  0
 12 16  1  0
 16 17  1  0
 17 18  2  0
 17 19  1  0
 19 20  2  0
 20 21  1  0
 21 22  2  0
 22 23  1  0
 23 24  2  0
 16 25  1  0
 25 26  2  0
 26  7  1  0
 25 10  1  0
 24 19  1  0
  1 27  1  0
  1 28  1  0
  1 29  1  0
  3 30  1  0
  3 31  1  0
  3 32  1  0
  4 33  1  0
  4 34  1  0
  5 35  1  0
  5 36  1  0
  6 37  1  0
  6 38  1  0
  8 39  1  0
  9 40  1  0
 11 41  1  0
 14 42  1  0
 14 43  1  0
 20 44  1  0
 21 45  1  0
 22 46  1  0
 24 47  1  0
 26 48  1  0
M  END
>  <UniqueID>  (44) 
44

>  <SMILES>  (44) 
CN(C)CCCc1ccc2cc(C(N)=O)n(C(=O)c3cccnc3)c2c1

>  <Energy>  (44) 
88.65868699057825

>  <Genealogy>  (44) 
CN(C)CCCc1ccc2cc(C(N)=O)n(C(=O)c3cccnc3)c2c1 (3D coordinates assigned)
CN(C)CCCc1ccc2cc(C(N)=O)n(C(=O)c3cccnc3)c2c1 (optimized conformer: 88.65868699057825 kcal/mol)

>  <smiles>  (44) 
CN(C)CCCc1ccc2cc(C(N)=O)n(C(=O)c3cccnc3)c2c1

>  <score_type>  (44) 
oracle

>  <origin>  (44) 
adg

>  <m_score__min__energy>  (44) 
-9.3900000000000006

>  <m_primary>  (44) 
energy

$$$$
44:0
     RDKit          3D

 31 32  0  0  0  0  0  0  0  0999 V2000
   -9.4910   20.8200  -31.9760 C   0  0  0  0  0  0  0  0  0  0  0  0
   -9.4130   22.2020  -31.6530 O   0  0  0  0  0  0  0  0  0  0  0  0
   -8.2190   22.9260  -31.7190 C   0  0  0  0  0  0  0  0  0  0  0  0
   -8.0240   23.7530  -32.6530 O   0  0  0  0  0  0  0  0  0  0  0  0
   -7.1790   22.7030  -30.7050 C   0  0  0  0  0  0  0  0  0  0  0  0
   -7.4760   22.8030  -29.4840 O   0  0  0  0  0  0  0  0  0  0  0  0
   -5.8400   22.3460  -31.0840 N   0  0  0  0  0  0  0  0  0  0  0  0
   -4.7220   23.1170  -30.9790 C   0  0  0  0  0  0  0  0  0  0  0  0
   -4.6400   24.4320  -30.3120 C   0  0  0  0  0  0  0  0  0  0  0  0
   -5.3800   24.7120  -29.1230 N   0  0  0  0  0  0  0  0  0  0  0  0
   -3.8660   25.3130  -30.7760 O   0  0  0  0  0  0  0  0  0  0  0  0
   -3.6380   22.4940  -31.5930 C   0  0  0  0  0  0  0  0  0  0  0  0
   -4.1310   21.3050  -32.0800 C   0  0  0  0  0  0  0  0  0  0  0  0
   -3.4990   20.3100  -32.8180 C   0  0  0  0  0  0  0  0  0  0  0  0
   -4.2700   19.2180  -33.2500 C   0  0  0  0  0  0  0  0  0  0  0  0
   -5.6520   19.1350  -32.9350 C   0  0  0  0  0  0  0  0  0  0  0  0
   -6.4830   17.9930  -33.4600 C   0  0  0  0  0  0  0  0  0  0  0  0
   -6.0280   16.8080  -32.9130 F   0  0  0  0  0  0  0  0  0  0  0  0
   -6.3940   17.9160  -34.8400 F   0  0  0  0  0  0  0  0  0  0  0  0
   -7.8160   18.1640  -33.1230 F   0  0  0  0  0  0  0  0  0  0  0  0
   -6.2640   20.1820  -32.2070 C   0  0  0  0  0  0  0  0  0  0  0  0
   -5.4640   21.2440  -31.7670 C   0  0  0  0  0  0  0  0  0  0  0  0
   -9.5244   20.2282  -31.0494 H   0  0  0  0  0  0  0  0  0  0  0  0
  -10.4012   20.6318  -32.5643 H   0  0  0  0  0  0  0  0  0  0  0  0
   -8.6078   20.5305  -32.5643 H   0  0  0  0  0  0  0  0  0  0  0  0
   -5.8720   23.9550  -28.6000 H   0  0  0  0  0  0  0  0  0  0  0  0
   -5.3500   25.6670  -28.7010 H   0  0  0  0  0  0  0  0  0  0  0  0
   -2.6079   22.8717  -31.6718 H   0  0  0  0  0  0  0  0  0  0  0  0
   -2.4272   20.3761  -33.0564 H   0  0  0  0  0  0  0  0  0  0  0  0
   -3.7976   18.4181  -33.8391 H   0  0  0  0  0  0  0  0  0  0  0  0
   -7.3425   20.1626  -31.9916 H   0  0  0  0  0  0  0  0  0  0  0  0
  1  2  1  0
  2  3  1  0
  3  4  2  0
  3  5  1  0
  5  6  2  0
  5  7  1  0
  7  8  1  0
  8  9  1  0
  9 10  1  0
  9 11  2  0
  8 12  2  0
 12 13  1  0
 13 14  2  0
 14 15  1  0
 15 16  2  0
 16 17  1  0
 17 18  1  0
 17 19  1  0
 17 20  1  0
 16 21  1  0
 21 22  2  0
 22  7  1  0
 22 13  1  0
  1 23  1  0
  1 24  1  0
  1 25  1  0
 10 26  1  0
 10 27  1  0
 12 28  1  0
 14 29  1  0
 15 30  1  0
 21 31  1  0
M  END
>  <UniqueID>  (45) 
45

>  <SMILES>  (45) 
COC(=O)C(=O)n1c(C(N)=O)cc2ccc(C(F)(F)F)cc21

>  <Energy>  (45) 
69.62698904156149

>  <Genealogy>  (45) 
COC(=O)C(=O)n1c(C(N)=O)cc2ccc(C(F)(F)F)cc21 (3D coordinates assigned)
COC(=O)C(=O)n1c(C(N)=O)cc2ccc(C(F)(F)F)cc21 (optimized conformer: 69.62698904156149 kcal/mol)

>  <smiles>  (45) 
COC(=O)C(=O)n1c(C(N)=O)cc2ccc(C(F)(F)F)cc21

>  <score_type>  (45) 
oracle

>  <origin>  (45) 
adg

>  <m_score__min__energy>  (45) 
-7.5899999999999999

>  <m_primary>  (45) 
energy

$$$$
45:0
     RDKit          3D

 55 57  0  0  0  0  0  0  0  0999 V2000
   -2.2870   19.0570  -33.1370 C   0  0  0  0  0  0  0  0  0  0  0  0
   -2.2420   20.4450  -32.6670 N   0  0  0  0  0  0  0  0  0  0  0  0
   -2.9170   21.5020  -33.4220 C   0  0  0  0  0  0  0  0  0  0  0  0
   -1.3630   20.8070  -31.5870 C   0  0  0  0  0  0  0  0  0  0  0  0
   -0.6870   21.8690  -31.6610 O   0  0  0  0  0  0  0  0  0  0  0  0
   -1.2060   19.9640  -30.4420 N   0  0  0  0  0  0  0  0  0  0  0  0
   -0.5740   20.4150  -29.2060 C   0  0  0  0  0  0  0  0  0  0  0  0
   -1.0940   21.8030  -28.8120 C   0  0  0  0  0  0  0  0  0  0  0  0
   -2.5970   21.8570  -28.7430 C   0  0  0  0  0  0  0  0  0  0  0  0
   -3.2160   21.0350  -28.0150 O   0  0  0  0  0  0  0  0  0  0  0  0
   -3.3320   22.8830  -29.4330 N   0  0  0  0  0  0  0  0  0  0  0  0
   -3.2170   24.2310  -29.2730 C   0  0  0  0  0  0  0  0  0  0  0  0
   -2.2240   24.9210  -28.4230 C   0  0  0  0  0  0  0  0  0  0  0  0
   -1.4420   25.9860  -28.9630 N   0  0  0  0  0  0  0  0  0  0  0  0
   -2.0290   24.5560  -27.2330 O   0  0  0  0  0  0  0  0  0  0  0  0
   -4.1400   24.9010  -30.0740 C   0  0  0  0  0  0  0  0  0  0  0  0
   -4.8310   23.9120  -30.7350 C   0  0  0  0  0  0  0  0  0  0  0  0
   -5.8790   24.0100  -31.6440 C   0  0  0  0  0  0  0  0  0  0  0  0
   -6.4310   22.8190  -32.1460 C   0  0  0  0  0  0  0  0  0  0  0  0
   -5.9360   21.5540  -31.7280 C   0  0  0  0  0  0  0  0  0  0  0  0
   -6.5150   20.3340  -32.2420 N   0  0  0  0  0  0  0  0  0  0  0  0
   -7.9650   20.1020  -32.1450 C   0  0  0  0  0  0  0  0  0  0  0  0
   -8.2580   18.6130  -31.9290 C   0  0  0  0  0  0  0  0  0  0  0  0
   -7.5890   17.7000  -32.9810 C   0  0  0  0  0  0  0  0  0  0  0  0
   -6.5090   18.4120  -33.8190 C   0  0  2  0  0  0  0  0  0  0  0  0
   -5.6440   17.4110  -34.5350 C   0  0  0  0  0  0  0  0  0  0  0  0
   -4.7760   17.7910  -35.3640 O   0  0  0  0  0  0  0  0  0  0  0  0
   -5.7780   16.0560  -34.2570 O   0  0  0  0  0  0  0  0  0  0  0  0
   -5.6650   19.3610  -32.9480 C   0  0  0  0  0  0  0  0  0  0  0  0
   -4.8740   21.5060  -30.7940 C   0  0  0  0  0  0  0  0  0  0  0  0
   -4.3280   22.7040  -30.3300 C   0  0  0  0  0  0  0  0  0  0  0  0
   -2.3090   18.3776  -32.2722 H   0  0  0  0  0  0  0  0  0  0  0  0
   -3.1905   18.9051  -33.7457 H   0  0  0  0  0  0  0  0  0  0  0  0
   -1.3952   18.8469  -33.7457 H   0  0  0  0  0  0  0  0  0  0  0  0
   -3.3740   22.2176  -32.7226 H   0  0  0  0  0  0  0  0  0  0  0  0
   -2.1852   22.0248  -34.0554 H   0  0  0  0  0  0  0  0  0  0  0  0
   -3.6991   21.0580  -34.0554 H   0  0  0  0  0  0  0  0  0  0  0  0
   -0.8026   19.7009  -28.4011 H   0  0  0  0  0  0  0  0  0  0  0  0
    0.5131   20.4739  -29.3633 H   0  0  0  0  0  0  0  0  0  0  0  0
   -0.6858   22.0656  -27.8249 H   0  0  0  0  0  0  0  0  0  0  0  0
   -0.7690   22.5139  -29.5859 H   0  0  0  0  0  0  0  0  0  0  0  0
   -1.2330   26.0340  -29.9840 H   0  0  0  0  0  0  0  0  0  0  0  0
   -4.2850   25.9881  -30.1594 H   0  0  0  0  0  0  0  0  0  0  0  0
   -6.2644   24.9904  -31.9606 H   0  0  0  0  0  0  0  0  0  0  0  0
   -7.2565   22.8665  -32.8715 H   0  0  0  0  0  0  0  0  0  0  0  0
   -8.3675   20.6766  -31.2978 H   0  0  0  0  0  0  0  0  0  0  0  0
   -8.4402   20.4253  -33.0829 H   0  0  0  0  0  0  0  0  0  0  0  0
   -7.8904   18.3257  -30.9329 H   0  0  0  0  0  0  0  0  0  0  0  0
   -9.3455   18.4776  -32.0242 H   0  0  0  0  0  0  0  0  0  0  0  0
   -7.1212   16.8525  -32.4587 H   0  0  0  0  0  0  0  0  0  0  0  0
   -8.3776   17.3788  -33.6773 H   0  0  0  0  0  0  0  0  0  0  0  0
   -7.0157   19.0252  -34.5788 H   0  0  0  0  0  0  0  0  0  0  0  0
   -5.1077   18.7681  -32.2078 H   0  0  0  0  0  0  0  0  0  0  0  0
   -4.9745   19.9127  -33.6029 H   0  0  0  0  0  0  0  0  0  0  0  0
   -4.4850   20.5402  -30.4393 H   0  0  0  0  0  0  0  0  0  0  0  0
  1  2  1  0
  2  3  1  0
  2  4  1  0
  4  5  2  0
  4  6  1  0
  6  7  1  0
  7  8  1  0
  8  9  1  0
  9 10  2  0
  9 11  1  0
 11 12  1  0
 12 13  1  0
 13 14  1  0
 13 15  2  0
 12 16  2  0
 16 17  1  0
 17 18  2  0
 18 19  1  0
 19 20  2  0
 20 21  1  0
 21 22  1  0
 22 23  1  0
 23 24  1  0
 24 25  1  0
 25 26  1  0
 26 27  2  0
 26 28  1  0
 25 29  1  0
 20 30  1  0
 30 31  2  0
 31 11  1  0
 31 17  1  0
 29 21  1  0
  1 32  1  0
  1 33  1  0
  1 34  1  0
  3 35  1  0
  3 36  1  0
  3 37  1  0
  7 38  1  0
  7 39  1  0
  8 40  1  0
  8 41  1  0
 14 42  1  0
 16 43  1  0
 18 44  1  0
 19 45  1  0
 22 46  1  0
 22 47  1  0
 23 48  1  0
 23 49  1  0
 24 50  1  0
 24 51  1  0
 25 52  1  6
 29 53  1  0
 29 54  1  0
 30 55  1  0
M  CHG  3   6  -1  14  -1  28  -1
M  END
>  <UniqueID>  (46) 
46

>  <SMILES>  (46) 
CN(C)C(=O)[N-]CCC(=O)n1c(C([NH-])=O)cc2ccc(N3CCC[C@H](C(=O)[O-])C3)cc21

>  <Energy>  (46) 
100.40351627417097

>  <Genealogy>  (46) 
CN(C)C(=O)[N-]CCC(=O)n1c(C([NH-])=O)cc2ccc(N3CCCC(C(=O)[O-])C3)cc21 (protonated)
CN(C)C(=O)[N-]CCC(=O)n1c(C([NH-])=O)cc2ccc(N3CCC[C@H](C(=O)[O-])C3)cc21 (chirality)
CN(C)C(=O)[N-]CCC(=O)n1c(C([NH-])=O)cc2ccc(N3CCC[C@H](C(=O)[O-])C3)cc21 (3D coordinates assigned)
CN(C)C(=O)[N-]CCC(=O)n1c(C([NH-])=O)cc2ccc(N3CCC[C@H](C(=O)[O-])C3)cc21 (nonaromatic ring conformer: 100.40351627417097 kcal/mol)

>  <smiles>  (46) 
CN(C)C(=O)NCCC(=O)n1c(C(N)=O)cc2ccc(N3CCCC(C(=O)O)C3)cc21

>  <score_type>  (46) 
oracle

>  <origin>  (46) 
adg

>  <m_score__min__energy>  (46) 
-12.06

>  <m_primary>  (46) 
energy

$$$$
46:0
     RDKit          3D

 62 65  0  0  0  0  0  0  0  0999 V2000
   -1.4170   25.0370  -25.2820 C   0  0  0  0  0  0  0  0  0  0  0  0
   -2.1500   25.6500  -26.4040 N   0  0  0  0  0  0  0  0  0  0  0  0
   -3.3820   24.8990  -26.7290 C   0  0  0  0  0  0  0  0  0  0  0  0
   -3.0910   23.5300  -27.3870 C   0  0  0  0  0  0  0  0  0  0  0  0
   -1.7590   23.5040  -28.0230 N   0  0  0  0  0  0  0  0  0  0  0  0
   -1.5200   22.3200  -28.8760 C   0  0  0  0  0  0  0  0  0  0  0  0
   -2.6830   21.3080  -28.9080 C   0  0  0  0  0  0  0  0  0  0  0  0
   -3.3000   21.3120  -30.1930 O   0  0  0  0  0  0  0  0  0  0  0  0
   -3.7020   22.4840  -30.8450 C   0  0  0  0  0  0  0  0  0  0  0  0
   -2.8420   23.3080  -31.2630 O   0  0  0  0  0  0  0  0  0  0  0  0
   -5.0970   22.7330  -31.0740 N   0  0  0  0  0  0  0  0  0  0  0  0
   -5.8060   23.8580  -30.7720 C   0  0  0  0  0  0  0  0  0  0  0  0
   -5.2420   25.1380  -30.2910 C   0  0  0  0  0  0  0  0  0  0  0  0
   -4.0210   25.6460  -30.8180 N   0  0  0  0  0  0  0  0  0  0  0  0
   -5.8760   25.8150  -29.4380 O   0  0  0  0  0  0  0  0  0  0  0  0
   -7.1560   23.6760  -31.0640 C   0  0  0  0  0  0  0  0  0  0  0  0
   -7.2530   22.3990  -31.5660 C   0  0  0  0  0  0  0  0  0  0  0  0
   -8.3660   21.6910  -32.0140 C   0  0  0  0  0  0  0  0  0  0  0  0
   -8.1720   20.3730  -32.4600 C   0  0  0  0  0  0  0  0  0  0  0  0
   -6.8840   19.7890  -32.4380 C   0  0  0  0  0  0  0  0  0  0  0  0
   -6.7010   18.4440  -32.8830 N   0  0  0  0  0  0  0  0  0  0  0  0
   -6.6800   17.0930  -32.2850 C   0  0  0  0  0  0  0  0  0  0  0  0
   -6.4010   16.3620  -33.5630 C   0  0  0  0  0  0  0  0  0  0  0  0
   -5.0900   15.6550  -33.5840 N   0  0  0  0  0  0  0  0  0  0  0  0
   -4.6370   15.0530  -32.3110 C   0  0  0  0  0  0  0  0  0  0  0  0
   -4.0490   16.5500  -34.1120 C   0  0  0  0  0  0  0  0  0  0  0  0
   -6.4570   17.7420  -34.1580 C   0  0  0  0  0  0  0  0  0  0  0  0
   -5.7800   20.5330  -31.9760 C   0  0  0  0  0  0  0  0  0  0  0  0
   -5.9960   21.8510  -31.5600 C   0  0  0  0  0  0  0  0  0  0  0  0
   -1.4310   24.7840  -28.6670 C   0  0  0  0  0  0  0  0  0  0  0  0
   -1.2840   25.8730  -27.5890 C   0  0  0  0  0  0  0  0  0  0  0  0
   -1.8403   25.3910  -24.3304 H   0  0  0  0  0  0  0  0  0  0  0  0
   -1.5080   23.9423  -25.3391 H   0  0  0  0  0  0  0  0  0  0  0  0
   -0.3556   25.3202  -25.3391 H   0  0  0  0  0  0  0  0  0  0  0  0
   -3.9464   24.7300  -25.8001 H   0  0  0  0  0  0  0  0  0  0  0  0
   -3.9560   25.4989  -27.4506 H   0  0  0  0  0  0  0  0  0  0  0  0
   -3.1334   22.7471  -26.6155 H   0  0  0  0  0  0  0  0  0  0  0  0
   -3.8474   23.3555  -28.1663 H   0  0  0  0  0  0  0  0  0  0  0  0
   -1.3394   22.6681  -29.9037 H   0  0  0  0  0  0  0  0  0  0  0  0
   -0.6582   21.7916  -28.4424 H   0  0  0  0  0  0  0  0  0  0  0  0
   -2.2953   20.3012  -28.6936 H   0  0  0  0  0  0  0  0  0  0  0  0
   -3.4279   21.5912  -28.1498 H   0  0  0  0  0  0  0  0  0  0  0  0
   -3.1000   25.2960  -30.4730 H   0  0  0  0  0  0  0  0  0  0  0  0
   -7.9718   24.4003  -30.9230 H   0  0  0  0  0  0  0  0  0  0  0  0
   -9.3658   22.1497  -32.0184 H   0  0  0  0  0  0  0  0  0  0  0  0
   -9.0288   19.7904  -32.8294 H   0  0  0  0  0  0  0  0  0  0  0  0
   -5.8791   16.9697  -31.5411 H   0  0  0  0  0  0  0  0  0  0  0  0
   -7.5666   16.7833  -31.7124 H   0  0  0  0  0  0  0  0  0  0  0  0
   -6.9920   15.5243  -33.9618 H   0  0  0  0  0  0  0  0  0  0  0  0
   -5.0613   15.6169  -31.4673 H   0  0  0  0  0  0  0  0  0  0  0  0
   -4.9741   14.0072  -32.2596 H   0  0  0  0  0  0  0  0  0  0  0  0
   -3.5387   15.0872  -32.2596 H   0  0  0  0  0  0  0  0  0  0  0  0
   -3.5072   17.0158  -33.2757 H   0  0  0  0  0  0  0  0  0  0  0  0
   -3.3451   15.9707  -34.7276 H   0  0  0  0  0  0  0  0  0  0  0  0
   -4.5162   17.3328  -34.7276 H   0  0  0  0  0  0  0  0  0  0  0  0
   -5.5107   18.0394  -34.6336 H   0  0  0  0  0  0  0  0  0  0  0  0
   -7.1774   17.9108  -34.9720 H   0  0  0  0  0  0  0  0  0  0  0  0
   -4.7742   20.0888  -31.9433 H   0  0  0  0  0  0  0  0  0  0  0  0
   -0.4857   24.6851  -29.2207 H   0  0  0  0  0  0  0  0  0  0  0  0
   -2.2348   25.0622  -29.3645 H   0  0  0  0  0  0  0  0  0  0  0  0
   -0.2359   25.8946  -27.2558 H   0  0  0  0  0  0  0  0  0  0  0  0
   -1.5952   26.8248  -28.0442 H   0  0  0  0  0  0  0  0  0  0  0  0
  1  2  1  0
  2  3  1  0
  3  4  1  0
  4  5  1  0
  5  6  1  0
  6  7  1  0
  7  8  1  0
  8  9  1  0
  9 10  2  0
  9 11  1  0
 11 12  1  0
 12 13  1  0
 13 14  1  0
 13 15  2  0
 12 16  2  0
 16 17  1  0
 17 18  2  0
 18 19  1  0
 19 20  2  0
 20 21  1  0
 21 22  1  0
 22 23  1  0
 23 24  1  0
 24 25  1  0
 24 26  1  0
 23 27  1  0
 20 28  1  0
 28 29  2  0
  5 30  1  0
 30 31  1  0
 31  2  1  0
 29 11  1  0
 29 17  1  0
 27 21  1  0
  1 32  1  0
  1 33  1  0
  1 34  1  0
  3 35  1  0
  3 36  1  0
  4 37  1  0
  4 38  1  0
  6 39  1  0
  6 40  1  0
  7 41  1  0
  7 42  1  0
 14 43  1  0
 16 44  1  0
 18 45  1  0
 19 46  1  0
 22 47  1  0
 22 48  1  0
 23 49  1  0
 25 50  1  0
 25 51  1  0
 25 52  1  0
 26 53  1  0
 26 54  1  0
 26 55  1  0
 27 56  1  0
 27 57  1  0
 28 58  1  0
 30 59  1  0
 30 60  1  0
 31 61  1  0
 31 62  1  0
M  CHG  1  14  -1
M  END
>  <UniqueID>  (47) 
47

>  <SMILES>  (47) 
CN1CCN(CCOC(=O)n2c(C([NH-])=O)cc3ccc(N4CC(N(C)C)C4)cc32)CC1

>  <Energy>  (47) 
166.85292261019012

>  <Genealogy>  (47) 
CN1CCN(CCOC(=O)n2c(C([NH-])=O)cc3ccc(N4CC(N(C)C)C4)cc32)CC1 (protonated)
CN1CCN(CCOC(=O)n2c(C([NH-])=O)cc3ccc(N4CC(N(C)C)C4)cc32)CC1 (3D coordinates assigned)
CN1CCN(CCOC(=O)n2c(C([NH-])=O)cc3ccc(N4CC(N(C)C)C4)cc32)CC1 (nonaromatic ring conformer: 166.85292261019012 kcal/mol)

>  <smiles>  (47) 
CN1CCN(CCOC(=O)n2c(C(N)=O)cc3ccc(N4CC(N(C)C)C4)cc32)CC1

>  <score_type>  (47) 
oracle

>  <origin>  (47) 
adg

>  <m_score__min__energy>  (47) 
-11.720000000000001

>  <m_primary>  (47) 
energy

$$$$
47:0
     RDKit          3D

 55 56  0  0  0  0  0  0  0  0999 V2000
   -2.7050   17.7360  -34.5880 C   0  0  0  0  0  0  0  0  0  0  0  0
   -3.4410   18.2010  -33.3250 C   0  0  0  0  0  0  0  0  0  0  0  0
   -3.5540   19.7270  -33.2630 C   0  0  0  0  0  0  0  0  0  0  0  0
   -4.7680   17.5610  -33.2080 N   0  0  0  0  0  0  0  0  0  0  0  0
   -4.8560   16.2020  -32.6660 C   0  0  0  0  0  0  0  0  0  0  0  0
   -5.9770   18.2360  -33.6280 C   0  0  0  0  0  0  0  0  0  0  0  0
   -6.0720   18.6940  -34.7990 O   0  0  0  0  0  0  0  0  0  0  0  0
   -7.1580   18.3900  -32.7030 C   0  0  0  0  0  0  0  0  0  0  0  0
   -7.3450   19.8240  -32.2720 C   0  0  0  0  0  0  0  0  0  0  0  0
   -8.6320   20.4170  -32.3140 C   0  0  0  0  0  0  0  0  0  0  0  0
   -8.8180   21.7560  -31.9280 C   0  0  0  0  0  0  0  0  0  0  0  0
   -7.7060   22.4690  -31.4900 C   0  0  0  0  0  0  0  0  0  0  0  0
   -7.5850   23.7890  -31.1120 C   0  0  0  0  0  0  0  0  0  0  0  0
   -6.2300   23.9700  -30.8280 C   0  0  0  0  0  0  0  0  0  0  0  0
   -5.6190   25.2390  -30.3620 C   0  0  0  0  0  0  0  0  0  0  0  0
   -4.2670   25.5730  -30.6880 N   0  0  0  0  0  0  0  0  0  0  0  0
   -6.2980   26.0530  -29.6810 O   0  0  0  0  0  0  0  0  0  0  0  0
   -5.5530   22.8030  -31.0110 N   0  0  0  0  0  0  0  0  0  0  0  0
   -4.1420   22.5800  -30.9010 C   0  0  0  0  0  0  0  0  0  0  0  0
   -3.3860   22.9650  -31.8340 O   0  0  0  0  0  0  0  0  0  0  0  0
   -3.5900   21.9360  -29.7350 N   0  0  0  0  0  0  0  0  0  0  0  0
   -2.9610   20.6210  -29.8930 C   0  0  0  0  0  0  0  0  0  0  0  0
   -3.8830   22.4560  -28.3930 C   0  0  0  0  0  0  0  0  0  0  0  0
   -3.4770   24.1930  -28.2580 S   0  0  0  0  0  0  0  0  0  0  0  0
   -2.8160   24.6000  -26.6580 C   0  0  0  0  0  0  0  0  0  0  0  0
   -2.3700   24.6070  -29.4500 O   0  0  0  0  0  0  0  0  0  0  0  0
   -6.4640   21.8990  -31.4180 C   0  0  0  0  0  0  0  0  0  0  0  0
   -6.2470   20.5740  -31.7930 C   0  0  0  0  0  0  0  0  0  0  0  0
   -1.8072   17.1688  -34.3013 H   0  0  0  0  0  0  0  0  0  0  0  0
   -3.3697   17.0936  -35.1842 H   0  0  0  0  0  0  0  0  0  0  0  0
   -2.4103   18.6122  -35.1842 H   0  0  0  0  0  0  0  0  0  0  0  0
   -2.8379   17.8819  -32.4622 H   0  0  0  0  0  0  0  0  0  0  0  0
   -3.5780   20.0505  -32.2119 H   0  0  0  0  0  0  0  0  0  0  0  0
   -2.6869   20.1796  -33.7663 H   0  0  0  0  0  0  0  0  0  0  0  0
   -4.4783   20.0470  -33.7663 H   0  0  0  0  0  0  0  0  0  0  0  0
   -4.8532   16.2447  -31.5668 H   0  0  0  0  0  0  0  0  0  0  0  0
   -5.7867   15.7287  -33.0122 H   0  0  0  0  0  0  0  0  0  0  0  0
   -3.9941   15.6126  -33.0122 H   0  0  0  0  0  0  0  0  0  0  0  0
   -8.0659   18.0531  -33.2247 H   0  0  0  0  0  0  0  0  0  0  0  0
   -6.9719   17.7830  -31.8047 H   0  0  0  0  0  0  0  0  0  0  0  0
   -9.4941   19.8233  -32.6521 H   0  0  0  0  0  0  0  0  0  0  0  0
   -9.8118   22.2256  -31.9709 H   0  0  0  0  0  0  0  0  0  0  0  0
   -8.3859   24.5403  -31.0477 H   0  0  0  0  0  0  0  0  0  0  0  0
   -3.6480   24.9200  -31.2150 H   0  0  0  0  0  0  0  0  0  0  0  0
   -3.8630   26.4780  -30.3600 H   0  0  0  0  0  0  0  0  0  0  0  0
   -2.7555   20.1913  -28.9015 H   0  0  0  0  0  0  0  0  0  0  0  0
   -3.6380   19.9550  -30.4480 H   0  0  0  0  0  0  0  0  0  0  0  0
   -2.0176   20.7301  -30.4480 H   0  0  0  0  0  0  0  0  0  0  0  0
   -4.9547   22.3224  -28.1843 H   0  0  0  0  0  0  0  0  0  0  0  0
   -3.2699   21.9015  -27.6673 H   0  0  0  0  0  0  0  0  0  0  0  0
   -3.4743   24.1947  -25.8754 H   0  0  0  0  0  0  0  0  0  0  0  0
   -1.8115   24.1637  -26.5545 H   0  0  0  0  0  0  0  0  0  0  0  0
   -2.7534   25.6933  -26.5545 H   0  0  0  0  0  0  0  0  0  0  0  0
   -2.4380   23.8800  -30.1180 H   0  0  0  0  0  0  0  0  0  0  0  0
   -5.2463   20.1235  -31.7180 H   0  0  0  0  0  0  0  0  0  0  0  0
  1  2  1  0
  2  3  1  0
  2  4  1  0
  4  5  1  0
  4  6  1  0
  6  7  2  0
  6  8  1  0
  8  9  1  0
  9 10  2  0
 10 11  1  0
 11 12  2  0
 12 13  1  0
 13 14  2  0
 14 15  1  0
 15 16  1  0
 15 17  2  0
 14 18  1  0
 18 19  1  0
 19 20  2  0
 19 21  1  0
 21 22  1  0
 21 23  1  0
 23 24  1  0
 24 25  1  0
 24 26  1  6
 18 27  1  0
 27 28  2  0
 28  9  1  0
 27 12  1  0
  1 29  1  0
  1 30  1  0
  1 31  1  0
  2 32  1  0
  3 33  1  0
  3 34  1  0
  3 35  1  0
  5 36  1  0
  5 37  1  0
  5 38  1  0
  8 39  1  0
  8 40  1  0
 10 41  1  0
 11 42  1  0
 13 43  1  0
 16 44  1  0
 16 45  1  0
 22 46  1  0
 22 47  1  0
 22 48  1  0
 23 49  1  0
 23 50  1  0
 25 51  1  0
 25 52  1  0
 25 53  1  0
 26 54  1  0
 28 55  1  0
M  CHG  1  24   1
M  END
>  <UniqueID>  (48) 
48

>  <SMILES>  (48) 
CC(C)N(C)C(=O)Cc1ccc2cc(C(N)=O)n(C(=O)N(C)C[S@@+](C)O)c2c1

>  <Energy>  (48) 
79.67829206082803

>  <Genealogy>  (48) 
CC(C)N(C)C(=O)Cc1ccc2cc(C(N)=O)n(C(=O)N(C)C[S+](C)O)c2c1 (protonated)
CC(C)N(C)C(=O)Cc1ccc2cc(C(N)=O)n(C(=O)N(C)C[S@@+](C)O)c2c1 (chirality)
CC(C)N(C)C(=O)Cc1ccc2cc(C(N)=O)n(C(=O)N(C)C[S@@+](C)O)c2c1 (3D coordinates assigned)
CC(C)N(C)C(=O)Cc1ccc2cc(C(N)=O)n(C(=O)N(C)C[S@@+](C)O)c2c1 (optimized conformer: 79.67829206082803 kcal/mol)

>  <smiles>  (48) 
CC(C)N(C)C(=O)Cc1ccc2cc(C(N)=O)n(C(=O)N(C)C[S+](C)[O-])c2c1

>  <score_type>  (48) 
oracle

>  <origin>  (48) 
adg

>  <m_score__min__energy>  (48) 
-8.5999999999999996

>  <m_primary>  (48) 
energy

$$$$
48:0
     RDKit          3D

 43 44  0  0  0  0  0  0  0  0999 V2000
   -3.2340   22.8720  -29.0710 C   0  0  0  0  0  0  0  0  0  0  0  0
   -2.9450   23.1300  -30.4410 O   0  0  0  0  0  0  0  0  0  0  0  0
   -3.7810   22.7090  -31.4800 C   0  0  0  0  0  0  0  0  0  0  0  0
   -3.2910   22.1930  -32.5220 O   0  0  0  0  0  0  0  0  0  0  0  0
   -5.2020   22.8850  -31.3670 N   0  0  0  0  0  0  0  0  0  0  0  0
   -5.8740   24.0130  -30.9990 C   0  0  0  0  0  0  0  0  0  0  0  0
   -5.2680   25.2500  -30.4640 C   0  0  0  0  0  0  0  0  0  0  0  0
   -3.9560   25.6500  -30.8520 N   0  0  0  0  0  0  0  0  0  0  0  0
   -5.8970   25.9360  -29.6160 O   0  0  0  0  0  0  0  0  0  0  0  0
   -7.2490   23.8220  -31.1150 C   0  0  0  0  0  0  0  0  0  0  0  0
   -7.4020   22.5300  -31.5600 C   0  0  0  0  0  0  0  0  0  0  0  0
   -8.5610   21.8160  -31.8580 C   0  0  0  0  0  0  0  0  0  0  0  0
   -8.4200   20.5010  -32.3310 C   0  0  0  0  0  0  0  0  0  0  0  0
   -7.1360   19.9350  -32.5010 C   0  0  0  0  0  0  0  0  0  0  0  0
   -7.0050   18.5910  -32.9980 C   0  0  0  0  0  0  0  0  0  0  0  0
   -6.8940   17.4640  -33.4130 C   0  0  0  0  0  0  0  0  0  0  0  0
   -6.7590   16.0960  -33.9180 C   0  0  0  0  0  0  0  0  0  0  0  0
   -5.7080   15.3990  -33.1750 N   0  0  0  0  0  0  0  0  0  0  0  0
   -4.1440   15.8630  -33.7790 S   0  0  0  0  0  0  0  0  0  0  0  0
   -3.4020   16.6470  -32.7310 O   0  0  0  0  0  0  0  0  0  0  0  0
   -4.3420   16.7440  -34.9810 O   0  0  0  0  0  0  0  0  0  0  0  0
   -3.2190   14.4110  -34.2910 C   0  0  0  0  0  0  0  0  0  0  0  0
   -3.3170   13.2490  -33.2970 C   0  0  0  0  0  0  0  0  0  0  0  0
   -4.1350   13.6150  -32.1430 N   0  0  0  0  0  0  0  0  0  0  0  0
   -5.9820   20.6830  -32.1910 C   0  0  0  0  0  0  0  0  0  0  0  0
   -6.1520   21.9860  -31.7050 C   0  0  0  0  0  0  0  0  0  0  0  0
   -2.5640   23.4702  -28.4360 H   0  0  0  0  0  0  0  0  0  0  0  0
   -4.2788   23.1433  -28.8593 H   0  0  0  0  0  0  0  0  0  0  0  0
   -3.0825   21.8033  -28.8593 H   0  0  0  0  0  0  0  0  0  0  0  0
   -3.1140   25.2870  -30.3520 H   0  0  0  0  0  0  0  0  0  0  0  0
   -8.0439   24.5504  -30.8968 H   0  0  0  0  0  0  0  0  0  0  0  0
   -9.5552   22.2681  -31.7269 H   0  0  0  0  0  0  0  0  0  0  0  0
   -9.3147   19.9077  -32.5707 H   0  0  0  0  0  0  0  0  0  0  0  0
   -7.7126   15.5629  -33.7900 H   0  0  0  0  0  0  0  0  0  0  0  0
   -6.4934   16.1254  -34.9851 H   0  0  0  0  0  0  0  0  0  0  0  0
   -5.8050   14.3730  -33.3600 H   0  0  0  0  0  0  0  0  0  0  0  0
   -3.6088   14.0733  -35.2626 H   0  0  0  0  0  0  0  0  0  0  0  0
   -2.1599   14.7026  -34.3483 H   0  0  0  0  0  0  0  0  0  0  0  0
   -3.7715   12.3827  -33.7999 H   0  0  0  0  0  0  0  0  0  0  0  0
   -2.3044   13.0025  -32.9449 H   0  0  0  0  0  0  0  0  0  0  0  0
   -5.1390   13.4560  -32.3810 H   0  0  0  0  0  0  0  0  0  0  0  0
   -4.0320   14.6460  -31.9940 H   0  0  0  0  0  0  0  0  0  0  0  0
   -4.9774   20.2561  -32.3267 H   0  0  0  0  0  0  0  0  0  0  0  0
  1  2  1  0
  2  3  1  0
  3  4  2  0
  3  5  1  0
  5  6  1  0
  6  7  1  0
  7  8  1  0
  7  9  2  0
  6 10  2  0
 10 11  1  0
 11 12  2  0
 12 13  1  0
 13 14  2  0
 14 15  1  0
 15 16  3  0
 16 17  1  0
 17 18  1  0
 18 19  1  0
 19 20  2  0
 19 21  2  0
 19 22  1  0
 22 23  1  0
 23 24  1  0
 14 25  1  0
 25 26  2  0
 26  5  1  0
 26 11  1  0
  1 27  1  0
  1 28  1  0
  1 29  1  0
  8 30  1  0
 10 31  1  0
 12 32  1  0
 13 33  1  0
 17 34  1  0
 17 35  1  0
 18 36  1  0
 22 37  1  0
 22 38  1  0
 23 39  1  0
 23 40  1  0
 24 41  1  0
 24 42  1  0
 25 43  1  0
M  CHG  1   8  -1
M  END
>  <UniqueID>  (49) 
49

>  <SMILES>  (49) 
COC(=O)n1c(C([NH-])=O)cc2ccc(C#CCNS(=O)(=O)CCN)cc21

>  <Energy>  (49) 
68.14125241749005

>  <Genealogy>  (49) 
COC(=O)n1c(C([NH-])=O)cc2ccc(C#CCNS(=O)(=O)CCN)cc21 (protonated)
COC(=O)n1c(C([NH-])=O)cc2ccc(C#CCNS(=O)(=O)CCN)cc21 (3D coordinates assigned)
COC(=O)n1c(C([NH-])=O)cc2ccc(C#CCNS(=O)(=O)CCN)cc21 (optimized conformer: 68.14125241749005 kcal/mol)

>  <smiles>  (49) 
COC(=O)n1c(C(N)=O)cc2ccc(C#CCNS(=O)(=O)CCN)cc21

>  <score_type>  (49) 
oracle

>  <origin>  (49) 
adg

>  <m_score__min__energy>  (49) 
-10.210000000000001

>  <m_primary>  (49) 
energy

$$$$
49:0
     RDKit          3D

 32 33  0  0  0  0  0  0  0  0999 V2000
   -8.8670   21.9880  -31.2110 N   0  0  0  0  0  0  0  0  0  0  0  0
   -8.7180   20.8910  -31.5510 C   0  0  0  0  0  0  0  0  0  0  0  0
   -8.5280   19.4990  -31.9800 C   0  0  0  0  0  0  0  0  0  0  0  0
   -7.2390   19.3300  -32.8000 C   0  0  0  0  0  0  0  0  0  0  0  0
   -6.6160   20.6600  -33.2580 C   0  0  0  0  0  0  0  0  0  0  0  0
   -5.2680   20.9020  -32.6290 C   0  0  0  0  0  0  0  0  0  0  0  0
   -4.2240   19.9610  -32.8070 C   0  0  0  0  0  0  0  0  0  0  0  0
   -2.9670   20.1660  -32.2140 C   0  0  0  0  0  0  0  0  0  0  0  0
   -2.7900   21.3080  -31.4400 C   0  0  0  0  0  0  0  0  0  0  0  0
   -1.6720   21.7610  -30.7780 C   0  0  0  0  0  0  0  0  0  0  0  0
   -2.0600   22.9540  -30.1740 C   0  0  0  0  0  0  0  0  0  0  0  0
   -1.1730   23.7460  -29.3010 C   0  0  0  0  0  0  0  0  0  0  0  0
   -1.2540   25.1720  -29.2640 N   0  0  0  0  0  0  0  0  0  0  0  0
   -0.3700   23.1530  -28.5330 O   0  0  0  0  0  0  0  0  0  0  0  0
   -3.3620   23.2390  -30.4600 N   0  0  0  0  0  0  0  0  0  0  0  0
   -4.0870   24.4340  -30.1210 C   0  0  0  0  0  0  0  0  0  0  0  0
   -4.9510   24.4190  -29.2060 O   0  0  0  0  0  0  0  0  0  0  0  0
   -3.8440   25.6180  -30.8050 O   0  0  0  0  0  0  0  0  0  0  0  0
   -3.7970   22.2180  -31.2360 C   0  0  0  0  0  0  0  0  0  0  0  0
   -5.0520   22.0500  -31.8330 C   0  0  0  0  0  0  0  0  0  0  0  0
   -8.4714   18.8557  -31.0895 H   0  0  0  0  0  0  0  0  0  0  0  0
   -9.3797   19.2159  -32.6160 H   0  0  0  0  0  0  0  0  0  0  0  0
   -6.5020   18.7965  -32.1818 H   0  0  0  0  0  0  0  0  0  0  0  0
   -7.5083   18.7723  -33.7091 H   0  0  0  0  0  0  0  0  0  0  0  0
   -6.4982   20.6384  -34.3515 H   0  0  0  0  0  0  0  0  0  0  0  0
   -7.2867   21.4735  -32.9443 H   0  0  0  0  0  0  0  0  0  0  0  0
   -4.3993   19.0614  -33.4152 H   0  0  0  0  0  0  0  0  0  0  0  0
   -2.1481   19.4457  -32.3574 H   0  0  0  0  0  0  0  0  0  0  0  0
   -0.6824   21.2825  -30.7351 H   0  0  0  0  0  0  0  0  0  0  0  0
   -2.0160   25.6810  -29.7610 H   0  0  0  0  0  0  0  0  0  0  0  0
   -0.5940   25.7190  -28.6670 H   0  0  0  0  0  0  0  0  0  0  0  0
   -5.8501   22.7927  -31.6864 H   0  0  0  0  0  0  0  0  0  0  0  0
  1  2  3  0
  2  3  1  0
  3  4  1  0
  4  5  1  0
  5  6  1  0
  6  7  2  0
  7  8  1  0
  8  9  2  0
  9 10  1  0
 10 11  2  0
 11 12  1  0
 12 13  1  0
 12 14  2  0
 11 15  1  0
 15 16  1  0
 16 17  2  0
 16 18  1  0
 15 19  1  0
 19 20  2  0
 20  6  1  0
 19  9  1  0
  3 21  1  0
  3 22  1  0
  4 23  1  0
  4 24  1  0
  5 25  1  0
  5 26  1  0
  7 27  1  0
  8 28  1  0
 10 29  1  0
 13 30  1  0
 13 31  1  0
 20 32  1  0
M  CHG  1  18  -1
M  END
>  <UniqueID>  (50) 
50

>  <SMILES>  (50) 
N#CCCCc1ccc2cc(C(N)=O)n(C(=O)[O-])c2c1

>  <Energy>  (50) 
67.05095528587424

>  <Genealogy>  (50) 
N#CCCCc1ccc2cc(C(N)=O)n(C(=O)[O-])c2c1 (protonated)
N#CCCCc1ccc2cc(C(N)=O)n(C(=O)[O-])c2c1 (3D coordinates assigned)
N#CCCCc1ccc2cc(C(N)=O)n(C(=O)[O-])c2c1 (optimized conformer: 67.05095528587424 kcal/mol)

>  <smiles>  (50) 
N#CCCCc1ccc2cc(C(N)=O)n(C(=O)O)c2c1

>  <score_type>  (50) 
oracle

>  <origin>  (50) 
adg

>  <m_score__min__energy>  (50) 
-9.0899999999999999

>  <m_primary>  (50) 
energy

$$$$
50:0
     RDKit          3D

 41 43  0  0  0  0  0  0  0  0999 V2000
   -3.9470   25.6550  -30.8270 N   0  0  0  0  0  0  0  0  0  0  0  0
   -5.2740   25.3000  -30.4550 C   0  0  0  0  0  0  0  0  0  0  0  0
   -5.9640   26.1180  -29.7880 O   0  0  0  0  0  0  0  0  0  0  0  0
   -5.8580   23.9960  -30.8400 C   0  0  0  0  0  0  0  0  0  0  0  0
   -7.2030   23.8190  -31.1580 C   0  0  0  0  0  0  0  0  0  0  0  0
   -7.3330   22.4850  -31.4730 C   0  0  0  0  0  0  0  0  0  0  0  0
   -8.4600   21.7560  -31.8410 C   0  0  0  0  0  0  0  0  0  0  0  0
   -8.3060   20.3790  -32.0760 C   0  0  0  0  0  0  0  0  0  0  0  0
   -7.0390   19.7590  -31.9320 C   0  0  0  0  0  0  0  0  0  0  0  0
   -6.8830   18.2830  -32.1620 C   0  0  0  0  0  0  0  0  0  0  0  0
   -6.4320   17.6740  -31.0050 F   0  0  0  0  0  0  0  0  0  0  0  0
   -8.1010   17.7370  -32.5210 F   0  0  0  0  0  0  0  0  0  0  0  0
   -5.9200   20.5320  -31.5510 C   0  0  0  0  0  0  0  0  0  0  0  0
   -6.1000   21.9040  -31.3440 C   0  0  0  0  0  0  0  0  0  0  0  0
   -5.1830   22.8180  -30.9640 N   0  0  0  0  0  0  0  0  0  0  0  0
   -3.7890   22.5700  -30.7300 C   0  0  0  0  0  0  0  0  0  0  0  0
   -2.9270   23.3580  -31.2040 O   0  0  0  0  0  0  0  0  0  0  0  0
   -3.3510   21.3610  -29.9440 C   0  0  0  0  0  0  0  0  0  0  0  0
   -3.1990   21.6760  -28.5020 N   0  0  2  0  0  0  0  0  0  0  0  0
   -4.2470   22.6010  -28.0440 C   0  0  0  0  0  0  0  0  0  0  0  0
   -3.7230   24.0110  -28.2430 C   0  0  0  0  0  0  0  0  0  0  0  0
   -2.2080   23.8790  -28.2020 C   0  0  2  0  0  0  0  0  0  0  0  0
   -1.6380   24.5060  -29.3210 O   0  0  0  0  0  0  0  0  0  0  0  0
   -1.9300   22.3720  -28.2190 C   0  0  0  0  0  0  0  0  0  0  0  0
   -3.1230   25.2990  -30.2930 H   0  0  0  0  0  0  0  0  0  0  0  0
   -7.9939   24.5835  -31.1575 H   0  0  0  0  0  0  0  0  0  0  0  0
   -9.4410   22.2426  -31.9447 H   0  0  0  0  0  0  0  0  0  0  0  0
   -9.1766   19.7765  -32.3745 H   0  0  0  0  0  0  0  0  0  0  0  0
   -6.1540   18.1200  -32.9695 H   0  0  0  0  0  0  0  0  0  0  0  0
   -4.9317   20.0670  -31.4203 H   0  0  0  0  0  0  0  0  0  0  0  0
   -4.1042   20.5676  -30.0591 H   0  0  0  0  0  0  0  0  0  0  0  0
   -2.3748   21.0330  -30.3305 H   0  0  0  0  0  0  0  0  0  0  0  0
   -3.2580   20.7900  -27.9430 H   0  0  0  0  0  0  0  0  0  0  0  0
   -5.1635   22.4533  -28.6340 H   0  0  0  0  0  0  0  0  0  0  0  0
   -4.4897   22.4215  -26.9862 H   0  0  0  0  0  0  0  0  0  0  0  0
   -4.0498   24.4112  -29.2141 H   0  0  0  0  0  0  0  0  0  0  0  0
   -4.0978   24.7028  -27.4743 H   0  0  0  0  0  0  0  0  0  0  0  0
   -1.7731   24.3581  -27.3125 H   0  0  0  0  0  0  0  0  0  0  0  0
   -2.3070   24.4430  -30.0520 H   0  0  0  0  0  0  0  0  0  0  0  0
   -1.1934   22.1374  -29.0015 H   0  0  0  0  0  0  0  0  0  0  0  0
   -1.5253   22.0478  -27.2489 H   0  0  0  0  0  0  0  0  0  0  0  0
  1  2  1  0
  2  3  2  0
  2  4  1  0
  4  5  2  0
  5  6  1  0
  6  7  2  0
  7  8  1  0
  8  9  2  0
  9 10  1  0
 10 11  1  0
 10 12  1  0
  9 13  1  0
 13 14  2  0
 14 15  1  0
 15 16  1  0
 16 17  2  0
 16 18  1  0
 18 19  1  0
 19 20  1  0
 20 21  1  0
 21 22  1  0
 22 23  1  0
 22 24  1  0
 15  4  1  0
 24 19  1  0
 14  6  1  0
  1 25  1  0
  5 26  1  0
  7 27  1  0
  8 28  1  0
 10 29  1  0
 13 30  1  0
 18 31  1  0
 18 32  1  0
 19 33  1  1
 20 34  1  0
 20 35  1  0
 21 36  1  0
 21 37  1  0
 22 38  1  1
 23 39  1  0
 24 40  1  0
 24 41  1  0
M  CHG  2   1  -1  19   1
M  END
>  <UniqueID>  (51) 
51

>  <SMILES>  (51) 
[NH-]C(=O)c1cc2ccc(C(F)F)cc2n1C(=O)C[N@@H+]1CC[C@H](O)C1

>  <Energy>  (51) 
86.0430568014218

>  <Genealogy>  (51) 
[NH-]C(=O)c1cc2ccc(C(F)F)cc2n1C(=O)C[NH+]1CC[C@H](O)C1 (protonated)
[NH-]C(=O)c1cc2ccc(C(F)F)cc2n1C(=O)C[N@@H+]1CC[C@H](O)C1 (chirality)
[NH-]C(=O)c1cc2ccc(C(F)F)cc2n1C(=O)C[N@@H+]1CC[C@H](O)C1 (3D coordinates assigned)
[NH-]C(=O)c1cc2ccc(C(F)F)cc2n1C(=O)C[N@@H+]1CC[C@H](O)C1 (nonaromatic ring conformer: 86.0430568014218 kcal/mol)

>  <smiles>  (51) 
NC(=O)c1cc2ccc(C(F)F)cc2n1C(=O)CN1CC[C@H](O)C1

>  <score_type>  (51) 
oracle

>  <origin>  (51) 
adg

>  <m_score__min__energy>  (51) 
-10.07

>  <m_primary>  (51) 
energy

$$$$
51:0
     RDKit          3D

 46 47  0  0  0  0  0  0  0  0999 V2000
   -2.3760   19.9450  -34.1850 C   0  0  0  0  0  0  0  0  0  0  0  0
   -3.1520   19.1210  -33.2390 N   0  0  0  0  0  0  0  0  0  0  0  0
   -2.3090   18.0160  -32.7450 C   0  0  0  0  0  0  0  0  0  0  0  0
   -4.3840   18.6320  -33.9040 C   0  0  0  0  0  0  0  0  0  0  0  0
   -5.4170   17.9840  -32.9540 C   0  0  0  0  0  0  0  0  0  0  0  0
   -6.8500   18.5350  -33.0950 C   0  0  0  0  0  0  0  0  0  0  0  0
   -7.0080   19.9370  -32.5580 C   0  0  0  0  0  0  0  0  0  0  0  0
   -8.3020   20.4780  -32.3430 C   0  0  0  0  0  0  0  0  0  0  0  0
   -8.4600   21.7750  -31.8250 C   0  0  0  0  0  0  0  0  0  0  0  0
   -7.3120   22.5030  -31.5270 C   0  0  0  0  0  0  0  0  0  0  0  0
   -7.1770   23.7620  -30.9890 C   0  0  0  0  0  0  0  0  0  0  0  0
   -5.8040   23.9750  -30.8870 C   0  0  0  0  0  0  0  0  0  0  0  0
   -5.2090   25.2450  -30.4220 C   0  0  0  0  0  0  0  0  0  0  0  0
   -3.9100   25.6460  -30.8510 N   0  0  0  0  0  0  0  0  0  0  0  0
   -5.8750   26.0090  -29.6740 O   0  0  0  0  0  0  0  0  0  0  0  0
   -5.1180   22.8870  -31.3380 N   0  0  0  0  0  0  0  0  0  0  0  0
   -3.7000   22.6700  -31.3130 C   0  0  0  0  0  0  0  0  0  0  0  0
   -3.1750   21.8580  -32.1220 O   0  0  0  0  0  0  0  0  0  0  0  0
   -2.9130   23.3470  -30.3730 O   0  0  0  0  0  0  0  0  0  0  0  0
   -2.2600   22.7110  -29.2730 C   0  0  0  0  0  0  0  0  0  0  0  0
   -2.2050   23.6360  -28.0520 C   0  0  0  0  0  0  0  0  0  0  0  0
   -1.3740   25.1590  -28.4640 Cl  0  0  0  0  0  0  0  0  0  0  0  0
   -1.2980   22.8350  -26.7430 Cl  0  0  0  0  0  0  0  0  0  0  0  0
   -3.8400   24.0150  -27.4490 Cl  0  0  0  0  0  0  0  0  0  0  0  0
   -6.0550   21.9960  -31.7260 C   0  0  0  0  0  0  0  0  0  0  0  0
   -5.8680   20.6990  -32.2190 C   0  0  0  0  0  0  0  0  0  0  0  0
   -1.7271   20.6340  -33.6244 H   0  0  0  0  0  0  0  0  0  0  0  0
   -1.7573   19.2920  -34.8180 H   0  0  0  0  0  0  0  0  0  0  0  0
   -3.0649   20.5235  -34.8180 H   0  0  0  0  0  0  0  0  0  0  0  0
   -3.4060   19.7380  -32.4360 H   0  0  0  0  0  0  0  0  0  0  0  0
   -2.3101   18.0175  -31.6450 H   0  0  0  0  0  0  0  0  0  0  0  0
   -2.7082   17.0585  -33.1108 H   0  0  0  0  0  0  0  0  0  0  0  0
   -1.2800   18.1480  -33.1108 H   0  0  0  0  0  0  0  0  0  0  0  0
   -4.8658   19.4856  -34.4032 H   0  0  0  0  0  0  0  0  0  0  0  0
   -4.0678   17.8439  -34.6032 H   0  0  0  0  0  0  0  0  0  0  0  0
   -5.4426   16.9037  -33.1599 H   0  0  0  0  0  0  0  0  0  0  0  0
   -5.0909   18.2195  -31.9302 H   0  0  0  0  0  0  0  0  0  0  0  0
   -7.1194   18.5375  -34.1615 H   0  0  0  0  0  0  0  0  0  0  0  0
   -7.5086   17.8836  -32.5018 H   0  0  0  0  0  0  0  0  0  0  0  0
   -9.1906   19.8762  -32.5842 H   0  0  0  0  0  0  0  0  0  0  0  0
   -9.4604   22.2016  -31.6602 H   0  0  0  0  0  0  0  0  0  0  0  0
   -7.9822   24.4537  -30.7006 H   0  0  0  0  0  0  0  0  0  0  0  0
   -3.0530   25.3000  -30.3650 H   0  0  0  0  0  0  0  0  0  0  0  0
   -2.8124   21.7978  -29.0069 H   0  0  0  0  0  0  0  0  0  0  0  0
   -1.2300   22.4673  -29.5725 H   0  0  0  0  0  0  0  0  0  0  0  0
   -4.8568   20.2831  -32.3395 H   0  0  0  0  0  0  0  0  0  0  0  0
  1  2  1  0
  2  3  1  0
  2  4  1  0
  4  5  1  0
  5  6  1  0
  6  7  1  0
  7  8  2  0
  8  9  1  0
  9 10  2  0
 10 11  1  0
 11 12  2  0
 12 13  1  0
 13 14  1  0
 13 15  2  0
 12 16  1  0
 16 17  1  0
 17 18  2  0
 17 19  1  0
 19 20  1  0
 20 21  1  0
 21 22  1  0
 21 23  1  0
 21 24  1  0
 16 25  1  0
 25 26  2  0
 26  7  1  0
 25 10  1  0
  1 27  1  0
  1 28  1  0
  1 29  1  0
  2 30  1  0
  3 31  1  0
  3 32  1  0
  3 33  1  0
  4 34  1  0
  4 35  1  0
  5 36  1  0
  5 37  1  0
  6 38  1  0
  6 39  1  0
  8 40  1  0
  9 41  1  0
 11 42  1  0
 14 43  1  0
 20 44  1  0
 20 45  1  0
 26 46  1  0
M  CHG  2   2   1  14  -1
M  END
>  <UniqueID>  (52) 
52

>  <SMILES>  (52) 
C[NH+](C)CCCc1ccc2cc(C([NH-])=O)n(C(=O)OCC(Cl)(Cl)Cl)c2c1

>  <Energy>  (52) 
81.65701271652615

>  <Genealogy>  (52) 
C[NH+](C)CCCc1ccc2cc(C([NH-])=O)n(C(=O)OCC(Cl)(Cl)Cl)c2c1 (protonated)
C[NH+](C)CCCc1ccc2cc(C([NH-])=O)n(C(=O)OCC(Cl)(Cl)Cl)c2c1 (3D coordinates assigned)
C[NH+](C)CCCc1ccc2cc(C([NH-])=O)n(C(=O)OCC(Cl)(Cl)Cl)c2c1 (optimized conformer: 81.65701271652615 kcal/mol)

>  <smiles>  (52) 
CN(C)CCCc1ccc2cc(C(N)=O)n(C(=O)OCC(Cl)(Cl)Cl)c2c1

>  <score_type>  (52) 
oracle

>  <origin>  (52) 
adg

>  <m_score__min__energy>  (52) 
-10.19

>  <m_primary>  (52) 
energy

$$$$
52:0
     RDKit          3D

 67 69  0  0  0  0  0  0  0  0999 V2000
   -5.4040   26.0440  -30.5320 C   0  0  0  0  0  0  0  0  0  0  0  0
   -4.1780   25.3220  -30.4980 O   0  0  0  0  0  0  0  0  0  0  0  0
   -4.0050   24.1630  -29.7370 C   0  0  0  0  0  0  0  0  0  0  0  0
   -5.0020   23.6030  -29.1940 O   0  0  0  0  0  0  0  0  0  0  0  0
   -2.6150   23.6020  -29.5610 C   0  0  2  0  0  0  0  0  0  0  0  0
   -2.6190   22.0610  -29.4420 C   0  0  0  0  0  0  0  0  0  0  0  0
   -2.9400   21.4000  -30.7590 C   0  0  0  0  0  0  0  0  0  0  0  0
   -2.1960   21.7260  -31.9210 C   0  0  0  0  0  0  0  0  0  0  0  0
   -2.4480   21.0730  -33.1390 C   0  0  0  0  0  0  0  0  0  0  0  0
   -3.4390   20.0980  -33.1620 C   0  0  0  0  0  0  0  0  0  0  0  0
   -3.8960   19.3280  -34.2060 C   0  0  0  0  0  0  0  0  0  0  0  0
   -4.9020   18.5330  -33.6650 C   0  0  0  0  0  0  0  0  0  0  0  0
   -5.6190   17.4960  -34.4340 C   0  0  0  0  0  0  0  0  0  0  0  0
   -6.3890   16.4870  -33.7790 N   0  0  0  0  0  0  0  0  0  0  0  0
   -5.4890   17.4530  -35.6890 O   0  0  0  0  0  0  0  0  0  0  0  0
   -5.0730   18.8080  -32.3410 N   0  0  0  0  0  0  0  0  0  0  0  0
   -6.1090   18.3100  -31.4770 C   0  0  0  0  0  0  0  0  0  0  0  0
   -5.9940   17.1740  -30.9400 O   0  0  0  0  0  0  0  0  0  0  0  0
   -7.2360   19.1000  -31.2200 O   0  0  0  0  0  0  0  0  0  0  0  0
   -7.5000   20.3350  -31.8920 C   0  0  2  0  0  0  0  0  0  0  0  0
   -7.2170   21.5160  -30.9430 C   0  0  0  0  0  0  0  0  0  0  0  0
   -7.6410   22.8780  -31.5350 C   0  0  1  0  0  0  0  0  0  0  0  0
   -6.7100   23.3200  -32.6820 C   0  0  0  0  0  0  0  0  0  0  0  0
   -5.3790   23.3980  -32.2440 O   0  0  0  0  0  0  0  0  0  0  0  0
   -9.0750   22.8230  -31.9940 C   0  0  0  0  0  0  0  0  0  0  0  0
   -9.7600   23.8790  -32.0430 O   0  0  0  0  0  0  0  0  0  0  0  0
   -9.6600   21.5850  -32.4040 N   0  0  0  0  0  0  0  0  0  0  0  0
   -8.9330   20.3560  -32.3480 C   0  0  0  0  0  0  0  0  0  0  0  0
   -9.4790   19.2980  -32.7550 O   0  0  0  0  0  0  0  0  0  0  0  0
   -4.1640   19.7650  -32.0460 C   0  0  0  0  0  0  0  0  0  0  0  0
   -3.9470   20.4140  -30.8240 C   0  0  0  0  0  0  0  0  0  0  0  0
   -1.9220   24.2180  -28.4240 N   0  0  0  0  0  0  0  0  0  0  0  0
   -0.6470   24.8660  -28.4760 C   0  0  0  0  0  0  0  0  0  0  0  0
    0.3690   24.1870  -28.7820 O   0  0  0  0  0  0  0  0  0  0  0  0
   -0.5460   26.2410  -28.2180 O   0  0  0  0  0  0  0  0  0  0  0  0
   -0.3400   26.8620  -26.9420 C   0  0  0  0  0  0  0  0  0  0  0  0
   -1.5100   26.4350  -26.0390 C   0  0  0  0  0  0  0  0  0  0  0  0
   -0.3560   28.3950  -27.0930 C   0  0  0  0  0  0  0  0  0  0  0  0
    0.9800   26.3880  -26.3020 C   0  0  0  0  0  0  0  0  0  0  0  0
   -5.7412   26.2426  -29.5040 H   0  0  0  0  0  0  0  0  0  0  0  0
   -5.2534   26.9976  -31.0592 H   0  0  0  0  0  0  0  0  0  0  0  0
   -6.1650   25.4498  -31.0592 H   0  0  0  0  0  0  0  0  0  0  0  0
   -2.0553   23.8568  -30.4731 H   0  0  0  0  0  0  0  0  0  0  0  0
   -1.6255   21.7268  -29.1083 H   0  0  0  0  0  0  0  0  0  0  0  0
   -3.3954   21.7754  -28.7171 H   0  0  0  0  0  0  0  0  0  0  0  0
   -1.4139   22.4977  -31.8683 H   0  0  0  0  0  0  0  0  0  0  0  0
   -1.8791   21.3251  -34.0461 H   0  0  0  0  0  0  0  0  0  0  0  0
   -3.5416   19.3384  -35.2473 H   0  0  0  0  0  0  0  0  0  0  0  0
   -6.3300   16.3520  -32.7460 H   0  0  0  0  0  0  0  0  0  0  0  0
   -6.9740   15.8300  -34.3410 H   0  0  0  0  0  0  0  0  0  0  0  0
   -6.8438   20.4282  -32.7699 H   0  0  0  0  0  0  0  0  0  0  0  0
   -7.7696   21.3534  -30.0059 H   0  0  0  0  0  0  0  0  0  0  0  0
   -6.1303   21.5525  -30.7766 H   0  0  0  0  0  0  0  0  0  0  0  0
   -7.5532   23.6331  -30.7399 H   0  0  0  0  0  0  0  0  0  0  0  0
   -6.7772   22.5901  -33.5022 H   0  0  0  0  0  0  0  0  0  0  0  0
   -7.0256   24.3156  -33.0274 H   0  0  0  0  0  0  0  0  0  0  0  0
   -5.4050   23.7230  -31.3050 H   0  0  0  0  0  0  0  0  0  0  0  0
   -4.5467   20.1613  -29.9371 H   0  0  0  0  0  0  0  0  0  0  0  0
   -1.2170   26.5419  -24.9841 H   0  0  0  0  0  0  0  0  0  0  0  0
   -2.3827   27.0726  -26.2436 H   0  0  0  0  0  0  0  0  0  0  0  0
   -1.7669   25.3852  -26.2436 H   0  0  0  0  0  0  0  0  0  0  0  0
   -0.3609   28.8615  -26.0968 H   0  0  0  0  0  0  0  0  0  0  0  0
    0.5388   28.7184  -27.6450 H   0  0  0  0  0  0  0  0  0  0  0  0
   -1.2574   28.6997  -27.6450 H   0  0  0  0  0  0  0  0  0  0  0  0
    0.8887   26.4208  -25.2063 H   0  0  0  0  0  0  0  0  0  0  0  0
    1.1930   25.3572  -26.6215 H   0  0  0  0  0  0  0  0  0  0  0  0
    1.8001   27.0478  -26.6215 H   0  0  0  0  0  0  0  0  0  0  0  0
  1  2  1  0
  2  3  1  0
  3  4  2  0
  3  5  1  0
  5  6  1  0
  6  7  1  0
  7  8  2  0
  8  9  1  0
  9 10  2  0
 10 11  1  0
 11 12  2  0
 12 13  1  0
 13 14  1  0
 13 15  2  0
 12 16  1  0
 16 17  1  0
 17 18  2  0
 17 19  1  0
 19 20  1  0
 20 21  1  0
 21 22  1  0
 22 23  1  0
 23 24  1  0
 22 25  1  0
 25 26  2  0
 25 27  1  0
 27 28  1  0
 28 29  2  0
 16 30  1  0
 30 31  2  0
  5 32  1  0
 32 33  1  0
 33 34  2  0
 33 35  1  0
 35 36  1  0
 36 37  1  0
 36 38  1  0
 36 39  1  0
 31  7  1  0
 30 10  1  0
 28 20  1  0
  1 40  1  0
  1 41  1  0
  1 42  1  0
  5 43  1  6
  6 44  1  0
  6 45  1  0
  8 46  1  0
  9 47  1  0
 11 48  1  0
 14 49  1  0
 14 50  1  0
 20 51  1  6
 21 52  1  0
 21 53  1  0
 22 54  1  1
 23 55  1  0
 23 56  1  0
 24 57  1  0
 31 58  1  0
 37 59  1  0
 37 60  1  0
 37 61  1  0
 38 62  1  0
 38 63  1  0
 38 64  1  0
 39 65  1  0
 39 66  1  0
 39 67  1  0
M  CHG  2  27  -1  32  -1
M  END
>  <UniqueID>  (53) 
53

>  <SMILES>  (53) 
COC(=O)[C@H](Cc1ccc2cc(C(N)=O)n(C(=O)O[C@@H]3C[C@@H](CO)C(=O)[N-]C3=O)c2c1)[N-]C(=O)OC(C)(C)C

>  <Energy>  (53) 
92.65094278467913

>  <Genealogy>  (53) 
COC(=O)[C@H](Cc1ccc2cc(C(N)=O)n(C(=O)OC3CC(CO)C(=O)[N-]C3=O)c2c1)[N-]C(=O)OC(C)(C)C (protonated)
COC(=O)[C@H](Cc1ccc2cc(C(N)=O)n(C(=O)O[C@@H]3C[C@@H](CO)C(=O)[N-]C3=O)c2c1)[N-]C(=O)OC(C)(C)C (chirality)
COC(=O)[C@H](Cc1ccc2cc(C(N)=O)n(C(=O)O[C@@H]3C[C@@H](CO)C(=O)[N-]C3=O)c2c1)[N-]C(=O)OC(C)(C)C (3D coordinates assigned)
COC(=O)[C@H](Cc1ccc2cc(C(N)=O)n(C(=O)O[C@@H]3C[C@@H](CO)C(=O)[N-]C3=O)c2c1)[N-]C(=O)OC(C)(C)C (nonaromatic ring conformer: 92.65094278467913 kcal/mol)

>  <smiles>  (53) 
COC(=O)[C@H](Cc1ccc2cc(C(N)=O)n(C(=O)OC3CC(CO)C(=O)NC3=O)c2c1)NC(=O)OC(C)(C)C

>  <score_type>  (53) 
oracle

>  <origin>  (53) 
adg

>  <m_score__min__energy>  (53) 
-11.65

>  <m_primary>  (53) 
energy

$$$$
53:0
     RDKit          3D

 43 44  0  0  0  0  0  0  0  0999 V2000
   -7.0410   23.0730  -30.1000 C   0  0  0  0  0  0  0  0  0  0  0  0
   -6.7820   23.9200  -31.0990 C   0  0  0  0  0  0  0  0  0  0  0  0
   -6.0120   25.1840  -30.8660 C   0  0  0  0  0  0  0  0  0  0  0  0
   -4.6170   24.9200  -30.9610 O   0  0  0  0  0  0  0  0  0  0  0  0
   -3.9220   24.1720  -30.0040 C   0  0  0  0  0  0  0  0  0  0  0  0
   -4.2210   24.2700  -28.7830 O   0  0  0  0  0  0  0  0  0  0  0  0
   -2.8510   23.3080  -30.4160 N   0  0  0  0  0  0  0  0  0  0  0  0
   -1.5490   23.3460  -30.0140 C   0  0  0  0  0  0  0  0  0  0  0  0
   -0.9300   24.3960  -29.1790 C   0  0  0  0  0  0  0  0  0  0  0  0
   -1.6120   25.6300  -28.9700 N   0  0  0  0  0  0  0  0  0  0  0  0
    0.1800   24.2020  -28.6160 O   0  0  0  0  0  0  0  0  0  0  0  0
   -0.8340   22.2890  -30.5730 C   0  0  0  0  0  0  0  0  0  0  0  0
   -1.7430   21.5980  -31.3410 C   0  0  0  0  0  0  0  0  0  0  0  0
   -1.5750   20.4540  -32.1140 C   0  0  0  0  0  0  0  0  0  0  0  0
   -2.6970   19.9420  -32.7870 C   0  0  0  0  0  0  0  0  0  0  0  0
   -3.9620   20.5700  -32.6620 C   0  0  0  0  0  0  0  0  0  0  0  0
   -5.1550   20.0270  -33.4030 C   0  0  0  0  0  0  0  0  0  0  0  0
   -6.1290   19.3090  -32.4610 C   0  0  0  0  0  0  0  0  0  0  0  0
   -7.3420   18.9080  -33.1800 N   0  0  0  0  0  0  0  0  0  0  0  0
   -8.7510   19.3700  -32.2750 S   0  0  0  0  0  0  0  0  0  0  0  0
   -8.7410   21.1210  -31.9390 C   0  0  0  0  0  0  0  0  0  0  0  0
   -9.9770   19.0400  -33.0790 O   0  0  0  0  0  0  0  0  0  0  0  0
   -8.8000   18.6120  -30.9780 O   0  0  0  0  0  0  0  0  0  0  0  0
   -4.0930   21.7340  -31.8720 C   0  0  0  0  0  0  0  0  0  0  0  0
   -2.9540   22.2320  -31.2280 C   0  0  0  0  0  0  0  0  0  0  0  0
   -7.6082   22.1507  -30.2940 H   0  0  0  0  0  0  0  0  0  0  0  0
   -6.6872   23.2975  -29.0829 H   0  0  0  0  0  0  0  0  0  0  0  0
   -7.1406   23.6855  -32.1121 H   0  0  0  0  0  0  0  0  0  0  0  0
   -6.2954   25.9297  -31.6233 H   0  0  0  0  0  0  0  0  0  0  0  0
   -6.2421   25.5710  -29.8624 H   0  0  0  0  0  0  0  0  0  0  0  0
   -2.6350   25.7180  -29.1620 H   0  0  0  0  0  0  0  0  0  0  0  0
    0.2316   22.0561  -30.4306 H   0  0  0  0  0  0  0  0  0  0  0  0
   -0.5932   19.9648  -32.1960 H   0  0  0  0  0  0  0  0  0  0  0  0
   -2.5931   19.0459  -33.4165 H   0  0  0  0  0  0  0  0  0  0  0  0
   -5.6808   20.8605  -33.8917 H   0  0  0  0  0  0  0  0  0  0  0  0
   -4.7956   19.2986  -34.1448 H   0  0  0  0  0  0  0  0  0  0  0  0
   -5.6401   18.4136  -32.0496 H   0  0  0  0  0  0  0  0  0  0  0  0
   -6.4091   19.9967  -31.6495 H   0  0  0  0  0  0  0  0  0  0  0  0
   -7.3820   19.4390  -34.0800 H   0  0  0  0  0  0  0  0  0  0  0  0
   -8.7401   21.2857  -30.8514 H   0  0  0  0  0  0  0  0  0  0  0  0
   -7.8403   21.5737  -32.3792 H   0  0  0  0  0  0  0  0  0  0  0  0
   -9.6365   21.5839  -32.3792 H   0  0  0  0  0  0  0  0  0  0  0  0
   -5.0657   22.2365  -31.7656 H   0  0  0  0  0  0  0  0  0  0  0  0
  1  2  2  0
  2  3  1  0
  3  4  1  0
  4  5  1  0
  5  6  2  0
  5  7  1  0
  7  8  1  0
  8  9  1  0
  9 10  1  0
  9 11  2  0
  8 12  2  0
 12 13  1  0
 13 14  2  0
 14 15  1  0
 15 16  2  0
 16 17  1  0
 17 18  1  0
 18 19  1  0
 19 20  1  0
 20 21  1  0
 20 22  2  0
 20 23  2  0
 16 24  1  0
 24 25  2  0
 25  7  1  0
 25 13  1  0
  1 26  1  0
  1 27  1  0
  2 28  1  0
  3 29  1  0
  3 30  1  0
 10 31  1  0
 12 32  1  0
 14 33  1  0
 15 34  1  0
 17 35  1  0
 17 36  1  0
 18 37  1  0
 18 38  1  0
 19 39  1  0
 21 40  1  0
 21 41  1  0
 21 42  1  0
 24 43  1  0
M  CHG  1  10  -1
M  END
>  <UniqueID>  (54) 
54

>  <SMILES>  (54) 
C=CCOC(=O)n1c(C([NH-])=O)cc2ccc(CCNS(C)(=O)=O)cc21

>  <Energy>  (54) 
66.92887538344738

>  <Genealogy>  (54) 
C=CCOC(=O)n1c(C([NH-])=O)cc2ccc(CCNS(C)(=O)=O)cc21 (protonated)
C=CCOC(=O)n1c(C([NH-])=O)cc2ccc(CCNS(C)(=O)=O)cc21 (3D coordinates assigned)
C=CCOC(=O)n1c(C([NH-])=O)cc2ccc(CCNS(C)(=O)=O)cc21 (optimized conformer: 66.92887538344738 kcal/mol)

>  <smiles>  (54) 
C=CCOC(=O)n1c(C(N)=O)cc2ccc(CCNS(C)(=O)=O)cc21

>  <score_type>  (54) 
oracle

>  <origin>  (54) 
adg

>  <m_score__min__energy>  (54) 
-11.039999999999999

>  <m_primary>  (54) 
energy

$$$$
54:0
     RDKit          3D

 65 70  0  0  0  0  0  0  0  0999 V2000
   -0.7810   14.3350  -36.0170 C   0  0  0  0  0  0  0  0  0  0  0  0
   -1.0420   15.6960  -36.3380 O   0  0  0  0  0  0  0  0  0  0  0  0
   -0.2390   16.7430  -35.8730 C   0  0  0  0  0  0  0  0  0  0  0  0
    0.9610   16.8470  -36.2470 O   0  0  0  0  0  0  0  0  0  0  0  0
   -0.8500   17.8110  -35.0060 C   0  0  2  0  0  0  0  0  0  0  0  0
    0.1270   18.9770  -34.8030 C   0  0  0  0  0  0  0  0  0  0  0  0
    0.3700   19.0700  -33.2860 C   0  0  1  0  0  0  0  0  0  0  0  0
   -0.4960   20.0830  -32.5940 C   0  0  0  0  0  0  0  0  0  0  0  0
   -1.2170   19.0660  -31.9660 C   0  0  0  0  0  0  0  0  0  0  0  0
   -0.3730   18.0310  -32.6400 C   0  0  1  0  0  0  0  0  0  0  0  0
   -1.1120   17.3080  -33.6650 N   0  0  0  0  0  0  0  0  0  0  0  0
   -2.0250   16.2420  -33.3410 C   0  0  0  0  0  0  0  0  0  0  0  0
   -1.5670   15.1740  -32.8460 O   0  0  0  0  0  0  0  0  0  0  0  0
   -3.5230   16.4450  -33.4280 C   0  0  2  0  0  0  0  0  0  0  0  0
   -3.9850   16.3080  -34.9050 C   0  0  0  0  0  0  0  0  0  0  0  0
   -5.0380   17.3480  -35.3290 C   0  0  0  0  0  0  0  0  0  0  0  0
   -6.0950   17.5620  -34.2370 C   0  0  0  0  0  0  0  0  0  0  0  0
   -5.4810   17.9800  -32.8710 C   0  0  2  0  0  0  0  0  0  0  0  0
   -5.8540   19.4020  -32.4950 C   0  0  0  0  0  0  0  0  0  0  0  0
   -7.0900   19.9660  -32.9150 C   0  0  0  0  0  0  0  0  0  0  0  0
   -7.4230   21.2910  -32.5910 C   0  0  0  0  0  0  0  0  0  0  0  0
   -6.5110   22.0300  -31.8470 C   0  0  0  0  0  0  0  0  0  0  0  0
   -6.5570   23.3440  -31.4360 C   0  0  0  0  0  0  0  0  0  0  0  0
   -5.3580   23.5630  -30.7620 C   0  0  0  0  0  0  0  0  0  0  0  0
   -4.9950   24.8390  -30.1120 C   0  0  0  0  0  0  0  0  0  0  0  0
   -3.9730   25.6590  -30.6700 N   0  0  0  0  0  0  0  0  0  0  0  0
   -5.5840   25.2130  -29.0640 O   0  0  0  0  0  0  0  0  0  0  0  0
   -4.6030   22.4280  -30.7520 N   0  0  0  0  0  0  0  0  0  0  0  0
   -3.2690   22.2690  -30.2530 C   0  0  0  0  0  0  0  0  0  0  0  0
   -2.9360   21.1870  -29.6990 O   0  0  0  0  0  0  0  0  0  0  0  0
   -2.3330   23.2860  -30.4680 O   0  0  0  0  0  0  0  0  0  0  0  0
   -1.7450   24.0600  -29.4600 C   0  0  0  0  0  0  0  0  0  0  0  0
   -0.4270   24.0530  -29.1930 N   0  0  0  0  0  0  0  0  0  0  0  0
   -0.2850   24.8990  -28.1810 N   0  0  0  0  0  0  0  0  0  0  0  0
   -1.4620   25.4140  -27.8520 N   0  0  0  0  0  0  0  0  0  0  0  0
   -2.3920   24.9050  -28.6420 N   0  0  0  0  0  0  0  0  0  0  0  0
   -5.3200   21.5000  -31.4220 C   0  0  0  0  0  0  0  0  0  0  0  0
   -4.9550   20.1890  -31.7390 C   0  0  0  0  0  0  0  0  0  0  0  0
   -3.9490   17.7880  -32.8030 C   0  0  0  0  0  0  0  0  0  0  0  0
   -0.7578   14.2140  -34.9239 H   0  0  0  0  0  0  0  0  0  0  0  0
   -1.5738   13.7001  -36.4394 H   0  0  0  0  0  0  0  0  0  0  0  0
    0.1904   14.0384  -36.4394 H   0  0  0  0  0  0  0  0  0  0  0  0
   -1.7720   18.1266  -35.5162 H   0  0  0  0  0  0  0  0  0  0  0  0
    1.0722   18.7794  -35.3298 H   0  0  0  0  0  0  0  0  0  0  0  0
   -0.2800   19.9172  -35.2035 H   0  0  0  0  0  0  0  0  0  0  0  0
    1.4638   19.1675  -33.2219 H   0  0  0  0  0  0  0  0  0  0  0  0
   -0.5431   21.1820  -32.5854 H   0  0  0  0  0  0  0  0  0  0  0  0
   -2.0618   19.0373  -31.2621 H   0  0  0  0  0  0  0  0  0  0  0  0
    0.1002   17.2424  -32.0366 H   0  0  0  0  0  0  0  0  0  0  0  0
   -4.0242   15.6622  -32.8398 H   0  0  0  0  0  0  0  0  0  0  0  0
   -3.1049   16.4216  -35.5550 H   0  0  0  0  0  0  0  0  0  0  0  0
   -4.4567   15.3189  -35.0012 H   0  0  0  0  0  0  0  0  0  0  0  0
   -4.5337   18.3048  -35.5296 H   0  0  0  0  0  0  0  0  0  0  0  0
   -5.5462   16.9742  -36.2301 H   0  0  0  0  0  0  0  0  0  0  0  0
   -6.7855   18.3520  -34.5674 H   0  0  0  0  0  0  0  0  0  0  0  0
   -6.6112   16.6024  -34.0860 H   0  0  0  0  0  0  0  0  0  0  0  0
   -5.9224   17.2949  -32.1322 H   0  0  0  0  0  0  0  0  0  0  0  0
   -7.7939   19.3567  -33.5009 H   0  0  0  0  0  0  0  0  0  0  0  0
   -8.3772   21.7310  -32.9163 H   0  0  0  0  0  0  0  0  0  0  0  0
   -7.3687   24.0671  -31.6044 H   0  0  0  0  0  0  0  0  0  0  0  0
   -3.0010   25.2990  -30.7910 H   0  0  0  0  0  0  0  0  0  0  0  0
   -3.4050   25.1590  -28.6200 H   0  0  0  0  0  0  0  0  0  0  0  0
   -3.9898   19.7784  -31.4078 H   0  0  0  0  0  0  0  0  0  0  0  0
   -3.4608   18.6082  -33.3497 H   0  0  0  0  0  0  0  0  0  0  0  0
   -3.6462   17.7896  -31.7455 H   0  0  0  0  0  0  0  0  0  0  0  0
  1  2  1  0
  2  3  1  0
  3  4  2  0
  3  5  1  0
  5  6  1  0
  6  7  1  0
  7  8  1  0
  8  9  2  0
  9 10  1  0
 10 11  1  0
 11 12  1  0
 12 13  2  0
 12 14  1  0
 14 15  1  0
 15 16  1  0
 16 17  1  0
 17 18  1  0
 18 19  1  0
 19 20  2  0
 20 21  1  0
 21 22  2  0
 22 23  1  0
 23 24  2  0
 24 25  1  0
 25 26  1  0
 25 27  2  0
 24 28  1  0
 28 29  1  0
 29 30  2  0
 29 31  1  0
 31 32  1  0
 32 33  2  0
 33 34  1  0
 34 35  1  0
 35 36  2  0
 28 37  1  0
 37 38  2  0
 18 39  1  0
 11  5  1  0
 39 14  1  0
 10  7  1  0
 38 19  1  0
 37 22  1  0
 36 32  1  0
  1 40  1  0
  1 41  1  0
  1 42  1  0
  5 43  1  6
  6 44  1  0
  6 45  1  0
  7 46  1  6
  8 47  1  0
  9 48  1  0
 10 49  1  1
 14 50  1  1
 15 51  1  0
 15 52  1  0
 16 53  1  0
 16 54  1  0
 17 55  1  0
 17 56  1  0
 18 57  1  1
 20 58  1  0
 21 59  1  0
 23 60  1  0
 26 61  1  0
 36 62  1  0
 38 63  1  0
 39 64  1  0
 39 65  1  0
M  CHG  3  26  -1  34  -1  36   1
M  END
>  <UniqueID>  (55) 
55

>  <SMILES>  (55) 
COC(=O)[C@@H]1C[C@H]2C=C[C@H]2N1C(=O)[C@@H]1CCC[C@H](c2ccc3cc(C([NH-])=O)n(C(=O)Oc4n[n-]n[nH+]4)c3c2)C1

>  <Energy>  (55) 
193.3593522029462

>  <Genealogy>  (55) 
COC(=O)[C@@H]1C[C@H]2C=C[C@H]2N1C(=O)C1CCCC(c2ccc3cc(C([NH-])=O)n(C(=O)Oc4n[n-]n[nH+]4)c3c2)C1 (protonated)
COC(=O)[C@@H]1C[C@H]2C=C[C@H]2N1C(=O)[C@@H]1CCC[C@H](c2ccc3cc(C([NH-])=O)n(C(=O)Oc4n[n-]n[nH+]4)c3c2)C1 (chirality)
COC(=O)[C@@H]1C[C@H]2C=C[C@H]2N1C(=O)[C@@H]1CCC[C@H](c2ccc3cc(C([NH-])=O)n(C(=O)Oc4n[n-]n[nH+]4)c3c2)C1 (3D coordinates assigned)
COC(=O)[C@@H]1C[C@H]2C=C[C@H]2N1C(=O)[C@@H]1CCC[C@H](c2ccc3cc(C([NH-])=O)n(C(=O)Oc4n[n-]n[nH+]4)c3c2)C1 (nonaromatic ring conformer: 193.3593522029462 kcal/mol)

>  <smiles>  (55) 
COC(=O)[C@@H]1C[C@H]2C=C[C@H]2N1C(=O)C1CCCC(c2ccc3cc(C(N)=O)n(C(=O)Oc4nn[nH]n4)c3c2)C1

>  <score_type>  (55) 
oracle

>  <origin>  (55) 
adg

>  <m_score__min__energy>  (55) 
-12.16

>  <m_primary>  (55) 
energy

$$$$
55:0
     RDKit          3D

 78 81  0  0  0  0  0  0  0  0999 V2000
   -2.0910   25.1000  -27.2220 C   0  0  0  0  0  0  0  0  0  0  0  0
   -1.4970   25.2200  -28.5090 O   0  0  0  0  0  0  0  0  0  0  0  0
   -0.5570   24.3060  -28.9910 C   0  0  0  0  0  0  0  0  0  0  0  0
    0.5970   24.2480  -28.4830 O   0  0  0  0  0  0  0  0  0  0  0  0
   -0.9100   23.4760  -30.0580 O   0  0  0  0  0  0  0  0  0  0  0  0
   -1.1770   22.0790  -29.9300 C   0  0  2  0  0  0  0  0  0  0  0  0
   -0.2900   21.5120  -28.8300 C   0  0  0  0  0  0  0  0  0  0  0  0
   -0.8670   21.4130  -31.1560 O   0  0  0  0  0  0  0  0  0  0  0  0
   -1.2820   20.1160  -31.4710 C   0  0  0  0  0  0  0  0  0  0  0  0
   -0.9400   19.1330  -30.7590 O   0  0  0  0  0  0  0  0  0  0  0  0
   -2.0890   19.8880  -32.7110 C   0  0  0  0  0  0  0  0  0  0  0  0
   -3.5460   19.5900  -32.3540 C   0  0  0  0  0  0  0  0  0  0  0  0
   -4.0550   20.5840  -31.4660 O   0  0  0  0  0  0  0  0  0  0  0  0
   -4.2440   21.9220  -31.8310 C   0  0  0  0  0  0  0  0  0  0  0  0
   -3.3370   22.5530  -32.4340 O   0  0  0  0  0  0  0  0  0  0  0  0
   -5.4930   22.5690  -31.5350 N   0  0  0  0  0  0  0  0  0  0  0  0
   -5.6850   23.8320  -31.0600 C   0  0  0  0  0  0  0  0  0  0  0  0
   -4.6130   24.7610  -30.6350 C   0  0  0  0  0  0  0  0  0  0  0  0
   -3.2890   24.2860  -30.3890 N   0  0  0  0  0  0  0  0  0  0  0  0
   -4.8540   25.9920  -30.5160 O   0  0  0  0  0  0  0  0  0  0  0  0
   -7.0480   24.1020  -30.9370 C   0  0  0  0  0  0  0  0  0  0  0  0
   -7.6870   22.9570  -31.3550 C   0  0  0  0  0  0  0  0  0  0  0  0
   -9.0470   22.6710  -31.4430 C   0  0  0  0  0  0  0  0  0  0  0  0
   -9.4230   21.4100  -31.9370 C   0  0  0  0  0  0  0  0  0  0  0  0
   -8.4420   20.4740  -32.3490 C   0  0  0  0  0  0  0  0  0  0  0  0
   -8.8560   19.1280  -32.8800 C   0  0  0  0  0  0  0  0  0  0  0  0
   -8.4160   18.0100  -31.9340 C   0  0  0  0  0  0  0  0  0  0  0  0
   -6.9970   17.7010  -32.1470 N   0  0  0  0  0  0  0  0  0  0  0  0
   -6.1110   17.4810  -31.0000 C   0  0  0  0  0  0  0  0  0  0  0  0
   -6.4590   17.6610  -33.4810 C   0  0  0  0  0  0  0  0  0  0  0  0
   -6.3820   18.7190  -34.1640 O   0  0  0  0  0  0  0  0  0  0  0  0
   -6.0110   16.4460  -34.0150 O   0  0  0  0  0  0  0  0  0  0  0  0
   -4.8750   16.3320  -34.8740 C   0  0  1  0  0  0  0  0  0  0  0  0
   -3.9360   17.5530  -34.6690 C   0  0  0  0  0  0  0  0  0  0  0  0
   -2.5630   17.1240  -34.3030 N   0  0  0  0  0  0  0  0  0  0  0  0
   -2.0200   16.2430  -35.3670 C   0  0  0  0  0  0  0  0  0  0  0  0
   -2.8940   14.9750  -35.5470 C   0  0  0  0  0  0  0  0  0  0  0  0
   -4.0830   15.0360  -34.5720 C   0  0  0  0  0  0  0  0  0  0  0  0
   -3.5130   15.1210  -33.1410 C   0  0  0  0  0  0  0  0  0  0  0  0
   -2.6130   16.3760  -33.0230 C   0  0  0  0  0  0  0  0  0  0  0  0
   -7.0720   20.7940  -32.2280 C   0  0  0  0  0  0  0  0  0  0  0  0
   -6.7260   22.0480  -31.7130 C   0  0  0  0  0  0  0  0  0  0  0  0
   -1.3244   25.2549  -26.4485 H   0  0  0  0  0  0  0  0  0  0  0  0
   -2.8818   25.8565  -27.1112 H   0  0  0  0  0  0  0  0  0  0  0  0
   -2.5261   24.0958  -27.1112 H   0  0  0  0  0  0  0  0  0  0  0  0
   -2.2394   21.9283  -29.6877 H   0  0  0  0  0  0  0  0  0  0  0  0
   -0.7077   21.7790  -27.8480 H   0  0  0  0  0  0  0  0  0  0  0  0
   -0.2445   20.4169  -28.9236 H   0  0  0  0  0  0  0  0  0  0  0  0
    0.7230   21.9304  -28.9236 H   0  0  0  0  0  0  0  0  0  0  0  0
   -2.0475   20.7889  -33.3408 H   0  0  0  0  0  0  0  0  0  0  0  0
   -1.6721   19.0268  -33.2537 H   0  0  0  0  0  0  0  0  0  0  0  0
   -4.1499   19.5822  -33.2734 H   0  0  0  0  0  0  0  0  0  0  0  0
   -3.5980   18.6093  -31.8585 H   0  0  0  0  0  0  0  0  0  0  0  0
   -2.5320   24.9590  -30.1310 H   0  0  0  0  0  0  0  0  0  0  0  0
   -3.0600   23.2690  -30.4230 H   0  0  0  0  0  0  0  0  0  0  0  0
   -7.5135   25.0330  -30.5812 H   0  0  0  0  0  0  0  0  0  0  0  0
   -9.8030   23.4085  -31.1357 H   0  0  0  0  0  0  0  0  0  0  0  0
  -10.4890   21.1471  -32.0045 H   0  0  0  0  0  0  0  0  0  0  0  0
   -9.9509   19.1026  -32.9831 H   0  0  0  0  0  0  0  0  0  0  0  0
   -8.3747   18.9720  -33.8567 H   0  0  0  0  0  0  0  0  0  0  0  0
   -8.5661   18.3333  -30.8934 H   0  0  0  0  0  0  0  0  0  0  0  0
   -9.0155   17.1100  -32.1354 H   0  0  0  0  0  0  0  0  0  0  0  0
   -6.6769   17.6215  -30.0673 H   0  0  0  0  0  0  0  0  0  0  0  0
   -5.7121   16.4565  -31.0360 H   0  0  0  0  0  0  0  0  0  0  0  0
   -5.2792   18.1999  -31.0360 H   0  0  0  0  0  0  0  0  0  0  0  0
   -5.2340   16.2999  -35.9133 H   0  0  0  0  0  0  0  0  0  0  0  0
   -3.8930   18.1324  -35.6030 H   0  0  0  0  0  0  0  0  0  0  0  0
   -4.3380   18.1653  -33.8484 H   0  0  0  0  0  0  0  0  0  0  0  0
   -1.9958   16.7994  -36.3156 H   0  0  0  0  0  0  0  0  0  0  0  0
   -1.0071   15.9287  -35.0750 H   0  0  0  0  0  0  0  0  0  0  0  0
   -3.2679   14.9298  -36.5805 H   0  0  0  0  0  0  0  0  0  0  0  0
   -2.2914   14.0787  -35.3385 H   0  0  0  0  0  0  0  0  0  0  0  0
   -4.7345   14.1556  -34.6743 H   0  0  0  0  0  0  0  0  0  0  0  0
   -4.3402   15.1927  -32.4195 H   0  0  0  0  0  0  0  0  0  0  0  0
   -2.9195   14.2201  -32.9263 H   0  0  0  0  0  0  0  0  0  0  0  0
   -3.0160   17.0338  -32.2388 H   0  0  0  0  0  0  0  0  0  0  0  0
   -1.5932   16.0501  -32.7705 H   0  0  0  0  0  0  0  0  0  0  0  0
   -6.2963   20.0754  -32.5310 H   0  0  0  0  0  0  0  0  0  0  0  0
  1  2  1  0
  2  3  1  0
  3  4  2  0
  3  5  1  0
  5  6  1  0
  6  7  1  0
  6  8  1  0
  8  9  1  0
  9 10  2  0
  9 11  1  0
 11 12  1  0
 12 13  1  0
 13 14  1  0
 14 15  2  0
 14 16  1  0
 16 17  1  0
 17 18  1  0
 18 19  1  0
 18 20  2  0
 17 21  2  0
 21 22  1  0
 22 23  2  0
 23 24  1  0
 24 25  2  0
 25 26  1  0
 26 27  1  0
 27 28  1  0
 28 29  1  0
 28 30  1  0
 30 31  2  0
 30 32  1  0
 32 33  1  0
 33 34  1  0
 34 35  1  0
 35 36  1  0
 36 37  1  0
 37 38  1  0
 38 39  1  0
 39 40  1  0
 25 41  1  0
 41 42  2  0
 42 16  1  0
 42 22  1  0
 38 33  1  0
 40 35  1  0
  1 43  1  0
  1 44  1  0
  1 45  1  0
  6 46  1  1
  7 47  1  0
  7 48  1  0
  7 49  1  0
 11 50  1  0
 11 51  1  0
 12 52  1  0
 12 53  1  0
 19 54  1  0
 19 55  1  0
 21 56  1  0
 23 57  1  0
 24 58  1  0
 26 59  1  0
 26 60  1  0
 27 61  1  0
 27 62  1  0
 29 63  1  0
 29 64  1  0
 29 65  1  0
 33 66  1  6
 34 67  1  0
 34 68  1  0
 36 69  1  0
 36 70  1  0
 37 71  1  0
 37 72  1  0
 38 73  1  0
 39 74  1  0
 39 75  1  0
 40 76  1  0
 40 77  1  0
 41 78  1  0
M  END
>  <UniqueID>  (56) 
56

>  <SMILES>  (56) 
COC(=O)O[C@H](C)OC(=O)CCOC(=O)n1c(C(N)=O)cc2ccc(CCN(C)C(=O)O[C@H]3CN4CCC3CC4)cc21

>  <Energy>  (56) 
112.77388950151823

>  <Genealogy>  (56) 
COC(=O)O[C@H](C)OC(=O)CCOC(=O)n1c(C(N)=O)cc2ccc(CCN(C)C(=O)O[C@H]3CN4CCC3CC4)cc21 (chirality)
COC(=O)O[C@H](C)OC(=O)CCOC(=O)n1c(C(N)=O)cc2ccc(CCN(C)C(=O)O[C@H]3CN4CCC3CC4)cc21 (3D coordinates assigned)
COC(=O)O[C@H](C)OC(=O)CCOC(=O)n1c(C(N)=O)cc2ccc(CCN(C)C(=O)O[C@H]3CN4CCC3CC4)cc21 (nonaromatic ring conformer: 112.77388950151823 kcal/mol)

>  <smiles>  (56) 
COC(=O)OC(C)OC(=O)CCOC(=O)n1c(C(N)=O)cc2ccc(CCN(C)C(=O)O[C@H]3CN4CCC3CC4)cc21

>  <score_type>  (56) 
oracle

>  <origin>  (56) 
adg

>  <m_score__min__energy>  (56) 
-10.31

>  <m_primary>  (56) 
energy

$$$$
56:0
     RDKit          3D

 53 54  0  0  0  0  0  0  0  0999 V2000
   -2.2300   24.7660  -27.7770 C   0  0  0  0  0  0  0  0  0  0  0  0
   -1.0390   24.4070  -28.6660 C   0  0  0  0  0  0  0  0  0  0  0  0
   -1.0410   22.9310  -29.1050 C   0  0  0  0  0  0  0  0  0  0  0  0
   -1.7220   22.6960  -30.4620 C   0  0  0  0  0  0  0  0  0  0  0  0
   -3.1670   22.8960  -30.3850 N   0  0  0  0  0  0  0  0  0  0  0  0
   -4.0550   22.5460  -31.4560 C   0  0  0  0  0  0  0  0  0  0  0  0
   -3.6140   21.9620  -32.4820 O   0  0  0  0  0  0  0  0  0  0  0  0
   -5.4490   22.8800  -31.3740 N   0  0  0  0  0  0  0  0  0  0  0  0
   -6.0080   23.9970  -30.8330 C   0  0  0  0  0  0  0  0  0  0  0  0
   -5.2760   25.1890  -30.3530 C   0  0  0  0  0  0  0  0  0  0  0  0
   -3.8710   25.3170  -30.5520 N   0  0  0  0  0  0  0  0  0  0  0  0
   -5.9060   26.1230  -29.7910 O   0  0  0  0  0  0  0  0  0  0  0  0
   -7.3990   23.9000  -30.8430 C   0  0  0  0  0  0  0  0  0  0  0  0
   -7.6750   22.6770  -31.4100 C   0  0  0  0  0  0  0  0  0  0  0  0
   -8.8950   22.0540  -31.6460 C   0  0  0  0  0  0  0  0  0  0  0  0
   -8.8800   20.7660  -32.2090 C   0  0  0  0  0  0  0  0  0  0  0  0
   -7.6560   20.1180  -32.5140 C   0  0  0  0  0  0  0  0  0  0  0  0
   -7.6940   18.7890  -33.0690 N   0  0  0  0  0  0  0  0  0  0  0  0
   -7.5800   17.5460  -32.3000 C   0  0  0  0  0  0  0  0  0  0  0  0
   -6.1240   17.0720  -32.2310 C   0  0  0  0  0  0  0  0  0  0  0  0
   -5.5250   16.9530  -33.5700 N   0  0  0  0  0  0  0  0  0  0  0  0
   -5.3510   15.6250  -34.1710 C   0  0  0  0  0  0  0  0  0  0  0  0
   -5.1870   18.1420  -34.3180 C   0  0  0  0  0  0  0  0  0  0  0  0
   -3.8830   18.8520  -34.1110 C   0  0  0  0  0  0  0  0  0  0  0  0
   -5.9940   18.6020  -35.1700 O   0  0  0  0  0  0  0  0  0  0  0  0
   -6.4350   20.7950  -32.2710 C   0  0  0  0  0  0  0  0  0  0  0  0
   -6.4820   22.0820  -31.7220 C   0  0  0  0  0  0  0  0  0  0  0  0
   -1.9383   24.6781  -26.7200 H   0  0  0  0  0  0  0  0  0  0  0  0
   -2.5451   25.7990  -27.9857 H   0  0  0  0  0  0  0  0  0  0  0  0
   -3.0635   24.0792  -27.9857 H   0  0  0  0  0  0  0  0  0  0  0  0
   -1.0687   25.0404  -29.5649 H   0  0  0  0  0  0  0  0  0  0  0  0
   -0.1254   24.5744  -28.0766 H   0  0  0  0  0  0  0  0  0  0  0  0
    0.0015   22.5870  -29.1745 H   0  0  0  0  0  0  0  0  0  0  0  0
   -1.6161   22.3707  -28.3531 H   0  0  0  0  0  0  0  0  0  0  0  0
   -1.3037   23.3995  -31.1970 H   0  0  0  0  0  0  0  0  0  0  0  0
   -1.5363   21.6542  -30.7622 H   0  0  0  0  0  0  0  0  0  0  0  0
   -3.5590   23.3620  -29.5360 H   0  0  0  0  0  0  0  0  0  0  0  0
   -3.4830   26.0260  -31.2130 H   0  0  0  0  0  0  0  0  0  0  0  0
   -8.1220   24.6432  -30.4757 H   0  0  0  0  0  0  0  0  0  0  0  0
   -9.8435   22.5537  -31.3997 H   0  0  0  0  0  0  0  0  0  0  0  0
   -9.8311   20.2535  -32.4159 H   0  0  0  0  0  0  0  0  0  0  0  0
   -7.9020   18.6870  -34.0890 H   0  0  0  0  0  0  0  0  0  0  0  0
   -7.9501   17.7200  -31.2788 H   0  0  0  0  0  0  0  0  0  0  0  0
   -8.1772   16.7694  -32.8003 H   0  0  0  0  0  0  0  0  0  0  0  0
   -5.5411   17.7962  -31.6430 H   0  0  0  0  0  0  0  0  0  0  0  0
   -6.1095   16.0781  -31.7599 H   0  0  0  0  0  0  0  0  0  0  0  0
   -5.2524   14.8723  -33.3749 H   0  0  0  0  0  0  0  0  0  0  0  0
   -6.2257   15.3871  -34.7942 H   0  0  0  0  0  0  0  0  0  0  0  0
   -4.4446   15.6205  -34.7942 H   0  0  0  0  0  0  0  0  0  0  0  0
   -3.6898   18.9572  -33.0332 H   0  0  0  0  0  0  0  0  0  0  0  0
   -3.0717   18.2711  -34.5739 H   0  0  0  0  0  0  0  0  0  0  0  0
   -3.9307   19.8487  -34.5739 H   0  0  0  0  0  0  0  0  0  0  0  0
   -5.4717   20.3199  -32.5085 H   0  0  0  0  0  0  0  0  0  0  0  0
  1  2  1  0
  2  3  1  0
  3  4  1  0
  4  5  1  0
  5  6  1  0
  6  7  2  0
  6  8  1  0
  8  9  1  0
  9 10  1  0
 10 11  1  0
 10 12  2  0
  9 13  2  0
 13 14  1  0
 14 15  2  0
 15 16  1  0
 16 17  2  0
 17 18  1  0
 18 19  1  0
 19 20  1  0
 20 21  1  0
 21 22  1  0
 21 23  1  0
 23 24  1  0
 23 25  2  0
 17 26  1  0
 26 27  2  0
 27  8  1  0
 27 14  1  0
  1 28  1  0
  1 29  1  0
  1 30  1  0
  2 31  1  0
  2 32  1  0
  3 33  1  0
  3 34  1  0
  4 35  1  0
  4 36  1  0
  5 37  1  0
 11 38  1  0
 13 39  1  0
 15 40  1  0
 16 41  1  0
 18 42  1  0
 19 43  1  0
 19 44  1  0
 20 45  1  0
 20 46  1  0
 22 47  1  0
 22 48  1  0
 22 49  1  0
 24 50  1  0
 24 51  1  0
 24 52  1  0
 26 53  1  0
M  CHG  1  11  -1
M  END
>  <UniqueID>  (57) 
57

>  <SMILES>  (57) 
CCCCNC(=O)n1c(C([NH-])=O)cc2ccc(NCCN(C)C(C)=O)cc21

>  <Energy>  (57) 
76.00791012958315

>  <Genealogy>  (57) 
CCCCNC(=O)n1c(C([NH-])=O)cc2ccc(NCCN(C)C(C)=O)cc21 (protonated)
CCCCNC(=O)n1c(C([NH-])=O)cc2ccc(NCCN(C)C(C)=O)cc21 (3D coordinates assigned)
CCCCNC(=O)n1c(C([NH-])=O)cc2ccc(NCCN(C)C(C)=O)cc21 (optimized conformer: 76.00791012958315 kcal/mol)

>  <smiles>  (57) 
CCCCNC(=O)n1c(C(N)=O)cc2ccc(NCCN(C)C(C)=O)cc21

>  <score_type>  (57) 
oracle

>  <origin>  (57) 
adg

>  <m_score__min__energy>  (57) 
-10.609999999999999

>  <m_primary>  (57) 
energy

$$$$
57:0
     RDKit          3D

 41 42  0  0  0  0  0  0  0  0999 V2000
   -6.2550   26.0220  -29.4570 C   0  0  0  0  0  0  0  0  0  0  0  0
   -5.9490   24.6750  -29.9500 N   0  0  0  0  0  0  0  0  0  0  0  0
   -7.0510   23.7080  -30.1040 C   0  0  0  0  0  0  0  0  0  0  0  0
   -7.3320   23.4190  -31.5840 C   0  0  0  0  0  0  0  0  0  0  0  0
   -7.5530   21.9500  -31.8270 C   0  0  0  0  0  0  0  0  0  0  0  0
   -8.8210   21.3690  -31.5750 C   0  0  0  0  0  0  0  0  0  0  0  0
   -9.0500   20.0100  -31.8420 C   0  0  0  0  0  0  0  0  0  0  0  0
   -8.0050   19.2660  -32.3820 C   0  0  0  0  0  0  0  0  0  0  0  0
   -7.9470   17.9310  -32.7080 C   0  0  0  0  0  0  0  0  0  0  0  0
   -6.6600   17.7290  -33.1990 C   0  0  0  0  0  0  0  0  0  0  0  0
   -6.1700   16.4240  -33.6900 C   0  0  0  0  0  0  0  0  0  0  0  0
   -4.7830   16.0890  -33.6490 N   0  0  0  0  0  0  0  0  0  0  0  0
   -6.9860   15.6090  -34.1960 O   0  0  0  0  0  0  0  0  0  0  0  0
   -5.9470   18.8890  -33.1750 N   0  0  0  0  0  0  0  0  0  0  0  0
   -4.5580   19.0630  -33.5050 C   0  0  0  0  0  0  0  0  0  0  0  0
   -4.1190   18.6280  -34.6030 O   0  0  0  0  0  0  0  0  0  0  0  0
   -3.6240   19.7580  -32.5610 C   0  0  0  0  0  0  0  0  0  0  0  0
   -3.2290   21.3850  -33.1650 Cl  0  0  0  0  0  0  0  0  0  0  0  0
   -6.7820   19.8200  -32.6610 C   0  0  0  0  0  0  0  0  0  0  0  0
   -6.5140   21.1620  -32.3660 C   0  0  0  0  0  0  0  0  0  0  0  0
   -4.5950   24.3780  -30.3600 C   0  0  0  0  0  0  0  0  0  0  0  0
   -3.8790   25.2970  -30.8440 O   0  0  0  0  0  0  0  0  0  0  0  0
   -4.0150   22.9930  -30.2260 C   0  0  0  0  0  0  0  0  0  0  0  0
   -3.6550   22.5660  -28.5300 Cl  0  0  0  0  0  0  0  0  0  0  0  0
   -6.2543   26.0188  -28.3570 H   0  0  0  0  0  0  0  0  0  0  0  0
   -5.4943   26.7277  -29.8221 H   0  0  0  0  0  0  0  0  0  0  0  0
   -7.2459   26.3298  -29.8221 H   0  0  0  0  0  0  0  0  0  0  0  0
   -6.7775   22.7690  -29.6006 H   0  0  0  0  0  0  0  0  0  0  0  0
   -7.9580   24.1387  -29.6547 H   0  0  0  0  0  0  0  0  0  0  0  0
   -8.2321   23.9715  -31.8914 H   0  0  0  0  0  0  0  0  0  0  0  0
   -6.4575   23.7380  -32.1700 H   0  0  0  0  0  0  0  0  0  0  0  0
   -9.6330   21.9886  -31.1665 H   0  0  0  0  0  0  0  0  0  0  0  0
  -10.0254   19.5473  -31.6309 H   0  0  0  0  0  0  0  0  0  0  0  0
   -8.7466   17.1829  -32.6032 H   0  0  0  0  0  0  0  0  0  0  0  0
   -4.4650   15.1390  -33.9470 H   0  0  0  0  0  0  0  0  0  0  0  0
   -4.0600   16.8070  -33.4260 H   0  0  0  0  0  0  0  0  0  0  0  0
   -4.1032   19.8440  -31.5746 H   0  0  0  0  0  0  0  0  0  0  0  0
   -2.6965   19.1722  -32.4807 H   0  0  0  0  0  0  0  0  0  0  0  0
   -5.5181   21.5915  -32.5498 H   0  0  0  0  0  0  0  0  0  0  0  0
   -4.7377   22.2672  -30.6271 H   0  0  0  0  0  0  0  0  0  0  0  0
   -3.0681   22.9707  -30.7854 H   0  0  0  0  0  0  0  0  0  0  0  0
  1  2  1  0
  2  3  1  0
  3  4  1  0
  4  5  1  0
  5  6  2  0
  6  7  1  0
  7  8  2  0
  8  9  1  0
  9 10  2  0
 10 11  1  0
 11 12  1  0
 11 13  2  0
 10 14  1  0
 14 15  1  0
 15 16  2  0
 15 17  1  0
 17 18  1  0
 14 19  1  0
 19 20  2  0
  2 21  1  0
 21 22  2  0
 21 23  1  0
 23 24  1  0
 20  5  1  0
 19  8  1  0
  1 25  1  0
  1 26  1  0
  1 27  1  0
  3 28  1  0
  3 29  1  0
  4 30  1  0
  4 31  1  0
  6 32  1  0
  7 33  1  0
  9 34  1  0
 12 35  1  0
 12 36  1  0
 17 37  1  0
 17 38  1  0
 20 39  1  0
 23 40  1  0
 23 41  1  0
M  END
>  <UniqueID>  (58) 
58

>  <SMILES>  (58) 
CN(CCc1ccc2cc(C(N)=O)n(C(=O)CCl)c2c1)C(=O)CCl

>  <Energy>  (58) 
74.38738204044715

>  <Genealogy>  (58) 
CN(CCc1ccc2cc(C(N)=O)n(C(=O)CCl)c2c1)C(=O)CCl (3D coordinates assigned)
CN(CCc1ccc2cc(C(N)=O)n(C(=O)CCl)c2c1)C(=O)CCl (optimized conformer: 74.38738204044715 kcal/mol)

>  <smiles>  (58) 
CN(CCc1ccc2cc(C(N)=O)n(C(=O)CCl)c2c1)C(=O)CCl

>  <score_type>  (58) 
oracle

>  <origin>  (58) 
adg

>  <m_score__min__energy>  (58) 
-8.75

>  <m_primary>  (58) 
energy

$$$$
58:0
     RDKit          3D

 34 35  0  0  0  0  0  0  0  0999 V2000
   -6.4490   17.4970  -31.6170 C   0  0  0  0  0  0  0  0  0  0  0  0
   -6.8850   18.2550  -32.7230 O   0  0  0  0  0  0  0  0  0  0  0  0
   -7.6000   19.3840  -32.2650 C   0  0  0  0  0  0  0  0  0  0  0  0
   -6.7900   20.6530  -32.5430 C   0  0  0  0  0  0  0  0  0  0  0  0
   -5.5830   20.3560  -33.3280 N   0  0  0  0  0  0  0  0  0  0  0  0
   -4.4110   20.8020  -32.6170 C   0  0  0  0  0  0  0  0  0  0  0  0
   -3.2300   20.0140  -32.6220 C   0  0  0  0  0  0  0  0  0  0  0  0
   -2.0880   20.4300  -31.9180 C   0  0  0  0  0  0  0  0  0  0  0  0
   -2.1600   21.6220  -31.2050 C   0  0  0  0  0  0  0  0  0  0  0  0
   -1.1990   22.2640  -30.4580 C   0  0  0  0  0  0  0  0  0  0  0  0
   -1.8150   23.4170  -29.9750 C   0  0  0  0  0  0  0  0  0  0  0  0
   -1.1570   24.3600  -29.0460 C   0  0  0  0  0  0  0  0  0  0  0  0
   -1.5810   25.7170  -28.9550 N   0  0  0  0  0  0  0  0  0  0  0  0
   -0.2390   23.9480  -28.2870 O   0  0  0  0  0  0  0  0  0  0  0  0
   -3.1050   23.4900  -30.4130 N   0  0  0  0  0  0  0  0  0  0  0  0
   -4.0470   24.5540  -30.2090 C   0  0  0  0  0  0  0  0  0  0  0  0
   -3.8700   25.6740  -30.7580 O   0  0  0  0  0  0  0  0  0  0  0  0
   -5.1760   24.3530  -29.4260 O   0  0  0  0  0  0  0  0  0  0  0  0
   -3.3010   22.3820  -31.1630 C   0  0  0  0  0  0  0  0  0  0  0  0
   -4.4470   22.0020  -31.8710 C   0  0  0  0  0  0  0  0  0  0  0  0
   -6.7412   18.0051  -30.6862 H   0  0  0  0  0  0  0  0  0  0  0  0
   -6.9113   16.4995  -31.6510 H   0  0  0  0  0  0  0  0  0  0  0  0
   -5.3543   17.3951  -31.6510 H   0  0  0  0  0  0  0  0  0  0  0  0
   -8.5651   19.4436  -32.7895 H   0  0  0  0  0  0  0  0  0  0  0  0
   -7.7739   19.2917  -31.1828 H   0  0  0  0  0  0  0  0  0  0  0  0
   -7.4165   21.3621  -33.1039 H   0  0  0  0  0  0  0  0  0  0  0  0
   -6.4799   21.0845  -31.5798 H   0  0  0  0  0  0  0  0  0  0  0  0
   -5.6340   20.8370  -34.2570 H   0  0  0  0  0  0  0  0  0  0  0  0
   -5.5150   19.3250  -33.5020 H   0  0  0  0  0  0  0  0  0  0  0  0
   -3.2091   19.0680  -33.1830 H   0  0  0  0  0  0  0  0  0  0  0  0
   -1.1652   19.8315  -31.9302 H   0  0  0  0  0  0  0  0  0  0  0  0
   -0.1641   21.9365  -30.2799 H   0  0  0  0  0  0  0  0  0  0  0  0
   -2.5950   25.9640  -28.9650 H   0  0  0  0  0  0  0  0  0  0  0  0
   -5.3547   22.6229  -31.8474 H   0  0  0  0  0  0  0  0  0  0  0  0
  1  2  1  0
  2  3  1  0
  3  4  1  0
  4  5  1  0
  5  6  1  0
  6  7  2  0
  7  8  1  0
  8  9  2  0
  9 10  1  0
 10 11  2  0
 11 12  1  0
 12 13  1  0
 12 14  2  0
 11 15  1  0
 15 16  1  0
 16 17  2  0
 16 18  1  0
 15 19  1  0
 19 20  2  0
 20  6  1  0
 19  9  1  0
  1 21  1  0
  1 22  1  0
  1 23  1  0
  3 24  1  0
  3 25  1  0
  4 26  1  0
  4 27  1  0
  5 28  1  0
  5 29  1  0
  7 30  1  0
  8 31  1  0
 10 32  1  0
 13 33  1  0
 20 34  1  0
M  CHG  3   5   1  13  -1  18  -1
M  END
>  <UniqueID>  (59) 
59

>  <SMILES>  (59) 
COCC[NH2+]c1ccc2cc(C([NH-])=O)n(C(=O)[O-])c2c1

>  <Energy>  (59) 
73.17129263367134

>  <Genealogy>  (59) 
COCC[NH2+]c1ccc2cc(C([NH-])=O)n(C(=O)[O-])c2c1 (protonated)
COCC[NH2+]c1ccc2cc(C([NH-])=O)n(C(=O)[O-])c2c1 (3D coordinates assigned)
COCC[NH2+]c1ccc2cc(C([NH-])=O)n(C(=O)[O-])c2c1 (optimized conformer: 73.17129263367134 kcal/mol)

>  <smiles>  (59) 
COCCNc1ccc2cc(C(N)=O)n(C(=O)O)c2c1

>  <score_type>  (59) 
oracle

>  <origin>  (59) 
adg

>  <m_score__min__energy>  (59) 
-9.2799999999999994

>  <m_primary>  (59) 
energy

$$$$
59:0
     RDKit          3D

 30 31  0  0  0  0  0  0  0  0999 V2000
   -1.6190   25.7060  -28.9660 N   0  0  0  0  0  0  0  0  0  0  0  0
   -1.0940   24.4000  -29.1860 C   0  0  0  0  0  0  0  0  0  0  0  0
   -0.0340   24.0550  -28.5980 O   0  0  0  0  0  0  0  0  0  0  0  0
   -1.8020   23.4300  -30.0470 C   0  0  0  0  0  0  0  0  0  0  0  0
   -1.2140   22.2610  -30.5260 C   0  0  0  0  0  0  0  0  0  0  0  0
   -2.2140   21.6000  -31.2010 C   0  0  0  0  0  0  0  0  0  0  0  0
   -2.1800   20.3910  -31.8920 C   0  0  0  0  0  0  0  0  0  0  0  0
   -3.3550   19.9640  -32.5300 C   0  0  0  0  0  0  0  0  0  0  0  0
   -4.5350   20.7470  -32.4680 C   0  0  0  0  0  0  0  0  0  0  0  0
   -5.7760   20.2950  -33.1940 C   0  0  0  0  0  0  0  0  0  0  0  0
   -6.8410   19.7520  -32.2300 C   0  0  0  0  0  0  0  0  0  0  0  0
   -8.2610   20.1260  -32.6600 C   0  0  0  0  0  0  0  0  0  0  0  0
   -8.9100   21.6070  -31.5930 Br  0  0  0  0  0  0  0  0  0  0  0  0
   -4.5310   21.9700  -31.7630 C   0  0  0  0  0  0  0  0  0  0  0  0
   -3.3500   22.3640  -31.1230 C   0  0  0  0  0  0  0  0  0  0  0  0
   -3.1130   23.4940  -30.4200 N   0  0  0  0  0  0  0  0  0  0  0  0
   -4.0400   24.5700  -30.2030 C   0  0  0  0  0  0  0  0  0  0  0  0
   -3.8780   25.6760  -30.7810 O   0  0  0  0  0  0  0  0  0  0  0  0
   -5.1420   24.3910  -29.3750 O   0  0  0  0  0  0  0  0  0  0  0  0
   -2.6490   25.8810  -28.9860 H   0  0  0  0  0  0  0  0  0  0  0  0
   -0.1717   21.9358  -30.3927 H   0  0  0  0  0  0  0  0  0  0  0  0
   -1.2603   19.7892  -31.9363 H   0  0  0  0  0  0  0  0  0  0  0  0
   -3.3602   19.0132  -33.0831 H   0  0  0  0  0  0  0  0  0  0  0  0
   -6.1971   21.1498  -33.7435 H   0  0  0  0  0  0  0  0  0  0  0  0
   -5.4919   19.4825  -33.8790 H   0  0  0  0  0  0  0  0  0  0  0  0
   -6.7597   18.6556  -32.1948 H   0  0  0  0  0  0  0  0  0  0  0  0
   -6.6601   20.2012  -31.2423 H   0  0  0  0  0  0  0  0  0  0  0  0
   -8.2554   20.4166  -33.7209 H   0  0  0  0  0  0  0  0  0  0  0  0
   -8.9221   19.2591  -32.5134 H   0  0  0  0  0  0  0  0  0  0  0  0
   -5.4332   22.5976  -31.7177 H   0  0  0  0  0  0  0  0  0  0  0  0
  1  2  1  0
  2  3  2  0
  2  4  1  0
  4  5  2  0
  5  6  1  0
  6  7  2  0
  7  8  1  0
  8  9  2  0
  9 10  1  0
 10 11  1  0
 11 12  1  0
 12 13  1  0
  9 14  1  0
 14 15  2  0
 15 16  1  0
 16 17  1  0
 17 18  2  0
 17 19  1  0
 16  4  1  0
 15  6  1  0
  1 20  1  0
  5 21  1  0
  7 22  1  0
  8 23  1  0
 10 24  1  0
 10 25  1  0
 11 26  1  0
 11 27  1  0
 12 28  1  0
 12 29  1  0
 14 30  1  0
M  CHG  2   1  -1  19  -1
M  END
>  <UniqueID>  (60) 
60

>  <SMILES>  (60) 
[NH-]C(=O)c1cc2ccc(CCCBr)cc2n1C(=O)[O-]

>  <Energy>  (60) 
65.00426070652512

>  <Genealogy>  (60) 
[NH-]C(=O)c1cc2ccc(CCCBr)cc2n1C(=O)[O-] (protonated)
[NH-]C(=O)c1cc2ccc(CCCBr)cc2n1C(=O)[O-] (3D coordinates assigned)
[NH-]C(=O)c1cc2ccc(CCCBr)cc2n1C(=O)[O-] (optimized conformer: 65.00426070652512 kcal/mol)

>  <smiles>  (60) 
NC(=O)c1cc2ccc(CCCBr)cc2n1C(=O)O

>  <score_type>  (60) 
oracle

>  <origin>  (60) 
adg

>  <m_score__min__energy>  (60) 
-10.98

>  <m_primary>  (60) 
energy

$$$$
60:0
     RDKit          3D

 37 38  0  0  0  0  0  0  0  0999 V2000
   -7.2260   20.0270  -31.6120 C   0  0  0  0  0  0  0  0  0  0  0  0
   -6.9770   20.4120  -33.0740 C   0  0  0  0  0  0  0  0  0  0  0  0
   -5.5610   20.0930  -33.6320 C   0  0  0  0  0  0  0  0  0  0  0  0
   -5.4160   18.6570  -34.2090 C   0  0  0  0  0  0  0  0  0  0  0  0
   -6.4700   17.6530  -33.7270 C   0  0  0  0  0  0  0  0  0  0  0  0
   -4.3810   20.5020  -32.7510 C   0  0  0  0  0  0  0  0  0  0  0  0
   -3.2350   19.6810  -32.5560 C   0  0  0  0  0  0  0  0  0  0  0  0
   -2.1720   20.1080  -31.7440 C   0  0  0  0  0  0  0  0  0  0  0  0
   -2.2670   21.3570  -31.1420 C   0  0  0  0  0  0  0  0  0  0  0  0
   -1.3980   21.9930  -30.2850 C   0  0  0  0  0  0  0  0  0  0  0  0
   -2.0050   23.2070  -29.9820 C   0  0  0  0  0  0  0  0  0  0  0  0
   -1.3760   24.2390  -29.1350 C   0  0  0  0  0  0  0  0  0  0  0  0
   -2.1510   25.2830  -28.5440 N   0  0  0  0  0  0  0  0  0  0  0  0
   -0.1260   24.2330  -28.9760 O   0  0  0  0  0  0  0  0  0  0  0  0
   -3.2090   23.3150  -30.6110 N   0  0  0  0  0  0  0  0  0  0  0  0
   -4.1820   24.3620  -30.4550 C   0  0  0  0  0  0  0  0  0  0  0  0
   -5.3240   24.1090  -29.9910 O   0  0  0  0  0  0  0  0  0  0  0  0
   -3.8690   25.6680  -30.8130 O   0  0  0  0  0  0  0  0  0  0  0  0
   -3.3530   22.1720  -31.3220 C   0  0  0  0  0  0  0  0  0  0  0  0
   -4.4370   21.7630  -32.1050 C   0  0  0  0  0  0  0  0  0  0  0  0
   -6.7482   20.7658  -30.9518 H   0  0  0  0  0  0  0  0  0  0  0  0
   -8.3085   20.0072  -31.4173 H   0  0  0  0  0  0  0  0  0  0  0  0
   -6.8001   19.0316  -31.4173 H   0  0  0  0  0  0  0  0  0  0  0  0
   -7.7112   19.8754  -33.6929 H   0  0  0  0  0  0  0  0  0  0  0  0
   -7.0705   21.5074  -33.1119 H   0  0  0  0  0  0  0  0  0  0  0  0
   -5.4923   20.7787  -34.4894 H   0  0  0  0  0  0  0  0  0  0  0  0
   -5.4831   18.7217  -35.3050 H   0  0  0  0  0  0  0  0  0  0  0  0
   -4.4468   18.2794  -33.8511 H   0  0  0  0  0  0  0  0  0  0  0  0
   -6.4860   17.6378  -32.6272 H   0  0  0  0  0  0  0  0  0  0  0  0
   -7.4595   17.9508  -34.1040 H   0  0  0  0  0  0  0  0  0  0  0  0
   -6.2206   16.6502  -34.1040 H   0  0  0  0  0  0  0  0  0  0  0  0
   -3.1812   18.6987  -33.0480 H   0  0  0  0  0  0  0  0  0  0  0  0
   -1.2884   19.4715  -31.5887 H   0  0  0  0  0  0  0  0  0  0  0  0
   -0.4301   21.6207  -29.9181 H   0  0  0  0  0  0  0  0  0  0  0  0
   -1.6940   25.9840  -27.9190 H   0  0  0  0  0  0  0  0  0  0  0  0
   -3.1570   25.4130  -28.7890 H   0  0  0  0  0  0  0  0  0  0  0  0
   -5.3197   22.4096  -32.2181 H   0  0  0  0  0  0  0  0  0  0  0  0
  1  2  1  0
  2  3  1  0
  3  4  1  0
  4  5  1  0
  3  6  1  0
  6  7  2  0
  7  8  1  0
  8  9  2  0
  9 10  1  0
 10 11  2  0
 11 12  1  0
 12 13  1  0
 12 14  2  0
 11 15  1  0
 15 16  1  0
 16 17  2  0
 16 18  1  0
 15 19  1  0
 19 20  2  0
 20  6  1  0
 19  9  1  0
  1 21  1  0
  1 22  1  0
  1 23  1  0
  2 24  1  0
  2 25  1  0
  3 26  1  0
  4 27  1  0
  4 28  1  0
  5 29  1  0
  5 30  1  0
  5 31  1  0
  7 32  1  0
  8 33  1  0
 10 34  1  0
 13 35  1  0
 13 36  1  0
 20 37  1  0
M  CHG  1  18  -1
M  END
>  <UniqueID>  (61) 
61

>  <SMILES>  (61) 
CCC(CC)c1ccc2cc(C(N)=O)n(C(=O)[O-])c2c1

>  <Energy>  (61) 
80.29024279435863

>  <Genealogy>  (61) 
CCC(CC)c1ccc2cc(C(N)=O)n(C(=O)[O-])c2c1 (protonated)
CCC(CC)c1ccc2cc(C(N)=O)n(C(=O)[O-])c2c1 (3D coordinates assigned)
CCC(CC)c1ccc2cc(C(N)=O)n(C(=O)[O-])c2c1 (optimized conformer: 80.29024279435863 kcal/mol)

>  <smiles>  (61) 
CCC(CC)c1ccc2cc(C(N)=O)n(C(=O)O)c2c1

>  <score_type>  (61) 
oracle

>  <origin>  (61) 
adg

>  <m_score__min__energy>  (61) 
-8.9600000000000009

>  <m_primary>  (61) 
energy

$$$$
61:0
     RDKit          3D

 37 38  0  0  0  0  0  0  0  0999 V2000
   -7.2270   23.8500  -30.8740 C   0  0  0  0  0  0  0  0  0  0  0  0
   -7.5600   23.3420  -32.2710 C   0  0  0  0  0  0  0  0  0  0  0  0
   -6.7350   22.1840  -32.6060 N   0  0  0  0  0  0  0  0  0  0  0  0
   -7.0070   20.8690  -32.0980 C   0  0  0  0  0  0  0  0  0  0  0  0
   -8.0040   20.6670  -31.3540 O   0  0  0  0  0  0  0  0  0  0  0  0
   -6.0770   19.7330  -32.4120 C   0  0  0  0  0  0  0  0  0  0  0  0
   -4.9560   20.1690  -33.3650 C   0  0  0  0  0  0  0  0  0  0  0  0
   -3.7790   20.7460  -32.6190 C   0  0  0  0  0  0  0  0  0  0  0  0
   -2.5340   20.0680  -32.6220 C   0  0  0  0  0  0  0  0  0  0  0  0
   -1.4490   20.5640  -31.8820 C   0  0  0  0  0  0  0  0  0  0  0  0
   -1.6360   21.7350  -31.1530 C   0  0  0  0  0  0  0  0  0  0  0  0
   -0.7680   22.4110  -30.3270 C   0  0  0  0  0  0  0  0  0  0  0  0
   -1.4890   23.5010  -29.8460 C   0  0  0  0  0  0  0  0  0  0  0  0
   -0.9020   24.5440  -28.9780 C   0  0  0  0  0  0  0  0  0  0  0  0
   -1.4740   25.8490  -28.9520 N   0  0  0  0  0  0  0  0  0  0  0  0
    0.0770   24.2850  -28.2290 O   0  0  0  0  0  0  0  0  0  0  0  0
   -2.7570   23.4970  -30.3500 N   0  0  0  0  0  0  0  0  0  0  0  0
   -3.8300   24.4060  -30.0500 C   0  0  0  0  0  0  0  0  0  0  0  0
   -4.7380   24.0750  -29.2450 O   0  0  0  0  0  0  0  0  0  0  0  0
   -3.8880   25.6500  -30.6670 O   0  0  0  0  0  0  0  0  0  0  0  0
   -2.8300   22.4110  -31.1510 C   0  0  0  0  0  0  0  0  0  0  0  0
   -3.9330   21.9310  -31.8660 C   0  0  0  0  0  0  0  0  0  0  0  0
   -7.6683   23.1769  -30.1242 H   0  0  0  0  0  0  0  0  0  0  0  0
   -6.1350   23.8776  -30.7445 H   0  0  0  0  0  0  0  0  0  0  0  0
   -7.6373   24.8624  -30.7445 H   0  0  0  0  0  0  0  0  0  0  0  0
   -8.6208   23.0531  -32.3075 H   0  0  0  0  0  0  0  0  0  0  0  0
   -7.3592   24.1432  -32.9975 H   0  0  0  0  0  0  0  0  0  0  0  0
   -5.9370   22.3170  -33.2680 H   0  0  0  0  0  0  0  0  0  0  0  0
   -5.6285   19.3693  -31.4757 H   0  0  0  0  0  0  0  0  0  0  0  0
   -6.6575   18.9384  -32.9036 H   0  0  0  0  0  0  0  0  0  0  0  0
   -4.6185   19.2949  -33.9411 H   0  0  0  0  0  0  0  0  0  0  0  0
   -5.3560   20.9497  -34.0287 H   0  0  0  0  0  0  0  0  0  0  0  0
   -2.4171   19.1453  -33.2093 H   0  0  0  0  0  0  0  0  0  0  0  0
   -0.4802   20.0430  -31.8784 H   0  0  0  0  0  0  0  0  0  0  0  0
    0.2744   22.1466  -30.0956 H   0  0  0  0  0  0  0  0  0  0  0  0
   -2.5090   25.9820  -28.9710 H   0  0  0  0  0  0  0  0  0  0  0  0
   -4.8955   22.4630  -31.8422 H   0  0  0  0  0  0  0  0  0  0  0  0
  1  2  1  0
  2  3  1  0
  3  4  1  0
  4  5  2  0
  4  6  1  0
  6  7  1  0
  7  8  1  0
  8  9  2  0
  9 10  1  0
 10 11  2  0
 11 12  1  0
 12 13  2  0
 13 14  1  0
 14 15  1  0
 14 16  2  0
 13 17  1  0
 17 18  1  0
 18 19  2  0
 18 20  1  0
 17 21  1  0
 21 22  2  0
 22  8  1  0
 21 11  1  0
  1 23  1  0
  1 24  1  0
  1 25  1  0
  2 26  1  0
  2 27  1  0
  3 28  1  0
  6 29  1  0
  6 30  1  0
  7 31  1  0
  7 32  1  0
  9 33  1  0
 10 34  1  0
 12 35  1  0
 15 36  1  0
 22 37  1  0
M  CHG  2  15  -1  20  -1
M  END
>  <UniqueID>  (62) 
62

>  <SMILES>  (62) 
CCNC(=O)CCc1ccc2cc(C([NH-])=O)n(C(=O)[O-])c2c1

>  <Energy>  (62) 
65.84025382339671

>  <Genealogy>  (62) 
CCNC(=O)CCc1ccc2cc(C([NH-])=O)n(C(=O)[O-])c2c1 (protonated)
CCNC(=O)CCc1ccc2cc(C([NH-])=O)n(C(=O)[O-])c2c1 (3D coordinates assigned)
CCNC(=O)CCc1ccc2cc(C([NH-])=O)n(C(=O)[O-])c2c1 (optimized conformer: 65.84025382339671 kcal/mol)

>  <smiles>  (62) 
CCNC(=O)CCc1ccc2cc(C(N)=O)n(C(=O)O)c2c1

>  <score_type>  (62) 
oracle

>  <origin>  (62) 
adg

>  <m_score__min__energy>  (62) 
-11.619999999999999

>  <m_primary>  (62) 
energy

$$$$
62:0
     RDKit          3D

 39 41  0  0  0  0  0  0  0  0999 V2000
   -4.1230   15.5260  -33.3020 C   0  0  0  0  0  0  0  0  0  0  0  0
   -4.6470   16.4930  -34.2800 N   0  0  2  0  0  0  0  0  0  0  0  0
   -4.0530   17.8330  -34.1060 C   0  0  0  0  0  0  0  0  0  0  0  0
   -5.1850   18.8620  -34.2040 C   0  0  0  0  0  0  0  0  0  0  0  0
   -6.4620   18.1070  -33.8470 C   0  0  2  0  0  0  0  0  0  0  0  0
   -6.8670   18.3390  -32.3770 C   0  0  0  0  0  0  0  0  0  0  0  0
   -7.0160   19.8040  -32.0610 C   0  0  0  0  0  0  0  0  0  0  0  0
   -8.3030   20.3930  -32.0190 C   0  0  0  0  0  0  0  0  0  0  0  0
   -8.4580   21.7540  -31.7050 C   0  0  0  0  0  0  0  0  0  0  0  0
   -7.3130   22.4940  -31.4250 C   0  0  0  0  0  0  0  0  0  0  0  0
   -7.1740   23.8250  -31.1110 C   0  0  0  0  0  0  0  0  0  0  0  0
   -5.8060   24.0230  -30.9340 C   0  0  0  0  0  0  0  0  0  0  0  0
   -5.2220   25.3060  -30.4930 C   0  0  0  0  0  0  0  0  0  0  0  0
   -3.8900   25.6670  -30.8460 N   0  0  0  0  0  0  0  0  0  0  0  0
   -5.8920   26.0740  -29.7500 O   0  0  0  0  0  0  0  0  0  0  0  0
   -5.1230   22.8610  -31.1400 N   0  0  0  0  0  0  0  0  0  0  0  0
   -3.7000   22.6660  -31.1400 C   0  0  0  0  0  0  0  0  0  0  0  0
   -3.1380   22.0790  -32.1010 O   0  0  0  0  0  0  0  0  0  0  0  0
   -2.9260   23.1490  -30.0920 O   0  0  0  0  0  0  0  0  0  0  0  0
   -6.0610   21.9330  -31.4390 C   0  0  0  0  0  0  0  0  0  0  0  0
   -5.8760   20.5860  -31.7690 C   0  0  0  0  0  0  0  0  0  0  0  0
   -6.0510   16.6980  -34.0900 C   0  0  0  0  0  0  0  0  0  0  0  0
   -6.8610   15.7880  -34.2030 O   0  0  0  0  0  0  0  0  0  0  0  0
   -4.3208   15.8910  -32.2833 H   0  0  0  0  0  0  0  0  0  0  0  0
   -4.6180   14.5542  -33.4459 H   0  0  0  0  0  0  0  0  0  0  0  0
   -3.0386   15.4100  -33.4459 H   0  0  0  0  0  0  0  0  0  0  0  0
   -4.4790   16.1460  -35.2530 H   0  0  0  0  0  0  0  0  0  0  0  0
   -3.5679   17.9026  -33.1212 H   0  0  0  0  0  0  0  0  0  0  0  0
   -3.2940   18.0209  -34.8797 H   0  0  0  0  0  0  0  0  0  0  0  0
   -5.0162   19.6864  -33.4956 H   0  0  0  0  0  0  0  0  0  0  0  0
   -5.2437   19.3063  -35.2086 H   0  0  0  0  0  0  0  0  0  0  0  0
   -7.3447   18.4203  -34.4238 H   0  0  0  0  0  0  0  0  0  0  0  0
   -7.8264   17.8350  -32.1885 H   0  0  0  0  0  0  0  0  0  0  0  0
   -6.0722   17.9306  -31.7355 H   0  0  0  0  0  0  0  0  0  0  0  0
   -9.1901   19.7793  -32.2343 H   0  0  0  0  0  0  0  0  0  0  0  0
   -9.4540   22.2203  -31.6812 H   0  0  0  0  0  0  0  0  0  0  0  0
   -7.9734   24.5750  -31.0189 H   0  0  0  0  0  0  0  0  0  0  0  0
   -3.0730   25.2970  -30.3120 H   0  0  0  0  0  0  0  0  0  0  0  0
   -4.8680   20.1467  -31.8003 H   0  0  0  0  0  0  0  0  0  0  0  0
  1  2  1  0
  2  3  1  0
  3  4  1  0
  4  5  1  0
  5  6  1  0
  6  7  1  0
  7  8  2  0
  8  9  1  0
  9 10  2  0
 10 11  1  0
 11 12  2  0
 12 13  1  0
 13 14  1  0
 13 15  2  0
 12 16  1  0
 16 17  1  0
 17 18  2  0
 17 19  1  0
 16 20  1  0
 20 21  2  0
  5 22  1  0
 22 23  2  0
 22  2  1  0
 21  7  1  0
 20 10  1  0
  1 24  1  0
  1 25  1  0
  1 26  1  0
  2 27  1  6
  3 28  1  0
  3 29  1  0
  4 30  1  0
  4 31  1  0
  5 32  1  6
  6 33  1  0
  6 34  1  0
  8 35  1  0
  9 36  1  0
 11 37  1  0
 14 38  1  0
 21 39  1  0
M  CHG  3   2   1  14  -1  19  -1
M  END
>  <UniqueID>  (63) 
63

>  <SMILES>  (63) 
C[N@@H+]1CC[C@H](Cc2ccc3cc(C([NH-])=O)n(C(=O)[O-])c3c2)C1=O

>  <Energy>  (63) 
80.56470199713229

>  <Genealogy>  (63) 
C[NH+]1CC[C@H](Cc2ccc3cc(C([NH-])=O)n(C(=O)[O-])c3c2)C1=O (protonated)
C[N@@H+]1CC[C@H](Cc2ccc3cc(C([NH-])=O)n(C(=O)[O-])c3c2)C1=O (chirality)
C[N@@H+]1CC[C@H](Cc2ccc3cc(C([NH-])=O)n(C(=O)[O-])c3c2)C1=O (3D coordinates assigned)
C[N@@H+]1CC[C@H](Cc2ccc3cc(C([NH-])=O)n(C(=O)[O-])c3c2)C1=O (nonaromatic ring conformer: 80.56470199713229 kcal/mol)

>  <smiles>  (63) 
CN1CC[C@H](Cc2ccc3cc(C(N)=O)n(C(=O)O)c3c2)C1=O

>  <score_type>  (63) 
oracle

>  <origin>  (63) 
adg

>  <m_score__min__energy>  (63) 
-10.74

>  <m_primary>  (63) 
energy

$$$$
63:0
     RDKit          3D

 45 47  0  0  0  0  0  0  0  0999 V2000
   -7.9290   23.0630  -31.8620 C   0  0  0  0  0  0  0  0  0  0  0  0
   -8.1130   21.6450  -32.1550 N   0  0  0  0  0  0  0  0  0  0  0  0
   -9.2780   21.1340  -32.5200 N   0  0  0  0  0  0  0  0  0  0  0  0
   -9.1140   19.8060  -32.6810 C   0  0  0  0  0  0  0  0  0  0  0  0
   -7.8050   19.4640  -32.4100 C   0  0  0  0  0  0  0  0  0  0  0  0
   -7.1890   20.6580  -32.0930 C   0  0  0  0  0  0  0  0  0  0  0  0
   -5.7620   20.8120  -31.7320 C   0  0  0  0  0  0  0  0  0  0  0  0
   -4.8160   19.8550  -32.1790 C   0  0  0  0  0  0  0  0  0  0  0  0
   -3.4510   19.9980  -31.8780 C   0  0  0  0  0  0  0  0  0  0  0  0
   -3.0600   21.1090  -31.1370 C   0  0  0  0  0  0  0  0  0  0  0  0
   -1.8050   21.5220  -30.7460 C   0  0  0  0  0  0  0  0  0  0  0  0
   -2.0060   22.7280  -30.0780 C   0  0  0  0  0  0  0  0  0  0  0  0
   -0.9230   23.5200  -29.4580 C   0  0  0  0  0  0  0  0  0  0  0  0
   -1.0600   24.9340  -29.3320 N   0  0  0  0  0  0  0  0  0  0  0  0
    0.1310   22.9620  -29.0530 O   0  0  0  0  0  0  0  0  0  0  0  0
   -3.3290   23.0450  -30.0570 N   0  0  0  0  0  0  0  0  0  0  0  0
   -3.9420   24.2410  -29.5590 C   0  0  0  0  0  0  0  0  0  0  0  0
   -3.8920   25.3000  -30.2410 O   0  0  0  0  0  0  0  0  0  0  0  0
   -4.5430   24.2680  -28.1840 C   0  0  0  0  0  0  0  0  0  0  0  0
   -3.4720   24.0280  -27.1000 C   0  0  0  0  0  0  0  0  0  0  0  0
   -3.1220   25.2940  -26.3040 C   0  0  0  0  0  0  0  0  0  0  0  0
   -1.3950   25.7430  -26.4610 S   0  0  0  0  0  0  0  0  0  0  0  0
   -0.4440   24.3620  -26.8850 N   0  0  0  0  0  0  0  0  0  0  0  0
   -1.2350   26.8010  -27.5160 O   0  0  0  0  0  0  0  0  0  0  0  0
   -0.9130   26.2850  -25.1450 O   0  0  0  0  0  0  0  0  0  0  0  0
   -3.9610   22.0440  -30.7050 C   0  0  0  0  0  0  0  0  0  0  0  0
   -5.3230   21.9330  -30.9930 C   0  0  0  0  0  0  0  0  0  0  0  0
   -7.9096   23.2128  -30.7724 H   0  0  0  0  0  0  0  0  0  0  0  0
   -6.9787   23.4069  -32.2964 H   0  0  0  0  0  0  0  0  0  0  0  0
   -8.7601   23.6380  -32.2964 H   0  0  0  0  0  0  0  0  0  0  0  0
   -9.9035   19.1019  -32.9825 H   0  0  0  0  0  0  0  0  0  0  0  0
   -7.3525   18.4618  -32.4399 H   0  0  0  0  0  0  0  0  0  0  0  0
   -5.1548   18.9903  -32.7685 H   0  0  0  0  0  0  0  0  0  0  0  0
   -2.7145   19.2549  -32.2175 H   0  0  0  0  0  0  0  0  0  0  0  0
   -0.8483   21.0089  -30.9234 H   0  0  0  0  0  0  0  0  0  0  0  0
   -1.8480   25.4380  -29.7930 H   0  0  0  0  0  0  0  0  0  0  0  0
   -5.0094   25.2500  -28.0159 H   0  0  0  0  0  0  0  0  0  0  0  0
   -5.2919   23.4651  -28.1163 H   0  0  0  0  0  0  0  0  0  0  0  0
   -3.8478   23.2675  -26.3997 H   0  0  0  0  0  0  0  0  0  0  0  0
   -2.5556   23.7008  -27.6129 H   0  0  0  0  0  0  0  0  0  0  0  0
   -3.7386   26.1262  -26.6746 H   0  0  0  0  0  0  0  0  0  0  0  0
   -3.3200   25.0880  -25.2418 H   0  0  0  0  0  0  0  0  0  0  0  0
   -1.0830   23.6780  -27.3480 H   0  0  0  0  0  0  0  0  0  0  0  0
    0.2450   24.6730  -27.6060 H   0  0  0  0  0  0  0  0  0  0  0  0
   -6.0357   22.6989  -30.6531 H   0  0  0  0  0  0  0  0  0  0  0  0
  1  2  1  0
  2  3  1  0
  3  4  2  0
  4  5  1  0
  5  6  2  0
  6  7  1  0
  7  8  2  0
  8  9  1  0
  9 10  2  0
 10 11  1  0
 11 12  2  0
 12 13  1  0
 13 14  1  0
 13 15  2  0
 12 16  1  0
 16 17  1  0
 17 18  2  0
 17 19  1  0
 19 20  1  0
 20 21  1  0
 21 22  1  0
 22 23  1  0
 22 24  2  0
 22 25  2  0
 16 26  1  0
 26 27  2  0
  6  2  1  0
 27  7  1  0
 26 10  1  0
  1 28  1  0
  1 29  1  0
  1 30  1  0
  4 31  1  0
  5 32  1  0
  8 33  1  0
  9 34  1  0
 11 35  1  0
 14 36  1  0
 19 37  1  0
 19 38  1  0
 20 39  1  0
 20 40  1  0
 21 41  1  0
 21 42  1  0
 23 43  1  0
 23 44  1  0
 27 45  1  0
M  CHG  1  14  -1
M  END
>  <UniqueID>  (64) 
64

>  <SMILES>  (64) 
Cn1nccc1-c1ccc2cc(C([NH-])=O)n(C(=O)CCCS(N)(=O)=O)c2c1

>  <Energy>  (64) 
110.95187633881294

>  <Genealogy>  (64) 
Cn1nccc1-c1ccc2cc(C([NH-])=O)n(C(=O)CCCS(N)(=O)=O)c2c1 (protonated)
Cn1nccc1-c1ccc2cc(C([NH-])=O)n(C(=O)CCCS(N)(=O)=O)c2c1 (3D coordinates assigned)
Cn1nccc1-c1ccc2cc(C([NH-])=O)n(C(=O)CCCS(N)(=O)=O)c2c1 (optimized conformer: 110.95187633881294 kcal/mol)

>  <smiles>  (64) 
Cn1nccc1-c1ccc2cc(C(N)=O)n(C(=O)CCCS(N)(=O)=O)c2c1

>  <score_type>  (64) 
oracle

>  <origin>  (64) 
adg

>  <m_score__min__energy>  (64) 
-11.27

>  <m_primary>  (64) 
energy

$$$$
64:0
     RDKit          3D

 52 54  0  0  0  0  0  0  0  0999 V2000
   -2.3630   17.1690  -33.9190 C   0  0  0  0  0  0  0  0  0  0  0  0
   -3.1550   17.8150  -34.9100 O   0  0  0  0  0  0  0  0  0  0  0  0
   -4.5530   17.8100  -34.8790 C   0  0  0  0  0  0  0  0  0  0  0  0
   -5.2130   17.8060  -35.9550 O   0  0  0  0  0  0  0  0  0  0  0  0
   -5.2450   17.8380  -33.5420 C   0  0  2  0  0  0  0  0  0  0  0  0
   -6.1790   16.6510  -33.2690 C   0  0  0  0  0  0  0  0  0  0  0  0
   -7.2600   17.2050  -32.3480 C   0  0  0  0  0  0  0  0  0  0  0  0
   -7.2150   18.6490  -32.5130 N   0  0  0  0  0  0  0  0  0  0  0  0
   -8.2000   19.5250  -31.9300 C   0  0  0  0  0  0  0  0  0  0  0  0
   -8.8110   19.1640  -30.8880 O   0  0  0  0  0  0  0  0  0  0  0  0
   -8.4810   20.8930  -32.4890 C   0  0  0  0  0  0  0  0  0  0  0  0
   -7.5610   21.9140  -31.8730 C   0  0  0  0  0  0  0  0  0  0  0  0
   -8.0380   23.2110  -31.5490 C   0  0  0  0  0  0  0  0  0  0  0  0
   -7.1860   24.1640  -30.9640 C   0  0  0  0  0  0  0  0  0  0  0  0
   -5.8640   23.7980  -30.7240 C   0  0  0  0  0  0  0  0  0  0  0  0
   -4.8370   24.5010  -30.1310 C   0  0  0  0  0  0  0  0  0  0  0  0
   -3.7520   23.6250  -30.1090 C   0  0  0  0  0  0  0  0  0  0  0  0
   -2.4440   23.9520  -29.5040 C   0  0  0  0  0  0  0  0  0  0  0  0
   -2.0620   25.3030  -29.2650 N   0  0  0  0  0  0  0  0  0  0  0  0
   -1.6390   23.0250  -29.2160 O   0  0  0  0  0  0  0  0  0  0  0  0
   -4.0910   22.4390  -30.6860 N   0  0  0  0  0  0  0  0  0  0  0  0
   -3.2590   21.2890  -30.8830 C   0  0  0  0  0  0  0  0  0  0  0  0
   -3.1850   20.4100  -29.9860 O   0  0  0  0  0  0  0  0  0  0  0  0
   -2.4920   21.1520  -32.0840 N   0  0  0  0  0  0  0  0  0  0  0  0
   -3.1090   20.5720  -33.2780 C   0  0  0  0  0  0  0  0  0  0  0  0
   -1.0980   21.5930  -32.0850 C   0  0  0  0  0  0  0  0  0  0  0  0
   -5.3870   22.5540  -31.0420 C   0  0  0  0  0  0  0  0  0  0  0  0
   -6.2130   21.5820  -31.6060 C   0  0  0  0  0  0  0  0  0  0  0  0
   -6.1190   19.0770  -33.3700 C   0  0  0  0  0  0  0  0  0  0  0  0
   -2.7185   17.4589  -32.9192 H   0  0  0  0  0  0  0  0  0  0  0  0
   -2.4470   16.0785  -34.0360 H   0  0  0  0  0  0  0  0  0  0  0  0
   -1.3116   17.4704  -34.0360 H   0  0  0  0  0  0  0  0  0  0  0  0
   -4.3978   17.8145  -32.8408 H   0  0  0  0  0  0  0  0  0  0  0  0
   -6.6210   16.2829  -34.2066 H   0  0  0  0  0  0  0  0  0  0  0  0
   -5.6466   15.8009  -32.8175 H   0  0  0  0  0  0  0  0  0  0  0  0
   -8.2473   16.8163  -32.6382 H   0  0  0  0  0  0  0  0  0  0  0  0
   -7.0921   16.9104  -31.3016 H   0  0  0  0  0  0  0  0  0  0  0  0
   -8.3272   20.8776  -33.5781 H   0  0  0  0  0  0  0  0  0  0  0  0
   -9.5211   21.1654  -32.2566 H   0  0  0  0  0  0  0  0  0  0  0  0
   -9.0856   23.4733  -31.7579 H   0  0  0  0  0  0  0  0  0  0  0  0
   -7.5524   25.1680  -30.7038 H   0  0  0  0  0  0  0  0  0  0  0  0
   -4.8670   25.5342  -29.7548 H   0  0  0  0  0  0  0  0  0  0  0  0
   -2.7650   26.0160  -28.9660 H   0  0  0  0  0  0  0  0  0  0  0  0
   -3.8799   19.8473  -32.9771 H   0  0  0  0  0  0  0  0  0  0  0  0
   -3.5705   21.3708  -33.8771 H   0  0  0  0  0  0  0  0  0  0  0  0
   -2.3402   20.0620  -33.8771 H   0  0  0  0  0  0  0  0  0  0  0  0
   -0.7477   21.7038  -31.0482 H   0  0  0  0  0  0  0  0  0  0  0  0
   -0.4778   20.8472  -32.6038 H   0  0  0  0  0  0  0  0  0  0  0  0
   -1.0196   22.5598  -32.6038 H   0  0  0  0  0  0  0  0  0  0  0  0
   -5.8243   20.5794  -31.8379 H   0  0  0  0  0  0  0  0  0  0  0  0
   -6.5003   19.4193  -34.3434 H   0  0  0  0  0  0  0  0  0  0  0  0
   -5.5604   19.9197  -32.9365 H   0  0  0  0  0  0  0  0  0  0  0  0
  1  2  1  0
  2  3  1  0
  3  4  2  0
  3  5  1  0
  5  6  1  0
  6  7  1  0
  7  8  1  0
  8  9  1  0
  9 10  2  0
  9 11  1  0
 11 12  1  0
 12 13  2  0
 13 14  1  0
 14 15  2  0
 15 16  1  0
 16 17  2  0
 17 18  1  0
 18 19  1  0
 18 20  2  0
 17 21  1  0
 21 22  1  0
 22 23  2  0
 22 24  1  0
 24 25  1  0
 24 26  1  0
 21 27  1  0
 27 28  2  0
  8 29  1  0
 29  5  1  0
 28 12  1  0
 27 15  1  0
  1 30  1  0
  1 31  1  0
  1 32  1  0
  5 33  1  1
  6 34  1  0
  6 35  1  0
  7 36  1  0
  7 37  1  0
 11 38  1  0
 11 39  1  0
 13 40  1  0
 14 41  1  0
 16 42  1  0
 19 43  1  0
 25 44  1  0
 25 45  1  0
 25 46  1  0
 26 47  1  0
 26 48  1  0
 26 49  1  0
 28 50  1  0
 29 51  1  0
 29 52  1  0
M  CHG  1  19  -1
M  END
>  <UniqueID>  (65) 
65

>  <SMILES>  (65) 
COC(=O)[C@@H]1CCN(C(=O)Cc2ccc3cc(C([NH-])=O)n(C(=O)N(C)C)c3c2)C1

>  <Energy>  (65) 
94.88894666357052

>  <Genealogy>  (65) 
COC(=O)C1CCN(C(=O)Cc2ccc3cc(C([NH-])=O)n(C(=O)N(C)C)c3c2)C1 (protonated)
COC(=O)[C@@H]1CCN(C(=O)Cc2ccc3cc(C([NH-])=O)n(C(=O)N(C)C)c3c2)C1 (chirality)
COC(=O)[C@@H]1CCN(C(=O)Cc2ccc3cc(C([NH-])=O)n(C(=O)N(C)C)c3c2)C1 (3D coordinates assigned)
COC(=O)[C@@H]1CCN(C(=O)Cc2ccc3cc(C([NH-])=O)n(C(=O)N(C)C)c3c2)C1 (nonaromatic ring conformer: 94.88894666357052 kcal/mol)

>  <smiles>  (65) 
COC(=O)C1CCN(C(=O)Cc2ccc3cc(C(N)=O)n(C(=O)N(C)C)c3c2)C1

>  <score_type>  (65) 
oracle

>  <origin>  (65) 
adg

>  <m_score__min__energy>  (65) 
-10.85

>  <m_primary>  (65) 
energy

$$$$
65:0
     RDKit          3D

 57 58  0  0  0  0  0  0  0  0999 V2000
   -1.1970   19.4360  -27.0990 C   0  0  0  0  0  0  0  0  0  0  0  0
   -2.7030   19.6650  -27.2110 C   0  0  0  0  0  0  0  0  0  0  0  0
   -3.4420   18.9150  -26.0990 C   0  0  0  0  0  0  0  0  0  0  0  0
   -2.9630   21.0650  -27.1210 O   0  0  0  0  0  0  0  0  0  0  0  0
   -3.3610   21.8520  -28.2110 C   0  0  0  0  0  0  0  0  0  0  0  0
   -4.2870   22.7000  -28.0870 O   0  0  0  0  0  0  0  0  0  0  0  0
   -2.6780   21.6960  -29.5320 C   0  0  2  0  0  0  0  0  0  0  0  0
   -2.1150   22.9530  -29.9050 O   0  0  0  0  0  0  0  0  0  0  0  0
   -1.9310   24.0140  -29.0130 C   0  0  0  0  0  0  0  0  0  0  0  0
   -2.4280   25.1490  -29.2510 O   0  0  0  0  0  0  0  0  0  0  0  0
   -1.1190   23.7930  -27.7690 C   0  0  0  0  0  0  0  0  0  0  0  0
   -1.6270   24.6880  -26.6330 C   0  0  0  0  0  0  0  0  0  0  0  0
    0.3660   24.0420  -28.0430 C   0  0  0  0  0  0  0  0  0  0  0  0
   -3.6360   21.3030  -30.5150 O   0  0  0  0  0  0  0  0  0  0  0  0
   -4.3660   22.2070  -31.2910 C   0  0  0  0  0  0  0  0  0  0  0  0
   -3.7710   23.0470  -32.0200 O   0  0  0  0  0  0  0  0  0  0  0  0
   -5.8010   22.1870  -31.2440 N   0  0  0  0  0  0  0  0  0  0  0  0
   -6.6310   23.0930  -30.6530 C   0  0  0  0  0  0  0  0  0  0  0  0
   -6.2160   24.3920  -30.0800 C   0  0  0  0  0  0  0  0  0  0  0  0
   -4.8560   24.6240  -29.7090 N   0  0  0  0  0  0  0  0  0  0  0  0
   -7.0680   25.2990  -29.8860 O   0  0  0  0  0  0  0  0  0  0  0  0
   -7.9560   22.6660  -30.7360 C   0  0  0  0  0  0  0  0  0  0  0  0
   -7.9110   21.4610  -31.4000 C   0  0  0  0  0  0  0  0  0  0  0  0
   -8.9390   20.5850  -31.7350 C   0  0  0  0  0  0  0  0  0  0  0  0
   -8.5990   19.3890  -32.3890 C   0  0  0  0  0  0  0  0  0  0  0  0
   -7.2480   19.0950  -32.6970 C   0  0  0  0  0  0  0  0  0  0  0  0
   -6.8900   17.7940  -33.3660 C   0  0  0  0  0  0  0  0  0  0  0  0
   -5.7270   17.9850  -34.3380 C   0  0  0  0  0  0  0  0  0  0  0  0
   -6.0830   18.9260  -35.3120 O   0  0  0  0  0  0  0  0  0  0  0  0
   -6.2300   20.0010  -32.3290 C   0  0  0  0  0  0  0  0  0  0  0  0
   -6.5990   21.1940  -31.6950 C   0  0  0  0  0  0  0  0  0  0  0  0
   -0.9107   19.3925  -26.0378 H   0  0  0  0  0  0  0  0  0  0  0  0
   -0.9329   18.4874  -27.5893 H   0  0  0  0  0  0  0  0  0  0  0  0
   -0.6629   20.2633  -27.5893 H   0  0  0  0  0  0  0  0  0  0  0  0
   -3.0629   19.2823  -28.1775 H   0  0  0  0  0  0  0  0  0  0  0  0
   -3.0904   19.2718  -25.1197 H   0  0  0  0  0  0  0  0  0  0  0  0
   -4.5230   19.0976  -26.1893 H   0  0  0  0  0  0  0  0  0  0  0  0
   -3.2435   17.8368  -26.1893 H   0  0  0  0  0  0  0  0  0  0  0  0
   -1.8894   20.9324  -29.4605 H   0  0  0  0  0  0  0  0  0  0  0  0
   -1.2342   22.7446  -27.4567 H   0  0  0  0  0  0  0  0  0  0  0  0
   -1.3691   24.2337  -25.6650 H   0  0  0  0  0  0  0  0  0  0  0  0
   -1.1571   25.6797  -26.7094 H   0  0  0  0  0  0  0  0  0  0  0  0
   -2.7193   24.7930  -26.7094 H   0  0  0  0  0  0  0  0  0  0  0  0
    0.9049   24.1324  -27.0883 H   0  0  0  0  0  0  0  0  0  0  0  0
    0.7787   23.2005  -28.6188 H   0  0  0  0  0  0  0  0  0  0  0  0
    0.4817   24.9721  -28.6188 H   0  0  0  0  0  0  0  0  0  0  0  0
   -4.1090   23.9240  -29.9160 H   0  0  0  0  0  0  0  0  0  0  0  0
   -4.5820   25.5290  -29.2660 H   0  0  0  0  0  0  0  0  0  0  0  0
   -8.8481   23.1826  -30.3522 H   0  0  0  0  0  0  0  0  0  0  0  0
   -9.9861   20.8218  -31.4950 H   0  0  0  0  0  0  0  0  0  0  0  0
   -9.3888   18.6746  -32.6643 H   0  0  0  0  0  0  0  0  0  0  0  0
   -6.6014   17.0612  -32.5981 H   0  0  0  0  0  0  0  0  0  0  0  0
   -7.7643   17.4351  -33.9289 H   0  0  0  0  0  0  0  0  0  0  0  0
   -4.8442   18.3427  -33.7878 H   0  0  0  0  0  0  0  0  0  0  0  0
   -5.4928   17.0258  -34.8229 H   0  0  0  0  0  0  0  0  0  0  0  0
   -6.9830   19.2570  -35.0590 H   0  0  0  0  0  0  0  0  0  0  0  0
   -5.1732   19.7756  -32.5351 H   0  0  0  0  0  0  0  0  0  0  0  0
  1  2  1  0
  2  3  1  0
  2  4  1  0
  4  5  1  0
  5  6  2  0
  5  7  1  0
  7  8  1  0
  8  9  1  0
  9 10  2  0
  9 11  1  0
 11 12  1  0
 11 13  1  0
  7 14  1  0
 14 15  1  0
 15 16  2  0
 15 17  1  0
 17 18  1  0
 18 19  1  0
 19 20  1  0
 19 21  2  0
 18 22  2  0
 22 23  1  0
 23 24  2  0
 24 25  1  0
 25 26  2  0
 26 27  1  0
 27 28  1  0
 28 29  1  0
 26 30  1  0
 30 31  2  0
 31 17  1  0
 31 23  1  0
  1 32  1  0
  1 33  1  0
  1 34  1  0
  2 35  1  0
  3 36  1  0
  3 37  1  0
  3 38  1  0
  7 39  1  1
 11 40  1  0
 12 41  1  0
 12 42  1  0
 12 43  1  0
 13 44  1  0
 13 45  1  0
 13 46  1  0
 20 47  1  0
 20 48  1  0
 22 49  1  0
 24 50  1  0
 25 51  1  0
 27 52  1  0
 27 53  1  0
 28 54  1  0
 28 55  1  0
 29 56  1  0
 30 57  1  0
M  END
>  <UniqueID>  (66) 
66

>  <SMILES>  (66) 
CC(C)OC(=O)[C@H](OC(=O)C(C)C)OC(=O)n1c(C(N)=O)cc2ccc(CCO)cc21

>  <Energy>  (66) 
76.56402629376227

>  <Genealogy>  (66) 
CC(C)OC(=O)[C@H](OC(=O)C(C)C)OC(=O)n1c(C(N)=O)cc2ccc(CCO)cc21 (chirality)
CC(C)OC(=O)[C@H](OC(=O)C(C)C)OC(=O)n1c(C(N)=O)cc2ccc(CCO)cc21 (3D coordinates assigned)
CC(C)OC(=O)[C@H](OC(=O)C(C)C)OC(=O)n1c(C(N)=O)cc2ccc(CCO)cc21 (optimized conformer: 76.56402629376227 kcal/mol)

>  <smiles>  (66) 
CC(C)OC(=O)C(OC(=O)C(C)C)OC(=O)n1c(C(N)=O)cc2ccc(CCO)cc21

>  <score_type>  (66) 
oracle

>  <origin>  (66) 
adg

>  <m_score__min__energy>  (66) 
-10.01

>  <m_primary>  (66) 
energy

$$$$
66:0
     RDKit          3D

 46 48  0  0  0  0  0  0  0  0999 V2000
   -2.4800   20.0050  -33.6570 C   0  0  0  0  0  0  0  0  0  0  0  0
   -2.2720   20.9240  -32.7140 C   0  0  0  0  0  0  0  0  0  0  0  0
   -2.9550   22.1490  -32.6710 O   0  0  0  0  0  0  0  0  0  0  0  0
   -3.5340   22.7180  -31.5280 C   0  0  0  0  0  0  0  0  0  0  0  0
   -2.8140   23.1240  -30.5760 O   0  0  0  0  0  0  0  0  0  0  0  0
   -4.9640   22.8100  -31.4330 N   0  0  0  0  0  0  0  0  0  0  0  0
   -5.7130   23.8790  -31.0400 C   0  0  0  0  0  0  0  0  0  0  0  0
   -5.1970   25.1380  -30.4630 C   0  0  0  0  0  0  0  0  0  0  0  0
   -3.9250   25.6540  -30.8470 N   0  0  0  0  0  0  0  0  0  0  0  0
   -5.8680   25.7430  -29.5850 O   0  0  0  0  0  0  0  0  0  0  0  0
   -7.0710   23.5990  -31.1770 C   0  0  0  0  0  0  0  0  0  0  0  0
   -7.1310   22.3130  -31.6630 C   0  0  0  0  0  0  0  0  0  0  0  0
   -8.2330   21.5330  -31.9930 C   0  0  0  0  0  0  0  0  0  0  0  0
   -8.0000   20.2450  -32.5030 C   0  0  0  0  0  0  0  0  0  0  0  0
   -6.6770   19.7560  -32.6830 C   0  0  0  0  0  0  0  0  0  0  0  0
   -6.4480   18.4330  -33.2200 N   0  0  0  0  0  0  0  0  0  0  0  0
   -7.2320   17.2610  -32.8580 C   0  0  0  0  0  0  0  0  0  0  0  0
   -6.5280   16.0760  -33.5030 C   0  0  0  0  0  0  0  0  0  0  0  0
   -5.6770   16.6770  -34.6250 C   0  0  2  0  0  0  0  0  0  0  0  0
   -4.4310   15.9330  -34.8390 N   0  0  0  0  0  0  0  0  0  0  0  0
   -3.4180   15.8410  -33.8320 C   0  0  0  0  0  0  0  0  0  0  0  0
   -3.5780   16.4030  -32.7130 O   0  0  0  0  0  0  0  0  0  0  0  0
   -2.2500   15.1230  -34.1020 O   0  0  0  0  0  0  0  0  0  0  0  0
   -1.7890   14.0680  -33.2660 C   0  0  0  0  0  0  0  0  0  0  0  0
   -5.4080   18.1160  -34.1880 C   0  0  0  0  0  0  0  0  0  0  0  0
   -5.5840   20.5890  -32.3320 C   0  0  0  0  0  0  0  0  0  0  0  0
   -5.8480   21.8600  -31.8080 C   0  0  0  0  0  0  0  0  0  0  0  0
   -1.9144   19.0617  -33.6400 H   0  0  0  0  0  0  0  0  0  0  0  0
   -3.2172   20.1900  -34.4522 H   0  0  0  0  0  0  0  0  0  0  0  0
   -1.5287   20.7117  -31.9314 H   0  0  0  0  0  0  0  0  0  0  0  0
   -3.0440   25.2650  -30.4440 H   0  0  0  0  0  0  0  0  0  0  0  0
   -7.9157   24.2646  -30.9458 H   0  0  0  0  0  0  0  0  0  0  0  0
   -9.2566   21.9127  -31.8589 H   0  0  0  0  0  0  0  0  0  0  0  0
   -8.8545   19.6046  -32.7673 H   0  0  0  0  0  0  0  0  0  0  0  0
   -7.2598   17.1414  -31.7649 H   0  0  0  0  0  0  0  0  0  0  0  0
   -8.2735   17.3489  -33.2009 H   0  0  0  0  0  0  0  0  0  0  0  0
   -5.8908   15.5600  -32.7697 H   0  0  0  0  0  0  0  0  0  0  0  0
   -7.2421   15.3304  -33.8828 H   0  0  0  0  0  0  0  0  0  0  0  0
   -6.1977   16.6302  -35.5928 H   0  0  0  0  0  0  0  0  0  0  0  0
   -4.2350   15.4920  -35.7650 H   0  0  0  0  0  0  0  0  0  0  0  0
   -1.9142   14.3545  -32.2114 H   0  0  0  0  0  0  0  0  0  0  0  0
   -2.3712   13.1573  -33.4702 H   0  0  0  0  0  0  0  0  0  0  0  0
   -0.7252   13.8766  -33.4702 H   0  0  0  0  0  0  0  0  0  0  0  0
   -4.4140   18.1967  -33.7237 H   0  0  0  0  0  0  0  0  0  0  0  0
   -5.4220   18.8096  -35.0417 H   0  0  0  0  0  0  0  0  0  0  0  0
   -4.5488   20.2430  -32.4689 H   0  0  0  0  0  0  0  0  0  0  0  0
  1  2  2  0
  2  3  1  0
  3  4  1  0
  4  5  2  0
  4  6  1  0
  6  7  1  0
  7  8  1  0
  8  9  1  0
  8 10  2  0
  7 11  2  0
 11 12  1  0
 12 13  2  0
 13 14  1  0
 14 15  2  0
 15 16  1  0
 16 17  1  0
 17 18  1  0
 18 19  1  0
 19 20  1  0
 20 21  1  0
 21 22  2  0
 21 23  1  0
 23 24  1  0
 19 25  1  0
 15 26  1  0
 26 27  2  0
 27  6  1  0
 27 12  1  0
 25 16  1  0
  1 28  1  0
  1 29  1  0
  2 30  1  0
  9 31  1  0
 11 32  1  0
 13 33  1  0
 14 34  1  0
 17 35  1  0
 17 36  1  0
 18 37  1  0
 18 38  1  0
 19 39  1  6
 20 40  1  0
 24 41  1  0
 24 42  1  0
 24 43  1  0
 25 44  1  0
 25 45  1  0
 26 46  1  0
M  CHG  1   9  -1
M  END
>  <UniqueID>  (67) 
67

>  <SMILES>  (67) 
C=COC(=O)n1c(C([NH-])=O)cc2ccc(N3CC[C@H](NC(=O)OC)C3)cc21

>  <Energy>  (67) 
87.90818789120956

>  <Genealogy>  (67) 
C=COC(=O)n1c(C([NH-])=O)cc2ccc(N3CC[C@H](NC(=O)OC)C3)cc21 (protonated)
C=COC(=O)n1c(C([NH-])=O)cc2ccc(N3CC[C@H](NC(=O)OC)C3)cc21 (3D coordinates assigned)
C=COC(=O)n1c(C([NH-])=O)cc2ccc(N3CC[C@H](NC(=O)OC)C3)cc21 (nonaromatic ring conformer: 87.90818789120956 kcal/mol)

>  <smiles>  (67) 
C=COC(=O)n1c(C(N)=O)cc2ccc(N3CC[C@H](NC(=O)OC)C3)cc21

>  <score_type>  (67) 
oracle

>  <origin>  (67) 
adg

>  <m_score__min__energy>  (67) 
-9.9000000000000004

>  <m_primary>  (67) 
energy

$$$$
67:0
     RDKit          3D

 48 50  0  0  0  0  0  0  0  0999 V2000
    0.4910   22.5020  -35.7360 C   0  0  0  0  0  0  0  0  0  0  0  0
    1.6220   21.5150  -34.6260 Si  0  0  0  0  0  2  0  0  0  0  0  0
    0.6660   20.7470  -33.3840 O   0  0  0  0  0  0  0  0  0  0  0  0
    0.9210   19.3560  -33.1640 C   0  0  0  0  0  0  0  0  0  0  0  0
    0.7990   18.5890  -34.5200 C   0  0  0  0  0  0  0  0  0  0  0  0
    2.3530   19.1760  -32.5710 C   0  0  0  0  0  0  0  0  0  0  0  0
   -0.1870   18.8730  -32.1120 C   0  0  2  0  0  0  0  0  0  0  0  0
   -0.7200   17.4710  -32.5290 C   0  0  0  0  0  0  0  0  0  0  0  0
   -1.3480   19.9070  -32.1290 C   0  0  0  0  0  0  0  0  0  0  0  0
   -2.4300   19.7670  -33.0520 C   0  0  0  0  0  0  0  0  0  0  0  0
   -3.5090   20.6660  -33.0590 C   0  0  0  0  0  0  0  0  0  0  0  0
   -3.5150   21.6850  -32.1180 C   0  0  0  0  0  0  0  0  0  0  0  0
   -4.4420   22.6800  -31.8850 C   0  0  0  0  0  0  0  0  0  0  0  0
   -3.9490   23.3930  -30.7950 C   0  0  0  0  0  0  0  0  0  0  0  0
   -4.6380   24.5450  -30.1750 C   0  0  0  0  0  0  0  0  0  0  0  0
   -4.2490   25.8740  -30.5160 N   0  0  0  0  0  0  0  0  0  0  0  0
   -5.5730   24.3660  -29.3530 O   0  0  0  0  0  0  0  0  0  0  0  0
   -2.7700   22.8600  -30.3770 N   0  0  0  0  0  0  0  0  0  0  0  0
   -1.9570   23.2880  -29.2810 C   0  0  0  0  0  0  0  0  0  0  0  0
   -1.4140   22.4380  -28.5300 O   0  0  0  0  0  0  0  0  0  0  0  0
   -1.6780   25.0430  -28.9970 S   0  0  0  0  0  0  0  0  0  0  0  0
   -2.5160   21.8210  -31.1950 C   0  0  0  0  0  0  0  0  0  0  0  0
   -1.4240   20.9520  -31.1650 C   0  0  0  0  0  0  0  0  0  0  0  0
    0.2820   18.6930  -30.6520 C   0  0  0  0  0  0  0  0  0  0  0  0
    0.3020   17.4630  -29.9800 C   0  0  0  0  0  0  0  0  0  0  0  0
    0.8470   17.5150  -28.6920 C   0  0  0  0  0  0  0  0  0  0  0  0
    1.3060   18.7700  -28.3290 C   0  0  0  0  0  0  0  0  0  0  0  0
    1.0190   19.8060  -29.6140 S   0  0  0  0  0  0  0  0  0  0  0  0
   -0.1957   23.1013  -35.1201 H   0  0  0  0  0  0  0  0  0  0  0  0
    1.0917   23.1698  -36.3709 H   0  0  0  0  0  0  0  0  0  0  0  0
   -0.0894   21.8164  -36.3709 H   0  0  0  0  0  0  0  0  0  0  0  0
    0.6290   17.5203  -34.3227 H   0  0  0  0  0  0  0  0  0  0  0  0
   -0.0459   18.9945  -35.0959 H   0  0  0  0  0  0  0  0  0  0  0  0
    1.7281   18.7123  -35.0959 H   0  0  0  0  0  0  0  0  0  0  0  0
    2.2984   19.1829  -31.4724 H   0  0  0  0  0  0  0  0  0  0  0  0
    2.7730   18.2180  -32.9113 H   0  0  0  0  0  0  0  0  0  0  0  0
    2.9971   20.0003  -32.9113 H   0  0  0  0  0  0  0  0  0  0  0  0
   -0.9443   16.8811  -31.6280 H   0  0  0  0  0  0  0  0  0  0  0  0
   -1.6357   17.5898  -33.1268 H   0  0  0  0  0  0  0  0  0  0  0  0
    0.0433   16.9515  -33.1268 H   0  0  0  0  0  0  0  0  0  0  0  0
   -2.4175   18.9365  -33.7732 H   0  0  0  0  0  0  0  0  0  0  0  0
   -4.3254   20.5650  -33.7893 H   0  0  0  0  0  0  0  0  0  0  0  0
   -5.3718   22.8696  -32.4413 H   0  0  0  0  0  0  0  0  0  0  0  0
   -3.4950   26.0500  -31.2170 H   0  0  0  0  0  0  0  0  0  0  0  0
   -0.6346   21.0727  -30.4085 H   0  0  0  0  0  0  0  0  0  0  0  0
   -0.0792   16.5335  -30.4281 H   0  0  0  0  0  0  0  0  0  0  0  0
    0.9054   16.6393  -28.0289 H   0  0  0  0  0  0  0  0  0  0  0  0
    1.7743   19.0382  -27.3705 H   0  0  0  0  0  0  0  0  0  0  0  0
  1  2  1  0
  2  3  1  0
  3  4  1  0
  4  5  1  0
  4  6  1  0
  7  4  1  6
  7  8  1  0
  7  9  1  0
  9 10  2  0
 10 11  1  0
 11 12  2  0
 12 13  1  0
 13 14  2  0
 14 15  1  0
 15 16  1  0
 15 17  2  0
 14 18  1  0
 18 19  1  0
 19 20  2  0
 19 21  1  0
 18 22  1  0
 22 23  2  0
  7 24  1  0
 24 25  2  0
 25 26  1  0
 26 27  2  0
 27 28  1  0
 23  9  1  0
 28 24  1  0
 22 12  1  0
  1 29  1  0
  1 30  1  0
  1 31  1  0
  5 32  1  0
  5 33  1  0
  5 34  1  0
  6 35  1  0
  6 36  1  0
  6 37  1  0
  8 38  1  0
  8 39  1  0
  8 40  1  0
 10 41  1  0
 11 42  1  0
 13 43  1  0
 16 44  1  0
 23 45  1  0
 25 46  1  0
 26 47  1  0
 27 48  1  0
M  CHG  2  16  -1  21  -1
M  RAD  1   2   3
M  END
>  <UniqueID>  (68) 
68

>  <SMILES>  (68) 
C[Si]OC(C)(C)[C@](C)(c1ccc2cc(C([NH-])=O)n(C(=O)[S-])c2c1)c1cccs1

>  <Energy>  (68) 
138.33751134247177

>  <Genealogy>  (68) 
C[Si]OC(C)(C)C(C)(c1ccc2cc(C([NH-])=O)n(C(=O)[S-])c2c1)c1cccs1 (protonated)
C[Si]OC(C)(C)[C@](C)(c1ccc2cc(C([NH-])=O)n(C(=O)[S-])c2c1)c1cccs1 (chirality)
C[Si]OC(C)(C)[C@](C)(c1ccc2cc(C([NH-])=O)n(C(=O)[S-])c2c1)c1cccs1 (3D coordinates assigned)
C[Si]OC(C)(C)[C@](C)(c1ccc2cc(C([NH-])=O)n(C(=O)[S-])c2c1)c1cccs1 (optimized conformer: 138.33751134247177 kcal/mol)

>  <smiles>  (68) 
C[Si]OC(C)(C)C(C)(c1ccc2cc(C(N)=O)n(C(=O)S)c2c1)c1cccs1

>  <score_type>  (68) 
oracle

>  <origin>  (68) 
adg

>  <m_score__min__energy>  (68) 
-11.94

>  <m_primary>  (68) 
energy

$$$$
68:0
     RDKit          3D

 49 51  0  0  0  0  0  0  0  0999 V2000
   -1.8470   21.1710  -32.9890 C   0  0  0  0  0  0  0  0  0  0  0  0
   -3.2870   21.4580  -32.5550 C   0  0  0  0  0  0  0  0  0  0  0  0
   -3.5700   20.8270  -31.1940 C   0  0  0  0  0  0  0  0  0  0  0  0
   -4.2030   20.9220  -33.5090 O   0  0  0  0  0  0  0  0  0  0  0  0
   -4.6830   19.6090  -33.4690 C   0  0  0  0  0  0  0  0  0  0  0  0
   -3.9290   18.6440  -33.7710 O   0  0  0  0  0  0  0  0  0  0  0  0
   -6.0430   19.3580  -33.0780 N   0  0  0  0  0  0  0  0  0  0  0  0
   -6.6990   18.1640  -33.0660 C   0  0  0  0  0  0  0  0  0  0  0  0
   -6.1890   16.8920  -33.6140 C   0  0  0  0  0  0  0  0  0  0  0  0
   -4.9430   16.3460  -33.1820 N   0  0  0  0  0  0  0  0  0  0  0  0
   -6.8380   16.3050  -34.5220 O   0  0  0  0  0  0  0  0  0  0  0  0
   -7.9620   18.3020  -32.4960 C   0  0  0  0  0  0  0  0  0  0  0  0
   -8.0690   19.6340  -32.1680 C   0  0  0  0  0  0  0  0  0  0  0  0
   -9.1100   20.3220  -31.5520 C   0  0  0  0  0  0  0  0  0  0  0  0
   -8.9310   21.6900  -31.2900 C   0  0  0  0  0  0  0  0  0  0  0  0
   -7.7210   22.3410  -31.6410 C   0  0  0  0  0  0  0  0  0  0  0  0
   -7.5210   23.7990  -31.3150 C   0  0  0  0  0  0  0  0  0  0  0  0
   -6.0850   24.2630  -31.6010 C   0  0  0  0  0  0  0  0  0  0  0  0
   -5.2890   24.5800  -30.3220 C   0  0  1  0  0  0  0  0  0  0  0  0
   -5.3160   23.4180  -29.3440 C   0  0  0  0  0  0  0  0  0  0  0  0
   -4.0120   23.5720  -28.6250 C   0  0  0  0  0  0  0  0  0  0  0  0
   -3.1370   24.2770  -29.6440 C   0  0  0  0  0  0  0  0  0  0  0  0
   -3.9450   24.8690  -30.6360 O   0  0  0  0  0  0  0  0  0  0  0  0
   -6.6850   21.6090  -32.2590 C   0  0  0  0  0  0  0  0  0  0  0  0
   -6.8980   20.2510  -32.5290 C   0  0  0  0  0  0  0  0  0  0  0  0
   -1.2139   21.0448  -32.0984 H   0  0  0  0  0  0  0  0  0  0  0  0
   -1.8219   20.2502  -33.5902 H   0  0  0  0  0  0  0  0  0  0  0  0
   -1.4707   22.0118  -33.5902 H   0  0  0  0  0  0  0  0  0  0  0  0
   -3.4135   22.5486  -32.4875 H   0  0  0  0  0  0  0  0  0  0  0  0
   -3.2596   21.5191  -30.3973 H   0  0  0  0  0  0  0  0  0  0  0  0
   -4.6466   20.6212  -31.1020 H   0  0  0  0  0  0  0  0  0  0  0  0
   -3.0077   19.8861  -31.1020 H   0  0  0  0  0  0  0  0  0  0  0  0
   -4.6170   15.4250  -33.5510 H   0  0  0  0  0  0  0  0  0  0  0  0
   -4.3020   16.8890  -32.5620 H   0  0  0  0  0  0  0  0  0  0  0  0
   -8.7138   17.5141  -32.3410 H   0  0  0  0  0  0  0  0  0  0  0  0
  -10.0444   19.8100  -31.2787 H   0  0  0  0  0  0  0  0  0  0  0  0
   -9.7373   22.2622  -30.8078 H   0  0  0  0  0  0  0  0  0  0  0  0
   -8.2150   24.3971  -31.9239 H   0  0  0  0  0  0  0  0  0  0  0  0
   -7.7136   23.9355  -30.2406 H   0  0  0  0  0  0  0  0  0  0  0  0
   -5.5622   23.4665  -32.1508 H   0  0  0  0  0  0  0  0  0  0  0  0
   -6.1500   25.1919  -32.1867 H   0  0  0  0  0  0  0  0  0  0  0  0
   -5.7662   25.4539  -29.8546 H   0  0  0  0  0  0  0  0  0  0  0  0
   -6.1653   23.5017  -28.6500 H   0  0  0  0  0  0  0  0  0  0  0  0
   -5.4372   22.4382  -29.8291 H   0  0  0  0  0  0  0  0  0  0  0  0
   -4.1313   24.1823  -27.7177 H   0  0  0  0  0  0  0  0  0  0  0  0
   -3.5915   22.6147  -28.2833 H   0  0  0  0  0  0  0  0  0  0  0  0
   -2.5455   25.0563  -29.1412 H   0  0  0  0  0  0  0  0  0  0  0  0
   -2.4622   23.5456  -30.1127 H   0  0  0  0  0  0  0  0  0  0  0  0
   -5.7330   22.0931  -32.5224 H   0  0  0  0  0  0  0  0  0  0  0  0
  1  2  1  0
  2  3  1  0
  2  4  1  0
  4  5  1  0
  5  6  2  0
  5  7  1  0
  7  8  1  0
  8  9  1  0
  9 10  1  0
  9 11  2  0
  8 12  2  0
 12 13  1  0
 13 14  2  0
 14 15  1  0
 15 16  2  0
 16 17  1  0
 17 18  1  0
 18 19  1  0
 19 20  1  0
 20 21  1  0
 21 22  1  0
 22 23  1  0
 16 24  1  0
 24 25  2  0
 25  7  1  0
 25 13  1  0
 23 19  1  0
  1 26  1  0
  1 27  1  0
  1 28  1  0
  2 29  1  0
  3 30  1  0
  3 31  1  0
  3 32  1  0
 10 33  1  0
 10 34  1  0
 12 35  1  0
 14 36  1  0
 15 37  1  0
 17 38  1  0
 17 39  1  0
 18 40  1  0
 18 41  1  0
 19 42  1  1
 20 43  1  0
 20 44  1  0
 21 45  1  0
 21 46  1  0
 22 47  1  0
 22 48  1  0
 24 49  1  0
M  END
>  <UniqueID>  (69) 
69

>  <SMILES>  (69) 
CC(C)OC(=O)n1c(C(N)=O)cc2ccc(CC[C@H]3CCCO3)cc21

>  <Energy>  (69) 
78.36979619766859

>  <Genealogy>  (69) 
CC(C)OC(=O)n1c(C(N)=O)cc2ccc(CC[C@H]3CCCO3)cc21 (chirality)
CC(C)OC(=O)n1c(C(N)=O)cc2ccc(CC[C@H]3CCCO3)cc21 (3D coordinates assigned)
CC(C)OC(=O)n1c(C(N)=O)cc2ccc(CC[C@H]3CCCO3)cc21 (nonaromatic ring conformer: 78.36979619766859 kcal/mol)

>  <smiles>  (69) 
CC(C)OC(=O)n1c(C(N)=O)cc2ccc(CCC3CCCO3)cc21

>  <score_type>  (69) 
oracle

>  <origin>  (69) 
adg

>  <m_score__min__energy>  (69) 
-9.1899999999999995

>  <m_primary>  (69) 
energy

$$$$
69:0
     RDKit          3D

 46 47  0  0  0  0  0  0  0  0999 V2000
   -3.0570   24.0200  -28.2090 C   0  0  0  0  0  0  0  0  0  0  0  0
   -2.7640   23.7720  -29.5650 O   0  0  0  0  0  0  0  0  0  0  0  0
   -3.2870   22.5140  -29.9350 C   0  0  0  0  0  0  0  0  0  0  0  0
   -4.0890   22.6440  -31.1950 C   0  0  0  0  0  0  0  0  0  0  0  0
   -3.4920   22.6100  -32.3040 O   0  0  0  0  0  0  0  0  0  0  0  0
   -5.5180   22.8140  -31.1660 N   0  0  0  0  0  0  0  0  0  0  0  0
   -6.1990   23.9660  -30.9080 C   0  0  0  0  0  0  0  0  0  0  0  0
   -5.6010   25.2390  -30.4530 C   0  0  0  0  0  0  0  0  0  0  0  0
   -4.2490   25.5800  -30.7690 N   0  0  0  0  0  0  0  0  0  0  0  0
   -6.2780   26.0150  -29.7270 O   0  0  0  0  0  0  0  0  0  0  0  0
   -7.5660   23.7900  -31.1080 C   0  0  0  0  0  0  0  0  0  0  0  0
   -7.7090   22.4790  -31.4940 C   0  0  0  0  0  0  0  0  0  0  0  0
   -8.8570   21.7690  -31.8360 C   0  0  0  0  0  0  0  0  0  0  0  0
   -8.7090   20.4330  -32.2430 C   0  0  0  0  0  0  0  0  0  0  0  0
   -7.4230   19.8400  -32.3210 C   0  0  0  0  0  0  0  0  0  0  0  0
   -7.2690   18.4290  -32.8260 C   0  0  0  0  0  0  0  0  0  0  0  0
   -5.7990   18.0530  -33.0800 C   0  0  0  0  0  0  0  0  0  0  0  0
   -5.3060   18.4390  -34.4860 C   0  0  0  0  0  0  0  0  0  0  0  0
   -3.8330   18.5910  -34.5170 N   0  0  0  0  0  0  0  0  0  0  0  0
   -3.3790   19.6050  -33.5490 C   0  0  0  0  0  0  0  0  0  0  0  0
   -3.1730   17.3070  -34.2280 C   0  0  0  0  0  0  0  0  0  0  0  0
   -6.2810   20.5910  -31.9630 C   0  0  0  0  0  0  0  0  0  0  0  0
   -6.4590   21.9100  -31.5290 C   0  0  0  0  0  0  0  0  0  0  0  0
   -2.3716   23.4398  -27.5737 H   0  0  0  0  0  0  0  0  0  0  0  0
   -2.9338   25.0924  -27.9974 H   0  0  0  0  0  0  0  0  0  0  0  0
   -4.0943   23.7213  -27.9974 H   0  0  0  0  0  0  0  0  0  0  0  0
   -2.4587   21.8095  -30.1012 H   0  0  0  0  0  0  0  0  0  0  0  0
   -3.9369   22.1415  -29.1295 H   0  0  0  0  0  0  0  0  0  0  0  0
   -3.8620   26.5050  -30.4760 H   0  0  0  0  0  0  0  0  0  0  0  0
   -3.6090   24.8950  -31.2240 H   0  0  0  0  0  0  0  0  0  0  0  0
   -8.3610   24.5400  -30.9836 H   0  0  0  0  0  0  0  0  0  0  0  0
   -9.8498   22.2403  -31.7888 H   0  0  0  0  0  0  0  0  0  0  0  0
   -9.5987   19.8410  -32.5037 H   0  0  0  0  0  0  0  0  0  0  0  0
   -7.6858   17.7388  -32.0777 H   0  0  0  0  0  0  0  0  0  0  0  0
   -7.8038   18.3561  -33.7845 H   0  0  0  0  0  0  0  0  0  0  0  0
   -5.1733   18.5688  -32.3368 H   0  0  0  0  0  0  0  0  0  0  0  0
   -5.7237   16.9587  -32.9974 H   0  0  0  0  0  0  0  0  0  0  0  0
   -5.6001   17.6530  -35.1971 H   0  0  0  0  0  0  0  0  0  0  0  0
   -5.7603   19.4024  -34.7608 H   0  0  0  0  0  0  0  0  0  0  0  0
   -3.5444   19.2355  -32.5262 H   0  0  0  0  0  0  0  0  0  0  0  0
   -2.3071   19.8012  -33.6991 H   0  0  0  0  0  0  0  0  0  0  0  0
   -3.9466   20.5352  -33.6991 H   0  0  0  0  0  0  0  0  0  0  0  0
   -3.1017   17.1683  -33.1391 H   0  0  0  0  0  0  0  0  0  0  0  0
   -3.7609   16.4861  -34.6645 H   0  0  0  0  0  0  0  0  0  0  0  0
   -2.1633   17.3073  -34.6645 H   0  0  0  0  0  0  0  0  0  0  0  0
   -5.2753   20.1495  -32.0239 H   0  0  0  0  0  0  0  0  0  0  0  0
  1  2  1  0
  2  3  1  0
  3  4  1  0
  4  5  2  0
  4  6  1  0
  6  7  1  0
  7  8  1  0
  8  9  1  0
  8 10  2  0
  7 11  2  0
 11 12  1  0
 12 13  2  0
 13 14  1  0
 14 15  2  0
 15 16  1  0
 16 17  1  0
 17 18  1  0
 18 19  1  0
 19 20  1  0
 19 21  1  0
 15 22  1  0
 22 23  2  0
 23  6  1  0
 23 12  1  0
  1 24  1  0
  1 25  1  0
  1 26  1  0
  3 27  1  0
  3 28  1  0
  9 29  1  0
  9 30  1  0
 11 31  1  0
 13 32  1  0
 14 33  1  0
 16 34  1  0
 16 35  1  0
 17 36  1  0
 17 37  1  0
 18 38  1  0
 18 39  1  0
 20 40  1  0
 20 41  1  0
 20 42  1  0
 21 43  1  0
 21 44  1  0
 21 45  1  0
 22 46  1  0
M  END
>  <UniqueID>  (70) 
70

>  <SMILES>  (70) 
COCC(=O)n1c(C(N)=O)cc2ccc(CCCN(C)C)cc21

>  <Energy>  (70) 
81.64047724500314

>  <Genealogy>  (70) 
COCC(=O)n1c(C(N)=O)cc2ccc(CCCN(C)C)cc21 (3D coordinates assigned)
COCC(=O)n1c(C(N)=O)cc2ccc(CCCN(C)C)cc21 (optimized conformer: 81.64047724500314 kcal/mol)

>  <smiles>  (70) 
COCC(=O)n1c(C(N)=O)cc2ccc(CCCN(C)C)cc21

>  <score_type>  (70) 
oracle

>  <origin>  (70) 
adg

>  <m_score__min__energy>  (70) 
-8.1999999999999993

>  <m_primary>  (70) 
energy

$$$$
70:0
     RDKit          3D

 40 42  0  0  0  0  0  0  0  0999 V2000
   -2.2060   25.3340  -28.5350 N   0  0  0  0  0  0  0  0  0  0  0  0
   -1.3190   24.3540  -29.0790 C   0  0  0  0  0  0  0  0  0  0  0  0
   -0.1000   24.3910  -28.7690 O   0  0  0  0  0  0  0  0  0  0  0  0
   -1.8150   23.3300  -30.0250 C   0  0  0  0  0  0  0  0  0  0  0  0
   -1.0710   22.2220  -30.4280 C   0  0  0  0  0  0  0  0  0  0  0  0
   -1.9190   21.4820  -31.2190 C   0  0  0  0  0  0  0  0  0  0  0  0
   -1.6960   20.2850  -31.8910 C   0  0  0  0  0  0  0  0  0  0  0  0
   -2.7460   19.7570  -32.6600 C   0  0  0  0  0  0  0  0  0  0  0  0
   -3.9910   20.4280  -32.7560 C   0  0  0  0  0  0  0  0  0  0  0  0
   -5.0320   19.8500  -33.5670 N   0  0  0  0  0  0  0  0  0  0  0  0
   -6.0620   18.9340  -33.0750 C   0  0  0  0  0  0  0  0  0  0  0  0
   -6.9670   19.6360  -32.0540 C   0  0  0  0  0  0  0  0  0  0  0  0
   -7.7460   20.7120  -32.7130 N   0  0  0  0  0  0  0  0  0  0  0  0
   -7.2580   22.0480  -32.3460 C   0  0  0  0  0  0  0  0  0  0  0  0
   -7.8480   22.4580  -31.0020 C   0  0  0  0  0  0  0  0  0  0  0  0
   -9.4040   21.5610  -30.7640 S   0  0  0  0  0  0  0  0  0  0  0  0
   -9.1640   20.6720  -32.3300 C   0  0  0  0  0  0  0  0  0  0  0  0
   -4.1790   21.6430  -32.0490 C   0  0  0  0  0  0  0  0  0  0  0  0
   -3.1200   22.1380  -31.2770 C   0  0  0  0  0  0  0  0  0  0  0  0
   -3.0730   23.2760  -30.5470 N   0  0  0  0  0  0  0  0  0  0  0  0
   -4.1110   24.2630  -30.4230 C   0  0  0  0  0  0  0  0  0  0  0  0
   -5.2510   23.9390  -29.9970 O   0  0  0  0  0  0  0  0  0  0  0  0
   -3.8740   25.5820  -30.7880 O   0  0  0  0  0  0  0  0  0  0  0  0
   -3.2320   25.3040  -28.7260 H   0  0  0  0  0  0  0  0  0  0  0  0
   -1.8390   26.0770  -27.8990 H   0  0  0  0  0  0  0  0  0  0  0  0
   -0.0277   21.9890  -30.1686 H   0  0  0  0  0  0  0  0  0  0  0  0
   -0.7275   19.7679  -31.8224 H   0  0  0  0  0  0  0  0  0  0  0  0
   -2.5999   18.8078  -33.1963 H   0  0  0  0  0  0  0  0  0  0  0  0
   -5.0490   20.0780  -34.5880 H   0  0  0  0  0  0  0  0  0  0  0  0
   -6.6729   18.5886  -33.9220 H   0  0  0  0  0  0  0  0  0  0  0  0
   -5.5718   18.0796  -32.5855 H   0  0  0  0  0  0  0  0  0  0  0  0
   -7.6597   18.9015  -31.6173 H   0  0  0  0  0  0  0  0  0  0  0  0
   -6.3412   20.0784  -31.2649 H   0  0  0  0  0  0  0  0  0  0  0  0
   -6.1606   22.0294  -32.2734 H   0  0  0  0  0  0  0  0  0  0  0  0
   -7.5646   22.7722  -33.1151 H   0  0  0  0  0  0  0  0  0  0  0  0
   -7.1454   22.2040  -30.1947 H   0  0  0  0  0  0  0  0  0  0  0  0
   -8.0301   23.5427  -30.9839 H   0  0  0  0  0  0  0  0  0  0  0  0
   -9.4799   19.6254  -32.2079 H   0  0  0  0  0  0  0  0  0  0  0  0
   -9.7660   21.1517  -33.1158 H   0  0  0  0  0  0  0  0  0  0  0  0
   -5.1348   22.1845  -32.1056 H   0  0  0  0  0  0  0  0  0  0  0  0
  1  2  1  0
  2  3  2  0
  2  4  1  0
  4  5  2  0
  5  6  1  0
  6  7  2  0
  7  8  1  0
  8  9  2  0
  9 10  1  0
 10 11  1  0
 11 12  1  0
 12 13  1  0
 13 14  1  0
 14 15  1  0
 15 16  1  0
 16 17  1  0
  9 18  1  0
 18 19  2  0
 19 20  1  0
 20 21  1  0
 21 22  2  0
 21 23  1  0
 20  4  1  0
 19  6  1  0
 17 13  1  0
  1 24  1  0
  1 25  1  0
  5 26  1  0
  7 27  1  0
  8 28  1  0
 10 29  1  0
 11 30  1  0
 11 31  1  0
 12 32  1  0
 12 33  1  0
 14 34  1  0
 14 35  1  0
 15 36  1  0
 15 37  1  0
 17 38  1  0
 17 39  1  0
 18 40  1  0
M  CHG  1  23  -1
M  END
>  <UniqueID>  (71) 
71

>  <SMILES>  (71) 
NC(=O)c1cc2ccc(NCCN3CCSC3)cc2n1C(=O)[O-]

>  <Energy>  (71) 
78.6913671997249

>  <Genealogy>  (71) 
NC(=O)c1cc2ccc(NCCN3CCSC3)cc2n1C(=O)[O-] (protonated)
NC(=O)c1cc2ccc(NCCN3CCSC3)cc2n1C(=O)[O-] (3D coordinates assigned)
NC(=O)c1cc2ccc(NCCN3CCSC3)cc2n1C(=O)[O-] (nonaromatic ring conformer: 78.6913671997249 kcal/mol)

>  <smiles>  (71) 
NC(=O)c1cc2ccc(NCCN3CCSC3)cc2n1C(=O)O

>  <score_type>  (71) 
oracle

>  <origin>  (71) 
adg

>  <m_score__min__energy>  (71) 
-9.2699999999999996

>  <m_primary>  (71) 
energy

$$$$
71:0
     RDKit          3D

 54 56  0  0  0  0  0  0  0  0999 V2000
   -2.8090   16.4240  -33.2030 C   0  0  0  0  0  0  0  0  0  0  0  0
   -3.8460   17.2600  -33.8300 N   0  0  1  0  0  0  0  0  0  0  0  0
   -5.0940   17.3100  -33.0120 C   0  0  0  0  0  0  0  0  0  0  0  0
   -6.2090   18.1620  -33.6660 C   0  0  0  0  0  0  0  0  0  0  0  0
   -7.4230   18.4010  -32.7500 C   0  0  0  0  0  0  0  0  0  0  0  0
   -7.4810   19.8090  -32.2170 C   0  0  0  0  0  0  0  0  0  0  0  0
   -8.6960   20.3290  -31.7050 C   0  0  0  0  0  0  0  0  0  0  0  0
   -8.7500   21.6270  -31.1740 C   0  0  0  0  0  0  0  0  0  0  0  0
   -7.5780   22.3780  -31.1640 C   0  0  0  0  0  0  0  0  0  0  0  0
   -7.3550   23.6630  -30.7240 C   0  0  0  0  0  0  0  0  0  0  0  0
   -6.0030   23.9030  -30.9580 C   0  0  0  0  0  0  0  0  0  0  0  0
   -5.3170   25.1480  -30.5500 C   0  0  0  0  0  0  0  0  0  0  0  0
   -3.9050   25.2640  -30.7060 N   0  0  0  0  0  0  0  0  0  0  0  0
   -5.9700   26.1260  -30.0990 O   0  0  0  0  0  0  0  0  0  0  0  0
   -5.4140   22.8140  -31.5300 N   0  0  0  0  0  0  0  0  0  0  0  0
   -4.0550   22.6740  -31.9750 C   0  0  0  0  0  0  0  0  0  0  0  0
   -3.8050   22.3650  -33.1710 O   0  0  0  0  0  0  0  0  0  0  0  0
   -3.0040   22.8540  -31.0860 O   0  0  0  0  0  0  0  0  0  0  0  0
   -6.3920   21.8880  -31.6470 C   0  0  0  0  0  0  0  0  0  0  0  0
   -6.3140   20.6050  -32.2010 C   0  0  0  0  0  0  0  0  0  0  0  0
   -3.3590   18.5990  -34.2710 C   0  0  0  0  0  0  0  0  0  0  0  0
   -2.3590   19.3960  -33.3720 C   0  0  2  0  0  0  0  0  0  0  0  0
   -2.8840   19.7380  -31.9660 C   0  0  0  0  0  0  0  0  0  0  0  0
   -1.7260   20.1750  -31.0480 C   0  0  0  0  0  0  0  0  0  0  0  0
   -0.5560   20.8110  -31.8290 C   0  0  0  0  0  0  0  0  0  0  0  0
   -1.0260   21.5210  -33.0270 N   0  0  0  0  0  0  0  0  0  0  0  0
   -1.6670   20.6270  -34.0150 C   0  0  0  0  0  0  0  0  0  0  0  0
   -2.8946   16.4930  -32.1085 H   0  0  0  0  0  0  0  0  0  0  0  0
   -2.9425   15.3780  -33.5160 H   0  0  0  0  0  0  0  0  0  0  0  0
   -1.8151   16.7764  -33.5160 H   0  0  0  0  0  0  0  0  0  0  0  0
   -4.0710   16.7670  -34.7250 H   0  0  0  0  0  0  0  0  0  0  0  0
   -5.4682   16.2841  -32.8795 H   0  0  0  0  0  0  0  0  0  0  0  0
   -4.8400   17.7803  -32.0506 H   0  0  0  0  0  0  0  0  0  0  0  0
   -5.7838   19.1385  -33.9408 H   0  0  0  0  0  0  0  0  0  0  0  0
   -6.5713   17.6010  -34.5401 H   0  0  0  0  0  0  0  0  0  0  0  0
   -8.3408   18.2037  -33.3234 H   0  0  0  0  0  0  0  0  0  0  0  0
   -7.3279   17.7234  -31.8887 H   0  0  0  0  0  0  0  0  0  0  0  0
   -9.6049   19.7096  -31.7240 H   0  0  0  0  0  0  0  0  0  0  0  0
   -9.6900   22.0384  -30.7777 H   0  0  0  0  0  0  0  0  0  0  0  0
   -8.0883   24.3534  -30.2817 H   0  0  0  0  0  0  0  0  0  0  0  0
   -3.4870   26.0500  -31.2510 H   0  0  0  0  0  0  0  0  0  0  0  0
   -5.3675   20.2259  -32.6137 H   0  0  0  0  0  0  0  0  0  0  0  0
   -2.8670   18.4545  -35.2442 H   0  0  0  0  0  0  0  0  0  0  0  0
   -4.2673   19.2192  -34.2544 H   0  0  0  0  0  0  0  0  0  0  0  0
   -1.5639   18.6443  -33.2589 H   0  0  0  0  0  0  0  0  0  0  0  0
   -3.6144   20.5570  -32.0418 H   0  0  0  0  0  0  0  0  0  0  0  0
   -3.3595   18.8437  -31.5370 H   0  0  0  0  0  0  0  0  0  0  0  0
   -2.1081   20.9108  -30.3251 H   0  0  0  0  0  0  0  0  0  0  0  0
   -1.3411   19.2749  -30.5463 H   0  0  0  0  0  0  0  0  0  0  0  0
   -0.0351   21.5241  -31.1731 H   0  0  0  0  0  0  0  0  0  0  0  0
    0.1205   20.0054  -32.1505 H   0  0  0  0  0  0  0  0  0  0  0  0
   -1.7150   22.2510  -32.7260 H   0  0  0  0  0  0  0  0  0  0  0  0
   -2.4234   21.2033  -34.5680 H   0  0  0  0  0  0  0  0  0  0  0  0
   -0.8722   20.2465  -34.6734 H   0  0  0  0  0  0  0  0  0  0  0  0
  1  2  1  0
  2  3  1  0
  3  4  1  0
  4  5  1  0
  5  6  1  0
  6  7  2  0
  7  8  1  0
  8  9  2  0
  9 10  1  0
 10 11  2  0
 11 12  1  0
 12 13  1  0
 12 14  2  0
 11 15  1  0
 15 16  1  0
 16 17  2  0
 16 18  1  0
 15 19  1  0
 19 20  2  0
  2 21  1  0
 21 22  1  0
 22 23  1  0
 23 24  1  0
 24 25  1  0
 25 26  1  0
 26 27  1  0
 20  6  1  0
 27 22  1  0
 19  9  1  0
  1 28  1  0
  1 29  1  0
  1 30  1  0
  2 31  1  6
  3 32  1  0
  3 33  1  0
  4 34  1  0
  4 35  1  0
  5 36  1  0
  5 37  1  0
  7 38  1  0
  8 39  1  0
 10 40  1  0
 13 41  1  0
 20 42  1  0
 21 43  1  0
 21 44  1  0
 22 45  1  1
 23 46  1  0
 23 47  1  0
 24 48  1  0
 24 49  1  0
 25 50  1  0
 25 51  1  0
 26 52  1  0
 27 53  1  0
 27 54  1  0
M  CHG  3   2   1  13  -1  18  -1
M  END
>  <UniqueID>  (72) 
72

>  <SMILES>  (72) 
C[N@@H+](CCCc1ccc2cc(C([NH-])=O)n(C(=O)[O-])c2c1)C[C@@H]1CCCNC1

>  <Energy>  (72) 
111.51284090107744

>  <Genealogy>  (72) 
C[NH+](CCCc1ccc2cc(C([NH-])=O)n(C(=O)[O-])c2c1)CC1CCCNC1 (protonated)
C[N@@H+](CCCc1ccc2cc(C([NH-])=O)n(C(=O)[O-])c2c1)C[C@@H]1CCCNC1 (chirality)
C[N@@H+](CCCc1ccc2cc(C([NH-])=O)n(C(=O)[O-])c2c1)C[C@@H]1CCCNC1 (3D coordinates assigned)
C[N@@H+](CCCc1ccc2cc(C([NH-])=O)n(C(=O)[O-])c2c1)C[C@@H]1CCCNC1 (nonaromatic ring conformer: 111.51284090107744 kcal/mol)

>  <smiles>  (72) 
CN(CCCc1ccc2cc(C(N)=O)n(C(=O)O)c2c1)CC1CCCNC1

>  <score_type>  (72) 
oracle

>  <origin>  (72) 
adg

>  <m_score__min__energy>  (72) 
-11.94

>  <m_primary>  (72) 
energy

$$$$
72:0
     RDKit          3D

 34 35  0  0  0  0  0  0  0  0999 V2000
   -9.0730   18.5450  -31.5200 C   0  0  0  0  0  0  0  0  0  0  0  0
   -8.5910   19.4640  -32.6420 C   0  0  1  0  0  0  0  0  0  0  0  0
   -8.3780   20.8190  -32.1230 C   0  0  0  0  0  0  0  0  0  0  0  0
   -8.2100   21.8880  -31.7130 N   0  0  0  0  0  0  0  0  0  0  0  0
   -7.3370   18.9710  -33.2000 N   0  0  0  0  0  0  0  0  0  0  0  0
   -6.0490   19.2660  -32.6490 C   0  0  0  0  0  0  0  0  0  0  0  0
   -5.7300   18.8420  -31.5050 O   0  0  0  0  0  0  0  0  0  0  0  0
   -5.0560   20.0320  -33.4630 C   0  0  0  0  0  0  0  0  0  0  0  0
   -3.9570   20.5510  -32.5790 C   0  0  0  0  0  0  0  0  0  0  0  0
   -2.7200   19.8630  -32.5040 C   0  0  0  0  0  0  0  0  0  0  0  0
   -1.6690   20.3650  -31.7200 C   0  0  0  0  0  0  0  0  0  0  0  0
   -1.8810   21.5540  -31.0280 C   0  0  0  0  0  0  0  0  0  0  0  0
   -1.0260   22.2760  -30.2280 C   0  0  0  0  0  0  0  0  0  0  0  0
   -1.7550   23.3890  -29.8170 C   0  0  0  0  0  0  0  0  0  0  0  0
   -1.2330   24.3940  -28.8680 C   0  0  0  0  0  0  0  0  0  0  0  0
   -1.6250   25.7620  -28.9580 N   0  0  0  0  0  0  0  0  0  0  0  0
   -0.4700   24.0330  -27.9330 O   0  0  0  0  0  0  0  0  0  0  0  0
   -3.0110   23.3630  -30.3500 N   0  0  0  0  0  0  0  0  0  0  0  0
   -4.0360   24.3630  -30.2430 C   0  0  0  0  0  0  0  0  0  0  0  0
   -5.1060   24.1150  -29.6270 O   0  0  0  0  0  0  0  0  0  0  0  0
   -3.8450   25.6240  -30.7960 O   0  0  0  0  0  0  0  0  0  0  0  0
   -3.0720   22.2300  -31.0850 C   0  0  0  0  0  0  0  0  0  0  0  0
   -4.1310   21.7610  -31.8720 C   0  0  0  0  0  0  0  0  0  0  0  0
   -8.8350   18.9988  -30.5466 H   0  0  0  0  0  0  0  0  0  0  0  0
  -10.1608   18.4046  -31.6029 H   0  0  0  0  0  0  0  0  0  0  0  0
   -8.5701   17.5702  -31.6029 H   0  0  0  0  0  0  0  0  0  0  0  0
   -9.3599   19.4812  -33.4284 H   0  0  0  0  0  0  0  0  0  0  0  0
   -4.6254   19.3705  -34.2291 H   0  0  0  0  0  0  0  0  0  0  0  0
   -5.5627   20.8811  -33.9450 H   0  0  0  0  0  0  0  0  0  0  0  0
   -2.5822   18.9271  -33.0653 H   0  0  0  0  0  0  0  0  0  0  0  0
   -0.7074   19.8349  -31.6546 H   0  0  0  0  0  0  0  0  0  0  0  0
    0.0134   22.0269  -29.9680 H   0  0  0  0  0  0  0  0  0  0  0  0
   -2.6330   26.0310  -28.9850 H   0  0  0  0  0  0  0  0  0  0  0  0
   -5.0753   22.3214  -31.9379 H   0  0  0  0  0  0  0  0  0  0  0  0
  1  2  1  0
  2  3  1  0
  3  4  3  0
  2  5  1  0
  5  6  1  0
  6  7  2  0
  6  8  1  0
  8  9  1  0
  9 10  2  0
 10 11  1  0
 11 12  2  0
 12 13  1  0
 13 14  2  0
 14 15  1  0
 15 16  1  0
 15 17  2  0
 14 18  1  0
 18 19  1  0
 19 20  2  0
 19 21  1  0
 18 22  1  0
 22 23  2  0
 23  9  1  0
 22 12  1  0
  1 24  1  0
  1 25  1  0
  1 26  1  0
  2 27  1  6
  8 28  1  0
  8 29  1  0
 10 30  1  0
 11 31  1  0
 13 32  1  0
 16 33  1  0
 23 34  1  0
M  CHG  3   5  -1  16  -1  21  -1
M  END
>  <UniqueID>  (73) 
73

>  <SMILES>  (73) 
C[C@@H](C#N)[N-]C(=O)Cc1ccc2cc(C([NH-])=O)n(C(=O)[O-])c2c1

>  <Energy>  (73) 
66.59507901233653

>  <Genealogy>  (73) 
CC(C#N)[N-]C(=O)Cc1ccc2cc(C([NH-])=O)n(C(=O)[O-])c2c1 (protonated)
C[C@@H](C#N)[N-]C(=O)Cc1ccc2cc(C([NH-])=O)n(C(=O)[O-])c2c1 (chirality)
C[C@@H](C#N)[N-]C(=O)Cc1ccc2cc(C([NH-])=O)n(C(=O)[O-])c2c1 (3D coordinates assigned)
C[C@@H](C#N)[N-]C(=O)Cc1ccc2cc(C([NH-])=O)n(C(=O)[O-])c2c1 (optimized conformer: 66.59507901233653 kcal/mol)

>  <smiles>  (73) 
CC(C#N)NC(=O)Cc1ccc2cc(C(N)=O)n(C(=O)O)c2c1

>  <score_type>  (73) 
oracle

>  <origin>  (73) 
adg

>  <m_score__min__energy>  (73) 
-11.19

>  <m_primary>  (73) 
energy

$$$$
73:0
     RDKit          3D

 41 42  0  0  0  0  0  0  0  0999 V2000
   -4.6850   17.0280  -34.6500 C   0  0  0  0  0  0  0  0  0  0  0  0
   -5.3070   15.8450  -34.1960 O   0  0  0  0  0  0  0  0  0  0  0  0
   -6.6610   16.0960  -33.8730 C   0  0  0  0  0  0  0  0  0  0  0  0
   -6.8210   17.4720  -33.3890 C   0  0  0  0  0  0  0  0  0  0  0  0
   -6.9460   18.6010  -32.9860 C   0  0  0  0  0  0  0  0  0  0  0  0
   -7.0810   19.9500  -32.5030 C   0  0  0  0  0  0  0  0  0  0  0  0
   -8.3650   20.5230  -32.3580 C   0  0  0  0  0  0  0  0  0  0  0  0
   -8.5060   21.8440  -31.8990 C   0  0  0  0  0  0  0  0  0  0  0  0
   -7.3490   22.5540  -31.5870 C   0  0  0  0  0  0  0  0  0  0  0  0
   -7.1950   23.8490  -31.1490 C   0  0  0  0  0  0  0  0  0  0  0  0
   -5.8200   24.0320  -31.0120 C   0  0  0  0  0  0  0  0  0  0  0  0
   -5.2150   25.2680  -30.4740 C   0  0  0  0  0  0  0  0  0  0  0  0
   -3.8890   25.6530  -30.8300 N   0  0  0  0  0  0  0  0  0  0  0  0
   -5.8600   25.9710  -29.6500 O   0  0  0  0  0  0  0  0  0  0  0  0
   -5.1500   22.8970  -31.3610 N   0  0  0  0  0  0  0  0  0  0  0  0
   -3.7310   22.6950  -31.4380 C   0  0  0  0  0  0  0  0  0  0  0  0
   -3.2310   22.1010  -32.4340 O   0  0  0  0  0  0  0  0  0  0  0  0
   -2.9110   23.1390  -30.3940 O   0  0  0  0  0  0  0  0  0  0  0  0
   -2.8530   22.5160  -29.1110 C   0  0  2  0  0  0  0  0  0  0  0  0
   -4.1910   22.6920  -28.3870 C   0  0  0  0  0  0  0  0  0  0  0  0
   -1.7200   23.1470  -28.2920 C   0  0  0  0  0  0  0  0  0  0  0  0
   -1.5310   24.5560  -28.6610 C   0  0  0  0  0  0  0  0  0  0  0  0
   -1.3830   25.6650  -28.9530 N   0  0  0  0  0  0  0  0  0  0  0  0
   -6.0990   22.0010  -31.7080 C   0  0  0  0  0  0  0  0  0  0  0  0
   -5.9290   20.6940  -32.1820 C   0  0  0  0  0  0  0  0  0  0  0  0
   -4.3682   17.6305  -33.7859 H   0  0  0  0  0  0  0  0  0  0  0  0
   -3.8061   16.7697  -35.2589 H   0  0  0  0  0  0  0  0  0  0  0  0
   -5.3960   17.6057  -35.2589 H   0  0  0  0  0  0  0  0  0  0  0  0
   -7.2810   15.9522  -34.7702 H   0  0  0  0  0  0  0  0  0  0  0  0
   -6.9760   15.3990  -33.0824 H   0  0  0  0  0  0  0  0  0  0  0  0
   -9.2589   19.9318  -32.6058 H   0  0  0  0  0  0  0  0  0  0  0  0
   -9.4996   22.3030  -31.7895 H   0  0  0  0  0  0  0  0  0  0  0  0
   -7.9886   24.5841  -30.9493 H   0  0  0  0  0  0  0  0  0  0  0  0
   -3.0650   25.2970  -30.2970 H   0  0  0  0  0  0  0  0  0  0  0  0
   -2.6568   21.4404  -29.2315 H   0  0  0  0  0  0  0  0  0  0  0  0
   -4.0252   22.6702  -27.2998 H   0  0  0  0  0  0  0  0  0  0  0  0
   -4.6373   23.6566  -28.6706 H   0  0  0  0  0  0  0  0  0  0  0  0
   -4.8715   21.8756  -28.6706 H   0  0  0  0  0  0  0  0  0  0  0  0
   -1.9703   23.0848  -27.2227 H   0  0  0  0  0  0  0  0  0  0  0  0
   -0.7884   22.6004  -28.4999 H   0  0  0  0  0  0  0  0  0  0  0  0
   -4.9247   20.2611  -32.3001 H   0  0  0  0  0  0  0  0  0  0  0  0
  1  2  1  0
  2  3  1  0
  3  4  1  0
  4  5  3  0
  5  6  1  0
  6  7  2  0
  7  8  1  0
  8  9  2  0
  9 10  1  0
 10 11  2  0
 11 12  1  0
 12 13  1  0
 12 14  2  0
 11 15  1  0
 15 16  1  0
 16 17  2  0
 16 18  1  0
 18 19  1  0
 19 20  1  0
 19 21  1  0
 21 22  1  0
 22 23  3  0
 15 24  1  0
 24 25  2  0
 25  6  1  0
 24  9  1  0
  1 26  1  0
  1 27  1  0
  1 28  1  0
  3 29  1  0
  3 30  1  0
  7 31  1  0
  8 32  1  0
 10 33  1  0
 13 34  1  0
 19 35  1  6
 20 36  1  0
 20 37  1  0
 20 38  1  0
 21 39  1  0
 21 40  1  0
 25 41  1  0
M  CHG  1  13  -1
M  END
>  <UniqueID>  (74) 
74

>  <SMILES>  (74) 
COCC#Cc1ccc2cc(C([NH-])=O)n(C(=O)O[C@H](C)CC#N)c2c1

>  <Energy>  (74) 
70.48835507569339

>  <Genealogy>  (74) 
COCC#Cc1ccc2cc(C([NH-])=O)n(C(=O)OC(C)CC#N)c2c1 (protonated)
COCC#Cc1ccc2cc(C([NH-])=O)n(C(=O)O[C@H](C)CC#N)c2c1 (chirality)
COCC#Cc1ccc2cc(C([NH-])=O)n(C(=O)O[C@H](C)CC#N)c2c1 (3D coordinates assigned)
COCC#Cc1ccc2cc(C([NH-])=O)n(C(=O)O[C@H](C)CC#N)c2c1 (optimized conformer: 70.48835507569339 kcal/mol)

>  <smiles>  (74) 
COCC#Cc1ccc2cc(C(N)=O)n(C(=O)OC(C)CC#N)c2c1

>  <score_type>  (74) 
oracle

>  <origin>  (74) 
adg

>  <m_score__min__energy>  (74) 
-10.85

>  <m_primary>  (74) 
energy

$$$$
74:0
     RDKit          3D

 51 52  0  0  0  0  0  0  0  0999 V2000
   -2.1490   20.0040  -33.9250 C   0  0  0  0  0  0  0  0  0  0  0  0
   -3.3380   19.3810  -33.3580 N   0  0  0  0  0  0  0  0  0  0  0  0
   -3.9480   18.2340  -33.9730 C   0  0  0  0  0  0  0  0  0  0  0  0
   -3.3490   17.6520  -34.9200 O   0  0  0  0  0  0  0  0  0  0  0  0
   -5.2270   17.7310  -33.5280 N   0  0  0  0  0  0  0  0  0  0  0  0
   -5.2650   16.5270  -32.6910 C   0  0  0  0  0  0  0  0  0  0  0  0
   -6.4880   18.3930  -33.8860 C   0  0  0  0  0  0  0  0  0  0  0  0
   -7.3880   18.5300  -32.6530 C   0  0  0  0  0  0  0  0  0  0  0  0
   -7.4390   19.9610  -32.1890 C   0  0  0  0  0  0  0  0  0  0  0  0
   -8.6780   20.6470  -32.1430 C   0  0  0  0  0  0  0  0  0  0  0  0
   -8.7350   21.9940  -31.7510 C   0  0  0  0  0  0  0  0  0  0  0  0
   -7.5420   22.6290  -31.4210 C   0  0  0  0  0  0  0  0  0  0  0  0
   -7.3160   23.9190  -31.0010 C   0  0  0  0  0  0  0  0  0  0  0  0
   -5.9400   24.0110  -30.8130 C   0  0  0  0  0  0  0  0  0  0  0  0
   -5.2560   25.2710  -30.4600 C   0  0  0  0  0  0  0  0  0  0  0  0
   -3.9580   25.5670  -30.9660 N   0  0  0  0  0  0  0  0  0  0  0  0
   -5.8510   26.1240  -29.7480 O   0  0  0  0  0  0  0  0  0  0  0  0
   -5.3350   22.8180  -31.0890 N   0  0  0  0  0  0  0  0  0  0  0  0
   -3.9500   22.4740  -30.9060 C   0  0  0  0  0  0  0  0  0  0  0  0
   -3.4370   21.5460  -31.5890 O   0  0  0  0  0  0  0  0  0  0  0  0
   -3.1640   23.1850  -29.9940 O   0  0  0  0  0  0  0  0  0  0  0  0
   -2.2460   22.5470  -29.1080 C   0  0  0  0  0  0  0  0  0  0  0  0
   -1.7220   23.5330  -28.0530 C   0  0  1  0  0  0  0  0  0  0  0  0
   -0.9620   22.8090  -26.9360 C   0  0  0  0  0  0  0  0  0  0  0  0
   -0.8630   24.5950  -28.6840 C   0  0  0  0  0  0  0  0  0  0  0  0
    0.3910   24.5160  -28.6120 O   0  0  0  0  0  0  0  0  0  0  0  0
   -1.4440   25.6810  -29.3310 O   0  0  0  0  0  0  0  0  0  0  0  0
   -6.3310   21.9850  -31.4690 C   0  0  0  0  0  0  0  0  0  0  0  0
   -6.2480   20.6380  -31.8430 C   0  0  0  0  0  0  0  0  0  0  0  0
   -1.4924   20.3481  -33.1123 H   0  0  0  0  0  0  0  0  0  0  0  0
   -1.6117   19.2716  -34.5454 H   0  0  0  0  0  0  0  0  0  0  0  0
   -2.4454   20.8627  -34.5454 H   0  0  0  0  0  0  0  0  0  0  0  0
   -3.7270   19.7850  -32.4790 H   0  0  0  0  0  0  0  0  0  0  0  0
   -5.2558   16.8175  -31.6301 H   0  0  0  0  0  0  0  0  0  0  0  0
   -6.1815   15.9586  -32.9076 H   0  0  0  0  0  0  0  0  0  0  0  0
   -4.3861   15.9020  -32.9076 H   0  0  0  0  0  0  0  0  0  0  0  0
   -6.2707   19.3931  -34.2891 H   0  0  0  0  0  0  0  0  0  0  0  0
   -7.0079   17.7858  -34.6417 H   0  0  0  0  0  0  0  0  0  0  0  0
   -8.4046   18.1968  -32.9090 H   0  0  0  0  0  0  0  0  0  0  0  0
   -6.9761   17.9097  -31.8433 H   0  0  0  0  0  0  0  0  0  0  0  0
   -9.6036   20.1194  -32.4169 H   0  0  0  0  0  0  0  0  0  0  0  0
   -9.6940   22.5310  -31.7062 H   0  0  0  0  0  0  0  0  0  0  0  0
   -8.0642   24.7104  -30.8464 H   0  0  0  0  0  0  0  0  0  0  0  0
   -3.0990   25.2790  -30.4450 H   0  0  0  0  0  0  0  0  0  0  0  0
   -2.7556   21.7147  -28.6005 H   0  0  0  0  0  0  0  0  0  0  0  0
   -1.3928   22.1766  -29.6952 H   0  0  0  0  0  0  0  0  0  0  0  0
   -2.5951   24.0244  -27.5989 H   0  0  0  0  0  0  0  0  0  0  0  0
   -1.3274   23.1571  -25.9586 H   0  0  0  0  0  0  0  0  0  0  0  0
   -1.1261   21.7249  -27.0239 H   0  0  0  0  0  0  0  0  0  0  0  0
    0.1129   23.0255  -27.0239 H   0  0  0  0  0  0  0  0  0  0  0  0
   -5.2783   20.1192  -31.8669 H   0  0  0  0  0  0  0  0  0  0  0  0
  1  2  1  0
  2  3  1  0
  3  4  2  0
  3  5  1  0
  5  6  1  0
  5  7  1  0
  7  8  1  0
  8  9  1  0
  9 10  2  0
 10 11  1  0
 11 12  2  0
 12 13  1  0
 13 14  2  0
 14 15  1  0
 15 16  1  0
 15 17  2  0
 14 18  1  0
 18 19  1  0
 19 20  2  0
 19 21  1  0
 21 22  1  0
 22 23  1  0
 23 24  1  0
 23 25  1  0
 25 26  2  0
 25 27  1  0
 18 28  1  0
 28 29  2  0
 29  9  1  0
 28 12  1  0
  1 30  1  0
  1 31  1  0
  1 32  1  0
  2 33  1  0
  6 34  1  0
  6 35  1  0
  6 36  1  0
  7 37  1  0
  7 38  1  0
  8 39  1  0
  8 40  1  0
 10 41  1  0
 11 42  1  0
 13 43  1  0
 16 44  1  0
 22 45  1  0
 22 46  1  0
 23 47  1  1
 24 48  1  0
 24 49  1  0
 24 50  1  0
 29 51  1  0
M  CHG  2  16  -1  27  -1
M  END
>  <UniqueID>  (75) 
75

>  <SMILES>  (75) 
CNC(=O)N(C)CCc1ccc2cc(C([NH-])=O)n(C(=O)OC[C@@H](C)C(=O)[O-])c2c1

>  <Energy>  (75) 
74.99310131106498

>  <Genealogy>  (75) 
CNC(=O)N(C)CCc1ccc2cc(C([NH-])=O)n(C(=O)OCC(C)C(=O)[O-])c2c1 (protonated)
CNC(=O)N(C)CCc1ccc2cc(C([NH-])=O)n(C(=O)OC[C@@H](C)C(=O)[O-])c2c1 (chirality)
CNC(=O)N(C)CCc1ccc2cc(C([NH-])=O)n(C(=O)OC[C@@H](C)C(=O)[O-])c2c1 (3D coordinates assigned)
CNC(=O)N(C)CCc1ccc2cc(C([NH-])=O)n(C(=O)OC[C@@H](C)C(=O)[O-])c2c1 (optimized conformer: 74.99310131106498 kcal/mol)

>  <smiles>  (75) 
CNC(=O)N(C)CCc1ccc2cc(C(N)=O)n(C(=O)OCC(C)C(=O)O)c2c1

>  <score_type>  (75) 
oracle

>  <origin>  (75) 
adg

>  <m_score__min__energy>  (75) 
-13.06

>  <m_primary>  (75) 
energy

$$$$
75:0
     RDKit          3D

 44 46  0  0  0  0  0  0  0  0999 V2000
   -2.9590   24.8530  -26.9010 C   0  0  0  0  0  0  0  0  0  0  0  0
   -2.5410   23.9320  -27.9640 N   0  0  0  0  0  0  0  0  0  0  0  0
   -1.2260   24.0890  -28.5960 C   0  0  0  0  0  0  0  0  0  0  0  0
   -3.4470   22.8920  -28.3880 C   0  0  0  0  0  0  0  0  0  0  0  0
   -4.6080   22.8420  -27.8950 O   0  0  0  0  0  0  0  0  0  0  0  0
   -3.0540   21.9020  -29.4600 C   0  0  0  0  0  0  0  0  0  0  0  0
   -3.4800   22.3540  -30.8290 C   0  0  0  0  0  0  0  0  0  0  0  0
   -2.6090   22.5260  -31.7240 O   0  0  0  0  0  0  0  0  0  0  0  0
   -4.8710   22.5110  -31.1520 N   0  0  0  0  0  0  0  0  0  0  0  0
   -5.6980   23.5430  -30.8240 C   0  0  0  0  0  0  0  0  0  0  0  0
   -5.2910   24.8150  -30.1920 C   0  0  0  0  0  0  0  0  0  0  0  0
   -5.6640   25.1290  -28.8490 N   0  0  0  0  0  0  0  0  0  0  0  0
   -4.5680   25.6210  -30.8340 O   0  0  0  0  0  0  0  0  0  0  0  0
   -7.0070   23.2590  -31.2060 C   0  0  0  0  0  0  0  0  0  0  0  0
   -6.9530   22.0160  -31.7960 C   0  0  0  0  0  0  0  0  0  0  0  0
   -7.9650   21.2410  -32.3510 C   0  0  0  0  0  0  0  0  0  0  0  0
   -7.6230   19.9780  -32.8630 C   0  0  0  0  0  0  0  0  0  0  0  0
   -6.2870   19.5030  -32.8020 C   0  0  0  0  0  0  0  0  0  0  0  0
   -5.9590   18.1600  -33.3460 C   0  0  0  0  0  0  0  0  0  0  0  0
   -6.8810   17.0980  -33.2980 C   0  0  0  0  0  0  0  0  0  0  0  0
   -6.5260   15.8550  -33.8270 C   0  0  0  0  0  0  0  0  0  0  0  0
   -5.2670   15.6750  -34.4010 C   0  0  0  0  0  0  0  0  0  0  0  0
   -4.3790   16.7510  -34.4430 C   0  0  0  0  0  0  0  0  0  0  0  0
   -3.1540   16.5990  -35.0040 F   0  0  0  0  0  0  0  0  0  0  0  0
   -4.7410   17.9530  -33.9230 N   0  0  0  0  0  0  0  0  0  0  0  0
   -5.2840   20.3290  -32.2370 C   0  0  0  0  0  0  0  0  0  0  0  0
   -5.6530   21.5870  -31.7500 C   0  0  0  0  0  0  0  0  0  0  0  0
   -2.7529   24.3990  -25.9205 H   0  0  0  0  0  0  0  0  0  0  0  0
   -2.4009   25.7964  -26.9928 H   0  0  0  0  0  0  0  0  0  0  0  0
   -4.0366   25.0541  -26.9928 H   0  0  0  0  0  0  0  0  0  0  0  0
   -0.4539   24.1812  -27.8179 H   0  0  0  0  0  0  0  0  0  0  0  0
   -1.0127   23.2099  -29.2219 H   0  0  0  0  0  0  0  0  0  0  0  0
   -1.2256   24.9936  -29.2219 H   0  0  0  0  0  0  0  0  0  0  0  0
   -1.9605   21.7832  -29.4497 H   0  0  0  0  0  0  0  0  0  0  0  0
   -3.5603   20.9496  -29.2443 H   0  0  0  0  0  0  0  0  0  0  0  0
   -6.1000   24.4150  -28.2250 H   0  0  0  0  0  0  0  0  0  0  0  0
   -5.4160   26.0590  -28.4420 H   0  0  0  0  0  0  0  0  0  0  0  0
   -7.8950   23.8929  -31.0661 H   0  0  0  0  0  0  0  0  0  0  0  0
   -9.0022   21.6056  -32.3882 H   0  0  0  0  0  0  0  0  0  0  0  0
   -8.4020   19.3483  -33.3177 H   0  0  0  0  0  0  0  0  0  0  0  0
   -7.8736   17.2456  -32.8474 H   0  0  0  0  0  0  0  0  0  0  0  0
   -7.2389   15.0180  -33.7911 H   0  0  0  0  0  0  0  0  0  0  0  0
   -4.9781   14.6977  -34.8151 H   0  0  0  0  0  0  0  0  0  0  0  0
   -4.2394   19.9887  -32.1827 H   0  0  0  0  0  0  0  0  0  0  0  0
  1  2  1  0
  2  3  1  0
  2  4  1  0
  4  5  2  0
  4  6  1  0
  6  7  1  0
  7  8  2  0
  7  9  1  0
  9 10  1  0
 10 11  1  0
 11 12  1  0
 11 13  2  0
 10 14  2  0
 14 15  1  0
 15 16  2  0
 16 17  1  0
 17 18  2  0
 18 19  1  0
 19 20  2  0
 20 21  1  0
 21 22  2  0
 22 23  1  0
 23 24  1  0
 23 25  2  0
 18 26  1  0
 26 27  2  0
 27  9  1  0
 27 15  1  0
 25 19  1  0
  1 28  1  0
  1 29  1  0
  1 30  1  0
  3 31  1  0
  3 32  1  0
  3 33  1  0
  6 34  1  0
  6 35  1  0
 12 36  1  0
 12 37  1  0
 14 38  1  0
 16 39  1  0
 17 40  1  0
 20 41  1  0
 21 42  1  0
 22 43  1  0
 26 44  1  0
M  END
>  <UniqueID>  (76) 
76

>  <SMILES>  (76) 
CN(C)C(=O)CC(=O)n1c(C(N)=O)cc2ccc(-c3cccc(F)n3)cc21

>  <Energy>  (76) 
88.30981027831392

>  <Genealogy>  (76) 
CN(C)C(=O)CC(=O)n1c(C(N)=O)cc2ccc(-c3cccc(F)n3)cc21 (3D coordinates assigned)
CN(C)C(=O)CC(=O)n1c(C(N)=O)cc2ccc(-c3cccc(F)n3)cc21 (optimized conformer: 88.30981027831392 kcal/mol)

>  <smiles>  (76) 
CN(C)C(=O)CC(=O)n1c(C(N)=O)cc2ccc(-c3cccc(F)n3)cc21

>  <score_type>  (76) 
oracle

>  <origin>  (76) 
adg

>  <m_score__min__energy>  (76) 
-10.01

>  <m_primary>  (76) 
energy

$$$$
76:0
     RDKit          3D

 48 49  0  0  0  0  0  0  0  0999 V2000
   -2.7740   20.8060  -33.4720 C   0  0  0  0  0  0  0  0  0  0  0  0
   -3.2640   19.3750  -33.6650 C   0  0  0  0  0  0  0  0  0  0  0  0
   -4.6020   19.3640  -34.1580 O   0  0  0  0  0  0  0  0  0  0  0  0
   -5.2780   18.1930  -34.5230 C   0  0  0  0  0  0  0  0  0  0  0  0
   -4.8300   17.4480  -35.4360 O   0  0  0  0  0  0  0  0  0  0  0  0
   -6.5710   17.8430  -33.8500 C   0  0  0  0  0  0  0  0  0  0  0  0
   -6.5910   18.3470  -32.4680 N   0  0  0  0  0  0  0  0  0  0  0  0
   -6.4420   17.3830  -31.3700 C   0  0  0  0  0  0  0  0  0  0  0  0
   -6.7900   19.7560  -32.1840 C   0  0  0  0  0  0  0  0  0  0  0  0
   -8.0690   20.3580  -32.3440 C   0  0  0  0  0  0  0  0  0  0  0  0
   -8.2730   21.7180  -32.0560 C   0  0  0  0  0  0  0  0  0  0  0  0
   -7.1850   22.4620  -31.6160 C   0  0  0  0  0  0  0  0  0  0  0  0
   -7.1110   23.7830  -31.2430 C   0  0  0  0  0  0  0  0  0  0  0  0
   -5.7820   23.9910  -30.8780 C   0  0  0  0  0  0  0  0  0  0  0  0
   -5.2420   25.3080  -30.4860 C   0  0  0  0  0  0  0  0  0  0  0  0
   -3.9180   25.6740  -30.8660 N   0  0  0  0  0  0  0  0  0  0  0  0
   -5.9240   26.1020  -29.7850 O   0  0  0  0  0  0  0  0  0  0  0  0
   -5.0650   22.8400  -31.0140 N   0  0  0  0  0  0  0  0  0  0  0  0
   -3.6880   22.6190  -30.6670 C   0  0  0  0  0  0  0  0  0  0  0  0
   -2.7820   23.2830  -31.2410 O   0  0  0  0  0  0  0  0  0  0  0  0
   -3.3590   21.6470  -29.7150 O   0  0  0  0  0  0  0  0  0  0  0  0
   -2.8820   21.9520  -28.4050 C   0  0  0  0  0  0  0  0  0  0  0  0
   -2.7610   20.6550  -27.6080 C   0  0  0  0  0  0  0  0  0  0  0  0
   -3.8380   22.9240  -27.7040 C   0  0  0  0  0  0  0  0  0  0  0  0
   -5.9400   21.9130  -31.4670 C   0  0  0  0  0  0  0  0  0  0  0  0
   -5.7110   20.5570  -31.7290 C   0  0  0  0  0  0  0  0  0  0  0  0
   -2.6987   21.0259  -32.3968 H   0  0  0  0  0  0  0  0  0  0  0  0
   -1.7852   20.9212  -33.9400 H   0  0  0  0  0  0  0  0  0  0  0  0
   -3.4846   21.5032  -33.9400 H   0  0  0  0  0  0  0  0  0  0  0  0
   -2.6092   18.8629  -34.3854 H   0  0  0  0  0  0  0  0  0  0  0  0
   -3.2399   18.8583  -32.6942 H   0  0  0  0  0  0  0  0  0  0  0  0
   -7.4034   18.2933  -34.4107 H   0  0  0  0  0  0  0  0  0  0  0  0
   -6.6735   16.7480  -33.8286 H   0  0  0  0  0  0  0  0  0  0  0  0
   -6.5232   17.9086  -30.4071 H   0  0  0  0  0  0  0  0  0  0  0  0
   -7.2332   16.6220  -31.4403 H   0  0  0  0  0  0  0  0  0  0  0  0
   -5.4580   16.8964  -31.4403 H   0  0  0  0  0  0  0  0  0  0  0  0
   -8.9128   19.7482  -32.6993 H   0  0  0  0  0  0  0  0  0  0  0  0
   -9.2642   22.1799  -32.1753 H   0  0  0  0  0  0  0  0  0  0  0  0
   -7.9277   24.5199  -31.2344 H   0  0  0  0  0  0  0  0  0  0  0  0
   -3.0880   25.2510  -30.3950 H   0  0  0  0  0  0  0  0  0  0  0  0
   -1.8955   22.4337  -28.4738 H   0  0  0  0  0  0  0  0  0  0  0  0
   -2.7822   20.8825  -26.5320 H   0  0  0  0  0  0  0  0  0  0  0  0
   -3.6011   19.9907  -27.8590 H   0  0  0  0  0  0  0  0  0  0  0  0
   -1.8125   20.1576  -27.8590 H   0  0  0  0  0  0  0  0  0  0  0  0
   -3.7341   22.8184  -26.6140 H   0  0  0  0  0  0  0  0  0  0  0  0
   -3.5926   23.9553  -27.9975 H   0  0  0  0  0  0  0  0  0  0  0  0
   -4.8733   22.6957  -27.9975 H   0  0  0  0  0  0  0  0  0  0  0  0
   -4.7118   20.1201  -31.5846 H   0  0  0  0  0  0  0  0  0  0  0  0
  1  2  1  0
  2  3  1  0
  3  4  1  0
  4  5  2  0
  4  6  1  0
  6  7  1  0
  7  8  1  0
  7  9  1  0
  9 10  2  0
 10 11  1  0
 11 12  2  0
 12 13  1  0
 13 14  2  0
 14 15  1  0
 15 16  1  0
 15 17  2  0
 14 18  1  0
 18 19  1  0
 19 20  2  0
 19 21  1  0
 21 22  1  0
 22 23  1  0
 22 24  1  0
 18 25  1  0
 25 26  2  0
 26  9  1  0
 25 12  1  0
  1 27  1  0
  1 28  1  0
  1 29  1  0
  2 30  1  0
  2 31  1  0
  6 32  1  0
  6 33  1  0
  8 34  1  0
  8 35  1  0
  8 36  1  0
 10 37  1  0
 11 38  1  0
 13 39  1  0
 16 40  1  0
 22 41  1  0
 23 42  1  0
 23 43  1  0
 23 44  1  0
 24 45  1  0
 24 46  1  0
 24 47  1  0
 26 48  1  0
M  CHG  1  16  -1
M  END
>  <UniqueID>  (77) 
77

>  <SMILES>  (77) 
CCOC(=O)CN(C)c1ccc2cc(C([NH-])=O)n(C(=O)OC(C)C)c2c1

>  <Energy>  (77) 
77.03361089236398

>  <Genealogy>  (77) 
CCOC(=O)CN(C)c1ccc2cc(C([NH-])=O)n(C(=O)OC(C)C)c2c1 (protonated)
CCOC(=O)CN(C)c1ccc2cc(C([NH-])=O)n(C(=O)OC(C)C)c2c1 (3D coordinates assigned)
CCOC(=O)CN(C)c1ccc2cc(C([NH-])=O)n(C(=O)OC(C)C)c2c1 (optimized conformer: 77.03361089236398 kcal/mol)

>  <smiles>  (77) 
CCOC(=O)CN(C)c1ccc2cc(C(N)=O)n(C(=O)OC(C)C)c2c1

>  <score_type>  (77) 
oracle

>  <origin>  (77) 
adg

>  <m_score__min__energy>  (77) 
-9.8000000000000007

>  <m_primary>  (77) 
energy

$$$$
77:0
     RDKit          3D

 39 41  0  0  0  0  0  0  0  0999 V2000
   -3.3760   21.9140  -28.3990 C   0  0  0  0  0  0  0  0  0  0  0  0
   -3.4600   21.5670  -29.7750 O   0  0  0  0  0  0  0  0  0  0  0  0
   -3.8440   22.4800  -30.7610 C   0  0  0  0  0  0  0  0  0  0  0  0
   -2.9890   22.9410  -31.5680 O   0  0  0  0  0  0  0  0  0  0  0  0
   -5.2120   22.9120  -30.8400 N   0  0  0  0  0  0  0  0  0  0  0  0
   -5.7080   24.1680  -30.6430 C   0  0  0  0  0  0  0  0  0  0  0  0
   -4.9100   25.3940  -30.4330 C   0  0  0  0  0  0  0  0  0  0  0  0
   -3.5180   25.2930  -30.1420 N   0  0  0  0  0  0  0  0  0  0  0  0
   -5.4500   26.5310  -30.4720 O   0  0  0  0  0  0  0  0  0  0  0  0
   -7.0970   24.1650  -30.7490 C   0  0  0  0  0  0  0  0  0  0  0  0
   -7.4400   22.8620  -31.0260 C   0  0  0  0  0  0  0  0  0  0  0  0
   -8.6920   22.2890  -31.2220 C   0  0  0  0  0  0  0  0  0  0  0  0
   -8.7530   20.9070  -31.4680 C   0  0  0  0  0  0  0  0  0  0  0  0
   -7.5700   20.1230  -31.5050 C   0  0  0  0  0  0  0  0  0  0  0  0
   -7.6370   18.6320  -31.7630 C   0  0  1  0  0  0  0  0  0  0  0  0
   -9.0860   18.1640  -31.9630 C   0  0  0  0  0  0  0  0  0  0  0  0
   -6.7790   18.2670  -32.8970 N   0  0  0  0  0  0  0  0  0  0  0  0
   -6.4460   19.0090  -33.9790 C   0  0  0  0  0  0  0  0  0  0  0  0
   -5.5600   18.3860  -34.7850 N   0  0  0  0  0  0  0  0  0  0  0  0
   -5.3310   17.2120  -34.1660 C   0  0  0  0  0  0  0  0  0  0  0  0
   -4.4290   16.2090  -34.6560 C   0  0  0  0  0  0  0  0  0  0  0  0
   -3.7010   15.4000  -35.0510 N   0  0  0  0  0  0  0  0  0  0  0  0
   -6.0650   17.1330  -33.0060 C   0  0  0  0  0  0  0  0  0  0  0  0
   -6.3170   20.7440  -31.2990 C   0  0  0  0  0  0  0  0  0  0  0  0
   -6.2850   22.1260  -31.0760 C   0  0  0  0  0  0  0  0  0  0  0  0
   -3.5905   21.0278  -27.7836 H   0  0  0  0  0  0  0  0  0  0  0  0
   -2.3633   22.2800  -28.1743 H   0  0  0  0  0  0  0  0  0  0  0  0
   -4.1092   22.7027  -28.1743 H   0  0  0  0  0  0  0  0  0  0  0  0
   -2.8360   24.9970  -30.8760 H   0  0  0  0  0  0  0  0  0  0  0  0
   -7.7759   25.0230  -30.6353 H   0  0  0  0  0  0  0  0  0  0  0  0
   -9.6066   22.8991  -31.1855 H   0  0  0  0  0  0  0  0  0  0  0  0
   -9.7287   20.4269  -31.6339 H   0  0  0  0  0  0  0  0  0  0  0  0
   -7.2548   18.1088  -30.8741 H   0  0  0  0  0  0  0  0  0  0  0  0
   -9.5605   18.0108  -30.9825 H   0  0  0  0  0  0  0  0  0  0  0  0
   -9.6437   18.9277  -32.5249 H   0  0  0  0  0  0  0  0  0  0  0  0
   -9.0916   17.2183  -32.5249 H   0  0  0  0  0  0  0  0  0  0  0  0
   -6.8531   20.0110  -34.1798 H   0  0  0  0  0  0  0  0  0  0  0  0
   -6.0676   16.2934  -32.2953 H   0  0  0  0  0  0  0  0  0  0  0  0
   -5.3881   20.1549  -31.3135 H   0  0  0  0  0  0  0  0  0  0  0  0
  1  2  1  0
  2  3  1  0
  3  4  2  0
  3  5  1  0
  5  6  1  0
  6  7  1  0
  7  8  1  0
  7  9  2  0
  6 10  2  0
 10 11  1  0
 11 12  2  0
 12 13  1  0
 13 14  2  0
 14 15  1  0
 15 16  1  0
 15 17  1  0
 17 18  1  0
 18 19  2  0
 19 20  1  0
 20 21  1  0
 21 22  3  0
 20 23  2  0
 14 24  1  0
 24 25  2  0
 25  5  1  0
 25 11  1  0
 23 17  1  0
  1 26  1  0
  1 27  1  0
  1 28  1  0
  8 29  1  0
 10 30  1  0
 12 31  1  0
 13 32  1  0
 15 33  1  1
 16 34  1  0
 16 35  1  0
 16 36  1  0
 18 37  1  0
 23 38  1  0
 24 39  1  0
M  CHG  1   8  -1
M  END
>  <UniqueID>  (78) 
78

>  <SMILES>  (78) 
COC(=O)n1c(C([NH-])=O)cc2ccc([C@@H](C)n3cnc(C#N)c3)cc21

>  <Energy>  (78) 
105.55437044301289

>  <Genealogy>  (78) 
COC(=O)n1c(C([NH-])=O)cc2ccc([C@@H](C)n3cnc(C#N)c3)cc21 (protonated)
COC(=O)n1c(C([NH-])=O)cc2ccc([C@@H](C)n3cnc(C#N)c3)cc21 (3D coordinates assigned)
COC(=O)n1c(C([NH-])=O)cc2ccc([C@@H](C)n3cnc(C#N)c3)cc21 (optimized conformer: 105.55437044301289 kcal/mol)

>  <smiles>  (78) 
COC(=O)n1c(C(N)=O)cc2ccc([C@@H](C)n3cnc(C#N)c3)cc21

>  <score_type>  (78) 
oracle

>  <origin>  (78) 
adg

>  <m_score__min__energy>  (78) 
-10.460000000000001

>  <m_primary>  (78) 
energy

$$$$
78:0
     RDKit          3D

 48 50  0  0  0  0  0  0  0  0999 V2000
   -6.4180   23.5670  -32.1620 C   0  0  0  0  0  0  0  0  0  0  0  0
   -6.4050   23.2300  -30.7280 N   0  0  0  0  0  0  0  0  0  0  0  0
   -7.5960   22.6240  -30.1210 C   0  0  0  0  0  0  0  0  0  0  0  0
   -5.2660   23.5090  -29.8750 C   0  0  0  0  0  0  0  0  0  0  0  0
   -5.3620   23.2820  -28.6370 O   0  0  0  0  0  0  0  0  0  0  0  0
   -3.9710   24.0460  -30.3740 C   0  0  0  0  0  0  0  0  0  0  0  0
   -3.8570   25.2500  -30.7260 O   0  0  0  0  0  0  0  0  0  0  0  0
   -2.8090   23.2020  -30.4120 N   0  0  0  0  0  0  0  0  0  0  0  0
   -1.5930   23.4240  -29.8390 C   0  0  0  0  0  0  0  0  0  0  0  0
   -1.2670   24.5470  -28.9310 C   0  0  0  0  0  0  0  0  0  0  0  0
   -2.2880   25.4230  -28.4500 N   0  0  0  0  0  0  0  0  0  0  0  0
   -0.0730   24.7530  -28.5860 O   0  0  0  0  0  0  0  0  0  0  0  0
   -0.7160   22.3810  -30.1410 C   0  0  0  0  0  0  0  0  0  0  0  0
   -1.4440   21.5040  -30.9120 C   0  0  0  0  0  0  0  0  0  0  0  0
   -1.0730   20.2920  -31.4870 C   0  0  0  0  0  0  0  0  0  0  0  0
   -2.0370   19.6000  -32.2440 C   0  0  0  0  0  0  0  0  0  0  0  0
   -3.3390   20.1300  -32.4060 C   0  0  0  0  0  0  0  0  0  0  0  0
   -4.3090   19.4170  -33.1740 N   0  0  0  0  0  0  0  0  0  0  0  0
   -5.7100   19.6040  -33.6040 C   0  0  0  0  0  0  0  0  0  0  0  0
   -5.8100   18.3150  -34.3620 C   0  0  0  0  0  0  0  0  0  0  0  0
   -6.7390   17.3310  -33.7620 N   0  0  0  0  0  0  0  0  0  0  0  0
   -6.8510   15.9440  -34.2310 C   0  0  0  0  0  0  0  0  0  0  0  0
   -7.5700   17.7110  -32.6510 C   0  0  0  0  0  0  0  0  0  0  0  0
   -8.4470   18.6060  -32.7690 O   0  0  0  0  0  0  0  0  0  0  0  0
   -4.3810   18.1550  -33.9380 C   0  0  0  0  0  0  0  0  0  0  0  0
   -3.6800   21.3610  -31.8110 C   0  0  0  0  0  0  0  0  0  0  0  0
   -2.7040   22.0230  -31.0580 C   0  0  0  0  0  0  0  0  0  0  0  0
   -6.4602   24.6597  -32.2815 H   0  0  0  0  0  0  0  0  0  0  0  0
   -5.5043   23.1811  -32.6376 H   0  0  0  0  0  0  0  0  0  0  0  0
   -7.2993   23.1119  -32.6376 H   0  0  0  0  0  0  0  0  0  0  0  0
   -7.5113   22.6671  -29.0251 H   0  0  0  0  0  0  0  0  0  0  0  0
   -8.4920   23.1758  -30.4415 H   0  0  0  0  0  0  0  0  0  0  0  0
   -7.6774   21.5749  -30.4415 H   0  0  0  0  0  0  0  0  0  0  0  0
   -3.2960   25.2430  -28.6520 H   0  0  0  0  0  0  0  0  0  0  0  0
   -2.0370   26.2390  -27.8510 H   0  0  0  0  0  0  0  0  0  0  0  0
    0.3341   22.2813  -29.8290 H   0  0  0  0  0  0  0  0  0  0  0  0
   -0.0586   19.8878  -31.3541 H   0  0  0  0  0  0  0  0  0  0  0  0
   -1.7763   18.6399  -32.7132 H   0  0  0  0  0  0  0  0  0  0  0  0
   -6.4115   19.6560  -32.7583 H   0  0  0  0  0  0  0  0  0  0  0  0
   -5.9500   20.5286  -34.1494 H   0  0  0  0  0  0  0  0  0  0  0  0
   -6.1526   18.2376  -35.4044 H   0  0  0  0  0  0  0  0  0  0  0  0
   -6.9056   15.2675  -33.3653 H   0  0  0  0  0  0  0  0  0  0  0  0
   -7.7609   15.8350  -34.8395 H   0  0  0  0  0  0  0  0  0  0  0  0
   -5.9704   15.6905  -34.8395 H   0  0  0  0  0  0  0  0  0  0  0  0
   -7.4365   17.2103  -31.6807 H   0  0  0  0  0  0  0  0  0  0  0  0
   -4.2205   17.2669  -33.3091 H   0  0  0  0  0  0  0  0  0  0  0  0
   -3.6344   18.0036  -34.7315 H   0  0  0  0  0  0  0  0  0  0  0  0
   -4.6855   21.7896  -31.9350 H   0  0  0  0  0  0  0  0  0  0  0  0
  1  2  1  0
  2  3  1  0
  2  4  1  0
  4  5  2  0
  4  6  1  0
  6  7  2  0
  6  8  1  0
  8  9  1  0
  9 10  1  0
 10 11  1  0
 10 12  2  0
  9 13  2  0
 13 14  1  0
 14 15  2  0
 15 16  1  0
 16 17  2  0
 17 18  1  0
 18 19  1  0
 19 20  1  0
 20 21  1  0
 21 22  1  0
 21 23  1  0
 23 24  2  0
 20 25  1  0
 17 26  1  0
 26 27  2  0
 27  8  1  0
 27 14  1  0
 25 18  1  0
  1 28  1  0
  1 29  1  0
  1 30  1  0
  3 31  1  0
  3 32  1  0
  3 33  1  0
 11 34  1  0
 11 35  1  0
 13 36  1  0
 15 37  1  0
 16 38  1  0
 19 39  1  0
 19 40  1  0
 20 41  1  0
 22 42  1  0
 22 43  1  0
 22 44  1  0
 23 45  1  0
 25 46  1  0
 25 47  1  0
 26 48  1  0
M  END
>  <UniqueID>  (79) 
79

>  <SMILES>  (79) 
CN(C)C(=O)C(=O)n1c(C(N)=O)cc2ccc(N3CC(N(C)C=O)C3)cc21

>  <Energy>  (79) 
134.1282159755908

>  <Genealogy>  (79) 
CN(C)C(=O)C(=O)n1c(C(N)=O)cc2ccc(N3CC(N(C)C=O)C3)cc21 (3D coordinates assigned)
CN(C)C(=O)C(=O)n1c(C(N)=O)cc2ccc(N3CC(N(C)C=O)C3)cc21 (nonaromatic ring conformer: 134.1282159755908 kcal/mol)

>  <smiles>  (79) 
CN(C)C(=O)C(=O)n1c(C(N)=O)cc2ccc(N3CC(N(C)C=O)C3)cc21

>  <score_type>  (79) 
oracle

>  <origin>  (79) 
adg

>  <m_score__min__energy>  (79) 
-9.0999999999999996

>  <m_primary>  (79) 
energy

$$$$
79:0
     RDKit          3D

 75 76  0  0  0  0  0  0  0  0999 V2000
   -0.7740   17.3920  -32.4000 C   0  0  0  0  0  0  0  0  0  0  0  0
   -2.1200   17.6840  -32.7100 O   0  0  0  0  0  0  0  0  0  0  0  0
   -2.3470   17.5630  -34.1030 C   0  0  0  0  0  0  0  0  0  0  0  0
   -3.6250   18.3090  -34.5190 C   0  0  0  0  0  0  0  0  0  0  0  0
   -4.3790   18.8340  -33.3550 N   0  0  0  0  0  0  0  0  0  0  0  0
   -5.4520   17.9300  -32.8980 C   0  0  0  0  0  0  0  0  0  0  0  0
   -6.8490   18.2990  -33.4450 C   0  0  0  0  0  0  0  0  0  0  0  0
   -7.8960   18.6190  -32.3640 C   0  0  0  0  0  0  0  0  0  0  0  0
   -7.7550   20.0190  -31.8240 C   0  0  0  0  0  0  0  0  0  0  0  0
   -8.8790   20.6980  -31.2930 C   0  0  0  0  0  0  0  0  0  0  0  0
   -8.7590   22.0090  -30.8050 C   0  0  0  0  0  0  0  0  0  0  0  0
   -7.5100   22.6190  -30.8720 C   0  0  0  0  0  0  0  0  0  0  0  0
   -7.1120   23.8670  -30.4540 C   0  0  0  0  0  0  0  0  0  0  0  0
   -5.7560   23.9450  -30.7600 C   0  0  0  0  0  0  0  0  0  0  0  0
   -4.9460   25.1620  -30.5560 C   0  0  0  0  0  0  0  0  0  0  0  0
   -3.6010   25.0750  -30.0930 N   0  0  0  0  0  0  0  0  0  0  0  0
   -5.4270   26.2890  -30.8460 O   0  0  0  0  0  0  0  0  0  0  0  0
   -5.3270   22.7860  -31.3370 N   0  0  0  0  0  0  0  0  0  0  0  0
   -3.9800   22.4320  -31.6880 C   0  0  0  0  0  0  0  0  0  0  0  0
   -3.0500   23.2730  -31.5470 O   0  0  0  0  0  0  0  0  0  0  0  0
   -3.7140   21.1650  -32.2200 O   0  0  0  0  0  0  0  0  0  0  0  0
   -2.4000   20.6350  -32.3920 C   0  0  1  0  0  0  0  0  0  0  0  0
   -1.6140   21.4900  -33.3940 C   0  0  0  0  0  0  0  0  0  0  0  0
   -1.7040   20.6110  -31.0280 C   0  0  0  0  0  0  0  0  0  0  0  0
   -2.6530   20.3590  -30.0170 O   0  0  0  0  0  0  0  0  0  0  0  0
   -2.3050   21.3150  -28.6080 Si  0  0  0  0  0  4  0  0  0  0  0  0
   -0.9140   22.5230  -28.9580 C   0  0  0  0  0  0  0  0  0  0  0  0
   -3.8230   22.2850  -28.0860 C   0  0  0  0  0  0  0  0  0  0  0  0
   -1.7900   20.1140  -27.2240 C   0  0  0  0  0  0  0  0  0  0  0  0
   -1.2220   20.9220  -26.0440 C   0  0  0  0  0  0  0  0  0  0  0  0
   -3.0020   19.2950  -26.7480 C   0  0  0  0  0  0  0  0  0  0  0  0
   -0.7060   19.1630  -27.7610 C   0  0  0  0  0  0  0  0  0  0  0  0
   -6.4150   21.9840  -31.4000 C   0  0  0  0  0  0  0  0  0  0  0  0
   -6.5010   20.6690  -31.8710 C   0  0  0  0  0  0  0  0  0  0  0  0
   -0.6470   17.3644  -31.3077 H   0  0  0  0  0  0  0  0  0  0  0  0
   -0.5036   16.4143  -32.8254 H   0  0  0  0  0  0  0  0  0  0  0  0
   -0.1227   18.1697  -32.8254 H   0  0  0  0  0  0  0  0  0  0  0  0
   -1.4896   17.9878  -34.6456 H   0  0  0  0  0  0  0  0  0  0  0  0
   -2.4676   16.4973  -34.3475 H   0  0  0  0  0  0  0  0  0  0  0  0
   -3.3461   19.1520  -35.1683 H   0  0  0  0  0  0  0  0  0  0  0  0
   -4.2748   17.5931  -35.0435 H   0  0  0  0  0  0  0  0  0  0  0  0
   -4.7650   19.7890  -33.5290 H   0  0  0  0  0  0  0  0  0  0  0  0
   -3.7080   18.9370  -32.5580 H   0  0  0  0  0  0  0  0  0  0  0  0
   -5.2090   16.9086  -33.2263 H   0  0  0  0  0  0  0  0  0  0  0  0
   -5.5019   18.0177  -31.8026 H   0  0  0  0  0  0  0  0  0  0  0  0
   -6.7420   19.1827  -34.0913 H   0  0  0  0  0  0  0  0  0  0  0  0
   -7.2172   17.4130  -33.9831 H   0  0  0  0  0  0  0  0  0  0  0  0
   -8.8996   18.5082  -32.8005 H   0  0  0  0  0  0  0  0  0  0  0  0
   -7.7402   17.9202  -31.5289 H   0  0  0  0  0  0  0  0  0  0  0  0
   -9.8558   20.1931  -31.2627 H   0  0  0  0  0  0  0  0  0  0  0  0
   -9.6260   22.5379  -30.3825 H   0  0  0  0  0  0  0  0  0  0  0  0
   -7.7334   24.6401  -29.9785 H   0  0  0  0  0  0  0  0  0  0  0  0
   -2.7980   25.2830  -30.7280 H   0  0  0  0  0  0  0  0  0  0  0  0
   -2.4518   19.6120  -32.7930 H   0  0  0  0  0  0  0  0  0  0  0  0
   -0.9676   22.1931  -32.8483 H   0  0  0  0  0  0  0  0  0  0  0  0
   -0.9942   20.8372  -34.0261 H   0  0  0  0  0  0  0  0  0  0  0  0
   -2.3166   22.0529  -34.0261 H   0  0  0  0  0  0  0  0  0  0  0  0
   -0.9415   19.8182  -31.0201 H   0  0  0  0  0  0  0  0  0  0  0  0
   -1.2254   21.5844  -30.8451 H   0  0  0  0  0  0  0  0  0  0  0  0
   -0.4959   22.8861  -28.0076 H   0  0  0  0  0  0  0  0  0  0  0  0
   -0.1262   22.0176  -29.5359 H   0  0  0  0  0  0  0  0  0  0  0  0
   -1.3040   23.3739  -29.5359 H   0  0  0  0  0  0  0  0  0  0  0  0
   -3.8765   22.3192  -26.9878 H   0  0  0  0  0  0  0  0  0  0  0  0
   -3.7578   23.3092  -28.4820 H   0  0  0  0  0  0  0  0  0  0  0  0
   -4.7250   21.7955  -28.4820 H   0  0  0  0  0  0  0  0  0  0  0  0
   -1.5440   20.4639  -25.0972 H   0  0  0  0  0  0  0  0  0  0  0  0
   -0.1232   20.9233  -26.0957 H   0  0  0  0  0  0  0  0  0  0  0  0
   -1.5927   21.9564  -26.0957 H   0  0  0  0  0  0  0  0  0  0  0  0
   -3.0250   19.2795  -25.6483 H   0  0  0  0  0  0  0  0  0  0  0  0
   -3.9267   19.7541  -27.1276 H   0  0  0  0  0  0  0  0  0  0  0  0
   -2.9210   18.2658  -27.1276 H   0  0  0  0  0  0  0  0  0  0  0  0
   -0.1756   18.6977  -26.9171 H   0  0  0  0  0  0  0  0  0  0  0  0
   -1.1760   18.3806  -28.3749 H   0  0  0  0  0  0  0  0  0  0  0  0
    0.0086   19.7309  -28.3749 H   0  0  0  0  0  0  0  0  0  0  0  0
   -5.6140   20.1538  -32.2682 H   0  0  0  0  0  0  0  0  0  0  0  0
  1  2  1  0
  2  3  1  0
  3  4  1  0
  4  5  1  0
  5  6  1  0
  6  7  1  0
  7  8  1  0
  8  9  1  0
  9 10  2  0
 10 11  1  0
 11 12  2  0
 12 13  1  0
 13 14  2  0
 14 15  1  0
 15 16  1  0
 15 17  2  0
 14 18  1  0
 18 19  1  0
 19 20  2  0
 19 21  1  0
 21 22  1  0
 22 23  1  0
 22 24  1  0
 24 25  1  0
 25 26  1  0
 26 27  1  0
 26 28  1  0
 26 29  1  0
 29 30  1  0
 29 31  1  0
 29 32  1  0
 18 33  1  0
 33 34  2  0
 34  9  1  0
 33 12  1  0
  1 35  1  0
  1 36  1  0
  1 37  1  0
  3 38  1  0
  3 39  1  0
  4 40  1  0
  4 41  1  0
  5 42  1  0
  5 43  1  0
  6 44  1  0
  6 45  1  0
  7 46  1  0
  7 47  1  0
  8 48  1  0
  8 49  1  0
 10 50  1  0
 11 51  1  0
 13 52  1  0
 16 53  1  0
 22 54  1  6
 23 55  1  0
 23 56  1  0
 23 57  1  0
 24 58  1  0
 24 59  1  0
 27 60  1  0
 27 61  1  0
 27 62  1  0
 28 63  1  0
 28 64  1  0
 28 65  1  0
 30 66  1  0
 30 67  1  0
 30 68  1  0
 31 69  1  0
 31 70  1  0
 31 71  1  0
 32 72  1  0
 32 73  1  0
 32 74  1  0
 34 75  1  0
M  CHG  2   5   1  16  -1
M  END
>  <UniqueID>  (80) 
80

>  <SMILES>  (80) 
COCC[NH2+]CCCc1ccc2cc(C([NH-])=O)n(C(=O)O[C@@H](C)CO[Si](C)(C)C(C)(C)C)c2c1

>  <Energy>  (80) 
90.30392045258758

>  <Genealogy>  (80) 
COCC[NH2+]CCCc1ccc2cc(C([NH-])=O)n(C(=O)O[C@@H](C)CO[Si](C)(C)C(C)(C)C)c2c1 (protonated)
COCC[NH2+]CCCc1ccc2cc(C([NH-])=O)n(C(=O)O[C@@H](C)CO[Si](C)(C)C(C)(C)C)c2c1 (3D coordinates assigned)
COCC[NH2+]CCCc1ccc2cc(C([NH-])=O)n(C(=O)O[C@@H](C)CO[Si](C)(C)C(C)(C)C)c2c1 (optimized conformer: 90.30392045258758 kcal/mol)

>  <smiles>  (80) 
COCCNCCCc1ccc2cc(C(N)=O)n(C(=O)O[C@@H](C)CO[Si](C)(C)C(C)(C)C)c2c1

>  <score_type>  (80) 
oracle

>  <origin>  (80) 
adg

>  <m_score__min__energy>  (80) 
-10.75

>  <m_primary>  (80) 
energy

$$$$
80:0
     RDKit          3D

 36 38  0  0  0  0  0  0  0  0999 V2000
   -8.6010   22.3780  -31.9230 C   0  0  0  0  0  0  0  0  0  0  0  0
   -8.6800   20.9580  -32.2460 N   0  0  0  0  0  0  0  0  0  0  0  0
   -9.8100   20.2820  -32.3360 N   0  0  0  0  0  0  0  0  0  0  0  0
   -9.5290   19.0130  -32.5930 N   0  0  0  0  0  0  0  0  0  0  0  0
   -8.2150   18.8480  -32.6750 N   0  0  0  0  0  0  0  0  0  0  0  0
   -7.6890   20.0710  -32.4700 C   0  0  0  0  0  0  0  0  0  0  0  0
   -6.2360   20.3430  -32.4550 C   0  0  0  0  0  0  0  0  0  0  0  0
   -5.3930   19.8940  -33.5060 C   0  0  0  0  0  0  0  0  0  0  0  0
   -4.0120   20.1530  -33.4780 C   0  0  0  0  0  0  0  0  0  0  0  0
   -3.4990   20.8470  -32.3860 C   0  0  0  0  0  0  0  0  0  0  0  0
   -2.2100   21.2430  -32.1100 C   0  0  0  0  0  0  0  0  0  0  0  0
   -2.2800   21.9010  -30.8810 C   0  0  0  0  0  0  0  0  0  0  0  0
   -1.1110   22.4340  -30.1470 C   0  0  0  0  0  0  0  0  0  0  0  0
   -1.0730   23.7970  -29.7180 N   0  0  0  0  0  0  0  0  0  0  0  0
   -0.1240   21.6900  -29.9070 O   0  0  0  0  0  0  0  0  0  0  0  0
   -3.5630   21.9070  -30.4230 N   0  0  0  0  0  0  0  0  0  0  0  0
   -4.0720   22.5310  -29.2360 C   0  0  0  0  0  0  0  0  0  0  0  0
   -3.5740   22.2390  -28.1150 O   0  0  0  0  0  0  0  0  0  0  0  0
   -5.2680   23.4290  -29.3020 C   0  0  0  0  0  0  0  0  0  0  0  0
   -5.0340   24.6570  -30.5720 S   0  0  0  0  0  0  0  0  0  0  0  0
   -5.2160   24.0200  -31.9200 O   0  0  0  0  0  0  0  0  0  0  0  0
   -6.0420   25.7590  -30.4030 O   0  0  0  0  0  0  0  0  0  0  0  0
   -3.4850   25.2970  -30.4640 O   0  0  0  0  0  0  0  0  0  0  0  0
   -4.2940   21.2580  -31.3500 C   0  0  0  0  0  0  0  0  0  0  0  0
   -5.6730   21.0230  -31.3530 C   0  0  0  0  0  0  0  0  0  0  0  0
   -8.5939   22.5057  -30.8305 H   0  0  0  0  0  0  0  0  0  0  0  0
   -7.6780   22.7998  -32.3475 H   0  0  0  0  0  0  0  0  0  0  0  0
   -9.4715   22.8996  -32.3475 H   0  0  0  0  0  0  0  0  0  0  0  0
   -5.8255   19.3377  -34.3507 H   0  0  0  0  0  0  0  0  0  0  0  0
   -3.3561   19.8173  -34.2947 H   0  0  0  0  0  0  0  0  0  0  0  0
   -1.3147   21.0763  -32.7270 H   0  0  0  0  0  0  0  0  0  0  0  0
   -0.2260   24.1680  -29.2320 H   0  0  0  0  0  0  0  0  0  0  0  0
   -1.8930   24.4310  -29.8390 H   0  0  0  0  0  0  0  0  0  0  0  0
   -6.1614   22.8304  -29.5334 H   0  0  0  0  0  0  0  0  0  0  0  0
   -5.3983   23.9310  -28.3320 H   0  0  0  0  0  0  0  0  0  0  0  0
   -6.3036   21.3598  -30.5170 H   0  0  0  0  0  0  0  0  0  0  0  0
  1  2  1  0
  2  3  1  0
  3  4  2  0
  4  5  1  0
  5  6  2  0
  6  7  1  0
  7  8  2  0
  8  9  1  0
  9 10  2  0
 10 11  1  0
 11 12  2  0
 12 13  1  0
 13 14  1  0
 13 15  2  0
 12 16  1  0
 16 17  1  0
 17 18  2  0
 17 19  1  0
 19 20  1  0
 20 21  2  0
 20 22  2  0
 20 23  1  0
 16 24  1  0
 24 25  2  0
  6  2  1  0
 25  7  1  0
 24 10  1  0
  1 26  1  0
  1 27  1  0
  1 28  1  0
  8 29  1  0
  9 30  1  0
 11 31  1  0
 14 32  1  0
 14 33  1  0
 19 34  1  0
 19 35  1  0
 25 36  1  0
M  CHG  1  23  -1
M  END
>  <UniqueID>  (81) 
81

>  <SMILES>  (81) 
Cn1nnnc1-c1ccc2cc(C(N)=O)n(C(=O)CS(=O)(=O)[O-])c2c1

>  <Energy>  (81) 
116.2007050763011

>  <Genealogy>  (81) 
Cn1nnnc1-c1ccc2cc(C(N)=O)n(C(=O)CS(=O)(=O)[O-])c2c1 (protonated)
Cn1nnnc1-c1ccc2cc(C(N)=O)n(C(=O)CS(=O)(=O)[O-])c2c1 (3D coordinates assigned)
Cn1nnnc1-c1ccc2cc(C(N)=O)n(C(=O)CS(=O)(=O)[O-])c2c1 (optimized conformer: 116.2007050763011 kcal/mol)

>  <smiles>  (81) 
Cn1nnnc1-c1ccc2cc(C(N)=O)n(C(=O)CS(=O)(=O)O)c2c1

>  <score_type>  (81) 
oracle

>  <origin>  (81) 
adg

>  <m_score__min__energy>  (81) 
-12.18

>  <m_primary>  (81) 
energy

$$$$
81:0
     RDKit          3D

 35 36  0  0  0  0  0  0  0  0999 V2000
   -1.1210   25.6290  -28.7230 C   0  0  0  0  0  0  0  0  0  0  0  0
   -2.3210   25.0880  -29.3420 N   0  0  0  0  0  0  0  0  0  0  0  0
   -3.1160   24.0720  -28.7260 C   0  0  0  0  0  0  0  0  0  0  0  0
   -4.1910   24.3700  -28.1390 O   0  0  0  0  0  0  0  0  0  0  0  0
   -2.6990   22.6390  -28.8280 C   0  0  0  0  0  0  0  0  0  0  0  0
   -3.5070   21.9600  -29.7860 O   0  0  0  0  0  0  0  0  0  0  0  0
   -4.0310   22.5810  -30.9260 C   0  0  0  0  0  0  0  0  0  0  0  0
   -3.2630   22.9770  -31.8460 O   0  0  0  0  0  0  0  0  0  0  0  0
   -5.4490   22.7750  -31.0460 N   0  0  0  0  0  0  0  0  0  0  0  0
   -6.1370   23.9470  -30.9360 C   0  0  0  0  0  0  0  0  0  0  0  0
   -5.5710   25.2430  -30.5110 C   0  0  0  0  0  0  0  0  0  0  0  0
   -4.2270   25.6060  -30.8290 N   0  0  0  0  0  0  0  0  0  0  0  0
   -6.2700   26.0220  -29.8100 O   0  0  0  0  0  0  0  0  0  0  0  0
   -7.4830   23.7550  -31.2310 C   0  0  0  0  0  0  0  0  0  0  0  0
   -7.6060   22.4130  -31.5130 C   0  0  0  0  0  0  0  0  0  0  0  0
   -8.7240   21.6790  -31.8940 C   0  0  0  0  0  0  0  0  0  0  0  0
   -8.5530   20.3110  -32.1650 C   0  0  0  0  0  0  0  0  0  0  0  0
   -7.2780   19.7020  -32.0450 C   0  0  0  0  0  0  0  0  0  0  0  0
   -7.0960   18.2470  -32.4020 C   0  0  0  0  0  0  0  0  0  0  0  0
   -6.6440   18.1170  -33.7030 F   0  0  0  0  0  0  0  0  0  0  0  0
   -6.1730   17.6500  -31.5610 F   0  0  0  0  0  0  0  0  0  0  0  0
   -8.3080   17.5940  -32.2780 F   0  0  0  0  0  0  0  0  0  0  0  0
   -6.1610   20.4880  -31.6810 C   0  0  0  0  0  0  0  0  0  0  0  0
   -6.3640   21.8440  -31.3950 C   0  0  0  0  0  0  0  0  0  0  0  0
   -1.2208   25.5840  -27.6285 H   0  0  0  0  0  0  0  0  0  0  0  0
   -0.2482   25.0373  -29.0362 H   0  0  0  0  0  0  0  0  0  0  0  0
   -0.9865   26.6748  -29.0362 H   0  0  0  0  0  0  0  0  0  0  0  0
   -1.6453   22.5882  -29.1396 H   0  0  0  0  0  0  0  0  0  0  0  0
   -2.8232   22.1575  -27.8468 H   0  0  0  0  0  0  0  0  0  0  0  0
   -3.5670   24.9170  -31.2520 H   0  0  0  0  0  0  0  0  0  0  0  0
   -3.8600   26.5450  -30.5610 H   0  0  0  0  0  0  0  0  0  0  0  0
   -8.2794   24.5138  -31.2375 H   0  0  0  0  0  0  0  0  0  0  0  0
   -9.7120   22.1548  -31.9806 H   0  0  0  0  0  0  0  0  0  0  0  0
   -9.4179   19.7055  -32.4737 H   0  0  0  0  0  0  0  0  0  0  0  0
   -5.1558   20.0451  -31.6237 H   0  0  0  0  0  0  0  0  0  0  0  0
  1  2  1  0
  2  3  1  0
  3  4  2  0
  3  5  1  0
  5  6  1  0
  6  7  1  0
  7  8  2  0
  7  9  1  0
  9 10  1  0
 10 11  1  0
 11 12  1  0
 11 13  2  0
 10 14  2  0
 14 15  1  0
 15 16  2  0
 16 17  1  0
 17 18  2  0
 18 19  1  0
 19 20  1  0
 19 21  1  0
 19 22  1  0
 18 23  1  0
 23 24  2  0
 24  9  1  0
 24 15  1  0
  1 25  1  0
  1 26  1  0
  1 27  1  0
  5 28  1  0
  5 29  1  0
 12 30  1  0
 12 31  1  0
 14 32  1  0
 16 33  1  0
 17 34  1  0
 23 35  1  0
M  CHG  1   2  -1
M  END
>  <UniqueID>  (82) 
82

>  <SMILES>  (82) 
C[N-]C(=O)COC(=O)n1c(C(N)=O)cc2ccc(C(F)(F)F)cc21

>  <Energy>  (82) 
69.62374445250819

>  <Genealogy>  (82) 
C[N-]C(=O)COC(=O)n1c(C(N)=O)cc2ccc(C(F)(F)F)cc21 (protonated)
C[N-]C(=O)COC(=O)n1c(C(N)=O)cc2ccc(C(F)(F)F)cc21 (3D coordinates assigned)
C[N-]C(=O)COC(=O)n1c(C(N)=O)cc2ccc(C(F)(F)F)cc21 (optimized conformer: 69.62374445250819 kcal/mol)

>  <smiles>  (82) 
CNC(=O)COC(=O)n1c(C(N)=O)cc2ccc(C(F)(F)F)cc21

>  <score_type>  (82) 
oracle

>  <origin>  (82) 
adg

>  <m_score__min__energy>  (82) 
-9.5800000000000001

>  <m_primary>  (82) 
energy

$$$$
82:0
     RDKit          3D

 38 40  0  0  0  0  0  0  0  0999 V2000
   -8.6700   20.6590  -32.3060 C   0  0  0  0  0  0  0  0  0  0  0  0
   -8.5530   19.2460  -32.6960 N   0  0  0  0  0  0  0  0  0  0  0  0
   -9.0540   18.3790  -31.6090 C   0  0  0  0  0  0  0  0  0  0  0  0
   -7.1760   18.9700  -33.1930 C   0  0  0  0  0  0  0  0  0  0  0  0
   -6.1830   18.6920  -32.1050 C   0  0  0  0  0  0  0  0  0  0  0  0
   -5.3350   19.8740  -32.3650 N   0  0  0  0  0  0  0  0  0  0  0  0
   -4.1540   20.4630  -31.8200 C   0  0  0  0  0  0  0  0  0  0  0  0
   -2.9200   19.7780  -31.9040 C   0  0  0  0  0  0  0  0  0  0  0  0
   -1.7480   20.3520  -31.3830 C   0  0  0  0  0  0  0  0  0  0  0  0
   -1.8480   21.6040  -30.7810 C   0  0  0  0  0  0  0  0  0  0  0  0
   -0.8730   22.3970  -30.2220 C   0  0  0  0  0  0  0  0  0  0  0  0
   -1.5340   23.5420  -29.7830 C   0  0  0  0  0  0  0  0  0  0  0  0
   -0.8660   24.6290  -29.0370 C   0  0  0  0  0  0  0  0  0  0  0  0
   -1.4610   25.9190  -28.9330 N   0  0  0  0  0  0  0  0  0  0  0  0
    0.2190   24.3990  -28.4390 O   0  0  0  0  0  0  0  0  0  0  0  0
   -2.8650   23.4660  -30.0700 N   0  0  0  0  0  0  0  0  0  0  0  0
   -3.8650   24.4790  -29.8700 C   0  0  0  0  0  0  0  0  0  0  0  0
   -4.7580   24.3260  -28.9950 O   0  0  0  0  0  0  0  0  0  0  0  0
   -3.8730   25.6230  -30.6590 O   0  0  0  0  0  0  0  0  0  0  0  0
   -3.0410   22.2720  -30.6770 C   0  0  0  0  0  0  0  0  0  0  0  0
   -4.2200   21.7290  -31.2040 C   0  0  0  0  0  0  0  0  0  0  0  0
   -6.2830   20.1490  -33.4640 C   0  0  0  0  0  0  0  0  0  0  0  0
   -8.6765   20.7372  -31.2088 H   0  0  0  0  0  0  0  0  0  0  0  0
   -7.8154   21.2225  -32.7087 H   0  0  0  0  0  0  0  0  0  0  0  0
   -9.6056   21.0743  -32.7087 H   0  0  0  0  0  0  0  0  0  0  0  0
   -8.7967   18.8243  -30.6367 H   0  0  0  0  0  0  0  0  0  0  0  0
  -10.1468   18.2830  -31.6907 H   0  0  0  0  0  0  0  0  0  0  0  0
   -8.5915   17.3843  -31.6907 H   0  0  0  0  0  0  0  0  0  0  0  0
   -7.4744   18.2654  -33.9832 H   0  0  0  0  0  0  0  0  0  0  0  0
   -6.6358   18.7059  -31.1026 H   0  0  0  0  0  0  0  0  0  0  0  0
   -5.6901   17.7086  -32.1144 H   0  0  0  0  0  0  0  0  0  0  0  0
   -2.8771   18.7878  -32.3810 H   0  0  0  0  0  0  0  0  0  0  0  0
   -0.7824   19.8292  -31.4485 H   0  0  0  0  0  0  0  0  0  0  0  0
    0.2010   22.1743  -30.1392 H   0  0  0  0  0  0  0  0  0  0  0  0
   -2.4980   26.0370  -28.9720 H   0  0  0  0  0  0  0  0  0  0  0  0
   -5.1720   22.2762  -31.1388 H   0  0  0  0  0  0  0  0  0  0  0  0
   -6.8020   21.1119  -33.3477 H   0  0  0  0  0  0  0  0  0  0  0  0
   -5.8658   20.2424  -34.4775 H   0  0  0  0  0  0  0  0  0  0  0  0
  1  2  1  0
  2  3  1  0
  2  4  1  0
  4  5  1  0
  5  6  1  0
  6  7  1  0
  7  8  2  0
  8  9  1  0
  9 10  2  0
 10 11  1  0
 11 12  2  0
 12 13  1  0
 13 14  1  0
 13 15  2  0
 12 16  1  0
 16 17  1  0
 17 18  2  0
 17 19  1  0
 16 20  1  0
 20 21  2  0
  6 22  1  0
 22  4  1  0
 21  7  1  0
 20 10  1  0
  1 23  1  0
  1 24  1  0
  1 25  1  0
  3 26  1  0
  3 27  1  0
  3 28  1  0
  4 29  1  0
  5 30  1  0
  5 31  1  0
  8 32  1  0
  9 33  1  0
 11 34  1  0
 14 35  1  0
 21 36  1  0
 22 37  1  0
 22 38  1  0
M  CHG  2  14  -1  19  -1
M  END
>  <UniqueID>  (83) 
83

>  <SMILES>  (83) 
CN(C)C1CN(c2ccc3cc(C([NH-])=O)n(C(=O)[O-])c3c2)C1

>  <Energy>  (83) 
131.4866413725256

>  <Genealogy>  (83) 
CN(C)C1CN(c2ccc3cc(C([NH-])=O)n(C(=O)[O-])c3c2)C1 (protonated)
CN(C)C1CN(c2ccc3cc(C([NH-])=O)n(C(=O)[O-])c3c2)C1 (3D coordinates assigned)
CN(C)C1CN(c2ccc3cc(C([NH-])=O)n(C(=O)[O-])c3c2)C1 (nonaromatic ring conformer: 131.4866413725256 kcal/mol)

>  <smiles>  (83) 
CN(C)C1CN(c2ccc3cc(C(N)=O)n(C(=O)O)c3c2)C1

>  <score_type>  (83) 
oracle

>  <origin>  (83) 
adg

>  <m_score__min__energy>  (83) 
-11.359999999999999

>  <m_primary>  (83) 
energy

$$$$
83:0
     RDKit          3D

 62 65  0  0  0  0  0  0  0  0999 V2000
   -1.3250   16.9640  -32.6920 C   0  0  0  0  0  0  0  0  0  0  0  0
   -1.8780   18.1760  -33.1950 O   0  0  0  0  0  0  0  0  0  0  0  0
   -1.1620   19.1560  -33.9010 C   0  0  0  0  0  0  0  0  0  0  0  0
   -0.3180   18.8090  -34.9780 C   0  0  0  0  0  0  0  0  0  0  0  0
    0.4030   19.7890  -35.6600 C   0  0  0  0  0  0  0  0  0  0  0  0
    0.2970   21.1250  -35.2820 C   0  0  0  0  0  0  0  0  0  0  0  0
   -0.5330   21.4890  -34.2210 C   0  0  0  0  0  0  0  0  0  0  0  0
   -1.2770   20.5170  -33.5220 C   0  0  0  0  0  0  0  0  0  0  0  0
   -2.1710   20.9430  -32.4130 C   0  0  0  0  0  0  0  0  0  0  0  0
   -2.1150   20.3490  -31.3000 O   0  0  0  0  0  0  0  0  0  0  0  0
   -3.0590   22.0110  -32.6000 O   0  0  0  0  0  0  0  0  0  0  0  0
   -3.6550   22.7640  -31.5790 C   0  0  0  0  0  0  0  0  0  0  0  0
   -2.9490   23.4280  -30.7720 O   0  0  0  0  0  0  0  0  0  0  0  0
   -5.0860   22.7730  -31.4550 N   0  0  0  0  0  0  0  0  0  0  0  0
   -5.8670   23.7850  -30.9770 C   0  0  0  0  0  0  0  0  0  0  0  0
   -5.3740   25.0210  -30.3320 C   0  0  0  0  0  0  0  0  0  0  0  0
   -4.1980   25.6750  -30.8110 N   0  0  0  0  0  0  0  0  0  0  0  0
   -6.0080   25.5270  -29.3690 O   0  0  0  0  0  0  0  0  0  0  0  0
   -7.2170   23.4570  -31.0920 C   0  0  0  0  0  0  0  0  0  0  0  0
   -7.2400   22.2020  -31.6550 C   0  0  0  0  0  0  0  0  0  0  0  0
   -8.3220   21.3960  -31.9930 C   0  0  0  0  0  0  0  0  0  0  0  0
   -8.0560   20.1500  -32.5830 C   0  0  0  0  0  0  0  0  0  0  0  0
   -6.7230   19.7380  -32.8400 C   0  0  0  0  0  0  0  0  0  0  0  0
   -6.4610   18.4560  -33.4460 N   0  0  0  0  0  0  0  0  0  0  0  0
   -5.7240   18.3840  -34.7190 C   0  0  0  0  0  0  0  0  0  0  0  0
   -5.1300   16.9830  -34.9440 C   0  0  0  0  0  0  0  0  0  0  0  0
   -4.5790   16.4280  -33.6140 C   0  0  0  0  0  0  0  0  0  0  0  0
   -3.7570   15.2050  -33.8260 N   0  0  0  0  0  0  0  0  0  0  0  0
   -3.2180   15.0360  -35.1890 C   0  0  0  0  0  0  0  0  0  0  0  0
   -4.4690   13.9880  -33.4040 C   0  0  0  0  0  0  0  0  0  0  0  0
   -5.7020   16.2750  -32.5440 C   0  0  0  0  0  0  0  0  0  0  0  0
   -6.8990   17.2090  -32.7980 C   0  0  0  0  0  0  0  0  0  0  0  0
   -5.6500   20.5840  -32.4740 C   0  0  0  0  0  0  0  0  0  0  0  0
   -5.9440   21.8110  -31.8670 C   0  0  0  0  0  0  0  0  0  0  0  0
   -1.3347   16.9852  -31.5922 H   0  0  0  0  0  0  0  0  0  0  0  0
   -1.9237   16.1125  -33.0476 H   0  0  0  0  0  0  0  0  0  0  0  0
   -0.2895   16.8581  -33.0476 H   0  0  0  0  0  0  0  0  0  0  0  0
   -0.2281   17.7557  -35.2823 H   0  0  0  0  0  0  0  0  0  0  0  0
    1.0567   19.5059  -36.4982 H   0  0  0  0  0  0  0  0  0  0  0  0
    0.8687   21.8949  -35.8209 H   0  0  0  0  0  0  0  0  0  0  0  0
   -0.6075   22.5463  -33.9268 H   0  0  0  0  0  0  0  0  0  0  0  0
   -3.6190   25.2560  -31.5730 H   0  0  0  0  0  0  0  0  0  0  0  0
   -3.8690   26.5570  -30.3600 H   0  0  0  0  0  0  0  0  0  0  0  0
   -8.0802   24.0710  -30.7956 H   0  0  0  0  0  0  0  0  0  0  0  0
   -9.3546   21.7247  -31.8039 H   0  0  0  0  0  0  0  0  0  0  0  0
   -8.8911   19.4854  -32.8491 H   0  0  0  0  0  0  0  0  0  0  0  0
   -6.4120   18.6181  -35.5448 H   0  0  0  0  0  0  0  0  0  0  0  0
   -4.8976   19.1091  -34.6826 H   0  0  0  0  0  0  0  0  0  0  0  0
   -5.9138   16.3108  -35.3232 H   0  0  0  0  0  0  0  0  0  0  0  0
   -4.3117   17.0492  -35.6762 H   0  0  0  0  0  0  0  0  0  0  0  0
   -3.8835   17.1691  -33.1932 H   0  0  0  0  0  0  0  0  0  0  0  0
   -2.1699   14.7074  -35.1307 H   0  0  0  0  0  0  0  0  0  0  0  0
   -3.8099   14.2803  -35.7263 H   0  0  0  0  0  0  0  0  0  0  0  0
   -3.2724   15.9943  -35.7263 H   0  0  0  0  0  0  0  0  0  0  0  0
   -4.4962   13.9415  -32.3053 H   0  0  0  0  0  0  0  0  0  0  0  0
   -5.4967   14.0100  -33.7956 H   0  0  0  0  0  0  0  0  0  0  0  0
   -3.9462   13.1029  -33.7956 H   0  0  0  0  0  0  0  0  0  0  0  0
   -6.0592   15.2347  -32.5557 H   0  0  0  0  0  0  0  0  0  0  0  0
   -5.2704   16.5472  -31.5695 H   0  0  0  0  0  0  0  0  0  0  0  0
   -7.6226   16.6985  -33.4505 H   0  0  0  0  0  0  0  0  0  0  0  0
   -7.3631   17.4578  -31.8322 H   0  0  0  0  0  0  0  0  0  0  0  0
   -4.6083   20.2847  -32.6620 H   0  0  0  0  0  0  0  0  0  0  0  0
  1  2  1  0
  2  3  1  0
  3  4  2  0
  4  5  1  0
  5  6  2  0
  6  7  1  0
  7  8  2  0
  8  9  1  0
  9 10  2  0
  9 11  1  0
 11 12  1  0
 12 13  2  0
 12 14  1  0
 14 15  1  0
 15 16  1  0
 16 17  1  0
 16 18  2  0
 15 19  2  0
 19 20  1  0
 20 21  2  0
 21 22  1  0
 22 23  2  0
 23 24  1  0
 24 25  1  0
 25 26  1  0
 26 27  1  0
 27 28  1  0
 28 29  1  0
 28 30  1  0
 27 31  1  0
 31 32  1  0
 23 33  1  0
 33 34  2  0
  8  3  1  0
 34 14  1  0
 34 20  1  0
 32 24  1  0
  1 35  1  0
  1 36  1  0
  1 37  1  0
  4 38  1  0
  5 39  1  0
  6 40  1  0
  7 41  1  0
 17 42  1  0
 17 43  1  0
 19 44  1  0
 21 45  1  0
 22 46  1  0
 25 47  1  0
 25 48  1  0
 26 49  1  0
 26 50  1  0
 27 51  1  0
 29 52  1  0
 29 53  1  0
 29 54  1  0
 30 55  1  0
 30 56  1  0
 30 57  1  0
 31 58  1  0
 31 59  1  0
 32 60  1  0
 32 61  1  0
 33 62  1  0
M  END
>  <UniqueID>  (84) 
84

>  <SMILES>  (84) 
COc1ccccc1C(=O)OC(=O)n1c(C(N)=O)cc2ccc(N3CCC(N(C)C)CC3)cc21

>  <Energy>  (84) 
117.45646234886296

>  <Genealogy>  (84) 
COc1ccccc1C(=O)OC(=O)n1c(C(N)=O)cc2ccc(N3CCC(N(C)C)CC3)cc21 (3D coordinates assigned)
COc1ccccc1C(=O)OC(=O)n1c(C(N)=O)cc2ccc(N3CCC(N(C)C)CC3)cc21 (nonaromatic ring conformer: 117.45646234886296 kcal/mol)

>  <smiles>  (84) 
COc1ccccc1C(=O)OC(=O)n1c(C(N)=O)cc2ccc(N3CCC(N(C)C)CC3)cc21

>  <score_type>  (84) 
oracle

>  <origin>  (84) 
adg

>  <m_score__min__energy>  (84) 
-10.69

>  <m_primary>  (84) 
energy

$$$$
84:0
     RDKit          3D

 38 40  0  0  0  0  0  0  0  0999 V2000
   -2.0220   25.2870  -29.2560 N   0  0  0  0  0  0  0  0  0  0  0  0
   -2.6110   24.4280  -28.2860 C   0  0  0  0  0  0  0  0  0  0  0  0
   -3.3130   24.9140  -27.3580 O   0  0  0  0  0  0  0  0  0  0  0  0
   -2.4150   22.9480  -28.3820 C   0  0  0  0  0  0  0  0  0  0  0  0
   -3.3820   22.3770  -29.2610 O   0  0  0  0  0  0  0  0  0  0  0  0
   -3.7760   22.9740  -30.4640 C   0  0  0  0  0  0  0  0  0  0  0  0
   -2.9120   23.4430  -31.2550 O   0  0  0  0  0  0  0  0  0  0  0  0
   -5.1720   23.0760  -30.7840 N   0  0  0  0  0  0  0  0  0  0  0  0
   -6.0080   24.1320  -30.5650 C   0  0  0  0  0  0  0  0  0  0  0  0
   -5.6100   25.4650  -30.0670 C   0  0  0  0  0  0  0  0  0  0  0  0
   -4.3760   26.0410  -30.4940 N   0  0  0  0  0  0  0  0  0  0  0  0
   -6.3280   26.0880  -29.2420 O   0  0  0  0  0  0  0  0  0  0  0  0
   -7.3070   23.8160  -30.9590 C   0  0  0  0  0  0  0  0  0  0  0  0
   -7.2400   22.5270  -31.4370 C   0  0  0  0  0  0  0  0  0  0  0  0
   -8.2430   21.7100  -31.9510 C   0  0  0  0  0  0  0  0  0  0  0  0
   -7.8910   20.4080  -32.3480 C   0  0  0  0  0  0  0  0  0  0  0  0
   -6.5590   19.9520  -32.2170 C   0  0  0  0  0  0  0  0  0  0  0  0
   -6.2170   18.6240  -32.6130 N   0  0  0  0  0  0  0  0  0  0  0  0
   -5.8540   17.9160  -33.8550 C   0  0  0  0  0  0  0  0  0  0  0  0
   -5.6930   16.5690  -33.2290 C   0  0  0  0  0  0  0  0  0  0  0  0
   -4.3580   16.1460  -33.2300 O   0  0  0  0  0  0  0  0  0  0  0  0
   -6.0630   17.3020  -31.9780 C   0  0  0  0  0  0  0  0  0  0  0  0
   -5.5680   20.8070  -31.6920 C   0  0  0  0  0  0  0  0  0  0  0  0
   -5.9410   22.1030  -31.3210 C   0  0  0  0  0  0  0  0  0  0  0  0
   -2.3610   25.2930  -30.2440 H   0  0  0  0  0  0  0  0  0  0  0  0
   -1.4061   22.7398  -28.7678 H   0  0  0  0  0  0  0  0  0  0  0  0
   -2.5347   22.5055  -27.3821 H   0  0  0  0  0  0  0  0  0  0  0  0
   -3.5720   25.4380  -30.7740 H   0  0  0  0  0  0  0  0  0  0  0  0
   -8.1968   24.4600  -30.9004 H   0  0  0  0  0  0  0  0  0  0  0  0
   -9.2778   22.0715  -32.0436 H   0  0  0  0  0  0  0  0  0  0  0  0
   -8.6583   19.7385  -32.7640 H   0  0  0  0  0  0  0  0  0  0  0  0
   -6.6557   17.9412  -34.6078 H   0  0  0  0  0  0  0  0  0  0  0  0
   -4.9986   18.3093  -34.4239 H   0  0  0  0  0  0  0  0  0  0  0  0
   -6.1951   15.6548  -33.5784 H   0  0  0  0  0  0  0  0  0  0  0  0
   -3.9540   16.5280  -32.4080 H   0  0  0  0  0  0  0  0  0  0  0  0
   -6.9982   16.9340  -31.5308 H   0  0  0  0  0  0  0  0  0  0  0  0
   -5.3657   17.2310  -31.1302 H   0  0  0  0  0  0  0  0  0  0  0  0
   -4.5292   20.4638  -31.5773 H   0  0  0  0  0  0  0  0  0  0  0  0
  1  2  1  0
  2  3  2  0
  2  4  1  0
  4  5  1  0
  5  6  1  0
  6  7  2  0
  6  8  1  0
  8  9  1  0
  9 10  1  0
 10 11  1  0
 10 12  2  0
  9 13  2  0
 13 14  1  0
 14 15  2  0
 15 16  1  0
 16 17  2  0
 17 18  1  0
 18 19  1  0
 19 20  1  0
 20 21  1  0
 20 22  1  0
 17 23  1  0
 23 24  2  0
 24  8  1  0
 24 14  1  0
 22 18  1  0
  1 25  1  0
  4 26  1  0
  4 27  1  0
 11 28  1  0
 13 29  1  0
 15 30  1  0
 16 31  1  0
 19 32  1  0
 19 33  1  0
 20 34  1  0
 21 35  1  0
 22 36  1  0
 22 37  1  0
 23 38  1  0
M  CHG  2   1  -1  11  -1
M  END
>  <UniqueID>  (85) 
85

>  <SMILES>  (85) 
[NH-]C(=O)COC(=O)n1c(C([NH-])=O)cc2ccc(N3CC(O)C3)cc21

>  <Energy>  (85) 
118.70930807513778

>  <Genealogy>  (85) 
[NH-]C(=O)COC(=O)n1c(C([NH-])=O)cc2ccc(N3CC(O)C3)cc21 (protonated)
[NH-]C(=O)COC(=O)n1c(C([NH-])=O)cc2ccc(N3CC(O)C3)cc21 (3D coordinates assigned)
[NH-]C(=O)COC(=O)n1c(C([NH-])=O)cc2ccc(N3CC(O)C3)cc21 (nonaromatic ring conformer: 118.70930807513778 kcal/mol)

>  <smiles>  (85) 
NC(=O)COC(=O)n1c(C(N)=O)cc2ccc(N3CC(O)C3)cc21

>  <score_type>  (85) 
oracle

>  <origin>  (85) 
adg

>  <m_score__min__energy>  (85) 
-12.75

>  <m_primary>  (85) 
energy

$$$$
85:0
     RDKit          3D

 53 55  0  0  0  0  0  0  0  0999 V2000
   -2.0430   20.5450  -33.8020 C   0  0  0  0  0  0  0  0  0  0  0  0
   -3.3860   20.7650  -33.1080 C   0  0  0  0  0  0  0  0  0  0  0  0
   -3.4860   22.1040  -32.6200 O   0  0  0  0  0  0  0  0  0  0  0  0
   -4.0540   22.4330  -31.3840 C   0  0  0  0  0  0  0  0  0  0  0  0
   -3.3780   22.3250  -30.3230 O   0  0  0  0  0  0  0  0  0  0  0  0
   -5.4030   22.9200  -31.3270 N   0  0  0  0  0  0  0  0  0  0  0  0
   -5.8310   24.1420  -30.8980 C   0  0  0  0  0  0  0  0  0  0  0  0
   -4.9680   25.2920  -30.5600 C   0  0  0  0  0  0  0  0  0  0  0  0
   -3.5570   25.1120  -30.4510 N   0  0  0  0  0  0  0  0  0  0  0  0
   -5.4650   26.4250  -30.3280 O   0  0  0  0  0  0  0  0  0  0  0  0
   -7.2230   24.1990  -30.8970 C   0  0  0  0  0  0  0  0  0  0  0  0
   -7.6400   22.9680  -31.3480 C   0  0  0  0  0  0  0  0  0  0  0  0
   -8.9270   22.4690  -31.5280 C   0  0  0  0  0  0  0  0  0  0  0  0
   -9.0640   21.1460  -31.9820 C   0  0  0  0  0  0  0  0  0  0  0  0
   -7.9200   20.3520  -32.2440 C   0  0  0  0  0  0  0  0  0  0  0  0
   -8.0740   18.9250  -32.6990 C   0  0  0  0  0  0  0  0  0  0  0  0
   -7.0050   18.0570  -32.0940 C   0  0  0  0  0  0  0  0  0  0  0  0
   -7.0350   17.8140  -30.8560 O   0  0  0  0  0  0  0  0  0  0  0  0
   -5.9570   17.4990  -32.9050 N   0  0  0  0  0  0  0  0  0  0  0  0
   -4.6330   17.2680  -32.3230 C   0  0  0  0  0  0  0  0  0  0  0  0
   -3.5430   17.5330  -33.3660 C   0  0  0  0  0  0  0  0  0  0  0  0
   -3.8650   16.8580  -34.6330 N   0  0  0  0  0  0  0  0  0  0  0  0
   -2.8090   16.3030  -35.4440 C   0  0  0  0  0  0  0  0  0  0  0  0
   -3.0760   15.7780  -36.5610 O   0  0  0  0  0  0  0  0  0  0  0  0
   -1.4830   16.3430  -34.9940 O   0  0  0  0  0  0  0  0  0  0  0  0
   -0.7190   17.5430  -34.9580 C   0  0  0  0  0  0  0  0  0  0  0  0
   -5.2060   17.0760  -35.2010 C   0  0  0  0  0  0  0  0  0  0  0  0
   -6.2790   16.7940  -34.1510 C   0  0  0  0  0  0  0  0  0  0  0  0
   -6.6290   20.8870  -32.0360 C   0  0  0  0  0  0  0  0  0  0  0  0
   -6.5230   22.2140  -31.6020 C   0  0  0  0  0  0  0  0  0  0  0  0
   -1.2557   20.4160  -33.0447 H   0  0  0  0  0  0  0  0  0  0  0  0
   -2.0983   19.6439  -34.4305 H   0  0  0  0  0  0  0  0  0  0  0  0
   -1.8079   21.4166  -34.4305 H   0  0  0  0  0  0  0  0  0  0  0  0
   -4.1986   20.5802  -33.8260 H   0  0  0  0  0  0  0  0  0  0  0  0
   -3.4642   20.0709  -32.2582 H   0  0  0  0  0  0  0  0  0  0  0  0
   -3.0670   24.3720  -31.0040 H   0  0  0  0  0  0  0  0  0  0  0  0
   -7.8549   25.0485  -30.5987 H   0  0  0  0  0  0  0  0  0  0  0  0
   -9.8101   23.0914  -31.3211 H   0  0  0  0  0  0  0  0  0  0  0  0
  -10.0679   20.7233  -32.1353 H   0  0  0  0  0  0  0  0  0  0  0  0
   -9.0611   18.5515  -32.3890 H   0  0  0  0  0  0  0  0  0  0  0  0
   -7.9803   18.8905  -33.7945 H   0  0  0  0  0  0  0  0  0  0  0  0
   -4.4892   17.9442  -31.4674 H   0  0  0  0  0  0  0  0  0  0  0  0
   -4.5647   16.2217  -31.9905 H   0  0  0  0  0  0  0  0  0  0  0  0
   -3.4668   18.6161  -33.5424 H   0  0  0  0  0  0  0  0  0  0  0  0
   -2.5871   17.1414  -32.9880 H   0  0  0  0  0  0  0  0  0  0  0  0
   -0.5362   17.8301  -33.9120 H   0  0  0  0  0  0  0  0  0  0  0  0
    0.2425   17.3809  -35.4671 H   0  0  0  0  0  0  0  0  0  0  0  0
   -1.2727   18.3456  -35.4671 H   0  0  0  0  0  0  0  0  0  0  0  0
   -5.2925   18.1199  -35.5368 H   0  0  0  0  0  0  0  0  0  0  0  0
   -5.3496   16.3933  -36.0515 H   0  0  0  0  0  0  0  0  0  0  0  0
   -7.2542   17.1401  -34.5242 H   0  0  0  0  0  0  0  0  0  0  0  0
   -6.3180   15.7123  -33.9550 H   0  0  0  0  0  0  0  0  0  0  0  0
   -5.7305   20.2769  -32.2105 H   0  0  0  0  0  0  0  0  0  0  0  0
  1  2  1  0
  2  3  1  0
  3  4  1  0
  4  5  2  0
  4  6  1  0
  6  7  1  0
  7  8  1  0
  8  9  1  0
  8 10  2  0
  7 11  2  0
 11 12  1  0
 12 13  2  0
 13 14  1  0
 14 15  2  0
 15 16  1  0
 16 17  1  0
 17 18  2  0
 17 19  1  0
 19 20  1  0
 20 21  1  0
 21 22  1  0
 22 23  1  0
 23 24  2  0
 23 25  1  0
 25 26  1  0
 22 27  1  0
 27 28  1  0
 15 29  1  0
 29 30  2  0
 30  6  1  0
 30 12  1  0
 28 19  1  0
  1 31  1  0
  1 32  1  0
  1 33  1  0
  2 34  1  0
  2 35  1  0
  9 36  1  0
 11 37  1  0
 13 38  1  0
 14 39  1  0
 16 40  1  0
 16 41  1  0
 20 42  1  0
 20 43  1  0
 21 44  1  0
 21 45  1  0
 26 46  1  0
 26 47  1  0
 26 48  1  0
 27 49  1  0
 27 50  1  0
 28 51  1  0
 28 52  1  0
 29 53  1  0
M  CHG  1   9  -1
M  END
>  <UniqueID>  (86) 
86

>  <SMILES>  (86) 
CCOC(=O)n1c(C([NH-])=O)cc2ccc(CC(=O)N3CCN(C(=O)OC)CC3)cc21

>  <Energy>  (86) 
86.80264699487924

>  <Genealogy>  (86) 
CCOC(=O)n1c(C([NH-])=O)cc2ccc(CC(=O)N3CCN(C(=O)OC)CC3)cc21 (protonated)
CCOC(=O)n1c(C([NH-])=O)cc2ccc(CC(=O)N3CCN(C(=O)OC)CC3)cc21 (3D coordinates assigned)
CCOC(=O)n1c(C([NH-])=O)cc2ccc(CC(=O)N3CCN(C(=O)OC)CC3)cc21 (nonaromatic ring conformer: 86.80264699487924 kcal/mol)

>  <smiles>  (86) 
CCOC(=O)n1c(C(N)=O)cc2ccc(CC(=O)N3CCN(C(=O)OC)CC3)cc21

>  <score_type>  (86) 
oracle

>  <origin>  (86) 
adg

>  <m_score__min__energy>  (86) 
-10.98

>  <m_primary>  (86) 
energy

$$$$
86:0
     RDKit          3D

 45 47  0  0  0  0  0  0  0  0999 V2000
    0.2660   25.4720  -26.9070 C   0  0  0  0  0  0  0  0  0  0  0  0
   -0.1830   25.2750  -28.2420 O   0  0  0  0  0  0  0  0  0  0  0  0
   -1.3910   24.6390  -28.5420 C   0  0  0  0  0  0  0  0  0  0  0  0
   -2.3670   25.3020  -28.9890 O   0  0  0  0  0  0  0  0  0  0  0  0
   -1.5090   23.1880  -28.3300 C   0  0  0  0  0  0  0  0  0  0  0  0
   -1.5200   22.6190  -27.1470 O   0  0  0  0  0  0  0  0  0  0  0  0
   -1.6290   21.3290  -27.3650 C   0  0  0  0  0  0  0  0  0  0  0  0
   -1.6660   20.4670  -26.4490 O   0  0  0  0  0  0  0  0  0  0  0  0
   -1.6870   21.0360  -28.6430 O   0  0  0  0  0  0  0  0  0  0  0  0
   -1.6150   22.1820  -29.2800 C   0  0  0  0  0  0  0  0  0  0  0  0
   -1.6130   22.3200  -30.7720 C   0  0  0  0  0  0  0  0  0  0  0  0
   -2.8880   22.7720  -31.2170 O   0  0  0  0  0  0  0  0  0  0  0  0
   -3.8790   21.9130  -31.7020 C   0  0  0  0  0  0  0  0  0  0  0  0
   -3.5590   20.8800  -32.3520 O   0  0  0  0  0  0  0  0  0  0  0  0
   -5.2650   22.2210  -31.4790 N   0  0  0  0  0  0  0  0  0  0  0  0
   -5.7840   23.3730  -30.9670 C   0  0  0  0  0  0  0  0  0  0  0  0
   -5.0080   24.4890  -30.3910 C   0  0  0  0  0  0  0  0  0  0  0  0
   -5.0910   24.8060  -29.0000 N   0  0  0  0  0  0  0  0  0  0  0  0
   -4.3080   25.2110  -31.1480 O   0  0  0  0  0  0  0  0  0  0  0  0
   -7.1760   23.3280  -30.9650 C   0  0  0  0  0  0  0  0  0  0  0  0
   -7.4980   22.0910  -31.4730 C   0  0  0  0  0  0  0  0  0  0  0  0
   -8.7450   21.5040  -31.6700 C   0  0  0  0  0  0  0  0  0  0  0  0
   -8.7840   20.2060  -32.2050 C   0  0  0  0  0  0  0  0  0  0  0  0
   -7.5880   19.5310  -32.5500 C   0  0  0  0  0  0  0  0  0  0  0  0
   -7.6420   18.1250  -33.0880 C   0  0  0  0  0  0  0  0  0  0  0  0
   -6.3140   17.7260  -33.7390 C   0  0  0  0  0  0  0  0  0  0  0  0
   -6.0910   18.4700  -34.9070 O   0  0  0  0  0  0  0  0  0  0  0  0
   -6.3400   20.1580  -32.3370 C   0  0  0  0  0  0  0  0  0  0  0  0
   -6.3290   21.4420  -31.7780 C   0  0  0  0  0  0  0  0  0  0  0  0
   -0.5097   25.1317  -26.2053 H   0  0  0  0  0  0  0  0  0  0  0  0
    1.1884   24.8959  -26.7416 H   0  0  0  0  0  0  0  0  0  0  0  0
    0.4666   26.5408  -26.7416 H   0  0  0  0  0  0  0  0  0  0  0  0
   -0.8434   23.0471  -31.0703 H   0  0  0  0  0  0  0  0  0  0  0  0
   -1.3957   21.3422  -31.2266 H   0  0  0  0  0  0  0  0  0  0  0  0
   -5.7920   24.3410  -28.3820 H   0  0  0  0  0  0  0  0  0  0  0  0
   -4.4950   25.5630  -28.5990 H   0  0  0  0  0  0  0  0  0  0  0  0
   -7.8692   24.1133  -30.6292 H   0  0  0  0  0  0  0  0  0  0  0  0
   -9.6709   22.0402  -31.4146 H   0  0  0  0  0  0  0  0  0  0  0  0
   -9.7533   19.7088  -32.3575 H   0  0  0  0  0  0  0  0  0  0  0  0
   -7.8575   17.4329  -32.2606 H   0  0  0  0  0  0  0  0  0  0  0  0
   -8.4315   18.0762  -33.8524 H   0  0  0  0  0  0  0  0  0  0  0  0
   -5.4939   17.9125  -33.0300 H   0  0  0  0  0  0  0  0  0  0  0  0
   -6.3558   16.6588  -34.0021 H   0  0  0  0  0  0  0  0  0  0  0  0
   -6.8910   19.0430  -35.0400 H   0  0  0  0  0  0  0  0  0  0  0  0
   -5.4010   19.6507  -32.6034 H   0  0  0  0  0  0  0  0  0  0  0  0
  1  2  1  0
  2  3  1  0
  3  4  2  0
  3  5  1  0
  5  6  1  0
  6  7  1  0
  7  8  2  0
  7  9  1  0
  9 10  1  0
 10 11  1  0
 11 12  1  0
 12 13  1  0
 13 14  2  0
 13 15  1  0
 15 16  1  0
 16 17  1  0
 17 18  1  0
 17 19  2  0
 16 20  2  0
 20 21  1  0
 21 22  2  0
 22 23  1  0
 23 24  2  0
 24 25  1  0
 25 26  1  0
 26 27  1  0
 24 28  1  0
 28 29  2  0
 10  5  2  0
 29 15  1  0
 29 21  1  0
  1 30  1  0
  1 31  1  0
  1 32  1  0
 11 33  1  0
 11 34  1  0
 18 35  1  0
 18 36  1  0
 20 37  1  0
 22 38  1  0
 23 39  1  0
 25 40  1  0
 25 41  1  0
 26 42  1  0
 26 43  1  0
 27 44  1  0
 28 45  1  0
M  END
>  <UniqueID>  (87) 
87

>  <SMILES>  (87) 
COC(=O)c1oc(=O)oc1COC(=O)n1c(C(N)=O)cc2ccc(CCO)cc21

>  <Energy>  (87) 
111.27666072616006

>  <Genealogy>  (87) 
COC(=O)c1oc(=O)oc1COC(=O)n1c(C(N)=O)cc2ccc(CCO)cc21 (3D coordinates assigned)
COC(=O)c1oc(=O)oc1COC(=O)n1c(C(N)=O)cc2ccc(CCO)cc21 (optimized conformer: 111.27666072616006 kcal/mol)

>  <smiles>  (87) 
COC(=O)c1oc(=O)oc1COC(=O)n1c(C(N)=O)cc2ccc(CCO)cc21

>  <score_type>  (87) 
oracle

>  <origin>  (87) 
adg

>  <m_score__min__energy>  (87) 
-8.9600000000000009

>  <m_primary>  (87) 
energy

$$$$
87:0
     RDKit          3D

 48 50  0  0  0  0  0  0  0  0999 V2000
   -3.9270   25.6230  -30.8950 N   0  0  0  0  0  0  0  0  0  0  0  0
   -5.2570   25.3180  -30.4800 C   0  0  0  0  0  0  0  0  0  0  0  0
   -5.8250   26.0690  -29.6440 O   0  0  0  0  0  0  0  0  0  0  0  0
   -5.9490   24.1040  -30.9620 C   0  0  0  0  0  0  0  0  0  0  0  0
   -7.3360   23.9710  -30.9730 C   0  0  0  0  0  0  0  0  0  0  0  0
   -7.5760   22.6840  -31.3970 C   0  0  0  0  0  0  0  0  0  0  0  0
   -8.7810   22.0190  -31.5980 C   0  0  0  0  0  0  0  0  0  0  0  0
   -8.7360   20.6960  -32.0660 C   0  0  0  0  0  0  0  0  0  0  0  0
   -7.4940   20.0700  -32.3370 C   0  0  0  0  0  0  0  0  0  0  0  0
   -7.4560   18.6470  -32.8180 C   0  0  0  0  0  0  0  0  0  0  0  0
   -6.4250   17.8720  -32.0600 C   0  0  0  0  0  0  0  0  0  0  0  0
   -6.1860   18.1590  -30.8540 O   0  0  0  0  0  0  0  0  0  0  0  0
   -5.7360   16.7930  -32.7020 N   0  0  0  0  0  0  0  0  0  0  0  0
   -5.8630   16.4820  -34.1220 C   0  0  0  0  0  0  0  0  0  0  0  0
   -5.2920   17.6180  -34.9750 C   0  0  0  0  0  0  0  0  0  0  0  0
   -4.0430   18.1050  -34.3950 N   0  0  0  0  0  0  0  0  0  0  0  0
   -3.8270   19.3090  -33.8390 C   0  0  0  0  0  0  0  0  0  0  0  0
   -2.5430   19.3190  -33.3430 C   0  0  0  0  0  0  0  0  0  0  0  0
   -1.9570   18.1250  -33.5730 N   0  0  0  0  0  0  0  0  0  0  0  0
   -2.9040   17.4080  -34.2160 C   0  0  0  0  0  0  0  0  0  0  0  0
   -6.2900   20.7730  -32.1110 C   0  0  0  0  0  0  0  0  0  0  0  0
   -6.3670   22.0860  -31.6300 C   0  0  0  0  0  0  0  0  0  0  0  0
   -5.3550   22.9460  -31.3720 N   0  0  0  0  0  0  0  0  0  0  0  0
   -3.9570   22.6900  -31.5800 C   0  0  0  0  0  0  0  0  0  0  0  0
   -3.5760   22.0410  -32.5930 O   0  0  0  0  0  0  0  0  0  0  0  0
   -3.0260   23.1350  -30.6380 O   0  0  0  0  0  0  0  0  0  0  0  0
   -3.1590   22.8870  -29.2430 C   0  0  0  0  0  0  0  0  0  0  0  0
   -2.5220   24.0250  -28.4560 C   0  0  0  0  0  0  0  0  0  0  0  0
   -1.8800   24.9050  -29.3360 O   0  0  0  0  0  0  0  0  0  0  0  0
   -3.1030   25.2900  -30.3460 H   0  0  0  0  0  0  0  0  0  0  0  0
   -8.0810   24.7331  -30.7006 H   0  0  0  0  0  0  0  0  0  0  0  0
   -9.7417   22.5153  -31.3961 H   0  0  0  0  0  0  0  0  0  0  0  0
   -9.6725   20.1409  -32.2236 H   0  0  0  0  0  0  0  0  0  0  0  0
   -8.4426   18.1854  -32.6649 H   0  0  0  0  0  0  0  0  0  0  0  0
   -7.1980   18.6367  -33.8873 H   0  0  0  0  0  0  0  0  0  0  0  0
   -5.3129   15.5546  -34.3397 H   0  0  0  0  0  0  0  0  0  0  0  0
   -6.9288   16.3576  -34.3641 H   0  0  0  0  0  0  0  0  0  0  0  0
   -5.0999   17.2471  -35.9926 H   0  0  0  0  0  0  0  0  0  0  0  0
   -6.0187   18.4431  -35.0072 H   0  0  0  0  0  0  0  0  0  0  0  0
   -4.5476   20.1386  -33.7891 H   0  0  0  0  0  0  0  0  0  0  0  0
   -2.0666   20.1710  -32.8360 H   0  0  0  0  0  0  0  0  0  0  0  0
   -2.7613   16.3714  -34.5554 H   0  0  0  0  0  0  0  0  0  0  0  0
   -5.3161   20.3010  -32.3079 H   0  0  0  0  0  0  0  0  0  0  0  0
   -4.2258   22.8159  -28.9844 H   0  0  0  0  0  0  0  0  0  0  0  0
   -2.6540   21.9427  -28.9912 H   0  0  0  0  0  0  0  0  0  0  0  0
   -3.3017   24.5670  -27.9007 H   0  0  0  0  0  0  0  0  0  0  0  0
   -1.7854   23.6129  -27.7506 H   0  0  0  0  0  0  0  0  0  0  0  0
   -2.0990   24.5900  -30.2510 H   0  0  0  0  0  0  0  0  0  0  0  0
  1  2  1  0
  2  3  2  0
  2  4  1  0
  4  5  2  0
  5  6  1  0
  6  7  2  0
  7  8  1  0
  8  9  2  0
  9 10  1  0
 10 11  1  0
 11 12  2  0
 11 13  1  0
 13 14  1  0
 14 15  1  0
 15 16  1  0
 16 17  1  0
 17 18  2  0
 18 19  1  0
 19 20  1  0
  9 21  1  0
 21 22  2  0
 22 23  1  0
 23 24  1  0
 24 25  2  0
 24 26  1  0
 26 27  1  0
 27 28  1  0
 28 29  1  0
 23  4  1  0
 22  6  1  0
 20 16  2  0
  1 30  1  0
  5 31  1  0
  7 32  1  0
  8 33  1  0
 10 34  1  0
 10 35  1  0
 14 36  1  0
 14 37  1  0
 15 38  1  0
 15 39  1  0
 17 40  1  0
 18 41  1  0
 20 42  1  0
 21 43  1  0
 27 44  1  0
 27 45  1  0
 28 46  1  0
 28 47  1  0
 29 48  1  0
M  CHG  4   1  -1  13  -1  16   1  19  -1
M  END
>  <UniqueID>  (88) 
88

>  <SMILES>  (88) 
[NH-]C(=O)c1cc2ccc(CC(=O)[N-]CC[n+]3cc[n-]c3)cc2n1C(=O)OCCO

>  <Energy>  (88) 
106.3860945609956

>  <Genealogy>  (88) 
[NH-]C(=O)c1cc2ccc(CC(=O)[N-]CC[n+]3cc[n-]c3)cc2n1C(=O)OCCO (protonated)
[NH-]C(=O)c1cc2ccc(CC(=O)[N-]CC[n+]3cc[n-]c3)cc2n1C(=O)OCCO (3D coordinates assigned)
[NH-]C(=O)c1cc2ccc(CC(=O)[N-]CC[n+]3cc[n-]c3)cc2n1C(=O)OCCO (optimized conformer: 106.3860945609956 kcal/mol)

>  <smiles>  (88) 
NC(=O)c1cc2ccc(CC(=O)NCC[n+]3cc[nH]c3)cc2n1C(=O)OCCO

>  <score_type>  (88) 
oracle

>  <origin>  (88) 
adg

>  <m_score__min__energy>  (88) 
-11.15

>  <m_primary>  (88) 
energy

$$$$
88:0
     RDKit          3D

 41 43  0  0  0  0  0  0  0  0999 V2000
   -5.0670   16.2680  -32.6980 N   0  0  0  0  0  0  0  0  0  0  0  0
   -6.2290   16.8530  -33.2870 C   0  0  0  0  0  0  0  0  0  0  0  0
   -6.8780   16.1990  -34.1470 O   0  0  0  0  0  0  0  0  0  0  0  0
   -6.7150   18.1850  -32.8720 C   0  0  0  0  0  0  0  0  0  0  0  0
   -8.0540   18.4660  -32.6060 C   0  0  0  0  0  0  0  0  0  0  0  0
   -8.0750   19.7770  -32.1900 C   0  0  0  0  0  0  0  0  0  0  0  0
   -9.1440   20.5780  -31.7960 C   0  0  0  0  0  0  0  0  0  0  0  0
   -8.8730   21.9070  -31.4350 C   0  0  0  0  0  0  0  0  0  0  0  0
   -7.5500   22.4150  -31.4880 C   0  0  0  0  0  0  0  0  0  0  0  0
   -7.2680   23.8340  -31.0710 C   0  0  0  0  0  0  0  0  0  0  0  0
   -5.8990   24.2810  -31.5860 C   0  0  0  0  0  0  0  0  0  0  0  0
   -5.2790   25.2600  -30.6390 C   0  0  0  0  0  0  0  0  0  0  0  0
   -6.0080   26.0800  -30.0170 O   0  0  0  0  0  0  0  0  0  0  0  0
   -3.8590   25.2940  -30.4860 N   0  0  0  0  0  0  0  0  0  0  0  0
   -3.1710   24.5530  -29.4380 C   0  0  0  0  0  0  0  0  0  0  0  0
   -4.0870   24.1690  -28.2910 C   0  0  0  0  0  0  0  0  0  0  0  0
   -3.6430   23.1180  -29.2990 C   0  0  0  0  0  0  0  0  0  0  0  0
   -6.4890   21.5700  -31.8830 C   0  0  0  0  0  0  0  0  0  0  0  0
   -6.7870   20.2460  -32.2220 C   0  0  0  0  0  0  0  0  0  0  0  0
   -5.9410   19.2830  -32.6440 N   0  0  0  0  0  0  0  0  0  0  0  0
   -4.5370   19.4460  -32.8980 C   0  0  0  0  0  0  0  0  0  0  0  0
   -3.7370   18.5180  -32.6020 O   0  0  0  0  0  0  0  0  0  0  0  0
   -3.9970   20.7340  -33.4370 C   0  0  0  0  0  0  0  0  0  0  0  0
   -2.9580   21.5020  -32.2120 Cl  0  0  0  0  0  0  0  0  0  0  0  0
   -4.7070   15.3530  -33.0490 H   0  0  0  0  0  0  0  0  0  0  0  0
   -4.6120   16.6920  -31.8600 H   0  0  0  0  0  0  0  0  0  0  0  0
   -8.9115   17.7845  -32.7072 H   0  0  0  0  0  0  0  0  0  0  0  0
  -10.1696   20.1812  -31.7686 H   0  0  0  0  0  0  0  0  0  0  0  0
   -9.6948   22.5609  -31.1078 H   0  0  0  0  0  0  0  0  0  0  0  0
   -8.0441   24.4942  -31.4855 H   0  0  0  0  0  0  0  0  0  0  0  0
   -7.2706   23.8894  -29.9724 H   0  0  0  0  0  0  0  0  0  0  0  0
   -5.2430   23.4030  -31.6805 H   0  0  0  0  0  0  0  0  0  0  0  0
   -6.0271   24.7646  -32.5656 H   0  0  0  0  0  0  0  0  0  0  0  0
   -2.1895   25.0413  -29.5285 H   0  0  0  0  0  0  0  0  0  0  0  0
   -3.6992   24.1431  -27.2620 H   0  0  0  0  0  0  0  0  0  0  0  0
   -5.0570   24.5272  -27.9159 H   0  0  0  0  0  0  0  0  0  0  0  0
   -2.9342   22.3322  -28.9986 H   0  0  0  0  0  0  0  0  0  0  0  0
   -4.1591   22.4013  -29.9547 H   0  0  0  0  0  0  0  0  0  0  0  0
   -5.4552   21.9436  -31.9230 H   0  0  0  0  0  0  0  0  0  0  0  0
   -3.4076   20.5334  -34.3438 H   0  0  0  0  0  0  0  0  0  0  0  0
   -4.8318   21.4067  -33.6831 H   0  0  0  0  0  0  0  0  0  0  0  0
  1  2  1  0
  2  3  2  0
  2  4  1  0
  4  5  2  0
  5  6  1  0
  6  7  2  0
  7  8  1  0
  8  9  2  0
  9 10  1  0
 10 11  1  0
 11 12  1  0
 12 13  2  0
 12 14  1  0
 14 15  1  0
 15 16  1  0
 16 17  1  0
  9 18  1  0
 18 19  2  0
 19 20  1  0
 20 21  1  0
 21 22  2  0
 21 23  1  0
 23 24  1  0
 20  4  1  0
 19  6  1  0
 17 15  1  0
  1 25  1  0
  1 26  1  0
  5 27  1  0
  7 28  1  0
  8 29  1  0
 10 30  1  0
 10 31  1  0
 11 32  1  0
 11 33  1  0
 15 34  1  0
 16 35  1  0
 16 36  1  0
 17 37  1  0
 17 38  1  0
 18 39  1  0
 23 40  1  0
 23 41  1  0
M  CHG  1  14  -1
M  END
>  <UniqueID>  (89) 
89

>  <SMILES>  (89) 
NC(=O)c1cc2ccc(CCC(=O)[N-]C3CC3)cc2n1C(=O)CCl

>  <Energy>  (89) 
339.55986532976004

>  <Genealogy>  (89) 
NC(=O)c1cc2ccc(CCC(=O)[N-]C3CC3)cc2n1C(=O)CCl (protonated)
NC(=O)c1cc2ccc(CCC(=O)[N-]C3CC3)cc2n1C(=O)CCl (3D coordinates assigned)
NC(=O)c1cc2ccc(CCC(=O)[N-]C3CC3)cc2n1C(=O)CCl (nonaromatic ring conformer: 339.55986532976004 kcal/mol)

>  <smiles>  (89) 
NC(=O)c1cc2ccc(CCC(=O)NC3CC3)cc2n1C(=O)CCl

>  <score_type>  (89) 
oracle

>  <origin>  (89) 
adg

>  <m_score__min__energy>  (89) 
-10.17

>  <m_primary>  (89) 
energy

$$$$
89:0
     RDKit          3D

 58 59  0  0  0  0  0  0  0  0999 V2000
   -9.4420   23.4610  -32.2040 N   0  0  0  0  0  0  0  0  0  0  0  0
   -9.1420   22.1820  -31.6420 C   0  0  0  0  0  0  0  0  0  0  0  0
   -9.9370   21.6800  -30.8050 O   0  0  0  0  0  0  0  0  0  0  0  0
   -7.9220   21.4450  -32.0370 C   0  0  0  0  0  0  0  0  0  0  0  0
   -7.8970   20.1160  -32.4640 C   0  0  0  0  0  0  0  0  0  0  0  0
   -6.5680   19.8310  -32.6930 C   0  0  0  0  0  0  0  0  0  0  0  0
   -5.9640   18.6670  -33.1600 C   0  0  0  0  0  0  0  0  0  0  0  0
   -4.5700   18.6730  -33.3360 C   0  0  0  0  0  0  0  0  0  0  0  0
   -3.8080   19.8310  -33.0380 C   0  0  0  0  0  0  0  0  0  0  0  0
   -2.3180   19.8370  -33.2660 C   0  0  0  0  0  0  0  0  0  0  0  0
   -1.6880   21.1910  -32.9080 C   0  0  0  0  0  0  0  0  0  0  0  0
   -0.1770   21.2220  -33.1830 C   0  0  0  0  0  0  0  0  0  0  0  0
    0.0960   21.3350  -34.6540 C   0  0  0  0  0  0  0  0  0  0  0  0
    0.4330   22.4040  -35.1400 O   0  0  0  0  0  0  0  0  0  0  0  0
   -4.4570   20.9950  -32.5700 C   0  0  0  0  0  0  0  0  0  0  0  0
   -5.8440   20.9570  -32.4040 C   0  0  0  0  0  0  0  0  0  0  0  0
   -6.6580   21.9530  -32.0030 N   0  0  0  0  0  0  0  0  0  0  0  0
   -6.2570   23.2980  -31.7140 C   0  0  0  0  0  0  0  0  0  0  0  0
   -6.6830   24.2380  -32.4400 O   0  0  0  0  0  0  0  0  0  0  0  0
   -5.4830   23.6090  -30.4600 C   0  0  1  0  0  0  0  0  0  0  0  0
   -5.2500   22.4090  -29.7190 O   0  0  0  0  0  0  0  0  0  0  0  0
   -4.2540   22.2850  -28.7460 C   0  0  0  0  0  0  0  0  0  0  0  0
   -4.2840   22.9980  -27.7030 O   0  0  0  0  0  0  0  0  0  0  0  0
   -3.2240   21.3610  -28.9490 O   0  0  0  0  0  0  0  0  0  0  0  0
   -2.9570   20.2740  -28.0630 C   0  0  0  0  0  0  0  0  0  0  0  0
   -1.5900   20.4470  -27.3950 C   0  0  0  0  0  0  0  0  0  0  0  0
   -1.2210   21.9320  -27.2770 C   0  0  0  0  0  0  0  0  0  0  0  0
   -0.5880   22.4610  -28.5650 C   0  0  0  0  0  0  0  0  0  0  0  0
   -1.3680   23.5200  -29.0720 O   0  0  0  0  0  0  0  0  0  0  0  0
   -0.8330   24.9700  -28.3520 P   0  0  0  0  0  0  0  0  0  0  0  0
   -1.5060   25.1320  -27.0090 O   0  0  0  0  0  0  0  0  0  0  0  0
   -1.2340   26.2910  -29.3330 O   0  0  0  0  0  0  0  0  0  0  0  0
    0.8430   24.9220  -28.1270 O   0  0  0  0  0  0  0  0  0  0  0  0
   -4.1790   24.2770  -30.7920 C   0  0  0  0  0  0  0  0  0  0  0  0
   -3.2040   23.6010  -31.2180 O   0  0  0  0  0  0  0  0  0  0  0  0
   -4.0550   25.6560  -30.6630 O   0  0  0  0  0  0  0  0  0  0  0  0
  -10.3100   23.9670  -31.9180 H   0  0  0  0  0  0  0  0  0  0  0  0
   -8.7780   23.9430  -32.8490 H   0  0  0  0  0  0  0  0  0  0  0  0
   -8.7555   19.4400  -32.5907 H   0  0  0  0  0  0  0  0  0  0  0  0
   -6.5598   17.7700  -33.3844 H   0  0  0  0  0  0  0  0  0  0  0  0
   -4.0646   17.7699  -33.7088 H   0  0  0  0  0  0  0  0  0  0  0  0
   -1.8598   19.0557  -32.6418 H   0  0  0  0  0  0  0  0  0  0  0  0
   -2.1365   19.6490  -34.3345 H   0  0  0  0  0  0  0  0  0  0  0  0
   -2.1727   21.9761  -33.5069 H   0  0  0  0  0  0  0  0  0  0  0  0
   -1.8375   21.3574  -31.8310 H   0  0  0  0  0  0  0  0  0  0  0  0
    0.2656   22.0867  -32.6669 H   0  0  0  0  0  0  0  0  0  0  0  0
    0.2673   20.2861  -32.8134 H   0  0  0  0  0  0  0  0  0  0  0  0
   -0.0079   20.4499  -35.2988 H   0  0  0  0  0  0  0  0  0  0  0  0
   -3.8858   21.9071  -32.3423 H   0  0  0  0  0  0  0  0  0  0  0  0
   -6.0775   24.3003  -29.8446 H   0  0  0  0  0  0  0  0  0  0  0  0
   -3.7366   20.2396  -27.2877 H   0  0  0  0  0  0  0  0  0  0  0  0
   -2.9537   19.3379  -28.6407 H   0  0  0  0  0  0  0  0  0  0  0  0
   -1.6221   20.0030  -26.3891 H   0  0  0  0  0  0  0  0  0  0  0  0
   -0.8312   19.9448  -28.0131 H   0  0  0  0  0  0  0  0  0  0  0  0
   -2.1323   22.5101  -27.0640 H   0  0  0  0  0  0  0  0  0  0  0  0
   -0.4873   22.0398  -26.4646 H   0  0  0  0  0  0  0  0  0  0  0  0
    0.4284   22.8237  -28.3518 H   0  0  0  0  0  0  0  0  0  0  0  0
   -0.5404   21.6521  -29.3090 H   0  0  0  0  0  0  0  0  0  0  0  0
  1  2  1  0
  2  3  2  0
  2  4  1  0
  4  5  2  0
  5  6  1  0
  6  7  2  0
  7  8  1  0
  8  9  2  0
  9 10  1  0
 10 11  1  0
 11 12  1  0
 12 13  1  0
 13 14  2  0
  9 15  1  0
 15 16  2  0
 16 17  1  0
 17 18  1  0
 18 19  2  0
 18 20  1  0
 20 21  1  0
 21 22  1  0
 22 23  2  0
 22 24  1  0
 24 25  1  0
 25 26  1  0
 26 27  1  0
 27 28  1  0
 28 29  1  0
 29 30  1  0
 30 31  2  0
 30 32  1  0
 30 33  1  0
 20 34  1  0
 34 35  2  0
 34 36  1  0
 17  4  1  0
 16  6  1  0
  1 37  1  0
  1 38  1  0
  5 39  1  0
  7 40  1  0
  8 41  1  0
 10 42  1  0
 10 43  1  0
 11 44  1  0
 11 45  1  0
 12 46  1  0
 12 47  1  0
 13 48  1  0
 15 49  1  0
 20 50  1  1
 25 51  1  0
 25 52  1  0
 26 53  1  0
 26 54  1  0
 27 55  1  0
 27 56  1  0
 28 57  1  0
 28 58  1  0
M  CHG  3  32  -1  33  -1  36  -1
M  END
>  <UniqueID>  (90) 
90

>  <SMILES>  (90) 
NC(=O)c1cc2ccc(CCCC=O)cc2n1C(=O)[C@@H](OC(=O)OCCCCOP(=O)([O-])[O-])C(=O)[O-]

>  <Energy>  (90) 
80.45955636777438

>  <Genealogy>  (90) 
NC(=O)c1cc2ccc(CCCC=O)cc2n1C(=O)C(OC(=O)OCCCCOP(=O)([O-])[O-])C(=O)[O-] (protonated)
NC(=O)c1cc2ccc(CCCC=O)cc2n1C(=O)[C@@H](OC(=O)OCCCCOP(=O)([O-])[O-])C(=O)[O-] (chirality)
NC(=O)c1cc2ccc(CCCC=O)cc2n1C(=O)[C@@H](OC(=O)OCCCCOP(=O)([O-])[O-])C(=O)[O-] (3D coordinates assigned)
NC(=O)c1cc2ccc(CCCC=O)cc2n1C(=O)[C@@H](OC(=O)OCCCCOP(=O)([O-])[O-])C(=O)[O-] (optimized conformer: 80.45955636777438 kcal/mol)

>  <smiles>  (90) 
NC(=O)c1cc2ccc(CCCC=O)cc2n1C(=O)C(OC(=O)OCCCCOP(=O)(O)O)C(=O)O

>  <score_type>  (90) 
oracle

>  <origin>  (90) 
adg

>  <m_score__min__energy>  (90) 
-13.369999999999999

>  <m_primary>  (90) 
energy

$$$$
90:0
     RDKit          3D

 47 49  0  0  0  0  0  0  0  0999 V2000
   -7.0880   15.3990  -34.2250 C   0  0  0  0  0  0  0  0  0  0  0  0
   -6.0200   15.9050  -33.3450 N   0  0  0  0  0  0  0  0  0  0  0  0
   -4.6970   15.9200  -34.0030 C   0  0  0  0  0  0  0  0  0  0  0  0
   -4.5450   17.0700  -35.0120 C   0  0  0  0  0  0  0  0  0  0  0  0
   -4.8500   18.4140  -34.3510 C   0  0  0  0  0  0  0  0  0  0  0  0
   -6.2410   18.3880  -33.6990 C   0  0  2  0  0  0  0  0  0  0  0  0
   -6.5520   19.7030  -33.0090 C   0  0  0  0  0  0  0  0  0  0  0  0
   -7.8940   20.1210  -32.7990 C   0  0  0  0  0  0  0  0  0  0  0  0
   -8.1780   21.3470  -32.1750 C   0  0  0  0  0  0  0  0  0  0  0  0
   -7.1080   22.1330  -31.7640 C   0  0  0  0  0  0  0  0  0  0  0  0
   -7.0980   23.3730  -31.1670 C   0  0  0  0  0  0  0  0  0  0  0  0
   -5.7520   23.6900  -30.9970 C   0  0  0  0  0  0  0  0  0  0  0  0
   -5.2840   24.9130  -30.3110 C   0  0  0  0  0  0  0  0  0  0  0  0
   -4.1800   25.6600  -30.8160 N   0  0  0  0  0  0  0  0  0  0  0  0
   -5.8370   25.2770  -29.2390 O   0  0  0  0  0  0  0  0  0  0  0  0
   -4.9610   22.6890  -31.4770 N   0  0  0  0  0  0  0  0  0  0  0  0
   -3.5290   22.6750  -31.5780 C   0  0  0  0  0  0  0  0  0  0  0  0
   -2.9700   21.9760  -32.4680 O   0  0  0  0  0  0  0  0  0  0  0  0
   -2.7630   23.4490  -30.6990 O   0  0  0  0  0  0  0  0  0  0  0  0
   -2.1660   22.9380  -29.5090 C   0  0  0  0  0  0  0  0  0  0  0  0
   -1.9050   24.0600  -28.5070 C   0  0  0  0  0  0  0  0  0  0  0  0
   -2.3780   25.2780  -29.0090 O   0  0  0  0  0  0  0  0  0  0  0  0
   -5.8060   21.7430  -31.9420 C   0  0  0  0  0  0  0  0  0  0  0  0
   -5.4930   20.5360  -32.5770 C   0  0  0  0  0  0  0  0  0  0  0  0
   -6.3570   17.2000  -32.7170 C   0  0  0  0  0  0  0  0  0  0  0  0
   -7.9135   15.0079  -33.6122 H   0  0  0  0  0  0  0  0  0  0  0  0
   -7.4584   16.2173  -34.8599 H   0  0  0  0  0  0  0  0  0  0  0  0
   -6.6894   14.5940  -34.8599 H   0  0  0  0  0  0  0  0  0  0  0  0
   -3.9215   16.0261  -33.2301 H   0  0  0  0  0  0  0  0  0  0  0  0
   -4.5935   14.9765  -34.5590 H   0  0  0  0  0  0  0  0  0  0  0  0
   -3.5134   17.0813  -35.3936 H   0  0  0  0  0  0  0  0  0  0  0  0
   -5.2558   16.9126  -35.8366 H   0  0  0  0  0  0  0  0  0  0  0  0
   -4.0924   18.6188  -33.5802 H   0  0  0  0  0  0  0  0  0  0  0  0
   -4.8311   19.2013  -35.1190 H   0  0  0  0  0  0  0  0  0  0  0  0
   -6.9882   18.2506  -34.4945 H   0  0  0  0  0  0  0  0  0  0  0  0
   -8.7214   19.4758  -33.1295 H   0  0  0  0  0  0  0  0  0  0  0  0
   -9.2159   21.6751  -32.0164 H   0  0  0  0  0  0  0  0  0  0  0  0
   -7.9679   23.9840  -30.8842 H   0  0  0  0  0  0  0  0  0  0  0  0
   -3.2040   25.2990  -30.7310 H   0  0  0  0  0  0  0  0  0  0  0  0
   -2.8428   22.1993  -29.0548 H   0  0  0  0  0  0  0  0  0  0  0  0
   -1.2060   22.4688  -29.7702 H   0  0  0  0  0  0  0  0  0  0  0  0
   -2.4214   23.8312  -27.5631 H   0  0  0  0  0  0  0  0  0  0  0  0
   -0.8218   24.1405  -28.3334 H   0  0  0  0  0  0  0  0  0  0  0  0
   -3.3060   25.1070  -29.3170 H   0  0  0  0  0  0  0  0  0  0  0  0
   -4.4455   20.2409  -32.7370 H   0  0  0  0  0  0  0  0  0  0  0  0
   -5.6708   17.3716  -31.8746 H   0  0  0  0  0  0  0  0  0  0  0  0
   -7.4041   17.1452  -32.3845 H   0  0  0  0  0  0  0  0  0  0  0  0
  1  2  1  0
  2  3  1  0
  3  4  1  0
  4  5  1  0
  5  6  1  0
  6  7  1  0
  7  8  2  0
  8  9  1  0
  9 10  2  0
 10 11  1  0
 11 12  2  0
 12 13  1  0
 13 14  1  0
 13 15  2  0
 12 16  1  0
 16 17  1  0
 17 18  2  0
 17 19  1  0
 19 20  1  0
 20 21  1  0
 21 22  1  0
 16 23  1  0
 23 24  2  0
  6 25  1  0
 25  2  1  0
 24  7  1  0
 23 10  1  0
  1 26  1  0
  1 27  1  0
  1 28  1  0
  3 29  1  0
  3 30  1  0
  4 31  1  0
  4 32  1  0
  5 33  1  0
  5 34  1  0
  6 35  1  6
  8 36  1  0
  9 37  1  0
 11 38  1  0
 14 39  1  0
 20 40  1  0
 20 41  1  0
 21 42  1  0
 21 43  1  0
 22 44  1  0
 24 45  1  0
 25 46  1  0
 25 47  1  0
M  CHG  1  14  -1
M  END
>  <UniqueID>  (91) 
91

>  <SMILES>  (91) 
CN1CCC[C@H](c2ccc3cc(C([NH-])=O)n(C(=O)OCCO)c3c2)C1

>  <Energy>  (91) 
84.7652358972112

>  <Genealogy>  (91) 
CN1CCC[C@H](c2ccc3cc(C([NH-])=O)n(C(=O)OCCO)c3c2)C1 (protonated)
CN1CCC[C@H](c2ccc3cc(C([NH-])=O)n(C(=O)OCCO)c3c2)C1 (3D coordinates assigned)
CN1CCC[C@H](c2ccc3cc(C([NH-])=O)n(C(=O)OCCO)c3c2)C1 (nonaromatic ring conformer: 84.7652358972112 kcal/mol)

>  <smiles>  (91) 
CN1CCC[C@H](c2ccc3cc(C(N)=O)n(C(=O)OCCO)c3c2)C1

>  <score_type>  (91) 
oracle

>  <origin>  (91) 
adg

>  <m_score__min__energy>  (91) 
-11.199999999999999

>  <m_primary>  (91) 
energy

$$$$
91:0
     RDKit          3D

 42 44  0  0  0  0  0  0  0  0999 V2000
   -4.0660   16.8670  -34.4880 C   0  0  0  0  0  0  0  0  0  0  0  0
   -4.7720   15.9030  -33.7410 O   0  0  0  0  0  0  0  0  0  0  0  0
   -6.1280   16.2870  -33.6590 C   0  0  0  0  0  0  0  0  0  0  0  0
   -6.3440   17.6560  -34.2210 C   0  0  0  0  0  0  0  0  0  0  0  0
   -6.6720   18.3050  -32.9390 N   0  0  0  0  0  0  0  0  0  0  0  0
   -7.0270   19.6080  -32.4760 C   0  0  0  0  0  0  0  0  0  0  0  0
   -8.3880   19.9890  -32.4100 C   0  0  0  0  0  0  0  0  0  0  0  0
   -8.7490   21.2720  -31.9620 C   0  0  0  0  0  0  0  0  0  0  0  0
   -7.7300   22.1420  -31.5840 C   0  0  0  0  0  0  0  0  0  0  0  0
   -7.7900   23.4440  -31.1390 C   0  0  0  0  0  0  0  0  0  0  0  0
   -6.4650   23.8200  -30.9230 C   0  0  0  0  0  0  0  0  0  0  0  0
   -6.0620   25.1430  -30.4080 C   0  0  0  0  0  0  0  0  0  0  0  0
   -6.5060   25.6070  -29.1330 N   0  0  0  0  0  0  0  0  0  0  0  0
   -5.3530   25.8970  -31.1250 O   0  0  0  0  0  0  0  0  0  0  0  0
   -5.6220   22.7970  -31.2370 N   0  0  0  0  0  0  0  0  0  0  0  0
   -4.1870   22.8130  -31.2800 C   0  0  0  0  0  0  0  0  0  0  0  0
   -3.6010   22.4760  -32.3440 O   0  0  0  0  0  0  0  0  0  0  0  0
   -3.3830   23.3730  -30.1330 C   0  0  2  0  0  0  0  0  0  0  0  0
   -4.0790   23.1200  -28.7920 C   0  0  0  0  0  0  0  0  0  0  0  0
   -3.1810   24.7520  -30.3090 O   0  0  0  0  0  0  0  0  0  0  0  0
   -6.4100   21.7790  -31.6350 C   0  0  0  0  0  0  0  0  0  0  0  0
   -6.0200   20.5140  -32.0870 C   0  0  0  0  0  0  0  0  0  0  0  0
   -6.4630   16.9630  -32.3650 C   0  0  0  0  0  0  0  0  0  0  0  0
   -3.5575   17.5614  -33.8030 H   0  0  0  0  0  0  0  0  0  0  0  0
   -3.3201   16.3654  -35.1221 H   0  0  0  0  0  0  0  0  0  0  0  0
   -4.7693   17.4267  -35.1221 H   0  0  0  0  0  0  0  0  0  0  0  0
   -6.6229   15.3726  -34.0182 H   0  0  0  0  0  0  0  0  0  0  0  0
   -5.4380   18.0710  -34.6868 H   0  0  0  0  0  0  0  0  0  0  0  0
   -7.0801   17.7526  -35.0327 H   0  0  0  0  0  0  0  0  0  0  0  0
   -9.1696   19.2761  -32.7114 H   0  0  0  0  0  0  0  0  0  0  0  0
   -9.8041   21.5789  -31.9117 H   0  0  0  0  0  0  0  0  0  0  0  0
   -8.6909   24.0564  -30.9866 H   0  0  0  0  0  0  0  0  0  0  0  0
   -7.2360   25.0930  -28.5940 H   0  0  0  0  0  0  0  0  0  0  0  0
   -6.1670   26.5230  -28.7630 H   0  0  0  0  0  0  0  0  0  0  0  0
   -2.4103   22.8595  -30.1212 H   0  0  0  0  0  0  0  0  0  0  0  0
   -3.3924   23.3696  -27.9697 H   0  0  0  0  0  0  0  0  0  0  0  0
   -4.9790   23.7485  -28.7217 H   0  0  0  0  0  0  0  0  0  0  0  0
   -4.3654   22.0603  -28.7217 H   0  0  0  0  0  0  0  0  0  0  0  0
   -3.4820   24.9710  -31.2300 H   0  0  0  0  0  0  0  0  0  0  0  0
   -4.9574   20.2343  -32.1374 H   0  0  0  0  0  0  0  0  0  0  0  0
   -5.6330   16.9343  -31.6437 H   0  0  0  0  0  0  0  0  0  0  0  0
   -7.2880   16.5362  -31.7758 H   0  0  0  0  0  0  0  0  0  0  0  0
  1  2  1  0
  2  3  1  0
  3  4  1  0
  4  5  1  0
  5  6  1  0
  6  7  2  0
  7  8  1  0
  8  9  2  0
  9 10  1  0
 10 11  2  0
 11 12  1  0
 12 13  1  0
 12 14  2  0
 11 15  1  0
 15 16  1  0
 16 17  2  0
 16 18  1  0
 18 19  1  0
 18 20  1  0
 15 21  1  0
 21 22  2  0
  5 23  1  0
 23  3  1  0
 22  6  1  0
 21  9  1  0
  1 24  1  0
  1 25  1  0
  1 26  1  0
  3 27  1  0
  4 28  1  0
  4 29  1  0
  7 30  1  0
  8 31  1  0
 10 32  1  0
 13 33  1  0
 13 34  1  0
 18 35  1  1
 19 36  1  0
 19 37  1  0
 19 38  1  0
 20 39  1  0
 22 40  1  0
 23 41  1  0
 23 42  1  0
M  END
>  <UniqueID>  (92) 
92

>  <SMILES>  (92) 
COC1CN(c2ccc3cc(C(N)=O)n(C(=O)[C@H](C)O)c3c2)C1

>  <Energy>  (92) 
127.31388635438756

>  <Genealogy>  (92) 
COC1CN(c2ccc3cc(C(N)=O)n(C(=O)[C@H](C)O)c3c2)C1 (chirality)
COC1CN(c2ccc3cc(C(N)=O)n(C(=O)[C@H](C)O)c3c2)C1 (3D coordinates assigned)
COC1CN(c2ccc3cc(C(N)=O)n(C(=O)[C@H](C)O)c3c2)C1 (nonaromatic ring conformer: 127.31388635438756 kcal/mol)

>  <smiles>  (92) 
COC1CN(c2ccc3cc(C(N)=O)n(C(=O)C(C)O)c3c2)C1

>  <score_type>  (92) 
oracle

>  <origin>  (92) 
adg

>  <m_score__min__energy>  (92) 
-9.0399999999999991

>  <m_primary>  (92) 
energy

$$$$
92:0
     RDKit          3D

 41 43  0  0  0  0  0  0  0  0999 V2000
   -7.5450   13.3240  -34.9990 C   0  0  0  0  0  0  0  0  0  0  0  0
   -6.4240   13.2910  -34.1250 O   0  0  0  0  0  0  0  0  0  0  0  0
   -5.4140   14.2590  -34.1550 C   0  0  0  0  0  0  0  0  0  0  0  0
   -4.2640   13.9580  -34.5810 O   0  0  0  0  0  0  0  0  0  0  0  0
   -5.6950   15.6350  -33.6880 C   0  0  0  0  0  0  0  0  0  0  0  0
   -5.4730   15.9990  -32.3500 C   0  0  0  0  0  0  0  0  0  0  0  0
   -5.7400   17.3010  -31.9140 C   0  0  0  0  0  0  0  0  0  0  0  0
   -6.2350   18.2650  -32.8070 C   0  0  0  0  0  0  0  0  0  0  0  0
   -6.5200   19.6480  -32.3450 C   0  0  0  0  0  0  0  0  0  0  0  0
   -7.8590   20.0920  -32.1920 C   0  0  0  0  0  0  0  0  0  0  0  0
   -8.1390   21.3930  -31.7440 C   0  0  0  0  0  0  0  0  0  0  0  0
   -7.0660   22.2320  -31.4640 C   0  0  0  0  0  0  0  0  0  0  0  0
   -7.0530   23.5250  -30.9910 C   0  0  0  0  0  0  0  0  0  0  0  0
   -5.7060   23.8650  -30.8850 C   0  0  0  0  0  0  0  0  0  0  0  0
   -5.2360   25.2090  -30.4890 C   0  0  0  0  0  0  0  0  0  0  0  0
   -3.9350   25.6660  -30.8480 N   0  0  0  0  0  0  0  0  0  0  0  0
   -6.0110   25.9830  -29.8660 O   0  0  0  0  0  0  0  0  0  0  0  0
   -4.9180   22.8220  -31.2690 N   0  0  0  0  0  0  0  0  0  0  0  0
   -3.4850   22.7380  -31.2110 C   0  0  0  0  0  0  0  0  0  0  0  0
   -2.8740   23.1260  -30.1780 O   0  0  0  0  0  0  0  0  0  0  0  0
   -2.7730   22.2450  -32.3110 O   0  0  0  0  0  0  0  0  0  0  0  0
   -2.0770   21.0030  -32.2940 C   0  0  0  0  0  0  0  0  0  0  0  0
   -2.5130   20.0310  -33.7230 Cl  0  0  0  0  0  0  0  0  0  0  0  0
   -5.7660   21.8310  -31.6220 C   0  0  0  0  0  0  0  0  0  0  0  0
   -5.4560   20.5340  -32.0490 C   0  0  0  0  0  0  0  0  0  0  0  0
   -6.4580   17.9000  -34.1460 C   0  0  0  0  0  0  0  0  0  0  0  0
   -6.1910   16.5990  -34.5820 C   0  0  0  0  0  0  0  0  0  0  0  0
   -8.4713   13.3513  -34.4064 H   0  0  0  0  0  0  0  0  0  0  0  0
   -7.4890   14.2209  -35.6334 H   0  0  0  0  0  0  0  0  0  0  0  0
   -7.5419   12.4254  -35.6334 H   0  0  0  0  0  0  0  0  0  0  0  0
   -5.0860   15.2542  -31.6390 H   0  0  0  0  0  0  0  0  0  0  0  0
   -5.5607   17.5719  -30.8631 H   0  0  0  0  0  0  0  0  0  0  0  0
   -8.6881   19.4084  -32.4273 H   0  0  0  0  0  0  0  0  0  0  0  0
   -9.1759   21.7381  -31.6183 H   0  0  0  0  0  0  0  0  0  0  0  0
   -7.9212   24.1554  -30.7484 H   0  0  0  0  0  0  0  0  0  0  0  0
   -3.0830   25.2740  -30.3890 H   0  0  0  0  0  0  0  0  0  0  0  0
   -0.9937   21.1938  -32.3015 H   0  0  0  0  0  0  0  0  0  0  0  0
   -2.3554   20.4489  -31.3854 H   0  0  0  0  0  0  0  0  0  0  0  0
   -4.4096   20.2108  -32.1521 H   0  0  0  0  0  0  0  0  0  0  0  0
   -6.8459   18.6445  -34.8568 H   0  0  0  0  0  0  0  0  0  0  0  0
   -6.3705   16.3278  -35.6328 H   0  0  0  0  0  0  0  0  0  0  0  0
  1  2  1  0
  2  3  1  0
  3  4  2  0
  3  5  1  0
  5  6  2  0
  6  7  1  0
  7  8  2  0
  8  9  1  0
  9 10  2  0
 10 11  1  0
 11 12  2  0
 12 13  1  0
 13 14  2  0
 14 15  1  0
 15 16  1  0
 15 17  2  0
 14 18  1  0
 18 19  1  0
 19 20  2  0
 19 21  1  0
 21 22  1  0
 22 23  1  0
 18 24  1  0
 24 25  2  0
  8 26  1  0
 26 27  2  0
 27  5  1  0
 25  9  1  0
 24 12  1  0
  1 28  1  0
  1 29  1  0
  1 30  1  0
  6 31  1  0
  7 32  1  0
 10 33  1  0
 11 34  1  0
 13 35  1  0
 16 36  1  0
 22 37  1  0
 22 38  1  0
 25 39  1  0
 26 40  1  0
 27 41  1  0
M  CHG  1  16  -1
M  END
>  <UniqueID>  (93) 
93

>  <SMILES>  (93) 
COC(=O)c1ccc(-c2ccc3cc(C([NH-])=O)n(C(=O)OCCl)c3c2)cc1

>  <Energy>  (93) 
84.74542825441058

>  <Genealogy>  (93) 
COC(=O)c1ccc(-c2ccc3cc(C([NH-])=O)n(C(=O)OCCl)c3c2)cc1 (protonated)
COC(=O)c1ccc(-c2ccc3cc(C([NH-])=O)n(C(=O)OCCl)c3c2)cc1 (3D coordinates assigned)
COC(=O)c1ccc(-c2ccc3cc(C([NH-])=O)n(C(=O)OCCl)c3c2)cc1 (optimized conformer: 84.74542825441058 kcal/mol)

>  <smiles>  (93) 
COC(=O)c1ccc(-c2ccc3cc(C(N)=O)n(C(=O)OCCl)c3c2)cc1

>  <score_type>  (93) 
oracle

>  <origin>  (93) 
adg

>  <m_score__min__energy>  (93) 
-10.31

>  <m_primary>  (93) 
energy

$$$$
93:0
     RDKit          3D

 40 42  0  0  0  0  0  0  0  0999 V2000
   -0.8990   25.8370  -29.0140 N   0  0  0  0  0  0  0  0  0  0  0  0
   -0.4560   24.4970  -28.7940 C   0  0  0  0  0  0  0  0  0  0  0  0
    0.4740   24.2860  -27.9720 O   0  0  0  0  0  0  0  0  0  0  0  0
   -1.1040   23.3630  -29.4910 C   0  0  0  0  0  0  0  0  0  0  0  0
   -0.4300   22.2080  -29.8850 C   0  0  0  0  0  0  0  0  0  0  0  0
   -1.3580   21.4620  -30.5740 C   0  0  0  0  0  0  0  0  0  0  0  0
   -1.2310   20.2170  -31.1770 C   0  0  0  0  0  0  0  0  0  0  0  0
   -2.3640   19.6650  -31.7970 C   0  0  0  0  0  0  0  0  0  0  0  0
   -3.6070   20.3570  -31.7990 C   0  0  0  0  0  0  0  0  0  0  0  0
   -4.7710   19.7730  -32.4310 N   0  0  0  0  0  0  0  0  0  0  0  0
   -4.9960   19.7650  -33.8680 C   0  0  0  0  0  0  0  0  0  0  0  0
   -6.2200   18.8870  -34.0900 C   0  0  0  0  0  0  0  0  0  0  0  0
   -6.9580   18.8540  -32.7390 C   0  0  2  0  0  0  0  0  0  0  0  0
   -7.5580   17.5290  -32.5300 N   0  0  0  0  0  0  0  0  0  0  0  0
   -8.0380   19.9690  -32.6960 C   0  0  0  0  0  0  0  0  0  0  0  0
   -9.3190   19.4470  -32.9360 O   0  0  0  0  0  0  0  0  0  0  0  0
   -5.8470   19.1150  -31.7040 C   0  0  0  0  0  0  0  0  0  0  0  0
   -3.6880   21.6240  -31.1700 C   0  0  0  0  0  0  0  0  0  0  0  0
   -2.5370   22.1580  -30.5790 C   0  0  0  0  0  0  0  0  0  0  0  0
   -2.3980   23.3300  -29.9170 N   0  0  0  0  0  0  0  0  0  0  0  0
   -3.4300   24.2980  -29.6670 C   0  0  0  0  0  0  0  0  0  0  0  0
   -3.5520   25.3070  -30.4120 O   0  0  0  0  0  0  0  0  0  0  0  0
   -4.2970   24.1400  -28.5930 O   0  0  0  0  0  0  0  0  0  0  0  0
   -0.4610   26.6260  -28.4880 H   0  0  0  0  0  0  0  0  0  0  0  0
   -1.6290   26.0580  -29.7270 H   0  0  0  0  0  0  0  0  0  0  0  0
    0.6204   21.9484  -29.6870 H   0  0  0  0  0  0  0  0  0  0  0  0
   -0.2714   19.6793  -31.1692 H   0  0  0  0  0  0  0  0  0  0  0  0
   -2.2892   18.6835  -32.2881 H   0  0  0  0  0  0  0  0  0  0  0  0
   -5.1853   20.7856  -34.2320 H   0  0  0  0  0  0  0  0  0  0  0  0
   -4.1198   19.3845  -34.4134 H   0  0  0  0  0  0  0  0  0  0  0  0
   -6.8654   19.3183  -34.8694 H   0  0  0  0  0  0  0  0  0  0  0  0
   -5.9406   17.8773  -34.4254 H   0  0  0  0  0  0  0  0  0  0  0  0
   -8.4960   17.6380  -32.0790 H   0  0  0  0  0  0  0  0  0  0  0  0
   -7.7060   17.0680  -33.4580 H   0  0  0  0  0  0  0  0  0  0  0  0
   -8.0243   20.4432  -31.7036 H   0  0  0  0  0  0  0  0  0  0  0  0
   -7.8097   20.7044  -33.4815 H   0  0  0  0  0  0  0  0  0  0  0  0
   -9.2000   18.6230  -33.4770 H   0  0  0  0  0  0  0  0  0  0  0  0
   -6.2191   19.7661  -30.8992 H   0  0  0  0  0  0  0  0  0  0  0  0
   -5.5049   18.1809  -31.2345 H   0  0  0  0  0  0  0  0  0  0  0  0
   -4.6381   22.1779  -31.1465 H   0  0  0  0  0  0  0  0  0  0  0  0
  1  2  1  0
  2  3  2  0
  2  4  1  0
  4  5  2  0
  5  6  1  0
  6  7  2  0
  7  8  1  0
  8  9  2  0
  9 10  1  0
 10 11  1  0
 11 12  1  0
 12 13  1  0
 13 14  1  1
 13 15  1  0
 15 16  1  0
 13 17  1  0
  9 18  1  0
 18 19  2  0
 19 20  1  0
 20 21  1  0
 21 22  2  0
 21 23  1  0
 20  4  1  0
 19  6  1  0
 17 10  1  0
  1 24  1  0
  1 25  1  0
  5 26  1  0
  7 27  1  0
  8 28  1  0
 11 29  1  0
 11 30  1  0
 12 31  1  0
 12 32  1  0
 14 33  1  0
 14 34  1  0
 15 35  1  0
 15 36  1  0
 16 37  1  0
 17 38  1  0
 17 39  1  0
 18 40  1  0
M  CHG  1  23  -1
M  END
>  <UniqueID>  (94) 
94

>  <SMILES>  (94) 
NC(=O)c1cc2ccc(N3CC[C@](N)(CO)C3)cc2n1C(=O)[O-]

>  <Energy>  (94) 
83.4644753077205

>  <Genealogy>  (94) 
NC(=O)c1cc2ccc(N3CCC(N)(CO)C3)cc2n1C(=O)[O-] (protonated)
NC(=O)c1cc2ccc(N3CC[C@](N)(CO)C3)cc2n1C(=O)[O-] (chirality)
NC(=O)c1cc2ccc(N3CC[C@](N)(CO)C3)cc2n1C(=O)[O-] (3D coordinates assigned)
NC(=O)c1cc2ccc(N3CC[C@](N)(CO)C3)cc2n1C(=O)[O-] (nonaromatic ring conformer: 83.4644753077205 kcal/mol)

>  <smiles>  (94) 
NC(=O)c1cc2ccc(N3CCC(N)(CO)C3)cc2n1C(=O)O

>  <score_type>  (94) 
oracle

>  <origin>  (94) 
adg

>  <m_score__min__energy>  (94) 
-8.5700000000000003

>  <m_primary>  (94) 
energy

$$$$
94:0
     RDKit          3D

 48 51  0  0  0  0  0  0  0  0999 V2000
   -0.8020   21.0820  -34.3070 C   0  0  0  0  0  0  0  0  0  0  0  0
   -1.6240   19.9210  -33.8530 C   0  0  0  0  0  0  0  0  0  0  0  0
   -1.8100   18.8210  -34.5430 O   0  0  0  0  0  0  0  0  0  0  0  0
   -2.5690   18.0530  -33.7930 C   0  0  0  0  0  0  0  0  0  0  0  0
   -2.9550   16.9060  -34.1370 O   0  0  0  0  0  0  0  0  0  0  0  0
   -2.8770   18.6110  -32.6450 O   0  0  0  0  0  0  0  0  0  0  0  0
   -2.2980   19.7890  -32.6530 C   0  0  0  0  0  0  0  0  0  0  0  0
   -2.3630   20.7780  -31.5370 C   0  0  0  0  0  0  0  0  0  0  0  0
   -2.9860   21.9690  -32.0000 O   0  0  0  0  0  0  0  0  0  0  0  0
   -3.6880   22.8350  -31.1560 C   0  0  0  0  0  0  0  0  0  0  0  0
   -3.0650   23.5920  -30.3620 O   0  0  0  0  0  0  0  0  0  0  0  0
   -5.1230   22.8430  -31.1810 N   0  0  0  0  0  0  0  0  0  0  0  0
   -5.9520   23.8960  -30.9290 C   0  0  0  0  0  0  0  0  0  0  0  0
   -5.5450   25.2150  -30.4000 C   0  0  0  0  0  0  0  0  0  0  0  0
   -4.2250   25.7100  -30.6030 N   0  0  0  0  0  0  0  0  0  0  0  0
   -6.3600   25.8910  -29.7180 O   0  0  0  0  0  0  0  0  0  0  0  0
   -7.2780   23.5430  -31.1670 C   0  0  0  0  0  0  0  0  0  0  0  0
   -7.2370   22.2270  -31.5690 C   0  0  0  0  0  0  0  0  0  0  0  0
   -8.2710   21.3760  -31.9460 C   0  0  0  0  0  0  0  0  0  0  0  0
   -7.9380   20.0720  -32.3480 C   0  0  0  0  0  0  0  0  0  0  0  0
   -6.5850   19.6440  -32.3760 C   0  0  0  0  0  0  0  0  0  0  0  0
   -6.2430   18.2680  -32.8180 C   0  0  0  0  0  0  0  0  0  0  0  0
   -6.4060   17.8870  -34.1610 C   0  0  0  0  0  0  0  0  0  0  0  0
   -6.0850   16.5920  -34.5780 C   0  0  0  0  0  0  0  0  0  0  0  0
   -5.5970   15.6460  -33.6590 C   0  0  0  0  0  0  0  0  0  0  0  0
   -5.2450   14.2690  -34.0860 C   0  0  0  0  0  0  0  0  0  0  0  0
   -3.9100   13.9220  -34.4670 N   0  0  0  0  0  0  0  0  0  0  0  0
   -6.1400   13.3820  -34.1310 O   0  0  0  0  0  0  0  0  0  0  0  0
   -5.4210   16.0310  -32.3190 C   0  0  0  0  0  0  0  0  0  0  0  0
   -5.7440   17.3260  -31.9020 C   0  0  0  0  0  0  0  0  0  0  0  0
   -5.5630   20.5420  -31.9850 C   0  0  0  0  0  0  0  0  0  0  0  0
   -5.9270   21.8290  -31.5710 C   0  0  0  0  0  0  0  0  0  0  0  0
   -0.4180   21.6244  -33.4305 H   0  0  0  0  0  0  0  0  0  0  0  0
    0.0418   20.7194  -34.9125 H   0  0  0  0  0  0  0  0  0  0  0  0
   -1.4243   21.7574  -34.9125 H   0  0  0  0  0  0  0  0  0  0  0  0
   -2.9479   20.3565  -30.7062 H   0  0  0  0  0  0  0  0  0  0  0  0
   -1.3453   21.0065  -31.1876 H   0  0  0  0  0  0  0  0  0  0  0  0
   -3.5130   25.6700  -29.8390 H   0  0  0  0  0  0  0  0  0  0  0  0
   -8.1682   24.1798  -31.0572 H   0  0  0  0  0  0  0  0  0  0  0  0
   -9.3176   21.7141  -31.9298 H   0  0  0  0  0  0  0  0  0  0  0  0
   -8.7351   19.3744  -32.6446 H   0  0  0  0  0  0  0  0  0  0  0  0
   -6.7899   18.6149  -34.8910 H   0  0  0  0  0  0  0  0  0  0  0  0
   -6.2152   16.3106  -35.6334 H   0  0  0  0  0  0  0  0  0  0  0  0
   -3.6800   12.9320  -34.7070 H   0  0  0  0  0  0  0  0  0  0  0  0
   -3.1700   14.6440  -34.6000 H   0  0  0  0  0  0  0  0  0  0  0  0
   -5.0255   15.3070  -31.5914 H   0  0  0  0  0  0  0  0  0  0  0  0
   -5.6064   17.6099  -30.8482 H   0  0  0  0  0  0  0  0  0  0  0  0
   -4.5067   20.2356  -32.0060 H   0  0  0  0  0  0  0  0  0  0  0  0
  1  2  1  0
  2  3  1  0
  3  4  1  0
  4  5  2  0
  4  6  1  0
  6  7  1  0
  7  8  1  0
  8  9  1  0
  9 10  1  0
 10 11  2  0
 10 12  1  0
 12 13  1  0
 13 14  1  0
 14 15  1  0
 14 16  2  0
 13 17  2  0
 17 18  1  0
 18 19  2  0
 19 20  1  0
 20 21  2  0
 21 22  1  0
 22 23  2  0
 23 24  1  0
 24 25  2  0
 25 26  1  0
 26 27  1  0
 26 28  2  0
 25 29  1  0
 29 30  2  0
 21 31  1  0
 31 32  2  0
  7  2  2  0
 32 12  1  0
 32 18  1  0
 30 22  1  0
  1 33  1  0
  1 34  1  0
  1 35  1  0
  8 36  1  0
  8 37  1  0
 15 38  1  0
 17 39  1  0
 19 40  1  0
 20 41  1  0
 23 42  1  0
 24 43  1  0
 27 44  1  0
 27 45  1  0
 29 46  1  0
 30 47  1  0
 31 48  1  0
M  CHG  1  15  -1
M  END
>  <UniqueID>  (95) 
95

>  <SMILES>  (95) 
Cc1oc(=O)oc1COC(=O)n1c(C([NH-])=O)cc2ccc(-c3ccc(C(N)=O)cc3)cc21

>  <Energy>  (95) 
126.90874036249299

>  <Genealogy>  (95) 
Cc1oc(=O)oc1COC(=O)n1c(C([NH-])=O)cc2ccc(-c3ccc(C(N)=O)cc3)cc21 (protonated)
Cc1oc(=O)oc1COC(=O)n1c(C([NH-])=O)cc2ccc(-c3ccc(C(N)=O)cc3)cc21 (3D coordinates assigned)
Cc1oc(=O)oc1COC(=O)n1c(C([NH-])=O)cc2ccc(-c3ccc(C(N)=O)cc3)cc21 (optimized conformer: 126.90874036249299 kcal/mol)

>  <smiles>  (95) 
Cc1oc(=O)oc1COC(=O)n1c(C(N)=O)cc2ccc(-c3ccc(C(N)=O)cc3)cc21

>  <score_type>  (95) 
oracle

>  <origin>  (95) 
adg

>  <m_score__min__energy>  (95) 
-11.57

>  <m_primary>  (95) 
energy

$$$$
95:0
     RDKit          3D

 39 41  0  0  0  0  0  0  0  0999 V2000
   -1.7660   20.7670  -31.6230 C   0  0  0  0  0  0  0  0  0  0  0  0
   -2.5540   21.9180  -32.2460 C   0  0  0  0  0  0  0  0  0  0  0  0
   -3.3410   22.6900  -31.2210 C   0  0  0  0  0  0  0  0  0  0  0  0
   -2.7630   23.1650  -30.2060 O   0  0  0  0  0  0  0  0  0  0  0  0
   -4.7730   22.7490  -31.3080 N   0  0  0  0  0  0  0  0  0  0  0  0
   -5.5870   23.8190  -31.0950 C   0  0  0  0  0  0  0  0  0  0  0  0
   -5.1690   25.1340  -30.5670 C   0  0  0  0  0  0  0  0  0  0  0  0
   -3.8830   25.6670  -30.8660 N   0  0  0  0  0  0  0  0  0  0  0  0
   -5.9440   25.7780  -29.8110 O   0  0  0  0  0  0  0  0  0  0  0  0
   -6.9120   23.4870  -31.3770 C   0  0  0  0  0  0  0  0  0  0  0  0
   -6.8820   22.1660  -31.7640 C   0  0  0  0  0  0  0  0  0  0  0  0
   -7.9150   21.3210  -32.1590 C   0  0  0  0  0  0  0  0  0  0  0  0
   -7.5870   20.0050  -32.5230 C   0  0  0  0  0  0  0  0  0  0  0  0
   -6.2400   19.5570  -32.4940 C   0  0  0  0  0  0  0  0  0  0  0  0
   -5.9100   18.1640  -32.8810 C   0  0  0  0  0  0  0  0  0  0  0  0
   -5.6870   17.1940  -31.8900 C   0  0  0  0  0  0  0  0  0  0  0  0
   -5.3680   15.8790  -32.2410 C   0  0  0  0  0  0  0  0  0  0  0  0
   -5.2700   15.5050  -33.5910 C   0  0  0  0  0  0  0  0  0  0  0  0
   -4.9330   14.1130  -33.9570 C   0  0  0  0  0  0  0  0  0  0  0  0
   -4.2030   13.8710  -34.9550 O   0  0  0  0  0  0  0  0  0  0  0  0
   -5.4180   13.0490  -33.2040 O   0  0  0  0  0  0  0  0  0  0  0  0
   -5.5000   16.4740  -34.5840 C   0  0  0  0  0  0  0  0  0  0  0  0
   -5.8180   17.7900  -34.2360 C   0  0  0  0  0  0  0  0  0  0  0  0
   -6.0700   18.6870  -35.2230 F   0  0  0  0  0  0  0  0  0  0  0  0
   -5.2200   20.4450  -32.0800 C   0  0  0  0  0  0  0  0  0  0  0  0
   -5.5790   21.7460  -31.7140 C   0  0  0  0  0  0  0  0  0  0  0  0
   -1.8158   20.8397  -30.5265 H   0  0  0  0  0  0  0  0  0  0  0  0
   -2.1985   19.8089  -31.9469 H   0  0  0  0  0  0  0  0  0  0  0  0
   -0.7163   20.8236  -31.9469 H   0  0  0  0  0  0  0  0  0  0  0  0
   -1.8493   22.6027  -32.7406 H   0  0  0  0  0  0  0  0  0  0  0  0
   -3.2669   21.4883  -32.9651 H   0  0  0  0  0  0  0  0  0  0  0  0
   -3.0250   25.2880  -30.4090 H   0  0  0  0  0  0  0  0  0  0  0  0
   -7.7934   24.1413  -31.3054 H   0  0  0  0  0  0  0  0  0  0  0  0
   -8.9567   21.6733  -32.1853 H   0  0  0  0  0  0  0  0  0  0  0  0
   -8.3832   19.3129  -32.8344 H   0  0  0  0  0  0  0  0  0  0  0  0
   -5.7640   17.4715  -30.8284 H   0  0  0  0  0  0  0  0  0  0  0  0
   -5.1924   15.1313  -31.4535 H   0  0  0  0  0  0  0  0  0  0  0  0
   -5.4289   16.1935  -35.6453 H   0  0  0  0  0  0  0  0  0  0  0  0
   -4.1696   20.1201  -32.0467 H   0  0  0  0  0  0  0  0  0  0  0  0
  1  2  1  0
  2  3  1  0
  3  4  2  0
  3  5  1  0
  5  6  1  0
  6  7  1  0
  7  8  1  0
  7  9  2  0
  6 10  2  0
 10 11  1  0
 11 12  2  0
 12 13  1  0
 13 14  2  0
 14 15  1  0
 15 16  2  0
 16 17  1  0
 17 18  2  0
 18 19  1  0
 19 20  2  0
 19 21  1  0
 18 22  1  0
 22 23  2  0
 23 24  1  0
 14 25  1  0
 25 26  2  0
 26  5  1  0
 26 11  1  0
 23 15  1  0
  1 27  1  0
  1 28  1  0
  1 29  1  0
  2 30  1  0
  2 31  1  0
  8 32  1  0
 10 33  1  0
 12 34  1  0
 13 35  1  0
 16 36  1  0
 17 37  1  0
 22 38  1  0
 25 39  1  0
M  CHG  2   8  -1  21  -1
M  END
>  <UniqueID>  (96) 
96

>  <SMILES>  (96) 
CCC(=O)n1c(C([NH-])=O)cc2ccc(-c3ccc(C(=O)[O-])cc3F)cc21

>  <Energy>  (96) 
86.20871232729829

>  <Genealogy>  (96) 
CCC(=O)n1c(C([NH-])=O)cc2ccc(-c3ccc(C(=O)[O-])cc3F)cc21 (protonated)
CCC(=O)n1c(C([NH-])=O)cc2ccc(-c3ccc(C(=O)[O-])cc3F)cc21 (3D coordinates assigned)
CCC(=O)n1c(C([NH-])=O)cc2ccc(-c3ccc(C(=O)[O-])cc3F)cc21 (optimized conformer: 86.20871232729829 kcal/mol)

>  <smiles>  (96) 
CCC(=O)n1c(C(N)=O)cc2ccc(-c3ccc(C(=O)O)cc3F)cc21

>  <score_type>  (96) 
oracle

>  <origin>  (96) 
adg

>  <m_score__min__energy>  (96) 
-10.5

>  <m_primary>  (96) 
energy

$$$$
96:0
     RDKit          3D

 64 65  0  0  0  0  0  0  0  0999 V2000
   -3.9390   22.8920  -28.3120 C   0  0  0  0  0  0  0  0  0  0  0  0
   -2.8220   22.4750  -29.2880 C   0  0  0  0  0  0  0  0  0  0  0  0
   -2.8120   20.9470  -29.4830 C   0  0  0  0  0  0  0  0  0  0  0  0
   -1.4670   22.9080  -28.7060 C   0  0  0  0  0  0  0  0  0  0  0  0
   -2.9750   23.1460  -30.5470 O   0  0  0  0  0  0  0  0  0  0  0  0
   -3.8210   22.7610  -31.5980 C   0  0  0  0  0  0  0  0  0  0  0  0
   -3.3610   22.2050  -32.6310 O   0  0  0  0  0  0  0  0  0  0  0  0
   -5.2340   22.9950  -31.4870 N   0  0  0  0  0  0  0  0  0  0  0  0
   -5.8590   24.0610  -30.9130 C   0  0  0  0  0  0  0  0  0  0  0  0
   -5.2000   25.2860  -30.4130 C   0  0  0  0  0  0  0  0  0  0  0  0
   -3.8800   25.6100  -30.8470 N   0  0  0  0  0  0  0  0  0  0  0  0
   -5.7750   26.0330  -29.5780 O   0  0  0  0  0  0  0  0  0  0  0  0
   -7.2410   23.8820  -30.9250 C   0  0  0  0  0  0  0  0  0  0  0  0
   -7.4440   22.6630  -31.5330 C   0  0  0  0  0  0  0  0  0  0  0  0
   -8.6270   21.9810  -31.7940 C   0  0  0  0  0  0  0  0  0  0  0  0
   -8.5400   20.7200  -32.4050 C   0  0  0  0  0  0  0  0  0  0  0  0
   -7.2760   20.1580  -32.7390 C   0  0  0  0  0  0  0  0  0  0  0  0
   -7.1660   18.8600  -33.3510 N   0  0  0  0  0  0  0  0  0  0  0  0
   -7.4080   17.6090  -32.6280 C   0  0  0  0  0  0  0  0  0  0  0  0
   -7.0120   16.4000  -33.4720 C   0  0  0  0  0  0  0  0  0  0  0  0
   -6.1790   16.8320  -34.5210 O   0  0  0  0  0  0  0  0  0  0  0  0
   -4.5010   16.6590  -34.0950 Si  0  0  0  0  0  4  0  0  0  0  0  0
   -3.9060   17.9630  -32.8790 C   0  0  0  0  0  0  0  0  0  0  0  0
   -3.5090   16.8990  -35.6610 C   0  0  0  0  0  0  0  0  0  0  0  0
   -4.2130   14.9070  -33.4030 C   0  0  0  0  0  0  0  0  0  0  0  0
   -2.7190   14.5540  -33.5260 C   0  0  0  0  0  0  0  0  0  0  0  0
   -5.0430   13.8910  -34.2100 C   0  0  0  0  0  0  0  0  0  0  0  0
   -4.6340   14.8540  -31.9240 C   0  0  0  0  0  0  0  0  0  0  0  0
   -6.1000   20.8870  -32.4570 C   0  0  0  0  0  0  0  0  0  0  0  0
   -6.2180   22.1490  -31.8620 C   0  0  0  0  0  0  0  0  0  0  0  0
   -3.5894   22.7615  -27.2772 H   0  0  0  0  0  0  0  0  0  0  0  0
   -4.1984   23.9475  -28.4810 H   0  0  0  0  0  0  0  0  0  0  0  0
   -4.8266   22.2647  -28.4810 H   0  0  0  0  0  0  0  0  0  0  0  0
   -2.8088   20.4520  -28.5007 H   0  0  0  0  0  0  0  0  0  0  0  0
   -3.7082   20.6431  -30.0438 H   0  0  0  0  0  0  0  0  0  0  0  0
   -1.9119   20.6548  -30.0438 H   0  0  0  0  0  0  0  0  0  0  0  0
   -1.5178   22.8918  -27.6073 H   0  0  0  0  0  0  0  0  0  0  0  0
   -0.6833   22.2155  -29.0471 H   0  0  0  0  0  0  0  0  0  0  0  0
   -1.2301   23.9266  -29.0471 H   0  0  0  0  0  0  0  0  0  0  0  0
   -3.0440   25.2910  -30.3070 H   0  0  0  0  0  0  0  0  0  0  0  0
   -8.0063   24.5679  -30.5327 H   0  0  0  0  0  0  0  0  0  0  0  0
   -9.6020   22.4164  -31.5297 H   0  0  0  0  0  0  0  0  0  0  0  0
   -9.4599   20.1597  -32.6282 H   0  0  0  0  0  0  0  0  0  0  0  0
   -6.8860   18.8140  -34.3590 H   0  0  0  0  0  0  0  0  0  0  0  0
   -6.8156   17.6095  -31.7012 H   0  0  0  0  0  0  0  0  0  0  0  0
   -8.4820   17.5393  -32.4008 H   0  0  0  0  0  0  0  0  0  0  0  0
   -6.4724   15.6735  -32.8467 H   0  0  0  0  0  0  0  0  0  0  0  0
   -7.9125   15.9204  -33.8833 H   0  0  0  0  0  0  0  0  0  0  0  0
   -4.0684   17.6070  -31.8510 H   0  0  0  0  0  0  0  0  0  0  0  0
   -2.8336   18.1497  -33.0372 H   0  0  0  0  0  0  0  0  0  0  0  0
   -4.4678   18.8954  -33.0372 H   0  0  0  0  0  0  0  0  0  0  0  0
   -2.4699   17.1504  -35.4019 H   0  0  0  0  0  0  0  0  0  0  0  0
   -3.5255   15.9710  -36.2513 H   0  0  0  0  0  0  0  0  0  0  0  0
   -3.9479   17.7169  -36.2513 H   0  0  0  0  0  0  0  0  0  0  0  0
   -2.2827   14.4509  -32.5215 H   0  0  0  0  0  0  0  0  0  0  0  0
   -2.6101   13.6054  -34.0722 H   0  0  0  0  0  0  0  0  0  0  0  0
   -2.1971   15.3536  -34.0722 H   0  0  0  0  0  0  0  0  0  0  0  0
   -5.5844   13.2283  -33.5188 H   0  0  0  0  0  0  0  0  0  0  0  0
   -5.7643   14.4278  -34.8438 H   0  0  0  0  0  0  0  0  0  0  0  0
   -4.3732   13.2913  -34.8438 H   0  0  0  0  0  0  0  0  0  0  0  0
   -3.7453   14.9659  -31.2856 H   0  0  0  0  0  0  0  0  0  0  0  0
   -5.3410   15.6702  -31.7146 H   0  0  0  0  0  0  0  0  0  0  0  0
   -5.1167   13.8880  -31.7146 H   0  0  0  0  0  0  0  0  0  0  0  0
   -5.1108   20.4717  -32.6999 H   0  0  0  0  0  0  0  0  0  0  0  0
  1  2  1  0
  2  3  1  0
  2  4  1  0
  2  5  1  0
  5  6  1  0
  6  7  2  0
  6  8  1  0
  8  9  1  0
  9 10  1  0
 10 11  1  0
 10 12  2  0
  9 13  2  0
 13 14  1  0
 14 15  2  0
 15 16  1  0
 16 17  2  0
 17 18  1  0
 18 19  1  0
 19 20  1  0
 20 21  1  0
 21 22  1  0
 22 23  1  0
 22 24  1  0
 22 25  1  0
 25 26  1  0
 25 27  1  0
 25 28  1  0
 17 29  1  0
 29 30  2  0
 30  8  1  0
 30 14  1  0
  1 31  1  0
  1 32  1  0
  1 33  1  0
  3 34  1  0
  3 35  1  0
  3 36  1  0
  4 37  1  0
  4 38  1  0
  4 39  1  0
 11 40  1  0
 13 41  1  0
 15 42  1  0
 16 43  1  0
 18 44  1  0
 19 45  1  0
 19 46  1  0
 20 47  1  0
 20 48  1  0
 23 49  1  0
 23 50  1  0
 23 51  1  0
 24 52  1  0
 24 53  1  0
 24 54  1  0
 26 55  1  0
 26 56  1  0
 26 57  1  0
 27 58  1  0
 27 59  1  0
 27 60  1  0
 28 61  1  0
 28 62  1  0
 28 63  1  0
 29 64  1  0
M  CHG  1  11  -1
M  END
>  <UniqueID>  (97) 
97

>  <SMILES>  (97) 
CC(C)(C)OC(=O)n1c(C([NH-])=O)cc2ccc(NCCO[Si](C)(C)C(C)(C)C)cc21

>  <Energy>  (97) 
77.43543608710941

>  <Genealogy>  (97) 
CC(C)(C)OC(=O)n1c(C([NH-])=O)cc2ccc(NCCO[Si](C)(C)C(C)(C)C)cc21 (protonated)
CC(C)(C)OC(=O)n1c(C([NH-])=O)cc2ccc(NCCO[Si](C)(C)C(C)(C)C)cc21 (3D coordinates assigned)
CC(C)(C)OC(=O)n1c(C([NH-])=O)cc2ccc(NCCO[Si](C)(C)C(C)(C)C)cc21 (optimized conformer: 77.43543608710941 kcal/mol)

>  <smiles>  (97) 
CC(C)(C)OC(=O)n1c(C(N)=O)cc2ccc(NCCO[Si](C)(C)C(C)(C)C)cc21

>  <score_type>  (97) 
oracle

>  <origin>  (97) 
adg

>  <m_score__min__energy>  (97) 
-11.09

>  <m_primary>  (97) 
energy

$$$$
97:0
     RDKit          3D

 39 40  0  0  0  0  0  0  0  0999 V2000
   -1.1930   25.8800  -28.5480 C   0  0  0  0  0  0  0  0  0  0  0  0
   -2.2110   25.2810  -29.3170 O   0  0  0  0  0  0  0  0  0  0  0  0
   -2.4740   23.9840  -28.8190 C   0  0  0  0  0  0  0  0  0  0  0  0
   -1.4500   22.9970  -29.3880 C   0  0  0  0  0  0  0  0  0  0  0  0
   -2.0700   21.6410  -29.7360 C   0  0  0  0  0  0  0  0  0  0  0  0
   -3.4670   21.7880  -29.9680 O   0  0  0  0  0  0  0  0  0  0  0  0
   -3.9920   22.5390  -31.0220 C   0  0  0  0  0  0  0  0  0  0  0  0
   -3.2220   23.0420  -31.8840 O   0  0  0  0  0  0  0  0  0  0  0  0
   -5.4150   22.7290  -31.1260 N   0  0  0  0  0  0  0  0  0  0  0  0
   -6.1140   23.8800  -30.9180 C   0  0  0  0  0  0  0  0  0  0  0  0
   -5.5660   25.1430  -30.3880 C   0  0  0  0  0  0  0  0  0  0  0  0
   -4.2330   25.5560  -30.6940 N   0  0  0  0  0  0  0  0  0  0  0  0
   -6.2640   25.8400  -29.6040 O   0  0  0  0  0  0  0  0  0  0  0  0
   -7.4620   23.6980  -31.2120 C   0  0  0  0  0  0  0  0  0  0  0  0
   -7.5780   22.3820  -31.5890 C   0  0  0  0  0  0  0  0  0  0  0  0
   -8.7000   21.6630  -31.9900 C   0  0  0  0  0  0  0  0  0  0  0  0
   -8.5280   20.3160  -32.3490 C   0  0  0  0  0  0  0  0  0  0  0  0
   -7.2450   19.7160  -32.3000 C   0  0  0  0  0  0  0  0  0  0  0  0
   -7.0660   18.2890  -32.7260 C   0  0  0  0  0  0  0  0  0  0  0  0
   -6.0830   18.2240  -34.2100 Cl  0  0  0  0  0  0  0  0  0  0  0  0
   -6.1260   20.4800  -31.9050 C   0  0  0  0  0  0  0  0  0  0  0  0
   -6.3280   21.8150  -31.5310 C   0  0  0  0  0  0  0  0  0  0  0  0
   -1.4159   25.7489  -27.4788 H   0  0  0  0  0  0  0  0  0  0  0  0
   -0.2288   25.4052  -28.7825 H   0  0  0  0  0  0  0  0  0  0  0  0
   -1.1398   26.9534  -28.7825 H   0  0  0  0  0  0  0  0  0  0  0  0
   -2.4036   23.9922  -27.7213 H   0  0  0  0  0  0  0  0  0  0  0  0
   -3.4856   23.6752  -29.1211 H   0  0  0  0  0  0  0  0  0  0  0  0
   -1.0132   23.4293  -30.3003 H   0  0  0  0  0  0  0  0  0  0  0  0
   -0.6867   22.8258  -28.6147 H   0  0  0  0  0  0  0  0  0  0  0  0
   -1.5903   21.2433  -30.6425 H   0  0  0  0  0  0  0  0  0  0  0  0
   -1.9150   20.9476  -28.8962 H   0  0  0  0  0  0  0  0  0  0  0  0
   -3.5790   24.9230  -31.2040 H   0  0  0  0  0  0  0  0  0  0  0  0
   -3.8720   26.4680  -30.3370 H   0  0  0  0  0  0  0  0  0  0  0  0
   -8.2642   24.4484  -31.1547 H   0  0  0  0  0  0  0  0  0  0  0  0
   -9.6926   22.1358  -32.0248 H   0  0  0  0  0  0  0  0  0  0  0  0
   -9.3961   19.7220  -32.6708 H   0  0  0  0  0  0  0  0  0  0  0  0
   -6.5583   17.7297  -31.9264 H   0  0  0  0  0  0  0  0  0  0  0  0
   -8.0514   17.8411  -32.9220 H   0  0  0  0  0  0  0  0  0  0  0  0
   -5.1189   20.0377  -31.8911 H   0  0  0  0  0  0  0  0  0  0  0  0
  1  2  1  0
  2  3  1  0
  3  4  1  0
  4  5  1  0
  5  6  1  0
  6  7  1  0
  7  8  2  0
  7  9  1  0
  9 10  1  0
 10 11  1  0
 11 12  1  0
 11 13  2  0
 10 14  2  0
 14 15  1  0
 15 16  2  0
 16 17  1  0
 17 18  2  0
 18 19  1  0
 19 20  1  0
 18 21  1  0
 21 22  2  0
 22  9  1  0
 22 15  1  0
  1 23  1  0
  1 24  1  0
  1 25  1  0
  3 26  1  0
  3 27  1  0
  4 28  1  0
  4 29  1  0
  5 30  1  0
  5 31  1  0
 12 32  1  0
 12 33  1  0
 14 34  1  0
 16 35  1  0
 17 36  1  0
 19 37  1  0
 19 38  1  0
 21 39  1  0
M  END
>  <UniqueID>  (98) 
98

>  <SMILES>  (98) 
COCCCOC(=O)n1c(C(N)=O)cc2ccc(CCl)cc21

>  <Energy>  (98) 
71.19815044261073

>  <Genealogy>  (98) 
COCCCOC(=O)n1c(C(N)=O)cc2ccc(CCl)cc21 (3D coordinates assigned)
COCCCOC(=O)n1c(C(N)=O)cc2ccc(CCl)cc21 (optimized conformer: 71.19815044261073 kcal/mol)

>  <smiles>  (98) 
COCCCOC(=O)n1c(C(N)=O)cc2ccc(CCl)cc21

>  <score_type>  (98) 
oracle

>  <origin>  (98) 
adg

>  <m_score__min__energy>  (98) 
-8.8599999999999994

>  <m_primary>  (98) 
energy

$$$$
98:0
     RDKit          3D

 44 46  0  0  0  0  0  0  0  0999 V2000
   -6.5220   16.2980  -34.2020 C   0  0  0  0  0  0  0  0  0  0  0  0
   -5.4350   17.0800  -33.4480 C   0  0  0  0  0  0  0  0  0  0  0  0
   -5.7930   17.1150  -31.9540 C   0  0  0  0  0  0  0  0  0  0  0  0
   -4.0700   16.3870  -33.6180 C   0  0  0  0  0  0  0  0  0  0  0  0
   -5.3810   18.8330  -34.0280 S   0  0  0  0  0  0  0  0  0  0  0  0
   -6.6990   19.5310  -33.0100 C   0  0  0  0  0  0  0  0  0  0  0  0
   -7.9870   19.2590  -33.3580 N   0  0  0  0  0  0  0  0  0  0  0  0
   -9.0440   19.7290  -32.6470 C   0  0  0  0  0  0  0  0  0  0  0  0
   -8.8290   20.5220  -31.5210 C   0  0  0  0  0  0  0  0  0  0  0  0
   -7.5230   20.8400  -31.1470 C   0  0  0  0  0  0  0  0  0  0  0  0
   -6.4360   20.3630  -31.8960 C   0  0  0  0  0  0  0  0  0  0  0  0
   -5.0630   20.7470  -31.4970 C   0  0  0  0  0  0  0  0  0  0  0  0
   -3.9960   19.8200  -31.6070 C   0  0  0  0  0  0  0  0  0  0  0  0
   -2.6980   20.1710  -31.2000 C   0  0  0  0  0  0  0  0  0  0  0  0
   -2.4960   21.4550  -30.7020 C   0  0  0  0  0  0  0  0  0  0  0  0
   -1.3610   22.0310  -30.1800 C   0  0  0  0  0  0  0  0  0  0  0  0
   -1.7420   23.3140  -29.7990 C   0  0  0  0  0  0  0  0  0  0  0  0
   -0.8100   24.2970  -29.2090 C   0  0  0  0  0  0  0  0  0  0  0  0
   -1.2070   25.6470  -28.9660 N   0  0  0  0  0  0  0  0  0  0  0  0
    0.3760   23.9500  -28.9620 O   0  0  0  0  0  0  0  0  0  0  0  0
   -3.0610   23.5240  -30.0660 N   0  0  0  0  0  0  0  0  0  0  0  0
   -3.8600   24.6620  -29.7000 C   0  0  0  0  0  0  0  0  0  0  0  0
   -3.9110   25.6720  -30.4500 O   0  0  0  0  0  0  0  0  0  0  0  0
   -4.5810   24.6610  -28.5120 O   0  0  0  0  0  0  0  0  0  0  0  0
   -3.5080   22.3750  -30.6210 C   0  0  0  0  0  0  0  0  0  0  0  0
   -4.8140   22.0480  -31.0070 C   0  0  0  0  0  0  0  0  0  0  0  0
   -7.1944   15.8143  -33.4782 H   0  0  0  0  0  0  0  0  0  0  0  0
   -7.0993   16.9891  -34.8337 H   0  0  0  0  0  0  0  0  0  0  0  0
   -6.0503   15.5309  -34.8337 H   0  0  0  0  0  0  0  0  0  0  0  0
   -4.8749   17.0252  -31.3548 H   0  0  0  0  0  0  0  0  0  0  0  0
   -6.2928   18.0663  -31.7189 H   0  0  0  0  0  0  0  0  0  0  0  0
   -6.4676   16.2785  -31.7189 H   0  0  0  0  0  0  0  0  0  0  0  0
   -3.6430   16.1702  -32.6277 H   0  0  0  0  0  0  0  0  0  0  0  0
   -4.2027   15.4471  -34.1738 H   0  0  0  0  0  0  0  0  0  0  0  0
   -3.3895   17.0488  -34.1738 H   0  0  0  0  0  0  0  0  0  0  0  0
  -10.0698   19.4840  -32.9595 H   0  0  0  0  0  0  0  0  0  0  0  0
   -9.6810   20.8936  -30.9328 H   0  0  0  0  0  0  0  0  0  0  0  0
   -7.3444   21.4673  -30.2612 H   0  0  0  0  0  0  0  0  0  0  0  0
   -4.1863   18.8163  -32.0149 H   0  0  0  0  0  0  0  0  0  0  0  0
   -1.8673   19.4536  -31.2726 H   0  0  0  0  0  0  0  0  0  0  0  0
   -0.3647   21.5747  -30.0842 H   0  0  0  0  0  0  0  0  0  0  0  0
   -2.1160   26.0150  -29.3230 H   0  0  0  0  0  0  0  0  0  0  0  0
   -0.5510   26.3110  -28.4990 H   0  0  0  0  0  0  0  0  0  0  0  0
   -5.6258   22.7863  -30.9304 H   0  0  0  0  0  0  0  0  0  0  0  0
  1  2  1  0
  2  3  1  0
  2  4  1  0
  2  5  1  0
  5  6  1  0
  6  7  2  0
  7  8  1  0
  8  9  2  0
  9 10  1  0
 10 11  2  0
 11 12  1  0
 12 13  2  0
 13 14  1  0
 14 15  2  0
 15 16  1  0
 16 17  2  0
 17 18  1  0
 18 19  1  0
 18 20  2  0
 17 21  1  0
 21 22  1  0
 22 23  2  0
 22 24  1  0
 21 25  1  0
 25 26  2  0
 11  6  1  0
 26 12  1  0
 25 15  1  0
  1 27  1  0
  1 28  1  0
  1 29  1  0
  3 30  1  0
  3 31  1  0
  3 32  1  0
  4 33  1  0
  4 34  1  0
  4 35  1  0
  8 36  1  0
  9 37  1  0
 10 38  1  0
 13 39  1  0
 14 40  1  0
 16 41  1  0
 19 42  1  0
 19 43  1  0
 26 44  1  0
M  CHG  1  24  -1
M  END
>  <UniqueID>  (99) 
99

>  <SMILES>  (99) 
CC(C)(C)Sc1ncccc1-c1ccc2cc(C(N)=O)n(C(=O)[O-])c2c1

>  <Energy>  (99) 
86.65795275447526

>  <Genealogy>  (99) 
CC(C)(C)Sc1ncccc1-c1ccc2cc(C(N)=O)n(C(=O)[O-])c2c1 (protonated)
CC(C)(C)Sc1ncccc1-c1ccc2cc(C(N)=O)n(C(=O)[O-])c2c1 (3D coordinates assigned)
CC(C)(C)Sc1ncccc1-c1ccc2cc(C(N)=O)n(C(=O)[O-])c2c1 (optimized conformer: 86.65795275447526 kcal/mol)

>  <smiles>  (99) 
CC(C)(C)Sc1ncccc1-c1ccc2cc(C(N)=O)n(C(=O)O)c2c1

>  <score_type>  (99) 
oracle

>  <origin>  (99) 
adg

>  <m_score__min__energy>  (99) 
-10.5

>  <m_primary>  (99) 
energy

$$$$
