0:0
     RDKit          3D

 52 55  0  0  0  0  0  0  0  0999 V2000
   -4.3810   18.6620  -33.0720 C   0  0  0  0  0  0  0  0  0  0  0  0
   -5.3550   19.1750  -33.9530 O   0  0  0  0  0  0  0  0  0  0  0  0
   -6.4800   18.3210  -33.9570 C   0  0  0  0  0  0  0  0  0  0  0  0
   -6.5730   17.5750  -32.6230 C   0  0  0  0  0  0  0  0  0  0  0  0
   -7.7920   17.9790  -31.7750 C   0  0  0  0  0  0  0  0  0  0  0  0
   -8.7060   18.9840  -32.4890 C   0  0  0  0  0  0  0  0  0  0  0  0
   -8.3070   20.3930  -32.1450 C   0  0  0  0  0  0  0  0  0  0  0  0
   -9.2960   21.3990  -32.0120 C   0  0  0  0  0  0  0  0  0  0  0  0
   -8.9420   22.7090  -31.6490 C   0  0  0  0  0  0  0  0  0  0  0  0
   -7.5950   22.9810  -31.4230 C   0  0  0  0  0  0  0  0  0  0  0  0
   -6.9800   24.1490  -31.0350 C   0  0  0  0  0  0  0  0  0  0  0  0
   -5.6230   23.8400  -30.9450 C   0  0  0  0  0  0  0  0  0  0  0  0
   -4.5780   24.8380  -30.6370 C   0  0  0  0  0  0  0  0  0  0  0  0
   -3.2190   24.4470  -30.4650 N   0  0  0  0  0  0  0  0  0  0  0  0
   -4.8830   26.0590  -30.5640 O   0  0  0  0  0  0  0  0  0  0  0  0
   -5.4110   22.5300  -31.2560 N   0  0  0  0  0  0  0  0  0  0  0  0
   -4.1760   21.8010  -31.2010 C   0  0  0  0  0  0  0  0  0  0  0  0
   -4.0950   20.7710  -30.4800 O   0  0  0  0  0  0  0  0  0  0  0  0
   -3.0290   22.2840  -31.9180 N   0  0  0  0  0  0  0  0  0  0  0  0
   -1.8170   21.5420  -32.1210 C   0  0  0  0  0  0  0  0  0  0  0  0
   -1.1520   20.9580  -31.0900 N   0  0  0  0  0  0  0  0  0  0  0  0
   -0.0320   20.3600  -31.5590 C   0  0  0  0  0  0  0  0  0  0  0  0
    0.2040   20.4650  -32.8730 C   0  0  0  0  0  0  0  0  0  0  0  0
   -1.0060   21.3550  -33.6150 S   0  0  0  0  0  0  0  0  0  0  0  0
    1.4750   19.8630  -33.3030 C   0  0  0  0  0  0  0  0  0  0  0  0
    2.0340   19.2920  -31.9720 C   0  0  0  0  0  0  0  0  0  0  0  0
    1.0380   19.6510  -30.8350 C   0  0  0  0  0  0  0  0  0  0  0  0
   -6.6260   22.0190  -31.5500 C   0  0  0  0  0  0  0  0  0  0  0  0
   -6.9520   20.7040  -31.8960 C   0  0  0  0  0  0  0  0  0  0  0  0
   -4.7011   18.8306  -32.0332 H   0  0  0  0  0  0  0  0  0  0  0  0
   -4.2596   17.5829  -33.2477 H   0  0  0  0  0  0  0  0  0  0  0  0
   -3.4225   19.1723  -33.2477 H   0  0  0  0  0  0  0  0  0  0  0  0
   -7.3913   18.9190  -34.1047 H   0  0  0  0  0  0  0  0  0  0  0  0
   -6.3776   17.5912  -34.7736 H   0  0  0  0  0  0  0  0  0  0  0  0
   -6.6361   16.4967  -32.8312 H   0  0  0  0  0  0  0  0  0  0  0  0
   -5.6756   17.8373  -32.0434 H   0  0  0  0  0  0  0  0  0  0  0  0
   -8.3753   17.0752  -31.5450 H   0  0  0  0  0  0  0  0  0  0  0  0
   -7.4148   18.4642  -30.8627 H   0  0  0  0  0  0  0  0  0  0  0  0
   -8.6239   18.8394  -33.5764 H   0  0  0  0  0  0  0  0  0  0  0  0
   -9.7431   18.8173  -32.1624 H   0  0  0  0  0  0  0  0  0  0  0  0
  -10.3521   21.1515  -32.1949 H   0  0  0  0  0  0  0  0  0  0  0  0
   -9.7046   23.4951  -31.5465 H   0  0  0  0  0  0  0  0  0  0  0  0
   -7.4572   25.1202  -30.8377 H   0  0  0  0  0  0  0  0  0  0  0  0
   -2.9730   23.5220  -30.0480 H   0  0  0  0  0  0  0  0  0  0  0  0
   -3.0770   23.2460  -32.3210 H   0  0  0  0  0  0  0  0  0  0  0  0
    1.3086   19.0644  -34.0410 H   0  0  0  0  0  0  0  0  0  0  0  0
    2.1540   20.5721  -33.7991 H   0  0  0  0  0  0  0  0  0  0  0  0
    2.1342   18.1992  -32.0483 H   0  0  0  0  0  0  0  0  0  0  0  0
    3.0243   19.7213  -31.7599 H   0  0  0  0  0  0  0  0  0  0  0  0
    0.6527   18.7454  -30.3436 H   0  0  0  0  0  0  0  0  0  0  0  0
    1.4902   20.2466  -30.0283 H   0  0  0  0  0  0  0  0  0  0  0  0
   -6.1728   19.9313  -31.9723 H   0  0  0  0  0  0  0  0  0  0  0  0
  1  2  1  0
  2  3  1  0
  3  4  1  0
  4  5  1  0
  5  6  1  0
  6  7  1  0
  7  8  2  0
  8  9  1  0
  9 10  2  0
 10 11  1  0
 11 12  2  0
 12 13  1  0
 13 14  1  0
 13 15  2  0
 12 16  1  0
 16 17  1  0
 17 18  2  0
 17 19  1  0
 19 20  1  0
 20 21  2  0
 21 22  1  0
 22 23  2  0
 23 24  1  0
 23 25  1  0
 25 26  1  0
 26 27  1  0
 16 28  1  0
 28 29  2  0
 29  7  1  0
 28 10  1  0
 24 20  1  0
 27 22  1  0
  1 30  1  0
  1 31  1  0
  1 32  1  0
  3 33  1  0
  3 34  1  0
  4 35  1  0
  4 36  1  0
  5 37  1  0
  5 38  1  0
  6 39  1  0
  6 40  1  0
  8 41  1  0
  9 42  1  0
 11 43  1  0
 14 44  1  0
 19 45  1  0
 25 46  1  0
 25 47  1  0
 26 48  1  0
 26 49  1  0
 27 50  1  0
 27 51  1  0
 29 52  1  0
M  CHG  1  14  -1
M  END
>  <UniqueID>  (1) 
1

>  <SMILES>  (1) 
COCCCCc1ccc2cc(C([NH-])=O)n(C(=O)Nc3nc4c(s3)CCC4)c2c1

>  <Energy>  (1) 
137.2981920704535

>  <Genealogy>  (1) 
COCCCCc1ccc2cc(C([NH-])=O)n(C(=O)Nc3nc4c(s3)CCC4)c2c1 (protonated)
COCCCCc1ccc2cc(C([NH-])=O)n(C(=O)Nc3nc4c(s3)CCC4)c2c1 (3D coordinates assigned)
COCCCCc1ccc2cc(C([NH-])=O)n(C(=O)Nc3nc4c(s3)CCC4)c2c1 (nonaromatic ring conformer: 137.2981920704535 kcal/mol)

>  <smiles>  (1) 
COCCCCc1ccc2cc(C(N)=O)n(C(=O)Nc3nc4c(s3)CCC4)c2c1

>  <score_type>  (1) 
oracle

>  <origin>  (1) 
adg

>  <m_score__min__energy>  (1) 
-11.550000000000001

>  <m_primary>  (1) 
energy

$$$$
1:0
     RDKit          3D

 37 39  0  0  0  0  0  0  0  0999 V2000
   -5.8010   25.0650  -29.2760 N   0  0  0  0  0  0  0  0  0  0  0  0
   -6.3290   23.8690  -29.8500 C   0  0  0  0  0  0  0  0  0  0  0  0
   -7.5060   23.5200  -29.5720 O   0  0  0  0  0  0  0  0  0  0  0  0
   -5.4980   23.0020  -30.7100 C   0  0  0  0  0  0  0  0  0  0  0  0
   -6.0170   21.9640  -31.4770 C   0  0  0  0  0  0  0  0  0  0  0  0
   -4.9280   21.3750  -32.0760 C   0  0  0  0  0  0  0  0  0  0  0  0
   -4.8680   20.3090  -32.9660 C   0  0  0  0  0  0  0  0  0  0  0  0
   -3.6090   19.9390  -33.4670 C   0  0  0  0  0  0  0  0  0  0  0  0
   -2.4370   20.6410  -33.0790 C   0  0  0  0  0  0  0  0  0  0  0  0
   -1.0810   20.2670  -33.6520 C   0  0  2  0  0  0  0  0  0  0  0  0
    0.0740   20.7920  -32.7860 C   0  0  0  0  0  0  0  0  0  0  0  0
    1.1120   21.3320  -33.7560 C   0  0  0  0  0  0  0  0  0  0  0  0
    0.3120   21.7920  -34.9660 C   0  0  1  0  0  0  0  0  0  0  0  0
    1.1320   21.8490  -36.2260 C   0  0  0  0  0  0  0  0  0  0  0  0
    1.5640   20.7950  -36.7620 O   0  0  0  0  0  0  0  0  0  0  0  0
    1.3920   23.0750  -36.8240 O   0  0  0  0  0  0  0  0  0  0  0  0
   -0.8590   20.8170  -35.0720 C   0  0  0  0  0  0  0  0  0  0  0  0
   -2.5430   21.7260  -32.1790 C   0  0  0  0  0  0  0  0  0  0  0  0
   -3.8070   22.0580  -31.6760 C   0  0  0  0  0  0  0  0  0  0  0  0
   -4.1430   23.0660  -30.8380 N   0  0  0  0  0  0  0  0  0  0  0  0
   -3.2600   24.0670  -30.3030 C   0  0  0  0  0  0  0  0  0  0  0  0
   -3.5020   25.2900  -30.4820 O   0  0  0  0  0  0  0  0  0  0  0  0
   -2.1310   23.6990  -29.5820 O   0  0  0  0  0  0  0  0  0  0  0  0
   -4.7800   25.2850  -29.3290 H   0  0  0  0  0  0  0  0  0  0  0  0
   -6.4150   25.6890  -28.7060 H   0  0  0  0  0  0  0  0  0  0  0  0
   -7.0733   21.6757  -31.5821 H   0  0  0  0  0  0  0  0  0  0  0  0
   -5.7787   19.7715  -33.2688 H   0  0  0  0  0  0  0  0  0  0  0  0
   -3.5299   19.0953  -34.1684 H   0  0  0  0  0  0  0  0  0  0  0  0
   -1.0849   19.1672  -33.6733 H   0  0  0  0  0  0  0  0  0  0  0  0
   -0.2805   21.5929  -32.1205 H   0  0  0  0  0  0  0  0  0  0  0  0
    0.4921   19.9995  -32.1480 H   0  0  0  0  0  0  0  0  0  0  0  0
    1.6580   22.1758  -33.3090 H   0  0  0  0  0  0  0  0  0  0  0  0
    1.8661   20.5760  -34.0201 H   0  0  0  0  0  0  0  0  0  0  0  0
   -0.0368   22.8273  -34.8378 H   0  0  0  0  0  0  0  0  0  0  0  0
   -1.7605   21.3390  -35.4252 H   0  0  0  0  0  0  0  0  0  0  0  0
   -0.6483   20.0098  -35.7890 H   0  0  0  0  0  0  0  0  0  0  0  0
   -1.6517   22.2972  -31.8802 H   0  0  0  0  0  0  0  0  0  0  0  0
  1  2  1  0
  2  3  2  0
  2  4  1  0
  4  5  2  0
  5  6  1  0
  6  7  2  0
  7  8  1  0
  8  9  2  0
  9 10  1  0
 10 11  1  0
 11 12  1  0
 12 13  1  0
 13 14  1  0
 14 15  2  0
 14 16  1  0
 13 17  1  0
  9 18  1  0
 18 19  2  0
 19 20  1  0
 20 21  1  0
 21 22  2  0
 21 23  1  0
 20  4  1  0
 19  6  1  0
 17 10  1  0
  1 24  1  0
  1 25  1  0
  5 26  1  0
  7 27  1  0
  8 28  1  0
 10 29  1  6
 11 30  1  0
 11 31  1  0
 12 32  1  0
 12 33  1  0
 13 34  1  1
 17 35  1  0
 17 36  1  0
 18 37  1  0
M  CHG  2  16  -1  23  -1
M  END
>  <UniqueID>  (2) 
2

>  <SMILES>  (2) 
NC(=O)c1cc2ccc([C@@H]3CC[C@@H](C(=O)[O-])C3)cc2n1C(=O)[O-]

>  <Energy>  (2) 
81.32967607641727

>  <Genealogy>  (2) 
NC(=O)c1cc2ccc(C3CCC(C(=O)[O-])C3)cc2n1C(=O)[O-] (protonated)
NC(=O)c1cc2ccc([C@@H]3CC[C@@H](C(=O)[O-])C3)cc2n1C(=O)[O-] (chirality)
NC(=O)c1cc2ccc([C@@H]3CC[C@@H](C(=O)[O-])C3)cc2n1C(=O)[O-] (3D coordinates assigned)
NC(=O)c1cc2ccc([C@@H]3CC[C@@H](C(=O)[O-])C3)cc2n1C(=O)[O-] (nonaromatic ring conformer: 81.32967607641727 kcal/mol)

>  <smiles>  (2) 
NC(=O)c1cc2ccc(C3CCC(C(=O)O)C3)cc2n1C(=O)O

>  <score_type>  (2) 
oracle

>  <origin>  (2) 
adg

>  <m_score__min__energy>  (2) 
-9.8100000000000005

>  <m_primary>  (2) 
energy

$$$$
2:0
     RDKit          3D

 38 39  0  0  0  0  0  0  0  0999 V2000
   -4.2490   25.7160  -30.5030 N   0  0  0  0  0  0  0  0  0  0  0  0
   -5.5590   25.2440  -30.1970 C   0  0  0  0  0  0  0  0  0  0  0  0
   -6.3090   25.9400  -29.4650 O   0  0  0  0  0  0  0  0  0  0  0  0
   -6.0340   23.9710  -30.7770 C   0  0  0  0  0  0  0  0  0  0  0  0
   -7.2960   23.8100  -31.3460 C   0  0  0  0  0  0  0  0  0  0  0  0
   -7.3790   22.4780  -31.6790 C   0  0  0  0  0  0  0  0  0  0  0  0
   -8.4140   21.7690  -32.2820 C   0  0  0  0  0  0  0  0  0  0  0  0
   -8.2170   20.4000  -32.5320 C   0  0  0  0  0  0  0  0  0  0  0  0
   -6.9920   19.7740  -32.1920 C   0  0  0  0  0  0  0  0  0  0  0  0
   -6.7980   18.3030  -32.4480 C   0  0  0  0  0  0  0  0  0  0  0  0
   -6.8710   17.4990  -31.1470 C   0  0  0  0  0  0  0  0  0  0  0  0
   -5.7440   16.6770  -31.0000 O   0  0  0  0  0  0  0  0  0  0  0  0
   -5.9670   20.5240  -31.5730 C   0  0  0  0  0  0  0  0  0  0  0  0
   -6.1990   21.8810  -31.3200 C   0  0  0  0  0  0  0  0  0  0  0  0
   -5.3610   22.7860  -30.7650 N   0  0  0  0  0  0  0  0  0  0  0  0
   -4.0120   22.5460  -30.3350 C   0  0  0  0  0  0  0  0  0  0  0  0
   -3.3790   21.5480  -30.7780 O   0  0  0  0  0  0  0  0  0  0  0  0
   -3.4010   23.4310  -29.4390 O   0  0  0  0  0  0  0  0  0  0  0  0
   -3.0170   23.0680  -28.1140 C   0  0  0  0  0  0  0  0  0  0  0  0
   -3.7120   23.9680  -27.0870 C   0  0  0  0  0  0  0  0  0  0  0  0
   -4.6190   24.9070  -27.7430 N   0  0  0  0  0  0  0  0  0  0  0  0
   -3.4830   25.6720  -29.7940 H   0  0  0  0  0  0  0  0  0  0  0  0
   -8.0630   24.5839  -31.4968 H   0  0  0  0  0  0  0  0  0  0  0  0
   -9.3573   22.2650  -32.5545 H   0  0  0  0  0  0  0  0  0  0  0  0
   -9.0208   19.8093  -32.9957 H   0  0  0  0  0  0  0  0  0  0  0  0
   -7.5847   17.9512  -33.1316 H   0  0  0  0  0  0  0  0  0  0  0  0
   -5.8027   18.1556  -32.8926 H   0  0  0  0  0  0  0  0  0  0  0  0
   -6.9221   18.1948  -30.2966 H   0  0  0  0  0  0  0  0  0  0  0  0
   -7.7674   16.8622  -31.1784 H   0  0  0  0  0  0  0  0  0  0  0  0
   -5.7910   16.2910  -30.0870 H   0  0  0  0  0  0  0  0  0  0  0  0
   -5.0116   20.0538  -31.2971 H   0  0  0  0  0  0  0  0  0  0  0  0
   -3.3010   22.0215  -27.9289 H   0  0  0  0  0  0  0  0  0  0  0  0
   -1.9283   23.1895  -28.0138 H   0  0  0  0  0  0  0  0  0  0  0  0
   -4.2863   23.3408  -26.3893 H   0  0  0  0  0  0  0  0  0  0  0  0
   -2.9442   24.5414  -26.5469 H   0  0  0  0  0  0  0  0  0  0  0  0
   -4.1800   25.2800  -28.6160 H   0  0  0  0  0  0  0  0  0  0  0  0
   -5.5040   24.4070  -27.9960 H   0  0  0  0  0  0  0  0  0  0  0  0
   -4.8500   25.6960  -27.0960 H   0  0  0  0  0  0  0  0  0  0  0  0
  1  2  1  0
  2  3  2  0
  2  4  1  0
  4  5  2  0
  5  6  1  0
  6  7  2  0
  7  8  1  0
  8  9  2  0
  9 10  1  0
 10 11  1  0
 11 12  1  0
  9 13  1  0
 13 14  2  0
 14 15  1  0
 15 16  1  0
 16 17  2  0
 16 18  1  0
 18 19  1  0
 19 20  1  0
 20 21  1  0
 15  4  1  0
 14  6  1  0
  1 22  1  0
  5 23  1  0
  7 24  1  0
  8 25  1  0
 10 26  1  0
 10 27  1  0
 11 28  1  0
 11 29  1  0
 12 30  1  0
 13 31  1  0
 19 32  1  0
 19 33  1  0
 20 34  1  0
 20 35  1  0
 21 36  1  0
 21 37  1  0
 21 38  1  0
M  CHG  2   1  -1  21   1
M  END
>  <UniqueID>  (3) 
3

>  <SMILES>  (3) 
[NH-]C(=O)c1cc2ccc(CCO)cc2n1C(=O)OCC[NH3+]

>  <Energy>  (3) 
69.32180920531894

>  <Genealogy>  (3) 
[NH-]C(=O)c1cc2ccc(CCO)cc2n1C(=O)OCC[NH3+] (protonated)
[NH-]C(=O)c1cc2ccc(CCO)cc2n1C(=O)OCC[NH3+] (3D coordinates assigned)
[NH-]C(=O)c1cc2ccc(CCO)cc2n1C(=O)OCC[NH3+] (optimized conformer: 69.32180920531894 kcal/mol)

>  <smiles>  (3) 
NCCOC(=O)n1c(C(N)=O)cc2ccc(CCO)cc21

>  <score_type>  (3) 
oracle

>  <origin>  (3) 
adg

>  <m_score__min__energy>  (3) 
-8.8900000000000006

>  <m_primary>  (3) 
energy

$$$$
3:0
     RDKit          3D

 31 32  0  0  0  0  0  0  0  0999 V2000
   -3.4620   24.0440  -27.7400 C   0  0  0  0  0  0  0  0  0  0  0  0
   -4.2050   22.7630  -28.0900 C   0  0  0  0  0  0  0  0  0  0  0  0
   -3.2320   21.7410  -29.2480 S   0  0  0  0  0  0  0  0  0  0  0  0
   -3.7410   22.6360  -30.7200 C   0  0  0  0  0  0  0  0  0  0  0  0
   -2.8620   23.0640  -31.5120 O   0  0  0  0  0  0  0  0  0  0  0  0
   -5.1320   22.8680  -30.9940 N   0  0  0  0  0  0  0  0  0  0  0  0
   -5.8220   24.0350  -30.8540 C   0  0  0  0  0  0  0  0  0  0  0  0
   -5.2480   25.3420  -30.4720 C   0  0  0  0  0  0  0  0  0  0  0  0
   -3.9090   25.6650  -30.8440 N   0  0  0  0  0  0  0  0  0  0  0  0
   -5.9160   26.1710  -29.7990 O   0  0  0  0  0  0  0  0  0  0  0  0
   -7.1620   23.8530  -31.1930 C   0  0  0  0  0  0  0  0  0  0  0  0
   -7.2720   22.5290  -31.5480 C   0  0  0  0  0  0  0  0  0  0  0  0
   -8.3860   21.8000  -31.9520 C   0  0  0  0  0  0  0  0  0  0  0  0
   -8.2180   20.4320  -32.2210 C   0  0  0  0  0  0  0  0  0  0  0  0
   -6.9460   19.8210  -32.0840 C   0  0  0  0  0  0  0  0  0  0  0  0
   -6.7890   18.3490  -32.3240 C   0  0  0  0  0  0  0  0  0  0  0  0
   -6.1030   18.0730  -33.9440 Cl  0  0  0  0  0  0  0  0  0  0  0  0
   -5.8410   20.5890  -31.6570 C   0  0  0  0  0  0  0  0  0  0  0  0
   -6.0330   21.9540  -31.4180 C   0  0  0  0  0  0  0  0  0  0  0  0
   -3.4026   24.1463  -26.6464 H   0  0  0  0  0  0  0  0  0  0  0  0
   -2.4462   24.0052  -28.1603 H   0  0  0  0  0  0  0  0  0  0  0  0
   -4.0000   24.9065  -28.1603 H   0  0  0  0  0  0  0  0  0  0  0  0
   -4.3873   22.1894  -27.1693 H   0  0  0  0  0  0  0  0  0  0  0  0
   -5.1574   23.0296  -28.5716 H   0  0  0  0  0  0  0  0  0  0  0  0
   -3.1140   25.0420  -30.5820 H   0  0  0  0  0  0  0  0  0  0  0  0
   -7.9616   24.6082  -31.1794 H   0  0  0  0  0  0  0  0  0  0  0  0
   -9.3696   22.2811  -32.0576 H   0  0  0  0  0  0  0  0  0  0  0  0
   -9.0808   19.8292  -32.5408 H   0  0  0  0  0  0  0  0  0  0  0  0
   -6.1154   17.9248  -31.5649 H   0  0  0  0  0  0  0  0  0  0  0  0
   -7.7735   17.8628  -32.2583 H   0  0  0  0  0  0  0  0  0  0  0  0
   -4.8534   20.1256  -31.5157 H   0  0  0  0  0  0  0  0  0  0  0  0
  1  2  1  0
  2  3  1  0
  3  4  1  0
  4  5  2  0
  4  6  1  0
  6  7  1  0
  7  8  1  0
  8  9  1  0
  8 10  2  0
  7 11  2  0
 11 12  1  0
 12 13  2  0
 13 14  1  0
 14 15  2  0
 15 16  1  0
 16 17  1  0
 15 18  1  0
 18 19  2  0
 19  6  1  0
 19 12  1  0
  1 20  1  0
  1 21  1  0
  1 22  1  0
  2 23  1  0
  2 24  1  0
  9 25  1  0
 11 26  1  0
 13 27  1  0
 14 28  1  0
 16 29  1  0
 16 30  1  0
 18 31  1  0
M  CHG  1   9  -1
M  END
>  <UniqueID>  (4) 
4

>  <SMILES>  (4) 
CCSC(=O)n1c(C([NH-])=O)cc2ccc(CCl)cc21

>  <Energy>  (4) 
62.70803798968192

>  <Genealogy>  (4) 
CCSC(=O)n1c(C([NH-])=O)cc2ccc(CCl)cc21 (protonated)
CCSC(=O)n1c(C([NH-])=O)cc2ccc(CCl)cc21 (3D coordinates assigned)
CCSC(=O)n1c(C([NH-])=O)cc2ccc(CCl)cc21 (optimized conformer: 62.70803798968192 kcal/mol)

>  <smiles>  (4) 
CCSC(=O)n1c(C(N)=O)cc2ccc(CCl)cc21

>  <score_type>  (4) 
oracle

>  <origin>  (4) 
adg

>  <m_score__min__energy>  (4) 
-10.24

>  <m_primary>  (4) 
energy

$$$$
4:0
     RDKit          3D

 61 64  0  0  0  0  0  0  0  0999 V2000
   -1.6660   25.4930  -29.0840 N   0  0  0  0  0  0  0  0  0  0  0  0
   -1.1750   24.1640  -28.9410 C   0  0  0  0  0  0  0  0  0  0  0  0
   -0.3080   23.9200  -28.0570 O   0  0  0  0  0  0  0  0  0  0  0  0
   -1.6790   23.0610  -29.7900 C   0  0  0  0  0  0  0  0  0  0  0  0
   -0.9380   22.4990  -30.8280 C   0  0  0  0  0  0  0  0  0  0  0  0
   -1.7270   21.4960  -31.3400 C   0  0  0  0  0  0  0  0  0  0  0  0
   -1.4850   20.6170  -32.3870 C   0  0  0  0  0  0  0  0  0  0  0  0
   -2.4890   19.6920  -32.7190 C   0  0  0  0  0  0  0  0  0  0  0  0
   -3.7280   19.6710  -32.0210 C   0  0  0  0  0  0  0  0  0  0  0  0
   -4.7620   18.7190  -32.3750 N   0  0  0  0  0  0  0  0  0  0  0  0
   -5.7230   18.1720  -31.4260 C   0  0  0  0  0  0  0  0  0  0  0  0
   -6.4880   17.0890  -32.1800 C   0  0  0  0  0  0  0  0  0  0  0  0
   -6.2220   17.3480  -33.6600 C   0  0  0  0  0  0  0  0  0  0  0  0
   -4.9350   18.1600  -33.7090 C   0  0  0  0  0  0  0  0  0  0  0  0
   -3.9360   20.6010  -30.9700 C   0  0  0  0  0  0  0  0  0  0  0  0
   -2.9000   21.4810  -30.6300 C   0  0  0  0  0  0  0  0  0  0  0  0
   -2.8800   22.4250  -29.6610 N   0  0  0  0  0  0  0  0  0  0  0  0
   -3.9260   22.7110  -28.7140 C   0  0  0  0  0  0  0  0  0  0  0  0
   -4.1730   21.8820  -27.7980 O   0  0  0  0  0  0  0  0  0  0  0  0
   -4.7050   24.0010  -28.7540 C   0  0  0  0  0  0  0  0  0  0  0  0
   -4.9550   24.6100  -30.4170 S   0  0  0  0  0  0  0  0  0  0  0  0
   -4.2050   23.7480  -31.3910 O   0  0  0  0  0  0  0  0  0  0  0  0
   -4.4030   26.0080  -30.4810 O   0  0  0  0  0  0  0  0  0  0  0  0
   -6.7120   24.5970  -30.8110 C   0  0  0  0  0  0  0  0  0  0  0  0
   -7.0600   23.7750  -32.0780 C   0  0  0  0  0  0  0  0  0  0  0  0
   -7.5380   22.3900  -31.8180 N   0  0  0  0  0  0  0  0  0  0  0  0
   -6.8780   21.3980  -32.7160 C   0  0  0  0  0  0  0  0  0  0  0  0
   -7.7500   20.1620  -33.0220 C   0  0  0  0  0  0  0  0  0  0  0  0
   -8.5850   19.7570  -31.8030 C   0  0  0  0  0  0  0  0  0  0  0  0
   -9.4760   20.9120  -31.2900 C   0  0  0  0  0  0  0  0  0  0  0  0
   -9.0170   22.2850  -31.8180 C   0  0  0  0  0  0  0  0  0  0  0  0
   -2.6710   25.6690  -29.3010 H   0  0  0  0  0  0  0  0  0  0  0  0
    0.0659   22.7952  -31.1662 H   0  0  0  0  0  0  0  0  0  0  0  0
   -0.5348   20.6440  -32.9405 H   0  0  0  0  0  0  0  0  0  0  0  0
   -2.3139   18.9722  -33.5322 H   0  0  0  0  0  0  0  0  0  0  0  0
   -5.2010   17.7388  -30.5601 H   0  0  0  0  0  0  0  0  0  0  0  0
   -6.3991   18.9506  -31.0430 H   0  0  0  0  0  0  0  0  0  0  0  0
   -6.1226   16.0917  -31.8937 H   0  0  0  0  0  0  0  0  0  0  0  0
   -7.5634   17.1176  -31.9503 H   0  0  0  0  0  0  0  0  0  0  0  0
   -6.0971   16.3977  -34.1997 H   0  0  0  0  0  0  0  0  0  0  0  0
   -7.0579   17.8812  -34.1364 H   0  0  0  0  0  0  0  0  0  0  0  0
   -4.0838   17.5121  -33.9653 H   0  0  0  0  0  0  0  0  0  0  0  0
   -4.9855   18.9495  -34.4733 H   0  0  0  0  0  0  0  0  0  0  0  0
   -4.8945   20.6307  -30.4311 H   0  0  0  0  0  0  0  0  0  0  0  0
   -5.6881   23.8322  -28.2903 H   0  0  0  0  0  0  0  0  0  0  0  0
   -4.1207   24.7572  -28.2093 H   0  0  0  0  0  0  0  0  0  0  0  0
   -7.2562   24.1666  -29.9574 H   0  0  0  0  0  0  0  0  0  0  0  0
   -7.0040   25.6381  -31.0129 H   0  0  0  0  0  0  0  0  0  0  0  0
   -7.8488   24.3108  -32.6263 H   0  0  0  0  0  0  0  0  0  0  0  0
   -6.1235   23.6752  -32.6462 H   0  0  0  0  0  0  0  0  0  0  0  0
   -7.2280   22.1690  -30.8380 H   0  0  0  0  0  0  0  0  0  0  0  0
   -6.6365   21.8966  -33.6663 H   0  0  0  0  0  0  0  0  0  0  0  0
   -5.9809   21.0368  -32.1918 H   0  0  0  0  0  0  0  0  0  0  0  0
   -8.4257   20.3976  -33.8574 H   0  0  0  0  0  0  0  0  0  0  0  0
   -7.0869   19.3243  -33.2836 H   0  0  0  0  0  0  0  0  0  0  0  0
   -9.2296   18.9103  -32.0816 H   0  0  0  0  0  0  0  0  0  0  0  0
   -7.8898   19.4849  -30.9951 H   0  0  0  0  0  0  0  0  0  0  0  0
  -10.5102   20.7341  -31.6199 H   0  0  0  0  0  0  0  0  0  0  0  0
   -9.4016   20.9319  -30.1927 H   0  0  0  0  0  0  0  0  0  0  0  0
   -9.3864   22.4164  -32.8457 H   0  0  0  0  0  0  0  0  0  0  0  0
   -9.4226   23.0662  -31.1583 H   0  0  0  0  0  0  0  0  0  0  0  0
  1  2  1  0
  2  3  2  0
  2  4  1  0
  4  5  2  0
  5  6  1  0
  6  7  2  0
  7  8  1  0
  8  9  2  0
  9 10  1  0
 10 11  1  0
 11 12  1  0
 12 13  1  0
 13 14  1  0
  9 15  1  0
 15 16  2  0
 16 17  1  0
 17 18  1  0
 18 19  2  0
 18 20  1  0
 20 21  1  0
 21 22  2  0
 21 23  2  0
 21 24  1  0
 24 25  1  0
 25 26  1  0
 26 27  1  0
 27 28  1  0
 28 29  1  0
 29 30  1  0
 30 31  1  0
 17  4  1  0
 31 26  1  0
 16  6  1  0
 14 10  1  0
  1 32  1  0
  5 33  1  0
  7 34  1  0
  8 35  1  0
 11 36  1  0
 11 37  1  0
 12 38  1  0
 12 39  1  0
 13 40  1  0
 13 41  1  0
 14 42  1  0
 14 43  1  0
 15 44  1  0
 20 45  1  0
 20 46  1  0
 24 47  1  0
 24 48  1  0
 25 49  1  0
 25 50  1  0
 26 51  1  0
 27 52  1  0
 27 53  1  0
 28 54  1  0
 28 55  1  0
 29 56  1  0
 29 57  1  0
 30 58  1  0
 30 59  1  0
 31 60  1  0
 31 61  1  0
M  CHG  2   1  -1  26   1
M  END
>  <UniqueID>  (5) 
5

>  <SMILES>  (5) 
[NH-]C(=O)c1cc2ccc(N3CCCC3)cc2n1C(=O)CS(=O)(=O)CC[NH+]1CCCCC1

>  <Energy>  (5) 
107.87753290396995

>  <Genealogy>  (5) 
[NH-]C(=O)c1cc2ccc(N3CCCC3)cc2n1C(=O)CS(=O)(=O)CC[NH+]1CCCCC1 (protonated)
[NH-]C(=O)c1cc2ccc(N3CCCC3)cc2n1C(=O)CS(=O)(=O)CC[NH+]1CCCCC1 (3D coordinates assigned)
[NH-]C(=O)c1cc2ccc(N3CCCC3)cc2n1C(=O)CS(=O)(=O)CC[NH+]1CCCCC1 (nonaromatic ring conformer: 107.87753290396995 kcal/mol)

>  <smiles>  (5) 
NC(=O)c1cc2ccc(N3CCCC3)cc2n1C(=O)CS(=O)(=O)CCN1CCCCC1

>  <score_type>  (5) 
oracle

>  <origin>  (5) 
adg

>  <m_score__min__energy>  (5) 
-11

>  <m_primary>  (5) 
energy

$$$$
5:0
     RDKit          3D

 54 55  0  0  0  0  0  0  0  0999 V2000
   -4.4020   19.1840  -33.4720 C   0  0  0  0  0  0  0  0  0  0  0  0
   -5.7700   18.7480  -33.7890 N   0  0  0  0  0  0  0  0  0  0  0  0
   -5.7410   17.8360  -34.9460 C   0  0  0  0  0  0  0  0  0  0  0  0
   -6.3970   18.0930  -32.6180 C   0  0  0  0  0  0  0  0  0  0  0  0
   -7.7880   18.6780  -32.3530 C   0  0  0  0  0  0  0  0  0  0  0  0
   -7.7130   20.1480  -32.0320 C   0  0  0  0  0  0  0  0  0  0  0  0
   -8.8910   20.9360  -32.0610 C   0  0  0  0  0  0  0  0  0  0  0  0
   -8.8430   22.3070  -31.7610 C   0  0  0  0  0  0  0  0  0  0  0  0
   -7.6100   22.8590  -31.4290 C   0  0  0  0  0  0  0  0  0  0  0  0
   -7.2760   24.1590  -31.1300 C   0  0  0  0  0  0  0  0  0  0  0  0
   -5.9030   24.1440  -30.8980 C   0  0  0  0  0  0  0  0  0  0  0  0
   -5.1400   25.3320  -30.4610 C   0  0  0  0  0  0  0  0  0  0  0  0
   -3.7210   25.2900  -30.3420 N   0  0  0  0  0  0  0  0  0  0  0  0
   -5.7550   26.3840  -30.1390 O   0  0  0  0  0  0  0  0  0  0  0  0
   -5.4050   22.8840  -31.0550 N   0  0  0  0  0  0  0  0  0  0  0  0
   -4.0310   22.4710  -30.9990 C   0  0  0  0  0  0  0  0  0  0  0  0
   -3.1410   23.1710  -31.5570 O   0  0  0  0  0  0  0  0  0  0  0  0
   -3.6840   21.2900  -30.3360 O   0  0  0  0  0  0  0  0  0  0  0  0
   -2.3300   20.8790  -30.1650 C   0  0  0  0  0  0  0  0  0  0  0  0
   -1.8890   21.0740  -28.7140 C   0  0  0  0  0  0  0  0  0  0  0  0
   -2.7830   22.0230  -27.8740 C   0  0  0  0  0  0  0  0  0  0  0  0
   -2.8980   23.4360  -28.3330 N   0  0  0  0  0  0  0  0  0  0  0  0
   -3.9450   24.1850  -27.6150 C   0  0  0  0  0  0  0  0  0  0  0  0
   -1.6240   24.1780  -28.3370 C   0  0  0  0  0  0  0  0  0  0  0  0
   -6.4640   22.1070  -31.3740 C   0  0  0  0  0  0  0  0  0  0  0  0
   -6.4810   20.7420  -31.6770 C   0  0  0  0  0  0  0  0  0  0  0  0
   -4.2739   19.2248  -32.3802 H   0  0  0  0  0  0  0  0  0  0  0  0
   -3.6816   18.4709  -33.8993 H   0  0  0  0  0  0  0  0  0  0  0  0
   -4.2271   20.1824  -33.8993 H   0  0  0  0  0  0  0  0  0  0  0  0
   -5.7079   16.7951  -34.5917 H   0  0  0  0  0  0  0  0  0  0  0  0
   -6.6444   17.9875  -35.5550 H   0  0  0  0  0  0  0  0  0  0  0  0
   -4.8490   18.0446  -35.5550 H   0  0  0  0  0  0  0  0  0  0  0  0
   -6.4898   17.0145  -32.8138 H   0  0  0  0  0  0  0  0  0  0  0  0
   -5.7653   18.2666  -31.7344 H   0  0  0  0  0  0  0  0  0  0  0  0
   -8.4117   18.5384  -33.2483 H   0  0  0  0  0  0  0  0  0  0  0  0
   -8.2245   18.1563  -31.4885 H   0  0  0  0  0  0  0  0  0  0  0  0
   -9.8523   20.4689  -32.3211 H   0  0  0  0  0  0  0  0  0  0  0  0
   -9.7523   22.9254  -31.7877 H   0  0  0  0  0  0  0  0  0  0  0  0
   -7.9504   25.0268  -31.0839 H   0  0  0  0  0  0  0  0  0  0  0  0
   -3.1100   25.3260  -31.1880 H   0  0  0  0  0  0  0  0  0  0  0  0
   -2.2384   19.8156  -30.4312 H   0  0  0  0  0  0  0  0  0  0  0  0
   -1.6882   21.4903  -30.8165 H   0  0  0  0  0  0  0  0  0  0  0  0
   -1.8843   20.0890  -28.2244 H   0  0  0  0  0  0  0  0  0  0  0  0
   -0.8972   21.5478  -28.7574 H   0  0  0  0  0  0  0  0  0  0  0  0
   -3.7968   21.5962  -27.8603 H   0  0  0  0  0  0  0  0  0  0  0  0
   -2.2883   22.0834  -26.8934 H   0  0  0  0  0  0  0  0  0  0  0  0
   -3.2150   23.3970  -29.3320 H   0  0  0  0  0  0  0  0  0  0  0  0
   -3.7946   24.0774  -26.5307 H   0  0  0  0  0  0  0  0  0  0  0  0
   -3.8883   25.2488  -27.8893 H   0  0  0  0  0  0  0  0  0  0  0  0
   -4.9334   23.7878  -27.8893 H   0  0  0  0  0  0  0  0  0  0  0  0
   -1.3047   24.3639  -27.3009 H   0  0  0  0  0  0  0  0  0  0  0  0
   -0.8564   23.5857  -28.8565 H   0  0  0  0  0  0  0  0  0  0  0  0
   -1.7604   25.1379  -28.8565 H   0  0  0  0  0  0  0  0  0  0  0  0
   -5.5578   20.1451  -31.6399 H   0  0  0  0  0  0  0  0  0  0  0  0
  1  2  1  0
  2  3  1  0
  2  4  1  0
  4  5  1  0
  5  6  1  0
  6  7  2  0
  7  8  1  0
  8  9  2  0
  9 10  1  0
 10 11  2  0
 11 12  1  0
 12 13  1  0
 12 14  2  0
 11 15  1  0
 15 16  1  0
 16 17  2  0
 16 18  1  0
 18 19  1  0
 19 20  1  0
 20 21  1  0
 21 22  1  0
 22 23  1  0
 22 24  1  0
 15 25  1  0
 25 26  2  0
 26  6  1  0
 25  9  1  0
  1 27  1  0
  1 28  1  0
  1 29  1  0
  3 30  1  0
  3 31  1  0
  3 32  1  0
  4 33  1  0
  4 34  1  0
  5 35  1  0
  5 36  1  0
  7 37  1  0
  8 38  1  0
 10 39  1  0
 13 40  1  0
 19 41  1  0
 19 42  1  0
 20 43  1  0
 20 44  1  0
 21 45  1  0
 21 46  1  0
 22 47  1  0
 23 48  1  0
 23 49  1  0
 23 50  1  0
 24 51  1  0
 24 52  1  0
 24 53  1  0
 26 54  1  0
M  CHG  2  13  -1  22   1
M  END
>  <UniqueID>  (6) 
6

>  <SMILES>  (6) 
CN(C)CCc1ccc2cc(C([NH-])=O)n(C(=O)OCCC[NH+](C)C)c2c1

>  <Energy>  (6) 
89.93854760515988

>  <Genealogy>  (6) 
CN(C)CCc1ccc2cc(C([NH-])=O)n(C(=O)OCCC[NH+](C)C)c2c1 (protonated)
CN(C)CCc1ccc2cc(C([NH-])=O)n(C(=O)OCCC[NH+](C)C)c2c1 (3D coordinates assigned)
CN(C)CCc1ccc2cc(C([NH-])=O)n(C(=O)OCCC[NH+](C)C)c2c1 (optimized conformer: 89.93854760515988 kcal/mol)

>  <smiles>  (6) 
CN(C)CCCOC(=O)n1c(C(N)=O)cc2ccc(CCN(C)C)cc21

>  <score_type>  (6) 
oracle

>  <origin>  (6) 
adg

>  <m_score__min__energy>  (6) 
-9.2699999999999996

>  <m_primary>  (6) 
energy

$$$$
6:0
     RDKit          3D

 38 40  0  0  0  0  0  0  0  0999 V2000
   -9.4740   19.9290  -32.6250 C   0  0  0  0  0  0  0  0  0  0  0  0
   -9.5950   21.2950  -32.2450 O   0  0  0  0  0  0  0  0  0  0  0  0
   -8.5570   22.0050  -31.6360 C   0  0  0  0  0  0  0  0  0  0  0  0
   -7.9670   23.0740  -32.3130 C   0  0  0  0  0  0  0  0  0  0  0  0
   -6.9310   23.7850  -31.7050 C   0  0  0  0  0  0  0  0  0  0  0  0
   -6.5030   23.4410  -30.4190 C   0  0  0  0  0  0  0  0  0  0  0  0
   -5.4230   24.1760  -29.8260 N   0  0  0  0  0  0  0  0  0  0  0  0
   -4.1400   24.4320  -30.4100 C   0  0  0  0  0  0  0  0  0  0  0  0
   -3.8580   25.5760  -30.8590 O   0  0  0  0  0  0  0  0  0  0  0  0
   -3.1750   23.3740  -30.5050 N   0  0  0  0  0  0  0  0  0  0  0  0
   -1.8770   23.3850  -30.0880 C   0  0  0  0  0  0  0  0  0  0  0  0
   -1.2340   24.4400  -29.2770 C   0  0  0  0  0  0  0  0  0  0  0  0
   -1.9270   25.6430  -28.9580 N   0  0  0  0  0  0  0  0  0  0  0  0
   -0.0750   24.2550  -28.8200 O   0  0  0  0  0  0  0  0  0  0  0  0
   -1.2360   22.2050  -30.4580 C   0  0  0  0  0  0  0  0  0  0  0  0
   -2.1900   21.4600  -31.1130 C   0  0  0  0  0  0  0  0  0  0  0  0
   -2.1010   20.1990  -31.6920 C   0  0  0  0  0  0  0  0  0  0  0  0
   -3.2450   19.6800  -32.3220 C   0  0  0  0  0  0  0  0  0  0  0  0
   -4.4450   20.4350  -32.3850 C   0  0  0  0  0  0  0  0  0  0  0  0
   -5.6750   19.8520  -33.0300 C   0  0  0  0  0  0  0  0  0  0  0  0
   -5.2990   19.0910  -34.1220 F   0  0  0  0  0  0  0  0  0  0  0  0
   -6.5290   20.8560  -33.4520 F   0  0  0  0  0  0  0  0  0  0  0  0
   -6.3620   19.0480  -32.1350 F   0  0  0  0  0  0  0  0  0  0  0  0
   -4.5010   21.7040  -31.7630 C   0  0  0  0  0  0  0  0  0  0  0  0
   -3.3510   22.1880  -31.1280 C   0  0  0  0  0  0  0  0  0  0  0  0
   -7.1080   22.3450  -29.7780 C   0  0  0  0  0  0  0  0  0  0  0  0
   -8.1110   21.6650  -30.3940 N   0  0  0  0  0  0  0  0  0  0  0  0
   -9.4184   19.3012  -31.7235 H   0  0  0  0  0  0  0  0  0  0  0  0
  -10.3497   19.6357  -33.2226 H   0  0  0  0  0  0  0  0  0  0  0  0
   -8.5604   19.7942  -33.2226 H   0  0  0  0  0  0  0  0  0  0  0  0
   -8.3159   23.3539  -33.3180 H   0  0  0  0  0  0  0  0  0  0  0  0
   -6.4501   24.6179  -32.2388 H   0  0  0  0  0  0  0  0  0  0  0  0
   -2.9460   25.7450  -29.1570 H   0  0  0  0  0  0  0  0  0  0  0  0
   -0.1889   21.9273  -30.2671 H   0  0  0  0  0  0  0  0  0  0  0  0
   -1.1633   19.6249  -31.6580 H   0  0  0  0  0  0  0  0  0  0  0  0
   -3.2099   18.6767  -32.7716 H   0  0  0  0  0  0  0  0  0  0  0  0
   -5.4272   22.2973  -31.7778 H   0  0  0  0  0  0  0  0  0  0  0  0
   -6.7693   22.0379  -28.7775 H   0  0  0  0  0  0  0  0  0  0  0  0
  1  2  1  0
  2  3  1  0
  3  4  2  0
  4  5  1  0
  5  6  2  0
  6  7  1  0
  7  8  1  0
  8  9  2  0
  8 10  1  0
 10 11  1  0
 11 12  1  0
 12 13  1  0
 12 14  2  0
 11 15  2  0
 15 16  1  0
 16 17  2  0
 17 18  1  0
 18 19  2  0
 19 20  1  0
 20 21  1  0
 20 22  1  0
 20 23  1  0
 19 24  1  0
 24 25  2  0
  6 26  1  0
 26 27  2  0
 27  3  1  0
 25 10  1  0
 25 16  1  0
  1 28  1  0
  1 29  1  0
  1 30  1  0
  4 31  1  0
  5 32  1  0
 13 33  1  0
 15 34  1  0
 17 35  1  0
 18 36  1  0
 24 37  1  0
 26 38  1  0
M  CHG  2   7  -1  13  -1
M  END
>  <UniqueID>  (7) 
7

>  <SMILES>  (7) 
COc1ccc([N-]C(=O)n2c(C([NH-])=O)cc3ccc(C(F)(F)F)cc32)cn1

>  <Energy>  (7) 
82.95666749453358

>  <Genealogy>  (7) 
COc1ccc([N-]C(=O)n2c(C([NH-])=O)cc3ccc(C(F)(F)F)cc32)cn1 (protonated)
COc1ccc([N-]C(=O)n2c(C([NH-])=O)cc3ccc(C(F)(F)F)cc32)cn1 (3D coordinates assigned)
COc1ccc([N-]C(=O)n2c(C([NH-])=O)cc3ccc(C(F)(F)F)cc32)cn1 (optimized conformer: 82.95666749453358 kcal/mol)

>  <smiles>  (7) 
COc1ccc(NC(=O)n2c(C(N)=O)cc3ccc(C(F)(F)F)cc32)cn1

>  <score_type>  (7) 
oracle

>  <origin>  (7) 
adg

>  <m_score__min__energy>  (7) 
-11.289999999999999

>  <m_primary>  (7) 
energy

$$$$
7:0
     RDKit          3D

 38 39  0  0  0  0  0  0  0  0999 V2000
   -5.9010   15.9310  -33.8250 C   0  0  0  0  0  0  0  0  0  0  0  0
   -5.2650   17.2500  -33.7620 N   0  0  0  0  0  0  0  0  0  0  0  0
   -3.8090   17.3230  -33.5580 C   0  0  0  0  0  0  0  0  0  0  0  0
   -3.4020   18.6890  -32.9990 C   0  0  0  0  0  0  0  0  0  0  0  0
   -3.3250   19.6440  -34.0220 O   0  0  0  0  0  0  0  0  0  0  0  0
   -6.1000   18.4290  -33.8550 C   0  0  0  0  0  0  0  0  0  0  0  0
   -5.8090   19.3240  -34.6970 O   0  0  0  0  0  0  0  0  0  0  0  0
   -7.2800   18.6410  -32.9330 C   0  0  0  0  0  0  0  0  0  0  0  0
   -7.3460   20.0510  -32.3990 C   0  0  0  0  0  0  0  0  0  0  0  0
   -8.5980   20.6320  -32.0790 C   0  0  0  0  0  0  0  0  0  0  0  0
   -8.6680   21.9360  -31.5620 C   0  0  0  0  0  0  0  0  0  0  0  0
   -7.4750   22.6240  -31.3610 C   0  0  0  0  0  0  0  0  0  0  0  0
   -7.2580   23.8990  -30.8920 C   0  0  0  0  0  0  0  0  0  0  0  0
   -5.8750   24.0650  -30.8990 C   0  0  0  0  0  0  0  0  0  0  0  0
   -5.1990   25.2760  -30.3870 C   0  0  0  0  0  0  0  0  0  0  0  0
   -3.8900   25.6040  -30.8450 N   0  0  0  0  0  0  0  0  0  0  0  0
   -5.7790   26.0450  -29.5760 O   0  0  0  0  0  0  0  0  0  0  0  0
   -5.2600   22.9390  -31.3610 N   0  0  0  0  0  0  0  0  0  0  0  0
   -3.8550   22.7250  -31.5800 C   0  0  0  0  0  0  0  0  0  0  0  0
   -3.0080   23.1730  -30.7630 O   0  0  0  0  0  0  0  0  0  0  0  0
   -3.4170   22.0430  -32.7080 O   0  0  0  0  0  0  0  0  0  0  0  0
   -6.2540   22.0650  -31.6360 C   0  0  0  0  0  0  0  0  0  0  0  0
   -6.1550   20.7750  -32.1710 C   0  0  0  0  0  0  0  0  0  0  0  0
   -6.0795   15.5609  -32.8046 H   0  0  0  0  0  0  0  0  0  0  0  0
   -6.8594   16.0112  -34.3588 H   0  0  0  0  0  0  0  0  0  0  0  0
   -5.2414   15.2310  -34.3588 H   0  0  0  0  0  0  0  0  0  0  0  0
   -3.5052   16.5389  -32.8488 H   0  0  0  0  0  0  0  0  0  0  0  0
   -3.3111   17.1785  -34.5282 H   0  0  0  0  0  0  0  0  0  0  0  0
   -4.1490   19.0127  -32.2593 H   0  0  0  0  0  0  0  0  0  0  0  0
   -2.4118   18.5961  -32.5289 H   0  0  0  0  0  0  0  0  0  0  0  0
   -4.0470   20.3040  -33.8500 H   0  0  0  0  0  0  0  0  0  0  0  0
   -8.2053   18.4301  -33.4891 H   0  0  0  0  0  0  0  0  0  0  0  0
   -7.1620   17.9624  -32.0753 H   0  0  0  0  0  0  0  0  0  0  0  0
   -9.5225   20.0572  -32.2367 H   0  0  0  0  0  0  0  0  0  0  0  0
   -9.6365   22.3996  -31.3231 H   0  0  0  0  0  0  0  0  0  0  0  0
   -8.0159   24.6319  -30.5781 H   0  0  0  0  0  0  0  0  0  0  0  0
   -3.0430   25.2950  -30.3170 H   0  0  0  0  0  0  0  0  0  0  0  0
   -5.1744   20.3364  -32.4078 H   0  0  0  0  0  0  0  0  0  0  0  0
  1  2  1  0
  2  3  1  0
  3  4  1  0
  4  5  1  0
  2  6  1  0
  6  7  2  0
  6  8  1  0
  8  9  1  0
  9 10  2  0
 10 11  1  0
 11 12  2  0
 12 13  1  0
 13 14  2  0
 14 15  1  0
 15 16  1  0
 15 17  2  0
 14 18  1  0
 18 19  1  0
 19 20  2  0
 19 21  1  0
 18 22  1  0
 22 23  2  0
 23  9  1  0
 22 12  1  0
  1 24  1  0
  1 25  1  0
  1 26  1  0
  3 27  1  0
  3 28  1  0
  4 29  1  0
  4 30  1  0
  5 31  1  0
  8 32  1  0
  8 33  1  0
 10 34  1  0
 11 35  1  0
 13 36  1  0
 16 37  1  0
 23 38  1  0
M  CHG  2  16  -1  21  -1
M  END
>  <UniqueID>  (8) 
8

>  <SMILES>  (8) 
CN(CCO)C(=O)Cc1ccc2cc(C([NH-])=O)n(C(=O)[O-])c2c1

>  <Energy>  (8) 
74.4200342091665

>  <Genealogy>  (8) 
CN(CCO)C(=O)Cc1ccc2cc(C([NH-])=O)n(C(=O)[O-])c2c1 (protonated)
CN(CCO)C(=O)Cc1ccc2cc(C([NH-])=O)n(C(=O)[O-])c2c1 (3D coordinates assigned)
CN(CCO)C(=O)Cc1ccc2cc(C([NH-])=O)n(C(=O)[O-])c2c1 (optimized conformer: 74.4200342091665 kcal/mol)

>  <smiles>  (8) 
CN(CCO)C(=O)Cc1ccc2cc(C(N)=O)n(C(=O)O)c2c1

>  <score_type>  (8) 
oracle

>  <origin>  (8) 
adg

>  <m_score__min__energy>  (8) 
-10.84

>  <m_primary>  (8) 
energy

$$$$
8:0
     RDKit          3D

 49 52  0  0  0  0  0  0  0  0999 V2000
   -4.9440   14.9080  -32.2740 C   0  0  0  0  0  0  0  0  0  0  0  0
   -5.5860   16.1490  -32.6910 N   0  0  0  0  0  0  0  0  0  0  0  0
   -5.5590   17.3170  -32.0230 C   0  0  0  0  0  0  0  0  0  0  0  0
   -6.3630   18.2240  -32.6990 C   0  0  0  0  0  0  0  0  0  0  0  0
   -6.6410   19.6340  -32.3300 C   0  0  0  0  0  0  0  0  0  0  0  0
   -7.9600   20.1580  -32.4180 C   0  0  0  0  0  0  0  0  0  0  0  0
   -8.2350   21.4860  -32.0520 C   0  0  0  0  0  0  0  0  0  0  0  0
   -7.1780   22.2740  -31.6070 C   0  0  0  0  0  0  0  0  0  0  0  0
   -7.1660   23.5760  -31.1620 C   0  0  0  0  0  0  0  0  0  0  0  0
   -5.8390   23.8380  -30.8240 C   0  0  0  0  0  0  0  0  0  0  0  0
   -5.3530   25.1490  -30.3490 C   0  0  0  0  0  0  0  0  0  0  0  0
   -4.1160   25.6670  -30.8340 N   0  0  0  0  0  0  0  0  0  0  0  0
   -6.0080   25.8090  -29.5000 O   0  0  0  0  0  0  0  0  0  0  0  0
   -5.0670   22.7390  -31.0510 N   0  0  0  0  0  0  0  0  0  0  0  0
   -3.6710   22.5660  -30.7730 C   0  0  0  0  0  0  0  0  0  0  0  0
   -2.8270   23.3280  -31.3170 O   0  0  0  0  0  0  0  0  0  0  0  0
   -3.1950   21.4290  -29.9190 C   0  0  0  0  0  0  0  0  0  0  0  0
   -3.0200   21.8840  -28.5230 N   0  0  0  0  0  0  0  0  0  0  0  0
   -1.6010   22.1220  -28.1930 C   0  0  0  0  0  0  0  0  0  0  0  0
   -1.0470   23.3840  -28.8880 C   0  0  0  0  0  0  0  0  0  0  0  0
   -2.0390   24.4690  -29.0180 N   0  0  0  0  0  0  0  0  0  0  0  0
   -3.1110   24.3660  -28.0230 C   0  0  0  0  0  0  0  0  0  0  0  0
   -3.8860   23.0430  -28.1790 C   0  0  0  0  0  0  0  0  0  0  0  0
   -5.8990   21.7930  -31.5310 C   0  0  0  0  0  0  0  0  0  0  0  0
   -5.5950   20.4740  -31.8770 C   0  0  0  0  0  0  0  0  0  0  0  0
   -6.8670   17.5160  -33.7830 C   0  0  0  0  0  0  0  0  0  0  0  0
   -6.3800   16.2620  -33.7420 N   0  0  0  0  0  0  0  0  0  0  0  0
   -4.9188   14.8594  -31.1754 H   0  0  0  0  0  0  0  0  0  0  0  0
   -5.5121   14.0515  -32.6660 H   0  0  0  0  0  0  0  0  0  0  0  0
   -3.9167   14.8769  -32.6660 H   0  0  0  0  0  0  0  0  0  0  0  0
   -4.9962   17.5183  -31.0996 H   0  0  0  0  0  0  0  0  0  0  0  0
   -8.7764   19.5144  -32.7777 H   0  0  0  0  0  0  0  0  0  0  0  0
   -9.2558   21.8910  -32.1153 H   0  0  0  0  0  0  0  0  0  0  0  0
   -8.0213   24.2638  -31.0886 H   0  0  0  0  0  0  0  0  0  0  0  0
   -3.2040   25.2950  -30.4850 H   0  0  0  0  0  0  0  0  0  0  0  0
   -3.9364   20.6169  -29.9472 H   0  0  0  0  0  0  0  0  0  0  0  0
   -2.2304   21.0670  -30.3045 H   0  0  0  0  0  0  0  0  0  0  0  0
   -1.5061   22.2461  -27.1042 H   0  0  0  0  0  0  0  0  0  0  0  0
   -1.0210   21.2575  -28.5482 H   0  0  0  0  0  0  0  0  0  0  0  0
   -0.1958   23.7592  -28.3010 H   0  0  0  0  0  0  0  0  0  0  0  0
   -0.7545   23.0898  -29.9068 H   0  0  0  0  0  0  0  0  0  0  0  0
   -2.4660   24.4350  -29.9730 H   0  0  0  0  0  0  0  0  0  0  0  0
   -2.6716   24.4085  -27.0155 H   0  0  0  0  0  0  0  0  0  0  0  0
   -3.8106   25.2012  -28.1747 H   0  0  0  0  0  0  0  0  0  0  0  0
   -4.3977   22.8255  -27.2299 H   0  0  0  0  0  0  0  0  0  0  0  0
   -4.5912   23.1780  -29.0124 H   0  0  0  0  0  0  0  0  0  0  0  0
   -4.5649   20.0961  -31.7992 H   0  0  0  0  0  0  0  0  0  0  0  0
   -7.5504   17.9141  -34.5475 H   0  0  0  0  0  0  0  0  0  0  0  0
   -6.5960   15.4950  -34.4160 H   0  0  0  0  0  0  0  0  0  0  0  0
  1  2  1  0
  2  3  1  0
  3  4  2  0
  4  5  1  0
  5  6  2  0
  6  7  1  0
  7  8  2  0
  8  9  1  0
  9 10  2  0
 10 11  1  0
 11 12  1  0
 11 13  2  0
 10 14  1  0
 14 15  1  0
 15 16  2  0
 15 17  1  0
 17 18  1  0
 18 19  1  0
 19 20  1  0
 20 21  1  0
 21 22  1  0
 22 23  1  0
 14 24  1  0
 24 25  2  0
  4 26  1  0
 26 27  2  0
 27  2  1  0
 25  5  1  0
 24  8  1  0
 23 18  1  0
  1 28  1  0
  1 29  1  0
  1 30  1  0
  3 31  1  0
  6 32  1  0
  7 33  1  0
  9 34  1  0
 12 35  1  0
 17 36  1  0
 17 37  1  0
 19 38  1  0
 19 39  1  0
 20 40  1  0
 20 41  1  0
 21 42  1  0
 22 43  1  0
 22 44  1  0
 23 45  1  0
 23 46  1  0
 25 47  1  0
 26 48  1  0
 27 49  1  0
M  CHG  2  12  -1  27   1
M  END
>  <UniqueID>  (9) 
9

>  <SMILES>  (9) 
Cn1cc(-c2ccc3cc(C([NH-])=O)n(C(=O)CN4CCNCC4)c3c2)c[nH+]1

>  <Energy>  (9) 
132.0821361439549

>  <Genealogy>  (9) 
Cn1cc(-c2ccc3cc(C([NH-])=O)n(C(=O)CN4CCNCC4)c3c2)c[nH+]1 (protonated)
Cn1cc(-c2ccc3cc(C([NH-])=O)n(C(=O)CN4CCNCC4)c3c2)c[nH+]1 (3D coordinates assigned)
Cn1cc(-c2ccc3cc(C([NH-])=O)n(C(=O)CN4CCNCC4)c3c2)c[nH+]1 (nonaromatic ring conformer: 132.0821361439549 kcal/mol)

>  <smiles>  (9) 
Cn1cc(-c2ccc3cc(C(N)=O)n(C(=O)CN4CCNCC4)c3c2)cn1

>  <score_type>  (9) 
oracle

>  <origin>  (9) 
adg

>  <m_score__min__energy>  (9) 
-10.81

>  <m_primary>  (9) 
energy

$$$$
9:0
     RDKit          3D

 42 43  0  0  0  0  0  0  0  0999 V2000
   -4.0220   25.6320  -30.6500 N   0  0  0  0  0  0  0  0  0  0  0  0
   -5.0860   24.6880  -30.5550 C   0  0  0  0  0  0  0  0  0  0  0  0
   -6.0700   24.9400  -29.8100 O   0  0  0  0  0  0  0  0  0  0  0  0
   -5.0270   23.3990  -31.2770 C   0  0  0  0  0  0  0  0  0  0  0  0
   -6.1200   22.8400  -31.9370 C   0  0  0  0  0  0  0  0  0  0  0  0
   -5.6840   21.6180  -32.3970 C   0  0  0  0  0  0  0  0  0  0  0  0
   -6.3580   20.6430  -33.1250 C   0  0  0  0  0  0  0  0  0  0  0  0
   -5.6510   19.4830  -33.4850 C   0  0  0  0  0  0  0  0  0  0  0  0
   -4.2880   19.3290  -33.1270 C   0  0  0  0  0  0  0  0  0  0  0  0
   -3.5490   18.0710  -33.5090 C   0  0  0  0  0  0  0  0  0  0  0  0
   -2.0340   18.2320  -33.3260 C   0  0  0  0  0  0  0  0  0  0  0  0
   -1.3930   18.7400  -34.5400 N   0  0  0  0  0  0  0  0  0  0  0  0
   -0.8890   20.0760  -34.6180 C   0  0  0  0  0  0  0  0  0  0  0  0
   -0.9970   20.8540  -33.6300 O   0  0  0  0  0  0  0  0  0  0  0  0
   -0.2870   20.5100  -35.8040 O   0  0  0  0  0  0  0  0  0  0  0  0
    1.0970   20.8410  -35.9150 C   0  0  0  0  0  0  0  0  0  0  0  0
    1.3380   22.3030  -35.5480 C   0  0  0  0  0  0  0  0  0  0  0  0
    0.1200   22.9610  -35.3480 O   0  0  0  0  0  0  0  0  0  0  0  0
   -3.6370   20.3410  -32.3890 C   0  0  0  0  0  0  0  0  0  0  0  0
   -4.3740   21.4740  -32.0220 C   0  0  0  0  0  0  0  0  0  0  0  0
   -3.9540   22.5590  -31.3330 N   0  0  0  0  0  0  0  0  0  0  0  0
   -2.6280   22.7890  -30.8360 C   0  0  0  0  0  0  0  0  0  0  0  0
   -1.6330   22.3590  -31.4810 O   0  0  0  0  0  0  0  0  0  0  0  0
   -2.4430   23.4940  -29.6010 N   0  0  0  0  0  0  0  0  0  0  0  0
   -1.3930   24.4270  -29.3290 C   0  0  0  0  0  0  0  0  0  0  0  0
   -1.6120   25.6680  -29.3300 O   0  0  0  0  0  0  0  0  0  0  0  0
   -0.1150   23.9580  -29.0600 O   0  0  0  0  0  0  0  0  0  0  0  0
   -3.0260   25.3190  -30.6580 H   0  0  0  0  0  0  0  0  0  0  0  0
   -7.1194   23.2818  -32.0635 H   0  0  0  0  0  0  0  0  0  0  0  0
   -7.4121   20.7758  -33.4102 H   0  0  0  0  0  0  0  0  0  0  0  0
   -6.1597   18.6876  -34.0495 H   0  0  0  0  0  0  0  0  0  0  0  0
   -3.8998   17.2436  -32.8747 H   0  0  0  0  0  0  0  0  0  0  0  0
   -3.7484   17.8620  -34.5704 H   0  0  0  0  0  0  0  0  0  0  0  0
   -1.8473   18.9371  -32.5026 H   0  0  0  0  0  0  0  0  0  0  0  0
   -1.6086   17.2426  -33.1019 H   0  0  0  0  0  0  0  0  0  0  0  0
   -1.2780   18.1250  -35.3760 H   0  0  0  0  0  0  0  0  0  0  0  0
    1.6766   20.1988  -35.2356 H   0  0  0  0  0  0  0  0  0  0  0  0
    1.4140   20.6830  -36.9564 H   0  0  0  0  0  0  0  0  0  0  0  0
    1.9327   22.3518  -34.6239 H   0  0  0  0  0  0  0  0  0  0  0  0
    1.8786   22.7937  -36.3707 H   0  0  0  0  0  0  0  0  0  0  0  0
   -0.5630   22.2500  -35.2420 H   0  0  0  0  0  0  0  0  0  0  0  0
   -2.5778   20.2423  -32.1093 H   0  0  0  0  0  0  0  0  0  0  0  0
  1  2  1  0
  2  3  2  0
  2  4  1  0
  4  5  2  0
  5  6  1  0
  6  7  2  0
  7  8  1  0
  8  9  2  0
  9 10  1  0
 10 11  1  0
 11 12  1  0
 12 13  1  0
 13 14  2  0
 13 15  1  0
 15 16  1  0
 16 17  1  0
 17 18  1  0
  9 19  1  0
 19 20  2  0
 20 21  1  0
 21 22  1  0
 22 23  2  0
 22 24  1  0
 24 25  1  0
 25 26  2  0
 25 27  1  0
 21  4  1  0
 20  6  1  0
  1 28  1  0
  5 29  1  0
  7 30  1  0
  8 31  1  0
 10 32  1  0
 10 33  1  0
 11 34  1  0
 11 35  1  0
 12 36  1  0
 16 37  1  0
 16 38  1  0
 17 39  1  0
 17 40  1  0
 18 41  1  0
 19 42  1  0
M  CHG  3   1  -1  24  -1  27  -1
M  END
>  <UniqueID>  (10) 
10

>  <SMILES>  (10) 
[NH-]C(=O)c1cc2ccc(CCNC(=O)OCCO)cc2n1C(=O)[N-]C(=O)[O-]

>  <Energy>  (10) 
73.25630945973666

>  <Genealogy>  (10) 
[NH-]C(=O)c1cc2ccc(CCNC(=O)OCCO)cc2n1C(=O)[N-]C(=O)[O-] (protonated)
[NH-]C(=O)c1cc2ccc(CCNC(=O)OCCO)cc2n1C(=O)[N-]C(=O)[O-] (3D coordinates assigned)
[NH-]C(=O)c1cc2ccc(CCNC(=O)OCCO)cc2n1C(=O)[N-]C(=O)[O-] (optimized conformer: 73.25630945973666 kcal/mol)

>  <smiles>  (10) 
NC(=O)c1cc2ccc(CCNC(=O)OCCO)cc2n1C(=O)NC(=O)O

>  <score_type>  (10) 
oracle

>  <origin>  (10) 
adg

>  <m_score__min__energy>  (10) 
-11.65

>  <m_primary>  (10) 
energy

$$$$
10:0
     RDKit          3D

 47 49  0  0  0  0  0  0  0  0999 V2000
   -6.5120   24.7560  -29.9380 C   0  0  0  0  0  0  0  0  0  0  0  0
   -5.4240   23.7920  -29.9940 N   0  0  0  0  0  0  0  0  0  0  0  0
   -4.1210   24.1200  -30.4870 C   0  0  0  0  0  0  0  0  0  0  0  0
   -3.8610   25.3010  -30.8440 O   0  0  0  0  0  0  0  0  0  0  0  0
   -3.1050   23.1080  -30.5620 N   0  0  0  0  0  0  0  0  0  0  0  0
   -1.8360   23.1700  -30.0700 C   0  0  0  0  0  0  0  0  0  0  0  0
   -1.2860   24.2540  -29.2320 C   0  0  0  0  0  0  0  0  0  0  0  0
   -2.1230   25.2890  -28.7130 N   0  0  0  0  0  0  0  0  0  0  0  0
   -0.0640   24.2380  -28.9240 O   0  0  0  0  0  0  0  0  0  0  0  0
   -1.1140   22.0350  -30.4260 C   0  0  0  0  0  0  0  0  0  0  0  0
   -1.9920   21.2600  -31.1480 C   0  0  0  0  0  0  0  0  0  0  0  0
   -1.8050   20.0220  -31.7460 C   0  0  0  0  0  0  0  0  0  0  0  0
   -2.8790   19.4590  -32.4540 C   0  0  0  0  0  0  0  0  0  0  0  0
   -4.1260   20.1440  -32.5830 C   0  0  0  0  0  0  0  0  0  0  0  0
   -5.2310   19.5460  -33.3310 N   0  0  0  0  0  0  0  0  0  0  0  0
   -5.0540   18.2280  -33.9620 C   0  0  0  0  0  0  0  0  0  0  0  0
   -6.4710   20.2920  -33.6410 C   0  0  0  0  0  0  0  0  0  0  0  0
   -7.3890   20.5720  -32.4160 C   0  0  2  0  0  0  0  0  0  0  0  0
   -6.8880   19.8020  -31.3420 O   0  0  0  0  0  0  0  0  0  0  0  0
   -8.8700   20.2640  -32.6250 C   0  0  0  0  0  0  0  0  0  0  0  0
   -9.5870   21.1940  -31.6550 C   0  0  0  0  0  0  0  0  0  0  0  0
   -8.6730   22.2860  -31.3030 N   0  0  0  0  0  0  0  0  0  0  0  0
   -7.4200   22.0520  -32.0230 C   0  0  0  0  0  0  0  0  0  0  0  0
   -4.2590   21.4130  -31.9520 C   0  0  0  0  0  0  0  0  0  0  0  0
   -3.1820   21.9300  -31.2230 C   0  0  0  0  0  0  0  0  0  0  0  0
   -6.7564   24.9725  -28.8876 H   0  0  0  0  0  0  0  0  0  0  0  0
   -6.2056   25.6845  -30.4420 H   0  0  0  0  0  0  0  0  0  0  0  0
   -7.3968   24.3400  -30.4420 H   0  0  0  0  0  0  0  0  0  0  0  0
   -3.1620   25.2360  -28.7970 H   0  0  0  0  0  0  0  0  0  0  0  0
   -1.7070   26.0710  -28.1600 H   0  0  0  0  0  0  0  0  0  0  0  0
   -0.0660   21.8064  -30.1824 H   0  0  0  0  0  0  0  0  0  0  0  0
   -0.8420   19.4961  -31.6676 H   0  0  0  0  0  0  0  0  0  0  0  0
   -2.7576   18.4696  -32.9191 H   0  0  0  0  0  0  0  0  0  0  0  0
   -4.9507   17.4591  -33.1822 H   0  0  0  0  0  0  0  0  0  0  0  0
   -5.9296   18.0005  -34.5877 H   0  0  0  0  0  0  0  0  0  0  0  0
   -4.1493   18.2395  -34.5877 H   0  0  0  0  0  0  0  0  0  0  0  0
   -6.1872   21.2582  -34.0836 H   0  0  0  0  0  0  0  0  0  0  0  0
   -7.0524   19.6551  -34.3239 H   0  0  0  0  0  0  0  0  0  0  0  0
   -7.0860   20.2640  -30.4870 H   0  0  0  0  0  0  0  0  0  0  0  0
   -9.1697   20.4759  -33.6619 H   0  0  0  0  0  0  0  0  0  0  0  0
   -9.1088   19.2051  -32.4470 H   0  0  0  0  0  0  0  0  0  0  0  0
  -10.4900   21.6037  -32.1312 H   0  0  0  0  0  0  0  0  0  0  0  0
   -9.8844   20.6424  -30.7509 H   0  0  0  0  0  0  0  0  0  0  0  0
   -9.0850   23.1940  -31.6220 H   0  0  0  0  0  0  0  0  0  0  0  0
   -7.3807   22.6815  -32.9242 H   0  0  0  0  0  0  0  0  0  0  0  0
   -6.5554   22.3051  -31.3917 H   0  0  0  0  0  0  0  0  0  0  0  0
   -5.1974   21.9807  -32.0364 H   0  0  0  0  0  0  0  0  0  0  0  0
  1  2  1  0
  2  3  1  0
  3  4  2  0
  3  5  1  0
  5  6  1  0
  6  7  1  0
  7  8  1  0
  7  9  2  0
  6 10  2  0
 10 11  1  0
 11 12  2  0
 12 13  1  0
 13 14  2  0
 14 15  1  0
 15 16  1  0
 15 17  1  0
 17 18  1  0
 18 19  1  1
 18 20  1  0
 20 21  1  0
 21 22  1  0
 22 23  1  0
 14 24  1  0
 24 25  2  0
 25  5  1  0
 25 11  1  0
 23 18  1  0
  1 26  1  0
  1 27  1  0
  1 28  1  0
  8 29  1  0
  8 30  1  0
 10 31  1  0
 12 32  1  0
 13 33  1  0
 16 34  1  0
 16 35  1  0
 16 36  1  0
 17 37  1  0
 17 38  1  0
 19 39  1  0
 20 40  1  0
 20 41  1  0
 21 42  1  0
 21 43  1  0
 22 44  1  0
 23 45  1  0
 23 46  1  0
 24 47  1  0
M  CHG  1   2  -1
M  END
>  <UniqueID>  (11) 
11

>  <SMILES>  (11) 
C[N-]C(=O)n1c(C(N)=O)cc2ccc(N(C)C[C@]3(O)CCNC3)cc21

>  <Energy>  (11) 
94.01792331724648

>  <Genealogy>  (11) 
C[N-]C(=O)n1c(C(N)=O)cc2ccc(N(C)CC3(O)CCNC3)cc21 (protonated)
C[N-]C(=O)n1c(C(N)=O)cc2ccc(N(C)C[C@]3(O)CCNC3)cc21 (chirality)
C[N-]C(=O)n1c(C(N)=O)cc2ccc(N(C)C[C@]3(O)CCNC3)cc21 (3D coordinates assigned)
C[N-]C(=O)n1c(C(N)=O)cc2ccc(N(C)C[C@]3(O)CCNC3)cc21 (nonaromatic ring conformer: 94.01792331724648 kcal/mol)

>  <smiles>  (11) 
CNC(=O)n1c(C(N)=O)cc2ccc(N(C)CC3(O)CCNC3)cc21

>  <score_type>  (11) 
oracle

>  <origin>  (11) 
adg

>  <m_score__min__energy>  (11) 
-8.9399999999999995

>  <m_primary>  (11) 
energy

$$$$
11:0
     RDKit          3D

 45 46  0  0  0  0  0  0  0  0999 V2000
   -3.7880   22.7420  -28.3920 C   0  0  0  0  0  0  0  0  0  0  0  0
   -2.7060   22.5250  -29.4390 C   0  0  0  0  0  0  0  0  0  0  0  0
   -3.0350   23.2500  -30.6190 O   0  0  0  0  0  0  0  0  0  0  0  0
   -3.8840   22.7420  -31.6060 C   0  0  0  0  0  0  0  0  0  0  0  0
   -3.4030   22.2390  -32.6600 O   0  0  0  0  0  0  0  0  0  0  0  0
   -5.3080   22.7860  -31.4180 N   0  0  0  0  0  0  0  0  0  0  0  0
   -6.0460   23.8100  -30.9040 C   0  0  0  0  0  0  0  0  0  0  0  0
   -5.5090   25.0340  -30.2770 C   0  0  0  0  0  0  0  0  0  0  0  0
   -4.2110   25.5280  -30.6100 N   0  0  0  0  0  0  0  0  0  0  0  0
   -6.1840   25.6220  -29.3900 O   0  0  0  0  0  0  0  0  0  0  0  0
   -7.4060   23.5320  -30.9980 C   0  0  0  0  0  0  0  0  0  0  0  0
   -7.4830   22.2870  -31.5790 C   0  0  0  0  0  0  0  0  0  0  0  0
   -8.5970   21.5270  -31.9170 C   0  0  0  0  0  0  0  0  0  0  0  0
   -8.3850   20.2870  -32.5440 C   0  0  0  0  0  0  0  0  0  0  0  0
   -7.0690   19.8370  -32.8370 C   0  0  0  0  0  0  0  0  0  0  0  0
   -6.8260   18.5780  -33.4910 N   0  0  0  0  0  0  0  0  0  0  0  0
   -5.8260   18.3640  -34.5400 C   0  0  0  0  0  0  0  0  0  0  0  0
   -5.3910   16.8930  -34.5990 C   0  0  0  0  0  0  0  0  0  0  0  0
   -6.1200   16.0770  -33.6030 N   0  0  0  0  0  0  0  0  0  0  0  0
   -5.3040   15.9060  -32.3900 C   0  0  0  0  0  0  0  0  0  0  0  0
   -6.4670   14.7540  -34.1520 C   0  0  0  0  0  0  0  0  0  0  0  0
   -5.9650   20.6380  -32.4690 C   0  0  0  0  0  0  0  0  0  0  0  0
   -6.2040   21.8580  -31.8260 C   0  0  0  0  0  0  0  0  0  0  0  0
   -3.3489   22.6539  -27.3873 H   0  0  0  0  0  0  0  0  0  0  0  0
   -4.2221   23.7451  -28.5158 H   0  0  0  0  0  0  0  0  0  0  0  0
   -4.5754   21.9839  -28.5158 H   0  0  0  0  0  0  0  0  0  0  0  0
   -1.7410   22.8797  -29.0479 H   0  0  0  0  0  0  0  0  0  0  0  0
   -2.6344   21.4531  -29.6754 H   0  0  0  0  0  0  0  0  0  0  0  0
   -3.8640   26.4160  -30.1860 H   0  0  0  0  0  0  0  0  0  0  0  0
   -3.5610   24.9730  -31.2090 H   0  0  0  0  0  0  0  0  0  0  0  0
   -8.2415   24.1711  -30.6764 H   0  0  0  0  0  0  0  0  0  0  0  0
   -9.6141   21.8854  -31.7002 H   0  0  0  0  0  0  0  0  0  0  0  0
   -9.2470   19.6579  -32.8109 H   0  0  0  0  0  0  0  0  0  0  0  0
   -7.3630   17.7410  -33.1700 H   0  0  0  0  0  0  0  0  0  0  0  0
   -6.2571   18.6501  -35.5107 H   0  0  0  0  0  0  0  0  0  0  0  0
   -4.9436   18.9798  -34.3115 H   0  0  0  0  0  0  0  0  0  0  0  0
   -5.5965   16.4985  -35.6051 H   0  0  0  0  0  0  0  0  0  0  0  0
   -4.3160   16.8392  -34.3723 H   0  0  0  0  0  0  0  0  0  0  0  0
   -5.9372   16.0387  -31.5004 H   0  0  0  0  0  0  0  0  0  0  0  0
   -4.8667   14.8967  -32.3815 H   0  0  0  0  0  0  0  0  0  0  0  0
   -4.4983   16.6548  -32.3815 H   0  0  0  0  0  0  0  0  0  0  0  0
   -6.6513   14.0512  -33.3261 H   0  0  0  0  0  0  0  0  0  0  0  0
   -7.3731   14.8396  -34.7698 H   0  0  0  0  0  0  0  0  0  0  0  0
   -5.6356   14.3838  -34.7698 H   0  0  0  0  0  0  0  0  0  0  0  0
   -4.9375   20.3092  -32.6837 H   0  0  0  0  0  0  0  0  0  0  0  0
  1  2  1  0
  2  3  1  0
  3  4  1  0
  4  5  2  0
  4  6  1  0
  6  7  1  0
  7  8  1  0
  8  9  1  0
  8 10  2  0
  7 11  2  0
 11 12  1  0
 12 13  2  0
 13 14  1  0
 14 15  2  0
 15 16  1  0
 16 17  1  0
 17 18  1  0
 18 19  1  0
 19 20  1  0
 19 21  1  0
 15 22  1  0
 22 23  2  0
 23  6  1  0
 23 12  1  0
  1 24  1  0
  1 25  1  0
  1 26  1  0
  2 27  1  0
  2 28  1  0
  9 29  1  0
  9 30  1  0
 11 31  1  0
 13 32  1  0
 14 33  1  0
 16 34  1  0
 17 35  1  0
 17 36  1  0
 18 37  1  0
 18 38  1  0
 20 39  1  0
 20 40  1  0
 20 41  1  0
 21 42  1  0
 21 43  1  0
 21 44  1  0
 22 45  1  0
M  END
>  <UniqueID>  (12) 
12

>  <SMILES>  (12) 
CCOC(=O)n1c(C(N)=O)cc2ccc(NCCN(C)C)cc21

>  <Energy>  (12) 
77.39855718334005

>  <Genealogy>  (12) 
CCOC(=O)n1c(C(N)=O)cc2ccc(NCCN(C)C)cc21 (3D coordinates assigned)
CCOC(=O)n1c(C(N)=O)cc2ccc(NCCN(C)C)cc21 (optimized conformer: 77.39855718334005 kcal/mol)

>  <smiles>  (12) 
CCOC(=O)n1c(C(N)=O)cc2ccc(NCCN(C)C)cc21

>  <score_type>  (12) 
oracle

>  <origin>  (12) 
adg

>  <m_score__min__energy>  (12) 
-8.0700000000000003

>  <m_primary>  (12) 
energy

$$$$
12:0
     RDKit          3D

 33 34  0  0  0  0  0  0  0  0999 V2000
   -6.4960   17.4900  -31.6610 C   0  0  0  0  0  0  0  0  0  0  0  0
   -5.4400   17.9150  -32.5130 O   0  0  0  0  0  0  0  0  0  0  0  0
   -5.6390   18.8020  -33.5740 C   0  0  0  0  0  0  0  0  0  0  0  0
   -5.7900   18.3680  -34.7490 O   0  0  0  0  0  0  0  0  0  0  0  0
   -5.7270   20.2780  -33.2870 C   0  0  1  0  0  0  0  0  0  0  0  0
   -6.9990   20.6380  -32.5100 C   0  0  0  0  0  0  0  0  0  0  0  0
   -4.4860   20.7530  -32.5590 C   0  0  0  0  0  0  0  0  0  0  0  0
   -3.3000   19.9750  -32.6040 C   0  0  0  0  0  0  0  0  0  0  0  0
   -2.1330   20.4050  -31.9510 C   0  0  0  0  0  0  0  0  0  0  0  0
   -2.1800   21.6080  -31.2550 C   0  0  0  0  0  0  0  0  0  0  0  0
   -1.1910   22.2650  -30.5600 C   0  0  0  0  0  0  0  0  0  0  0  0
   -1.7890   23.4270  -30.0770 C   0  0  0  0  0  0  0  0  0  0  0  0
   -1.0950   24.3900  -29.1970 C   0  0  0  0  0  0  0  0  0  0  0  0
   -1.6470   25.6790  -28.9390 N   0  0  0  0  0  0  0  0  0  0  0  0
   -0.0250   24.0530  -28.6250 O   0  0  0  0  0  0  0  0  0  0  0  0
   -3.0950   23.4910  -30.4670 N   0  0  0  0  0  0  0  0  0  0  0  0
   -4.0300   24.5590  -30.2490 C   0  0  0  0  0  0  0  0  0  0  0  0
   -3.8700   25.6700  -30.8190 O   0  0  0  0  0  0  0  0  0  0  0  0
   -5.1340   24.3690  -29.4260 O   0  0  0  0  0  0  0  0  0  0  0  0
   -3.3180   22.3660  -31.1850 C   0  0  0  0  0  0  0  0  0  0  0  0
   -4.4890   21.9750  -31.8420 C   0  0  0  0  0  0  0  0  0  0  0  0
   -6.1918   17.6124  -30.6110 H   0  0  0  0  0  0  0  0  0  0  0  0
   -7.3919   18.0976  -31.8564 H   0  0  0  0  0  0  0  0  0  0  0  0
   -6.7212   16.4312  -31.8564 H   0  0  0  0  0  0  0  0  0  0  0  0
   -5.7851   20.8013  -34.2528 H   0  0  0  0  0  0  0  0  0  0  0  0
   -6.7975   20.5810  -31.4301 H   0  0  0  0  0  0  0  0  0  0  0  0
   -7.3114   21.6598  -32.7712 H   0  0  0  0  0  0  0  0  0  0  0  0
   -7.8006   19.9314  -32.7712 H   0  0  0  0  0  0  0  0  0  0  0  0
   -3.2945   19.0240  -33.1568 H   0  0  0  0  0  0  0  0  0  0  0  0
   -1.2098   19.8081  -31.9890 H   0  0  0  0  0  0  0  0  0  0  0  0
   -0.1495   21.9416  -30.4162 H   0  0  0  0  0  0  0  0  0  0  0  0
   -2.6750   25.8480  -29.0150 H   0  0  0  0  0  0  0  0  0  0  0  0
   -5.3920   22.6020  -31.8030 H   0  0  0  0  0  0  0  0  0  0  0  0
  1  2  1  0
  2  3  1  0
  3  4  2  0
  3  5  1  0
  5  6  1  0
  5  7  1  0
  7  8  2  0
  8  9  1  0
  9 10  2  0
 10 11  1  0
 11 12  2  0
 12 13  1  0
 13 14  1  0
 13 15  2  0
 12 16  1  0
 16 17  1  0
 17 18  2  0
 17 19  1  0
 16 20  1  0
 20 21  2  0
 21  7  1  0
 20 10  1  0
  1 22  1  0
  1 23  1  0
  1 24  1  0
  5 25  1  6
  6 26  1  0
  6 27  1  0
  6 28  1  0
  8 29  1  0
  9 30  1  0
 11 31  1  0
 14 32  1  0
 21 33  1  0
M  CHG  2  14  -1  19  -1
M  END
>  <UniqueID>  (13) 
13

>  <SMILES>  (13) 
COC(=O)[C@@H](C)c1ccc2cc(C([NH-])=O)n(C(=O)[O-])c2c1

>  <Energy>  (13) 
69.32100916095358

>  <Genealogy>  (13) 
COC(=O)C(C)c1ccc2cc(C([NH-])=O)n(C(=O)[O-])c2c1 (protonated)
COC(=O)[C@@H](C)c1ccc2cc(C([NH-])=O)n(C(=O)[O-])c2c1 (chirality)
COC(=O)[C@@H](C)c1ccc2cc(C([NH-])=O)n(C(=O)[O-])c2c1 (3D coordinates assigned)
COC(=O)[C@@H](C)c1ccc2cc(C([NH-])=O)n(C(=O)[O-])c2c1 (optimized conformer: 69.32100916095358 kcal/mol)

>  <smiles>  (13) 
COC(=O)C(C)c1ccc2cc(C(N)=O)n(C(=O)O)c2c1

>  <score_type>  (13) 
oracle

>  <origin>  (13) 
adg

>  <m_score__min__energy>  (13) 
-10.5

>  <m_primary>  (13) 
energy

$$$$
13:0
     RDKit          3D

 45 47  0  0  0  0  0  0  0  0999 V2000
   -3.0860   25.2990  -30.4140 H   0  0  0  0  0  0  0  0  0  0  0  0
   -3.9720   25.6390  -30.8500 N   0  0  0  0  0  0  0  0  0  0  0  0
   -5.2340   25.0930  -30.4730 C   0  0  0  0  0  0  0  0  0  0  0  0
   -5.9390   25.7000  -29.6220 O   0  0  0  0  0  0  0  0  0  0  0  0
   -5.7030   23.8070  -31.0270 C   0  0  0  0  0  0  0  0  0  0  0  0
   -7.0470   23.4960  -31.2250 C   0  0  0  0  0  0  0  0  0  0  0  0
   -7.9141   24.1536  -31.0648 H   0  0  0  0  0  0  0  0  0  0  0  0
   -7.0590   22.1900  -31.6640 C   0  0  0  0  0  0  0  0  0  0  0  0
   -8.1260   21.3720  -32.0170 C   0  0  0  0  0  0  0  0  0  0  0  0
   -9.1628   21.7342  -31.9544 H   0  0  0  0  0  0  0  0  0  0  0  0
   -7.8400   20.0690  -32.4560 C   0  0  0  0  0  0  0  0  0  0  0  0
   -8.6656   19.3975  -32.7343 H   0  0  0  0  0  0  0  0  0  0  0  0
   -6.4990   19.6050  -32.5460 C   0  0  0  0  0  0  0  0  0  0  0  0
   -6.2140   18.2650  -33.0050 N   0  0  0  0  0  0  0  0  0  0  0  0
   -7.2640   17.2380  -32.9550 C   0  0  0  0  0  0  0  0  0  0  0  0
   -8.2097   17.6710  -33.3131 H   0  0  0  0  0  0  0  0  0  0  0  0
   -7.3709   16.8926  -31.9161 H   0  0  0  0  0  0  0  0  0  0  0  0
   -6.8950   16.0430  -33.8340 C   0  0  0  0  0  0  0  0  0  0  0  0
   -6.8499   16.3657  -34.8846 H   0  0  0  0  0  0  0  0  0  0  0  0
   -7.6583   15.2603  -33.7123 H   0  0  0  0  0  0  0  0  0  0  0  0
   -5.5820   15.4990  -33.4350 N   0  0  0  0  0  0  0  0  0  0  0  0
   -5.2040   14.3880  -34.3200 C   0  0  0  0  0  0  0  0  0  0  0  0
   -4.9086   13.5197  -33.7127 H   0  0  0  0  0  0  0  0  0  0  0  0
   -6.0605   14.1171  -34.9548 H   0  0  0  0  0  0  0  0  0  0  0  0
   -4.3600   14.6957  -34.9548 H   0  0  0  0  0  0  0  0  0  0  0  0
   -4.4980   16.5140  -33.3400 C   0  0  0  0  0  0  0  0  0  0  0  0
   -3.7008   16.2322  -34.0436 H   0  0  0  0  0  0  0  0  0  0  0  0
   -4.1645   16.5186  -32.2918 H   0  0  0  0  0  0  0  0  0  0  0  0
   -4.9400   17.9510  -33.6650 C   0  0  0  0  0  0  0  0  0  0  0  0
   -5.0624   18.0535  -34.7533 H   0  0  0  0  0  0  0  0  0  0  0  0
   -4.1716   18.6482  -33.2996 H   0  0  0  0  0  0  0  0  0  0  0  0
   -5.4440   20.4710  -32.1710 C   0  0  0  0  0  0  0  0  0  0  0  0
   -4.3969   20.1393  -32.2308 H   0  0  0  0  0  0  0  0  0  0  0  0
   -5.7610   21.7570  -31.7230 C   0  0  0  0  0  0  0  0  0  0  0  0
   -4.9160   22.7380  -31.3410 N   0  0  0  0  0  0  0  0  0  0  0  0
   -3.4830   22.6640  -31.3500 C   0  0  0  0  0  0  0  0  0  0  0  0
   -2.8280   23.1830  -30.4050 O   0  0  0  0  0  0  0  0  0  0  0  0
   -2.7880   21.9450  -32.4340 C   0  0  0  0  0  0  0  0  0  0  0  0
   -2.9653   22.2559  -33.4741 H   0  0  0  0  0  0  0  0  0  0  0  0
   -1.9510   20.9300  -32.2000 C   0  0  0  0  0  0  0  0  0  0  0  0
   -1.7684   20.6093  -31.1638 H   0  0  0  0  0  0  0  0  0  0  0  0
   -1.2570   20.2210  -33.3210 C   0  0  0  0  0  0  0  0  0  0  0  0
   -0.9115   19.2376  -32.9696 H   0  0  0  0  0  0  0  0  0  0  0  0
   -1.9619   20.0966  -34.1563 H   0  0  0  0  0  0  0  0  0  0  0  0
    0.1430   21.1700  -33.8810 Cl  0  0  0  0  0  0  0  0  0  0  0  0
  1  2  1  0
  2  3  1  0
  3  4  2  0
  3  5  1  0
  5  6  2  0
  6  7  1  0
  6  8  1  0
  8  9  2  0
  9 10  1  0
  9 11  1  0
 11 12  1  0
 11 13  2  0
 13 14  1  0
 14 15  1  0
 15 16  1  0
 15 17  1  0
 15 18  1  0
 18 19  1  0
 18 20  1  0
 18 21  1  0
 21 22  1  0
 22 23  1  0
 22 24  1  0
 22 25  1  0
 21 26  1  0
 26 27  1  0
 26 28  1  0
 26 29  1  0
 29 30  1  0
 29 31  1  0
 13 32  1  0
 32 33  1  0
 32 34  2  0
 34 35  1  0
 35 36  1  0
 36 37  2  0
 36 38  1  0
 38 39  1  0
 38 40  2  0
 40 41  1  0
 40 42  1  0
 42 43  1  0
 42 44  1  0
 42 45  1  0
 35  5  1  0
 34  8  1  0
 29 14  1  0
M  CHG  1   2  -1
M  END
>  <UniqueID>  (14) 
14

>  <SMILES>  (14) 
CN1CCN(c2ccc3cc(C([NH-])=O)n(C(=O)/C=C/CCl)c3c2)CC1

>  <Energy>  (14) 
91.54534688618949

>  <Genealogy>  (14) 
CN1CCN(c2ccc3cc(C([NH-])=O)n(C(=O)C=CCCl)c3c2)CC1 (protonated)
CN1CCN(c2ccc3cc(C([NH-])=O)n(C(=O)/C=C/CCl)c3c2)CC1 (cis-trans isomerization)
CN1CCN(c2ccc3cc(C([NH-])=O)n(C(=O)/C=C/CCl)c3c2)CC1 (3D coordinates assigned)
CN1CCN(c2ccc3cc(C([NH-])=O)n(C(=O)/C=C/CCl)c3c2)CC1 (nonaromatic ring conformer: 91.54534688618949 kcal/mol)

>  <smiles>  (14) 
CN1CCN(c2ccc3cc(C(N)=O)n(C(=O)C=CCCl)c3c2)CC1

>  <score_type>  (14) 
oracle

>  <origin>  (14) 
adg

>  <m_score__min__energy>  (14) 
-11.039999999999999

>  <m_primary>  (14) 
energy

$$$$
14:0
     RDKit          3D

 48 49  0  0  0  0  0  0  0  0999 V2000
   -1.9350   25.6900  -26.5290 C   0  0  0  0  0  0  0  0  0  0  0  0
   -0.8500   25.7580  -27.5960 C   0  0  0  0  0  0  0  0  0  0  0  0
   -1.3380   25.2460  -28.8240 O   0  0  0  0  0  0  0  0  0  0  0  0
   -0.5450   24.1690  -29.2840 C   0  0  0  0  0  0  0  0  0  0  0  0
   -0.4900   23.0390  -28.2320 C   0  0  0  0  0  0  0  0  0  0  0  0
   -1.8520   22.4960  -27.8590 C   0  0  0  0  0  0  0  0  0  0  0  0
   -1.9780   21.8600  -26.8210 O   0  0  0  0  0  0  0  0  0  0  0  0
   -3.0260   22.8430  -28.6440 N   0  0  2  0  0  0  0  0  0  0  0  0
   -4.1820   22.9790  -27.7400 C   0  0  0  0  0  0  0  0  0  0  0  0
   -3.3100   21.8220  -29.6790 C   0  0  0  0  0  0  0  0  0  0  0  0
   -3.8440   22.4360  -30.9470 C   0  0  0  0  0  0  0  0  0  0  0  0
   -3.0610   22.6290  -31.9160 O   0  0  0  0  0  0  0  0  0  0  0  0
   -5.2160   22.8490  -31.0470 N   0  0  0  0  0  0  0  0  0  0  0  0
   -5.7350   24.0910  -30.8220 C   0  0  0  0  0  0  0  0  0  0  0  0
   -4.9640   25.3090  -30.4920 C   0  0  0  0  0  0  0  0  0  0  0  0
   -3.5720   25.2060  -30.2010 N   0  0  0  0  0  0  0  0  0  0  0  0
   -5.5180   26.4380  -30.4500 O   0  0  0  0  0  0  0  0  0  0  0  0
   -7.1200   24.0770  -30.9850 C   0  0  0  0  0  0  0  0  0  0  0  0
   -7.4390   22.7790  -31.3050 C   0  0  0  0  0  0  0  0  0  0  0  0
   -8.6820   22.1920  -31.5260 C   0  0  0  0  0  0  0  0  0  0  0  0
   -8.7190   20.8140  -31.8050 C   0  0  0  0  0  0  0  0  0  0  0  0
   -7.5260   20.0440  -31.8140 C   0  0  0  0  0  0  0  0  0  0  0  0
   -7.5820   18.5790  -32.1690 C   0  0  0  0  0  0  0  0  0  0  0  0
   -6.7330   17.8780  -31.3310 F   0  0  0  0  0  0  0  0  0  0  0  0
   -7.1840   18.3820  -33.4800 F   0  0  0  0  0  0  0  0  0  0  0  0
   -8.8670   18.0820  -32.0280 F   0  0  0  0  0  0  0  0  0  0  0  0
   -6.2850   20.6770  -31.5770 C   0  0  0  0  0  0  0  0  0  0  0  0
   -6.2730   22.0570  -31.3350 C   0  0  0  0  0  0  0  0  0  0  0  0
   -1.4711   25.7191  -25.5320 H   0  0  0  0  0  0  0  0  0  0  0  0
   -2.6149   26.5473  -26.6422 H   0  0  0  0  0  0  0  0  0  0  0  0
   -2.5025   24.7545  -26.6422 H   0  0  0  0  0  0  0  0  0  0  0  0
   -0.5427   26.8050  -27.7354 H   0  0  0  0  0  0  0  0  0  0  0  0
    0.0102   25.1539  -27.2719 H   0  0  0  0  0  0  0  0  0  0  0  0
   -0.9782   23.7742  -30.2149 H   0  0  0  0  0  0  0  0  0  0  0  0
    0.4770   24.5348  -29.4619 H   0  0  0  0  0  0  0  0  0  0  0  0
    0.1145   22.2144  -28.6378 H   0  0  0  0  0  0  0  0  0  0  0  0
   -0.0510   23.4675  -27.3190 H   0  0  0  0  0  0  0  0  0  0  0  0
   -2.8890   23.7700  -29.1120 H   0  0  0  0  0  0  0  0  0  0  0  0
   -3.8378   22.9385  -26.6960 H   0  0  0  0  0  0  0  0  0  0  0  0
   -4.6806   23.9420  -27.9246 H   0  0  0  0  0  0  0  0  0  0  0  0
   -4.8904   22.1580  -27.9246 H   0  0  0  0  0  0  0  0  0  0  0  0
   -2.3797   21.2825  -29.9102 H   0  0  0  0  0  0  0  0  0  0  0  0
   -4.0773   21.1409  -29.2824 H   0  0  0  0  0  0  0  0  0  0  0  0
   -3.1690   25.6460  -29.3440 H   0  0  0  0  0  0  0  0  0  0  0  0
   -7.8115   24.9260  -30.8796 H   0  0  0  0  0  0  0  0  0  0  0  0
   -9.6061   22.7873  -31.4837 H   0  0  0  0  0  0  0  0  0  0  0  0
   -9.6823   20.3276  -32.0185 H   0  0  0  0  0  0  0  0  0  0  0  0
   -5.3491   20.0991  -31.5824 H   0  0  0  0  0  0  0  0  0  0  0  0
  1  2  1  0
  2  3  1  0
  3  4  1  0
  4  5  1  0
  5  6  1  0
  6  7  2  0
  6  8  1  0
  8  9  1  0
  8 10  1  0
 10 11  1  0
 11 12  2  0
 11 13  1  0
 13 14  1  0
 14 15  1  0
 15 16  1  0
 15 17  2  0
 14 18  2  0
 18 19  1  0
 19 20  2  0
 20 21  1  0
 21 22  2  0
 22 23  1  0
 23 24  1  0
 23 25  1  0
 23 26  1  0
 22 27  1  0
 27 28  2  0
 28 13  1  0
 28 19  1  0
  1 29  1  0
  1 30  1  0
  1 31  1  0
  2 32  1  0
  2 33  1  0
  4 34  1  0
  4 35  1  0
  5 36  1  0
  5 37  1  0
  8 38  1  6
  9 39  1  0
  9 40  1  0
  9 41  1  0
 10 42  1  0
 10 43  1  0
 16 44  1  0
 18 45  1  0
 20 46  1  0
 21 47  1  0
 27 48  1  0
M  CHG  2   8   1  16  -1
M  END
>  <UniqueID>  (15) 
15

>  <SMILES>  (15) 
CCOCCC(=O)[N@H+](C)CC(=O)n1c(C([NH-])=O)cc2ccc(C(F)(F)F)cc21

>  <Energy>  (15) 
89.63129405504445

>  <Genealogy>  (15) 
CCOCCC(=O)[NH+](C)CC(=O)n1c(C([NH-])=O)cc2ccc(C(F)(F)F)cc21 (protonated)
CCOCCC(=O)[N@H+](C)CC(=O)n1c(C([NH-])=O)cc2ccc(C(F)(F)F)cc21 (chirality)
CCOCCC(=O)[N@H+](C)CC(=O)n1c(C([NH-])=O)cc2ccc(C(F)(F)F)cc21 (3D coordinates assigned)
CCOCCC(=O)[N@H+](C)CC(=O)n1c(C([NH-])=O)cc2ccc(C(F)(F)F)cc21 (optimized conformer: 89.63129405504445 kcal/mol)

>  <smiles>  (15) 
CCOCCC(=O)N(C)CC(=O)n1c(C(N)=O)cc2ccc(C(F)(F)F)cc21

>  <score_type>  (15) 
oracle

>  <origin>  (15) 
adg

>  <m_score__min__energy>  (15) 
-8.9199999999999999

>  <m_primary>  (15) 
energy

$$$$
15:0
     RDKit          3D

 46 48  0  0  0  0  0  0  0  0999 V2000
   -1.0840   23.5410  -29.2630 C   0  0  0  0  0  0  0  0  0  0  0  0
   -1.8660   22.3710  -29.8920 C   0  0  0  0  0  0  0  0  0  0  0  0
   -1.7930   21.1640  -28.9340 C   0  0  0  0  0  0  0  0  0  0  0  0
   -1.2340   21.9650  -31.2380 C   0  0  0  0  0  0  0  0  0  0  0  0
   -3.2810   22.7460  -30.0820 N   0  0  0  0  0  0  0  0  0  0  0  0
   -4.1420   22.2340  -31.1140 C   0  0  0  0  0  0  0  0  0  0  0  0
   -3.7020   21.4420  -31.9890 O   0  0  0  0  0  0  0  0  0  0  0  0
   -5.5120   22.6640  -31.1820 N   0  0  0  0  0  0  0  0  0  0  0  0
   -6.0110   23.9120  -30.9560 C   0  0  0  0  0  0  0  0  0  0  0  0
   -5.2520   25.0680  -30.4350 C   0  0  0  0  0  0  0  0  0  0  0  0
   -3.8620   25.2140  -30.7080 N   0  0  0  0  0  0  0  0  0  0  0  0
   -5.8310   25.9160  -29.7060 O   0  0  0  0  0  0  0  0  0  0  0  0
   -7.3820   23.9400  -31.2070 C   0  0  0  0  0  0  0  0  0  0  0  0
   -7.7090   22.6580  -31.5880 C   0  0  0  0  0  0  0  0  0  0  0  0
   -8.9390   22.1170  -31.9550 C   0  0  0  0  0  0  0  0  0  0  0  0
   -8.9790   20.7610  -32.3180 C   0  0  0  0  0  0  0  0  0  0  0  0
   -7.7970   19.9790  -32.3230 C   0  0  0  0  0  0  0  0  0  0  0  0
   -7.8590   18.5200  -32.6870 C   0  0  0  0  0  0  0  0  0  0  0  0
   -6.5920   18.0990  -33.4440 C   0  0  0  0  0  0  0  0  0  0  0  0
   -6.1300   18.9230  -34.4790 O   0  0  0  0  0  0  0  0  0  0  0  0
   -5.5300   17.2870  -32.7200 C   0  0  0  0  0  0  0  0  0  0  0  0
   -6.4420   16.6180  -33.7450 C   0  0  0  0  0  0  0  0  0  0  0  0
   -6.5690   20.5600  -31.9360 C   0  0  0  0  0  0  0  0  0  0  0  0
   -6.5630   21.9080  -31.5630 C   0  0  0  0  0  0  0  0  0  0  0  0
   -1.1331   23.4675  -28.1666 H   0  0  0  0  0  0  0  0  0  0  0  0
   -0.0337   23.4961  -29.5868 H   0  0  0  0  0  0  0  0  0  0  0  0
   -1.5271   24.4943  -29.5868 H   0  0  0  0  0  0  0  0  0  0  0  0
   -1.8145   21.5200  -27.8934 H   0  0  0  0  0  0  0  0  0  0  0  0
   -2.6527   20.5015  -29.1128 H   0  0  0  0  0  0  0  0  0  0  0  0
   -0.8597   20.6099  -29.1128 H   0  0  0  0  0  0  0  0  0  0  0  0
   -0.3217   21.3790  -31.0528 H   0  0  0  0  0  0  0  0  0  0  0  0
   -1.9501   21.3575  -31.8109 H   0  0  0  0  0  0  0  0  0  0  0  0
   -0.9792   22.8688  -31.8109 H   0  0  0  0  0  0  0  0  0  0  0  0
   -3.7020   23.4530  -29.4360 H   0  0  0  0  0  0  0  0  0  0  0  0
   -3.4980   26.0510  -31.2170 H   0  0  0  0  0  0  0  0  0  0  0  0
   -8.0586   24.8028  -31.1193 H   0  0  0  0  0  0  0  0  0  0  0  0
   -9.8505   22.7327  -31.9603 H   0  0  0  0  0  0  0  0  0  0  0  0
   -9.9373   20.3012  -32.6013 H   0  0  0  0  0  0  0  0  0  0  0  0
   -7.9472   17.9214  -31.7683 H   0  0  0  0  0  0  0  0  0  0  0  0
   -8.7320   18.3524  -33.3349 H   0  0  0  0  0  0  0  0  0  0  0  0
   -6.9430   19.2970  -34.9080 H   0  0  0  0  0  0  0  0  0  0  0  0
   -4.4657   17.4437  -32.9494 H   0  0  0  0  0  0  0  0  0  0  0  0
   -5.2748   17.1019  -31.6662 H   0  0  0  0  0  0  0  0  0  0  0  0
   -6.0352   16.2918  -34.7135 H   0  0  0  0  0  0  0  0  0  0  0  0
   -7.1173   15.7497  -33.7366 H   0  0  0  0  0  0  0  0  0  0  0  0
   -5.6420   19.9679  -31.9282 H   0  0  0  0  0  0  0  0  0  0  0  0
  1  2  1  0
  2  3  1  0
  2  4  1  0
  2  5  1  0
  5  6  1  0
  6  7  2  0
  6  8  1  0
  8  9  1  0
  9 10  1  0
 10 11  1  0
 10 12  2  0
  9 13  2  0
 13 14  1  0
 14 15  2  0
 15 16  1  0
 16 17  2  0
 17 18  1  0
 18 19  1  0
 19 20  1  0
 19 21  1  0
 21 22  1  0
 17 23  1  0
 23 24  2  0
 24  8  1  0
 24 14  1  0
 22 19  1  0
  1 25  1  0
  1 26  1  0
  1 27  1  0
  3 28  1  0
  3 29  1  0
  3 30  1  0
  4 31  1  0
  4 32  1  0
  4 33  1  0
  5 34  1  0
 11 35  1  0
 13 36  1  0
 15 37  1  0
 16 38  1  0
 18 39  1  0
 18 40  1  0
 20 41  1  0
 21 42  1  0
 21 43  1  0
 22 44  1  0
 22 45  1  0
 23 46  1  0
M  CHG  1  11  -1
M  END
>  <UniqueID>  (16) 
16

>  <SMILES>  (16) 
CC(C)(C)NC(=O)n1c(C([NH-])=O)cc2ccc(CC3(O)CC3)cc21

>  <Energy>  (16) 
346.47041895384865

>  <Genealogy>  (16) 
CC(C)(C)NC(=O)n1c(C([NH-])=O)cc2ccc(CC3(O)CC3)cc21 (protonated)
CC(C)(C)NC(=O)n1c(C([NH-])=O)cc2ccc(CC3(O)CC3)cc21 (3D coordinates assigned)
CC(C)(C)NC(=O)n1c(C([NH-])=O)cc2ccc(CC3(O)CC3)cc21 (nonaromatic ring conformer: 346.47041895384865 kcal/mol)

>  <smiles>  (16) 
CC(C)(C)NC(=O)n1c(C(N)=O)cc2ccc(CC3(O)CC3)cc21

>  <score_type>  (16) 
oracle

>  <origin>  (16) 
adg

>  <m_score__min__energy>  (16) 
-11.31

>  <m_primary>  (16) 
energy

$$$$
16:0
     RDKit          3D

 32 34  0  0  0  0  0  0  0  0999 V2000
   -1.5940   25.6920  -28.9780 N   0  0  0  0  0  0  0  0  0  0  0  0
   -1.0450   24.4010  -29.2250 C   0  0  0  0  0  0  0  0  0  0  0  0
    0.1530   24.1690  -28.9110 O   0  0  0  0  0  0  0  0  0  0  0  0
   -1.8410   23.3530  -29.8980 C   0  0  0  0  0  0  0  0  0  0  0  0
   -1.3300   22.1010  -30.2330 C   0  0  0  0  0  0  0  0  0  0  0  0
   -2.3410   21.4670  -30.9170 C   0  0  0  0  0  0  0  0  0  0  0  0
   -2.3800   20.1940  -31.4760 C   0  0  0  0  0  0  0  0  0  0  0  0
   -3.5680   19.7850  -32.1030 C   0  0  0  0  0  0  0  0  0  0  0  0
   -4.7010   20.6430  -32.1510 C   0  0  0  0  0  0  0  0  0  0  0  0
   -5.9970   20.2210  -32.8260 C   0  0  2  0  0  0  0  0  0  0  0  0
   -7.2160   21.0590  -32.4570 C   0  0  0  0  0  0  0  0  0  0  0  0
   -8.3630   20.2360  -32.4650 O   0  0  0  0  0  0  0  0  0  0  0  0
   -7.9450   18.9090  -32.6940 C   0  0  0  0  0  0  0  0  0  0  0  0
   -6.4440   18.8170  -32.5030 C   0  0  0  0  0  0  0  0  0  0  0  0
   -5.8810   17.8970  -33.3720 F   0  0  0  0  0  0  0  0  0  0  0  0
   -6.1600   18.4570  -31.1940 F   0  0  0  0  0  0  0  0  0  0  0  0
   -4.6140   21.9330  -31.5750 C   0  0  0  0  0  0  0  0  0  0  0  0
   -3.4110   22.3200  -30.9730 C   0  0  0  0  0  0  0  0  0  0  0  0
   -3.1210   23.4840  -30.3480 N   0  0  0  0  0  0  0  0  0  0  0  0
   -4.0220   24.5800  -30.1250 C   0  0  0  0  0  0  0  0  0  0  0  0
   -3.8760   25.6620  -30.7530 O   0  0  0  0  0  0  0  0  0  0  0  0
   -5.0800   24.4480  -29.2340 O   0  0  0  0  0  0  0  0  0  0  0  0
   -2.6260   25.8460  -28.9770 H   0  0  0  0  0  0  0  0  0  0  0  0
   -0.3309   21.7041  -30.0001 H   0  0  0  0  0  0  0  0  0  0  0  0
   -1.5062   19.5275  -31.4283 H   0  0  0  0  0  0  0  0  0  0  0  0
   -3.6230   18.7874  -32.5633 H   0  0  0  0  0  0  0  0  0  0  0  0
   -5.7111   20.3425  -33.8812 H   0  0  0  0  0  0  0  0  0  0  0  0
   -7.0777   21.4881  -31.4536 H   0  0  0  0  0  0  0  0  0  0  0  0
   -7.3397   21.8735  -33.1859 H   0  0  0  0  0  0  0  0  0  0  0  0
   -8.4479   18.2373  -31.9827 H   0  0  0  0  0  0  0  0  0  0  0  0
   -8.2048   18.6126  -33.7210 H   0  0  0  0  0  0  0  0  0  0  0  0
   -5.4745   22.6177  -31.5999 H   0  0  0  0  0  0  0  0  0  0  0  0
  1  2  1  0
  2  3  2  0
  2  4  1  0
  4  5  2  0
  5  6  1  0
  6  7  2  0
  7  8  1  0
  8  9  2  0
  9 10  1  0
 10 11  1  0
 11 12  1  0
 12 13  1  0
 13 14  1  0
 14 15  1  0
 14 16  1  0
  9 17  1  0
 17 18  2  0
 18 19  1  0
 19 20  1  0
 20 21  2  0
 20 22  1  0
 19  4  1  0
 18  6  1  0
 14 10  1  0
  1 23  1  0
  5 24  1  0
  7 25  1  0
  8 26  1  0
 10 27  1  6
 11 28  1  0
 11 29  1  0
 13 30  1  0
 13 31  1  0
 17 32  1  0
M  CHG  2   1  -1  22  -1
M  END
>  <UniqueID>  (17) 
17

>  <SMILES>  (17) 
[NH-]C(=O)c1cc2ccc([C@@H]3COCC3(F)F)cc2n1C(=O)[O-]

>  <Energy>  (17) 
78.25563329035508

>  <Genealogy>  (17) 
[NH-]C(=O)c1cc2ccc([C@@H]3COCC3(F)F)cc2n1C(=O)[O-] (protonated)
[NH-]C(=O)c1cc2ccc([C@@H]3COCC3(F)F)cc2n1C(=O)[O-] (3D coordinates assigned)
[NH-]C(=O)c1cc2ccc([C@@H]3COCC3(F)F)cc2n1C(=O)[O-] (nonaromatic ring conformer: 78.25563329035508 kcal/mol)

>  <smiles>  (17) 
NC(=O)c1cc2ccc([C@@H]3COCC3(F)F)cc2n1C(=O)O

>  <score_type>  (17) 
oracle

>  <origin>  (17) 
adg

>  <m_score__min__energy>  (17) 
-11.06

>  <m_primary>  (17) 
energy

$$$$
17:0
     RDKit          3D

 52 53  0  0  0  0  0  0  0  0999 V2000
   -7.2310   22.7790  -29.9510 C   0  0  0  0  0  0  0  0  0  0  0  0
   -7.9120   22.4340  -31.2090 N   0  0  0  0  0  0  0  0  0  0  0  0
   -7.0210   22.7070  -32.3490 C   0  0  0  0  0  0  0  0  0  0  0  0
   -8.3660   21.0230  -31.2050 C   0  0  0  0  0  0  0  0  0  0  0  0
   -7.9170   20.3240  -32.4910 C   0  0  0  0  0  0  0  0  0  0  0  0
   -7.9860   18.8620  -32.3530 N   0  0  0  0  0  0  0  0  0  0  0  0
   -9.0820   18.2530  -31.5900 C   0  0  0  0  0  0  0  0  0  0  0  0
   -6.9420   18.0370  -32.9210 C   0  0  0  0  0  0  0  0  0  0  0  0
   -7.2360   17.1820  -33.8020 O   0  0  0  0  0  0  0  0  0  0  0  0
   -5.4970   18.2200  -32.5210 C   0  0  0  0  0  0  0  0  0  0  0  0
   -4.6640   18.9050  -33.6190 C   0  0  0  0  0  0  0  0  0  0  0  0
   -4.6740   20.4360  -33.4890 C   0  0  0  0  0  0  0  0  0  0  0  0
   -3.5760   20.9320  -32.5850 C   0  0  0  0  0  0  0  0  0  0  0  0
   -2.3720   20.1960  -32.4540 C   0  0  0  0  0  0  0  0  0  0  0  0
   -1.3590   20.6290  -31.5830 C   0  0  0  0  0  0  0  0  0  0  0  0
   -1.5760   21.7990  -30.8620 C   0  0  0  0  0  0  0  0  0  0  0  0
   -0.7770   22.4250  -29.9340 C   0  0  0  0  0  0  0  0  0  0  0  0
   -1.4970   23.5460  -29.5220 C   0  0  0  0  0  0  0  0  0  0  0  0
   -0.9700   24.5650  -28.5860 C   0  0  0  0  0  0  0  0  0  0  0  0
   -1.8540   25.4640  -27.9140 N   0  0  0  0  0  0  0  0  0  0  0  0
    0.2650   24.6280  -28.3490 O   0  0  0  0  0  0  0  0  0  0  0  0
   -2.6960   23.6090  -30.1700 N   0  0  0  0  0  0  0  0  0  0  0  0
   -3.7450   24.5740  -29.9820 C   0  0  0  0  0  0  0  0  0  0  0  0
   -4.5810   24.4320  -29.0520 O   0  0  0  0  0  0  0  0  0  0  0  0
   -3.8560   25.6660  -30.8340 O   0  0  0  0  0  0  0  0  0  0  0  0
   -2.7290   22.5330  -30.9860 C   0  0  0  0  0  0  0  0  0  0  0  0
   -3.7630   22.1120  -31.8310 C   0  0  0  0  0  0  0  0  0  0  0  0
   -7.8522   22.4643  -29.0995 H   0  0  0  0  0  0  0  0  0  0  0  0
   -6.2600   22.2641  -29.9065 H   0  0  0  0  0  0  0  0  0  0  0  0
   -7.0717   23.8665  -29.9065 H   0  0  0  0  0  0  0  0  0  0  0  0
   -6.0314   23.0102  -31.9765 H   0  0  0  0  0  0  0  0  0  0  0  0
   -6.9199   21.7986  -32.9611 H   0  0  0  0  0  0  0  0  0  0  0  0
   -7.4461   23.5161  -32.9611 H   0  0  0  0  0  0  0  0  0  0  0  0
   -7.9325   20.5035  -30.3377 H   0  0  0  0  0  0  0  0  0  0  0  0
   -9.4641   20.9975  -31.1451 H   0  0  0  0  0  0  0  0  0  0  0  0
   -8.5717   20.6377  -33.3174 H   0  0  0  0  0  0  0  0  0  0  0  0
   -6.8734   20.6059  -32.6947 H   0  0  0  0  0  0  0  0  0  0  0  0
   -8.8845   18.3627  -30.5134 H   0  0  0  0  0  0  0  0  0  0  0  0
  -10.0277   18.7550  -31.8424 H   0  0  0  0  0  0  0  0  0  0  0  0
   -9.1552   17.1848  -31.8424 H   0  0  0  0  0  0  0  0  0  0  0  0
   -5.4582   18.8377  -31.6116 H   0  0  0  0  0  0  0  0  0  0  0  0
   -5.0684   17.2215  -32.3501 H   0  0  0  0  0  0  0  0  0  0  0  0
   -3.6251   18.5507  -33.5476 H   0  0  0  0  0  0  0  0  0  0  0  0
   -5.1107   18.6469  -34.5905 H   0  0  0  0  0  0  0  0  0  0  0  0
   -4.5393   20.8782  -34.4872 H   0  0  0  0  0  0  0  0  0  0  0  0
   -5.6372   20.7337  -33.0490 H   0  0  0  0  0  0  0  0  0  0  0  0
   -2.2295   19.2763  -33.0404 H   0  0  0  0  0  0  0  0  0  0  0  0
   -0.4233   20.0610  -31.4742 H   0  0  0  0  0  0  0  0  0  0  0  0
    0.2187   22.1086  -29.5898 H   0  0  0  0  0  0  0  0  0  0  0  0
   -2.8760   25.4810  -28.1260 H   0  0  0  0  0  0  0  0  0  0  0  0
   -1.4760   26.1540  -27.2280 H   0  0  0  0  0  0  0  0  0  0  0  0
   -4.6983   22.6861  -31.9060 H   0  0  0  0  0  0  0  0  0  0  0  0
  1  2  1  0
  2  3  1  0
  2  4  1  0
  4  5  1  0
  5  6  1  0
  6  7  1  0
  6  8  1  0
  8  9  2  0
  8 10  1  0
 10 11  1  0
 11 12  1  0
 12 13  1  0
 13 14  2  0
 14 15  1  0
 15 16  2  0
 16 17  1  0
 17 18  2  0
 18 19  1  0
 19 20  1  0
 19 21  2  0
 18 22  1  0
 22 23  1  0
 23 24  2  0
 23 25  1  0
 22 26  1  0
 26 27  2  0
 27 13  1  0
 26 16  1  0
  1 28  1  0
  1 29  1  0
  1 30  1  0
  3 31  1  0
  3 32  1  0
  3 33  1  0
  4 34  1  0
  4 35  1  0
  5 36  1  0
  5 37  1  0
  7 38  1  0
  7 39  1  0
  7 40  1  0
 10 41  1  0
 10 42  1  0
 11 43  1  0
 11 44  1  0
 12 45  1  0
 12 46  1  0
 14 47  1  0
 15 48  1  0
 17 49  1  0
 20 50  1  0
 20 51  1  0
 27 52  1  0
M  CHG  1  25  -1
M  END
>  <UniqueID>  (18) 
18

>  <SMILES>  (18) 
CN(C)CCN(C)C(=O)CCCc1ccc2cc(C(N)=O)n(C(=O)[O-])c2c1

>  <Energy>  (18) 
84.07684220631097

>  <Genealogy>  (18) 
CN(C)CCN(C)C(=O)CCCc1ccc2cc(C(N)=O)n(C(=O)[O-])c2c1 (protonated)
CN(C)CCN(C)C(=O)CCCc1ccc2cc(C(N)=O)n(C(=O)[O-])c2c1 (3D coordinates assigned)
CN(C)CCN(C)C(=O)CCCc1ccc2cc(C(N)=O)n(C(=O)[O-])c2c1 (optimized conformer: 84.07684220631097 kcal/mol)

>  <smiles>  (18) 
CN(C)CCN(C)C(=O)CCCc1ccc2cc(C(N)=O)n(C(=O)O)c2c1

>  <score_type>  (18) 
oracle

>  <origin>  (18) 
adg

>  <m_score__min__energy>  (18) 
-9.2200000000000006

>  <m_primary>  (18) 
energy

$$$$
18:0
     RDKit          3D

 59 62  0  0  0  0  0  0  0  0999 V2000
   -3.8640   25.3460  -30.4980 N   0  0  0  0  0  0  0  0  0  0  0  0
   -4.8210   24.6050  -29.7460 C   0  0  0  0  0  0  0  0  0  0  0  0
   -5.0160   24.8990  -28.5370 O   0  0  0  0  0  0  0  0  0  0  0  0
   -5.5690   23.5050  -30.3870 C   0  0  0  0  0  0  0  0  0  0  0  0
   -6.9600   23.4430  -30.4580 C   0  0  0  0  0  0  0  0  0  0  0  0
   -7.2380   22.2600  -31.1100 C   0  0  0  0  0  0  0  0  0  0  0  0
   -8.4590   21.6740  -31.4290 C   0  0  0  0  0  0  0  0  0  0  0  0
   -8.4430   20.4240  -32.0710 C   0  0  0  0  0  0  0  0  0  0  0  0
   -7.2150   19.7960  -32.4000 C   0  0  0  0  0  0  0  0  0  0  0  0
   -7.2010   18.4370  -33.0490 C   0  0  0  0  0  0  0  0  0  0  0  0
   -5.9320   18.2280  -33.8790 C   0  0  0  0  0  0  0  0  0  0  0  0
   -6.0000   18.9530  -35.0790 O   0  0  0  0  0  0  0  0  0  0  0  0
   -5.9950   20.4280  -32.0720 C   0  0  0  0  0  0  0  0  0  0  0  0
   -6.0450   21.6610  -31.4150 C   0  0  0  0  0  0  0  0  0  0  0  0
   -5.0160   22.4050  -30.9680 N   0  0  0  0  0  0  0  0  0  0  0  0
   -3.6260   22.0580  -31.0420 C   0  0  0  0  0  0  0  0  0  0  0  0
   -2.8330   22.8520  -31.6160 O   0  0  0  0  0  0  0  0  0  0  0  0
   -3.0780   20.7900  -30.4100 C   0  0  2  0  0  0  0  0  0  0  0  0
   -3.0220   20.9510  -28.8700 C   0  0  0  0  0  0  0  0  0  0  0  0
   -1.9850   20.0070  -28.2450 C   0  0  0  0  0  0  0  0  0  0  0  0
   -0.6060   20.2670  -28.7440 N   0  0  2  0  0  0  0  0  0  0  0  0
    0.1200   21.1130  -27.8280 C   0  0  0  0  0  0  0  0  0  0  0  0
    1.3210   20.8520  -27.5450 O   0  0  0  0  0  0  0  0  0  0  0  0
   -0.5260   22.2310  -27.2630 O   0  0  0  0  0  0  0  0  0  0  0  0
   -1.2850   23.1600  -27.9690 N   0  0  0  0  0  0  0  0  0  0  0  0
   -2.3570   23.7310  -27.1460 C   0  0  0  0  0  0  0  0  0  0  0  0
   -2.1290   25.2310  -27.0580 C   0  0  0  0  0  0  0  0  0  0  0  0
   -1.2030   25.5530  -28.2100 C   0  0  0  0  0  0  0  0  0  0  0  0
   -0.4580   24.2580  -28.4870 C   0  0  0  0  0  0  0  0  0  0  0  0
   -0.5480   20.8340  -30.1150 C   0  0  0  0  0  0  0  0  0  0  0  0
   -1.7080   20.3350  -30.9850 C   0  0  0  0  0  0  0  0  0  0  0  0
   -2.9890   24.8940  -30.8480 H   0  0  0  0  0  0  0  0  0  0  0  0
   -7.6815   24.1801  -30.0757 H   0  0  0  0  0  0  0  0  0  0  0  0
   -9.4082   22.1741  -31.1860 H   0  0  0  0  0  0  0  0  0  0  0  0
   -9.3925   19.9279  -32.3207 H   0  0  0  0  0  0  0  0  0  0  0  0
   -7.2476   17.6659  -32.2660 H   0  0  0  0  0  0  0  0  0  0  0  0
   -8.0696   18.3646  -33.7200 H   0  0  0  0  0  0  0  0  0  0  0  0
   -5.0612   18.5690  -33.2998 H   0  0  0  0  0  0  0  0  0  0  0  0
   -5.8366   17.1582  -34.1166 H   0  0  0  0  0  0  0  0  0  0  0  0
   -6.8230   18.6560  -35.5480 H   0  0  0  0  0  0  0  0  0  0  0  0
   -5.0315   19.9625  -32.3267 H   0  0  0  0  0  0  0  0  0  0  0  0
   -3.7760   19.9807  -30.6704 H   0  0  0  0  0  0  0  0  0  0  0  0
   -2.7519   21.9896  -28.6284 H   0  0  0  0  0  0  0  0  0  0  0  0
   -4.0110   20.6991  -28.4596 H   0  0  0  0  0  0  0  0  0  0  0  0
   -1.9969   20.1423  -27.1534 H   0  0  0  0  0  0  0  0  0  0  0  0
   -2.2551   18.9786  -28.5270 H   0  0  0  0  0  0  0  0  0  0  0  0
   -0.1100   19.3450  -28.7670 H   0  0  0  0  0  0  0  0  0  0  0  0
   -3.3333   23.5279  -27.6103 H   0  0  0  0  0  0  0  0  0  0  0  0
   -2.3496   23.2825  -26.1416 H   0  0  0  0  0  0  0  0  0  0  0  0
   -3.0801   25.7737  -27.1628 H   0  0  0  0  0  0  0  0  0  0  0  0
   -1.7025   25.5285  -26.0887 H   0  0  0  0  0  0  0  0  0  0  0  0
   -1.7789   25.8648  -29.0938 H   0  0  0  0  0  0  0  0  0  0  0  0
   -0.5192   26.3812  -27.9724 H   0  0  0  0  0  0  0  0  0  0  0  0
   -0.3048   24.1358  -29.5694 H   0  0  0  0  0  0  0  0  0  0  0  0
    0.5293   24.2648  -28.0019 H   0  0  0  0  0  0  0  0  0  0  0  0
   -0.5978   21.9309  -30.0495 H   0  0  0  0  0  0  0  0  0  0  0  0
    0.3941   20.5092  -30.5807 H   0  0  0  0  0  0  0  0  0  0  0  0
   -1.5936   20.7391  -32.0017 H   0  0  0  0  0  0  0  0  0  0  0  0
   -1.6844   19.2354  -30.9996 H   0  0  0  0  0  0  0  0  0  0  0  0
  1  2  1  0
  2  3  2  0
  2  4  1  0
  4  5  2  0
  5  6  1  0
  6  7  2  0
  7  8  1  0
  8  9  2  0
  9 10  1  0
 10 11  1  0
 11 12  1  0
  9 13  1  0
 13 14  2  0
 14 15  1  0
 15 16  1  0
 16 17  2  0
 16 18  1  0
 18 19  1  0
 19 20  1  0
 20 21  1  0
 21 22  1  0
 22 23  2  0
 22 24  1  0
 24 25  1  0
 25 26  1  0
 26 27  1  0
 27 28  1  0
 28 29  1  0
 21 30  1  0
 30 31  1  0
 15  4  1  0
 31 18  1  0
 14  6  1  0
 29 25  1  0
  1 32  1  0
  5 33  1  0
  7 34  1  0
  8 35  1  0
 10 36  1  0
 10 37  1  0
 11 38  1  0
 11 39  1  0
 12 40  1  0
 13 41  1  0
 18 42  1  1
 19 43  1  0
 19 44  1  0
 20 45  1  0
 20 46  1  0
 21 47  1  6
 26 48  1  0
 26 49  1  0
 27 50  1  0
 27 51  1  0
 28 52  1  0
 28 53  1  0
 29 54  1  0
 29 55  1  0
 30 56  1  0
 30 57  1  0
 31 58  1  0
 31 59  1  0
M  CHG  2   1  -1  21   1
M  END
>  <UniqueID>  (19) 
19

>  <SMILES>  (19) 
[NH-]C(=O)c1cc2ccc(CCO)cc2n1C(=O)C1CC[NH+](C(=O)ON2CCCC2)CC1

>  <Energy>  (19) 
110.6738785140846

>  <Genealogy>  (19) 
[NH-]C(=O)c1cc2ccc(CCO)cc2n1C(=O)C1CC[NH+](C(=O)ON2CCCC2)CC1 (protonated)
[NH-]C(=O)c1cc2ccc(CCO)cc2n1C(=O)C1CC[NH+](C(=O)ON2CCCC2)CC1 (3D coordinates assigned)
[NH-]C(=O)c1cc2ccc(CCO)cc2n1C(=O)C1CC[NH+](C(=O)ON2CCCC2)CC1 (nonaromatic ring conformer: 110.6738785140846 kcal/mol)

>  <smiles>  (19) 
NC(=O)c1cc2ccc(CCO)cc2n1C(=O)C1CCN(C(=O)ON2CCCC2)CC1

>  <score_type>  (19) 
oracle

>  <origin>  (19) 
adg

>  <m_score__min__energy>  (19) 
-12.119999999999999

>  <m_primary>  (19) 
energy

$$$$
19:0
     RDKit          3D

 25 26  0  0  0  0  0  0  0  0999 V2000
   -5.6520   26.4710  -30.2040 N   0  0  0  0  0  0  0  0  0  0  0  0
   -6.4340   25.3070  -29.9370 C   0  0  0  0  0  0  0  0  0  0  0  0
   -7.2480   25.3160  -28.9760 O   0  0  0  0  0  0  0  0  0  0  0  0
   -6.2580   24.0710  -30.7260 C   0  0  0  0  0  0  0  0  0  0  0  0
   -7.3200   23.3570  -31.2730 C   0  0  0  0  0  0  0  0  0  0  0  0
   -6.7480   22.2520  -31.8620 C   0  0  0  0  0  0  0  0  0  0  0  0
   -7.3420   21.2100  -32.5670 C   0  0  0  0  0  0  0  0  0  0  0  0
   -6.5050   20.2160  -33.1010 C   0  0  0  0  0  0  0  0  0  0  0  0
   -5.1000   20.2860  -32.9300 C   0  0  0  0  0  0  0  0  0  0  0  0
   -4.2220   19.2230  -33.5270 C   0  0  0  0  0  0  0  0  0  0  0  0
   -3.0600   19.7960  -34.0090 F   0  0  0  0  0  0  0  0  0  0  0  0
   -4.8870   18.5980  -34.5660 F   0  0  0  0  0  0  0  0  0  0  0  0
   -4.5330   21.3620  -32.2110 C   0  0  0  0  0  0  0  0  0  0  0  0
   -5.3910   22.3280  -31.6700 C   0  0  0  0  0  0  0  0  0  0  0  0
   -5.0740   23.4450  -30.9760 N   0  0  0  0  0  0  0  0  0  0  0  0
   -3.7530   23.9310  -30.6800 C   0  0  0  0  0  0  0  0  0  0  0  0
   -2.8000   23.1280  -30.5040 O   0  0  0  0  0  0  0  0  0  0  0  0
   -3.5120   25.2980  -30.5930 O   0  0  0  0  0  0  0  0  0  0  0  0
   -4.8590   26.4450  -30.8800 H   0  0  0  0  0  0  0  0  0  0  0  0
   -5.8160   27.3490  -29.6600 H   0  0  0  0  0  0  0  0  0  0  0  0
   -8.3878   23.6194  -31.2415 H   0  0  0  0  0  0  0  0  0  0  0  0
   -8.4328   21.1658  -32.7021 H   0  0  0  0  0  0  0  0  0  0  0  0
   -6.9446   19.3751  -33.6574 H   0  0  0  0  0  0  0  0  0  0  0  0
   -3.9740   18.4834  -32.7514 H   0  0  0  0  0  0  0  0  0  0  0  0
   -3.4437   21.4393  -32.0792 H   0  0  0  0  0  0  0  0  0  0  0  0
  1  2  1  0
  2  3  2  0
  2  4  1  0
  4  5  2  0
  5  6  1  0
  6  7  2  0
  7  8  1  0
  8  9  2  0
  9 10  1  0
 10 11  1  0
 10 12  1  0
  9 13  1  0
 13 14  2  0
 14 15  1  0
 15 16  1  0
 16 17  2  0
 16 18  1  0
 15  4  1  0
 14  6  1  0
  1 19  1  0
  1 20  1  0
  5 21  1  0
  7 22  1  0
  8 23  1  0
 10 24  1  0
 13 25  1  0
M  CHG  1  18  -1
M  END
>  <UniqueID>  (20) 
20

>  <SMILES>  (20) 
NC(=O)c1cc2ccc(C(F)F)cc2n1C(=O)[O-]

>  <Energy>  (20) 
65.2563428221184

>  <Genealogy>  (20) 
NC(=O)c1cc2ccc(C(F)F)cc2n1C(=O)[O-] (protonated)
NC(=O)c1cc2ccc(C(F)F)cc2n1C(=O)[O-] (3D coordinates assigned)
NC(=O)c1cc2ccc(C(F)F)cc2n1C(=O)[O-] (optimized conformer: 65.2563428221184 kcal/mol)

>  <smiles>  (20) 
NC(=O)c1cc2ccc(C(F)F)cc2n1C(=O)O

>  <score_type>  (20) 
oracle

>  <origin>  (20) 
adg

>  <m_score__min__energy>  (20) 
-7.8099999999999996

>  <m_primary>  (20) 
energy

$$$$
20:0
     RDKit          3D

 40 42  0  0  0  0  0  0  0  0999 V2000
   -1.3950   25.7650  -28.9920 N   0  0  0  0  0  0  0  0  0  0  0  0
   -1.4560   24.3850  -28.6410 C   0  0  0  0  0  0  0  0  0  0  0  0
   -1.5440   24.0630  -27.4260 O   0  0  0  0  0  0  0  0  0  0  0  0
   -1.4790   23.3360  -29.6800 C   0  0  0  0  0  0  0  0  0  0  0  0
   -0.4840   22.3710  -29.8140 C   0  0  0  0  0  0  0  0  0  0  0  0
   -0.9170   21.5380  -30.8200 C   0  0  0  0  0  0  0  0  0  0  0  0
   -0.3150   20.4100  -31.3690 C   0  0  0  0  0  0  0  0  0  0  0  0
   -0.9790   19.7530  -32.4180 C   0  0  0  0  0  0  0  0  0  0  0  0
   -2.2150   20.2430  -32.9080 C   0  0  0  0  0  0  0  0  0  0  0  0
   -2.9260   19.5170  -34.0170 C   0  0  0  0  0  0  0  0  0  0  0  0
   -4.1170   18.7260  -33.4630 C   0  0  0  0  0  0  0  0  0  0  0  0
   -4.5310   19.2070  -32.0680 C   0  0  0  0  0  0  0  0  0  0  0  0
   -5.7950   19.9390  -32.1200 N   0  0  0  0  0  0  0  0  0  0  0  0
   -7.0070   19.4180  -32.3930 C   0  0  0  0  0  0  0  0  0  0  0  0
   -7.9390   20.4340  -32.2950 C   0  0  0  0  0  0  0  0  0  0  0  0
   -9.3890   20.3340  -32.4990 C   0  0  0  0  0  0  0  0  0  0  0  0
   -9.8830   19.3150  -33.0500 O   0  0  0  0  0  0  0  0  0  0  0  0
  -10.2250   21.3620  -32.0850 O   0  0  0  0  0  0  0  0  0  0  0  0
   -7.2220   21.5650  -31.9510 C   0  0  0  0  0  0  0  0  0  0  0  0
   -5.9230   21.2290  -31.8510 N   0  0  0  0  0  0  0  0  0  0  0  0
   -2.8020   21.3850  -32.3190 C   0  0  0  0  0  0  0  0  0  0  0  0
   -2.1270   22.0080  -31.2620 C   0  0  0  0  0  0  0  0  0  0  0  0
   -2.4860   23.1150  -30.5740 N   0  0  0  0  0  0  0  0  0  0  0  0
   -3.6400   23.9350  -30.8160 C   0  0  0  0  0  0  0  0  0  0  0  0
   -4.6870   23.4320  -31.3040 O   0  0  0  0  0  0  0  0  0  0  0  0
   -3.6040   25.2970  -30.5420 O   0  0  0  0  0  0  0  0  0  0  0  0
   -1.2320   26.0610  -29.9810 H   0  0  0  0  0  0  0  0  0  0  0  0
    0.4498   22.2915  -29.2380 H   0  0  0  0  0  0  0  0  0  0  0  0
    0.6517   20.0439  -30.9929 H   0  0  0  0  0  0  0  0  0  0  0  0
   -0.5356   18.8501  -32.8631 H   0  0  0  0  0  0  0  0  0  0  0  0
   -3.2885   20.2483  -34.7545 H   0  0  0  0  0  0  0  0  0  0  0  0
   -2.2233   18.8165  -34.4919 H   0  0  0  0  0  0  0  0  0  0  0  0
   -4.9704   18.8449  -34.1468 H   0  0  0  0  0  0  0  0  0  0  0  0
   -3.8143   17.6716  -33.3813 H   0  0  0  0  0  0  0  0  0  0  0  0
   -4.6469   18.3356  -31.4068 H   0  0  0  0  0  0  0  0  0  0  0  0
   -3.7512   19.8812  -31.6840 H   0  0  0  0  0  0  0  0  0  0  0  0
   -7.2177   18.3691  -32.6488 H   0  0  0  0  0  0  0  0  0  0  0  0
   -7.6419   22.5684  -31.7870 H   0  0  0  0  0  0  0  0  0  0  0  0
   -5.1380   21.8690  -31.5960 H   0  0  0  0  0  0  0  0  0  0  0  0
   -3.7646   21.7749  -32.6814 H   0  0  0  0  0  0  0  0  0  0  0  0
  1  2  1  0
  2  3  2  0
  2  4  1  0
  4  5  2  0
  5  6  1  0
  6  7  2  0
  7  8  1  0
  8  9  2  0
  9 10  1  0
 10 11  1  0
 11 12  1  0
 12 13  1  0
 13 14  1  0
 14 15  2  0
 15 16  1  0
 16 17  2  0
 16 18  1  0
 15 19  1  0
 19 20  2  0
  9 21  1  0
 21 22  2  0
 22 23  1  0
 23 24  1  0
 24 25  2  0
 24 26  1  0
 23  4  1  0
 22  6  1  0
 20 13  1  0
  1 27  1  0
  5 28  1  0
  7 29  1  0
  8 30  1  0
 10 31  1  0
 10 32  1  0
 11 33  1  0
 11 34  1  0
 12 35  1  0
 12 36  1  0
 14 37  1  0
 19 38  1  0
 20 39  1  0
 21 40  1  0
M  CHG  4   1  -1  18  -1  20   1  26  -1
M  END
>  <UniqueID>  (21) 
21

>  <SMILES>  (21) 
[NH-]C(=O)c1cc2ccc(CCCn3cc(C(=O)[O-])c[nH+]3)cc2n1C(=O)[O-]

>  <Energy>  (21) 
106.1322963429706

>  <Genealogy>  (21) 
[NH-]C(=O)c1cc2ccc(CCCn3cc(C(=O)[O-])c[nH+]3)cc2n1C(=O)[O-] (protonated)
[NH-]C(=O)c1cc2ccc(CCCn3cc(C(=O)[O-])c[nH+]3)cc2n1C(=O)[O-] (3D coordinates assigned)
[NH-]C(=O)c1cc2ccc(CCCn3cc(C(=O)[O-])c[nH+]3)cc2n1C(=O)[O-] (optimized conformer: 106.1322963429706 kcal/mol)

>  <smiles>  (21) 
NC(=O)c1cc2ccc(CCCn3cc(C(=O)O)cn3)cc2n1C(=O)O

>  <score_type>  (21) 
oracle

>  <origin>  (21) 
adg

>  <m_score__min__energy>  (21) 
-11.390000000000001

>  <m_primary>  (21) 
energy

$$$$
21:0
     RDKit          3D

 36 38  0  0  0  0  0  0  0  0999 V2000
   -7.5090   17.8930  -31.6750 C   0  0  0  0  0  0  0  0  0  0  0  0
   -7.3020   18.5550  -32.9750 N   0  0  0  0  0  0  0  0  0  0  0  0
   -7.9620   19.8680  -33.0060 C   0  0  0  0  0  0  0  0  0  0  0  0
   -6.9080   20.9200  -32.7200 C   0  0  0  0  0  0  0  0  0  0  0  0
   -5.6320   20.3080  -33.2690 C   0  0  1  0  0  0  0  0  0  0  0  0
   -4.3930   20.7520  -32.5130 C   0  0  0  0  0  0  0  0  0  0  0  0
   -3.2410   19.9220  -32.4430 C   0  0  0  0  0  0  0  0  0  0  0  0
   -2.1040   20.3290  -31.7270 C   0  0  0  0  0  0  0  0  0  0  0  0
   -2.1390   21.5680  -31.0950 C   0  0  0  0  0  0  0  0  0  0  0  0
   -1.1910   22.1900  -30.3170 C   0  0  0  0  0  0  0  0  0  0  0  0
   -1.7620   23.4020  -29.9360 C   0  0  0  0  0  0  0  0  0  0  0  0
   -1.0420   24.4290  -29.1570 C   0  0  0  0  0  0  0  0  0  0  0  0
   -1.5990   25.7270  -28.9640 N   0  0  0  0  0  0  0  0  0  0  0  0
    0.1030   24.1760  -28.6980 O   0  0  0  0  0  0  0  0  0  0  0  0
   -3.0190   23.5210  -30.4520 N   0  0  0  0  0  0  0  0  0  0  0  0
   -3.9690   24.5720  -30.2150 C   0  0  0  0  0  0  0  0  0  0  0  0
   -3.8660   25.6720  -30.8200 O   0  0  0  0  0  0  0  0  0  0  0  0
   -5.0280   24.3760  -29.3370 O   0  0  0  0  0  0  0  0  0  0  0  0
   -3.2340   22.3900  -31.1620 C   0  0  0  0  0  0  0  0  0  0  0  0
   -4.3880   22.0020  -31.8520 C   0  0  0  0  0  0  0  0  0  0  0  0
   -5.8680   18.7930  -33.2300 C   0  0  0  0  0  0  0  0  0  0  0  0
   -7.2874   18.6016  -30.8633 H   0  0  0  0  0  0  0  0  0  0  0  0
   -8.5543   17.5597  -31.5956 H   0  0  0  0  0  0  0  0  0  0  0  0
   -6.8398   17.0236  -31.5956 H   0  0  0  0  0  0  0  0  0  0  0  0
   -8.4051   20.0414  -33.9978 H   0  0  0  0  0  0  0  0  0  0  0  0
   -8.7655   19.9134  -32.2561 H   0  0  0  0  0  0  0  0  0  0  0  0
   -7.1444   21.8626  -33.2353 H   0  0  0  0  0  0  0  0  0  0  0  0
   -6.8352   21.1717  -31.6517 H   0  0  0  0  0  0  0  0  0  0  0  0
   -5.4255   20.6465  -34.2950 H   0  0  0  0  0  0  0  0  0  0  0  0
   -3.2404   18.9490  -32.9561 H   0  0  0  0  0  0  0  0  0  0  0  0
   -1.2123   19.6876  -31.6675 H   0  0  0  0  0  0  0  0  0  0  0  0
   -0.1931   21.8108  -30.0517 H   0  0  0  0  0  0  0  0  0  0  0  0
   -2.6310   25.8810  -29.0050 H   0  0  0  0  0  0  0  0  0  0  0  0
   -5.2724   22.6555  -31.8796 H   0  0  0  0  0  0  0  0  0  0  0  0
   -5.5824   18.3469  -34.1941 H   0  0  0  0  0  0  0  0  0  0  0  0
   -5.2602   18.3346  -32.4360 H   0  0  0  0  0  0  0  0  0  0  0  0
  1  2  1  0
  2  3  1  0
  3  4  1  0
  4  5  1  0
  5  6  1  0
  6  7  2  0
  7  8  1  0
  8  9  2  0
  9 10  1  0
 10 11  2  0
 11 12  1  0
 12 13  1  0
 12 14  2  0
 11 15  1  0
 15 16  1  0
 16 17  2  0
 16 18  1  0
 15 19  1  0
 19 20  2  0
  5 21  1  0
 21  2  1  0
 20  6  1  0
 19  9  1  0
  1 22  1  0
  1 23  1  0
  1 24  1  0
  3 25  1  0
  3 26  1  0
  4 27  1  0
  4 28  1  0
  5 29  1  6
  7 30  1  0
  8 31  1  0
 10 32  1  0
 13 33  1  0
 20 34  1  0
 21 35  1  0
 21 36  1  0
M  CHG  2  13  -1  18  -1
M  END
>  <UniqueID>  (22) 
22

>  <SMILES>  (22) 
CN1CC[C@@H](c2ccc3cc(C([NH-])=O)n(C(=O)[O-])c3c2)C1

>  <Energy>  (22) 
81.70515558244041

>  <Genealogy>  (22) 
CN1CCC(c2ccc3cc(C([NH-])=O)n(C(=O)[O-])c3c2)C1 (protonated)
CN1CC[C@@H](c2ccc3cc(C([NH-])=O)n(C(=O)[O-])c3c2)C1 (chirality)
CN1CC[C@@H](c2ccc3cc(C([NH-])=O)n(C(=O)[O-])c3c2)C1 (3D coordinates assigned)
CN1CC[C@@H](c2ccc3cc(C([NH-])=O)n(C(=O)[O-])c3c2)C1 (nonaromatic ring conformer: 81.70515558244041 kcal/mol)

>  <smiles>  (22) 
CN1CCC(c2ccc3cc(C(N)=O)n(C(=O)O)c3c2)C1

>  <score_type>  (22) 
oracle

>  <origin>  (22) 
adg

>  <m_score__min__energy>  (22) 
-11.82

>  <m_primary>  (22) 
energy

$$$$
22:0
     RDKit          3D

 25 26  0  0  0  0  0  0  0  0999 V2000
   -5.5640   26.4780  -30.3350 N   0  0  0  0  0  0  0  0  0  0  0  0
   -6.3730   25.3670  -29.9440 C   0  0  0  0  0  0  0  0  0  0  0  0
   -7.1960   25.5050  -29.0010 O   0  0  0  0  0  0  0  0  0  0  0  0
   -6.3090   24.0820  -30.6690 C   0  0  0  0  0  0  0  0  0  0  0  0
   -7.4380   23.3680  -31.0590 C   0  0  0  0  0  0  0  0  0  0  0  0
   -6.9570   22.2820  -31.7550 C   0  0  0  0  0  0  0  0  0  0  0  0
   -7.6430   21.2260  -32.3450 C   0  0  0  0  0  0  0  0  0  0  0  0
   -6.8910   20.2130  -32.9600 C   0  0  0  0  0  0  0  0  0  0  0  0
   -5.4740   20.2730  -32.9830 C   0  0  0  0  0  0  0  0  0  0  0  0
   -4.6770   19.1470  -33.5890 C   0  0  0  0  0  0  0  0  0  0  0  0
   -3.4120   19.5810  -33.9470 F   0  0  0  0  0  0  0  0  0  0  0  0
   -4.5570   18.1240  -32.6650 F   0  0  0  0  0  0  0  0  0  0  0  0
   -5.3030   18.6590  -34.7220 F   0  0  0  0  0  0  0  0  0  0  0  0
   -4.8120   21.3500  -32.3460 C   0  0  0  0  0  0  0  0  0  0  0  0
   -5.5880   22.3590  -31.7600 C   0  0  0  0  0  0  0  0  0  0  0  0
   -5.1730   23.4600  -31.0920 N   0  0  0  0  0  0  0  0  0  0  0  0
   -3.8160   23.8210  -30.7820 C   0  0  0  0  0  0  0  0  0  0  0  0
   -2.9080   22.9490  -30.7760 O   0  0  0  0  0  0  0  0  0  0  0  0
   -3.4930   25.1390  -30.4810 O   0  0  0  0  0  0  0  0  0  0  0  0
   -4.9970   26.4490  -31.2100 H   0  0  0  0  0  0  0  0  0  0  0  0
   -5.5970   27.3670  -29.7900 H   0  0  0  0  0  0  0  0  0  0  0  0
   -8.4896   23.6179  -30.8549 H   0  0  0  0  0  0  0  0  0  0  0  0
   -8.7422   21.1858  -32.3301 H   0  0  0  0  0  0  0  0  0  0  0  0
   -7.4066   19.3624  -33.4297 H   0  0  0  0  0  0  0  0  0  0  0  0
   -3.7134   21.3938  -32.3118 H   0  0  0  0  0  0  0  0  0  0  0  0
  1  2  1  0
  2  3  2  0
  2  4  1  0
  4  5  2  0
  5  6  1  0
  6  7  2  0
  7  8  1  0
  8  9  2  0
  9 10  1  0
 10 11  1  0
 10 12  1  0
 10 13  1  0
  9 14  1  0
 14 15  2  0
 15 16  1  0
 16 17  1  0
 17 18  2  0
 17 19  1  0
 16  4  1  0
 15  6  1  0
  1 20  1  0
  1 21  1  0
  5 22  1  0
  7 23  1  0
  8 24  1  0
 14 25  1  0
M  CHG  1  19  -1
M  END
>  <UniqueID>  (23) 
23

>  <SMILES>  (23) 
NC(=O)c1cc2ccc(C(F)(F)F)cc2n1C(=O)[O-]

>  <Energy>  (23) 
66.26942016063195

>  <Genealogy>  (23) 
NC(=O)c1cc2ccc(C(F)(F)F)cc2n1C(=O)[O-] (protonated)
NC(=O)c1cc2ccc(C(F)(F)F)cc2n1C(=O)[O-] (3D coordinates assigned)
NC(=O)c1cc2ccc(C(F)(F)F)cc2n1C(=O)[O-] (optimized conformer: 66.26942016063195 kcal/mol)

>  <smiles>  (23) 
NC(=O)c1cc2ccc(C(F)(F)F)cc2n1C(=O)O

>  <score_type>  (23) 
oracle

>  <origin>  (23) 
adg

>  <m_score__min__energy>  (23) 
-7.9900000000000002

>  <m_primary>  (23) 
energy

$$$$
23:0
     RDKit          3D

 44 46  0  0  0  0  0  0  0  0999 V2000
   -3.8670   23.3870  -28.0300 C   0  0  0  0  0  0  0  0  0  0  0  0
   -2.9920   22.5450  -28.9500 C   0  0  0  0  0  0  0  0  0  0  0  0
   -2.9140   23.1330  -30.2470 O   0  0  0  0  0  0  0  0  0  0  0  0
   -3.7060   22.7270  -31.3270 C   0  0  0  0  0  0  0  0  0  0  0  0
   -3.1790   22.1760  -32.3330 O   0  0  0  0  0  0  0  0  0  0  0  0
   -5.1290   22.9130  -31.2750 N   0  0  0  0  0  0  0  0  0  0  0  0
   -5.8150   24.0470  -30.9540 C   0  0  0  0  0  0  0  0  0  0  0  0
   -5.2250   25.3070  -30.4550 C   0  0  0  0  0  0  0  0  0  0  0  0
   -3.9030   25.6730  -30.8420 N   0  0  0  0  0  0  0  0  0  0  0  0
   -5.8880   26.0830  -29.7170 O   0  0  0  0  0  0  0  0  0  0  0  0
   -7.1880   23.8400  -31.0790 C   0  0  0  0  0  0  0  0  0  0  0  0
   -7.3230   22.5310  -31.4820 C   0  0  0  0  0  0  0  0  0  0  0  0
   -8.4700   21.7970  -31.7660 C   0  0  0  0  0  0  0  0  0  0  0  0
   -8.3140   20.4670  -32.1890 C   0  0  0  0  0  0  0  0  0  0  0  0
   -7.0200   19.8930  -32.3250 C   0  0  0  0  0  0  0  0  0  0  0  0
   -6.8480   18.4610  -32.7960 C   0  0  0  0  0  0  0  0  0  0  0  0
   -6.0080   18.3820  -34.0820 C   0  0  0  0  0  0  0  0  0  0  0  0
   -5.9120   16.9290  -34.6010 C   0  0  0  0  0  0  0  0  0  0  0  0
   -6.1050   15.9130  -33.5450 N   0  0  0  0  0  0  0  0  0  0  0  0
   -5.5240   16.3290  -32.2590 C   0  0  0  0  0  0  0  0  0  0  0  0
   -6.2480   17.5660  -31.6870 C   0  0  0  0  0  0  0  0  0  0  0  0
   -5.8800   20.6770  -32.0290 C   0  0  0  0  0  0  0  0  0  0  0  0
   -6.0670   21.9930  -31.5920 C   0  0  0  0  0  0  0  0  0  0  0  0
   -3.6263   23.1554  -26.9819 H   0  0  0  0  0  0  0  0  0  0  0  0
   -3.6805   24.4539  -28.2219 H   0  0  0  0  0  0  0  0  0  0  0  0
   -4.9260   23.1596  -28.2219 H   0  0  0  0  0  0  0  0  0  0  0  0
   -1.9805   22.4760  -28.5232 H   0  0  0  0  0  0  0  0  0  0  0  0
   -3.4361   21.5428  -29.0416 H   0  0  0  0  0  0  0  0  0  0  0  0
   -3.0720   25.2940  -30.3370 H   0  0  0  0  0  0  0  0  0  0  0  0
   -7.9920   24.5678  -30.8948 H   0  0  0  0  0  0  0  0  0  0  0  0
   -9.4693   22.2449  -31.6624 H   0  0  0  0  0  0  0  0  0  0  0  0
   -9.2036   19.8618  -32.4179 H   0  0  0  0  0  0  0  0  0  0  0  0
   -7.8520   18.0774  -33.0303 H   0  0  0  0  0  0  0  0  0  0  0  0
   -6.4765   19.0086  -34.8552 H   0  0  0  0  0  0  0  0  0  0  0  0
   -4.9921   18.7380  -33.8559 H   0  0  0  0  0  0  0  0  0  0  0  0
   -6.6839   16.7823  -35.3708 H   0  0  0  0  0  0  0  0  0  0  0  0
   -4.8956   16.7936  -34.9991 H   0  0  0  0  0  0  0  0  0  0  0  0
   -7.1270   15.7200  -33.4190 H   0  0  0  0  0  0  0  0  0  0  0  0
   -5.6480   15.0220  -33.8470 H   0  0  0  0  0  0  0  0  0  0  0  0
   -5.6118   15.4996  -31.5418 H   0  0  0  0  0  0  0  0  0  0  0  0
   -4.4689   16.5919  -32.4251 H   0  0  0  0  0  0  0  0  0  0  0  0
   -7.0609   17.2267  -31.0281 H   0  0  0  0  0  0  0  0  0  0  0  0
   -5.5071   18.1643  -31.1364 H   0  0  0  0  0  0  0  0  0  0  0  0
   -4.8679   20.2607  -32.1401 H   0  0  0  0  0  0  0  0  0  0  0  0
  1  2  1  0
  2  3  1  0
  3  4  1  0
  4  5  2  0
  4  6  1  0
  6  7  1  0
  7  8  1  0
  8  9  1  0
  8 10  2  0
  7 11  2  0
 11 12  1  0
 12 13  2  0
 13 14  1  0
 14 15  2  0
 15 16  1  0
 16 17  1  0
 17 18  1  0
 18 19  1  0
 19 20  1  0
 20 21  1  0
 15 22  1  0
 22 23  2  0
 23  6  1  0
 23 12  1  0
 21 16  1  0
  1 24  1  0
  1 25  1  0
  1 26  1  0
  2 27  1  0
  2 28  1  0
  9 29  1  0
 11 30  1  0
 13 31  1  0
 14 32  1  0
 16 33  1  0
 17 34  1  0
 17 35  1  0
 18 36  1  0
 18 37  1  0
 19 38  1  0
 19 39  1  0
 20 40  1  0
 20 41  1  0
 21 42  1  0
 21 43  1  0
 22 44  1  0
M  CHG  2   9  -1  19   1
M  END
>  <UniqueID>  (24) 
24

>  <SMILES>  (24) 
CCOC(=O)n1c(C([NH-])=O)cc2ccc(C3CC[NH2+]CC3)cc21

>  <Energy>  (24) 
85.0455259249537

>  <Genealogy>  (24) 
CCOC(=O)n1c(C([NH-])=O)cc2ccc(C3CC[NH2+]CC3)cc21 (protonated)
CCOC(=O)n1c(C([NH-])=O)cc2ccc(C3CC[NH2+]CC3)cc21 (3D coordinates assigned)
CCOC(=O)n1c(C([NH-])=O)cc2ccc(C3CC[NH2+]CC3)cc21 (nonaromatic ring conformer: 85.0455259249537 kcal/mol)

>  <smiles>  (24) 
CCOC(=O)n1c(C(N)=O)cc2ccc(C3CCNCC3)cc21

>  <score_type>  (24) 
oracle

>  <origin>  (24) 
adg

>  <m_score__min__energy>  (24) 
-10.41

>  <m_primary>  (24) 
energy

$$$$
24:0
     RDKit          3D

 38 40  0  0  0  0  0  0  0  0999 V2000
   -2.0320   25.3530  -27.6760 N   0  0  0  0  0  0  0  0  0  0  0  0
   -1.0820   24.5620  -28.3920 C   0  0  0  0  0  0  0  0  0  0  0  0
    0.1500   24.7550  -28.2040 O   0  0  0  0  0  0  0  0  0  0  0  0
   -1.5150   23.5720  -29.3970 C   0  0  0  0  0  0  0  0  0  0  0  0
   -0.7650   22.4510  -29.7400 C   0  0  0  0  0  0  0  0  0  0  0  0
   -1.4810   21.8260  -30.7350 C   0  0  0  0  0  0  0  0  0  0  0  0
   -1.2190   20.6370  -31.4110 C   0  0  0  0  0  0  0  0  0  0  0  0
   -2.1700   20.1850  -32.3410 C   0  0  0  0  0  0  0  0  0  0  0  0
   -3.3530   20.9250  -32.5790 C   0  0  0  0  0  0  0  0  0  0  0  0
   -4.4150   20.3770  -33.4990 C   0  0  0  0  0  0  0  0  0  0  0  0
   -4.9940   19.0560  -32.9710 C   0  0  0  0  0  0  0  0  0  0  0  0
   -6.4160   19.2210  -32.4970 C   0  0  0  0  0  0  0  0  0  0  0  0
   -7.2300   18.0940  -32.2970 C   0  0  0  0  0  0  0  0  0  0  0  0
   -8.5720   18.2500  -31.9360 C   0  0  0  0  0  0  0  0  0  0  0  0
   -9.1140   19.5290  -31.7860 C   0  0  0  0  0  0  0  0  0  0  0  0
   -8.3120   20.6570  -31.9910 C   0  0  0  0  0  0  0  0  0  0  0  0
   -9.0010   22.2620  -31.8340 Cl  0  0  0  0  0  0  0  0  0  0  0  0
   -6.9670   20.5040  -32.3410 C   0  0  0  0  0  0  0  0  0  0  0  0
   -3.5820   22.1310  -31.8770 C   0  0  0  0  0  0  0  0  0  0  0  0
   -2.6170   22.5610  -30.9610 C   0  0  0  0  0  0  0  0  0  0  0  0
   -2.6560   23.6360  -30.1400 N   0  0  0  0  0  0  0  0  0  0  0  0
   -3.7490   24.5560  -29.9790 C   0  0  0  0  0  0  0  0  0  0  0  0
   -4.6060   24.3800  -29.0740 O   0  0  0  0  0  0  0  0  0  0  0  0
   -3.8670   25.6590  -30.8180 O   0  0  0  0  0  0  0  0  0  0  0  0
   -1.7090   26.0230  -26.9430 H   0  0  0  0  0  0  0  0  0  0  0  0
   -3.0440   25.3370  -27.9260 H   0  0  0  0  0  0  0  0  0  0  0  0
    0.1952   22.1326  -29.3079 H   0  0  0  0  0  0  0  0  0  0  0  0
   -0.2959   20.0692  -31.2226 H   0  0  0  0  0  0  0  0  0  0  0  0
   -1.9938   19.2477  -32.8891 H   0  0  0  0  0  0  0  0  0  0  0  0
   -5.2274   21.1136  -33.5851 H   0  0  0  0  0  0  0  0  0  0  0  0
   -3.9545   20.1834  -34.4790 H   0  0  0  0  0  0  0  0  0  0  0  0
   -4.9716   18.3089  -33.7781 H   0  0  0  0  0  0  0  0  0  0  0  0
   -4.3829   18.7308  -32.1162 H   0  0  0  0  0  0  0  0  0  0  0  0
   -6.8105   17.0852  -32.4248 H   0  0  0  0  0  0  0  0  0  0  0  0
   -9.2022   17.3639  -31.7698 H   0  0  0  0  0  0  0  0  0  0  0  0
  -10.1712   19.6491  -31.5068 H   0  0  0  0  0  0  0  0  0  0  0  0
   -6.3371   21.3925  -32.4950 H   0  0  0  0  0  0  0  0  0  0  0  0
   -4.4973   22.7168  -32.0474 H   0  0  0  0  0  0  0  0  0  0  0  0
  1  2  1  0
  2  3  2  0
  2  4  1  0
  4  5  2  0
  5  6  1  0
  6  7  2  0
  7  8  1  0
  8  9  2  0
  9 10  1  0
 10 11  1  0
 11 12  1  0
 12 13  2  0
 13 14  1  0
 14 15  2  0
 15 16  1  0
 16 17  1  0
 16 18  2  0
  9 19  1  0
 19 20  2  0
 20 21  1  0
 21 22  1  0
 22 23  2  0
 22 24  1  0
 21  4  1  0
 20  6  1  0
 18 12  1  0
  1 25  1  0
  1 26  1  0
  5 27  1  0
  7 28  1  0
  8 29  1  0
 10 30  1  0
 10 31  1  0
 11 32  1  0
 11 33  1  0
 13 34  1  0
 14 35  1  0
 15 36  1  0
 18 37  1  0
 19 38  1  0
M  CHG  1  24  -1
M  END
>  <UniqueID>  (25) 
25

>  <SMILES>  (25) 
NC(=O)c1cc2ccc(CCc3cccc(Cl)c3)cc2n1C(=O)[O-]

>  <Energy>  (25) 
75.55815687078317

>  <Genealogy>  (25) 
NC(=O)c1cc2ccc(CCc3cccc(Cl)c3)cc2n1C(=O)[O-] (protonated)
NC(=O)c1cc2ccc(CCc3cccc(Cl)c3)cc2n1C(=O)[O-] (3D coordinates assigned)
NC(=O)c1cc2ccc(CCc3cccc(Cl)c3)cc2n1C(=O)[O-] (optimized conformer: 75.55815687078317 kcal/mol)

>  <smiles>  (25) 
NC(=O)c1cc2ccc(CCc3cccc(Cl)c3)cc2n1C(=O)O

>  <score_type>  (25) 
oracle

>  <origin>  (25) 
adg

>  <m_score__min__energy>  (25) 
-10.65

>  <m_primary>  (25) 
energy

$$$$
25:0
     RDKit          3D

 49 50  0  0  0  0  0  0  0  0999 V2000
   -1.6540   19.8810  -34.1710 C   0  0  0  0  0  0  0  0  0  0  0  0
   -2.8070   19.5230  -33.4210 O   0  0  0  0  0  0  0  0  0  0  0  0
   -3.6160   18.4330  -33.7540 C   0  0  0  0  0  0  0  0  0  0  0  0
   -3.6350   17.9880  -34.9330 O   0  0  0  0  0  0  0  0  0  0  0  0
   -4.4350   17.8070  -32.7600 N   0  0  0  0  0  0  0  0  0  0  0  0
   -5.8730   17.5410  -32.8840 C   0  0  1  0  0  0  0  0  0  0  0  0
   -6.4770   17.5290  -31.4700 C   0  0  0  0  0  0  0  0  0  0  0  0
   -6.5510   18.6350  -33.7620 C   0  0  0  0  0  0  0  0  0  0  0  0
   -6.7800   19.9410  -33.0360 C   0  0  0  0  0  0  0  0  0  0  0  0
   -8.0980   20.3650  -32.7290 C   0  0  0  0  0  0  0  0  0  0  0  0
   -8.3220   21.5790  -32.0570 C   0  0  0  0  0  0  0  0  0  0  0  0
   -7.2140   22.3460  -31.7090 C   0  0  0  0  0  0  0  0  0  0  0  0
   -7.1450   23.5430  -31.0340 C   0  0  0  0  0  0  0  0  0  0  0  0
   -5.7860   23.8430  -30.9540 C   0  0  0  0  0  0  0  0  0  0  0  0
   -5.2650   25.0980  -30.3760 C   0  0  0  0  0  0  0  0  0  0  0  0
   -4.0410   25.6640  -30.8350 N   0  0  0  0  0  0  0  0  0  0  0  0
   -5.9340   25.7050  -29.4970 O   0  0  0  0  0  0  0  0  0  0  0  0
   -5.0440   22.8650  -31.5490 N   0  0  0  0  0  0  0  0  0  0  0  0
   -3.6130   22.7570  -31.5940 C   0  0  0  0  0  0  0  0  0  0  0  0
   -3.0540   22.2860  -32.6210 O   0  0  0  0  0  0  0  0  0  0  0  0
   -2.8560   23.1540  -30.4820 O   0  0  0  0  0  0  0  0  0  0  0  0
   -3.2440   22.9940  -29.1450 C   0  0  0  0  0  0  0  0  0  0  0  0
   -3.8430   21.9530  -28.7590 O   0  0  0  0  0  0  0  0  0  0  0  0
   -2.8800   24.0460  -28.1500 C   0  0  0  0  0  0  0  0  0  0  0  0
   -2.0360   23.5190  -27.1880 F   0  0  0  0  0  0  0  0  0  0  0  0
   -2.2400   25.0870  -28.7960 F   0  0  0  0  0  0  0  0  0  0  0  0
   -4.0210   24.5260  -27.5310 F   0  0  0  0  0  0  0  0  0  0  0  0
   -5.9340   21.9570  -32.0070 C   0  0  0  0  0  0  0  0  0  0  0  0
   -5.6810   20.7440  -32.6570 C   0  0  0  0  0  0  0  0  0  0  0  0
   -6.0880   16.1670  -33.4850 C   0  0  0  0  0  0  0  0  0  0  0  0
   -7.2160   15.8440  -33.9520 O   0  0  0  0  0  0  0  0  0  0  0  0
   -5.0490   15.2300  -33.4520 O   0  0  0  0  0  0  0  0  0  0  0  0
   -4.6270   14.5970  -32.2500 C   0  0  0  0  0  0  0  0  0  0  0  0
   -0.8339   20.1356  -33.4835 H   0  0  0  0  0  0  0  0  0  0  0  0
   -1.3515   19.0345  -34.8050 H   0  0  0  0  0  0  0  0  0  0  0  0
   -1.8842   20.7500  -34.8050 H   0  0  0  0  0  0  0  0  0  0  0  0
   -5.6675   17.5451  -30.7254 H   0  0  0  0  0  0  0  0  0  0  0  0
   -7.1156   18.4146  -31.3365 H   0  0  0  0  0  0  0  0  0  0  0  0
   -7.0799   16.6187  -31.3365 H   0  0  0  0  0  0  0  0  0  0  0  0
   -5.9074   18.8298  -34.6325 H   0  0  0  0  0  0  0  0  0  0  0  0
   -7.5402   18.2492  -34.0494 H   0  0  0  0  0  0  0  0  0  0  0  0
   -8.9535   19.7376  -33.0197 H   0  0  0  0  0  0  0  0  0  0  0  0
   -9.3416   21.9126  -31.8136 H   0  0  0  0  0  0  0  0  0  0  0  0
   -7.9836   24.1367  -30.6412 H   0  0  0  0  0  0  0  0  0  0  0  0
   -3.1200   25.2950  -30.5050 H   0  0  0  0  0  0  0  0  0  0  0  0
   -4.6503   20.4230  -32.8681 H   0  0  0  0  0  0  0  0  0  0  0  0
   -5.0043   15.1630  -31.3855 H   0  0  0  0  0  0  0  0  0  0  0  0
   -5.0225   13.5711  -32.2175 H   0  0  0  0  0  0  0  0  0  0  0  0
   -3.5279   14.5675  -32.2175 H   0  0  0  0  0  0  0  0  0  0  0  0
  1  2  1  0
  2  3  1  0
  3  4  2  0
  3  5  1  0
  6  5  1  1
  6  7  1  0
  6  8  1  0
  8  9  1  0
  9 10  2  0
 10 11  1  0
 11 12  2  0
 12 13  1  0
 13 14  2  0
 14 15  1  0
 15 16  1  0
 15 17  2  0
 14 18  1  0
 18 19  1  0
 19 20  2  0
 19 21  1  0
 21 22  1  0
 22 23  2  0
 22 24  1  0
 24 25  1  0
 24 26  1  0
 24 27  1  0
 18 28  1  0
 28 29  2  0
  6 30  1  0
 30 31  2  0
 30 32  1  0
 32 33  1  0
 29  9  1  0
 28 12  1  0
  1 34  1  0
  1 35  1  0
  1 36  1  0
  7 37  1  0
  7 38  1  0
  7 39  1  0
  8 40  1  0
  8 41  1  0
 10 42  1  0
 11 43  1  0
 13 44  1  0
 16 45  1  0
 29 46  1  0
 33 47  1  0
 33 48  1  0
 33 49  1  0
M  CHG  2   5  -1  16  -1
M  END
>  <UniqueID>  (26) 
26

>  <SMILES>  (26) 
COC(=O)[N-][C@@](C)(Cc1ccc2cc(C([NH-])=O)n(C(=O)OC(=O)C(F)(F)F)c2c1)C(=O)OC

>  <Energy>  (26) 
79.7363016843714

>  <Genealogy>  (26) 
COC(=O)[N-]C(C)(Cc1ccc2cc(C([NH-])=O)n(C(=O)OC(=O)C(F)(F)F)c2c1)C(=O)OC (protonated)
COC(=O)[N-][C@@](C)(Cc1ccc2cc(C([NH-])=O)n(C(=O)OC(=O)C(F)(F)F)c2c1)C(=O)OC (chirality)
COC(=O)[N-][C@@](C)(Cc1ccc2cc(C([NH-])=O)n(C(=O)OC(=O)C(F)(F)F)c2c1)C(=O)OC (3D coordinates assigned)
COC(=O)[N-][C@@](C)(Cc1ccc2cc(C([NH-])=O)n(C(=O)OC(=O)C(F)(F)F)c2c1)C(=O)OC (optimized conformer: 79.7363016843714 kcal/mol)

>  <smiles>  (26) 
COC(=O)NC(C)(Cc1ccc2cc(C(N)=O)n(C(=O)OC(=O)C(F)(F)F)c2c1)C(=O)OC

>  <score_type>  (26) 
oracle

>  <origin>  (26) 
adg

>  <m_score__min__energy>  (26) 
-9.5600000000000005

>  <m_primary>  (26) 
energy

$$$$
26:0
     RDKit          3D

 42 44  0  0  0  0  0  0  0  0999 V2000
   -3.0230   19.9820  -32.4750 C   0  0  0  0  0  0  0  0  0  0  0  0
   -2.8380   21.1560  -33.4290 C   0  0  0  0  0  0  0  0  0  0  0  0
   -3.7310   22.2180  -33.0980 O   0  0  0  0  0  0  0  0  0  0  0  0
   -4.0250   22.5970  -31.7830 C   0  0  0  0  0  0  0  0  0  0  0  0
   -3.1150   22.6280  -30.9100 O   0  0  0  0  0  0  0  0  0  0  0  0
   -5.3750   22.9310  -31.4230 N   0  0  0  0  0  0  0  0  0  0  0  0
   -5.8450   24.1270  -30.9700 C   0  0  0  0  0  0  0  0  0  0  0  0
   -5.0230   25.2990  -30.6030 C   0  0  0  0  0  0  0  0  0  0  0  0
   -3.6140   25.1560  -30.4490 N   0  0  0  0  0  0  0  0  0  0  0  0
   -5.5480   26.4350  -30.4600 O   0  0  0  0  0  0  0  0  0  0  0  0
   -7.2300   24.0810  -30.8170 C   0  0  0  0  0  0  0  0  0  0  0  0
   -7.5960   22.8080  -31.1870 C   0  0  0  0  0  0  0  0  0  0  0  0
   -8.8570   22.2220  -31.2510 C   0  0  0  0  0  0  0  0  0  0  0  0
   -8.9450   20.8970  -31.7110 C   0  0  0  0  0  0  0  0  0  0  0  0
   -7.7800   20.1870  -32.0900 C   0  0  0  0  0  0  0  0  0  0  0  0
   -7.8920   18.7920  -32.6400 C   0  0  0  0  0  0  0  0  0  0  0  0
   -6.6550   18.4280  -33.3210 N   0  0  0  0  0  0  0  0  0  0  0  0
   -5.7050   17.5980  -32.8480 C   0  0  0  0  0  0  0  0  0  0  0  0
   -4.7480   17.4430  -33.8320 C   0  0  0  0  0  0  0  0  0  0  0  0
   -3.5640   16.5350  -33.7980 C   0  0  0  0  0  0  0  0  0  0  0  0
   -5.1950   18.1880  -34.9080 C   0  0  0  0  0  0  0  0  0  0  0  0
   -6.3550   18.7760  -34.5630 N   0  0  0  0  0  0  0  0  0  0  0  0
   -6.5180   20.8180  -32.0240 C   0  0  0  0  0  0  0  0  0  0  0  0
   -6.4580   22.1330  -31.5480 C   0  0  0  0  0  0  0  0  0  0  0  0
   -2.9665   20.3408  -31.4367 H   0  0  0  0  0  0  0  0  0  0  0  0
   -4.0052   19.5187  -32.6499 H   0  0  0  0  0  0  0  0  0  0  0  0
   -2.2308   19.2391  -32.6499 H   0  0  0  0  0  0  0  0  0  0  0  0
   -1.8022   21.5195  -33.3582 H   0  0  0  0  0  0  0  0  0  0  0  0
   -3.0537   20.8178  -34.4532 H   0  0  0  0  0  0  0  0  0  0  0  0
   -3.0250   24.7720  -31.2210 H   0  0  0  0  0  0  0  0  0  0  0  0
   -7.8900   24.8911  -30.4733 H   0  0  0  0  0  0  0  0  0  0  0  0
   -9.7569   22.7789  -30.9508 H   0  0  0  0  0  0  0  0  0  0  0  0
   -9.9277   20.4071  -31.7772 H   0  0  0  0  0  0  0  0  0  0  0  0
   -8.0753   18.0879  -31.8150 H   0  0  0  0  0  0  0  0  0  0  0  0
   -8.7262   18.7500  -33.3558 H   0  0  0  0  0  0  0  0  0  0  0  0
   -5.6935   17.1270  -31.8540 H   0  0  0  0  0  0  0  0  0  0  0  0
   -3.2919   16.3263  -32.7528 H   0  0  0  0  0  0  0  0  0  0  0  0
   -3.8103   15.5920  -34.3081 H   0  0  0  0  0  0  0  0  0  0  0  0
   -2.7172   17.0174  -34.3081 H   0  0  0  0  0  0  0  0  0  0  0  0
   -4.6887   18.2835  -35.8799 H   0  0  0  0  0  0  0  0  0  0  0  0
   -6.9450   19.3810  -35.1750 H   0  0  0  0  0  0  0  0  0  0  0  0
   -5.6059   20.2897  -32.3385 H   0  0  0  0  0  0  0  0  0  0  0  0
  1  2  1  0
  2  3  1  0
  3  4  1  0
  4  5  2  0
  4  6  1  0
  6  7  1  0
  7  8  1  0
  8  9  1  0
  8 10  2  0
  7 11  2  0
 11 12  1  0
 12 13  2  0
 13 14  1  0
 14 15  2  0
 15 16  1  0
 16 17  1  0
 17 18  1  0
 18 19  2  0
 19 20  1  0
 19 21  1  0
 21 22  2  0
 15 23  1  0
 23 24  2  0
 24  6  1  0
 24 12  1  0
 22 17  1  0
  1 25  1  0
  1 26  1  0
  1 27  1  0
  2 28  1  0
  2 29  1  0
  9 30  1  0
 11 31  1  0
 13 32  1  0
 14 33  1  0
 16 34  1  0
 16 35  1  0
 18 36  1  0
 20 37  1  0
 20 38  1  0
 20 39  1  0
 21 40  1  0
 22 41  1  0
 23 42  1  0
M  CHG  2   9  -1  22   1
M  END
>  <UniqueID>  (27) 
27

>  <SMILES>  (27) 
CCOC(=O)n1c(C([NH-])=O)cc2ccc(Cn3cc(C)c[nH+]3)cc21

>  <Energy>  (27) 
105.79497187503576

>  <Genealogy>  (27) 
CCOC(=O)n1c(C([NH-])=O)cc2ccc(Cn3cc(C)c[nH+]3)cc21 (protonated)
CCOC(=O)n1c(C([NH-])=O)cc2ccc(Cn3cc(C)c[nH+]3)cc21 (3D coordinates assigned)
CCOC(=O)n1c(C([NH-])=O)cc2ccc(Cn3cc(C)c[nH+]3)cc21 (optimized conformer: 105.79497187503576 kcal/mol)

>  <smiles>  (27) 
CCOC(=O)n1c(C(N)=O)cc2ccc(Cn3cc(C)cn3)cc21

>  <score_type>  (27) 
oracle

>  <origin>  (27) 
adg

>  <m_score__min__energy>  (27) 
-10.82

>  <m_primary>  (27) 
energy

$$$$
27:0
     RDKit          3D

 36 37  0  0  0  0  0  0  0  0999 V2000
   -3.4940   22.7690  -29.0450 C   0  0  0  0  0  0  0  0  0  0  0  0
   -3.1860   23.0640  -30.4360 N   0  0  0  0  0  0  0  0  0  0  0  0
   -4.0600   22.7150  -31.5150 C   0  0  0  0  0  0  0  0  0  0  0  0
   -3.5800   22.3090  -32.6070 O   0  0  0  0  0  0  0  0  0  0  0  0
   -5.4830   22.8410  -31.3550 N   0  0  0  0  0  0  0  0  0  0  0  0
   -6.1770   23.9410  -30.9460 C   0  0  0  0  0  0  0  0  0  0  0  0
   -5.5910   25.1860  -30.4120 C   0  0  0  0  0  0  0  0  0  0  0  0
   -4.2510   25.5660  -30.7270 N   0  0  0  0  0  0  0  0  0  0  0  0
   -6.2640   25.8970  -29.6200 O   0  0  0  0  0  0  0  0  0  0  0  0
   -7.5490   23.7220  -31.0430 C   0  0  0  0  0  0  0  0  0  0  0  0
   -7.6780   22.4350  -31.5150 C   0  0  0  0  0  0  0  0  0  0  0  0
   -8.8240   21.7030  -31.8100 C   0  0  0  0  0  0  0  0  0  0  0  0
   -8.6620   20.4030  -32.3170 C   0  0  0  0  0  0  0  0  0  0  0  0
   -7.3670   19.8670  -32.5310 C   0  0  0  0  0  0  0  0  0  0  0  0
   -7.2030   18.4700  -33.0740 C   0  0  0  0  0  0  0  0  0  0  0  0
   -5.8430   18.2540  -33.7650 C   0  0  2  0  0  0  0  0  0  0  0  0
   -5.8720   18.9080  -35.0090 O   0  0  0  0  0  0  0  0  0  0  0  0
   -5.5130   16.7650  -33.9800 C   0  0  0  0  0  0  0  0  0  0  0  0
   -4.5910   16.6120  -34.9990 F   0  0  0  0  0  0  0  0  0  0  0  0
   -5.0050   16.2080  -32.8180 F   0  0  0  0  0  0  0  0  0  0  0  0
   -6.6620   16.0800  -34.3340 F   0  0  0  0  0  0  0  0  0  0  0  0
   -6.2280   20.6430  -32.2230 C   0  0  0  0  0  0  0  0  0  0  0  0
   -6.4180   21.9260  -31.6980 C   0  0  0  0  0  0  0  0  0  0  0  0
   -2.8556   23.3805  -28.3904 H   0  0  0  0  0  0  0  0  0  0  0  0
   -4.5509   23.0004  -28.8464 H   0  0  0  0  0  0  0  0  0  0  0  0
   -3.3084   21.7031  -28.8464 H   0  0  0  0  0  0  0  0  0  0  0  0
   -3.8660   26.4710  -30.3730 H   0  0  0  0  0  0  0  0  0  0  0  0
   -3.6140   24.9220  -31.2440 H   0  0  0  0  0  0  0  0  0  0  0  0
   -8.3567   24.4265  -30.7955 H   0  0  0  0  0  0  0  0  0  0  0  0
   -9.8256   22.1290  -31.6511 H   0  0  0  0  0  0  0  0  0  0  0  0
   -9.5485   19.7950  -32.5503 H   0  0  0  0  0  0  0  0  0  0  0  0
   -7.2914   17.7566  -32.2414 H   0  0  0  0  0  0  0  0  0  0  0  0
   -7.9870   18.3142  -33.8297 H   0  0  0  0  0  0  0  0  0  0  0  0
   -5.0600   18.6645  -33.1105 H   0  0  0  0  0  0  0  0  0  0  0  0
   -6.8260   18.9950  -35.2720 H   0  0  0  0  0  0  0  0  0  0  0  0
   -5.2153   20.2481  -32.3918 H   0  0  0  0  0  0  0  0  0  0  0  0
  1  2  1  0
  2  3  1  0
  3  4  2  0
  3  5  1  0
  5  6  1  0
  6  7  1  0
  7  8  1  0
  7  9  2  0
  6 10  2  0
 10 11  1  0
 11 12  2  0
 12 13  1  0
 13 14  2  0
 14 15  1  0
 15 16  1  0
 16 17  1  0
 16 18  1  0
 18 19  1  0
 18 20  1  0
 18 21  1  0
 14 22  1  0
 22 23  2  0
 23  5  1  0
 23 11  1  0
  1 24  1  0
  1 25  1  0
  1 26  1  0
  8 27  1  0
  8 28  1  0
 10 29  1  0
 12 30  1  0
 13 31  1  0
 15 32  1  0
 15 33  1  0
 16 34  1  1
 17 35  1  0
 22 36  1  0
M  CHG  1   2  -1
M  END
>  <UniqueID>  (28) 
28

>  <SMILES>  (28) 
C[N-]C(=O)n1c(C(N)=O)cc2ccc(C[C@H](O)C(F)(F)F)cc21

>  <Energy>  (28) 
70.73595399261508

>  <Genealogy>  (28) 
C[N-]C(=O)n1c(C(N)=O)cc2ccc(CC(O)C(F)(F)F)cc21 (protonated)
C[N-]C(=O)n1c(C(N)=O)cc2ccc(C[C@H](O)C(F)(F)F)cc21 (chirality)
C[N-]C(=O)n1c(C(N)=O)cc2ccc(C[C@H](O)C(F)(F)F)cc21 (3D coordinates assigned)
C[N-]C(=O)n1c(C(N)=O)cc2ccc(C[C@H](O)C(F)(F)F)cc21 (optimized conformer: 70.73595399261508 kcal/mol)

>  <smiles>  (28) 
CNC(=O)n1c(C(N)=O)cc2ccc(CC(O)C(F)(F)F)cc21

>  <score_type>  (28) 
oracle

>  <origin>  (28) 
adg

>  <m_score__min__energy>  (28) 
-8.4000000000000004

>  <m_primary>  (28) 
energy

$$$$
28:0
     RDKit          3D

 50 51  0  0  0  0  0  0  0  0999 V2000
   -2.7440   19.5790  -33.1770 C   0  0  0  0  0  0  0  0  0  0  0  0
   -2.5630   21.0830  -33.3680 C   0  0  0  0  0  0  0  0  0  0  0  0
   -3.8930   21.8530  -33.2860 C   0  0  0  0  0  0  0  0  0  0  0  0
   -4.0510   22.6550  -32.0140 C   0  0  0  0  0  0  0  0  0  0  0  0
   -3.0150   23.0480  -31.4070 O   0  0  0  0  0  0  0  0  0  0  0  0
   -5.3540   22.9610  -31.4730 N   0  0  0  0  0  0  0  0  0  0  0  0
   -5.7410   24.0660  -30.7620 C   0  0  0  0  0  0  0  0  0  0  0  0
   -4.9430   25.2830  -30.5350 C   0  0  0  0  0  0  0  0  0  0  0  0
   -3.5790   25.1690  -30.1290 N   0  0  0  0  0  0  0  0  0  0  0  0
   -5.4700   26.4230  -30.6250 O   0  0  0  0  0  0  0  0  0  0  0  0
   -7.0840   23.9800  -30.4090 C   0  0  0  0  0  0  0  0  0  0  0  0
   -7.5300   22.8010  -30.9540 C   0  0  0  0  0  0  0  0  0  0  0  0
   -8.8120   22.2650  -30.9780 C   0  0  0  0  0  0  0  0  0  0  0  0
   -9.0090   21.0660  -31.6820 C   0  0  0  0  0  0  0  0  0  0  0  0
   -7.9240   20.4130  -32.3280 C   0  0  0  0  0  0  0  0  0  0  0  0
   -8.1590   19.2130  -33.0960 N   0  0  0  0  0  0  0  0  0  0  0  0
   -8.1450   18.0220  -32.2300 C   0  0  0  0  0  0  0  0  0  0  0  0
   -6.7610   17.8450  -31.5850 C   0  0  0  0  0  0  0  0  0  0  0  0
   -5.6360   17.7220  -32.6260 C   0  0  0  0  0  0  0  0  0  0  0  0
   -6.1510   17.3950  -33.9750 N   0  0  0  0  0  0  0  0  0  0  0  0
   -6.1210   15.9410  -34.2190 C   0  0  0  0  0  0  0  0  0  0  0  0
   -5.3350   18.0740  -34.9980 C   0  0  0  0  0  0  0  0  0  0  0  0
   -6.6310   20.9810  -32.2580 C   0  0  0  0  0  0  0  0  0  0  0  0
   -6.4690   22.2000  -31.5850 C   0  0  0  0  0  0  0  0  0  0  0  0
   -2.7720   19.3466  -32.1022 H   0  0  0  0  0  0  0  0  0  0  0  0
   -3.6869   19.2607  -33.6456 H   0  0  0  0  0  0  0  0  0  0  0  0
   -1.9035   19.0461  -33.6456 H   0  0  0  0  0  0  0  0  0  0  0  0
   -1.8889   21.4593  -32.5844 H   0  0  0  0  0  0  0  0  0  0  0  0
   -2.1456   21.2439  -34.3729 H   0  0  0  0  0  0  0  0  0  0  0  0
   -3.9488   22.5427  -34.1411 H   0  0  0  0  0  0  0  0  0  0  0  0
   -4.6997   21.1053  -33.2981 H   0  0  0  0  0  0  0  0  0  0  0  0
   -2.8040   25.1950  -30.8270 H   0  0  0  0  0  0  0  0  0  0  0  0
   -7.6655   24.7032  -29.8184 H   0  0  0  0  0  0  0  0  0  0  0  0
   -9.6456   22.7639  -30.4621 H   0  0  0  0  0  0  0  0  0  0  0  0
  -10.0160   20.6264  -31.7343 H   0  0  0  0  0  0  0  0  0  0  0  0
   -9.0870   19.3050  -33.5750 H   0  0  0  0  0  0  0  0  0  0  0  0
   -7.4270   19.1050  -33.8390 H   0  0  0  0  0  0  0  0  0  0  0  0
   -8.9009   18.1396  -31.4396 H   0  0  0  0  0  0  0  0  0  0  0  0
   -8.3707   17.1347  -32.8397 H   0  0  0  0  0  0  0  0  0  0  0  0
   -6.5560   18.7164  -30.9457 H   0  0  0  0  0  0  0  0  0  0  0  0
   -6.7809   16.9115  -31.0034 H   0  0  0  0  0  0  0  0  0  0  0  0
   -5.0948   18.6783  -32.6764 H   0  0  0  0  0  0  0  0  0  0  0  0
   -4.9745   16.9016  -32.3107 H   0  0  0  0  0  0  0  0  0  0  0  0
   -6.1100   15.4079  -33.2569 H   0  0  0  0  0  0  0  0  0  0  0  0
   -7.0133   15.6467  -34.7911 H   0  0  0  0  0  0  0  0  0  0  0  0
   -5.2174   15.6838  -34.7911 H   0  0  0  0  0  0  0  0  0  0  0  0
   -4.5789   18.7032  -34.5057 H   0  0  0  0  0  0  0  0  0  0  0  0
   -4.8342   17.3223  -35.6258 H   0  0  0  0  0  0  0  0  0  0  0  0
   -5.9831   18.7031  -35.6258 H   0  0  0  0  0  0  0  0  0  0  0  0
   -5.7703   20.4769  -32.7219 H   0  0  0  0  0  0  0  0  0  0  0  0
  1  2  1  0
  2  3  1  0
  3  4  1  0
  4  5  2  0
  4  6  1  0
  6  7  1  0
  7  8  1  0
  8  9  1  0
  8 10  2  0
  7 11  2  0
 11 12  1  0
 12 13  2  0
 13 14  1  0
 14 15  2  0
 15 16  1  0
 16 17  1  0
 17 18  1  0
 18 19  1  0
 19 20  1  0
 20 21  1  0
 20 22  1  0
 15 23  1  0
 23 24  2  0
 24  6  1  0
 24 12  1  0
  1 25  1  0
  1 26  1  0
  1 27  1  0
  2 28  1  0
  2 29  1  0
  3 30  1  0
  3 31  1  0
  9 32  1  0
 11 33  1  0
 13 34  1  0
 14 35  1  0
 16 36  1  0
 16 37  1  0
 17 38  1  0
 17 39  1  0
 18 40  1  0
 18 41  1  0
 19 42  1  0
 19 43  1  0
 21 44  1  0
 21 45  1  0
 21 46  1  0
 22 47  1  0
 22 48  1  0
 22 49  1  0
 23 50  1  0
M  CHG  2   9  -1  16   1
M  END
>  <UniqueID>  (29) 
29

>  <SMILES>  (29) 
CCCC(=O)n1c(C([NH-])=O)cc2ccc([NH2+]CCCN(C)C)cc21

>  <Energy>  (29) 
84.40304993734875

>  <Genealogy>  (29) 
CCCC(=O)n1c(C([NH-])=O)cc2ccc([NH2+]CCCN(C)C)cc21 (protonated)
CCCC(=O)n1c(C([NH-])=O)cc2ccc([NH2+]CCCN(C)C)cc21 (3D coordinates assigned)
CCCC(=O)n1c(C([NH-])=O)cc2ccc([NH2+]CCCN(C)C)cc21 (optimized conformer: 84.40304993734875 kcal/mol)

>  <smiles>  (29) 
CCCC(=O)n1c(C(N)=O)cc2ccc(NCCCN(C)C)cc21

>  <score_type>  (29) 
oracle

>  <origin>  (29) 
adg

>  <m_score__min__energy>  (29) 
-10.16

>  <m_primary>  (29) 
energy

$$$$
29:0
     RDKit          3D

 50 52  0  0  0  0  0  0  0  0999 V2000
   -9.3180   20.9930  -31.6990 C   0  0  0  0  0  0  0  0  0  0  0  0
   -7.9460   21.0970  -32.3840 C   0  0  2  0  0  0  0  0  0  0  0  0
   -7.2670   19.7460  -32.4970 C   0  0  0  0  0  0  0  0  0  0  0  0
   -7.4820   18.7680  -31.5080 C   0  0  0  0  0  0  0  0  0  0  0  0
   -6.8800   17.5110  -31.6100 C   0  0  0  0  0  0  0  0  0  0  0  0
   -6.0600   17.2100  -32.7010 C   0  0  0  0  0  0  0  0  0  0  0  0
   -5.4830   15.9850  -32.7890 F   0  0  0  0  0  0  0  0  0  0  0  0
   -5.8420   18.1690  -33.6950 C   0  0  0  0  0  0  0  0  0  0  0  0
   -4.8210   17.8010  -35.0750 Cl  0  0  0  0  0  0  0  0  0  0  0  0
   -6.4420   19.4300  -33.5960 C   0  0  0  0  0  0  0  0  0  0  0  0
   -7.0200   22.1080  -31.7300 C   0  0  0  0  0  0  0  0  0  0  0  0
   -7.4520   23.4550  -31.6040 C   0  0  0  0  0  0  0  0  0  0  0  0
   -6.6070   24.4380  -31.0620 C   0  0  0  0  0  0  0  0  0  0  0  0
   -5.3330   24.0520  -30.6590 C   0  0  0  0  0  0  0  0  0  0  0  0
   -4.3020   24.8040  -30.1450 C   0  0  0  0  0  0  0  0  0  0  0  0
   -3.2500   23.9110  -29.9570 C   0  0  0  0  0  0  0  0  0  0  0  0
   -1.9560   24.2860  -29.3500 C   0  0  0  0  0  0  0  0  0  0  0  0
   -1.6940   25.6500  -29.0260 N   0  0  0  0  0  0  0  0  0  0  0  0
   -1.0910   23.4110  -29.0820 O   0  0  0  0  0  0  0  0  0  0  0  0
   -3.6160   22.6550  -30.3440 N   0  0  0  0  0  0  0  0  0  0  0  0
   -2.7950   21.4780  -30.3940 C   0  0  0  0  0  0  0  0  0  0  0  0
   -2.9110   20.5990  -29.4990 O   0  0  0  0  0  0  0  0  0  0  0  0
   -1.8930   21.3140  -31.4560 O   0  0  0  0  0  0  0  0  0  0  0  0
   -2.1930   20.7630  -32.7470 C   0  0  0  0  0  0  0  0  0  0  0  0
   -0.9320   20.7370  -33.6310 C   0  0  0  0  0  0  0  0  0  0  0  0
   -2.6740   19.3210  -32.5230 C   0  0  0  0  0  0  0  0  0  0  0  0
   -3.3210   21.5610  -33.4300 C   0  0  0  0  0  0  0  0  0  0  0  0
   -4.8950   22.7590  -30.7680 C   0  0  0  0  0  0  0  0  0  0  0  0
   -5.7090   21.7620  -31.3180 C   0  0  0  0  0  0  0  0  0  0  0  0
   -9.1844   21.0031  -30.6072 H   0  0  0  0  0  0  0  0  0  0  0  0
   -9.9436   21.8463  -31.9998 H   0  0  0  0  0  0  0  0  0  0  0  0
   -9.8079   20.0551  -31.9998 H   0  0  0  0  0  0  0  0  0  0  0  0
   -8.1545   21.4679  -33.3984 H   0  0  0  0  0  0  0  0  0  0  0  0
   -8.1291   18.9949  -30.6479 H   0  0  0  0  0  0  0  0  0  0  0  0
   -7.0521   16.7558  -30.8289 H   0  0  0  0  0  0  0  0  0  0  0  0
   -6.2685   20.1801  -34.3816 H   0  0  0  0  0  0  0  0  0  0  0  0
   -8.4633   23.7329  -31.9357 H   0  0  0  0  0  0  0  0  0  0  0  0
   -6.9426   25.4805  -30.9596 H   0  0  0  0  0  0  0  0  0  0  0  0
   -4.3074   25.8824  -29.9284 H   0  0  0  0  0  0  0  0  0  0  0  0
   -1.2340   26.2850  -29.7140 H   0  0  0  0  0  0  0  0  0  0  0  0
   -0.0367   20.7185  -32.9922 H   0  0  0  0  0  0  0  0  0  0  0  0
   -0.9479   19.8390  -34.2661 H   0  0  0  0  0  0  0  0  0  0  0  0
   -0.9108   21.6349  -34.2661 H   0  0  0  0  0  0  0  0  0  0  0  0
   -2.7409   19.1203  -31.4435 H   0  0  0  0  0  0  0  0  0  0  0  0
   -3.6647   19.1894  -32.9825 H   0  0  0  0  0  0  0  0  0  0  0  0
   -1.9607   18.6210  -32.9825 H   0  0  0  0  0  0  0  0  0  0  0  0
   -3.9645   22.0162  -32.6628 H   0  0  0  0  0  0  0  0  0  0  0  0
   -2.8830   22.3513  -34.0573 H   0  0  0  0  0  0  0  0  0  0  0  0
   -3.9205   20.8849  -34.0573 H   0  0  0  0  0  0  0  0  0  0  0  0
   -5.3390   20.7320  -31.4281 H   0  0  0  0  0  0  0  0  0  0  0  0
  1  2  1  0
  2  3  1  0
  3  4  2  0
  4  5  1  0
  5  6  2  0
  6  7  1  0
  6  8  1  0
  8  9  1  0
  8 10  2  0
  2 11  1  0
 11 12  2  0
 12 13  1  0
 13 14  2  0
 14 15  1  0
 15 16  2  0
 16 17  1  0
 17 18  1  0
 17 19  2  0
 16 20  1  0
 20 21  1  0
 21 22  2  0
 21 23  1  0
 23 24  1  0
 24 25  1  0
 24 26  1  0
 24 27  1  0
 20 28  1  0
 28 29  2  0
 10  3  1  0
 29 11  1  0
 28 14  1  0
  1 30  1  0
  1 31  1  0
  1 32  1  0
  2 33  1  6
  4 34  1  0
  5 35  1  0
 10 36  1  0
 12 37  1  0
 13 38  1  0
 15 39  1  0
 18 40  1  0
 25 41  1  0
 25 42  1  0
 25 43  1  0
 26 44  1  0
 26 45  1  0
 26 46  1  0
 27 47  1  0
 27 48  1  0
 27 49  1  0
 29 50  1  0
M  CHG  1  18  -1
M  END
>  <UniqueID>  (30) 
30

>  <SMILES>  (30) 
C[C@H](c1ccc(F)c(Cl)c1)c1ccc2cc(C([NH-])=O)n(C(=O)OC(C)(C)C)c2c1

>  <Energy>  (30) 
86.19168243428308

>  <Genealogy>  (30) 
CC(c1ccc(F)c(Cl)c1)c1ccc2cc(C([NH-])=O)n(C(=O)OC(C)(C)C)c2c1 (protonated)
C[C@H](c1ccc(F)c(Cl)c1)c1ccc2cc(C([NH-])=O)n(C(=O)OC(C)(C)C)c2c1 (chirality)
C[C@H](c1ccc(F)c(Cl)c1)c1ccc2cc(C([NH-])=O)n(C(=O)OC(C)(C)C)c2c1 (3D coordinates assigned)
C[C@H](c1ccc(F)c(Cl)c1)c1ccc2cc(C([NH-])=O)n(C(=O)OC(C)(C)C)c2c1 (optimized conformer: 86.19168243428308 kcal/mol)

>  <smiles>  (30) 
CC(c1ccc(F)c(Cl)c1)c1ccc2cc(C(N)=O)n(C(=O)OC(C)(C)C)c2c1

>  <score_type>  (30) 
oracle

>  <origin>  (30) 
adg

>  <m_score__min__energy>  (30) 
-11.970000000000001

>  <m_primary>  (30) 
energy

$$$$
30:0
     RDKit          3D

 45 46  0  0  0  0  0  0  0  0999 V2000
   -0.2940   22.5180  -28.7320 C   0  0  0  0  0  0  0  0  0  0  0  0
   -1.1450   22.5750  -30.0120 C   0  0  0  0  0  0  0  0  0  0  0  0
   -1.1730   21.1820  -30.6610 C   0  0  0  0  0  0  0  0  0  0  0  0
   -2.5860   23.0800  -29.7090 C   0  0  2  0  0  0  0  0  0  0  0  0
   -3.2800   23.5050  -30.9250 N   0  0  0  0  0  0  0  0  0  0  0  0
   -4.1360   22.6900  -31.7380 C   0  0  0  0  0  0  0  0  0  0  0  0
   -3.6470   21.9380  -32.6230 O   0  0  0  0  0  0  0  0  0  0  0  0
   -5.5590   22.7360  -31.5460 N   0  0  0  0  0  0  0  0  0  0  0  0
   -6.2830   23.7130  -30.9320 C   0  0  0  0  0  0  0  0  0  0  0  0
   -5.7570   25.0070  -30.4520 C   0  0  0  0  0  0  0  0  0  0  0  0
   -6.1840   25.5650  -29.2090 N   0  0  0  0  0  0  0  0  0  0  0  0
   -4.8790   25.6060  -31.1290 O   0  0  0  0  0  0  0  0  0  0  0  0
   -7.6220   23.3450  -30.8320 C   0  0  0  0  0  0  0  0  0  0  0  0
   -7.7000   22.1000  -31.4150 C   0  0  0  0  0  0  0  0  0  0  0  0
   -8.7940   21.2550  -31.5730 C   0  0  0  0  0  0  0  0  0  0  0  0
   -8.5770   20.0010  -32.1690 C   0  0  0  0  0  0  0  0  0  0  0  0
   -7.2750   19.6080  -32.5660 C   0  0  0  0  0  0  0  0  0  0  0  0
   -7.0550   18.2640  -33.2060 C   0  0  0  0  0  0  0  0  0  0  0  0
   -5.8320   18.2880  -34.0700 C   0  0  0  0  0  0  0  0  0  0  0  0
   -5.9190   18.5410  -35.2610 O   0  0  0  0  0  0  0  0  0  0  0  0
   -6.1900   20.4970  -32.3990 C   0  0  0  0  0  0  0  0  0  0  0  0
   -6.4410   21.7520  -31.8330 C   0  0  0  0  0  0  0  0  0  0  0  0
   -2.6320   24.2010  -28.6850 C   0  0  0  0  0  0  0  0  0  0  0  0
   -2.1500   25.2910  -28.9530 O   0  0  0  0  0  0  0  0  0  0  0  0
   -3.3190   24.0270  -27.3560 C   0  0  0  0  0  0  0  0  0  0  0  0
   -4.5400   24.6730  -27.3850 F   0  0  0  0  0  0  0  0  0  0  0  0
   -3.5240   22.6800  -27.1200 F   0  0  0  0  0  0  0  0  0  0  0  0
   -2.5610   24.5460  -26.3210 F   0  0  0  0  0  0  0  0  0  0  0  0
   -0.9523   22.5621  -27.8518 H   0  0  0  0  0  0  0  0  0  0  0  0
    0.2794   21.5794  -28.7144 H   0  0  0  0  0  0  0  0  0  0  0  0
    0.3994   23.3717  -28.7144 H   0  0  0  0  0  0  0  0  0  0  0  0
   -0.6924   23.2922  -30.7125 H   0  0  0  0  0  0  0  0  0  0  0  0
   -1.1885   20.4119  -29.8757 H   0  0  0  0  0  0  0  0  0  0  0  0
   -2.0732   21.0866  -31.2859 H   0  0  0  0  0  0  0  0  0  0  0  0
   -0.2773   21.0505  -31.2859 H   0  0  0  0  0  0  0  0  0  0  0  0
   -3.1050   22.2123  -29.2757 H   0  0  0  0  0  0  0  0  0  0  0  0
   -6.7720   25.0160  -28.5450 H   0  0  0  0  0  0  0  0  0  0  0  0
   -5.8340   26.5030  -28.9090 H   0  0  0  0  0  0  0  0  0  0  0  0
   -8.4421   23.9247  -30.3833 H   0  0  0  0  0  0  0  0  0  0  0  0
   -9.7978   21.5591  -31.2416 H   0  0  0  0  0  0  0  0  0  0  0  0
   -9.4251   19.3189  -32.3286 H   0  0  0  0  0  0  0  0  0  0  0  0
   -6.9279   17.5052  -32.4198 H   0  0  0  0  0  0  0  0  0  0  0  0
   -7.9270   18.0206  -33.8308 H   0  0  0  0  0  0  0  0  0  0  0  0
   -4.8474   18.0759  -33.6278 H   0  0  0  0  0  0  0  0  0  0  0  0
   -5.1735   20.2100  -32.7061 H   0  0  0  0  0  0  0  0  0  0  0  0
  1  2  1  0
  2  3  1  0
  2  4  1  0
  4  5  1  0
  5  6  1  0
  6  7  2  0
  6  8  1  0
  8  9  1  0
  9 10  1  0
 10 11  1  0
 10 12  2  0
  9 13  2  0
 13 14  1  0
 14 15  2  0
 15 16  1  0
 16 17  2  0
 17 18  1  0
 18 19  1  0
 19 20  2  0
 17 21  1  0
 21 22  2  0
  4 23  1  0
 23 24  2  0
 23 25  1  0
 25 26  1  0
 25 27  1  0
 25 28  1  0
 22  8  1  0
 22 14  1  0
  1 29  1  0
  1 30  1  0
  1 31  1  0
  2 32  1  0
  3 33  1  0
  3 34  1  0
  3 35  1  0
  4 36  1  1
 11 37  1  0
 11 38  1  0
 13 39  1  0
 15 40  1  0
 16 41  1  0
 18 42  1  0
 18 43  1  0
 19 44  1  0
 21 45  1  0
M  CHG  1   5  -1
M  END
>  <UniqueID>  (31) 
31

>  <SMILES>  (31) 
CC(C)[C@H]([N-]C(=O)n1c(C(N)=O)cc2ccc(CC=O)cc21)C(=O)C(F)(F)F

>  <Energy>  (31) 
75.93769058498327

>  <Genealogy>  (31) 
CC(C)C([N-]C(=O)n1c(C(N)=O)cc2ccc(CC=O)cc21)C(=O)C(F)(F)F (protonated)
CC(C)[C@H]([N-]C(=O)n1c(C(N)=O)cc2ccc(CC=O)cc21)C(=O)C(F)(F)F (chirality)
CC(C)[C@H]([N-]C(=O)n1c(C(N)=O)cc2ccc(CC=O)cc21)C(=O)C(F)(F)F (3D coordinates assigned)
CC(C)[C@H]([N-]C(=O)n1c(C(N)=O)cc2ccc(CC=O)cc21)C(=O)C(F)(F)F (optimized conformer: 75.93769058498327 kcal/mol)

>  <smiles>  (31) 
CC(C)C(NC(=O)n1c(C(N)=O)cc2ccc(CC=O)cc21)C(=O)C(F)(F)F

>  <score_type>  (31) 
oracle

>  <origin>  (31) 
adg

>  <m_score__min__energy>  (31) 
-9.7599999999999998

>  <m_primary>  (31) 
energy

$$$$
31:0
     RDKit          3D

 60 62  0  0  0  0  0  0  0  0999 V2000
   -2.6640   24.6070  -27.6090 C   0  0  0  0  0  0  0  0  0  0  0  0
   -2.0310   24.5350  -28.8690 O   0  0  0  0  0  0  0  0  0  0  0  0
   -1.4170   23.2730  -29.0980 C   0  0  0  0  0  0  0  0  0  0  0  0
   -0.1070   23.3890  -29.5530 F   0  0  0  0  0  0  0  0  0  0  0  0
   -1.3610   22.6030  -27.8890 F   0  0  0  0  0  0  0  0  0  0  0  0
   -2.2280   22.4140  -30.0950 C   0  0  0  0  0  0  0  0  0  0  0  0
   -1.5550   21.2160  -30.2720 F   0  0  0  0  0  0  0  0  0  0  0  0
   -2.2840   23.0410  -31.3240 F   0  0  0  0  0  0  0  0  0  0  0  0
   -3.6360   22.1050  -29.6370 C   0  0  0  0  0  0  0  0  0  0  0  0
   -3.8180   21.6420  -28.4790 O   0  0  0  0  0  0  0  0  0  0  0  0
   -4.7750   22.3290  -30.4790 N   0  0  0  0  0  0  0  0  0  0  0  0
   -5.4270   23.5000  -30.7230 C   0  0  0  0  0  0  0  0  0  0  0  0
   -5.0730   24.8140  -30.1540 C   0  0  0  0  0  0  0  0  0  0  0  0
   -3.9870   25.5580  -30.7020 N   0  0  0  0  0  0  0  0  0  0  0  0
   -5.7140   25.2830  -29.1800 O   0  0  0  0  0  0  0  0  0  0  0  0
   -6.4780   23.2920  -31.6140 C   0  0  0  0  0  0  0  0  0  0  0  0
   -6.4310   21.9500  -31.9260 C   0  0  0  0  0  0  0  0  0  0  0  0
   -7.2370   21.1930  -32.7710 C   0  0  0  0  0  0  0  0  0  0  0  0
   -6.9480   19.8240  -32.9100 C   0  0  0  0  0  0  0  0  0  0  0  0
   -5.8670   19.2360  -32.2010 C   0  0  0  0  0  0  0  0  0  0  0  0
   -5.5710   17.8310  -32.3470 N   0  0  0  0  0  0  0  0  0  0  0  0
   -6.3590   17.2210  -33.4400 C   0  0  0  0  0  0  0  0  0  0  0  0
   -6.0170   15.7320  -33.6570 C   0  0  0  0  0  0  0  0  0  0  0  0
   -4.7040   15.3920  -33.0840 N   0  0  0  0  0  0  0  0  0  0  0  0
   -4.6090   14.5680  -31.8750 C   0  0  0  0  0  0  0  0  0  0  0  0
   -3.5000   15.9200  -33.6700 C   0  0  0  0  0  0  0  0  0  0  0  0
   -2.6080   15.1380  -34.1000 O   0  0  0  0  0  0  0  0  0  0  0  0
   -3.3190   17.3040  -33.7600 O   0  0  0  0  0  0  0  0  0  0  0  0
   -2.0440   17.9390  -33.6780 C   0  0  0  0  0  0  0  0  0  0  0  0
   -2.1830   19.4240  -33.5510 C   0  0  0  0  0  0  0  0  0  0  0  0
   -3.3120   20.0780  -33.6820 O   0  0  0  0  0  0  0  0  0  0  0  0
   -3.0170   21.3410  -33.4800 C   0  0  0  0  0  0  0  0  0  0  0  0
   -3.8670   22.2670  -33.5130 O   0  0  0  0  0  0  0  0  0  0  0  0
   -1.7440   21.5320  -33.2260 O   0  0  0  0  0  0  0  0  0  0  0  0
   -1.1910   20.3450  -33.2610 C   0  0  0  0  0  0  0  0  0  0  0  0
    0.2530   20.0700  -33.0050 C   0  0  0  0  0  0  0  0  0  0  0  0
   -5.0780   20.0370  -31.3430 C   0  0  0  0  0  0  0  0  0  0  0  0
   -5.3890   21.3960  -31.2330 C   0  0  0  0  0  0  0  0  0  0  0  0
   -1.9088   24.5211  -26.8138 H   0  0  0  0  0  0  0  0  0  0  0  0
   -3.1867   25.5704  -27.5158 H   0  0  0  0  0  0  0  0  0  0  0  0
   -3.3897   23.7856  -27.5158 H   0  0  0  0  0  0  0  0  0  0  0  0
   -3.0010   25.2930  -30.5060 H   0  0  0  0  0  0  0  0  0  0  0  0
   -7.1929   24.0394  -31.9886 H   0  0  0  0  0  0  0  0  0  0  0  0
   -8.0759   21.6523  -33.3144 H   0  0  0  0  0  0  0  0  0  0  0  0
   -7.5655   19.2020  -33.5747 H   0  0  0  0  0  0  0  0  0  0  0  0
   -4.5460   17.6920  -32.4920 H   0  0  0  0  0  0  0  0  0  0  0  0
   -5.8080   17.3420  -31.4530 H   0  0  0  0  0  0  0  0  0  0  0  0
   -7.4277   17.3049  -33.1934 H   0  0  0  0  0  0  0  0  0  0  0  0
   -6.1140   17.7583  -34.3680 H   0  0  0  0  0  0  0  0  0  0  0  0
   -6.7886   15.1139  -33.1748 H   0  0  0  0  0  0  0  0  0  0  0  0
   -5.9820   15.5396  -34.7395 H   0  0  0  0  0  0  0  0  0  0  0  0
   -4.6832   15.2115  -30.9859 H   0  0  0  0  0  0  0  0  0  0  0  0
   -5.4285   13.8343  -31.8660 H   0  0  0  0  0  0  0  0  0  0  0  0
   -3.6440   14.0400  -31.8660 H   0  0  0  0  0  0  0  0  0  0  0  0
   -1.5073   17.5529  -32.7989 H   0  0  0  0  0  0  0  0  0  0  0  0
   -1.4872   17.7201  -34.6011 H   0  0  0  0  0  0  0  0  0  0  0  0
    0.4331   20.0357  -31.9204 H   0  0  0  0  0  0  0  0  0  0  0  0
    0.5272   19.1035  -33.4529 H   0  0  0  0  0  0  0  0  0  0  0  0
    0.8633   20.8681  -33.4529 H   0  0  0  0  0  0  0  0  0  0  0  0
   -4.2412   19.6022  -30.7767 H   0  0  0  0  0  0  0  0  0  0  0  0
  1  2  1  0
  2  3  1  0
  3  4  1  0
  3  5  1  0
  3  6  1  0
  6  7  1  0
  6  8  1  0
  6  9  1  0
  9 10  2  0
  9 11  1  0
 11 12  1  0
 12 13  1  0
 13 14  1  0
 13 15  2  0
 12 16  2  0
 16 17  1  0
 17 18  2  0
 18 19  1  0
 19 20  2  0
 20 21  1  0
 21 22  1  0
 22 23  1  0
 23 24  1  0
 24 25  1  0
 24 26  1  0
 26 27  2  0
 26 28  1  0
 28 29  1  0
 29 30  1  0
 30 31  1  0
 31 32  1  0
 32 33  2  0
 32 34  1  0
 34 35  1  0
 35 36  1  0
 20 37  1  0
 37 38  2  0
 38 11  1  0
 38 17  1  0
 35 30  2  0
  1 39  1  0
  1 40  1  0
  1 41  1  0
 14 42  1  0
 16 43  1  0
 18 44  1  0
 19 45  1  0
 21 46  1  0
 21 47  1  0
 22 48  1  0
 22 49  1  0
 23 50  1  0
 23 51  1  0
 25 52  1  0
 25 53  1  0
 25 54  1  0
 29 55  1  0
 29 56  1  0
 36 57  1  0
 36 58  1  0
 36 59  1  0
 37 60  1  0
M  CHG  2  14  -1  21   1
M  END
>  <UniqueID>  (32) 
32

>  <SMILES>  (32) 
COC(F)(F)C(F)(F)C(=O)n1c(C([NH-])=O)cc2ccc([NH2+]CCN(C)C(=O)OCc3oc(=O)oc3C)cc21

>  <Energy>  (32) 
134.43141345550055

>  <Genealogy>  (32) 
COC(F)(F)C(F)(F)C(=O)n1c(C([NH-])=O)cc2ccc([NH2+]CCN(C)C(=O)OCc3oc(=O)oc3C)cc21 (protonated)
COC(F)(F)C(F)(F)C(=O)n1c(C([NH-])=O)cc2ccc([NH2+]CCN(C)C(=O)OCc3oc(=O)oc3C)cc21 (3D coordinates assigned)
COC(F)(F)C(F)(F)C(=O)n1c(C([NH-])=O)cc2ccc([NH2+]CCN(C)C(=O)OCc3oc(=O)oc3C)cc21 (optimized conformer: 134.43141345550055 kcal/mol)

>  <smiles>  (32) 
COC(F)(F)C(F)(F)C(=O)n1c(C(N)=O)cc2ccc(NCCN(C)C(=O)OCc3oc(=O)oc3C)cc21

>  <score_type>  (32) 
oracle

>  <origin>  (32) 
adg

>  <m_score__min__energy>  (32) 
-9.4399999999999995

>  <m_primary>  (32) 
energy

$$$$
32:0
     RDKit          3D

 46 48  0  0  0  0  0  0  0  0999 V2000
   -6.8360   24.1170  -31.0450 C   0  0  0  0  0  0  0  0  0  0  0  0
   -6.4910   24.6740  -29.7960 O   0  0  0  0  0  0  0  0  0  0  0  0
   -5.3620   24.0040  -29.2820 C   0  0  0  0  0  0  0  0  0  0  0  0
   -4.1920   24.2770  -30.1750 C   0  0  0  0  0  0  0  0  0  0  0  0
   -4.1160   25.3810  -30.7780 O   0  0  0  0  0  0  0  0  0  0  0  0
   -3.2080   23.2630  -30.4240 N   0  0  0  0  0  0  0  0  0  0  0  0
   -1.9100   23.2330  -30.0100 C   0  0  0  0  0  0  0  0  0  0  0  0
   -1.2070   24.3190  -29.2960 C   0  0  0  0  0  0  0  0  0  0  0  0
   -1.8980   25.5270  -28.9840 N   0  0  0  0  0  0  0  0  0  0  0  0
   -0.0090   24.1830  -28.9350 O   0  0  0  0  0  0  0  0  0  0  0  0
   -1.2990   22.0490  -30.4170 C   0  0  0  0  0  0  0  0  0  0  0  0
   -2.2710   21.3550  -31.1040 C   0  0  0  0  0  0  0  0  0  0  0  0
   -2.2180   20.1150  -31.7220 C   0  0  0  0  0  0  0  0  0  0  0  0
   -3.3820   19.6360  -32.3460 C   0  0  0  0  0  0  0  0  0  0  0  0
   -4.5930   20.3950  -32.3480 C   0  0  0  0  0  0  0  0  0  0  0  0
   -5.8800   19.8840  -33.0220 C   0  0  0  0  0  0  0  0  0  0  0  0
   -7.1700   20.7500  -32.9220 C   0  0  0  0  0  0  0  0  0  0  0  0
   -8.0950   20.2950  -31.8520 N   0  0  0  0  0  0  0  0  0  0  0  0
   -9.1020   19.3540  -32.3730 C   0  0  0  0  0  0  0  0  0  0  0  0
   -8.7640   21.4310  -31.1970 C   0  0  0  0  0  0  0  0  0  0  0  0
   -5.7080   19.0610  -34.3030 C   0  0  0  0  0  0  0  0  0  0  0  0
   -6.0960   18.3680  -32.9980 C   0  0  0  0  0  0  0  0  0  0  0  0
   -4.5880   21.6590  -31.6970 C   0  0  0  0  0  0  0  0  0  0  0  0
   -3.4100   22.1110  -31.0960 C   0  0  0  0  0  0  0  0  0  0  0  0
   -7.4093   23.1914  -30.8879 H   0  0  0  0  0  0  0  0  0  0  0  0
   -7.4474   24.8355  -31.6106 H   0  0  0  0  0  0  0  0  0  0  0  0
   -5.9203   23.8896  -31.6106 H   0  0  0  0  0  0  0  0  0  0  0  0
   -5.1457   24.3689  -28.2671 H   0  0  0  0  0  0  0  0  0  0  0  0
   -5.5561   22.9221  -29.2399 H   0  0  0  0  0  0  0  0  0  0  0  0
   -2.8900   25.6680  -29.2760 H   0  0  0  0  0  0  0  0  0  0  0  0
   -0.2615   21.7351  -30.2298 H   0  0  0  0  0  0  0  0  0  0  0  0
   -1.2909   19.5231  -31.7237 H   0  0  0  0  0  0  0  0  0  0  0  0
   -3.3609   18.6554  -32.8439 H   0  0  0  0  0  0  0  0  0  0  0  0
   -6.8784   21.7900  -32.7140 H   0  0  0  0  0  0  0  0  0  0  0  0
   -7.7036   20.6559  -33.8793 H   0  0  0  0  0  0  0  0  0  0  0  0
   -9.6205   18.8695  -31.5326 H   0  0  0  0  0  0  0  0  0  0  0  0
   -9.8318   19.9012  -32.9877 H   0  0  0  0  0  0  0  0  0  0  0  0
   -8.6054   18.5888  -32.9877 H   0  0  0  0  0  0  0  0  0  0  0  0
   -8.6965   21.3163  -30.1051 H   0  0  0  0  0  0  0  0  0  0  0  0
   -8.2738   22.3685  -31.4982 H   0  0  0  0  0  0  0  0  0  0  0  0
   -9.8216   21.4570  -31.4982 H   0  0  0  0  0  0  0  0  0  0  0  0
   -6.4422   19.1511  -35.1171 H   0  0  0  0  0  0  0  0  0  0  0  0
   -4.9037   18.9323  -35.0423 H   0  0  0  0  0  0  0  0  0  0  0  0
   -7.1095   17.9591  -32.8730 H   0  0  0  0  0  0  0  0  0  0  0  0
   -5.6864   17.5339  -32.4094 H   0  0  0  0  0  0  0  0  0  0  0  0
   -5.4999   22.2735  -31.6668 H   0  0  0  0  0  0  0  0  0  0  0  0
  1  2  1  0
  2  3  1  0
  3  4  1  0
  4  5  2  0
  4  6  1  0
  6  7  1  0
  7  8  1  0
  8  9  1  0
  8 10  2  0
  7 11  2  0
 11 12  1  0
 12 13  2  0
 13 14  1  0
 14 15  2  0
 15 16  1  0
 16 17  1  0
 17 18  1  0
 18 19  1  0
 18 20  1  0
 16 21  1  0
 21 22  1  0
 15 23  1  0
 23 24  2  0
 24  6  1  0
 24 12  1  0
 22 16  1  0
  1 25  1  0
  1 26  1  0
  1 27  1  0
  3 28  1  0
  3 29  1  0
  9 30  1  0
 11 31  1  0
 13 32  1  0
 14 33  1  0
 17 34  1  0
 17 35  1  0
 19 36  1  0
 19 37  1  0
 19 38  1  0
 20 39  1  0
 20 40  1  0
 20 41  1  0
 21 42  1  0
 21 43  1  0
 22 44  1  0
 22 45  1  0
 23 46  1  0
M  CHG  1   9  -1
M  END
>  <UniqueID>  (33) 
33

>  <SMILES>  (33) 
COCC(=O)n1c(C([NH-])=O)cc2ccc(C3(CN(C)C)CC3)cc21

>  <Energy>  (33) 
363.4564316001904

>  <Genealogy>  (33) 
COCC(=O)n1c(C([NH-])=O)cc2ccc(C3(CN(C)C)CC3)cc21 (protonated)
COCC(=O)n1c(C([NH-])=O)cc2ccc(C3(CN(C)C)CC3)cc21 (3D coordinates assigned)
COCC(=O)n1c(C([NH-])=O)cc2ccc(C3(CN(C)C)CC3)cc21 (nonaromatic ring conformer: 363.4564316001904 kcal/mol)

>  <smiles>  (33) 
COCC(=O)n1c(C(N)=O)cc2ccc(C3(CN(C)C)CC3)cc21

>  <score_type>  (33) 
oracle

>  <origin>  (33) 
adg

>  <m_score__min__energy>  (33) 
-10.75

>  <m_primary>  (33) 
energy

$$$$
33:0
     RDKit          3D

 48 49  0  0  0  0  0  0  0  0999 V2000
   -6.3370   14.8990  -34.2610 C   0  0  0  0  0  0  0  0  0  0  0  0
   -6.0690   16.2940  -33.8710 N   0  0  0  0  0  0  0  0  0  0  0  0
   -5.0280   16.8580  -34.7480 C   0  0  0  0  0  0  0  0  0  0  0  0
   -5.6650   16.3490  -32.4460 C   0  0  0  0  0  0  0  0  0  0  0  0
   -6.4660   17.4060  -31.6650 C   0  0  0  0  0  0  0  0  0  0  0  0
   -7.0790   18.3980  -32.5520 N   0  0  0  0  0  0  0  0  0  0  0  0
   -7.2840   19.7710  -32.1750 C   0  0  0  0  0  0  0  0  0  0  0  0
   -8.5610   20.3870  -32.2750 C   0  0  0  0  0  0  0  0  0  0  0  0
   -8.7390   21.7310  -31.9070 C   0  0  0  0  0  0  0  0  0  0  0  0
   -7.6290   22.4380  -31.4540 C   0  0  0  0  0  0  0  0  0  0  0  0
   -7.5270   23.7400  -31.0250 C   0  0  0  0  0  0  0  0  0  0  0  0
   -6.1860   23.9150  -30.6920 C   0  0  0  0  0  0  0  0  0  0  0  0
   -5.6190   25.2120  -30.2720 C   0  0  0  0  0  0  0  0  0  0  0  0
   -6.1470   25.9180  -29.1490 N   0  0  0  0  0  0  0  0  0  0  0  0
   -4.6120   25.6720  -30.8740 O   0  0  0  0  0  0  0  0  0  0  0  0
   -5.4850   22.7620  -30.8900 N   0  0  0  0  0  0  0  0  0  0  0  0
   -4.1110   22.5100  -30.5430 C   0  0  0  0  0  0  0  0  0  0  0  0
   -3.2010   22.6930  -31.3970 O   0  0  0  0  0  0  0  0  0  0  0  0
   -3.7910   22.0470  -29.2610 O   0  0  0  0  0  0  0  0  0  0  0  0
   -3.3910   22.8940  -28.1840 C   0  0  0  0  0  0  0  0  0  0  0  0
   -2.2060   23.7890  -28.5810 C   0  0  2  0  0  0  0  0  0  0  0  0
   -2.6550   24.9160  -29.4010 N   0  0  0  0  0  0  0  0  0  0  0  0
   -1.2640   23.0350  -29.2990 O   0  0  0  0  0  0  0  0  0  0  0  0
   -6.3850   21.8660  -31.3620 C   0  0  0  0  0  0  0  0  0  0  0  0
   -6.1860   20.5210  -31.6960 C   0  0  0  0  0  0  0  0  0  0  0  0
   -6.4555   14.2821  -33.3580 H   0  0  0  0  0  0  0  0  0  0  0  0
   -7.2598   14.8560  -34.8581 H   0  0  0  0  0  0  0  0  0  0  0  0
   -5.4958   14.5171  -34.8581 H   0  0  0  0  0  0  0  0  0  0  0  0
   -4.2262   17.2924  -34.1329 H   0  0  0  0  0  0  0  0  0  0  0  0
   -4.6125   16.0616  -35.3829 H   0  0  0  0  0  0  0  0  0  0  0  0
   -5.4682   17.6410  -35.3829 H   0  0  0  0  0  0  0  0  0  0  0  0
   -5.8363   15.3632  -31.9891 H   0  0  0  0  0  0  0  0  0  0  0  0
   -4.6012   16.6255  -32.4027 H   0  0  0  0  0  0  0  0  0  0  0  0
   -7.2599   16.9004  -31.0956 H   0  0  0  0  0  0  0  0  0  0  0  0
   -5.7698   17.9333  -30.9962 H   0  0  0  0  0  0  0  0  0  0  0  0
   -7.4300   18.0910  -33.4880 H   0  0  0  0  0  0  0  0  0  0  0  0
   -9.4186   19.8055  -32.6443 H   0  0  0  0  0  0  0  0  0  0  0  0
   -9.7266   22.2105  -31.9749 H   0  0  0  0  0  0  0  0  0  0  0  0
   -8.3333   24.4854  -30.9588 H   0  0  0  0  0  0  0  0  0  0  0  0
   -5.7540   26.8470  -28.8820 H   0  0  0  0  0  0  0  0  0  0  0  0
   -6.8740   25.4880  -28.5380 H   0  0  0  0  0  0  0  0  0  0  0  0
   -4.2399   23.5317  -27.8966 H   0  0  0  0  0  0  0  0  0  0  0  0
   -3.0766   22.2580  -27.3434 H   0  0  0  0  0  0  0  0  0  0  0  0
   -1.7468   24.1838  -27.6627 H   0  0  0  0  0  0  0  0  0  0  0  0
   -3.5570   25.2790  -29.0120 H   0  0  0  0  0  0  0  0  0  0  0  0
   -2.8480   24.5760  -30.3720 H   0  0  0  0  0  0  0  0  0  0  0  0
   -1.7810   22.3700  -29.8290 H   0  0  0  0  0  0  0  0  0  0  0  0
   -5.1945   20.0571  -31.5877 H   0  0  0  0  0  0  0  0  0  0  0  0
  1  2  1  0
  2  3  1  0
  2  4  1  0
  4  5  1  0
  5  6  1  0
  6  7  1  0
  7  8  2  0
  8  9  1  0
  9 10  2  0
 10 11  1  0
 11 12  2  0
 12 13  1  0
 13 14  1  0
 13 15  2  0
 12 16  1  0
 16 17  1  0
 17 18  2  0
 17 19  1  0
 19 20  1  0
 20 21  1  0
 21 22  1  0
 21 23  1  0
 16 24  1  0
 24 25  2  0
 25  7  1  0
 24 10  1  0
  1 26  1  0
  1 27  1  0
  1 28  1  0
  3 29  1  0
  3 30  1  0
  3 31  1  0
  4 32  1  0
  4 33  1  0
  5 34  1  0
  5 35  1  0
  6 36  1  0
  8 37  1  0
  9 38  1  0
 11 39  1  0
 14 40  1  0
 14 41  1  0
 20 42  1  0
 20 43  1  0
 21 44  1  1
 22 45  1  0
 22 46  1  0
 23 47  1  0
 25 48  1  0
M  END
>  <UniqueID>  (34) 
34

>  <SMILES>  (34) 
CN(C)CCNc1ccc2cc(C(N)=O)n(C(=O)OC[C@H](N)O)c2c1

>  <Energy>  (34) 
83.19422059747

>  <Genealogy>  (34) 
CN(C)CCNc1ccc2cc(C(N)=O)n(C(=O)OC[C@H](N)O)c2c1 (chirality)
CN(C)CCNc1ccc2cc(C(N)=O)n(C(=O)OC[C@H](N)O)c2c1 (3D coordinates assigned)
CN(C)CCNc1ccc2cc(C(N)=O)n(C(=O)OC[C@H](N)O)c2c1 (optimized conformer: 83.19422059747 kcal/mol)

>  <smiles>  (34) 
CN(C)CCNc1ccc2cc(C(N)=O)n(C(=O)OCC(N)O)c2c1

>  <score_type>  (34) 
oracle

>  <origin>  (34) 
adg

>  <m_score__min__energy>  (34) 
-8.0099999999999998

>  <m_primary>  (34) 
energy

$$$$
34:0
     RDKit          3D

 84 90  0  0  0  0  0  0  0  0999 V2000
    0.8800   16.0560  -34.8150 C   0  0  0  0  0  0  0  0  0  0  0  0
    1.3490   16.9430  -33.7370 N   0  0  0  0  0  0  0  0  0  0  0  0
    2.6940   17.4460  -34.0600 C   0  0  0  0  0  0  0  0  0  0  0  0
    1.3420   16.2390  -32.4330 C   0  0  0  0  0  0  0  0  0  0  0  0
    1.5340   17.2430  -31.2880 C   0  0  0  0  0  0  0  0  0  0  0  0
    0.2170   17.4610  -30.5130 C   0  0  0  0  0  0  0  0  0  0  0  0
   -0.5500   18.7690  -30.8560 C   0  0  1  0  0  0  0  0  0  0  0  0
   -0.4960   19.8650  -29.7950 C   0  0  0  0  0  0  0  0  0  0  0  0
    0.2740   19.7560  -28.6030 C   0  0  0  0  0  0  0  0  0  0  0  0
    0.3580   20.8260  -27.6990 C   0  0  0  0  0  0  0  0  0  0  0  0
   -0.3540   21.9810  -27.9860 C   0  0  0  0  0  0  0  0  0  0  0  0
   -0.4110   23.1740  -27.3050 C   0  0  0  0  0  0  0  0  0  0  0  0
   -1.2570   23.9850  -28.0550 C   0  0  0  0  0  0  0  0  0  0  0  0
   -1.4940   25.4090  -27.7500 C   0  0  0  0  0  0  0  0  0  0  0  0
   -1.2460   26.4000  -28.7450 N   0  0  0  0  0  0  0  0  0  0  0  0
   -1.9670   25.7540  -26.6330 O   0  0  0  0  0  0  0  0  0  0  0  0
   -1.7160   23.3170  -29.1530 N   0  0  0  0  0  0  0  0  0  0  0  0
   -2.7170   23.7490  -30.0890 C   0  0  0  0  0  0  0  0  0  0  0  0
   -3.1170   24.9440  -30.0810 O   0  0  0  0  0  0  0  0  0  0  0  0
   -3.2530   22.8220  -31.0380 N   0  0  0  0  0  0  0  0  0  0  0  0
   -4.6450   22.6510  -31.3330 C   0  0  0  0  0  0  0  0  0  0  0  0
   -5.4540   23.8000  -31.4890 C   0  0  0  0  0  0  0  0  0  0  0  0
   -6.8400   23.6740  -31.7020 C   0  0  0  0  0  0  0  0  0  0  0  0
   -7.3790   22.3900  -31.7340 C   0  0  0  0  0  0  0  0  0  0  0  0
   -6.6110   21.2830  -31.5750 C   0  0  0  0  0  0  0  0  0  0  0  0
   -5.2360   21.3650  -31.3710 C   0  0  0  0  0  0  0  0  0  0  0  0
   -7.4110   20.1560  -31.6160 O   0  0  0  0  0  0  0  0  0  0  0  0
   -8.7660   20.5810  -31.8140 C   0  0  0  0  0  0  0  0  0  0  0  0
   -8.7000   22.0140  -31.8900 O   0  0  0  0  0  0  0  0  0  0  0  0
   -1.1400   22.0950  -29.1010 C   0  0  0  0  0  0  0  0  0  0  0  0
   -1.2450   21.0440  -30.0170 C   0  0  0  0  0  0  0  0  0  0  0  0
   -0.3380   19.2190  -32.3120 C   0  0  0  0  0  0  0  0  0  0  0  0
    0.7310   20.1160  -32.5310 C   0  0  0  0  0  0  0  0  0  0  0  0
    0.9990   20.6340  -33.7980 C   0  0  0  0  0  0  0  0  0  0  0  0
    0.2060   20.2800  -34.8940 C   0  0  0  0  0  0  0  0  0  0  0  0
    0.5040   20.8200  -36.2400 C   0  0  0  0  0  0  0  0  0  0  0  0
    0.5930   20.0470  -37.2320 O   0  0  0  0  0  0  0  0  0  0  0  0
    0.6900   22.1870  -36.4270 O   0  0  0  0  0  0  0  0  0  0  0  0
   -0.8670   19.4000  -34.6990 C   0  0  0  0  0  0  0  0  0  0  0  0
   -1.1510   18.8610  -33.4330 C   0  0  0  0  0  0  0  0  0  0  0  0
   -2.2500   17.8760  -33.3770 C   0  0  0  0  0  0  0  0  0  0  0  0
   -2.0180   16.5260  -33.0540 C   0  0  0  0  0  0  0  0  0  0  0  0
   -3.0540   15.6190  -32.9980 N   0  0  0  0  0  0  0  0  0  0  0  0
   -2.7580   14.2060  -32.7480 C   0  0  0  0  0  0  0  0  0  0  0  0
   -4.3520   16.0220  -33.2160 C   0  0  0  0  0  0  0  0  0  0  0  0
   -5.3040   15.1960  -33.1860 O   0  0  0  0  0  0  0  0  0  0  0  0
   -4.6010   17.3680  -33.4740 C   0  0  0  0  0  0  0  0  0  0  0  0
   -5.7830   17.9630  -33.7090 N   0  0  0  0  0  0  0  0  0  0  0  0
   -5.5040   19.2670  -33.9230 C   0  0  0  0  0  0  0  0  0  0  0  0
   -4.1360   19.4990  -33.8270 C   0  0  0  0  0  0  0  0  0  0  0  0
   -3.5790   18.2680  -33.5430 C   0  0  0  0  0  0  0  0  0  0  0  0
    0.4084   15.1641  -34.3768 H   0  0  0  0  0  0  0  0  0  0  0  0
    0.1467   16.5905  -35.4367 H   0  0  0  0  0  0  0  0  0  0  0  0
    1.7346   15.7509  -35.4367 H   0  0  0  0  0  0  0  0  0  0  0  0
    3.2422   17.6510  -33.1287 H   0  0  0  0  0  0  0  0  0  0  0  0
    3.2371   16.6902  -34.6464 H   0  0  0  0  0  0  0  0  0  0  0  0
    2.6079   18.3727  -34.6464 H   0  0  0  0  0  0  0  0  0  0  0  0
    0.3801   15.7211  -32.3048 H   0  0  0  0  0  0  0  0  0  0  0  0
    2.1660   15.5105  -32.4138 H   0  0  0  0  0  0  0  0  0  0  0  0
    2.2980   16.8577  -30.5967 H   0  0  0  0  0  0  0  0  0  0  0  0
    1.8504   18.2054  -31.7167 H   0  0  0  0  0  0  0  0  0  0  0  0
   -0.4479   16.6114  -30.7280 H   0  0  0  0  0  0  0  0  0  0  0  0
    0.4993   17.5443  -29.4531 H   0  0  0  0  0  0  0  0  0  0  0  0
   -1.6152   18.4987  -30.8072 H   0  0  0  0  0  0  0  0  0  0  0  0
    0.8106   18.8203  -28.3874 H   0  0  0  0  0  0  0  0  0  0  0  0
    0.9710   20.7508  -26.7888 H   0  0  0  0  0  0  0  0  0  0  0  0
    0.1027   23.4323  -26.3672 H   0  0  0  0  0  0  0  0  0  0  0  0
   -1.2300   26.1550  -29.7600 H   0  0  0  0  0  0  0  0  0  0  0  0
   -4.9972   24.7996  -31.4436 H   0  0  0  0  0  0  0  0  0  0  0  0
   -7.4765   24.5607  -31.8387 H   0  0  0  0  0  0  0  0  0  0  0  0
   -4.6272   20.4578  -31.2432 H   0  0  0  0  0  0  0  0  0  0  0  0
   -9.1696   20.1627  -32.7479 H   0  0  0  0  0  0  0  0  0  0  0  0
   -9.4278   20.2407  -31.0039 H   0  0  0  0  0  0  0  0  0  0  0  0
   -1.8998   21.1327  -30.8964 H   0  0  0  0  0  0  0  0  0  0  0  0
    1.3663   20.4126  -31.6834 H   0  0  0  0  0  0  0  0  0  0  0  0
    1.8418   21.3273  -33.9363 H   0  0  0  0  0  0  0  0  0  0  0  0
   -1.5004   19.1254  -35.5554 H   0  0  0  0  0  0  0  0  0  0  0  0
   -0.9924   16.1891  -32.8427 H   0  0  0  0  0  0  0  0  0  0  0  0
   -2.7202   14.0256  -31.6636 H   0  0  0  0  0  0  0  0  0  0  0  0
   -3.5448   13.5816  -33.1964 H   0  0  0  0  0  0  0  0  0  0  0  0
   -1.7867   13.9499  -33.1964 H   0  0  0  0  0  0  0  0  0  0  0  0
   -6.7240   17.5130  -33.7380 H   0  0  0  0  0  0  0  0  0  0  0  0
   -6.2555   20.0395  -34.1430 H   0  0  0  0  0  0  0  0  0  0  0  0
   -3.6106   20.4575  -33.9508 H   0  0  0  0  0  0  0  0  0  0  0  0
  1  2  1  0
  2  3  1  0
  2  4  1  0
  4  5  1  0
  5  6  1  0
  6  7  1  0
  7  8  1  0
  8  9  2  0
  9 10  1  0
 10 11  2  0
 11 12  1  0
 12 13  2  0
 13 14  1  0
 14 15  1  0
 14 16  2  0
 13 17  1  0
 17 18  1  0
 18 19  2  0
 18 20  1  0
 20 21  1  0
 21 22  2  0
 22 23  1  0
 23 24  2  0
 24 25  1  0
 25 26  2  0
 25 27  1  0
 27 28  1  0
 28 29  1  0
 17 30  1  0
 30 31  2  0
  7 32  1  0
 32 33  2  0
 33 34  1  0
 34 35  2  0
 35 36  1  0
 36 37  2  0
 36 38  1  0
 35 39  1  0
 39 40  2  0
 40 41  1  0
 41 42  2  0
 42 43  1  0
 43 44  1  0
 43 45  1  0
 45 46  2  0
 45 47  1  0
 47 48  1  0
 48 49  1  0
 49 50  2  0
 50 51  1  0
 31  8  1  0
 40 32  1  0
 51 41  1  0
 30 11  1  0
 51 47  2  0
 26 21  1  0
 29 24  1  0
  1 52  1  0
  1 53  1  0
  1 54  1  0
  3 55  1  0
  3 56  1  0
  3 57  1  0
  4 58  1  0
  4 59  1  0
  5 60  1  0
  5 61  1  0
  6 62  1  0
  6 63  1  0
  7 64  1  6
  9 65  1  0
 10 66  1  0
 12 67  1  0
 15 68  1  0
 22 69  1  0
 23 70  1  0
 26 71  1  0
 28 72  1  0
 28 73  1  0
 31 74  1  0
 33 75  1  0
 34 76  1  0
 39 77  1  0
 42 78  1  0
 44 79  1  0
 44 80  1  0
 44 81  1  0
 48 82  1  0
 49 83  1  0
 50 84  1  0
M  CHG  3  15  -1  20  -1  38  -1
M  END
>  <UniqueID>  (35) 
35

>  <SMILES>  (35) 
CN(C)CCC[C@@H](c1ccc2cc(C([NH-])=O)n(C(=O)[N-]c3ccc4c(c3)OCO4)c2c1)c1ccc(C(=O)[O-])cc1-c1cn(C)c(=O)c2[nH]ccc12

>  <Energy>  (35) 
210.43367354806446

>  <Genealogy>  (35) 
CN(C)CCCC(c1ccc2cc(C([NH-])=O)n(C(=O)[N-]c3ccc4c(c3)OCO4)c2c1)c1ccc(C(=O)[O-])cc1-c1cn(C)c(=O)c2[nH]ccc12 (protonated)
CN(C)CCC[C@@H](c1ccc2cc(C([NH-])=O)n(C(=O)[N-]c3ccc4c(c3)OCO4)c2c1)c1ccc(C(=O)[O-])cc1-c1cn(C)c(=O)c2[nH]ccc12 (chirality)
CN(C)CCC[C@@H](c1ccc2cc(C([NH-])=O)n(C(=O)[N-]c3ccc4c(c3)OCO4)c2c1)c1ccc(C(=O)[O-])cc1-c1cn(C)c(=O)c2[nH]ccc12 (3D coordinates assigned)
CN(C)CCC[C@@H](c1ccc2cc(C([NH-])=O)n(C(=O)[N-]c3ccc4c(c3)OCO4)c2c1)c1ccc(C(=O)[O-])cc1-c1cn(C)c(=O)c2[nH]ccc12 (nonaromatic ring conformer: 210.43367354806446 kcal/mol)

>  <smiles>  (35) 
CN(C)CCCC(c1ccc2cc(C(N)=O)n(C(=O)Nc3ccc4c(c3)OCO4)c2c1)c1ccc(C(=O)O)cc1-c1cn(C)c(=O)c2[nH]ccc12

>  <score_type>  (35) 
oracle

>  <origin>  (35) 
adg

>  <m_score__min__energy>  (35) 
-14.4

>  <m_primary>  (35) 
energy

$$$$
35:0
     RDKit          3D

 38 40  0  0  0  0  0  0  0  0999 V2000
   -1.5980   25.9510  -28.9700 N   0  0  0  0  0  0  0  0  0  0  0  0
   -0.9300   24.6980  -28.8460 C   0  0  0  0  0  0  0  0  0  0  0  0
    0.0670   24.6040  -28.0810 O   0  0  0  0  0  0  0  0  0  0  0  0
   -1.3620   23.5260  -29.6340 C   0  0  0  0  0  0  0  0  0  0  0  0
   -0.5160   22.4740  -29.9810 C   0  0  0  0  0  0  0  0  0  0  0  0
   -1.2690   21.6510  -30.7880 C   0  0  0  0  0  0  0  0  0  0  0  0
   -0.9310   20.4590  -31.4190 C   0  0  0  0  0  0  0  0  0  0  0  0
   -1.9180   19.8150  -32.1830 C   0  0  0  0  0  0  0  0  0  0  0  0
   -3.2240   20.3620  -32.2980 C   0  0  0  0  0  0  0  0  0  0  0  0
   -4.2470   19.6600  -33.1120 C   0  0  0  0  0  0  0  0  0  0  0  0
   -3.9050   18.5240  -33.7810 N   0  0  0  0  0  0  0  0  0  0  0  0
   -4.8070   17.8480  -34.5370 C   0  0  0  0  0  0  0  0  0  0  0  0
   -6.1160   18.3150  -34.6360 C   0  0  0  0  0  0  0  0  0  0  0  0
   -6.4620   19.4710  -33.9400 C   0  0  0  0  0  0  0  0  0  0  0  0
   -5.5320   20.1220  -33.1900 N   0  0  0  0  0  0  0  0  0  0  0  0
   -3.5220   21.5840  -31.6490 C   0  0  0  0  0  0  0  0  0  0  0  0
   -2.5160   22.2040  -30.9020 C   0  0  0  0  0  0  0  0  0  0  0  0
   -2.5920   23.3520  -30.1940 N   0  0  0  0  0  0  0  0  0  0  0  0
   -3.7700   24.1510  -30.0100 C   0  0  0  0  0  0  0  0  0  0  0  0
   -3.8300   25.3020  -30.5190 O   0  0  0  0  0  0  0  0  0  0  0  0
   -4.9740   23.5880  -29.3080 C   0  0  0  0  0  0  0  0  0  0  0  0
   -6.2480   23.7650  -30.1420 C   0  0  0  0  0  0  0  0  0  0  0  0
   -6.3150   22.7930  -31.2820 C   0  0  0  0  0  0  0  0  0  0  0  0
   -5.9240   23.1300  -32.4300 O   0  0  0  0  0  0  0  0  0  0  0  0
   -6.7890   21.5040  -31.0700 O   0  0  0  0  0  0  0  0  0  0  0  0
   -2.6400   26.0090  -28.9410 H   0  0  0  0  0  0  0  0  0  0  0  0
    0.5310   22.3316  -29.6751 H   0  0  0  0  0  0  0  0  0  0  0  0
    0.0787   20.0333  -31.3228 H   0  0  0  0  0  0  0  0  0  0  0  0
   -1.6765   18.8742  -32.6994 H   0  0  0  0  0  0  0  0  0  0  0  0
   -4.5055   16.9342  -35.0700 H   0  0  0  0  0  0  0  0  0  0  0  0
   -6.8586   17.7835  -35.2492 H   0  0  0  0  0  0  0  0  0  0  0  0
   -7.4899   19.8586  -33.9969 H   0  0  0  0  0  0  0  0  0  0  0  0
   -5.8350   20.9660  -32.6560 H   0  0  0  0  0  0  0  0  0  0  0  0
   -4.5218   22.0353  -31.7305 H   0  0  0  0  0  0  0  0  0  0  0  0
   -4.8122   22.5152  -29.1268 H   0  0  0  0  0  0  0  0  0  0  0  0
   -5.1050   24.1313  -28.3605 H   0  0  0  0  0  0  0  0  0  0  0  0
   -7.1219   23.6103  -29.4920 H   0  0  0  0  0  0  0  0  0  0  0  0
   -6.2390   24.7812  -30.5631 H   0  0  0  0  0  0  0  0  0  0  0  0
  1  2  1  0
  2  3  2  0
  2  4  1  0
  4  5  2  0
  5  6  1  0
  6  7  2  0
  7  8  1  0
  8  9  2  0
  9 10  1  0
 10 11  2  0
 11 12  1  0
 12 13  2  0
 13 14  1  0
 14 15  2  0
  9 16  1  0
 16 17  2  0
 17 18  1  0
 18 19  1  0
 19 20  2  0
 19 21  1  0
 21 22  1  0
 22 23  1  0
 23 24  2  0
 23 25  1  0
 18  4  1  0
 17  6  1  0
 15 10  1  0
  1 26  1  0
  5 27  1  0
  7 28  1  0
  8 29  1  0
 12 30  1  0
 13 31  1  0
 14 32  1  0
 15 33  1  0
 16 34  1  0
 21 35  1  0
 21 36  1  0
 22 37  1  0
 22 38  1  0
M  CHG  3   1  -1  15   1  25  -1
M  END
>  <UniqueID>  (36) 
36

>  <SMILES>  (36) 
[NH-]C(=O)c1cc2ccc(-c3nccc[nH+]3)cc2n1C(=O)CCC(=O)[O-]

>  <Energy>  (36) 
80.19284937634778

>  <Genealogy>  (36) 
[NH-]C(=O)c1cc2ccc(-c3nccc[nH+]3)cc2n1C(=O)CCC(=O)[O-] (protonated)
[NH-]C(=O)c1cc2ccc(-c3nccc[nH+]3)cc2n1C(=O)CCC(=O)[O-] (3D coordinates assigned)
[NH-]C(=O)c1cc2ccc(-c3nccc[nH+]3)cc2n1C(=O)CCC(=O)[O-] (optimized conformer: 80.19284937634778 kcal/mol)

>  <smiles>  (36) 
NC(=O)c1cc2ccc(-c3ncccn3)cc2n1C(=O)CCC(=O)O

>  <score_type>  (36) 
oracle

>  <origin>  (36) 
adg

>  <m_score__min__energy>  (36) 
-12.720000000000001

>  <m_primary>  (36) 
energy

$$$$
36:0
     RDKit          3D

 39 41  0  0  0  0  0  0  0  0999 V2000
   -1.2640   22.8370  -27.2120 C   0  0  0  0  0  0  0  0  0  0  0  0
   -1.8960   23.5570  -28.4150 C   0  0  0  0  0  0  0  0  0  0  0  0
   -2.8280   22.6670  -29.2560 C   0  0  0  0  0  0  0  0  0  0  0  0
   -2.8750   23.1480  -30.5960 O   0  0  0  0  0  0  0  0  0  0  0  0
   -3.8190   22.7060  -31.5270 C   0  0  0  0  0  0  0  0  0  0  0  0
   -3.4440   22.1840  -32.6130 O   0  0  0  0  0  0  0  0  0  0  0  0
   -5.2190   22.8780  -31.2570 N   0  0  0  0  0  0  0  0  0  0  0  0
   -5.8520   24.0140  -30.8500 C   0  0  0  0  0  0  0  0  0  0  0  0
   -5.1950   25.2750  -30.4500 C   0  0  0  0  0  0  0  0  0  0  0  0
   -3.8780   25.5660  -30.9140 N   0  0  0  0  0  0  0  0  0  0  0  0
   -5.7980   26.1170  -29.7360 O   0  0  0  0  0  0  0  0  0  0  0  0
   -7.2290   23.8110  -30.7850 C   0  0  0  0  0  0  0  0  0  0  0  0
   -7.4220   22.5020  -31.1640 C   0  0  0  0  0  0  0  0  0  0  0  0
   -8.5990   21.7720  -31.2880 C   0  0  0  0  0  0  0  0  0  0  0  0
   -8.5070   20.4420  -31.7320 C   0  0  0  0  0  0  0  0  0  0  0  0
   -7.2500   19.8770  -32.0720 C   0  0  0  0  0  0  0  0  0  0  0  0
   -7.1550   18.4400  -32.5210 C   0  0  0  0  0  0  0  0  0  0  0  0
   -8.3830   17.8280  -32.3510 F   0  0  0  0  0  0  0  0  0  0  0  0
   -6.7950   18.3640  -33.8560 F   0  0  0  0  0  0  0  0  0  0  0  0
   -6.2040   17.7610  -31.7770 F   0  0  0  0  0  0  0  0  0  0  0  0
   -6.0740   20.6460  -31.9090 C   0  0  0  0  0  0  0  0  0  0  0  0
   -6.1950   21.9610  -31.4470 C   0  0  0  0  0  0  0  0  0  0  0  0
   -2.4810   24.9160  -28.0780 C   0  0  0  0  0  0  0  0  0  0  0  0
   -1.5230   25.5950  -28.8570 O   0  0  0  0  0  0  0  0  0  0  0  0
   -0.9160   24.3800  -29.2300 C   0  0  0  0  0  0  0  0  0  0  0  0
   -1.6485   23.2750  -26.2791 H   0  0  0  0  0  0  0  0  0  0  0  0
   -1.5207   21.7680  -27.2482 H   0  0  0  0  0  0  0  0  0  0  0  0
   -0.1707   22.9530  -27.2482 H   0  0  0  0  0  0  0  0  0  0  0  0
   -2.4487   21.6345  -29.2518 H   0  0  0  0  0  0  0  0  0  0  0  0
   -3.8399   22.6920  -28.8255 H   0  0  0  0  0  0  0  0  0  0  0  0
   -3.0410   25.2970  -30.3530 H   0  0  0  0  0  0  0  0  0  0  0  0
   -7.9980   24.5413  -30.4930 H   0  0  0  0  0  0  0  0  0  0  0  0
   -9.5730   22.2222  -31.0458 H   0  0  0  0  0  0  0  0  0  0  0  0
   -9.4186   19.8323  -31.8170 H   0  0  0  0  0  0  0  0  0  0  0  0
   -5.0867   20.2197  -32.1403 H   0  0  0  0  0  0  0  0  0  0  0  0
   -3.5124   25.0504  -28.4361 H   0  0  0  0  0  0  0  0  0  0  0  0
   -2.6037   25.1959  -27.0213 H   0  0  0  0  0  0  0  0  0  0  0  0
   -0.9664   24.1783  -30.3102 H   0  0  0  0  0  0  0  0  0  0  0  0
    0.1623   24.2485  -29.0571 H   0  0  0  0  0  0  0  0  0  0  0  0
  1  2  1  0
  2  3  1  0
  3  4  1  0
  4  5  1  0
  5  6  2  0
  5  7  1  0
  7  8  1  0
  8  9  1  0
  9 10  1  0
  9 11  2  0
  8 12  2  0
 12 13  1  0
 13 14  2  0
 14 15  1  0
 15 16  2  0
 16 17  1  0
 17 18  1  0
 17 19  1  0
 17 20  1  0
 16 21  1  0
 21 22  2  0
  2 23  1  0
 23 24  1  0
 24 25  1  0
 25  2  1  0
 22  7  1  0
 22 13  1  0
  1 26  1  0
  1 27  1  0
  1 28  1  0
  3 29  1  0
  3 30  1  0
 10 31  1  0
 12 32  1  0
 14 33  1  0
 15 34  1  0
 21 35  1  0
 23 36  1  0
 23 37  1  0
 25 38  1  0
 25 39  1  0
M  CHG  1  10  -1
M  END
>  <UniqueID>  (37) 
37

>  <SMILES>  (37) 
CC1(COC(=O)n2c(C([NH-])=O)cc3ccc(C(F)(F)F)cc32)COC1

>  <Energy>  (37) 
139.07709644107112

>  <Genealogy>  (37) 
CC1(COC(=O)n2c(C([NH-])=O)cc3ccc(C(F)(F)F)cc32)COC1 (protonated)
CC1(COC(=O)n2c(C([NH-])=O)cc3ccc(C(F)(F)F)cc32)COC1 (3D coordinates assigned)
CC1(COC(=O)n2c(C([NH-])=O)cc3ccc(C(F)(F)F)cc32)COC1 (nonaromatic ring conformer: 139.07709644107112 kcal/mol)

>  <smiles>  (37) 
CC1(COC(=O)n2c(C(N)=O)cc3ccc(C(F)(F)F)cc32)COC1

>  <score_type>  (37) 
oracle

>  <origin>  (37) 
adg

>  <m_score__min__energy>  (37) 
-10.369999999999999

>  <m_primary>  (37) 
energy

$$$$
37:0
     RDKit          3D

 59 61  0  0  0  0  0  0  0  0999 V2000
   -2.7740   12.3920  -32.3940 C   0  0  0  0  0  0  0  0  0  0  0  0
   -3.9770   13.2080  -32.6440 N   0  0  0  0  0  0  0  0  0  0  0  0
   -4.5420   13.6590  -31.3590 C   0  0  0  0  0  0  0  0  0  0  0  0
   -4.9990   12.4530  -33.4070 C   0  0  0  0  0  0  0  0  0  0  0  0
   -5.5550   13.2530  -34.5980 C   0  0  0  0  0  0  0  0  0  0  0  0
   -4.8380   14.4770  -34.7580 O   0  0  0  0  0  0  0  0  0  0  0  0
   -5.2160   15.7220  -34.2300 C   0  0  0  0  0  0  0  0  0  0  0  0
   -6.5200   15.9950  -33.7730 C   0  0  0  0  0  0  0  0  0  0  0  0
   -6.8390   17.2570  -33.2620 C   0  0  0  0  0  0  0  0  0  0  0  0
   -5.8670   18.2730  -33.2020 C   0  0  0  0  0  0  0  0  0  0  0  0
   -6.2120   19.6190  -32.6760 C   0  0  0  0  0  0  0  0  0  0  0  0
   -7.5690   20.0250  -32.5660 C   0  0  0  0  0  0  0  0  0  0  0  0
   -7.9050   21.2880  -32.0500 C   0  0  0  0  0  0  0  0  0  0  0  0
   -6.8680   22.1310  -31.6640 C   0  0  0  0  0  0  0  0  0  0  0  0
   -6.9100   23.3940  -31.1210 C   0  0  0  0  0  0  0  0  0  0  0  0
   -5.5790   23.7620  -30.9370 C   0  0  0  0  0  0  0  0  0  0  0  0
   -5.1670   25.1000  -30.4610 C   0  0  0  0  0  0  0  0  0  0  0  0
   -3.9010   25.6480  -30.8170 N   0  0  0  0  0  0  0  0  0  0  0  0
   -5.9660   25.7900  -29.7720 O   0  0  0  0  0  0  0  0  0  0  0  0
   -4.7470   22.7600  -31.3410 N   0  0  0  0  0  0  0  0  0  0  0  0
   -3.3120   22.7200  -31.2840 C   0  0  0  0  0  0  0  0  0  0  0  0
   -2.6670   21.9850  -32.0800 O   0  0  0  0  0  0  0  0  0  0  0  0
   -2.6390   23.5150  -30.3530 O   0  0  0  0  0  0  0  0  0  0  0  0
   -2.1890   23.0220  -29.0950 C   0  0  0  0  0  0  0  0  0  0  0  0
   -2.1680   24.1540  -28.0600 C   0  0  2  0  0  0  0  0  0  0  0  0
   -3.3560   24.8930  -28.1820 O   0  0  0  0  0  0  0  0  0  0  0  0
   -0.9610   25.0870  -28.2620 C   0  0  0  0  0  0  0  0  0  0  0  0
   -1.2080   25.9830  -29.3100 O   0  0  0  0  0  0  0  0  0  0  0  0
   -5.5520   21.7700  -31.7850 C   0  0  0  0  0  0  0  0  0  0  0  0
   -5.1900   20.5090  -32.2710 C   0  0  0  0  0  0  0  0  0  0  0  0
   -4.5670   17.9940  -33.6610 C   0  0  0  0  0  0  0  0  0  0  0  0
   -4.2490   16.7310  -34.1680 C   0  0  0  0  0  0  0  0  0  0  0  0
   -2.6204   12.2878  -31.3098 H   0  0  0  0  0  0  0  0  0  0  0  0
   -2.9064   11.3965  -32.8429 H   0  0  0  0  0  0  0  0  0  0  0  0
   -1.8980   12.8831  -32.8429 H   0  0  0  0  0  0  0  0  0  0  0  0
   -3.6960   14.0610  -33.1830 H   0  0  0  0  0  0  0  0  0  0  0  0
   -3.9761   13.2073  -30.5309 H   0  0  0  0  0  0  0  0  0  0  0  0
   -4.4754   14.7550  -31.2937 H   0  0  0  0  0  0  0  0  0  0  0  0
   -5.5960   13.3512  -31.2937 H   0  0  0  0  0  0  0  0  0  0  0  0
   -4.5431   11.5266  -33.7863 H   0  0  0  0  0  0  0  0  0  0  0  0
   -5.8365   12.2420  -32.7258 H   0  0  0  0  0  0  0  0  0  0  0  0
   -5.4557   12.6531  -35.5147 H   0  0  0  0  0  0  0  0  0  0  0  0
   -6.6136   13.4837  -34.4078 H   0  0  0  0  0  0  0  0  0  0  0  0
   -7.2911   15.2118  -33.8183 H   0  0  0  0  0  0  0  0  0  0  0  0
   -7.8594   17.4575  -32.9035 H   0  0  0  0  0  0  0  0  0  0  0  0
   -8.3677   19.3412  -32.8893 H   0  0  0  0  0  0  0  0  0  0  0  0
   -8.9554   21.6004  -31.9543 H   0  0  0  0  0  0  0  0  0  0  0  0
   -7.8048   23.9877  -30.8826 H   0  0  0  0  0  0  0  0  0  0  0  0
   -3.0210   25.3050  -30.3670 H   0  0  0  0  0  0  0  0  0  0  0  0
   -2.8685   22.2281  -28.7516 H   0  0  0  0  0  0  0  0  0  0  0  0
   -1.1711   22.6211  -29.2096 H   0  0  0  0  0  0  0  0  0  0  0  0
   -2.0834   23.7107  -27.0568 H   0  0  0  0  0  0  0  0  0  0  0  0
   -3.3730   25.2600  -29.1050 H   0  0  0  0  0  0  0  0  0  0  0  0
   -0.7809   25.6527  -27.3360 H   0  0  0  0  0  0  0  0  0  0  0  0
   -0.0780   24.4802  -28.5112 H   0  0  0  0  0  0  0  0  0  0  0  0
   -2.0460   25.6740  -29.7430 H   0  0  0  0  0  0  0  0  0  0  0  0
   -4.1319   20.2156  -32.3368 H   0  0  0  0  0  0  0  0  0  0  0  0
   -3.7945   18.7761  -33.6206 H   0  0  0  0  0  0  0  0  0  0  0  0
   -3.2275   16.5282  -34.5221 H   0  0  0  0  0  0  0  0  0  0  0  0
  1  2  1  0
  2  3  1  0
  2  4  1  0
  4  5  1  0
  5  6  1  0
  6  7  1  0
  7  8  2  0
  8  9  1  0
  9 10  2  0
 10 11  1  0
 11 12  2  0
 12 13  1  0
 13 14  2  0
 14 15  1  0
 15 16  2  0
 16 17  1  0
 17 18  1  0
 17 19  2  0
 16 20  1  0
 20 21  1  0
 21 22  2  0
 21 23  1  0
 23 24  1  0
 24 25  1  0
 25 26  1  0
 25 27  1  0
 27 28  1  0
 20 29  1  0
 29 30  2  0
 10 31  1  0
 31 32  2  0
 32  7  1  0
 30 11  1  0
 29 14  1  0
  1 33  1  0
  1 34  1  0
  1 35  1  0
  2 36  1  0
  3 37  1  0
  3 38  1  0
  3 39  1  0
  4 40  1  0
  4 41  1  0
  5 42  1  0
  5 43  1  0
  8 44  1  0
  9 45  1  0
 12 46  1  0
 13 47  1  0
 15 48  1  0
 18 49  1  0
 24 50  1  0
 24 51  1  0
 25 52  1  1
 26 53  1  0
 27 54  1  0
 27 55  1  0
 28 56  1  0
 30 57  1  0
 31 58  1  0
 32 59  1  0
M  CHG  2   2   1  18  -1
M  END
>  <UniqueID>  (38) 
38

>  <SMILES>  (38) 
C[NH+](C)CCOc1ccc(-c2ccc3cc(C([NH-])=O)n(C(=O)OC[C@H](O)CO)c3c2)cc1

>  <Energy>  (38) 
98.82361197106411

>  <Genealogy>  (38) 
C[NH+](C)CCOc1ccc(-c2ccc3cc(C([NH-])=O)n(C(=O)OCC(O)CO)c3c2)cc1 (protonated)
C[NH+](C)CCOc1ccc(-c2ccc3cc(C([NH-])=O)n(C(=O)OC[C@H](O)CO)c3c2)cc1 (chirality)
C[NH+](C)CCOc1ccc(-c2ccc3cc(C([NH-])=O)n(C(=O)OC[C@H](O)CO)c3c2)cc1 (3D coordinates assigned)
C[NH+](C)CCOc1ccc(-c2ccc3cc(C([NH-])=O)n(C(=O)OC[C@H](O)CO)c3c2)cc1 (optimized conformer: 98.82361197106411 kcal/mol)

>  <smiles>  (38) 
CN(C)CCOc1ccc(-c2ccc3cc(C(N)=O)n(C(=O)OCC(O)CO)c3c2)cc1

>  <score_type>  (38) 
oracle

>  <origin>  (38) 
adg

>  <m_score__min__energy>  (38) 
-10.57

>  <m_primary>  (38) 
energy

$$$$
38:0
     RDKit          3D

 44 45  0  0  0  0  0  0  0  0999 V2000
   -4.1120   16.5240  -34.5890 C   0  0  0  0  0  0  0  0  0  0  0  0
   -5.3040   17.1700  -35.0150 O   0  0  0  0  0  0  0  0  0  0  0  0
   -5.9900   18.0880  -34.2150 C   0  0  0  0  0  0  0  0  0  0  0  0
   -6.1710   19.2740  -34.6060 O   0  0  0  0  0  0  0  0  0  0  0  0
   -6.5470   17.6450  -32.9000 C   0  0  0  0  0  0  0  0  0  0  0  0
   -7.9770   18.1580  -32.7230 C   0  0  0  0  0  0  0  0  0  0  0  0
   -7.9720   19.5970  -32.2830 C   0  0  0  0  0  0  0  0  0  0  0  0
   -9.1640   20.3620  -32.3410 C   0  0  0  0  0  0  0  0  0  0  0  0
   -9.1600   21.7190  -31.9760 C   0  0  0  0  0  0  0  0  0  0  0  0
   -7.9560   22.2810  -31.5620 C   0  0  0  0  0  0  0  0  0  0  0  0
   -7.6600   23.5740  -31.1940 C   0  0  0  0  0  0  0  0  0  0  0  0
   -6.2950   23.5760  -30.9130 C   0  0  0  0  0  0  0  0  0  0  0  0
   -5.5610   24.7630  -30.4240 C   0  0  0  0  0  0  0  0  0  0  0  0
   -4.4750   25.2890  -31.1830 N   0  0  0  0  0  0  0  0  0  0  0  0
   -5.8980   25.3340  -29.3540 O   0  0  0  0  0  0  0  0  0  0  0  0
   -5.7680   22.3330  -31.1000 N   0  0  0  0  0  0  0  0  0  0  0  0
   -4.3940   21.9360  -30.9840 C   0  0  0  0  0  0  0  0  0  0  0  0
   -4.0190   20.8400  -31.4790 O   0  0  0  0  0  0  0  0  0  0  0  0
   -3.4570   22.7750  -30.2940 N   0  0  0  0  0  0  0  0  0  0  0  0
   -2.0630   22.3940  -30.0900 C   0  0  0  0  0  0  0  0  0  0  0  0
   -1.5430   22.9580  -28.7650 C   0  0  0  0  0  0  0  0  0  0  0  0
   -1.3310   24.4350  -28.8720 C   0  0  0  0  0  0  0  0  0  0  0  0
   -2.3870   25.2740  -29.3280 N   0  0  0  0  0  0  0  0  0  0  0  0
   -0.2030   24.9310  -28.6070 O   0  0  0  0  0  0  0  0  0  0  0  0
   -6.7960   21.5520  -31.4970 C   0  0  0  0  0  0  0  0  0  0  0  0
   -6.7670   20.2050  -31.8720 C   0  0  0  0  0  0  0  0  0  0  0  0
   -4.0778   16.5055  -33.4897 H   0  0  0  0  0  0  0  0  0  0  0  0
   -4.0957   15.4936  -34.9738 H   0  0  0  0  0  0  0  0  0  0  0  0
   -3.2399   17.0729  -34.9738 H   0  0  0  0  0  0  0  0  0  0  0  0
   -6.5493   16.5457  -32.8599 H   0  0  0  0  0  0  0  0  0  0  0  0
   -5.9206   18.0530  -32.0931 H   0  0  0  0  0  0  0  0  0  0  0  0
   -8.5123   18.0744  -33.6803 H   0  0  0  0  0  0  0  0  0  0  0  0
   -8.4783   17.5531  -31.9531 H   0  0  0  0  0  0  0  0  0  0  0  0
  -10.0997   19.8895  -32.6744 H   0  0  0  0  0  0  0  0  0  0  0  0
  -10.0810   22.3191  -32.0163 H   0  0  0  0  0  0  0  0  0  0  0  0
   -8.3539   24.4254  -31.1344 H   0  0  0  0  0  0  0  0  0  0  0  0
   -3.8680   26.0480  -30.7980 H   0  0  0  0  0  0  0  0  0  0  0  0
   -3.7880   23.6850  -29.8990 H   0  0  0  0  0  0  0  0  0  0  0  0
   -1.9863   21.2968  -30.0717 H   0  0  0  0  0  0  0  0  0  0  0  0
   -1.4579   22.8020  -30.9130 H   0  0  0  0  0  0  0  0  0  0  0  0
   -2.2772   22.7541  -27.9717 H   0  0  0  0  0  0  0  0  0  0  0  0
   -0.5831   22.4770  -28.5257 H   0  0  0  0  0  0  0  0  0  0  0  0
   -2.6630   25.2900  -30.3350 H   0  0  0  0  0  0  0  0  0  0  0  0
   -5.8275   19.6334  -31.8471 H   0  0  0  0  0  0  0  0  0  0  0  0
  1  2  1  0
  2  3  1  0
  3  4  2  0
  3  5  1  0
  5  6  1  0
  6  7  1  0
  7  8  2  0
  8  9  1  0
  9 10  2  0
 10 11  1  0
 11 12  2  0
 12 13  1  0
 13 14  1  0
 13 15  2  0
 12 16  1  0
 16 17  1  0
 17 18  2  0
 17 19  1  0
 19 20  1  0
 20 21  1  0
 21 22  1  0
 22 23  1  0
 22 24  2  0
 16 25  1  0
 25 26  2  0
 26  7  1  0
 25 10  1  0
  1 27  1  0
  1 28  1  0
  1 29  1  0
  5 30  1  0
  5 31  1  0
  6 32  1  0
  6 33  1  0
  8 34  1  0
  9 35  1  0
 11 36  1  0
 14 37  1  0
 19 38  1  0
 20 39  1  0
 20 40  1  0
 21 41  1  0
 21 42  1  0
 23 43  1  0
 26 44  1  0
M  CHG  2  14  -1  23  -1
M  END
>  <UniqueID>  (39) 
39

>  <SMILES>  (39) 
COC(=O)CCc1ccc2cc(C([NH-])=O)n(C(=O)NCCC([NH-])=O)c2c1

>  <Energy>  (39) 
70.37580401959814

>  <Genealogy>  (39) 
COC(=O)CCc1ccc2cc(C([NH-])=O)n(C(=O)NCCC([NH-])=O)c2c1 (protonated)
COC(=O)CCc1ccc2cc(C([NH-])=O)n(C(=O)NCCC([NH-])=O)c2c1 (3D coordinates assigned)
COC(=O)CCc1ccc2cc(C([NH-])=O)n(C(=O)NCCC([NH-])=O)c2c1 (optimized conformer: 70.37580401959814 kcal/mol)

>  <smiles>  (39) 
COC(=O)CCc1ccc2cc(C(N)=O)n(C(=O)NCCC(N)=O)c2c1

>  <score_type>  (39) 
oracle

>  <origin>  (39) 
adg

>  <m_score__min__energy>  (39) 
-13.01

>  <m_primary>  (39) 
energy

$$$$
39:0
     RDKit          3D

 35 36  0  0  0  0  0  0  0  0999 V2000
   -7.7280   21.6040  -30.9520 C   0  0  0  0  0  0  0  0  0  0  0  0
   -8.5660   20.3660  -31.9190 S   0  0  0  0  0  0  0  0  0  0  0  0
   -8.7210   19.1060  -31.1110 O   0  0  0  0  0  0  0  0  0  0  0  0
   -9.9310   20.8790  -32.2790 O   0  0  0  0  0  0  0  0  0  0  0  0
   -7.7070   20.0660  -33.3500 O   0  0  0  0  0  0  0  0  0  0  0  0
   -6.5000   19.4120  -33.0320 C   0  0  0  0  0  0  0  0  0  0  0  0
   -5.3510   20.0610  -33.8010 C   0  0  0  0  0  0  0  0  0  0  0  0
   -4.2620   20.5110  -32.8620 C   0  0  0  0  0  0  0  0  0  0  0  0
   -3.1100   19.7070  -32.6690 C   0  0  0  0  0  0  0  0  0  0  0  0
   -2.0750   20.1330  -31.8210 C   0  0  0  0  0  0  0  0  0  0  0  0
   -2.2100   21.3680  -31.1950 C   0  0  0  0  0  0  0  0  0  0  0  0
   -1.3720   22.0040  -30.3080 C   0  0  0  0  0  0  0  0  0  0  0  0
   -2.0060   23.2050  -30.0030 C   0  0  0  0  0  0  0  0  0  0  0  0
   -1.4120   24.2340  -29.1250 C   0  0  0  0  0  0  0  0  0  0  0  0
   -2.2210   25.2420  -28.5160 N   0  0  0  0  0  0  0  0  0  0  0  0
   -0.1640   24.2590  -28.9580 O   0  0  0  0  0  0  0  0  0  0  0  0
   -3.1940   23.3070  -30.6620 N   0  0  0  0  0  0  0  0  0  0  0  0
   -4.1850   24.3390  -30.5170 C   0  0  0  0  0  0  0  0  0  0  0  0
   -5.3460   24.0590  -30.1170 O   0  0  0  0  0  0  0  0  0  0  0  0
   -3.8690   25.6600  -30.8080 O   0  0  0  0  0  0  0  0  0  0  0  0
   -3.3050   22.1720  -31.3910 C   0  0  0  0  0  0  0  0  0  0  0  0
   -4.3610   21.7620  -32.2140 C   0  0  0  0  0  0  0  0  0  0  0  0
   -7.8712   21.3925  -29.8821 H   0  0  0  0  0  0  0  0  0  0  0  0
   -6.6538   21.5887  -31.1883 H   0  0  0  0  0  0  0  0  0  0  0  0
   -8.1413   22.5956  -31.1883 H   0  0  0  0  0  0  0  0  0  0  0  0
   -6.3114   19.4956  -31.9515 H   0  0  0  0  0  0  0  0  0  0  0  0
   -6.5739   18.3504  -33.3104 H   0  0  0  0  0  0  0  0  0  0  0  0
   -4.9353   19.3311  -34.5112 H   0  0  0  0  0  0  0  0  0  0  0  0
   -5.7388   20.9401  -34.3365 H   0  0  0  0  0  0  0  0  0  0  0  0
   -3.0264   18.7409  -33.1883 H   0  0  0  0  0  0  0  0  0  0  0  0
   -1.1842   19.5089  -31.6566 H   0  0  0  0  0  0  0  0  0  0  0  0
   -0.4078   21.6411  -29.9226 H   0  0  0  0  0  0  0  0  0  0  0  0
   -3.2280   25.3480  -28.7660 H   0  0  0  0  0  0  0  0  0  0  0  0
   -1.7890   25.9390  -27.8710 H   0  0  0  0  0  0  0  0  0  0  0  0
   -5.2468   22.3992  -32.3526 H   0  0  0  0  0  0  0  0  0  0  0  0
  1  2  1  0
  2  3  2  0
  2  4  2  0
  2  5  1  0
  5  6  1  0
  6  7  1  0
  7  8  1  0
  8  9  2  0
  9 10  1  0
 10 11  2  0
 11 12  1  0
 12 13  2  0
 13 14  1  0
 14 15  1  0
 14 16  2  0
 13 17  1  0
 17 18  1  0
 18 19  2  0
 18 20  1  0
 17 21  1  0
 21 22  2  0
 22  8  1  0
 21 11  1  0
  1 23  1  0
  1 24  1  0
  1 25  1  0
  6 26  1  0
  6 27  1  0
  7 28  1  0
  7 29  1  0
  9 30  1  0
 10 31  1  0
 12 32  1  0
 15 33  1  0
 15 34  1  0
 22 35  1  0
M  CHG  1  20  -1
M  END
>  <UniqueID>  (40) 
40

>  <SMILES>  (40) 
CS(=O)(=O)OCCc1ccc2cc(C(N)=O)n(C(=O)[O-])c2c1

>  <Energy>  (40) 
69.48478468842923

>  <Genealogy>  (40) 
CS(=O)(=O)OCCc1ccc2cc(C(N)=O)n(C(=O)[O-])c2c1 (protonated)
CS(=O)(=O)OCCc1ccc2cc(C(N)=O)n(C(=O)[O-])c2c1 (3D coordinates assigned)
CS(=O)(=O)OCCc1ccc2cc(C(N)=O)n(C(=O)[O-])c2c1 (optimized conformer: 69.48478468842923 kcal/mol)

>  <smiles>  (40) 
CS(=O)(=O)OCCc1ccc2cc(C(N)=O)n(C(=O)O)c2c1

>  <score_type>  (40) 
oracle

>  <origin>  (40) 
adg

>  <m_score__min__energy>  (40) 
-9.0399999999999991

>  <m_primary>  (40) 
energy

$$$$
40:0
     RDKit          3D

 63 66  0  0  0  0  0  0  0  0999 V2000
   -5.4110   14.8330  -33.2980 C   0  0  0  0  0  0  0  0  0  0  0  0
   -5.1120   16.2770  -33.3240 N   0  0  1  0  0  0  0  0  0  0  0  0
   -5.7820   16.9200  -34.4890 C   0  0  0  0  0  0  0  0  0  0  0  0
   -6.1010   18.3970  -34.2330 C   0  0  0  0  0  0  0  0  0  0  0  0
   -7.1200   18.5160  -33.0810 C   0  0  2  0  0  0  0  0  0  0  0  0
   -7.1990   19.9430  -32.5670 C   0  0  0  0  0  0  0  0  0  0  0  0
   -8.4520   20.5910  -32.4000 C   0  0  0  0  0  0  0  0  0  0  0  0
   -8.5240   21.9060  -31.9100 C   0  0  0  0  0  0  0  0  0  0  0  0
   -7.3320   22.5530  -31.6030 C   0  0  0  0  0  0  0  0  0  0  0  0
   -7.1170   23.8110  -31.0880 C   0  0  0  0  0  0  0  0  0  0  0  0
   -5.7350   23.9290  -30.9670 C   0  0  0  0  0  0  0  0  0  0  0  0
   -5.0600   25.1670  -30.5250 C   0  0  0  0  0  0  0  0  0  0  0  0
   -3.6390   25.2620  -30.5910 N   0  0  0  0  0  0  0  0  0  0  0  0
   -5.7220   26.1290  -30.0530 O   0  0  0  0  0  0  0  0  0  0  0  0
   -5.1190   22.7850  -31.3830 N   0  0  0  0  0  0  0  0  0  0  0  0
   -3.7150   22.4770  -31.3340 C   0  0  0  0  0  0  0  0  0  0  0  0
   -3.0700   22.3100  -32.4040 O   0  0  0  0  0  0  0  0  0  0  0  0
   -3.0740   22.3450  -30.0990 O   0  0  0  0  0  0  0  0  0  0  0  0
   -3.0720   21.1300  -29.3580 C   0  0  0  0  0  0  0  0  0  0  0  0
   -1.6830   20.9040  -28.7590 C   0  0  0  0  0  0  0  0  0  0  0  0
   -1.2920   22.0530  -27.9160 N   0  0  0  0  0  0  0  0  0  0  0  0
   -2.4520   22.9480  -27.6810 C   0  0  0  0  0  0  0  0  0  0  0  0
   -2.0100   24.3060  -27.1260 C   0  0  0  0  0  0  0  0  0  0  0  0
   -1.0960   25.0490  -28.1280 C   0  0  0  0  0  0  0  0  0  0  0  0
   -1.8150   26.0300  -28.8350 O   0  0  0  0  0  0  0  0  0  0  0  0
   -0.3910   24.0870  -29.1090 C   0  0  0  0  0  0  0  0  0  0  0  0
   -0.0770   22.7460  -28.4290 C   0  0  0  0  0  0  0  0  0  0  0  0
   -6.1120   21.9530  -31.7720 C   0  0  0  0  0  0  0  0  0  0  0  0
   -6.0110   20.6380  -32.2390 C   0  0  0  0  0  0  0  0  0  0  0  0
   -6.8470   17.4930  -31.9460 C   0  0  0  0  0  0  0  0  0  0  0  0
   -5.4240   16.9070  -32.0100 C   0  0  0  0  0  0  0  0  0  0  0  0
   -5.4816   14.4919  -32.2546 H   0  0  0  0  0  0  0  0  0  0  0  0
   -6.3667   14.6472  -33.8100 H   0  0  0  0  0  0  0  0  0  0  0  0
   -4.6077   14.2829  -33.8100 H   0  0  0  0  0  0  0  0  0  0  0  0
   -4.0770   16.3650  -33.4670 H   0  0  0  0  0  0  0  0  0  0  0  0
   -6.7210   16.3859  -34.6963 H   0  0  0  0  0  0  0  0  0  0  0  0
   -5.0931   16.8676  -35.3450 H   0  0  0  0  0  0  0  0  0  0  0  0
   -6.5257   18.8428  -35.1445 H   0  0  0  0  0  0  0  0  0  0  0  0
   -5.1771   18.9273  -33.9588 H   0  0  0  0  0  0  0  0  0  0  0  0
   -8.1092   18.2596  -33.4881 H   0  0  0  0  0  0  0  0  0  0  0  0
   -9.3781   20.0563  -32.6577 H   0  0  0  0  0  0  0  0  0  0  0  0
   -9.4932   22.4080  -31.7735 H   0  0  0  0  0  0  0  0  0  0  0  0
   -7.8759   24.5635  -30.8273 H   0  0  0  0  0  0  0  0  0  0  0  0
   -3.0290   24.6270  -30.0310 H   0  0  0  0  0  0  0  0  0  0  0  0
   -3.8150   21.1919  -28.5493 H   0  0  0  0  0  0  0  0  0  0  0  0
   -3.3262   20.2924  -30.0241 H   0  0  0  0  0  0  0  0  0  0  0  0
   -1.6975   19.9919  -28.1443 H   0  0  0  0  0  0  0  0  0  0  0  0
   -0.9550   20.7975  -29.5767 H   0  0  0  0  0  0  0  0  0  0  0  0
   -2.9804   23.1057  -28.6328 H   0  0  0  0  0  0  0  0  0  0  0  0
   -3.1117   22.4710  -26.9413 H   0  0  0  0  0  0  0  0  0  0  0  0
   -2.9010   24.9204  -26.9293 H   0  0  0  0  0  0  0  0  0  0  0  0
   -1.4439   24.1356  -26.1984 H   0  0  0  0  0  0  0  0  0  0  0  0
   -0.3126   25.5418  -27.5336 H   0  0  0  0  0  0  0  0  0  0  0  0
   -1.9950   25.6740  -29.7450 H   0  0  0  0  0  0  0  0  0  0  0  0
   -1.0480   23.9079  -29.9729 H   0  0  0  0  0  0  0  0  0  0  0  0
    0.5540   24.5464  -29.4346 H   0  0  0  0  0  0  0  0  0  0  0  0
    0.4179   22.0900  -29.1602 H   0  0  0  0  0  0  0  0  0  0  0  0
    0.5688   22.9595  -27.5645 H   0  0  0  0  0  0  0  0  0  0  0  0
   -5.0290   20.1548  -32.3488 H   0  0  0  0  0  0  0  0  0  0  0  0
   -7.5717   16.6698  -32.0312 H   0  0  0  0  0  0  0  0  0  0  0  0
   -6.9476   18.0227  -30.9872 H   0  0  0  0  0  0  0  0  0  0  0  0
   -5.3231   16.1449  -31.2232 H   0  0  0  0  0  0  0  0  0  0  0  0
   -4.7189   17.7393  -31.8686 H   0  0  0  0  0  0  0  0  0  0  0  0
  1  2  1  0
  2  3  1  0
  3  4  1  0
  4  5  1  0
  5  6  1  0
  6  7  2  0
  7  8  1  0
  8  9  2  0
  9 10  1  0
 10 11  2  0
 11 12  1  0
 12 13  1  0
 12 14  2  0
 11 15  1  0
 15 16  1  0
 16 17  2  0
 16 18  1  0
 18 19  1  0
 19 20  1  0
 20 21  1  0
 21 22  1  0
 22 23  1  0
 23 24  1  0
 24 25  1  0
 24 26  1  0
 26 27  1  0
 15 28  1  0
 28 29  2  0
  5 30  1  0
 30 31  1  0
 31  2  1  0
 29  6  1  0
 28  9  1  0
 27 21  1  0
  1 32  1  0
  1 33  1  0
  1 34  1  0
  2 35  1  6
  3 36  1  0
  3 37  1  0
  4 38  1  0
  4 39  1  0
  5 40  1  6
  7 41  1  0
  8 42  1  0
 10 43  1  0
 13 44  1  0
 19 45  1  0
 19 46  1  0
 20 47  1  0
 20 48  1  0
 22 49  1  0
 22 50  1  0
 23 51  1  0
 23 52  1  0
 24 53  1  0
 25 54  1  0
 26 55  1  0
 26 56  1  0
 27 57  1  0
 27 58  1  0
 29 59  1  0
 30 60  1  0
 30 61  1  0
 31 62  1  0
 31 63  1  0
M  CHG  2   2   1  13  -1
M  END
>  <UniqueID>  (41) 
41

>  <SMILES>  (41) 
C[NH+]1CCC(c2ccc3cc(C([NH-])=O)n(C(=O)OCCN4CCC(O)CC4)c3c2)CC1

>  <Energy>  (41) 
118.00577848738625

>  <Genealogy>  (41) 
C[NH+]1CCC(c2ccc3cc(C([NH-])=O)n(C(=O)OCCN4CCC(O)CC4)c3c2)CC1 (protonated)
C[NH+]1CCC(c2ccc3cc(C([NH-])=O)n(C(=O)OCCN4CCC(O)CC4)c3c2)CC1 (3D coordinates assigned)
C[NH+]1CCC(c2ccc3cc(C([NH-])=O)n(C(=O)OCCN4CCC(O)CC4)c3c2)CC1 (nonaromatic ring conformer: 118.00577848738625 kcal/mol)

>  <smiles>  (41) 
CN1CCC(c2ccc3cc(C(N)=O)n(C(=O)OCCN4CCC(O)CC4)c3c2)CC1

>  <score_type>  (41) 
oracle

>  <origin>  (41) 
adg

>  <m_score__min__energy>  (41) 
-12.56

>  <m_primary>  (41) 
energy

$$$$
41:0
     RDKit          3D

 66 68  0  0  0  0  0  0  0  0999 V2000
   -9.5490   21.4200  -31.6690 C   0  0  0  0  0  0  0  0  0  0  0  0
   -8.1150   21.1810  -31.8380 N   0  0  0  0  0  0  0  0  0  0  0  0
   -7.6670   20.1790  -32.8140 C   0  0  0  0  0  0  0  0  0  0  0  0
   -7.3580   18.8520  -32.1290 C   0  0  0  0  0  0  0  0  0  0  0  0
   -5.9750   18.7760  -31.8750 O   0  0  0  0  0  0  0  0  0  0  0  0
   -5.1230   18.2000  -33.2780 Si  0  0  0  0  0  4  0  0  0  0  0  0
   -5.7800   18.9110  -34.8900 C   0  0  0  0  0  0  0  0  0  0  0  0
   -3.3480   18.7710  -33.1270 C   0  0  0  0  0  0  0  0  0  0  0  0
   -5.1980   16.2970  -33.3120 C   0  0  0  0  0  0  0  0  0  0  0  0
   -6.5550   15.8380  -33.8700 C   0  0  0  0  0  0  0  0  0  0  0  0
   -5.0180   15.7500  -31.8860 C   0  0  0  0  0  0  0  0  0  0  0  0
   -4.0670   15.7610  -34.2070 C   0  0  0  0  0  0  0  0  0  0  0  0
   -7.1840   22.1590  -31.3460 C   0  0  0  0  0  0  0  0  0  0  0  0
   -7.5980   23.5010  -31.1590 C   0  0  0  0  0  0  0  0  0  0  0  0
   -6.7040   24.4630  -30.6610 C   0  0  0  0  0  0  0  0  0  0  0  0
   -5.4040   24.0580  -30.3730 C   0  0  0  0  0  0  0  0  0  0  0  0
   -4.3460   24.7740  -29.8630 C   0  0  0  0  0  0  0  0  0  0  0  0
   -3.2930   23.8660  -29.7740 C   0  0  0  0  0  0  0  0  0  0  0  0
   -1.9270   24.2430  -29.3560 C   0  0  0  0  0  0  0  0  0  0  0  0
   -1.6390   25.5980  -29.0170 N   0  0  0  0  0  0  0  0  0  0  0  0
   -1.0000   23.3920  -29.3380 O   0  0  0  0  0  0  0  0  0  0  0  0
   -3.6870   22.6320  -30.2040 N   0  0  0  0  0  0  0  0  0  0  0  0
   -2.9170   21.4200  -30.2290 C   0  0  0  0  0  0  0  0  0  0  0  0
   -2.0560   21.2390  -31.1330 O   0  0  0  0  0  0  0  0  0  0  0  0
   -3.1420   20.4310  -29.2640 O   0  0  0  0  0  0  0  0  0  0  0  0
   -2.8990   20.6310  -27.8710 C   0  0  1  0  0  0  0  0  0  0  0  0
   -3.0930   19.3700  -27.0800 C   0  0  0  0  0  0  0  0  0  0  0  0
   -2.0610   19.5040  -25.9780 C   0  0  0  0  0  0  0  0  0  0  0  0
   -1.0590   20.4160  -26.3750 O   0  0  0  0  0  0  0  0  0  0  0  0
   -1.4410   20.9540  -27.6190 C   0  0  0  0  0  0  0  0  0  0  0  0
   -4.9830   22.7680  -30.5650 C   0  0  0  0  0  0  0  0  0  0  0  0
   -5.8620   21.7810  -31.0260 C   0  0  0  0  0  0  0  0  0  0  0  0
   -9.7901   21.4602  -30.5965 H   0  0  0  0  0  0  0  0  0  0  0  0
   -9.8197   22.3756  -32.1417 H   0  0  0  0  0  0  0  0  0  0  0  0
  -10.1150   20.6038  -32.1417 H   0  0  0  0  0  0  0  0  0  0  0  0
   -8.4602   20.0231  -33.5600 H   0  0  0  0  0  0  0  0  0  0  0  0
   -6.7503   20.5460  -33.2988 H   0  0  0  0  0  0  0  0  0  0  0  0
   -7.9108   18.7897  -31.1801 H   0  0  0  0  0  0  0  0  0  0  0  0
   -7.6617   18.0191  -32.7802 H   0  0  0  0  0  0  0  0  0  0  0  0
   -6.5115   19.7026  -34.6704 H   0  0  0  0  0  0  0  0  0  0  0  0
   -4.9468   19.3327  -35.4713 H   0  0  0  0  0  0  0  0  0  0  0  0
   -6.2661   18.1136  -35.4713 H   0  0  0  0  0  0  0  0  0  0  0  0
   -3.0798   18.8573  -32.0637 H   0  0  0  0  0  0  0  0  0  0  0  0
   -2.6852   18.0407  -33.6143 H   0  0  0  0  0  0  0  0  0  0  0  0
   -3.2353   19.7507  -33.6143 H   0  0  0  0  0  0  0  0  0  0  0  0
   -7.2352   15.6079  -33.0367 H   0  0  0  0  0  0  0  0  0  0  0  0
   -6.9881   16.6396  -34.4863 H   0  0  0  0  0  0  0  0  0  0  0  0
   -6.4126   14.9380  -34.4863 H   0  0  0  0  0  0  0  0  0  0  0  0
   -5.2757   16.5330  -31.1577 H   0  0  0  0  0  0  0  0  0  0  0  0
   -5.6779   14.8821  -31.7402 H   0  0  0  0  0  0  0  0  0  0  0  0
   -3.9716   15.4436  -31.7402 H   0  0  0  0  0  0  0  0  0  0  0  0
   -3.2524   15.3749  -33.5767 H   0  0  0  0  0  0  0  0  0  0  0  0
   -4.4547   14.9508  -34.8421 H   0  0  0  0  0  0  0  0  0  0  0  0
   -3.6854   16.5741  -34.8421 H   0  0  0  0  0  0  0  0  0  0  0  0
   -8.6295   23.7923  -31.4062 H   0  0  0  0  0  0  0  0  0  0  0  0
   -7.0215   25.5043  -30.5035 H   0  0  0  0  0  0  0  0  0  0  0  0
   -4.3339   25.8381  -29.5844 H   0  0  0  0  0  0  0  0  0  0  0  0
   -1.2200   26.2490  -29.7170 H   0  0  0  0  0  0  0  0  0  0  0  0
   -3.5923   21.4325  -27.5762 H   0  0  0  0  0  0  0  0  0  0  0  0
   -4.1105   19.3146  -26.6656 H   0  0  0  0  0  0  0  0  0  0  0  0
   -2.9734   18.4561  -27.6804 H   0  0  0  0  0  0  0  0  0  0  0  0
   -2.5484   19.8713  -25.0629 H   0  0  0  0  0  0  0  0  0  0  0  0
   -1.6047   18.5221  -25.7838 H   0  0  0  0  0  0  0  0  0  0  0  0
   -1.3020   22.0451  -27.6069 H   0  0  0  0  0  0  0  0  0  0  0  0
   -0.8214   20.5192  -28.4172 H   0  0  0  0  0  0  0  0  0  0  0  0
   -5.5312   20.7377  -31.1361 H   0  0  0  0  0  0  0  0  0  0  0  0
  1  2  1  0
  2  3  1  0
  3  4  1  0
  4  5  1  0
  5  6  1  0
  6  7  1  0
  6  8  1  0
  6  9  1  0
  9 10  1  0
  9 11  1  0
  9 12  1  0
  2 13  1  0
 13 14  2  0
 14 15  1  0
 15 16  2  0
 16 17  1  0
 17 18  2  0
 18 19  1  0
 19 20  1  0
 19 21  2  0
 18 22  1  0
 22 23  1  0
 23 24  2  0
 23 25  1  0
 25 26  1  0
 26 27  1  0
 27 28  1  0
 28 29  1  0
 29 30  1  0
 22 31  1  0
 31 32  2  0
 32 13  1  0
 31 16  1  0
 30 26  1  0
  1 33  1  0
  1 34  1  0
  1 35  1  0
  3 36  1  0
  3 37  1  0
  4 38  1  0
  4 39  1  0
  7 40  1  0
  7 41  1  0
  7 42  1  0
  8 43  1  0
  8 44  1  0
  8 45  1  0
 10 46  1  0
 10 47  1  0
 10 48  1  0
 11 49  1  0
 11 50  1  0
 11 51  1  0
 12 52  1  0
 12 53  1  0
 12 54  1  0
 14 55  1  0
 15 56  1  0
 17 57  1  0
 20 58  1  0
 26 59  1  1
 27 60  1  0
 27 61  1  0
 28 62  1  0
 28 63  1  0
 30 64  1  0
 30 65  1  0
 32 66  1  0
M  CHG  1  20  -1
M  END
>  <UniqueID>  (42) 
42

>  <SMILES>  (42) 
CN(CCO[Si](C)(C)C(C)(C)C)c1ccc2cc(C([NH-])=O)n(C(=O)O[C@H]3CCOC3)c2c1

>  <Energy>  (42) 
87.37216305312491

>  <Genealogy>  (42) 
CN(CCO[Si](C)(C)C(C)(C)C)c1ccc2cc(C([NH-])=O)n(C(=O)OC3CCOC3)c2c1 (protonated)
CN(CCO[Si](C)(C)C(C)(C)C)c1ccc2cc(C([NH-])=O)n(C(=O)O[C@H]3CCOC3)c2c1 (chirality)
CN(CCO[Si](C)(C)C(C)(C)C)c1ccc2cc(C([NH-])=O)n(C(=O)O[C@H]3CCOC3)c2c1 (3D coordinates assigned)
CN(CCO[Si](C)(C)C(C)(C)C)c1ccc2cc(C([NH-])=O)n(C(=O)O[C@H]3CCOC3)c2c1 (nonaromatic ring conformer: 87.37216305312491 kcal/mol)

>  <smiles>  (42) 
CN(CCO[Si](C)(C)C(C)(C)C)c1ccc2cc(C(N)=O)n(C(=O)OC3CCOC3)c2c1

>  <score_type>  (42) 
oracle

>  <origin>  (42) 
adg

>  <m_score__min__energy>  (42) 
-10.609999999999999

>  <m_primary>  (42) 
energy

$$$$
42:0
     RDKit          3D

 47 49  0  0  0  0  0  0  0  0999 V2000
   -6.8370   17.8290  -31.6300 C   0  0  0  0  0  0  0  0  0  0  0  0
   -7.5170   18.6950  -32.6860 C   0  0  0  0  0  0  0  0  0  0  0  0
   -7.5150   20.1400  -32.2710 C   0  0  0  0  0  0  0  0  0  0  0  0
   -8.7380   20.8440  -32.1290 C   0  0  0  0  0  0  0  0  0  0  0  0
   -8.7480   22.1850  -31.7090 C   0  0  0  0  0  0  0  0  0  0  0  0
   -7.5260   22.7890  -31.4260 C   0  0  0  0  0  0  0  0  0  0  0  0
   -7.2460   24.0570  -30.9700 C   0  0  0  0  0  0  0  0  0  0  0  0
   -5.8600   24.1020  -30.8330 C   0  0  0  0  0  0  0  0  0  0  0  0
   -5.1130   25.3100  -30.4340 C   0  0  0  0  0  0  0  0  0  0  0  0
   -3.6900   25.2970  -30.3700 N   0  0  0  0  0  0  0  0  0  0  0  0
   -5.7340   26.3800  -30.1980 O   0  0  0  0  0  0  0  0  0  0  0  0
   -5.3090   22.9060  -31.1810 N   0  0  0  0  0  0  0  0  0  0  0  0
   -3.9490   22.4760  -31.0050 C   0  0  0  0  0  0  0  0  0  0  0  0
   -3.0410   22.9910  -31.7100 O   0  0  0  0  0  0  0  0  0  0  0  0
   -3.5940   21.4070  -30.0020 C   0  0  0  0  0  0  0  0  0  0  0  0
   -2.9770   21.9840  -28.7120 C   0  0  0  0  0  0  0  0  0  0  0  0
   -2.5460   23.4030  -28.8690 N   0  0  0  0  0  0  0  0  0  0  0  0
   -1.1030   23.5010  -29.1750 C   0  0  0  0  0  0  0  0  0  0  0  0
   -0.2290   23.0980  -27.9620 C   0  0  0  0  0  0  0  0  0  0  0  0
   -0.9490   23.0760  -26.7410 O   0  0  0  0  0  0  0  0  0  0  0  0
   -1.7470   24.2340  -26.6280 C   0  0  0  0  0  0  0  0  0  0  0  0
   -2.8800   24.2240  -27.6760 C   0  0  0  0  0  0  0  0  0  0  0  0
   -6.3380   22.1190  -31.5520 C   0  0  0  0  0  0  0  0  0  0  0  0
   -6.2960   20.7850  -31.9690 C   0  0  0  0  0  0  0  0  0  0  0  0
   -7.1169   18.1855  -30.6277 H   0  0  0  0  0  0  0  0  0  0  0  0
   -7.1583   16.7839  -31.7504 H   0  0  0  0  0  0  0  0  0  0  0  0
   -5.7455   17.8932  -31.7504 H   0  0  0  0  0  0  0  0  0  0  0  0
   -6.9774   18.5924  -33.6391 H   0  0  0  0  0  0  0  0  0  0  0  0
   -8.5590   18.3613  -32.7991 H   0  0  0  0  0  0  0  0  0  0  0  0
   -9.6880   20.3353  -32.3498 H   0  0  0  0  0  0  0  0  0  0  0  0
   -9.6921   22.7402  -31.6070 H   0  0  0  0  0  0  0  0  0  0  0  0
   -7.9637   24.8634  -30.7586 H   0  0  0  0  0  0  0  0  0  0  0  0
   -3.1150   25.1100  -31.2210 H   0  0  0  0  0  0  0  0  0  0  0  0
   -4.5077   20.8540  -29.7385 H   0  0  0  0  0  0  0  0  0  0  0  0
   -2.8422   20.7518  -30.4662 H   0  0  0  0  0  0  0  0  0  0  0  0
   -3.7259   21.9299  -27.9081 H   0  0  0  0  0  0  0  0  0  0  0  0
   -2.0835   21.3882  -28.4739 H   0  0  0  0  0  0  0  0  0  0  0  0
   -3.0480   23.8210  -29.6860 H   0  0  0  0  0  0  0  0  0  0  0  0
   -0.8717   22.8332  -30.0180 H   0  0  0  0  0  0  0  0  0  0  0  0
   -0.8772   24.5479  -29.4262 H   0  0  0  0  0  0  0  0  0  0  0  0
    0.1816   22.0940  -28.1445 H   0  0  0  0  0  0  0  0  0  0  0  0
    0.5630   23.8549  -27.8623 H   0  0  0  0  0  0  0  0  0  0  0  0
   -2.1878   24.2712  -25.6209 H   0  0  0  0  0  0  0  0  0  0  0  0
   -1.1139   25.1165  -26.8020 H   0  0  0  0  0  0  0  0  0  0  0  0
   -3.7882   23.8148  -27.2094 H   0  0  0  0  0  0  0  0  0  0  0  0
   -3.0302   25.2596  -28.0150 H   0  0  0  0  0  0  0  0  0  0  0  0
   -5.3380   20.2520  -32.0594 H   0  0  0  0  0  0  0  0  0  0  0  0
  1  2  1  0
  2  3  1  0
  3  4  2  0
  4  5  1  0
  5  6  2  0
  6  7  1  0
  7  8  2  0
  8  9  1  0
  9 10  1  0
  9 11  2  0
  8 12  1  0
 12 13  1  0
 13 14  2  0
 13 15  1  0
 15 16  1  0
 16 17  1  0
 17 18  1  0
 18 19  1  0
 19 20  1  0
 20 21  1  0
 21 22  1  0
 12 23  1  0
 23 24  2  0
 24  3  1  0
 23  6  1  0
 22 17  1  0
  1 25  1  0
  1 26  1  0
  1 27  1  0
  2 28  1  0
  2 29  1  0
  4 30  1  0
  5 31  1  0
  7 32  1  0
 10 33  1  0
 15 34  1  0
 15 35  1  0
 16 36  1  0
 16 37  1  0
 17 38  1  0
 18 39  1  0
 18 40  1  0
 19 41  1  0
 19 42  1  0
 21 43  1  0
 21 44  1  0
 22 45  1  0
 22 46  1  0
 24 47  1  0
M  CHG  2  10  -1  17   1
M  END
>  <UniqueID>  (43) 
43

>  <SMILES>  (43) 
CCc1ccc2cc(C([NH-])=O)n(C(=O)CC[NH+]3CCOCC3)c2c1

>  <Energy>  (43) 
94.60470635433757

>  <Genealogy>  (43) 
CCc1ccc2cc(C([NH-])=O)n(C(=O)CC[NH+]3CCOCC3)c2c1 (protonated)
CCc1ccc2cc(C([NH-])=O)n(C(=O)CC[NH+]3CCOCC3)c2c1 (3D coordinates assigned)
CCc1ccc2cc(C([NH-])=O)n(C(=O)CC[NH+]3CCOCC3)c2c1 (nonaromatic ring conformer: 94.60470635433757 kcal/mol)

>  <smiles>  (43) 
CCc1ccc2cc(C(N)=O)n(C(=O)CCN3CCOCC3)c2c1

>  <score_type>  (43) 
oracle

>  <origin>  (43) 
adg

>  <m_score__min__energy>  (43) 
-9.3499999999999996

>  <m_primary>  (43) 
energy

$$$$
43:0
     RDKit          3D

 32 33  0  0  0  0  0  0  0  0999 V2000
   -5.2210   17.2700  -33.8000 C   0  0  0  0  0  0  0  0  0  0  0  0
   -6.1490   18.4480  -33.7640 C   0  0  0  0  0  0  0  0  0  0  0  0
   -6.0320   19.3250  -34.6060 O   0  0  0  0  0  0  0  0  0  0  0  0
   -7.2260   18.5640  -32.7190 C   0  0  0  0  0  0  0  0  0  0  0  0
   -7.3050   19.9770  -32.2130 C   0  0  0  0  0  0  0  0  0  0  0  0
   -8.5670   20.6100  -32.0750 C   0  0  0  0  0  0  0  0  0  0  0  0
   -8.6560   21.9410  -31.6300 C   0  0  0  0  0  0  0  0  0  0  0  0
   -7.4700   22.6130  -31.3450 C   0  0  0  0  0  0  0  0  0  0  0  0
   -7.2630   23.9000  -30.8990 C   0  0  0  0  0  0  0  0  0  0  0  0
   -5.8780   24.0360  -30.7970 C   0  0  0  0  0  0  0  0  0  0  0  0
   -5.2000   25.2920  -30.4160 C   0  0  0  0  0  0  0  0  0  0  0  0
   -3.8640   25.5370  -30.8490 N   0  0  0  0  0  0  0  0  0  0  0  0
   -5.7820   26.1440  -29.6950 O   0  0  0  0  0  0  0  0  0  0  0  0
   -5.2600   22.8760  -31.1550 N   0  0  0  0  0  0  0  0  0  0  0  0
   -3.8540   22.5870  -31.1650 C   0  0  0  0  0  0  0  0  0  0  0  0
   -3.1100   23.0940  -30.2840 O   0  0  0  0  0  0  0  0  0  0  0  0
   -3.2420   21.7640  -32.2580 C   0  0  0  0  0  0  0  0  0  0  0  0
   -3.3970   20.4130  -32.0020 F   0  0  0  0  0  0  0  0  0  0  0  0
   -1.8940   22.0540  -32.3600 F   0  0  0  0  0  0  0  0  0  0  0  0
   -3.8610   22.0640  -33.4570 F   0  0  0  0  0  0  0  0  0  0  0  0
   -6.2440   22.0190  -31.4930 C   0  0  0  0  0  0  0  0  0  0  0  0
   -6.1240   20.6960  -31.9260 C   0  0  0  0  0  0  0  0  0  0  0  0
   -4.9788   16.9625  -32.7720 H   0  0  0  0  0  0  0  0  0  0  0  0
   -5.7074   16.4360  -34.3272 H   0  0  0  0  0  0  0  0  0  0  0  0
   -4.2963   17.5476  -34.3272 H   0  0  0  0  0  0  0  0  0  0  0  0
   -8.1930   18.2810  -33.1603 H   0  0  0  0  0  0  0  0  0  0  0  0
   -6.9870   17.8941  -31.8799 H   0  0  0  0  0  0  0  0  0  0  0  0
   -9.4847   20.0544  -32.3184 H   0  0  0  0  0  0  0  0  0  0  0  0
   -9.6313   22.4356  -31.5108 H   0  0  0  0  0  0  0  0  0  0  0  0
   -8.0266   24.6585  -30.6718 H   0  0  0  0  0  0  0  0  0  0  0  0
   -3.0500   25.2800  -30.2470 H   0  0  0  0  0  0  0  0  0  0  0  0
   -5.1356   20.2269  -32.0403 H   0  0  0  0  0  0  0  0  0  0  0  0
  1  2  1  0
  2  3  2  0
  2  4  1  0
  4  5  1  0
  5  6  2  0
  6  7  1  0
  7  8  2  0
  8  9  1  0
  9 10  2  0
 10 11  1  0
 11 12  1  0
 11 13  2  0
 10 14  1  0
 14 15  1  0
 15 16  2  0
 15 17  1  0
 17 18  1  0
 17 19  1  0
 17 20  1  0
 14 21  1  0
 21 22  2  0
 22  5  1  0
 21  8  1  0
  1 23  1  0
  1 24  1  0
  1 25  1  0
  4 26  1  0
  4 27  1  0
  6 28  1  0
  7 29  1  0
  9 30  1  0
 12 31  1  0
 22 32  1  0
M  CHG  1  12  -1
M  END
>  <UniqueID>  (44) 
44

>  <SMILES>  (44) 
CC(=O)Cc1ccc2cc(C([NH-])=O)n(C(=O)C(F)(F)F)c2c1

>  <Energy>  (44) 
67.62315566180229

>  <Genealogy>  (44) 
CC(=O)Cc1ccc2cc(C([NH-])=O)n(C(=O)C(F)(F)F)c2c1 (protonated)
CC(=O)Cc1ccc2cc(C([NH-])=O)n(C(=O)C(F)(F)F)c2c1 (3D coordinates assigned)
CC(=O)Cc1ccc2cc(C([NH-])=O)n(C(=O)C(F)(F)F)c2c1 (optimized conformer: 67.62315566180229 kcal/mol)

>  <smiles>  (44) 
CC(=O)Cc1ccc2cc(C(N)=O)n(C(=O)C(F)(F)F)c2c1

>  <score_type>  (44) 
oracle

>  <origin>  (44) 
adg

>  <m_score__min__energy>  (44) 
-9.9399999999999995

>  <m_primary>  (44) 
energy

$$$$
44:0
     RDKit          3D

 52 54  0  0  0  0  0  0  0  0999 V2000
   -6.1640   16.6500  -34.5350 C   0  0  0  0  0  0  0  0  0  0  0  0
   -6.4620   18.0010  -34.0290 N   0  0  0  0  0  0  0  0  0  0  0  0
   -5.2100   18.7630  -33.8540 C   0  0  0  0  0  0  0  0  0  0  0  0
   -7.1780   17.9130  -32.7570 C   0  0  0  0  0  0  0  0  0  0  0  0
   -6.7980   17.1470  -31.8810 O   0  0  0  0  0  0  0  0  0  0  0  0
   -8.4390   18.7060  -32.5060 C   0  0  0  0  0  0  0  0  0  0  0  0
   -8.1440   20.1400  -32.1420 C   0  0  0  0  0  0  0  0  0  0  0  0
   -9.1970   21.0910  -32.0800 C   0  0  0  0  0  0  0  0  0  0  0  0
   -8.9550   22.3970  -31.6270 C   0  0  0  0  0  0  0  0  0  0  0  0
   -7.6490   22.7370  -31.2900 C   0  0  0  0  0  0  0  0  0  0  0  0
   -7.1580   23.9140  -30.7830 C   0  0  0  0  0  0  0  0  0  0  0  0
   -5.7890   23.6980  -30.6400 C   0  0  0  0  0  0  0  0  0  0  0  0
   -4.8730   24.6850  -30.0220 C   0  0  0  0  0  0  0  0  0  0  0  0
   -3.8520   25.3150  -30.7930 N   0  0  0  0  0  0  0  0  0  0  0  0
   -4.9450   24.9170  -28.7860 O   0  0  0  0  0  0  0  0  0  0  0  0
   -5.4260   22.4590  -31.0790 N   0  0  0  0  0  0  0  0  0  0  0  0
   -4.0850   22.0930  -31.4830 C   0  0  0  0  0  0  0  0  0  0  0  0
   -3.7320   22.2870  -32.6860 O   0  0  0  0  0  0  0  0  0  0  0  0
   -3.1100   21.4320  -30.5420 C   0  0  0  0  0  0  0  0  0  0  0  0
   -2.3910   22.4430  -29.6910 C   0  0  0  0  0  0  0  0  0  0  0  0
   -1.8140   23.4140  -30.2560 O   0  0  0  0  0  0  0  0  0  0  0  0
   -2.4210   22.3580  -28.2530 N   0  0  0  0  0  0  0  0  0  0  0  0
   -2.2300   23.5250  -27.4070 C   0  0  0  0  0  0  0  0  0  0  0  0
   -1.2370   23.1030  -26.3320 C   0  0  0  0  0  0  0  0  0  0  0  0
   -1.1360   21.5780  -26.4100 C   0  0  0  0  0  0  0  0  0  0  0  0
   -2.0380   21.1380  -27.5610 C   0  0  0  0  0  0  0  0  0  0  0  0
   -6.5960   21.8570  -31.4290 C   0  0  0  0  0  0  0  0  0  0  0  0
   -6.8220   20.5360  -31.8420 C   0  0  0  0  0  0  0  0  0  0  0  0
   -6.0131   15.9659  -33.6870 H   0  0  0  0  0  0  0  0  0  0  0  0
   -7.0053   16.2942  -35.1479 H   0  0  0  0  0  0  0  0  0  0  0  0
   -5.2511   16.6811  -35.1479 H   0  0  0  0  0  0  0  0  0  0  0  0
   -7.0550   18.4850  -34.7510 H   0  0  0  0  0  0  0  0  0  0  0  0
   -5.0040   18.8884  -32.7808 H   0  0  0  0  0  0  0  0  0  0  0  0
   -4.3795   18.2170  -34.3254 H   0  0  0  0  0  0  0  0  0  0  0  0
   -5.3134   19.7515  -34.3254 H   0  0  0  0  0  0  0  0  0  0  0  0
   -9.0550   18.6908  -33.4172 H   0  0  0  0  0  0  0  0  0  0  0  0
   -8.9675   18.2433  -31.6595 H   0  0  0  0  0  0  0  0  0  0  0  0
  -10.2118   20.8011  -32.3900 H   0  0  0  0  0  0  0  0  0  0  0  0
   -9.7721   23.1285  -31.5412 H   0  0  0  0  0  0  0  0  0  0  0  0
   -7.7216   24.8275  -30.5423 H   0  0  0  0  0  0  0  0  0  0  0  0
   -2.8560   25.2990  -30.4890 H   0  0  0  0  0  0  0  0  0  0  0  0
   -3.6593   20.7398  -29.8869 H   0  0  0  0  0  0  0  0  0  0  0  0
   -2.3624   20.8936  -31.1430 H   0  0  0  0  0  0  0  0  0  0  0  0
   -1.8248   24.3617  -27.9950 H   0  0  0  0  0  0  0  0  0  0  0  0
   -3.1795   23.8658  -26.9685 H   0  0  0  0  0  0  0  0  0  0  0  0
   -0.2543   23.5593  -26.5219 H   0  0  0  0  0  0  0  0  0  0  0  0
   -1.5668   23.4298  -25.3348 H   0  0  0  0  0  0  0  0  0  0  0  0
   -0.0965   21.2762  -26.6060 H   0  0  0  0  0  0  0  0  0  0  0  0
   -1.4459   21.1115  -25.4632 H   0  0  0  0  0  0  0  0  0  0  0  0
   -1.4919   20.4674  -28.2408 H   0  0  0  0  0  0  0  0  0  0  0  0
   -2.9172   20.5855  -27.1979 H   0  0  0  0  0  0  0  0  0  0  0  0
   -5.9881   19.8241  -31.9303 H   0  0  0  0  0  0  0  0  0  0  0  0
  1  2  1  0
  2  3  1  0
  2  4  1  0
  4  5  2  0
  4  6  1  0
  6  7  1  0
  7  8  2  0
  8  9  1  0
  9 10  2  0
 10 11  1  0
 11 12  2  0
 12 13  1  0
 13 14  1  0
 13 15  2  0
 12 16  1  0
 16 17  1  0
 17 18  2  0
 17 19  1  0
 19 20  1  0
 20 21  2  0
 20 22  1  0
 22 23  1  0
 23 24  1  0
 24 25  1  0
 25 26  1  0
 16 27  1  0
 27 28  2  0
 28  7  1  0
 27 10  1  0
 26 22  1  0
  1 29  1  0
  1 30  1  0
  1 31  1  0
  2 32  1  0
  3 33  1  0
  3 34  1  0
  3 35  1  0
  6 36  1  0
  6 37  1  0
  8 38  1  0
  9 39  1  0
 11 40  1  0
 14 41  1  0
 19 42  1  0
 19 43  1  0
 23 44  1  0
 23 45  1  0
 24 46  1  0
 24 47  1  0
 25 48  1  0
 25 49  1  0
 26 50  1  0
 26 51  1  0
 28 52  1  0
M  CHG  2   2   1  14  -1
M  END
>  <UniqueID>  (45) 
45

>  <SMILES>  (45) 
C[NH+](C)C(=O)Cc1ccc2cc(C([NH-])=O)n(C(=O)CC(=O)N3CCCC3)c2c1

>  <Energy>  (45) 
102.88898628136391

>  <Genealogy>  (45) 
C[NH+](C)C(=O)Cc1ccc2cc(C([NH-])=O)n(C(=O)CC(=O)N3CCCC3)c2c1 (protonated)
C[NH+](C)C(=O)Cc1ccc2cc(C([NH-])=O)n(C(=O)CC(=O)N3CCCC3)c2c1 (3D coordinates assigned)
C[NH+](C)C(=O)Cc1ccc2cc(C([NH-])=O)n(C(=O)CC(=O)N3CCCC3)c2c1 (nonaromatic ring conformer: 102.88898628136391 kcal/mol)

>  <smiles>  (45) 
CN(C)C(=O)Cc1ccc2cc(C(N)=O)n(C(=O)CC(=O)N3CCCC3)c2c1

>  <score_type>  (45) 
oracle

>  <origin>  (45) 
adg

>  <m_score__min__energy>  (45) 
-11.720000000000001

>  <m_primary>  (45) 
energy

$$$$
45:0
     RDKit          3D

 55 56  0  0  0  0  0  0  0  0999 V2000
   -0.8550   26.1950  -27.9740 C   0  0  0  0  0  0  0  0  0  0  0  0
   -1.7340   25.6360  -28.9240 O   0  0  0  0  0  0  0  0  0  0  0  0
   -2.4810   24.5990  -28.3220 C   0  0  0  0  0  0  0  0  0  0  0  0
   -2.0130   23.2440  -28.8600 C   0  0  0  0  0  0  0  0  0  0  0  0
   -3.1080   22.5180  -29.6540 C   0  0  0  0  0  0  0  0  0  0  0  0
   -3.0810   22.8830  -31.0320 O   0  0  0  0  0  0  0  0  0  0  0  0
   -4.1370   22.6400  -31.9180 C   0  0  0  0  0  0  0  0  0  0  0  0
   -3.9050   22.2070  -33.0800 O   0  0  0  0  0  0  0  0  0  0  0  0
   -5.4860   22.9130  -31.5110 N   0  0  0  0  0  0  0  0  0  0  0  0
   -5.9570   24.0140  -30.8570 C   0  0  0  0  0  0  0  0  0  0  0  0
   -5.2060   25.2600  -30.6040 C   0  0  0  0  0  0  0  0  0  0  0  0
   -3.8620   25.4100  -31.0530 N   0  0  0  0  0  0  0  0  0  0  0  0
   -5.7760   26.2250  -30.0290 O   0  0  0  0  0  0  0  0  0  0  0  0
   -7.3000   23.8470  -30.5240 C   0  0  0  0  0  0  0  0  0  0  0  0
   -7.6450   22.6060  -31.0090 C   0  0  0  0  0  0  0  0  0  0  0  0
   -8.8560   21.9220  -30.9360 C   0  0  0  0  0  0  0  0  0  0  0  0
   -8.9170   20.6320  -31.4930 C   0  0  0  0  0  0  0  0  0  0  0  0
   -7.7790   20.0580  -32.1110 C   0  0  0  0  0  0  0  0  0  0  0  0
   -7.8470   18.6610  -32.6720 C   0  0  0  0  0  0  0  0  0  0  0  0
   -6.5750   17.8460  -32.3760 C   0  0  0  0  0  0  0  0  0  0  0  0
   -5.8100   17.3700  -33.6250 C   0  0  0  0  0  0  0  0  0  0  0  0
   -5.3880   18.5200  -34.5520 C   0  0  0  0  0  0  0  0  0  0  0  0
   -3.9130   18.6220  -34.5890 N   0  0  0  0  0  0  0  0  0  0  0  0
   -3.3940   19.2410  -33.3570 C   0  0  0  0  0  0  0  0  0  0  0  0
   -3.3010   17.2950  -34.7700 C   0  0  0  0  0  0  0  0  0  0  0  0
   -6.5680   20.7830  -32.1610 C   0  0  0  0  0  0  0  0  0  0  0  0
   -6.5360   22.0660  -31.6050 C   0  0  0  0  0  0  0  0  0  0  0  0
   -1.2161   25.9654  -26.9606 H   0  0  0  0  0  0  0  0  0  0  0  0
    0.1504   25.7700  -28.1101 H   0  0  0  0  0  0  0  0  0  0  0  0
   -0.8135   27.2858  -28.1101 H   0  0  0  0  0  0  0  0  0  0  0  0
   -2.3356   24.6293  -27.2321 H   0  0  0  0  0  0  0  0  0  0  0  0
   -3.5469   24.7350  -28.5573 H   0  0  0  0  0  0  0  0  0  0  0  0
   -1.1474   23.4059  -29.5193 H   0  0  0  0  0  0  0  0  0  0  0  0
   -1.7513   22.6136  -27.9973 H   0  0  0  0  0  0  0  0  0  0  0  0
   -2.9520   21.4325  -29.5683 H   0  0  0  0  0  0  0  0  0  0  0  0
   -4.0850   22.8063  -29.2389 H   0  0  0  0  0  0  0  0  0  0  0  0
   -3.0660   25.0130  -30.5080 H   0  0  0  0  0  0  0  0  0  0  0  0
   -7.9470   24.5565  -29.9874 H   0  0  0  0  0  0  0  0  0  0  0  0
   -9.7365   22.3761  -30.4580 H   0  0  0  0  0  0  0  0  0  0  0  0
   -9.8575   20.0633  -31.4483 H   0  0  0  0  0  0  0  0  0  0  0  0
   -8.7095   18.1434  -32.2269 H   0  0  0  0  0  0  0  0  0  0  0  0
   -7.9454   18.7432  -33.7645 H   0  0  0  0  0  0  0  0  0  0  0  0
   -5.8977   18.4733  -31.7778 H   0  0  0  0  0  0  0  0  0  0  0  0
   -6.9035   16.9384  -31.8485 H   0  0  0  0  0  0  0  0  0  0  0  0
   -4.9062   16.8348  -33.2984 H   0  0  0  0  0  0  0  0  0  0  0  0
   -6.4902   16.7221  -34.1973 H   0  0  0  0  0  0  0  0  0  0  0  0
   -5.7658   18.3275  -35.5670 H   0  0  0  0  0  0  0  0  0  0  0  0
   -5.8066   19.4635  -34.1719 H   0  0  0  0  0  0  0  0  0  0  0  0
   -3.8221   18.7305  -32.4817 H   0  0  0  0  0  0  0  0  0  0  0  0
   -2.2980   19.1503  -33.3347 H   0  0  0  0  0  0  0  0  0  0  0  0
   -3.6745   20.3044  -33.3347 H   0  0  0  0  0  0  0  0  0  0  0  0
   -3.0952   16.8488  -33.7858 H   0  0  0  0  0  0  0  0  0  0  0  0
   -3.9909   16.6463  -35.3297 H   0  0  0  0  0  0  0  0  0  0  0  0
   -2.3597   17.3986  -35.3297 H   0  0  0  0  0  0  0  0  0  0  0  0
   -5.6709   20.3488  -32.6264 H   0  0  0  0  0  0  0  0  0  0  0  0
  1  2  1  0
  2  3  1  0
  3  4  1  0
  4  5  1  0
  5  6  1  0
  6  7  1  0
  7  8  2  0
  7  9  1  0
  9 10  1  0
 10 11  1  0
 11 12  1  0
 11 13  2  0
 10 14  2  0
 14 15  1  0
 15 16  2  0
 16 17  1  0
 17 18  2  0
 18 19  1  0
 19 20  1  0
 20 21  1  0
 21 22  1  0
 22 23  1  0
 23 24  1  0
 23 25  1  0
 18 26  1  0
 26 27  2  0
 27  9  1  0
 27 15  1  0
  1 28  1  0
  1 29  1  0
  1 30  1  0
  3 31  1  0
  3 32  1  0
  4 33  1  0
  4 34  1  0
  5 35  1  0
  5 36  1  0
 12 37  1  0
 14 38  1  0
 16 39  1  0
 17 40  1  0
 19 41  1  0
 19 42  1  0
 20 43  1  0
 20 44  1  0
 21 45  1  0
 21 46  1  0
 22 47  1  0
 22 48  1  0
 24 49  1  0
 24 50  1  0
 24 51  1  0
 25 52  1  0
 25 53  1  0
 25 54  1  0
 26 55  1  0
M  CHG  1  12  -1
M  END
>  <UniqueID>  (46) 
46

>  <SMILES>  (46) 
COCCCOC(=O)n1c(C([NH-])=O)cc2ccc(CCCCN(C)C)cc21

>  <Energy>  (46) 
82.85460880359786

>  <Genealogy>  (46) 
COCCCOC(=O)n1c(C([NH-])=O)cc2ccc(CCCCN(C)C)cc21 (protonated)
COCCCOC(=O)n1c(C([NH-])=O)cc2ccc(CCCCN(C)C)cc21 (3D coordinates assigned)
COCCCOC(=O)n1c(C([NH-])=O)cc2ccc(CCCCN(C)C)cc21 (optimized conformer: 82.85460880359786 kcal/mol)

>  <smiles>  (46) 
COCCCOC(=O)n1c(C(N)=O)cc2ccc(CCCCN(C)C)cc21

>  <score_type>  (46) 
oracle

>  <origin>  (46) 
adg

>  <m_score__min__energy>  (46) 
-10.76

>  <m_primary>  (46) 
energy

$$$$
46:0
     RDKit          3D

 41 42  0  0  0  0  0  0  0  0999 V2000
   -3.8150   21.8710  -33.4140 C   0  0  0  0  0  0  0  0  0  0  0  0
   -3.3290   21.8000  -32.1760 C   0  0  0  0  0  0  0  0  0  0  0  0
   -4.0670   22.2920  -30.9980 C   0  0  0  0  0  0  0  0  0  0  0  0
   -3.4620   22.3970  -29.8990 O   0  0  0  0  0  0  0  0  0  0  0  0
   -5.4540   22.6600  -31.0780 N   0  0  0  0  0  0  0  0  0  0  0  0
   -5.9980   23.8920  -30.8780 C   0  0  0  0  0  0  0  0  0  0  0  0
   -5.2680   25.0890  -30.4090 C   0  0  0  0  0  0  0  0  0  0  0  0
   -3.8790   25.2310  -30.6950 N   0  0  0  0  0  0  0  0  0  0  0  0
   -5.8630   25.9970  -29.7720 O   0  0  0  0  0  0  0  0  0  0  0  0
   -7.3670   23.8690  -31.1440 C   0  0  0  0  0  0  0  0  0  0  0  0
   -7.6430   22.5760  -31.5270 C   0  0  0  0  0  0  0  0  0  0  0  0
   -8.8390   21.9970  -31.9390 C   0  0  0  0  0  0  0  0  0  0  0  0
   -8.8190   20.6450  -32.3230 C   0  0  0  0  0  0  0  0  0  0  0  0
   -7.6120   19.9010  -32.2850 C   0  0  0  0  0  0  0  0  0  0  0  0
   -7.5840   18.4730  -32.7550 C   0  0  0  0  0  0  0  0  0  0  0  0
   -6.5140   17.7060  -32.0230 C   0  0  0  0  0  0  0  0  0  0  0  0
   -6.5840   17.6100  -30.8050 O   0  0  0  0  0  0  0  0  0  0  0  0
   -5.4110   17.1010  -32.7490 N   0  0  2  0  0  0  0  0  0  0  0  0
   -5.0250   15.8120  -32.1450 C   0  0  0  0  0  0  0  0  0  0  0  0
   -4.2650   18.0290  -32.8920 C   0  0  0  0  0  0  0  0  0  0  0  0
   -3.9450   18.3900  -34.3180 C   0  0  0  0  0  0  0  0  0  0  0  0
   -2.9560   19.1230  -34.5820 O   0  0  0  0  0  0  0  0  0  0  0  0
   -4.7390   17.9090  -35.3530 O   0  0  0  0  0  0  0  0  0  0  0  0
   -6.4160   20.5250  -31.8640 C   0  0  0  0  0  0  0  0  0  0  0  0
   -6.4690   21.8680  -31.4810 C   0  0  0  0  0  0  0  0  0  0  0  0
   -3.2240   21.4893  -34.2596 H   0  0  0  0  0  0  0  0  0  0  0  0
   -4.8074   22.3114  -33.5909 H   0  0  0  0  0  0  0  0  0  0  0  0
   -2.3342   21.3552  -32.0258 H   0  0  0  0  0  0  0  0  0  0  0  0
   -3.5240   26.0440  -31.2460 H   0  0  0  0  0  0  0  0  0  0  0  0
   -8.0757   24.7065  -31.0646 H   0  0  0  0  0  0  0  0  0  0  0  0
   -9.7718   22.5794  -31.9635 H   0  0  0  0  0  0  0  0  0  0  0  0
   -9.7481   20.1594  -32.6561 H   0  0  0  0  0  0  0  0  0  0  0  0
   -8.5617   18.0075  -32.5616 H   0  0  0  0  0  0  0  0  0  0  0  0
   -7.3659   18.4539  -33.8330 H   0  0  0  0  0  0  0  0  0  0  0  0
   -5.7390   16.8850  -33.7200 H   0  0  0  0  0  0  0  0  0  0  0  0
   -5.0509   15.8984  -31.0487 H   0  0  0  0  0  0  0  0  0  0  0  0
   -5.7285   15.0305  -32.4679 H   0  0  0  0  0  0  0  0  0  0  0  0
   -4.0077   15.5458  -32.4679 H   0  0  0  0  0  0  0  0  0  0  0  0
   -4.4985   18.9542  -32.3448 H   0  0  0  0  0  0  0  0  0  0  0  0
   -3.3827   17.5103  -32.4889 H   0  0  0  0  0  0  0  0  0  0  0  0
   -5.4678   19.9680  -31.8384 H   0  0  0  0  0  0  0  0  0  0  0  0
  1  2  2  0
  2  3  1  0
  3  4  2  0
  3  5  1  0
  5  6  1  0
  6  7  1  0
  7  8  1  0
  7  9  2  0
  6 10  2  0
 10 11  1  0
 11 12  2  0
 12 13  1  0
 13 14  2  0
 14 15  1  0
 15 16  1  0
 16 17  2  0
 16 18  1  0
 18 19  1  0
 18 20  1  0
 20 21  1  0
 21 22  2  0
 21 23  1  0
 14 24  1  0
 24 25  2  0
 25  5  1  0
 25 11  1  0
  1 26  1  0
  1 27  1  0
  2 28  1  0
  8 29  1  0
 10 30  1  0
 12 31  1  0
 13 32  1  0
 15 33  1  0
 15 34  1  0
 18 35  1  6
 19 36  1  0
 19 37  1  0
 19 38  1  0
 20 39  1  0
 20 40  1  0
 24 41  1  0
M  CHG  3   8  -1  18   1  23  -1
M  END
>  <UniqueID>  (47) 
47

>  <SMILES>  (47) 
C=CC(=O)n1c(C([NH-])=O)cc2ccc(CC(=O)[N@H+](C)CC(=O)[O-])cc21

>  <Energy>  (47) 
79.3168325377589

>  <Genealogy>  (47) 
C=CC(=O)n1c(C([NH-])=O)cc2ccc(CC(=O)[NH+](C)CC(=O)[O-])cc21 (protonated)
C=CC(=O)n1c(C([NH-])=O)cc2ccc(CC(=O)[N@H+](C)CC(=O)[O-])cc21 (chirality)
C=CC(=O)n1c(C([NH-])=O)cc2ccc(CC(=O)[N@H+](C)CC(=O)[O-])cc21 (3D coordinates assigned)
C=CC(=O)n1c(C([NH-])=O)cc2ccc(CC(=O)[N@H+](C)CC(=O)[O-])cc21 (optimized conformer: 79.3168325377589 kcal/mol)

>  <smiles>  (47) 
C=CC(=O)n1c(C(N)=O)cc2ccc(CC(=O)N(C)CC(=O)O)cc21

>  <score_type>  (47) 
oracle

>  <origin>  (47) 
adg

>  <m_score__min__energy>  (47) 
-10.56

>  <m_primary>  (47) 
energy

$$$$
47:0
     RDKit          3D

 48 50  0  0  0  0  0  0  0  0999 V2000
   -0.4420   21.2230  -32.9260 C   0  0  0  0  0  0  0  0  0  0  0  0
   -1.6610   20.3710  -33.0520 C   0  0  0  0  0  0  0  0  0  0  0  0
   -2.0380   19.7660  -34.1540 O   0  0  0  0  0  0  0  0  0  0  0  0
   -3.1530   19.1380  -33.8540 C   0  0  0  0  0  0  0  0  0  0  0  0
   -3.8040   18.4420  -34.6770 O   0  0  0  0  0  0  0  0  0  0  0  0
   -3.5140   19.3150  -32.6030 O   0  0  0  0  0  0  0  0  0  0  0  0
   -2.5980   20.0920  -32.0730 C   0  0  0  0  0  0  0  0  0  0  0  0
   -2.5910   20.5350  -30.6460 C   0  0  0  0  0  0  0  0  0  0  0  0
   -3.7700   21.2860  -30.3850 O   0  0  0  0  0  0  0  0  0  0  0  0
   -4.0670   22.4790  -31.0490 C   0  0  0  0  0  0  0  0  0  0  0  0
   -3.1480   23.1470  -31.5970 O   0  0  0  0  0  0  0  0  0  0  0  0
   -5.4290   22.9310  -31.1290 N   0  0  0  0  0  0  0  0  0  0  0  0
   -5.9230   24.1520  -30.7750 C   0  0  0  0  0  0  0  0  0  0  0  0
   -5.1230   25.3370  -30.4040 C   0  0  0  0  0  0  0  0  0  0  0  0
   -3.7010   25.2750  -30.3500 N   0  0  0  0  0  0  0  0  0  0  0  0
   -5.7020   26.4340  -30.1820 O   0  0  0  0  0  0  0  0  0  0  0  0
   -7.3110   24.1710  -30.8910 C   0  0  0  0  0  0  0  0  0  0  0  0
   -7.6580   22.9170  -31.3350 C   0  0  0  0  0  0  0  0  0  0  0  0
   -8.9120   22.3820  -31.6160 C   0  0  0  0  0  0  0  0  0  0  0  0
   -8.9770   21.0440  -32.0370 C   0  0  0  0  0  0  0  0  0  0  0  0
   -7.7990   20.2660  -32.1550 C   0  0  0  0  0  0  0  0  0  0  0  0
   -7.8750   18.8440  -32.6390 C   0  0  0  0  0  0  0  0  0  0  0  0
   -6.6080   18.4780  -33.3620 C   0  0  0  0  0  0  0  0  0  0  0  0
   -6.3560   19.0140  -34.4340 O   0  0  0  0  0  0  0  0  0  0  0  0
   -5.7150   17.4720  -32.8200 N   0  0  0  0  0  0  0  0  0  0  0  0
   -6.0600   17.1910  -31.4170 C   0  0  0  0  0  0  0  0  0  0  0  0
   -5.7740   16.2460  -33.6300 C   0  0  0  0  0  0  0  0  0  0  0  0
   -6.5430   20.8440  -31.8680 C   0  0  0  0  0  0  0  0  0  0  0  0
   -6.5050   22.1860  -31.4700 C   0  0  0  0  0  0  0  0  0  0  0  0
   -0.2143   21.3821  -31.8617 H   0  0  0  0  0  0  0  0  0  0  0  0
    0.4079   20.7212  -33.4117 H   0  0  0  0  0  0  0  0  0  0  0  0
   -0.6212   22.1935  -33.4117 H   0  0  0  0  0  0  0  0  0  0  0  0
   -2.5620   19.6545  -29.9873 H   0  0  0  0  0  0  0  0  0  0  0  0
   -1.7052   21.1590  -30.4566 H   0  0  0  0  0  0  0  0  0  0  0  0
   -3.1290   25.3160  -31.2230 H   0  0  0  0  0  0  0  0  0  0  0  0
   -7.9865   25.0115  -30.6734 H   0  0  0  0  0  0  0  0  0  0  0  0
   -9.8237   22.9885  -31.5115 H   0  0  0  0  0  0  0  0  0  0  0  0
   -9.9522   20.5955  -32.2775 H   0  0  0  0  0  0  0  0  0  0  0  0
   -8.0098   18.1729  -31.7779 H   0  0  0  0  0  0  0  0  0  0  0  0
   -8.7262   18.7423  -33.3283 H   0  0  0  0  0  0  0  0  0  0  0  0
   -4.7300   17.8270  -32.8440 H   0  0  0  0  0  0  0  0  0  0  0  0
   -5.3795   17.7453  -30.7540 H   0  0  0  0  0  0  0  0  0  0  0  0
   -7.0964   17.5052  -31.2242 H   0  0  0  0  0  0  0  0  0  0  0  0
   -5.9620   16.1125  -31.2242 H   0  0  0  0  0  0  0  0  0  0  0  0
   -5.8162   15.3698  -32.9664 H   0  0  0  0  0  0  0  0  0  0  0  0
   -6.6721   16.2688  -34.2648 H   0  0  0  0  0  0  0  0  0  0  0  0
   -4.8779   16.1824  -34.2648 H   0  0  0  0  0  0  0  0  0  0  0  0
   -5.6180   20.2551  -31.9549 H   0  0  0  0  0  0  0  0  0  0  0  0
  1  2  1  0
  2  3  1  0
  3  4  1  0
  4  5  2  0
  4  6  1  0
  6  7  1  0
  7  8  1  0
  8  9  1  0
  9 10  1  0
 10 11  2  0
 10 12  1  0
 12 13  1  0
 13 14  1  0
 14 15  1  0
 14 16  2  0
 13 17  2  0
 17 18  1  0
 18 19  2  0
 19 20  1  0
 20 21  2  0
 21 22  1  0
 22 23  1  0
 23 24  2  0
 23 25  1  0
 25 26  1  0
 25 27  1  0
 21 28  1  0
 28 29  2  0
  7  2  2  0
 29 12  1  0
 29 18  1  0
  1 30  1  0
  1 31  1  0
  1 32  1  0
  8 33  1  0
  8 34  1  0
 15 35  1  0
 17 36  1  0
 19 37  1  0
 20 38  1  0
 22 39  1  0
 22 40  1  0
 25 41  1  0
 26 42  1  0
 26 43  1  0
 26 44  1  0
 27 45  1  0
 27 46  1  0
 27 47  1  0
 28 48  1  0
M  CHG  2  15  -1  25   1
M  END
>  <UniqueID>  (48) 
48

>  <SMILES>  (48) 
Cc1oc(=O)oc1COC(=O)n1c(C([NH-])=O)cc2ccc(CC(=O)[NH+](C)C)cc21

>  <Energy>  (48) 
114.71124838226845

>  <Genealogy>  (48) 
Cc1oc(=O)oc1COC(=O)n1c(C([NH-])=O)cc2ccc(CC(=O)[NH+](C)C)cc21 (protonated)
Cc1oc(=O)oc1COC(=O)n1c(C([NH-])=O)cc2ccc(CC(=O)[NH+](C)C)cc21 (3D coordinates assigned)
Cc1oc(=O)oc1COC(=O)n1c(C([NH-])=O)cc2ccc(CC(=O)[NH+](C)C)cc21 (optimized conformer: 114.71124838226845 kcal/mol)

>  <smiles>  (48) 
Cc1oc(=O)oc1COC(=O)n1c(C(N)=O)cc2ccc(CC(=O)N(C)C)cc21

>  <score_type>  (48) 
oracle

>  <origin>  (48) 
adg

>  <m_score__min__energy>  (48) 
-10.57

>  <m_primary>  (48) 
energy

$$$$
48:0
     RDKit          3D

 37 38  0  0  0  0  0  0  0  0999 V2000
   -4.2250   25.0270  -31.5870 H   0  0  0  0  0  0  0  0  0  0  0  0
   -4.1430   25.6710  -30.8360 O   0  0  0  0  0  0  0  0  0  0  0  0
   -5.4510   25.9530  -30.4240 C   0  0  0  0  0  0  0  0  0  0  0  0
   -6.0462   26.2712  -31.2926 H   0  0  0  0  0  0  0  0  0  0  0  0
   -5.4285   26.7569  -29.6735 H   0  0  0  0  0  0  0  0  0  0  0  0
   -6.0730   24.7260  -29.8160 C   0  0  0  0  0  0  0  0  0  0  0  0
   -6.0820   24.6412  -28.7193 H   0  0  0  0  0  0  0  0  0  0  0  0
   -6.6190   23.7260  -30.5310 C   0  0  0  0  0  0  0  0  0  0  0  0
   -7.0443   22.8723  -29.9830 H   0  0  0  0  0  0  0  0  0  0  0  0
   -6.6840   23.7030  -32.0360 C   0  0  0  0  0  0  0  0  0  0  0  0
   -7.0869   24.6619  -32.3940 H   0  0  0  0  0  0  0  0  0  0  0  0
   -7.3352   22.8730  -32.3475 H   0  0  0  0  0  0  0  0  0  0  0  0
   -5.3890   23.5020  -32.5970 O   0  0  0  0  0  0  0  0  0  0  0  0
   -4.4360   22.6380  -32.0470 C   0  0  0  0  0  0  0  0  0  0  0  0
   -3.6460   23.0500  -31.1550 O   0  0  0  0  0  0  0  0  0  0  0  0
   -4.3650   21.2760  -32.5010 N   0  0  0  0  0  0  0  0  0  0  0  0
   -3.2940   20.6510  -33.0670 C   0  0  0  0  0  0  0  0  0  0  0  0
   -1.9250   21.1980  -33.1620 C   0  0  0  0  0  0  0  0  0  0  0  0
   -1.2500   20.9990  -34.2070 O   0  0  0  0  0  0  0  0  0  0  0  0
   -1.3280   21.8910  -32.0650 N   0  0  0  0  0  0  0  0  0  0  0  0
   -1.7950   21.9280  -31.1320 H   0  0  0  0  0  0  0  0  0  0  0  0
   -0.3770   22.3090  -32.1650 H   0  0  0  0  0  0  0  0  0  0  0  0
   -3.6420   19.3810  -33.5150 C   0  0  0  0  0  0  0  0  0  0  0  0
   -2.9930   18.6498  -34.0191 H   0  0  0  0  0  0  0  0  0  0  0  0
   -4.9710   19.2350  -33.1930 C   0  0  0  0  0  0  0  0  0  0  0  0
   -5.8340   18.1680  -33.4220 C   0  0  0  0  0  0  0  0  0  0  0  0
   -5.4784   17.2462  -33.9055 H   0  0  0  0  0  0  0  0  0  0  0  0
   -7.1720   18.3020  -33.0180 C   0  0  0  0  0  0  0  0  0  0  0  0
   -7.8754   17.4714  -33.1772 H   0  0  0  0  0  0  0  0  0  0  0  0
   -7.6240   19.4980  -32.4070 C   0  0  0  0  0  0  0  0  0  0  0  0
   -9.0580   19.6420  -31.9830 C   0  0  0  0  0  0  0  0  0  0  0  0
   -9.2591   18.9480  -31.1536 H   0  0  0  0  0  0  0  0  0  0  0  0
   -9.2930   20.9400  -31.5680 F   0  0  0  0  0  0  0  0  0  0  0  0
   -9.8920   19.3450  -33.0470 F   0  0  0  0  0  0  0  0  0  0  0  0
   -6.7210   20.5630  -32.1920 C   0  0  0  0  0  0  0  0  0  0  0  0
   -7.0568   21.5020  -31.7278 H   0  0  0  0  0  0  0  0  0  0  0  0
   -5.3870   20.3930  -32.5850 C   0  0  0  0  0  0  0  0  0  0  0  0
  1  2  1  0
  2  3  1  0
  3  4  1  0
  3  5  1  0
  3  6  1  0
  6  7  1  0
  6  8  2  0
  8  9  1  0
  8 10  1  0
 10 11  1  0
 10 12  1  0
 10 13  1  0
 13 14  1  0
 14 15  2  0
 14 16  1  0
 16 17  1  0
 17 18  1  0
 18 19  2  0
 18 20  1  0
 20 21  1  0
 20 22  1  0
 17 23  2  0
 23 24  1  0
 23 25  1  0
 25 26  2  0
 26 27  1  0
 26 28  1  0
 28 29  1  0
 28 30  2  0
 30 31  1  0
 31 32  1  0
 31 33  1  0
 31 34  1  0
 30 35  1  0
 35 36  1  0
 35 37  2  0
 37 16  1  0
 37 25  1  0
M  END
>  <UniqueID>  (49) 
49

>  <SMILES>  (49) 
NC(=O)c1cc2ccc(C(F)F)cc2n1C(=O)OC/C=C\CO

>  <Energy>  (49) 
70.6064490416434

>  <Genealogy>  (49) 
NC(=O)c1cc2ccc(C(F)F)cc2n1C(=O)OC/C=C\CO (cis-trans isomerization)
NC(=O)c1cc2ccc(C(F)F)cc2n1C(=O)OC/C=C\CO (3D coordinates assigned)
NC(=O)c1cc2ccc(C(F)F)cc2n1C(=O)OC/C=C\CO (optimized conformer: 70.6064490416434 kcal/mol)

>  <smiles>  (49) 
NC(=O)c1cc2ccc(C(F)F)cc2n1C(=O)OC/C=C\CO

>  <score_type>  (49) 
oracle

>  <origin>  (49) 
adg

>  <m_score__min__energy>  (49) 
-8.4199999999999999

>  <m_primary>  (49) 
energy

$$$$
49:0
     RDKit          3D

 41 42  0  0  0  0  0  0  0  0999 V2000
   -2.5850   21.1100  -33.3860 C   0  0  0  0  0  0  0  0  0  0  0  0
   -2.4120   19.3830  -32.8300 S   0  0  0  0  0  0  0  0  0  0  0  0
   -3.4140   18.6300  -34.1710 C   0  0  0  0  0  0  0  0  0  0  0  0
   -4.9100   18.5840  -33.8240 C   0  0  1  0  0  0  0  0  0  0  0  0
   -5.6360   17.4860  -34.6150 C   0  0  0  0  0  0  0  0  0  0  0  0
   -5.0610   18.3730  -32.4220 O   0  0  0  0  0  0  0  0  0  0  0  0
   -6.2720   18.4920  -31.7320 C   0  0  0  0  0  0  0  0  0  0  0  0
   -6.7600   17.5030  -31.1220 O   0  0  0  0  0  0  0  0  0  0  0  0
   -6.9450   19.7630  -31.7020 N   0  0  0  0  0  0  0  0  0  0  0  0
   -8.2650   20.0240  -31.9240 C   0  0  0  0  0  0  0  0  0  0  0  0
   -9.2790   19.0530  -32.3870 C   0  0  0  0  0  0  0  0  0  0  0  0
   -9.4600   17.8270  -31.6820 N   0  0  0  0  0  0  0  0  0  0  0  0
  -10.0180   19.3110  -33.3730 O   0  0  0  0  0  0  0  0  0  0  0  0
   -8.5330   21.3790  -31.7440 C   0  0  0  0  0  0  0  0  0  0  0  0
   -7.3240   21.9500  -31.4150 C   0  0  0  0  0  0  0  0  0  0  0  0
   -7.0100   23.2740  -31.1240 C   0  0  0  0  0  0  0  0  0  0  0  0
   -5.6780   23.5780  -30.7980 C   0  0  0  0  0  0  0  0  0  0  0  0
   -4.6920   22.5620  -30.7680 C   0  0  0  0  0  0  0  0  0  0  0  0
   -3.2770   22.8890  -30.3870 C   0  0  0  0  0  0  0  0  0  0  0  0
   -3.1920   24.5410  -29.6310 P   0  0  0  0  0  0  0  0  0  0  0  0
   -3.9610   24.5460  -28.3290 O   0  0  0  0  0  0  0  0  0  0  0  0
   -1.5780   24.9500  -29.3320 O   0  0  0  0  0  0  0  0  0  0  0  0
   -3.8700   25.6740  -30.6850 O   0  0  0  0  0  0  0  0  0  0  0  0
   -5.0530   21.2270  -31.0520 C   0  0  0  0  0  0  0  0  0  0  0  0
   -6.3830   20.9530  -31.3950 C   0  0  0  0  0  0  0  0  0  0  0  0
   -2.6513   21.7723  -32.5102 H   0  0  0  0  0  0  0  0  0  0  0  0
   -1.7104   21.3896  -33.9917 H   0  0  0  0  0  0  0  0  0  0  0  0
   -3.4977   21.2105  -33.9917 H   0  0  0  0  0  0  0  0  0  0  0  0
   -3.2814   19.2233  -35.0877 H   0  0  0  0  0  0  0  0  0  0  0  0
   -3.0682   17.5950  -34.3095 H   0  0  0  0  0  0  0  0  0  0  0  0
   -5.3658   19.5452  -34.1037 H   0  0  0  0  0  0  0  0  0  0  0  0
   -6.1040   16.7783  -33.9149 H   0  0  0  0  0  0  0  0  0  0  0  0
   -6.4112   17.9420  -35.2483 H   0  0  0  0  0  0  0  0  0  0  0  0
   -4.9128   16.9513  -35.2483 H   0  0  0  0  0  0  0  0  0  0  0  0
   -8.7680   17.0500  -31.7710 H   0  0  0  0  0  0  0  0  0  0  0  0
   -9.5044   21.8854  -31.8436 H   0  0  0  0  0  0  0  0  0  0  0  0
   -7.7810   24.0582  -31.1485 H   0  0  0  0  0  0  0  0  0  0  0  0
   -5.3980   24.6156  -30.5637 H   0  0  0  0  0  0  0  0  0  0  0  0
   -2.9132   22.1413  -29.6669 H   0  0  0  0  0  0  0  0  0  0  0  0
   -2.6512   22.8770  -31.2916 H   0  0  0  0  0  0  0  0  0  0  0  0
   -4.3066   20.4203  -31.0050 H   0  0  0  0  0  0  0  0  0  0  0  0
  1  2  1  0
  2  3  1  0
  3  4  1  0
  4  5  1  0
  4  6  1  0
  6  7  1  0
  7  8  2  0
  7  9  1  0
  9 10  1  0
 10 11  1  0
 11 12  1  0
 11 13  2  0
 10 14  2  0
 14 15  1  0
 15 16  2  0
 16 17  1  0
 17 18  2  0
 18 19  1  0
 19 20  1  0
 20 21  2  0
 20 22  1  0
 20 23  1  0
 18 24  1  0
 24 25  2  0
 25  9  1  0
 25 15  1  0
  1 26  1  0
  1 27  1  0
  1 28  1  0
  3 29  1  0
  3 30  1  0
  4 31  1  6
  5 32  1  0
  5 33  1  0
  5 34  1  0
 12 35  1  0
 14 36  1  0
 16 37  1  0
 17 38  1  0
 19 39  1  0
 19 40  1  0
 24 41  1  0
M  CHG  3  12  -1  22  -1  23  -1
M  END
>  <UniqueID>  (50) 
50

>  <SMILES>  (50) 
CSC[C@@H](C)OC(=O)n1c(C([NH-])=O)cc2ccc(CP(=O)([O-])[O-])cc21

>  <Energy>  (50) 
65.77025090094322

>  <Genealogy>  (50) 
CSCC(C)OC(=O)n1c(C([NH-])=O)cc2ccc(CP(=O)([O-])[O-])cc21 (protonated)
CSC[C@@H](C)OC(=O)n1c(C([NH-])=O)cc2ccc(CP(=O)([O-])[O-])cc21 (chirality)
CSC[C@@H](C)OC(=O)n1c(C([NH-])=O)cc2ccc(CP(=O)([O-])[O-])cc21 (3D coordinates assigned)
CSC[C@@H](C)OC(=O)n1c(C([NH-])=O)cc2ccc(CP(=O)([O-])[O-])cc21 (optimized conformer: 65.77025090094322 kcal/mol)

>  <smiles>  (50) 
CSCC(C)OC(=O)n1c(C(N)=O)cc2ccc(CP(=O)(O)O)cc21

>  <score_type>  (50) 
oracle

>  <origin>  (50) 
adg

>  <m_score__min__energy>  (50) 
-11.31

>  <m_primary>  (50) 
energy

$$$$
50:0
     RDKit          3D

 37 38  0  0  0  0  0  0  0  0999 V2000
   -3.0700   19.2260  -33.4660 C   0  0  0  0  0  0  0  0  0  0  0  0
   -2.6910   20.4890  -33.6900 C   0  0  0  0  0  0  0  0  0  0  0  0
   -2.1150   21.3450  -32.5970 C   0  0  0  0  0  0  0  0  0  0  0  0
   -3.0720   22.2950  -32.1270 O   0  0  0  0  0  0  0  0  0  0  0  0
   -3.9560   22.0420  -31.0730 C   0  0  0  0  0  0  0  0  0  0  0  0
   -3.5320   21.5450  -29.9940 O   0  0  0  0  0  0  0  0  0  0  0  0
   -5.3540   22.3450  -31.2250 N   0  0  0  0  0  0  0  0  0  0  0  0
   -6.0080   23.4590  -30.7930 C   0  0  0  0  0  0  0  0  0  0  0  0
   -5.3750   24.6690  -30.2340 C   0  0  0  0  0  0  0  0  0  0  0  0
   -5.7870   25.1990  -28.9740 N   0  0  0  0  0  0  0  0  0  0  0  0
   -4.4170   25.2100  -30.8490 O   0  0  0  0  0  0  0  0  0  0  0  0
   -7.3820   23.3300  -30.9860 C   0  0  0  0  0  0  0  0  0  0  0  0
   -7.5530   22.0940  -31.5640 C   0  0  0  0  0  0  0  0  0  0  0  0
   -8.7220   21.4380  -31.9400 C   0  0  0  0  0  0  0  0  0  0  0  0
   -8.6090   20.1380  -32.4590 C   0  0  0  0  0  0  0  0  0  0  0  0
   -7.3420   19.5190  -32.5890 C   0  0  0  0  0  0  0  0  0  0  0  0
   -7.2460   18.1000  -33.0860 C   0  0  0  0  0  0  0  0  0  0  0  0
   -6.1030   17.9450  -34.0970 C   0  0  0  0  0  0  0  0  0  0  0  0
   -6.0660   19.0320  -34.9810 O   0  0  0  0  0  0  0  0  0  0  0  0
   -6.1780   20.2110  -32.1890 C   0  0  0  0  0  0  0  0  0  0  0  0
   -6.3150   21.5160  -31.6950 C   0  0  0  0  0  0  0  0  0  0  0  0
   -3.4883   18.6237  -34.2859 H   0  0  0  0  0  0  0  0  0  0  0  0
   -2.9634   18.7896  -32.4619 H   0  0  0  0  0  0  0  0  0  0  0  0
   -2.8037   20.9118  -34.6992 H   0  0  0  0  0  0  0  0  0  0  0  0
   -1.8085   20.7003  -31.7601 H   0  0  0  0  0  0  0  0  0  0  0  0
   -1.2507   21.8920  -33.0017 H   0  0  0  0  0  0  0  0  0  0  0  0
   -6.4670   24.6880  -28.3710 H   0  0  0  0  0  0  0  0  0  0  0  0
   -5.3660   26.0880  -28.6210 H   0  0  0  0  0  0  0  0  0  0  0  0
   -8.1633   24.0610  -30.7305 H   0  0  0  0  0  0  0  0  0  0  0  0
   -9.7036   21.9229  -31.8339 H   0  0  0  0  0  0  0  0  0  0  0  0
   -9.5143   19.5948  -32.7678 H   0  0  0  0  0  0  0  0  0  0  0  0
   -7.0630   17.4317  -32.2316 H   0  0  0  0  0  0  0  0  0  0  0  0
   -8.1913   17.8399  -33.5848 H   0  0  0  0  0  0  0  0  0  0  0  0
   -5.1476   17.8892  -33.5546 H   0  0  0  0  0  0  0  0  0  0  0  0
   -6.2697   17.0256  -34.6775 H   0  0  0  0  0  0  0  0  0  0  0  0
   -6.8420   18.9260  -35.5920 H   0  0  0  0  0  0  0  0  0  0  0  0
   -5.1878   19.7378  -32.2631 H   0  0  0  0  0  0  0  0  0  0  0  0
  1  2  2  0
  2  3  1  0
  3  4  1  0
  4  5  1  0
  5  6  2  0
  5  7  1  0
  7  8  1  0
  8  9  1  0
  9 10  1  0
  9 11  2  0
  8 12  2  0
 12 13  1  0
 13 14  2  0
 14 15  1  0
 15 16  2  0
 16 17  1  0
 17 18  1  0
 18 19  1  0
 16 20  1  0
 20 21  2  0
 21  7  1  0
 21 13  1  0
  1 22  1  0
  1 23  1  0
  2 24  1  0
  3 25  1  0
  3 26  1  0
 10 27  1  0
 10 28  1  0
 12 29  1  0
 14 30  1  0
 15 31  1  0
 17 32  1  0
 17 33  1  0
 18 34  1  0
 18 35  1  0
 19 36  1  0
 20 37  1  0
M  END
>  <UniqueID>  (51) 
51

>  <SMILES>  (51) 
C=CCOC(=O)n1c(C(N)=O)cc2ccc(CCO)cc21

>  <Energy>  (51) 
68.96896445201106

>  <Genealogy>  (51) 
C=CCOC(=O)n1c(C(N)=O)cc2ccc(CCO)cc21 (3D coordinates assigned)
C=CCOC(=O)n1c(C(N)=O)cc2ccc(CCO)cc21 (optimized conformer: 68.96896445201106 kcal/mol)

>  <smiles>  (51) 
C=CCOC(=O)n1c(C(N)=O)cc2ccc(CCO)cc21

>  <score_type>  (51) 
oracle

>  <origin>  (51) 
adg

>  <m_score__min__energy>  (51) 
-8.3399999999999999

>  <m_primary>  (51) 
energy

$$$$
51:0
     RDKit          3D

 54 56  0  0  0  0  0  0  0  0999 V2000
   -3.4940   15.5820  -35.6610 C   0  0  0  0  0  0  0  0  0  0  0  0
   -4.3330   14.5140  -34.5070 S   0  0  0  0  0  0  0  0  0  0  0  0
   -5.3280   13.6830  -35.2680 O   0  0  0  0  0  0  0  0  0  0  0  0
   -3.3280   13.6060  -33.8540 O   0  0  0  0  0  0  0  0  0  0  0  0
   -5.1680   15.4550  -33.2920 N   0  0  0  0  0  0  0  0  0  0  0  0
   -6.3650   16.0920  -33.8900 C   0  0  0  0  0  0  0  0  0  0  0  0
   -6.8860   17.2500  -33.0310 C   0  0  0  0  0  0  0  0  0  0  0  0
   -5.8310   18.2540  -32.8420 N   0  0  0  0  0  0  0  0  0  0  0  0
   -6.1760   19.6180  -32.5130 C   0  0  0  0  0  0  0  0  0  0  0  0
   -7.5070   20.0810  -32.6860 C   0  0  0  0  0  0  0  0  0  0  0  0
   -7.8580   21.4000  -32.3570 C   0  0  0  0  0  0  0  0  0  0  0  0
   -6.8610   22.2390  -31.8710 C   0  0  0  0  0  0  0  0  0  0  0  0
   -6.9320   23.5500  -31.4600 C   0  0  0  0  0  0  0  0  0  0  0  0
   -5.6370   23.8840  -31.0700 C   0  0  0  0  0  0  0  0  0  0  0  0
   -5.2380   25.2420  -30.6490 C   0  0  0  0  0  0  0  0  0  0  0  0
   -3.8900   25.6700  -30.8170 N   0  0  0  0  0  0  0  0  0  0  0  0
   -6.0690   26.0150  -30.1060 O   0  0  0  0  0  0  0  0  0  0  0  0
   -4.7990   22.8200  -31.2250 N   0  0  0  0  0  0  0  0  0  0  0  0
   -3.4120   22.7370  -30.8620 C   0  0  0  0  0  0  0  0  0  0  0  0
   -2.5440   22.4960  -31.7450 O   0  0  0  0  0  0  0  0  0  0  0  0
   -3.0320   22.8970  -29.5250 O   0  0  0  0  0  0  0  0  0  0  0  0
   -3.9730   23.1590  -28.4870 C   0  0  0  0  0  0  0  0  0  0  0  0
   -3.3220   23.8150  -27.4040 O   0  0  0  0  0  0  0  0  0  0  0  0
   -1.9310   23.8490  -27.2590 C   0  0  0  0  0  0  0  0  0  0  0  0
   -1.3570   23.1520  -26.3780 O   0  0  0  0  0  0  0  0  0  0  0  0
   -1.1190   24.7440  -28.1390 C   0  0  0  0  0  0  0  0  0  0  0  0
   -1.9540   25.2890  -29.2030 N   0  0  0  0  0  0  0  0  0  0  0  0
   -5.5650   21.8200  -31.7190 C   0  0  0  0  0  0  0  0  0  0  0  0
   -5.1910   20.5050  -32.0170 C   0  0  0  0  0  0  0  0  0  0  0  0
   -4.4330   17.8640  -33.0540 C   0  0  0  0  0  0  0  0  0  0  0  0
   -4.2290   16.4030  -32.6290 C   0  0  0  0  0  0  0  0  0  0  0  0
   -2.9065   16.3298  -35.1081 H   0  0  0  0  0  0  0  0  0  0  0  0
   -2.8225   14.9829  -36.2936 H   0  0  0  0  0  0  0  0  0  0  0  0
   -4.2351   16.0925  -36.2936 H   0  0  0  0  0  0  0  0  0  0  0  0
   -5.4980   14.7720  -32.5700 H   0  0  0  0  0  0  0  0  0  0  0  0
   -6.1022   16.4782  -34.8859 H   0  0  0  0  0  0  0  0  0  0  0  0
   -7.1582   15.3327  -33.9557 H   0  0  0  0  0  0  0  0  0  0  0  0
   -7.7464   17.7167  -33.5330 H   0  0  0  0  0  0  0  0  0  0  0  0
   -7.1914   16.8600  -32.0488 H   0  0  0  0  0  0  0  0  0  0  0  0
   -8.2726   19.3979  -33.0827 H   0  0  0  0  0  0  0  0  0  0  0  0
   -8.8905   21.7590  -32.4799 H   0  0  0  0  0  0  0  0  0  0  0  0
   -7.8217   24.1967  -31.4430 H   0  0  0  0  0  0  0  0  0  0  0  0
   -3.0940   25.0820  -30.4830 H   0  0  0  0  0  0  0  0  0  0  0  0
   -4.7759   23.8029  -28.8752 H   0  0  0  0  0  0  0  0  0  0  0  0
   -4.4000   22.2088  -28.1338 H   0  0  0  0  0  0  0  0  0  0  0  0
   -0.7084   25.5696  -27.5392 H   0  0  0  0  0  0  0  0  0  0  0  0
   -0.2985   24.1632  -28.5857 H   0  0  0  0  0  0  0  0  0  0  0  0
   -2.9520   25.2430  -28.8920 H   0  0  0  0  0  0  0  0  0  0  0  0
   -1.8700   24.6530  -30.0290 H   0  0  0  0  0  0  0  0  0  0  0  0
   -4.1544   20.1681  -31.8690 H   0  0  0  0  0  0  0  0  0  0  0  0
   -4.1814   17.9727  -34.1193 H   0  0  0  0  0  0  0  0  0  0  0  0
   -3.7803   18.5117  -32.4503 H   0  0  0  0  0  0  0  0  0  0  0  0
   -3.1999   16.1074  -32.8812 H   0  0  0  0  0  0  0  0  0  0  0  0
   -4.4250   16.3499  -31.5479 H   0  0  0  0  0  0  0  0  0  0  0  0
  1  2  1  0
  2  3  2  0
  2  4  2  0
  2  5  1  0
  5  6  1  0
  6  7  1  0
  7  8  1  0
  8  9  1  0
  9 10  2  0
 10 11  1  0
 11 12  2  0
 12 13  1  0
 13 14  2  0
 14 15  1  0
 15 16  1  0
 15 17  2  0
 14 18  1  0
 18 19  1  0
 19 20  2  0
 19 21  1  0
 21 22  1  0
 22 23  1  0
 23 24  1  0
 24 25  2  0
 24 26  1  0
 26 27  1  0
 18 28  1  0
 28 29  2  0
  8 30  1  0
 30 31  1  0
 31  5  1  0
 29  9  1  0
 28 12  1  0
  1 32  1  0
  1 33  1  0
  1 34  1  0
  5 35  1  0
  6 36  1  0
  6 37  1  0
  7 38  1  0
  7 39  1  0
 10 40  1  0
 11 41  1  0
 13 42  1  0
 16 43  1  0
 22 44  1  0
 22 45  1  0
 26 46  1  0
 26 47  1  0
 27 48  1  0
 27 49  1  0
 29 50  1  0
 30 51  1  0
 30 52  1  0
 31 53  1  0
 31 54  1  0
M  CHG  2   5   1  16  -1
M  END
>  <UniqueID>  (52) 
52

>  <SMILES>  (52) 
CS(=O)(=O)[NH+]1CCN(c2ccc3cc(C([NH-])=O)n(C(=O)OCOC(=O)CN)c3c2)CC1

>  <Energy>  (52) 
91.26017705758284

>  <Genealogy>  (52) 
CS(=O)(=O)[NH+]1CCN(c2ccc3cc(C([NH-])=O)n(C(=O)OCOC(=O)CN)c3c2)CC1 (protonated)
CS(=O)(=O)[NH+]1CCN(c2ccc3cc(C([NH-])=O)n(C(=O)OCOC(=O)CN)c3c2)CC1 (3D coordinates assigned)
CS(=O)(=O)[NH+]1CCN(c2ccc3cc(C([NH-])=O)n(C(=O)OCOC(=O)CN)c3c2)CC1 (nonaromatic ring conformer: 91.26017705758284 kcal/mol)

>  <smiles>  (52) 
CS(=O)(=O)N1CCN(c2ccc3cc(C(N)=O)n(C(=O)OCOC(=O)CN)c3c2)CC1

>  <score_type>  (52) 
oracle

>  <origin>  (52) 
adg

>  <m_score__min__energy>  (52) 
-9.9800000000000004

>  <m_primary>  (52) 
energy

$$$$
52:0
     RDKit          3D

 41 42  0  0  0  0  0  0  0  0999 V2000
   -2.9800   21.1050  -33.4360 C   0  0  0  0  0  0  0  0  0  0  0  0
   -2.5460   20.7490  -32.0200 C   0  0  0  0  0  0  0  0  0  0  0  0
   -3.4390   21.3140  -31.0620 O   0  0  0  0  0  0  0  0  0  0  0  0
   -3.9790   22.6000  -31.1760 C   0  0  0  0  0  0  0  0  0  0  0  0
   -3.2220   23.6090  -31.1920 O   0  0  0  0  0  0  0  0  0  0  0  0
   -5.4040   22.7690  -31.2700 N   0  0  0  0  0  0  0  0  0  0  0  0
   -6.1420   23.8170  -30.8110 C   0  0  0  0  0  0  0  0  0  0  0  0
   -5.6050   25.0830  -30.2710 C   0  0  0  0  0  0  0  0  0  0  0  0
   -6.1300   25.6590  -29.0740 N   0  0  0  0  0  0  0  0  0  0  0  0
   -4.6310   25.6360  -30.8470 O   0  0  0  0  0  0  0  0  0  0  0  0
   -7.5030   23.5650  -30.9590 C   0  0  0  0  0  0  0  0  0  0  0  0
   -7.5800   22.3210  -31.5420 C   0  0  0  0  0  0  0  0  0  0  0  0
   -8.6960   21.5700  -31.9010 C   0  0  0  0  0  0  0  0  0  0  0  0
   -8.4830   20.2950  -32.4520 C   0  0  0  0  0  0  0  0  0  0  0  0
   -7.1690   19.8000  -32.6210 C   0  0  0  0  0  0  0  0  0  0  0  0
   -6.9640   18.4860  -33.1710 C   0  0  0  0  0  0  0  0  0  0  0  0
   -6.7940   17.3860  -33.6330 C   0  0  0  0  0  0  0  0  0  0  0  0
   -6.5850   16.0470  -34.1940 C   0  0  0  0  0  0  0  0  0  0  0  0
   -5.3160   15.4190  -33.6140 C   0  0  0  0  0  0  0  0  0  0  0  0
   -5.0290   15.9540  -32.2090 C   0  0  0  0  0  0  0  0  0  0  0  0
   -4.9760   14.8980  -31.2880 O   0  0  0  0  0  0  0  0  0  0  0  0
   -6.0600   20.5840  -32.2450 C   0  0  0  0  0  0  0  0  0  0  0  0
   -6.3000   21.8600  -31.7190 C   0  0  0  0  0  0  0  0  0  0  0  0
   -3.8299   21.8021  -33.3947 H   0  0  0  0  0  0  0  0  0  0  0  0
   -2.1422   21.5794  -33.9680 H   0  0  0  0  0  0  0  0  0  0  0  0
   -3.2814   20.1906  -33.9680 H   0  0  0  0  0  0  0  0  0  0  0  0
   -2.5415   19.6547  -31.9081 H   0  0  0  0  0  0  0  0  0  0  0  0
   -1.5383   21.1545  -31.8464 H   0  0  0  0  0  0  0  0  0  0  0  0
   -5.7660   26.5740  -28.7300 H   0  0  0  0  0  0  0  0  0  0  0  0
   -6.8200   25.1420  -28.4860 H   0  0  0  0  0  0  0  0  0  0  0  0
   -8.3384   24.2203  -30.6714 H   0  0  0  0  0  0  0  0  0  0  0  0
   -9.7135   21.9627  -31.7577 H   0  0  0  0  0  0  0  0  0  0  0  0
   -9.3428   19.6787  -32.7535 H   0  0  0  0  0  0  0  0  0  0  0  0
   -7.4489   15.4119  -33.9482 H   0  0  0  0  0  0  0  0  0  0  0  0
   -6.4759   16.1299  -35.2854 H   0  0  0  0  0  0  0  0  0  0  0  0
   -5.4460   14.3279  -33.5633 H   0  0  0  0  0  0  0  0  0  0  0  0
   -4.4687   15.6776  -34.2661 H   0  0  0  0  0  0  0  0  0  0  0  0
   -4.0640   16.4820  -32.2118 H   0  0  0  0  0  0  0  0  0  0  0  0
   -5.8347   16.6436  -31.9170 H   0  0  0  0  0  0  0  0  0  0  0  0
   -5.4380   15.2120  -30.4670 H   0  0  0  0  0  0  0  0  0  0  0  0
   -5.0341   20.2045  -32.3613 H   0  0  0  0  0  0  0  0  0  0  0  0
  1  2  1  0
  2  3  1  0
  3  4  1  0
  4  5  2  0
  4  6  1  0
  6  7  1  0
  7  8  1  0
  8  9  1  0
  8 10  2  0
  7 11  2  0
 11 12  1  0
 12 13  2  0
 13 14  1  0
 14 15  2  0
 15 16  1  0
 16 17  3  0
 17 18  1  0
 18 19  1  0
 19 20  1  0
 20 21  1  0
 15 22  1  0
 22 23  2  0
 23  6  1  0
 23 12  1  0
  1 24  1  0
  1 25  1  0
  1 26  1  0
  2 27  1  0
  2 28  1  0
  9 29  1  0
  9 30  1  0
 11 31  1  0
 13 32  1  0
 14 33  1  0
 18 34  1  0
 18 35  1  0
 19 36  1  0
 19 37  1  0
 20 38  1  0
 20 39  1  0
 21 40  1  0
 22 41  1  0
M  END
>  <UniqueID>  (53) 
53

>  <SMILES>  (53) 
CCOC(=O)n1c(C(N)=O)cc2ccc(C#CCCCO)cc21

>  <Energy>  (53) 
66.9338918836149

>  <Genealogy>  (53) 
CCOC(=O)n1c(C(N)=O)cc2ccc(C#CCCCO)cc21 (3D coordinates assigned)
CCOC(=O)n1c(C(N)=O)cc2ccc(C#CCCCO)cc21 (optimized conformer: 66.9338918836149 kcal/mol)

>  <smiles>  (53) 
CCOC(=O)n1c(C(N)=O)cc2ccc(C#CCCCO)cc21

>  <score_type>  (53) 
oracle

>  <origin>  (53) 
adg

>  <m_score__min__energy>  (53) 
-8.6300000000000008

>  <m_primary>  (53) 
energy

$$$$
53:0
     RDKit          3D

 56 58  0  0  0  0  0  0  0  0999 V2000
   -0.6260   20.7050  -30.3590 C   0  0  0  0  0  0  0  0  0  0  0  0
   -0.9990   21.6470  -31.2320 C   0  0  0  0  0  0  0  0  0  0  0  0
   -2.2280   21.4920  -32.0850 C   0  0  0  0  0  0  0  0  0  0  0  0
   -2.0490   20.4550  -33.2060 C   0  0  0  0  0  0  0  0  0  0  0  0
   -2.3070   19.0070  -32.7530 C   0  0  0  0  0  0  0  0  0  0  0  0
   -2.9390   18.1390  -33.8140 C   0  0  0  0  0  0  0  0  0  0  0  0
   -2.2270   17.7490  -34.7780 O   0  0  0  0  0  0  0  0  0  0  0  0
   -4.3270   17.7540  -33.7590 N   0  0  0  0  0  0  0  0  0  0  0  0
   -4.8940   16.5780  -34.1500 C   0  0  0  0  0  0  0  0  0  0  0  0
   -4.2340   15.5310  -34.9500 C   0  0  0  0  0  0  0  0  0  0  0  0
   -3.4300   15.8820  -36.0760 N   0  0  0  0  0  0  0  0  0  0  0  0
   -4.3330   14.3240  -34.6100 O   0  0  0  0  0  0  0  0  0  0  0  0
   -6.2450   16.5480  -33.8180 C   0  0  0  0  0  0  0  0  0  0  0  0
   -6.4990   17.7630  -33.2270 C   0  0  0  0  0  0  0  0  0  0  0  0
   -7.6840   18.2730  -32.7050 C   0  0  0  0  0  0  0  0  0  0  0  0
   -7.6550   19.5550  -32.1360 C   0  0  0  0  0  0  0  0  0  0  0  0
   -6.4500   20.3060  -32.0930 C   0  0  0  0  0  0  0  0  0  0  0  0
   -6.4260   21.6510  -31.4620 C   0  0  0  0  0  0  0  0  0  0  0  0
   -7.4800   22.5550  -31.6740 C   0  0  0  0  0  0  0  0  0  0  0  0
   -7.4520   23.8190  -31.0870 C   0  0  0  0  0  0  0  0  0  0  0  0
   -6.3830   24.1950  -30.2760 C   0  0  0  0  0  0  0  0  0  0  0  0
   -5.3160   23.3080  -30.0240 C   0  0  0  0  0  0  0  0  0  0  0  0
   -4.1460   23.7710  -29.1330 C   0  0  0  0  0  0  0  0  0  0  0  0
   -4.6000   24.3390  -27.7680 C   0  0  0  0  0  0  0  0  0  0  0  0
   -3.2270   22.5580  -28.8710 C   0  0  0  0  0  0  0  0  0  0  0  0
   -3.3700   24.8750  -29.8300 C   0  0  0  0  0  0  0  0  0  0  0  0
   -3.8780   25.4900  -30.8040 O   0  0  0  0  0  0  0  0  0  0  0  0
   -2.1380   25.2940  -29.3390 O   0  0  0  0  0  0  0  0  0  0  0  0
   -5.3430   22.0410  -30.6520 C   0  0  0  0  0  0  0  0  0  0  0  0
   -5.2710   19.7550  -32.6460 C   0  0  0  0  0  0  0  0  0  0  0  0
   -5.3310   18.4760  -33.2120 C   0  0  0  0  0  0  0  0  0  0  0  0
    0.2782   20.8475  -29.7490 H   0  0  0  0  0  0  0  0  0  0  0  0
   -1.2235   19.7877  -30.2509 H   0  0  0  0  0  0  0  0  0  0  0  0
   -0.3912   22.5587  -31.3287 H   0  0  0  0  0  0  0  0  0  0  0  0
   -3.0634   21.1751  -31.4433 H   0  0  0  0  0  0  0  0  0  0  0  0
   -2.4249   22.4637  -32.5614 H   0  0  0  0  0  0  0  0  0  0  0  0
   -2.7512   20.6957  -34.0178 H   0  0  0  0  0  0  0  0  0  0  0  0
   -0.9994   20.5091  -33.5308 H   0  0  0  0  0  0  0  0  0  0  0  0
   -1.3453   18.5574  -32.4649 H   0  0  0  0  0  0  0  0  0  0  0  0
   -3.0175   19.0559  -31.9147 H   0  0  0  0  0  0  0  0  0  0  0  0
   -2.9320   15.1410  -36.6160 H   0  0  0  0  0  0  0  0  0  0  0  0
   -3.3590   16.8740  -36.3960 H   0  0  0  0  0  0  0  0  0  0  0  0
   -6.9572   15.7278  -33.9913 H   0  0  0  0  0  0  0  0  0  0  0  0
   -8.6153   17.6885  -32.7376 H   0  0  0  0  0  0  0  0  0  0  0  0
   -8.5774   19.9842  -31.7177 H   0  0  0  0  0  0  0  0  0  0  0  0
   -8.3317   22.2640  -32.3064 H   0  0  0  0  0  0  0  0  0  0  0  0
   -8.2780   24.5233  -31.2649 H   0  0  0  0  0  0  0  0  0  0  0  0
   -6.3713   25.1985  -29.8257 H   0  0  0  0  0  0  0  0  0  0  0  0
   -4.1361   23.7587  -26.9568 H   0  0  0  0  0  0  0  0  0  0  0  0
   -4.2918   25.3919  -27.6882 H   0  0  0  0  0  0  0  0  0  0  0  0
   -5.6950   24.2704  -27.6882 H   0  0  0  0  0  0  0  0  0  0  0  0
   -3.1150   22.4102  -27.7867 H   0  0  0  0  0  0  0  0  0  0  0  0
   -3.6715   21.6575  -29.3198 H   0  0  0  0  0  0  0  0  0  0  0  0
   -2.2398   22.7422  -29.3198 H   0  0  0  0  0  0  0  0  0  0  0  0
   -4.5020   21.3475  -30.5046 H   0  0  0  0  0  0  0  0  0  0  0  0
   -4.3269   20.3193  -32.6318 H   0  0  0  0  0  0  0  0  0  0  0  0
  1  2  2  0
  2  3  1  0
  3  4  1  0
  4  5  1  0
  5  6  1  0
  6  7  2  0
  6  8  1  0
  8  9  1  0
  9 10  1  0
 10 11  1  0
 10 12  2  0
  9 13  2  0
 13 14  1  0
 14 15  2  0
 15 16  1  0
 16 17  2  0
 17 18  1  0
 18 19  2  0
 19 20  1  0
 20 21  2  0
 21 22  1  0
 22 23  1  0
 23 24  1  0
 23 25  1  0
 23 26  1  0
 26 27  2  0
 26 28  1  0
 22 29  2  0
 17 30  1  0
 30 31  2  0
 31  8  1  0
 31 14  1  0
 29 18  1  0
  1 32  1  0
  1 33  1  0
  2 34  1  0
  3 35  1  0
  3 36  1  0
  4 37  1  0
  4 38  1  0
  5 39  1  0
  5 40  1  0
 11 41  1  0
 11 42  1  0
 13 43  1  0
 15 44  1  0
 16 45  1  0
 19 46  1  0
 20 47  1  0
 21 48  1  0
 24 49  1  0
 24 50  1  0
 24 51  1  0
 25 52  1  0
 25 53  1  0
 25 54  1  0
 29 55  1  0
 30 56  1  0
M  CHG  1  28  -1
M  END
>  <UniqueID>  (54) 
54

>  <SMILES>  (54) 
C=CCCCC(=O)n1c(C(N)=O)cc2ccc(-c3cccc(C(C)(C)C(=O)[O-])c3)cc21

>  <Energy>  (54) 
99.03474348093478

>  <Genealogy>  (54) 
C=CCCCC(=O)n1c(C(N)=O)cc2ccc(-c3cccc(C(C)(C)C(=O)[O-])c3)cc21 (protonated)
C=CCCCC(=O)n1c(C(N)=O)cc2ccc(-c3cccc(C(C)(C)C(=O)[O-])c3)cc21 (3D coordinates assigned)
C=CCCCC(=O)n1c(C(N)=O)cc2ccc(-c3cccc(C(C)(C)C(=O)[O-])c3)cc21 (optimized conformer: 99.03474348093478 kcal/mol)

>  <smiles>  (54) 
C=CCCCC(=O)n1c(C(N)=O)cc2ccc(-c3cccc(C(C)(C)C(=O)O)c3)cc21

>  <score_type>  (54) 
oracle

>  <origin>  (54) 
adg

>  <m_score__min__energy>  (54) 
-11.789999999999999

>  <m_primary>  (54) 
energy

$$$$
54:0
     RDKit          3D

 43 45  0  0  0  0  0  0  0  0999 V2000
   -0.7790   28.8250  -24.9840 C   0  0  0  0  0  0  0  0  0  0  0  0
   -0.2600   27.5080  -24.4300 C   0  0  0  0  0  0  0  0  0  0  0  0
   -0.0250   26.5980  -25.5000 O   0  0  0  0  0  0  0  0  0  0  0  0
   -1.0610   25.9290  -26.1570 C   0  0  0  0  0  0  0  0  0  0  0  0
   -2.2530   26.0450  -25.7640 O   0  0  0  0  0  0  0  0  0  0  0  0
   -0.7590   25.0890  -27.3170 C   0  0  0  0  0  0  0  0  0  0  0  0
   -1.6850   24.3870  -28.0000 N   0  0  0  0  0  0  0  0  0  0  0  0
   -0.9200   23.7970  -28.9420 C   0  0  0  0  0  0  0  0  0  0  0  0
   -1.4570   22.8920  -30.0020 C   0  0  0  0  0  0  0  0  0  0  0  0
   -2.8800   23.1450  -30.1970 N   0  0  0  0  0  0  0  0  0  0  0  0
   -3.6170   22.5940  -31.2970 C   0  0  0  0  0  0  0  0  0  0  0  0
   -3.0210   21.9620  -32.2100 O   0  0  0  0  0  0  0  0  0  0  0  0
   -5.0430   22.7400  -31.3440 N   0  0  0  0  0  0  0  0  0  0  0  0
   -5.7920   23.8340  -31.0260 C   0  0  0  0  0  0  0  0  0  0  0  0
   -5.2820   25.1110  -30.4810 C   0  0  0  0  0  0  0  0  0  0  0  0
   -3.8890   25.4190  -30.4960 N   0  0  0  0  0  0  0  0  0  0  0  0
   -6.0880   25.9360  -29.9710 O   0  0  0  0  0  0  0  0  0  0  0  0
   -7.1480   23.5550  -31.1990 C   0  0  0  0  0  0  0  0  0  0  0  0
   -7.2030   22.2500  -31.6340 C   0  0  0  0  0  0  0  0  0  0  0  0
   -8.2990   21.4540  -31.9530 C   0  0  0  0  0  0  0  0  0  0  0  0
   -8.0550   20.1400  -32.3870 C   0  0  0  0  0  0  0  0  0  0  0  0
   -6.7270   19.6510  -32.5120 C   0  0  0  0  0  0  0  0  0  0  0  0
   -6.4870   18.2310  -32.9550 C   0  0  0  0  0  0  0  0  0  0  0  0
   -5.9320   18.2380  -34.2200 F   0  0  0  0  0  0  0  0  0  0  0  0
   -5.6190   17.5940  -32.0870 F   0  0  0  0  0  0  0  0  0  0  0  0
   -7.6730   17.5170  -32.9870 F   0  0  0  0  0  0  0  0  0  0  0  0
   -5.6430   20.4820  -32.1480 C   0  0  0  0  0  0  0  0  0  0  0  0
   -5.9190   21.7810  -31.7120 C   0  0  0  0  0  0  0  0  0  0  0  0
    0.3820   24.1280  -28.8400 N   0  0  0  0  0  0  0  0  0  0  0  0
    0.4390   24.9300  -27.8200 O   0  0  0  0  0  0  0  0  0  0  0  0
   -1.0428   29.4943  -24.1519 H   0  0  0  0  0  0  0  0  0  0  0  0
    0.0007   29.2961  -25.6005 H   0  0  0  0  0  0  0  0  0  0  0  0
   -1.6705   28.6376  -25.6005 H   0  0  0  0  0  0  0  0  0  0  0  0
    0.6800   27.6846  -23.8868 H   0  0  0  0  0  0  0  0  0  0  0  0
   -1.0070   27.0806  -23.7450 H   0  0  0  0  0  0  0  0  0  0  0  0
   -0.9212   23.0765  -30.9448 H   0  0  0  0  0  0  0  0  0  0  0  0
   -1.3144   21.8464  -29.6916 H   0  0  0  0  0  0  0  0  0  0  0  0
   -3.3860   23.7360  -29.4990 H   0  0  0  0  0  0  0  0  0  0  0  0
   -3.4860   26.0420  -31.2300 H   0  0  0  0  0  0  0  0  0  0  0  0
   -7.9950   24.2348  -31.0245 H   0  0  0  0  0  0  0  0  0  0  0  0
   -9.3249   21.8416  -31.8680 H   0  0  0  0  0  0  0  0  0  0  0  0
   -8.9019   19.4825  -32.6328 H   0  0  0  0  0  0  0  0  0  0  0  0
   -4.6076   20.1153  -32.2064 H   0  0  0  0  0  0  0  0  0  0  0  0
  1  2  1  0
  2  3  1  0
  3  4  1  0
  4  5  2  0
  4  6  1  0
  6  7  2  0
  7  8  1  0
  8  9  1  0
  9 10  1  0
 10 11  1  0
 11 12  2  0
 11 13  1  0
 13 14  1  0
 14 15  1  0
 15 16  1  0
 15 17  2  0
 14 18  2  0
 18 19  1  0
 19 20  2  0
 20 21  1  0
 21 22  2  0
 22 23  1  0
 23 24  1  0
 23 25  1  0
 23 26  1  0
 22 27  1  0
 27 28  2  0
  8 29  2  0
 29 30  1  0
 30  6  1  0
 28 13  1  0
 28 19  1  0
  1 31  1  0
  1 32  1  0
  1 33  1  0
  2 34  1  0
  2 35  1  0
  9 36  1  0
  9 37  1  0
 10 38  1  0
 16 39  1  0
 18 40  1  0
 20 41  1  0
 21 42  1  0
 27 43  1  0
M  CHG  1  16  -1
M  END
>  <UniqueID>  (55) 
55

>  <SMILES>  (55) 
CCOC(=O)c1nc(CNC(=O)n2c(C([NH-])=O)cc3ccc(C(F)(F)F)cc32)no1

>  <Energy>  (55) 
108.39974666181882

>  <Genealogy>  (55) 
CCOC(=O)c1nc(CNC(=O)n2c(C([NH-])=O)cc3ccc(C(F)(F)F)cc32)no1 (protonated)
CCOC(=O)c1nc(CNC(=O)n2c(C([NH-])=O)cc3ccc(C(F)(F)F)cc32)no1 (3D coordinates assigned)
CCOC(=O)c1nc(CNC(=O)n2c(C([NH-])=O)cc3ccc(C(F)(F)F)cc32)no1 (optimized conformer: 108.39974666181882 kcal/mol)

>  <smiles>  (55) 
CCOC(=O)c1nc(CNC(=O)n2c(C(N)=O)cc3ccc(C(F)(F)F)cc32)no1

>  <score_type>  (55) 
oracle

>  <origin>  (55) 
adg

>  <m_score__min__energy>  (55) 
-11.02

>  <m_primary>  (55) 
energy

$$$$
55:0
     RDKit          3D

 40 42  0  0  0  0  0  0  0  0999 V2000
   -5.7300   16.8630  -32.1240 C   0  0  0  0  0  0  0  0  0  0  0  0
   -6.8200   17.4140  -32.8650 O   0  0  0  0  0  0  0  0  0  0  0  0
   -7.4230   18.6160  -32.4800 C   0  0  0  0  0  0  0  0  0  0  0  0
   -6.9210   19.8070  -32.7750 C   0  0  0  0  0  0  0  0  0  0  0  0
   -5.6820   20.0280  -33.6030 C   0  0  0  0  0  0  0  0  0  0  0  0
   -4.5250   20.4920  -32.7520 C   0  0  0  0  0  0  0  0  0  0  0  0
   -3.3870   19.6610  -32.5890 C   0  0  0  0  0  0  0  0  0  0  0  0
   -2.3050   20.0820  -31.7970 C   0  0  0  0  0  0  0  0  0  0  0  0
   -2.3870   21.3320  -31.1830 C   0  0  0  0  0  0  0  0  0  0  0  0
   -1.4900   21.9680  -30.3600 C   0  0  0  0  0  0  0  0  0  0  0  0
   -2.0860   23.1820  -30.0360 C   0  0  0  0  0  0  0  0  0  0  0  0
   -1.4250   24.2270  -29.2290 C   0  0  0  0  0  0  0  0  0  0  0  0
   -2.1950   25.2430  -28.5870 N   0  0  0  0  0  0  0  0  0  0  0  0
   -0.1760   24.2080  -29.0640 O   0  0  0  0  0  0  0  0  0  0  0  0
   -3.3060   23.2930  -30.6380 N   0  0  0  0  0  0  0  0  0  0  0  0
   -4.2450   24.3740  -30.5140 C   0  0  0  0  0  0  0  0  0  0  0  0
   -5.4170   24.1540  -30.1100 O   0  0  0  0  0  0  0  0  0  0  0  0
   -3.8710   25.6740  -30.8340 O   0  0  0  0  0  0  0  0  0  0  0  0
   -3.4750   22.1510  -31.3350 C   0  0  0  0  0  0  0  0  0  0  0  0
   -4.5770   21.7500  -32.1080 C   0  0  0  0  0  0  0  0  0  0  0  0
   -7.8400   20.8990  -32.3780 C   0  0  0  0  0  0  0  0  0  0  0  0
   -8.9670   20.1930  -31.6160 C   0  0  0  0  0  0  0  0  0  0  0  0
   -8.7140   18.6930  -31.7440 C   0  0  0  0  0  0  0  0  0  0  0  0
   -5.9303   16.9643  -31.0471 H   0  0  0  0  0  0  0  0  0  0  0  0
   -5.6154   15.7987  -32.3771 H   0  0  0  0  0  0  0  0  0  0  0  0
   -4.8050   17.4018  -32.3771 H   0  0  0  0  0  0  0  0  0  0  0  0
   -5.4076   19.0834  -34.0953 H   0  0  0  0  0  0  0  0  0  0  0  0
   -5.8984   20.8084  -34.3474 H   0  0  0  0  0  0  0  0  0  0  0  0
   -3.3511   18.6803  -33.0859 H   0  0  0  0  0  0  0  0  0  0  0  0
   -1.4187   19.4440  -31.6650 H   0  0  0  0  0  0  0  0  0  0  0  0
   -0.5094   21.5964  -30.0280 H   0  0  0  0  0  0  0  0  0  0  0  0
   -3.2060   25.3760  -28.7970 H   0  0  0  0  0  0  0  0  0  0  0  0
   -1.7390   25.8850  -27.8950 H   0  0  0  0  0  0  0  0  0  0  0  0
   -5.4593   22.3989  -32.2100 H   0  0  0  0  0  0  0  0  0  0  0  0
   -7.3260   21.6233  -31.7290 H   0  0  0  0  0  0  0  0  0  0  0  0
   -8.2119   21.4682  -33.2427 H   0  0  0  0  0  0  0  0  0  0  0  0
   -8.9523   20.4905  -30.5571 H   0  0  0  0  0  0  0  0  0  0  0  0
   -9.9509   20.4637  -32.0267 H   0  0  0  0  0  0  0  0  0  0  0  0
   -8.6294   18.2232  -30.7529 H   0  0  0  0  0  0  0  0  0  0  0  0
   -9.5305   18.1647  -32.2580 H   0  0  0  0  0  0  0  0  0  0  0  0
  1  2  1  0
  2  3  1  0
  3  4  2  0
  4  5  1  0
  5  6  1  0
  6  7  2  0
  7  8  1  0
  8  9  2  0
  9 10  1  0
 10 11  2  0
 11 12  1  0
 12 13  1  0
 12 14  2  0
 11 15  1  0
 15 16  1  0
 16 17  2  0
 16 18  1  0
 15 19  1  0
 19 20  2  0
  4 21  1  0
 21 22  1  0
 22 23  1  0
 23  3  1  0
 20  6  1  0
 19  9  1  0
  1 24  1  0
  1 25  1  0
  1 26  1  0
  5 27  1  0
  5 28  1  0
  7 29  1  0
  8 30  1  0
 10 31  1  0
 13 32  1  0
 13 33  1  0
 20 34  1  0
 21 35  1  0
 21 36  1  0
 22 37  1  0
 22 38  1  0
 23 39  1  0
 23 40  1  0
M  CHG  1  18  -1
M  END
>  <UniqueID>  (56) 
56

>  <SMILES>  (56) 
COC1=C(Cc2ccc3cc(C(N)=O)n(C(=O)[O-])c3c2)CCC1

>  <Energy>  (56) 
86.07908312425907

>  <Genealogy>  (56) 
COC1=C(Cc2ccc3cc(C(N)=O)n(C(=O)[O-])c3c2)CCC1 (protonated)
COC1=C(Cc2ccc3cc(C(N)=O)n(C(=O)[O-])c3c2)CCC1 (3D coordinates assigned)
COC1=C(Cc2ccc3cc(C(N)=O)n(C(=O)[O-])c3c2)CCC1 (nonaromatic ring conformer: 86.07908312425907 kcal/mol)

>  <smiles>  (56) 
COC1=C(Cc2ccc3cc(C(N)=O)n(C(=O)O)c3c2)CCC1

>  <score_type>  (56) 
oracle

>  <origin>  (56) 
adg

>  <m_score__min__energy>  (56) 
-9.8300000000000001

>  <m_primary>  (56) 
energy

$$$$
56:0
     RDKit          3D

 36 38  0  0  0  0  0  0  0  0999 V2000
   -7.3310   23.3480  -31.5710 C   0  0  0  0  0  0  0  0  0  0  0  0
   -6.6940   24.0000  -30.5970 C   0  0  0  0  0  0  0  0  0  0  0  0
   -5.9490   25.2760  -30.8670 C   0  0  0  0  0  0  0  0  0  0  0  0
   -4.5410   25.0550  -30.8370 O   0  0  0  0  0  0  0  0  0  0  0  0
   -3.8950   24.3510  -29.8130 C   0  0  0  0  0  0  0  0  0  0  0  0
   -4.2200   24.5380  -28.6090 O   0  0  0  0  0  0  0  0  0  0  0  0
   -2.8410   23.4320  -30.1370 N   0  0  0  0  0  0  0  0  0  0  0  0
   -1.5370   23.4890  -29.7460 C   0  0  0  0  0  0  0  0  0  0  0  0
   -0.8900   24.6160  -29.0420 C   0  0  0  0  0  0  0  0  0  0  0  0
   -1.5320   25.8850  -28.9460 N   0  0  0  0  0  0  0  0  0  0  0  0
    0.2650   24.4700  -28.5610 O   0  0  0  0  0  0  0  0  0  0  0  0
   -0.8490   22.3560  -30.1730 C   0  0  0  0  0  0  0  0  0  0  0  0
   -1.7770   21.5980  -30.8500 C   0  0  0  0  0  0  0  0  0  0  0  0
   -1.6420   20.3610  -31.4720 C   0  0  0  0  0  0  0  0  0  0  0  0
   -2.7820   19.7950  -32.0650 C   0  0  0  0  0  0  0  0  0  0  0  0
   -4.0320   20.4620  -32.0230 C   0  0  0  0  0  0  0  0  0  0  0  0
   -5.2150   19.8280  -32.6480 C   0  0  0  0  0  0  0  0  0  0  0  0
   -6.4010   20.4310  -33.0270 C   0  0  0  0  0  0  0  0  0  0  0  0
   -7.1960   19.4830  -33.5510 N   0  0  0  0  0  0  0  0  0  0  0  0
   -6.4820   18.3450  -33.4780 C   0  0  0  0  0  0  0  0  0  0  0  0
   -5.3010   18.5480  -32.9390 O   0  0  0  0  0  0  0  0  0  0  0  0
   -4.1290   21.7190  -31.3790 C   0  0  0  0  0  0  0  0  0  0  0  0
   -2.9720   22.2680  -30.8130 C   0  0  0  0  0  0  0  0  0  0  0  0
   -7.8696   22.4153  -31.3476 H   0  0  0  0  0  0  0  0  0  0  0  0
   -7.3177   23.7431  -32.5975 H   0  0  0  0  0  0  0  0  0  0  0  0
   -6.7148   23.5946  -29.5746 H   0  0  0  0  0  0  0  0  0  0  0  0
   -6.2334   25.6569  -31.8590 H   0  0  0  0  0  0  0  0  0  0  0  0
   -6.2082   26.0078  -30.0877 H   0  0  0  0  0  0  0  0  0  0  0  0
   -2.5740   25.9630  -28.9690 H   0  0  0  0  0  0  0  0  0  0  0  0
    0.2116   22.1174  -30.0048 H   0  0  0  0  0  0  0  0  0  0  0  0
   -0.6723   19.8424  -31.4985 H   0  0  0  0  0  0  0  0  0  0  0  0
   -2.7039   18.8205  -32.5691 H   0  0  0  0  0  0  0  0  0  0  0  0
   -6.6491   21.4972  -32.9186 H   0  0  0  0  0  0  0  0  0  0  0  0
   -8.1590   19.6040  -33.9320 H   0  0  0  0  0  0  0  0  0  0  0  0
   -6.8423   17.3658  -33.8264 H   0  0  0  0  0  0  0  0  0  0  0  0
   -5.0900   22.2515  -31.3246 H   0  0  0  0  0  0  0  0  0  0  0  0
  1  2  2  0
  2  3  1  0
  3  4  1  0
  4  5  1  0
  5  6  2  0
  5  7  1  0
  7  8  1  0
  8  9  1  0
  9 10  1  0
  9 11  2  0
  8 12  2  0
 12 13  1  0
 13 14  2  0
 14 15  1  0
 15 16  2  0
 16 17  1  0
 17 18  2  0
 18 19  1  0
 19 20  2  0
 20 21  1  0
 16 22  1  0
 22 23  2  0
 23  7  1  0
 23 13  1  0
 21 17  1  0
  1 24  1  0
  1 25  1  0
  2 26  1  0
  3 27  1  0
  3 28  1  0
 10 29  1  0
 12 30  1  0
 14 31  1  0
 15 32  1  0
 18 33  1  0
 19 34  1  0
 20 35  1  0
 22 36  1  0
M  CHG  2  10  -1  19   1
M  END
>  <UniqueID>  (57) 
57

>  <SMILES>  (57) 
C=CCOC(=O)n1c(C([NH-])=O)cc2ccc(-c3c[nH+]co3)cc21

>  <Energy>  (57) 
104.89381812963549

>  <Genealogy>  (57) 
C=CCOC(=O)n1c(C([NH-])=O)cc2ccc(-c3c[nH+]co3)cc21 (protonated)
C=CCOC(=O)n1c(C([NH-])=O)cc2ccc(-c3c[nH+]co3)cc21 (3D coordinates assigned)
C=CCOC(=O)n1c(C([NH-])=O)cc2ccc(-c3c[nH+]co3)cc21 (optimized conformer: 104.89381812963549 kcal/mol)

>  <smiles>  (57) 
C=CCOC(=O)n1c(C(N)=O)cc2ccc(-c3cnco3)cc21

>  <score_type>  (57) 
oracle

>  <origin>  (57) 
adg

>  <m_score__min__energy>  (57) 
-9.4499999999999993

>  <m_primary>  (57) 
energy

$$$$
57:0
     RDKit          3D

 41 42  0  0  0  0  0  0  0  0999 V2000
   -3.9770   25.5090  -30.8430 N   0  0  0  0  0  0  0  0  0  0  0  0
   -5.1110   24.8630  -30.2700 C   0  0  0  0  0  0  0  0  0  0  0  0
   -5.5720   25.2850  -29.1750 O   0  0  0  0  0  0  0  0  0  0  0  0
   -5.7140   23.6750  -30.9070 C   0  0  0  0  0  0  0  0  0  0  0  0
   -7.0890   23.4550  -30.9710 C   0  0  0  0  0  0  0  0  0  0  0  0
   -7.2340   22.2140  -31.5460 C   0  0  0  0  0  0  0  0  0  0  0  0
   -8.3880   21.5000  -31.8540 C   0  0  0  0  0  0  0  0  0  0  0  0
   -8.2420   20.2460  -32.4710 C   0  0  0  0  0  0  0  0  0  0  0  0
   -6.9570   19.7320  -32.7760 C   0  0  0  0  0  0  0  0  0  0  0  0
   -6.8250   18.3810  -33.4560 C   0  0  0  0  0  0  0  0  0  0  0  0
   -6.4720   17.2870  -32.4370 C   0  0  0  0  0  0  0  0  0  0  0  0
   -6.7960   17.7020  -31.1570 F   0  0  0  0  0  0  0  0  0  0  0  0
   -5.7960   18.4330  -34.5950 C   0  0  0  0  0  0  0  0  0  0  0  0
   -4.5180   18.2610  -34.0920 F   0  0  0  0  0  0  0  0  0  0  0  0
   -5.8070   20.4920  -32.4500 C   0  0  0  0  0  0  0  0  0  0  0  0
   -5.9820   21.7280  -31.8170 C   0  0  0  0  0  0  0  0  0  0  0  0
   -5.0360   22.6150  -31.4340 N   0  0  0  0  0  0  0  0  0  0  0  0
   -3.6200   22.4770  -31.6270 C   0  0  0  0  0  0  0  0  0  0  0  0
   -3.1790   21.7420  -32.5530 O   0  0  0  0  0  0  0  0  0  0  0  0
   -2.7360   23.1350  -30.7670 O   0  0  0  0  0  0  0  0  0  0  0  0
   -1.5780   22.5110  -30.2240 C   0  0  0  0  0  0  0  0  0  0  0  0
   -1.0190   23.3790  -29.1000 C   0  0  0  0  0  0  0  0  0  0  0  0
   -2.1440   24.0320  -28.2920 C   0  0  0  0  0  0  0  0  0  0  0  0
   -2.4360   25.3020  -28.8090 O   0  0  0  0  0  0  0  0  0  0  0  0
   -3.0100   25.2850  -30.5190 H   0  0  0  0  0  0  0  0  0  0  0  0
   -7.8886   24.1307  -30.6332 H   0  0  0  0  0  0  0  0  0  0  0  0
   -9.3840   21.9049  -31.6216 H   0  0  0  0  0  0  0  0  0  0  0  0
   -9.1362   19.6560  -32.7204 H   0  0  0  0  0  0  0  0  0  0  0  0
   -7.7994   18.1274  -33.8991 H   0  0  0  0  0  0  0  0  0  0  0  0
   -7.0353   16.3729  -32.6759 H   0  0  0  0  0  0  0  0  0  0  0  0
   -5.3915   17.0866  -32.4861 H   0  0  0  0  0  0  0  0  0  0  0  0
   -6.0130   17.6326  -35.3177 H   0  0  0  0  0  0  0  0  0  0  0  0
   -5.8581   19.4130  -35.0907 H   0  0  0  0  0  0  0  0  0  0  0  0
   -4.7999   20.1195  -32.6887 H   0  0  0  0  0  0  0  0  0  0  0  0
   -1.8462   21.5214  -29.8256 H   0  0  0  0  0  0  0  0  0  0  0  0
   -0.8190   22.3929  -31.0113 H   0  0  0  0  0  0  0  0  0  0  0  0
   -0.4135   22.7515  -28.4295 H   0  0  0  0  0  0  0  0  0  0  0  0
   -0.4047   24.1744  -29.5472 H   0  0  0  0  0  0  0  0  0  0  0  0
   -3.0438   23.4016  -28.3465 H   0  0  0  0  0  0  0  0  0  0  0  0
   -1.8214   24.1355  -27.2455 H   0  0  0  0  0  0  0  0  0  0  0  0
   -3.4260   25.3620  -28.8680 H   0  0  0  0  0  0  0  0  0  0  0  0
  1  2  1  0
  2  3  2  0
  2  4  1  0
  4  5  2  0
  5  6  1  0
  6  7  2  0
  7  8  1  0
  8  9  2  0
  9 10  1  0
 10 11  1  0
 11 12  1  0
 10 13  1  0
 13 14  1  0
  9 15  1  0
 15 16  2  0
 16 17  1  0
 17 18  1  0
 18 19  2  0
 18 20  1  0
 20 21  1  0
 21 22  1  0
 22 23  1  0
 23 24  1  0
 17  4  1  0
 16  6  1  0
  1 25  1  0
  5 26  1  0
  7 27  1  0
  8 28  1  0
 10 29  1  0
 11 30  1  0
 11 31  1  0
 13 32  1  0
 13 33  1  0
 15 34  1  0
 21 35  1  0
 21 36  1  0
 22 37  1  0
 22 38  1  0
 23 39  1  0
 23 40  1  0
 24 41  1  0
M  CHG  1   1  -1
M  END
>  <UniqueID>  (58) 
58

>  <SMILES>  (58) 
[NH-]C(=O)c1cc2ccc(C(CF)CF)cc2n1C(=O)OCCCO

>  <Energy>  (58) 
69.90767515502183

>  <Genealogy>  (58) 
[NH-]C(=O)c1cc2ccc(C(CF)CF)cc2n1C(=O)OCCCO (protonated)
[NH-]C(=O)c1cc2ccc(C(CF)CF)cc2n1C(=O)OCCCO (3D coordinates assigned)
[NH-]C(=O)c1cc2ccc(C(CF)CF)cc2n1C(=O)OCCCO (optimized conformer: 69.90767515502183 kcal/mol)

>  <smiles>  (58) 
NC(=O)c1cc2ccc(C(CF)CF)cc2n1C(=O)OCCCO

>  <score_type>  (58) 
oracle

>  <origin>  (58) 
adg

>  <m_score__min__energy>  (58) 
-9.5899999999999999

>  <m_primary>  (58) 
energy

$$$$
58:0
     RDKit          3D

 34 35  0  0  0  0  0  0  0  0999 V2000
   -3.8750   25.5460  -30.8170 N   0  0  0  0  0  0  0  0  0  0  0  0
   -5.2300   25.2760  -30.4670 C   0  0  0  0  0  0  0  0  0  0  0  0
   -5.8900   26.1430  -29.8360 O   0  0  0  0  0  0  0  0  0  0  0  0
   -5.8580   24.0050  -30.8850 C   0  0  0  0  0  0  0  0  0  0  0  0
   -7.2280   23.8600  -31.0980 C   0  0  0  0  0  0  0  0  0  0  0  0
   -7.4140   22.5260  -31.3800 C   0  0  0  0  0  0  0  0  0  0  0  0
   -8.5800   21.8290  -31.6820 C   0  0  0  0  0  0  0  0  0  0  0  0
   -8.4730   20.4560  -31.9590 C   0  0  0  0  0  0  0  0  0  0  0  0
   -7.2120   19.8090  -31.9330 C   0  0  0  0  0  0  0  0  0  0  0  0
   -7.1000   18.3450  -32.2460 C   0  0  0  0  0  0  0  0  0  0  0  0
   -6.3480   17.7170  -31.2720 F   0  0  0  0  0  0  0  0  0  0  0  0
   -8.3620   17.7780  -32.2870 F   0  0  0  0  0  0  0  0  0  0  0  0
   -6.0500   20.5500  -31.6240 C   0  0  0  0  0  0  0  0  0  0  0  0
   -6.1890   21.9130  -31.3370 C   0  0  0  0  0  0  0  0  0  0  0  0
   -5.2220   22.8090  -31.0370 N   0  0  0  0  0  0  0  0  0  0  0  0
   -3.8100   22.5510  -30.9800 C   0  0  0  0  0  0  0  0  0  0  0  0
   -3.0870   22.7730  -31.9880 O   0  0  0  0  0  0  0  0  0  0  0  0
   -3.2210   22.0730  -29.7690 N   0  0  0  0  0  0  0  0  0  0  0  0
   -2.6310   23.1360  -28.5360 S   0  0  0  0  0  0  0  0  0  0  0  0
   -2.0520   24.3700  -29.1670 O   0  0  0  0  0  0  0  0  0  0  0  0
   -1.5710   22.4340  -27.7360 O   0  0  0  0  0  0  0  0  0  0  0  0
   -3.9720   23.5860  -27.4420 C   0  0  0  0  0  0  0  0  0  0  0  0
   -3.7060   24.9020  -26.7120 C   0  0  0  0  0  0  0  0  0  0  0  0
   -2.4180   24.9260  -26.2060 F   0  0  0  0  0  0  0  0  0  0  0  0
   -4.6110   25.0780  -25.6800 F   0  0  0  0  0  0  0  0  0  0  0  0
   -3.1930   24.7690  -30.9640 H   0  0  0  0  0  0  0  0  0  0  0  0
   -7.9970   24.6451  -31.0507 H   0  0  0  0  0  0  0  0  0  0  0  0
   -9.5552   22.3374  -31.7032 H   0  0  0  0  0  0  0  0  0  0  0  0
   -9.3771   19.8770  -32.1986 H   0  0  0  0  0  0  0  0  0  0  0  0
   -6.6111   18.2223  -33.2237 H   0  0  0  0  0  0  0  0  0  0  0  0
   -5.0611   20.0684  -31.6093 H   0  0  0  0  0  0  0  0  0  0  0  0
   -4.8928   23.6898  -28.0347 H   0  0  0  0  0  0  0  0  0  0  0  0
   -4.0697   22.7941  -26.6848 H   0  0  0  0  0  0  0  0  0  0  0  0
   -3.8233   25.7213  -27.4365 H   0  0  0  0  0  0  0  0  0  0  0  0
  1  2  1  0
  2  3  2  0
  2  4  1  0
  4  5  2  0
  5  6  1  0
  6  7  2  0
  7  8  1  0
  8  9  2  0
  9 10  1  0
 10 11  1  0
 10 12  1  0
  9 13  1  0
 13 14  2  0
 14 15  1  0
 15 16  1  0
 16 17  2  0
 16 18  1  0
 18 19  1  0
 19 20  2  0
 19 21  2  0
 19 22  1  0
 22 23  1  0
 23 24  1  0
 23 25  1  0
 15  4  1  0
 14  6  1  0
  1 26  1  0
  5 27  1  0
  7 28  1  0
  8 29  1  0
 10 30  1  0
 13 31  1  0
 22 32  1  0
 22 33  1  0
 23 34  1  0
M  CHG  2   1  -1  18  -1
M  END
>  <UniqueID>  (59) 
59

>  <SMILES>  (59) 
[NH-]C(=O)c1cc2ccc(C(F)F)cc2n1C(=O)[N-]S(=O)(=O)CC(F)F

>  <Energy>  (59) 
68.60390424188387

>  <Genealogy>  (59) 
[NH-]C(=O)c1cc2ccc(C(F)F)cc2n1C(=O)[N-]S(=O)(=O)CC(F)F (protonated)
[NH-]C(=O)c1cc2ccc(C(F)F)cc2n1C(=O)[N-]S(=O)(=O)CC(F)F (3D coordinates assigned)
[NH-]C(=O)c1cc2ccc(C(F)F)cc2n1C(=O)[N-]S(=O)(=O)CC(F)F (optimized conformer: 68.60390424188387 kcal/mol)

>  <smiles>  (59) 
NC(=O)c1cc2ccc(C(F)F)cc2n1C(=O)NS(=O)(=O)CC(F)F

>  <score_type>  (59) 
oracle

>  <origin>  (59) 
adg

>  <m_score__min__energy>  (59) 
-10.039999999999999

>  <m_primary>  (59) 
energy

$$$$
59:0
     RDKit          3D

 37 38  0  0  0  0  0  0  0  0999 V2000
   -5.7060   18.2420  -34.9420 C   0  0  0  0  0  0  0  0  0  0  0  0
   -5.5420   18.2390  -33.4170 C   0  0  2  0  0  0  0  0  0  0  0  0
   -6.3340   17.1300  -32.7770 C   0  0  0  0  0  0  0  0  0  0  0  0
   -6.8420   16.2290  -33.4950 O   0  0  0  0  0  0  0  0  0  0  0  0
   -6.4660   17.0560  -31.3950 O   0  0  0  0  0  0  0  0  0  0  0  0
   -5.9260   19.5800  -32.8260 C   0  0  0  0  0  0  0  0  0  0  0  0
   -7.2960   19.9310  -32.7030 C   0  0  0  0  0  0  0  0  0  0  0  0
   -7.6750   21.1610  -32.1390 C   0  0  0  0  0  0  0  0  0  0  0  0
   -6.6700   22.0220  -31.7130 C   0  0  0  0  0  0  0  0  0  0  0  0
   -6.7570   23.2550  -31.1080 C   0  0  0  0  0  0  0  0  0  0  0  0
   -5.4400   23.6540  -30.8880 C   0  0  0  0  0  0  0  0  0  0  0  0
   -5.0720   24.9690  -30.3260 C   0  0  0  0  0  0  0  0  0  0  0  0
   -3.9270   25.6740  -30.7980 N   0  0  0  0  0  0  0  0  0  0  0  0
   -5.8040   25.5000  -29.4480 O   0  0  0  0  0  0  0  0  0  0  0  0
   -4.5730   22.7010  -31.3330 N   0  0  0  0  0  0  0  0  0  0  0  0
   -3.1430   22.6870  -31.2020 C   0  0  0  0  0  0  0  0  0  0  0  0
   -2.4580   21.8770  -31.8850 O   0  0  0  0  0  0  0  0  0  0  0  0
   -2.5200   23.5600  -30.3030 O   0  0  0  0  0  0  0  0  0  0  0  0
   -2.4580   23.3290  -28.8980 C   0  0  0  0  0  0  0  0  0  0  0  0
   -2.1840   24.6350  -28.1500 C   0  0  0  0  0  0  0  0  0  0  0  0
   -1.6100   25.5780  -29.0130 O   0  0  0  0  0  0  0  0  0  0  0  0
   -5.3410   21.7100  -31.8370 C   0  0  0  0  0  0  0  0  0  0  0  0
   -4.9330   20.4850  -32.3760 C   0  0  0  0  0  0  0  0  0  0  0  0
   -6.7762   18.2616  -35.1957 H   0  0  0  0  0  0  0  0  0  0  0  0
   -5.2133   19.1313  -35.3620 H   0  0  0  0  0  0  0  0  0  0  0  0
   -5.2461   17.3353  -35.3620 H   0  0  0  0  0  0  0  0  0  0  0  0
   -4.4784   18.0584  -33.2022 H   0  0  0  0  0  0  0  0  0  0  0  0
   -8.0698   19.2321  -33.0532 H   0  0  0  0  0  0  0  0  0  0  0  0
   -8.7356   21.4345  -32.0376 H   0  0  0  0  0  0  0  0  0  0  0  0
   -7.6725   23.8086  -30.8522 H   0  0  0  0  0  0  0  0  0  0  0  0
   -2.9670   25.2840  -30.6760 H   0  0  0  0  0  0  0  0  0  0  0  0
   -3.4170   22.9115  -28.5575 H   0  0  0  0  0  0  0  0  0  0  0  0
   -1.6407   22.6227  -28.6901 H   0  0  0  0  0  0  0  0  0  0  0  0
   -3.1306   25.0329  -27.7556 H   0  0  0  0  0  0  0  0  0  0  0  0
   -1.4863   24.4346  -27.3236 H   0  0  0  0  0  0  0  0  0  0  0  0
   -2.2310   25.6740  -29.7810 H   0  0  0  0  0  0  0  0  0  0  0  0
   -3.8654   20.2303  -32.4488 H   0  0  0  0  0  0  0  0  0  0  0  0
  1  2  1  0
  2  3  1  0
  3  4  2  0
  3  5  1  0
  2  6  1  0
  6  7  2  0
  7  8  1  0
  8  9  2  0
  9 10  1  0
 10 11  2  0
 11 12  1  0
 12 13  1  0
 12 14  2  0
 11 15  1  0
 15 16  1  0
 16 17  2  0
 16 18  1  0
 18 19  1  0
 19 20  1  0
 20 21  1  0
 15 22  1  0
 22 23  2  0
 23  6  1  0
 22  9  1  0
  1 24  1  0
  1 25  1  0
  1 26  1  0
  2 27  1  6
  7 28  1  0
  8 29  1  0
 10 30  1  0
 13 31  1  0
 19 32  1  0
 19 33  1  0
 20 34  1  0
 20 35  1  0
 21 36  1  0
 23 37  1  0
M  CHG  2   5  -1  13  -1
M  END
>  <UniqueID>  (60) 
60

>  <SMILES>  (60) 
C[C@H](C(=O)[O-])c1ccc2cc(C([NH-])=O)n(C(=O)OCCO)c2c1

>  <Energy>  (60) 
71.08520124737801

>  <Genealogy>  (60) 
CC(C(=O)[O-])c1ccc2cc(C([NH-])=O)n(C(=O)OCCO)c2c1 (protonated)
C[C@H](C(=O)[O-])c1ccc2cc(C([NH-])=O)n(C(=O)OCCO)c2c1 (chirality)
C[C@H](C(=O)[O-])c1ccc2cc(C([NH-])=O)n(C(=O)OCCO)c2c1 (3D coordinates assigned)
C[C@H](C(=O)[O-])c1ccc2cc(C([NH-])=O)n(C(=O)OCCO)c2c1 (optimized conformer: 71.08520124737801 kcal/mol)

>  <smiles>  (60) 
CC(C(=O)O)c1ccc2cc(C(N)=O)n(C(=O)OCCO)c2c1

>  <score_type>  (60) 
oracle

>  <origin>  (60) 
adg

>  <m_score__min__energy>  (60) 
-10.65

>  <m_primary>  (60) 
energy

$$$$
60:0
     RDKit          3D

 63 65  0  0  0  0  0  0  0  0999 V2000
   -6.5160   17.2840  -31.5670 C   0  0  0  0  0  0  0  0  0  0  0  0
   -7.3170   17.7500  -32.7090 N   0  0  0  0  0  0  0  0  0  0  0  0
   -8.5540   18.4330  -32.2700 C   0  0  0  0  0  0  0  0  0  0  0  0
   -8.2670   19.8210  -31.6690 C   0  0  0  0  0  0  0  0  0  0  0  0
   -7.2390   20.5250  -32.4440 N   0  0  0  0  0  0  0  0  0  0  0  0
   -6.5960   21.6980  -31.9050 C   0  0  0  0  0  0  0  0  0  0  0  0
   -6.9820   22.9940  -32.3400 C   0  0  0  0  0  0  0  0  0  0  0  0
   -6.3590   24.1420  -31.8230 C   0  0  0  0  0  0  0  0  0  0  0  0
   -5.3540   23.9700  -30.8750 C   0  0  0  0  0  0  0  0  0  0  0  0
   -4.5710   24.9010  -30.2330 C   0  0  0  0  0  0  0  0  0  0  0  0
   -3.7160   24.1640  -29.4170 C   0  0  0  0  0  0  0  0  0  0  0  0
   -2.7390   24.7710  -28.4890 C   0  0  0  0  0  0  0  0  0  0  0  0
   -1.7530   25.6730  -28.9840 N   0  0  0  0  0  0  0  0  0  0  0  0
   -2.7830   24.5190  -27.2560 O   0  0  0  0  0  0  0  0  0  0  0  0
   -3.9540   22.8310  -29.5580 N   0  0  0  0  0  0  0  0  0  0  0  0
   -3.2070   21.7360  -29.0040 C   0  0  0  0  0  0  0  0  0  0  0  0
   -2.7700   20.8300  -29.7620 O   0  0  0  0  0  0  0  0  0  0  0  0
   -2.9090   21.7090  -27.6010 N   0  0  0  0  0  0  0  0  0  0  0  0
   -1.8510   20.8670  -27.0470 C   0  0  0  0  0  0  0  0  0  0  0  0
   -0.6240   20.8910  -27.9270 C   0  0  0  0  0  0  0  0  0  0  0  0
   -0.1460   19.8010  -28.3450 O   0  0  0  0  0  0  0  0  0  0  0  0
    0.0420   22.1280  -28.2670 N   0  0  0  0  0  0  0  0  0  0  0  0
   -0.3300   22.7850  -29.5240 C   0  0  0  0  0  0  0  0  0  0  0  0
    1.1220   22.6980  -27.4370 C   0  0  0  0  0  0  0  0  0  0  0  0
    0.7400   24.0500  -26.7730 C   0  0  0  0  0  0  0  0  0  0  0  0
    1.9500   24.6790  -26.0540 C   0  0  0  0  0  0  0  0  0  0  0  0
   -0.4190   23.8610  -25.7740 C   0  0  0  0  0  0  0  0  0  0  0  0
    0.3200   24.9130  -27.8040 O   0  0  0  0  0  0  0  0  0  0  0  0
   -4.9640   22.7290  -30.4480 C   0  0  0  0  0  0  0  0  0  0  0  0
   -5.5560   21.5680  -30.9550 C   0  0  0  0  0  0  0  0  0  0  0  0
   -6.8960   20.0140  -33.7730 C   0  0  0  0  0  0  0  0  0  0  0  0
   -6.5030   18.5310  -33.6800 C   0  0  0  0  0  0  0  0  0  0  0  0
   -7.0124   17.5728  -30.6288 H   0  0  0  0  0  0  0  0  0  0  0  0
   -6.4199   16.1890  -31.6090 H   0  0  0  0  0  0  0  0  0  0  0  0
   -5.5166   17.7417  -31.6090 H   0  0  0  0  0  0  0  0  0  0  0  0
   -9.2199   18.5528  -33.1373 H   0  0  0  0  0  0  0  0  0  0  0  0
   -9.0227   17.8161  -31.4892 H   0  0  0  0  0  0  0  0  0  0  0  0
   -9.1929   20.4149  -31.6759 H   0  0  0  0  0  0  0  0  0  0  0  0
   -7.9024   19.6896  -30.6395 H   0  0  0  0  0  0  0  0  0  0  0  0
   -7.7787   23.1000  -33.0911 H   0  0  0  0  0  0  0  0  0  0  0  0
   -6.6564   25.1469  -32.1572 H   0  0  0  0  0  0  0  0  0  0  0  0
   -4.6115   25.9949  -30.3410 H   0  0  0  0  0  0  0  0  0  0  0  0
   -1.4900   25.6820  -29.9960 H   0  0  0  0  0  0  0  0  0  0  0  0
   -3.2930   22.4680  -26.9940 H   0  0  0  0  0  0  0  0  0  0  0  0
   -1.5834   21.2373  -26.0464 H   0  0  0  0  0  0  0  0  0  0  0  0
   -2.2205   19.8326  -26.9889 H   0  0  0  0  0  0  0  0  0  0  0  0
   -0.8611   23.7229  -29.3043 H   0  0  0  0  0  0  0  0  0  0  0  0
    0.5776   23.0050  -30.1053 H   0  0  0  0  0  0  0  0  0  0  0  0
   -0.9856   22.1199  -30.1053 H   0  0  0  0  0  0  0  0  0  0  0  0
    1.3698   21.9774  -26.6437 H   0  0  0  0  0  0  0  0  0  0  0  0
    1.9759   22.8923  -28.1027 H   0  0  0  0  0  0  0  0  0  0  0  0
    1.8086   24.6055  -24.9656 H   0  0  0  0  0  0  0  0  0  0  0  0
    2.8666   24.1432  -26.3417 H   0  0  0  0  0  0  0  0  0  0  0  0
    2.0381   25.7371  -26.3417 H   0  0  0  0  0  0  0  0  0  0  0  0
   -0.0314   23.9242  -24.7465 H   0  0  0  0  0  0  0  0  0  0  0  0
   -1.1708   24.6484  -25.9314 H   0  0  0  0  0  0  0  0  0  0  0  0
   -0.8817   22.8755  -25.9314 H   0  0  0  0  0  0  0  0  0  0  0  0
   -0.6720   24.9590  -27.7910 H   0  0  0  0  0  0  0  0  0  0  0  0
   -5.2201   20.5748  -30.6222 H   0  0  0  0  0  0  0  0  0  0  0  0
   -7.7648   20.1196  -34.4394 H   0  0  0  0  0  0  0  0  0  0  0  0
   -6.0474   20.5883  -34.1730 H   0  0  0  0  0  0  0  0  0  0  0  0
   -6.6228   18.0781  -34.6753 H   0  0  0  0  0  0  0  0  0  0  0  0
   -5.4631   18.4986  -33.3230 H   0  0  0  0  0  0  0  0  0  0  0  0
  1  2  1  0
  2  3  1  0
  3  4  1  0
  4  5  1  0
  5  6  1  0
  6  7  2  0
  7  8  1  0
  8  9  2  0
  9 10  1  0
 10 11  2  0
 11 12  1  0
 12 13  1  0
 12 14  2  0
 11 15  1  0
 15 16  1  0
 16 17  2  0
 16 18  1  0
 18 19  1  0
 19 20  1  0
 20 21  2  0
 20 22  1  0
 22 23  1  0
 22 24  1  0
 24 25  1  0
 25 26  1  0
 25 27  1  0
 25 28  1  0
 15 29  1  0
 29 30  2  0
  5 31  1  0
 31 32  1  0
 32  2  1  0
 30  6  1  0
 29  9  1  0
  1 33  1  0
  1 34  1  0
  1 35  1  0
  3 36  1  0
  3 37  1  0
  4 38  1  0
  4 39  1  0
  7 40  1  0
  8 41  1  0
 10 42  1  0
 13 43  1  0
 18 44  1  0
 19 45  1  0
 19 46  1  0
 23 47  1  0
 23 48  1  0
 23 49  1  0
 24 50  1  0
 24 51  1  0
 26 52  1  0
 26 53  1  0
 26 54  1  0
 27 55  1  0
 27 56  1  0
 27 57  1  0
 28 58  1  0
 30 59  1  0
 31 60  1  0
 31 61  1  0
 32 62  1  0
 32 63  1  0
M  CHG  1  13  -1
M  END
>  <UniqueID>  (61) 
61

>  <SMILES>  (61) 
CN1CCN(c2ccc3cc(C([NH-])=O)n(C(=O)NCC(=O)N(C)CC(C)(C)O)c3c2)CC1

>  <Energy>  (61) 
110.42488137911329

>  <Genealogy>  (61) 
CN1CCN(c2ccc3cc(C([NH-])=O)n(C(=O)NCC(=O)N(C)CC(C)(C)O)c3c2)CC1 (protonated)
CN1CCN(c2ccc3cc(C([NH-])=O)n(C(=O)NCC(=O)N(C)CC(C)(C)O)c3c2)CC1 (3D coordinates assigned)
CN1CCN(c2ccc3cc(C([NH-])=O)n(C(=O)NCC(=O)N(C)CC(C)(C)O)c3c2)CC1 (nonaromatic ring conformer: 110.42488137911329 kcal/mol)

>  <smiles>  (61) 
CN1CCN(c2ccc3cc(C(N)=O)n(C(=O)NCC(=O)N(C)CC(C)(C)O)c3c2)CC1

>  <score_type>  (61) 
oracle

>  <origin>  (61) 
adg

>  <m_score__min__energy>  (61) 
-11.970000000000001

>  <m_primary>  (61) 
energy

$$$$
61:0
     RDKit          3D

 49 50  0  0  0  0  0  0  0  0999 V2000
   -5.7360   18.2200  -35.3230 C   0  0  0  0  0  0  0  0  0  0  0  0
   -5.3680   18.0650  -33.9160 N   0  0  0  0  0  0  0  0  0  0  0  0
   -3.9600   17.6650  -33.7950 C   0  0  0  0  0  0  0  0  0  0  0  0
   -3.0450   18.8960  -33.8010 C   0  0  0  0  0  0  0  0  0  0  0  0
   -3.1540   19.7200  -32.5150 C   0  0  0  0  0  0  0  0  0  0  0  0
   -4.2710   20.5970  -32.5910 O   0  0  0  0  0  0  0  0  0  0  0  0
   -5.4380   20.4180  -31.8430 C   0  0  0  0  0  0  0  0  0  0  0  0
   -5.7420   19.2730  -31.4100 O   0  0  0  0  0  0  0  0  0  0  0  0
   -6.2850   21.5450  -31.5600 N   0  0  0  0  0  0  0  0  0  0  0  0
   -7.6360   21.6290  -31.7230 C   0  0  0  0  0  0  0  0  0  0  0  0
   -8.4920   20.6230  -32.3810 C   0  0  0  0  0  0  0  0  0  0  0  0
   -7.9260   19.5100  -33.0740 N   0  0  0  0  0  0  0  0  0  0  0  0
   -9.7430   20.7790  -32.3810 O   0  0  0  0  0  0  0  0  0  0  0  0
   -8.1170   22.8410  -31.2370 C   0  0  0  0  0  0  0  0  0  0  0  0
   -7.0080   23.5150  -30.7820 C   0  0  0  0  0  0  0  0  0  0  0  0
   -6.9070   24.7710  -30.1940 C   0  0  0  0  0  0  0  0  0  0  0  0
   -5.6350   25.2110  -29.7970 C   0  0  0  0  0  0  0  0  0  0  0  0
   -4.4890   24.3970  -29.9790 C   0  0  0  0  0  0  0  0  0  0  0  0
   -3.2050   24.8950  -29.5500 N   0  0  0  0  0  0  0  0  0  0  0  0
   -2.4560   24.3870  -28.3920 C   0  0  2  0  0  0  0  0  0  0  0  0
   -3.4030   24.2050  -27.1990 C   0  0  0  0  0  0  0  0  0  0  0  0
   -1.3100   25.3530  -28.0410 C   0  0  0  0  0  0  0  0  0  0  0  0
   -1.2560   26.4130  -28.9600 O   0  0  0  0  0  0  0  0  0  0  0  0
   -4.6370   23.1210  -30.5780 C   0  0  0  0  0  0  0  0  0  0  0  0
   -5.9150   22.7140  -30.9870 C   0  0  0  0  0  0  0  0  0  0  0  0
   -6.7477   18.6461  -35.3926 H   0  0  0  0  0  0  0  0  0  0  0  0
   -5.0199   18.8929  -35.8173 H   0  0  0  0  0  0  0  0  0  0  0  0
   -5.7172   17.2375  -35.8173 H   0  0  0  0  0  0  0  0  0  0  0  0
   -5.4820   19.0000  -33.4580 H   0  0  0  0  0  0  0  0  0  0  0  0
   -3.8203   17.1157  -32.8523 H   0  0  0  0  0  0  0  0  0  0  0  0
   -3.6988   17.0257  -34.6512 H   0  0  0  0  0  0  0  0  0  0  0  0
   -2.0039   18.5600  -33.9164 H   0  0  0  0  0  0  0  0  0  0  0  0
   -3.3598   19.5397  -34.6356 H   0  0  0  0  0  0  0  0  0  0  0  0
   -3.2810   19.0422  -31.6580 H   0  0  0  0  0  0  0  0  0  0  0  0
   -2.2370   20.3143  -32.3888 H   0  0  0  0  0  0  0  0  0  0  0  0
   -8.5470   18.7890  -33.5040 H   0  0  0  0  0  0  0  0  0  0  0  0
   -6.8970   19.4420  -33.2330 H   0  0  0  0  0  0  0  0  0  0  0  0
   -9.1613   23.1862  -31.2203 H   0  0  0  0  0  0  0  0  0  0  0  0
   -7.7968   25.4003  -30.0446 H   0  0  0  0  0  0  0  0  0  0  0  0
   -5.5255   26.2041  -29.3369 H   0  0  0  0  0  0  0  0  0  0  0  0
   -2.7750   25.6660  -30.1100 H   0  0  0  0  0  0  0  0  0  0  0  0
   -2.0183   23.4091  -28.6412 H   0  0  0  0  0  0  0  0  0  0  0  0
   -2.8373   24.3137  -26.2619 H   0  0  0  0  0  0  0  0  0  0  0  0
   -4.1949   24.9674  -27.2398 H   0  0  0  0  0  0  0  0  0  0  0  0
   -3.8559   23.2034  -27.2398 H   0  0  0  0  0  0  0  0  0  0  0  0
   -1.4754   25.7581  -27.0318 H   0  0  0  0  0  0  0  0  0  0  0  0
   -0.3586   24.8023  -28.0798 H   0  0  0  0  0  0  0  0  0  0  0  0
   -1.6110   26.0670  -29.8210 H   0  0  0  0  0  0  0  0  0  0  0  0
   -3.7668   22.4632  -30.7192 H   0  0  0  0  0  0  0  0  0  0  0  0
  1  2  1  0
  2  3  1  0
  3  4  1  0
  4  5  1  0
  5  6  1  0
  6  7  1  0
  7  8  2  0
  7  9  1  0
  9 10  1  0
 10 11  1  0
 11 12  1  0
 11 13  2  0
 10 14  2  0
 14 15  1  0
 15 16  2  0
 16 17  1  0
 17 18  2  0
 18 19  1  0
 19 20  1  0
 20 21  1  0
 20 22  1  0
 22 23  1  0
 18 24  1  0
 24 25  2  0
 25  9  1  0
 25 15  1  0
  1 26  1  0
  1 27  1  0
  1 28  1  0
  2 29  1  0
  3 30  1  0
  3 31  1  0
  4 32  1  0
  4 33  1  0
  5 34  1  0
  5 35  1  0
 12 36  1  0
 12 37  1  0
 14 38  1  0
 16 39  1  0
 17 40  1  0
 19 41  1  0
 20 42  1  6
 21 43  1  0
 21 44  1  0
 21 45  1  0
 22 46  1  0
 22 47  1  0
 23 48  1  0
 24 49  1  0
M  END
>  <UniqueID>  (62) 
62

>  <SMILES>  (62) 
CNCCCOC(=O)n1c(C(N)=O)cc2ccc(N[C@H](C)CO)cc21

>  <Energy>  (62) 
75.62385655617729

>  <Genealogy>  (62) 
CNCCCOC(=O)n1c(C(N)=O)cc2ccc(N[C@H](C)CO)cc21 (chirality)
CNCCCOC(=O)n1c(C(N)=O)cc2ccc(N[C@H](C)CO)cc21 (3D coordinates assigned)
CNCCCOC(=O)n1c(C(N)=O)cc2ccc(N[C@H](C)CO)cc21 (optimized conformer: 75.62385655617729 kcal/mol)

>  <smiles>  (62) 
CNCCCOC(=O)n1c(C(N)=O)cc2ccc(NC(C)CO)cc21

>  <score_type>  (62) 
oracle

>  <origin>  (62) 
adg

>  <m_score__min__energy>  (62) 
-8.1699999999999999

>  <m_primary>  (62) 
energy

$$$$
62:0
     RDKit          3D

 61 63  0  0  0  0  0  0  0  0999 V2000
   -4.5870   14.1820  -31.9700 C   0  0  0  0  0  0  0  0  0  0  0  0
   -4.6100   15.4930  -32.4890 O   0  0  0  0  0  0  0  0  0  0  0  0
   -5.1400   15.4710  -33.7990 C   0  0  0  0  0  0  0  0  0  0  0  0
   -5.2660   16.9080  -34.3250 C   0  0  2  0  0  0  0  0  0  0  0  0
   -4.0210   17.3370  -35.1140 C   0  0  0  0  0  0  0  0  0  0  0  0
   -3.2250   18.2800  -34.1990 C   0  0  2  0  0  0  0  0  0  0  0  0
   -1.9990   17.5840  -33.5910 C   0  0  0  0  0  0  0  0  0  0  0  0
   -4.2090   18.7370  -33.1180 C   0  0  0  0  0  0  0  0  0  0  0  0
   -5.3640   17.8560  -33.2180 N   0  0  0  0  0  0  0  0  0  0  0  0
   -6.4940   18.0010  -32.3340 C   0  0  0  0  0  0  0  0  0  0  0  0
   -6.4780   17.4110  -31.2190 O   0  0  0  0  0  0  0  0  0  0  0  0
   -7.7140   18.8050  -32.7220 C   0  0  0  0  0  0  0  0  0  0  0  0
   -7.6760   20.1800  -32.1060 C   0  0  0  0  0  0  0  0  0  0  0  0
   -8.8860   20.8670  -31.8380 C   0  0  0  0  0  0  0  0  0  0  0  0
   -8.8670   22.1790  -31.3380 C   0  0  0  0  0  0  0  0  0  0  0  0
   -7.6300   22.7840  -31.1360 C   0  0  0  0  0  0  0  0  0  0  0  0
   -7.3310   24.0470  -30.6820 C   0  0  0  0  0  0  0  0  0  0  0  0
   -5.9410   24.1280  -30.7050 C   0  0  0  0  0  0  0  0  0  0  0  0
   -5.2010   25.3700  -30.4040 C   0  0  0  0  0  0  0  0  0  0  0  0
   -3.8650   25.5540  -30.8650 N   0  0  0  0  0  0  0  0  0  0  0  0
   -5.7790   26.3070  -29.7880 O   0  0  0  0  0  0  0  0  0  0  0  0
   -5.3950   22.9540  -31.1360 N   0  0  0  0  0  0  0  0  0  0  0  0
   -3.9980   22.6060  -31.1720 C   0  0  0  0  0  0  0  0  0  0  0  0
   -3.5720   21.8140  -32.0600 O   0  0  0  0  0  0  0  0  0  0  0  0
   -3.1290   23.1330  -30.2050 O   0  0  0  0  0  0  0  0  0  0  0  0
   -2.9500   22.6560  -28.8630 C   0  0  0  0  0  0  0  0  0  0  0  0
   -3.0280   21.1160  -28.8140 C   0  0  0  0  0  0  0  0  0  0  0  0
   -4.0020   23.2870  -27.9280 C   0  0  0  0  0  0  0  0  0  0  0  0
   -1.5480   23.0930  -28.4050 C   0  0  0  0  0  0  0  0  0  0  0  0
   -6.4460   22.1420  -31.4040 C   0  0  0  0  0  0  0  0  0  0  0  0
   -6.4380   20.8230  -31.8800 C   0  0  0  0  0  0  0  0  0  0  0  0
   -4.5877   14.2228  -30.8708 H   0  0  0  0  0  0  0  0  0  0  0  0
   -5.4757   13.6346  -32.3172 H   0  0  0  0  0  0  0  0  0  0  0  0
   -3.6797   13.6661  -32.3172 H   0  0  0  0  0  0  0  0  0  0  0  0
   -4.4696   14.8976  -34.4561 H   0  0  0  0  0  0  0  0  0  0  0  0
   -6.1329   14.9977  -33.7847 H   0  0  0  0  0  0  0  0  0  0  0  0
   -6.1629   16.9161  -34.9618 H   0  0  0  0  0  0  0  0  0  0  0  0
   -3.4137   16.4571  -35.3727 H   0  0  0  0  0  0  0  0  0  0  0  0
   -4.2994   17.8371  -36.0533 H   0  0  0  0  0  0  0  0  0  0  0  0
   -2.8223   19.1349  -34.7620 H   0  0  0  0  0  0  0  0  0  0  0  0
   -2.0634   17.6205  -32.4935 H   0  0  0  0  0  0  0  0  0  0  0  0
   -1.9710   16.5353  -33.9219 H   0  0  0  0  0  0  0  0  0  0  0  0
   -1.0842   18.0975  -33.9219 H   0  0  0  0  0  0  0  0  0  0  0  0
   -3.7488   18.6502  -32.1227 H   0  0  0  0  0  0  0  0  0  0  0  0
   -4.4958   19.7897  -33.2577 H   0  0  0  0  0  0  0  0  0  0  0  0
   -7.7465   18.9027  -33.8172 H   0  0  0  0  0  0  0  0  0  0  0  0
   -8.6088   18.2818  -32.3539 H   0  0  0  0  0  0  0  0  0  0  0  0
   -9.8487   20.3681  -32.0233 H   0  0  0  0  0  0  0  0  0  0  0  0
   -9.8020   22.7128  -31.1127 H   0  0  0  0  0  0  0  0  0  0  0  0
   -8.0393   24.8276  -30.3675 H   0  0  0  0  0  0  0  0  0  0  0  0
   -3.0490   25.2910  -30.2690 H   0  0  0  0  0  0  0  0  0  0  0  0
   -3.0449   20.7829  -27.7658 H   0  0  0  0  0  0  0  0  0  0  0  0
   -3.9444   20.7790  -29.3206 H   0  0  0  0  0  0  0  0  0  0  0  0
   -2.1504   20.6881  -29.3206 H   0  0  0  0  0  0  0  0  0  0  0  0
   -3.7130   23.1136  -26.8809 H   0  0  0  0  0  0  0  0  0  0  0  0
   -4.0597   24.3689  -28.1181 H   0  0  0  0  0  0  0  0  0  0  0  0
   -4.9836   22.8285  -28.1181 H   0  0  0  0  0  0  0  0  0  0  0  0
   -1.5086   23.1053  -27.3058 H   0  0  0  0  0  0  0  0  0  0  0  0
   -0.7992   22.3856  -28.7909 H   0  0  0  0  0  0  0  0  0  0  0  0
   -1.3337   24.1006  -28.7909 H   0  0  0  0  0  0  0  0  0  0  0  0
   -5.4894   20.3006  -32.0731 H   0  0  0  0  0  0  0  0  0  0  0  0
  1  2  1  0
  2  3  1  0
  3  4  1  0
  4  5  1  0
  5  6  1  0
  6  7  1  0
  6  8  1  0
  8  9  1  0
  9 10  1  0
 10 11  2  0
 10 12  1  0
 12 13  1  0
 13 14  2  0
 14 15  1  0
 15 16  2  0
 16 17  1  0
 17 18  2  0
 18 19  1  0
 19 20  1  0
 19 21  2  0
 18 22  1  0
 22 23  1  0
 23 24  2  0
 23 25  1  0
 25 26  1  0
 26 27  1  0
 26 28  1  0
 26 29  1  0
 22 30  1  0
 30 31  2  0
  9  4  1  0
 31 13  1  0
 30 16  1  0
  1 32  1  0
  1 33  1  0
  1 34  1  0
  3 35  1  0
  3 36  1  0
  4 37  1  6
  5 38  1  0
  5 39  1  0
  6 40  1  6
  7 41  1  0
  7 42  1  0
  7 43  1  0
  8 44  1  0
  8 45  1  0
 12 46  1  0
 12 47  1  0
 14 48  1  0
 15 49  1  0
 17 50  1  0
 20 51  1  0
 27 52  1  0
 27 53  1  0
 27 54  1  0
 28 55  1  0
 28 56  1  0
 28 57  1  0
 29 58  1  0
 29 59  1  0
 29 60  1  0
 31 61  1  0
M  CHG  1  20  -1
M  END
>  <UniqueID>  (63) 
63

>  <SMILES>  (63) 
COC[C@@H]1C[C@H](C)CN1C(=O)Cc1ccc2cc(C([NH-])=O)n(C(=O)OC(C)(C)C)c2c1

>  <Energy>  (63) 
94.97451612059082

>  <Genealogy>  (63) 
COC[C@@H]1C[C@H](C)CN1C(=O)Cc1ccc2cc(C([NH-])=O)n(C(=O)OC(C)(C)C)c2c1 (protonated)
COC[C@@H]1C[C@H](C)CN1C(=O)Cc1ccc2cc(C([NH-])=O)n(C(=O)OC(C)(C)C)c2c1 (3D coordinates assigned)
COC[C@@H]1C[C@H](C)CN1C(=O)Cc1ccc2cc(C([NH-])=O)n(C(=O)OC(C)(C)C)c2c1 (nonaromatic ring conformer: 94.97451612059082 kcal/mol)

>  <smiles>  (63) 
COC[C@@H]1C[C@H](C)CN1C(=O)Cc1ccc2cc(C(N)=O)n(C(=O)OC(C)(C)C)c2c1

>  <score_type>  (63) 
oracle

>  <origin>  (63) 
adg

>  <m_score__min__energy>  (63) 
-11.31

>  <m_primary>  (63) 
energy

$$$$
63:0
     RDKit          3D

 53 55  0  0  0  0  0  0  0  0999 V2000
   -0.8570   26.7910  -26.5220 C   0  0  0  0  0  0  0  0  0  0  0  0
   -0.6240   26.6300  -27.9150 O   0  0  0  0  0  0  0  0  0  0  0  0
   -0.8900   25.4360  -28.5880 C   0  0  0  0  0  0  0  0  0  0  0  0
   -0.0510   24.4940  -28.5790 O   0  0  0  0  0  0  0  0  0  0  0  0
   -2.1240   25.2980  -29.2980 N   0  0  0  0  0  0  0  0  0  0  0  0
   -2.8160   24.0230  -29.4890 C   0  0  1  0  0  0  0  0  0  0  0  0
   -3.4100   23.5500  -28.1490 C   0  0  0  0  0  0  0  0  0  0  0  0
   -2.5780   22.4260  -27.5200 C   0  0  0  0  0  0  0  0  0  0  0  0
   -2.7140   20.8950  -28.5090 S   0  0  0  0  0  0  0  0  0  0  0  0
   -2.7080   19.7500  -27.0910 C   0  0  0  0  0  0  0  0  0  0  0  0
   -3.8980   24.1420  -30.5420 C   0  0  0  0  0  0  0  0  0  0  0  0
   -4.2480   25.2860  -30.9400 O   0  0  0  0  0  0  0  0  0  0  0  0
   -4.6100   22.9900  -31.0240 N   0  0  0  0  0  0  0  0  0  0  0  0
   -5.8900   22.6310  -30.7250 C   0  0  0  0  0  0  0  0  0  0  0  0
   -6.7740   23.3430  -29.7720 C   0  0  0  0  0  0  0  0  0  0  0  0
   -6.4750   24.6740  -29.3430 N   0  0  0  0  0  0  0  0  0  0  0  0
   -7.8120   22.7820  -29.3340 O   0  0  0  0  0  0  0  0  0  0  0  0
   -6.2330   21.4590  -31.4000 C   0  0  0  0  0  0  0  0  0  0  0  0
   -5.1190   21.1200  -32.1340 C   0  0  0  0  0  0  0  0  0  0  0  0
   -4.8990   20.0410  -32.9850 C   0  0  0  0  0  0  0  0  0  0  0  0
   -3.6490   19.9450  -33.6180 C   0  0  0  0  0  0  0  0  0  0  0  0
   -2.6520   20.9350  -33.4070 C   0  0  0  0  0  0  0  0  0  0  0  0
   -1.3620   20.8390  -34.0330 N   0  0  0  0  0  0  0  0  0  0  0  0
   -0.1900   20.3080  -33.3920 C   0  0  0  0  0  0  0  0  0  0  0  0
   -0.2590   19.9160  -32.0490 C   0  0  0  0  0  0  0  0  0  0  0  0
    0.8800   19.4180  -31.4150 C   0  0  0  0  0  0  0  0  0  0  0  0
    2.0550   19.3330  -32.0930 N   0  0  0  0  0  0  0  0  0  0  0  0
    2.1610   19.7270  -33.3890 C   0  0  0  0  0  0  0  0  0  0  0  0
    3.3570   19.6440  -34.0220 F   0  0  0  0  0  0  0  0  0  0  0  0
    1.0430   20.2310  -34.0630 C   0  0  0  0  0  0  0  0  0  0  0  0
    1.1750   20.6760  -35.3390 F   0  0  0  0  0  0  0  0  0  0  0  0
   -2.9090   22.0030  -32.5230 C   0  0  0  0  0  0  0  0  0  0  0  0
   -4.1570   22.0650  -31.8950 C   0  0  0  0  0  0  0  0  0  0  0  0
   -0.0810   26.2548  -25.9561 H   0  0  0  0  0  0  0  0  0  0  0  0
   -0.8246   27.8603  -26.2660 H   0  0  0  0  0  0  0  0  0  0  0  0
   -1.8457   26.3825  -26.2660 H   0  0  0  0  0  0  0  0  0  0  0  0
   -2.0887   23.2775  -29.8430 H   0  0  0  0  0  0  0  0  0  0  0  0
   -3.4410   24.4015  -27.4534 H   0  0  0  0  0  0  0  0  0  0  0  0
   -4.4199   23.1593  -28.3426 H   0  0  0  0  0  0  0  0  0  0  0  0
   -1.5237   22.7368  -27.4778 H   0  0  0  0  0  0  0  0  0  0  0  0
   -2.9571   22.2285  -26.5065 H   0  0  0  0  0  0  0  0  0  0  0  0
   -2.7110   20.3265  -26.1542 H   0  0  0  0  0  0  0  0  0  0  0  0
   -3.6028   19.1115  -27.1315 H   0  0  0  0  0  0  0  0  0  0  0  0
   -1.8065   19.1209  -27.1315 H   0  0  0  0  0  0  0  0  0  0  0  0
   -7.1280   25.1730  -28.6980 H   0  0  0  0  0  0  0  0  0  0  0  0
   -5.5940   25.1560  -29.6230 H   0  0  0  0  0  0  0  0  0  0  0  0
   -7.1909   20.9200  -31.3551 H   0  0  0  0  0  0  0  0  0  0  0  0
   -5.6805   19.2862  -33.1566 H   0  0  0  0  0  0  0  0  0  0  0  0
   -3.4397   19.0948  -34.2838 H   0  0  0  0  0  0  0  0  0  0  0  0
   -1.2540   21.2270  -34.9980 H   0  0  0  0  0  0  0  0  0  0  0  0
   -1.2066   20.0003  -31.4967 H   0  0  0  0  0  0  0  0  0  0  0  0
    0.8269   19.0938  -30.3652 H   0  0  0  0  0  0  0  0  0  0  0  0
   -2.1447   22.7705  -32.3315 H   0  0  0  0  0  0  0  0  0  0  0  0
  1  2  1  0
  2  3  1  0
  3  4  2  0
  3  5  1  0
  5  6  1  0
  6  7  1  0
  7  8  1  0
  8  9  1  0
  9 10  1  0
  6 11  1  0
 11 12  2  0
 11 13  1  0
 13 14  1  0
 14 15  1  0
 15 16  1  0
 15 17  2  0
 14 18  2  0
 18 19  1  0
 19 20  2  0
 20 21  1  0
 21 22  2  0
 22 23  1  0
 23 24  1  0
 24 25  2  0
 25 26  1  0
 26 27  2  0
 27 28  1  0
 28 29  1  0
 28 30  2  0
 30 31  1  0
 22 32  1  0
 32 33  2  0
 33 13  1  0
 33 19  1  0
 30 24  1  0
  1 34  1  0
  1 35  1  0
  1 36  1  0
  6 37  1  6
  7 38  1  0
  7 39  1  0
  8 40  1  0
  8 41  1  0
 10 42  1  0
 10 43  1  0
 10 44  1  0
 16 45  1  0
 16 46  1  0
 18 47  1  0
 20 48  1  0
 21 49  1  0
 23 50  1  0
 25 51  1  0
 26 52  1  0
 32 53  1  0
M  CHG  1   5  -1
M  END
>  <UniqueID>  (64) 
64

>  <SMILES>  (64) 
COC(=O)[N-][C@@H](CCSC)C(=O)n1c(C(N)=O)cc2ccc(Nc3ccnc(F)c3F)cc21

>  <Energy>  (64) 
91.03148113196512

>  <Genealogy>  (64) 
COC(=O)[N-]C(CCSC)C(=O)n1c(C(N)=O)cc2ccc(Nc3ccnc(F)c3F)cc21 (protonated)
COC(=O)[N-][C@@H](CCSC)C(=O)n1c(C(N)=O)cc2ccc(Nc3ccnc(F)c3F)cc21 (chirality)
COC(=O)[N-][C@@H](CCSC)C(=O)n1c(C(N)=O)cc2ccc(Nc3ccnc(F)c3F)cc21 (3D coordinates assigned)
COC(=O)[N-][C@@H](CCSC)C(=O)n1c(C(N)=O)cc2ccc(Nc3ccnc(F)c3F)cc21 (optimized conformer: 91.03148113196512 kcal/mol)

>  <smiles>  (64) 
COC(=O)NC(CCSC)C(=O)n1c(C(N)=O)cc2ccc(Nc3ccnc(F)c3F)cc21

>  <score_type>  (64) 
oracle

>  <origin>  (64) 
adg

>  <m_score__min__energy>  (64) 
-11.09

>  <m_primary>  (64) 
energy

$$$$
64:0
     RDKit          3D

 48 51  0  0  0  0  0  0  0  0999 V2000
   -0.2100   16.0750  -33.2450 C   0  0  0  0  0  0  0  0  0  0  0  0
    0.6420   17.0830  -33.9700 C   0  0  0  0  0  0  0  0  0  0  0  0
    2.0120   16.8350  -34.1570 C   0  0  0  0  0  0  0  0  0  0  0  0
    2.8080   17.7540  -34.8430 C   0  0  0  0  0  0  0  0  0  0  0  0
    2.2470   18.9230  -35.3570 C   0  0  0  0  0  0  0  0  0  0  0  0
    0.8820   19.1810  -35.1890 C   0  0  0  0  0  0  0  0  0  0  0  0
    0.2030   20.6580  -35.8580 Cl  0  0  0  0  0  0  0  0  0  0  0  0
    0.0720   18.2600  -34.5010 C   0  0  0  0  0  0  0  0  0  0  0  0
   -1.3270   18.5230  -34.3390 N   0  0  0  0  0  0  0  0  0  0  0  0
   -2.2730   17.7930  -34.9100 N   0  0  0  0  0  0  0  0  0  0  0  0
   -3.4610   18.2970  -34.5220 C   0  0  0  0  0  0  0  0  0  0  0  0
   -4.7750   17.7300  -34.9550 C   0  0  0  0  0  0  0  0  0  0  0  0
   -3.2580   19.3720  -33.6660 C   0  0  0  0  0  0  0  0  0  0  0  0
   -4.2880   20.1960  -33.0040 C   0  0  0  0  0  0  0  0  0  0  0  0
   -5.6530   19.8320  -33.0910 C   0  0  0  0  0  0  0  0  0  0  0  0
   -6.6420   20.6070  -32.4630 C   0  0  0  0  0  0  0  0  0  0  0  0
   -6.2380   21.7440  -31.7700 C   0  0  0  0  0  0  0  0  0  0  0  0
   -6.9810   22.6470  -31.0460 C   0  0  0  0  0  0  0  0  0  0  0  0
   -6.0620   23.5710  -30.5590 C   0  0  0  0  0  0  0  0  0  0  0  0
   -6.4470   24.7600  -29.7720 C   0  0  0  0  0  0  0  0  0  0  0  0
   -5.5730   25.3030  -28.7800 N   0  0  0  0  0  0  0  0  0  0  0  0
   -7.5380   25.3390  -30.0200 O   0  0  0  0  0  0  0  0  0  0  0  0
   -4.7970   23.2500  -30.9540 N   0  0  0  0  0  0  0  0  0  0  0  0
   -3.5710   23.8970  -30.5700 C   0  0  0  0  0  0  0  0  0  0  0  0
   -2.5470   23.2130  -30.3050 O   0  0  0  0  0  0  0  0  0  0  0  0
   -3.4980   25.2820  -30.4920 O   0  0  0  0  0  0  0  0  0  0  0  0
   -4.9220   22.1280  -31.6980 C   0  0  0  0  0  0  0  0  0  0  0  0
   -3.9150   21.3610  -32.2960 C   0  0  0  0  0  0  0  0  0  0  0  0
   -1.8800   19.4920  -33.5810 C   0  0  0  0  0  0  0  0  0  0  0  0
   -1.0980   20.4120  -32.6890 C   0  0  0  0  0  0  0  0  0  0  0  0
   -0.0951   16.2109  -32.1595 H   0  0  0  0  0  0  0  0  0  0  0  0
   -1.2646   16.2187  -33.5230 H   0  0  0  0  0  0  0  0  0  0  0  0
    0.1073   15.0591  -33.5230 H   0  0  0  0  0  0  0  0  0  0  0  0
    2.4599   15.9118  -33.7608 H   0  0  0  0  0  0  0  0  0  0  0  0
    3.8814   17.5555  -34.9787 H   0  0  0  0  0  0  0  0  0  0  0  0
    2.8793   19.6440  -35.8958 H   0  0  0  0  0  0  0  0  0  0  0  0
   -5.3730   17.4720  -34.0685 H   0  0  0  0  0  0  0  0  0  0  0  0
   -5.3152   18.4751  -35.5575 H   0  0  0  0  0  0  0  0  0  0  0  0
   -4.6035   16.8258  -35.5575 H   0  0  0  0  0  0  0  0  0  0  0  0
   -5.9422   18.9335  -33.6559 H   0  0  0  0  0  0  0  0  0  0  0  0
   -7.7035   20.3237  -32.5174 H   0  0  0  0  0  0  0  0  0  0  0  0
   -8.0693   22.6401  -30.8862 H   0  0  0  0  0  0  0  0  0  0  0  0
   -5.8840   26.1120  -28.1970 H   0  0  0  0  0  0  0  0  0  0  0  0
   -4.5970   24.9500  -28.6710 H   0  0  0  0  0  0  0  0  0  0  0  0
   -2.8588   21.6579  -32.2167 H   0  0  0  0  0  0  0  0  0  0  0  0
   -1.3061   20.1672  -31.6370 H   0  0  0  0  0  0  0  0  0  0  0  0
   -0.0231   20.2898  -32.8882 H   0  0  0  0  0  0  0  0  0  0  0  0
   -1.3918   21.4532  -32.8882 H   0  0  0  0  0  0  0  0  0  0  0  0
  1  2  1  0
  2  3  2  0
  3  4  1  0
  4  5  2  0
  5  6  1  0
  6  7  1  0
  6  8  2  0
  8  9  1  0
  9 10  1  0
 10 11  2  0
 11 12  1  0
 11 13  1  0
 13 14  1  0
 14 15  2  0
 15 16  1  0
 16 17  2  0
 17 18  1  0
 18 19  2  0
 19 20  1  0
 20 21  1  0
 20 22  2  0
 19 23  1  0
 23 24  1  0
 24 25  2  0
 24 26  1  0
 23 27  1  0
 27 28  2  0
 13 29  2  0
 29 30  1  0
  8  2  1  0
 29  9  1  0
 28 14  1  0
 27 17  1  0
  1 31  1  0
  1 32  1  0
  1 33  1  0
  3 34  1  0
  4 35  1  0
  5 36  1  0
 12 37  1  0
 12 38  1  0
 12 39  1  0
 15 40  1  0
 16 41  1  0
 18 42  1  0
 21 43  1  0
 21 44  1  0
 28 45  1  0
 30 46  1  0
 30 47  1  0
 30 48  1  0
M  CHG  1  26  -1
M  END
>  <UniqueID>  (65) 
65

>  <SMILES>  (65) 
Cc1cccc(Cl)c1-n1nc(C)c(-c2ccc3cc(C(N)=O)n(C(=O)[O-])c3c2)c1C

>  <Energy>  (65) 
133.55847474128691

>  <Genealogy>  (65) 
Cc1cccc(Cl)c1-n1nc(C)c(-c2ccc3cc(C(N)=O)n(C(=O)[O-])c3c2)c1C (protonated)
Cc1cccc(Cl)c1-n1nc(C)c(-c2ccc3cc(C(N)=O)n(C(=O)[O-])c3c2)c1C (3D coordinates assigned)
Cc1cccc(Cl)c1-n1nc(C)c(-c2ccc3cc(C(N)=O)n(C(=O)[O-])c3c2)c1C (optimized conformer: 133.55847474128691 kcal/mol)

>  <smiles>  (65) 
Cc1cccc(Cl)c1-n1nc(C)c(-c2ccc3cc(C(N)=O)n(C(=O)O)c3c2)c1C

>  <score_type>  (65) 
oracle

>  <origin>  (65) 
adg

>  <m_score__min__energy>  (65) 
-10.26

>  <m_primary>  (65) 
energy

$$$$
65:0
     RDKit          3D

 31 32  0  0  0  0  0  0  0  0999 V2000
   -4.2350   25.5100  -30.6570 N   0  0  0  0  0  0  0  0  0  0  0  0
   -5.6050   25.1620  -30.4440 C   0  0  0  0  0  0  0  0  0  0  0  0
   -6.3530   25.9660  -29.8290 O   0  0  0  0  0  0  0  0  0  0  0  0
   -6.1320   23.8590  -30.9040 C   0  0  0  0  0  0  0  0  0  0  0  0
   -7.4880   23.5840  -31.0690 C   0  0  0  0  0  0  0  0  0  0  0  0
   -7.5410   22.3140  -31.5960 C   0  0  0  0  0  0  0  0  0  0  0  0
   -8.6430   21.5350  -31.9400 C   0  0  0  0  0  0  0  0  0  0  0  0
   -8.4050   20.2410  -32.4330 C   0  0  0  0  0  0  0  0  0  0  0  0
   -7.0820   19.7550  -32.5760 C   0  0  0  0  0  0  0  0  0  0  0  0
   -6.8440   18.3530  -33.0550 C   0  0  0  0  0  0  0  0  0  0  0  0
   -7.6890   17.4880  -32.3860 F   0  0  0  0  0  0  0  0  0  0  0  0
   -5.9900   20.5680  -32.2030 C   0  0  0  0  0  0  0  0  0  0  0  0
   -6.2540   21.8610  -31.7320 C   0  0  0  0  0  0  0  0  0  0  0  0
   -5.3760   22.8000  -31.3120 N   0  0  0  0  0  0  0  0  0  0  0  0
   -3.9470   22.6650  -31.2310 C   0  0  0  0  0  0  0  0  0  0  0  0
   -3.2750   22.4850  -32.2830 O   0  0  0  0  0  0  0  0  0  0  0  0
   -3.3180   22.7230  -29.9800 O   0  0  0  0  0  0  0  0  0  0  0  0
   -2.1740   23.4780  -29.6880 C   0  0  0  0  0  0  0  0  0  0  0  0
   -2.2390   24.7270  -29.5260 O   0  0  0  0  0  0  0  0  0  0  0  0
   -0.8660   22.7790  -29.5020 C   0  0  0  0  0  0  0  0  0  0  0  0
   -0.4850   22.1670  -30.6830 F   0  0  0  0  0  0  0  0  0  0  0  0
    0.1080   23.6880  -29.1310 F   0  0  0  0  0  0  0  0  0  0  0  0
   -0.9960   21.8200  -28.5150 F   0  0  0  0  0  0  0  0  0  0  0  0
   -3.5980   24.8940  -31.2080 H   0  0  0  0  0  0  0  0  0  0  0  0
   -3.8640   26.4170  -30.2950 H   0  0  0  0  0  0  0  0  0  0  0  0
   -8.3360   24.2423  -30.8290 H   0  0  0  0  0  0  0  0  0  0  0  0
   -9.6672   21.9206  -31.8293 H   0  0  0  0  0  0  0  0  0  0  0  0
   -9.2541   19.5991  -32.7106 H   0  0  0  0  0  0  0  0  0  0  0  0
   -7.0417   18.2962  -34.1356 H   0  0  0  0  0  0  0  0  0  0  0  0
   -5.7993   18.0706  -32.8580 H   0  0  0  0  0  0  0  0  0  0  0  0
   -4.9577   20.1959  -32.2801 H   0  0  0  0  0  0  0  0  0  0  0  0
  1  2  1  0
  2  3  2  0
  2  4  1  0
  4  5  2  0
  5  6  1  0
  6  7  2  0
  7  8  1  0
  8  9  2  0
  9 10  1  0
 10 11  1  0
  9 12  1  0
 12 13  2  0
 13 14  1  0
 14 15  1  0
 15 16  2  0
 15 17  1  0
 17 18  1  0
 18 19  2  0
 18 20  1  0
 20 21  1  0
 20 22  1  0
 20 23  1  0
 14  4  1  0
 13  6  1  0
  1 24  1  0
  1 25  1  0
  5 26  1  0
  7 27  1  0
  8 28  1  0
 10 29  1  0
 10 30  1  0
 12 31  1  0
M  END
>  <UniqueID>  (66) 
66

>  <SMILES>  (66) 
NC(=O)c1cc2ccc(CF)cc2n1C(=O)OC(=O)C(F)(F)F

>  <Energy>  (66) 
68.86197918519798

>  <Genealogy>  (66) 
NC(=O)c1cc2ccc(CF)cc2n1C(=O)OC(=O)C(F)(F)F (3D coordinates assigned)
NC(=O)c1cc2ccc(CF)cc2n1C(=O)OC(=O)C(F)(F)F (optimized conformer: 68.86197918519798 kcal/mol)

>  <smiles>  (66) 
NC(=O)c1cc2ccc(CF)cc2n1C(=O)OC(=O)C(F)(F)F

>  <score_type>  (66) 
oracle

>  <origin>  (66) 
adg

>  <m_score__min__energy>  (66) 
-7.5300000000000002

>  <m_primary>  (66) 
energy

$$$$
66:0
     RDKit          3D

 37 38  0  0  0  0  0  0  0  0999 V2000
   -7.1390   23.1270  -32.3160 C   0  0  0  0  0  0  0  0  0  0  0  0
   -6.8470   22.1570  -31.2510 N   0  0  0  0  0  0  0  0  0  0  0  0
   -7.6100   22.4250  -30.0240 C   0  0  0  0  0  0  0  0  0  0  0  0
   -7.0270   20.4600  -31.7920 S   0  0  0  0  0  0  0  0  0  0  0  0
   -6.0690   20.5160  -33.3570 C   0  0  0  0  0  0  0  0  0  0  0  0
   -4.8810   19.5570  -33.2790 C   0  0  0  0  0  0  0  0  0  0  0  0
   -3.7420   20.1840  -32.5240 C   0  0  0  0  0  0  0  0  0  0  0  0
   -2.4590   19.5820  -32.5460 C   0  0  0  0  0  0  0  0  0  0  0  0
   -1.3750   20.1830  -31.8840 C   0  0  0  0  0  0  0  0  0  0  0  0
   -1.6050   21.3810  -31.2110 C   0  0  0  0  0  0  0  0  0  0  0  0
   -0.7330   22.1850  -30.5160 C   0  0  0  0  0  0  0  0  0  0  0  0
   -1.4970   23.2630  -30.0710 C   0  0  0  0  0  0  0  0  0  0  0  0
   -0.9640   24.3350  -29.2060 C   0  0  0  0  0  0  0  0  0  0  0  0
   -1.6310   25.5940  -29.1440 N   0  0  0  0  0  0  0  0  0  0  0  0
    0.0950   24.1670  -28.5460 O   0  0  0  0  0  0  0  0  0  0  0  0
   -2.7920   23.1330  -30.4820 N   0  0  0  0  0  0  0  0  0  0  0  0
   -3.8750   24.0570  -30.2900 C   0  0  0  0  0  0  0  0  0  0  0  0
   -4.9080   23.7040  -29.6640 O   0  0  0  0  0  0  0  0  0  0  0  0
   -3.8070   25.3400  -30.8190 O   0  0  0  0  0  0  0  0  0  0  0  0
   -2.8400   21.9730  -31.1760 C   0  0  0  0  0  0  0  0  0  0  0  0
   -3.9330   21.4060  -31.8430 C   0  0  0  0  0  0  0  0  0  0  0  0
   -7.4285   24.0885  -31.8669 H   0  0  0  0  0  0  0  0  0  0  0  0
   -6.2435   23.2681  -32.9391 H   0  0  0  0  0  0  0  0  0  0  0  0
   -7.9636   22.7503  -32.9391 H   0  0  0  0  0  0  0  0  0  0  0  0
   -5.8330   22.2630  -31.0100 H   0  0  0  0  0  0  0  0  0  0  0  0
   -6.9834   22.2049  -29.1471 H   0  0  0  0  0  0  0  0  0  0  0  0
   -7.9112   23.4827  -30.0032 H   0  0  0  0  0  0  0  0  0  0  0  0
   -8.5065   21.7880  -30.0032 H   0  0  0  0  0  0  0  0  0  0  0  0
   -6.7202   20.2216  -34.1932 H   0  0  0  0  0  0  0  0  0  0  0  0
   -5.6968   21.5389  -33.5154 H   0  0  0  0  0  0  0  0  0  0  0  0
   -5.1929   18.6366  -32.7636 H   0  0  0  0  0  0  0  0  0  0  0  0
   -4.5444   19.3264  -34.3005 H   0  0  0  0  0  0  0  0  0  0  0  0
   -2.3105   18.6355  -33.0864 H   0  0  0  0  0  0  0  0  0  0  0  0
   -0.3763   19.7221  -31.8967 H   0  0  0  0  0  0  0  0  0  0  0  0
    0.3404   22.0140  -30.3468 H   0  0  0  0  0  0  0  0  0  0  0  0
   -2.6660   25.6620  -29.2650 H   0  0  0  0  0  0  0  0  0  0  0  0
   -4.9157   21.9002  -31.8365 H   0  0  0  0  0  0  0  0  0  0  0  0
  1  2  1  0
  2  3  1  0
  2  4  1  0
  4  5  1  0
  5  6  1  0
  6  7  1  0
  7  8  2  0
  8  9  1  0
  9 10  2  0
 10 11  1  0
 11 12  2  0
 12 13  1  0
 13 14  1  0
 13 15  2  0
 12 16  1  0
 16 17  1  0
 17 18  2  0
 17 19  1  0
 16 20  1  0
 20 21  2  0
 21  7  1  0
 20 10  1  0
  1 22  1  0
  1 23  1  0
  1 24  1  0
  2 25  1  0
  3 26  1  0
  3 27  1  0
  3 28  1  0
  5 29  1  0
  5 30  1  0
  6 31  1  0
  6 32  1  0
  8 33  1  0
  9 34  1  0
 11 35  1  0
 14 36  1  0
 21 37  1  0
M  CHG  3   2   1  14  -1  19  -1
M  END
>  <UniqueID>  (67) 
67

>  <SMILES>  (67) 
C[NH+](C)SCCc1ccc2cc(C([NH-])=O)n(C(=O)[O-])c2c1

>  <Energy>  (67) 
75.78622549728381

>  <Genealogy>  (67) 
C[NH+](C)SCCc1ccc2cc(C([NH-])=O)n(C(=O)[O-])c2c1 (protonated)
C[NH+](C)SCCc1ccc2cc(C([NH-])=O)n(C(=O)[O-])c2c1 (3D coordinates assigned)
C[NH+](C)SCCc1ccc2cc(C([NH-])=O)n(C(=O)[O-])c2c1 (optimized conformer: 75.78622549728381 kcal/mol)

>  <smiles>  (67) 
CN(C)SCCc1ccc2cc(C(N)=O)n(C(=O)O)c2c1

>  <score_type>  (67) 
oracle

>  <origin>  (67) 
adg

>  <m_score__min__energy>  (67) 
-10.48

>  <m_primary>  (67) 
energy

$$$$
67:0
     RDKit          3D

 53 54  0  0  0  0  0  0  0  0999 V2000
   -2.8040   19.8060  -32.8880 C   0  0  0  0  0  0  0  0  0  0  0  0
   -4.1300   19.5110  -33.5210 C   0  0  0  0  0  0  0  0  0  0  0  0
   -4.8820   20.4810  -33.8120 O   0  0  0  0  0  0  0  0  0  0  0  0
   -4.5620   18.1600  -33.8100 N   0  0  0  0  0  0  0  0  0  0  0  0
   -3.7820   17.3760  -34.7740 C   0  0  0  0  0  0  0  0  0  0  0  0
   -5.6750   17.5150  -33.0910 C   0  0  0  0  0  0  0  0  0  0  0  0
   -7.0170   18.2350  -33.3200 C   0  0  0  0  0  0  0  0  0  0  0  0
   -7.7490   18.6240  -32.0220 C   0  0  0  0  0  0  0  0  0  0  0  0
   -7.6890   20.1030  -31.7370 C   0  0  0  0  0  0  0  0  0  0  0  0
   -8.8740   20.8830  -31.7610 C   0  0  0  0  0  0  0  0  0  0  0  0
   -8.8240   22.2690  -31.5450 C   0  0  0  0  0  0  0  0  0  0  0  0
   -7.5830   22.8450  -31.2920 C   0  0  0  0  0  0  0  0  0  0  0  0
   -7.2420   24.1630  -31.0910 C   0  0  0  0  0  0  0  0  0  0  0  0
   -5.8620   24.1630  -30.9010 C   0  0  0  0  0  0  0  0  0  0  0  0
   -5.0830   25.3760  -30.5730 C   0  0  0  0  0  0  0  0  0  0  0  0
   -3.6640   25.2990  -30.4580 N   0  0  0  0  0  0  0  0  0  0  0  0
   -5.6540   26.4890  -30.4280 O   0  0  0  0  0  0  0  0  0  0  0  0
   -5.3690   22.8950  -30.9860 N   0  0  0  0  0  0  0  0  0  0  0  0
   -4.0000   22.4710  -30.9080 C   0  0  0  0  0  0  0  0  0  0  0  0
   -3.1930   22.7950  -31.8210 O   0  0  0  0  0  0  0  0  0  0  0  0
   -3.5850   21.6840  -29.8230 O   0  0  0  0  0  0  0  0  0  0  0  0
   -3.0310   22.1610  -28.5880 C   0  0  0  0  0  0  0  0  0  0  0  0
   -2.7190   20.9280  -27.7260 C   0  0  0  0  0  0  0  0  0  0  0  0
   -1.7210   22.9320  -28.8420 C   0  0  0  0  0  0  0  0  0  0  0  0
   -4.0470   23.0470  -27.8430 C   0  0  0  0  0  0  0  0  0  0  0  0
   -6.4350   22.1000  -31.2210 C   0  0  0  0  0  0  0  0  0  0  0  0
   -6.4540   20.7180  -31.4390 C   0  0  0  0  0  0  0  0  0  0  0  0
   -2.9072   19.7830  -31.7931 H   0  0  0  0  0  0  0  0  0  0  0  0
   -2.0707   19.0490  -33.2031 H   0  0  0  0  0  0  0  0  0  0  0  0
   -2.4608   20.8025  -33.2031 H   0  0  0  0  0  0  0  0  0  0  0  0
   -3.1064   16.6970  -34.2331 H   0  0  0  0  0  0  0  0  0  0  0  0
   -4.4641   16.7881  -35.4058 H   0  0  0  0  0  0  0  0  0  0  0  0
   -3.1907   18.0551  -35.4058 H   0  0  0  0  0  0  0  0  0  0  0  0
   -5.7671   16.4763  -33.4411 H   0  0  0  0  0  0  0  0  0  0  0  0
   -5.4499   17.5591  -32.0152 H   0  0  0  0  0  0  0  0  0  0  0  0
   -6.8236   19.1519  -33.8961 H   0  0  0  0  0  0  0  0  0  0  0  0
   -7.6698   17.5288  -33.8540 H   0  0  0  0  0  0  0  0  0  0  0  0
   -8.8041   18.3260  -32.1109 H   0  0  0  0  0  0  0  0  0  0  0  0
   -7.2468   18.1065  -31.1913 H   0  0  0  0  0  0  0  0  0  0  0  0
   -9.8421   20.3964  -31.9509 H   0  0  0  0  0  0  0  0  0  0  0  0
   -9.7376   22.8809  -31.5748 H   0  0  0  0  0  0  0  0  0  0  0  0
   -7.9162   25.0322  -31.0822 H   0  0  0  0  0  0  0  0  0  0  0  0
   -3.0860   24.8760  -31.2180 H   0  0  0  0  0  0  0  0  0  0  0  0
   -2.7873   21.1978  -26.6618 H   0  0  0  0  0  0  0  0  0  0  0  0
   -3.4439   20.1314  -27.9495 H   0  0  0  0  0  0  0  0  0  0  0  0
   -1.7025   20.5720  -27.9495 H   0  0  0  0  0  0  0  0  0  0  0  0
   -1.2620   23.2021  -27.8795 H   0  0  0  0  0  0  0  0  0  0  0  0
   -1.0274   22.2981  -29.4139 H   0  0  0  0  0  0  0  0  0  0  0  0
   -1.9385   23.8461  -29.4139 H   0  0  0  0  0  0  0  0  0  0  0  0
   -3.9108   22.9282  -26.7579 H   0  0  0  0  0  0  0  0  0  0  0  0
   -3.8876   24.0997  -28.1195 H   0  0  0  0  0  0  0  0  0  0  0  0
   -5.0682   22.7459  -28.1195 H   0  0  0  0  0  0  0  0  0  0  0  0
   -5.5292   20.1254  -31.3796 H   0  0  0  0  0  0  0  0  0  0  0  0
  1  2  1  0
  2  3  2  0
  2  4  1  0
  4  5  1  0
  4  6  1  0
  6  7  1  0
  7  8  1  0
  8  9  1  0
  9 10  2  0
 10 11  1  0
 11 12  2  0
 12 13  1  0
 13 14  2  0
 14 15  1  0
 15 16  1  0
 15 17  2  0
 14 18  1  0
 18 19  1  0
 19 20  2  0
 19 21  1  0
 21 22  1  0
 22 23  1  0
 22 24  1  0
 22 25  1  0
 18 26  1  0
 26 27  2  0
 27  9  1  0
 26 12  1  0
  1 28  1  0
  1 29  1  0
  1 30  1  0
  5 31  1  0
  5 32  1  0
  5 33  1  0
  6 34  1  0
  6 35  1  0
  7 36  1  0
  7 37  1  0
  8 38  1  0
  8 39  1  0
 10 40  1  0
 11 41  1  0
 13 42  1  0
 16 43  1  0
 23 44  1  0
 23 45  1  0
 23 46  1  0
 24 47  1  0
 24 48  1  0
 24 49  1  0
 25 50  1  0
 25 51  1  0
 25 52  1  0
 27 53  1  0
M  CHG  1  16  -1
M  END
>  <UniqueID>  (68) 
68

>  <SMILES>  (68) 
CC(=O)N(C)CCCc1ccc2cc(C([NH-])=O)n(C(=O)OC(C)(C)C)c2c1

>  <Energy>  (68) 
77.98255314484317

>  <Genealogy>  (68) 
CC(=O)N(C)CCCc1ccc2cc(C([NH-])=O)n(C(=O)OC(C)(C)C)c2c1 (protonated)
CC(=O)N(C)CCCc1ccc2cc(C([NH-])=O)n(C(=O)OC(C)(C)C)c2c1 (3D coordinates assigned)
CC(=O)N(C)CCCc1ccc2cc(C([NH-])=O)n(C(=O)OC(C)(C)C)c2c1 (optimized conformer: 77.98255314484317 kcal/mol)

>  <smiles>  (68) 
CC(=O)N(C)CCCc1ccc2cc(C(N)=O)n(C(=O)OC(C)(C)C)c2c1

>  <score_type>  (68) 
oracle

>  <origin>  (68) 
adg

>  <m_score__min__energy>  (68) 
-10.82

>  <m_primary>  (68) 
energy

$$$$
68:0
     RDKit          3D

 40 42  0  0  0  0  0  0  0  0999 V2000
   -4.4990   16.0120  -32.7660 C   0  0  0  0  0  0  0  0  0  0  0  0
   -4.1010   17.3730  -32.8770 O   0  0  0  0  0  0  0  0  0  0  0  0
   -4.6260   18.2290  -33.8490 C   0  0  0  0  0  0  0  0  0  0  0  0
   -3.8640   18.9240  -34.5750 O   0  0  0  0  0  0  0  0  0  0  0  0
   -6.1080   18.2800  -34.0610 C   0  0  0  0  0  0  0  0  0  0  0  0
   -6.8590   18.4420  -32.7340 C   0  0  0  0  0  0  0  0  0  0  0  0
   -7.0080   19.8910  -32.3430 C   0  0  0  0  0  0  0  0  0  0  0  0
   -8.2940   20.4880  -32.3200 C   0  0  0  0  0  0  0  0  0  0  0  0
   -8.4540   21.8340  -31.9510 C   0  0  0  0  0  0  0  0  0  0  0  0
   -7.3130   22.5570  -31.6150 C   0  0  0  0  0  0  0  0  0  0  0  0
   -7.1810   23.8580  -31.1780 C   0  0  0  0  0  0  0  0  0  0  0  0
   -5.8170   24.0340  -30.9500 C   0  0  0  0  0  0  0  0  0  0  0  0
   -5.2180   25.2990  -30.4740 C   0  0  0  0  0  0  0  0  0  0  0  0
   -3.8900   25.6650  -30.8390 N   0  0  0  0  0  0  0  0  0  0  0  0
   -5.8930   26.0760  -29.7470 O   0  0  0  0  0  0  0  0  0  0  0  0
   -5.1370   22.8930  -31.2430 N   0  0  0  0  0  0  0  0  0  0  0  0
   -3.7400   22.6360  -31.0650 C   0  0  0  0  0  0  0  0  0  0  0  0
   -3.1440   23.0940  -30.0540 O   0  0  0  0  0  0  0  0  0  0  0  0
   -3.0020   21.8490  -32.0620 C   0  0  0  0  0  0  0  0  0  0  0  0
   -1.8140   21.1710  -31.8600 C   0  0  0  0  0  0  0  0  0  0  0  0
   -1.5340   20.6160  -33.0930 C   0  0  0  0  0  0  0  0  0  0  0  0
   -2.5100   20.9660  -33.9490 N   0  0  0  0  0  0  0  0  0  0  0  0
   -3.3740   21.6970  -33.3110 O   0  0  0  0  0  0  0  0  0  0  0  0
   -6.0630   21.9980  -31.6460 C   0  0  0  0  0  0  0  0  0  0  0  0
   -5.8700   20.6620  -32.0090 C   0  0  0  0  0  0  0  0  0  0  0  0
   -4.5789   15.7388  -31.7035 H   0  0  0  0  0  0  0  0  0  0  0  0
   -5.4750   15.8744  -33.2543 H   0  0  0  0  0  0  0  0  0  0  0  0
   -3.7509   15.3702  -33.2543 H   0  0  0  0  0  0  0  0  0  0  0  0
   -6.3468   19.1327  -34.7135 H   0  0  0  0  0  0  0  0  0  0  0  0
   -6.4238   17.3333  -34.5236 H   0  0  0  0  0  0  0  0  0  0  0  0
   -7.8597   17.9967  -32.8355 H   0  0  0  0  0  0  0  0  0  0  0  0
   -6.2765   17.9364  -31.9497 H   0  0  0  0  0  0  0  0  0  0  0  0
   -9.1760   19.8906  -32.5941 H   0  0  0  0  0  0  0  0  0  0  0  0
   -9.4493   22.3017  -31.9283 H   0  0  0  0  0  0  0  0  0  0  0  0
   -7.9816   24.5994  -31.0389 H   0  0  0  0  0  0  0  0  0  0  0  0
   -3.0650   25.2550  -30.3450 H   0  0  0  0  0  0  0  0  0  0  0  0
   -1.2280   21.0921  -30.9324 H   0  0  0  0  0  0  0  0  0  0  0  0
   -0.6602   19.9929  -33.3342 H   0  0  0  0  0  0  0  0  0  0  0  0
   -2.5760   20.7030  -34.9580 H   0  0  0  0  0  0  0  0  0  0  0  0
   -4.8619   20.2227  -32.0342 H   0  0  0  0  0  0  0  0  0  0  0  0
  1  2  1  0
  2  3  1  0
  3  4  2  0
  3  5  1  0
  5  6  1  0
  6  7  1  0
  7  8  2  0
  8  9  1  0
  9 10  2  0
 10 11  1  0
 11 12  2  0
 12 13  1  0
 13 14  1  0
 13 15  2  0
 12 16  1  0
 16 17  1  0
 17 18  2  0
 17 19  1  0
 19 20  2  0
 20 21  1  0
 21 22  2  0
 22 23  1  0
 16 24  1  0
 24 25  2  0
 25  7  1  0
 24 10  1  0
 23 19  1  0
  1 26  1  0
  1 27  1  0
  1 28  1  0
  5 29  1  0
  5 30  1  0
  6 31  1  0
  6 32  1  0
  8 33  1  0
  9 34  1  0
 11 35  1  0
 14 36  1  0
 20 37  1  0
 21 38  1  0
 22 39  1  0
 25 40  1  0
M  CHG  2  14  -1  22   1
M  END
>  <UniqueID>  (69) 
69

>  <SMILES>  (69) 
COC(=O)CCc1ccc2cc(C([NH-])=O)n(C(=O)c3cc[nH+]o3)c2c1

>  <Energy>  (69) 
105.07409043457518

>  <Genealogy>  (69) 
COC(=O)CCc1ccc2cc(C([NH-])=O)n(C(=O)c3cc[nH+]o3)c2c1 (protonated)
COC(=O)CCc1ccc2cc(C([NH-])=O)n(C(=O)c3cc[nH+]o3)c2c1 (3D coordinates assigned)
COC(=O)CCc1ccc2cc(C([NH-])=O)n(C(=O)c3cc[nH+]o3)c2c1 (optimized conformer: 105.07409043457518 kcal/mol)

>  <smiles>  (69) 
COC(=O)CCc1ccc2cc(C(N)=O)n(C(=O)c3ccno3)c2c1

>  <score_type>  (69) 
oracle

>  <origin>  (69) 
adg

>  <m_score__min__energy>  (69) 
-10.279999999999999

>  <m_primary>  (69) 
energy

$$$$
69:0
     RDKit          3D

 39 40  0  0  0  0  0  0  0  0999 V2000
   -7.1740   23.3750  -32.2170 C   0  0  0  0  0  0  0  0  0  0  0  0
   -7.6150   22.7670  -30.8910 C   0  0  0  0  0  0  0  0  0  0  0  0
   -7.7400   21.3510  -31.0010 O   0  0  0  0  0  0  0  0  0  0  0  0
   -8.7370   20.7150  -31.7540 C   0  0  0  0  0  0  0  0  0  0  0  0
   -9.7020   21.3720  -32.2290 O   0  0  0  0  0  0  0  0  0  0  0  0
   -8.6850   19.2310  -31.9560 C   0  0  0  0  0  0  0  0  0  0  0  0
   -7.4740   18.8570  -32.6780 N   0  0  0  0  0  0  0  0  0  0  0  0
   -6.1750   19.3500  -32.3350 C   0  0  0  0  0  0  0  0  0  0  0  0
   -5.6860   19.1220  -31.1950 O   0  0  0  0  0  0  0  0  0  0  0  0
   -5.3580   20.0510  -33.3720 C   0  0  0  0  0  0  0  0  0  0  0  0
   -4.1400   20.6410  -32.7190 C   0  0  0  0  0  0  0  0  0  0  0  0
   -2.9110   19.9350  -32.7400 C   0  0  0  0  0  0  0  0  0  0  0  0
   -1.7890   20.4300  -32.0550 C   0  0  0  0  0  0  0  0  0  0  0  0
   -1.9310   21.6190  -31.3470 C   0  0  0  0  0  0  0  0  0  0  0  0
   -1.0140   22.3130  -30.5910 C   0  0  0  0  0  0  0  0  0  0  0  0
   -1.7040   23.4160  -30.0940 C   0  0  0  0  0  0  0  0  0  0  0  0
   -1.1100   24.3820  -29.1440 C   0  0  0  0  0  0  0  0  0  0  0  0
   -1.7130   25.6520  -28.9180 N   0  0  0  0  0  0  0  0  0  0  0  0
   -0.0850   24.0600  -28.4870 O   0  0  0  0  0  0  0  0  0  0  0  0
   -2.9950   23.4120  -30.5330 N   0  0  0  0  0  0  0  0  0  0  0  0
   -4.0060   24.4070  -30.3090 C   0  0  0  0  0  0  0  0  0  0  0  0
   -5.0080   24.1450  -29.5930 O   0  0  0  0  0  0  0  0  0  0  0  0
   -3.8760   25.6760  -30.8580 O   0  0  0  0  0  0  0  0  0  0  0  0
   -3.1180   22.3040  -31.2980 C   0  0  0  0  0  0  0  0  0  0  0  0
   -4.2450   21.8460  -31.9900 C   0  0  0  0  0  0  0  0  0  0  0  0
   -6.5381   24.2517  -32.0249 H   0  0  0  0  0  0  0  0  0  0  0  0
   -6.6058   22.6287  -32.7916 H   0  0  0  0  0  0  0  0  0  0  0  0
   -8.0598   23.6834  -32.7916 H   0  0  0  0  0  0  0  0  0  0  0  0
   -6.8681   23.0044  -30.1191 H   0  0  0  0  0  0  0  0  0  0  0  0
   -8.5941   23.1876  -30.6180 H   0  0  0  0  0  0  0  0  0  0  0  0
   -8.6912   18.7316  -30.9759 H   0  0  0  0  0  0  0  0  0  0  0  0
   -9.5609   18.9207  -32.5446 H   0  0  0  0  0  0  0  0  0  0  0  0
   -5.0500   19.3329  -34.1463 H   0  0  0  0  0  0  0  0  0  0  0  0
   -5.9541   20.8500  -33.8371 H   0  0  0  0  0  0  0  0  0  0  0  0
   -2.8352   18.9902  -33.2982 H   0  0  0  0  0  0  0  0  0  0  0  0
   -0.8285   19.8944  -32.0777 H   0  0  0  0  0  0  0  0  0  0  0  0
    0.0402   22.0519  -30.4163 H   0  0  0  0  0  0  0  0  0  0  0  0
   -2.7420   25.7880  -29.0380 H   0  0  0  0  0  0  0  0  0  0  0  0
   -5.1889   22.4104  -31.9667 H   0  0  0  0  0  0  0  0  0  0  0  0
  1  2  1  0
  2  3  1  0
  3  4  1  0
  4  5  2  0
  4  6  1  0
  6  7  1  0
  7  8  1  0
  8  9  2  0
  8 10  1  0
 10 11  1  0
 11 12  2  0
 12 13  1  0
 13 14  2  0
 14 15  1  0
 15 16  2  0
 16 17  1  0
 17 18  1  0
 17 19  2  0
 16 20  1  0
 20 21  1  0
 21 22  2  0
 21 23  1  0
 20 24  1  0
 24 25  2  0
 25 11  1  0
 24 14  1  0
  1 26  1  0
  1 27  1  0
  1 28  1  0
  2 29  1  0
  2 30  1  0
  6 31  1  0
  6 32  1  0
 10 33  1  0
 10 34  1  0
 12 35  1  0
 13 36  1  0
 15 37  1  0
 18 38  1  0
 25 39  1  0
M  CHG  3   7  -1  18  -1  23  -1
M  END
>  <UniqueID>  (70) 
70

>  <SMILES>  (70) 
CCOC(=O)C[N-]C(=O)Cc1ccc2cc(C([NH-])=O)n(C(=O)[O-])c2c1

>  <Energy>  (70) 
66.84229002024196

>  <Genealogy>  (70) 
CCOC(=O)C[N-]C(=O)Cc1ccc2cc(C([NH-])=O)n(C(=O)[O-])c2c1 (protonated)
CCOC(=O)C[N-]C(=O)Cc1ccc2cc(C([NH-])=O)n(C(=O)[O-])c2c1 (3D coordinates assigned)
CCOC(=O)C[N-]C(=O)Cc1ccc2cc(C([NH-])=O)n(C(=O)[O-])c2c1 (optimized conformer: 66.84229002024196 kcal/mol)

>  <smiles>  (70) 
CCOC(=O)CNC(=O)Cc1ccc2cc(C(N)=O)n(C(=O)O)c2c1

>  <score_type>  (70) 
oracle

>  <origin>  (70) 
adg

>  <m_score__min__energy>  (70) 
-10.76

>  <m_primary>  (70) 
energy

$$$$
70:0
     RDKit          3D

 30 31  0  0  0  0  0  0  0  0999 V2000
   -3.5730   23.0860  -28.1330 C   0  0  0  0  0  0  0  0  0  0  0  0
   -4.3950   23.8620  -29.1690 C   0  0  1  0  0  0  0  0  0  0  0  0
   -3.5780   24.9280  -29.8480 C   0  0  0  0  0  0  0  0  0  0  0  0
   -4.0130   25.5270  -30.8680 O   0  0  0  0  0  0  0  0  0  0  0  0
   -2.3480   25.2940  -29.3150 O   0  0  0  0  0  0  0  0  0  0  0  0
   -5.0120   22.9310  -30.1940 C   0  0  0  0  0  0  0  0  0  0  0  0
   -6.4160   22.9380  -30.3970 C   0  0  0  0  0  0  0  0  0  0  0  0
   -7.0100   22.0950  -31.3510 C   0  0  0  0  0  0  0  0  0  0  0  0
   -6.1810   21.2480  -32.0780 C   0  0  0  0  0  0  0  0  0  0  0  0
   -6.4900   20.3610  -33.0830 C   0  0  0  0  0  0  0  0  0  0  0  0
   -5.2750   19.7970  -33.4620 C   0  0  0  0  0  0  0  0  0  0  0  0
   -5.1560   18.7380  -34.4840 C   0  0  0  0  0  0  0  0  0  0  0  0
   -4.0330   17.8570  -34.5090 N   0  0  0  0  0  0  0  0  0  0  0  0
   -6.0890   18.5730  -35.3160 O   0  0  0  0  0  0  0  0  0  0  0  0
   -4.2510   20.3210  -32.7300 N   0  0  0  0  0  0  0  0  0  0  0  0
   -2.8440   20.0820  -32.9020 C   0  0  0  0  0  0  0  0  0  0  0  0
   -2.0880   21.0010  -33.3160 O   0  0  0  0  0  0  0  0  0  0  0  0
   -2.3010   18.8360  -32.6120 O   0  0  0  0  0  0  0  0  0  0  0  0
   -4.8240   21.2080  -31.8850 C   0  0  0  0  0  0  0  0  0  0  0  0
   -4.2040   22.0540  -30.9580 C   0  0  0  0  0  0  0  0  0  0  0  0
   -3.8860   23.3815  -27.1207 H   0  0  0  0  0  0  0  0  0  0  0  0
   -3.7382   22.0068  -28.2675 H   0  0  0  0  0  0  0  0  0  0  0  0
   -2.5051   23.3130  -28.2675 H   0  0  0  0  0  0  0  0  0  0  0  0
   -5.2087   24.3608  -28.6221 H   0  0  0  0  0  0  0  0  0  0  0  0
   -7.0476   23.6121  -29.7998 H   0  0  0  0  0  0  0  0  0  0  0  0
   -8.0973   22.1047  -31.5177 H   0  0  0  0  0  0  0  0  0  0  0  0
   -7.4850   20.1437  -33.4986 H   0  0  0  0  0  0  0  0  0  0  0  0
   -3.9470   17.1400  -35.2630 H   0  0  0  0  0  0  0  0  0  0  0  0
   -3.3310   17.8560  -33.7350 H   0  0  0  0  0  0  0  0  0  0  0  0
   -3.1121   22.0380  -30.8257 H   0  0  0  0  0  0  0  0  0  0  0  0
  1  2  1  0
  2  3  1  0
  3  4  2  0
  3  5  1  0
  2  6  1  0
  6  7  2  0
  7  8  1  0
  8  9  2  0
  9 10  1  0
 10 11  2  0
 11 12  1  0
 12 13  1  0
 12 14  2  0
 11 15  1  0
 15 16  1  0
 16 17  2  0
 16 18  1  0
 15 19  1  0
 19 20  2  0
 20  6  1  0
 19  9  1  0
  1 21  1  0
  1 22  1  0
  1 23  1  0
  2 24  1  1
  7 25  1  0
  8 26  1  0
 10 27  1  0
 13 28  1  0
 13 29  1  0
 20 30  1  0
M  CHG  2   5  -1  18  -1
M  END
>  <UniqueID>  (71) 
71

>  <SMILES>  (71) 
C[C@@H](C(=O)[O-])c1ccc2cc(C(N)=O)n(C(=O)[O-])c2c1

>  <Energy>  (71) 
69.20110891011069

>  <Genealogy>  (71) 
CC(C(=O)[O-])c1ccc2cc(C(N)=O)n(C(=O)[O-])c2c1 (protonated)
C[C@@H](C(=O)[O-])c1ccc2cc(C(N)=O)n(C(=O)[O-])c2c1 (chirality)
C[C@@H](C(=O)[O-])c1ccc2cc(C(N)=O)n(C(=O)[O-])c2c1 (3D coordinates assigned)
C[C@@H](C(=O)[O-])c1ccc2cc(C(N)=O)n(C(=O)[O-])c2c1 (optimized conformer: 69.20110891011069 kcal/mol)

>  <smiles>  (71) 
CC(C(=O)O)c1ccc2cc(C(N)=O)n(C(=O)O)c2c1

>  <score_type>  (71) 
oracle

>  <origin>  (71) 
adg

>  <m_score__min__energy>  (71) 
-9.2100000000000009

>  <m_primary>  (71) 
energy

$$$$
71:0
     RDKit          3D

 42 43  0  0  0  0  0  0  0  0999 V2000
   -7.3820   17.7970  -33.0720 C   0  0  0  0  0  0  0  0  0  0  0  0
   -7.4280   19.1480  -32.4210 C   0  0  0  0  0  0  0  0  0  0  0  0
   -8.6340   19.6150  -31.8440 C   0  0  0  0  0  0  0  0  0  0  0  0
   -8.6780   20.8570  -31.1890 C   0  0  0  0  0  0  0  0  0  0  0  0
   -7.5050   21.6020  -31.1240 C   0  0  0  0  0  0  0  0  0  0  0  0
   -7.2660   22.8180  -30.5280 C   0  0  0  0  0  0  0  0  0  0  0  0
   -5.9210   23.0850  -30.7630 C   0  0  0  0  0  0  0  0  0  0  0  0
   -5.2610   24.3400  -30.3530 C   0  0  0  0  0  0  0  0  0  0  0  0
   -5.2560   24.7630  -28.9890 N   0  0  0  0  0  0  0  0  0  0  0  0
   -4.6400   25.0210  -31.2120 O   0  0  0  0  0  0  0  0  0  0  0  0
   -5.3400   22.0660  -31.4610 N   0  0  0  0  0  0  0  0  0  0  0  0
   -3.9560   21.9340  -31.8270 C   0  0  0  0  0  0  0  0  0  0  0  0
   -3.5850   22.2020  -33.0010 O   0  0  0  0  0  0  0  0  0  0  0  0
   -3.0230   21.5020  -30.8780 O   0  0  0  0  0  0  0  0  0  0  0  0
   -2.0000   22.3360  -30.3420 C   0  0  0  0  0  0  0  0  0  0  0  0
   -2.2640   22.6400  -28.8650 C   0  0  0  0  0  0  0  0  0  0  0  0
   -1.7440   24.2930  -28.4110 S   0  0  0  0  0  0  0  0  0  0  0  0
   -0.3750   24.5300  -28.9840 O   0  0  0  0  0  0  0  0  0  0  0  0
   -2.6980   25.2970  -28.9940 O   0  0  0  0  0  0  0  0  0  0  0  0
   -1.6910   24.4900  -26.6300 C   0  0  0  0  0  0  0  0  0  0  0  0
   -2.8920   25.2790  -26.1110 C   0  0  0  0  0  0  0  0  0  0  0  0
   -4.0500   24.9080  -26.8060 O   0  0  0  0  0  0  0  0  0  0  0  0
   -6.3280   21.1670  -31.6800 C   0  0  0  0  0  0  0  0  0  0  0  0
   -6.2530   19.9230  -32.3200 C   0  0  0  0  0  0  0  0  0  0  0  0
   -7.3554   17.0171  -32.2967 H   0  0  0  0  0  0  0  0  0  0  0  0
   -8.2760   17.6611  -33.6983 H   0  0  0  0  0  0  0  0  0  0  0  0
   -6.4808   17.7223  -33.6983 H   0  0  0  0  0  0  0  0  0  0  0  0
   -9.5438   19.0002  -31.9092 H   0  0  0  0  0  0  0  0  0  0  0  0
   -9.6114   21.2290  -30.7413 H   0  0  0  0  0  0  0  0  0  0  0  0
   -7.9852   23.4460  -29.9817 H   0  0  0  0  0  0  0  0  0  0  0  0
   -4.8130   25.6710  -28.7240 H   0  0  0  0  0  0  0  0  0  0  0  0
   -5.6160   24.1430  -28.2310 H   0  0  0  0  0  0  0  0  0  0  0  0
   -1.0309   21.8243  -30.4372 H   0  0  0  0  0  0  0  0  0  0  0  0
   -1.9893   23.2837  -30.9004 H   0  0  0  0  0  0  0  0  0  0  0  0
   -3.3422   22.5418  -28.6703 H   0  0  0  0  0  0  0  0  0  0  0  0
   -1.6820   21.9258  -28.2639 H   0  0  0  0  0  0  0  0  0  0  0  0
   -1.6893   23.4948  -26.1615 H   0  0  0  0  0  0  0  0  0  0  0  0
   -0.7784   25.0485  -26.3745 H   0  0  0  0  0  0  0  0  0  0  0  0
   -3.0285   25.0705  -25.0396 H   0  0  0  0  0  0  0  0  0  0  0  0
   -2.7097   26.3530  -26.2637 H   0  0  0  0  0  0  0  0  0  0  0  0
   -4.2150   25.6280  -27.4680 H   0  0  0  0  0  0  0  0  0  0  0  0
   -5.3010   19.5591  -32.7339 H   0  0  0  0  0  0  0  0  0  0  0  0
  1  2  1  0
  2  3  2  0
  3  4  1  0
  4  5  2  0
  5  6  1  0
  6  7  2  0
  7  8  1  0
  8  9  1  0
  8 10  2  0
  7 11  1  0
 11 12  1  0
 12 13  2  0
 12 14  1  0
 14 15  1  0
 15 16  1  0
 16 17  1  0
 17 18  2  0
 17 19  2  0
 17 20  1  0
 20 21  1  0
 21 22  1  0
 11 23  1  0
 23 24  2  0
 24  2  1  0
 23  5  1  0
  1 25  1  0
  1 26  1  0
  1 27  1  0
  3 28  1  0
  4 29  1  0
  6 30  1  0
  9 31  1  0
  9 32  1  0
 15 33  1  0
 15 34  1  0
 16 35  1  0
 16 36  1  0
 20 37  1  0
 20 38  1  0
 21 39  1  0
 21 40  1  0
 22 41  1  0
 24 42  1  0
M  END
>  <UniqueID>  (72) 
72

>  <SMILES>  (72) 
Cc1ccc2cc(C(N)=O)n(C(=O)OCCS(=O)(=O)CCO)c2c1

>  <Energy>  (72) 
66.71780804198198

>  <Genealogy>  (72) 
Cc1ccc2cc(C(N)=O)n(C(=O)OCCS(=O)(=O)CCO)c2c1 (3D coordinates assigned)
Cc1ccc2cc(C(N)=O)n(C(=O)OCCS(=O)(=O)CCO)c2c1 (optimized conformer: 66.71780804198198 kcal/mol)

>  <smiles>  (72) 
Cc1ccc2cc(C(N)=O)n(C(=O)OCCS(=O)(=O)CCO)c2c1

>  <score_type>  (72) 
oracle

>  <origin>  (72) 
adg

>  <m_score__min__energy>  (72) 
-9.0899999999999999

>  <m_primary>  (72) 
energy

$$$$
72:0
     RDKit          3D

 49 52  0  0  0  0  0  0  0  0999 V2000
    0.8430   28.3570  -25.5290 N   0  0  0  0  0  0  0  0  0  0  0  0
    0.2960   27.1900  -24.9220 C   0  0  0  0  0  0  0  0  0  0  0  0
    0.6130   26.9060  -23.7370 O   0  0  0  0  0  0  0  0  0  0  0  0
   -0.6770   26.3430  -25.6420 C   0  0  0  0  0  0  0  0  0  0  0  0
   -2.0110   26.2160  -25.2580 C   0  0  0  0  0  0  0  0  0  0  0  0
   -2.5940   25.4260  -26.2210 C   0  0  0  0  0  0  0  0  0  0  0  0
   -3.9050   24.9760  -26.3350 C   0  0  0  0  0  0  0  0  0  0  0  0
   -4.2260   24.1460  -27.4200 C   0  0  0  0  0  0  0  0  0  0  0  0
   -3.2350   23.7670  -28.3660 C   0  0  0  0  0  0  0  0  0  0  0  0
   -3.5640   22.8860  -29.5160 C   0  0  0  0  0  0  0  0  0  0  0  0
   -4.8110   22.9490  -30.1620 C   0  0  0  0  0  0  0  0  0  0  0  0
   -5.0760   22.0970  -31.2340 C   0  0  0  0  0  0  0  0  0  0  0  0
   -4.1110   21.1710  -31.6590 C   0  0  0  0  0  0  0  0  0  0  0  0
   -4.3710   20.2640  -32.8020 C   0  0  0  0  0  0  0  0  0  0  0  0
   -3.4900   20.1260  -33.6950 O   0  0  0  0  0  0  0  0  0  0  0  0
   -5.6130   19.5480  -32.9210 N   0  0  0  0  0  0  0  0  0  0  0  0
   -6.2070   19.3090  -34.2400 C   0  0  0  0  0  0  0  0  0  0  0  0
   -6.0580   17.8310  -34.6120 C   0  0  0  0  0  0  0  0  0  0  0  0
   -6.6310   16.9330  -33.4980 C   0  0  0  0  0  0  0  0  0  0  0  0
   -6.4370   15.4820  -33.8440 C   0  0  0  0  0  0  0  0  0  0  0  0
   -7.3100   14.8710  -34.5160 O   0  0  0  0  0  0  0  0  0  0  0  0
   -5.2980   14.8060  -33.4280 O   0  0  0  0  0  0  0  0  0  0  0  0
   -5.9750   17.2510  -32.1400 C   0  0  0  0  0  0  0  0  0  0  0  0
   -6.1180   18.7400  -31.8030 C   0  0  0  0  0  0  0  0  0  0  0  0
   -2.8790   21.1400  -30.9890 C   0  0  0  0  0  0  0  0  0  0  0  0
   -2.6430   21.9810  -29.9470 N   0  0  0  0  0  0  0  0  0  0  0  0
   -1.9150   24.2560  -28.2180 C   0  0  0  0  0  0  0  0  0  0  0  0
   -1.6290   25.0970  -27.1360 C   0  0  0  0  0  0  0  0  0  0  0  0
   -0.4430   25.6490  -26.7930 N   0  0  0  0  0  0  0  0  0  0  0  0
    0.8100   25.4580  -27.4680 C   0  0  0  0  0  0  0  0  0  0  0  0
    0.9850   24.4580  -28.2150 O   0  0  0  0  0  0  0  0  0  0  0  0
    1.8340   26.3860  -27.3240 O   0  0  0  0  0  0  0  0  0  0  0  0
    1.3030   28.3110  -26.4650 H   0  0  0  0  0  0  0  0  0  0  0  0
   -2.4947   26.6545  -24.3727 H   0  0  0  0  0  0  0  0  0  0  0  0
   -4.6680   25.2623  -25.5962 H   0  0  0  0  0  0  0  0  0  0  0  0
   -5.2578   23.7840  -27.5400 H   0  0  0  0  0  0  0  0  0  0  0  0
   -5.5734   23.6662  -29.8239 H   0  0  0  0  0  0  0  0  0  0  0  0
   -6.0465   22.1512  -31.7490 H   0  0  0  0  0  0  0  0  0  0  0  0
   -7.2743   19.5739  -34.2140 H   0  0  0  0  0  0  0  0  0  0  0  0
   -5.6916   19.9275  -34.9896 H   0  0  0  0  0  0  0  0  0  0  0  0
   -6.6013   17.6370  -35.5486 H   0  0  0  0  0  0  0  0  0  0  0  0
   -4.9895   17.6022  -34.7387 H   0  0  0  0  0  0  0  0  0  0  0  0
   -7.7086   17.1374  -33.4146 H   0  0  0  0  0  0  0  0  0  0  0  0
   -6.4632   16.6548  -31.3550 H   0  0  0  0  0  0  0  0  0  0  0  0
   -4.9048   17.0033  -32.1982 H   0  0  0  0  0  0  0  0  0  0  0  0
   -7.1783   18.9762  -31.6300 H   0  0  0  0  0  0  0  0  0  0  0  0
   -5.5380   18.9671  -30.8964 H   0  0  0  0  0  0  0  0  0  0  0  0
   -2.1001   20.4319  -31.3081 H   0  0  0  0  0  0  0  0  0  0  0  0
   -1.1303   23.9810  -28.9381 H   0  0  0  0  0  0  0  0  0  0  0  0
  1  2  1  0
  2  3  2  0
  2  4  1  0
  4  5  2  0
  5  6  1  0
  6  7  2  0
  7  8  1  0
  8  9  2  0
  9 10  1  0
 10 11  2  0
 11 12  1  0
 12 13  2  0
 13 14  1  0
 14 15  2  0
 14 16  1  0
 16 17  1  0
 17 18  1  0
 18 19  1  0
 19 20  1  0
 20 21  2  0
 20 22  1  0
 19 23  1  0
 23 24  1  0
 13 25  1  0
 25 26  2  0
  9 27  1  0
 27 28  2  0
 28 29  1  0
 29 30  1  0
 30 31  2  0
 30 32  1  0
 29  4  1  0
 28  6  1  0
 26 10  1  0
 24 16  1  0
  1 33  1  0
  5 34  1  0
  7 35  1  0
  8 36  1  0
 11 37  1  0
 12 38  1  0
 17 39  1  0
 17 40  1  0
 18 41  1  0
 18 42  1  0
 19 43  1  0
 23 44  1  0
 23 45  1  0
 24 46  1  0
 24 47  1  0
 25 48  1  0
 27 49  1  0
M  CHG  3   1  -1  22  -1  32  -1
M  END
>  <UniqueID>  (73) 
73

>  <SMILES>  (73) 
[NH-]C(=O)c1cc2ccc(-c3ccc(C(=O)N4CCC(C(=O)[O-])CC4)cn3)cc2n1C(=O)[O-]

>  <Energy>  (73) 
98.20934135407848

>  <Genealogy>  (73) 
[NH-]C(=O)c1cc2ccc(-c3ccc(C(=O)N4CCC(C(=O)[O-])CC4)cn3)cc2n1C(=O)[O-] (protonated)
[NH-]C(=O)c1cc2ccc(-c3ccc(C(=O)N4CCC(C(=O)[O-])CC4)cn3)cc2n1C(=O)[O-] (3D coordinates assigned)
[NH-]C(=O)c1cc2ccc(-c3ccc(C(=O)N4CCC(C(=O)[O-])CC4)cn3)cc2n1C(=O)[O-] (nonaromatic ring conformer: 98.20934135407848 kcal/mol)

>  <smiles>  (73) 
NC(=O)c1cc2ccc(-c3ccc(C(=O)N4CCC(C(=O)O)CC4)cn3)cc2n1C(=O)O

>  <score_type>  (73) 
oracle

>  <origin>  (73) 
adg

>  <m_score__min__energy>  (73) 
-10.710000000000001

>  <m_primary>  (73) 
energy

$$$$
73:0
     RDKit          3D

 46 47  0  0  0  0  0  0  0  0999 V2000
   -2.4960   22.8410  -27.1810 C   0  0  0  0  0  0  0  0  0  0  0  0
   -2.8880   24.2340  -27.6960 C   0  0  0  0  0  0  0  0  0  0  0  0
   -2.3700   25.2970  -26.7040 C   0  0  0  0  0  0  0  0  0  0  0  0
   -4.4200   24.2970  -27.8200 C   0  0  0  0  0  0  0  0  0  0  0  0
   -2.2740   24.4040  -28.9810 O   0  0  0  0  0  0  0  0  0  0  0  0
   -1.2390   23.6190  -29.5170 C   0  0  0  0  0  0  0  0  0  0  0  0
   -0.0320   23.9370  -29.3570 O   0  0  0  0  0  0  0  0  0  0  0  0
   -1.5840   22.4070  -30.3200 C   0  0  0  0  0  0  0  0  0  0  0  0
   -2.9950   22.2030  -30.3640 O   0  0  0  0  0  0  0  0  0  0  0  0
   -3.7740   22.3190  -31.5250 C   0  0  0  0  0  0  0  0  0  0  0  0
   -3.2150   22.2880  -32.6620 O   0  0  0  0  0  0  0  0  0  0  0  0
   -5.2060   22.4740  -31.4200 N   0  0  0  0  0  0  0  0  0  0  0  0
   -5.8850   23.6300  -31.1820 C   0  0  0  0  0  0  0  0  0  0  0  0
   -5.2890   24.9340  -30.8480 C   0  0  0  0  0  0  0  0  0  0  0  0
   -3.8800   25.1210  -30.8380 N   0  0  0  0  0  0  0  0  0  0  0  0
   -6.0410   25.8790  -30.4870 O   0  0  0  0  0  0  0  0  0  0  0  0
   -7.2590   23.4250  -31.2590 C   0  0  0  0  0  0  0  0  0  0  0  0
   -7.4140   22.0920  -31.5310 C   0  0  0  0  0  0  0  0  0  0  0  0
   -8.5770   21.3530  -31.7080 C   0  0  0  0  0  0  0  0  0  0  0  0
   -8.4540   19.9850  -31.9870 C   0  0  0  0  0  0  0  0  0  0  0  0
   -7.1760   19.3790  -32.0850 C   0  0  0  0  0  0  0  0  0  0  0  0
   -7.0640   17.8950  -32.3760 C   0  0  0  0  0  0  0  0  0  0  0  0
   -6.2810   17.2670  -31.4190 F   0  0  0  0  0  0  0  0  0  0  0  0
   -8.3200   17.3120  -32.3400 F   0  0  0  0  0  0  0  0  0  0  0  0
   -6.4600   17.6640  -33.7310 C   0  0  0  0  0  0  0  0  0  0  0  0
   -6.1200   18.6060  -34.4320 O   0  0  0  0  0  0  0  0  0  0  0  0
   -6.0140   20.1750  -31.9380 C   0  0  0  0  0  0  0  0  0  0  0  0
   -6.1610   21.5330  -31.6260 C   0  0  0  0  0  0  0  0  0  0  0  0
   -2.4966   22.8432  -26.0810 H   0  0  0  0  0  0  0  0  0  0  0  0
   -3.2199   22.0978  -27.5466 H   0  0  0  0  0  0  0  0  0  0  0  0
   -1.4908   22.5844  -27.5466 H   0  0  0  0  0  0  0  0  0  0  0  0
   -2.5389   24.9503  -25.6738 H   0  0  0  0  0  0  0  0  0  0  0  0
   -1.2936   25.4557  -26.8656 H   0  0  0  0  0  0  0  0  0  0  0  0
   -2.9083   26.2426  -26.8656 H   0  0  0  0  0  0  0  0  0  0  0  0
   -4.8687   24.3155  -26.8158 H   0  0  0  0  0  0  0  0  0  0  0  0
   -4.7065   25.2077  -28.3664 H   0  0  0  0  0  0  0  0  0  0  0  0
   -4.7803   23.4129  -28.3664 H   0  0  0  0  0  0  0  0  0  0  0  0
   -1.2079   22.5368  -31.3455 H   0  0  0  0  0  0  0  0  0  0  0  0
   -1.1195   21.5302  -29.8451 H   0  0  0  0  0  0  0  0  0  0  0  0
   -3.4870   26.0810  -30.7290 H   0  0  0  0  0  0  0  0  0  0  0  0
   -3.2210   24.3150  -30.9590 H   0  0  0  0  0  0  0  0  0  0  0  0
   -8.0529   24.1752  -31.1289 H   0  0  0  0  0  0  0  0  0  0  0  0
   -9.5662   21.8280  -31.6314 H   0  0  0  0  0  0  0  0  0  0  0  0
   -9.3581   19.3754  -32.1314 H   0  0  0  0  0  0  0  0  0  0  0  0
   -6.3219   16.6359  -34.0969 H   0  0  0  0  0  0  0  0  0  0  0  0
   -5.0140   19.7351  -32.0665 H   0  0  0  0  0  0  0  0  0  0  0  0
  1  2  1  0
  2  3  1  0
  2  4  1  0
  2  5  1  0
  5  6  1  0
  6  7  2  0
  6  8  1  0
  8  9  1  0
  9 10  1  0
 10 11  2  0
 10 12  1  0
 12 13  1  0
 13 14  1  0
 14 15  1  0
 14 16  2  0
 13 17  2  0
 17 18  1  0
 18 19  2  0
 19 20  1  0
 20 21  2  0
 21 22  1  0
 22 23  1  0
 22 24  1  0
 22 25  1  0
 25 26  2  0
 21 27  1  0
 27 28  2  0
 28 12  1  0
 28 18  1  0
  1 29  1  0
  1 30  1  0
  1 31  1  0
  3 32  1  0
  3 33  1  0
  3 34  1  0
  4 35  1  0
  4 36  1  0
  4 37  1  0
  8 38  1  0
  8 39  1  0
 15 40  1  0
 15 41  1  0
 17 42  1  0
 19 43  1  0
 20 44  1  0
 25 45  1  0
 27 46  1  0
M  END
>  <UniqueID>  (74) 
74

>  <SMILES>  (74) 
CC(C)(C)OC(=O)COC(=O)n1c(C(N)=O)cc2ccc(C(F)(F)C=O)cc21

>  <Energy>  (74) 
79.22245876552168

>  <Genealogy>  (74) 
CC(C)(C)OC(=O)COC(=O)n1c(C(N)=O)cc2ccc(C(F)(F)C=O)cc21 (3D coordinates assigned)
CC(C)(C)OC(=O)COC(=O)n1c(C(N)=O)cc2ccc(C(F)(F)C=O)cc21 (optimized conformer: 79.22245876552168 kcal/mol)

>  <smiles>  (74) 
CC(C)(C)OC(=O)COC(=O)n1c(C(N)=O)cc2ccc(C(F)(F)C=O)cc21

>  <score_type>  (74) 
oracle

>  <origin>  (74) 
adg

>  <m_score__min__energy>  (74) 
-9.1500000000000004

>  <m_primary>  (74) 
energy

$$$$
74:0
     RDKit          3D

 52 54  0  0  0  0  0  0  0  0999 V2000
   -2.0710   20.2500  -33.6750 C   0  0  0  0  0  0  0  0  0  0  0  0
   -1.9370   20.9940  -32.3520 C   0  0  0  0  0  0  0  0  0  0  0  0
   -2.6460   22.2310  -32.3960 O   0  0  0  0  0  0  0  0  0  0  0  0
   -3.3700   22.7440  -31.3140 C   0  0  0  0  0  0  0  0  0  0  0  0
   -2.7750   23.1170  -30.2660 O   0  0  0  0  0  0  0  0  0  0  0  0
   -4.8020   22.8190  -31.3890 N   0  0  0  0  0  0  0  0  0  0  0  0
   -5.6110   23.8410  -30.9860 C   0  0  0  0  0  0  0  0  0  0  0  0
   -5.1620   25.1650  -30.5060 C   0  0  0  0  0  0  0  0  0  0  0  0
   -3.8710   25.6500  -30.8660 N   0  0  0  0  0  0  0  0  0  0  0  0
   -5.8920   25.8600  -29.7510 O   0  0  0  0  0  0  0  0  0  0  0  0
   -6.9500   23.5040  -31.1680 C   0  0  0  0  0  0  0  0  0  0  0  0
   -6.9380   22.2370  -31.7050 C   0  0  0  0  0  0  0  0  0  0  0  0
   -7.9960   21.4140  -32.0770 C   0  0  0  0  0  0  0  0  0  0  0  0
   -7.6920   20.1400  -32.5830 C   0  0  0  0  0  0  0  0  0  0  0  0
   -6.3440   19.7040  -32.7030 C   0  0  0  0  0  0  0  0  0  0  0  0
   -6.0460   18.3880  -33.2140 N   0  0  0  0  0  0  0  0  0  0  0  0
   -6.8830   17.2370  -32.8550 C   0  0  0  0  0  0  0  0  0  0  0  0
   -6.8180   16.1740  -33.9610 C   0  0  0  0  0  0  0  0  0  0  0  0
   -5.4280   15.7090  -34.2450 N   0  0  0  0  0  0  0  0  0  0  0  0
   -5.1500   14.4460  -33.5120 C   0  0  0  0  0  0  0  0  0  0  0  0
   -4.6070   14.6470  -32.0770 C   0  0  0  0  0  0  0  0  0  0  0  0
   -4.5110   13.3590  -31.2480 C   0  0  0  0  0  0  0  0  0  0  0  0
   -3.2200   12.8670  -31.2460 F   0  0  0  0  0  0  0  0  0  0  0  0
   -5.3780   12.3940  -31.7290 F   0  0  0  0  0  0  0  0  0  0  0  0
   -4.3870   16.7390  -33.9670 C   0  0  0  0  0  0  0  0  0  0  0  0
   -4.9080   18.1740  -34.1180 C   0  0  0  0  0  0  0  0  0  0  0  0
   -5.2990   20.5750  -32.3110 C   0  0  0  0  0  0  0  0  0  0  0  0
   -5.6310   21.8460  -31.8280 C   0  0  0  0  0  0  0  0  0  0  0  0
   -2.2629   19.1848  -33.4788 H   0  0  0  0  0  0  0  0  0  0  0  0
   -2.9074   20.6733  -34.2506 H   0  0  0  0  0  0  0  0  0  0  0  0
   -1.1395   20.3549  -34.2506 H   0  0  0  0  0  0  0  0  0  0  0  0
   -2.3476   20.3708  -31.5439 H   0  0  0  0  0  0  0  0  0  0  0  0
   -0.8725   21.2024  -32.1693 H   0  0  0  0  0  0  0  0  0  0  0  0
   -3.0080   25.2590  -30.4270 H   0  0  0  0  0  0  0  0  0  0  0  0
   -7.8304   24.1199  -30.9325 H   0  0  0  0  0  0  0  0  0  0  0  0
   -9.0385   21.7508  -31.9778 H   0  0  0  0  0  0  0  0  0  0  0  0
   -8.5082   19.4699  -32.8909 H   0  0  0  0  0  0  0  0  0  0  0  0
   -6.5204   16.8033  -31.9114 H   0  0  0  0  0  0  0  0  0  0  0  0
   -7.9243   17.5712  -32.7366 H   0  0  0  0  0  0  0  0  0  0  0  0
   -7.4203   15.3077  -33.6499 H   0  0  0  0  0  0  0  0  0  0  0  0
   -7.2045   16.6347  -34.8821 H   0  0  0  0  0  0  0  0  0  0  0  0
   -5.4000   15.4950  -35.2690 H   0  0  0  0  0  0  0  0  0  0  0  0
   -6.0860   13.8717  -33.4485 H   0  0  0  0  0  0  0  0  0  0  0  0
   -4.3635   13.9223  -34.0752 H   0  0  0  0  0  0  0  0  0  0  0  0
   -3.6008   15.0857  -32.1484 H   0  0  0  0  0  0  0  0  0  0  0  0
   -5.3245   15.3003  -31.5590 H   0  0  0  0  0  0  0  0  0  0  0  0
   -4.7967   13.6087  -30.2155 H   0  0  0  0  0  0  0  0  0  0  0  0
   -4.0264   16.6037  -32.9366 H   0  0  0  0  0  0  0  0  0  0  0  0
   -3.5829   16.6016  -34.7050 H   0  0  0  0  0  0  0  0  0  0  0  0
   -4.1046   18.8824  -33.8677 H   0  0  0  0  0  0  0  0  0  0  0  0
   -5.2338   18.3347  -35.1563 H   0  0  0  0  0  0  0  0  0  0  0  0
   -4.2478   20.2594  -32.3845 H   0  0  0  0  0  0  0  0  0  0  0  0
  1  2  1  0
  2  3  1  0
  3  4  1  0
  4  5  2  0
  4  6  1  0
  6  7  1  0
  7  8  1  0
  8  9  1  0
  8 10  2  0
  7 11  2  0
 11 12  1  0
 12 13  2  0
 13 14  1  0
 14 15  2  0
 15 16  1  0
 16 17  1  0
 17 18  1  0
 18 19  1  0
 19 20  1  0
 20 21  1  0
 21 22  1  0
 22 23  1  0
 22 24  1  0
 19 25  1  0
 25 26  1  0
 15 27  1  0
 27 28  2  0
 28  6  1  0
 28 12  1  0
 26 16  1  0
  1 29  1  0
  1 30  1  0
  1 31  1  0
  2 32  1  0
  2 33  1  0
  9 34  1  0
 11 35  1  0
 13 36  1  0
 14 37  1  0
 17 38  1  0
 17 39  1  0
 18 40  1  0
 18 41  1  0
 19 42  1  0
 20 43  1  0
 20 44  1  0
 21 45  1  0
 21 46  1  0
 22 47  1  0
 25 48  1  0
 25 49  1  0
 26 50  1  0
 26 51  1  0
 27 52  1  0
M  CHG  2   9  -1  19   1
M  END
>  <UniqueID>  (75) 
75

>  <SMILES>  (75) 
CCOC(=O)n1c(C([NH-])=O)cc2ccc(N3CC[NH+](CCC(F)F)CC3)cc21

>  <Energy>  (75) 
97.8069155815994

>  <Genealogy>  (75) 
CCOC(=O)n1c(C([NH-])=O)cc2ccc(N3CC[NH+](CCC(F)F)CC3)cc21 (protonated)
CCOC(=O)n1c(C([NH-])=O)cc2ccc(N3CC[NH+](CCC(F)F)CC3)cc21 (3D coordinates assigned)
CCOC(=O)n1c(C([NH-])=O)cc2ccc(N3CC[NH+](CCC(F)F)CC3)cc21 (nonaromatic ring conformer: 97.8069155815994 kcal/mol)

>  <smiles>  (75) 
CCOC(=O)n1c(C(N)=O)cc2ccc(N3CCN(CCC(F)F)CC3)cc21

>  <score_type>  (75) 
oracle

>  <origin>  (75) 
adg

>  <m_score__min__energy>  (75) 
-9.4199999999999999

>  <m_primary>  (75) 
energy

$$$$
75:0
     RDKit          3D

 42 44  0  0  0  0  0  0  0  0999 V2000
   -3.5400   21.9190  -33.1960 C   0  0  0  0  0  0  0  0  0  0  0  0
   -3.3130   22.2370  -31.8290 O   0  0  0  0  0  0  0  0  0  0  0  0
   -4.2340   21.9350  -30.8210 C   0  0  0  0  0  0  0  0  0  0  0  0
   -3.8510   21.3760  -29.7570 O   0  0  0  0  0  0  0  0  0  0  0  0
   -5.6240   22.2530  -31.0050 N   0  0  0  0  0  0  0  0  0  0  0  0
   -6.2110   23.4810  -30.9190 C   0  0  0  0  0  0  0  0  0  0  0  0
   -5.5480   24.7190  -30.4540 C   0  0  0  0  0  0  0  0  0  0  0  0
   -5.8620   25.2790  -29.1770 N   0  0  0  0  0  0  0  0  0  0  0  0
   -4.6730   25.2750  -31.1690 O   0  0  0  0  0  0  0  0  0  0  0  0
   -7.5650   23.3980  -31.2380 C   0  0  0  0  0  0  0  0  0  0  0  0
   -7.7930   22.0710  -31.5220 C   0  0  0  0  0  0  0  0  0  0  0  0
   -8.9670   21.4270  -31.8990 C   0  0  0  0  0  0  0  0  0  0  0  0
   -8.9090   20.0460  -32.1490 C   0  0  0  0  0  0  0  0  0  0  0  0
   -7.6840   19.3420  -32.0350 C   0  0  0  0  0  0  0  0  0  0  0  0
   -7.6410   17.8600  -32.2730 C   0  0  0  0  0  0  0  0  0  0  0  0
   -6.8580   17.5690  -33.5120 C   0  0  0  0  0  0  0  0  0  0  0  0
   -7.0790   16.5090  -34.1570 O   0  0  0  0  0  0  0  0  0  0  0  0
   -5.8810   18.4820  -33.9310 O   0  0  0  0  0  0  0  0  0  0  0  0
   -4.5020   18.2280  -33.9690 C   0  0  0  0  0  0  0  0  0  0  0  0
   -4.0160   17.3160  -34.9160 C   0  0  0  0  0  0  0  0  0  0  0  0
   -2.6500   17.0240  -34.9810 C   0  0  0  0  0  0  0  0  0  0  0  0
   -1.7610   17.6310  -34.0910 C   0  0  0  0  0  0  0  0  0  0  0  0
   -2.2370   18.5260  -33.1300 C   0  0  0  0  0  0  0  0  0  0  0  0
   -3.6030   18.8230  -33.0630 C   0  0  0  0  0  0  0  0  0  0  0  0
   -6.5150   20.0290  -31.6370 C   0  0  0  0  0  0  0  0  0  0  0  0
   -6.6060   21.4010  -31.3760 C   0  0  0  0  0  0  0  0  0  0  0  0
   -4.1779   21.0254  -33.2635 H   0  0  0  0  0  0  0  0  0  0  0  0
   -4.0399   22.7646  -33.6911 H   0  0  0  0  0  0  0  0  0  0  0  0
   -2.5779   21.7210  -33.6911 H   0  0  0  0  0  0  0  0  0  0  0  0
   -5.3610   26.1310  -28.8420 H   0  0  0  0  0  0  0  0  0  0  0  0
   -6.6190   24.8780  -28.5810 H   0  0  0  0  0  0  0  0  0  0  0  0
   -8.2965   24.2192  -31.2585 H   0  0  0  0  0  0  0  0  0  0  0  0
   -9.9115   21.9820  -31.9983 H   0  0  0  0  0  0  0  0  0  0  0  0
   -9.8231   19.5056  -32.4360 H   0  0  0  0  0  0  0  0  0  0  0  0
   -7.1629   17.3659  -31.4143 H   0  0  0  0  0  0  0  0  0  0  0  0
   -8.6667   17.4816  -32.3942 H   0  0  0  0  0  0  0  0  0  0  0  0
   -4.7133   16.8271  -35.6122 H   0  0  0  0  0  0  0  0  0  0  0  0
   -2.2751   16.3153  -35.7341 H   0  0  0  0  0  0  0  0  0  0  0  0
   -0.6861   17.4042  -34.1469 H   0  0  0  0  0  0  0  0  0  0  0  0
   -1.5371   18.9981  -32.4248 H   0  0  0  0  0  0  0  0  0  0  0  0
   -3.9754   19.5231  -32.3006 H   0  0  0  0  0  0  0  0  0  0  0  0
   -5.5569   19.4984  -31.5348 H   0  0  0  0  0  0  0  0  0  0  0  0
  1  2  1  0
  2  3  1  0
  3  4  2  0
  3  5  1  0
  5  6  1  0
  6  7  1  0
  7  8  1  0
  7  9  2  0
  6 10  2  0
 10 11  1  0
 11 12  2  0
 12 13  1  0
 13 14  2  0
 14 15  1  0
 15 16  1  0
 16 17  2  0
 16 18  1  0
 18 19  1  0
 19 20  2  0
 20 21  1  0
 21 22  2  0
 22 23  1  0
 23 24  2  0
 14 25  1  0
 25 26  2  0
 26  5  1  0
 26 11  1  0
 24 19  1  0
  1 27  1  0
  1 28  1  0
  1 29  1  0
  8 30  1  0
  8 31  1  0
 10 32  1  0
 12 33  1  0
 13 34  1  0
 15 35  1  0
 15 36  1  0
 20 37  1  0
 21 38  1  0
 22 39  1  0
 23 40  1  0
 24 41  1  0
 25 42  1  0
M  END
>  <UniqueID>  (76) 
76

>  <SMILES>  (76) 
COC(=O)n1c(C(N)=O)cc2ccc(CC(=O)Oc3ccccc3)cc21

>  <Energy>  (76) 
83.35049170857563

>  <Genealogy>  (76) 
COC(=O)n1c(C(N)=O)cc2ccc(CC(=O)Oc3ccccc3)cc21 (3D coordinates assigned)
COC(=O)n1c(C(N)=O)cc2ccc(CC(=O)Oc3ccccc3)cc21 (optimized conformer: 83.35049170857563 kcal/mol)

>  <smiles>  (76) 
COC(=O)n1c(C(N)=O)cc2ccc(CC(=O)Oc3ccccc3)cc21

>  <score_type>  (76) 
oracle

>  <origin>  (76) 
adg

>  <m_score__min__energy>  (76) 
-8.7300000000000004

>  <m_primary>  (76) 
energy

$$$$
76:0
     RDKit          3D

 49 51  0  0  0  0  0  0  0  0999 V2000
   -6.1570   23.6800  -31.7230 C   0  0  0  0  0  0  0  0  0  0  0  0
   -6.3660   23.7110  -30.1930 C   0  0  0  0  0  0  0  0  0  0  0  0
   -6.8550   25.1250  -29.8080 C   0  0  0  0  0  0  0  0  0  0  0  0
   -7.4430   22.6670  -29.8310 C   0  0  0  0  0  0  0  0  0  0  0  0
   -5.0010   23.3770  -29.5150 C   0  0  0  0  0  0  0  0  0  0  0  0
   -3.7530   23.9460  -30.1510 C   0  0  0  0  0  0  0  0  0  0  0  0
   -3.7590   25.0750  -30.7090 O   0  0  0  0  0  0  0  0  0  0  0  0
   -2.5880   23.1190  -30.2710 N   0  0  0  0  0  0  0  0  0  0  0  0
   -1.3460   23.3360  -29.7620 C   0  0  0  0  0  0  0  0  0  0  0  0
   -0.9040   24.5590  -29.0630 C   0  0  0  0  0  0  0  0  0  0  0  0
   -1.7790   25.6810  -28.9690 N   0  0  0  0  0  0  0  0  0  0  0  0
    0.2310   24.6150  -28.5240 O   0  0  0  0  0  0  0  0  0  0  0  0
   -0.5100   22.2560  -30.0430 C   0  0  0  0  0  0  0  0  0  0  0  0
   -1.2890   21.3690  -30.7510 C   0  0  0  0  0  0  0  0  0  0  0  0
   -0.9760   20.1220  -31.2800 C   0  0  0  0  0  0  0  0  0  0  0  0
   -1.9880   19.4170  -31.9540 C   0  0  0  0  0  0  0  0  0  0  0  0
   -3.2970   19.9620  -32.0870 C   0  0  0  0  0  0  0  0  0  0  0  0
   -4.3340   19.2240  -32.7760 N   0  0  0  0  0  0  0  0  0  0  0  0
   -4.2750   17.7940  -33.0390 C   0  0  0  0  0  0  0  0  0  0  0  0
   -5.6320   17.4160  -33.6200 C   0  0  0  0  0  0  0  0  0  0  0  0
   -6.2680   18.7320  -34.0770 C   0  0  2  0  0  0  0  0  0  0  0  0
   -6.1060   18.9170  -35.4630 O   0  0  0  0  0  0  0  0  0  0  0  0
   -5.5570   19.8290  -33.2840 C   0  0  0  0  0  0  0  0  0  0  0  0
   -3.5690   21.2360  -31.5300 C   0  0  0  0  0  0  0  0  0  0  0  0
   -2.5370   21.9150  -30.8760 C   0  0  0  0  0  0  0  0  0  0  0  0
   -5.0912   23.5219  -31.9443 H   0  0  0  0  0  0  0  0  0  0  0  0
   -6.7473   22.8596  -32.1572 H   0  0  0  0  0  0  0  0  0  0  0  0
   -6.4837   24.6364  -32.1572 H   0  0  0  0  0  0  0  0  0  0  0  0
   -6.8866   25.2163  -28.7123 H   0  0  0  0  0  0  0  0  0  0  0  0
   -6.1645   25.8763  -30.2188 H   0  0  0  0  0  0  0  0  0  0  0  0
   -7.8621   25.2892  -30.2188 H   0  0  0  0  0  0  0  0  0  0  0  0
   -7.5242   22.5883  -28.7368 H   0  0  0  0  0  0  0  0  0  0  0  0
   -8.4114   22.9791  -30.2491 H   0  0  0  0  0  0  0  0  0  0  0  0
   -7.1611   21.6894  -30.2491 H   0  0  0  0  0  0  0  0  0  0  0  0
   -5.0451   23.7512  -28.4815 H   0  0  0  0  0  0  0  0  0  0  0  0
   -4.8961   22.2865  -29.6138 H   0  0  0  0  0  0  0  0  0  0  0  0
   -2.7560   25.6320  -29.3340 H   0  0  0  0  0  0  0  0  0  0  0  0
    0.5463   22.1380  -29.7595 H   0  0  0  0  0  0  0  0  0  0  0  0
    0.0341   19.6995  -31.1742 H   0  0  0  0  0  0  0  0  0  0  0  0
   -1.7657   18.4297  -32.3851 H   0  0  0  0  0  0  0  0  0  0  0  0
   -3.4751   17.5710  -33.7604 H   0  0  0  0  0  0  0  0  0  0  0  0
   -4.0569   17.2251  -32.1231 H   0  0  0  0  0  0  0  0  0  0  0  0
   -5.5071   16.7336  -34.4736 H   0  0  0  0  0  0  0  0  0  0  0  0
   -6.2598   16.8967  -32.8809 H   0  0  0  0  0  0  0  0  0  0  0  0
   -7.3527   18.7434  -33.8944 H   0  0  0  0  0  0  0  0  0  0  0  0
   -6.9290   19.3540  -35.8100 H   0  0  0  0  0  0  0  0  0  0  0  0
   -5.3196   20.6812  -33.9377 H   0  0  0  0  0  0  0  0  0  0  0  0
   -6.1879   20.2116  -32.4681 H   0  0  0  0  0  0  0  0  0  0  0  0
   -4.5715   21.6815  -31.6105 H   0  0  0  0  0  0  0  0  0  0  0  0
  1  2  1  0
  2  3  1  0
  2  4  1  0
  2  5  1  0
  5  6  1  0
  6  7  2  0
  6  8  1  0
  8  9  1  0
  9 10  1  0
 10 11  1  0
 10 12  2  0
  9 13  2  0
 13 14  1  0
 14 15  2  0
 15 16  1  0
 16 17  2  0
 17 18  1  0
 18 19  1  0
 19 20  1  0
 20 21  1  0
 21 22  1  0
 21 23  1  0
 17 24  1  0
 24 25  2  0
 25  8  1  0
 25 14  1  0
 23 18  1  0
  1 26  1  0
  1 27  1  0
  1 28  1  0
  3 29  1  0
  3 30  1  0
  3 31  1  0
  4 32  1  0
  4 33  1  0
  4 34  1  0
  5 35  1  0
  5 36  1  0
 11 37  1  0
 13 38  1  0
 15 39  1  0
 16 40  1  0
 19 41  1  0
 19 42  1  0
 20 43  1  0
 20 44  1  0
 21 45  1  6
 22 46  1  0
 23 47  1  0
 23 48  1  0
 24 49  1  0
M  CHG  1  11  -1
M  END
>  <UniqueID>  (77) 
77

>  <SMILES>  (77) 
CC(C)(C)CC(=O)n1c(C([NH-])=O)cc2ccc(N3CC[C@H](O)C3)cc21

>  <Energy>  (77) 
90.80536336803759

>  <Genealogy>  (77) 
CC(C)(C)CC(=O)n1c(C([NH-])=O)cc2ccc(N3CC[C@H](O)C3)cc21 (protonated)
CC(C)(C)CC(=O)n1c(C([NH-])=O)cc2ccc(N3CC[C@H](O)C3)cc21 (3D coordinates assigned)
CC(C)(C)CC(=O)n1c(C([NH-])=O)cc2ccc(N3CC[C@H](O)C3)cc21 (nonaromatic ring conformer: 90.80536336803759 kcal/mol)

>  <smiles>  (77) 
CC(C)(C)CC(=O)n1c(C(N)=O)cc2ccc(N3CC[C@H](O)C3)cc21

>  <score_type>  (77) 
oracle

>  <origin>  (77) 
adg

>  <m_score__min__energy>  (77) 
-11.49

>  <m_primary>  (77) 
energy

$$$$
77:0
     RDKit          3D

 41 43  0  0  0  0  0  0  0  0999 V2000
   -1.4960   25.7600  -28.9020 N   0  0  0  0  0  0  0  0  0  0  0  0
   -0.9430   24.4630  -29.1010 C   0  0  0  0  0  0  0  0  0  0  0  0
    0.1980   24.2010  -28.6340 O   0  0  0  0  0  0  0  0  0  0  0  0
   -1.6600   23.4450  -29.8970 C   0  0  0  0  0  0  0  0  0  0  0  0
   -1.0690   22.2630  -30.3370 C   0  0  0  0  0  0  0  0  0  0  0  0
   -2.0230   21.6430  -31.1100 C   0  0  0  0  0  0  0  0  0  0  0  0
   -1.9770   20.4270  -31.7840 C   0  0  0  0  0  0  0  0  0  0  0  0
   -3.1260   20.0150  -32.4790 C   0  0  0  0  0  0  0  0  0  0  0  0
   -4.2940   20.8190  -32.4850 C   0  0  0  0  0  0  0  0  0  0  0  0
   -5.5350   20.3470  -33.1970 C   0  0  0  0  0  0  0  0  0  0  0  0
   -6.7900   21.0840  -32.7090 C   0  0  0  0  0  0  0  0  0  0  0  0
   -7.8420   20.1280  -32.1340 C   0  0  0  0  0  0  0  0  0  0  0  0
   -7.8500   18.8800  -32.8900 N   0  0  0  0  0  0  0  0  0  0  0  0
   -6.9540   17.7820  -32.6810 C   0  0  0  0  0  0  0  0  0  0  0  0
   -6.8610   17.2840  -31.5290 O   0  0  0  0  0  0  0  0  0  0  0  0
   -6.1250   17.2090  -33.7990 C   0  0  0  0  0  0  0  0  0  0  0  0
   -6.1340   17.8640  -35.0360 O   0  0  0  0  0  0  0  0  0  0  0  0
   -4.8770   16.4070  -33.4590 C   0  0  0  0  0  0  0  0  0  0  0  0
   -6.1380   15.6920  -33.9250 C   0  0  0  0  0  0  0  0  0  0  0  0
   -4.3050   22.0440  -31.7840 C   0  0  0  0  0  0  0  0  0  0  0  0
   -3.1400   22.4390  -31.1150 C   0  0  0  0  0  0  0  0  0  0  0  0
   -2.9330   23.5490  -30.3710 N   0  0  0  0  0  0  0  0  0  0  0  0
   -3.9030   24.5650  -30.0670 C   0  0  0  0  0  0  0  0  0  0  0  0
   -3.8870   25.6650  -30.6780 O   0  0  0  0  0  0  0  0  0  0  0  0
   -4.8890   24.3300  -29.1150 O   0  0  0  0  0  0  0  0  0  0  0  0
   -2.5260   25.9210  -28.9640 H   0  0  0  0  0  0  0  0  0  0  0  0
   -0.0543   21.9018  -30.1136 H   0  0  0  0  0  0  0  0  0  0  0  0
   -1.0685   19.8070  -31.7730 H   0  0  0  0  0  0  0  0  0  0  0  0
   -3.1197   19.0594  -33.0239 H   0  0  0  0  0  0  0  0  0  0  0  0
   -5.4153   20.5246  -34.2760 H   0  0  0  0  0  0  0  0  0  0  0  0
   -5.6640   19.2757  -32.9834 H   0  0  0  0  0  0  0  0  0  0  0  0
   -6.4977   21.7997  -31.9265 H   0  0  0  0  0  0  0  0  0  0  0  0
   -7.2375   21.5942  -33.5747 H   0  0  0  0  0  0  0  0  0  0  0  0
   -7.6035   19.9146  -31.0816 H   0  0  0  0  0  0  0  0  0  0  0  0
   -8.8338   20.5986  -32.2043 H   0  0  0  0  0  0  0  0  0  0  0  0
   -6.8200   18.5760  -34.9600 H   0  0  0  0  0  0  0  0  0  0  0  0
   -3.9966   16.4544  -34.1168 H   0  0  0  0  0  0  0  0  0  0  0  0
   -4.2176   16.3289  -32.5821 H   0  0  0  0  0  0  0  0  0  0  0  0
   -6.1687   15.2229  -34.9195 H   0  0  0  0  0  0  0  0  0  0  0  0
   -6.7670   14.8834  -33.5243 H   0  0  0  0  0  0  0  0  0  0  0  0
   -5.2070   22.6733  -31.7637 H   0  0  0  0  0  0  0  0  0  0  0  0
  1  2  1  0
  2  3  2  0
  2  4  1  0
  4  5  2  0
  5  6  1  0
  6  7  2  0
  7  8  1  0
  8  9  2  0
  9 10  1  0
 10 11  1  0
 11 12  1  0
 12 13  1  0
 13 14  1  0
 14 15  2  0
 14 16  1  0
 16 17  1  0
 16 18  1  0
 18 19  1  0
  9 20  1  0
 20 21  2  0
 21 22  1  0
 22 23  1  0
 23 24  2  0
 23 25  1  0
 22  4  1  0
 21  6  1  0
 19 16  1  0
  1 26  1  0
  5 27  1  0
  7 28  1  0
  8 29  1  0
 10 30  1  0
 10 31  1  0
 11 32  1  0
 11 33  1  0
 12 34  1  0
 12 35  1  0
 17 36  1  0
 18 37  1  0
 18 38  1  0
 19 39  1  0
 19 40  1  0
 20 41  1  0
M  CHG  3   1  -1  13  -1  25  -1
M  END
>  <UniqueID>  (78) 
78

>  <SMILES>  (78) 
[NH-]C(=O)c1cc2ccc(CCC[N-]C(=O)C3(O)CC3)cc2n1C(=O)[O-]

>  <Energy>  (78) 
344.022493939635

>  <Genealogy>  (78) 
[NH-]C(=O)c1cc2ccc(CCC[N-]C(=O)C3(O)CC3)cc2n1C(=O)[O-] (protonated)
[NH-]C(=O)c1cc2ccc(CCC[N-]C(=O)C3(O)CC3)cc2n1C(=O)[O-] (3D coordinates assigned)
[NH-]C(=O)c1cc2ccc(CCC[N-]C(=O)C3(O)CC3)cc2n1C(=O)[O-] (nonaromatic ring conformer: 344.022493939635 kcal/mol)

>  <smiles>  (78) 
NC(=O)c1cc2ccc(CCCNC(=O)C3(O)CC3)cc2n1C(=O)O

>  <score_type>  (78) 
oracle

>  <origin>  (78) 
adg

>  <m_score__min__energy>  (78) 
-11.65

>  <m_primary>  (78) 
energy

$$$$
78:0
     RDKit          3D

 42 44  0  0  0  0  0  0  0  0999 V2000
   -4.0870   14.0320  -34.3530 C   0  0  0  0  0  0  0  0  0  0  0  0
   -3.8430   15.4950  -34.5800 C   0  0  0  0  0  0  0  0  0  0  0  0
   -2.8140   15.8450  -35.2200 O   0  0  0  0  0  0  0  0  0  0  0  0
   -4.7420   16.4970  -34.0550 N   0  0  0  0  0  0  0  0  0  0  0  0
   -4.6410   17.8890  -34.5180 C   0  0  0  0  0  0  0  0  0  0  0  0
   -6.0330   18.5270  -34.5930 C   0  0  0  0  0  0  0  0  0  0  0  0
   -6.8370   18.3970  -33.2680 C   0  0  0  0  0  0  0  0  0  0  0  0
   -7.0640   19.7410  -32.6000 C   0  0  0  0  0  0  0  0  0  0  0  0
   -8.3800   20.2040  -32.3300 C   0  0  0  0  0  0  0  0  0  0  0  0
   -8.5950   21.4700  -31.7620 C   0  0  0  0  0  0  0  0  0  0  0  0
   -7.4820   22.2550  -31.4760 C   0  0  0  0  0  0  0  0  0  0  0  0
   -7.4110   23.5340  -30.9730 C   0  0  0  0  0  0  0  0  0  0  0  0
   -6.0540   23.8330  -30.9230 C   0  0  0  0  0  0  0  0  0  0  0  0
   -5.5240   25.1060  -30.3970 C   0  0  0  0  0  0  0  0  0  0  0  0
   -4.2040   25.5480  -30.7190 N   0  0  0  0  0  0  0  0  0  0  0  0
   -6.2270   25.7890  -29.6030 O   0  0  0  0  0  0  0  0  0  0  0  0
   -5.3110   22.7870  -31.3880 N   0  0  0  0  0  0  0  0  0  0  0  0
   -3.8900   22.7500  -31.6010 C   0  0  0  0  0  0  0  0  0  0  0  0
   -3.4150   22.2020  -32.6320 O   0  0  0  0  0  0  0  0  0  0  0  0
   -3.0240   23.3170  -30.6760 O   0  0  0  0  0  0  0  0  0  0  0  0
   -6.2020   21.8260  -31.7210 C   0  0  0  0  0  0  0  0  0  0  0  0
   -5.9600   20.5760  -32.3040 C   0  0  0  0  0  0  0  0  0  0  0  0
   -6.2020   17.4120  -32.2650 C   0  0  0  0  0  0  0  0  0  0  0  0
   -5.6770   16.1560  -32.9700 C   0  0  0  0  0  0  0  0  0  0  0  0
   -4.1208   13.8293  -33.2724 H   0  0  0  0  0  0  0  0  0  0  0  0
   -5.0454   13.7449  -34.8101 H   0  0  0  0  0  0  0  0  0  0  0  0
   -3.2736   13.4494  -34.8101 H   0  0  0  0  0  0  0  0  0  0  0  0
   -4.0171   18.4608  -33.8153 H   0  0  0  0  0  0  0  0  0  0  0  0
   -4.1875   17.9008  -35.5201 H   0  0  0  0  0  0  0  0  0  0  0  0
   -5.9161   19.5952  -34.8280 H   0  0  0  0  0  0  0  0  0  0  0  0
   -6.5967   17.9927  -35.3720 H   0  0  0  0  0  0  0  0  0  0  0  0
   -7.8117   17.9835  -33.5662 H   0  0  0  0  0  0  0  0  0  0  0  0
   -9.2411   19.5626  -32.5690 H   0  0  0  0  0  0  0  0  0  0  0  0
   -9.6123   21.8304  -31.5495 H   0  0  0  0  0  0  0  0  0  0  0  0
   -8.2487   24.1814  -30.6744 H   0  0  0  0  0  0  0  0  0  0  0  0
   -3.5320   24.9240  -31.2190 H   0  0  0  0  0  0  0  0  0  0  0  0
   -3.8630   26.4730  -30.3750 H   0  0  0  0  0  0  0  0  0  0  0  0
   -4.9335   20.2498  -32.5273 H   0  0  0  0  0  0  0  0  0  0  0  0
   -5.3658   17.9113  -31.7538 H   0  0  0  0  0  0  0  0  0  0  0  0
   -6.9743   17.1067  -31.5437 H   0  0  0  0  0  0  0  0  0  0  0  0
   -5.1564   15.5247  -32.2348 H   0  0  0  0  0  0  0  0  0  0  0  0
   -6.5336   15.6225  -33.4077 H   0  0  0  0  0  0  0  0  0  0  0  0
  1  2  1  0
  2  3  2  0
  2  4  1  0
  4  5  1  0
  5  6  1  0
  6  7  1  0
  7  8  1  0
  8  9  2  0
  9 10  1  0
 10 11  2  0
 11 12  1  0
 12 13  2  0
 13 14  1  0
 14 15  1  0
 14 16  2  0
 13 17  1  0
 17 18  1  0
 18 19  2  0
 18 20  1  0
 17 21  1  0
 21 22  2  0
  7 23  1  0
 23 24  1  0
 24  4  1  0
 22  8  1  0
 21 11  1  0
  1 25  1  0
  1 26  1  0
  1 27  1  0
  5 28  1  0
  5 29  1  0
  6 30  1  0
  6 31  1  0
  7 32  1  0
  9 33  1  0
 10 34  1  0
 12 35  1  0
 15 36  1  0
 15 37  1  0
 22 38  1  0
 23 39  1  0
 23 40  1  0
 24 41  1  0
 24 42  1  0
M  CHG  1  20  -1
M  END
>  <UniqueID>  (79) 
79

>  <SMILES>  (79) 
CC(=O)N1CCC(c2ccc3cc(C(N)=O)n(C(=O)[O-])c3c2)CC1

>  <Energy>  (79) 
85.50894092819756

>  <Genealogy>  (79) 
CC(=O)N1CCC(c2ccc3cc(C(N)=O)n(C(=O)[O-])c3c2)CC1 (protonated)
CC(=O)N1CCC(c2ccc3cc(C(N)=O)n(C(=O)[O-])c3c2)CC1 (3D coordinates assigned)
CC(=O)N1CCC(c2ccc3cc(C(N)=O)n(C(=O)[O-])c3c2)CC1 (nonaromatic ring conformer: 85.50894092819756 kcal/mol)

>  <smiles>  (79) 
CC(=O)N1CCC(c2ccc3cc(C(N)=O)n(C(=O)O)c3c2)CC1

>  <score_type>  (79) 
oracle

>  <origin>  (79) 
adg

>  <m_score__min__energy>  (79) 
-9.9399999999999995

>  <m_primary>  (79) 
energy

$$$$
79:0
     RDKit          3D

 38 40  0  0  0  0  0  0  0  0999 V2000
   -1.8620   22.2810  -30.4540 C   0  0  0  0  0  0  0  0  0  0  0  0
   -3.2480   22.7260  -30.4000 N   0  0  0  0  0  0  0  0  0  0  0  0
   -4.2090   22.3270  -31.3860 C   0  0  0  0  0  0  0  0  0  0  0  0
   -3.8480   21.6380  -32.3790 O   0  0  0  0  0  0  0  0  0  0  0  0
   -5.5790   22.7400  -31.2670 N   0  0  0  0  0  0  0  0  0  0  0  0
   -6.0580   23.9660  -30.9180 C   0  0  0  0  0  0  0  0  0  0  0  0
   -5.2520   25.1040  -30.4270 C   0  0  0  0  0  0  0  0  0  0  0  0
   -3.8650   25.2090  -30.7370 N   0  0  0  0  0  0  0  0  0  0  0  0
   -5.7860   25.9750  -29.6890 O   0  0  0  0  0  0  0  0  0  0  0  0
   -7.4500   23.9890  -31.0010 C   0  0  0  0  0  0  0  0  0  0  0  0
   -7.8110   22.7240  -31.4060 C   0  0  0  0  0  0  0  0  0  0  0  0
   -9.0720   22.1850  -31.6460 C   0  0  0  0  0  0  0  0  0  0  0  0
   -9.1460   20.8470  -32.0700 C   0  0  0  0  0  0  0  0  0  0  0  0
   -7.9670   20.0820  -32.2570 C   0  0  0  0  0  0  0  0  0  0  0  0
   -8.0620   18.6430  -32.6800 C   0  0  0  0  0  0  0  0  0  0  0  0
   -6.7080   18.1320  -33.0750 C   0  0  0  0  0  0  0  0  0  0  0  0
   -6.0690   17.1390  -32.3170 C   0  0  0  0  0  0  0  0  0  0  0  0
   -4.8260   16.6560  -32.7330 C   0  0  0  0  0  0  0  0  0  0  0  0
   -4.2400   17.1560  -33.8970 C   0  0  0  0  0  0  0  0  0  0  0  0
   -4.9110   18.1360  -34.6320 C   0  0  0  0  0  0  0  0  0  0  0  0
   -6.1200   18.5950  -34.2130 N   0  0  0  0  0  0  0  0  0  0  0  0
   -6.7050   20.6600  -31.9930 C   0  0  0  0  0  0  0  0  0  0  0  0
   -6.6640   21.9890  -31.5580 C   0  0  0  0  0  0  0  0  0  0  0  0
   -1.4765   22.1572  -29.4312 H   0  0  0  0  0  0  0  0  0  0  0  0
   -1.8060   21.3197  -30.9858 H   0  0  0  0  0  0  0  0  0  0  0  0
   -1.2569   23.0300  -30.9858 H   0  0  0  0  0  0  0  0  0  0  0  0
   -3.5450   23.3630  -29.6280 H   0  0  0  0  0  0  0  0  0  0  0  0
   -3.4940   26.0220  -31.2760 H   0  0  0  0  0  0  0  0  0  0  0  0
   -8.1172   24.8373  -30.7882 H   0  0  0  0  0  0  0  0  0  0  0  0
   -9.9820   22.7874  -31.5081 H   0  0  0  0  0  0  0  0  0  0  0  0
  -10.1281   20.3889  -32.2586 H   0  0  0  0  0  0  0  0  0  0  0  0
   -8.4478   18.0424  -31.8431 H   0  0  0  0  0  0  0  0  0  0  0  0
   -8.7420   18.5647  -33.5411 H   0  0  0  0  0  0  0  0  0  0  0  0
   -6.5417   16.7452  -31.4052 H   0  0  0  0  0  0  0  0  0  0  0  0
   -4.3100   15.8831  -32.1444 H   0  0  0  0  0  0  0  0  0  0  0  0
   -3.2610   16.7825  -34.2316 H   0  0  0  0  0  0  0  0  0  0  0  0
   -4.4602   18.5372  -35.5517 H   0  0  0  0  0  0  0  0  0  0  0  0
   -5.7795   20.0805  -32.1259 H   0  0  0  0  0  0  0  0  0  0  0  0
  1  2  1  0
  2  3  1  0
  3  4  2  0
  3  5  1  0
  5  6  1  0
  6  7  1  0
  7  8  1  0
  7  9  2  0
  6 10  2  0
 10 11  1  0
 11 12  2  0
 12 13  1  0
 13 14  2  0
 14 15  1  0
 15 16  1  0
 16 17  2  0
 17 18  1  0
 18 19  2  0
 19 20  1  0
 20 21  2  0
 14 22  1  0
 22 23  2  0
 23  5  1  0
 23 11  1  0
 21 16  1  0
  1 24  1  0
  1 25  1  0
  1 26  1  0
  2 27  1  0
  8 28  1  0
 10 29  1  0
 12 30  1  0
 13 31  1  0
 15 32  1  0
 15 33  1  0
 17 34  1  0
 18 35  1  0
 19 36  1  0
 20 37  1  0
 22 38  1  0
M  CHG  1   8  -1
M  END
>  <UniqueID>  (80) 
80

>  <SMILES>  (80) 
CNC(=O)n1c(C([NH-])=O)cc2ccc(Cc3ccccn3)cc21

>  <Energy>  (80) 
75.92490177737936

>  <Genealogy>  (80) 
CNC(=O)n1c(C([NH-])=O)cc2ccc(Cc3ccccn3)cc21 (protonated)
CNC(=O)n1c(C([NH-])=O)cc2ccc(Cc3ccccn3)cc21 (3D coordinates assigned)
CNC(=O)n1c(C([NH-])=O)cc2ccc(Cc3ccccn3)cc21 (optimized conformer: 75.92490177737936 kcal/mol)

>  <smiles>  (80) 
CNC(=O)n1c(C(N)=O)cc2ccc(Cc3ccccn3)cc21

>  <score_type>  (80) 
oracle

>  <origin>  (80) 
adg

>  <m_score__min__energy>  (80) 
-11.57

>  <m_primary>  (80) 
energy

$$$$
80:0
     RDKit          3D

 41 43  0  0  0  0  0  0  0  0999 V2000
   -7.6180   18.0010  -32.8300 C   0  0  0  0  0  0  0  0  0  0  0  0
   -7.6810   19.4170  -32.3420 C   0  0  0  0  0  0  0  0  0  0  0  0
   -8.9260   19.9950  -31.9890 C   0  0  0  0  0  0  0  0  0  0  0  0
   -8.9900   21.3060  -31.4860 C   0  0  0  0  0  0  0  0  0  0  0  0
   -7.7980   22.0110  -31.3510 C   0  0  0  0  0  0  0  0  0  0  0  0
   -7.5630   23.2730  -30.8520 C   0  0  0  0  0  0  0  0  0  0  0  0
   -6.1820   23.4470  -30.9250 C   0  0  0  0  0  0  0  0  0  0  0  0
   -5.4860   24.6800  -30.5030 C   0  0  0  0  0  0  0  0  0  0  0  0
   -5.8300   25.3520  -29.2900 N   0  0  0  0  0  0  0  0  0  0  0  0
   -4.5390   25.1250  -31.2060 O   0  0  0  0  0  0  0  0  0  0  0  0
   -5.5880   22.3390  -31.4460 N   0  0  0  0  0  0  0  0  0  0  0  0
   -4.1820   22.0710  -31.5620 C   0  0  0  0  0  0  0  0  0  0  0  0
   -3.7430   21.5410  -32.6200 O   0  0  0  0  0  0  0  0  0  0  0  0
   -3.2740   22.4110  -30.4970 N   0  0  0  0  0  0  0  0  0  0  0  0
   -3.7220   22.4020  -29.0980 C   0  0  0  0  0  0  0  0  0  0  0  0
   -3.1370   23.6030  -28.3480 C   0  0  0  0  0  0  0  0  0  0  0  0
   -1.7060   23.7740  -28.6340 N   0  0  0  0  0  0  0  0  0  0  0  0
   -0.9880   24.7860  -27.9090 C   0  0  0  0  0  0  0  0  0  0  0  0
    0.2570   24.9240  -28.0450 O   0  0  0  0  0  0  0  0  0  0  0  0
   -1.0150   22.8560  -29.5470 C   0  0  0  0  0  0  0  0  0  0  0  0
   -1.8530   22.6280  -30.8110 C   0  0  0  0  0  0  0  0  0  0  0  0
   -6.5870   21.4660  -31.6930 C   0  0  0  0  0  0  0  0  0  0  0  0
   -6.4900   20.1550  -32.1670 C   0  0  0  0  0  0  0  0  0  0  0  0
   -7.5876   17.3174  -31.9688 H   0  0  0  0  0  0  0  0  0  0  0  0
   -8.5074   17.7834  -33.4397 H   0  0  0  0  0  0  0  0  0  0  0  0
   -6.7128   17.8632  -33.4397 H   0  0  0  0  0  0  0  0  0  0  0  0
   -9.8510   19.4121  -32.1098 H   0  0  0  0  0  0  0  0  0  0  0  0
   -9.9523   21.7604  -31.2078 H   0  0  0  0  0  0  0  0  0  0  0  0
   -8.3068   23.9908  -30.4759 H   0  0  0  0  0  0  0  0  0  0  0  0
   -6.4630   24.9120  -28.5880 H   0  0  0  0  0  0  0  0  0  0  0  0
   -5.3640   26.2520  -29.0420 H   0  0  0  0  0  0  0  0  0  0  0  0
   -4.8203   22.4545  -29.0677 H   0  0  0  0  0  0  0  0  0  0  0  0
   -3.3772   21.4751  -28.6164 H   0  0  0  0  0  0  0  0  0  0  0  0
   -3.6738   24.5123  -28.6561 H   0  0  0  0  0  0  0  0  0  0  0  0
   -3.2535   23.4249  -27.2688 H   0  0  0  0  0  0  0  0  0  0  0  0
   -1.5343   25.4511  -27.2240 H   0  0  0  0  0  0  0  0  0  0  0  0
   -0.0437   23.2883  -29.8292 H   0  0  0  0  0  0  0  0  0  0  0  0
   -0.8662   21.8919  -29.0387 H   0  0  0  0  0  0  0  0  0  0  0  0
   -1.7635   23.5110  -31.4608 H   0  0  0  0  0  0  0  0  0  0  0  0
   -1.4736   21.7255  -31.3126 H   0  0  0  0  0  0  0  0  0  0  0  0
   -5.5111   19.7095  -32.3978 H   0  0  0  0  0  0  0  0  0  0  0  0
  1  2  1  0
  2  3  2  0
  3  4  1  0
  4  5  2  0
  5  6  1  0
  6  7  2  0
  7  8  1  0
  8  9  1  0
  8 10  2  0
  7 11  1  0
 11 12  1  0
 12 13  2  0
 12 14  1  0
 14 15  1  0
 15 16  1  0
 16 17  1  0
 17 18  1  0
 18 19  2  0
 17 20  1  0
 20 21  1  0
 11 22  1  0
 22 23  2  0
 23  2  1  0
 22  5  1  0
 21 14  1  0
  1 24  1  0
  1 25  1  0
  1 26  1  0
  3 27  1  0
  4 28  1  0
  6 29  1  0
  9 30  1  0
  9 31  1  0
 15 32  1  0
 15 33  1  0
 16 34  1  0
 16 35  1  0
 18 36  1  0
 20 37  1  0
 20 38  1  0
 21 39  1  0
 21 40  1  0
 23 41  1  0
M  END
>  <UniqueID>  (81) 
81

>  <SMILES>  (81) 
Cc1ccc2cc(C(N)=O)n(C(=O)N3CCN(C=O)CC3)c2c1

>  <Energy>  (81) 
80.08653326136489

>  <Genealogy>  (81) 
Cc1ccc2cc(C(N)=O)n(C(=O)N3CCN(C=O)CC3)c2c1 (3D coordinates assigned)
Cc1ccc2cc(C(N)=O)n(C(=O)N3CCN(C=O)CC3)c2c1 (nonaromatic ring conformer: 80.08653326136489 kcal/mol)

>  <smiles>  (81) 
Cc1ccc2cc(C(N)=O)n(C(=O)N3CCN(C=O)CC3)c2c1

>  <score_type>  (81) 
oracle

>  <origin>  (81) 
adg

>  <m_score__min__energy>  (81) 
-9.6999999999999993

>  <m_primary>  (81) 
energy

$$$$
81:0
     RDKit          3D

 37 40  0  0  0  0  0  0  0  0999 V2000
   -1.6570   25.6840  -28.9830 N   0  0  0  0  0  0  0  0  0  0  0  0
   -1.0250   24.4170  -29.1590 C   0  0  0  0  0  0  0  0  0  0  0  0
    0.0750   24.1920  -28.5890 O   0  0  0  0  0  0  0  0  0  0  0  0
   -1.6440   23.4040  -30.0390 C   0  0  0  0  0  0  0  0  0  0  0  0
   -0.9670   22.2820  -30.5110 C   0  0  0  0  0  0  0  0  0  0  0  0
   -1.9060   21.5580  -31.2080 C   0  0  0  0  0  0  0  0  0  0  0  0
   -1.7730   20.3630  -31.9060 C   0  0  0  0  0  0  0  0  0  0  0  0
   -2.9010   19.8530  -32.5670 C   0  0  0  0  0  0  0  0  0  0  0  0
   -4.1550   20.5380  -32.5210 C   0  0  0  0  0  0  0  0  0  0  0  0
   -5.3500   20.0680  -33.2150 N   0  0  2  0  0  0  0  0  0  0  0  0
   -6.6670   20.3600  -32.6020 C   0  0  0  0  0  0  0  0  0  0  0  0
   -7.3510   18.9780  -32.5570 C   0  0  1  0  0  0  0  0  0  0  0  0
   -6.8290   18.3670  -33.8330 C   0  0  0  0  0  0  0  0  0  0  0  0
   -5.3950   18.6010  -33.4240 C   0  0  2  0  0  0  0  0  0  0  0  0
   -5.4080   17.8480  -32.0770 C   0  0  0  0  0  0  0  0  0  0  0  0
   -6.7260   18.1590  -31.5050 N   0  0  0  0  0  0  0  0  0  0  0  0
   -4.2290   21.7640  -31.8120 C   0  0  0  0  0  0  0  0  0  0  0  0
   -3.0920   22.2370  -31.1480 C   0  0  0  0  0  0  0  0  0  0  0  0
   -2.9480   23.3770  -30.4350 N   0  0  0  0  0  0  0  0  0  0  0  0
   -3.9530   24.3810  -30.2170 C   0  0  0  0  0  0  0  0  0  0  0  0
   -4.9420   24.1400  -29.4760 O   0  0  0  0  0  0  0  0  0  0  0  0
   -3.8590   25.6180  -30.8430 O   0  0  0  0  0  0  0  0  0  0  0  0
   -2.6950   25.7770  -29.0330 H   0  0  0  0  0  0  0  0  0  0  0  0
    0.0926   22.0289  -30.3588 H   0  0  0  0  0  0  0  0  0  0  0  0
   -0.8102   19.8320  -31.9392 H   0  0  0  0  0  0  0  0  0  0  0  0
   -2.8190   18.9112  -33.1294 H   0  0  0  0  0  0  0  0  0  0  0  0
   -5.3530   20.5150  -34.1650 H   0  0  0  0  0  0  0  0  0  0  0  0
   -6.5476   20.7738  -31.5898 H   0  0  0  0  0  0  0  0  0  0  0  0
   -7.2461   21.1092  -33.1619 H   0  0  0  0  0  0  0  0  0  0  0  0
   -8.4399   19.0368  -32.4127 H   0  0  0  0  0  0  0  0  0  0  0  0
   -7.0861   17.3039  -33.9500 H   0  0  0  0  0  0  0  0  0  0  0  0
   -7.1829   18.7554  -34.7994 H   0  0  0  0  0  0  0  0  0  0  0  0
   -4.5705   18.2931  -34.0839 H   0  0  0  0  0  0  0  0  0  0  0  0
   -5.2961   16.7650  -32.2340 H   0  0  0  0  0  0  0  0  0  0  0  0
   -4.5802   18.1480  -31.4176 H   0  0  0  0  0  0  0  0  0  0  0  0
   -6.6170   18.7150  -30.6260 H   0  0  0  0  0  0  0  0  0  0  0  0
   -5.1683   22.3357  -31.7845 H   0  0  0  0  0  0  0  0  0  0  0  0
  1  2  1  0
  2  3  2  0
  2  4  1  0
  4  5  2  0
  5  6  1  0
  6  7  2  0
  7  8  1  0
  8  9  2  0
  9 10  1  0
 10 11  1  0
 11 12  1  0
 12 13  1  0
 13 14  1  0
 14 15  1  0
 15 16  1  0
  9 17  1  0
 17 18  2  0
 18 19  1  0
 19 20  1  0
 20 21  2  0
 20 22  1  0
 19  4  1  0
 18  6  1  0
 14 10  1  0
 16 12  1  0
  1 23  1  0
  5 24  1  0
  7 25  1  0
  8 26  1  0
 10 27  1  6
 11 28  1  0
 11 29  1  0
 12 30  1  6
 13 31  1  0
 13 32  1  0
 14 33  1  6
 15 34  1  0
 15 35  1  0
 16 36  1  0
 17 37  1  0
M  CHG  3   1  -1  10   1  22  -1
M  END
>  <UniqueID>  (82) 
82

>  <SMILES>  (82) 
[NH-]C(=O)c1cc2ccc([N@@H+]3C[C@H]4CC3CN4)cc2n1C(=O)[O-]

>  <Energy>  (82) 
120.06383139618293

>  <Genealogy>  (82) 
[NH-]C(=O)c1cc2ccc([NH+]3CC4CC3CN4)cc2n1C(=O)[O-] (protonated)
[NH-]C(=O)c1cc2ccc([N@@H+]3C[C@H]4CC3CN4)cc2n1C(=O)[O-] (chirality)
[NH-]C(=O)c1cc2ccc([N@@H+]3C[C@H]4CC3CN4)cc2n1C(=O)[O-] (3D coordinates assigned)
[NH-]C(=O)c1cc2ccc([N@@H+]3C[C@H]4CC3CN4)cc2n1C(=O)[O-] (nonaromatic ring conformer: 120.06383139618293 kcal/mol)

>  <smiles>  (82) 
NC(=O)c1cc2ccc(N3CC4CC3CN4)cc2n1C(=O)O

>  <score_type>  (82) 
oracle

>  <origin>  (82) 
adg

>  <m_score__min__energy>  (82) 
-10.76

>  <m_primary>  (82) 
energy

$$$$
82:0
     RDKit          3D

 49 51  0  0  0  0  0  0  0  0999 V2000
   -2.5400   21.0010  -33.4740 C   0  0  0  0  0  0  0  0  0  0  0  0
   -3.5530   20.0230  -33.5380 O   0  0  0  0  0  0  0  0  0  0  0  0
   -3.0100   18.7330  -33.3250 C   0  0  0  0  0  0  0  0  0  0  0  0
   -4.1060   17.7380  -32.9170 C   0  0  0  0  0  0  0  0  0  0  0  0
   -4.9690   17.3760  -34.0660 N   0  0  0  0  0  0  0  0  0  0  0  0
   -4.9610   15.9170  -34.2870 C   0  0  0  0  0  0  0  0  0  0  0  0
   -6.3580   17.8460  -33.8490 C   0  0  0  0  0  0  0  0  0  0  0  0
   -6.6240   18.0830  -32.3580 C   0  0  0  0  0  0  0  0  0  0  0  0
   -6.8960   19.5390  -32.0760 C   0  0  0  0  0  0  0  0  0  0  0  0
   -8.2130   20.0530  -32.1780 C   0  0  0  0  0  0  0  0  0  0  0  0
   -8.4840   21.3980  -31.8730 C   0  0  0  0  0  0  0  0  0  0  0  0
   -7.4190   22.2020  -31.4740 C   0  0  0  0  0  0  0  0  0  0  0  0
   -7.4020   23.5250  -31.0910 C   0  0  0  0  0  0  0  0  0  0  0  0
   -6.0700   23.8010  -30.7750 C   0  0  0  0  0  0  0  0  0  0  0  0
   -5.5660   25.1280  -30.3520 C   0  0  0  0  0  0  0  0  0  0  0  0
   -4.2240   25.5280  -30.6310 N   0  0  0  0  0  0  0  0  0  0  0  0
   -6.3200   25.9180  -29.7230 O   0  0  0  0  0  0  0  0  0  0  0  0
   -5.3000   22.6940  -30.9670 N   0  0  0  0  0  0  0  0  0  0  0  0
   -3.8970   22.5510  -30.6960 C   0  0  0  0  0  0  0  0  0  0  0  0
   -3.0570   23.1080  -31.4520 O   0  0  0  0  0  0  0  0  0  0  0  0
   -3.4270   21.7500  -29.5530 C   0  0  0  0  0  0  0  0  0  0  0  0
   -3.5690   22.0380  -28.2140 C   0  0  0  0  0  0  0  0  0  0  0  0
   -2.9820   21.0620  -27.4970 N   0  0  0  0  0  0  0  0  0  0  0  0
   -2.4890   20.2040  -28.3440 O   0  0  0  0  0  0  0  0  0  0  0  0
   -2.7230   20.5660  -29.5850 C   0  0  0  0  0  0  0  0  0  0  0  0
   -6.1390   21.7240  -31.3860 C   0  0  0  0  0  0  0  0  0  0  0  0
   -5.8440   20.3860  -31.6640 C   0  0  0  0  0  0  0  0  0  0  0  0
   -2.3104   21.2227  -32.4213 H   0  0  0  0  0  0  0  0  0  0  0  0
   -1.6357   20.6256  -33.9754 H   0  0  0  0  0  0  0  0  0  0  0  0
   -2.8834   21.9179  -33.9754 H   0  0  0  0  0  0  0  0  0  0  0  0
   -2.5347   18.3844  -34.2537 H   0  0  0  0  0  0  0  0  0  0  0  0
   -2.2697   18.7928  -32.5136 H   0  0  0  0  0  0  0  0  0  0  0  0
   -3.6322   16.8259  -32.5250 H   0  0  0  0  0  0  0  0  0  0  0  0
   -4.7352   18.2142  -32.1506 H   0  0  0  0  0  0  0  0  0  0  0  0
   -4.9582   15.3992  -33.3165 H   0  0  0  0  0  0  0  0  0  0  0  0
   -5.8576   15.6272  -34.8546 H   0  0  0  0  0  0  0  0  0  0  0  0
   -4.0613   15.6371  -34.8546 H   0  0  0  0  0  0  0  0  0  0  0  0
   -6.5102   18.7876  -34.3969 H   0  0  0  0  0  0  0  0  0  0  0  0
   -7.0528   17.0752  -34.2137 H   0  0  0  0  0  0  0  0  0  0  0  0
   -7.4974   17.4890  -32.0508 H   0  0  0  0  0  0  0  0  0  0  0  0
   -5.7301   17.7804  -31.7929 H   0  0  0  0  0  0  0  0  0  0  0  0
   -9.0317   19.3923  -32.4993 H   0  0  0  0  0  0  0  0  0  0  0  0
   -9.5042   21.8026  -31.9470 H   0  0  0  0  0  0  0  0  0  0  0  0
   -8.2559   24.2169  -31.0440 H   0  0  0  0  0  0  0  0  0  0  0  0
   -3.5850   24.9380  -31.2080 H   0  0  0  0  0  0  0  0  0  0  0  0
   -3.8740   26.4530  -30.2950 H   0  0  0  0  0  0  0  0  0  0  0  0
   -4.0782   22.9202  -27.7989 H   0  0  0  0  0  0  0  0  0  0  0  0
   -2.4123   20.0210  -30.4886 H   0  0  0  0  0  0  0  0  0  0  0  0
   -4.8178   20.0026  -31.5643 H   0  0  0  0  0  0  0  0  0  0  0  0
  1  2  1  0
  2  3  1  0
  3  4  1  0
  4  5  1  0
  5  6  1  0
  5  7  1  0
  7  8  1  0
  8  9  1  0
  9 10  2  0
 10 11  1  0
 11 12  2  0
 12 13  1  0
 13 14  2  0
 14 15  1  0
 15 16  1  0
 15 17  2  0
 14 18  1  0
 18 19  1  0
 19 20  2  0
 19 21  1  0
 21 22  1  0
 22 23  2  0
 23 24  1  0
 24 25  1  0
 18 26  1  0
 26 27  2  0
 27  9  1  0
 26 12  1  0
 25 21  2  0
  1 28  1  0
  1 29  1  0
  1 30  1  0
  3 31  1  0
  3 32  1  0
  4 33  1  0
  4 34  1  0
  6 35  1  0
  6 36  1  0
  6 37  1  0
  7 38  1  0
  7 39  1  0
  8 40  1  0
  8 41  1  0
 10 42  1  0
 11 43  1  0
 13 44  1  0
 16 45  1  0
 16 46  1  0
 22 47  1  0
 25 48  1  0
 27 49  1  0
M  END
>  <UniqueID>  (83) 
83

>  <SMILES>  (83) 
COCCN(C)CCc1ccc2cc(C(N)=O)n(C(=O)c3cnoc3)c2c1

>  <Energy>  (83) 
119.35625806792346

>  <Genealogy>  (83) 
COCCN(C)CCc1ccc2cc(C(N)=O)n(C(=O)c3cnoc3)c2c1 (3D coordinates assigned)
COCCN(C)CCc1ccc2cc(C(N)=O)n(C(=O)c3cnoc3)c2c1 (optimized conformer: 119.35625806792346 kcal/mol)

>  <smiles>  (83) 
COCCN(C)CCc1ccc2cc(C(N)=O)n(C(=O)c3cnoc3)c2c1

>  <score_type>  (83) 
oracle

>  <origin>  (83) 
adg

>  <m_score__min__energy>  (83) 
-8.6999999999999993

>  <m_primary>  (83) 
energy

$$$$
83:0
     RDKit          3D

 39 41  0  0  0  0  0  0  0  0999 V2000
   -2.4650   17.3390  -33.9600 C   0  0  0  0  0  0  0  0  0  0  0  0
   -3.6090   17.6240  -33.1650 O   0  0  0  0  0  0  0  0  0  0  0  0
   -4.4230   18.7400  -33.3870 C   0  0  0  0  0  0  0  0  0  0  0  0
   -3.9550   19.7630  -33.9580 O   0  0  0  0  0  0  0  0  0  0  0  0
   -5.7950   18.7200  -32.9620 N   0  0  0  0  0  0  0  0  0  0  0  0
   -6.7100   17.7280  -33.1560 C   0  0  0  0  0  0  0  0  0  0  0  0
   -6.4290   16.3890  -33.7110 C   0  0  0  0  0  0  0  0  0  0  0  0
   -5.3110   15.6200  -33.2620 N   0  0  0  0  0  0  0  0  0  0  0  0
   -7.2200   15.8910  -34.5560 O   0  0  0  0  0  0  0  0  0  0  0  0
   -7.9670   18.1230  -32.7100 C   0  0  0  0  0  0  0  0  0  0  0  0
   -7.7930   19.3960  -32.2190 C   0  0  0  0  0  0  0  0  0  0  0  0
   -8.7190   20.2730  -31.6640 C   0  0  0  0  0  0  0  0  0  0  0  0
   -8.2720   21.5450  -31.2750 C   0  0  0  0  0  0  0  0  0  0  0  0
   -6.9160   21.9320  -31.4540 C   0  0  0  0  0  0  0  0  0  0  0  0
   -6.4690   23.2520  -31.0630 N   0  0  0  0  0  0  0  0  0  0  0  0
   -6.6430   23.8050  -29.7260 C   0  0  0  0  0  0  0  0  0  0  0  0
   -6.1960   25.2580  -29.8110 C   0  0  0  0  0  0  0  0  0  0  0  0
   -5.3660   25.3630  -31.0930 C   0  0  1  0  0  0  0  0  0  0  0  0
   -3.9880   25.3070  -30.8090 O   0  0  0  0  0  0  0  0  0  0  0  0
   -5.7980   24.1820  -31.9620 C   0  0  0  0  0  0  0  0  0  0  0  0
   -6.0080   21.0060  -32.0270 C   0  0  0  0  0  0  0  0  0  0  0  0
   -6.4760   19.7360  -32.3830 C   0  0  0  0  0  0  0  0  0  0  0  0
   -1.6074   17.1253  -33.3051 H   0  0  0  0  0  0  0  0  0  0  0  0
   -2.6684   16.4641  -34.5949 H   0  0  0  0  0  0  0  0  0  0  0  0
   -2.2342   18.2071  -34.5949 H   0  0  0  0  0  0  0  0  0  0  0  0
   -5.1050   14.6930  -33.6950 H   0  0  0  0  0  0  0  0  0  0  0  0
   -4.7390   15.9280  -32.4450 H   0  0  0  0  0  0  0  0  0  0  0  0
   -8.9003   17.5418  -32.7429 H   0  0  0  0  0  0  0  0  0  0  0  0
   -9.7707   19.9782  -31.5338 H   0  0  0  0  0  0  0  0  0  0  0  0
   -8.9822   22.2539  -30.8244 H   0  0  0  0  0  0  0  0  0  0  0  0
   -7.6988   23.7471  -29.4229 H   0  0  0  0  0  0  0  0  0  0  0  0
   -6.0583   23.2467  -28.9800 H   0  0  0  0  0  0  0  0  0  0  0  0
   -7.0690   25.9252  -29.8638 H   0  0  0  0  0  0  0  0  0  0  0  0
   -5.6146   25.5558  -28.9260 H   0  0  0  0  0  0  0  0  0  0  0  0
   -5.5334   26.3219  -31.6053 H   0  0  0  0  0  0  0  0  0  0  0  0
   -3.5000   25.6640  -31.5980 H   0  0  0  0  0  0  0  0  0  0  0  0
   -6.4880   24.5184  -32.7499 H   0  0  0  0  0  0  0  0  0  0  0  0
   -4.9387   23.7122  -32.4628 H   0  0  0  0  0  0  0  0  0  0  0  0
   -4.9552   21.2807  -32.1887 H   0  0  0  0  0  0  0  0  0  0  0  0
  1  2  1  0
  2  3  1  0
  3  4  2  0
  3  5  1  0
  5  6  1  0
  6  7  1  0
  7  8  1  0
  7  9  2  0
  6 10  2  0
 10 11  1  0
 11 12  2  0
 12 13  1  0
 13 14  2  0
 14 15  1  0
 15 16  1  0
 16 17  1  0
 17 18  1  0
 18 19  1  0
 18 20  1  0
 14 21  1  0
 21 22  2  0
 22  5  1  0
 22 11  1  0
 20 15  1  0
  1 23  1  0
  1 24  1  0
  1 25  1  0
  8 26  1  0
  8 27  1  0
 10 28  1  0
 12 29  1  0
 13 30  1  0
 16 31  1  0
 16 32  1  0
 17 33  1  0
 17 34  1  0
 18 35  1  6
 19 36  1  0
 20 37  1  0
 20 38  1  0
 21 39  1  0
M  END
>  <UniqueID>  (84) 
84

>  <SMILES>  (84) 
COC(=O)n1c(C(N)=O)cc2ccc(N3CC[C@@H](O)C3)cc21

>  <Energy>  (84) 
80.62585222134406

>  <Genealogy>  (84) 
COC(=O)n1c(C(N)=O)cc2ccc(N3CC[C@@H](O)C3)cc21 (3D coordinates assigned)
COC(=O)n1c(C(N)=O)cc2ccc(N3CC[C@@H](O)C3)cc21 (nonaromatic ring conformer: 80.62585222134406 kcal/mol)

>  <smiles>  (84) 
COC(=O)n1c(C(N)=O)cc2ccc(N3CC[C@@H](O)C3)cc21

>  <score_type>  (84) 
oracle

>  <origin>  (84) 
adg

>  <m_score__min__energy>  (84) 
-8.1799999999999997

>  <m_primary>  (84) 
energy

$$$$
84:0
     RDKit          3D

 47 49  0  0  0  0  0  0  0  0999 V2000
   -1.3530   22.5700  -26.6370 C   0  0  0  0  0  0  0  0  0  0  0  0
   -1.8710   23.1810  -27.8770 N   0  0  0  0  0  0  0  0  0  0  0  0
   -0.8810   23.1920  -28.9740 C   0  0  0  0  0  0  0  0  0  0  0  0
   -1.4590   22.7720  -30.3380 C   0  0  0  0  0  0  0  0  0  0  0  0
   -2.9100   22.9450  -30.3450 N   0  0  0  0  0  0  0  0  0  0  0  0
   -3.7290   22.5470  -31.4540 C   0  0  0  0  0  0  0  0  0  0  0  0
   -3.1980   22.0700  -32.4950 O   0  0  0  0  0  0  0  0  0  0  0  0
   -5.1560   22.6790  -31.3800 N   0  0  0  0  0  0  0  0  0  0  0  0
   -5.8710   23.7860  -31.0330 C   0  0  0  0  0  0  0  0  0  0  0  0
   -5.3090   25.0610  -30.5450 C   0  0  0  0  0  0  0  0  0  0  0  0
   -3.9020   25.2880  -30.6110 N   0  0  0  0  0  0  0  0  0  0  0  0
   -6.0590   25.9650  -30.0890 O   0  0  0  0  0  0  0  0  0  0  0  0
   -7.2390   23.5350  -31.1430 C   0  0  0  0  0  0  0  0  0  0  0  0
   -7.3370   22.2300  -31.5720 C   0  0  0  0  0  0  0  0  0  0  0  0
   -8.4610   21.4690  -31.8730 C   0  0  0  0  0  0  0  0  0  0  0  0
   -8.2640   20.1570  -32.3360 C   0  0  0  0  0  0  0  0  0  0  0  0
   -6.9560   19.6270  -32.4810 C   0  0  0  0  0  0  0  0  0  0  0  0
   -6.7570   18.2400  -33.0390 C   0  0  0  0  0  0  0  0  0  0  0  0
   -5.7110   17.6280  -32.3740 F   0  0  0  0  0  0  0  0  0  0  0  0
   -7.9020   17.4790  -32.8770 F   0  0  0  0  0  0  0  0  0  0  0  0
   -6.4620   18.2960  -34.3900 F   0  0  0  0  0  0  0  0  0  0  0  0
   -5.8380   20.4430  -32.1890 C   0  0  0  0  0  0  0  0  0  0  0  0
   -6.0660   21.7370  -31.7080 C   0  0  0  0  0  0  0  0  0  0  0  0
   -2.6260   24.4580  -27.7530 C   0  0  0  0  0  0  0  0  0  0  0  0
   -2.5940   25.1540  -26.3870 C   0  0  0  0  0  0  0  0  0  0  0  0
   -4.0940   24.9240  -26.2440 C   0  0  0  0  0  0  0  0  0  0  0  0
   -4.1310   24.2490  -27.6100 C   0  0  0  0  0  0  0  0  0  0  0  0
   -1.7877   23.0827  -25.7663 H   0  0  0  0  0  0  0  0  0  0  0  0
   -1.6277   21.5052  -26.6104 H   0  0  0  0  0  0  0  0  0  0  0  0
   -0.2576   22.6668  -26.6104 H   0  0  0  0  0  0  0  0  0  0  0  0
   -0.4782   24.2113  -29.0672 H   0  0  0  0  0  0  0  0  0  0  0  0
   -0.1069   22.4551  -28.7139 H   0  0  0  0  0  0  0  0  0  0  0  0
   -1.0148   23.3949  -31.1284 H   0  0  0  0  0  0  0  0  0  0  0  0
   -1.2225   21.7129  -30.5178 H   0  0  0  0  0  0  0  0  0  0  0  0
   -3.3670   23.3500  -29.4980 H   0  0  0  0  0  0  0  0  0  0  0  0
   -3.5090   26.0430  -31.2170 H   0  0  0  0  0  0  0  0  0  0  0  0
   -8.0639   24.2314  -30.9319 H   0  0  0  0  0  0  0  0  0  0  0  0
   -9.4736   21.8814  -31.7524 H   0  0  0  0  0  0  0  0  0  0  0  0
   -9.1342   19.5335  -32.5890 H   0  0  0  0  0  0  0  0  0  0  0  0
   -4.8140   20.0692  -32.3365 H   0  0  0  0  0  0  0  0  0  0  0  0
   -2.1865   24.9769  -28.6176 H   0  0  0  0  0  0  0  0  0  0  0  0
   -1.9850   24.6357  -25.6317 H   0  0  0  0  0  0  0  0  0  0  0  0
   -2.1704   26.1639  -26.2834 H   0  0  0  0  0  0  0  0  0  0  0  0
   -4.3677   24.2613  -25.4097 H   0  0  0  0  0  0  0  0  0  0  0  0
   -4.7649   25.7679  -26.0254 H   0  0  0  0  0  0  0  0  0  0  0  0
   -4.4371   23.1928  -27.5810 H   0  0  0  0  0  0  0  0  0  0  0  0
   -4.8196   24.6067  -28.3896 H   0  0  0  0  0  0  0  0  0  0  0  0
  1  2  1  0
  2  3  1  0
  3  4  1  0
  4  5  1  0
  5  6  1  0
  6  7  2  0
  6  8  1  0
  8  9  1  0
  9 10  1  0
 10 11  1  0
 10 12  2  0
  9 13  2  0
 13 14  1  0
 14 15  2  0
 15 16  1  0
 16 17  2  0
 17 18  1  0
 18 19  1  0
 18 20  1  0
 18 21  1  0
 17 22  1  0
 22 23  2  0
  2 24  1  0
 24 25  1  0
 25 26  1  0
 26 27  1  0
 23  8  1  0
 27 24  1  0
 23 14  1  0
  1 28  1  0
  1 29  1  0
  1 30  1  0
  3 31  1  0
  3 32  1  0
  4 33  1  0
  4 34  1  0
  5 35  1  0
 11 36  1  0
 13 37  1  0
 15 38  1  0
 16 39  1  0
 22 40  1  0
 24 41  1  0
 25 42  1  0
 25 43  1  0
 26 44  1  0
 26 45  1  0
 27 46  1  0
 27 47  1  0
M  CHG  1  11  -1
M  END
>  <UniqueID>  (85) 
85

>  <SMILES>  (85) 
CN(CCNC(=O)n1c(C([NH-])=O)cc2ccc(C(F)(F)F)cc21)C1CCC1

>  <Energy>  (85) 
153.45917608482895

>  <Genealogy>  (85) 
CN(CCNC(=O)n1c(C([NH-])=O)cc2ccc(C(F)(F)F)cc21)C1CCC1 (protonated)
CN(CCNC(=O)n1c(C([NH-])=O)cc2ccc(C(F)(F)F)cc21)C1CCC1 (3D coordinates assigned)
CN(CCNC(=O)n1c(C([NH-])=O)cc2ccc(C(F)(F)F)cc21)C1CCC1 (nonaromatic ring conformer: 153.45917608482895 kcal/mol)

>  <smiles>  (85) 
CN(CCNC(=O)n1c(C(N)=O)cc2ccc(C(F)(F)F)cc21)C1CCC1

>  <score_type>  (85) 
oracle

>  <origin>  (85) 
adg

>  <m_score__min__energy>  (85) 
-10.720000000000001

>  <m_primary>  (85) 
energy

$$$$
85:0
     RDKit          3D

 46 48  0  0  0  0  0  0  0  0999 V2000
   -6.1790   23.9080  -31.8130 N   0  0  0  0  0  0  0  0  0  0  0  0
   -7.2670   23.0430  -32.1400 C   0  0  0  0  0  0  0  0  0  0  0  0
   -8.4180   23.5320  -32.2900 O   0  0  0  0  0  0  0  0  0  0  0  0
   -7.0600   21.5840  -32.2660 C   0  0  0  0  0  0  0  0  0  0  0  0
   -8.0950   20.6520  -32.3060 C   0  0  0  0  0  0  0  0  0  0  0  0
   -7.4850   19.4390  -32.5270 C   0  0  0  0  0  0  0  0  0  0  0  0
   -8.0400   18.1700  -32.6550 C   0  0  0  0  0  0  0  0  0  0  0  0
   -7.1680   17.0870  -32.8580 C   0  0  0  0  0  0  0  0  0  0  0  0
   -5.7640   17.2840  -32.9040 C   0  0  0  0  0  0  0  0  0  0  0  0
   -4.8470   16.1150  -33.1590 C   0  0  0  0  0  0  0  0  0  0  0  0
   -4.7400   15.3170  -32.0330 F   0  0  0  0  0  0  0  0  0  0  0  0
   -3.5930   16.5860  -33.4990 F   0  0  0  0  0  0  0  0  0  0  0  0
   -5.3320   15.3350  -34.1950 F   0  0  0  0  0  0  0  0  0  0  0  0
   -5.2400   18.5940  -32.7940 C   0  0  0  0  0  0  0  0  0  0  0  0
   -6.1340   19.6570  -32.6110 C   0  0  0  0  0  0  0  0  0  0  0  0
   -5.8570   20.9710  -32.4540 N   0  0  0  0  0  0  0  0  0  0  0  0
   -4.5530   21.5750  -32.4020 C   0  0  0  0  0  0  0  0  0  0  0  0
   -4.2050   22.4010  -33.2890 O   0  0  0  0  0  0  0  0  0  0  0  0
   -3.6680   21.2280  -31.3770 O   0  0  0  0  0  0  0  0  0  0  0  0
   -3.2440   22.1540  -30.3830 C   0  0  0  0  0  0  0  0  0  0  0  0
   -3.1740   23.4600  -30.9440 O   0  0  0  0  0  0  0  0  0  0  0  0
   -3.4990   24.6180  -30.2280 C   0  0  0  0  0  0  0  0  0  0  0  0
   -4.6330   25.1500  -30.3540 O   0  0  0  0  0  0  0  0  0  0  0  0
   -2.5420   25.2150  -29.3470 N   0  0  0  0  0  0  0  0  0  0  0  0
   -1.9910   24.5950  -28.1380 C   0  0  0  0  0  0  0  0  0  0  0  0
   -0.6330   23.9270  -28.3900 C   0  0  0  0  0  0  0  0  0  0  0  0
   -0.7930   22.4610  -28.0040 C   0  0  0  0  0  0  0  0  0  0  0  0
   -2.0160   22.3970  -27.1040 C   0  0  0  0  0  0  0  0  0  0  0  0
   -2.9240   23.5230  -27.5670 C   0  0  0  0  0  0  0  0  0  0  0  0
   -6.3430   24.9320  -31.6880 H   0  0  0  0  0  0  0  0  0  0  0  0
   -5.2050   23.5440  -31.7280 H   0  0  0  0  0  0  0  0  0  0  0  0
   -9.1713   20.8452  -32.1863 H   0  0  0  0  0  0  0  0  0  0  0  0
   -9.1281   18.0189  -32.5990 H   0  0  0  0  0  0  0  0  0  0  0  0
   -7.5790   16.0743  -32.9827 H   0  0  0  0  0  0  0  0  0  0  0  0
   -4.1562   18.7734  -32.8508 H   0  0  0  0  0  0  0  0  0  0  0  0
   -3.9628   22.1516  -29.5504 H   0  0  0  0  0  0  0  0  0  0  0  0
   -2.2500   21.8622  -30.0131 H   0  0  0  0  0  0  0  0  0  0  0  0
   -1.8750   25.4225  -27.4225 H   0  0  0  0  0  0  0  0  0  0  0  0
   -0.3587   24.0126  -29.4518 H   0  0  0  0  0  0  0  0  0  0  0  0
    0.1622   24.4085  -27.8019 H   0  0  0  0  0  0  0  0  0  0  0  0
   -0.9460   21.8437  -28.9015 H   0  0  0  0  0  0  0  0  0  0  0  0
    0.1034   22.0780  -27.4943 H   0  0  0  0  0  0  0  0  0  0  0  0
   -2.5221   21.4264  -27.2126 H   0  0  0  0  0  0  0  0  0  0  0  0
   -1.7461   22.5023  -26.0428 H   0  0  0  0  0  0  0  0  0  0  0  0
   -3.6165   23.1638  -28.3425 H   0  0  0  0  0  0  0  0  0  0  0  0
   -3.5391   23.9150  -26.7436 H   0  0  0  0  0  0  0  0  0  0  0  0
  1  2  1  0
  2  3  2  0
  2  4  1  0
  4  5  2  0
  5  6  1  0
  6  7  2  0
  7  8  1  0
  8  9  2  0
  9 10  1  0
 10 11  1  0
 10 12  1  0
 10 13  1  0
  9 14  1  0
 14 15  2  0
 15 16  1  0
 16 17  1  0
 17 18  2  0
 17 19  1  0
 19 20  1  0
 20 21  1  0
 21 22  1  0
 22 23  2  0
 22 24  1  0
 24 25  1  0
 25 26  1  0
 26 27  1  0
 27 28  1  0
 28 29  1  0
 16  4  1  0
 29 25  1  0
 15  6  1  0
  1 30  1  0
  1 31  1  0
  5 32  1  0
  7 33  1  0
  8 34  1  0
 14 35  1  0
 20 36  1  0
 20 37  1  0
 25 38  1  0
 26 39  1  0
 26 40  1  0
 27 41  1  0
 27 42  1  0
 28 43  1  0
 28 44  1  0
 29 45  1  0
 29 46  1  0
M  CHG  1  24  -1
M  END
>  <UniqueID>  (86) 
86

>  <SMILES>  (86) 
NC(=O)c1cc2ccc(C(F)(F)F)cc2n1C(=O)OCOC(=O)[N-]C1CCCC1

>  <Energy>  (86) 
81.63261647953573

>  <Genealogy>  (86) 
NC(=O)c1cc2ccc(C(F)(F)F)cc2n1C(=O)OCOC(=O)[N-]C1CCCC1 (protonated)
NC(=O)c1cc2ccc(C(F)(F)F)cc2n1C(=O)OCOC(=O)[N-]C1CCCC1 (3D coordinates assigned)
NC(=O)c1cc2ccc(C(F)(F)F)cc2n1C(=O)OCOC(=O)[N-]C1CCCC1 (nonaromatic ring conformer: 81.63261647953573 kcal/mol)

>  <smiles>  (86) 
NC(=O)c1cc2ccc(C(F)(F)F)cc2n1C(=O)OCOC(=O)NC1CCCC1

>  <score_type>  (86) 
oracle

>  <origin>  (86) 
adg

>  <m_score__min__energy>  (86) 
-9.5199999999999996

>  <m_primary>  (86) 
energy

$$$$
86:0
     RDKit          3D

 42 43  0  0  0  0  0  0  0  0999 V2000
   -3.8860   25.6700  -30.8450 N   0  0  0  0  0  0  0  0  0  0  0  0
   -5.1890   25.2720  -30.4290 C   0  0  0  0  0  0  0  0  0  0  0  0
   -5.8640   26.0410  -29.6940 O   0  0  0  0  0  0  0  0  0  0  0  0
   -5.7790   23.9990  -30.8930 C   0  0  0  0  0  0  0  0  0  0  0  0
   -7.1520   23.7650  -30.9410 C   0  0  0  0  0  0  0  0  0  0  0  0
   -7.2890   22.5170  -31.5050 C   0  0  0  0  0  0  0  0  0  0  0  0
   -8.4380   21.7820  -31.7800 C   0  0  0  0  0  0  0  0  0  0  0  0
   -8.2830   20.5040  -32.3410 C   0  0  0  0  0  0  0  0  0  0  0  0
   -6.9910   19.9820  -32.6040 C   0  0  0  0  0  0  0  0  0  0  0  0
   -6.8350   18.6130  -33.2150 C   0  0  0  0  0  0  0  0  0  0  0  0
   -5.7410   18.5770  -34.2960 C   0  0  0  0  0  0  0  0  0  0  0  0
   -4.3200   18.5140  -33.7160 C   0  0  0  0  0  0  0  0  0  0  0  0
   -3.5890   19.6650  -34.0420 O   0  0  0  0  0  0  0  0  0  0  0  0
   -5.8480   20.7580  -32.3110 C   0  0  0  0  0  0  0  0  0  0  0  0
   -6.0330   22.0370  -31.7720 C   0  0  0  0  0  0  0  0  0  0  0  0
   -5.0930   22.9350  -31.4000 N   0  0  0  0  0  0  0  0  0  0  0  0
   -3.6700   22.7470  -31.4350 C   0  0  0  0  0  0  0  0  0  0  0  0
   -3.1270   22.2240  -32.4460 O   0  0  0  0  0  0  0  0  0  0  0  0
   -2.8950   23.1270  -30.3350 O   0  0  0  0  0  0  0  0  0  0  0  0
   -3.2290   22.7740  -28.9970 C   0  0  0  0  0  0  0  0  0  0  0  0
   -2.2220   23.3910  -28.0250 C   0  0  0  0  0  0  0  0  0  0  0  0
   -2.1880   24.9210  -28.1000 C   0  0  0  0  0  0  0  0  0  0  0  0
   -1.6160   25.3460  -29.3090 O   0  0  0  0  0  0  0  0  0  0  0  0
   -3.0320   25.2940  -30.3740 H   0  0  0  0  0  0  0  0  0  0  0  0
   -7.9552   24.4351  -30.6006 H   0  0  0  0  0  0  0  0  0  0  0  0
   -9.4368   22.1894  -31.5646 H   0  0  0  0  0  0  0  0  0  0  0  0
   -9.1724   19.9020  -32.5787 H   0  0  0  0  0  0  0  0  0  0  0  0
   -6.5711   17.8992  -32.4208 H   0  0  0  0  0  0  0  0  0  0  0  0
   -7.7893   18.3473  -33.6932 H   0  0  0  0  0  0  0  0  0  0  0  0
   -5.9012   17.6898  -34.9263 H   0  0  0  0  0  0  0  0  0  0  0  0
   -5.8185   19.5114  -34.8712 H   0  0  0  0  0  0  0  0  0  0  0  0
   -4.3826   18.4265  -32.6213 H   0  0  0  0  0  0  0  0  0  0  0  0
   -3.8063   17.6413  -34.1455 H   0  0  0  0  0  0  0  0  0  0  0  0
   -3.6320   20.2630  -33.2510 H   0  0  0  0  0  0  0  0  0  0  0  0
   -4.8375   20.3674  -32.5015 H   0  0  0  0  0  0  0  0  0  0  0  0
   -4.2368   23.1474  -28.7628 H   0  0  0  0  0  0  0  0  0  0  0  0
   -3.2033   21.6790  -28.8959 H   0  0  0  0  0  0  0  0  0  0  0  0
   -2.4944   23.0949  -27.0012 H   0  0  0  0  0  0  0  0  0  0  0  0
   -1.2235   23.0227  -28.3032 H   0  0  0  0  0  0  0  0  0  0  0  0
   -3.2150   25.3088  -28.0305 H   0  0  0  0  0  0  0  0  0  0  0  0
   -1.5787   25.3023  -27.2673 H   0  0  0  0  0  0  0  0  0  0  0  0
   -1.9930   24.7690  -30.0240 H   0  0  0  0  0  0  0  0  0  0  0  0
  1  2  1  0
  2  3  2  0
  2  4  1  0
  4  5  2  0
  5  6  1  0
  6  7  2  0
  7  8  1  0
  8  9  2  0
  9 10  1  0
 10 11  1  0
 11 12  1  0
 12 13  1  0
  9 14  1  0
 14 15  2  0
 15 16  1  0
 16 17  1  0
 17 18  2  0
 17 19  1  0
 19 20  1  0
 20 21  1  0
 21 22  1  0
 22 23  1  0
 16  4  1  0
 15  6  1  0
  1 24  1  0
  5 25  1  0
  7 26  1  0
  8 27  1  0
 10 28  1  0
 10 29  1  0
 11 30  1  0
 11 31  1  0
 12 32  1  0
 12 33  1  0
 13 34  1  0
 14 35  1  0
 20 36  1  0
 20 37  1  0
 21 38  1  0
 21 39  1  0
 22 40  1  0
 22 41  1  0
 23 42  1  0
M  CHG  1   1  -1
M  END
>  <UniqueID>  (87) 
87

>  <SMILES>  (87) 
[NH-]C(=O)c1cc2ccc(CCCO)cc2n1C(=O)OCCCO

>  <Energy>  (87) 
70.78005156881316

>  <Genealogy>  (87) 
[NH-]C(=O)c1cc2ccc(CCCO)cc2n1C(=O)OCCCO (protonated)
[NH-]C(=O)c1cc2ccc(CCCO)cc2n1C(=O)OCCCO (3D coordinates assigned)
[NH-]C(=O)c1cc2ccc(CCCO)cc2n1C(=O)OCCCO (optimized conformer: 70.78005156881316 kcal/mol)

>  <smiles>  (87) 
NC(=O)c1cc2ccc(CCCO)cc2n1C(=O)OCCCO

>  <score_type>  (87) 
oracle

>  <origin>  (87) 
adg

>  <m_score__min__energy>  (87) 
-10.02

>  <m_primary>  (87) 
energy

$$$$
87:0
     RDKit          3D

 36 38  0  0  0  0  0  0  0  0999 V2000
   -0.4229   21.8726  -29.2619 H   0  0  0  0  0  0  0  0  0  0  0  0
   -1.2310   22.6130  -29.1680 C   0  0  0  0  0  0  0  0  0  0  0  0
   -2.6160   22.0860  -29.1730 C   0  0  0  0  0  0  0  0  0  0  0  0
   -3.2050   21.7870  -28.1010 O   0  0  0  0  0  0  0  0  0  0  0  0
   -3.3200   21.9590  -30.4190 N   0  0  0  0  0  0  0  0  0  0  0  0
   -4.6240   22.2660  -30.6690 C   0  0  0  0  0  0  0  0  0  0  0  0
   -5.5480   22.9170  -29.7120 C   0  0  0  0  0  0  0  0  0  0  0  0
   -6.7930   22.7790  -29.8430 O   0  0  0  0  0  0  0  0  0  0  0  0
   -5.0470   23.6870  -28.6170 N   0  0  0  0  0  0  0  0  0  0  0  0
   -5.7090   24.1090  -27.9290 H   0  0  0  0  0  0  0  0  0  0  0  0
   -4.0270   23.8810  -28.5090 H   0  0  0  0  0  0  0  0  0  0  0  0
   -4.9530   21.9490  -31.9880 C   0  0  0  0  0  0  0  0  0  0  0  0
   -5.9257   22.0844  -32.4835 H   0  0  0  0  0  0  0  0  0  0  0  0
   -3.8020   21.4310  -32.5370 C   0  0  0  0  0  0  0  0  0  0  0  0
   -3.5600   20.9480  -33.8200 C   0  0  0  0  0  0  0  0  0  0  0  0
   -4.3480   20.9568  -34.5874 H   0  0  0  0  0  0  0  0  0  0  0  0
   -2.2780   20.4490  -34.1040 C   0  0  0  0  0  0  0  0  0  0  0  0
   -2.0507   20.0747  -35.1131 H   0  0  0  0  0  0  0  0  0  0  0  0
   -1.2750   20.4230  -33.1040 C   0  0  0  0  0  0  0  0  0  0  0  0
    0.1000   19.9090  -33.4250 C   0  0  0  0  0  0  0  0  0  0  0  0
    0.6364   19.6940  -32.4890 H   0  0  0  0  0  0  0  0  0  0  0  0
    0.0119   18.9903  -34.0235 H   0  0  0  0  0  0  0  0  0  0  0  0
    0.8580   20.9330  -34.2060 C   0  0  0  0  0  0  0  0  0  0  0  0
    0.3460   22.1050  -34.6180 N   0  0  0  0  0  0  0  0  0  0  0  0
    1.3170   22.6660  -35.3180 N   0  0  0  0  0  0  0  0  0  0  0  0
    2.3720   21.8670  -35.3420 N   0  0  0  0  0  0  0  0  0  0  0  0
    2.1140   20.7640  -34.6570 N   0  0  0  0  0  0  0  0  0  0  0  0
   -1.5550   20.9300  -31.8160 C   0  0  0  0  0  0  0  0  0  0  0  0
   -0.7879   20.9218  -31.0277 H   0  0  0  0  0  0  0  0  0  0  0  0
   -2.8330   21.4430  -31.5680 C   0  0  0  0  0  0  0  0  0  0  0  0
   -0.8580   23.8980  -29.0610 C   0  0  0  0  0  0  0  0  0  0  0  0
    0.4680   24.1790  -29.0690 F   0  0  0  0  0  0  0  0  0  0  0  0
   -1.9930   25.2770  -28.8460 P   0  0  0  0  0  0  0  0  0  0  0  0
   -2.6340   25.1840  -27.4800 O   0  0  0  0  0  0  0  0  0  0  0  0
   -3.2010   25.2170  -30.0280 O   0  0  0  0  0  0  0  0  0  0  0  0
   -1.1510   26.7400  -28.9610 O   0  0  0  0  0  0  0  0  0  0  0  0
  1  2  1  0
  2  3  1  0
  3  4  2  0
  3  5  1  0
  5  6  1  0
  6  7  1  0
  7  8  2  0
  7  9  1  0
  9 10  1  0
  9 11  1  0
  6 12  2  0
 12 13  1  0
 12 14  1  0
 14 15  2  0
 15 16  1  0
 15 17  1  0
 17 18  1  0
 17 19  2  0
 19 20  1  0
 20 21  1  0
 20 22  1  0
 20 23  1  0
 23 24  1  0
 24 25  2  0
 25 26  1  0
 26 27  1  0
 19 28  1  0
 28 29  1  0
 28 30  2  0
  2 31  2  0
 31 32  1  0
 31 33  1  0
 33 34  2  0
 33 35  1  0
 33 36  1  0
 30  5  1  0
 30 14  1  0
 27 23  2  0
M  CHG  3  26  -1  35  -1  36  -1
M  END
>  <UniqueID>  (88) 
88

>  <SMILES>  (88) 
NC(=O)c1cc2ccc(Cc3nn[n-]n3)cc2n1C(=O)/C=C(/F)P(=O)([O-])[O-]

>  <Energy>  (88) 
114.30177555094812

>  <Genealogy>  (88) 
NC(=O)c1cc2ccc(Cc3nn[n-]n3)cc2n1C(=O)C=C(F)P(=O)([O-])[O-] (protonated)
NC(=O)c1cc2ccc(Cc3nn[n-]n3)cc2n1C(=O)/C=C(/F)P(=O)([O-])[O-] (cis-trans isomerization)
NC(=O)c1cc2ccc(Cc3nn[n-]n3)cc2n1C(=O)/C=C(/F)P(=O)([O-])[O-] (3D coordinates assigned)
NC(=O)c1cc2ccc(Cc3nn[n-]n3)cc2n1C(=O)/C=C(/F)P(=O)([O-])[O-] (optimized conformer: 114.30177555094812 kcal/mol)

>  <smiles>  (88) 
NC(=O)c1cc2ccc(Cc3nn[nH]n3)cc2n1C(=O)C=C(F)P(=O)(O)O

>  <score_type>  (88) 
oracle

>  <origin>  (88) 
adg

>  <m_score__min__energy>  (88) 
-13.74

>  <m_primary>  (88) 
energy

$$$$
88:0
     RDKit          3D

 41 43  0  0  0  0  0  0  0  0999 V2000
   -4.1080   24.4850  -27.1360 C   0  0  0  0  0  0  0  0  0  0  0  0
   -2.6240   24.3300  -27.1160 C   0  0  0  0  0  0  0  0  0  0  0  0
   -1.8630   24.4910  -26.0150 N   0  0  0  0  0  0  0  0  0  0  0  0
   -0.6080   24.2400  -26.3610 N   0  0  0  0  0  0  0  0  0  0  0  0
    0.5210   24.3600  -25.4500 C   0  0  0  0  0  0  0  0  0  0  0  0
   -0.5350   23.9300  -27.6710 C   0  0  0  0  0  0  0  0  0  0  0  0
   -1.8160   23.9810  -28.1820 C   0  0  0  0  0  0  0  0  0  0  0  0
   -2.2540   23.6550  -29.5120 N   0  0  0  0  0  0  0  0  0  0  0  0
   -3.0580   22.5100  -29.8340 C   0  0  0  0  0  0  0  0  0  0  0  0
   -3.1780   21.5620  -29.0120 O   0  0  0  0  0  0  0  0  0  0  0  0
   -3.7220   22.4090  -31.1470 C   0  0  0  0  0  0  0  0  0  0  0  0
   -3.0450   22.1400  -32.1760 O   0  0  0  0  0  0  0  0  0  0  0  0
   -5.1350   22.6270  -31.2690 N   0  0  0  0  0  0  0  0  0  0  0  0
   -5.8350   23.7530  -30.9530 C   0  0  0  0  0  0  0  0  0  0  0  0
   -5.2530   25.0450  -30.5320 C   0  0  0  0  0  0  0  0  0  0  0  0
   -3.8560   25.2990  -30.6570 N   0  0  0  0  0  0  0  0  0  0  0  0
   -6.0030   25.9510  -30.0790 O   0  0  0  0  0  0  0  0  0  0  0  0
   -7.2010   23.5420  -31.1330 C   0  0  0  0  0  0  0  0  0  0  0  0
   -7.3160   22.2420  -31.5700 C   0  0  0  0  0  0  0  0  0  0  0  0
   -8.4470   21.5020  -31.8980 C   0  0  0  0  0  0  0  0  0  0  0  0
   -8.2690   20.1670  -32.2970 C   0  0  0  0  0  0  0  0  0  0  0  0
   -6.9730   19.5870  -32.3350 C   0  0  0  0  0  0  0  0  0  0  0  0
   -6.7860   18.1650  -32.7970 C   0  0  0  0  0  0  0  0  0  0  0  0
   -7.9660   17.4680  -32.6140 F   0  0  0  0  0  0  0  0  0  0  0  0
   -6.4450   18.1320  -34.1380 F   0  0  0  0  0  0  0  0  0  0  0  0
   -5.7780   17.5430  -32.0810 F   0  0  0  0  0  0  0  0  0  0  0  0
   -5.8470   20.3790  -32.0150 C   0  0  0  0  0  0  0  0  0  0  0  0
   -6.0550   21.7100  -31.6390 C   0  0  0  0  0  0  0  0  0  0  0  0
   -4.4865   24.5245  -26.1039 H   0  0  0  0  0  0  0  0  0  0  0  0
   -4.3724   25.4157  -27.6594 H   0  0  0  0  0  0  0  0  0  0  0  0
   -4.5590   23.6291  -27.6594 H   0  0  0  0  0  0  0  0  0  0  0  0
    0.1600   24.3216  -24.4116 H   0  0  0  0  0  0  0  0  0  0  0  0
    1.2230   23.5314  -25.6250 H   0  0  0  0  0  0  0  0  0  0  0  0
    1.0332   25.3176  -25.6250 H   0  0  0  0  0  0  0  0  0  0  0  0
    0.3789   23.6817  -28.2305 H   0  0  0  0  0  0  0  0  0  0  0  0
   -1.9570   24.2870  -30.2880 H   0  0  0  0  0  0  0  0  0  0  0  0
   -3.5000   26.0420  -31.2970 H   0  0  0  0  0  0  0  0  0  0  0  0
   -8.0148   24.2621  -30.9620 H   0  0  0  0  0  0  0  0  0  0  0  0
   -9.4509   21.9488  -31.8465 H   0  0  0  0  0  0  0  0  0  0  0  0
   -9.1432   19.5639  -32.5833 H   0  0  0  0  0  0  0  0  0  0  0  0
   -4.8315   19.9587  -32.0606 H   0  0  0  0  0  0  0  0  0  0  0  0
  1  2  1  0
  2  3  2  0
  3  4  1  0
  4  5  1  0
  4  6  1  0
  6  7  2  0
  7  8  1  0
  8  9  1  0
  9 10  2  0
  9 11  1  0
 11 12  2  0
 11 13  1  0
 13 14  1  0
 14 15  1  0
 15 16  1  0
 15 17  2  0
 14 18  2  0
 18 19  1  0
 19 20  2  0
 20 21  1  0
 21 22  2  0
 22 23  1  0
 23 24  1  0
 23 25  1  0
 23 26  1  0
 22 27  1  0
 27 28  2  0
  7  2  1  0
 28 13  1  0
 28 19  1  0
  1 29  1  0
  1 30  1  0
  1 31  1  0
  5 32  1  0
  5 33  1  0
  5 34  1  0
  6 35  1  0
  8 36  1  0
 16 37  1  0
 18 38  1  0
 20 39  1  0
 21 40  1  0
 27 41  1  0
M  CHG  1  16  -1
M  END
>  <UniqueID>  (89) 
89

>  <SMILES>  (89) 
Cc1nn(C)cc1NC(=O)C(=O)n1c(C([NH-])=O)cc2ccc(C(F)(F)F)cc21

>  <Energy>  (89) 
113.64815221049271

>  <Genealogy>  (89) 
Cc1nn(C)cc1NC(=O)C(=O)n1c(C([NH-])=O)cc2ccc(C(F)(F)F)cc21 (protonated)
Cc1nn(C)cc1NC(=O)C(=O)n1c(C([NH-])=O)cc2ccc(C(F)(F)F)cc21 (3D coordinates assigned)
Cc1nn(C)cc1NC(=O)C(=O)n1c(C([NH-])=O)cc2ccc(C(F)(F)F)cc21 (optimized conformer: 113.64815221049271 kcal/mol)

>  <smiles>  (89) 
Cc1nn(C)cc1NC(=O)C(=O)n1c(C(N)=O)cc2ccc(C(F)(F)F)cc21

>  <score_type>  (89) 
oracle

>  <origin>  (89) 
adg

>  <m_score__min__energy>  (89) 
-10.77

>  <m_primary>  (89) 
energy

$$$$
89:0
     RDKit          3D

 44 47  0  0  0  0  0  0  0  0999 V2000
   -3.6920   25.1310  -30.1870 N   0  0  0  0  0  0  0  0  0  0  0  0
   -5.0000   24.5690  -30.0810 C   0  0  0  0  0  0  0  0  0  0  0  0
   -5.8520   25.1160  -29.3330 O   0  0  0  0  0  0  0  0  0  0  0  0
   -5.3440   23.3190  -30.7790 C   0  0  0  0  0  0  0  0  0  0  0  0
   -6.4430   23.1900  -31.6240 C   0  0  0  0  0  0  0  0  0  0  0  0
   -6.3680   21.9070  -32.1190 C   0  0  0  0  0  0  0  0  0  0  0  0
   -7.2110   21.2330  -32.9910 C   0  0  0  0  0  0  0  0  0  0  0  0
   -6.8950   19.9050  -33.3240 C   0  0  0  0  0  0  0  0  0  0  0  0
   -5.7430   19.2550  -32.7840 C   0  0  0  0  0  0  0  0  0  0  0  0
   -5.4270   17.8700  -33.1230 N   0  0  0  0  0  0  0  0  0  0  0  0
   -4.0150   17.4320  -33.1470 C   0  0  0  0  0  0  0  0  0  0  0  0
   -3.8390   15.9400  -33.4420 C   0  0  0  0  0  0  0  0  0  0  0  0
   -4.7710   15.5010  -34.4010 O   0  0  0  0  0  0  0  0  0  0  0  0
   -6.0530   15.5320  -33.8210 C   0  0  0  0  0  0  0  0  0  0  0  0
   -6.5110   16.9720  -33.5780 C   0  0  0  0  0  0  0  0  0  0  0  0
   -4.9160   19.9960  -31.8940 C   0  0  0  0  0  0  0  0  0  0  0  0
   -5.2510   21.3200  -31.5930 C   0  0  0  0  0  0  0  0  0  0  0  0
   -4.6060   22.1750  -30.7700 N   0  0  0  0  0  0  0  0  0  0  0  0
   -3.3170   21.9620  -30.1730 C   0  0  0  0  0  0  0  0  0  0  0  0
   -3.2010   21.2300  -29.1550 O   0  0  0  0  0  0  0  0  0  0  0  0
   -2.1600   22.5790  -30.7480 N   0  0  0  0  0  0  0  0  0  0  0  0
   -0.9950   22.9850  -29.9740 C   0  0  0  0  0  0  0  0  0  0  0  0
   -1.3790   24.0740  -29.0260 C   0  0  0  0  0  0  0  0  0  0  0  0
   -1.3210   25.3860  -29.3330 N   0  0  0  0  0  0  0  0  0  0  0  0
   -1.8080   25.9920  -28.2940 O   0  0  0  0  0  0  0  0  0  0  0  0
   -2.1550   25.1020  -27.4010 C   0  0  0  0  0  0  0  0  0  0  0  0
   -2.6650   25.3880  -26.2880 O   0  0  0  0  0  0  0  0  0  0  0  0
   -1.9150   23.8440  -27.8080 N   0  0  0  0  0  0  0  0  0  0  0  0
   -2.9160   24.5950  -30.6340 H   0  0  0  0  0  0  0  0  0  0  0  0
   -3.4730   26.0410  -29.7250 H   0  0  0  0  0  0  0  0  0  0  0  0
   -7.2067   23.9493  -31.8480 H   0  0  0  0  0  0  0  0  0  0  0  0
   -8.1016   21.7245  -33.4098 H   0  0  0  0  0  0  0  0  0  0  0  0
   -7.5490   19.3537  -34.0157 H   0  0  0  0  0  0  0  0  0  0  0  0
   -3.4869   18.0044  -33.9238 H   0  0  0  0  0  0  0  0  0  0  0  0
   -3.6053   17.6118  -32.1421 H   0  0  0  0  0  0  0  0  0  0  0  0
   -2.8219   15.7665  -33.8234 H   0  0  0  0  0  0  0  0  0  0  0  0
   -4.0033   15.3774  -32.5111 H   0  0  0  0  0  0  0  0  0  0  0  0
   -6.7657   15.0372  -34.4972 H   0  0  0  0  0  0  0  0  0  0  0  0
   -6.0126   15.0094  -32.8539 H   0  0  0  0  0  0  0  0  0  0  0  0
   -6.9205   17.3699  -34.5182 H   0  0  0  0  0  0  0  0  0  0  0  0
   -7.2618   16.9402  -32.7747 H   0  0  0  0  0  0  0  0  0  0  0  0
   -4.0236   19.5327  -31.4480 H   0  0  0  0  0  0  0  0  0  0  0  0
   -0.6137   22.1232  -29.4067 H   0  0  0  0  0  0  0  0  0  0  0  0
   -0.2131   23.3520  -30.6552 H   0  0  0  0  0  0  0  0  0  0  0  0
  1  2  1  0
  2  3  2  0
  2  4  1  0
  4  5  2  0
  5  6  1  0
  6  7  2  0
  7  8  1  0
  8  9  2  0
  9 10  1  0
 10 11  1  0
 11 12  1  0
 12 13  1  0
 13 14  1  0
 14 15  1  0
  9 16  1  0
 16 17  2  0
 17 18  1  0
 18 19  1  0
 19 20  2  0
 19 21  1  0
 21 22  1  0
 22 23  1  0
 23 24  2  0
 24 25  1  0
 25 26  1  0
 26 27  2  0
 26 28  1  0
 18  4  1  0
 28 23  1  0
 17  6  1  0
 15 10  1  0
  1 29  1  0
  1 30  1  0
  5 31  1  0
  7 32  1  0
  8 33  1  0
 11 34  1  0
 11 35  1  0
 12 36  1  0
 12 37  1  0
 14 38  1  0
 14 39  1  0
 15 40  1  0
 15 41  1  0
 16 42  1  0
 22 43  1  0
 22 44  1  0
M  CHG  2  21  -1  28  -1
M  END
>  <UniqueID>  (90) 
90

>  <SMILES>  (90) 
NC(=O)c1cc2ccc(N3CCOCC3)cc2n1C(=O)[N-]Cc1noc(=O)[n-]1

>  <Energy>  (90) 
127.95365097144938

>  <Genealogy>  (90) 
NC(=O)c1cc2ccc(N3CCOCC3)cc2n1C(=O)[N-]Cc1noc(=O)[n-]1 (protonated)
NC(=O)c1cc2ccc(N3CCOCC3)cc2n1C(=O)[N-]Cc1noc(=O)[n-]1 (3D coordinates assigned)
NC(=O)c1cc2ccc(N3CCOCC3)cc2n1C(=O)[N-]Cc1noc(=O)[n-]1 (nonaromatic ring conformer: 127.95365097144938 kcal/mol)

>  <smiles>  (90) 
NC(=O)c1cc2ccc(N3CCOCC3)cc2n1C(=O)NCc1noc(=O)[nH]1

>  <score_type>  (90) 
oracle

>  <origin>  (90) 
adg

>  <m_score__min__energy>  (90) 
-11.16

>  <m_primary>  (90) 
energy

$$$$
90:0
     RDKit          3D

 36 38  0  0  0  0  0  0  0  0999 V2000
   -4.4190   25.6500  -30.8180 N   0  0  0  0  0  0  0  0  0  0  0  0
   -5.6910   25.0470  -30.6110 C   0  0  0  0  0  0  0  0  0  0  0  0
   -6.6040   25.7100  -30.0490 O   0  0  0  0  0  0  0  0  0  0  0  0
   -5.9630   23.6700  -31.0710 C   0  0  0  0  0  0  0  0  0  0  0  0
   -7.2300   23.2100  -31.4300 C   0  0  0  0  0  0  0  0  0  0  0  0
   -7.0430   21.9120  -31.8460 C   0  0  0  0  0  0  0  0  0  0  0  0
   -7.9620   20.9740  -32.3070 C   0  0  0  0  0  0  0  0  0  0  0  0
   -7.4830   19.7000  -32.6580 C   0  0  0  0  0  0  0  0  0  0  0  0
   -6.1000   19.3910  -32.5620 C   0  0  0  0  0  0  0  0  0  0  0  0
   -5.6070   18.0050  -32.8900 C   0  0  0  0  0  0  0  0  0  0  0  0
   -5.8850   17.1300  -31.8550 F   0  0  0  0  0  0  0  0  0  0  0  0
   -6.2200   17.5280  -34.0370 F   0  0  0  0  0  0  0  0  0  0  0  0
   -4.2400   18.0450  -33.0930 F   0  0  0  0  0  0  0  0  0  0  0  0
   -5.2030   20.3670  -32.0680 C   0  0  0  0  0  0  0  0  0  0  0  0
   -5.7090   21.6250  -31.7280 C   0  0  0  0  0  0  0  0  0  0  0  0
   -5.0360   22.6870  -31.2420 N   0  0  0  0  0  0  0  0  0  0  0  0
   -3.6260   22.7290  -30.9700 C   0  0  0  0  0  0  0  0  0  0  0  0
   -2.8180   22.5630  -31.9210 O   0  0  0  0  0  0  0  0  0  0  0  0
   -3.0900   22.8530  -29.5570 C   0  0  0  0  0  0  0  0  0  0  0  0
   -1.5680   22.9650  -29.3430 C   0  0  0  0  0  0  0  0  0  0  0  0
   -1.1690   24.3800  -29.0740 C   0  0  0  0  0  0  0  0  0  0  0  0
   -1.9640   25.3230  -29.3300 O   0  0  0  0  0  0  0  0  0  0  0  0
    0.0690   24.6580  -28.5070 O   0  0  0  0  0  0  0  0  0  0  0  0
   -3.9890   23.4280  -28.4650 C   0  0  0  0  0  0  0  0  0  0  0  0
   -3.7850   21.9230  -28.5640 C   0  0  0  0  0  0  0  0  0  0  0  0
   -3.8690   26.0330  -30.0170 H   0  0  0  0  0  0  0  0  0  0  0  0
   -8.1777   23.7670  -31.3892 H   0  0  0  0  0  0  0  0  0  0  0  0
   -9.0302   21.2220  -32.3940 H   0  0  0  0  0  0  0  0  0  0  0  0
   -8.1878   18.9329  -33.0113 H   0  0  0  0  0  0  0  0  0  0  0  0
   -4.1324   20.1413  -31.9541 H   0  0  0  0  0  0  0  0  0  0  0  0
   -1.2781   22.3400  -28.4855 H   0  0  0  0  0  0  0  0  0  0  0  0
   -1.0590   22.6244  -30.2568 H   0  0  0  0  0  0  0  0  0  0  0  0
   -3.5472   23.9886  -27.6280 H   0  0  0  0  0  0  0  0  0  0  0  0
   -4.8643   24.0941  -28.4499 H   0  0  0  0  0  0  0  0  0  0  0  0
   -3.1957   21.3966  -27.7988 H   0  0  0  0  0  0  0  0  0  0  0  0
   -4.4516   21.0522  -28.6502 H   0  0  0  0  0  0  0  0  0  0  0  0
  1  2  1  0
  2  3  2  0
  2  4  1  0
  4  5  2  0
  5  6  1  0
  6  7  2  0
  7  8  1  0
  8  9  2  0
  9 10  1  0
 10 11  1  0
 10 12  1  0
 10 13  1  0
  9 14  1  0
 14 15  2  0
 15 16  1  0
 16 17  1  0
 17 18  2  0
 17 19  1  0
 19 20  1  0
 20 21  1  0
 21 22  2  0
 21 23  1  0
 19 24  1  0
 24 25  1  0
 16  4  1  0
 25 19  1  0
 15  6  1  0
  1 26  1  0
  5 27  1  0
  7 28  1  0
  8 29  1  0
 14 30  1  0
 20 31  1  0
 20 32  1  0
 24 33  1  0
 24 34  1  0
 25 35  1  0
 25 36  1  0
M  CHG  2   1  -1  23  -1
M  END
>  <UniqueID>  (91) 
91

>  <SMILES>  (91) 
[NH-]C(=O)c1cc2ccc(C(F)(F)F)cc2n1C(=O)C1(CC(=O)[O-])CC1

>  <Energy>  (91) 
343.6374224865693

>  <Genealogy>  (91) 
[NH-]C(=O)c1cc2ccc(C(F)(F)F)cc2n1C(=O)C1(CC(=O)[O-])CC1 (protonated)
[NH-]C(=O)c1cc2ccc(C(F)(F)F)cc2n1C(=O)C1(CC(=O)[O-])CC1 (3D coordinates assigned)
[NH-]C(=O)c1cc2ccc(C(F)(F)F)cc2n1C(=O)C1(CC(=O)[O-])CC1 (nonaromatic ring conformer: 343.6374224865693 kcal/mol)

>  <smiles>  (91) 
NC(=O)c1cc2ccc(C(F)(F)F)cc2n1C(=O)C1(CC(=O)O)CC1

>  <score_type>  (91) 
oracle

>  <origin>  (91) 
adg

>  <m_score__min__energy>  (91) 
-12.640000000000001

>  <m_primary>  (91) 
energy

$$$$
91:0
     RDKit          3D

 53 56  0  0  0  0  0  0  0  0999 V2000
   -2.7500   19.5760  -26.7830 C   0  0  0  0  0  0  0  0  0  0  0  0
   -2.0880   19.7180  -27.9300 C   0  0  0  0  0  0  0  0  0  0  0  0
   -1.9910   21.0120  -28.6320 C   0  0  0  0  0  0  0  0  0  0  0  0
   -1.9440   22.0940  -27.9860 O   0  0  0  0  0  0  0  0  0  0  0  0
   -1.9430   21.0430  -30.0570 N   0  0  0  0  0  0  0  0  0  0  0  0
   -1.9240   20.0800  -31.1720 C   0  0  0  0  0  0  0  0  0  0  0  0
   -1.8030   21.1000  -32.2640 C   0  0  0  0  0  0  0  0  0  0  0  0
   -3.0300   21.2030  -33.1920 C   0  0  0  0  0  0  0  0  0  0  0  0
   -3.8790   19.9650  -33.1100 C   0  0  0  0  0  0  0  0  0  0  0  0
   -3.3540   18.8230  -33.2320 O   0  0  0  0  0  0  0  0  0  0  0  0
   -5.2870   20.0710  -32.8550 N   0  0  0  0  0  0  0  0  0  0  0  0
   -6.2870   19.2520  -33.2920 C   0  0  0  0  0  0  0  0  0  0  0  0
   -6.0940   18.0130  -34.0870 C   0  0  0  0  0  0  0  0  0  0  0  0
   -4.9930   17.8730  -34.9900 N   0  0  0  0  0  0  0  0  0  0  0  0
   -6.9150   17.0640  -33.9840 O   0  0  0  0  0  0  0  0  0  0  0  0
   -7.5210   19.7190  -32.8290 C   0  0  0  0  0  0  0  0  0  0  0  0
   -7.2350   20.8500  -32.0950 C   0  0  0  0  0  0  0  0  0  0  0  0
   -8.0810   21.7200  -31.4190 C   0  0  0  0  0  0  0  0  0  0  0  0
   -7.5070   22.8280  -30.7730 C   0  0  0  0  0  0  0  0  0  0  0  0
   -6.1010   23.0620  -30.8070 C   0  0  0  0  0  0  0  0  0  0  0  0
   -5.5240   24.3020  -30.1170 C   0  0  0  0  0  0  0  0  0  0  0  0
   -4.2470   24.1760  -29.3320 C   0  0  0  0  0  0  0  0  0  0  0  0
   -4.2040   23.4340  -28.3120 O   0  0  0  0  0  0  0  0  0  0  0  0
   -3.1000   24.9310  -29.7280 N   0  0  0  0  0  0  0  0  0  0  0  0
   -1.8590   24.9340  -28.9680 C   0  0  0  0  0  0  0  0  0  0  0  0
   -5.7230   25.6440  -30.8160 C   0  0  0  0  0  0  0  0  0  0  0  0
   -6.4920   25.3350  -29.5370 C   0  0  0  0  0  0  0  0  0  0  0  0
   -5.2780   22.1210  -31.4830 C   0  0  0  0  0  0  0  0  0  0  0  0
   -5.8800   21.0340  -32.1210 C   0  0  0  0  0  0  0  0  0  0  0  0
   -1.8170   22.0630  -31.1140 C   0  0  0  0  0  0  0  0  0  0  0  0
   -2.7970   18.5922  -26.2932 H   0  0  0  0  0  0  0  0  0  0  0  0
   -3.2498   20.4426  -26.3255 H   0  0  0  0  0  0  0  0  0  0  0  0
   -1.5956   18.8383  -28.3700 H   0  0  0  0  0  0  0  0  0  0  0  0
   -1.0610   19.3992  -31.1299 H   0  0  0  0  0  0  0  0  0  0  0  0
   -2.7652   19.3743  -31.2378 H   0  0  0  0  0  0  0  0  0  0  0  0
   -1.0286   21.0752  -33.0448 H   0  0  0  0  0  0  0  0  0  0  0  0
   -3.6338   22.0726  -32.8933 H   0  0  0  0  0  0  0  0  0  0  0  0
   -2.6754   21.3143  -34.2273 H   0  0  0  0  0  0  0  0  0  0  0  0
   -4.8700   16.9820  -35.5220 H   0  0  0  0  0  0  0  0  0  0  0  0
   -4.3290   18.6520  -35.1790 H   0  0  0  0  0  0  0  0  0  0  0  0
   -8.5115   19.2768  -33.0120 H   0  0  0  0  0  0  0  0  0  0  0  0
   -9.1669   21.5469  -31.3903 H   0  0  0  0  0  0  0  0  0  0  0  0
   -8.1564   23.5299  -30.2294 H   0  0  0  0  0  0  0  0  0  0  0  0
   -2.0879   24.9334  -27.8921 H   0  0  0  0  0  0  0  0  0  0  0  0
   -1.2733   24.0373  -29.2187 H   0  0  0  0  0  0  0  0  0  0  0  0
   -1.2777   25.8336  -29.2187 H   0  0  0  0  0  0  0  0  0  0  0  0
   -4.9180   26.3936  -30.8056 H   0  0  0  0  0  0  0  0  0  0  0  0
   -6.0014   25.9559  -31.8334 H   0  0  0  0  0  0  0  0  0  0  0  0
   -6.2413   25.8606  -28.6038 H   0  0  0  0  0  0  0  0  0  0  0  0
   -7.5537   25.3308  -29.2493 H   0  0  0  0  0  0  0  0  0  0  0  0
   -4.1854   22.2466  -31.5034 H   0  0  0  0  0  0  0  0  0  0  0  0
   -0.8860   22.6435  -31.0350 H   0  0  0  0  0  0  0  0  0  0  0  0
   -2.5768   22.8582  -31.1358 H   0  0  0  0  0  0  0  0  0  0  0  0
  1  2  2  0
  2  3  1  0
  3  4  2  0
  3  5  1  0
  5  6  1  0
  6  7  1  0
  7  8  1  0
  8  9  1  0
  9 10  2  0
  9 11  1  0
 11 12  1  0
 12 13  1  0
 13 14  1  0
 13 15  2  0
 12 16  2  0
 16 17  1  0
 17 18  2  0
 18 19  1  0
 19 20  2  0
 20 21  1  0
 21 22  1  0
 22 23  2  0
 22 24  1  0
 24 25  1  0
 21 26  1  0
 26 27  1  0
 20 28  1  0
 28 29  2  0
  7 30  1  0
 30  5  1  0
 29 11  1  0
 29 17  1  0
 27 21  1  0
  1 31  1  0
  1 32  1  0
  2 33  1  0
  6 34  1  0
  6 35  1  0
  7 36  1  0
  8 37  1  0
  8 38  1  0
 14 39  1  0
 14 40  1  0
 16 41  1  0
 18 42  1  0
 19 43  1  0
 25 44  1  0
 25 45  1  0
 25 46  1  0
 26 47  1  0
 26 48  1  0
 27 49  1  0
 27 50  1  0
 28 51  1  0
 30 52  1  0
 30 53  1  0
M  CHG  1  24  -1
M  END
>  <UniqueID>  (92) 
92

>  <SMILES>  (92) 
C=CC(=O)N1CC(CC(=O)n2c(C(N)=O)cc3ccc(C4(C(=O)[N-]C)CC4)cc32)C1

>  <Energy>  (92) 
402.6971954347092

>  <Genealogy>  (92) 
C=CC(=O)N1CC(CC(=O)n2c(C(N)=O)cc3ccc(C4(C(=O)[N-]C)CC4)cc32)C1 (protonated)
C=CC(=O)N1CC(CC(=O)n2c(C(N)=O)cc3ccc(C4(C(=O)[N-]C)CC4)cc32)C1 (3D coordinates assigned)
C=CC(=O)N1CC(CC(=O)n2c(C(N)=O)cc3ccc(C4(C(=O)[N-]C)CC4)cc32)C1 (nonaromatic ring conformer: 402.6971954347092 kcal/mol)

>  <smiles>  (92) 
C=CC(=O)N1CC(CC(=O)n2c(C(N)=O)cc3ccc(C4(C(=O)NC)CC4)cc32)C1

>  <score_type>  (92) 
oracle

>  <origin>  (92) 
adg

>  <m_score__min__energy>  (92) 
-10.869999999999999

>  <m_primary>  (92) 
energy

$$$$
92:0
     RDKit          3D

 32 33  0  0  0  0  0  0  0  0999 V2000
   -9.3980   20.4120  -32.3120 C   0  0  0  0  0  0  0  0  0  0  0  0
   -8.6390   19.2360  -32.7160 N   0  0  0  0  0  0  0  0  0  0  0  0
   -7.2480   19.2550  -33.0560 C   0  0  0  0  0  0  0  0  0  0  0  0
   -6.7860   18.3370  -33.7850 O   0  0  0  0  0  0  0  0  0  0  0  0
   -6.3180   20.3130  -32.5290 C   0  0  0  0  0  0  0  0  0  0  0  0
   -4.9300   20.0020  -32.8770 N   0  0  0  0  0  0  0  0  0  0  0  0
   -3.7980   20.5660  -32.1870 C   0  0  0  0  0  0  0  0  0  0  0  0
   -2.5510   19.8860  -32.1220 C   0  0  0  0  0  0  0  0  0  0  0  0
   -1.4630   20.4480  -31.4350 C   0  0  0  0  0  0  0  0  0  0  0  0
   -1.6410   21.6880  -30.8310 C   0  0  0  0  0  0  0  0  0  0  0  0
   -0.7650   22.4420  -30.0840 C   0  0  0  0  0  0  0  0  0  0  0  0
   -1.4750   23.5830  -29.7220 C   0  0  0  0  0  0  0  0  0  0  0  0
   -0.8760   24.7110  -28.9800 C   0  0  0  0  0  0  0  0  0  0  0  0
   -1.5230   25.9800  -28.9270 N   0  0  0  0  0  0  0  0  0  0  0  0
    0.2480   24.5690  -28.4280 O   0  0  0  0  0  0  0  0  0  0  0  0
   -2.7450   23.5340  -30.2170 N   0  0  0  0  0  0  0  0  0  0  0  0
   -3.8140   24.4660  -29.9880 C   0  0  0  0  0  0  0  0  0  0  0  0
   -4.6900   24.2280  -29.1160 O   0  0  0  0  0  0  0  0  0  0  0  0
   -3.8760   25.6530  -30.7080 O   0  0  0  0  0  0  0  0  0  0  0  0
   -2.8290   22.3670  -30.8960 C   0  0  0  0  0  0  0  0  0  0  0  0
   -3.9360   21.8230  -31.5580 C   0  0  0  0  0  0  0  0  0  0  0  0
   -9.4331   20.4663  -31.2139 H   0  0  0  0  0  0  0  0  0  0  0  0
   -8.9124   21.3159  -32.7085 H   0  0  0  0  0  0  0  0  0  0  0  0
  -10.4216   20.3418  -32.7085 H   0  0  0  0  0  0  0  0  0  0  0  0
   -6.5911   21.2845  -32.9668 H   0  0  0  0  0  0  0  0  0  0  0  0
   -6.4083   20.3493  -31.4333 H   0  0  0  0  0  0  0  0  0  0  0  0
   -4.7450   19.3330  -33.6600 H   0  0  0  0  0  0  0  0  0  0  0  0
   -2.4374   18.9093  -32.6151 H   0  0  0  0  0  0  0  0  0  0  0  0
   -0.4982   19.9229  -31.3763 H   0  0  0  0  0  0  0  0  0  0  0  0
    0.2758   22.1952  -29.8274 H   0  0  0  0  0  0  0  0  0  0  0  0
   -2.5640   26.0550  -28.9820 H   0  0  0  0  0  0  0  0  0  0  0  0
   -4.8936   22.3634  -31.5877 H   0  0  0  0  0  0  0  0  0  0  0  0
  1  2  1  0
  2  3  1  0
  3  4  2  0
  3  5  1  0
  5  6  1  0
  6  7  1  0
  7  8  2  0
  8  9  1  0
  9 10  2  0
 10 11  1  0
 11 12  2  0
 12 13  1  0
 13 14  1  0
 13 15  2  0
 12 16  1  0
 16 17  1  0
 17 18  2  0
 17 19  1  0
 16 20  1  0
 20 21  2  0
 21  7  1  0
 20 10  1  0
  1 22  1  0
  1 23  1  0
  1 24  1  0
  5 25  1  0
  5 26  1  0
  6 27  1  0
  8 28  1  0
  9 29  1  0
 11 30  1  0
 14 31  1  0
 21 32  1  0
M  CHG  3   2  -1  14  -1  19  -1
M  END
>  <UniqueID>  (93) 
93

>  <SMILES>  (93) 
C[N-]C(=O)CNc1ccc2cc(C([NH-])=O)n(C(=O)[O-])c2c1

>  <Energy>  (93) 
68.71494157868874

>  <Genealogy>  (93) 
C[N-]C(=O)CNc1ccc2cc(C([NH-])=O)n(C(=O)[O-])c2c1 (protonated)
C[N-]C(=O)CNc1ccc2cc(C([NH-])=O)n(C(=O)[O-])c2c1 (3D coordinates assigned)
C[N-]C(=O)CNc1ccc2cc(C([NH-])=O)n(C(=O)[O-])c2c1 (optimized conformer: 68.71494157868874 kcal/mol)

>  <smiles>  (93) 
CNC(=O)CNc1ccc2cc(C(N)=O)n(C(=O)O)c2c1

>  <score_type>  (93) 
oracle

>  <origin>  (93) 
adg

>  <m_score__min__energy>  (93) 
-10.01

>  <m_primary>  (93) 
energy

$$$$
93:0
     RDKit          3D

 47 49  0  0  0  0  0  0  0  0999 V2000
   -9.4740   23.5880  -32.3140 C   0  0  0  0  0  0  0  0  0  0  0  0
   -8.6850   22.5640  -31.6110 N   0  0  0  0  0  0  0  0  0  0  0  0
   -7.2770   22.6030  -32.0650 C   0  0  0  0  0  0  0  0  0  0  0  0
   -6.5360   21.3120  -31.6840 C   0  0  0  0  0  0  0  0  0  0  0  0
   -7.1610   20.0970  -32.2730 N   0  0  0  0  0  0  0  0  0  0  0  0
   -6.3570   19.5300  -33.3760 C   0  0  0  0  0  0  0  0  0  0  0  0
   -4.9750   20.1940  -33.4270 C   0  0  0  0  0  0  0  0  0  0  0  0
   -3.9080   19.2960  -32.7910 C   0  0  0  0  0  0  0  0  0  0  0  0
   -2.8920   20.1250  -32.0530 C   0  0  0  0  0  0  0  0  0  0  0  0
   -1.5700   19.6440  -31.8820 C   0  0  0  0  0  0  0  0  0  0  0  0
   -0.6200   20.3980  -31.1760 C   0  0  0  0  0  0  0  0  0  0  0  0
   -1.0240   21.6170  -30.6380 C   0  0  0  0  0  0  0  0  0  0  0  0
   -0.3040   22.5530  -29.9310 C   0  0  0  0  0  0  0  0  0  0  0  0
   -1.2080   23.5770  -29.6490 C   0  0  0  0  0  0  0  0  0  0  0  0
   -0.8670   24.7530  -28.8230 C   0  0  0  0  0  0  0  0  0  0  0  0
   -1.5790   25.9790  -28.9630 N   0  0  0  0  0  0  0  0  0  0  0  0
    0.0320   24.6600  -27.9450 O   0  0  0  0  0  0  0  0  0  0  0  0
   -2.4350   23.2880  -30.1680 N   0  0  0  0  0  0  0  0  0  0  0  0
   -3.6090   24.1170  -30.1700 C   0  0  0  0  0  0  0  0  0  0  0  0
   -3.5740   25.2670  -30.6840 O   0  0  0  0  0  0  0  0  0  0  0  0
   -4.8000   23.6480  -29.6290 O   0  0  0  0  0  0  0  0  0  0  0  0
   -2.3060   22.0840  -30.7690 C   0  0  0  0  0  0  0  0  0  0  0  0
   -3.2680   21.3620  -31.4840 C   0  0  0  0  0  0  0  0  0  0  0  0
   -8.5630   20.3060  -32.7030 C   0  0  0  0  0  0  0  0  0  0  0  0
   -9.3100   21.2220  -31.7240 C   0  0  0  0  0  0  0  0  0  0  0  0
   -9.9730   24.2356  -31.5781 H   0  0  0  0  0  0  0  0  0  0  0  0
   -8.8079   24.1951  -32.9447 H   0  0  0  0  0  0  0  0  0  0  0  0
  -10.2309   23.0987  -32.9447 H   0  0  0  0  0  0  0  0  0  0  0  0
   -7.2554   22.7200  -33.1585 H   0  0  0  0  0  0  0  0  0  0  0  0
   -6.7757   23.4507  -31.5750 H   0  0  0  0  0  0  0  0  0  0  0  0
   -5.4983   21.3829  -32.0420 H   0  0  0  0  0  0  0  0  0  0  0  0
   -6.5823   21.2126  -30.5895 H   0  0  0  0  0  0  0  0  0  0  0  0
   -6.2338   18.4487  -33.2160 H   0  0  0  0  0  0  0  0  0  0  0  0
   -6.8768   19.7146  -34.3277 H   0  0  0  0  0  0  0  0  0  0  0  0
   -4.7060   20.3836  -34.4766 H   0  0  0  0  0  0  0  0  0  0  0  0
   -5.0194   21.1373  -32.8630 H   0  0  0  0  0  0  0  0  0  0  0  0
   -4.3912   18.6037  -32.0859 H   0  0  0  0  0  0  0  0  0  0  0  0
   -3.3974   18.7329  -33.5861 H   0  0  0  0  0  0  0  0  0  0  0  0
   -1.2857   18.6700  -32.3068 H   0  0  0  0  0  0  0  0  0  0  0  0
    0.4117   20.0372  -31.0515 H   0  0  0  0  0  0  0  0  0  0  0  0
    0.7580   22.5039  -29.6486 H   0  0  0  0  0  0  0  0  0  0  0  0
   -2.6230   25.9970  -28.9710 H   0  0  0  0  0  0  0  0  0  0  0  0
   -4.2915   21.7481  -31.6001 H   0  0  0  0  0  0  0  0  0  0  0  0
   -8.5676   20.7674  -33.7016 H   0  0  0  0  0  0  0  0  0  0  0  0
   -9.0708   19.3305  -32.7257 H   0  0  0  0  0  0  0  0  0  0  0  0
  -10.3454   21.3436  -32.0749 H   0  0  0  0  0  0  0  0  0  0  0  0
   -9.2721   20.7511  -30.7306 H   0  0  0  0  0  0  0  0  0  0  0  0
  1  2  1  0
  2  3  1  0
  3  4  1  0
  4  5  1  0
  5  6  1  0
  6  7  1  0
  7  8  1  0
  8  9  1  0
  9 10  2  0
 10 11  1  0
 11 12  2  0
 12 13  1  0
 13 14  2  0
 14 15  1  0
 15 16  1  0
 15 17  2  0
 14 18  1  0
 18 19  1  0
 19 20  2  0
 19 21  1  0
 18 22  1  0
 22 23  2  0
  5 24  1  0
 24 25  1  0
 25  2  1  0
 23  9  1  0
 22 12  1  0
  1 26  1  0
  1 27  1  0
  1 28  1  0
  3 29  1  0
  3 30  1  0
  4 31  1  0
  4 32  1  0
  6 33  1  0
  6 34  1  0
  7 35  1  0
  7 36  1  0
  8 37  1  0
  8 38  1  0
 10 39  1  0
 11 40  1  0
 13 41  1  0
 16 42  1  0
 23 43  1  0
 24 44  1  0
 24 45  1  0
 25 46  1  0
 25 47  1  0
M  CHG  2  16  -1  21  -1
M  END
>  <UniqueID>  (94) 
94

>  <SMILES>  (94) 
CN1CCN(CCCc2ccc3cc(C([NH-])=O)n(C(=O)[O-])c3c2)CC1

>  <Energy>  (94) 
95.95200957557748

>  <Genealogy>  (94) 
CN1CCN(CCCc2ccc3cc(C([NH-])=O)n(C(=O)[O-])c3c2)CC1 (protonated)
CN1CCN(CCCc2ccc3cc(C([NH-])=O)n(C(=O)[O-])c3c2)CC1 (3D coordinates assigned)
CN1CCN(CCCc2ccc3cc(C([NH-])=O)n(C(=O)[O-])c3c2)CC1 (nonaromatic ring conformer: 95.95200957557748 kcal/mol)

>  <smiles>  (94) 
CN1CCN(CCCc2ccc3cc(C(N)=O)n(C(=O)O)c3c2)CC1

>  <score_type>  (94) 
oracle

>  <origin>  (94) 
adg

>  <m_score__min__energy>  (94) 
-12.16

>  <m_primary>  (94) 
energy

$$$$
94:0
     RDKit          3D

 45 47  0  0  0  0  0  0  0  0999 V2000
   -3.2706   20.3453  -30.8675 H   0  0  0  0  0  0  0  0  0  0  0  0
   -3.3800   21.2350  -30.2300 C   0  0  0  0  0  0  0  0  0  0  0  0
   -3.9170   22.4590  -30.8710 C   0  0  0  0  0  0  0  0  0  0  0  0
   -3.1510   23.3610  -31.3030 O   0  0  0  0  0  0  0  0  0  0  0  0
   -5.3360   22.6370  -30.9890 N   0  0  0  0  0  0  0  0  0  0  0  0
   -6.0410   23.7790  -30.7620 C   0  0  0  0  0  0  0  0  0  0  0  0
   -5.4910   25.0360  -30.2130 C   0  0  0  0  0  0  0  0  0  0  0  0
   -6.1400   25.6620  -29.3320 O   0  0  0  0  0  0  0  0  0  0  0  0
   -4.2170   25.5340  -30.6260 N   0  0  0  0  0  0  0  0  0  0  0  0
   -3.5620   24.9460  -31.1850 H   0  0  0  0  0  0  0  0  0  0  0  0
   -3.8810   26.4600  -30.2820 H   0  0  0  0  0  0  0  0  0  0  0  0
   -7.3770   23.6090  -31.1180 C   0  0  0  0  0  0  0  0  0  0  0  0
   -8.1853   24.3521  -31.0506 H   0  0  0  0  0  0  0  0  0  0  0  0
   -7.4700   22.3130  -31.5720 C   0  0  0  0  0  0  0  0  0  0  0  0
   -8.5650   21.6170  -32.0760 C   0  0  0  0  0  0  0  0  0  0  0  0
   -9.5603   22.0830  -32.1238 H   0  0  0  0  0  0  0  0  0  0  0  0
   -8.3590   20.3000  -32.5220 C   0  0  0  0  0  0  0  0  0  0  0  0
   -9.2083   19.7157  -32.9057 H   0  0  0  0  0  0  0  0  0  0  0  0
   -7.0680   19.7180  -32.4820 C   0  0  0  0  0  0  0  0  0  0  0  0
   -6.8650   18.3060  -32.9440 C   0  0  0  0  0  0  0  0  0  0  0  0
   -7.6266   18.0535  -33.6964 H   0  0  0  0  0  0  0  0  0  0  0  0
   -5.8634   18.2062  -33.3877 H   0  0  0  0  0  0  0  0  0  0  0  0
   -6.9790   17.4470  -31.8670 F   0  0  0  0  0  0  0  0  0  0  0  0
   -5.9830   20.4510  -31.9560 C   0  0  0  0  0  0  0  0  0  0  0  0
   -4.9750   20.0128  -31.9117 H   0  0  0  0  0  0  0  0  0  0  0  0
   -6.2220   21.7500  -31.4920 C   0  0  0  0  0  0  0  0  0  0  0  0
   -3.0150   21.1110  -28.9450 C   0  0  0  0  0  0  0  0  0  0  0  0
   -2.5971   20.1433  -28.6305 H   0  0  0  0  0  0  0  0  0  0  0  0
   -3.1300   22.1870  -27.8970 C   0  0  0  0  0  0  0  0  0  0  0  0
   -3.7481   23.0084  -28.2886 H   0  0  0  0  0  0  0  0  0  0  0  0
   -3.5939   21.7571  -26.9970 H   0  0  0  0  0  0  0  0  0  0  0  0
   -1.7930   22.7120  -27.5400 N   0  0  0  0  0  0  0  0  0  0  0  0
   -0.8910   22.8220  -28.7120 C   0  0  0  0  0  0  0  0  0  0  0  0
    0.1355   22.5940  -28.3891 H   0  0  0  0  0  0  0  0  0  0  0  0
   -1.2446   22.1103  -29.4725 H   0  0  0  0  0  0  0  0  0  0  0  0
   -0.9090   24.2280  -29.3440 C   0  0  0  0  0  0  0  0  0  0  0  0
   -0.1094   24.8364  -28.8961 H   0  0  0  0  0  0  0  0  0  0  0  0
   -0.7509   24.1324  -30.4284 H   0  0  0  0  0  0  0  0  0  0  0  0
   -2.1520   24.8560  -29.1180 O   0  0  0  0  0  0  0  0  0  0  0  0
   -2.3040   25.1550  -27.7420 C   0  0  0  0  0  0  0  0  0  0  0  0
   -1.6867   26.0342  -27.5055 H   0  0  0  0  0  0  0  0  0  0  0  0
   -3.3738   25.3400  -27.5650 H   0  0  0  0  0  0  0  0  0  0  0  0
   -1.8800   23.9930  -26.8130 C   0  0  0  0  0  0  0  0  0  0  0  0
   -0.8953   24.2243  -26.3807 H   0  0  0  0  0  0  0  0  0  0  0  0
   -2.6429   23.8884  -26.0275 H   0  0  0  0  0  0  0  0  0  0  0  0
  1  2  1  0
  2  3  1  0
  3  4  2  0
  3  5  1  0
  5  6  1  0
  6  7  1  0
  7  8  2  0
  7  9  1  0
  9 10  1  0
  9 11  1  0
  6 12  2  0
 12 13  1  0
 12 14  1  0
 14 15  2  0
 15 16  1  0
 15 17  1  0
 17 18  1  0
 17 19  2  0
 19 20  1  0
 20 21  1  0
 20 22  1  0
 20 23  1  0
 19 24  1  0
 24 25  1  0
 24 26  2  0
  2 27  2  0
 27 28  1  0
 27 29  1  0
 29 30  1  0
 29 31  1  0
 29 32  1  0
 32 33  1  0
 33 34  1  0
 33 35  1  0
 33 36  1  0
 36 37  1  0
 36 38  1  0
 36 39  1  0
 39 40  1  0
 40 41  1  0
 40 42  1  0
 40 43  1  0
 43 44  1  0
 43 45  1  0
 26  5  1  0
 43 32  1  0
 26 14  1  0
M  END
>  <UniqueID>  (95) 
95

>  <SMILES>  (95) 
NC(=O)c1cc2ccc(CF)cc2n1C(=O)/C=C\CN1CCOCC1

>  <Energy>  (95) 
97.54581916575546

>  <Genealogy>  (95) 
NC(=O)c1cc2ccc(CF)cc2n1C(=O)/C=C\CN1CCOCC1 (cis-trans isomerization)
NC(=O)c1cc2ccc(CF)cc2n1C(=O)/C=C\CN1CCOCC1 (3D coordinates assigned)
NC(=O)c1cc2ccc(CF)cc2n1C(=O)/C=C\CN1CCOCC1 (nonaromatic ring conformer: 97.54581916575546 kcal/mol)

>  <smiles>  (95) 
NC(=O)c1cc2ccc(CF)cc2n1C(=O)C=CCN1CCOCC1

>  <score_type>  (95) 
oracle

>  <origin>  (95) 
adg

>  <m_score__min__energy>  (95) 
-9.3900000000000006

>  <m_primary>  (95) 
energy

$$$$
95:0
     RDKit          3D

 39 40  0  0  0  0  0  0  0  0999 V2000
   -4.1840   19.2060  -33.7920 C   0  0  0  0  0  0  0  0  0  0  0  0
   -5.2590   18.4980  -34.5990 C   0  0  0  0  0  0  0  0  0  0  0  0
   -5.9480   17.5730  -33.7650 O   0  0  0  0  0  0  0  0  0  0  0  0
   -6.6240   17.9590  -32.6050 C   0  0  0  0  0  0  0  0  0  0  0  0
   -6.1310   17.7290  -31.4660 O   0  0  0  0  0  0  0  0  0  0  0  0
   -7.9650   18.6070  -32.7190 C   0  0  0  0  0  0  0  0  0  0  0  0
   -7.9060   20.0050  -32.1710 C   0  0  0  0  0  0  0  0  0  0  0  0
   -9.1030   20.7150  -31.8960 C   0  0  0  0  0  0  0  0  0  0  0  0
   -9.0580   22.0400  -31.4310 C   0  0  0  0  0  0  0  0  0  0  0  0
   -7.8070   22.6260  -31.2520 C   0  0  0  0  0  0  0  0  0  0  0  0
   -7.4750   23.9010  -30.8540 C   0  0  0  0  0  0  0  0  0  0  0  0
   -6.0820   23.9480  -30.8850 C   0  0  0  0  0  0  0  0  0  0  0  0
   -5.2930   25.1360  -30.4920 C   0  0  0  0  0  0  0  0  0  0  0  0
   -3.8970   25.2170  -30.7660 N   0  0  0  0  0  0  0  0  0  0  0  0
   -5.8570   26.0840  -29.8840 O   0  0  0  0  0  0  0  0  0  0  0  0
   -5.5760   22.7470  -31.2830 N   0  0  0  0  0  0  0  0  0  0  0  0
   -4.2010   22.4020  -31.5030 C   0  0  0  0  0  0  0  0  0  0  0  0
   -3.7580   22.3130  -32.6800 O   0  0  0  0  0  0  0  0  0  0  0  0
   -3.2730   22.1830  -30.3450 C   0  0  0  0  0  0  0  0  0  0  0  0
   -1.8960   21.7500  -30.8330 C   0  0  0  0  0  0  0  0  0  0  0  0
   -6.6430   21.9520  -31.5090 C   0  0  0  0  0  0  0  0  0  0  0  0
   -6.6560   20.6380  -31.9890 C   0  0  0  0  0  0  0  0  0  0  0  0
   -4.3846   19.0739  -32.7186 H   0  0  0  0  0  0  0  0  0  0  0  0
   -3.2005   18.7783  -34.0366 H   0  0  0  0  0  0  0  0  0  0  0  0
   -4.1885   20.2785  -34.0366 H   0  0  0  0  0  0  0  0  0  0  0  0
   -5.9712   19.2393  -34.9906 H   0  0  0  0  0  0  0  0  0  0  0  0
   -4.7925   17.9587  -35.4366 H   0  0  0  0  0  0  0  0  0  0  0  0
   -8.2642   18.6423  -33.7769 H   0  0  0  0  0  0  0  0  0  0  0  0
   -8.6991   18.0235  -32.1441 H   0  0  0  0  0  0  0  0  0  0  0  0
  -10.0753   20.2236  -32.0482 H   0  0  0  0  0  0  0  0  0  0  0  0
   -9.9816   22.5971  -31.2151 H   0  0  0  0  0  0  0  0  0  0  0  0
   -8.1631   24.7113  -30.5713 H   0  0  0  0  0  0  0  0  0  0  0  0
   -3.4920   26.0480  -31.2530 H   0  0  0  0  0  0  0  0  0  0  0  0
   -3.1767   23.1202  -29.7772 H   0  0  0  0  0  0  0  0  0  0  0  0
   -3.6870   21.3899  -29.7050 H   0  0  0  0  0  0  0  0  0  0  0  0
   -1.2478   21.5462  -29.9680 H   0  0  0  0  0  0  0  0  0  0  0  0
   -1.9925   20.8388  -31.4417 H   0  0  0  0  0  0  0  0  0  0  0  0
   -1.4536   22.5524  -31.4417 H   0  0  0  0  0  0  0  0  0  0  0  0
   -5.7179   20.1116  -32.2187 H   0  0  0  0  0  0  0  0  0  0  0  0
  1  2  1  0
  2  3  1  0
  3  4  1  0
  4  5  2  0
  4  6  1  0
  6  7  1  0
  7  8  2  0
  8  9  1  0
  9 10  2  0
 10 11  1  0
 11 12  2  0
 12 13  1  0
 13 14  1  0
 13 15  2  0
 12 16  1  0
 16 17  1  0
 17 18  2  0
 17 19  1  0
 19 20  1  0
 16 21  1  0
 21 22  2  0
 22  7  1  0
 21 10  1  0
  1 23  1  0
  1 24  1  0
  1 25  1  0
  2 26  1  0
  2 27  1  0
  6 28  1  0
  6 29  1  0
  8 30  1  0
  9 31  1  0
 11 32  1  0
 14 33  1  0
 19 34  1  0
 19 35  1  0
 20 36  1  0
 20 37  1  0
 20 38  1  0
 22 39  1  0
M  CHG  1  14  -1
M  END
>  <UniqueID>  (96) 
96

>  <SMILES>  (96) 
CCOC(=O)Cc1ccc2cc(C([NH-])=O)n(C(=O)CC)c2c1

>  <Energy>  (96) 
67.70058423264774

>  <Genealogy>  (96) 
CCOC(=O)Cc1ccc2cc(C([NH-])=O)n(C(=O)CC)c2c1 (protonated)
CCOC(=O)Cc1ccc2cc(C([NH-])=O)n(C(=O)CC)c2c1 (3D coordinates assigned)
CCOC(=O)Cc1ccc2cc(C([NH-])=O)n(C(=O)CC)c2c1 (optimized conformer: 67.70058423264774 kcal/mol)

>  <smiles>  (96) 
CCOC(=O)Cc1ccc2cc(C(N)=O)n(C(=O)CC)c2c1

>  <score_type>  (96) 
oracle

>  <origin>  (96) 
adg

>  <m_score__min__energy>  (96) 
-9.9399999999999995

>  <m_primary>  (96) 
energy

$$$$
96:0
     RDKit          3D

 43 45  0  0  0  0  0  0  0  0999 V2000
   -9.0070   19.8370  -33.4180 N   0  0  0  0  0  0  0  0  0  0  0  0
   -9.2750   20.8850  -32.4840 C   0  0  0  0  0  0  0  0  0  0  0  0
  -10.4710   21.1650  -32.2050 O   0  0  0  0  0  0  0  0  0  0  0  0
   -8.1680   21.6100  -31.8230 C   0  0  0  0  0  0  0  0  0  0  0  0
   -8.3120   22.8500  -31.2020 C   0  0  0  0  0  0  0  0  0  0  0  0
   -7.0430   23.2100  -30.8090 C   0  0  0  0  0  0  0  0  0  0  0  0
   -6.6050   24.3440  -30.1310 C   0  0  0  0  0  0  0  0  0  0  0  0
   -5.2380   24.4430  -29.8260 C   0  0  0  0  0  0  0  0  0  0  0  0
   -4.3360   23.4130  -30.1980 C   0  0  0  0  0  0  0  0  0  0  0  0
   -2.9390   23.5120  -29.8580 N   0  0  0  0  0  0  0  0  0  0  0  0
   -1.9410   22.6780  -30.5400 C   0  0  0  0  0  0  0  0  0  0  0  0
   -1.1350   21.8540  -29.5230 C   0  0  0  0  0  0  0  0  0  0  0  0
   -0.9350   22.5710  -28.1710 C   0  0  0  0  0  0  0  0  0  0  0  0
   -1.1040   24.0980  -28.2690 C   0  0  1  0  0  0  0  0  0  0  0  0
   -0.1290   24.6480  -29.1180 O   0  0  0  0  0  0  0  0  0  0  0  0
   -2.5110   24.4380  -28.7980 C   0  0  0  0  0  0  0  0  0  0  0  0
   -4.8230   22.2730  -30.8780 C   0  0  0  0  0  0  0  0  0  0  0  0
   -6.1860   22.2090  -31.1860 C   0  0  0  0  0  0  0  0  0  0  0  0
   -6.8610   21.2190  -31.8100 N   0  0  0  0  0  0  0  0  0  0  0  0
   -6.3080   19.9860  -32.2980 C   0  0  0  0  0  0  0  0  0  0  0  0
   -5.8670   19.9180  -33.4790 O   0  0  0  0  0  0  0  0  0  0  0  0
   -6.2810   18.8600  -31.4690 O   0  0  0  0  0  0  0  0  0  0  0  0
   -6.6580   17.5560  -31.9040 C   0  0  0  0  0  0  0  0  0  0  0  0
   -7.5730   17.6450  -32.9610 O   0  0  0  0  0  0  0  0  0  0  0  0
   -9.7960   19.3050  -33.8480 H   0  0  0  0  0  0  0  0  0  0  0  0
   -8.0330   19.6120  -33.7170 H   0  0  0  0  0  0  0  0  0  0  0  0
   -9.2419   23.4194  -31.0570 H   0  0  0  0  0  0  0  0  0  0  0  0
   -7.3087   25.1388  -29.8428 H   0  0  0  0  0  0  0  0  0  0  0  0
   -4.8623   25.3288  -29.2928 H   0  0  0  0  0  0  0  0  0  0  0  0
   -2.4541   21.9947  -31.2328 H   0  0  0  0  0  0  0  0  0  0  0  0
   -1.2502   23.3328  -31.0914 H   0  0  0  0  0  0  0  0  0  0  0  0
   -1.6673   20.9088  -29.3406 H   0  0  0  0  0  0  0  0  0  0  0  0
   -0.1363   21.6934  -29.9552 H   0  0  0  0  0  0  0  0  0  0  0  0
   -1.6740   22.1818  -27.4552 H   0  0  0  0  0  0  0  0  0  0  0  0
    0.0967   22.3745  -27.8439 H   0  0  0  0  0  0  0  0  0  0  0  0
   -0.9799   24.5295  -27.2648 H   0  0  0  0  0  0  0  0  0  0  0  0
   -0.5070   24.6300  -30.0360 H   0  0  0  0  0  0  0  0  0  0  0  0
   -3.2273   24.3802  -27.9652 H   0  0  0  0  0  0  0  0  0  0  0  0
   -2.4783   25.4514  -29.2245 H   0  0  0  0  0  0  0  0  0  0  0  0
   -4.1446   21.4539  -31.1588 H   0  0  0  0  0  0  0  0  0  0  0  0
   -5.7633   17.0129  -32.2425 H   0  0  0  0  0  0  0  0  0  0  0  0
   -7.1279   17.0198  -31.0663 H   0  0  0  0  0  0  0  0  0  0  0  0
   -7.1350   18.1820  -33.6710 H   0  0  0  0  0  0  0  0  0  0  0  0
  1  2  1  0
  2  3  2  0
  2  4  1  0
  4  5  2  0
  5  6  1  0
  6  7  2  0
  7  8  1  0
  8  9  2  0
  9 10  1  0
 10 11  1  0
 11 12  1  0
 12 13  1  0
 13 14  1  0
 14 15  1  0
 14 16  1  0
  9 17  1  0
 17 18  2  0
 18 19  1  0
 19 20  1  0
 20 21  2  0
 20 22  1  0
 22 23  1  0
 23 24  1  0
 19  4  1  0
 18  6  1  0
 16 10  1  0
  1 25  1  0
  1 26  1  0
  5 27  1  0
  7 28  1  0
  8 29  1  0
 11 30  1  0
 11 31  1  0
 12 32  1  0
 12 33  1  0
 13 34  1  0
 13 35  1  0
 14 36  1  1
 15 37  1  0
 16 38  1  0
 16 39  1  0
 17 40  1  0
 23 41  1  0
 23 42  1  0
 24 43  1  0
M  END
>  <UniqueID>  (97) 
97

>  <SMILES>  (97) 
NC(=O)c1cc2ccc(N3CCC[C@@H](O)C3)cc2n1C(=O)OCO

>  <Energy>  (97) 
87.42310606048676

>  <Genealogy>  (97) 
NC(=O)c1cc2ccc(N3CCC[C@@H](O)C3)cc2n1C(=O)OCO (3D coordinates assigned)
NC(=O)c1cc2ccc(N3CCC[C@@H](O)C3)cc2n1C(=O)OCO (nonaromatic ring conformer: 87.42310606048676 kcal/mol)

>  <smiles>  (97) 
NC(=O)c1cc2ccc(N3CCC[C@@H](O)C3)cc2n1C(=O)OCO

>  <score_type>  (97) 
oracle

>  <origin>  (97) 
adg

>  <m_score__min__energy>  (97) 
-8.4100000000000001

>  <m_primary>  (97) 
energy

$$$$
97:0
     RDKit          3D

 66 70  0  0  0  0  0  0  0  0999 V2000
   -4.6440   17.3730  -35.7140 C   0  0  0  0  0  0  0  0  0  0  0  0
   -3.6020   17.4140  -34.6460 C   0  0  0  0  0  0  0  0  0  0  0  0
   -2.3330   17.6820  -34.8460 O   0  0  0  0  0  0  0  0  0  0  0  0
   -1.7600   17.6080  -33.6670 C   0  0  0  0  0  0  0  0  0  0  0  0
   -0.5320   17.8040  -33.4750 O   0  0  0  0  0  0  0  0  0  0  0  0
   -2.6070   17.3020  -32.7120 O   0  0  0  0  0  0  0  0  0  0  0  0
   -3.7750   17.1710  -33.2960 C   0  0  0  0  0  0  0  0  0  0  0  0
   -5.0410   16.7970  -32.5940 C   0  0  0  0  0  0  0  0  0  0  0  0
   -6.1780   17.1270  -33.3870 O   0  0  0  0  0  0  0  0  0  0  0  0
   -6.7320   18.4110  -33.4430 C   0  0  0  0  0  0  0  0  0  0  0  0
   -6.2700   19.2740  -34.2400 O   0  0  0  0  0  0  0  0  0  0  0  0
   -7.8190   18.7690  -32.4720 C   0  0  0  0  0  0  0  0  0  0  0  0
   -7.6960   20.1850  -31.9750 C   0  0  0  0  0  0  0  0  0  0  0  0
   -8.8480   20.8950  -31.5590 C   0  0  0  0  0  0  0  0  0  0  0  0
   -8.7420   22.2130  -31.0850 C   0  0  0  0  0  0  0  0  0  0  0  0
   -7.4750   22.7850  -31.0290 C   0  0  0  0  0  0  0  0  0  0  0  0
   -7.0940   24.0350  -30.6030 C   0  0  0  0  0  0  0  0  0  0  0  0
   -5.7120   24.0720  -30.7590 C   0  0  0  0  0  0  0  0  0  0  0  0
   -4.9060   25.2860  -30.5120 C   0  0  0  0  0  0  0  0  0  0  0  0
   -3.5330   25.1620  -30.1470 N   0  0  0  0  0  0  0  0  0  0  0  0
   -5.4280   26.4300  -30.5680 O   0  0  0  0  0  0  0  0  0  0  0  0
   -5.2470   22.8840  -31.2470 N   0  0  0  0  0  0  0  0  0  0  0  0
   -3.8730   22.4830  -31.4070 C   0  0  0  0  0  0  0  0  0  0  0  0
   -2.9820   23.3590  -31.5860 O   0  0  0  0  0  0  0  0  0  0  0  0
   -3.5120   21.1320  -31.3290 O   0  0  0  0  0  0  0  0  0  0  0  0
   -3.0770   20.3930  -32.4690 C   0  0  0  0  0  0  0  0  0  0  0  0
   -1.8890   21.0820  -33.1470 C   0  0  0  0  0  0  0  0  0  0  0  0
   -0.5360   20.7830  -32.4750 C   0  0  0  0  0  0  0  0  0  0  0  0
   -0.6260   20.8470  -31.0070 N   0  0  0  0  0  0  0  0  0  0  0  0
   -0.7950   22.0650  -30.4040 C   0  0  0  0  0  0  0  0  0  0  0  0
   -0.8280   22.1860  -29.0070 C   0  0  0  0  0  0  0  0  0  0  0  0
   -0.9990   23.5160  -28.3830 C   0  0  0  0  0  0  0  0  0  0  0  0
   -0.1310   24.5400  -28.5590 N   0  0  0  0  0  0  0  0  0  0  0  0
   -0.5110   25.6600  -27.8890 C   0  0  0  0  0  0  0  0  0  0  0  0
   -1.6910   25.5440  -27.1670 C   0  0  0  0  0  0  0  0  0  0  0  0
   -2.2710   23.9810  -27.3790 S   0  0  0  0  0  0  0  0  0  0  0  0
   -0.7030   21.0250  -28.2340 C   0  0  0  0  0  0  0  0  0  0  0  0
   -0.5450   19.7880  -28.8540 C   0  0  0  0  0  0  0  0  0  0  0  0
   -0.5030   19.7100  -30.2500 C   0  0  0  0  0  0  0  0  0  0  0  0
   -0.3370   18.4680  -30.8670 O   0  0  0  0  0  0  0  0  0  0  0  0
   -6.3460   22.1110  -31.4190 C   0  0  0  0  0  0  0  0  0  0  0  0
   -6.4270   20.7960  -31.8920 C   0  0  0  0  0  0  0  0  0  0  0  0
   -5.6414   17.3338  -35.2518 H   0  0  0  0  0  0  0  0  0  0  0  0
   -4.5645   18.2750  -36.3386 H   0  0  0  0  0  0  0  0  0  0  0  0
   -4.4939   16.4801  -36.3386 H   0  0  0  0  0  0  0  0  0  0  0  0
   -5.0390   15.7142  -32.4000 H   0  0  0  0  0  0  0  0  0  0  0  0
   -5.0973   17.3563  -31.6485 H   0  0  0  0  0  0  0  0  0  0  0  0
   -8.7922   18.6524  -32.9713 H   0  0  0  0  0  0  0  0  0  0  0  0
   -7.7304   18.0984  -31.6046 H   0  0  0  0  0  0  0  0  0  0  0  0
   -9.8344   20.4105  -31.6074 H   0  0  0  0  0  0  0  0  0  0  0  0
   -9.6328   22.7752  -30.7680 H   0  0  0  0  0  0  0  0  0  0  0  0
   -7.7436   24.8359  -30.2201 H   0  0  0  0  0  0  0  0  0  0  0  0
   -3.1450   25.6840  -29.3310 H   0  0  0  0  0  0  0  0  0  0  0  0
   -2.7744   19.3846  -32.1504 H   0  0  0  0  0  0  0  0  0  0  0  0
   -3.9072   20.3361  -33.1883 H   0  0  0  0  0  0  0  0  0  0  0  0
   -1.8405   20.7425  -34.1922 H   0  0  0  0  0  0  0  0  0  0  0  0
   -2.0563   22.1662  -33.0661 H   0  0  0  0  0  0  0  0  0  0  0  0
   -0.2088   19.7744  -32.7676 H   0  0  0  0  0  0  0  0  0  0  0  0
    0.1847   21.5453  -32.8059 H   0  0  0  0  0  0  0  0  0  0  0  0
   -0.9069   22.9649  -31.0267 H   0  0  0  0  0  0  0  0  0  0  0  0
    0.0742   26.5910  -27.9169 H   0  0  0  0  0  0  0  0  0  0  0  0
   -2.1622   26.3340  -26.5639 H   0  0  0  0  0  0  0  0  0  0  0  0
   -0.7296   21.0901  -27.1363 H   0  0  0  0  0  0  0  0  0  0  0  0
   -0.4535   18.8748  -28.2476 H   0  0  0  0  0  0  0  0  0  0  0  0
   -1.0770   18.0410  -31.4120 H   0  0  0  0  0  0  0  0  0  0  0  0
   -5.5203   20.2505  -32.1927 H   0  0  0  0  0  0  0  0  0  0  0  0
  1  2  1  0
  2  3  1  0
  3  4  1  0
  4  5  2  0
  4  6  1  0
  6  7  1  0
  7  8  1  0
  8  9  1  0
  9 10  1  0
 10 11  2  0
 10 12  1  0
 12 13  1  0
 13 14  2  0
 14 15  1  0
 15 16  2  0
 16 17  1  0
 17 18  2  0
 18 19  1  0
 19 20  1  0
 19 21  2  0
 18 22  1  0
 22 23  1  0
 23 24  2  0
 23 25  1  0
 25 26  1  0
 26 27  1  0
 27 28  1  0
 28 29  1  0
 29 30  2  0
 30 31  1  0
 31 32  1  0
 32 33  2  0
 33 34  1  0
 34 35  2  0
 35 36  1  0
 31 37  2  0
 37 38  1  0
 38 39  2  0
 39 40  1  0
 22 41  1  0
 41 42  2  0
  7  2  2  0
 42 13  1  0
 41 16  1  0
 39 29  1  0
 36 32  1  0
  1 43  1  0
  1 44  1  0
  1 45  1  0
  8 46  1  0
  8 47  1  0
 12 48  1  0
 12 49  1  0
 14 50  1  0
 15 51  1  0
 17 52  1  0
 20 53  1  0
 26 54  1  0
 26 55  1  0
 27 56  1  0
 27 57  1  0
 28 58  1  0
 28 59  1  0
 30 60  1  0
 34 61  1  0
 35 62  1  0
 37 63  1  0
 38 64  1  0
 40 65  1  0
 42 66  1  0
M  CHG  2  20  -1  29   1
M  END
>  <UniqueID>  (98) 
98

>  <SMILES>  (98) 
Cc1oc(=O)oc1COC(=O)Cc1ccc2cc(C([NH-])=O)n(C(=O)OCCC[n+]3cc(-c4nccs4)ccc3O)c2c1

>  <Energy>  (98) 
156.95306635001555

>  <Genealogy>  (98) 
Cc1oc(=O)oc1COC(=O)Cc1ccc2cc(C([NH-])=O)n(C(=O)OCCC[n+]3cc(-c4nccs4)ccc3O)c2c1 (protonated)
Cc1oc(=O)oc1COC(=O)Cc1ccc2cc(C([NH-])=O)n(C(=O)OCCC[n+]3cc(-c4nccs4)ccc3O)c2c1 (3D coordinates assigned)
Cc1oc(=O)oc1COC(=O)Cc1ccc2cc(C([NH-])=O)n(C(=O)OCCC[n+]3cc(-c4nccs4)ccc3O)c2c1 (optimized conformer: 156.95306635001555 kcal/mol)

>  <smiles>  (98) 
Cc1oc(=O)oc1COC(=O)Cc1ccc2cc(C(N)=O)n(C(=O)OCCC[n+]3cc(-c4nccs4)ccc3O)c2c1

>  <score_type>  (98) 
oracle

>  <origin>  (98) 
adg

>  <m_score__min__energy>  (98) 
-10.970000000000001

>  <m_primary>  (98) 
energy

$$$$
98:0
     RDKit          3D

 41 43  0  0  0  0  0  0  0  0999 V2000
   -1.6120   25.9030  -28.8170 N   0  0  0  0  0  0  0  0  0  0  0  0
   -0.8930   24.6730  -28.9250 C   0  0  0  0  0  0  0  0  0  0  0  0
    0.2750   24.5980  -28.4590 O   0  0  0  0  0  0  0  0  0  0  0  0
   -1.4680   23.5110  -29.6300 C   0  0  0  0  0  0  0  0  0  0  0  0
   -0.7370   22.3680  -29.9420 C   0  0  0  0  0  0  0  0  0  0  0  0
   -1.6020   21.5660  -30.6480 C   0  0  0  0  0  0  0  0  0  0  0  0
   -1.4020   20.3030  -31.1990 C   0  0  0  0  0  0  0  0  0  0  0  0
   -2.4830   19.6890  -31.8510 C   0  0  0  0  0  0  0  0  0  0  0  0
   -3.7430   20.3340  -31.9220 C   0  0  0  0  0  0  0  0  0  0  0  0
   -4.8880   19.6760  -32.6440 C   0  0  0  0  0  0  0  0  0  0  0  0
   -6.1810   19.8000  -31.8200 C   0  0  0  0  0  0  0  0  0  0  0  0
   -7.2950   20.6280  -32.5180 C   0  0  2  0  0  0  0  0  0  0  0  0
   -7.3020   20.4160  -33.9090 O   0  0  0  0  0  0  0  0  0  0  0  0
   -7.1390   22.1330  -32.2060 C   0  0  0  0  0  0  0  0  0  0  0  0
   -8.5470   22.6880  -31.9750 C   0  0  0  0  0  0  0  0  0  0  0  0
   -9.4010   21.5180  -31.5090 C   0  0  0  0  0  0  0  0  0  0  0  0
   -8.6560   20.3250  -31.9770 C   0  0  0  0  0  0  0  0  0  0  0  0
   -9.1440   19.2060  -31.9660 O   0  0  0  0  0  0  0  0  0  0  0  0
   -3.9080   21.6200  -31.3610 C   0  0  0  0  0  0  0  0  0  0  0  0
   -2.8060   22.2190  -30.7340 C   0  0  0  0  0  0  0  0  0  0  0  0
   -2.7400   23.4180  -30.1110 N   0  0  0  0  0  0  0  0  0  0  0  0
   -3.8240   24.3360  -29.8890 C   0  0  0  0  0  0  0  0  0  0  0  0
   -3.9080   25.3990  -30.5610 O   0  0  0  0  0  0  0  0  0  0  0  0
   -4.7940   24.0590  -28.9340 O   0  0  0  0  0  0  0  0  0  0  0  0
   -1.2050   26.7030  -28.2850 H   0  0  0  0  0  0  0  0  0  0  0  0
   -2.5070   26.0500  -29.3340 H   0  0  0  0  0  0  0  0  0  0  0  0
    0.3093   22.1526  -29.6796 H   0  0  0  0  0  0  0  0  0  0  0  0
   -0.4259   19.8012  -31.1256 H   0  0  0  0  0  0  0  0  0  0  0  0
   -2.3510   18.6985  -32.3109 H   0  0  0  0  0  0  0  0  0  0  0  0
   -5.0309   20.1647  -33.6191 H   0  0  0  0  0  0  0  0  0  0  0  0
   -4.6557   18.6103  -32.7868 H   0  0  0  0  0  0  0  0  0  0  0  0
   -6.5689   18.7884  -31.6299 H   0  0  0  0  0  0  0  0  0  0  0  0
   -5.9197   20.3329  -30.8939 H   0  0  0  0  0  0  0  0  0  0  0  0
   -8.0800   19.8370  -34.1190 H   0  0  0  0  0  0  0  0  0  0  0  0
   -6.5255   22.2705  -31.3034 H   0  0  0  0  0  0  0  0  0  0  0  0
   -6.6404   22.6571  -33.0347 H   0  0  0  0  0  0  0  0  0  0  0  0
   -8.5245   23.4728  -31.2045 H   0  0  0  0  0  0  0  0  0  0  0  0
   -8.9536   23.1366  -32.8934 H   0  0  0  0  0  0  0  0  0  0  0  0
   -9.4964   21.5150  -30.4131 H   0  0  0  0  0  0  0  0  0  0  0  0
  -10.4275   21.5586  -31.9022 H   0  0  0  0  0  0  0  0  0  0  0  0
   -4.8767   22.1385  -31.4147 H   0  0  0  0  0  0  0  0  0  0  0  0
  1  2  1  0
  2  3  2  0
  2  4  1  0
  4  5  2  0
  5  6  1  0
  6  7  2  0
  7  8  1  0
  8  9  2  0
  9 10  1  0
 10 11  1  0
 11 12  1  0
 12 13  1  6
 12 14  1  0
 14 15  1  0
 15 16  1  0
 16 17  1  0
 17 18  2  0
  9 19  1  0
 19 20  2  0
 20 21  1  0
 21 22  1  0
 22 23  2  0
 22 24  1  0
 21  4  1  0
 20  6  1  0
 17 12  1  0
  1 25  1  0
  1 26  1  0
  5 27  1  0
  7 28  1  0
  8 29  1  0
 10 30  1  0
 10 31  1  0
 11 32  1  0
 11 33  1  0
 13 34  1  0
 14 35  1  0
 14 36  1  0
 15 37  1  0
 15 38  1  0
 16 39  1  0
 16 40  1  0
 19 41  1  0
M  CHG  1  24  -1
M  END
>  <UniqueID>  (99) 
99

>  <SMILES>  (99) 
NC(=O)c1cc2ccc(CC[C@]3(O)CCCC3=O)cc2n1C(=O)[O-]

>  <Energy>  (99) 
81.6851815925411

>  <Genealogy>  (99) 
NC(=O)c1cc2ccc(CCC3(O)CCCC3=O)cc2n1C(=O)[O-] (protonated)
NC(=O)c1cc2ccc(CC[C@]3(O)CCCC3=O)cc2n1C(=O)[O-] (chirality)
NC(=O)c1cc2ccc(CC[C@]3(O)CCCC3=O)cc2n1C(=O)[O-] (3D coordinates assigned)
NC(=O)c1cc2ccc(CC[C@]3(O)CCCC3=O)cc2n1C(=O)[O-] (nonaromatic ring conformer: 81.6851815925411 kcal/mol)

>  <smiles>  (99) 
NC(=O)c1cc2ccc(CCC3(O)CCCC3=O)cc2n1C(=O)O

>  <score_type>  (99) 
oracle

>  <origin>  (99) 
adg

>  <m_score__min__energy>  (99) 
-10.119999999999999

>  <m_primary>  (99) 
energy

$$$$
99:0
     RDKit          3D

 47 49  0  0  0  0  0  0  0  0999 V2000
   -8.7680   19.3940  -31.9640 C   0  0  0  0  0  0  0  0  0  0  0  0
   -9.3520   20.8020  -31.9820 C   0  0  0  0  0  0  0  0  0  0  0  0
   -8.7580   21.6060  -30.9650 O   0  0  0  0  0  0  0  0  0  0  0  0
   -7.4660   22.1340  -31.0610 C   0  0  0  0  0  0  0  0  0  0  0  0
   -6.4530   21.3960  -30.9150 O   0  0  0  0  0  0  0  0  0  0  0  0
   -7.2860   23.6010  -31.3050 C   0  0  0  0  0  0  0  0  0  0  0  0
   -6.3730   24.2330  -30.2480 C   0  0  0  0  0  0  0  0  0  0  0  0
   -5.1190   23.4910  -30.1140 N   0  0  0  0  0  0  0  0  0  0  0  0
   -3.8480   24.0470  -30.4740 C   0  0  0  0  0  0  0  0  0  0  0  0
   -3.7530   25.2580  -30.8120 O   0  0  0  0  0  0  0  0  0  0  0  0
   -2.6850   23.2100  -30.5040 N   0  0  0  0  0  0  0  0  0  0  0  0
   -1.5170   23.3690  -29.8220 C   0  0  0  0  0  0  0  0  0  0  0  0
   -1.1440   24.5460  -29.0090 C   0  0  0  0  0  0  0  0  0  0  0  0
   -1.9990   25.6830  -28.9280 N   0  0  0  0  0  0  0  0  0  0  0  0
   -0.0400   24.5610  -28.4010 O   0  0  0  0  0  0  0  0  0  0  0  0
   -0.6760   22.2790  -30.0390 C   0  0  0  0  0  0  0  0  0  0  0  0
   -1.3740   21.4410  -30.8810 C   0  0  0  0  0  0  0  0  0  0  0  0
   -1.0270   20.2000  -31.4030 C   0  0  0  0  0  0  0  0  0  0  0  0
   -1.9660   19.5400  -32.2140 C   0  0  0  0  0  0  0  0  0  0  0  0
   -3.2330   20.1240  -32.4860 C   0  0  0  0  0  0  0  0  0  0  0  0
   -4.2260   19.4080  -33.3250 C   0  0  0  0  0  0  0  0  0  0  0  0
   -3.8760   18.2320  -34.0110 C   0  0  0  0  0  0  0  0  0  0  0  0
   -4.8190   17.5710  -34.7990 C   0  0  0  0  0  0  0  0  0  0  0  0
   -6.1110   18.0880  -34.8970 C   0  0  0  0  0  0  0  0  0  0  0  0
   -6.4410   19.2240  -34.2290 N   0  0  0  0  0  0  0  0  0  0  0  0
   -5.5410   19.8890  -33.4570 C   0  0  0  0  0  0  0  0  0  0  0  0
   -3.5430   21.3910  -31.9360 C   0  0  0  0  0  0  0  0  0  0  0  0
   -2.5830   22.0270  -31.1450 C   0  0  0  0  0  0  0  0  0  0  0  0
   -8.6322   19.0666  -30.9227 H   0  0  0  0  0  0  0  0  0  0  0  0
   -9.4548   18.7056  -32.4782 H   0  0  0  0  0  0  0  0  0  0  0  0
   -7.7956   19.3938  -32.4782 H   0  0  0  0  0  0  0  0  0  0  0  0
   -9.1597   21.2604  -32.9633 H   0  0  0  0  0  0  0  0  0  0  0  0
  -10.4344   20.7388  -31.7964 H   0  0  0  0  0  0  0  0  0  0  0  0
   -6.8379   23.7467  -32.2990 H   0  0  0  0  0  0  0  0  0  0  0  0
   -8.2715   24.0862  -31.2478 H   0  0  0  0  0  0  0  0  0  0  0  0
   -6.1467   25.2682  -30.5432 H   0  0  0  0  0  0  0  0  0  0  0  0
   -6.8950   24.2087  -29.2801 H   0  0  0  0  0  0  0  0  0  0  0  0
   -5.1600   22.5020  -29.7820 H   0  0  0  0  0  0  0  0  0  0  0  0
   -2.9610   25.6610  -29.3320 H   0  0  0  0  0  0  0  0  0  0  0  0
    0.3312   22.1212  -29.6258 H   0  0  0  0  0  0  0  0  0  0  0  0
   -0.0473   19.7485  -31.1878 H   0  0  0  0  0  0  0  0  0  0  0  0
   -1.7172   18.5586  -32.6439 H   0  0  0  0  0  0  0  0  0  0  0  0
   -2.8550   17.8314  -33.9263 H   0  0  0  0  0  0  0  0  0  0  0  0
   -4.5463   16.6514  -35.3376 H   0  0  0  0  0  0  0  0  0  0  0  0
   -6.8628   17.5757  -35.5153 H   0  0  0  0  0  0  0  0  0  0  0  0
   -5.8428   20.8079  -32.9330 H   0  0  0  0  0  0  0  0  0  0  0  0
   -4.5176   21.8640  -32.1271 H   0  0  0  0  0  0  0  0  0  0  0  0
  1  2  1  0
  2  3  1  0
  3  4  1  0
  4  5  2  0
  4  6  1  0
  6  7  1  0
  7  8  1  0
  8  9  1  0
  9 10  2  0
  9 11  1  0
 11 12  1  0
 12 13  1  0
 13 14  1  0
 13 15  2  0
 12 16  2  0
 16 17  1  0
 17 18  2  0
 18 19  1  0
 19 20  2  0
 20 21  1  0
 21 22  2  0
 22 23  1  0
 23 24  2  0
 24 25  1  0
 25 26  2  0
 20 27  1  0
 27 28  2  0
 28 11  1  0
 28 17  1  0
 26 21  1  0
  1 29  1  0
  1 30  1  0
  1 31  1  0
  2 32  1  0
  2 33  1  0
  6 34  1  0
  6 35  1  0
  7 36  1  0
  7 37  1  0
  8 38  1  0
 14 39  1  0
 16 40  1  0
 18 41  1  0
 19 42  1  0
 22 43  1  0
 23 44  1  0
 24 45  1  0
 26 46  1  0
 27 47  1  0
M  CHG  1  14  -1
M  END
>  <UniqueID>  (100) 
100

>  <SMILES>  (100) 
CCOC(=O)CCNC(=O)n1c(C([NH-])=O)cc2ccc(-c3cccnc3)cc21

>  <Energy>  (100) 
84.35833141977247

>  <Genealogy>  (100) 
CCOC(=O)CCNC(=O)n1c(C([NH-])=O)cc2ccc(-c3cccnc3)cc21 (protonated)
CCOC(=O)CCNC(=O)n1c(C([NH-])=O)cc2ccc(-c3cccnc3)cc21 (3D coordinates assigned)
CCOC(=O)CCNC(=O)n1c(C([NH-])=O)cc2ccc(-c3cccnc3)cc21 (optimized conformer: 84.35833141977247 kcal/mol)

>  <smiles>  (100) 
CCOC(=O)CCNC(=O)n1c(C(N)=O)cc2ccc(-c3cccnc3)cc21

>  <score_type>  (100) 
oracle

>  <origin>  (100) 
adg

>  <m_score__min__energy>  (100) 
-11.26

>  <m_primary>  (100) 
energy

$$$$
