0:0
     RDKit          3D

 41 43  0  0  0  0  0  0  0  0999 V2000
   -9.1990   18.4340  -31.6320 C   0  0  0  0  0  0  0  0  0  0  0  0
   -7.9440   18.6700  -32.3610 N   0  0  0  0  0  0  0  0  0  0  0  0
   -7.8120   20.1050  -32.7120 C   0  0  0  0  0  0  0  0  0  0  0  0
   -6.3610   20.5260  -33.0340 C   0  0  0  0  0  0  0  0  0  0  0  0
   -5.4930   19.3250  -33.4600 C   0  0  0  0  0  0  0  0  0  0  0  0
   -4.1090   19.7260  -33.7580 N   0  0  0  0  0  0  0  0  0  0  0  0
   -3.1790   20.3960  -32.8760 C   0  0  0  0  0  0  0  0  0  0  0  0
   -1.8870   19.8360  -32.7080 C   0  0  0  0  0  0  0  0  0  0  0  0
   -0.9430   20.4300  -31.8550 C   0  0  0  0  0  0  0  0  0  0  0  0
   -1.3130   21.5880  -31.1810 C   0  0  0  0  0  0  0  0  0  0  0  0
   -0.6060   22.3500  -30.2790 C   0  0  0  0  0  0  0  0  0  0  0  0
   -1.4670   23.3820  -29.9120 C   0  0  0  0  0  0  0  0  0  0  0  0
   -1.0750   24.4900  -29.0170 C   0  0  0  0  0  0  0  0  0  0  0  0
   -1.8700   25.6710  -28.9590 N   0  0  0  0  0  0  0  0  0  0  0  0
   -0.0630   24.3900  -28.2740 O   0  0  0  0  0  0  0  0  0  0  0  0
   -2.6630   23.2580  -30.5570 N   0  0  0  0  0  0  0  0  0  0  0  0
   -3.8330   24.0770  -30.4020 C   0  0  0  0  0  0  0  0  0  0  0  0
   -4.8520   23.6260  -29.8160 O   0  0  0  0  0  0  0  0  0  0  0  0
   -3.8420   25.3840  -30.8720 O   0  0  0  0  0  0  0  0  0  0  0  0
   -2.5490   22.1560  -31.3320 C   0  0  0  0  0  0  0  0  0  0  0  0
   -3.5160   21.5730  -32.1610 C   0  0  0  0  0  0  0  0  0  0  0  0
   -5.5490   18.1370  -32.4690 C   0  0  0  0  0  0  0  0  0  0  0  0
   -6.7920   18.1980  -31.5730 C   0  0  0  0  0  0  0  0  0  0  0  0
   -9.0066   18.4702  -30.5496 H   0  0  0  0  0  0  0  0  0  0  0  0
   -9.9306   19.2103  -31.9005 H   0  0  0  0  0  0  0  0  0  0  0  0
   -9.5986   17.4450  -31.9005 H   0  0  0  0  0  0  0  0  0  0  0  0
   -8.4378   20.3074  -33.5937 H   0  0  0  0  0  0  0  0  0  0  0  0
   -8.1316   20.6852  -31.8338 H   0  0  0  0  0  0  0  0  0  0  0  0
   -6.3775   21.2605  -33.8527 H   0  0  0  0  0  0  0  0  0  0  0  0
   -5.9216   20.9568  -32.1222 H   0  0  0  0  0  0  0  0  0  0  0  0
   -5.9397   18.9534  -34.3940 H   0  0  0  0  0  0  0  0  0  0  0  0
   -3.7950   19.5630  -34.7430 H   0  0  0  0  0  0  0  0  0  0  0  0
   -1.6197   18.9202  -33.2556 H   0  0  0  0  0  0  0  0  0  0  0  0
    0.0578   19.9927  -31.7242 H   0  0  0  0  0  0  0  0  0  0  0  0
    0.4210   22.1803  -29.9233 H   0  0  0  0  0  0  0  0  0  0  0  0
   -2.8480   25.6760  -29.3260 H   0  0  0  0  0  0  0  0  0  0  0  0
   -4.5169   22.0195  -32.2554 H   0  0  0  0  0  0  0  0  0  0  0  0
   -5.5685   17.1975  -33.0408 H   0  0  0  0  0  0  0  0  0  0  0  0
   -4.6602   18.1896  -31.8231 H   0  0  0  0  0  0  0  0  0  0  0  0
   -7.0064   17.1952  -31.1750 H   0  0  0  0  0  0  0  0  0  0  0  0
   -6.6091   18.8924  -30.7397 H   0  0  0  0  0  0  0  0  0  0  0  0
  1  2  1  0
  2  3  1  0
  3  4  1  0
  4  5  1  0
  5  6  1  0
  6  7  1  0
  7  8  2  0
  8  9  1  0
  9 10  2  0
 10 11  1  0
 11 12  2  0
 12 13  1  0
 13 14  1  0
 13 15  2  0
 12 16  1  0
 16 17  1  0
 17 18  2  0
 17 19  1  0
 16 20  1  0
 20 21  2  0
  5 22  1  0
 22 23  1  0
 23  2  1  0
 21  7  1  0
 20 10  1  0
  1 24  1  0
  1 25  1  0
  1 26  1  0
  3 27  1  0
  3 28  1  0
  4 29  1  0
  4 30  1  0
  5 31  1  0
  6 32  1  0
  8 33  1  0
  9 34  1  0
 11 35  1  0
 14 36  1  0
 21 37  1  0
 22 38  1  0
 22 39  1  0
 23 40  1  0
 23 41  1  0
M  CHG  2  14  -1  19  -1
M  END
>  <UniqueID>  (1) 
1

>  <SMILES>  (1) 
CN1CCC(Nc2ccc3cc(C([NH-])=O)n(C(=O)[O-])c3c2)CC1

>  <Energy>  (1) 
89.94655222864255

>  <Genealogy>  (1) 
CN1CCC(Nc2ccc3cc(C([NH-])=O)n(C(=O)[O-])c3c2)CC1 (protonated)
CN1CCC(Nc2ccc3cc(C([NH-])=O)n(C(=O)[O-])c3c2)CC1 (3D coordinates assigned)
CN1CCC(Nc2ccc3cc(C([NH-])=O)n(C(=O)[O-])c3c2)CC1 (nonaromatic ring conformer: 89.94655222864255 kcal/mol)

>  <smiles>  (1) 
CN1CCC(Nc2ccc3cc(C(N)=O)n(C(=O)O)c3c2)CC1

>  <score_type>  (1) 
oracle

>  <origin>  (1) 
adg

>  <m_score__min__energy>  (1) 
-11.880000000000001

>  <m_primary>  (1) 
energy

$$$$
1:0
     RDKit          3D

 38 40  0  0  0  0  0  0  0  0999 V2000
   -3.0010   24.5280  -29.5410 C   0  0  0  0  0  0  0  0  0  0  0  0
   -3.8350   25.2980  -30.4510 N   0  0  0  0  0  0  0  0  0  0  0  0
   -5.2540   25.1240  -30.5380 C   0  0  0  0  0  0  0  0  0  0  0  0
   -6.0190   26.0250  -30.0970 O   0  0  0  0  0  0  0  0  0  0  0  0
   -5.8220   23.8960  -31.1400 C   0  0  0  0  0  0  0  0  0  0  0  0
   -7.2100   23.6760  -31.1340 C   0  0  0  0  0  0  0  0  0  0  0  0
   -7.7460   22.5170  -31.6990 C   0  0  0  0  0  0  0  0  0  0  0  0
   -6.9070   21.5640  -32.2770 C   0  0  0  0  0  0  0  0  0  0  0  0
   -5.5160   21.7590  -32.2970 C   0  0  0  0  0  0  0  0  0  0  0  0
   -4.6230   20.7460  -32.9150 C   0  0  0  0  0  0  0  0  0  0  0  0
   -5.1350   19.4760  -33.2930 C   0  0  0  0  0  0  0  0  0  0  0  0
   -4.2980   18.5050  -33.8660 C   0  0  0  0  0  0  0  0  0  0  0  0
   -2.9580   18.8280  -34.0560 C   0  0  0  0  0  0  0  0  0  0  0  0
   -1.9300   18.0680  -34.5650 C   0  0  0  0  0  0  0  0  0  0  0  0
   -0.8050   18.8880  -34.5160 C   0  0  0  0  0  0  0  0  0  0  0  0
    0.5190   18.5030  -35.0530 C   0  0  0  0  0  0  0  0  0  0  0  0
    1.6600   19.3390  -34.8520 N   0  0  0  0  0  0  0  0  0  0  0  0
    0.6600   17.4120  -35.6680 O   0  0  0  0  0  0  0  0  0  0  0  0
   -1.1240   20.1070  -33.9930 N   0  0  0  0  0  0  0  0  0  0  0  0
   -0.2380   21.2050  -33.7220 C   0  0  0  0  0  0  0  0  0  0  0  0
    0.1840   21.9300  -34.6620 O   0  0  0  0  0  0  0  0  0  0  0  0
    0.1740   21.4730  -32.4230 O   0  0  0  0  0  0  0  0  0  0  0  0
   -2.4470   20.0530  -33.7160 C   0  0  0  0  0  0  0  0  0  0  0  0
   -3.2530   21.0340  -33.1260 C   0  0  0  0  0  0  0  0  0  0  0  0
   -4.9820   22.9280  -31.7250 C   0  0  0  0  0  0  0  0  0  0  0  0
   -3.2674   24.7740  -28.5025 H   0  0  0  0  0  0  0  0  0  0  0  0
   -3.1618   23.4540  -29.7162 H   0  0  0  0  0  0  0  0  0  0  0  0
   -1.9432   24.7738  -29.7162 H   0  0  0  0  0  0  0  0  0  0  0  0
   -7.8791   24.4223  -30.6809 H   0  0  0  0  0  0  0  0  0  0  0  0
   -8.8339   22.3548  -31.6883 H   0  0  0  0  0  0  0  0  0  0  0  0
   -7.3375   20.6538  -32.7200 H   0  0  0  0  0  0  0  0  0  0  0  0
   -6.2000   19.2505  -33.1349 H   0  0  0  0  0  0  0  0  0  0  0  0
   -4.6898   17.5189  -34.1559 H   0  0  0  0  0  0  0  0  0  0  0  0
   -1.9849   17.0327  -34.9326 H   0  0  0  0  0  0  0  0  0  0  0  0
    2.5970   19.0390  -35.2010 H   0  0  0  0  0  0  0  0  0  0  0  0
    1.5740   20.2750  -34.3960 H   0  0  0  0  0  0  0  0  0  0  0  0
   -2.8313   22.0068  -32.8329 H   0  0  0  0  0  0  0  0  0  0  0  0
   -3.8938   23.0885  -31.7346 H   0  0  0  0  0  0  0  0  0  0  0  0
  1  2  1  0
  2  3  1  0
  3  4  2  0
  3  5  1  0
  5  6  2  0
  6  7  1  0
  7  8  2  0
  8  9  1  0
  9 10  1  0
 10 11  2  0
 11 12  1  0
 12 13  2  0
 13 14  1  0
 14 15  2  0
 15 16  1  0
 16 17  1  0
 16 18  2  0
 15 19  1  0
 19 20  1  0
 20 21  2  0
 20 22  1  0
 19 23  1  0
 23 24  2  0
  9 25  2  0
 25  5  1  0
 24 10  1  0
 23 13  1  0
  1 26  1  0
  1 27  1  0
  1 28  1  0
  6 29  1  0
  7 30  1  0
  8 31  1  0
 11 32  1  0
 12 33  1  0
 14 34  1  0
 17 35  1  0
 17 36  1  0
 24 37  1  0
 25 38  1  0
M  CHG  2   2  -1  22  -1
M  END
>  <UniqueID>  (2) 
2

>  <SMILES>  (2) 
C[N-]C(=O)c1cccc(-c2ccc3cc(C(N)=O)n(C(=O)[O-])c3c2)c1

>  <Energy>  (2) 
83.38695230838553

>  <Genealogy>  (2) 
C[N-]C(=O)c1cccc(-c2ccc3cc(C(N)=O)n(C(=O)[O-])c3c2)c1 (protonated)
C[N-]C(=O)c1cccc(-c2ccc3cc(C(N)=O)n(C(=O)[O-])c3c2)c1 (3D coordinates assigned)
C[N-]C(=O)c1cccc(-c2ccc3cc(C(N)=O)n(C(=O)[O-])c3c2)c1 (optimized conformer: 83.38695230838553 kcal/mol)

>  <smiles>  (2) 
CNC(=O)c1cccc(-c2ccc3cc(C(N)=O)n(C(=O)O)c3c2)c1

>  <score_type>  (2) 
oracle

>  <origin>  (2) 
adg

>  <m_score__min__energy>  (2) 
-9.9900000000000002

>  <m_primary>  (2) 
energy

$$$$
2:0
     RDKit          3D

 46 48  0  0  0  0  0  0  0  0999 V2000
   -7.7310   22.2690  -30.1400 C   0  0  0  0  0  0  0  0  0  0  0  0
   -7.2950   21.9630  -31.5160 N   0  0  0  0  0  0  0  0  0  0  0  0
   -7.1430   23.1940  -32.3100 C   0  0  0  0  0  0  0  0  0  0  0  0
   -8.1500   20.9430  -32.1770 C   0  0  0  0  0  0  0  0  0  0  0  0
   -7.4470   20.0900  -33.2840 C   0  0  1  0  0  0  0  0  0  0  0  0
   -5.9370   20.3940  -33.4200 C   0  0  0  0  0  0  0  0  0  0  0  0
   -5.1940   19.7560  -32.3340 N   0  0  0  0  0  0  0  0  0  0  0  0
   -4.0210   20.3740  -31.7750 C   0  0  0  0  0  0  0  0  0  0  0  0
   -2.7630   19.7240  -31.8450 C   0  0  0  0  0  0  0  0  0  0  0  0
   -1.6120   20.3320  -31.3200 C   0  0  0  0  0  0  0  0  0  0  0  0
   -1.7460   21.5840  -30.7280 C   0  0  0  0  0  0  0  0  0  0  0  0
   -0.7960   22.4060  -30.1680 C   0  0  0  0  0  0  0  0  0  0  0  0
   -1.4880   23.5390  -29.7470 C   0  0  0  0  0  0  0  0  0  0  0  0
   -0.8530   24.6510  -29.0090 C   0  0  0  0  0  0  0  0  0  0  0  0
   -1.4890   25.9270  -28.9650 N   0  0  0  0  0  0  0  0  0  0  0  0
    0.2630   24.4980  -28.4490 O   0  0  0  0  0  0  0  0  0  0  0  0
   -2.8140   23.4270  -30.0420 N   0  0  0  0  0  0  0  0  0  0  0  0
   -3.8450   24.4070  -29.8380 C   0  0  0  0  0  0  0  0  0  0  0  0
   -4.7510   24.2100  -28.9870 O   0  0  0  0  0  0  0  0  0  0  0  0
   -3.8690   25.5690  -30.5990 O   0  0  0  0  0  0  0  0  0  0  0  0
   -2.9560   22.2220  -30.6390 C   0  0  0  0  0  0  0  0  0  0  0  0
   -4.1170   21.6470  -31.1700 C   0  0  0  0  0  0  0  0  0  0  0  0
   -5.4980   18.3520  -32.0640 C   0  0  0  0  0  0  0  0  0  0  0  0
   -7.0110   18.1840  -31.9560 C   0  0  0  0  0  0  0  0  0  0  0  0
   -7.6760   18.6960  -33.1010 O   0  0  0  0  0  0  0  0  0  0  0  0
   -7.0477   21.7894  -29.4237 H   0  0  0  0  0  0  0  0  0  0  0  0
   -7.7192   23.3580  -29.9853 H   0  0  0  0  0  0  0  0  0  0  0  0
   -8.7511   21.8877  -29.9853 H   0  0  0  0  0  0  0  0  0  0  0  0
   -6.3390   21.5390  -31.4360 H   0  0  0  0  0  0  0  0  0  0  0  0
   -7.0366   24.0554  -31.6342 H   0  0  0  0  0  0  0  0  0  0  0  0
   -6.2480   23.1130  -32.9444 H   0  0  0  0  0  0  0  0  0  0  0  0
   -8.0308   23.3331  -32.9444 H   0  0  0  0  0  0  0  0  0  0  0  0
   -8.5178   20.2550  -31.4015 H   0  0  0  0  0  0  0  0  0  0  0  0
   -8.9475   21.5025  -32.6878 H   0  0  0  0  0  0  0  0  0  0  0  0
   -7.9124   20.3907  -34.2343 H   0  0  0  0  0  0  0  0  0  0  0  0
   -5.5741   20.0085  -34.3842 H   0  0  0  0  0  0  0  0  0  0  0  0
   -5.7837   21.4821  -33.3692 H   0  0  0  0  0  0  0  0  0  0  0  0
   -2.6882   18.7326  -32.3158 H   0  0  0  0  0  0  0  0  0  0  0  0
   -0.6330   19.8334  -31.3750 H   0  0  0  0  0  0  0  0  0  0  0  0
    0.2822   22.2100  -30.0728 H   0  0  0  0  0  0  0  0  0  0  0  0
   -2.5290   26.0080  -28.9680 H   0  0  0  0  0  0  0  0  0  0  0  0
   -5.0811   22.1740  -31.1173 H   0  0  0  0  0  0  0  0  0  0  0  0
   -5.1150   17.7272  -32.8843 H   0  0  0  0  0  0  0  0  0  0  0  0
   -5.0212   18.0426  -31.1222 H   0  0  0  0  0  0  0  0  0  0  0  0
   -7.2452   17.1139  -31.8557 H   0  0  0  0  0  0  0  0  0  0  0  0
   -7.3580   18.7459  -31.0763 H   0  0  0  0  0  0  0  0  0  0  0  0
  1  2  1  0
  2  3  1  0
  2  4  1  0
  4  5  1  0
  5  6  1  0
  6  7  1  0
  7  8  1  0
  8  9  2  0
  9 10  1  0
 10 11  2  0
 11 12  1  0
 12 13  2  0
 13 14  1  0
 14 15  1  0
 14 16  2  0
 13 17  1  0
 17 18  1  0
 18 19  2  0
 18 20  1  0
 17 21  1  0
 21 22  2  0
  7 23  1  0
 23 24  1  0
 24 25  1  0
 25  5  1  0
 22  8  1  0
 21 11  1  0
  1 26  1  0
  1 27  1  0
  1 28  1  0
  2 29  1  0
  3 30  1  0
  3 31  1  0
  3 32  1  0
  4 33  1  0
  4 34  1  0
  5 35  1  6
  6 36  1  0
  6 37  1  0
  9 38  1  0
 10 39  1  0
 12 40  1  0
 15 41  1  0
 22 42  1  0
 23 43  1  0
 23 44  1  0
 24 45  1  0
 24 46  1  0
M  CHG  3   2   1  15  -1  20  -1
M  END
>  <UniqueID>  (3) 
3

>  <SMILES>  (3) 
C[NH+](C)C[C@H]1CN(c2ccc3cc(C([NH-])=O)n(C(=O)[O-])c3c2)CCO1

>  <Energy>  (3) 
100.05290859817944

>  <Genealogy>  (3) 
C[NH+](C)CC1CN(c2ccc3cc(C([NH-])=O)n(C(=O)[O-])c3c2)CCO1 (protonated)
C[NH+](C)C[C@H]1CN(c2ccc3cc(C([NH-])=O)n(C(=O)[O-])c3c2)CCO1 (chirality)
C[NH+](C)C[C@H]1CN(c2ccc3cc(C([NH-])=O)n(C(=O)[O-])c3c2)CCO1 (3D coordinates assigned)
C[NH+](C)C[C@H]1CN(c2ccc3cc(C([NH-])=O)n(C(=O)[O-])c3c2)CCO1 (nonaromatic ring conformer: 100.05290859817944 kcal/mol)

>  <smiles>  (3) 
CN(C)CC1CN(c2ccc3cc(C(N)=O)n(C(=O)O)c3c2)CCO1

>  <score_type>  (3) 
oracle

>  <origin>  (3) 
adg

>  <m_score__min__energy>  (3) 
-11.33

>  <m_primary>  (3) 
energy

$$$$
3:0
     RDKit          3D

 37 38  0  0  0  0  0  0  0  0999 V2000
   -3.8620   25.3480  -30.8130 N   0  0  0  0  0  0  0  0  0  0  0  0
   -5.2540   25.1530  -30.5810 C   0  0  0  0  0  0  0  0  0  0  0  0
   -5.9060   26.0380  -29.9650 O   0  0  0  0  0  0  0  0  0  0  0  0
   -5.9270   23.9070  -31.0000 C   0  0  0  0  0  0  0  0  0  0  0  0
   -7.2980   23.8220  -31.2400 C   0  0  0  0  0  0  0  0  0  0  0  0
   -7.5370   22.4950  -31.5150 C   0  0  0  0  0  0  0  0  0  0  0  0
   -8.7270   21.8470  -31.8320 C   0  0  0  0  0  0  0  0  0  0  0  0
   -8.6790   20.4690  -32.0950 C   0  0  0  0  0  0  0  0  0  0  0  0
   -7.4460   19.7690  -32.0520 C   0  0  0  0  0  0  0  0  0  0  0  0
   -7.4060   18.2860  -32.3170 C   0  0  0  0  0  0  0  0  0  0  0  0
   -6.0400   17.8430  -32.8550 C   0  0  0  0  0  0  0  0  0  0  0  0
   -6.1260   17.4050  -34.2840 C   0  0  0  0  0  0  0  0  0  0  0  0
   -5.6130   18.1080  -35.1950 O   0  0  0  0  0  0  0  0  0  0  0  0
   -6.7340   16.1990  -34.6070 O   0  0  0  0  0  0  0  0  0  0  0  0
   -6.2580   20.4590  -31.7200 C   0  0  0  0  0  0  0  0  0  0  0  0
   -6.3410   21.8280  -31.4430 C   0  0  0  0  0  0  0  0  0  0  0  0
   -5.3410   22.6830  -31.1300 N   0  0  0  0  0  0  0  0  0  0  0  0
   -3.9410   22.3720  -31.0590 C   0  0  0  0  0  0  0  0  0  0  0  0
   -3.1920   22.6070  -32.0460 O   0  0  0  0  0  0  0  0  0  0  0  0
   -3.4100   21.8270  -29.8860 O   0  0  0  0  0  0  0  0  0  0  0  0
   -3.4670   22.4990  -28.6320 C   0  0  0  0  0  0  0  0  0  0  0  0
   -2.2060   23.3360  -28.4400 C   0  0  0  0  0  0  0  0  0  0  0  0
   -1.7810   23.8740  -29.6630 O   0  0  0  0  0  0  0  0  0  0  0  0
   -3.2470   24.5520  -31.0920 H   0  0  0  0  0  0  0  0  0  0  0  0
   -8.0319   24.6410  -31.2149 H   0  0  0  0  0  0  0  0  0  0  0  0
   -9.6777   22.3986  -31.8752 H   0  0  0  0  0  0  0  0  0  0  0  0
   -9.6054   19.9273  -32.3365 H   0  0  0  0  0  0  0  0  0  0  0  0
   -7.6102   17.7504  -31.3782 H   0  0  0  0  0  0  0  0  0  0  0  0
   -8.1662   18.0527  -33.0771 H   0  0  0  0  0  0  0  0  0  0  0  0
   -5.3371   18.6859  -32.7817 H   0  0  0  0  0  0  0  0  0  0  0  0
   -5.6939   16.9893  -32.2538 H   0  0  0  0  0  0  0  0  0  0  0  0
   -5.2927   19.9331  -31.6804 H   0  0  0  0  0  0  0  0  0  0  0  0
   -4.3490   23.1559  -28.6088 H   0  0  0  0  0  0  0  0  0  0  0  0
   -3.5383   21.7566  -27.8235 H   0  0  0  0  0  0  0  0  0  0  0  0
   -2.4196   24.1562  -27.7388 H   0  0  0  0  0  0  0  0  0  0  0  0
   -1.4095   22.6915  -28.0397 H   0  0  0  0  0  0  0  0  0  0  0  0
   -2.5280   23.7440  -30.3050 H   0  0  0  0  0  0  0  0  0  0  0  0
  1  2  1  0
  2  3  2  0
  2  4  1  0
  4  5  2  0
  5  6  1  0
  6  7  2  0
  7  8  1  0
  8  9  2  0
  9 10  1  0
 10 11  1  0
 11 12  1  0
 12 13  2  0
 12 14  1  0
  9 15  1  0
 15 16  2  0
 16 17  1  0
 17 18  1  0
 18 19  2  0
 18 20  1  0
 20 21  1  0
 21 22  1  0
 22 23  1  0
 17  4  1  0
 16  6  1  0
  1 24  1  0
  5 25  1  0
  7 26  1  0
  8 27  1  0
 10 28  1  0
 10 29  1  0
 11 30  1  0
 11 31  1  0
 15 32  1  0
 21 33  1  0
 21 34  1  0
 22 35  1  0
 22 36  1  0
 23 37  1  0
M  CHG  2   1  -1  14  -1
M  END
>  <UniqueID>  (4) 
4

>  <SMILES>  (4) 
[NH-]C(=O)c1cc2ccc(CCC(=O)[O-])cc2n1C(=O)OCCO

>  <Energy>  (4) 
68.1663354998566

>  <Genealogy>  (4) 
[NH-]C(=O)c1cc2ccc(CCC(=O)[O-])cc2n1C(=O)OCCO (protonated)
[NH-]C(=O)c1cc2ccc(CCC(=O)[O-])cc2n1C(=O)OCCO (3D coordinates assigned)
[NH-]C(=O)c1cc2ccc(CCC(=O)[O-])cc2n1C(=O)OCCO (optimized conformer: 68.1663354998566 kcal/mol)

>  <smiles>  (4) 
NC(=O)c1cc2ccc(CCC(=O)O)cc2n1C(=O)OCCO

>  <score_type>  (4) 
oracle

>  <origin>  (4) 
adg

>  <m_score__min__energy>  (4) 
-9.7300000000000004

>  <m_primary>  (4) 
energy

$$$$
4:0
     RDKit          3D

 35 36  0  0  0  0  0  0  0  0999 V2000
   -7.7040   22.3240  -30.6870 C   0  0  0  0  0  0  0  0  0  0  0  0
   -7.9110   21.8600  -32.0150 O   0  0  0  0  0  0  0  0  0  0  0  0
   -8.1230   20.5110  -32.3160 C   0  0  0  0  0  0  0  0  0  0  0  0
   -9.2930   20.0460  -32.3910 O   0  0  0  0  0  0  0  0  0  0  0  0
   -6.9440   19.6040  -32.5360 C   0  0  1  0  0  0  0  0  0  0  0  0
   -7.4080   18.3390  -33.1080 N   0  0  0  0  0  0  0  0  0  0  0  0
   -5.8910   20.2680  -33.4490 C   0  0  0  0  0  0  0  0  0  0  0  0
   -4.6560   20.6600  -32.6780 C   0  0  0  0  0  0  0  0  0  0  0  0
   -3.5120   19.8240  -32.6920 C   0  0  0  0  0  0  0  0  0  0  0  0
   -2.3490   20.1920  -31.9970 C   0  0  0  0  0  0  0  0  0  0  0  0
   -2.3540   21.4020  -31.3100 C   0  0  0  0  0  0  0  0  0  0  0  0
   -1.3730   21.9890  -30.5440 C   0  0  0  0  0  0  0  0  0  0  0  0
   -1.9210   23.1890  -30.0990 C   0  0  0  0  0  0  0  0  0  0  0  0
   -1.1650   24.1840  -29.3080 C   0  0  0  0  0  0  0  0  0  0  0  0
   -1.5750   25.5490  -29.3100 N   0  0  0  0  0  0  0  0  0  0  0  0
   -0.1840   23.8350  -28.6010 O   0  0  0  0  0  0  0  0  0  0  0  0
   -3.1940   23.3380  -30.5650 N   0  0  0  0  0  0  0  0  0  0  0  0
   -4.1190   24.3980  -30.2740 C   0  0  0  0  0  0  0  0  0  0  0  0
   -5.1210   24.1850  -29.5420 O   0  0  0  0  0  0  0  0  0  0  0  0
   -3.9030   25.6760  -30.7750 O   0  0  0  0  0  0  0  0  0  0  0  0
   -3.4440   22.2350  -31.3070 C   0  0  0  0  0  0  0  0  0  0  0  0
   -4.6220   21.8860  -31.9760 C   0  0  0  0  0  0  0  0  0  0  0  0
   -8.0453   21.5591  -29.9740 H   0  0  0  0  0  0  0  0  0  0  0  0
   -6.6331   22.5200  -30.5298 H   0  0  0  0  0  0  0  0  0  0  0  0
   -8.2735   23.2519  -30.5298 H   0  0  0  0  0  0  0  0  0  0  0  0
   -6.4590   19.4082  -31.5683 H   0  0  0  0  0  0  0  0  0  0  0  0
   -8.3380   18.4970  -33.5610 H   0  0  0  0  0  0  0  0  0  0  0  0
   -7.5520   17.6400  -32.3400 H   0  0  0  0  0  0  0  0  0  0  0  0
   -5.6074   19.5593  -34.2410 H   0  0  0  0  0  0  0  0  0  0  0  0
   -6.3329   21.1797  -33.8775 H   0  0  0  0  0  0  0  0  0  0  0  0
   -3.5354   18.8779  -33.2526 H   0  0  0  0  0  0  0  0  0  0  0  0
   -1.4606   19.5433  -31.9956 H   0  0  0  0  0  0  0  0  0  0  0  0
   -0.3691   21.5940  -30.3290 H   0  0  0  0  0  0  0  0  0  0  0  0
   -2.5540   25.8160  -29.0630 H   0  0  0  0  0  0  0  0  0  0  0  0
   -5.4995   22.5490  -31.9561 H   0  0  0  0  0  0  0  0  0  0  0  0
  1  2  1  0
  2  3  1  0
  3  4  2  0
  3  5  1  0
  5  6  1  0
  5  7  1  0
  7  8  1  0
  8  9  2  0
  9 10  1  0
 10 11  2  0
 11 12  1  0
 12 13  2  0
 13 14  1  0
 14 15  1  0
 14 16  2  0
 13 17  1  0
 17 18  1  0
 18 19  2  0
 18 20  1  0
 17 21  1  0
 21 22  2  0
 22  8  1  0
 21 11  1  0
  1 23  1  0
  1 24  1  0
  1 25  1  0
  5 26  1  1
  6 27  1  0
  6 28  1  0
  7 29  1  0
  7 30  1  0
  9 31  1  0
 10 32  1  0
 12 33  1  0
 15 34  1  0
 22 35  1  0
M  CHG  2  15  -1  20  -1
M  END
>  <UniqueID>  (5) 
5

>  <SMILES>  (5) 
COC(=O)[C@@H](N)Cc1ccc2cc(C([NH-])=O)n(C(=O)[O-])c2c1

>  <Energy>  (5) 
68.7529531499381

>  <Genealogy>  (5) 
COC(=O)[C@@H](N)Cc1ccc2cc(C([NH-])=O)n(C(=O)[O-])c2c1 (protonated)
COC(=O)[C@@H](N)Cc1ccc2cc(C([NH-])=O)n(C(=O)[O-])c2c1 (3D coordinates assigned)
COC(=O)[C@@H](N)Cc1ccc2cc(C([NH-])=O)n(C(=O)[O-])c2c1 (optimized conformer: 68.7529531499381 kcal/mol)

>  <smiles>  (5) 
COC(=O)[C@@H](N)Cc1ccc2cc(C(N)=O)n(C(=O)O)c2c1

>  <score_type>  (5) 
oracle

>  <origin>  (5) 
adg

>  <m_score__min__energy>  (5) 
-10.92

>  <m_primary>  (5) 
energy

$$$$
5:0
     RDKit          3D

 39 40  0  0  0  0  0  0  0  0999 V2000
   -2.7520   25.2000  -30.8410 H   0  0  0  0  0  0  0  0  0  0  0  0
   -3.5440   25.0590  -30.1770 N   0  0  0  0  0  0  0  0  0  0  0  0
   -4.8920   25.2790  -30.5850 C   0  0  0  0  0  0  0  0  0  0  0  0
   -5.3770   26.4390  -30.5100 O   0  0  0  0  0  0  0  0  0  0  0  0
   -5.7430   24.1590  -31.0390 C   0  0  0  0  0  0  0  0  0  0  0  0
   -7.1230   24.1210  -30.8520 C   0  0  0  0  0  0  0  0  0  0  0  0
   -7.7594   24.9070  -30.4194 H   0  0  0  0  0  0  0  0  0  0  0  0
   -7.5210   22.8900  -31.3240 C   0  0  0  0  0  0  0  0  0  0  0  0
   -8.7890   22.3220  -31.3820 C   0  0  0  0  0  0  0  0  0  0  0  0
   -9.6693   22.8603  -31.0010 H   0  0  0  0  0  0  0  0  0  0  0  0
   -8.9110   21.0400  -31.9420 C   0  0  0  0  0  0  0  0  0  0  0  0
   -9.8984   20.5573  -31.9871 H   0  0  0  0  0  0  0  0  0  0  0  0
   -7.7720   20.3600  -32.4510 C   0  0  0  0  0  0  0  0  0  0  0  0
   -7.8830   19.0420  -33.0150 N   0  0  0  0  0  0  0  0  0  0  0  0
   -8.7680   18.8000  -33.5160 H   0  0  0  0  0  0  0  0  0  0  0  0
   -6.8510   18.0410  -32.9370 C   0  0  0  0  0  0  0  0  0  0  0  0
   -6.3500   17.5540  -34.0910 C   0  0  0  0  0  0  0  0  0  0  0  0
   -6.7724   17.9553  -35.0240 H   0  0  0  0  0  0  0  0  0  0  0  0
   -5.2880   16.5330  -34.2240 C   0  0  0  0  0  0  0  0  0  0  0  0
   -4.1880   16.7810  -34.7810 O   0  0  0  0  0  0  0  0  0  0  0  0
   -5.5250   15.2520  -33.7390 O   0  0  0  0  0  0  0  0  0  0  0  0
   -6.4280   17.5180  -31.5870 C   0  0  0  0  0  0  0  0  0  0  0  0
   -6.9089   18.1126  -30.7963 H   0  0  0  0  0  0  0  0  0  0  0  0
   -6.7316   16.4652  -31.4901 H   0  0  0  0  0  0  0  0  0  0  0  0
   -5.3350   17.5948  -31.4901 H   0  0  0  0  0  0  0  0  0  0  0  0
   -6.5000   20.9630  -32.3550 C   0  0  0  0  0  0  0  0  0  0  0  0
   -5.6029   20.4462  -32.7266 H   0  0  0  0  0  0  0  0  0  0  0  0
   -6.4060   22.2340  -31.7760 C   0  0  0  0  0  0  0  0  0  0  0  0
   -5.3060   23.0010  -31.6120 N   0  0  0  0  0  0  0  0  0  0  0  0
   -3.9740   22.6760  -32.0380 C   0  0  0  0  0  0  0  0  0  0  0  0
   -2.9870   23.0160  -31.3290 O   0  0  0  0  0  0  0  0  0  0  0  0
   -3.7770   22.0080  -33.2510 O   0  0  0  0  0  0  0  0  0  0  0  0
   -2.8510   20.9370  -33.4180 C   0  0  0  0  0  0  0  0  0  0  0  0
   -2.1597   20.9203  -32.5625 H   0  0  0  0  0  0  0  0  0  0  0  0
   -2.2949   21.0923  -34.3543 H   0  0  0  0  0  0  0  0  0  0  0  0
   -3.5820   19.6020  -33.4970 C   0  0  0  0  0  0  0  0  0  0  0  0
   -3.7837   19.2337  -32.4803 H   0  0  0  0  0  0  0  0  0  0  0  0
   -4.5327   19.7358  -34.0339 H   0  0  0  0  0  0  0  0  0  0  0  0
   -2.9572   18.8730  -34.0339 H   0  0  0  0  0  0  0  0  0  0  0  0
  1  2  1  0
  2  3  1  0
  3  4  2  0
  3  5  1  0
  5  6  2  0
  6  7  1  0
  6  8  1  0
  8  9  2  0
  9 10  1  0
  9 11  1  0
 11 12  1  0
 11 13  2  0
 13 14  1  0
 14 15  1  0
 14 16  1  0
 16 17  2  0
 17 18  1  0
 17 19  1  0
 19 20  2  0
 19 21  1  0
 16 22  1  0
 22 23  1  0
 22 24  1  0
 22 25  1  0
 13 26  1  0
 26 27  1  0
 26 28  2  0
 28 29  1  0
 29 30  1  0
 30 31  2  0
 30 32  1  0
 32 33  1  0
 33 34  1  0
 33 35  1  0
 33 36  1  0
 36 37  1  0
 36 38  1  0
 36 39  1  0
 29  5  1  0
 28  8  1  0
M  CHG  2   2  -1  21  -1
M  END
>  <UniqueID>  (6) 
6

>  <SMILES>  (6) 
CCOC(=O)n1c(C([NH-])=O)cc2ccc(N/C(C)=C/C(=O)[O-])cc21

>  <Energy>  (6) 
80.9076121017594

>  <Genealogy>  (6) 
CCOC(=O)n1c(C([NH-])=O)cc2ccc(NC(C)=CC(=O)[O-])cc21 (protonated)
CCOC(=O)n1c(C([NH-])=O)cc2ccc(N/C(C)=C/C(=O)[O-])cc21 (cis-trans isomerization)
CCOC(=O)n1c(C([NH-])=O)cc2ccc(N/C(C)=C/C(=O)[O-])cc21 (3D coordinates assigned)
CCOC(=O)n1c(C([NH-])=O)cc2ccc(N/C(C)=C/C(=O)[O-])cc21 (optimized conformer: 80.9076121017594 kcal/mol)

>  <smiles>  (6) 
CCOC(=O)n1c(C(N)=O)cc2ccc(NC(C)=CC(=O)O)cc21

>  <score_type>  (6) 
oracle

>  <origin>  (6) 
adg

>  <m_score__min__energy>  (6) 
-10.67

>  <m_primary>  (6) 
energy

$$$$
6:0
     RDKit          3D

 37 39  0  0  0  0  0  0  0  0999 V2000
    0.1050   21.9880  -28.1790 C   0  0  0  0  0  0  0  0  0  0  0  0
   -0.6850   23.2410  -28.3720 C   0  0  0  0  0  0  0  0  0  0  0  0
   -0.1640   24.4350  -28.5270 O   0  0  0  0  0  0  0  0  0  0  0  0
   -1.1800   25.2520  -28.6910 C   0  0  0  0  0  0  0  0  0  0  0  0
   -1.0580   26.4920  -28.8670 O   0  0  0  0  0  0  0  0  0  0  0  0
   -2.3380   24.6320  -28.6520 O   0  0  0  0  0  0  0  0  0  0  0  0
   -2.0600   23.3640  -28.4580 C   0  0  0  0  0  0  0  0  0  0  0  0
   -3.0860   22.2770  -28.3470 C   0  0  0  0  0  0  0  0  0  0  0  0
   -3.4050   21.7520  -29.6330 O   0  0  0  0  0  0  0  0  0  0  0  0
   -3.7580   22.5540  -30.7240 C   0  0  0  0  0  0  0  0  0  0  0  0
   -2.8660   23.0410  -31.4730 O   0  0  0  0  0  0  0  0  0  0  0  0
   -5.1400   22.8260  -30.9890 N   0  0  0  0  0  0  0  0  0  0  0  0
   -5.8130   23.9950  -30.7970 C   0  0  0  0  0  0  0  0  0  0  0  0
   -5.2110   25.2890  -30.4140 C   0  0  0  0  0  0  0  0  0  0  0  0
   -3.8980   25.6430  -30.8420 N   0  0  0  0  0  0  0  0  0  0  0  0
   -5.8820   26.1140  -29.7380 O   0  0  0  0  0  0  0  0  0  0  0  0
   -7.1620   23.8380  -31.1100 C   0  0  0  0  0  0  0  0  0  0  0  0
   -7.2920   22.5270  -31.5120 C   0  0  0  0  0  0  0  0  0  0  0  0
   -8.4160   21.8310  -31.9450 C   0  0  0  0  0  0  0  0  0  0  0  0
   -8.2600   20.4780  -32.2890 C   0  0  0  0  0  0  0  0  0  0  0  0
   -6.9970   19.8390  -32.1730 C   0  0  0  0  0  0  0  0  0  0  0  0
   -6.8350   18.3980  -32.5850 C   0  0  0  0  0  0  0  0  0  0  0  0
   -8.0340   17.7170  -32.4630 F   0  0  0  0  0  0  0  0  0  0  0  0
   -6.4170   18.3450  -33.9020 F   0  0  0  0  0  0  0  0  0  0  0  0
   -5.8960   17.7660  -31.7880 F   0  0  0  0  0  0  0  0  0  0  0  0
   -5.8750   20.5900  -31.7530 C   0  0  0  0  0  0  0  0  0  0  0  0
   -6.0580   21.9390  -31.4320 C   0  0  0  0  0  0  0  0  0  0  0  0
    0.2275   21.7938  -27.1032 H   0  0  0  0  0  0  0  0  0  0  0  0
   -0.4251   21.1447  -28.6458 H   0  0  0  0  0  0  0  0  0  0  0  0
    1.0944   22.1028  -28.6458 H   0  0  0  0  0  0  0  0  0  0  0  0
   -2.6888   21.4687  -27.7154 H   0  0  0  0  0  0  0  0  0  0  0  0
   -3.9992   22.6970  -27.9001 H   0  0  0  0  0  0  0  0  0  0  0  0
   -3.0740   25.0520  -30.5950 H   0  0  0  0  0  0  0  0  0  0  0  0
   -7.9541   24.5989  -31.0490 H   0  0  0  0  0  0  0  0  0  0  0  0
   -9.3964   22.3248  -32.0158 H   0  0  0  0  0  0  0  0  0  0  0  0
   -9.1267   19.9065  -32.6527 H   0  0  0  0  0  0  0  0  0  0  0  0
   -4.8812   20.1241  -31.6804 H   0  0  0  0  0  0  0  0  0  0  0  0
  1  2  1  0
  2  3  1  0
  3  4  1  0
  4  5  2  0
  4  6  1  0
  6  7  1  0
  7  8  1  0
  8  9  1  0
  9 10  1  0
 10 11  2  0
 10 12  1  0
 12 13  1  0
 13 14  1  0
 14 15  1  0
 14 16  2  0
 13 17  2  0
 17 18  1  0
 18 19  2  0
 19 20  1  0
 20 21  2  0
 21 22  1  0
 22 23  1  0
 22 24  1  0
 22 25  1  0
 21 26  1  0
 26 27  2  0
  7  2  2  0
 27 12  1  0
 27 18  1  0
  1 28  1  0
  1 29  1  0
  1 30  1  0
  8 31  1  0
  8 32  1  0
 15 33  1  0
 17 34  1  0
 19 35  1  0
 20 36  1  0
 26 37  1  0
M  CHG  1  15  -1
M  END
>  <UniqueID>  (7) 
7

>  <SMILES>  (7) 
Cc1oc(=O)oc1COC(=O)n1c(C([NH-])=O)cc2ccc(C(F)(F)F)cc21

>  <Energy>  (7) 
108.06275175480893

>  <Genealogy>  (7) 
Cc1oc(=O)oc1COC(=O)n1c(C([NH-])=O)cc2ccc(C(F)(F)F)cc21 (protonated)
Cc1oc(=O)oc1COC(=O)n1c(C([NH-])=O)cc2ccc(C(F)(F)F)cc21 (3D coordinates assigned)
Cc1oc(=O)oc1COC(=O)n1c(C([NH-])=O)cc2ccc(C(F)(F)F)cc21 (optimized conformer: 108.06275175480893 kcal/mol)

>  <smiles>  (7) 
Cc1oc(=O)oc1COC(=O)n1c(C(N)=O)cc2ccc(C(F)(F)F)cc21

>  <score_type>  (7) 
oracle

>  <origin>  (7) 
adg

>  <m_score__min__energy>  (7) 
-10.43

>  <m_primary>  (7) 
energy

$$$$
7:0
     RDKit          3D

 34 36  0  0  0  0  0  0  0  0999 V2000
   -5.5450   25.3090  -28.7320 N   0  0  0  0  0  0  0  0  0  0  0  0
   -6.4520   24.8670  -29.7430 C   0  0  0  0  0  0  0  0  0  0  0  0
   -7.5530   25.4630  -29.8840 O   0  0  0  0  0  0  0  0  0  0  0  0
   -6.1260   23.7000  -30.5940 C   0  0  0  0  0  0  0  0  0  0  0  0
   -7.0850   22.8630  -31.1630 C   0  0  0  0  0  0  0  0  0  0  0  0
   -6.3790   21.9750  -31.9400 C   0  0  0  0  0  0  0  0  0  0  0  0
   -6.8320   20.9080  -32.7120 C   0  0  0  0  0  0  0  0  0  0  0  0
   -5.8730   20.1250  -33.3790 C   0  0  0  0  0  0  0  0  0  0  0  0
   -4.4930   20.4230  -33.2640 C   0  0  0  0  0  0  0  0  0  0  0  0
   -3.4730   19.5340  -33.9270 C   0  0  0  0  0  0  0  0  0  0  0  0
   -3.4550   18.1370  -33.2970 C   0  0  0  0  0  0  0  0  0  0  0  0
   -4.7430   17.4700  -33.4730 N   0  0  0  0  0  0  0  0  0  0  0  0
   -5.2940   17.0740  -34.6320 C   0  0  0  0  0  0  0  0  0  0  0  0
   -6.5220   16.5600  -34.4340 N   0  0  0  0  0  0  0  0  0  0  0  0
   -6.6740   16.6750  -33.0960 C   0  0  0  0  0  0  0  0  0  0  0  0
   -5.6020   17.2330  -32.5000 N   0  0  0  0  0  0  0  0  0  0  0  0
   -4.0720   21.5120  -32.4700 C   0  0  0  0  0  0  0  0  0  0  0  0
   -5.0480   22.2830  -31.8270 C   0  0  0  0  0  0  0  0  0  0  0  0
   -4.8760   23.3400  -31.0020 N   0  0  0  0  0  0  0  0  0  0  0  0
   -3.6200   23.9050  -30.5890 C   0  0  0  0  0  0  0  0  0  0  0  0
   -2.6270   23.1600  -30.3720 O   0  0  0  0  0  0  0  0  0  0  0  0
   -3.4830   25.2790  -30.4380 O   0  0  0  0  0  0  0  0  0  0  0  0
   -5.8020   26.1090  -28.1120 H   0  0  0  0  0  0  0  0  0  0  0  0
   -4.6020   24.8770  -28.6220 H   0  0  0  0  0  0  0  0  0  0  0  0
   -8.1750   22.9043  -31.0206 H   0  0  0  0  0  0  0  0  0  0  0  0
   -7.9057   20.6848  -32.7973 H   0  0  0  0  0  0  0  0  0  0  0  0
   -6.1974   19.2737  -33.9954 H   0  0  0  0  0  0  0  0  0  0  0  0
   -3.7190   19.4418  -34.9952 H   0  0  0  0  0  0  0  0  0  0  0  0
   -2.4796   19.9870  -33.7929 H   0  0  0  0  0  0  0  0  0  0  0  0
   -2.6691   17.5354  -33.7770 H   0  0  0  0  0  0  0  0  0  0  0  0
   -3.2560   18.2393  -32.2200 H   0  0  0  0  0  0  0  0  0  0  0  0
   -4.8058   17.1586  -35.6141 H   0  0  0  0  0  0  0  0  0  0  0  0
   -7.5736   16.3490  -32.5534 H   0  0  0  0  0  0  0  0  0  0  0  0
   -3.0035   21.7489  -32.3593 H   0  0  0  0  0  0  0  0  0  0  0  0
  1  2  1  0
  2  3  2  0
  2  4  1  0
  4  5  2  0
  5  6  1  0
  6  7  2  0
  7  8  1  0
  8  9  2  0
  9 10  1  0
 10 11  1  0
 11 12  1  0
 12 13  1  0
 13 14  2  0
 14 15  1  0
 15 16  2  0
  9 17  1  0
 17 18  2  0
 18 19  1  0
 19 20  1  0
 20 21  2  0
 20 22  1  0
 19  4  1  0
 18  6  1  0
 16 12  1  0
  1 23  1  0
  1 24  1  0
  5 25  1  0
  7 26  1  0
  8 27  1  0
 10 28  1  0
 10 29  1  0
 11 30  1  0
 11 31  1  0
 13 32  1  0
 15 33  1  0
 17 34  1  0
M  CHG  1  22  -1
M  END
>  <UniqueID>  (8) 
8

>  <SMILES>  (8) 
NC(=O)c1cc2ccc(CCn3cncn3)cc2n1C(=O)[O-]

>  <Energy>  (8) 
103.584416724979

>  <Genealogy>  (8) 
NC(=O)c1cc2ccc(CCn3cncn3)cc2n1C(=O)[O-] (protonated)
NC(=O)c1cc2ccc(CCn3cncn3)cc2n1C(=O)[O-] (3D coordinates assigned)
NC(=O)c1cc2ccc(CCn3cncn3)cc2n1C(=O)[O-] (optimized conformer: 103.584416724979 kcal/mol)

>  <smiles>  (8) 
NC(=O)c1cc2ccc(CCn3cncn3)cc2n1C(=O)O

>  <score_type>  (8) 
oracle

>  <origin>  (8) 
adg

>  <m_score__min__energy>  (8) 
-8.7899999999999991

>  <m_primary>  (8) 
energy

$$$$
8:0
     RDKit          3D

 37 38  0  0  0  0  0  0  0  0999 V2000
   -4.1960   25.5270  -30.6540 N   0  0  0  0  0  0  0  0  0  0  0  0
   -5.5700   25.1600  -30.5210 C   0  0  0  0  0  0  0  0  0  0  0  0
   -6.3910   25.9990  -30.0600 O   0  0  0  0  0  0  0  0  0  0  0  0
   -6.0570   23.8420  -30.9740 C   0  0  0  0  0  0  0  0  0  0  0  0
   -7.4040   23.5500  -31.1700 C   0  0  0  0  0  0  0  0  0  0  0  0
   -7.4290   22.2600  -31.6470 C   0  0  0  0  0  0  0  0  0  0  0  0
   -8.5120   21.4560  -31.9930 C   0  0  0  0  0  0  0  0  0  0  0  0
   -8.2490   20.1440  -32.4170 C   0  0  0  0  0  0  0  0  0  0  0  0
   -6.9180   19.6590  -32.4830 C   0  0  0  0  0  0  0  0  0  0  0  0
   -6.6490   18.2350  -32.8940 C   0  0  0  0  0  0  0  0  0  0  0  0
   -5.8170   18.1750  -34.1740 C   0  0  0  0  0  0  0  0  0  0  0  0
   -6.0760   19.2980  -34.9700 O   0  0  0  0  0  0  0  0  0  0  0  0
   -5.8460   20.4990  -32.1110 C   0  0  0  0  0  0  0  0  0  0  0  0
   -6.1350   21.8110  -31.7150 C   0  0  0  0  0  0  0  0  0  0  0  0
   -5.2790   22.7730  -31.3010 N   0  0  0  0  0  0  0  0  0  0  0  0
   -3.8580   22.6390  -31.1350 C   0  0  0  0  0  0  0  0  0  0  0  0
   -3.1660   22.0930  -32.0380 O   0  0  0  0  0  0  0  0  0  0  0  0
   -3.2440   23.1210  -29.9750 O   0  0  0  0  0  0  0  0  0  0  0  0
   -1.8560   22.9510  -29.7110 C   0  0  0  0  0  0  0  0  0  0  0  0
   -1.2700   24.2480  -29.1620 C   0  0  0  0  0  0  0  0  0  0  0  0
   -2.1900   25.2980  -29.3010 O   0  0  0  0  0  0  0  0  0  0  0  0
   -3.8630   26.4480  -30.2910 H   0  0  0  0  0  0  0  0  0  0  0  0
   -3.5270   24.9270  -31.1840 H   0  0  0  0  0  0  0  0  0  0  0  0
   -8.2642   24.2097  -30.9834 H   0  0  0  0  0  0  0  0  0  0  0  0
   -9.5422   21.8374  -31.9358 H   0  0  0  0  0  0  0  0  0  0  0  0
   -9.0833   19.4857  -32.7008 H   0  0  0  0  0  0  0  0  0  0  0  0
   -6.1019   17.7262  -32.0867 H   0  0  0  0  0  0  0  0  0  0  0  0
   -7.6130   17.7398  -33.0827 H   0  0  0  0  0  0  0  0  0  0  0  0
   -4.7487   18.1529  -33.9127 H   0  0  0  0  0  0  0  0  0  0  0  0
   -6.0843   17.2671  -34.7347 H   0  0  0  0  0  0  0  0  0  0  0  0
   -6.7830   19.0240  -35.6100 H   0  0  0  0  0  0  0  0  0  0  0  0
   -4.8092   20.1321  -32.1317 H   0  0  0  0  0  0  0  0  0  0  0  0
   -1.7209   22.1479  -28.9716 H   0  0  0  0  0  0  0  0  0  0  0  0
   -1.3391   22.6866  -30.6453 H   0  0  0  0  0  0  0  0  0  0  0  0
   -1.0302   24.1150  -28.0967 H   0  0  0  0  0  0  0  0  0  0  0  0
   -0.3589   24.4949  -29.7267 H   0  0  0  0  0  0  0  0  0  0  0  0
   -3.0410   24.9890  -28.8940 H   0  0  0  0  0  0  0  0  0  0  0  0
  1  2  1  0
  2  3  2  0
  2  4  1  0
  4  5  2  0
  5  6  1  0
  6  7  2  0
  7  8  1  0
  8  9  2  0
  9 10  1  0
 10 11  1  0
 11 12  1  0
  9 13  1  0
 13 14  2  0
 14 15  1  0
 15 16  1  0
 16 17  2  0
 16 18  1  0
 18 19  1  0
 19 20  1  0
 20 21  1  0
 15  4  1  0
 14  6  1  0
  1 22  1  0
  1 23  1  0
  5 24  1  0
  7 25  1  0
  8 26  1  0
 10 27  1  0
 10 28  1  0
 11 29  1  0
 11 30  1  0
 12 31  1  0
 13 32  1  0
 19 33  1  0
 19 34  1  0
 20 35  1  0
 20 36  1  0
 21 37  1  0
M  END
>  <UniqueID>  (9) 
9

>  <SMILES>  (9) 
NC(=O)c1cc2ccc(CCO)cc2n1C(=O)OCCO

>  <Energy>  (9) 
68.3524496274399

>  <Genealogy>  (9) 
NC(=O)c1cc2ccc(CCO)cc2n1C(=O)OCCO (3D coordinates assigned)
NC(=O)c1cc2ccc(CCO)cc2n1C(=O)OCCO (optimized conformer: 68.3524496274399 kcal/mol)

>  <smiles>  (9) 
NC(=O)c1cc2ccc(CCO)cc2n1C(=O)OCCO

>  <score_type>  (9) 
oracle

>  <origin>  (9) 
adg

>  <m_score__min__energy>  (9) 
-8.5800000000000001

>  <m_primary>  (9) 
energy

$$$$
9:0
     RDKit          3D

 24 25  0  0  0  0  0  0  0  0999 V2000
   -1.5230   25.9280  -28.9370 N   0  0  0  0  0  0  0  0  0  0  0  0
   -0.9200   24.6370  -28.9790 C   0  0  0  0  0  0  0  0  0  0  0  0
    0.1900   24.4560  -28.4100 O   0  0  0  0  0  0  0  0  0  0  0  0
   -1.5470   23.5290  -29.7290 C   0  0  0  0  0  0  0  0  0  0  0  0
   -0.8680   22.3660  -30.0840 C   0  0  0  0  0  0  0  0  0  0  0  0
   -1.7590   21.6400  -30.8410 C   0  0  0  0  0  0  0  0  0  0  0  0
   -1.6170   20.3900  -31.4330 C   0  0  0  0  0  0  0  0  0  0  0  0
   -2.7180   19.8610  -32.1260 C   0  0  0  0  0  0  0  0  0  0  0  0
   -3.9330   20.5880  -32.2240 C   0  0  0  0  0  0  0  0  0  0  0  0
   -5.1270   19.9820  -32.9170 C   0  0  0  0  0  0  0  0  0  0  0  0
   -5.6820   19.0130  -32.1020 F   0  0  0  0  0  0  0  0  0  0  0  0
   -4.7530   19.4020  -34.1170 F   0  0  0  0  0  0  0  0  0  0  0  0
   -6.0800   20.9500  -33.1840 F   0  0  0  0  0  0  0  0  0  0  0  0
   -4.0440   21.8460  -31.5850 C   0  0  0  0  0  0  0  0  0  0  0  0
   -2.9250   22.3570  -30.9180 C   0  0  0  0  0  0  0  0  0  0  0  0
   -2.8120   23.5190  -30.2370 N   0  0  0  0  0  0  0  0  0  0  0  0
   -3.8540   24.4840  -30.0160 C   0  0  0  0  0  0  0  0  0  0  0  0
   -4.7470   24.2710  -29.1560 O   0  0  0  0  0  0  0  0  0  0  0  0
   -3.8700   25.6750  -30.7330 O   0  0  0  0  0  0  0  0  0  0  0  0
   -2.5610   26.0370  -28.9680 H   0  0  0  0  0  0  0  0  0  0  0  0
    0.1618   22.0870  -29.8162 H   0  0  0  0  0  0  0  0  0  0  0  0
   -0.6714   19.8326  -31.3608 H   0  0  0  0  0  0  0  0  0  0  0  0
   -2.6377   18.8710  -32.5987 H   0  0  0  0  0  0  0  0  0  0  0  0
   -4.9885   22.4092  -31.6121 H   0  0  0  0  0  0  0  0  0  0  0  0
  1  2  1  0
  2  3  2  0
  2  4  1  0
  4  5  2  0
  5  6  1  0
  6  7  2  0
  7  8  1  0
  8  9  2  0
  9 10  1  0
 10 11  1  0
 10 12  1  0
 10 13  1  0
  9 14  1  0
 14 15  2  0
 15 16  1  0
 16 17  1  0
 17 18  2  0
 17 19  1  0
 16  4  1  0
 15  6  1  0
  1 20  1  0
  5 21  1  0
  7 22  1  0
  8 23  1  0
 14 24  1  0
M  CHG  2   1  -1  19  -1
M  END
>  <UniqueID>  (10) 
10

>  <SMILES>  (10) 
[NH-]C(=O)c1cc2ccc(C(F)(F)F)cc2n1C(=O)[O-]

>  <Energy>  (10) 
65.20307433021344

>  <Genealogy>  (10) 
[NH-]C(=O)c1cc2ccc(C(F)(F)F)cc2n1C(=O)[O-] (protonated)
[NH-]C(=O)c1cc2ccc(C(F)(F)F)cc2n1C(=O)[O-] (3D coordinates assigned)
[NH-]C(=O)c1cc2ccc(C(F)(F)F)cc2n1C(=O)[O-] (optimized conformer: 65.20307433021344 kcal/mol)

>  <smiles>  (10) 
NC(=O)c1cc2ccc(C(F)(F)F)cc2n1C(=O)O

>  <score_type>  (10) 
oracle

>  <origin>  (10) 
adg

>  <m_score__min__energy>  (10) 
-9.5999999999999996

>  <m_primary>  (10) 
energy

$$$$
10:0
     RDKit          3D

 36 38  0  0  0  0  0  0  0  0999 V2000
   -1.6130   25.6640  -28.9610 N   0  0  0  0  0  0  0  0  0  0  0  0
   -1.1290   24.3530  -29.2460 C   0  0  0  0  0  0  0  0  0  0  0  0
    0.0600   24.0590  -28.9540 O   0  0  0  0  0  0  0  0  0  0  0  0
   -2.0090   23.3730  -29.9160 C   0  0  0  0  0  0  0  0  0  0  0  0
   -1.5670   22.1340  -30.3760 C   0  0  0  0  0  0  0  0  0  0  0  0
   -2.6900   21.4980  -30.8480 C   0  0  0  0  0  0  0  0  0  0  0  0
   -2.8260   20.2450  -31.4360 C   0  0  0  0  0  0  0  0  0  0  0  0
   -4.1050   19.8520  -31.8620 C   0  0  0  0  0  0  0  0  0  0  0  0
   -5.2250   20.7120  -31.6960 C   0  0  0  0  0  0  0  0  0  0  0  0
   -6.6080   20.3120  -32.1870 C   0  0  2  0  0  0  0  0  0  0  0  0
   -7.7390   21.0820  -31.4730 C   0  0  0  0  0  0  0  0  0  0  0  0
   -9.0580   20.8350  -32.0900 N   0  0  0  0  0  0  0  0  0  0  0  0
   -9.2000   19.5110  -32.7320 C   0  0  0  0  0  0  0  0  0  0  0  0
   -8.3490   18.4360  -32.0430 C   0  0  0  0  0  0  0  0  0  0  0  0
   -6.8450   18.7810  -32.0990 C   0  0  0  0  0  0  0  0  0  0  0  0
   -6.2820   18.1810  -33.2150 F   0  0  0  0  0  0  0  0  0  0  0  0
   -6.2370   18.2490  -30.9730 F   0  0  0  0  0  0  0  0  0  0  0  0
   -5.0380   21.9840  -31.1060 C   0  0  0  0  0  0  0  0  0  0  0  0
   -3.7560   22.3410  -30.6730 C   0  0  0  0  0  0  0  0  0  0  0  0
   -3.3540   23.4990  -30.1040 N   0  0  0  0  0  0  0  0  0  0  0  0
   -4.1810   24.6410  -29.8240 C   0  0  0  0  0  0  0  0  0  0  0  0
   -4.1130   25.6700  -30.5460 O   0  0  0  0  0  0  0  0  0  0  0  0
   -5.0840   24.6110  -28.7680 O   0  0  0  0  0  0  0  0  0  0  0  0
   -2.6370   25.8710  -28.9680 H   0  0  0  0  0  0  0  0  0  0  0  0
   -0.5374   21.7471  -30.3638 H   0  0  0  0  0  0  0  0  0  0  0  0
   -1.9577   19.5818  -31.5635 H   0  0  0  0  0  0  0  0  0  0  0  0
   -4.2422   18.8661  -32.3302 H   0  0  0  0  0  0  0  0  0  0  0  0
   -6.6378   20.5955  -33.2494 H   0  0  0  0  0  0  0  0  0  0  0  0
   -7.7749   20.7635  -30.4207 H   0  0  0  0  0  0  0  0  0  0  0  0
   -7.5221   22.1570  -31.5587 H   0  0  0  0  0  0  0  0  0  0  0  0
   -9.2270   21.5670  -32.8200 H   0  0  0  0  0  0  0  0  0  0  0  0
  -10.2565   19.2079  -32.6880 H   0  0  0  0  0  0  0  0  0  0  0  0
   -8.8513   19.6016  -33.7713 H   0  0  0  0  0  0  0  0  0  0  0  0
   -8.6582   18.3561  -30.9904 H   0  0  0  0  0  0  0  0  0  0  0  0
   -8.5038   17.4834  -32.5708 H   0  0  0  0  0  0  0  0  0  0  0  0
   -5.8831   22.6784  -30.9899 H   0  0  0  0  0  0  0  0  0  0  0  0
  1  2  1  0
  2  3  2  0
  2  4  1  0
  4  5  2  0
  5  6  1  0
  6  7  2  0
  7  8  1  0
  8  9  2  0
  9 10  1  0
 10 11  1  0
 11 12  1  0
 12 13  1  0
 13 14  1  0
 14 15  1  0
 15 16  1  0
 15 17  1  0
  9 18  1  0
 18 19  2  0
 19 20  1  0
 20 21  1  0
 21 22  2  0
 21 23  1  0
 20  4  1  0
 19  6  1  0
 15 10  1  0
  1 24  1  0
  5 25  1  0
  7 26  1  0
  8 27  1  0
 10 28  1  6
 11 29  1  0
 11 30  1  0
 12 31  1  0
 13 32  1  0
 13 33  1  0
 14 34  1  0
 14 35  1  0
 18 36  1  0
M  CHG  2   1  -1  23  -1
M  END
>  <UniqueID>  (11) 
11

>  <SMILES>  (11) 
[NH-]C(=O)c1cc2ccc([C@@H]3CNCCC3(F)F)cc2n1C(=O)[O-]

>  <Energy>  (11) 
85.42274380167727

>  <Genealogy>  (11) 
[NH-]C(=O)c1cc2ccc([C@@H]3CNCCC3(F)F)cc2n1C(=O)[O-] (protonated)
[NH-]C(=O)c1cc2ccc([C@@H]3CNCCC3(F)F)cc2n1C(=O)[O-] (3D coordinates assigned)
[NH-]C(=O)c1cc2ccc([C@@H]3CNCCC3(F)F)cc2n1C(=O)[O-] (nonaromatic ring conformer: 85.42274380167727 kcal/mol)

>  <smiles>  (11) 
NC(=O)c1cc2ccc([C@@H]3CNCCC3(F)F)cc2n1C(=O)O

>  <score_type>  (11) 
oracle

>  <origin>  (11) 
adg

>  <m_score__min__energy>  (11) 
-11.380000000000001

>  <m_primary>  (11) 
energy

$$$$
11:0
     RDKit          3D

 42 43  0  0  0  0  0  0  0  0999 V2000
   -8.7120   19.0710  -31.8590 C   0  0  0  0  0  0  0  0  0  0  0  0
   -8.6330   20.4680  -32.3250 N   0  0  0  0  0  0  0  0  0  0  0  0
   -9.1080   21.3650  -31.2580 C   0  0  0  0  0  0  0  0  0  0  0  0
   -7.2500   20.8190  -32.7170 C   0  0  0  0  0  0  0  0  0  0  0  0
   -6.3120   19.6210  -32.5050 C   0  0  0  0  0  0  0  0  0  0  0  0
   -5.0560   19.6970  -33.3860 C   0  0  0  0  0  0  0  0  0  0  0  0
   -3.9000   20.3470  -32.6700 C   0  0  0  0  0  0  0  0  0  0  0  0
   -2.6140   19.7530  -32.7030 C   0  0  0  0  0  0  0  0  0  0  0  0
   -1.5350   20.3430  -32.0240 C   0  0  0  0  0  0  0  0  0  0  0  0
   -1.7760   21.5130  -31.3100 C   0  0  0  0  0  0  0  0  0  0  0  0
   -0.9140   22.2990  -30.5790 C   0  0  0  0  0  0  0  0  0  0  0  0
   -1.6920   23.3460  -30.0880 C   0  0  0  0  0  0  0  0  0  0  0  0
   -1.1700   24.4040  -29.1980 C   0  0  0  0  0  0  0  0  0  0  0  0
   -1.9140   25.5970  -28.9580 N   0  0  0  0  0  0  0  0  0  0  0  0
   -0.0630   24.2420  -28.6180 O   0  0  0  0  0  0  0  0  0  0  0  0
   -2.9850   23.2110  -30.4990 N   0  0  0  0  0  0  0  0  0  0  0  0
   -4.0780   24.1100  -30.2510 C   0  0  0  0  0  0  0  0  0  0  0  0
   -4.2720   25.0830  -31.0270 O   0  0  0  0  0  0  0  0  0  0  0  0
   -5.0160   23.8970  -29.1000 C   0  0  0  0  0  0  0  0  0  0  0  0
   -4.5770   24.6080  -27.9760 O   0  0  0  0  0  0  0  0  0  0  0  0
   -3.0190   22.0880  -31.2490 C   0  0  0  0  0  0  0  0  0  0  0  0
   -4.1050   21.5350  -31.9350 C   0  0  0  0  0  0  0  0  0  0  0  0
   -8.7131   19.0509  -30.7592 H   0  0  0  0  0  0  0  0  0  0  0  0
   -9.6376   18.6108  -32.2351 H   0  0  0  0  0  0  0  0  0  0  0  0
   -7.8442   18.5094  -32.2351 H   0  0  0  0  0  0  0  0  0  0  0  0
   -8.8746   20.9243  -30.2775 H   0  0  0  0  0  0  0  0  0  0  0  0
   -8.6084   22.3407  -31.3497 H   0  0  0  0  0  0  0  0  0  0  0  0
  -10.1958   21.5001  -31.3497 H   0  0  0  0  0  0  0  0  0  0  0  0
   -7.2363   21.1065  -33.7787 H   0  0  0  0  0  0  0  0  0  0  0  0
   -6.9046   21.6569  -32.0936 H   0  0  0  0  0  0  0  0  0  0  0  0
   -6.0023   19.5973  -31.4498 H   0  0  0  0  0  0  0  0  0  0  0  0
   -6.8627   18.7106  -32.7842 H   0  0  0  0  0  0  0  0  0  0  0  0
   -4.7647   18.6770  -33.6771 H   0  0  0  0  0  0  0  0  0  0  0  0
   -5.2967   20.3100  -34.2671 H   0  0  0  0  0  0  0  0  0  0  0  0
   -2.4590   18.8207  -33.2658 H   0  0  0  0  0  0  0  0  0  0  0  0
   -0.5312   19.8943  -32.0557 H   0  0  0  0  0  0  0  0  0  0  0  0
    0.1616   22.1353  -30.4167 H   0  0  0  0  0  0  0  0  0  0  0  0
   -2.9160   25.6720  -29.2450 H   0  0  0  0  0  0  0  0  0  0  0  0
   -6.0203   24.2469  -29.3810 H   0  0  0  0  0  0  0  0  0  0  0  0
   -5.0446   22.8248  -28.8559 H   0  0  0  0  0  0  0  0  0  0  0  0
   -3.9440   25.2930  -28.3130 H   0  0  0  0  0  0  0  0  0  0  0  0
   -5.0948   22.0139  -31.9028 H   0  0  0  0  0  0  0  0  0  0  0  0
  1  2  1  0
  2  3  1  0
  2  4  1  0
  4  5  1  0
  5  6  1  0
  6  7  1  0
  7  8  2  0
  8  9  1  0
  9 10  2  0
 10 11  1  0
 11 12  2  0
 12 13  1  0
 13 14  1  0
 13 15  2  0
 12 16  1  0
 16 17  1  0
 17 18  2  0
 17 19  1  0
 19 20  1  0
 16 21  1  0
 21 22  2  0
 22  7  1  0
 21 10  1  0
  1 23  1  0
  1 24  1  0
  1 25  1  0
  3 26  1  0
  3 27  1  0
  3 28  1  0
  4 29  1  0
  4 30  1  0
  5 31  1  0
  5 32  1  0
  6 33  1  0
  6 34  1  0
  8 35  1  0
  9 36  1  0
 11 37  1  0
 14 38  1  0
 19 39  1  0
 19 40  1  0
 20 41  1  0
 22 42  1  0
M  CHG  1  14  -1
M  END
>  <UniqueID>  (12) 
12

>  <SMILES>  (12) 
CN(C)CCCc1ccc2cc(C([NH-])=O)n(C(=O)CO)c2c1

>  <Energy>  (12) 
77.19984090184819

>  <Genealogy>  (12) 
CN(C)CCCc1ccc2cc(C([NH-])=O)n(C(=O)CO)c2c1 (protonated)
CN(C)CCCc1ccc2cc(C([NH-])=O)n(C(=O)CO)c2c1 (3D coordinates assigned)
CN(C)CCCc1ccc2cc(C([NH-])=O)n(C(=O)CO)c2c1 (optimized conformer: 77.19984090184819 kcal/mol)

>  <smiles>  (12) 
CN(C)CCCc1ccc2cc(C(N)=O)n(C(=O)CO)c2c1

>  <score_type>  (12) 
oracle

>  <origin>  (12) 
adg

>  <m_score__min__energy>  (12) 
-9.4800000000000004

>  <m_primary>  (12) 
energy

$$$$
12:0
     RDKit          3D

 45 47  0  0  0  0  0  0  0  0999 V2000
   -1.9540   24.0270  -28.2840 C   0  0  0  0  0  0  0  0  0  0  0  0
   -3.4270   23.9920  -28.2960 N   0  0  0  0  0  0  0  0  0  0  0  0
   -3.9450   24.5770  -27.0490 C   0  0  0  0  0  0  0  0  0  0  0  0
   -3.9250   22.6090  -28.4680 C   0  0  0  0  0  0  0  0  0  0  0  0
   -3.1270   21.8630  -29.5430 C   0  0  0  0  0  0  0  0  0  0  0  0
   -3.0900   22.6130  -30.7570 O   0  0  0  0  0  0  0  0  0  0  0  0
   -4.0800   22.5400  -31.7440 C   0  0  0  0  0  0  0  0  0  0  0  0
   -3.7770   22.2810  -32.9400 O   0  0  0  0  0  0  0  0  0  0  0  0
   -5.4480   22.7910  -31.3950 N   0  0  0  0  0  0  0  0  0  0  0  0
   -5.9940   23.9520  -30.9370 C   0  0  0  0  0  0  0  0  0  0  0  0
   -5.2490   25.1650  -30.5410 C   0  0  0  0  0  0  0  0  0  0  0  0
   -3.8640   25.3060  -30.8470 N   0  0  0  0  0  0  0  0  0  0  0  0
   -5.8310   26.0690  -29.8840 O   0  0  0  0  0  0  0  0  0  0  0  0
   -7.3790   23.8260  -30.8260 C   0  0  0  0  0  0  0  0  0  0  0  0
   -7.6630   22.5410  -31.2340 C   0  0  0  0  0  0  0  0  0  0  0  0
   -8.8870   21.8910  -31.3570 C   0  0  0  0  0  0  0  0  0  0  0  0
   -8.8870   20.5770  -31.8580 C   0  0  0  0  0  0  0  0  0  0  0  0
   -7.6720   19.9420  -32.2210 C   0  0  0  0  0  0  0  0  0  0  0  0
   -7.6900   18.5550  -32.8080 C   0  0  2  0  0  0  0  0  0  0  0  0
   -7.9260   17.6240  -31.8110 F   0  0  0  0  0  0  0  0  0  0  0  0
   -6.3820   18.2660  -33.4740 C   0  0  0  0  0  0  0  0  0  0  0  0
   -6.1150   18.5050  -34.7680 N   0  0  0  0  0  0  0  0  0  0  0  0
   -4.8580   18.1560  -34.9840 N   0  0  0  0  0  0  0  0  0  0  0  0
   -4.3960   17.7100  -33.7980 C   0  0  0  0  0  0  0  0  0  0  0  0
   -5.3260   17.7770  -32.8710 O   0  0  0  0  0  0  0  0  0  0  0  0
   -6.4490   20.6380  -32.0850 C   0  0  0  0  0  0  0  0  0  0  0  0
   -6.4790   21.9390  -31.5710 C   0  0  0  0  0  0  0  0  0  0  0  0
   -1.5959   24.0355  -27.2440 H   0  0  0  0  0  0  0  0  0  0  0  0
   -1.5619   23.1379  -28.7995 H   0  0  0  0  0  0  0  0  0  0  0  0
   -1.6046   24.9337  -28.7995 H   0  0  0  0  0  0  0  0  0  0  0  0
   -3.4915   24.0648  -26.1876 H   0  0  0  0  0  0  0  0  0  0  0  0
   -3.6929   25.6471  -27.0136 H   0  0  0  0  0  0  0  0  0  0  0  0
   -5.0378   24.4563  -27.0136 H   0  0  0  0  0  0  0  0  0  0  0  0
   -3.8298   22.0718  -27.5128 H   0  0  0  0  0  0  0  0  0  0  0  0
   -4.9777   22.6543  -28.7839 H   0  0  0  0  0  0  0  0  0  0  0  0
   -2.0990   21.7052  -29.1848 H   0  0  0  0  0  0  0  0  0  0  0  0
   -3.6159   20.8974  -29.7393 H   0  0  0  0  0  0  0  0  0  0  0  0
   -3.1400   24.7580  -30.3290 H   0  0  0  0  0  0  0  0  0  0  0  0
   -8.0928   24.5904  -30.4851 H   0  0  0  0  0  0  0  0  0  0  0  0
   -9.8252   22.3892  -31.0714 H   0  0  0  0  0  0  0  0  0  0  0  0
   -9.8386   20.0365  -31.9694 H   0  0  0  0  0  0  0  0  0  0  0  0
   -8.4948   18.4930  -33.5553 H   0  0  0  0  0  0  0  0  0  0  0  0
   -6.7590   18.9040  -35.4860 H   0  0  0  0  0  0  0  0  0  0  0  0
   -3.3746   17.3387  -33.6284 H   0  0  0  0  0  0  0  0  0  0  0  0
   -5.4977   20.1685  -32.3760 H   0  0  0  0  0  0  0  0  0  0  0  0
  1  2  1  0
  2  3  1  0
  2  4  1  0
  4  5  1  0
  5  6  1  0
  6  7  1  0
  7  8  2  0
  7  9  1  0
  9 10  1  0
 10 11  1  0
 11 12  1  0
 11 13  2  0
 10 14  2  0
 14 15  1  0
 15 16  2  0
 16 17  1  0
 17 18  2  0
 18 19  1  0
 19 20  1  0
 19 21  1  0
 21 22  2  0
 22 23  1  0
 23 24  2  0
 24 25  1  0
 18 26  1  0
 26 27  2  0
 27  9  1  0
 27 15  1  0
 25 21  1  0
  1 28  1  0
  1 29  1  0
  1 30  1  0
  3 31  1  0
  3 32  1  0
  3 33  1  0
  4 34  1  0
  4 35  1  0
  5 36  1  0
  5 37  1  0
 12 38  1  0
 14 39  1  0
 16 40  1  0
 17 41  1  0
 19 42  1  6
 22 43  1  0
 24 44  1  0
 26 45  1  0
M  CHG  2  12  -1  22   1
M  END
>  <UniqueID>  (13) 
13

>  <SMILES>  (13) 
CN(C)CCOC(=O)n1c(C([NH-])=O)cc2ccc([C@H](F)c3[nH+]nco3)cc21

>  <Energy>  (13) 
116.24337041636362

>  <Genealogy>  (13) 
CN(C)CCOC(=O)n1c(C([NH-])=O)cc2ccc(C(F)c3[nH+]nco3)cc21 (protonated)
CN(C)CCOC(=O)n1c(C([NH-])=O)cc2ccc([C@H](F)c3[nH+]nco3)cc21 (chirality)
CN(C)CCOC(=O)n1c(C([NH-])=O)cc2ccc([C@H](F)c3[nH+]nco3)cc21 (3D coordinates assigned)
CN(C)CCOC(=O)n1c(C([NH-])=O)cc2ccc([C@H](F)c3[nH+]nco3)cc21 (optimized conformer: 116.24337041636362 kcal/mol)

>  <smiles>  (13) 
CN(C)CCOC(=O)n1c(C(N)=O)cc2ccc(C(F)c3nnco3)cc21

>  <score_type>  (13) 
oracle

>  <origin>  (13) 
adg

>  <m_score__min__energy>  (13) 
-10.449999999999999

>  <m_primary>  (13) 
energy

$$$$
13:0
     RDKit          3D

 37 38  0  0  0  0  0  0  0  0999 V2000
   -3.8450   18.4800  -34.5780 N   0  0  0  0  0  0  0  0  0  0  0  0
   -5.2170   18.7010  -34.2490 C   0  0  0  0  0  0  0  0  0  0  0  0
   -6.0840   17.8680  -34.6260 O   0  0  0  0  0  0  0  0  0  0  0  0
   -5.6290   19.8520  -33.4210 C   0  0  0  0  0  0  0  0  0  0  0  0
   -6.9460   20.0900  -33.0390 C   0  0  0  0  0  0  0  0  0  0  0  0
   -6.8940   21.2040  -32.2340 C   0  0  0  0  0  0  0  0  0  0  0  0
   -7.9210   21.8930  -31.5960 C   0  0  0  0  0  0  0  0  0  0  0  0
   -7.5870   23.0420  -30.8610 C   0  0  0  0  0  0  0  0  0  0  0  0
   -6.2420   23.4800  -30.7780 C   0  0  0  0  0  0  0  0  0  0  0  0
   -5.9030   24.7390  -30.0310 C   0  0  0  0  0  0  0  0  0  0  0  0
   -4.4220   24.9360  -30.0000 C   0  0  0  0  0  0  0  0  0  0  0  0
   -3.8610   25.6660  -30.8590 O   0  0  0  0  0  0  0  0  0  0  0  0
   -3.6530   24.2730  -29.0510 O   0  0  0  0  0  0  0  0  0  0  0  0
   -5.2270   22.7630  -31.4510 C   0  0  0  0  0  0  0  0  0  0  0  0
   -5.5850   21.6090  -32.1580 C   0  0  0  0  0  0  0  0  0  0  0  0
   -4.7950   20.7890  -32.8860 N   0  0  0  0  0  0  0  0  0  0  0  0
   -3.3890   20.9520  -33.1360 C   0  0  0  0  0  0  0  0  0  0  0  0
   -2.9810   21.9370  -33.8120 O   0  0  0  0  0  0  0  0  0  0  0  0
   -2.4770   20.0250  -32.6180 O   0  0  0  0  0  0  0  0  0  0  0  0
   -1.0660   20.2320  -32.5840 C   0  0  0  0  0  0  0  0  0  0  0  0
   -0.4650   20.0990  -33.9880 C   0  0  1  0  0  0  0  0  0  0  0  0
   -1.4740   20.2210  -34.9560 O   0  0  0  0  0  0  0  0  0  0  0  0
    0.5760   21.1610  -34.2030 C   0  0  0  0  0  0  0  0  0  0  0  0
    1.7400   21.0130  -33.7450 O   0  0  0  0  0  0  0  0  0  0  0  0
    0.2680   22.2950  -34.9440 O   0  0  0  0  0  0  0  0  0  0  0  0
   -3.5760   17.6860  -35.2010 H   0  0  0  0  0  0  0  0  0  0  0  0
   -3.0880   19.0460  -34.1360 H   0  0  0  0  0  0  0  0  0  0  0  0
   -7.8378   19.5110  -33.3207 H   0  0  0  0  0  0  0  0  0  0  0  0
   -8.9632   21.5479  -31.6653 H   0  0  0  0  0  0  0  0  0  0  0  0
   -8.3769   23.6073  -30.3448 H   0  0  0  0  0  0  0  0  0  0  0  0
   -6.3736   25.5974  -30.5327 H   0  0  0  0  0  0  0  0  0  0  0  0
   -6.2765   24.6568  -28.9996 H   0  0  0  0  0  0  0  0  0  0  0  0
   -4.1814   23.1033  -31.4201 H   0  0  0  0  0  0  0  0  0  0  0  0
   -0.8582   21.2402  -32.1962 H   0  0  0  0  0  0  0  0  0  0  0  0
   -0.6125   19.4713  -31.9316 H   0  0  0  0  0  0  0  0  0  0  0  0
    0.0052   19.1089  -34.0814 H   0  0  0  0  0  0  0  0  0  0  0  0
   -1.6070   21.1930  -35.1110 H   0  0  0  0  0  0  0  0  0  0  0  0
  1  2  1  0
  2  3  2  0
  2  4  1  0
  4  5  2  0
  5  6  1  0
  6  7  2  0
  7  8  1  0
  8  9  2  0
  9 10  1  0
 10 11  1  0
 11 12  2  0
 11 13  1  0
  9 14  1  0
 14 15  2  0
 15 16  1  0
 16 17  1  0
 17 18  2  0
 17 19  1  0
 19 20  1  0
 20 21  1  0
 21 22  1  0
 21 23  1  0
 23 24  2  0
 23 25  1  0
 16  4  1  0
 15  6  1  0
  1 26  1  0
  1 27  1  0
  5 28  1  0
  7 29  1  0
  8 30  1  0
 10 31  1  0
 10 32  1  0
 14 33  1  0
 20 34  1  0
 20 35  1  0
 21 36  1  1
 22 37  1  0
M  CHG  2  13  -1  25  -1
M  END
>  <UniqueID>  (14) 
14

>  <SMILES>  (14) 
NC(=O)c1cc2ccc(CC(=O)[O-])cc2n1C(=O)OC[C@@H](O)C(=O)[O-]

>  <Energy>  (14) 
71.80054056640353

>  <Genealogy>  (14) 
NC(=O)c1cc2ccc(CC(=O)[O-])cc2n1C(=O)OCC(O)C(=O)[O-] (protonated)
NC(=O)c1cc2ccc(CC(=O)[O-])cc2n1C(=O)OC[C@@H](O)C(=O)[O-] (chirality)
NC(=O)c1cc2ccc(CC(=O)[O-])cc2n1C(=O)OC[C@@H](O)C(=O)[O-] (3D coordinates assigned)
NC(=O)c1cc2ccc(CC(=O)[O-])cc2n1C(=O)OC[C@@H](O)C(=O)[O-] (optimized conformer: 71.80054056640353 kcal/mol)

>  <smiles>  (14) 
NC(=O)c1cc2ccc(CC(=O)O)cc2n1C(=O)OCC(O)C(=O)O

>  <score_type>  (14) 
oracle

>  <origin>  (14) 
adg

>  <m_score__min__energy>  (14) 
-10.51

>  <m_primary>  (14) 
energy

$$$$
14:0
     RDKit          3D

 57 58  0  0  0  0  0  0  0  0999 V2000
   -3.7150   22.8430  -28.2070 C   0  0  0  0  0  0  0  0  0  0  0  0
   -2.4860   23.2730  -29.0240 C   0  0  1  0  0  0  0  0  0  0  0  0
   -2.8950   23.6830  -30.3310 O   0  0  0  0  0  0  0  0  0  0  0  0
   -3.5870   22.8640  -31.2310 C   0  0  0  0  0  0  0  0  0  0  0  0
   -2.9590   22.1550  -32.0640 O   0  0  0  0  0  0  0  0  0  0  0  0
   -5.0210   22.8160  -31.1800 N   0  0  0  0  0  0  0  0  0  0  0  0
   -5.8920   23.8260  -30.8980 C   0  0  0  0  0  0  0  0  0  0  0  0
   -5.5320   25.1860  -30.4480 C   0  0  0  0  0  0  0  0  0  0  0  0
   -4.2010   25.6780  -30.5830 N   0  0  0  0  0  0  0  0  0  0  0  0
   -6.4010   25.9090  -29.8910 O   0  0  0  0  0  0  0  0  0  0  0  0
   -7.2080   23.3760  -30.9980 C   0  0  0  0  0  0  0  0  0  0  0  0
   -7.1150   22.0470  -31.3400 C   0  0  0  0  0  0  0  0  0  0  0  0
   -8.1160   21.1030  -31.5560 C   0  0  0  0  0  0  0  0  0  0  0  0
   -7.7270   19.7970  -31.9050 C   0  0  0  0  0  0  0  0  0  0  0  0
   -6.3570   19.4690  -32.0540 C   0  0  0  0  0  0  0  0  0  0  0  0
   -5.9410   18.0650  -32.4010 C   0  0  0  0  0  0  0  0  0  0  0  0
   -6.5100   17.6590  -33.7660 C   0  0  0  0  0  0  0  0  0  0  0  0
   -5.5580   18.0490  -34.9010 C   0  0  0  0  0  0  0  0  0  0  0  0
   -4.1060   18.0630  -34.4230 C   0  0  0  0  0  0  0  0  0  0  0  0
   -3.7030   19.3960  -34.2230 O   0  0  0  0  0  0  0  0  0  0  0  0
   -2.1830   19.4030  -33.4700 S   0  0  0  0  0  0  0  0  0  0  0  0
   -1.2090   20.7980  -34.0000 C   0  0  0  0  0  0  0  0  0  0  0  0
   -1.4570   18.1450  -33.8560 O   0  0  0  0  0  0  0  0  0  0  0  0
   -2.3370   19.4280  -31.9740 O   0  0  0  0  0  0  0  0  0  0  0  0
   -5.3710   20.4520  -31.8230 C   0  0  0  0  0  0  0  0  0  0  0  0
   -5.7850   21.7350  -31.4480 C   0  0  0  0  0  0  0  0  0  0  0  0
   -1.6810   24.4200  -28.3440 C   0  0  0  0  0  0  0  0  0  0  0  0
   -2.5170   25.0050  -27.1850 C   0  0  0  0  0  0  0  0  0  0  0  0
   -0.3300   23.9090  -27.7900 C   0  0  0  0  0  0  0  0  0  0  0  0
   -1.4510   25.4330  -29.2960 O   0  0  0  0  0  0  0  0  0  0  0  0
   -3.4879   22.9225  -27.1336 H   0  0  0  0  0  0  0  0  0  0  0  0
   -4.5649   23.4972  -28.4514 H   0  0  0  0  0  0  0  0  0  0  0  0
   -3.9717   21.8017  -28.4514 H   0  0  0  0  0  0  0  0  0  0  0  0
   -1.8187   22.4008  -29.0871 H   0  0  0  0  0  0  0  0  0  0  0  0
   -3.5380   25.6650  -29.7760 H   0  0  0  0  0  0  0  0  0  0  0  0
   -8.1261   23.9602  -30.8374 H   0  0  0  0  0  0  0  0  0  0  0  0
   -9.1783   21.3705  -31.4567 H   0  0  0  0  0  0  0  0  0  0  0  0
   -8.4932   19.0238  -32.0636 H   0  0  0  0  0  0  0  0  0  0  0  0
   -4.8429   18.0108  -32.4358 H   0  0  0  0  0  0  0  0  0  0  0  0
   -6.3301   17.3786  -31.6345 H   0  0  0  0  0  0  0  0  0  0  0  0
   -6.6605   16.5695  -33.7823 H   0  0  0  0  0  0  0  0  0  0  0  0
   -7.4646   18.1846  -33.9158 H   0  0  0  0  0  0  0  0  0  0  0  0
   -5.6593   17.3220  -35.7203 H   0  0  0  0  0  0  0  0  0  0  0  0
   -5.8216   19.0599  -35.2454 H   0  0  0  0  0  0  0  0  0  0  0  0
   -4.0235   17.5069  -33.4775 H   0  0  0  0  0  0  0  0  0  0  0  0
   -3.4614   17.5889  -35.1778 H   0  0  0  0  0  0  0  0  0  0  0  0
   -0.8320   21.3379  -33.1189 H   0  0  0  0  0  0  0  0  0  0  0  0
   -0.3605   20.4444  -34.6041 H   0  0  0  0  0  0  0  0  0  0  0  0
   -1.8333   21.4728  -34.6041 H   0  0  0  0  0  0  0  0  0  0  0  0
   -4.3026   20.2153  -31.9351 H   0  0  0  0  0  0  0  0  0  0  0  0
   -2.0777   24.6976  -26.2245 H   0  0  0  0  0  0  0  0  0  0  0  0
   -2.5195   26.1029  -27.2524 H   0  0  0  0  0  0  0  0  0  0  0  0
   -3.5493   24.6312  -27.2524 H   0  0  0  0  0  0  0  0  0  0  0  0
   -0.3572   23.9193  -26.6904 H   0  0  0  0  0  0  0  0  0  0  0  0
   -0.1538   22.8821  -28.1428 H   0  0  0  0  0  0  0  0  0  0  0  0
    0.4816   24.5623  -28.1428 H   0  0  0  0  0  0  0  0  0  0  0  0
   -2.3150   25.6470  -29.7370 H   0  0  0  0  0  0  0  0  0  0  0  0
  1  2  1  0
  2  3  1  0
  3  4  1  0
  4  5  2  0
  4  6  1  0
  6  7  1  0
  7  8  1  0
  8  9  1  0
  8 10  2  0
  7 11  2  0
 11 12  1  0
 12 13  2  0
 13 14  1  0
 14 15  2  0
 15 16  1  0
 16 17  1  0
 17 18  1  0
 18 19  1  0
 19 20  1  0
 20 21  1  0
 21 22  1  0
 21 23  2  0
 21 24  2  0
 15 25  1  0
 25 26  2  0
  2 27  1  0
 27 28  1  0
 27 29  1  0
 27 30  1  0
 26  6  1  0
 26 12  1  0
  1 31  1  0
  1 32  1  0
  1 33  1  0
  2 34  1  6
  9 35  1  0
 11 36  1  0
 13 37  1  0
 14 38  1  0
 16 39  1  0
 16 40  1  0
 17 41  1  0
 17 42  1  0
 18 43  1  0
 18 44  1  0
 19 45  1  0
 19 46  1  0
 22 47  1  0
 22 48  1  0
 22 49  1  0
 25 50  1  0
 28 51  1  0
 28 52  1  0
 28 53  1  0
 29 54  1  0
 29 55  1  0
 29 56  1  0
 30 57  1  0
M  CHG  1   9  -1
M  END
>  <UniqueID>  (15) 
15

>  <SMILES>  (15) 
C[C@@H](OC(=O)n1c(C([NH-])=O)cc2ccc(CCCCOS(C)(=O)=O)cc21)C(C)(C)O

>  <Energy>  (15) 
79.23245992121498

>  <Genealogy>  (15) 
CC(OC(=O)n1c(C([NH-])=O)cc2ccc(CCCCOS(C)(=O)=O)cc21)C(C)(C)O (protonated)
C[C@@H](OC(=O)n1c(C([NH-])=O)cc2ccc(CCCCOS(C)(=O)=O)cc21)C(C)(C)O (chirality)
C[C@@H](OC(=O)n1c(C([NH-])=O)cc2ccc(CCCCOS(C)(=O)=O)cc21)C(C)(C)O (3D coordinates assigned)
C[C@@H](OC(=O)n1c(C([NH-])=O)cc2ccc(CCCCOS(C)(=O)=O)cc21)C(C)(C)O (optimized conformer: 79.23245992121498 kcal/mol)

>  <smiles>  (15) 
CC(OC(=O)n1c(C(N)=O)cc2ccc(CCCCOS(C)(=O)=O)cc21)C(C)(C)O

>  <score_type>  (15) 
oracle

>  <origin>  (15) 
adg

>  <m_score__min__energy>  (15) 
-11.44

>  <m_primary>  (15) 
energy

$$$$
15:0
     RDKit          3D

 34 35  0  0  0  0  0  0  0  0999 V2000
   -7.6000   22.8930  -31.7380 C   0  0  0  0  0  0  0  0  0  0  0  0
   -7.2590   21.9040  -32.6840 O   0  0  0  0  0  0  0  0  0  0  0  0
   -7.5290   20.6110  -32.1720 C   0  0  0  0  0  0  0  0  0  0  0  0
   -6.3620   19.6420  -32.4420 C   0  0  0  0  0  0  0  0  0  0  0  0
   -5.3570   20.1950  -33.3670 N   0  0  0  0  0  0  0  0  0  0  0  0
   -4.1920   20.6860  -32.6710 C   0  0  0  0  0  0  0  0  0  0  0  0
   -2.9670   19.9710  -32.7280 C   0  0  0  0  0  0  0  0  0  0  0  0
   -1.8320   20.4370  -32.0460 C   0  0  0  0  0  0  0  0  0  0  0  0
   -1.9470   21.6130  -31.3120 C   0  0  0  0  0  0  0  0  0  0  0  0
   -1.0040   22.2930  -30.5760 C   0  0  0  0  0  0  0  0  0  0  0  0
   -1.6660   23.4060  -30.0640 C   0  0  0  0  0  0  0  0  0  0  0  0
   -1.0380   24.3690  -29.1350 C   0  0  0  0  0  0  0  0  0  0  0  0
   -1.6040   25.6670  -28.9720 N   0  0  0  0  0  0  0  0  0  0  0  0
    0.0140   24.0710  -28.5120 O   0  0  0  0  0  0  0  0  0  0  0  0
   -2.9670   23.4200  -30.4740 N   0  0  0  0  0  0  0  0  0  0  0  0
   -3.9580   24.4290  -30.2190 C   0  0  0  0  0  0  0  0  0  0  0  0
   -4.9350   24.1840  -29.4640 O   0  0  0  0  0  0  0  0  0  0  0  0
   -3.8650   25.6750  -30.8270 O   0  0  0  0  0  0  0  0  0  0  0  0
   -3.1230   22.3130  -31.2350 C   0  0  0  0  0  0  0  0  0  0  0  0
   -4.2660   21.8840  -31.9200 C   0  0  0  0  0  0  0  0  0  0  0  0
   -7.4619   22.4925  -30.7228 H   0  0  0  0  0  0  0  0  0  0  0  0
   -6.9529   23.7717  -31.8767 H   0  0  0  0  0  0  0  0  0  0  0  0
   -8.6511   23.1862  -31.8767 H   0  0  0  0  0  0  0  0  0  0  0  0
   -7.6900   20.6829  -31.0862 H   0  0  0  0  0  0  0  0  0  0  0  0
   -8.4255   20.2205  -32.6757 H   0  0  0  0  0  0  0  0  0  0  0  0
   -5.8693   19.4116  -31.4859 H   0  0  0  0  0  0  0  0  0  0  0  0
   -6.7837   18.7422  -32.9138 H   0  0  0  0  0  0  0  0  0  0  0  0
   -5.0920   19.4740  -34.0780 H   0  0  0  0  0  0  0  0  0  0  0  0
   -5.7910   20.9930  -33.8900 H   0  0  0  0  0  0  0  0  0  0  0  0
   -2.9065   19.0415  -33.3131 H   0  0  0  0  0  0  0  0  0  0  0  0
   -0.8797   19.8883  -32.0907 H   0  0  0  0  0  0  0  0  0  0  0  0
    0.0497   22.0161  -30.4242 H   0  0  0  0  0  0  0  0  0  0  0  0
   -2.6370   25.8140  -29.0260 H   0  0  0  0  0  0  0  0  0  0  0  0
   -5.1996   22.4640  -31.8758 H   0  0  0  0  0  0  0  0  0  0  0  0
  1  2  1  0
  2  3  1  0
  3  4  1  0
  4  5  1  0
  5  6  1  0
  6  7  2  0
  7  8  1  0
  8  9  2  0
  9 10  1  0
 10 11  2  0
 11 12  1  0
 12 13  1  0
 12 14  2  0
 11 15  1  0
 15 16  1  0
 16 17  2  0
 16 18  1  0
 15 19  1  0
 19 20  2  0
 20  6  1  0
 19  9  1  0
  1 21  1  0
  1 22  1  0
  1 23  1  0
  3 24  1  0
  3 25  1  0
  4 26  1  0
  4 27  1  0
  5 28  1  0
  5 29  1  0
  7 30  1  0
  8 31  1  0
 10 32  1  0
 13 33  1  0
 20 34  1  0
M  CHG  3   5   1  13  -1  18  -1
M  END
>  <UniqueID>  (16) 
16

>  <SMILES>  (16) 
COCC[NH2+]c1ccc2cc(C([NH-])=O)n(C(=O)[O-])c2c1

>  <Energy>  (16) 
75.5724694231388

>  <Genealogy>  (16) 
COCC[NH2+]c1ccc2cc(C([NH-])=O)n(C(=O)[O-])c2c1 (protonated)
COCC[NH2+]c1ccc2cc(C([NH-])=O)n(C(=O)[O-])c2c1 (3D coordinates assigned)
COCC[NH2+]c1ccc2cc(C([NH-])=O)n(C(=O)[O-])c2c1 (optimized conformer: 75.5724694231388 kcal/mol)

>  <smiles>  (16) 
COCCNc1ccc2cc(C(N)=O)n(C(=O)O)c2c1

>  <score_type>  (16) 
oracle

>  <origin>  (16) 
adg

>  <m_score__min__energy>  (16) 
-9.3499999999999996

>  <m_primary>  (16) 
energy

$$$$
16:0
     RDKit          3D

 37 38  0  0  0  0  0  0  0  0999 V2000
   -4.9010   23.9490  -29.0250 C   0  0  0  0  0  0  0  0  0  0  0  0
   -3.7930   24.2650  -29.9780 C   0  0  0  0  0  0  0  0  0  0  0  0
   -3.8610   25.3110  -30.6770 O   0  0  0  0  0  0  0  0  0  0  0  0
   -2.6910   23.3600  -30.1540 N   0  0  0  0  0  0  0  0  0  0  0  0
   -1.4210   23.4760  -29.6750 C   0  0  0  0  0  0  0  0  0  0  0  0
   -0.8670   24.6500  -28.9720 C   0  0  0  0  0  0  0  0  0  0  0  0
   -1.5980   25.8730  -28.9440 N   0  0  0  0  0  0  0  0  0  0  0  0
    0.2360   24.5770  -28.3670 O   0  0  0  0  0  0  0  0  0  0  0  0
   -0.6680   22.3530  -30.0150 C   0  0  0  0  0  0  0  0  0  0  0  0
   -1.5230   21.5440  -30.7300 C   0  0  0  0  0  0  0  0  0  0  0  0
   -1.3050   20.2990  -31.3110 C   0  0  0  0  0  0  0  0  0  0  0  0
   -2.3780   19.6850  -31.9780 C   0  0  0  0  0  0  0  0  0  0  0  0
   -3.6480   20.3210  -32.0530 C   0  0  0  0  0  0  0  0  0  0  0  0
   -4.7620   19.7060  -32.7270 N   0  0  0  0  0  0  0  0  0  0  0  0
   -5.5370   18.6020  -32.1500 C   0  0  0  0  0  0  0  0  0  0  0  0
   -6.7170   18.1840  -33.0490 C   0  0  1  0  0  0  0  0  0  0  0  0
   -7.6610   19.2200  -33.1380 O   0  0  0  0  0  0  0  0  0  0  0  0
   -6.2450   17.7940  -34.4580 C   0  0  0  0  0  0  0  0  0  0  0  0
   -6.0590   18.9400  -35.2450 O   0  0  0  0  0  0  0  0  0  0  0  0
   -3.8250   21.5860  -31.4500 C   0  0  0  0  0  0  0  0  0  0  0  0
   -2.7360   22.1770  -30.8030 C   0  0  0  0  0  0  0  0  0  0  0  0
   -4.5371   24.0528  -27.9922 H   0  0  0  0  0  0  0  0  0  0  0  0
   -5.7369   24.6446  -29.1909 H   0  0  0  0  0  0  0  0  0  0  0  0
   -5.2442   22.9172  -29.1909 H   0  0  0  0  0  0  0  0  0  0  0  0
   -2.6420   25.8760  -28.9700 H   0  0  0  0  0  0  0  0  0  0  0  0
    0.3849   22.1552  -29.7653 H   0  0  0  0  0  0  0  0  0  0  0  0
   -0.3216   19.8099  -31.2499 H   0  0  0  0  0  0  0  0  0  0  0  0
   -2.2344   18.7008  -32.4478 H   0  0  0  0  0  0  0  0  0  0  0  0
   -5.0290   20.0790  -33.6660 H   0  0  0  0  0  0  0  0  0  0  0  0
   -4.8721   17.7364  -32.0136 H   0  0  0  0  0  0  0  0  0  0  0  0
   -5.9501   18.9461  -31.1903 H   0  0  0  0  0  0  0  0  0  0  0  0
   -7.1846   17.3028  -32.5854 H   0  0  0  0  0  0  0  0  0  0  0  0
   -7.8630   19.3420  -34.1030 H   0  0  0  0  0  0  0  0  0  0  0  0
   -5.2935   17.2471  -34.3833 H   0  0  0  0  0  0  0  0  0  0  0  0
   -7.0100   17.1583  -34.9278 H   0  0  0  0  0  0  0  0  0  0  0  0
   -6.8760   19.4950  -35.1390 H   0  0  0  0  0  0  0  0  0  0  0  0
   -4.7992   22.0953  -31.4888 H   0  0  0  0  0  0  0  0  0  0  0  0
  1  2  1  0
  2  3  2  0
  2  4  1  0
  4  5  1  0
  5  6  1  0
  6  7  1  0
  6  8  2  0
  5  9  2  0
  9 10  1  0
 10 11  2  0
 11 12  1  0
 12 13  2  0
 13 14  1  0
 14 15  1  0
 15 16  1  0
 16 17  1  0
 16 18  1  0
 18 19  1  0
 13 20  1  0
 20 21  2  0
 21  4  1  0
 21 10  1  0
  1 22  1  0
  1 23  1  0
  1 24  1  0
  7 25  1  0
  9 26  1  0
 11 27  1  0
 12 28  1  0
 14 29  1  0
 15 30  1  0
 15 31  1  0
 16 32  1  1
 17 33  1  0
 18 34  1  0
 18 35  1  0
 19 36  1  0
 20 37  1  0
M  CHG  1   7  -1
M  END
>  <UniqueID>  (17) 
17

>  <SMILES>  (17) 
CC(=O)n1c(C([NH-])=O)cc2ccc(NC[C@@H](O)CO)cc21

>  <Energy>  (17) 
72.36738852438691

>  <Genealogy>  (17) 
CC(=O)n1c(C([NH-])=O)cc2ccc(NCC(O)CO)cc21 (protonated)
CC(=O)n1c(C([NH-])=O)cc2ccc(NC[C@@H](O)CO)cc21 (chirality)
CC(=O)n1c(C([NH-])=O)cc2ccc(NC[C@@H](O)CO)cc21 (3D coordinates assigned)
CC(=O)n1c(C([NH-])=O)cc2ccc(NC[C@@H](O)CO)cc21 (optimized conformer: 72.36738852438691 kcal/mol)

>  <smiles>  (17) 
CC(=O)n1c(C(N)=O)cc2ccc(NCC(O)CO)cc21

>  <score_type>  (17) 
oracle

>  <origin>  (17) 
adg

>  <m_score__min__energy>  (17) 
-9.8000000000000007

>  <m_primary>  (17) 
energy

$$$$
17:0
     RDKit          3D

 47 48  0  0  0  0  0  0  0  0999 V2000
   -2.8910   24.1560  -29.5740 C   0  0  0  0  0  0  0  0  0  0  0  0
   -3.5930   25.0140  -30.4660 O   0  0  0  0  0  0  0  0  0  0  0  0
   -4.9860   24.9960  -30.5860 C   0  0  0  0  0  0  0  0  0  0  0  0
   -5.6230   26.0520  -30.8480 O   0  0  0  0  0  0  0  0  0  0  0  0
   -5.7280   23.7140  -30.3630 C   0  0  0  0  0  0  0  0  0  0  0  0
   -6.9570   23.6100  -31.2750 C   0  0  0  0  0  0  0  0  0  0  0  0
   -7.2890   22.1760  -31.6010 C   0  0  0  0  0  0  0  0  0  0  0  0
   -8.5880   21.6690  -31.3490 C   0  0  0  0  0  0  0  0  0  0  0  0
   -8.9120   20.3400  -31.6690 C   0  0  0  0  0  0  0  0  0  0  0  0
   -7.9270   19.5510  -32.2550 C   0  0  0  0  0  0  0  0  0  0  0  0
   -7.9640   18.2310  -32.6390 C   0  0  0  0  0  0  0  0  0  0  0  0
   -6.7000   17.9640  -33.1590 C   0  0  0  0  0  0  0  0  0  0  0  0
   -6.3230   16.6660  -33.7550 C   0  0  0  0  0  0  0  0  0  0  0  0
   -4.9560   16.2580  -33.8360 N   0  0  0  0  0  0  0  0  0  0  0  0
   -7.2170   15.9300  -34.2510 O   0  0  0  0  0  0  0  0  0  0  0  0
   -5.9070   19.0690  -33.0870 N   0  0  0  0  0  0  0  0  0  0  0  0
   -4.5140   19.1720  -33.4240 C   0  0  0  0  0  0  0  0  0  0  0  0
   -4.1260   18.8430  -34.5760 O   0  0  0  0  0  0  0  0  0  0  0  0
   -3.6050   19.6360  -32.4620 O   0  0  0  0  0  0  0  0  0  0  0  0
   -2.7730   20.8000  -32.5670 C   0  0  0  0  0  0  0  0  0  0  0  0
   -3.4770   21.8950  -33.3920 C   0  0  0  0  0  0  0  0  0  0  0  0
   -1.4920   20.3760  -33.3000 C   0  0  0  0  0  0  0  0  0  0  0  0
   -2.3980   21.3270  -31.1690 C   0  0  0  0  0  0  0  0  0  0  0  0
   -6.6740   20.0350  -32.5320 C   0  0  0  0  0  0  0  0  0  0  0  0
   -6.3170   21.3480  -32.2020 C   0  0  0  0  0  0  0  0  0  0  0  0
   -3.1218   24.4381  -28.5361 H   0  0  0  0  0  0  0  0  0  0  0  0
   -3.1994   23.1146  -29.7481 H   0  0  0  0  0  0  0  0  0  0  0  0
   -1.8091   24.2520  -29.7481 H   0  0  0  0  0  0  0  0  0  0  0  0
   -5.0545   22.8700  -30.5731 H   0  0  0  0  0  0  0  0  0  0  0  0
   -6.0707   23.6908  -29.3180 H   0  0  0  0  0  0  0  0  0  0  0  0
   -7.8180   24.0687  -30.7668 H   0  0  0  0  0  0  0  0  0  0  0  0
   -6.7310   24.1324  -32.2163 H   0  0  0  0  0  0  0  0  0  0  0  0
   -9.3499   22.3222  -30.8986 H   0  0  0  0  0  0  0  0  0  0  0  0
   -9.9139   19.9354  -31.4626 H   0  0  0  0  0  0  0  0  0  0  0  0
   -8.8112   17.5346  -32.5536 H   0  0  0  0  0  0  0  0  0  0  0  0
   -4.7120   15.3200  -34.2240 H   0  0  0  0  0  0  0  0  0  0  0  0
   -4.1810   16.9160  -33.5980 H   0  0  0  0  0  0  0  0  0  0  0  0
   -3.9447   22.6225  -32.7123 H   0  0  0  0  0  0  0  0  0  0  0  0
   -2.7389   22.4077  -34.0263 H   0  0  0  0  0  0  0  0  0  0  0  0
   -4.2499   21.4363  -34.0263 H   0  0  0  0  0  0  0  0  0  0  0  0
   -0.7162   20.1192  -32.5637 H   0  0  0  0  0  0  0  0  0  0  0  0
   -1.7033   19.4999  -33.9307 H   0  0  0  0  0  0  0  0  0  0  0  0
   -1.1389   21.2052  -33.9307 H   0  0  0  0  0  0  0  0  0  0  0  0
   -2.8544   20.6855  -30.4008 H   0  0  0  0  0  0  0  0  0  0  0  0
   -1.3041   21.3152  -31.0540 H   0  0  0  0  0  0  0  0  0  0  0  0
   -2.7677   22.3566  -31.0540 H   0  0  0  0  0  0  0  0  0  0  0  0
   -5.3039   21.7248  -32.4061 H   0  0  0  0  0  0  0  0  0  0  0  0
  1  2  1  0
  2  3  1  0
  3  4  2  0
  3  5  1  0
  5  6  1  0
  6  7  1  0
  7  8  2  0
  8  9  1  0
  9 10  2  0
 10 11  1  0
 11 12  2  0
 12 13  1  0
 13 14  1  0
 13 15  2  0
 12 16  1  0
 16 17  1  0
 17 18  2  0
 17 19  1  0
 19 20  1  0
 20 21  1  0
 20 22  1  0
 20 23  1  0
 16 24  1  0
 24 25  2  0
 25  7  1  0
 24 10  1  0
  1 26  1  0
  1 27  1  0
  1 28  1  0
  5 29  1  0
  5 30  1  0
  6 31  1  0
  6 32  1  0
  8 33  1  0
  9 34  1  0
 11 35  1  0
 14 36  1  0
 14 37  1  0
 21 38  1  0
 21 39  1  0
 21 40  1  0
 22 41  1  0
 22 42  1  0
 22 43  1  0
 23 44  1  0
 23 45  1  0
 23 46  1  0
 25 47  1  0
M  END
>  <UniqueID>  (18) 
18

>  <SMILES>  (18) 
COC(=O)CCc1ccc2cc(C(N)=O)n(C(=O)OC(C)(C)C)c2c1

>  <Energy>  (18) 
74.53763367895125

>  <Genealogy>  (18) 
COC(=O)CCc1ccc2cc(C(N)=O)n(C(=O)OC(C)(C)C)c2c1 (3D coordinates assigned)
COC(=O)CCc1ccc2cc(C(N)=O)n(C(=O)OC(C)(C)C)c2c1 (optimized conformer: 74.53763367895125 kcal/mol)

>  <smiles>  (18) 
COC(=O)CCc1ccc2cc(C(N)=O)n(C(=O)OC(C)(C)C)c2c1

>  <score_type>  (18) 
oracle

>  <origin>  (18) 
adg

>  <m_score__min__energy>  (18) 
-8.7599999999999998

>  <m_primary>  (18) 
energy

$$$$
18:0
     RDKit          3D

 29 31  0  0  0  0  0  0  0  0999 V2000
   -6.3230   25.9210  -29.0050 N   0  0  0  0  0  0  0  0  0  0  0  0
   -5.6760   25.3660  -30.1550 C   0  0  0  0  0  0  0  0  0  0  0  0
   -4.7640   26.0800  -30.6440 O   0  0  0  0  0  0  0  0  0  0  0  0
   -6.0910   24.0770  -30.6600 C   0  0  0  0  0  0  0  0  0  0  0  0
   -7.4470   23.7460  -30.8130 C   0  0  0  0  0  0  0  0  0  0  0  0
   -7.5490   22.4690  -31.3080 C   0  0  0  0  0  0  0  0  0  0  0  0
   -8.6520   21.6980  -31.6260 C   0  0  0  0  0  0  0  0  0  0  0  0
   -8.4610   20.4240  -32.1140 C   0  0  0  0  0  0  0  0  0  0  0  0
   -7.1780   19.9470  -32.2740 C   0  0  0  0  0  0  0  0  0  0  0  0
   -6.9750   18.5970  -32.7910 C   0  0  0  0  0  0  0  0  0  0  0  0
   -7.7270   17.5060  -32.5640 N   0  0  0  0  0  0  0  0  0  0  0  0
   -7.2300   16.4830  -33.1980 O   0  0  0  0  0  0  0  0  0  0  0  0
   -6.1440   16.8970  -33.8470 C   0  0  0  0  0  0  0  0  0  0  0  0
   -5.3900   16.1900  -34.5740 O   0  0  0  0  0  0  0  0  0  0  0  0
   -5.9680   18.2260  -33.6020 N   0  0  0  0  0  0  0  0  0  0  0  0
   -6.0940   20.7460  -31.9450 C   0  0  0  0  0  0  0  0  0  0  0  0
   -6.2510   22.0270  -31.4540 C   0  0  0  0  0  0  0  0  0  0  0  0
   -5.3840   23.0090  -31.0590 N   0  0  0  0  0  0  0  0  0  0  0  0
   -3.9830   22.8830  -31.0800 C   0  0  0  0  0  0  0  0  0  0  0  0
   -3.3420   21.8290  -31.2730 O   0  0  0  0  0  0  0  0  0  0  0  0
   -3.1790   24.0240  -30.8690 O   0  0  0  0  0  0  0  0  0  0  0  0
   -5.8110   25.9570  -28.0970 H   0  0  0  0  0  0  0  0  0  0  0  0
   -7.2970   26.2930  -29.0550 H   0  0  0  0  0  0  0  0  0  0  0  0
   -8.2942   24.4057  -30.5740 H   0  0  0  0  0  0  0  0  0  0  0  0
   -9.6683   22.0966  -31.4911 H   0  0  0  0  0  0  0  0  0  0  0  0
   -9.3242   19.7935  -32.3735 H   0  0  0  0  0  0  0  0  0  0  0  0
   -5.2020   18.8430  -33.9710 H   0  0  0  0  0  0  0  0  0  0  0  0
   -5.0776   20.3473  -32.0792 H   0  0  0  0  0  0  0  0  0  0  0  0
   -3.4700   24.9340  -31.2250 H   0  0  0  0  0  0  0  0  0  0  0  0
  1  2  1  0
  2  3  2  0
  2  4  1  0
  4  5  2  0
  5  6  1  0
  6  7  2  0
  7  8  1  0
  8  9  2  0
  9 10  1  0
 10 11  2  0
 11 12  1  0
 12 13  1  0
 13 14  2  0
 13 15  1  0
  9 16  1  0
 16 17  2  0
 17 18  1  0
 18 19  1  0
 19 20  2  0
 19 21  1  0
 18  4  1  0
 17  6  1  0
 15 10  1  0
  1 22  1  0
  1 23  1  0
  5 24  1  0
  7 25  1  0
  8 26  1  0
 15 27  1  0
 16 28  1  0
 21 29  1  0
M  END
>  <smiles>  (19) 
NC(=O)c1cc2ccc(-c3noc(=O)[nH]3)cc2n1C(=O)O

>  <score_type>  (19) 
oracle

>  <origin>  (19) 
adg

>  <m_score__min__energy>  (19) 
-8.2200000000000006

>  <m_primary>  (19) 
energy

$$$$
19:0
     RDKit          3D

 35 37  0  0  0  0  0  0  0  0999 V2000
   -3.8710   25.3630  -30.5130 N   0  0  0  0  0  0  0  0  0  0  0  0
   -5.2610   25.0870  -30.4010 C   0  0  0  0  0  0  0  0  0  0  0  0
   -6.0090   25.9270  -29.8370 O   0  0  0  0  0  0  0  0  0  0  0  0
   -5.8310   23.8190  -30.9060 C   0  0  0  0  0  0  0  0  0  0  0  0
   -7.1910   23.6160  -31.1330 C   0  0  0  0  0  0  0  0  0  0  0  0
   -7.3020   22.3080  -31.5490 C   0  0  0  0  0  0  0  0  0  0  0  0
   -8.4220   21.5790  -31.9340 C   0  0  0  0  0  0  0  0  0  0  0  0
   -8.2320   20.2520  -32.3530 C   0  0  0  0  0  0  0  0  0  0  0  0
   -6.9350   19.6810  -32.3850 C   0  0  0  0  0  0  0  0  0  0  0  0
   -6.7520   18.2650  -32.8500 C   0  0  0  0  0  0  0  0  0  0  0  0
   -7.9180   17.5540  -32.6390 F   0  0  0  0  0  0  0  0  0  0  0  0
   -6.4460   18.2530  -34.2010 F   0  0  0  0  0  0  0  0  0  0  0  0
   -5.8210   20.4540  -31.9880 C   0  0  0  0  0  0  0  0  0  0  0  0
   -6.0430   21.7680  -31.5650 C   0  0  0  0  0  0  0  0  0  0  0  0
   -5.1310   22.6810  -31.1700 N   0  0  0  0  0  0  0  0  0  0  0  0
   -3.7090   22.4960  -31.1420 C   0  0  0  0  0  0  0  0  0  0  0  0
   -3.0870   22.2950  -32.2180 O   0  0  0  0  0  0  0  0  0  0  0  0
   -2.9760   22.5380  -29.8640 C   0  0  0  0  0  0  0  0  0  0  0  0
   -3.0920   21.5790  -29.0510 O   0  0  0  0  0  0  0  0  0  0  0  0
   -2.1430   23.6600  -29.5380 N   0  0  0  0  0  0  0  0  0  0  0  0
   -1.4450   23.7370  -28.2590 C   0  0  0  0  0  0  0  0  0  0  0  0
   -1.2180   25.1580  -27.7660 C   0  0  0  0  0  0  0  0  0  0  0  0
   -2.3060   24.2980  -27.1360 C   0  0  0  0  0  0  0  0  0  0  0  0
   -3.5120   26.0420  -31.2190 H   0  0  0  0  0  0  0  0  0  0  0  0
   -8.0039   24.3462  -31.0066 H   0  0  0  0  0  0  0  0  0  0  0  0
   -9.4260   22.0280  -31.9111 H   0  0  0  0  0  0  0  0  0  0  0  0
   -9.0994   19.6491  -32.6598 H   0  0  0  0  0  0  0  0  0  0  0  0
   -5.9303   17.8018  -32.2841 H   0  0  0  0  0  0  0  0  0  0  0  0
   -4.8051   20.0328  -32.0111 H   0  0  0  0  0  0  0  0  0  0  0  0
   -1.9500   24.3910  -30.2620 H   0  0  0  0  0  0  0  0  0  0  0  0
   -0.8093   22.8490  -28.3906 H   0  0  0  0  0  0  0  0  0  0  0  0
   -0.3109   25.4035  -27.1942 H   0  0  0  0  0  0  0  0  0  0  0  0
   -1.1878   26.1502  -28.2399 H   0  0  0  0  0  0  0  0  0  0  0  0
   -2.1847   23.9221  -26.1094 H   0  0  0  0  0  0  0  0  0  0  0  0
   -3.3869   24.4113  -26.9665 H   0  0  0  0  0  0  0  0  0  0  0  0
  1  2  1  0
  2  3  2  0
  2  4  1  0
  4  5  2  0
  5  6  1  0
  6  7  2  0
  7  8  1  0
  8  9  2  0
  9 10  1  0
 10 11  1  0
 10 12  1  0
  9 13  1  0
 13 14  2  0
 14 15  1  0
 15 16  1  0
 16 17  2  0
 16 18  1  0
 18 19  2  0
 18 20  1  0
 20 21  1  0
 21 22  1  0
 22 23  1  0
 15  4  1  0
 23 21  1  0
 14  6  1  0
  1 24  1  0
  5 25  1  0
  7 26  1  0
  8 27  1  0
 10 28  1  0
 13 29  1  0
 20 30  1  0
 21 31  1  0
 22 32  1  0
 22 33  1  0
 23 34  1  0
 23 35  1  0
M  CHG  1   1  -1
M  END
>  <UniqueID>  (20) 
19

>  <SMILES>  (20) 
[NH-]C(=O)c1cc2ccc(C(F)F)cc2n1C(=O)C(=O)NC1CC1

>  <Energy>  (20) 
338.1980697319055

>  <Genealogy>  (20) 
[NH-]C(=O)c1cc2ccc(C(F)F)cc2n1C(=O)C(=O)NC1CC1 (protonated)
[NH-]C(=O)c1cc2ccc(C(F)F)cc2n1C(=O)C(=O)NC1CC1 (3D coordinates assigned)
[NH-]C(=O)c1cc2ccc(C(F)F)cc2n1C(=O)C(=O)NC1CC1 (nonaromatic ring conformer: 338.1980697319055 kcal/mol)

>  <smiles>  (20) 
NC(=O)c1cc2ccc(C(F)F)cc2n1C(=O)C(=O)NC1CC1

>  <score_type>  (20) 
oracle

>  <origin>  (20) 
adg

>  <m_score__min__energy>  (20) 
-9.9700000000000006

>  <m_primary>  (20) 
energy

$$$$
20:0
     RDKit          3D

 46 48  0  0  0  0  0  0  0  0999 V2000
   -0.1950   18.1610  -33.6110 C   0  0  0  0  0  0  0  0  0  0  0  0
   -0.2700   19.6360  -33.8340 C   0  0  0  0  0  0  0  0  0  0  0  0
    0.4220   20.2880  -34.7390 O   0  0  0  0  0  0  0  0  0  0  0  0
    0.0960   21.5540  -34.5950 C   0  0  0  0  0  0  0  0  0  0  0  0
    0.5650   22.4800  -35.3070 O   0  0  0  0  0  0  0  0  0  0  0  0
   -0.7730   21.7480  -33.6290 O   0  0  0  0  0  0  0  0  0  0  0  0
   -1.0210   20.5600  -33.1270 C   0  0  0  0  0  0  0  0  0  0  0  0
   -1.9720   20.2970  -32.0000 C   0  0  0  0  0  0  0  0  0  0  0  0
   -2.8320   19.2050  -32.3130 O   0  0  0  0  0  0  0  0  0  0  0  0
   -3.6600   19.1740  -33.4430 C   0  0  0  0  0  0  0  0  0  0  0  0
   -3.1640   19.3540  -34.5920 O   0  0  0  0  0  0  0  0  0  0  0  0
   -5.1340   18.8480  -33.2780 C   0  0  0  0  0  0  0  0  0  0  0  0
   -5.2650   17.6420  -32.3160 C   0  0  0  0  0  0  0  0  0  0  0  0
   -5.7380   18.4020  -34.6380 C   0  0  0  0  0  0  0  0  0  0  0  0
   -5.8590   20.0860  -32.7020 C   0  0  0  0  0  0  0  0  0  0  0  0
   -7.2740   20.2510  -32.8130 C   0  0  0  0  0  0  0  0  0  0  0  0
   -7.9170   21.3970  -32.3220 C   0  0  0  0  0  0  0  0  0  0  0  0
   -7.1390   22.3810  -31.7310 C   0  0  0  0  0  0  0  0  0  0  0  0
   -7.5090   23.5930  -31.1960 C   0  0  0  0  0  0  0  0  0  0  0  0
   -6.3260   24.1790  -30.7620 C   0  0  0  0  0  0  0  0  0  0  0  0
   -6.2820   25.4560  -30.0220 C   0  0  0  0  0  0  0  0  0  0  0  0
   -5.3740   26.4940  -30.3940 N   0  0  0  0  0  0  0  0  0  0  0  0
   -7.0010   25.6030  -28.9980 O   0  0  0  0  0  0  0  0  0  0  0  0
   -5.2610   23.3740  -31.0370 N   0  0  0  0  0  0  0  0  0  0  0  0
   -3.8670   23.6810  -30.8620 C   0  0  0  0  0  0  0  0  0  0  0  0
   -2.9890   22.7990  -31.0740 O   0  0  0  0  0  0  0  0  0  0  0  0
   -3.4690   24.9510  -30.4660 O   0  0  0  0  0  0  0  0  0  0  0  0
   -5.7810   22.2690  -31.6230 C   0  0  0  0  0  0  0  0  0  0  0  0
   -5.1090   21.1480  -32.1240 C   0  0  0  0  0  0  0  0  0  0  0  0
   -0.1845   17.9536  -32.5308 H   0  0  0  0  0  0  0  0  0  0  0  0
   -1.0696   17.6760  -34.0690 H   0  0  0  0  0  0  0  0  0  0  0  0
    0.7243   17.7672  -34.0690 H   0  0  0  0  0  0  0  0  0  0  0  0
   -1.3990   20.0570  -31.0922 H   0  0  0  0  0  0  0  0  0  0  0  0
   -2.5853   21.1955  -31.8370 H   0  0  0  0  0  0  0  0  0  0  0  0
   -5.2264   17.9970  -31.2756 H   0  0  0  0  0  0  0  0  0  0  0  0
   -6.2237   17.1331  -32.4945 H   0  0  0  0  0  0  0  0  0  0  0  0
   -4.4379   16.9391  -32.4945 H   0  0  0  0  0  0  0  0  0  0  0  0
   -6.6109   17.7574  -34.4578 H   0  0  0  0  0  0  0  0  0  0  0  0
   -6.0489   19.2889  -35.2096 H   0  0  0  0  0  0  0  0  0  0  0  0
   -4.9819   17.8439  -35.2096 H   0  0  0  0  0  0  0  0  0  0  0  0
   -7.8718   19.4626  -33.2937 H   0  0  0  0  0  0  0  0  0  0  0  0
   -9.0079   21.5118  -32.4035 H   0  0  0  0  0  0  0  0  0  0  0  0
   -8.5247   24.0096  -31.1265 H   0  0  0  0  0  0  0  0  0  0  0  0
   -5.3690   27.3980  -29.8730 H   0  0  0  0  0  0  0  0  0  0  0  0
   -4.6510   26.3350  -31.1280 H   0  0  0  0  0  0  0  0  0  0  0  0
   -4.0119   21.0887  -32.0714 H   0  0  0  0  0  0  0  0  0  0  0  0
  1  2  1  0
  2  3  1  0
  3  4  1  0
  4  5  2  0
  4  6  1  0
  6  7  1  0
  7  8  1  0
  8  9  1  0
  9 10  1  0
 10 11  2  0
 10 12  1  0
 12 13  1  0
 12 14  1  0
 12 15  1  0
 15 16  2  0
 16 17  1  0
 17 18  2  0
 18 19  1  0
 19 20  2  0
 20 21  1  0
 21 22  1  0
 21 23  2  0
 20 24  1  0
 24 25  1  0
 25 26  2  0
 25 27  1  0
 24 28  1  0
 28 29  2  0
  7  2  2  0
 29 15  1  0
 28 18  1  0
  1 30  1  0
  1 31  1  0
  1 32  1  0
  8 33  1  0
  8 34  1  0
 13 35  1  0
 13 36  1  0
 13 37  1  0
 14 38  1  0
 14 39  1  0
 14 40  1  0
 16 41  1  0
 17 42  1  0
 19 43  1  0
 22 44  1  0
 22 45  1  0
 29 46  1  0
M  CHG  1  27  -1
M  END
>  <UniqueID>  (21) 
20

>  <SMILES>  (21) 
Cc1oc(=O)oc1COC(=O)C(C)(C)c1ccc2cc(C(N)=O)n(C(=O)[O-])c2c1

>  <Energy>  (21) 
120.18110275054643

>  <Genealogy>  (21) 
Cc1oc(=O)oc1COC(=O)C(C)(C)c1ccc2cc(C(N)=O)n(C(=O)[O-])c2c1 (protonated)
Cc1oc(=O)oc1COC(=O)C(C)(C)c1ccc2cc(C(N)=O)n(C(=O)[O-])c2c1 (3D coordinates assigned)
Cc1oc(=O)oc1COC(=O)C(C)(C)c1ccc2cc(C(N)=O)n(C(=O)[O-])c2c1 (optimized conformer: 120.18110275054643 kcal/mol)

>  <smiles>  (21) 
Cc1oc(=O)oc1COC(=O)C(C)(C)c1ccc2cc(C(N)=O)n(C(=O)O)c2c1

>  <score_type>  (21) 
oracle

>  <origin>  (21) 
adg

>  <m_score__min__energy>  (21) 
-9.8900000000000006

>  <m_primary>  (21) 
energy

$$$$
21:0
     RDKit          3D

 38 40  0  0  0  0  0  0  0  0999 V2000
   -6.7830   15.8230  -34.1990 C   0  0  0  0  0  0  0  0  0  0  0  0
   -6.5680   17.0030  -33.3710 N   0  0  0  0  0  0  0  0  0  0  0  0
   -7.6030   17.9370  -32.9730 C   0  0  0  0  0  0  0  0  0  0  0  0
   -6.9100   18.9610  -32.0530 C   0  0  0  0  0  0  0  0  0  0  0  0
   -5.3840   18.7640  -32.2170 C   0  0  2  0  0  0  0  0  0  0  0  0
   -4.7550   19.9090  -33.0350 C   0  0  0  0  0  0  0  0  0  0  0  0
   -3.6080   20.5590  -32.3020 C   0  0  0  0  0  0  0  0  0  0  0  0
   -2.3430   19.9210  -32.2460 C   0  0  0  0  0  0  0  0  0  0  0  0
   -1.2800   20.5030  -31.5360 C   0  0  0  0  0  0  0  0  0  0  0  0
   -1.5090   21.7190  -30.8990 C   0  0  0  0  0  0  0  0  0  0  0  0
   -0.6670   22.4810  -30.1220 C   0  0  0  0  0  0  0  0  0  0  0  0
   -1.4230   23.5840  -29.7310 C   0  0  0  0  0  0  0  0  0  0  0  0
   -0.8720   24.7080  -28.9460 C   0  0  0  0  0  0  0  0  0  0  0  0
   -1.5090   25.9820  -28.9400 N   0  0  0  0  0  0  0  0  0  0  0  0
    0.2050   24.5540  -28.3090 O   0  0  0  0  0  0  0  0  0  0  0  0
   -2.6870   23.5030  -30.2400 N   0  0  0  0  0  0  0  0  0  0  0  0
   -3.7920   24.3880  -30.0010 C   0  0  0  0  0  0  0  0  0  0  0  0
   -4.7180   24.0530  -29.2170 O   0  0  0  0  0  0  0  0  0  0  0  0
   -3.8630   25.6130  -30.6530 O   0  0  0  0  0  0  0  0  0  0  0  0
   -2.7210   22.3560  -30.9560 C   0  0  0  0  0  0  0  0  0  0  0  0
   -3.8030   21.7910  -31.6390 C   0  0  0  0  0  0  0  0  0  0  0  0
   -5.3060   17.4670  -32.9360 C   0  0  0  0  0  0  0  0  0  0  0  0
   -4.2380   16.8230  -33.1200 O   0  0  0  0  0  0  0  0  0  0  0  0
   -6.9427   14.9465  -33.5538 H   0  0  0  0  0  0  0  0  0  0  0  0
   -7.6679   15.9770  -34.8340 H   0  0  0  0  0  0  0  0  0  0  0  0
   -5.9007   15.6550  -34.8340 H   0  0  0  0  0  0  0  0  0  0  0  0
   -8.0263   18.4392  -33.8554 H   0  0  0  0  0  0  0  0  0  0  0  0
   -8.4335   17.4286  -32.4613 H   0  0  0  0  0  0  0  0  0  0  0  0
   -7.1918   19.9829  -32.3467 H   0  0  0  0  0  0  0  0  0  0  0  0
   -7.2126   18.8128  -31.0059 H   0  0  0  0  0  0  0  0  0  0  0  0
   -4.8333   18.7674  -31.2648 H   0  0  0  0  0  0  0  0  0  0  0  0
   -4.3841   19.5034  -33.9878 H   0  0  0  0  0  0  0  0  0  0  0  0
   -5.5286   20.6726  -33.2038 H   0  0  0  0  0  0  0  0  0  0  0  0
   -2.1928   18.9618  -32.7631 H   0  0  0  0  0  0  0  0  0  0  0  0
   -0.2966   20.0127  -31.4850 H   0  0  0  0  0  0  0  0  0  0  0  0
    0.3804   22.2652  -29.8643 H   0  0  0  0  0  0  0  0  0  0  0  0
   -2.5500   26.0620  -28.9610 H   0  0  0  0  0  0  0  0  0  0  0  0
   -4.7813   22.2935  -31.6593 H   0  0  0  0  0  0  0  0  0  0  0  0
  1  2  1  0
  2  3  1  0
  3  4  1  0
  4  5  1  0
  5  6  1  0
  6  7  1  0
  7  8  2  0
  8  9  1  0
  9 10  2  0
 10 11  1  0
 11 12  2  0
 12 13  1  0
 13 14  1  0
 13 15  2  0
 12 16  1  0
 16 17  1  0
 17 18  2  0
 17 19  1  0
 16 20  1  0
 20 21  2  0
  5 22  1  0
 22 23  2  0
 22  2  1  0
 21  7  1  0
 20 10  1  0
  1 24  1  0
  1 25  1  0
  1 26  1  0
  3 27  1  0
  3 28  1  0
  4 29  1  0
  4 30  1  0
  5 31  1  1
  6 32  1  0
  6 33  1  0
  8 34  1  0
  9 35  1  0
 11 36  1  0
 14 37  1  0
 21 38  1  0
M  CHG  2  14  -1  19  -1
M  END
>  <UniqueID>  (22) 
21

>  <SMILES>  (22) 
CN1CC[C@H](Cc2ccc3cc(C([NH-])=O)n(C(=O)[O-])c3c2)C1=O

>  <Energy>  (22) 
82.34937234236833

>  <Genealogy>  (22) 
CN1CC[C@H](Cc2ccc3cc(C([NH-])=O)n(C(=O)[O-])c3c2)C1=O (protonated)
CN1CC[C@H](Cc2ccc3cc(C([NH-])=O)n(C(=O)[O-])c3c2)C1=O (3D coordinates assigned)
CN1CC[C@H](Cc2ccc3cc(C([NH-])=O)n(C(=O)[O-])c3c2)C1=O (nonaromatic ring conformer: 82.34937234236833 kcal/mol)

>  <smiles>  (22) 
CN1CC[C@H](Cc2ccc3cc(C(N)=O)n(C(=O)O)c3c2)C1=O

>  <score_type>  (22) 
oracle

>  <origin>  (22) 
adg

>  <m_score__min__energy>  (22) 
-11.5

>  <m_primary>  (22) 
energy

$$$$
22:0
     RDKit          3D

 45 46  0  0  0  0  0  0  0  0999 V2000
   -1.9920   20.0370  -33.8290 C   0  0  0  0  0  0  0  0  0  0  0  0
   -3.1580   19.4410  -33.5660 C   0  0  0  0  0  0  0  0  0  0  0  0
   -3.2880   17.9440  -33.5510 C   0  0  0  0  0  0  0  0  0  0  0  0
   -4.4930   17.5310  -34.1910 O   0  0  0  0  0  0  0  0  0  0  0  0
   -5.6810   18.2700  -34.1470 C   0  0  0  0  0  0  0  0  0  0  0  0
   -6.0920   18.8950  -35.1630 O   0  0  0  0  0  0  0  0  0  0  0  0
   -6.5050   18.2600  -32.8930 C   0  0  0  0  0  0  0  0  0  0  0  0
   -7.7640   19.0010  -33.0660 N   0  0  0  0  0  0  0  0  0  0  0  0
   -7.6940   20.3050  -32.4510 C   0  0  0  0  0  0  0  0  0  0  0  0
   -8.8840   20.9890  -32.0890 C   0  0  0  0  0  0  0  0  0  0  0  0
   -8.8290   22.2750  -31.5250 C   0  0  0  0  0  0  0  0  0  0  0  0
   -7.5770   22.8590  -31.3520 C   0  0  0  0  0  0  0  0  0  0  0  0
   -7.2370   24.0850  -30.8270 C   0  0  0  0  0  0  0  0  0  0  0  0
   -5.8470   24.1460  -30.9050 C   0  0  0  0  0  0  0  0  0  0  0  0
   -5.0610   25.3380  -30.5220 C   0  0  0  0  0  0  0  0  0  0  0  0
   -3.6370   25.2610  -30.4680 N   0  0  0  0  0  0  0  0  0  0  0  0
   -5.6320   26.4150  -30.2100 O   0  0  0  0  0  0  0  0  0  0  0  0
   -5.3480   23.0020  -31.4500 N   0  0  0  0  0  0  0  0  0  0  0  0
   -3.9690   22.6510  -31.6480 C   0  0  0  0  0  0  0  0  0  0  0  0
   -3.5570   22.3460  -32.7990 O   0  0  0  0  0  0  0  0  0  0  0  0
   -3.0950   22.6260  -30.5540 O   0  0  0  0  0  0  0  0  0  0  0  0
   -3.3830   21.9380  -29.3380 C   0  0  0  0  0  0  0  0  0  0  0  0
   -4.2460   22.7780  -28.4410 C   0  0  0  0  0  0  0  0  0  0  0  0
   -3.7130   23.6170  -27.5500 C   0  0  0  0  0  0  0  0  0  0  0  0
   -6.4190   22.2230  -31.7170 C   0  0  0  0  0  0  0  0  0  0  0  0
   -6.4410   20.9320  -32.2560 C   0  0  0  0  0  0  0  0  0  0  0  0
   -1.9242   21.1349  -33.8336 H   0  0  0  0  0  0  0  0  0  0  0  0
   -1.0995   19.4300  -34.0410 H   0  0  0  0  0  0  0  0  0  0  0  0
   -4.0428   20.0597  -33.3557 H   0  0  0  0  0  0  0  0  0  0  0  0
   -2.4301   17.5028  -34.0796 H   0  0  0  0  0  0  0  0  0  0  0  0
   -3.3115   17.6040  -32.5051 H   0  0  0  0  0  0  0  0  0  0  0  0
   -6.7376   17.2183  -32.6271 H   0  0  0  0  0  0  0  0  0  0  0  0
   -5.9249   18.7488  -32.0964 H   0  0  0  0  0  0  0  0  0  0  0  0
   -7.9490   19.1130  -34.0910 H   0  0  0  0  0  0  0  0  0  0  0  0
   -8.5600   18.4500  -32.6670 H   0  0  0  0  0  0  0  0  0  0  0  0
   -9.8595   20.5074  -32.2517 H   0  0  0  0  0  0  0  0  0  0  0  0
   -9.7470   22.8040  -31.2293 H   0  0  0  0  0  0  0  0  0  0  0  0
   -7.9174   24.8530  -30.4304 H   0  0  0  0  0  0  0  0  0  0  0  0
   -3.1030   24.7030  -31.1700 H   0  0  0  0  0  0  0  0  0  0  0  0
   -3.9095   21.0005  -29.5702 H   0  0  0  0  0  0  0  0  0  0  0  0
   -2.4360   21.7273  -28.8195 H   0  0  0  0  0  0  0  0  0  0  0  0
   -5.3404   22.7003  -28.5198 H   0  0  0  0  0  0  0  0  0  0  0  0
   -4.3668   24.2216  -26.9042 H   0  0  0  0  0  0  0  0  0  0  0  0
   -2.6200   23.7038  -27.4615 H   0  0  0  0  0  0  0  0  0  0  0  0
   -5.5062   20.4168  -32.5218 H   0  0  0  0  0  0  0  0  0  0  0  0
  1  2  2  0
  2  3  1  0
  3  4  1  0
  4  5  1  0
  5  6  2  0
  5  7  1  0
  7  8  1  0
  8  9  1  0
  9 10  2  0
 10 11  1  0
 11 12  2  0
 12 13  1  0
 13 14  2  0
 14 15  1  0
 15 16  1  0
 15 17  2  0
 14 18  1  0
 18 19  1  0
 19 20  2  0
 19 21  1  0
 21 22  1  0
 22 23  1  0
 23 24  2  0
 18 25  1  0
 25 26  2  0
 26  9  1  0
 25 12  1  0
  1 27  1  0
  1 28  1  0
  2 29  1  0
  3 30  1  0
  3 31  1  0
  7 32  1  0
  7 33  1  0
  8 34  1  0
  8 35  1  0
 10 36  1  0
 11 37  1  0
 13 38  1  0
 16 39  1  0
 22 40  1  0
 22 41  1  0
 23 42  1  0
 24 43  1  0
 24 44  1  0
 26 45  1  0
M  CHG  2   8   1  16  -1
M  END
>  <UniqueID>  (23) 
22

>  <SMILES>  (23) 
C=CCOC(=O)C[NH2+]c1ccc2cc(C([NH-])=O)n(C(=O)OCC=C)c2c1

>  <Energy>  (23) 
73.8677040991548

>  <Genealogy>  (23) 
C=CCOC(=O)C[NH2+]c1ccc2cc(C([NH-])=O)n(C(=O)OCC=C)c2c1 (protonated)
C=CCOC(=O)C[NH2+]c1ccc2cc(C([NH-])=O)n(C(=O)OCC=C)c2c1 (3D coordinates assigned)
C=CCOC(=O)C[NH2+]c1ccc2cc(C([NH-])=O)n(C(=O)OCC=C)c2c1 (optimized conformer: 73.8677040991548 kcal/mol)

>  <smiles>  (23) 
C=CCOC(=O)CNc1ccc2cc(C(N)=O)n(C(=O)OCC=C)c2c1

>  <score_type>  (23) 
oracle

>  <origin>  (23) 
adg

>  <m_score__min__energy>  (23) 
-9.3499999999999996

>  <m_primary>  (23) 
energy

$$$$
23:0
     RDKit          3D

108114  0  0  0  0  0  0  0  0999 V2000
    0.3440   14.8310  -30.8020 C   0  0  0  0  0  0  0  0  0  0  0  0
   -0.8840   14.8440  -31.7310 C   0  0  0  0  0  0  0  0  0  0  0  0
   -0.9020   13.7570  -32.7380 N   0  0  1  0  0  0  0  0  0  0  0  0
   -0.0210   12.6380  -32.3470 C   0  0  0  0  0  0  0  0  0  0  0  0
   -2.2430   13.3030  -33.0430 C   0  0  0  0  0  0  0  0  0  0  0  0
   -3.0240   12.9610  -32.1130 O   0  0  0  0  0  0  0  0  0  0  0  0
   -2.6310   13.1200  -34.3760 O   0  0  0  0  0  0  0  0  0  0  0  0
   -3.9750   13.3040  -34.8210 C   0  0  1  0  0  0  0  0  0  0  0  0
   -4.8320   13.8920  -33.7170 C   0  0  0  0  0  0  0  0  0  0  0  0
   -4.4610   14.7580  -34.9220 C   0  0  1  0  0  0  0  0  0  0  0  0
   -3.4770   15.8130  -34.6040 N   0  0  0  0  0  0  0  0  0  0  0  0
   -2.2010   15.6280  -35.0570 C   0  0  0  0  0  0  0  0  0  0  0  0
   -1.1580   16.4820  -34.6770 C   0  0  0  0  0  0  0  0  0  0  0  0
    0.2170   16.2280  -35.1870 C   0  0  0  0  0  0  0  0  0  0  0  0
    0.6290   16.8350  -36.2120 O   0  0  0  0  0  0  0  0  0  0  0  0
    1.0570   15.3120  -34.5340 O   0  0  0  0  0  0  0  0  0  0  0  0
    2.1720   15.6590  -33.7540 C   0  0  0  0  0  0  0  0  0  0  0  0
    2.1780   16.7330  -32.9550 C   0  0  0  0  0  0  0  0  0  0  0  0
    3.3920   17.1310  -32.1770 C   0  0  0  0  0  0  0  0  0  0  0  0
    2.9870   17.6860  -30.9290 O   0  0  0  0  0  0  0  0  0  0  0  0
    1.9190   18.5750  -30.7980 C   0  0  0  0  0  0  0  0  0  0  0  0
    1.9330   19.6830  -31.4030 O   0  0  0  0  0  0  0  0  0  0  0  0
    0.7090   18.1540  -30.0090 C   0  0  0  0  0  0  0  0  0  0  0  0
   -0.1860   19.3220  -29.6830 C   0  0  0  0  0  0  0  0  0  0  0  0
   -0.3490   19.7310  -28.3350 C   0  0  0  0  0  0  0  0  0  0  0  0
   -1.1510   20.8420  -28.0170 C   0  0  0  0  0  0  0  0  0  0  0  0
   -1.7940   21.5050  -29.0560 C   0  0  0  0  0  0  0  0  0  0  0  0
   -2.6050   22.6210  -29.0290 C   0  0  0  0  0  0  0  0  0  0  0  0
   -2.9370   22.8660  -30.3610 C   0  0  0  0  0  0  0  0  0  0  0  0
   -3.8650   23.9360  -30.7810 C   0  0  0  0  0  0  0  0  0  0  0  0
   -3.5710   25.2930  -30.4670 N   0  0  0  0  0  0  0  0  0  0  0  0
   -4.9210   23.6660  -31.4190 O   0  0  0  0  0  0  0  0  0  0  0  0
   -2.3460   21.9520  -31.1800 N   0  0  0  0  0  0  0  0  0  0  0  0
   -2.3630   21.9080  -32.6160 C   0  0  0  0  0  0  0  0  0  0  0  0
   -3.4270   22.1770  -33.2370 O   0  0  0  0  0  0  0  0  0  0  0  0
   -1.1860   21.6150  -33.3200 O   0  0  0  0  0  0  0  0  0  0  0  0
   -1.1560   20.8850  -34.5480 C   0  0  0  0  0  0  0  0  0  0  0  0
    0.2550   20.5410  -34.9500 C   0  0  0  0  0  0  0  0  0  0  0  0
    0.5280   19.9950  -36.1500 C   0  0  0  0  0  0  0  0  0  0  0  0
    1.9210   19.7090  -36.5520 C   0  0  0  0  0  0  0  0  0  0  0  0
    2.9420   20.1880  -35.8310 C   0  0  0  0  0  0  0  0  0  0  0  0
    2.6930   21.1470  -34.6980 C   0  0  0  0  0  0  0  0  0  0  0  0
    1.3830   20.7990  -33.9710 C   0  0  0  0  0  0  0  0  0  0  0  0
   -1.6500   21.1250  -30.3650 C   0  0  0  0  0  0  0  0  0  0  0  0
   -0.8290   20.0480  -30.7160 C   0  0  0  0  0  0  0  0  0  0  0  0
   -1.4510   17.5750  -33.8490 C   0  0  0  0  0  0  0  0  0  0  0  0
   -0.5220   18.3320  -33.4480 O   0  0  0  0  0  0  0  0  0  0  0  0
   -2.7820   17.8390  -33.4850 C   0  0  0  0  0  0  0  0  0  0  0  0
   -3.0960   18.9710  -32.7220 C   0  0  0  0  0  0  0  0  0  0  0  0
   -4.4140   19.2820  -32.4070 C   0  0  0  0  0  0  0  0  0  0  0  0
   -4.6250   20.4080  -31.6790 F   0  0  0  0  0  0  0  0  0  0  0  0
   -5.4780   18.4770  -32.8680 C   0  0  0  0  0  0  0  0  0  0  0  0
   -6.8610   18.8310  -32.5610 N   0  0  0  0  0  0  0  0  0  0  0  0
   -7.7310   18.0380  -31.6980 C   0  0  0  0  0  0  0  0  0  0  0  0
   -9.1320   18.6120  -31.8580 C   0  0  0  0  0  0  0  0  0  0  0  0
   -8.9440   20.0350  -32.3930 C   0  0  1  0  0  0  0  0  0  0  0  0
   -8.9410   21.0230  -31.2920 N   0  0  0  0  0  0  0  0  0  0  0  0
   -8.0650   22.1610  -31.5980 C   0  0  0  0  0  0  0  0  0  0  0  0
   -7.5770   19.9870  -33.0960 C   0  0  0  0  0  0  0  0  0  0  0  0
   -5.1630   17.3250  -33.6360 C   0  0  0  0  0  0  0  0  0  0  0  0
   -6.1770   16.6030  -34.1610 F   0  0  0  0  0  0  0  0  0  0  0  0
   -3.8140   16.9660  -33.9150 C   0  0  0  0  0  0  0  0  0  0  0  0
    0.0108   14.8345  -29.7537 H   0  0  0  0  0  0  0  0  0  0  0  0
    0.9397   13.9265  -30.9943 H   0  0  0  0  0  0  0  0  0  0  0  0
    0.9587   15.7227  -30.9943 H   0  0  0  0  0  0  0  0  0  0  0  0
   -1.7867   14.7517  -31.1092 H   0  0  0  0  0  0  0  0  0  0  0  0
   -0.8436   15.7898  -32.2911 H   0  0  0  0  0  0  0  0  0  0  0  0
   -0.5220   14.1550  -33.6320 H   0  0  0  0  0  0  0  0  0  0  0  0
    0.0279   12.5759  -31.2498 H   0  0  0  0  0  0  0  0  0  0  0  0
   -0.4230   11.6967  -32.7500 H   0  0  0  0  0  0  0  0  0  0  0  0
    0.9883   12.8079  -32.7500 H   0  0  0  0  0  0  0  0  0  0  0  0
   -4.0175   12.4491  -35.5119 H   0  0  0  0  0  0  0  0  0  0  0  0
   -5.8691   13.5494  -33.5864 H   0  0  0  0  0  0  0  0  0  0  0  0
   -4.7266   13.9958  -32.6270 H   0  0  0  0  0  0  0  0  0  0  0  0
   -4.9945   15.3337  -35.6927 H   0  0  0  0  0  0  0  0  0  0  0  0
   -1.9882   14.7890  -35.7358 H   0  0  0  0  0  0  0  0  0  0  0  0
    3.0710   15.0268  -33.8012 H   0  0  0  0  0  0  0  0  0  0  0  0
    1.2646   17.3398  -32.8681 H   0  0  0  0  0  0  0  0  0  0  0  0
    4.0216   16.2466  -31.9995 H   0  0  0  0  0  0  0  0  0  0  0  0
    3.9665   17.8778  -32.7447 H   0  0  0  0  0  0  0  0  0  0  0  0
    0.1374   17.4221  -30.5986 H   0  0  0  0  0  0  0  0  0  0  0  0
    1.0563   17.7167  -29.0613 H   0  0  0  0  0  0  0  0  0  0  0  0
    0.1559   19.1749  -27.5314 H   0  0  0  0  0  0  0  0  0  0  0  0
   -1.2661   21.1768  -26.9755 H   0  0  0  0  0  0  0  0  0  0  0  0
   -2.9219   23.1947  -28.1456 H   0  0  0  0  0  0  0  0  0  0  0  0
   -3.5740   26.0240  -31.2070 H   0  0  0  0  0  0  0  0  0  0  0  0
   -1.7299   19.9546  -34.4252 H   0  0  0  0  0  0  0  0  0  0  0  0
   -1.5961   21.5146  -35.3353 H   0  0  0  0  0  0  0  0  0  0  0  0
   -0.2959   19.7589  -36.8396 H   0  0  0  0  0  0  0  0  0  0  0  0
    2.1195   19.1005  -37.4466 H   0  0  0  0  0  0  0  0  0  0  0  0
    3.9705   19.8785  -36.0683 H   0  0  0  0  0  0  0  0  0  0  0  0
    3.5285   21.0886  -33.9849 H   0  0  0  0  0  0  0  0  0  0  0  0
    2.6116   22.1649  -35.1069 H   0  0  0  0  0  0  0  0  0  0  0  0
    1.5411   19.8966  -33.3622 H   0  0  0  0  0  0  0  0  0  0  0  0
    1.1019   21.6541  -33.3388 H   0  0  0  0  0  0  0  0  0  0  0  0
   -0.6858   19.7709  -31.7708 H   0  0  0  0  0  0  0  0  0  0  0  0
   -2.2862   19.6249  -32.3661 H   0  0  0  0  0  0  0  0  0  0  0  0
   -7.7145   16.9825  -32.0074 H   0  0  0  0  0  0  0  0  0  0  0  0
   -7.3996   18.0800  -30.6500 H   0  0  0  0  0  0  0  0  0  0  0  0
   -9.7135   18.0089  -32.5709 H   0  0  0  0  0  0  0  0  0  0  0  0
   -9.6814   18.6081  -30.9050 H   0  0  0  0  0  0  0  0  0  0  0  0
   -9.7569   20.3443  -33.0665 H   0  0  0  0  0  0  0  0  0  0  0  0
   -8.5300   20.5690  -30.4400 H   0  0  0  0  0  0  0  0  0  0  0  0
   -7.7144   22.6164  -30.6601 H   0  0  0  0  0  0  0  0  0  0  0  0
   -7.2005   21.8117  -32.1816 H   0  0  0  0  0  0  0  0  0  0  0  0
   -8.6239   22.9074  -32.1816 H   0  0  0  0  0  0  0  0  0  0  0  0
   -7.7144   19.8767  -34.1818 H   0  0  0  0  0  0  0  0  0  0  0  0
   -7.0123   20.9143  -32.9194 H   0  0  0  0  0  0  0  0  0  0  0  0
  1  2  1  0
  2  3  1  0
  3  4  1  0
  3  5  1  0
  5  6  2  0
  5  7  1  0
  7  8  1  0
  8  9  1  0
  9 10  1  0
 10 11  1  0
 11 12  1  0
 12 13  2  0
 13 14  1  0
 14 15  2  0
 14 16  1  0
 16 17  1  0
 17 18  2  3
 18 19  1  0
 19 20  1  0
 20 21  1  0
 21 22  2  0
 21 23  1  0
 23 24  1  0
 24 25  2  0
 25 26  1  0
 26 27  2  0
 27 28  1  0
 28 29  2  0
 29 30  1  0
 30 31  1  0
 30 32  2  0
 29 33  1  0
 33 34  1  0
 34 35  2  0
 34 36  1  0
 36 37  1  0
 37 38  1  0
 38 39  2  0
 39 40  1  0
 40 41  2  0
 41 42  1  0
 42 43  1  0
 33 44  1  0
 44 45  2  0
 13 46  1  0
 46 47  2  0
 46 48  1  0
 48 49  2  0
 49 50  1  0
 50 51  1  0
 50 52  2  0
 52 53  1  0
 53 54  1  0
 54 55  1  0
 55 56  1  0
 56 57  1  0
 57 58  1  0
 56 59  1  0
 52 60  1  0
 60 61  1  0
 60 62  2  0
 10  8  1  0
 62 11  1  0
 45 24  1  0
 62 48  1  0
 44 27  1  0
 59 53  1  0
 43 38  1  0
  1 63  1  0
  1 64  1  0
  1 65  1  0
  2 66  1  0
  2 67  1  0
  3 68  1  6
  4 69  1  0
  4 70  1  0
  4 71  1  0
  8 72  1  6
  9 73  1  0
  9 74  1  0
 10 75  1  6
 12 76  1  0
 17 77  1  0
 18 78  1  0
 19 79  1  0
 19 80  1  0
 23 81  1  0
 23 82  1  0
 25 83  1  0
 26 84  1  0
 28 85  1  0
 31 86  1  0
 37 87  1  0
 37 88  1  0
 39 89  1  0
 40 90  1  0
 41 91  1  0
 42 92  1  0
 42 93  1  0
 43 94  1  0
 43 95  1  0
 45 96  1  0
 49 97  1  0
 54 98  1  0
 54 99  1  0
 55100  1  0
 55101  1  0
 56102  1  6
 57103  1  0
 58104  1  0
 58105  1  0
 58106  1  0
 59107  1  0
 59108  1  0
M  CHG  2   3   1  31  -1
M  END
>  <UniqueID>  (24) 
23

>  <SMILES>  (24) 
CC[N@@H+](C)C(=O)O[C@H]1CC1n1cc(C(=O)OC=CCOC(=O)Cc2ccc3cc(C([NH-])=O)n(C(=O)OCC4=CC=CCC4)c3c2)c(=O)c2cc(F)c(N3CC[C@@H](NC)C3)c(F)c21

>  <Energy>  (24) 
446.026660307908

>  <Genealogy>  (24) 
CC[NH+](C)C(=O)OC1CC1n1cc(C(=O)OC=CCOC(=O)Cc2ccc3cc(C([NH-])=O)n(C(=O)OCC4=CC=CCC4)c3c2)c(=O)c2cc(F)c(N3CC[C@@H](NC)C3)c(F)c21 (protonated)
CC[N@@H+](C)C(=O)O[C@H]1CC1n1cc(C(=O)OC=CCOC(=O)Cc2ccc3cc(C([NH-])=O)n(C(=O)OCC4=CC=CCC4)c3c2)c(=O)c2cc(F)c(N3CC[C@@H](NC)C3)c(F)c21 (chirality)
CC[N@@H+](C)C(=O)O[C@H]1CC1n1cc(C(=O)OC=CCOC(=O)Cc2ccc3cc(C([NH-])=O)n(C(=O)OCC4=CC=CCC4)c3c2)c(=O)c2cc(F)c(N3CC[C@@H](NC)C3)c(F)c21 (3D coordinates assigned)
CC[N@@H+](C)C(=O)O[C@H]1CC1n1cc(C(=O)OC=CCOC(=O)Cc2ccc3cc(C([NH-])=O)n(C(=O)OCC4=CC=CCC4)c3c2)c(=O)c2cc(F)c(N3CC[C@@H](NC)C3)c(F)c21 (nonaromatic ring conformer: 446.026660307908 kcal/mol)

>  <smiles>  (24) 
CCN(C)C(=O)OC1CC1n1cc(C(=O)OC=CCOC(=O)Cc2ccc3cc(C(N)=O)n(C(=O)OCC4=CC=CCC4)c3c2)c(=O)c2cc(F)c(N3CC[C@@H](NC)C3)c(F)c21

>  <score_type>  (24) 
oracle

>  <origin>  (24) 
adg

>  <m_score__min__energy>  (24) 
-13.24

>  <m_primary>  (24) 
energy

$$$$
24:0
     RDKit          3D

 60 63  0  0  0  0  0  0  0  0999 V2000
    1.0350   18.7670  -31.0090 C   0  0  0  0  0  0  0  0  0  0  0  0
    0.5890   19.8690  -31.9110 C   0  0  0  0  0  0  0  0  0  0  0  0
    1.2760   20.3250  -32.9310 O   0  0  0  0  0  0  0  0  0  0  0  0
    0.5370   21.2680  -33.4680 C   0  0  0  0  0  0  0  0  0  0  0  0
    0.8790   21.9290  -34.4810 O   0  0  0  0  0  0  0  0  0  0  0  0
   -0.6020   21.4400  -32.8370 O   0  0  0  0  0  0  0  0  0  0  0  0
   -0.5990   20.5740  -31.8520 C   0  0  0  0  0  0  0  0  0  0  0  0
   -1.7220   20.3860  -30.8790 C   0  0  0  0  0  0  0  0  0  0  0  0
   -2.9300   20.9270  -31.4060 O   0  0  0  0  0  0  0  0  0  0  0  0
   -3.3260   20.7660  -32.7350 C   0  0  0  0  0  0  0  0  0  0  0  0
   -3.3050   21.7470  -33.5280 O   0  0  0  0  0  0  0  0  0  0  0  0
   -3.7370   19.4760  -33.2080 N   0  0  0  0  0  0  0  0  0  0  0  0
   -3.0730   18.6640  -34.0770 C   0  0  0  0  0  0  0  0  0  0  0  0
   -1.7040   18.8820  -34.5810 C   0  0  0  0  0  0  0  0  0  0  0  0
   -1.2500   20.1850  -34.9460 N   0  0  0  0  0  0  0  0  0  0  0  0
   -0.9060   17.9110  -34.6460 O   0  0  0  0  0  0  0  0  0  0  0  0
   -3.8450   17.5530  -34.4020 C   0  0  0  0  0  0  0  0  0  0  0  0
   -5.0100   17.6990  -33.6830 C   0  0  0  0  0  0  0  0  0  0  0  0
   -6.1450   16.8940  -33.6490 C   0  0  0  0  0  0  0  0  0  0  0  0
   -7.2260   17.3140  -32.8570 C   0  0  0  0  0  0  0  0  0  0  0  0
   -7.1540   18.5240  -32.1210 C   0  0  0  0  0  0  0  0  0  0  0  0
   -8.3400   18.9890  -31.3210 C   0  0  0  0  0  0  0  0  0  0  0  0
   -8.8220   20.3220  -31.8070 C   0  0  0  0  0  0  0  0  0  0  0  0
   -9.0780   20.4930  -33.0310 O   0  0  0  0  0  0  0  0  0  0  0  0
   -9.0380   21.3490  -30.8830 O   0  0  0  0  0  0  0  0  0  0  0  0
   -8.0930   22.3840  -30.6270 C   0  0  0  0  0  0  0  0  0  0  0  0
   -7.1490   22.5490  -31.8240 C   0  0  0  0  0  0  0  0  0  0  0  0
   -6.0900   23.5350  -31.5250 N   0  0  0  0  0  0  0  0  0  0  0  0
   -4.9340   22.8720  -30.8800 C   0  0  0  0  0  0  0  0  0  0  0  0
   -3.9360   23.9090  -30.3270 C   0  0  0  0  0  0  0  0  0  0  0  0
   -4.2050   25.1950  -30.8440 O   0  0  0  0  0  0  0  0  0  0  0  0
   -5.4670   25.6400  -30.3770 C   0  0  0  0  0  0  0  0  0  0  0  0
   -6.5890   24.6170  -30.6550 C   0  0  0  0  0  0  0  0  0  0  0  0
   -5.9890   19.3220  -32.1880 C   0  0  0  0  0  0  0  0  0  0  0  0
   -4.9200   18.8690  -32.9710 C   0  0  0  0  0  0  0  0  0  0  0  0
    0.9094   19.0773  -29.9612 H   0  0  0  0  0  0  0  0  0  0  0  0
    0.4296   17.8687  -31.2005 H   0  0  0  0  0  0  0  0  0  0  0  0
    2.0947   18.5426  -31.2005 H   0  0  0  0  0  0  0  0  0  0  0  0
   -1.8593   19.3117  -30.6868 H   0  0  0  0  0  0  0  0  0  0  0  0
   -1.4750   20.9083  -29.9430 H   0  0  0  0  0  0  0  0  0  0  0  0
   -1.8250   21.0330  -34.7490 H   0  0  0  0  0  0  0  0  0  0  0  0
   -0.3080   20.3090  -35.3770 H   0  0  0  0  0  0  0  0  0  0  0  0
   -3.5811   16.7336  -35.0867 H   0  0  0  0  0  0  0  0  0  0  0  0
   -6.1937   15.9579  -34.2246 H   0  0  0  0  0  0  0  0  0  0  0  0
   -8.1366   16.6990  -32.8071 H   0  0  0  0  0  0  0  0  0  0  0  0
   -9.1523   18.2540  -31.4204 H   0  0  0  0  0  0  0  0  0  0  0  0
   -8.0377   19.0867  -30.2679 H   0  0  0  0  0  0  0  0  0  0  0  0
   -8.6280   23.3293  -30.4535 H   0  0  0  0  0  0  0  0  0  0  0  0
   -7.5018   22.1177  -29.7384 H   0  0  0  0  0  0  0  0  0  0  0  0
   -6.6841   21.5787  -32.0531 H   0  0  0  0  0  0  0  0  0  0  0  0
   -7.7314   22.9074  -32.6856 H   0  0  0  0  0  0  0  0  0  0  0  0
   -5.2958   22.2447  -30.0520 H   0  0  0  0  0  0  0  0  0  0  0  0
   -4.4183   22.2586  -31.6335 H   0  0  0  0  0  0  0  0  0  0  0  0
   -4.0176   23.9377  -29.2304 H   0  0  0  0  0  0  0  0  0  0  0  0
   -2.9204   23.6146  -30.6300 H   0  0  0  0  0  0  0  0  0  0  0  0
   -5.4031   25.8087  -29.2919 H   0  0  0  0  0  0  0  0  0  0  0  0
   -5.7165   26.5671  -30.9139 H   0  0  0  0  0  0  0  0  0  0  0  0
   -6.9329   24.1875  -29.7025 H   0  0  0  0  0  0  0  0  0  0  0  0
   -7.4221   25.1275  -31.1603 H   0  0  0  0  0  0  0  0  0  0  0  0
   -5.9239   20.2734  -31.6397 H   0  0  0  0  0  0  0  0  0  0  0  0
  1  2  1  0
  2  3  1  0
  3  4  1  0
  4  5  2  0
  4  6  1  0
  6  7  1  0
  7  8  1  0
  8  9  1  0
  9 10  1  0
 10 11  2  0
 10 12  1  0
 12 13  1  0
 13 14  1  0
 14 15  1  0
 14 16  2  0
 13 17  2  0
 17 18  1  0
 18 19  2  0
 19 20  1  0
 20 21  2  0
 21 22  1  0
 22 23  1  0
 23 24  2  0
 23 25  1  0
 25 26  1  0
 26 27  1  0
 27 28  1  0
 28 29  1  0
 29 30  1  0
 30 31  1  0
 31 32  1  0
 32 33  1  0
 21 34  1  0
 34 35  2  0
  7  2  2  0
 35 12  1  0
 35 18  1  0
 33 28  1  0
  1 36  1  0
  1 37  1  0
  1 38  1  0
  8 39  1  0
  8 40  1  0
 15 41  1  0
 15 42  1  0
 17 43  1  0
 19 44  1  0
 20 45  1  0
 22 46  1  0
 22 47  1  0
 26 48  1  0
 26 49  1  0
 27 50  1  0
 27 51  1  0
 29 52  1  0
 29 53  1  0
 30 54  1  0
 30 55  1  0
 32 56  1  0
 32 57  1  0
 33 58  1  0
 33 59  1  0
 34 60  1  0
M  END
>  <UniqueID>  (25) 
24

>  <SMILES>  (25) 
Cc1oc(=O)oc1COC(=O)n1c(C(N)=O)cc2ccc(CC(=O)OCCN3CCOCC3)cc21

>  <Energy>  (25) 
136.40673238382914

>  <Genealogy>  (25) 
Cc1oc(=O)oc1COC(=O)n1c(C(N)=O)cc2ccc(CC(=O)OCCN3CCOCC3)cc21 (3D coordinates assigned)
Cc1oc(=O)oc1COC(=O)n1c(C(N)=O)cc2ccc(CC(=O)OCCN3CCOCC3)cc21 (nonaromatic ring conformer: 136.40673238382914 kcal/mol)

>  <smiles>  (25) 
Cc1oc(=O)oc1COC(=O)n1c(C(N)=O)cc2ccc(CC(=O)OCCN3CCOCC3)cc21

>  <score_type>  (25) 
oracle

>  <origin>  (25) 
adg

>  <m_score__min__energy>  (25) 
-9.5299999999999994

>  <m_primary>  (25) 
energy

$$$$
25:0
     RDKit          3D

 34 36  0  0  0  0  0  0  0  0999 V2000
   -3.2540   21.8030  -30.5200 C   0  0  0  0  0  0  0  0  0  0  0  0
   -4.0680   22.9810  -30.9510 C   0  0  0  0  0  0  0  0  0  0  0  0
   -3.4900   24.0770  -31.1750 O   0  0  0  0  0  0  0  0  0  0  0  0
   -5.4950   22.8850  -31.0940 N   0  0  0  0  0  0  0  0  0  0  0  0
   -6.4120   23.8640  -30.8490 C   0  0  0  0  0  0  0  0  0  0  0  0
   -6.1270   25.1820  -30.2460 C   0  0  0  0  0  0  0  0  0  0  0  0
   -5.0870   26.0210  -30.7510 N   0  0  0  0  0  0  0  0  0  0  0  0
   -6.7830   25.5530  -29.2370 O   0  0  0  0  0  0  0  0  0  0  0  0
   -7.6850   23.4520  -31.2320 C   0  0  0  0  0  0  0  0  0  0  0  0
   -7.5230   22.1750  -31.7180 C   0  0  0  0  0  0  0  0  0  0  0  0
   -8.4590   21.2990  -32.2570 C   0  0  0  0  0  0  0  0  0  0  0  0
   -8.0050   20.0580  -32.7310 C   0  0  0  0  0  0  0  0  0  0  0  0
   -6.6270   19.7180  -32.6740 C   0  0  0  0  0  0  0  0  0  0  0  0
   -6.1570   18.4090  -33.1960 C   0  0  0  0  0  0  0  0  0  0  0  0
   -6.1420   17.2680  -32.3740 C   0  0  0  0  0  0  0  0  0  0  0  0
   -5.6980   16.0450  -32.8790 C   0  0  0  0  0  0  0  0  0  0  0  0
   -5.2700   15.9660  -34.2050 C   0  0  0  0  0  0  0  0  0  0  0  0
   -5.2890   17.0740  -34.9920 N   0  0  0  0  0  0  0  0  0  0  0  0
   -5.7160   18.2780  -34.5240 C   0  0  0  0  0  0  0  0  0  0  0  0
   -5.7060   20.6400  -32.1210 C   0  0  0  0  0  0  0  0  0  0  0  0
   -6.1910   21.8580  -31.6310 C   0  0  0  0  0  0  0  0  0  0  0  0
   -3.2243   21.7601  -29.4212 H   0  0  0  0  0  0  0  0  0  0  0  0
   -3.7083   20.8806  -30.9109 H   0  0  0  0  0  0  0  0  0  0  0  0
   -2.2305   21.9018  -30.9109 H   0  0  0  0  0  0  0  0  0  0  0  0
   -4.9380   26.9700  -30.3430 H   0  0  0  0  0  0  0  0  0  0  0  0
   -4.4020   25.6710  -31.4560 H   0  0  0  0  0  0  0  0  0  0  0  0
   -8.6212   24.0252  -31.1612 H   0  0  0  0  0  0  0  0  0  0  0  0
   -9.5236   21.5705  -32.3104 H   0  0  0  0  0  0  0  0  0  0  0  0
   -8.7249   19.3404  -33.1515 H   0  0  0  0  0  0  0  0  0  0  0  0
   -6.4812   17.3397  -31.3301 H   0  0  0  0  0  0  0  0  0  0  0  0
   -5.6855   15.1514  -32.2377 H   0  0  0  0  0  0  0  0  0  0  0  0
   -4.9174   15.0073  -34.6131 H   0  0  0  0  0  0  0  0  0  0  0  0
   -5.7161   19.1542  -35.1890 H   0  0  0  0  0  0  0  0  0  0  0  0
   -4.6324   20.4042  -32.0774 H   0  0  0  0  0  0  0  0  0  0  0  0
  1  2  1  0
  2  3  2  0
  2  4  1  0
  4  5  1  0
  5  6  1  0
  6  7  1  0
  6  8  2  0
  5  9  2  0
  9 10  1  0
 10 11  2  0
 11 12  1  0
 12 13  2  0
 13 14  1  0
 14 15  2  0
 15 16  1  0
 16 17  2  0
 17 18  1  0
 18 19  2  0
 13 20  1  0
 20 21  2  0
 21  4  1  0
 21 10  1  0
 19 14  1  0
  1 22  1  0
  1 23  1  0
  1 24  1  0
  7 25  1  0
  7 26  1  0
  9 27  1  0
 11 28  1  0
 12 29  1  0
 15 30  1  0
 16 31  1  0
 17 32  1  0
 19 33  1  0
 20 34  1  0
M  END
>  <UniqueID>  (26) 
25

>  <SMILES>  (26) 
CC(=O)n1c(C(N)=O)cc2ccc(-c3cccnc3)cc21

>  <Energy>  (26) 
81.978723618151

>  <Genealogy>  (26) 
CC(=O)n1c(C(N)=O)cc2ccc(-c3cccnc3)cc21 (3D coordinates assigned)
CC(=O)n1c(C(N)=O)cc2ccc(-c3cccnc3)cc21 (optimized conformer: 81.978723618151 kcal/mol)

>  <smiles>  (26) 
CC(=O)n1c(C(N)=O)cc2ccc(-c3cccnc3)cc21

>  <score_type>  (26) 
oracle

>  <origin>  (26) 
adg

>  <m_score__min__energy>  (26) 
-9.3100000000000005

>  <m_primary>  (26) 
energy

$$$$
26:0
     RDKit          3D

 48 50  0  0  0  0  0  0  0  0999 V2000
   -2.8430   19.3220  -26.5990 C   0  0  0  0  0  0  0  0  0  0  0  0
   -1.6510   19.0590  -27.4600 C   0  0  0  0  0  0  0  0  0  0  0  0
   -0.6830   18.2350  -27.1460 O   0  0  0  0  0  0  0  0  0  0  0  0
    0.1730   18.2950  -28.1390 C   0  0  0  0  0  0  0  0  0  0  0  0
    1.2370   17.6280  -28.1850 O   0  0  0  0  0  0  0  0  0  0  0  0
   -0.1980   19.1300  -29.0770 O   0  0  0  0  0  0  0  0  0  0  0  0
   -1.3410   19.6320  -28.6790 C   0  0  0  0  0  0  0  0  0  0  0  0
   -2.1210   20.6530  -29.4440 C   0  0  0  0  0  0  0  0  0  0  0  0
   -1.6270   20.7920  -30.7740 O   0  0  0  0  0  0  0  0  0  0  0  0
   -2.3340   21.4160  -31.8090 C   0  0  0  0  0  0  0  0  0  0  0  0
   -1.7520   21.6600  -32.8950 O   0  0  0  0  0  0  0  0  0  0  0  0
   -3.7290   21.7490  -31.6420 N   0  0  0  0  0  0  0  0  0  0  0  0
   -4.2440   22.8310  -30.9870 C   0  0  0  0  0  0  0  0  0  0  0  0
   -3.4750   23.9730  -30.4620 C   0  0  0  0  0  0  0  0  0  0  0  0
   -3.8530   25.3090  -30.7810 N   0  0  0  0  0  0  0  0  0  0  0  0
   -2.5080   23.7690  -29.6830 O   0  0  0  0  0  0  0  0  0  0  0  0
   -5.6310   22.7460  -30.8910 C   0  0  0  0  0  0  0  0  0  0  0  0
   -5.9670   21.5820  -31.5360 C   0  0  0  0  0  0  0  0  0  0  0  0
   -7.2190   21.0160  -31.7490 C   0  0  0  0  0  0  0  0  0  0  0  0
   -7.2820   19.7940  -32.4360 C   0  0  0  0  0  0  0  0  0  0  0  0
   -6.1020   19.1610  -32.8920 C   0  0  0  0  0  0  0  0  0  0  0  0
   -6.1890   17.8400  -33.6070 C   0  0  0  0  0  0  0  0  0  0  0  0
   -4.9360   17.5740  -34.3790 C   0  0  0  0  0  0  0  0  0  0  0  0
   -4.9350   17.6800  -35.6330 O   0  0  0  0  0  0  0  0  0  0  0  0
   -3.7810   17.2060  -33.6900 O   0  0  0  0  0  0  0  0  0  0  0  0
   -2.6230   17.9880  -33.5880 C   0  0  0  0  0  0  0  0  0  0  0  0
   -2.4790   19.0350  -34.2710 O   0  0  0  0  0  0  0  0  0  0  0  0
   -1.5590   17.5940  -32.6120 C   0  0  0  0  0  0  0  0  0  0  0  0
   -0.8180   18.7620  -32.1450 N   0  0  0  0  0  0  0  0  0  0  0  0
   -4.8430   19.7590  -32.6490 C   0  0  0  0  0  0  0  0  0  0  0  0
   -4.8050   20.9910  -31.9780 C   0  0  0  0  0  0  0  0  0  0  0  0
   -2.5519   19.2578  -25.5402 H   0  0  0  0  0  0  0  0  0  0  0  0
   -3.2339   20.3280  -26.8114 H   0  0  0  0  0  0  0  0  0  0  0  0
   -3.6210   18.5739  -26.8114 H   0  0  0  0  0  0  0  0  0  0  0  0
   -3.1755   20.3424  -29.4840 H   0  0  0  0  0  0  0  0  0  0  0  0
   -2.0200   21.6218  -28.9329 H   0  0  0  0  0  0  0  0  0  0  0  0
   -3.8710   26.0480  -30.0470 H   0  0  0  0  0  0  0  0  0  0  0  0
   -6.3114   23.4592  -30.4027 H   0  0  0  0  0  0  0  0  0  0  0  0
   -8.1330   21.5114  -31.3896 H   0  0  0  0  0  0  0  0  0  0  0  0
   -8.2588   19.3236  -32.6218 H   0  0  0  0  0  0  0  0  0  0  0  0
   -6.3351   17.0383  -32.8681 H   0  0  0  0  0  0  0  0  0  0  0  0
   -7.0364   17.8719  -34.3077 H   0  0  0  0  0  0  0  0  0  0  0  0
   -2.0280   17.0973  -31.7498 H   0  0  0  0  0  0  0  0  0  0  0  0
   -0.8574   16.9124  -33.1151 H   0  0  0  0  0  0  0  0  0  0  0  0
   -0.8890   18.8370  -31.1030 H   0  0  0  0  0  0  0  0  0  0  0  0
   -1.2230   19.6270  -32.5760 H   0  0  0  0  0  0  0  0  0  0  0  0
    0.1870   18.6890  -32.4270 H   0  0  0  0  0  0  0  0  0  0  0  0
   -3.9148   19.2693  -32.9786 H   0  0  0  0  0  0  0  0  0  0  0  0
  1  2  1  0
  2  3  1  0
  3  4  1  0
  4  5  2  0
  4  6  1  0
  6  7  1  0
  7  8  1  0
  8  9  1  0
  9 10  1  0
 10 11  2  0
 10 12  1  0
 12 13  1  0
 13 14  1  0
 14 15  1  0
 14 16  2  0
 13 17  2  0
 17 18  1  0
 18 19  2  0
 19 20  1  0
 20 21  2  0
 21 22  1  0
 22 23  1  0
 23 24  2  0
 23 25  1  0
 25 26  1  0
 26 27  2  0
 26 28  1  0
 28 29  1  0
 21 30  1  0
 30 31  2  0
  7  2  2  0
 31 12  1  0
 31 18  1  0
  1 32  1  0
  1 33  1  0
  1 34  1  0
  8 35  1  0
  8 36  1  0
 15 37  1  0
 17 38  1  0
 19 39  1  0
 20 40  1  0
 22 41  1  0
 22 42  1  0
 28 43  1  0
 28 44  1  0
 29 45  1  0
 29 46  1  0
 29 47  1  0
 30 48  1  0
M  CHG  2  15  -1  29   1
M  END
>  <UniqueID>  (27) 
26

>  <SMILES>  (27) 
Cc1oc(=O)oc1COC(=O)n1c(C([NH-])=O)cc2ccc(CC(=O)OC(=O)C[NH3+])cc21

>  <Energy>  (27) 
117.9244839793622

>  <Genealogy>  (27) 
Cc1oc(=O)oc1COC(=O)n1c(C([NH-])=O)cc2ccc(CC(=O)OC(=O)C[NH3+])cc21 (protonated)
Cc1oc(=O)oc1COC(=O)n1c(C([NH-])=O)cc2ccc(CC(=O)OC(=O)C[NH3+])cc21 (3D coordinates assigned)
Cc1oc(=O)oc1COC(=O)n1c(C([NH-])=O)cc2ccc(CC(=O)OC(=O)C[NH3+])cc21 (optimized conformer: 117.9244839793622 kcal/mol)

>  <smiles>  (27) 
Cc1oc(=O)oc1COC(=O)n1c(C(N)=O)cc2ccc(CC(=O)OC(=O)CN)cc21

>  <score_type>  (27) 
oracle

>  <origin>  (27) 
adg

>  <m_score__min__energy>  (27) 
-9.7200000000000006

>  <m_primary>  (27) 
energy

$$$$
27:0
     RDKit          3D

 36 38  0  0  0  0  0  0  0  0999 V2000
   -5.3780   25.5920  -30.7530 C   0  0  0  0  0  0  0  0  0  0  0  0
   -4.0750   25.0320  -30.6500 O   0  0  0  0  0  0  0  0  0  0  0  0
   -3.8010   23.8960  -29.8820 C   0  0  0  0  0  0  0  0  0  0  0  0
   -4.5820   23.5530  -28.9530 O   0  0  0  0  0  0  0  0  0  0  0  0
   -2.6370   23.1050  -30.1710 N   0  0  0  0  0  0  0  0  0  0  0  0
   -1.3580   23.3090  -29.7450 C   0  0  0  0  0  0  0  0  0  0  0  0
   -0.8630   24.4960  -29.0160 C   0  0  0  0  0  0  0  0  0  0  0  0
   -1.6240   25.6990  -28.9700 N   0  0  0  0  0  0  0  0  0  0  0  0
    0.2700   24.4610  -28.4660 O   0  0  0  0  0  0  0  0  0  0  0  0
   -0.5320   22.2690  -30.1650 C   0  0  0  0  0  0  0  0  0  0  0  0
   -1.3490   21.4180  -30.8750 C   0  0  0  0  0  0  0  0  0  0  0  0
   -1.0540   20.2170  -31.5090 C   0  0  0  0  0  0  0  0  0  0  0  0
   -2.1010   19.5310  -32.1440 C   0  0  0  0  0  0  0  0  0  0  0  0
   -3.4240   20.0510  -32.1310 C   0  0  0  0  0  0  0  0  0  0  0  0
   -4.5160   19.3620  -32.7700 N   0  0  0  0  0  0  0  0  0  0  0  0
   -5.5760   20.0220  -33.5310 C   0  0  0  0  0  0  0  0  0  0  0  0
   -6.8860   19.9220  -32.8060 C   0  0  0  0  0  0  0  0  0  0  0  0
   -7.8280   18.5320  -32.7010 S   0  0  0  0  0  0  0  0  0  0  0  0
   -9.0600   19.2920  -31.8460 C   0  0  0  0  0  0  0  0  0  0  0  0
   -8.7790   20.5980  -31.6460 N   0  0  0  0  0  0  0  0  0  0  0  0
   -7.5810   20.9550  -32.1810 C   0  0  0  0  0  0  0  0  0  0  0  0
   -6.9960   22.6060  -32.0740 Cl  0  0  0  0  0  0  0  0  0  0  0  0
   -3.6810   21.2740  -31.4710 C   0  0  0  0  0  0  0  0  0  0  0  0
   -2.6140   21.9440  -30.8640 C   0  0  0  0  0  0  0  0  0  0  0  0
   -5.7830   25.7661  -29.7452 H   0  0  0  0  0  0  0  0  0  0  0  0
   -5.3248   26.5467  -31.2967 H   0  0  0  0  0  0  0  0  0  0  0  0
   -6.0341   24.8964  -31.2967 H   0  0  0  0  0  0  0  0  0  0  0  0
   -2.6530   25.6910  -29.1510 H   0  0  0  0  0  0  0  0  0  0  0  0
    0.5444   22.1524  -29.9707 H   0  0  0  0  0  0  0  0  0  0  0  0
   -0.0298   19.8157  -31.5130 H   0  0  0  0  0  0  0  0  0  0  0  0
   -1.8955   18.5802  -32.6576 H   0  0  0  0  0  0  0  0  0  0  0  0
   -4.5750   18.3220  -32.6740 H   0  0  0  0  0  0  0  0  0  0  0  0
   -5.3175   21.0826  -33.6662 H   0  0  0  0  0  0  0  0  0  0  0  0
   -5.6724   19.5267  -34.5084 H   0  0  0  0  0  0  0  0  0  0  0  0
   -9.9747   18.7915  -31.4955 H   0  0  0  0  0  0  0  0  0  0  0  0
   -4.6987   21.6901  -31.4355 H   0  0  0  0  0  0  0  0  0  0  0  0
  1  2  1  0
  2  3  1  0
  3  4  2  0
  3  5  1  0
  5  6  1  0
  6  7  1  0
  7  8  1  0
  7  9  2  0
  6 10  2  0
 10 11  1  0
 11 12  2  0
 12 13  1  0
 13 14  2  0
 14 15  1  0
 15 16  1  0
 16 17  1  0
 17 18  1  0
 18 19  1  0
 19 20  2  0
 20 21  1  0
 21 22  1  0
 14 23  1  0
 23 24  2  0
 24  5  1  0
 24 11  1  0
 21 17  2  0
  1 25  1  0
  1 26  1  0
  1 27  1  0
  8 28  1  0
 10 29  1  0
 12 30  1  0
 13 31  1  0
 15 32  1  0
 16 33  1  0
 16 34  1  0
 19 35  1  0
 23 36  1  0
M  CHG  1   8  -1
M  END
>  <UniqueID>  (28) 
27

>  <SMILES>  (28) 
COC(=O)n1c(C([NH-])=O)cc2ccc(NCc3scnc3Cl)cc21

>  <Energy>  (28) 
104.26536507502706

>  <Genealogy>  (28) 
COC(=O)n1c(C([NH-])=O)cc2ccc(NCc3scnc3Cl)cc21 (protonated)
COC(=O)n1c(C([NH-])=O)cc2ccc(NCc3scnc3Cl)cc21 (3D coordinates assigned)
COC(=O)n1c(C([NH-])=O)cc2ccc(NCc3scnc3Cl)cc21 (optimized conformer: 104.26536507502706 kcal/mol)

>  <smiles>  (28) 
COC(=O)n1c(C(N)=O)cc2ccc(NCc3scnc3Cl)cc21

>  <score_type>  (28) 
oracle

>  <origin>  (28) 
adg

>  <m_score__min__energy>  (28) 
-10.91

>  <m_primary>  (28) 
energy

$$$$
28:0
     RDKit          3D

 27 28  0  0  0  0  0  0  0  0999 V2000
   -1.6110   25.8080  -28.9050 N   0  0  0  0  0  0  0  0  0  0  0  0
   -0.9520   24.5550  -29.0750 C   0  0  0  0  0  0  0  0  0  0  0  0
    0.2030   24.3950  -28.5970 O   0  0  0  0  0  0  0  0  0  0  0  0
   -1.6460   23.4470  -29.7650 C   0  0  0  0  0  0  0  0  0  0  0  0
   -1.0290   22.2410  -30.0900 C   0  0  0  0  0  0  0  0  0  0  0  0
   -1.9720   21.5270  -30.7930 C   0  0  0  0  0  0  0  0  0  0  0  0
   -1.9010   20.2500  -31.3390 C   0  0  0  0  0  0  0  0  0  0  0  0
   -3.0420   19.7440  -31.9830 C   0  0  0  0  0  0  0  0  0  0  0  0
   -4.2270   20.5200  -32.0770 C   0  0  0  0  0  0  0  0  0  0  0  0
   -5.4660   19.9430  -32.7190 C   0  0  0  0  0  0  0  0  0  0  0  0
   -6.3170   19.4300  -31.7550 F   0  0  0  0  0  0  0  0  0  0  0  0
   -6.1500   20.9210  -33.4180 F   0  0  0  0  0  0  0  0  0  0  0  0
   -5.0050   18.6100  -33.8700 P   0  0  0  0  0  0  0  0  0  0  0  0
   -6.0600   18.4730  -34.9440 O   0  0  0  0  0  0  0  0  0  0  0  0
   -4.8690   17.1500  -33.0250 O   0  0  0  0  0  0  0  0  0  0  0  0
   -3.5200   18.9780  -34.5890 O   0  0  0  0  0  0  0  0  0  0  0  0
   -4.2640   21.8080  -31.4910 C   0  0  0  0  0  0  0  0  0  0  0  0
   -3.1060   22.2920  -30.8700 C   0  0  0  0  0  0  0  0  0  0  0  0
   -2.9230   23.4750  -30.2400 N   0  0  0  0  0  0  0  0  0  0  0  0
   -3.9090   24.5030  -30.0520 C   0  0  0  0  0  0  0  0  0  0  0  0
   -4.8030   24.3760  -29.1750 O   0  0  0  0  0  0  0  0  0  0  0  0
   -3.8690   25.6630  -30.8180 O   0  0  0  0  0  0  0  0  0  0  0  0
   -2.6510   25.8800  -28.9680 H   0  0  0  0  0  0  0  0  0  0  0  0
   -0.0055   21.9264  -29.8381 H   0  0  0  0  0  0  0  0  0  0  0  0
   -0.9790   19.6542  -31.2686 H   0  0  0  0  0  0  0  0  0  0  0  0
   -3.0171   18.7347  -32.4196 H   0  0  0  0  0  0  0  0  0  0  0  0
   -5.1811   22.4146  -31.5227 H   0  0  0  0  0  0  0  0  0  0  0  0
  1  2  1  0
  2  3  2  0
  2  4  1  0
  4  5  2  0
  5  6  1  0
  6  7  2  0
  7  8  1  0
  8  9  2  0
  9 10  1  0
 10 11  1  0
 10 12  1  0
 10 13  1  0
 13 14  2  0
 13 15  1  0
 13 16  1  0
  9 17  1  0
 17 18  2  0
 18 19  1  0
 19 20  1  0
 20 21  2  0
 20 22  1  0
 19  4  1  0
 18  6  1  0
  1 23  1  0
  5 24  1  0
  7 25  1  0
  8 26  1  0
 17 27  1  0
M  CHG  4   1  -1  15  -1  16  -1  22  -1
M  END
>  <UniqueID>  (29) 
28

>  <SMILES>  (29) 
[NH-]C(=O)c1cc2ccc(C(F)(F)P(=O)([O-])[O-])cc2n1C(=O)[O-]

>  <Energy>  (29) 
63.553581434674776

>  <Genealogy>  (29) 
[NH-]C(=O)c1cc2ccc(C(F)(F)P(=O)([O-])[O-])cc2n1C(=O)[O-] (protonated)
[NH-]C(=O)c1cc2ccc(C(F)(F)P(=O)([O-])[O-])cc2n1C(=O)[O-] (3D coordinates assigned)
[NH-]C(=O)c1cc2ccc(C(F)(F)P(=O)([O-])[O-])cc2n1C(=O)[O-] (optimized conformer: 63.553581434674776 kcal/mol)

>  <smiles>  (29) 
NC(=O)c1cc2ccc(C(F)(F)P(=O)(O)O)cc2n1C(=O)O

>  <score_type>  (29) 
oracle

>  <origin>  (29) 
adg

>  <m_score__min__energy>  (29) 
-10.25

>  <m_primary>  (29) 
energy

$$$$
29:0
     RDKit          3D

 30 32  0  0  0  0  0  0  0  0999 V2000
   -2.3410   19.4230  -33.9630 N   0  0  0  0  0  0  0  0  0  0  0  0
   -3.4820   19.3110  -33.8100 C   0  0  0  0  0  0  0  0  0  0  0  0
   -4.9300   19.1700  -33.6160 C   0  0  0  0  0  0  0  0  0  0  0  0
   -5.6740   20.2760  -32.9180 C   0  0  0  0  0  0  0  0  0  0  0  0
   -7.0900   20.2760  -32.9000 C   0  0  0  0  0  0  0  0  0  0  0  0
   -7.7960   21.3140  -32.2720 C   0  0  0  0  0  0  0  0  0  0  0  0
   -7.0620   22.3450  -31.6910 C   0  0  0  0  0  0  0  0  0  0  0  0
   -7.4910   23.4520  -30.9970 C   0  0  0  0  0  0  0  0  0  0  0  0
   -6.3320   24.1350  -30.6420 C   0  0  0  0  0  0  0  0  0  0  0  0
   -6.3390   25.4300  -29.9330 C   0  0  0  0  0  0  0  0  0  0  0  0
   -5.5070   26.5110  -30.3590 N   0  0  0  0  0  0  0  0  0  0  0  0
   -7.1330   25.6040  -28.9720 O   0  0  0  0  0  0  0  0  0  0  0  0
   -5.2250   23.4740  -31.0860 N   0  0  0  0  0  0  0  0  0  0  0  0
   -3.8510   23.7960  -30.8140 C   0  0  0  0  0  0  0  0  0  0  0  0
   -2.9610   22.9070  -30.8740 O   0  0  0  0  0  0  0  0  0  0  0  0
   -3.4900   25.0950  -30.4770 O   0  0  0  0  0  0  0  0  0  0  0  0
   -5.6900   22.3780  -31.7310 C   0  0  0  0  0  0  0  0  0  0  0  0
   -4.9620   21.3460  -32.3340 C   0  0  0  0  0  0  0  0  0  0  0  0
   -5.4290   17.7500  -33.3760 C   0  0  0  0  0  0  0  0  0  0  0  0
   -5.6760   18.4280  -34.7170 C   0  0  0  0  0  0  0  0  0  0  0  0
   -7.6414   19.4555  -33.3823 H   0  0  0  0  0  0  0  0  0  0  0  0
   -8.8955   21.3131  -32.2398 H   0  0  0  0  0  0  0  0  0  0  0  0
   -8.5291   23.7368  -30.7708 H   0  0  0  0  0  0  0  0  0  0  0  0
   -4.9630   26.4540  -31.2470 H   0  0  0  0  0  0  0  0  0  0  0  0
   -5.4990   27.4070  -29.8240 H   0  0  0  0  0  0  0  0  0  0  0  0
   -3.8624   21.3681  -32.3524 H   0  0  0  0  0  0  0  0  0  0  0  0
   -4.7112   16.9196  -33.3034 H   0  0  0  0  0  0  0  0  0  0  0  0
   -6.0650   17.2662  -32.6200 H   0  0  0  0  0  0  0  0  0  0  0  0
   -5.1368   18.0870  -35.6131 H   0  0  0  0  0  0  0  0  0  0  0  0
   -6.5647   18.6365  -35.3308 H   0  0  0  0  0  0  0  0  0  0  0  0
  1  2  3  0
  2  3  1  0
  3  4  1  0
  4  5  2  0
  5  6  1  0
  6  7  2  0
  7  8  1  0
  8  9  2  0
  9 10  1  0
 10 11  1  0
 10 12  2  0
  9 13  1  0
 13 14  1  0
 14 15  2  0
 14 16  1  0
 13 17  1  0
 17 18  2  0
  3 19  1  0
 19 20  1  0
 20  3  1  0
 18  4  1  0
 17  7  1  0
  5 21  1  0
  6 22  1  0
  8 23  1  0
 11 24  1  0
 11 25  1  0
 18 26  1  0
 19 27  1  0
 19 28  1  0
 20 29  1  0
 20 30  1  0
M  CHG  1  16  -1
M  END
>  <UniqueID>  (30) 
29

>  <SMILES>  (30) 
N#CC1(c2ccc3cc(C(N)=O)n(C(=O)[O-])c3c2)CC1

>  <Energy>  (30) 
337.13066370530186

>  <Genealogy>  (30) 
N#CC1(c2ccc3cc(C(N)=O)n(C(=O)[O-])c3c2)CC1 (protonated)
N#CC1(c2ccc3cc(C(N)=O)n(C(=O)[O-])c3c2)CC1 (3D coordinates assigned)
N#CC1(c2ccc3cc(C(N)=O)n(C(=O)[O-])c3c2)CC1 (nonaromatic ring conformer: 337.13066370530186 kcal/mol)

>  <smiles>  (30) 
N#CC1(c2ccc3cc(C(N)=O)n(C(=O)O)c3c2)CC1

>  <score_type>  (30) 
oracle

>  <origin>  (30) 
adg

>  <m_score__min__energy>  (30) 
-9.4399999999999995

>  <m_primary>  (30) 
energy

$$$$
30:0
     RDKit          3D

 32 33  0  0  0  0  0  0  0  0999 V2000
   -2.6190   20.8750  -32.6070 C   0  0  0  0  0  0  0  0  0  0  0  0
   -3.2600   22.1430  -32.6610 O   0  0  0  0  0  0  0  0  0  0  0  0
   -3.7820   22.7730  -31.5270 C   0  0  0  0  0  0  0  0  0  0  0  0
   -3.0150   23.1480  -30.5990 O   0  0  0  0  0  0  0  0  0  0  0  0
   -5.2000   22.9720  -31.4110 N   0  0  0  0  0  0  0  0  0  0  0  0
   -5.8570   24.0470  -30.8880 C   0  0  0  0  0  0  0  0  0  0  0  0
   -5.2370   25.3150  -30.4510 C   0  0  0  0  0  0  0  0  0  0  0  0
   -3.9030   25.6260  -30.8480 N   0  0  0  0  0  0  0  0  0  0  0  0
   -5.8580   26.1130  -29.7000 O   0  0  0  0  0  0  0  0  0  0  0  0
   -7.2330   23.8280  -30.8930 C   0  0  0  0  0  0  0  0  0  0  0  0
   -7.4020   22.5800  -31.4450 C   0  0  0  0  0  0  0  0  0  0  0  0
   -8.5670   21.8520  -31.6750 C   0  0  0  0  0  0  0  0  0  0  0  0
   -8.4440   20.5680  -32.2300 C   0  0  0  0  0  0  0  0  0  0  0  0
   -7.1670   20.0380  -32.5440 C   0  0  0  0  0  0  0  0  0  0  0  0
   -7.0470   18.6420  -33.0960 C   0  0  0  0  0  0  0  0  0  0  0  0
   -5.8170   18.5040  -33.9970 C   0  0  0  0  0  0  0  0  0  0  0  0
   -6.1060   18.9150  -35.3070 O   0  0  0  0  0  0  0  0  0  0  0  0
   -6.0070   20.8000  -32.2880 C   0  0  0  0  0  0  0  0  0  0  0  0
   -6.1610   22.0840  -31.7500 C   0  0  0  0  0  0  0  0  0  0  0  0
   -2.4715   20.5832  -31.5567 H   0  0  0  0  0  0  0  0  0  0  0  0
   -3.2464   20.1252  -33.1112 H   0  0  0  0  0  0  0  0  0  0  0  0
   -1.6433   20.9356  -33.1112 H   0  0  0  0  0  0  0  0  0  0  0  0
   -3.0850   25.2970  -30.2870 H   0  0  0  0  0  0  0  0  0  0  0  0
   -8.0177   24.5091  -30.5319 H   0  0  0  0  0  0  0  0  0  0  0  0
   -9.5541   22.2705  -31.4292 H   0  0  0  0  0  0  0  0  0  0  0  0
   -9.3458   19.9684  -32.4227 H   0  0  0  0  0  0  0  0  0  0  0  0
   -6.9602   17.9323  -32.2600 H   0  0  0  0  0  0  0  0  0  0  0  0
   -7.9433   18.4279  -33.6968 H   0  0  0  0  0  0  0  0  0  0  0  0
   -5.0047   19.1274  -33.5951 H   0  0  0  0  0  0  0  0  0  0  0  0
   -5.5153   17.4464  -34.0195 H   0  0  0  0  0  0  0  0  0  0  0  0
   -6.9750   19.3950  -35.2690 H   0  0  0  0  0  0  0  0  0  0  0  0
   -5.0073   20.3958  -32.5055 H   0  0  0  0  0  0  0  0  0  0  0  0
  1  2  1  0
  2  3  1  0
  3  4  2  0
  3  5  1  0
  5  6  1  0
  6  7  1  0
  7  8  1  0
  7  9  2  0
  6 10  2  0
 10 11  1  0
 11 12  2  0
 12 13  1  0
 13 14  2  0
 14 15  1  0
 15 16  1  0
 16 17  1  0
 14 18  1  0
 18 19  2  0
 19  5  1  0
 19 11  1  0
  1 20  1  0
  1 21  1  0
  1 22  1  0
  8 23  1  0
 10 24  1  0
 12 25  1  0
 13 26  1  0
 15 27  1  0
 15 28  1  0
 16 29  1  0
 16 30  1  0
 17 31  1  0
 18 32  1  0
M  CHG  1   8  -1
M  END
>  <UniqueID>  (31) 
30

>  <SMILES>  (31) 
COC(=O)n1c(C([NH-])=O)cc2ccc(CCO)cc21

>  <Energy>  (31) 
66.10679973109168

>  <Genealogy>  (31) 
COC(=O)n1c(C([NH-])=O)cc2ccc(CCO)cc21 (protonated)
COC(=O)n1c(C([NH-])=O)cc2ccc(CCO)cc21 (3D coordinates assigned)
COC(=O)n1c(C([NH-])=O)cc2ccc(CCO)cc21 (optimized conformer: 66.10679973109168 kcal/mol)

>  <smiles>  (31) 
COC(=O)n1c(C(N)=O)cc2ccc(CCO)cc21

>  <score_type>  (31) 
oracle

>  <origin>  (31) 
adg

>  <m_score__min__energy>  (31) 
-9.7300000000000004

>  <m_primary>  (31) 
energy

$$$$
31:0
     RDKit          3D

 36 37  0  0  0  0  0  0  0  0999 V2000
   -9.0500   19.2890  -31.7880 C   0  0  0  0  0  0  0  0  0  0  0  0
   -9.3950   20.4600  -32.3280 C   0  0  0  0  0  0  0  0  0  0  0  0
   -9.3110   21.7350  -31.5440 C   0  0  0  0  0  0  0  0  0  0  0  0
   -8.0660   21.7910  -30.8560 O   0  0  0  0  0  0  0  0  0  0  0  0
   -7.1630   22.8450  -31.0110 C   0  0  0  0  0  0  0  0  0  0  0  0
   -7.5280   24.0310  -30.7840 O   0  0  0  0  0  0  0  0  0  0  0  0
   -5.8120   22.5770  -31.4250 N   0  0  0  0  0  0  0  0  0  0  0  0
   -4.6870   23.2670  -31.0850 C   0  0  0  0  0  0  0  0  0  0  0  0
   -4.6450   24.5420  -30.3420 C   0  0  0  0  0  0  0  0  0  0  0  0
   -5.5110   24.7790  -29.2300 N   0  0  0  0  0  0  0  0  0  0  0  0
   -3.8730   25.4590  -30.7280 O   0  0  0  0  0  0  0  0  0  0  0  0
   -3.5520   22.6320  -31.5800 C   0  0  0  0  0  0  0  0  0  0  0  0
   -4.0180   21.5280  -32.2560 C   0  0  0  0  0  0  0  0  0  0  0  0
   -3.3180   20.5320  -32.9280 C   0  0  0  0  0  0  0  0  0  0  0  0
   -4.0540   19.4820  -33.5010 C   0  0  0  0  0  0  0  0  0  0  0  0
   -5.4670   19.4480  -33.3920 C   0  0  0  0  0  0  0  0  0  0  0  0
   -6.2400   18.2920  -33.9680 C   0  0  0  0  0  0  0  0  0  0  0  0
   -6.5220   17.2440  -32.8960 C   0  0  0  0  0  0  0  0  0  0  0  0
   -6.1430   20.4690  -32.6890 C   0  0  0  0  0  0  0  0  0  0  0  0
   -5.3860   21.5160  -32.1460 C   0  0  0  0  0  0  0  0  0  0  0  0
   -9.1203   18.3668  -32.3834 H   0  0  0  0  0  0  0  0  0  0  0  0
   -8.6954   19.2463  -30.7476 H   0  0  0  0  0  0  0  0  0  0  0  0
   -9.7481   20.4900  -33.3694 H   0  0  0  0  0  0  0  0  0  0  0  0
   -9.3896   22.5920  -32.2291 H   0  0  0  0  0  0  0  0  0  0  0  0
  -10.1336   21.7703  -30.8145 H   0  0  0  0  0  0  0  0  0  0  0  0
   -5.4410   25.6710  -28.6920 H   0  0  0  0  0  0  0  0  0  0  0  0
   -6.2770   24.1110  -28.9910 H   0  0  0  0  0  0  0  0  0  0  0  0
   -2.5050   22.9459  -31.4570 H   0  0  0  0  0  0  0  0  0  0  0  0
   -2.2214   20.5655  -33.0083 H   0  0  0  0  0  0  0  0  0  0  0  0
   -3.5293   18.6788  -34.0392 H   0  0  0  0  0  0  0  0  0  0  0  0
   -7.1943   18.6612  -34.3718 H   0  0  0  0  0  0  0  0  0  0  0  0
   -5.6412   17.8290  -34.7662 H   0  0  0  0  0  0  0  0  0  0  0  0
   -6.4004   17.6959  -31.9005 H   0  0  0  0  0  0  0  0  0  0  0  0
   -7.5518   16.8736  -33.0072 H   0  0  0  0  0  0  0  0  0  0  0  0
   -5.8172   16.4068  -33.0072 H   0  0  0  0  0  0  0  0  0  0  0  0
   -7.2363   20.4433  -32.5705 H   0  0  0  0  0  0  0  0  0  0  0  0
  1  2  2  0
  2  3  1  0
  3  4  1  0
  4  5  1  0
  5  6  2  0
  5  7  1  0
  7  8  1  0
  8  9  1  0
  9 10  1  0
  9 11  2  0
  8 12  2  0
 12 13  1  0
 13 14  2  0
 14 15  1  0
 15 16  2  0
 16 17  1  0
 17 18  1  0
 16 19  1  0
 19 20  2  0
 20  7  1  0
 20 13  1  0
  1 21  1  0
  1 22  1  0
  2 23  1  0
  3 24  1  0
  3 25  1  0
 10 26  1  0
 10 27  1  0
 12 28  1  0
 14 29  1  0
 15 30  1  0
 17 31  1  0
 17 32  1  0
 18 33  1  0
 18 34  1  0
 18 35  1  0
 19 36  1  0
M  END
>  <UniqueID>  (32) 
31

>  <SMILES>  (32) 
C=CCOC(=O)n1c(C(N)=O)cc2ccc(CC)cc21

>  <Energy>  (32) 
66.82183153985325

>  <Genealogy>  (32) 
C=CCOC(=O)n1c(C(N)=O)cc2ccc(CC)cc21 (3D coordinates assigned)
C=CCOC(=O)n1c(C(N)=O)cc2ccc(CC)cc21 (optimized conformer: 66.82183153985325 kcal/mol)

>  <smiles>  (32) 
C=CCOC(=O)n1c(C(N)=O)cc2ccc(CC)cc21

>  <score_type>  (32) 
oracle

>  <origin>  (32) 
adg

>  <m_score__min__energy>  (32) 
-7.9699999999999998

>  <m_primary>  (32) 
energy

$$$$
32:0
     RDKit          3D

 54 56  0  0  0  0  0  0  0  0999 V2000
   -8.1310   23.4660  -32.0150 C   0  0  0  0  0  0  0  0  0  0  0  0
   -7.4150   22.4080  -31.2860 N   0  0  0  0  0  0  0  0  0  0  0  0
   -7.8650   22.3300  -29.8870 C   0  0  0  0  0  0  0  0  0  0  0  0
   -7.5430   21.1220  -31.9490 C   0  0  0  0  0  0  0  0  0  0  0  0
   -8.2950   20.2820  -31.4760 O   0  0  0  0  0  0  0  0  0  0  0  0
   -6.8280   20.8110  -33.2550 C   0  0  0  0  0  0  0  0  0  0  0  0
   -5.6970   19.7570  -33.1400 C   0  0  2  0  0  0  0  0  0  0  0  0
   -6.1690   18.4290  -32.5930 C   0  0  0  0  0  0  0  0  0  0  0  0
   -5.9030   18.1070  -31.4020 O   0  0  0  0  0  0  0  0  0  0  0  0
   -6.9810   17.6020  -33.3780 O   0  0  0  0  0  0  0  0  0  0  0  0
   -6.5260   16.3800  -33.9530 C   0  0  0  0  0  0  0  0  0  0  0  0
   -5.0230   16.3440  -33.9630 C   0  0  0  0  0  0  0  0  0  0  0  0
   -4.3340   15.5410  -33.0400 C   0  0  0  0  0  0  0  0  0  0  0  0
   -2.9380   15.4680  -33.0740 C   0  0  0  0  0  0  0  0  0  0  0  0
   -2.2230   16.1860  -34.0370 C   0  0  0  0  0  0  0  0  0  0  0  0
   -2.9020   16.9770  -34.9650 C   0  0  0  0  0  0  0  0  0  0  0  0
   -4.2980   17.0570  -34.9330 C   0  0  0  0  0  0  0  0  0  0  0  0
   -4.5020   20.3120  -32.3820 C   0  0  0  0  0  0  0  0  0  0  0  0
   -3.3120   19.5440  -32.2970 C   0  0  0  0  0  0  0  0  0  0  0  0
   -2.1850   20.0340  -31.6170 C   0  0  0  0  0  0  0  0  0  0  0  0
   -2.2660   21.3010  -31.0490 C   0  0  0  0  0  0  0  0  0  0  0  0
   -1.3320   22.0110  -30.3300 C   0  0  0  0  0  0  0  0  0  0  0  0
   -1.9450   23.2250  -30.0260 C   0  0  0  0  0  0  0  0  0  0  0  0
   -1.2540   24.3310  -29.3330 C   0  0  0  0  0  0  0  0  0  0  0  0
   -1.9540   25.5160  -28.9640 N   0  0  0  0  0  0  0  0  0  0  0  0
   -0.0160   24.2510  -29.1090 O   0  0  0  0  0  0  0  0  0  0  0  0
   -3.2100   23.2610  -30.5310 N   0  0  0  0  0  0  0  0  0  0  0  0
   -4.1800   24.3100  -30.3970 C   0  0  0  0  0  0  0  0  0  0  0  0
   -5.3190   24.0640  -29.9170 O   0  0  0  0  0  0  0  0  0  0  0  0
   -3.8650   25.6090  -30.7750 O   0  0  0  0  0  0  0  0  0  0  0  0
   -3.3920   22.0730  -31.1500 C   0  0  0  0  0  0  0  0  0  0  0  0
   -4.5380   21.6010  -31.7980 C   0  0  0  0  0  0  0  0  0  0  0  0
   -8.5976   24.1554  -31.2960 H   0  0  0  0  0  0  0  0  0  0  0  0
   -7.4216   24.0203  -32.6471 H   0  0  0  0  0  0  0  0  0  0  0  0
   -8.9093   23.0135  -32.6471 H   0  0  0  0  0  0  0  0  0  0  0  0
   -6.4020   22.6770  -31.2690 H   0  0  0  0  0  0  0  0  0  0  0  0
   -7.0057   22.4789  -29.2166 H   0  0  0  0  0  0  0  0  0  0  0  0
   -8.6162   23.1113  -29.6994 H   0  0  0  0  0  0  0  0  0  0  0  0
   -8.3094   21.3414  -29.6994 H   0  0  0  0  0  0  0  0  0  0  0  0
   -7.5730   20.4371  -33.9727 H   0  0  0  0  0  0  0  0  0  0  0  0
   -6.3483   21.7471  -33.5768 H   0  0  0  0  0  0  0  0  0  0  0  0
   -5.3636   19.5397  -34.1655 H   0  0  0  0  0  0  0  0  0  0  0  0
   -6.9066   15.5349  -33.3606 H   0  0  0  0  0  0  0  0  0  0  0  0
   -6.8956   16.3079  -34.9866 H   0  0  0  0  0  0  0  0  0  0  0  0
   -4.8945   14.9672  -32.2873 H   0  0  0  0  0  0  0  0  0  0  0  0
   -2.4022   14.8452  -32.3426 H   0  0  0  0  0  0  0  0  0  0  0  0
   -1.1249   16.1275  -34.0634 H   0  0  0  0  0  0  0  0  0  0  0  0
   -2.3377   17.5391  -35.7237 H   0  0  0  0  0  0  0  0  0  0  0  0
   -4.8293   17.6791  -35.6683 H   0  0  0  0  0  0  0  0  0  0  0  0
   -3.2716   18.5517  -32.7699 H   0  0  0  0  0  0  0  0  0  0  0  0
   -1.2665   19.4342  -31.5361 H   0  0  0  0  0  0  0  0  0  0  0  0
   -0.3171   21.6888  -30.0539 H   0  0  0  0  0  0  0  0  0  0  0  0
   -2.9310   25.6860  -29.2910 H   0  0  0  0  0  0  0  0  0  0  0  0
   -5.4472   22.2177  -31.8526 H   0  0  0  0  0  0  0  0  0  0  0  0
  1  2  1  0
  2  3  1  0
  2  4  1  0
  4  5  2  0
  4  6  1  0
  6  7  1  0
  7  8  1  0
  8  9  2  0
  8 10  1  0
 10 11  1  0
 11 12  1  0
 12 13  2  0
 13 14  1  0
 14 15  2  0
 15 16  1  0
 16 17  2  0
  7 18  1  0
 18 19  2  0
 19 20  1  0
 20 21  2  0
 21 22  1  0
 22 23  2  0
 23 24  1  0
 24 25  1  0
 24 26  2  0
 23 27  1  0
 27 28  1  0
 28 29  2  0
 28 30  1  0
 27 31  1  0
 31 32  2  0
 17 12  1  0
 32 18  1  0
 31 21  1  0
  1 33  1  0
  1 34  1  0
  1 35  1  0
  2 36  1  0
  3 37  1  0
  3 38  1  0
  3 39  1  0
  6 40  1  0
  6 41  1  0
  7 42  1  6
 11 43  1  0
 11 44  1  0
 13 45  1  0
 14 46  1  0
 15 47  1  0
 16 48  1  0
 17 49  1  0
 19 50  1  0
 20 51  1  0
 22 52  1  0
 25 53  1  0
 32 54  1  0
M  CHG  3   2   1  25  -1  30  -1
M  END
>  <UniqueID>  (33) 
32

>  <SMILES>  (33) 
C[NH+](C)C(=O)C[C@H](C(=O)OCc1ccccc1)c1ccc2cc(C([NH-])=O)n(C(=O)[O-])c2c1

>  <Energy>  (33) 
91.80734361456989

>  <Genealogy>  (33) 
C[NH+](C)C(=O)CC(C(=O)OCc1ccccc1)c1ccc2cc(C([NH-])=O)n(C(=O)[O-])c2c1 (protonated)
C[NH+](C)C(=O)C[C@H](C(=O)OCc1ccccc1)c1ccc2cc(C([NH-])=O)n(C(=O)[O-])c2c1 (chirality)
C[NH+](C)C(=O)C[C@H](C(=O)OCc1ccccc1)c1ccc2cc(C([NH-])=O)n(C(=O)[O-])c2c1 (3D coordinates assigned)
C[NH+](C)C(=O)C[C@H](C(=O)OCc1ccccc1)c1ccc2cc(C([NH-])=O)n(C(=O)[O-])c2c1 (optimized conformer: 91.80734361456989 kcal/mol)

>  <smiles>  (33) 
CN(C)C(=O)CC(C(=O)OCc1ccccc1)c1ccc2cc(C(N)=O)n(C(=O)O)c2c1

>  <score_type>  (33) 
oracle

>  <origin>  (33) 
adg

>  <m_score__min__energy>  (33) 
-11.949999999999999

>  <m_primary>  (33) 
energy

$$$$
33:0
     RDKit          3D

 46 48  0  0  0  0  0  0  0  0999 V2000
   -7.4100   22.9460  -31.8660 C   0  0  0  0  0  0  0  0  0  0  0  0
   -7.9190   21.7870  -32.4900 O   0  0  0  0  0  0  0  0  0  0  0  0
   -8.7640   21.1000  -31.5900 C   0  0  0  0  0  0  0  0  0  0  0  0
   -8.4960   19.6020  -31.7070 C   0  0  0  0  0  0  0  0  0  0  0  0
   -8.2020   19.2570  -33.1100 N   0  0  0  0  0  0  0  0  0  0  0  0
   -6.8010   18.8990  -33.4320 C   0  0  0  0  0  0  0  0  0  0  0  0
   -5.9330   18.6930  -32.2280 C   0  0  0  0  0  0  0  0  0  0  0  0
   -5.0200   19.8200  -32.5050 N   0  0  0  0  0  0  0  0  0  0  0  0
   -3.8890   20.4340  -31.8860 C   0  0  0  0  0  0  0  0  0  0  0  0
   -2.6390   19.7670  -31.8750 C   0  0  0  0  0  0  0  0  0  0  0  0
   -1.5180   20.3630  -31.2700 C   0  0  0  0  0  0  0  0  0  0  0  0
   -1.6780   21.6200  -30.6930 C   0  0  0  0  0  0  0  0  0  0  0  0
   -0.7740   22.4160  -30.0240 C   0  0  0  0  0  0  0  0  0  0  0  0
   -1.4870   23.5540  -29.6530 C   0  0  0  0  0  0  0  0  0  0  0  0
   -0.8830   24.7160  -28.9690 C   0  0  0  0  0  0  0  0  0  0  0  0
   -1.5630   25.9680  -28.9110 N   0  0  0  0  0  0  0  0  0  0  0  0
    0.2680   24.6150  -28.4640 O   0  0  0  0  0  0  0  0  0  0  0  0
   -2.7810   23.4620  -30.0700 N   0  0  0  0  0  0  0  0  0  0  0  0
   -3.8660   24.3590  -29.7960 C   0  0  0  0  0  0  0  0  0  0  0  0
   -4.0850   25.3300  -30.5700 O   0  0  0  0  0  0  0  0  0  0  0  0
   -4.8210   24.0700  -28.6790 C   0  0  0  0  0  0  0  0  0  0  0  0
   -4.2480   24.5400  -27.4130 C   0  0  0  0  0  0  0  0  0  0  0  0
   -3.7940   24.9160  -26.4150 N   0  0  0  0  0  0  0  0  0  0  0  0
   -2.8820   22.2760  -30.7070 C   0  0  0  0  0  0  0  0  0  0  0  0
   -4.0170   21.7040  -31.2900 C   0  0  0  0  0  0  0  0  0  0  0  0
   -5.8420   20.0200  -33.7160 C   0  0  0  0  0  0  0  0  0  0  0  0
   -7.4621   22.8273  -30.7737 H   0  0  0  0  0  0  0  0  0  0  0  0
   -6.3632   23.0959  -32.1690 H   0  0  0  0  0  0  0  0  0  0  0  0
   -8.0079   23.8182  -32.1690 H   0  0  0  0  0  0  0  0  0  0  0  0
   -8.5576   21.4330  -30.5621 H   0  0  0  0  0  0  0  0  0  0  0  0
   -9.8163   21.3107  -31.8316 H   0  0  0  0  0  0  0  0  0  0  0  0
   -7.6351   19.3344  -31.0767 H   0  0  0  0  0  0  0  0  0  0  0  0
   -9.3850   19.0462  -31.3742 H   0  0  0  0  0  0  0  0  0  0  0  0
   -8.4630   20.0770  -33.7070 H   0  0  0  0  0  0  0  0  0  0  0  0
   -7.0461   18.1324  -34.1818 H   0  0  0  0  0  0  0  0  0  0  0  0
   -6.4819   18.8127  -31.2823 H   0  0  0  0  0  0  0  0  0  0  0  0
   -5.4801   17.6989  -32.0987 H   0  0  0  0  0  0  0  0  0  0  0  0
   -2.5447   18.7760  -32.3430 H   0  0  0  0  0  0  0  0  0  0  0  0
   -0.5443   19.8516  -31.2532 H   0  0  0  0  0  0  0  0  0  0  0  0
    0.2859   22.1990  -29.8250 H   0  0  0  0  0  0  0  0  0  0  0  0
   -2.6040   26.0190  -28.9770 H   0  0  0  0  0  0  0  0  0  0  0  0
   -5.7724   24.5893  -28.8662 H   0  0  0  0  0  0  0  0  0  0  0  0
   -5.0006   22.9863  -28.6207 H   0  0  0  0  0  0  0  0  0  0  0  0
   -4.9826   22.2309  -31.2834 H   0  0  0  0  0  0  0  0  0  0  0  0
   -6.3323   21.0044  -33.7406 H   0  0  0  0  0  0  0  0  0  0  0  0
   -5.3233   20.0069  -34.6859 H   0  0  0  0  0  0  0  0  0  0  0  0
  1  2  1  0
  2  3  1  0
  3  4  1  0
  4  5  1  0
  5  6  1  0
  6  7  1  0
  7  8  1  0
  8  9  1  0
  9 10  2  0
 10 11  1  0
 11 12  2  0
 12 13  1  0
 13 14  2  0
 14 15  1  0
 15 16  1  0
 15 17  2  0
 14 18  1  0
 18 19  1  0
 19 20  2  0
 19 21  1  0
 21 22  1  0
 22 23  3  0
 18 24  1  0
 24 25  2  0
  8 26  1  0
 26  6  1  0
 25  9  1  0
 24 12  1  0
  1 27  1  0
  1 28  1  0
  1 29  1  0
  3 30  1  0
  3 31  1  0
  4 32  1  0
  4 33  1  0
  5 34  1  0
  6 35  1  0
  7 36  1  0
  7 37  1  0
 10 38  1  0
 11 39  1  0
 13 40  1  0
 16 41  1  0
 21 42  1  0
 21 43  1  0
 25 44  1  0
 26 45  1  0
 26 46  1  0
M  CHG  1  16  -1
M  END
>  <UniqueID>  (34) 
33

>  <SMILES>  (34) 
COCCNC1CN(c2ccc3cc(C([NH-])=O)n(C(=O)CC#N)c3c2)C1

>  <Energy>  (34) 
134.4763738641634

>  <Genealogy>  (34) 
COCCNC1CN(c2ccc3cc(C([NH-])=O)n(C(=O)CC#N)c3c2)C1 (protonated)
COCCNC1CN(c2ccc3cc(C([NH-])=O)n(C(=O)CC#N)c3c2)C1 (3D coordinates assigned)
COCCNC1CN(c2ccc3cc(C([NH-])=O)n(C(=O)CC#N)c3c2)C1 (nonaromatic ring conformer: 134.4763738641634 kcal/mol)

>  <smiles>  (34) 
COCCNC1CN(c2ccc3cc(C(N)=O)n(C(=O)CC#N)c3c2)C1

>  <score_type>  (34) 
oracle

>  <origin>  (34) 
adg

>  <m_score__min__energy>  (34) 
-10.949999999999999

>  <m_primary>  (34) 
energy

$$$$
34:0
     RDKit          3D

 37 39  0  0  0  0  0  0  0  0999 V2000
   -5.3260   12.0080  -32.0790 C   0  0  0  0  0  0  0  0  0  0  0  0
   -4.7240   13.2470  -32.4310 O   0  0  0  0  0  0  0  0  0  0  0  0
   -5.2350   14.0780  -33.4350 C   0  0  0  0  0  0  0  0  0  0  0  0
   -5.4340   13.6200  -34.5940 O   0  0  0  0  0  0  0  0  0  0  0  0
   -5.5390   15.4940  -33.1320 C   0  0  0  0  0  0  0  0  0  0  0  0
   -5.8920   16.3830  -34.1600 C   0  0  0  0  0  0  0  0  0  0  0  0
   -6.1770   17.7140  -33.8550 C   0  0  0  0  0  0  0  0  0  0  0  0
   -6.1090   18.1660  -32.5290 C   0  0  0  0  0  0  0  0  0  0  0  0
   -6.4080   19.5800  -32.1900 C   0  0  0  0  0  0  0  0  0  0  0  0
   -7.7370   20.0730  -32.2800 C   0  0  0  0  0  0  0  0  0  0  0  0
   -8.0320   21.4080  -31.9570 C   0  0  0  0  0  0  0  0  0  0  0  0
   -6.9840   22.2290  -31.5520 C   0  0  0  0  0  0  0  0  0  0  0  0
   -6.9930   23.5510  -31.1700 C   0  0  0  0  0  0  0  0  0  0  0  0
   -5.6670   23.8570  -30.8740 C   0  0  0  0  0  0  0  0  0  0  0  0
   -5.2140   25.2180  -30.5200 C   0  0  0  0  0  0  0  0  0  0  0  0
   -3.8940   25.6550  -30.8350 N   0  0  0  0  0  0  0  0  0  0  0  0
   -6.0230   26.0260  -29.9920 O   0  0  0  0  0  0  0  0  0  0  0  0
   -4.8720   22.7630  -31.0470 N   0  0  0  0  0  0  0  0  0  0  0  0
   -3.4730   22.6140  -30.7530 C   0  0  0  0  0  0  0  0  0  0  0  0
   -2.9530   23.1950  -29.7640 O   0  0  0  0  0  0  0  0  0  0  0  0
   -5.6940   21.7770  -31.4700 C   0  0  0  0  0  0  0  0  0  0  0  0
   -5.3710   20.4500  -31.7750 C   0  0  0  0  0  0  0  0  0  0  0  0
   -5.7520   17.2460  -31.5290 C   0  0  0  0  0  0  0  0  0  0  0  0
   -5.4790   15.9500  -31.8460 N   0  0  0  0  0  0  0  0  0  0  0  0
   -5.3690   11.9194  -30.9834 H   0  0  0  0  0  0  0  0  0  0  0  0
   -6.3452   11.9655  -32.4906 H   0  0  0  0  0  0  0  0  0  0  0  0
   -4.7295   11.1805  -32.4906 H   0  0  0  0  0  0  0  0  0  0  0  0
   -5.9436   16.0314  -35.2010 H   0  0  0  0  0  0  0  0  0  0  0  0
   -6.4563   18.4121  -34.6579 H   0  0  0  0  0  0  0  0  0  0  0  0
   -8.5448   19.4016  -32.6065 H   0  0  0  0  0  0  0  0  0  0  0  0
   -9.0605   21.7927  -32.0223 H   0  0  0  0  0  0  0  0  0  0  0  0
   -7.8621   24.2227  -31.1110 H   0  0  0  0  0  0  0  0  0  0  0  0
   -3.0660   25.2680  -30.3310 H   0  0  0  0  0  0  0  0  0  0  0  0
   -2.8472   21.9832  -31.4014 H   0  0  0  0  0  0  0  0  0  0  0  0
   -4.3344   20.0908  -31.6941 H   0  0  0  0  0  0  0  0  0  0  0  0
   -5.6925   17.5753  -30.4811 H   0  0  0  0  0  0  0  0  0  0  0  0
   -5.2210   15.3010  -31.0690 H   0  0  0  0  0  0  0  0  0  0  0  0
  1  2  1  0
  2  3  1  0
  3  4  2  0
  3  5  1  0
  5  6  2  0
  6  7  1  0
  7  8  2  0
  8  9  1  0
  9 10  2  0
 10 11  1  0
 11 12  2  0
 12 13  1  0
 13 14  2  0
 14 15  1  0
 15 16  1  0
 15 17  2  0
 14 18  1  0
 18 19  1  0
 19 20  2  0
 18 21  1  0
 21 22  2  0
  8 23  1  0
 23 24  2  0
 24  5  1  0
 22  9  1  0
 21 12  1  0
  1 25  1  0
  1 26  1  0
  1 27  1  0
  6 28  1  0
  7 29  1  0
 10 30  1  0
 11 31  1  0
 13 32  1  0
 16 33  1  0
 19 34  1  0
 22 35  1  0
 23 36  1  0
 24 37  1  0
M  CHG  2  16  -1  24   1
M  END
>  <UniqueID>  (35) 
34

>  <SMILES>  (35) 
COC(=O)c1ccc(-c2ccc3cc(C([NH-])=O)n(C=O)c3c2)c[nH+]1

>  <Energy>  (35) 
82.0072726957175

>  <Genealogy>  (35) 
COC(=O)c1ccc(-c2ccc3cc(C([NH-])=O)n(C=O)c3c2)c[nH+]1 (protonated)
COC(=O)c1ccc(-c2ccc3cc(C([NH-])=O)n(C=O)c3c2)c[nH+]1 (3D coordinates assigned)
COC(=O)c1ccc(-c2ccc3cc(C([NH-])=O)n(C=O)c3c2)c[nH+]1 (optimized conformer: 82.0072726957175 kcal/mol)

>  <smiles>  (35) 
COC(=O)c1ccc(-c2ccc3cc(C(N)=O)n(C=O)c3c2)cn1

>  <score_type>  (35) 
oracle

>  <origin>  (35) 
adg

>  <m_score__min__energy>  (35) 
-9.3499999999999996

>  <m_primary>  (35) 
energy

$$$$
35:0
     RDKit          3D

 53 55  0  0  0  0  0  0  0  0999 V2000
   -1.9190   22.7510  -29.1850 C   0  0  0  0  0  0  0  0  0  0  0  0
   -3.1690   21.9600  -28.7730 C   0  0  0  0  0  0  0  0  0  0  0  0
   -4.1060   22.8900  -27.9770 C   0  0  0  0  0  0  0  0  0  0  0  0
   -2.7380   20.7560  -27.9140 C   0  0  0  0  0  0  0  0  0  0  0  0
   -3.8060   21.5180  -29.9800 O   0  0  0  0  0  0  0  0  0  0  0  0
   -4.2390   22.3290  -31.0400 C   0  0  0  0  0  0  0  0  0  0  0  0
   -3.4570   22.6450  -31.9750 O   0  0  0  0  0  0  0  0  0  0  0  0
   -5.6030   22.7770  -31.0680 N   0  0  0  0  0  0  0  0  0  0  0  0
   -6.0810   24.0340  -30.8430 C   0  0  0  0  0  0  0  0  0  0  0  0
   -5.2860   25.1980  -30.3960 C   0  0  0  0  0  0  0  0  0  0  0  0
   -3.8910   25.2570  -30.6830 N   0  0  0  0  0  0  0  0  0  0  0  0
   -5.8320   26.1590  -29.7930 O   0  0  0  0  0  0  0  0  0  0  0  0
   -7.4640   24.0650  -31.0050 C   0  0  0  0  0  0  0  0  0  0  0  0
   -7.8240   22.7780  -31.3310 C   0  0  0  0  0  0  0  0  0  0  0  0
   -9.0800   22.2370  -31.5950 C   0  0  0  0  0  0  0  0  0  0  0  0
   -9.1540   20.8720  -31.9150 C   0  0  0  0  0  0  0  0  0  0  0  0
   -7.9790   20.0810  -31.9850 C   0  0  0  0  0  0  0  0  0  0  0  0
   -8.0710   18.6130  -32.2930 C   0  0  0  0  0  0  0  0  0  0  0  0
   -6.7350   17.9670  -32.1040 C   0  0  0  0  0  0  0  0  0  0  0  0
   -6.2420   17.8700  -30.9470 O   0  0  0  0  0  0  0  0  0  0  0  0
   -6.0500   17.4710  -33.2160 O   0  0  0  0  0  0  0  0  0  0  0  0
   -5.6190   18.2990  -34.2890 C   0  0  0  0  0  0  0  0  0  0  0  0
   -4.1840   18.6760  -34.0720 C   0  0  0  0  0  0  0  0  0  0  0  0
   -3.8650   19.8850  -33.4330 C   0  0  0  0  0  0  0  0  0  0  0  0
   -2.5280   20.2220  -33.1910 C   0  0  0  0  0  0  0  0  0  0  0  0
   -1.5060   19.3490  -33.5740 C   0  0  0  0  0  0  0  0  0  0  0  0
   -1.8180   18.1360  -34.1950 C   0  0  0  0  0  0  0  0  0  0  0  0
   -3.1520   17.7960  -34.4390 C   0  0  0  0  0  0  0  0  0  0  0  0
   -6.7240   20.6630  -31.7050 C   0  0  0  0  0  0  0  0  0  0  0  0
   -6.6820   22.0200  -31.3650 C   0  0  0  0  0  0  0  0  0  0  0  0
   -1.3854   23.0887  -28.2843 H   0  0  0  0  0  0  0  0  0  0  0  0
   -1.2578   22.1065  -29.7829 H   0  0  0  0  0  0  0  0  0  0  0  0
   -2.2184   23.6244  -29.7829 H   0  0  0  0  0  0  0  0  0  0  0  0
   -3.9488   22.7340  -26.8995 H   0  0  0  0  0  0  0  0  0  0  0  0
   -3.8862   23.9373  -28.2317 H   0  0  0  0  0  0  0  0  0  0  0  0
   -5.1516   22.6624  -28.2317 H   0  0  0  0  0  0  0  0  0  0  0  0
   -2.8303   21.0139  -26.8486 H   0  0  0  0  0  0  0  0  0  0  0  0
   -3.3836   19.8945  -28.1400 H   0  0  0  0  0  0  0  0  0  0  0  0
   -1.6924   20.4999  -28.1400 H   0  0  0  0  0  0  0  0  0  0  0  0
   -3.4880   26.0530  -31.2250 H   0  0  0  0  0  0  0  0  0  0  0  0
   -8.1282   24.9350  -30.8954 H   0  0  0  0  0  0  0  0  0  0  0  0
   -9.9858   22.8598  -31.5541 H   0  0  0  0  0  0  0  0  0  0  0  0
  -10.1331   20.4115  -32.1134 H   0  0  0  0  0  0  0  0  0  0  0  0
   -8.8015   18.1439  -31.6175 H   0  0  0  0  0  0  0  0  0  0  0  0
   -8.3915   18.4820  -33.3371 H   0  0  0  0  0  0  0  0  0  0  0  0
   -5.7167   17.7522  -35.2384 H   0  0  0  0  0  0  0  0  0  0  0  0
   -6.2388   19.2069  -34.3285 H   0  0  0  0  0  0  0  0  0  0  0  0
   -4.6680   20.5693  -33.1217 H   0  0  0  0  0  0  0  0  0  0  0  0
   -2.2816   21.1745  -32.6991 H   0  0  0  0  0  0  0  0  0  0  0  0
   -0.4556   19.6165  -33.3867 H   0  0  0  0  0  0  0  0  0  0  0  0
   -1.0127   17.4480  -34.4921 H   0  0  0  0  0  0  0  0  0  0  0  0
   -3.3943   16.8367  -34.9197 H   0  0  0  0  0  0  0  0  0  0  0  0
   -5.8020   20.0650  -31.7528 H   0  0  0  0  0  0  0  0  0  0  0  0
  1  2  1  0
  2  3  1  0
  2  4  1  0
  2  5  1  0
  5  6  1  0
  6  7  2  0
  6  8  1  0
  8  9  1  0
  9 10  1  0
 10 11  1  0
 10 12  2  0
  9 13  2  0
 13 14  1  0
 14 15  2  0
 15 16  1  0
 16 17  2  0
 17 18  1  0
 18 19  1  0
 19 20  2  0
 19 21  1  0
 21 22  1  0
 22 23  1  0
 23 24  2  0
 24 25  1  0
 25 26  2  0
 26 27  1  0
 27 28  2  0
 17 29  1  0
 29 30  2  0
 30  8  1  0
 30 14  1  0
 28 23  1  0
  1 31  1  0
  1 32  1  0
  1 33  1  0
  3 34  1  0
  3 35  1  0
  3 36  1  0
  4 37  1  0
  4 38  1  0
  4 39  1  0
 11 40  1  0
 13 41  1  0
 15 42  1  0
 16 43  1  0
 18 44  1  0
 18 45  1  0
 22 46  1  0
 22 47  1  0
 24 48  1  0
 25 49  1  0
 26 50  1  0
 27 51  1  0
 28 52  1  0
 29 53  1  0
M  CHG  1  11  -1
M  END
>  <UniqueID>  (36) 
35

>  <SMILES>  (36) 
CC(C)(C)OC(=O)n1c(C([NH-])=O)cc2ccc(CC(=O)OCc3ccccc3)cc21

>  <Energy>  (36) 
83.91628750185484

>  <Genealogy>  (36) 
CC(C)(C)OC(=O)n1c(C([NH-])=O)cc2ccc(CC(=O)OCc3ccccc3)cc21 (protonated)
CC(C)(C)OC(=O)n1c(C([NH-])=O)cc2ccc(CC(=O)OCc3ccccc3)cc21 (3D coordinates assigned)
CC(C)(C)OC(=O)n1c(C([NH-])=O)cc2ccc(CC(=O)OCc3ccccc3)cc21 (optimized conformer: 83.91628750185484 kcal/mol)

>  <smiles>  (36) 
CC(C)(C)OC(=O)n1c(C(N)=O)cc2ccc(CC(=O)OCc3ccccc3)cc21

>  <score_type>  (36) 
oracle

>  <origin>  (36) 
adg

>  <m_score__min__energy>  (36) 
-11.869999999999999

>  <m_primary>  (36) 
energy

$$$$
36:0
     RDKit          3D

 38 40  0  0  0  0  0  0  0  0999 V2000
   -3.8780   25.6530  -30.8470 N   0  0  0  0  0  0  0  0  0  0  0  0
   -5.1940   25.3080  -30.4220 C   0  0  0  0  0  0  0  0  0  0  0  0
   -5.8190   26.0860  -29.6540 O   0  0  0  0  0  0  0  0  0  0  0  0
   -5.8000   24.0360  -30.8650 C   0  0  0  0  0  0  0  0  0  0  0  0
   -7.1710   23.8430  -31.0320 C   0  0  0  0  0  0  0  0  0  0  0  0
   -7.3020   22.5610  -31.5180 C   0  0  0  0  0  0  0  0  0  0  0  0
   -8.4430   21.8400  -31.8550 C   0  0  0  0  0  0  0  0  0  0  0  0
   -8.2790   20.5220  -32.3120 C   0  0  0  0  0  0  0  0  0  0  0  0
   -6.9870   19.9460  -32.4250 C   0  0  0  0  0  0  0  0  0  0  0  0
   -6.8370   18.5160  -32.9110 C   0  0  0  0  0  0  0  0  0  0  0  0
   -5.9210   18.4220  -34.1420 C   0  0  0  0  0  0  0  0  0  0  0  0
   -5.7630   16.9510  -34.5990 C   0  0  0  0  0  0  0  0  0  0  0  0
   -6.2500   16.0120  -33.6510 O   0  0  0  0  0  0  0  0  0  0  0  0
   -5.7200   16.2920  -32.3700 C   0  0  0  0  0  0  0  0  0  0  0  0
   -6.3360   17.5790  -31.7900 C   0  0  0  0  0  0  0  0  0  0  0  0
   -5.8500   20.7150  -32.0720 C   0  0  0  0  0  0  0  0  0  0  0  0
   -6.0480   22.0250  -31.6290 C   0  0  0  0  0  0  0  0  0  0  0  0
   -5.1170   22.9150  -31.2280 N   0  0  0  0  0  0  0  0  0  0  0  0
   -3.7040   22.6810  -31.1600 C   0  0  0  0  0  0  0  0  0  0  0  0
   -3.0390   23.1500  -30.1970 O   0  0  0  0  0  0  0  0  0  0  0  0
   -2.9940   21.9860  -32.2780 C   0  0  0  0  0  0  0  0  0  0  0  0
   -2.4580   20.3790  -31.7320 Cl  0  0  0  0  0  0  0  0  0  0  0  0
   -3.0390   25.2980  -30.3370 H   0  0  0  0  0  0  0  0  0  0  0  0
   -7.9764   24.5617  -30.8206 H   0  0  0  0  0  0  0  0  0  0  0  0
   -9.4435   22.2886  -31.7662 H   0  0  0  0  0  0  0  0  0  0  0  0
   -9.1637   19.9285  -32.5859 H   0  0  0  0  0  0  0  0  0  0  0  0
   -7.8409   18.1807  -33.2107 H   0  0  0  0  0  0  0  0  0  0  0  0
   -6.3584   19.0096  -34.9626 H   0  0  0  0  0  0  0  0  0  0  0  0
   -4.9296   18.8165  -33.8746 H   0  0  0  0  0  0  0  0  0  0  0  0
   -6.3169   16.8164  -35.5398 H   0  0  0  0  0  0  0  0  0  0  0  0
   -4.6862   16.7619  -34.7208 H   0  0  0  0  0  0  0  0  0  0  0  0
   -5.9422   15.4511  -31.6966 H   0  0  0  0  0  0  0  0  0  0  0  0
   -4.6330   16.4332  -32.4624 H   0  0  0  0  0  0  0  0  0  0  0  0
   -7.1834   17.3103  -31.1422 H   0  0  0  0  0  0  0  0  0  0  0  0
   -5.5601   18.1075  -31.2167 H   0  0  0  0  0  0  0  0  0  0  0  0
   -4.8376   20.2912  -32.1450 H   0  0  0  0  0  0  0  0  0  0  0  0
   -3.6772   21.8738  -33.1328 H   0  0  0  0  0  0  0  0  0  0  0  0
   -2.1199   22.5801  -32.5829 H   0  0  0  0  0  0  0  0  0  0  0  0
  1  2  1  0
  2  3  2  0
  2  4  1  0
  4  5  2  0
  5  6  1  0
  6  7  2  0
  7  8  1  0
  8  9  2  0
  9 10  1  0
 10 11  1  0
 11 12  1  0
 12 13  1  0
 13 14  1  0
 14 15  1  0
  9 16  1  0
 16 17  2  0
 17 18  1  0
 18 19  1  0
 19 20  2  0
 19 21  1  0
 21 22  1  0
 18  4  1  0
 17  6  1  0
 15 10  1  0
  1 23  1  0
  5 24  1  0
  7 25  1  0
  8 26  1  0
 10 27  1  0
 11 28  1  0
 11 29  1  0
 12 30  1  0
 12 31  1  0
 14 32  1  0
 14 33  1  0
 15 34  1  0
 15 35  1  0
 16 36  1  0
 21 37  1  0
 21 38  1  0
M  CHG  1   1  -1
M  END
>  <UniqueID>  (37) 
36

>  <SMILES>  (37) 
[NH-]C(=O)c1cc2ccc(C3CCOCC3)cc2n1C(=O)CCl

>  <Energy>  (37) 
84.72519583779591

>  <Genealogy>  (37) 
[NH-]C(=O)c1cc2ccc(C3CCOCC3)cc2n1C(=O)CCl (protonated)
[NH-]C(=O)c1cc2ccc(C3CCOCC3)cc2n1C(=O)CCl (3D coordinates assigned)
[NH-]C(=O)c1cc2ccc(C3CCOCC3)cc2n1C(=O)CCl (nonaromatic ring conformer: 84.72519583779591 kcal/mol)

>  <smiles>  (37) 
NC(=O)c1cc2ccc(C3CCOCC3)cc2n1C(=O)CCl

>  <score_type>  (37) 
oracle

>  <origin>  (37) 
adg

>  <m_score__min__energy>  (37) 
-11.289999999999999

>  <m_primary>  (37) 
energy

$$$$
37:0
     RDKit          3D

 45 46  0  0  0  0  0  0  0  0999 V2000
   -3.8970   22.8650  -28.1090 C   0  0  0  0  0  0  0  0  0  0  0  0
   -3.2170   21.6600  -28.7460 C   0  0  0  0  0  0  0  0  0  0  0  0
   -3.6960   21.4550  -30.0730 O   0  0  0  0  0  0  0  0  0  0  0  0
   -4.0100   22.5000  -30.9510 C   0  0  0  0  0  0  0  0  0  0  0  0
   -3.0990   23.0780  -31.6030 O   0  0  0  0  0  0  0  0  0  0  0  0
   -5.3710   22.9420  -31.0770 N   0  0  0  0  0  0  0  0  0  0  0  0
   -5.8890   24.1630  -30.7610 C   0  0  0  0  0  0  0  0  0  0  0  0
   -5.1130   25.3650  -30.3940 C   0  0  0  0  0  0  0  0  0  0  0  0
   -3.6900   25.2970  -30.3240 N   0  0  0  0  0  0  0  0  0  0  0  0
   -5.6940   26.4440  -30.1050 O   0  0  0  0  0  0  0  0  0  0  0  0
   -7.2770   24.1570  -30.9030 C   0  0  0  0  0  0  0  0  0  0  0  0
   -7.5950   22.8860  -31.3230 C   0  0  0  0  0  0  0  0  0  0  0  0
   -8.8360   22.3150  -31.5890 C   0  0  0  0  0  0  0  0  0  0  0  0
   -8.8740   20.9590  -31.9590 C   0  0  0  0  0  0  0  0  0  0  0  0
   -7.6790   20.2030  -32.0530 C   0  0  0  0  0  0  0  0  0  0  0  0
   -7.7280   18.7480  -32.4460 C   0  0  0  0  0  0  0  0  0  0  0  0
   -6.4870   18.3660  -33.1290 C   0  0  0  0  0  0  0  0  0  0  0  0
   -5.4640   18.1020  -33.7090 C   0  0  0  0  0  0  0  0  0  0  0  0
   -4.1890   17.8190  -34.3910 C   0  0  0  0  0  0  0  0  0  0  0  0
   -3.1010   18.7370  -33.9770 N   0  0  0  0  0  0  0  0  0  0  0  0
   -3.6220   19.9890  -33.4010 C   0  0  0  0  0  0  0  0  0  0  0  0
   -2.1560   18.0890  -33.0470 C   0  0  0  0  0  0  0  0  0  0  0  0
   -6.4360   20.8250  -31.7950 C   0  0  0  0  0  0  0  0  0  0  0  0
   -6.4270   22.1750  -31.4270 C   0  0  0  0  0  0  0  0  0  0  0  0
   -3.8475   22.7773  -27.0136 H   0  0  0  0  0  0  0  0  0  0  0  0
   -3.3851   23.7853  -28.4267 H   0  0  0  0  0  0  0  0  0  0  0  0
   -4.9495   22.9025  -28.4267 H   0  0  0  0  0  0  0  0  0  0  0  0
   -2.1310   21.8324  -28.7766 H   0  0  0  0  0  0  0  0  0  0  0  0
   -3.4446   20.7668  -28.1456 H   0  0  0  0  0  0  0  0  0  0  0  0
   -3.1150   25.2280  -31.1920 H   0  0  0  0  0  0  0  0  0  0  0  0
   -7.9698   24.9912  -30.7184 H   0  0  0  0  0  0  0  0  0  0  0  0
   -9.7599   22.9070  -31.5121 H   0  0  0  0  0  0  0  0  0  0  0  0
   -9.8401   20.4806  -32.1775 H   0  0  0  0  0  0  0  0  0  0  0  0
   -7.8505   18.1316  -31.5432 H   0  0  0  0  0  0  0  0  0  0  0  0
   -8.5767   18.5885  -33.1274 H   0  0  0  0  0  0  0  0  0  0  0  0
   -3.8867   16.7875  -34.1574 H   0  0  0  0  0  0  0  0  0  0  0  0
   -4.3510   17.9619  -35.4696 H   0  0  0  0  0  0  0  0  0  0  0  0
   -2.5640   18.9900  -34.8410 H   0  0  0  0  0  0  0  0  0  0  0  0
   -3.5959   19.9262  -32.3031 H   0  0  0  0  0  0  0  0  0  0  0  0
   -3.0003   20.8328  -33.7349 H   0  0  0  0  0  0  0  0  0  0  0  0
   -4.6588   20.1427  -33.7349 H   0  0  0  0  0  0  0  0  0  0  0  0
   -2.4602   18.2976  -32.0107 H   0  0  0  0  0  0  0  0  0  0  0  0
   -2.1596   17.0025  -33.2186 H   0  0  0  0  0  0  0  0  0  0  0  0
   -1.1438   18.4839  -33.2186 H   0  0  0  0  0  0  0  0  0  0  0  0
   -5.4962   20.2600  -31.8817 H   0  0  0  0  0  0  0  0  0  0  0  0
  1  2  1  0
  2  3  1  0
  3  4  1  0
  4  5  2  0
  4  6  1  0
  6  7  1  0
  7  8  1  0
  8  9  1  0
  8 10  2  0
  7 11  2  0
 11 12  1  0
 12 13  2  0
 13 14  1  0
 14 15  2  0
 15 16  1  0
 16 17  1  0
 17 18  3  0
 18 19  1  0
 19 20  1  0
 20 21  1  0
 20 22  1  0
 15 23  1  0
 23 24  2  0
 24  6  1  0
 24 12  1  0
  1 25  1  0
  1 26  1  0
  1 27  1  0
  2 28  1  0
  2 29  1  0
  9 30  1  0
 11 31  1  0
 13 32  1  0
 14 33  1  0
 16 34  1  0
 16 35  1  0
 19 36  1  0
 19 37  1  0
 20 38  1  0
 21 39  1  0
 21 40  1  0
 21 41  1  0
 22 42  1  0
 22 43  1  0
 22 44  1  0
 23 45  1  0
M  CHG  2   9  -1  20   1
M  END
>  <UniqueID>  (38) 
37

>  <SMILES>  (38) 
CCOC(=O)n1c(C([NH-])=O)cc2ccc(CC#CC[NH+](C)C)cc21

>  <Energy>  (38) 
74.4743244605661

>  <Genealogy>  (38) 
CCOC(=O)n1c(C([NH-])=O)cc2ccc(CC#CC[NH+](C)C)cc21 (protonated)
CCOC(=O)n1c(C([NH-])=O)cc2ccc(CC#CC[NH+](C)C)cc21 (3D coordinates assigned)
CCOC(=O)n1c(C([NH-])=O)cc2ccc(CC#CC[NH+](C)C)cc21 (optimized conformer: 74.4743244605661 kcal/mol)

>  <smiles>  (38) 
CCOC(=O)n1c(C(N)=O)cc2ccc(CC#CCN(C)C)cc21

>  <score_type>  (38) 
oracle

>  <origin>  (38) 
adg

>  <m_score__min__energy>  (38) 
-9.8499999999999996

>  <m_primary>  (38) 
energy

$$$$
38:0
     RDKit          3D

 47 49  0  0  0  0  0  0  0  0999 V2000
   -7.1050   18.4410  -33.1040 C   0  0  0  0  0  0  0  0  0  0  0  0
   -7.2080   19.8150  -32.5140 C   0  0  0  0  0  0  0  0  0  0  0  0
   -8.4670   20.4600  -32.4300 C   0  0  0  0  0  0  0  0  0  0  0  0
   -8.5730   21.7580  -31.9020 C   0  0  0  0  0  0  0  0  0  0  0  0
   -7.4050   22.3890  -31.4870 C   0  0  0  0  0  0  0  0  0  0  0  0
   -7.2220   23.6340  -30.9280 C   0  0  0  0  0  0  0  0  0  0  0  0
   -5.8490   23.7450  -30.7140 C   0  0  0  0  0  0  0  0  0  0  0  0
   -5.2010   24.9730  -30.2060 C   0  0  0  0  0  0  0  0  0  0  0  0
   -3.8790   25.3020  -30.6230 N   0  0  0  0  0  0  0  0  0  0  0  0
   -5.7900   25.7170  -29.3780 O   0  0  0  0  0  0  0  0  0  0  0  0
   -5.2090   22.6100  -31.1170 N   0  0  0  0  0  0  0  0  0  0  0  0
   -3.8100   22.3060  -31.0210 C   0  0  0  0  0  0  0  0  0  0  0  0
   -2.9620   23.0550  -31.5790 O   0  0  0  0  0  0  0  0  0  0  0  0
   -3.3930   21.1900  -30.2860 O   0  0  0  0  0  0  0  0  0  0  0  0
   -2.1040   21.0810  -29.6840 C   0  0  0  0  0  0  0  0  0  0  0  0
   -1.9860   22.0010  -28.4510 C   0  0  2  0  0  0  0  0  0  0  0  0
   -3.2600   21.9450  -27.5680 C   0  0  0  0  0  0  0  0  0  0  0  0
   -4.2180   23.1020  -27.8850 C   0  0  0  0  0  0  0  0  0  0  0  0
   -3.5960   24.4400  -27.6690 N   0  0  1  0  0  0  0  0  0  0  0  0
   -3.9600   24.9840  -26.3490 C   0  0  0  0  0  0  0  0  0  0  0  0
   -2.1180   24.4530  -27.8350 C   0  0  0  0  0  0  0  0  0  0  0  0
   -1.6550   23.4450  -28.8930 C   0  0  0  0  0  0  0  0  0  0  0  0
   -6.1740   21.7920  -31.5920 C   0  0  0  0  0  0  0  0  0  0  0  0
   -6.0420   20.4940  -32.0960 C   0  0  0  0  0  0  0  0  0  0  0  0
   -7.0493   17.6978  -32.2950 H   0  0  0  0  0  0  0  0  0  0  0  0
   -7.9907   18.2413  -33.7250 H   0  0  0  0  0  0  0  0  0  0  0  0
   -6.1994   18.3756  -33.7250 H   0  0  0  0  0  0  0  0  0  0  0  0
   -9.3701   19.9396  -32.7815 H   0  0  0  0  0  0  0  0  0  0  0  0
   -9.5488   22.2591  -31.8195 H   0  0  0  0  0  0  0  0  0  0  0  0
   -7.9951   24.3822  -30.6989 H   0  0  0  0  0  0  0  0  0  0  0  0
   -3.0540   24.7750  -30.2580 H   0  0  0  0  0  0  0  0  0  0  0  0
   -1.9406   20.0391  -29.3715 H   0  0  0  0  0  0  0  0  0  0  0  0
   -1.3475   21.3872  -30.4215 H   0  0  0  0  0  0  0  0  0  0  0  0
   -1.1577   21.6356  -27.8262 H   0  0  0  0  0  0  0  0  0  0  0  0
   -3.7786   20.9921  -27.7495 H   0  0  0  0  0  0  0  0  0  0  0  0
   -2.9532   22.0307  -26.5151 H   0  0  0  0  0  0  0  0  0  0  0  0
   -4.5280   23.0238  -28.9375 H   0  0  0  0  0  0  0  0  0  0  0  0
   -5.0756   23.0200  -27.2011 H   0  0  0  0  0  0  0  0  0  0  0  0
   -3.9990   25.0910  -28.3850 H   0  0  0  0  0  0  0  0  0  0  0  0
   -3.5339   24.3472  -25.5598 H   0  0  0  0  0  0  0  0  0  0  0  0
   -3.5625   26.0050  -26.2509 H   0  0  0  0  0  0  0  0  0  0  0  0
   -5.0554   25.0060  -26.2509 H   0  0  0  0  0  0  0  0  0  0  0  0
   -1.8030   25.4613  -28.1419 H   0  0  0  0  0  0  0  0  0  0  0  0
   -1.6635   24.1724  -26.8734 H   0  0  0  0  0  0  0  0  0  0  0  0
   -2.1661   23.6582  -29.8435 H   0  0  0  0  0  0  0  0  0  0  0  0
   -0.5659   23.5368  -29.0174 H   0  0  0  0  0  0  0  0  0  0  0  0
   -5.0547   20.0139  -32.1652 H   0  0  0  0  0  0  0  0  0  0  0  0
  1  2  1  0
  2  3  2  0
  3  4  1  0
  4  5  2  0
  5  6  1  0
  6  7  2  0
  7  8  1  0
  8  9  1  0
  8 10  2  0
  7 11  1  0
 11 12  1  0
 12 13  2  0
 12 14  1  0
 14 15  1  0
 15 16  1  0
 16 17  1  0
 17 18  1  0
 18 19  1  0
 19 20  1  0
 19 21  1  0
 21 22  1  0
 11 23  1  0
 23 24  2  0
 24  2  1  0
 23  5  1  0
 22 16  1  0
  1 25  1  0
  1 26  1  0
  1 27  1  0
  3 28  1  0
  4 29  1  0
  6 30  1  0
  9 31  1  0
 15 32  1  0
 15 33  1  0
 16 34  1  1
 17 35  1  0
 17 36  1  0
 18 37  1  0
 18 38  1  0
 19 39  1  6
 20 40  1  0
 20 41  1  0
 20 42  1  0
 21 43  1  0
 21 44  1  0
 22 45  1  0
 22 46  1  0
 24 47  1  0
M  CHG  2   9  -1  19   1
M  END
>  <UniqueID>  (39) 
38

>  <SMILES>  (39) 
Cc1ccc2cc(C([NH-])=O)n(C(=O)OCC3CC[NH+](C)CC3)c2c1

>  <Energy>  (39) 
90.8787448979057

>  <Genealogy>  (39) 
Cc1ccc2cc(C([NH-])=O)n(C(=O)OCC3CC[NH+](C)CC3)c2c1 (protonated)
Cc1ccc2cc(C([NH-])=O)n(C(=O)OCC3CC[NH+](C)CC3)c2c1 (3D coordinates assigned)
Cc1ccc2cc(C([NH-])=O)n(C(=O)OCC3CC[NH+](C)CC3)c2c1 (nonaromatic ring conformer: 90.8787448979057 kcal/mol)

>  <smiles>  (39) 
Cc1ccc2cc(C(N)=O)n(C(=O)OCC3CCN(C)CC3)c2c1

>  <score_type>  (39) 
oracle

>  <origin>  (39) 
adg

>  <m_score__min__energy>  (39) 
-10.25

>  <m_primary>  (39) 
energy

$$$$
39:0
     RDKit          3D

 29 30  0  0  0  0  0  0  0  0999 V2000
   -5.6150   19.2780  -34.1660 C   0  0  0  0  0  0  0  0  0  0  0  0
   -5.9010   19.9910  -32.8380 C   0  0  1  0  0  0  0  0  0  0  0  0
   -6.6420   19.1030  -31.8740 C   0  0  0  0  0  0  0  0  0  0  0  0
   -6.0350   18.2250  -31.2060 O   0  0  0  0  0  0  0  0  0  0  0  0
   -8.0060   19.2870  -31.6790 O   0  0  0  0  0  0  0  0  0  0  0  0
   -4.6270   20.5150  -32.2070 C   0  0  0  0  0  0  0  0  0  0  0  0
   -3.4430   19.7340  -32.2550 C   0  0  0  0  0  0  0  0  0  0  0  0
   -2.2470   20.2030  -31.6860 C   0  0  0  0  0  0  0  0  0  0  0  0
   -2.2630   21.4490  -31.0680 C   0  0  0  0  0  0  0  0  0  0  0  0
   -1.2460   22.1500  -30.4640 C   0  0  0  0  0  0  0  0  0  0  0  0
   -1.8240   23.3410  -30.0300 C   0  0  0  0  0  0  0  0  0  0  0  0
   -1.0940   24.3570  -29.2440 C   0  0  0  0  0  0  0  0  0  0  0  0
   -1.6810   25.6250  -28.9600 N   0  0  0  0  0  0  0  0  0  0  0  0
    0.0430   24.0840  -28.7720 O   0  0  0  0  0  0  0  0  0  0  0  0
   -3.1450   23.3800  -30.3610 N   0  0  0  0  0  0  0  0  0  0  0  0
   -4.0650   24.4690  -30.1770 C   0  0  0  0  0  0  0  0  0  0  0  0
   -5.0730   24.3320  -29.4360 O   0  0  0  0  0  0  0  0  0  0  0  0
   -3.8640   25.6750  -30.8370 O   0  0  0  0  0  0  0  0  0  0  0  0
   -3.4000   22.2120  -30.9940 C   0  0  0  0  0  0  0  0  0  0  0  0
   -4.6010   21.7790  -31.5680 C   0  0  0  0  0  0  0  0  0  0  0  0
   -5.2124   18.2744  -33.9641 H   0  0  0  0  0  0  0  0  0  0  0  0
   -6.5473   19.1898  -34.7430 H   0  0  0  0  0  0  0  0  0  0  0  0
   -4.8802   19.8586  -34.7430 H   0  0  0  0  0  0  0  0  0  0  0  0
   -6.5490   20.8492  -33.0694 H   0  0  0  0  0  0  0  0  0  0  0  0
   -3.4619   18.7488  -32.7440 H   0  0  0  0  0  0  0  0  0  0  0  0
   -1.3260   19.6030  -31.7280 H   0  0  0  0  0  0  0  0  0  0  0  0
   -0.1979   21.8368  -30.3480 H   0  0  0  0  0  0  0  0  0  0  0  0
   -2.7160   25.7590  -29.0090 H   0  0  0  0  0  0  0  0  0  0  0  0
   -5.5038   22.4058  -31.5239 H   0  0  0  0  0  0  0  0  0  0  0  0
  1  2  1  0
  2  3  1  0
  3  4  2  0
  3  5  1  0
  2  6  1  0
  6  7  2  0
  7  8  1  0
  8  9  2  0
  9 10  1  0
 10 11  2  0
 11 12  1  0
 12 13  1  0
 12 14  2  0
 11 15  1  0
 15 16  1  0
 16 17  2  0
 16 18  1  0
 15 19  1  0
 19 20  2  0
 20  6  1  0
 19  9  1  0
  1 21  1  0
  1 22  1  0
  1 23  1  0
  2 24  1  6
  7 25  1  0
  8 26  1  0
 10 27  1  0
 13 28  1  0
 20 29  1  0
M  CHG  3   5  -1  13  -1  18  -1
M  END
>  <UniqueID>  (40) 
39

>  <SMILES>  (40) 
C[C@@H](C(=O)[O-])c1ccc2cc(C([NH-])=O)n(C(=O)[O-])c2c1

>  <Energy>  (40) 
68.05490875715299

>  <Genealogy>  (40) 
CC(C(=O)[O-])c1ccc2cc(C([NH-])=O)n(C(=O)[O-])c2c1 (protonated)
C[C@@H](C(=O)[O-])c1ccc2cc(C([NH-])=O)n(C(=O)[O-])c2c1 (chirality)
C[C@@H](C(=O)[O-])c1ccc2cc(C([NH-])=O)n(C(=O)[O-])c2c1 (3D coordinates assigned)
C[C@@H](C(=O)[O-])c1ccc2cc(C([NH-])=O)n(C(=O)[O-])c2c1 (optimized conformer: 68.05490875715299 kcal/mol)

>  <smiles>  (40) 
CC(C(=O)O)c1ccc2cc(C(N)=O)n(C(=O)O)c2c1

>  <score_type>  (40) 
oracle

>  <origin>  (40) 
adg

>  <m_score__min__energy>  (40) 
-10.19

>  <m_primary>  (40) 
energy

$$$$
40:0
     RDKit          3D

 40 42  0  0  0  0  0  0  0  0999 V2000
   -7.2190   17.0910  -33.4400 C   0  0  0  0  0  0  0  0  0  0  0  0
   -7.0780   18.5260  -33.1460 N   0  0  1  0  0  0  0  0  0  0  0  0
   -6.8470   18.7750  -31.7110 C   0  0  0  0  0  0  0  0  0  0  0  0
   -5.8260   19.9110  -31.5940 C   0  0  0  0  0  0  0  0  0  0  0  0
   -5.0480   19.9190  -32.9200 C   0  0  1  0  0  0  0  0  0  0  0  0
   -4.9850   21.2240  -33.4410 O   0  0  0  0  0  0  0  0  0  0  0  0
   -3.6140   19.3270  -32.8080 C   0  0  0  0  0  0  0  0  0  0  0  0
   -2.6640   20.1390  -31.9580 C   0  0  0  0  0  0  0  0  0  0  0  0
   -1.3540   19.6660  -31.6930 C   0  0  0  0  0  0  0  0  0  0  0  0
   -0.4630   20.4220  -30.9140 C   0  0  0  0  0  0  0  0  0  0  0  0
   -0.9060   21.6430  -30.4150 C   0  0  0  0  0  0  0  0  0  0  0  0
   -0.2580   22.5650  -29.6260 C   0  0  0  0  0  0  0  0  0  0  0  0
   -1.1750   23.5950  -29.4310 C   0  0  0  0  0  0  0  0  0  0  0  0
   -0.8510   24.8430  -28.7100 C   0  0  0  0  0  0  0  0  0  0  0  0
   -1.6010   26.0350  -28.9320 N   0  0  0  0  0  0  0  0  0  0  0  0
    0.1340   24.8720  -27.9240 O   0  0  0  0  0  0  0  0  0  0  0  0
   -2.3500   23.3160  -30.0640 N   0  0  0  0  0  0  0  0  0  0  0  0
   -3.5650   24.0820  -30.0420 C   0  0  0  0  0  0  0  0  0  0  0  0
   -4.5550   23.6850  -29.3750 O   0  0  0  0  0  0  0  0  0  0  0  0
   -3.6480   25.2840  -30.7350 O   0  0  0  0  0  0  0  0  0  0  0  0
   -2.1670   22.1180  -30.6630 C   0  0  0  0  0  0  0  0  0  0  0  0
   -3.0830   21.3750  -31.4170 C   0  0  0  0  0  0  0  0  0  0  0  0
   -5.9340   19.0980  -33.7950 C   0  0  0  0  0  0  0  0  0  0  0  0
   -5.7470   18.9890  -34.9990 O   0  0  0  0  0  0  0  0  0  0  0  0
   -7.2744   16.5272  -32.4971 H   0  0  0  0  0  0  0  0  0  0  0  0
   -8.1378   16.9244  -34.0213 H   0  0  0  0  0  0  0  0  0  0  0  0
   -6.3502   16.7487  -34.0213 H   0  0  0  0  0  0  0  0  0  0  0  0
   -7.9350   19.0360  -33.4660 H   0  0  0  0  0  0  0  0  0  0  0  0
   -7.7896   19.0669  -31.2249 H   0  0  0  0  0  0  0  0  0  0  0  0
   -6.4708   17.8665  -31.2180 H   0  0  0  0  0  0  0  0  0  0  0  0
   -6.3393   20.8726  -31.4461 H   0  0  0  0  0  0  0  0  0  0  0  0
   -5.1558   19.7637  -30.7343 H   0  0  0  0  0  0  0  0  0  0  0  0
   -5.1760   21.1640  -34.4150 H   0  0  0  0  0  0  0  0  0  0  0  0
   -3.6912   18.3206  -32.3708 H   0  0  0  0  0  0  0  0  0  0  0  0
   -3.1972   19.3236  -33.8260 H   0  0  0  0  0  0  0  0  0  0  0  0
   -1.0322   18.6968  -32.1018 H   0  0  0  0  0  0  0  0  0  0  0  0
    0.5544   20.0598  -30.7046 H   0  0  0  0  0  0  0  0  0  0  0  0
    0.7673   22.5021  -29.2325 H   0  0  0  0  0  0  0  0  0  0  0  0
   -2.6440   26.0130  -28.9690 H   0  0  0  0  0  0  0  0  0  0  0  0
   -4.1053   21.7449  -31.5844 H   0  0  0  0  0  0  0  0  0  0  0  0
  1  2  1  0
  2  3  1  0
  3  4  1  0
  4  5  1  0
  5  6  1  6
  5  7  1  0
  7  8  1  0
  8  9  2  0
  9 10  1  0
 10 11  2  0
 11 12  1  0
 12 13  2  0
 13 14  1  0
 14 15  1  0
 14 16  2  0
 13 17  1  0
 17 18  1  0
 18 19  2  0
 18 20  1  0
 17 21  1  0
 21 22  2  0
  5 23  1  0
 23 24  2  0
 23  2  1  0
 22  8  1  0
 21 11  1  0
  1 25  1  0
  1 26  1  0
  1 27  1  0
  2 28  1  6
  3 29  1  0
  3 30  1  0
  4 31  1  0
  4 32  1  0
  6 33  1  0
  7 34  1  0
  7 35  1  0
  9 36  1  0
 10 37  1  0
 12 38  1  0
 15 39  1  0
 22 40  1  0
M  CHG  3   2   1  15  -1  20  -1
M  END
>  <UniqueID>  (41) 
40

>  <SMILES>  (41) 
C[N@H+]1CC[C@@](O)(Cc2ccc3cc(C([NH-])=O)n(C(=O)[O-])c3c2)C1=O

>  <Energy>  (41) 
83.48007571101074

>  <Genealogy>  (41) 
C[NH+]1CCC(O)(Cc2ccc3cc(C([NH-])=O)n(C(=O)[O-])c3c2)C1=O (protonated)
C[N@H+]1CC[C@@](O)(Cc2ccc3cc(C([NH-])=O)n(C(=O)[O-])c3c2)C1=O (chirality)
C[N@H+]1CC[C@@](O)(Cc2ccc3cc(C([NH-])=O)n(C(=O)[O-])c3c2)C1=O (3D coordinates assigned)
C[N@H+]1CC[C@@](O)(Cc2ccc3cc(C([NH-])=O)n(C(=O)[O-])c3c2)C1=O (nonaromatic ring conformer: 83.48007571101074 kcal/mol)

>  <smiles>  (41) 
CN1CCC(O)(Cc2ccc3cc(C(N)=O)n(C(=O)O)c3c2)C1=O

>  <score_type>  (41) 
oracle

>  <origin>  (41) 
adg

>  <m_score__min__energy>  (41) 
-11.09

>  <m_primary>  (41) 
energy

$$$$
41:0
     RDKit          3D

 49 51  0  0  0  0  0  0  0  0999 V2000
   -3.3290   15.4820  -33.6910 C   0  0  0  0  0  0  0  0  0  0  0  0
   -4.2470   16.5680  -33.3150 N   0  0  0  0  0  0  0  0  0  0  0  0
   -4.7980   17.2230  -34.5260 C   0  0  0  0  0  0  0  0  0  0  0  0
   -6.0950   18.0120  -34.2460 C   0  0  0  0  0  0  0  0  0  0  0  0
   -6.2160   18.3310  -32.8180 N   0  0  0  0  0  0  0  0  0  0  0  0
   -6.5530   19.6630  -32.3830 C   0  0  0  0  0  0  0  0  0  0  0  0
   -7.8950   20.1200  -32.4530 C   0  0  0  0  0  0  0  0  0  0  0  0
   -8.2330   21.4230  -32.0500 C   0  0  0  0  0  0  0  0  0  0  0  0
   -7.2140   22.2480  -31.5860 C   0  0  0  0  0  0  0  0  0  0  0  0
   -7.2540   23.5530  -31.1470 C   0  0  0  0  0  0  0  0  0  0  0  0
   -5.9380   23.8710  -30.8140 C   0  0  0  0  0  0  0  0  0  0  0  0
   -5.5180   25.1660  -30.2420 C   0  0  0  0  0  0  0  0  0  0  0  0
   -4.2090   25.6690  -30.5040 N   0  0  0  0  0  0  0  0  0  0  0  0
   -6.3070   25.8420  -29.5310 O   0  0  0  0  0  0  0  0  0  0  0  0
   -5.1210   22.8070  -31.0480 N   0  0  0  0  0  0  0  0  0  0  0  0
   -3.7010   22.7280  -30.8580 C   0  0  0  0  0  0  0  0  0  0  0  0
   -2.9380   22.9140  -31.8450 O   0  0  0  0  0  0  0  0  0  0  0  0
   -3.1490   22.4840  -29.5530 N   0  0  0  0  0  0  0  0  0  0  0  0
   -3.1160   21.1240  -29.0160 C   0  0  0  0  0  0  0  0  0  0  0  0
   -2.6850   23.8180  -28.5380 S   0  0  0  0  0  0  0  0  0  0  0  0
   -1.6810   23.2200  -27.1990 C   0  0  0  0  0  0  0  0  0  0  0  0
   -1.9060   24.8240  -29.3390 O   0  0  0  0  0  0  0  0  0  0  0  0
   -3.9120   24.4910  -27.9890 O   0  0  0  0  0  0  0  0  0  0  0  0
   -5.9140   21.8220  -31.5130 C   0  0  0  0  0  0  0  0  0  0  0  0
   -5.5450   20.5350  -31.9120 C   0  0  0  0  0  0  0  0  0  0  0  0
   -6.0740   17.2480  -31.8350 C   0  0  0  0  0  0  0  0  0  0  0  0
   -5.3190   16.0600  -32.4410 C   0  0  0  0  0  0  0  0  0  0  0  0
   -2.9290   15.0088  -32.7821 H   0  0  0  0  0  0  0  0  0  0  0  0
   -3.8716   14.7327  -34.2861 H   0  0  0  0  0  0  0  0  0  0  0  0
   -2.4998   15.8923  -34.2861 H   0  0  0  0  0  0  0  0  0  0  0  0
   -4.0434   17.9180  -34.9230 H   0  0  0  0  0  0  0  0  0  0  0  0
   -5.0440   16.4295  -35.2470 H   0  0  0  0  0  0  0  0  0  0  0  0
   -6.0792   18.9478  -34.8240 H   0  0  0  0  0  0  0  0  0  0  0  0
   -6.9543   17.3922  -34.5418 H   0  0  0  0  0  0  0  0  0  0  0  0
   -8.6798   19.4461  -32.8272 H   0  0  0  0  0  0  0  0  0  0  0  0
   -9.2723   21.7798  -32.1000 H   0  0  0  0  0  0  0  0  0  0  0  0
   -8.1366   24.2055  -31.0746 H   0  0  0  0  0  0  0  0  0  0  0  0
   -3.4800   25.6840  -29.7570 H   0  0  0  0  0  0  0  0  0  0  0  0
   -3.1170   21.1637  -27.9167 H   0  0  0  0  0  0  0  0  0  0  0  0
   -4.0010   20.5709  -29.3637 H   0  0  0  0  0  0  0  0  0  0  0  0
   -2.2052   20.6145  -29.3637 H   0  0  0  0  0  0  0  0  0  0  0  0
   -2.1452   23.4965  -26.2408 H   0  0  0  0  0  0  0  0  0  0  0  0
   -1.5978   22.1251  -27.2637 H   0  0  0  0  0  0  0  0  0  0  0  0
   -0.6786   23.6683  -27.2637 H   0  0  0  0  0  0  0  0  0  0  0  0
   -4.4959   20.2082  -31.8609 H   0  0  0  0  0  0  0  0  0  0  0  0
   -5.5173   17.6226  -30.9633 H   0  0  0  0  0  0  0  0  0  0  0  0
   -7.0768   16.9119  -31.5327 H   0  0  0  0  0  0  0  0  0  0  0  0
   -4.8811   15.4518  -31.6358 H   0  0  0  0  0  0  0  0  0  0  0  0
   -6.0126   15.4386  -33.0265 H   0  0  0  0  0  0  0  0  0  0  0  0
  1  2  1  0
  2  3  1  0
  3  4  1  0
  4  5  1  0
  5  6  1  0
  6  7  2  0
  7  8  1  0
  8  9  2  0
  9 10  1  0
 10 11  2  0
 11 12  1  0
 12 13  1  0
 12 14  2  0
 11 15  1  0
 15 16  1  0
 16 17  2  0
 16 18  1  0
 18 19  1  0
 18 20  1  0
 20 21  1  0
 20 22  2  0
 20 23  2  0
 15 24  1  0
 24 25  2  0
  5 26  1  0
 26 27  1  0
 27  2  1  0
 25  6  1  0
 24  9  1  0
  1 28  1  0
  1 29  1  0
  1 30  1  0
  3 31  1  0
  3 32  1  0
  4 33  1  0
  4 34  1  0
  7 35  1  0
  8 36  1  0
 10 37  1  0
 13 38  1  0
 19 39  1  0
 19 40  1  0
 19 41  1  0
 21 42  1  0
 21 43  1  0
 21 44  1  0
 25 45  1  0
 26 46  1  0
 26 47  1  0
 27 48  1  0
 27 49  1  0
M  CHG  1  13  -1
M  END
>  <UniqueID>  (42) 
41

>  <SMILES>  (42) 
CN1CCN(c2ccc3cc(C([NH-])=O)n(C(=O)N(C)S(C)(=O)=O)c3c2)CC1

>  <Energy>  (42) 
93.88015044840208

>  <Genealogy>  (42) 
CN1CCN(c2ccc3cc(C([NH-])=O)n(C(=O)N(C)S(C)(=O)=O)c3c2)CC1 (protonated)
CN1CCN(c2ccc3cc(C([NH-])=O)n(C(=O)N(C)S(C)(=O)=O)c3c2)CC1 (3D coordinates assigned)
CN1CCN(c2ccc3cc(C([NH-])=O)n(C(=O)N(C)S(C)(=O)=O)c3c2)CC1 (nonaromatic ring conformer: 93.88015044840208 kcal/mol)

>  <smiles>  (42) 
CN1CCN(c2ccc3cc(C(N)=O)n(C(=O)N(C)S(C)(=O)=O)c3c2)CC1

>  <score_type>  (42) 
oracle

>  <origin>  (42) 
adg

>  <m_score__min__energy>  (42) 
-11.19

>  <m_primary>  (42) 
energy

$$$$
42:0
     RDKit          3D

 45 46  0  0  0  0  0  0  0  0999 V2000
   -1.2190   26.0500  -27.9320 C   0  0  0  0  0  0  0  0  0  0  0  0
   -1.7550   25.2690  -28.9760 O   0  0  0  0  0  0  0  0  0  0  0  0
   -1.7770   23.8990  -28.6130 C   0  0  0  0  0  0  0  0  0  0  0  0
   -2.9550   23.2010  -29.2830 C   0  0  0  0  0  0  0  0  0  0  0  0
   -2.8780   23.3790  -30.6930 O   0  0  0  0  0  0  0  0  0  0  0  0
   -3.7670   22.7740  -31.5860 C   0  0  0  0  0  0  0  0  0  0  0  0
   -3.3280   22.1270  -32.5770 O   0  0  0  0  0  0  0  0  0  0  0  0
   -5.1820   22.9040  -31.3800 N   0  0  0  0  0  0  0  0  0  0  0  0
   -5.8620   24.0130  -30.9700 C   0  0  0  0  0  0  0  0  0  0  0  0
   -5.2610   25.2680  -30.4760 C   0  0  0  0  0  0  0  0  0  0  0  0
   -3.9560   25.6670  -30.8860 N   0  0  0  0  0  0  0  0  0  0  0  0
   -5.8870   25.9720  -29.6390 O   0  0  0  0  0  0  0  0  0  0  0  0
   -7.2370   23.7860  -31.0060 C   0  0  0  0  0  0  0  0  0  0  0  0
   -7.3810   22.4910  -31.4440 C   0  0  0  0  0  0  0  0  0  0  0  0
   -8.5360   21.7490  -31.6770 C   0  0  0  0  0  0  0  0  0  0  0  0
   -8.3910   20.4390  -32.1640 C   0  0  0  0  0  0  0  0  0  0  0  0
   -7.1050   19.9080  -32.4150 C   0  0  0  0  0  0  0  0  0  0  0  0
   -6.9710   18.5700  -32.9270 C   0  0  0  0  0  0  0  0  0  0  0  0
   -6.8590   17.4480  -33.3540 C   0  0  0  0  0  0  0  0  0  0  0  0
   -6.7180   16.0850  -33.8770 C   0  0  0  0  0  0  0  0  0  0  0  0
   -5.3060   15.7280  -33.9770 N   0  0  0  0  0  0  0  0  0  0  0  0
   -4.4860   15.4910  -32.8270 C   0  0  0  0  0  0  0  0  0  0  0  0
   -4.9770   15.5740  -31.6670 O   0  0  0  0  0  0  0  0  0  0  0  0
   -3.1380   15.1670  -33.0040 O   0  0  0  0  0  0  0  0  0  0  0  0
   -2.1220   16.1560  -33.1270 C   0  0  0  0  0  0  0  0  0  0  0  0
   -5.9550   20.6840  -32.1700 C   0  0  0  0  0  0  0  0  0  0  0  0
   -6.1270   21.9800  -31.6650 C   0  0  0  0  0  0  0  0  0  0  0  0
   -1.5142   25.6199  -26.9636 H   0  0  0  0  0  0  0  0  0  0  0  0
   -0.1218   26.0616  -28.0089 H   0  0  0  0  0  0  0  0  0  0  0  0
   -1.6028   27.0780  -28.0089 H   0  0  0  0  0  0  0  0  0  0  0  0
   -0.8397   23.4217  -28.9350 H   0  0  0  0  0  0  0  0  0  0  0  0
   -1.8818   23.8164  -27.5211 H   0  0  0  0  0  0  0  0  0  0  0  0
   -2.9258   22.1269  -29.0477 H   0  0  0  0  0  0  0  0  0  0  0  0
   -3.8952   23.6346  -28.9114 H   0  0  0  0  0  0  0  0  0  0  0  0
   -3.1050   25.3010  -30.4050 H   0  0  0  0  0  0  0  0  0  0  0  0
   -8.0368   24.4930  -30.7404 H   0  0  0  0  0  0  0  0  0  0  0  0
   -9.5317   22.1755  -31.4856 H   0  0  0  0  0  0  0  0  0  0  0  0
   -9.2831   19.8232  -32.3510 H   0  0  0  0  0  0  0  0  0  0  0  0
   -7.2237   15.3815  -33.1993 H   0  0  0  0  0  0  0  0  0  0  0  0
   -7.1730   16.0350  -34.8772 H   0  0  0  0  0  0  0  0  0  0  0  0
   -4.8620   15.6930  -34.9220 H   0  0  0  0  0  0  0  0  0  0  0  0
   -1.7960   16.4733  -32.1255 H   0  0  0  0  0  0  0  0  0  0  0  0
   -1.2659   15.7360  -33.6753 H   0  0  0  0  0  0  0  0  0  0  0  0
   -2.5188   17.0231  -33.6753 H   0  0  0  0  0  0  0  0  0  0  0  0
   -4.9500   20.2838  -32.3695 H   0  0  0  0  0  0  0  0  0  0  0  0
  1  2  1  0
  2  3  1  0
  3  4  1  0
  4  5  1  0
  5  6  1  0
  6  7  2  0
  6  8  1  0
  8  9  1  0
  9 10  1  0
 10 11  1  0
 10 12  2  0
  9 13  2  0
 13 14  1  0
 14 15  2  0
 15 16  1  0
 16 17  2  0
 17 18  1  0
 18 19  3  0
 19 20  1  0
 20 21  1  0
 21 22  1  0
 22 23  2  0
 22 24  1  0
 24 25  1  0
 17 26  1  0
 26 27  2  0
 27  8  1  0
 27 14  1  0
  1 28  1  0
  1 29  1  0
  1 30  1  0
  3 31  1  0
  3 32  1  0
  4 33  1  0
  4 34  1  0
 11 35  1  0
 13 36  1  0
 15 37  1  0
 16 38  1  0
 20 39  1  0
 20 40  1  0
 21 41  1  0
 25 42  1  0
 25 43  1  0
 25 44  1  0
 26 45  1  0
M  CHG  1  11  -1
M  END
>  <UniqueID>  (43) 
42

>  <SMILES>  (43) 
COCCOC(=O)n1c(C([NH-])=O)cc2ccc(C#CCNC(=O)OC)cc21

>  <Energy>  (43) 
72.14844379622971

>  <Genealogy>  (43) 
COCCOC(=O)n1c(C([NH-])=O)cc2ccc(C#CCNC(=O)OC)cc21 (protonated)
COCCOC(=O)n1c(C([NH-])=O)cc2ccc(C#CCNC(=O)OC)cc21 (3D coordinates assigned)
COCCOC(=O)n1c(C([NH-])=O)cc2ccc(C#CCNC(=O)OC)cc21 (optimized conformer: 72.14844379622971 kcal/mol)

>  <smiles>  (43) 
COCCOC(=O)n1c(C(N)=O)cc2ccc(C#CCNC(=O)OC)cc21

>  <score_type>  (43) 
oracle

>  <origin>  (43) 
adg

>  <m_score__min__energy>  (43) 
-10.26

>  <m_primary>  (43) 
energy

$$$$
43:0
     RDKit          3D

 41 43  0  0  0  0  0  0  0  0999 V2000
   -6.0900   17.6770  -31.2910 C   0  0  0  0  0  0  0  0  0  0  0  0
   -6.9810   18.4340  -32.3000 C   0  0  0  0  0  0  0  0  0  0  0  0
   -8.3740   17.7700  -32.3100 C   0  0  0  0  0  0  0  0  0  0  0  0
   -6.3200   18.3050  -33.6620 C   0  0  0  0  0  0  0  0  0  0  0  0
   -6.0500   19.3370  -34.3320 O   0  0  0  0  0  0  0  0  0  0  0  0
   -5.9570   17.0590  -34.1660 O   0  0  0  0  0  0  0  0  0  0  0  0
   -7.1600   19.9230  -31.9560 C   0  0  0  0  0  0  0  0  0  0  0  0
   -8.4150   20.5930  -32.0650 C   0  0  0  0  0  0  0  0  0  0  0  0
   -8.5340   21.9640  -31.7770 C   0  0  0  0  0  0  0  0  0  0  0  0
   -7.3890   22.6570  -31.4070 C   0  0  0  0  0  0  0  0  0  0  0  0
   -7.2220   23.9820  -31.0720 C   0  0  0  0  0  0  0  0  0  0  0  0
   -5.8630   24.1240  -30.7950 C   0  0  0  0  0  0  0  0  0  0  0  0
   -5.2240   25.4070  -30.4340 C   0  0  0  0  0  0  0  0  0  0  0  0
   -3.8820   25.6690  -30.8350 N   0  0  0  0  0  0  0  0  0  0  0  0
   -5.8460   26.2690  -29.7590 O   0  0  0  0  0  0  0  0  0  0  0  0
   -5.2190   22.9350  -30.9580 N   0  0  0  0  0  0  0  0  0  0  0  0
   -3.8310   22.6480  -30.7220 C   0  0  0  0  0  0  0  0  0  0  0  0
   -3.2470   23.1990  -29.7500 O   0  0  0  0  0  0  0  0  0  0  0  0
   -3.0850   21.7090  -31.5950 C   0  0  0  0  0  0  0  0  0  0  0  0
   -3.3440   21.6560  -32.9750 C   0  0  0  0  0  0  0  0  0  0  0  0
   -2.6290   20.7740  -33.7880 C   0  0  0  0  0  0  0  0  0  0  0  0
   -1.6630   19.9450  -33.2160 C   0  0  0  0  0  0  0  0  0  0  0  0
   -1.4280   19.9980  -31.8800 N   0  0  0  0  0  0  0  0  0  0  0  0
   -2.1090   20.8470  -31.0650 C   0  0  0  0  0  0  0  0  0  0  0  0
   -6.1690   22.0480  -31.3250 C   0  0  0  0  0  0  0  0  0  0  0  0
   -6.0190   20.6830  -31.5820 C   0  0  0  0  0  0  0  0  0  0  0  0
   -6.3948   17.9360  -30.2663 H   0  0  0  0  0  0  0  0  0  0  0  0
   -6.2018   16.5934  -31.4440 H   0  0  0  0  0  0  0  0  0  0  0  0
   -5.0387   17.9624  -31.4440 H   0  0  0  0  0  0  0  0  0  0  0  0
   -8.7110   17.6093  -31.2753 H   0  0  0  0  0  0  0  0  0  0  0  0
   -9.0884   18.4244  -32.8309 H   0  0  0  0  0  0  0  0  0  0  0  0
   -8.3155   16.8029  -32.8309 H   0  0  0  0  0  0  0  0  0  0  0  0
   -9.3044   20.0274  -32.3797 H   0  0  0  0  0  0  0  0  0  0  0  0
   -9.5067   22.4733  -31.8429 H   0  0  0  0  0  0  0  0  0  0  0  0
   -7.9961   24.7625  -31.0315 H   0  0  0  0  0  0  0  0  0  0  0  0
   -3.0750   25.2850  -30.2950 H   0  0  0  0  0  0  0  0  0  0  0  0
   -4.1109   22.3101  -33.4155 H   0  0  0  0  0  0  0  0  0  0  0  0
   -2.8254   20.7330  -34.8695 H   0  0  0  0  0  0  0  0  0  0  0  0
   -1.0920   19.2486  -33.8477 H   0  0  0  0  0  0  0  0  0  0  0  0
   -1.8953   20.8595  -29.9860 H   0  0  0  0  0  0  0  0  0  0  0  0
   -5.0326   20.2038  -31.4961 H   0  0  0  0  0  0  0  0  0  0  0  0
  1  2  1  0
  2  3  1  0
  2  4  1  0
  4  5  2  0
  4  6  1  0
  2  7  1  0
  7  8  2  0
  8  9  1  0
  9 10  2  0
 10 11  1  0
 11 12  2  0
 12 13  1  0
 13 14  1  0
 13 15  2  0
 12 16  1  0
 16 17  1  0
 17 18  2  0
 17 19  1  0
 19 20  2  0
 20 21  1  0
 21 22  2  0
 22 23  1  0
 23 24  2  0
 16 25  1  0
 25 26  2  0
 26  7  1  0
 25 10  1  0
 24 19  1  0
  1 27  1  0
  1 28  1  0
  1 29  1  0
  3 30  1  0
  3 31  1  0
  3 32  1  0
  8 33  1  0
  9 34  1  0
 11 35  1  0
 14 36  1  0
 20 37  1  0
 21 38  1  0
 22 39  1  0
 24 40  1  0
 26 41  1  0
M  CHG  2   6  -1  14  -1
M  END
>  <UniqueID>  (44) 
43

>  <SMILES>  (44) 
CC(C)(C(=O)[O-])c1ccc2cc(C([NH-])=O)n(C(=O)c3cccnc3)c2c1

>  <Energy>  (44) 
87.61899501262906

>  <Genealogy>  (44) 
CC(C)(C(=O)[O-])c1ccc2cc(C([NH-])=O)n(C(=O)c3cccnc3)c2c1 (protonated)
CC(C)(C(=O)[O-])c1ccc2cc(C([NH-])=O)n(C(=O)c3cccnc3)c2c1 (3D coordinates assigned)
CC(C)(C(=O)[O-])c1ccc2cc(C([NH-])=O)n(C(=O)c3cccnc3)c2c1 (optimized conformer: 87.61899501262906 kcal/mol)

>  <smiles>  (44) 
CC(C)(C(=O)O)c1ccc2cc(C(N)=O)n(C(=O)c3cccnc3)c2c1

>  <score_type>  (44) 
oracle

>  <origin>  (44) 
adg

>  <m_score__min__energy>  (44) 
-11.1

>  <m_primary>  (44) 
energy

$$$$
44:0
     RDKit          3D

 46 48  0  0  0  0  0  0  0  0999 V2000
   -1.7660   20.1760  -34.2130 C   0  0  0  0  0  0  0  0  0  0  0  0
   -2.5940   19.7360  -33.2580 C   0  0  0  0  0  0  0  0  0  0  0  0
   -3.6120   20.6360  -32.6000 C   0  0  2  0  0  0  0  0  0  0  0  0
   -3.8370   21.9000  -33.4280 C   0  0  0  0  0  0  0  0  0  0  0  0
   -3.1820   21.0060  -31.2890 O   0  0  0  0  0  0  0  0  0  0  0  0
   -3.9990   21.6520  -30.3570 C   0  0  0  0  0  0  0  0  0  0  0  0
   -3.6670   21.6640  -29.1400 O   0  0  0  0  0  0  0  0  0  0  0  0
   -5.1950   22.3340  -30.7910 N   0  0  0  0  0  0  0  0  0  0  0  0
   -5.4840   23.6600  -30.6420 C   0  0  0  0  0  0  0  0  0  0  0  0
   -4.5740   24.6920  -30.1190 C   0  0  0  0  0  0  0  0  0  0  0  0
   -3.9420   24.5310  -28.8510 N   0  0  0  0  0  0  0  0  0  0  0  0
   -4.2910   25.6900  -30.8340 O   0  0  0  0  0  0  0  0  0  0  0  0
   -6.7940   23.9300  -31.0190 C   0  0  0  0  0  0  0  0  0  0  0  0
   -7.3070   22.7260  -31.4380 C   0  0  0  0  0  0  0  0  0  0  0  0
   -8.5700   22.4210  -31.9330 C   0  0  0  0  0  0  0  0  0  0  0  0
   -8.8290   21.0920  -32.3020 C   0  0  0  0  0  0  0  0  0  0  0  0
   -7.8240   20.1020  -32.1840 C   0  0  0  0  0  0  0  0  0  0  0  0
   -8.1280   18.6760  -32.5610 C   0  0  0  0  0  0  0  0  0  0  0  0
   -6.8850   17.9580  -32.8860 N   0  0  0  0  0  0  0  0  0  0  0  0
   -6.4780   16.9390  -32.0670 C   0  0  0  0  0  0  0  0  0  0  0  0
   -5.2900   16.2520  -32.3200 C   0  0  0  0  0  0  0  0  0  0  0  0
   -4.8960   15.2420  -31.5050 F   0  0  0  0  0  0  0  0  0  0  0  0
   -4.5090   16.6140  -33.4150 C   0  0  0  0  0  0  0  0  0  0  0  0
   -4.9210   17.6570  -34.2420 C   0  0  0  0  0  0  0  0  0  0  0  0
   -4.1600   18.0150  -35.3070 F   0  0  0  0  0  0  0  0  0  0  0  0
   -6.1160   18.3290  -33.9630 C   0  0  0  0  0  0  0  0  0  0  0  0
   -6.4760   19.2770  -34.7140 O   0  0  0  0  0  0  0  0  0  0  0  0
   -6.5540   20.4460  -31.6690 C   0  0  0  0  0  0  0  0  0  0  0  0
   -6.3240   21.7770  -31.2940 C   0  0  0  0  0  0  0  0  0  0  0  0
   -1.0375   19.4892  -34.6686 H   0  0  0  0  0  0  0  0  0  0  0  0
   -1.8140   21.2244  -34.5423 H   0  0  0  0  0  0  0  0  0  0  0  0
   -2.5307   18.6842  -32.9422 H   0  0  0  0  0  0  0  0  0  0  0  0
   -4.5567   20.0767  -32.5315 H   0  0  0  0  0  0  0  0  0  0  0  0
   -3.9895   22.7568  -32.7552 H   0  0  0  0  0  0  0  0  0  0  0  0
   -2.9575   22.0841  -34.0625 H   0  0  0  0  0  0  0  0  0  0  0  0
   -4.7260   21.7693  -34.0625 H   0  0  0  0  0  0  0  0  0  0  0  0
   -4.0760   23.6570  -28.2930 H   0  0  0  0  0  0  0  0  0  0  0  0
   -3.3030   25.2710  -28.4830 H   0  0  0  0  0  0  0  0  0  0  0  0
   -7.3104   24.9008  -30.9885 H   0  0  0  0  0  0  0  0  0  0  0  0
   -9.3426   23.1977  -32.0324 H   0  0  0  0  0  0  0  0  0  0  0  0
   -9.8222   20.8170  -32.6865 H   0  0  0  0  0  0  0  0  0  0  0  0
   -8.6261   18.1758  -31.7174 H   0  0  0  0  0  0  0  0  0  0  0  0
   -8.7853   18.6712  -33.4430 H   0  0  0  0  0  0  0  0  0  0  0  0
   -7.0943   16.6588  -31.2000 H   0  0  0  0  0  0  0  0  0  0  0  0
   -3.5713   16.0790  -33.6259 H   0  0  0  0  0  0  0  0  0  0  0  0
   -5.7644   19.6873  -31.5648 H   0  0  0  0  0  0  0  0  0  0  0  0
  1  2  2  0
  2  3  1  0
  3  4  1  0
  3  5  1  0
  5  6  1  0
  6  7  2  0
  6  8  1  0
  8  9  1  0
  9 10  1  0
 10 11  1  0
 10 12  2  0
  9 13  2  0
 13 14  1  0
 14 15  2  0
 15 16  1  0
 16 17  2  0
 17 18  1  0
 18 19  1  0
 19 20  1  0
 20 21  2  0
 21 22  1  0
 21 23  1  0
 23 24  2  0
 24 25  1  0
 24 26  1  0
 26 27  2  0
 17 28  1  0
 28 29  2  0
 29  8  1  0
 29 14  1  0
 26 19  1  0
  1 30  1  0
  1 31  1  0
  2 32  1  0
  3 33  1  1
  4 34  1  0
  4 35  1  0
  4 36  1  0
 11 37  1  0
 11 38  1  0
 13 39  1  0
 15 40  1  0
 16 41  1  0
 18 42  1  0
 18 43  1  0
 20 44  1  0
 23 45  1  0
 28 46  1  0
M  END
>  <UniqueID>  (45) 
44

>  <SMILES>  (45) 
C=C[C@H](C)OC(=O)n1c(C(N)=O)cc2ccc(Cn3cc(F)cc(F)c3=O)cc21

>  <Energy>  (45) 
85.2824242437344

>  <Genealogy>  (45) 
C=C[C@H](C)OC(=O)n1c(C(N)=O)cc2ccc(Cn3cc(F)cc(F)c3=O)cc21 (chirality)
C=C[C@H](C)OC(=O)n1c(C(N)=O)cc2ccc(Cn3cc(F)cc(F)c3=O)cc21 (3D coordinates assigned)
C=C[C@H](C)OC(=O)n1c(C(N)=O)cc2ccc(Cn3cc(F)cc(F)c3=O)cc21 (optimized conformer: 85.2824242437344 kcal/mol)

>  <smiles>  (45) 
C=CC(C)OC(=O)n1c(C(N)=O)cc2ccc(Cn3cc(F)cc(F)c3=O)cc21

>  <score_type>  (45) 
oracle

>  <origin>  (45) 
adg

>  <m_score__min__energy>  (45) 
-9.1600000000000001

>  <m_primary>  (45) 
energy

$$$$
45:0
     RDKit          3D

 47 49  0  0  0  0  0  0  0  0999 V2000
   -7.1320   23.4010  -31.3100 C   0  0  0  0  0  0  0  0  0  0  0  0
   -7.9640   22.2190  -31.7130 C   0  0  0  0  0  0  0  0  0  0  0  0
   -9.3640   22.3010  -31.7320 C   0  0  0  0  0  0  0  0  0  0  0  0
  -10.1130   21.1760  -32.0800 C   0  0  0  0  0  0  0  0  0  0  0  0
   -9.4880   20.0110  -32.3950 N   0  0  0  0  0  0  0  0  0  0  0  0
   -8.1300   19.8930  -32.3800 C   0  0  0  0  0  0  0  0  0  0  0  0
   -7.5020   18.6430  -32.7080 N   0  0  0  0  0  0  0  0  0  0  0  0
   -6.9090   17.7630  -31.7010 C   0  0  0  0  0  0  0  0  0  0  0  0
   -5.5710   17.2080  -32.1890 C   0  0  0  0  0  0  0  0  0  0  0  0
   -5.3560   17.5690  -33.5830 N   0  0  0  0  0  0  0  0  0  0  0  0
   -4.5430   18.6700  -33.9890 C   0  0  0  0  0  0  0  0  0  0  0  0
   -3.5250   18.4820  -34.7080 O   0  0  0  0  0  0  0  0  0  0  0  0
   -4.8840   20.0480  -33.5210 C   0  0  0  0  0  0  0  0  0  0  0  0
   -3.7870   20.5760  -32.6390 C   0  0  0  0  0  0  0  0  0  0  0  0
   -2.5650   19.8670  -32.5250 C   0  0  0  0  0  0  0  0  0  0  0  0
   -1.5180   20.3680  -31.7340 C   0  0  0  0  0  0  0  0  0  0  0  0
   -1.7180   21.5810  -31.0800 C   0  0  0  0  0  0  0  0  0  0  0  0
   -0.8830   22.2790  -30.2390 C   0  0  0  0  0  0  0  0  0  0  0  0
   -1.5950   23.4200  -29.8740 C   0  0  0  0  0  0  0  0  0  0  0  0
   -1.0270   24.4950  -29.0330 C   0  0  0  0  0  0  0  0  0  0  0  0
   -1.6360   25.7810  -28.9720 N   0  0  0  0  0  0  0  0  0  0  0  0
    0.0430   24.2900  -28.3980 O   0  0  0  0  0  0  0  0  0  0  0  0
   -2.8260   23.4220  -30.4610 N   0  0  0  0  0  0  0  0  0  0  0  0
   -3.8920   24.3690  -30.2740 C   0  0  0  0  0  0  0  0  0  0  0  0
   -3.8590   25.4850  -30.8550 O   0  0  0  0  0  0  0  0  0  0  0  0
   -4.9550   24.0720  -29.4300 O   0  0  0  0  0  0  0  0  0  0  0  0
   -2.8840   22.2920  -31.1990 C   0  0  0  0  0  0  0  0  0  0  0  0
   -3.9480   21.8090  -31.9710 C   0  0  0  0  0  0  0  0  0  0  0  0
   -7.3450   21.0020  -32.0320 C   0  0  0  0  0  0  0  0  0  0  0  0
   -7.0890   23.4621  -30.2125 H   0  0  0  0  0  0  0  0  0  0  0  0
   -6.1141   23.2867  -31.7110 H   0  0  0  0  0  0  0  0  0  0  0  0
   -7.5830   24.3207  -31.7110 H   0  0  0  0  0  0  0  0  0  0  0  0
   -9.8676   23.2445  -31.4747 H   0  0  0  0  0  0  0  0  0  0  0  0
  -11.2114   21.2323  -32.0994 H   0  0  0  0  0  0  0  0  0  0  0  0
   -7.4020   18.3730  -33.7120 H   0  0  0  0  0  0  0  0  0  0  0  0
   -6.7471   18.3326  -30.7740 H   0  0  0  0  0  0  0  0  0  0  0  0
   -7.5948   16.9227  -31.5178 H   0  0  0  0  0  0  0  0  0  0  0  0
   -4.7589   17.6258  -31.5759 H   0  0  0  0  0  0  0  0  0  0  0  0
   -5.5828   16.1117  -32.0995 H   0  0  0  0  0  0  0  0  0  0  0  0
   -5.0022   20.7099  -34.3916 H   0  0  0  0  0  0  0  0  0  0  0  0
   -5.8230   20.0138  -32.9491 H   0  0  0  0  0  0  0  0  0  0  0  0
   -2.4353   18.9153  -33.0611 H   0  0  0  0  0  0  0  0  0  0  0  0
   -0.5698   19.8194  -31.6343 H   0  0  0  0  0  0  0  0  0  0  0  0
    0.1317   21.9965  -29.9218 H   0  0  0  0  0  0  0  0  0  0  0  0
   -2.6730   25.8880  -29.0330 H   0  0  0  0  0  0  0  0  0  0  0  0
   -4.8864   22.3767  -32.0548 H   0  0  0  0  0  0  0  0  0  0  0  0
   -6.2485   20.9174  -32.0094 H   0  0  0  0  0  0  0  0  0  0  0  0
  1  2  1  0
  2  3  2  0
  3  4  1  0
  4  5  2  0
  5  6  1  0
  6  7  1  0
  7  8  1  0
  8  9  1  0
  9 10  1  0
 10 11  1  0
 11 12  2  0
 11 13  1  0
 13 14  1  0
 14 15  2  0
 15 16  1  0
 16 17  2  0
 17 18  1  0
 18 19  2  0
 19 20  1  0
 20 21  1  0
 20 22  2  0
 19 23  1  0
 23 24  1  0
 24 25  2  0
 24 26  1  0
 23 27  1  0
 27 28  2  0
  6 29  2  0
 29  2  1  0
 28 14  1  0
 27 17  1  0
  1 30  1  0
  1 31  1  0
  1 32  1  0
  3 33  1  0
  4 34  1  0
  7 35  1  0
  8 36  1  0
  8 37  1  0
  9 38  1  0
  9 39  1  0
 13 40  1  0
 13 41  1  0
 15 42  1  0
 16 43  1  0
 18 44  1  0
 21 45  1  0
 28 46  1  0
 29 47  1  0
M  CHG  3  10  -1  21  -1  26  -1
M  END
>  <UniqueID>  (46) 
45

>  <SMILES>  (46) 
Cc1ccnc(NCC[N-]C(=O)Cc2ccc3cc(C([NH-])=O)n(C(=O)[O-])c3c2)c1

>  <Energy>  (46) 
80.12964899330518

>  <Genealogy>  (46) 
Cc1ccnc(NCC[N-]C(=O)Cc2ccc3cc(C([NH-])=O)n(C(=O)[O-])c3c2)c1 (protonated)
Cc1ccnc(NCC[N-]C(=O)Cc2ccc3cc(C([NH-])=O)n(C(=O)[O-])c3c2)c1 (3D coordinates assigned)
Cc1ccnc(NCC[N-]C(=O)Cc2ccc3cc(C([NH-])=O)n(C(=O)[O-])c3c2)c1 (optimized conformer: 80.12964899330518 kcal/mol)

>  <smiles>  (46) 
Cc1ccnc(NCCNC(=O)Cc2ccc3cc(C(N)=O)n(C(=O)O)c3c2)c1

>  <score_type>  (46) 
oracle

>  <origin>  (46) 
adg

>  <m_score__min__energy>  (46) 
-12.470000000000001

>  <m_primary>  (46) 
energy

$$$$
46:0
     RDKit          3D

 35 36  0  0  0  0  0  0  0  0999 V2000
   -7.1990   18.3680  -32.6050 C   0  0  0  0  0  0  0  0  0  0  0  0
   -7.3590   19.8040  -32.2030 C   0  0  0  0  0  0  0  0  0  0  0  0
   -8.6230   20.4340  -32.3130 C   0  0  0  0  0  0  0  0  0  0  0  0
   -8.7740   21.7920  -31.9880 C   0  0  0  0  0  0  0  0  0  0  0  0
   -7.6490   22.4900  -31.5600 C   0  0  0  0  0  0  0  0  0  0  0  0
   -7.5080   23.8170  -31.2210 C   0  0  0  0  0  0  0  0  0  0  0  0
   -6.1630   23.9720  -30.8950 C   0  0  0  0  0  0  0  0  0  0  0  0
   -5.5860   25.2420  -30.4130 C   0  0  0  0  0  0  0  0  0  0  0  0
   -4.2420   25.6110  -30.7270 N   0  0  0  0  0  0  0  0  0  0  0  0
   -6.2710   25.9880  -29.6630 O   0  0  0  0  0  0  0  0  0  0  0  0
   -5.4940   22.7930  -31.0390 N   0  0  0  0  0  0  0  0  0  0  0  0
   -4.0820   22.5660  -30.9070 C   0  0  0  0  0  0  0  0  0  0  0  0
   -3.2970   22.9260  -31.8280 O   0  0  0  0  0  0  0  0  0  0  0  0
   -3.5820   21.9460  -29.7570 O   0  0  0  0  0  0  0  0  0  0  0  0
   -2.5630   22.5080  -28.9310 C   0  0  2  0  0  0  0  0  0  0  0  0
   -2.4290   21.7060  -27.6360 C   0  0  0  0  0  0  0  0  0  0  0  0
   -2.9240   23.9260  -28.6140 C   0  0  0  0  0  0  0  0  0  0  0  0
   -3.7790   24.1740  -27.7210 O   0  0  0  0  0  0  0  0  0  0  0  0
   -2.3440   24.9690  -29.3320 O   0  0  0  0  0  0  0  0  0  0  0  0
   -1.0130   25.1600  -29.3130 F   0  0  0  0  0  0  0  0  0  0  0  0
   -6.4180   21.8940  -31.4430 C   0  0  0  0  0  0  0  0  0  0  0  0
   -6.2350   20.5470  -31.7840 C   0  0  0  0  0  0  0  0  0  0  0  0
   -7.1291   17.7407  -31.7041 H   0  0  0  0  0  0  0  0  0  0  0  0
   -8.0679   18.0556  -33.2029 H   0  0  0  0  0  0  0  0  0  0  0  0
   -6.2827   18.2545  -33.2029 H   0  0  0  0  0  0  0  0  0  0  0  0
   -9.4932   19.8550  -32.6557 H   0  0  0  0  0  0  0  0  0  0  0  0
   -9.7521   22.2887  -32.0694 H   0  0  0  0  0  0  0  0  0  0  0  0
   -8.2907   24.5898  -31.2100 H   0  0  0  0  0  0  0  0  0  0  0  0
   -3.5950   24.9420  -31.1990 H   0  0  0  0  0  0  0  0  0  0  0  0
   -3.8650   26.5310  -30.4110 H   0  0  0  0  0  0  0  0  0  0  0  0
   -1.6008   22.4760  -29.4632 H   0  0  0  0  0  0  0  0  0  0  0  0
   -2.5416   22.3800  -26.7740 H   0  0  0  0  0  0  0  0  0  0  0  0
   -3.2104   20.9325  -27.6012 H   0  0  0  0  0  0  0  0  0  0  0  0
   -1.4386   21.2285  -27.6012 H   0  0  0  0  0  0  0  0  0  0  0  0
   -5.2403   20.0808  -31.7265 H   0  0  0  0  0  0  0  0  0  0  0  0
  1  2  1  0
  2  3  2  0
  3  4  1  0
  4  5  2  0
  5  6  1  0
  6  7  2  0
  7  8  1  0
  8  9  1  0
  8 10  2  0
  7 11  1  0
 11 12  1  0
 12 13  2  0
 12 14  1  0
 14 15  1  0
 15 16  1  0
 15 17  1  0
 17 18  2  0
 17 19  1  0
 19 20  1  0
 11 21  1  0
 21 22  2  0
 22  2  1  0
 21  5  1  0
  1 23  1  0
  1 24  1  0
  1 25  1  0
  3 26  1  0
  4 27  1  0
  6 28  1  0
  9 29  1  0
  9 30  1  0
 15 31  1  6
 16 32  1  0
 16 33  1  0
 16 34  1  0
 22 35  1  0
M  END
>  <UniqueID>  (47) 
46

>  <SMILES>  (47) 
Cc1ccc2cc(C(N)=O)n(C(=O)O[C@H](C)C(=O)OF)c2c1

>  <Energy>  (47) 
68.60771891838901

>  <Genealogy>  (47) 
Cc1ccc2cc(C(N)=O)n(C(=O)O[C@H](C)C(=O)OF)c2c1 (chirality)
Cc1ccc2cc(C(N)=O)n(C(=O)O[C@H](C)C(=O)OF)c2c1 (3D coordinates assigned)
Cc1ccc2cc(C(N)=O)n(C(=O)O[C@H](C)C(=O)OF)c2c1 (optimized conformer: 68.60771891838901 kcal/mol)

>  <smiles>  (47) 
Cc1ccc2cc(C(N)=O)n(C(=O)OC(C)C(=O)OF)c2c1

>  <score_type>  (47) 
oracle

>  <origin>  (47) 
adg

>  <m_score__min__energy>  (47) 
-8.6099999999999994

>  <m_primary>  (47) 
energy

$$$$
47:0
     RDKit          3D

 50 52  0  0  0  0  0  0  0  0999 V2000
   -1.3340   20.9880  -33.4180 C   0  0  0  0  0  0  0  0  0  0  0  0
   -1.9790   20.1070  -34.1860 C   0  0  0  0  0  0  0  0  0  0  0  0
   -1.6180   18.6480  -34.1760 C   0  0  0  0  0  0  0  0  0  0  0  0
   -2.7630   17.8440  -34.4520 O   0  0  0  0  0  0  0  0  0  0  0  0
   -3.5050   17.1940  -33.4570 C   0  0  0  0  0  0  0  0  0  0  0  0
   -2.9820   16.2730  -32.7740 O   0  0  0  0  0  0  0  0  0  0  0  0
   -4.8570   17.6000  -33.1990 N   0  0  0  0  0  0  0  0  0  0  0  0
   -6.0030   16.9650  -33.5730 C   0  0  0  0  0  0  0  0  0  0  0  0
   -6.0920   15.6210  -34.1810 C   0  0  0  0  0  0  0  0  0  0  0  0
   -4.9180   14.9140  -34.5720 N   0  0  0  0  0  0  0  0  0  0  0  0
   -7.2180   15.0690  -34.3120 O   0  0  0  0  0  0  0  0  0  0  0  0
   -7.1170   17.7270  -33.2290 C   0  0  0  0  0  0  0  0  0  0  0  0
   -6.6150   18.8560  -32.6230 C   0  0  0  0  0  0  0  0  0  0  0  0
   -7.2780   19.9610  -32.1000 C   0  0  0  0  0  0  0  0  0  0  0  0
   -6.5020   21.0020  -31.5640 C   0  0  0  0  0  0  0  0  0  0  0  0
   -5.0840   20.9280  -31.5660 C   0  0  0  0  0  0  0  0  0  0  0  0
   -4.2720   22.0400  -31.0100 C   0  0  0  0  0  0  0  0  0  0  0  0
   -2.9920   21.7970  -30.4910 C   0  0  0  0  0  0  0  0  0  0  0  0
   -2.2370   22.8400  -29.9560 C   0  0  0  0  0  0  0  0  0  0  0  0
   -2.7450   24.1430  -29.9120 C   0  0  0  0  0  0  0  0  0  0  0  0
   -1.9180   25.1610  -29.3270 N   0  0  0  0  0  0  0  0  0  0  0  0
   -0.7020   24.9170  -28.1140 S   0  0  0  0  0  0  0  0  0  0  0  0
   -1.3510   23.9520  -26.7650 C   0  0  0  0  0  0  0  0  0  0  0  0
    0.4380   24.1550  -28.7270 O   0  0  0  0  0  0  0  0  0  0  0  0
   -0.1900   26.2400  -27.6150 O   0  0  0  0  0  0  0  0  0  0  0  0
   -4.0120   24.4160  -30.4710 C   0  0  0  0  0  0  0  0  0  0  0  0
   -4.4770   25.7390  -30.5180 O   0  0  0  0  0  0  0  0  0  0  0  0
   -5.7670   26.1650  -30.0950 C   0  0  0  0  0  0  0  0  0  0  0  0
   -4.7720   23.3530  -31.0000 C   0  0  0  0  0  0  0  0  0  0  0  0
   -4.4500   19.7850  -32.1080 C   0  0  0  0  0  0  0  0  0  0  0  0
   -5.2490   18.7550  -32.6170 C   0  0  0  0  0  0  0  0  0  0  0  0
   -1.6170   22.0507  -33.4433 H   0  0  0  0  0  0  0  0  0  0  0  0
   -0.5195   20.6513  -32.7598 H   0  0  0  0  0  0  0  0  0  0  0  0
   -2.7917   20.4561  -34.8399 H   0  0  0  0  0  0  0  0  0  0  0  0
   -0.8516   18.4603  -34.9424 H   0  0  0  0  0  0  0  0  0  0  0  0
   -1.2332   18.3855  -33.1795 H   0  0  0  0  0  0  0  0  0  0  0  0
   -3.9720   15.3410  -34.4610 H   0  0  0  0  0  0  0  0  0  0  0  0
   -8.1742   17.4789  -33.4045 H   0  0  0  0  0  0  0  0  0  0  0  0
   -8.3765   20.0181  -32.1059 H   0  0  0  0  0  0  0  0  0  0  0  0
   -6.9991   21.8857  -31.1373 H   0  0  0  0  0  0  0  0  0  0  0  0
   -2.5809   20.7768  -30.5061 H   0  0  0  0  0  0  0  0  0  0  0  0
   -1.2298   22.6360  -29.5638 H   0  0  0  0  0  0  0  0  0  0  0  0
   -1.0462   24.4051  -25.8101 H   0  0  0  0  0  0  0  0  0  0  0  0
   -2.4491   23.9287  -26.8259 H   0  0  0  0  0  0  0  0  0  0  0  0
   -0.9585   22.9262  -26.8259 H   0  0  0  0  0  0  0  0  0  0  0  0
   -5.8067   26.1781  -28.9958 H   0  0  0  0  0  0  0  0  0  0  0  0
   -5.9642   27.1760  -30.4811 H   0  0  0  0  0  0  0  0  0  0  0  0
   -6.5275   25.4703  -30.4811 H   0  0  0  0  0  0  0  0  0  0  0  0
   -5.7721   23.5547  -31.4114 H   0  0  0  0  0  0  0  0  0  0  0  0
   -3.3529   19.7077  -32.1288 H   0  0  0  0  0  0  0  0  0  0  0  0
  1  2  2  0
  2  3  1  0
  3  4  1  0
  4  5  1  0
  5  6  2  0
  5  7  1  0
  7  8  1  0
  8  9  1  0
  9 10  1  0
  9 11  2  0
  8 12  2  0
 12 13  1  0
 13 14  2  0
 14 15  1  0
 15 16  2  0
 16 17  1  0
 17 18  2  0
 18 19  1  0
 19 20  2  0
 20 21  1  0
 21 22  1  0
 22 23  1  0
 22 24  2  0
 22 25  2  0
 20 26  1  0
 26 27  1  0
 27 28  1  0
 26 29  2  0
 16 30  1  0
 30 31  2  0
 31  7  1  0
 31 13  1  0
 29 17  1  0
  1 32  1  0
  1 33  1  0
  2 34  1  0
  3 35  1  0
  3 36  1  0
 10 37  1  0
 12 38  1  0
 14 39  1  0
 15 40  1  0
 18 41  1  0
 19 42  1  0
 23 43  1  0
 23 44  1  0
 23 45  1  0
 28 46  1  0
 28 47  1  0
 28 48  1  0
 29 49  1  0
 30 50  1  0
M  CHG  2  10  -1  21  -1
M  END
>  <UniqueID>  (48) 
47

>  <SMILES>  (48) 
C=CCOC(=O)n1c(C([NH-])=O)cc2ccc(-c3ccc([N-]S(C)(=O)=O)c(OC)c3)cc21

>  <Energy>  (48) 
94.2966347124015

>  <Genealogy>  (48) 
C=CCOC(=O)n1c(C([NH-])=O)cc2ccc(-c3ccc([N-]S(C)(=O)=O)c(OC)c3)cc21 (protonated)
C=CCOC(=O)n1c(C([NH-])=O)cc2ccc(-c3ccc([N-]S(C)(=O)=O)c(OC)c3)cc21 (3D coordinates assigned)
C=CCOC(=O)n1c(C([NH-])=O)cc2ccc(-c3ccc([N-]S(C)(=O)=O)c(OC)c3)cc21 (optimized conformer: 94.2966347124015 kcal/mol)

>  <smiles>  (48) 
C=CCOC(=O)n1c(C(N)=O)cc2ccc(-c3ccc(NS(C)(=O)=O)c(OC)c3)cc21

>  <score_type>  (48) 
oracle

>  <origin>  (48) 
adg

>  <m_score__min__energy>  (48) 
-10.69

>  <m_primary>  (48) 
energy

$$$$
48:0
     RDKit          3D

 57 61  0  0  0  0  0  0  0  0999 V2000
   -1.2490   21.5420  -27.9860 C   0  0  0  0  0  0  0  0  0  0  0  0
   -1.4310   21.8490  -29.4420 C   0  0  0  0  0  0  0  0  0  0  0  0
   -0.4610   21.6820  -30.2340 O   0  0  0  0  0  0  0  0  0  0  0  0
   -2.6630   22.4070  -29.9320 N   0  0  0  0  0  0  0  0  0  0  0  0
   -3.2200   23.6150  -29.6350 C   0  0  0  0  0  0  0  0  0  0  0  0
   -2.7440   24.5610  -28.6030 C   0  0  0  0  0  0  0  0  0  0  0  0
   -1.9190   25.6710  -28.9480 N   0  0  0  0  0  0  0  0  0  0  0  0
   -3.0480   24.3680  -27.3940 O   0  0  0  0  0  0  0  0  0  0  0  0
   -4.3740   23.8170  -30.3930 C   0  0  0  0  0  0  0  0  0  0  0  0
   -4.5110   22.6830  -31.1600 C   0  0  0  0  0  0  0  0  0  0  0  0
   -5.4760   22.3500  -32.1030 C   0  0  0  0  0  0  0  0  0  0  0  0
   -5.3590   21.1120  -32.7570 C   0  0  0  0  0  0  0  0  0  0  0  0
   -4.2850   20.2300  -32.4620 C   0  0  0  0  0  0  0  0  0  0  0  0
   -4.1750   18.9180  -33.1520 C   0  0  0  0  0  0  0  0  0  0  0  0
   -5.3120   18.2420  -33.6110 C   0  0  0  0  0  0  0  0  0  0  0  0
   -5.1860   17.0450  -34.2390 N   0  0  0  0  0  0  0  0  0  0  0  0
   -3.9700   16.4670  -34.4410 C   0  0  0  0  0  0  0  0  0  0  0  0
   -3.8840   15.1910  -35.1190 N   0  0  0  0  0  0  0  0  0  0  0  0
   -4.7650   14.1150  -34.6010 C   0  0  0  0  0  0  0  0  0  0  0  0
   -4.5040   12.6990  -35.1540 C   0  0  2  0  0  0  0  0  0  0  0  0
   -3.0940   12.1970  -34.8060 C   0  0  0  0  0  0  0  0  0  0  0  0
   -2.0070   12.9800  -35.5550 C   0  0  0  0  0  0  0  0  0  0  0  0
   -2.5760   13.7450  -36.7750 C   0  0  2  0  0  0  0  0  0  0  0  0
   -3.1320   15.1320  -36.3920 C   0  0  0  0  0  0  0  0  0  0  0  0
   -3.6090   12.9790  -37.5090 N   0  0  0  0  0  0  0  0  0  0  0  0
   -3.0430   11.8270  -38.2350 C   0  0  0  0  0  0  0  0  0  0  0  0
   -4.7740   12.5970  -36.6730 C   0  0  0  0  0  0  0  0  0  0  0  0
   -2.8450   17.1160  -34.0130 N   0  0  0  0  0  0  0  0  0  0  0  0
   -2.9280   18.3150  -33.3750 C   0  0  0  0  0  0  0  0  0  0  0  0
   -3.3200   20.6130  -31.5000 C   0  0  0  0  0  0  0  0  0  0  0  0
   -3.4690   21.8470  -30.8590 C   0  0  0  0  0  0  0  0  0  0  0  0
   -1.7181   22.3334  -27.3830 H   0  0  0  0  0  0  0  0  0  0  0  0
   -1.7202   20.5757  -27.7533 H   0  0  0  0  0  0  0  0  0  0  0  0
   -0.1751   21.4917  -27.7533 H   0  0  0  0  0  0  0  0  0  0  0  0
   -1.4920   25.7460  -29.9000 H   0  0  0  0  0  0  0  0  0  0  0  0
   -5.0344   24.6966  -30.3801 H   0  0  0  0  0  0  0  0  0  0  0  0
   -6.3062   23.0349  -32.3305 H   0  0  0  0  0  0  0  0  0  0  0  0
   -6.1090   20.8218  -33.5075 H   0  0  0  0  0  0  0  0  0  0  0  0
   -6.3093   18.6817  -33.4625 H   0  0  0  0  0  0  0  0  0  0  0  0
   -4.6423   14.0770  -33.5085 H   0  0  0  0  0  0  0  0  0  0  0  0
   -5.7801   14.3791  -34.9325 H   0  0  0  0  0  0  0  0  0  0  0  0
   -5.2264   12.0374  -34.6536 H   0  0  0  0  0  0  0  0  0  0  0  0
   -2.9328   12.3112  -33.7239 H   0  0  0  0  0  0  0  0  0  0  0  0
   -3.0235   11.1417  -35.1081 H   0  0  0  0  0  0  0  0  0  0  0  0
   -1.5512   13.7040  -34.8635 H   0  0  0  0  0  0  0  0  0  0  0  0
   -1.2636   12.2583  -35.9245 H   0  0  0  0  0  0  0  0  0  0  0  0
   -1.7168   13.8847  -37.4475 H   0  0  0  0  0  0  0  0  0  0  0  0
   -2.2832   15.8275  -36.3160 H   0  0  0  0  0  0  0  0  0  0  0  0
   -3.8535   15.3945  -37.1797 H   0  0  0  0  0  0  0  0  0  0  0  0
   -2.6771   11.0823  -37.5128 H   0  0  0  0  0  0  0  0  0  0  0  0
   -3.8209   11.3736  -38.8669 H   0  0  0  0  0  0  0  0  0  0  0  0
   -2.2087   12.1657  -38.8669 H   0  0  0  0  0  0  0  0  0  0  0  0
   -5.6143   13.2616  -36.9225 H   0  0  0  0  0  0  0  0  0  0  0  0
   -4.9967   11.5422  -36.8916 H   0  0  0  0  0  0  0  0  0  0  0  0
   -1.8930   16.7180  -34.1810 H   0  0  0  0  0  0  0  0  0  0  0  0
   -2.0105   18.8152  -33.0315 H   0  0  0  0  0  0  0  0  0  0  0  0
   -2.4716   19.9546  -31.2618 H   0  0  0  0  0  0  0  0  0  0  0  0
  1  2  1  0
  2  3  2  0
  2  4  1  0
  4  5  1  0
  5  6  1  0
  6  7  1  0
  6  8  2  0
  5  9  2  0
  9 10  1  0
 10 11  2  0
 11 12  1  0
 12 13  2  0
 13 14  1  0
 14 15  2  0
 15 16  1  0
 16 17  2  0
 17 18  1  0
 18 19  1  0
 19 20  1  0
 20 21  1  0
 21 22  1  0
 22 23  1  0
 23 24  1  0
 23 25  1  0
 25 26  1  0
 25 27  1  0
 17 28  1  0
 28 29  2  0
 13 30  1  0
 30 31  2  0
 31  4  1  0
 31 10  1  0
 29 14  1  0
 24 18  1  0
 27 20  1  0
  1 32  1  0
  1 33  1  0
  1 34  1  0
  7 35  1  0
  9 36  1  0
 11 37  1  0
 12 38  1  0
 15 39  1  0
 19 40  1  0
 19 41  1  0
 20 42  1  1
 21 43  1  0
 21 44  1  0
 22 45  1  0
 22 46  1  0
 23 47  1  6
 24 48  1  0
 24 49  1  0
 26 50  1  0
 26 51  1  0
 26 52  1  0
 27 53  1  0
 27 54  1  0
 28 55  1  0
 29 56  1  0
 30 57  1  0
M  CHG  2   7  -1  28   1
M  END
>  <UniqueID>  (49) 
48

>  <SMILES>  (49) 
CC(=O)n1c(C([NH-])=O)cc2ccc(-c3cnc(N4C[C@@H]5CC[C@H](C4)N(C)C5)[nH+]c3)cc21

>  <Energy>  (49) 
126.62227252987682

>  <Genealogy>  (49) 
CC(=O)n1c(C([NH-])=O)cc2ccc(-c3cnc(N4CC5CCC(C4)N(C)C5)[nH+]c3)cc21 (protonated)
CC(=O)n1c(C([NH-])=O)cc2ccc(-c3cnc(N4C[C@@H]5CC[C@H](C4)N(C)C5)[nH+]c3)cc21 (chirality)
CC(=O)n1c(C([NH-])=O)cc2ccc(-c3cnc(N4C[C@@H]5CC[C@H](C4)N(C)C5)[nH+]c3)cc21 (3D coordinates assigned)
CC(=O)n1c(C([NH-])=O)cc2ccc(-c3cnc(N4C[C@@H]5CC[C@H](C4)N(C)C5)[nH+]c3)cc21 (nonaromatic ring conformer: 126.62227252987682 kcal/mol)

>  <smiles>  (49) 
CC(=O)n1c(C(N)=O)cc2ccc(-c3cnc(N4CC5CCC(C4)N(C)C5)nc3)cc21

>  <score_type>  (49) 
oracle

>  <origin>  (49) 
adg

>  <m_score__min__energy>  (49) 
-8.25

>  <m_primary>  (49) 
energy

$$$$
49:0
     RDKit          3D

 34 36  0  0  0  0  0  0  0  0999 V2000
   -1.6040   25.7870  -28.9440 N   0  0  0  0  0  0  0  0  0  0  0  0
   -1.0610   24.4770  -29.0770 C   0  0  0  0  0  0  0  0  0  0  0  0
    0.0770   24.2300  -28.5960 O   0  0  0  0  0  0  0  0  0  0  0  0
   -1.7850   23.4240  -29.8200 C   0  0  0  0  0  0  0  0  0  0  0  0
   -1.2200   22.1940  -30.1500 C   0  0  0  0  0  0  0  0  0  0  0  0
   -2.1690   21.5460  -30.9050 C   0  0  0  0  0  0  0  0  0  0  0  0
   -2.1410   20.2830  -31.4850 C   0  0  0  0  0  0  0  0  0  0  0  0
   -3.2790   19.8540  -32.1870 C   0  0  0  0  0  0  0  0  0  0  0  0
   -4.4240   20.6860  -32.2960 C   0  0  0  0  0  0  0  0  0  0  0  0
   -5.6500   20.1820  -33.0380 C   0  0  2  0  0  0  0  0  0  0  0  0
   -6.8430   20.0100  -32.0700 C   0  0  0  0  0  0  0  0  0  0  0  0
   -7.7650   21.2160  -31.9640 C   0  0  0  0  0  0  0  0  0  0  0  0
   -8.2230   19.9740  -32.7110 C   0  0  0  0  0  0  0  0  0  0  0  0
   -5.3500   18.8650  -33.7740 C   0  0  0  0  0  0  0  0  0  0  0  0
   -4.2010   18.9730  -34.5380 F   0  0  0  0  0  0  0  0  0  0  0  0
   -6.4100   18.5350  -34.6010 F   0  0  0  0  0  0  0  0  0  0  0  0
   -5.1780   17.8440  -32.8550 F   0  0  0  0  0  0  0  0  0  0  0  0
   -4.4140   21.9630  -31.6830 C   0  0  0  0  0  0  0  0  0  0  0  0
   -3.2580   22.3720  -31.0070 C   0  0  0  0  0  0  0  0  0  0  0  0
   -3.0400   23.5300  -30.3440 N   0  0  0  0  0  0  0  0  0  0  0  0
   -3.9840   24.5970  -30.1640 C   0  0  0  0  0  0  0  0  0  0  0  0
   -3.8660   25.6670  -30.8170 O   0  0  0  0  0  0  0  0  0  0  0  0
   -5.0220   24.4690  -29.2500 O   0  0  0  0  0  0  0  0  0  0  0  0
   -2.6350   25.9470  -28.9790 H   0  0  0  0  0  0  0  0  0  0  0  0
   -0.2250   21.8203  -29.8665 H   0  0  0  0  0  0  0  0  0  0  0  0
   -1.2538   19.6388  -31.3967 H   0  0  0  0  0  0  0  0  0  0  0  0
   -3.2832   18.8602  -32.6586 H   0  0  0  0  0  0  0  0  0  0  0  0
   -5.9230   20.9352  -33.7918 H   0  0  0  0  0  0  0  0  0  0  0  0
   -6.3032   19.3687  -31.3577 H   0  0  0  0  0  0  0  0  0  0  0  0
   -8.2214   21.4759  -30.9975 H   0  0  0  0  0  0  0  0  0  0  0  0
   -7.6791   22.2845  -32.2110 H   0  0  0  0  0  0  0  0  0  0  0  0
   -9.0107   19.3353  -32.2850 H   0  0  0  0  0  0  0  0  0  0  0  0
   -8.6057   19.7717  -33.7222 H   0  0  0  0  0  0  0  0  0  0  0  0
   -5.2953   22.6191  -31.7369 H   0  0  0  0  0  0  0  0  0  0  0  0
  1  2  1  0
  2  3  2  0
  2  4  1  0
  4  5  2  0
  5  6  1  0
  6  7  2  0
  7  8  1  0
  8  9  2  0
  9 10  1  0
 10 11  1  0
 11 12  1  0
 12 13  1  0
 10 14  1  0
 14 15  1  0
 14 16  1  0
 14 17  1  0
  9 18  1  0
 18 19  2  0
 19 20  1  0
 20 21  1  0
 21 22  2  0
 21 23  1  0
 20  4  1  0
 19  6  1  0
 13 11  1  0
  1 24  1  0
  5 25  1  0
  7 26  1  0
  8 27  1  0
 10 28  1  6
 11 29  1  0
 12 30  1  0
 12 31  1  0
 13 32  1  0
 13 33  1  0
 18 34  1  0
M  CHG  2   1  -1  23  -1
M  END
>  <UniqueID>  (50) 
49

>  <SMILES>  (50) 
[NH-]C(=O)c1cc2ccc([C@H](C3CC3)C(F)(F)F)cc2n1C(=O)[O-]

>  <Energy>  (50) 
337.73198199771065

>  <Genealogy>  (50) 
[NH-]C(=O)c1cc2ccc(C(C3CC3)C(F)(F)F)cc2n1C(=O)[O-] (protonated)
[NH-]C(=O)c1cc2ccc([C@H](C3CC3)C(F)(F)F)cc2n1C(=O)[O-] (chirality)
[NH-]C(=O)c1cc2ccc([C@H](C3CC3)C(F)(F)F)cc2n1C(=O)[O-] (3D coordinates assigned)
[NH-]C(=O)c1cc2ccc([C@H](C3CC3)C(F)(F)F)cc2n1C(=O)[O-] (nonaromatic ring conformer: 337.73198199771065 kcal/mol)

>  <smiles>  (50) 
NC(=O)c1cc2ccc(C(C3CC3)C(F)(F)F)cc2n1C(=O)O

>  <score_type>  (50) 
oracle

>  <origin>  (50) 
adg

>  <m_score__min__energy>  (50) 
-11.32

>  <m_primary>  (50) 
energy

$$$$
50:0
     RDKit          3D

 45 46  0  0  0  0  0  0  0  0999 V2000
   -0.8400   24.4840  -28.9680 C   0  0  0  0  0  0  0  0  0  0  0  0
   -1.7910   23.9610  -27.8780 C   0  0  0  0  0  0  0  0  0  0  0  0
   -2.1240   25.0930  -26.8850 C   0  0  0  0  0  0  0  0  0  0  0  0
   -3.0240   23.2880  -28.4000 N   0  0  2  0  0  0  0  0  0  0  0  0
   -4.2280   23.6690  -27.6330 C   0  0  0  0  0  0  0  0  0  0  0  0
   -2.9140   21.8170  -28.6370 C   0  0  0  0  0  0  0  0  0  0  0  0
   -3.4750   21.3120  -29.9870 C   0  0  0  0  0  0  0  0  0  0  0  0
   -3.8600   22.4530  -30.8850 C   0  0  0  0  0  0  0  0  0  0  0  0
   -2.9680   23.1810  -31.3980 O   0  0  0  0  0  0  0  0  0  0  0  0
   -5.2420   22.7790  -31.0870 N   0  0  0  0  0  0  0  0  0  0  0  0
   -5.8460   23.9830  -30.8940 C   0  0  0  0  0  0  0  0  0  0  0  0
   -5.1790   25.2150  -30.4230 C   0  0  0  0  0  0  0  0  0  0  0  0
   -3.7570   25.2640  -30.3330 N   0  0  0  0  0  0  0  0  0  0  0  0
   -5.8520   26.2320  -30.1050 O   0  0  0  0  0  0  0  0  0  0  0  0
   -7.2120   23.8900  -31.1590 C   0  0  0  0  0  0  0  0  0  0  0  0
   -7.4230   22.5790  -31.5240 C   0  0  0  0  0  0  0  0  0  0  0  0
   -8.5970   21.9220  -31.8810 C   0  0  0  0  0  0  0  0  0  0  0  0
   -8.5170   20.5570  -32.2070 C   0  0  0  0  0  0  0  0  0  0  0  0
   -7.2680   19.8820  -32.2020 C   0  0  0  0  0  0  0  0  0  0  0  0
   -7.1940   18.4080  -32.5060 C   0  0  0  0  0  0  0  0  0  0  0  0
   -6.7980   18.2340  -33.8190 F   0  0  0  0  0  0  0  0  0  0  0  0
   -6.2850   17.7800  -31.6720 F   0  0  0  0  0  0  0  0  0  0  0  0
   -8.4300   17.8110  -32.3260 F   0  0  0  0  0  0  0  0  0  0  0  0
   -6.1010   20.5840  -31.8210 C   0  0  0  0  0  0  0  0  0  0  0  0
   -6.2170   21.9320  -31.4780 C   0  0  0  0  0  0  0  0  0  0  0  0
    0.0306   24.9628  -28.4961 H   0  0  0  0  0  0  0  0  0  0  0  0
   -0.5025   23.6446  -29.5937 H   0  0  0  0  0  0  0  0  0  0  0  0
   -1.3681   25.2186  -29.5937 H   0  0  0  0  0  0  0  0  0  0  0  0
   -1.2526   23.1608  -27.3491 H   0  0  0  0  0  0  0  0  0  0  0  0
   -2.0147   24.7215  -25.8554 H   0  0  0  0  0  0  0  0  0  0  0  0
   -1.4358   25.9359  -27.0457 H   0  0  0  0  0  0  0  0  0  0  0  0
   -3.1590   25.4290  -27.0457 H   0  0  0  0  0  0  0  0  0  0  0  0
   -3.1890   23.7060  -29.3460 H   0  0  0  0  0  0  0  0  0  0  0  0
   -4.0135   23.6011  -26.5563 H   0  0  0  0  0  0  0  0  0  0  0  0
   -4.5125   24.7011  -27.8859 H   0  0  0  0  0  0  0  0  0  0  0  0
   -5.0544   22.9885  -27.8859 H   0  0  0  0  0  0  0  0  0  0  0  0
   -1.8490   21.5458  -28.5908 H   0  0  0  0  0  0  0  0  0  0  0  0
   -3.5293   21.3409  -27.8594 H   0  0  0  0  0  0  0  0  0  0  0  0
   -2.7066   20.7057  -30.4890 H   0  0  0  0  0  0  0  0  0  0  0  0
   -4.3755   20.7136  -29.7842 H   0  0  0  0  0  0  0  0  0  0  0  0
   -3.1680   25.3480  -31.1910 H   0  0  0  0  0  0  0  0  0  0  0  0
   -7.9611   24.6926  -31.0910 H   0  0  0  0  0  0  0  0  0  0  0  0
   -9.5588   22.4551  -31.9072 H   0  0  0  0  0  0  0  0  0  0  0  0
   -9.4322   20.0057  -32.4689 H   0  0  0  0  0  0  0  0  0  0  0  0
   -5.1240   20.0792  -31.7955 H   0  0  0  0  0  0  0  0  0  0  0  0
  1  2  1  0
  2  3  1  0
  2  4  1  0
  4  5  1  0
  4  6  1  0
  6  7  1  0
  7  8  1  0
  8  9  2  0
  8 10  1  0
 10 11  1  0
 11 12  1  0
 12 13  1  0
 12 14  2  0
 11 15  2  0
 15 16  1  0
 16 17  2  0
 17 18  1  0
 18 19  2  0
 19 20  1  0
 20 21  1  0
 20 22  1  0
 20 23  1  0
 19 24  1  0
 24 25  2  0
 25 10  1  0
 25 16  1  0
  1 26  1  0
  1 27  1  0
  1 28  1  0
  2 29  1  0
  3 30  1  0
  3 31  1  0
  3 32  1  0
  4 33  1  6
  5 34  1  0
  5 35  1  0
  5 36  1  0
  6 37  1  0
  6 38  1  0
  7 39  1  0
  7 40  1  0
 13 41  1  0
 15 42  1  0
 17 43  1  0
 18 44  1  0
 24 45  1  0
M  CHG  2   4   1  13  -1
M  END
>  <UniqueID>  (51) 
50

>  <SMILES>  (51) 
CC(C)[N@H+](C)CCC(=O)n1c(C([NH-])=O)cc2ccc(C(F)(F)F)cc21

>  <Energy>  (51) 
90.97286780120781

>  <Genealogy>  (51) 
CC(C)[NH+](C)CCC(=O)n1c(C([NH-])=O)cc2ccc(C(F)(F)F)cc21 (protonated)
CC(C)[N@H+](C)CCC(=O)n1c(C([NH-])=O)cc2ccc(C(F)(F)F)cc21 (chirality)
CC(C)[N@H+](C)CCC(=O)n1c(C([NH-])=O)cc2ccc(C(F)(F)F)cc21 (3D coordinates assigned)
CC(C)[N@H+](C)CCC(=O)n1c(C([NH-])=O)cc2ccc(C(F)(F)F)cc21 (optimized conformer: 90.97286780120781 kcal/mol)

>  <smiles>  (51) 
CC(C)N(C)CCC(=O)n1c(C(N)=O)cc2ccc(C(F)(F)F)cc21

>  <score_type>  (51) 
oracle

>  <origin>  (51) 
adg

>  <m_score__min__energy>  (51) 
-9.5899999999999999

>  <m_primary>  (51) 
energy

$$$$
51:0
     RDKit          3D

 30 31  0  0  0  0  0  0  0  0999 V2000
   -6.9640   17.8210  -32.2940 C   0  0  0  0  0  0  0  0  0  0  0  0
   -7.8290   18.8940  -32.7740 N   0  0  0  0  0  0  0  0  0  0  0  0
   -7.7860   20.2400  -32.2640 C   0  0  0  0  0  0  0  0  0  0  0  0
   -8.9720   20.9350  -31.8990 C   0  0  0  0  0  0  0  0  0  0  0  0
   -8.9110   22.2520  -31.4140 C   0  0  0  0  0  0  0  0  0  0  0  0
   -7.6600   22.8470  -31.2960 C   0  0  0  0  0  0  0  0  0  0  0  0
   -7.3190   24.1140  -30.8830 C   0  0  0  0  0  0  0  0  0  0  0  0
   -5.9300   24.1730  -30.9760 C   0  0  0  0  0  0  0  0  0  0  0  0
   -5.1350   25.3400  -30.5410 C   0  0  0  0  0  0  0  0  0  0  0  0
   -3.7130   25.2740  -30.4680 N   0  0  0  0  0  0  0  0  0  0  0  0
   -5.7220   26.3960  -30.1840 O   0  0  0  0  0  0  0  0  0  0  0  0
   -5.4320   22.9900  -31.4380 N   0  0  0  0  0  0  0  0  0  0  0  0
   -4.0680   22.6690  -31.7520 C   0  0  0  0  0  0  0  0  0  0  0  0
   -3.1800   22.7540  -30.8620 O   0  0  0  0  0  0  0  0  0  0  0  0
   -3.7280   22.2850  -33.0530 O   0  0  0  0  0  0  0  0  0  0  0  0
   -3.1780   21.0080  -33.3560 C   0  0  0  0  0  0  0  0  0  0  0  0
   -6.5040   22.1890  -31.6260 C   0  0  0  0  0  0  0  0  0  0  0  0
   -6.5360   20.8830  -32.1300 C   0  0  0  0  0  0  0  0  0  0  0  0
   -6.9608   17.8170  -31.1940 H   0  0  0  0  0  0  0  0  0  0  0  0
   -7.3389   16.8550  -32.6631 H   0  0  0  0  0  0  0  0  0  0  0  0
   -5.9404   17.9823  -32.6631 H   0  0  0  0  0  0  0  0  0  0  0  0
   -8.5130   18.6630  -33.5300 H   0  0  0  0  0  0  0  0  0  0  0  0
   -9.9473   20.4360  -31.9975 H   0  0  0  0  0  0  0  0  0  0  0  0
   -9.8256   22.7962  -31.1359 H   0  0  0  0  0  0  0  0  0  0  0  0
   -7.9990   24.9118  -30.5498 H   0  0  0  0  0  0  0  0  0  0  0  0
   -3.1170   25.6750  -31.2260 H   0  0  0  0  0  0  0  0  0  0  0  0
   -2.9489   20.4762  -32.4208 H   0  0  0  0  0  0  0  0  0  0  0  0
   -3.9048   20.4251  -33.9407 H   0  0  0  0  0  0  0  0  0  0  0  0
   -2.2551   21.1356  -33.9407 H   0  0  0  0  0  0  0  0  0  0  0  0
   -5.6066   20.3686  -32.4156 H   0  0  0  0  0  0  0  0  0  0  0  0
  1  2  1  0
  2  3  1  0
  3  4  2  0
  4  5  1  0
  5  6  2  0
  6  7  1  0
  7  8  2  0
  8  9  1  0
  9 10  1  0
  9 11  2  0
  8 12  1  0
 12 13  1  0
 13 14  2  0
 13 15  1  0
 15 16  1  0
 12 17  1  0
 17 18  2  0
 18  3  1  0
 17  6  1  0
  1 19  1  0
  1 20  1  0
  1 21  1  0
  2 22  1  0
  4 23  1  0
  5 24  1  0
  7 25  1  0
 10 26  1  0
 16 27  1  0
 16 28  1  0
 16 29  1  0
 18 30  1  0
M  CHG  1  10  -1
M  END
>  <UniqueID>  (52) 
51

>  <SMILES>  (52) 
CNc1ccc2cc(C([NH-])=O)n(C(=O)OC)c2c1

>  <Energy>  (52) 
66.23412920482946

>  <Genealogy>  (52) 
CNc1ccc2cc(C([NH-])=O)n(C(=O)OC)c2c1 (protonated)
CNc1ccc2cc(C([NH-])=O)n(C(=O)OC)c2c1 (3D coordinates assigned)
CNc1ccc2cc(C([NH-])=O)n(C(=O)OC)c2c1 (optimized conformer: 66.23412920482946 kcal/mol)

>  <smiles>  (52) 
CNc1ccc2cc(C(N)=O)n(C(=O)OC)c2c1

>  <score_type>  (52) 
oracle

>  <origin>  (52) 
adg

>  <m_score__min__energy>  (52) 
-9.5

>  <m_primary>  (52) 
energy

$$$$
52:0
     RDKit          3D

 35 37  0  0  0  0  0  0  0  0999 V2000
   -2.1200   20.8710  -32.5220 C   0  0  0  0  0  0  0  0  0  0  0  0
   -2.8420   22.0920  -32.6230 O   0  0  0  0  0  0  0  0  0  0  0  0
   -3.4570   22.6970  -31.5210 C   0  0  0  0  0  0  0  0  0  0  0  0
   -2.7600   23.1490  -30.5720 O   0  0  0  0  0  0  0  0  0  0  0  0
   -4.8900   22.7820  -31.4640 N   0  0  0  0  0  0  0  0  0  0  0  0
   -5.6460   23.8430  -31.0630 C   0  0  0  0  0  0  0  0  0  0  0  0
   -5.1400   25.0810  -30.4330 C   0  0  0  0  0  0  0  0  0  0  0  0
   -3.9060   25.6620  -30.8440 N   0  0  0  0  0  0  0  0  0  0  0  0
   -5.7830   25.6050  -29.4840 O   0  0  0  0  0  0  0  0  0  0  0  0
   -7.0000   23.5770  -31.2490 C   0  0  0  0  0  0  0  0  0  0  0  0
   -7.0520   22.3060  -31.7740 C   0  0  0  0  0  0  0  0  0  0  0  0
   -8.1490   21.5420  -32.1570 C   0  0  0  0  0  0  0  0  0  0  0  0
   -7.9090   20.2670  -32.6960 C   0  0  0  0  0  0  0  0  0  0  0  0
   -6.5820   19.7820  -32.8570 C   0  0  0  0  0  0  0  0  0  0  0  0
   -6.3190   18.4370  -33.4290 C   0  0  0  0  0  0  0  0  0  0  0  0
   -7.1410   17.3340  -33.1400 C   0  0  0  0  0  0  0  0  0  0  0  0
   -6.8360   16.1020  -33.7180 C   0  0  0  0  0  0  0  0  0  0  0  0
   -5.7690   15.9840  -34.5480 N   0  0  0  0  0  0  0  0  0  0  0  0
   -4.9850   17.0570  -34.8290 C   0  0  0  0  0  0  0  0  0  0  0  0
   -3.8700   16.9160  -35.7070 N   0  0  0  0  0  0  0  0  0  0  0  0
   -5.2640   18.2660  -34.2750 N   0  0  0  0  0  0  0  0  0  0  0  0
   -5.4960   20.5890  -32.4430 C   0  0  0  0  0  0  0  0  0  0  0  0
   -5.7670   21.8470  -31.8940 C   0  0  0  0  0  0  0  0  0  0  0  0
   -1.9713   20.6196  -31.4615 H   0  0  0  0  0  0  0  0  0  0  0  0
   -2.6882   20.0673  -33.0132 H   0  0  0  0  0  0  0  0  0  0  0  0
   -1.1420   20.9816  -33.0132 H   0  0  0  0  0  0  0  0  0  0  0  0
   -2.9940   25.2890  -30.4970 H   0  0  0  0  0  0  0  0  0  0  0  0
   -7.8475   24.2412  -31.0242 H   0  0  0  0  0  0  0  0  0  0  0  0
   -9.1739   21.9245  -32.0414 H   0  0  0  0  0  0  0  0  0  0  0  0
   -8.7582   19.6360  -32.9972 H   0  0  0  0  0  0  0  0  0  0  0  0
   -8.0078   17.4405  -32.4711 H   0  0  0  0  0  0  0  0  0  0  0  0
   -7.4618   15.2239  -33.5006 H   0  0  0  0  0  0  0  0  0  0  0  0
   -4.0180   16.7150  -36.7210 H   0  0  0  0  0  0  0  0  0  0  0  0
   -2.8960   17.0120  -35.3450 H   0  0  0  0  0  0  0  0  0  0  0  0
   -4.4602   20.2347  -32.5506 H   0  0  0  0  0  0  0  0  0  0  0  0
  1  2  1  0
  2  3  1  0
  3  4  2  0
  3  5  1  0
  5  6  1  0
  6  7  1  0
  7  8  1  0
  7  9  2  0
  6 10  2  0
 10 11  1  0
 11 12  2  0
 12 13  1  0
 13 14  2  0
 14 15  1  0
 15 16  2  0
 16 17  1  0
 17 18  2  0
 18 19  1  0
 19 20  1  0
 19 21  2  0
 14 22  1  0
 22 23  2  0
 23  5  1  0
 23 11  1  0
 21 15  1  0
  1 24  1  0
  1 25  1  0
  1 26  1  0
  8 27  1  0
 10 28  1  0
 12 29  1  0
 13 30  1  0
 16 31  1  0
 17 32  1  0
 20 33  1  0
 20 34  1  0
 22 35  1  0
M  CHG  1   8  -1
M  END
>  <UniqueID>  (53) 
52

>  <SMILES>  (53) 
COC(=O)n1c(C([NH-])=O)cc2ccc(-c3ccnc(N)n3)cc21

>  <Energy>  (53) 
78.36393409768043

>  <Genealogy>  (53) 
COC(=O)n1c(C([NH-])=O)cc2ccc(-c3ccnc(N)n3)cc21 (protonated)
COC(=O)n1c(C([NH-])=O)cc2ccc(-c3ccnc(N)n3)cc21 (3D coordinates assigned)
COC(=O)n1c(C([NH-])=O)cc2ccc(-c3ccnc(N)n3)cc21 (optimized conformer: 78.36393409768043 kcal/mol)

>  <smiles>  (53) 
COC(=O)n1c(C(N)=O)cc2ccc(-c3ccnc(N)n3)cc21

>  <score_type>  (53) 
oracle

>  <origin>  (53) 
adg

>  <m_score__min__energy>  (53) 
-9.8000000000000007

>  <m_primary>  (53) 
energy

$$$$
53:0
     RDKit          3D

 40 42  0  0  0  0  0  0  0  0999 V2000
   -7.3490   22.6420  -30.0870 C   0  0  0  0  0  0  0  0  0  0  0  0
   -6.6440   23.9490  -30.4490 C   0  0  0  0  0  0  0  0  0  0  0  0
   -6.4680   24.0640  -31.9650 C   0  0  0  0  0  0  0  0  0  0  0  0
   -5.3440   23.9860  -29.7880 N   0  0  0  0  0  0  0  0  0  0  0  0
   -4.1150   24.3010  -30.4530 C   0  0  0  0  0  0  0  0  0  0  0  0
   -3.8930   25.4770  -30.8510 O   0  0  0  0  0  0  0  0  0  0  0  0
   -3.1230   23.2800  -30.6410 N   0  0  0  0  0  0  0  0  0  0  0  0
   -1.8710   23.2180  -30.1060 C   0  0  0  0  0  0  0  0  0  0  0  0
   -1.2240   24.2660  -29.2890 C   0  0  0  0  0  0  0  0  0  0  0  0
   -1.9870   25.3780  -28.8280 N   0  0  0  0  0  0  0  0  0  0  0  0
   -0.0100   24.1750  -28.9650 O   0  0  0  0  0  0  0  0  0  0  0  0
   -1.2270   22.0480  -30.5060 C   0  0  0  0  0  0  0  0  0  0  0  0
   -2.1260   21.3940  -31.3140 C   0  0  0  0  0  0  0  0  0  0  0  0
   -2.0070   20.1840  -31.9920 C   0  0  0  0  0  0  0  0  0  0  0  0
   -3.1050   19.7420  -32.7510 C   0  0  0  0  0  0  0  0  0  0  0  0
   -4.3000   20.5020  -32.7990 C   0  0  0  0  0  0  0  0  0  0  0  0
   -5.4600   20.0410  -33.6360 C   0  0  0  0  0  0  0  0  0  0  0  0
   -6.5820   19.6850  -32.7750 N   0  0  0  0  0  0  0  0  0  0  0  0
   -6.6870   18.5940  -32.0000 C   0  0  0  0  0  0  0  0  0  0  0  0
   -7.8230   18.6220  -31.2750 N   0  0  0  0  0  0  0  0  0  0  0  0
   -8.3820   19.7920  -31.6560 C   0  0  0  0  0  0  0  0  0  0  0  0
   -7.6330   20.4530  -32.5600 N   0  0  0  0  0  0  0  0  0  0  0  0
   -4.3810   21.7270  -32.1040 C   0  0  0  0  0  0  0  0  0  0  0  0
   -3.2640   22.1560  -31.3780 C   0  0  0  0  0  0  0  0  0  0  0  0
   -7.4015   22.5446  -28.9926 H   0  0  0  0  0  0  0  0  0  0  0  0
   -8.3669   22.6468  -30.5040 H   0  0  0  0  0  0  0  0  0  0  0  0
   -6.7859   21.7940  -30.5040 H   0  0  0  0  0  0  0  0  0  0  0  0
   -7.2568   24.7976  -30.1109 H   0  0  0  0  0  0  0  0  0  0  0  0
   -5.5659   24.6535  -32.1857 H   0  0  0  0  0  0  0  0  0  0  0  0
   -6.3645   23.0587  -32.3994 H   0  0  0  0  0  0  0  0  0  0  0  0
   -7.3471   24.5625  -32.3994 H   0  0  0  0  0  0  0  0  0  0  0  0
   -2.8510   25.6810  -29.3310 H   0  0  0  0  0  0  0  0  0  0  0  0
   -0.2138   21.7181  -30.2327 H   0  0  0  0  0  0  0  0  0  0  0  0
   -1.0819   19.5915  -31.9357 H   0  0  0  0  0  0  0  0  0  0  0  0
   -3.0358   18.7984  -33.3122 H   0  0  0  0  0  0  0  0  0  0  0  0
   -5.7642   20.8507  -34.3156 H   0  0  0  0  0  0  0  0  0  0  0  0
   -5.1576   19.1595  -34.2204 H   0  0  0  0  0  0  0  0  0  0  0  0
   -5.9439   17.7839  -31.9616 H   0  0  0  0  0  0  0  0  0  0  0  0
   -9.3428   20.1637  -31.2704 H   0  0  0  0  0  0  0  0  0  0  0  0
   -5.3002   22.3306  -32.1320 H   0  0  0  0  0  0  0  0  0  0  0  0
  1  2  1  0
  2  3  1  0
  2  4  1  0
  4  5  1  0
  5  6  2  0
  5  7  1  0
  7  8  1  0
  8  9  1  0
  9 10  1  0
  9 11  2  0
  8 12  2  0
 12 13  1  0
 13 14  2  0
 14 15  1  0
 15 16  2  0
 16 17  1  0
 17 18  1  0
 18 19  1  0
 19 20  2  0
 20 21  1  0
 21 22  2  0
 16 23  1  0
 23 24  2  0
 24  7  1  0
 24 13  1  0
 22 18  1  0
  1 25  1  0
  1 26  1  0
  1 27  1  0
  2 28  1  0
  3 29  1  0
  3 30  1  0
  3 31  1  0
 10 32  1  0
 12 33  1  0
 14 34  1  0
 15 35  1  0
 17 36  1  0
 17 37  1  0
 19 38  1  0
 21 39  1  0
 23 40  1  0
M  CHG  2   4  -1  10  -1
M  END
>  <UniqueID>  (54) 
53

>  <SMILES>  (54) 
CC(C)[N-]C(=O)n1c(C([NH-])=O)cc2ccc(Cn3cncn3)cc21

>  <Energy>  (54) 
104.95666551781893

>  <Genealogy>  (54) 
CC(C)[N-]C(=O)n1c(C([NH-])=O)cc2ccc(Cn3cncn3)cc21 (protonated)
CC(C)[N-]C(=O)n1c(C([NH-])=O)cc2ccc(Cn3cncn3)cc21 (3D coordinates assigned)
CC(C)[N-]C(=O)n1c(C([NH-])=O)cc2ccc(Cn3cncn3)cc21 (optimized conformer: 104.95666551781893 kcal/mol)

>  <smiles>  (54) 
CC(C)NC(=O)n1c(C(N)=O)cc2ccc(Cn3cncn3)cc21

>  <score_type>  (54) 
oracle

>  <origin>  (54) 
adg

>  <m_score__min__energy>  (54) 
-11.199999999999999

>  <m_primary>  (54) 
energy

$$$$
54:0
     RDKit          3D

 40 42  0  0  0  0  0  0  0  0999 V2000
   -1.5510   26.0000  -28.8870 N   0  0  0  0  0  0  0  0  0  0  0  0
   -0.8750   24.7450  -28.9310 C   0  0  0  0  0  0  0  0  0  0  0  0
    0.2490   24.6320  -28.3730 O   0  0  0  0  0  0  0  0  0  0  0  0
   -1.4470   23.5980  -29.6660 C   0  0  0  0  0  0  0  0  0  0  0  0
   -0.7090   22.4690  -30.0150 C   0  0  0  0  0  0  0  0  0  0  0  0
   -1.5660   21.6880  -30.7550 C   0  0  0  0  0  0  0  0  0  0  0  0
   -1.3570   20.4520  -31.3480 C   0  0  0  0  0  0  0  0  0  0  0  0
   -2.4280   19.8570  -32.0330 C   0  0  0  0  0  0  0  0  0  0  0  0
   -3.7060   20.4900  -32.1130 C   0  0  0  0  0  0  0  0  0  0  0  0
   -4.8200   19.8560  -32.8200 N   0  0  0  0  0  0  0  0  0  0  0  0
   -6.1830   19.9860  -32.2640 C   0  0  0  0  0  0  0  0  0  0  0  0
   -7.2870   19.3790  -33.1370 C   0  0  0  0  0  0  0  0  0  0  0  0
   -6.8770   18.1190  -33.7660 N   0  0  0  0  0  0  0  0  0  0  0  0
   -6.6090   17.0460  -32.7840 C   0  0  0  0  0  0  0  0  0  0  0  0
   -5.9700   15.8730  -33.4550 C   0  0  0  0  0  0  0  0  0  0  0  0
   -6.6570   15.1090  -34.1830 O   0  0  0  0  0  0  0  0  0  0  0  0
   -4.6090   15.6360  -33.3000 O   0  0  0  0  0  0  0  0  0  0  0  0
   -5.7540   18.3790  -34.6770 C   0  0  0  0  0  0  0  0  0  0  0  0
   -4.5240   18.9830  -33.9800 C   0  0  0  0  0  0  0  0  0  0  0  0
   -3.8600   21.7610  -31.4880 C   0  0  0  0  0  0  0  0  0  0  0  0
   -2.7660   22.3370  -30.8320 C   0  0  0  0  0  0  0  0  0  0  0  0
   -2.7130   23.5130  -30.1650 N   0  0  0  0  0  0  0  0  0  0  0  0
   -3.8020   24.4270  -29.9630 C   0  0  0  0  0  0  0  0  0  0  0  0
   -4.7110   24.1590  -29.1340 O   0  0  0  0  0  0  0  0  0  0  0  0
   -3.8750   25.6050  -30.6970 O   0  0  0  0  0  0  0  0  0  0  0  0
   -2.5910   26.0530  -28.9630 H   0  0  0  0  0  0  0  0  0  0  0  0
    0.3367   22.2490  -29.7542 H   0  0  0  0  0  0  0  0  0  0  0  0
   -0.3794   19.9519  -31.2834 H   0  0  0  0  0  0  0  0  0  0  0  0
   -2.2798   18.8814  -32.5191 H   0  0  0  0  0  0  0  0  0  0  0  0
   -6.2040   19.4840  -31.2854 H   0  0  0  0  0  0  0  0  0  0  0  0
   -6.3927   21.0639  -32.1996 H   0  0  0  0  0  0  0  0  0  0  0  0
   -8.1693   19.1886  -32.5082 H   0  0  0  0  0  0  0  0  0  0  0  0
   -7.5100   20.0965  -33.9404 H   0  0  0  0  0  0  0  0  0  0  0  0
   -5.9347   17.4289  -32.0038 H   0  0  0  0  0  0  0  0  0  0  0  0
   -7.5615   16.7258  -32.3366 H   0  0  0  0  0  0  0  0  0  0  0  0
   -5.4574   17.4281  -35.1438 H   0  0  0  0  0  0  0  0  0  0  0  0
   -6.1014   19.1167  -35.4153 H   0  0  0  0  0  0  0  0  0  0  0  0
   -3.8909   18.1546  -33.6294 H   0  0  0  0  0  0  0  0  0  0  0  0
   -4.0348   19.6249  -34.7274 H   0  0  0  0  0  0  0  0  0  0  0  0
   -4.8274   22.2835  -31.5206 H   0  0  0  0  0  0  0  0  0  0  0  0
  1  2  1  0
  2  3  2  0
  2  4  1  0
  4  5  2  0
  5  6  1  0
  6  7  2  0
  7  8  1  0
  8  9  2  0
  9 10  1  0
 10 11  1  0
 11 12  1  0
 12 13  1  0
 13 14  1  0
 14 15  1  0
 15 16  2  0
 15 17  1  0
 13 18  1  0
 18 19  1  0
  9 20  1  0
 20 21  2  0
 21 22  1  0
 22 23  1  0
 23 24  2  0
 23 25  1  0
 22  4  1  0
 21  6  1  0
 19 10  1  0
  1 26  1  0
  5 27  1  0
  7 28  1  0
  8 29  1  0
 11 30  1  0
 11 31  1  0
 12 32  1  0
 12 33  1  0
 14 34  1  0
 14 35  1  0
 18 36  1  0
 18 37  1  0
 19 38  1  0
 19 39  1  0
 20 40  1  0
M  CHG  3   1  -1  17  -1  25  -1
M  END
>  <UniqueID>  (55) 
54

>  <SMILES>  (55) 
[NH-]C(=O)c1cc2ccc(N3CCN(CC(=O)[O-])CC3)cc2n1C(=O)[O-]

>  <Energy>  (55) 
92.39693069168668

>  <Genealogy>  (55) 
[NH-]C(=O)c1cc2ccc(N3CCN(CC(=O)[O-])CC3)cc2n1C(=O)[O-] (protonated)
[NH-]C(=O)c1cc2ccc(N3CCN(CC(=O)[O-])CC3)cc2n1C(=O)[O-] (3D coordinates assigned)
[NH-]C(=O)c1cc2ccc(N3CCN(CC(=O)[O-])CC3)cc2n1C(=O)[O-] (nonaromatic ring conformer: 92.39693069168668 kcal/mol)

>  <smiles>  (55) 
NC(=O)c1cc2ccc(N3CCN(CC(=O)O)CC3)cc2n1C(=O)O

>  <score_type>  (55) 
oracle

>  <origin>  (55) 
adg

>  <m_score__min__energy>  (55) 
-11.44

>  <m_primary>  (55) 
energy

$$$$
55:0
     RDKit          3D

 41 43  0  0  0  0  0  0  0  0999 V2000
   -1.4710   22.6550  -30.1910 C   0  0  0  0  0  0  0  0  0  0  0  0
   -2.9040   22.9120  -30.2470 N   0  0  0  0  0  0  0  0  0  0  0  0
   -3.7120   22.4560  -31.3370 C   0  0  0  0  0  0  0  0  0  0  0  0
   -3.1790   21.8770  -32.3230 O   0  0  0  0  0  0  0  0  0  0  0  0
   -5.1350   22.6450  -31.3070 N   0  0  0  0  0  0  0  0  0  0  0  0
   -5.8240   23.7600  -30.9360 C   0  0  0  0  0  0  0  0  0  0  0  0
   -5.2410   24.9850  -30.3480 C   0  0  0  0  0  0  0  0  0  0  0  0
   -3.8620   25.3000  -30.5220 N   0  0  0  0  0  0  0  0  0  0  0  0
   -5.9630   25.7470  -29.6510 O   0  0  0  0  0  0  0  0  0  0  0  0
   -7.1920   23.5730  -31.1240 C   0  0  0  0  0  0  0  0  0  0  0  0
   -7.3210   22.2960  -31.6250 C   0  0  0  0  0  0  0  0  0  0  0  0
   -8.4580   21.5930  -32.0070 C   0  0  0  0  0  0  0  0  0  0  0  0
   -8.2900   20.2970  -32.5220 C   0  0  0  0  0  0  0  0  0  0  0  0
   -6.9960   19.7310  -32.6590 C   0  0  0  0  0  0  0  0  0  0  0  0
   -6.8310   18.3290  -33.2140 C   0  0  0  0  0  0  0  0  0  0  0  0
   -6.1110   18.3400  -34.5990 C   0  0  0  0  0  0  0  0  0  0  0  0
   -4.7560   17.6190  -34.5990 C   0  0  0  0  0  0  0  0  0  0  0  0
   -4.9040   16.2520  -33.9900 C   0  0  0  0  0  0  0  0  0  0  0  0
   -4.3290   15.2960  -34.4850 O   0  0  0  0  0  0  0  0  0  0  0  0
   -5.7460   16.0640  -32.7580 C   0  0  0  0  0  0  0  0  0  0  0  0
   -6.1530   17.4180  -32.1630 C   0  0  0  0  0  0  0  0  0  0  0  0
   -5.8640   20.4810  -32.2570 C   0  0  0  0  0  0  0  0  0  0  0  0
   -6.0640   21.7590  -31.7280 C   0  0  0  0  0  0  0  0  0  0  0  0
   -1.1496   22.5974  -29.1406 H   0  0  0  0  0  0  0  0  0  0  0  0
   -1.2493   21.7028  -30.6951 H   0  0  0  0  0  0  0  0  0  0  0  0
   -0.9322   23.4708  -30.6951 H   0  0  0  0  0  0  0  0  0  0  0  0
   -3.3480   23.4550  -29.4720 H   0  0  0  0  0  0  0  0  0  0  0  0
   -3.5570   26.0050  -31.2280 H   0  0  0  0  0  0  0  0  0  0  0  0
   -7.9979   24.2923  -30.9165 H   0  0  0  0  0  0  0  0  0  0  0  0
   -9.4590   22.0383  -31.9089 H   0  0  0  0  0  0  0  0  0  0  0  0
   -9.1726   19.7135  -32.8229 H   0  0  0  0  0  0  0  0  0  0  0  0
   -7.8238   17.8988  -33.4123 H   0  0  0  0  0  0  0  0  0  0  0  0
   -6.7654   17.8483  -35.3339 H   0  0  0  0  0  0  0  0  0  0  0  0
   -5.9134   19.3929  -34.8488 H   0  0  0  0  0  0  0  0  0  0  0  0
   -4.3952   17.5204  -35.6335 H   0  0  0  0  0  0  0  0  0  0  0  0
   -4.0350   18.2028  -34.0080 H   0  0  0  0  0  0  0  0  0  0  0  0
   -6.6523   15.4999  -33.0235 H   0  0  0  0  0  0  0  0  0  0  0  0
   -5.1570   15.5134  -32.0097 H   0  0  0  0  0  0  0  0  0  0  0  0
   -6.8563   17.2457  -31.3349 H   0  0  0  0  0  0  0  0  0  0  0  0
   -5.2419   17.9234  -31.8104 H   0  0  0  0  0  0  0  0  0  0  0  0
   -4.8500   20.0669  -32.3588 H   0  0  0  0  0  0  0  0  0  0  0  0
  1  2  1  0
  2  3  1  0
  3  4  2  0
  3  5  1  0
  5  6  1  0
  6  7  1  0
  7  8  1  0
  7  9  2  0
  6 10  2  0
 10 11  1  0
 11 12  2  0
 12 13  1  0
 13 14  2  0
 14 15  1  0
 15 16  1  0
 16 17  1  0
 17 18  1  0
 18 19  2  0
 18 20  1  0
 20 21  1  0
 14 22  1  0
 22 23  2  0
 23  5  1  0
 23 11  1  0
 21 15  1  0
  1 24  1  0
  1 25  1  0
  1 26  1  0
  2 27  1  0
  8 28  1  0
 10 29  1  0
 12 30  1  0
 13 31  1  0
 15 32  1  0
 16 33  1  0
 16 34  1  0
 17 35  1  0
 17 36  1  0
 20 37  1  0
 20 38  1  0
 21 39  1  0
 21 40  1  0
 22 41  1  0
M  CHG  1   8  -1
M  END
>  <UniqueID>  (56) 
55

>  <SMILES>  (56) 
CNC(=O)n1c(C([NH-])=O)cc2ccc(C3CCC(=O)CC3)cc21

>  <Energy>  (56) 
80.0686604211219

>  <Genealogy>  (56) 
CNC(=O)n1c(C([NH-])=O)cc2ccc(C3CCC(=O)CC3)cc21 (protonated)
CNC(=O)n1c(C([NH-])=O)cc2ccc(C3CCC(=O)CC3)cc21 (3D coordinates assigned)
CNC(=O)n1c(C([NH-])=O)cc2ccc(C3CCC(=O)CC3)cc21 (nonaromatic ring conformer: 80.0686604211219 kcal/mol)

>  <smiles>  (56) 
CNC(=O)n1c(C(N)=O)cc2ccc(C3CCC(=O)CC3)cc21

>  <score_type>  (56) 
oracle

>  <origin>  (56) 
adg

>  <m_score__min__energy>  (56) 
-11.51

>  <m_primary>  (56) 
energy

$$$$
56:0
     RDKit          3D

 51 53  0  0  0  0  0  0  0  0999 V2000
   -2.1210   20.8270  -32.9500 C   0  0  0  0  0  0  0  0  0  0  0  0
   -2.7700   20.0060  -33.7820 C   0  0  0  0  0  0  0  0  0  0  0  0
   -3.0550   18.5840  -33.4060 C   0  0  0  0  0  0  0  0  0  0  0  0
   -3.9470   18.0080  -34.3530 O   0  0  0  0  0  0  0  0  0  0  0  0
   -5.3260   18.2270  -34.3210 C   0  0  0  0  0  0  0  0  0  0  0  0
   -5.9460   18.5400  -35.3740 O   0  0  0  0  0  0  0  0  0  0  0  0
   -6.0480   18.1430  -33.0050 C   0  0  2  0  0  0  0  0  0  0  0  0
   -7.2410   17.1800  -33.0640 C   0  0  0  0  0  0  0  0  0  0  0  0
   -6.4800   19.5190  -32.5420 C   0  0  0  0  0  0  0  0  0  0  0  0
   -7.8330   19.9220  -32.6870 C   0  0  0  0  0  0  0  0  0  0  0  0
   -8.2530   21.1960  -32.2700 C   0  0  0  0  0  0  0  0  0  0  0  0
   -7.3020   22.0490  -31.7200 C   0  0  0  0  0  0  0  0  0  0  0  0
   -7.4420   23.3250  -31.2250 C   0  0  0  0  0  0  0  0  0  0  0  0
   -6.1670   23.6990  -30.8010 C   0  0  0  0  0  0  0  0  0  0  0  0
   -5.8310   25.0440  -30.2870 C   0  0  0  0  0  0  0  0  0  0  0  0
   -5.7670   25.2940  -28.8820 N   0  0  0  0  0  0  0  0  0  0  0  0
   -5.6280   25.9920  -31.0890 O   0  0  0  0  0  0  0  0  0  0  0  0
   -5.2770   22.6910  -31.0220 N   0  0  0  0  0  0  0  0  0  0  0  0
   -3.8870   22.6610  -30.6580 C   0  0  0  0  0  0  0  0  0  0  0  0
   -3.1520   23.6590  -30.8980 O   0  0  0  0  0  0  0  0  0  0  0  0
   -3.3460   21.5160  -30.0600 O   0  0  0  0  0  0  0  0  0  0  0  0
   -2.9180   21.4720  -28.7020 C   0  0  0  0  0  0  0  0  0  0  0  0
   -3.0240   22.8290  -28.0760 C   0  0  0  0  0  0  0  0  0  0  0  0
   -4.1380   23.3390  -27.6040 O   0  0  0  0  0  0  0  0  0  0  0  0
   -3.8180   24.5140  -27.1120 C   0  0  0  0  0  0  0  0  0  0  0  0
   -4.6440   25.2920  -26.5670 O   0  0  0  0  0  0  0  0  0  0  0  0
   -2.5390   24.7850  -27.2410 O   0  0  0  0  0  0  0  0  0  0  0  0
   -2.0090   23.7460  -27.8440 C   0  0  0  0  0  0  0  0  0  0  0  0
   -0.5560   23.6200  -28.1680 C   0  0  0  0  0  0  0  0  0  0  0  0
   -5.9870   21.6880  -31.5870 C   0  0  0  0  0  0  0  0  0  0  0  0
   -5.5440   20.4200  -31.9770 C   0  0  0  0  0  0  0  0  0  0  0  0
   -1.9228   21.8673  -33.2474 H   0  0  0  0  0  0  0  0  0  0  0  0
   -1.7852   20.4622  -31.9681 H   0  0  0  0  0  0  0  0  0  0  0  0
   -3.1011   20.3818  -34.7614 H   0  0  0  0  0  0  0  0  0  0  0  0
   -2.1148   18.0131  -33.3948 H   0  0  0  0  0  0  0  0  0  0  0  0
   -3.5155   18.5561  -32.4074 H   0  0  0  0  0  0  0  0  0  0  0  0
   -5.3415   17.7347  -32.2674 H   0  0  0  0  0  0  0  0  0  0  0  0
   -7.5571   16.9248  -32.0418 H   0  0  0  0  0  0  0  0  0  0  0  0
   -8.0747   17.6613  -33.5963 H   0  0  0  0  0  0  0  0  0  0  0  0
   -6.9465   16.2635  -33.5963 H   0  0  0  0  0  0  0  0  0  0  0  0
   -8.5618   19.2282  -33.1314 H   0  0  0  0  0  0  0  0  0  0  0  0
   -9.3021   21.5095  -32.3753 H   0  0  0  0  0  0  0  0  0  0  0  0
   -8.3637   23.9232  -31.1744 H   0  0  0  0  0  0  0  0  0  0  0  0
   -5.5450   26.2530  -28.5310 H   0  0  0  0  0  0  0  0  0  0  0  0
   -5.8800   24.5220  -28.1890 H   0  0  0  0  0  0  0  0  0  0  0  0
   -3.5513   20.7657  -28.1452 H   0  0  0  0  0  0  0  0  0  0  0  0
   -1.8681   21.1454  -28.6695 H   0  0  0  0  0  0  0  0  0  0  0  0
    0.0247   23.5696  -27.2351 H   0  0  0  0  0  0  0  0  0  0  0  0
   -0.3890   22.7040  -28.7537 H   0  0  0  0  0  0  0  0  0  0  0  0
   -0.2338   24.4936  -28.7537 H   0  0  0  0  0  0  0  0  0  0  0  0
   -4.4912   20.1285  -31.8478 H   0  0  0  0  0  0  0  0  0  0  0  0
  1  2  2  0
  2  3  1  0
  3  4  1  0
  4  5  1  0
  5  6  2  0
  5  7  1  0
  7  8  1  0
  7  9  1  0
  9 10  2  0
 10 11  1  0
 11 12  2  0
 12 13  1  0
 13 14  2  0
 14 15  1  0
 15 16  1  0
 15 17  2  0
 14 18  1  0
 18 19  1  0
 19 20  2  0
 19 21  1  0
 21 22  1  0
 22 23  1  0
 23 24  1  0
 24 25  1  0
 25 26  2  0
 25 27  1  0
 27 28  1  0
 28 29  1  0
 18 30  1  0
 30 31  2  0
 31  9  1  0
 30 12  1  0
 28 23  2  0
  1 32  1  0
  1 33  1  0
  2 34  1  0
  3 35  1  0
  3 36  1  0
  7 37  1  1
  8 38  1  0
  8 39  1  0
  8 40  1  0
 10 41  1  0
 11 42  1  0
 13 43  1  0
 16 44  1  0
 16 45  1  0
 22 46  1  0
 22 47  1  0
 29 48  1  0
 29 49  1  0
 29 50  1  0
 31 51  1  0
M  END
>  <UniqueID>  (57) 
56

>  <SMILES>  (57) 
C=CCOC(=O)[C@H](C)c1ccc2cc(C(N)=O)n(C(=O)OCc3oc(=O)oc3C)c2c1

>  <Energy>  (57) 
113.93124042476664

>  <Genealogy>  (57) 
C=CCOC(=O)[C@H](C)c1ccc2cc(C(N)=O)n(C(=O)OCc3oc(=O)oc3C)c2c1 (chirality)
C=CCOC(=O)[C@H](C)c1ccc2cc(C(N)=O)n(C(=O)OCc3oc(=O)oc3C)c2c1 (3D coordinates assigned)
C=CCOC(=O)[C@H](C)c1ccc2cc(C(N)=O)n(C(=O)OCc3oc(=O)oc3C)c2c1 (optimized conformer: 113.93124042476664 kcal/mol)

>  <smiles>  (57) 
C=CCOC(=O)C(C)c1ccc2cc(C(N)=O)n(C(=O)OCc3oc(=O)oc3C)c2c1

>  <score_type>  (57) 
oracle

>  <origin>  (57) 
adg

>  <m_score__min__energy>  (57) 
-9.25

>  <m_primary>  (57) 
energy

$$$$
57:0
     RDKit          3D

 32 33  0  0  0  0  0  0  0  0999 V2000
   -8.6210   21.1250  -31.3640 C   0  0  0  0  0  0  0  0  0  0  0  0
   -7.8860   20.0610  -32.1840 C   0  0  1  0  0  0  0  0  0  0  0  0
   -8.8150   19.3100  -32.9210 O   0  0  0  0  0  0  0  0  0  0  0  0
   -6.8800   20.7180  -33.1400 C   0  0  0  0  0  0  0  0  0  0  0  0
   -5.5400   20.9030  -32.4760 C   0  0  0  0  0  0  0  0  0  0  0  0
   -4.5260   19.9280  -32.6440 C   0  0  0  0  0  0  0  0  0  0  0  0
   -3.2590   20.1080  -32.0680 C   0  0  0  0  0  0  0  0  0  0  0  0
   -3.0350   21.2680  -31.3310 C   0  0  0  0  0  0  0  0  0  0  0  0
   -1.8930   21.7070  -30.7030 C   0  0  0  0  0  0  0  0  0  0  0  0
   -2.2320   22.9360  -30.1440 C   0  0  0  0  0  0  0  0  0  0  0  0
   -1.3040   23.7340  -29.3170 C   0  0  0  0  0  0  0  0  0  0  0  0
   -1.3680   25.1610  -29.3030 N   0  0  0  0  0  0  0  0  0  0  0  0
   -0.4810   23.1440  -28.5680 O   0  0  0  0  0  0  0  0  0  0  0  0
   -3.5260   23.2550  -30.4250 N   0  0  0  0  0  0  0  0  0  0  0  0
   -4.2020   24.4890  -30.1300 C   0  0  0  0  0  0  0  0  0  0  0  0
   -5.1020   24.5300  -29.2510 O   0  0  0  0  0  0  0  0  0  0  0  0
   -3.8750   25.6510  -30.8180 O   0  0  0  0  0  0  0  0  0  0  0  0
   -4.0070   22.2200  -31.1520 C   0  0  0  0  0  0  0  0  0  0  0  0
   -5.2740   22.0740  -31.7330 C   0  0  0  0  0  0  0  0  0  0  0  0
   -8.4813   20.9228  -30.2918 H   0  0  0  0  0  0  0  0  0  0  0  0
   -8.2159   22.1187  -31.6056 H   0  0  0  0  0  0  0  0  0  0  0  0
   -9.6938   21.0978  -31.6056 H   0  0  0  0  0  0  0  0  0  0  0  0
   -7.3388   19.4002  -31.4956 H   0  0  0  0  0  0  0  0  0  0  0  0
   -8.7940   19.6590  -33.8510 H   0  0  0  0  0  0  0  0  0  0  0  0
   -6.7563   20.0782  -34.0262 H   0  0  0  0  0  0  0  0  0  0  0  0
   -7.2665   21.7070  -33.4273 H   0  0  0  0  0  0  0  0  0  0  0  0
   -4.7337   19.0214  -33.2314 H   0  0  0  0  0  0  0  0  0  0  0  0
   -2.4668   19.3555  -32.1949 H   0  0  0  0  0  0  0  0  0  0  0  0
   -0.9200   21.1963  -30.6531 H   0  0  0  0  0  0  0  0  0  0  0  0
   -2.1420   25.6710  -29.7810 H   0  0  0  0  0  0  0  0  0  0  0  0
   -0.6810   25.7100  -28.7390 H   0  0  0  0  0  0  0  0  0  0  0  0
   -6.0421   22.8522  -31.6132 H   0  0  0  0  0  0  0  0  0  0  0  0
  1  2  1  0
  2  3  1  0
  2  4  1  0
  4  5  1  0
  5  6  2  0
  6  7  1  0
  7  8  2  0
  8  9  1  0
  9 10  2  0
 10 11  1  0
 11 12  1  0
 11 13  2  0
 10 14  1  0
 14 15  1  0
 15 16  2  0
 15 17  1  0
 14 18  1  0
 18 19  2  0
 19  5  1  0
 18  8  1  0
  1 20  1  0
  1 21  1  0
  1 22  1  0
  2 23  1  1
  3 24  1  0
  4 25  1  0
  4 26  1  0
  6 27  1  0
  7 28  1  0
  9 29  1  0
 12 30  1  0
 12 31  1  0
 19 32  1  0
M  CHG  1  17  -1
M  END
>  <UniqueID>  (58) 
57

>  <SMILES>  (58) 
C[C@@H](O)Cc1ccc2cc(C(N)=O)n(C(=O)[O-])c2c1

>  <Energy>  (58) 
67.57910914649537

>  <Genealogy>  (58) 
CC(O)Cc1ccc2cc(C(N)=O)n(C(=O)[O-])c2c1 (protonated)
C[C@@H](O)Cc1ccc2cc(C(N)=O)n(C(=O)[O-])c2c1 (chirality)
C[C@@H](O)Cc1ccc2cc(C(N)=O)n(C(=O)[O-])c2c1 (3D coordinates assigned)
C[C@@H](O)Cc1ccc2cc(C(N)=O)n(C(=O)[O-])c2c1 (optimized conformer: 67.57910914649537 kcal/mol)

>  <smiles>  (58) 
CC(O)Cc1ccc2cc(C(N)=O)n(C(=O)O)c2c1

>  <score_type>  (58) 
oracle

>  <origin>  (58) 
adg

>  <m_score__min__energy>  (58) 
-8.75

>  <m_primary>  (58) 
energy

$$$$
58:0
     RDKit          3D

 52 53  0  0  0  0  0  0  0  0999 V2000
    3.2110   18.7930  -28.6220 C   0  0  0  0  0  0  0  0  0  0  0  0
    1.7080   19.0170  -28.8520 C   0  0  1  0  0  0  0  0  0  0  0  0
    1.1350   19.7100  -27.5990 C   0  0  0  0  0  0  0  0  0  0  0  0
   -0.2350   20.2900  -27.8380 C   0  0  0  0  0  0  0  0  0  0  0  0
   -1.3840   19.4590  -27.7800 C   0  0  0  0  0  0  0  0  0  0  0  0
   -2.6590   19.9830  -28.0570 C   0  0  0  0  0  0  0  0  0  0  0  0
   -2.7530   21.3350  -28.3780 C   0  0  0  0  0  0  0  0  0  0  0  0
   -3.8490   22.0860  -28.7400 C   0  0  0  0  0  0  0  0  0  0  0  0
   -3.3570   23.3690  -28.9820 C   0  0  0  0  0  0  0  0  0  0  0  0
   -4.2180   24.5220  -29.3240 C   0  0  0  0  0  0  0  0  0  0  0  0
   -3.9700   25.3050  -30.4900 N   0  0  0  0  0  0  0  0  0  0  0  0
   -5.1610   24.8470  -28.5530 O   0  0  0  0  0  0  0  0  0  0  0  0
   -2.0080   23.4070  -28.7830 N   0  0  0  0  0  0  0  0  0  0  0  0
   -1.1160   24.5080  -29.0130 C   0  0  0  0  0  0  0  0  0  0  0  0
   -1.5730   25.6340  -29.3430 O   0  0  0  0  0  0  0  0  0  0  0  0
    0.2570   24.3520  -28.8460 O   0  0  0  0  0  0  0  0  0  0  0  0
   -1.6560   22.1580  -28.4070 C   0  0  0  0  0  0  0  0  0  0  0  0
   -0.3730   21.6600  -28.1510 C   0  0  0  0  0  0  0  0  0  0  0  0
    1.5130   19.8530  -29.9780 O   0  0  0  0  0  0  0  0  0  0  0  0
    0.7490   19.0560  -31.3370 Si  0  0  0  0  0  4  0  0  0  0  0  0
   -0.0780   17.4150  -30.9280 C   0  0  0  0  0  0  0  0  0  0  0  0
    2.1220   18.6660  -32.5460 C   0  0  0  0  0  0  0  0  0  0  0  0
   -0.5210   20.2070  -32.1770 C   0  0  0  0  0  0  0  0  0  0  0  0
   -1.9190   19.5600  -32.1150 C   0  0  0  0  0  0  0  0  0  0  0  0
   -0.1380   20.4350  -33.6520 C   0  0  0  0  0  0  0  0  0  0  0  0
   -0.5460   21.5620  -31.4490 C   0  0  0  0  0  0  0  0  0  0  0  0
    3.4161   18.7624  -27.5417 H   0  0  0  0  0  0  0  0  0  0  0  0
    3.5139   17.8398  -29.0798 H   0  0  0  0  0  0  0  0  0  0  0  0
    3.7787   19.6165  -29.0798 H   0  0  0  0  0  0  0  0  0  0  0  0
    1.2041   18.0558  -29.0314 H   0  0  0  0  0  0  0  0  0  0  0  0
    1.0690   18.9717  -26.7863 H   0  0  0  0  0  0  0  0  0  0  0  0
    1.8087   20.5392  -27.3372 H   0  0  0  0  0  0  0  0  0  0  0  0
   -1.2762   18.3965  -27.5162 H   0  0  0  0  0  0  0  0  0  0  0  0
   -3.5544   19.3450  -28.0213 H   0  0  0  0  0  0  0  0  0  0  0  0
   -4.8920   21.7462  -28.8212 H   0  0  0  0  0  0  0  0  0  0  0  0
   -3.0240   25.3190  -30.9380 H   0  0  0  0  0  0  0  0  0  0  0  0
    0.5062   22.3198  -28.1926 H   0  0  0  0  0  0  0  0  0  0  0  0
   -0.1377   17.2966  -29.8360 H   0  0  0  0  0  0  0  0  0  0  0  0
   -1.0918   17.3990  -31.3545 H   0  0  0  0  0  0  0  0  0  0  0  0
    0.5123   16.5906  -31.3545 H   0  0  0  0  0  0  0  0  0  0  0  0
    3.0359   18.4064  -31.9916 H   0  0  0  0  0  0  0  0  0  0  0  0
    1.8233   17.8172  -33.1787 H   0  0  0  0  0  0  0  0  0  0  0  0
    2.3141   19.5451  -33.1787 H   0  0  0  0  0  0  0  0  0  0  0  0
   -2.2136   19.4236  -31.0640 H   0  0  0  0  0  0  0  0  0  0  0  0
   -2.6476   20.2124  -32.6184 H   0  0  0  0  0  0  0  0  0  0  0  0
   -1.8932   18.5823  -32.6184 H   0  0  0  0  0  0  0  0  0  0  0  0
    0.8062   20.9971  -33.7030 H   0  0  0  0  0  0  0  0  0  0  0  0
   -0.0140   19.4636  -34.1530 H   0  0  0  0  0  0  0  0  0  0  0  0
   -0.9328   21.0071  -34.1530 H   0  0  0  0  0  0  0  0  0  0  0  0
   -0.5429   21.3943  -30.3619 H   0  0  0  0  0  0  0  0  0  0  0  0
    0.3415   22.1469  -31.7323 H   0  0  0  0  0  0  0  0  0  0  0  0
   -1.4545   22.1137  -31.7323 H   0  0  0  0  0  0  0  0  0  0  0  0
  1  2  1  0
  2  3  1  0
  3  4  1  0
  4  5  2  0
  5  6  1  0
  6  7  2  0
  7  8  1  0
  8  9  2  0
  9 10  1  0
 10 11  1  0
 10 12  2  0
  9 13  1  0
 13 14  1  0
 14 15  2  0
 14 16  1  0
 13 17  1  0
 17 18  2  0
  2 19  1  0
 19 20  1  0
 20 21  1  0
 20 22  1  0
 20 23  1  0
 23 24  1  0
 23 25  1  0
 23 26  1  0
 18  4  1  0
 17  7  1  0
  1 27  1  0
  1 28  1  0
  1 29  1  0
  2 30  1  6
  3 31  1  0
  3 32  1  0
  5 33  1  0
  6 34  1  0
  8 35  1  0
 11 36  1  0
 18 37  1  0
 21 38  1  0
 21 39  1  0
 21 40  1  0
 22 41  1  0
 22 42  1  0
 22 43  1  0
 24 44  1  0
 24 45  1  0
 24 46  1  0
 25 47  1  0
 25 48  1  0
 25 49  1  0
 26 50  1  0
 26 51  1  0
 26 52  1  0
M  CHG  2  11  -1  16  -1
M  END
>  <UniqueID>  (59) 
58

>  <SMILES>  (59) 
C[C@@H](Cc1ccc2cc(C([NH-])=O)n(C(=O)[O-])c2c1)O[Si](C)(C)C(C)(C)C

>  <Energy>  (59) 
71.05960607641397

>  <Genealogy>  (59) 
CC(Cc1ccc2cc(C([NH-])=O)n(C(=O)[O-])c2c1)O[Si](C)(C)C(C)(C)C (protonated)
C[C@@H](Cc1ccc2cc(C([NH-])=O)n(C(=O)[O-])c2c1)O[Si](C)(C)C(C)(C)C (chirality)
C[C@@H](Cc1ccc2cc(C([NH-])=O)n(C(=O)[O-])c2c1)O[Si](C)(C)C(C)(C)C (3D coordinates assigned)
C[C@@H](Cc1ccc2cc(C([NH-])=O)n(C(=O)[O-])c2c1)O[Si](C)(C)C(C)(C)C (optimized conformer: 71.05960607641397 kcal/mol)

>  <smiles>  (59) 
CC(Cc1ccc2cc(C(N)=O)n(C(=O)O)c2c1)O[Si](C)(C)C(C)(C)C

>  <score_type>  (59) 
oracle

>  <origin>  (59) 
adg

>  <m_score__min__energy>  (59) 
-12.31

>  <m_primary>  (59) 
energy

$$$$
59:0
     RDKit          3D

 49 50  0  0  0  0  0  0  0  0999 V2000
   -2.9250   18.9500  -26.3580 C   0  0  0  0  0  0  0  0  0  0  0  0
   -2.1270   20.0440  -27.0790 C   0  0  0  0  0  0  0  0  0  0  0  0
   -3.1160   20.9880  -27.7910 C   0  0  0  0  0  0  0  0  0  0  0  0
   -1.2920   20.8210  -26.0400 C   0  0  0  0  0  0  0  0  0  0  0  0
   -1.2780   19.3950  -28.0380 O   0  0  0  0  0  0  0  0  0  0  0  0
   -0.8440   19.9420  -29.2510 C   0  0  0  0  0  0  0  0  0  0  0  0
    0.3800   20.1470  -29.4730 O   0  0  0  0  0  0  0  0  0  0  0  0
   -1.8160   20.2880  -30.2400 N   0  0  0  0  0  0  0  0  0  0  0  0
   -1.5800   20.1560  -31.6720 C   0  0  0  0  0  0  0  0  0  0  0  0
   -1.7210   21.5200  -32.3580 C   0  0  0  0  0  0  0  0  0  0  0  0
   -3.1840   21.9270  -32.5650 C   0  0  0  0  0  0  0  0  0  0  0  0
   -3.7440   22.6770  -31.3860 C   0  0  0  0  0  0  0  0  0  0  0  0
   -2.9630   23.1240  -30.5060 O   0  0  0  0  0  0  0  0  0  0  0  0
   -5.1610   22.8690  -31.2500 N   0  0  0  0  0  0  0  0  0  0  0  0
   -5.8240   24.0260  -30.9610 C   0  0  0  0  0  0  0  0  0  0  0  0
   -5.2060   25.2630  -30.4380 C   0  0  0  0  0  0  0  0  0  0  0  0
   -3.8860   25.6240  -30.8430 N   0  0  0  0  0  0  0  0  0  0  0  0
   -5.8590   26.0350  -29.6920 O   0  0  0  0  0  0  0  0  0  0  0  0
   -7.2010   23.8440  -31.1020 C   0  0  0  0  0  0  0  0  0  0  0  0
   -7.3580   22.5230  -31.4640 C   0  0  0  0  0  0  0  0  0  0  0  0
   -8.5120   21.8000  -31.7380 C   0  0  0  0  0  0  0  0  0  0  0  0
   -8.3730   20.4470  -32.0900 C   0  0  0  0  0  0  0  0  0  0  0  0
   -7.0890   19.8450  -32.1760 C   0  0  0  0  0  0  0  0  0  0  0  0
   -6.9490   18.3800  -32.5140 C   0  0  0  0  0  0  0  0  0  0  0  0
   -6.5580   18.2090  -33.8330 F   0  0  0  0  0  0  0  0  0  0  0  0
   -5.9990   17.7850  -31.7010 F   0  0  0  0  0  0  0  0  0  0  0  0
   -8.1680   17.7520  -32.3190 F   0  0  0  0  0  0  0  0  0  0  0  0
   -5.9460   20.6080  -31.8640 C   0  0  0  0  0  0  0  0  0  0  0  0
   -6.1140   21.9560  -31.5290 C   0  0  0  0  0  0  0  0  0  0  0  0
   -2.8285   19.0823  -25.2703 H   0  0  0  0  0  0  0  0  0  0  0  0
   -3.9850   19.0209  -26.6434 H   0  0  0  0  0  0  0  0  0  0  0  0
   -2.5337   17.9623  -26.6434 H   0  0  0  0  0  0  0  0  0  0  0  0
   -3.6978   21.5433  -27.0405 H   0  0  0  0  0  0  0  0  0  0  0  0
   -2.5579   21.6969  -28.4203 H   0  0  0  0  0  0  0  0  0  0  0  0
   -3.7981   20.3975  -28.4203 H   0  0  0  0  0  0  0  0  0  0  0  0
   -1.6048   20.5299  -25.0264 H   0  0  0  0  0  0  0  0  0  0  0  0
   -0.2261   20.5860  -26.1764 H   0  0  0  0  0  0  0  0  0  0  0  0
   -1.4498   21.9010  -26.1764 H   0  0  0  0  0  0  0  0  0  0  0  0
   -0.5642   19.7682  -31.8390 H   0  0  0  0  0  0  0  0  0  0  0  0
   -2.3205   19.4618  -32.0961 H   0  0  0  0  0  0  0  0  0  0  0  0
   -1.2285   22.2806  -31.7343 H   0  0  0  0  0  0  0  0  0  0  0  0
   -1.2527   21.4439  -33.3504 H   0  0  0  0  0  0  0  0  0  0  0  0
   -3.2492   22.5694  -33.4555 H   0  0  0  0  0  0  0  0  0  0  0  0
   -3.7738   21.0066  -32.6875 H   0  0  0  0  0  0  0  0  0  0  0  0
   -3.0550   25.2940  -30.3070 H   0  0  0  0  0  0  0  0  0  0  0  0
   -7.9919   24.5944  -30.9555 H   0  0  0  0  0  0  0  0  0  0  0  0
   -9.5039   22.2721  -31.6811 H   0  0  0  0  0  0  0  0  0  0  0  0
   -9.2697   19.8461  -32.3017 H   0  0  0  0  0  0  0  0  0  0  0  0
   -4.9443   20.1540  -31.8834 H   0  0  0  0  0  0  0  0  0  0  0  0
  1  2  1  0
  2  3  1  0
  2  4  1  0
  2  5  1  0
  5  6  1  0
  6  7  2  0
  6  8  1  0
  8  9  1  0
  9 10  1  0
 10 11  1  0
 11 12  1  0
 12 13  2  0
 12 14  1  0
 14 15  1  0
 15 16  1  0
 16 17  1  0
 16 18  2  0
 15 19  2  0
 19 20  1  0
 20 21  2  0
 21 22  1  0
 22 23  2  0
 23 24  1  0
 24 25  1  0
 24 26  1  0
 24 27  1  0
 23 28  1  0
 28 29  2  0
 29 14  1  0
 29 20  1  0
  1 30  1  0
  1 31  1  0
  1 32  1  0
  3 33  1  0
  3 34  1  0
  3 35  1  0
  4 36  1  0
  4 37  1  0
  4 38  1  0
  9 39  1  0
  9 40  1  0
 10 41  1  0
 10 42  1  0
 11 43  1  0
 11 44  1  0
 17 45  1  0
 19 46  1  0
 21 47  1  0
 22 48  1  0
 28 49  1  0
M  CHG  2   8  -1  17  -1
M  END
>  <UniqueID>  (60) 
59

>  <SMILES>  (60) 
CC(C)(C)OC(=O)[N-]CCCC(=O)n1c(C([NH-])=O)cc2ccc(C(F)(F)F)cc21

>  <Energy>  (60) 
79.0851904354344

>  <Genealogy>  (60) 
CC(C)(C)OC(=O)[N-]CCCC(=O)n1c(C([NH-])=O)cc2ccc(C(F)(F)F)cc21 (protonated)
CC(C)(C)OC(=O)[N-]CCCC(=O)n1c(C([NH-])=O)cc2ccc(C(F)(F)F)cc21 (3D coordinates assigned)
CC(C)(C)OC(=O)[N-]CCCC(=O)n1c(C([NH-])=O)cc2ccc(C(F)(F)F)cc21 (optimized conformer: 79.0851904354344 kcal/mol)

>  <smiles>  (60) 
CC(C)(C)OC(=O)NCCCC(=O)n1c(C(N)=O)cc2ccc(C(F)(F)F)cc21

>  <score_type>  (60) 
oracle

>  <origin>  (60) 
adg

>  <m_score__min__energy>  (60) 
-12.23

>  <m_primary>  (60) 
energy

$$$$
60:0
     RDKit          3D

 37 39  0  0  0  0  0  0  0  0999 V2000
   -3.8670   25.3250  -30.5820 N   0  0  0  0  0  0  0  0  0  0  0  0
   -5.2680   25.0820  -30.4980 C   0  0  0  0  0  0  0  0  0  0  0  0
   -6.0210   25.9790  -30.0300 O   0  0  0  0  0  0  0  0  0  0  0  0
   -5.8490   23.8020  -30.9590 C   0  0  0  0  0  0  0  0  0  0  0  0
   -7.2180   23.5750  -31.1130 C   0  0  0  0  0  0  0  0  0  0  0  0
   -7.3240   22.2700  -31.5520 C   0  0  0  0  0  0  0  0  0  0  0  0
   -8.4490   21.5150  -31.8690 C   0  0  0  0  0  0  0  0  0  0  0  0
   -8.2550   20.1880  -32.2920 C   0  0  0  0  0  0  0  0  0  0  0  0
   -6.9490   19.6370  -32.3750 C   0  0  0  0  0  0  0  0  0  0  0  0
   -6.7470   18.2270  -32.8660 C   0  0  0  0  0  0  0  0  0  0  0  0
   -6.4330   18.2600  -34.2130 F   0  0  0  0  0  0  0  0  0  0  0  0
   -7.8970   17.4750  -32.6900 F   0  0  0  0  0  0  0  0  0  0  0  0
   -5.7170   17.6110  -32.1760 F   0  0  0  0  0  0  0  0  0  0  0  0
   -5.8310   20.4450  -32.0660 C   0  0  0  0  0  0  0  0  0  0  0  0
   -6.0580   21.7580  -31.6460 C   0  0  0  0  0  0  0  0  0  0  0  0
   -5.1450   22.6840  -31.2920 N   0  0  0  0  0  0  0  0  0  0  0  0
   -3.7280   22.4930  -31.2300 C   0  0  0  0  0  0  0  0  0  0  0  0
   -3.1190   22.1290  -32.2740 O   0  0  0  0  0  0  0  0  0  0  0  0
   -3.0050   22.7030  -29.9970 N   0  0  0  0  0  0  0  0  0  0  0  0
   -3.7240   22.6050  -28.7100 C   0  0  0  0  0  0  0  0  0  0  0  0
   -2.7740   22.2990  -27.5520 C   0  0  0  0  0  0  0  0  0  0  0  0
   -1.6790   23.2570  -27.5510 N   0  0  0  0  0  0  0  0  0  0  0  0
   -1.0390   23.5890  -28.7800 C   0  0  0  0  0  0  0  0  0  0  0  0
   -0.0160   24.3270  -28.7780 O   0  0  0  0  0  0  0  0  0  0  0  0
   -1.5650   23.0340  -30.0720 C   0  0  0  0  0  0  0  0  0  0  0  0
   -3.4870   26.0530  -31.2250 H   0  0  0  0  0  0  0  0  0  0  0  0
   -8.0374   24.2844  -30.9248 H   0  0  0  0  0  0  0  0  0  0  0  0
   -9.4593   21.9431  -31.7911 H   0  0  0  0  0  0  0  0  0  0  0  0
   -9.1243   19.5702  -32.5615 H   0  0  0  0  0  0  0  0  0  0  0  0
   -4.8082   20.0500  -32.1540 H   0  0  0  0  0  0  0  0  0  0  0  0
   -4.2312   23.5607  -28.5116 H   0  0  0  0  0  0  0  0  0  0  0  0
   -4.4491   21.7812  -28.7848 H   0  0  0  0  0  0  0  0  0  0  0  0
   -3.3221   22.3690  -26.6009 H   0  0  0  0  0  0  0  0  0  0  0  0
   -2.3695   21.2830  -27.6708 H   0  0  0  0  0  0  0  0  0  0  0  0
   -1.4050   23.7380  -26.6640 H   0  0  0  0  0  0  0  0  0  0  0  0
   -1.4148   23.7814  -30.8650 H   0  0  0  0  0  0  0  0  0  0  0  0
   -1.0172   22.1045  -30.2863 H   0  0  0  0  0  0  0  0  0  0  0  0
  1  2  1  0
  2  3  2  0
  2  4  1  0
  4  5  2  0
  5  6  1  0
  6  7  2  0
  7  8  1  0
  8  9  2  0
  9 10  1  0
 10 11  1  0
 10 12  1  0
 10 13  1  0
  9 14  1  0
 14 15  2  0
 15 16  1  0
 16 17  1  0
 17 18  2  0
 17 19  1  0
 19 20  1  0
 20 21  1  0
 21 22  1  0
 22 23  1  0
 23 24  2  0
 23 25  1  0
 16  4  1  0
 25 19  1  0
 15  6  1  0
  1 26  1  0
  5 27  1  0
  7 28  1  0
  8 29  1  0
 14 30  1  0
 20 31  1  0
 20 32  1  0
 21 33  1  0
 21 34  1  0
 22 35  1  0
 25 36  1  0
 25 37  1  0
M  CHG  1   1  -1
M  END
>  <UniqueID>  (61) 
60

>  <SMILES>  (61) 
[NH-]C(=O)c1cc2ccc(C(F)(F)F)cc2n1C(=O)N1CCNC(=O)C1

>  <Energy>  (61) 
78.30640697204214

>  <Genealogy>  (61) 
[NH-]C(=O)c1cc2ccc(C(F)(F)F)cc2n1C(=O)N1CCNC(=O)C1 (protonated)
[NH-]C(=O)c1cc2ccc(C(F)(F)F)cc2n1C(=O)N1CCNC(=O)C1 (3D coordinates assigned)
[NH-]C(=O)c1cc2ccc(C(F)(F)F)cc2n1C(=O)N1CCNC(=O)C1 (nonaromatic ring conformer: 78.30640697204214 kcal/mol)

>  <smiles>  (61) 
NC(=O)c1cc2ccc(C(F)(F)F)cc2n1C(=O)N1CCNC(=O)C1

>  <score_type>  (61) 
oracle

>  <origin>  (61) 
adg

>  <m_score__min__energy>  (61) 
-10.73

>  <m_primary>  (61) 
energy

$$$$
61:0
     RDKit          3D

 42 43  0  0  0  0  0  0  0  0999 V2000
   -3.4890   19.8490  -33.6170 C   0  0  0  0  0  0  0  0  0  0  0  0
   -2.7370   20.8190  -32.7200 C   0  0  0  0  0  0  0  0  0  0  0  0
   -3.4430   22.0540  -32.6580 O   0  0  0  0  0  0  0  0  0  0  0  0
   -3.9350   22.5840  -31.4630 C   0  0  0  0  0  0  0  0  0  0  0  0
   -3.1760   22.7080  -30.4620 O   0  0  0  0  0  0  0  0  0  0  0  0
   -5.3050   23.0090  -31.3810 N   0  0  0  0  0  0  0  0  0  0  0  0
   -5.7780   24.2000  -30.9180 C   0  0  0  0  0  0  0  0  0  0  0  0
   -4.9630   25.3810  -30.5640 C   0  0  0  0  0  0  0  0  0  0  0  0
   -3.5450   25.2880  -30.4590 N   0  0  0  0  0  0  0  0  0  0  0  0
   -5.5220   26.4980  -30.3990 O   0  0  0  0  0  0  0  0  0  0  0  0
   -7.1710   24.1960  -30.8940 C   0  0  0  0  0  0  0  0  0  0  0  0
   -7.5410   22.9580  -31.3680 C   0  0  0  0  0  0  0  0  0  0  0  0
   -8.8050   22.4100  -31.5450 C   0  0  0  0  0  0  0  0  0  0  0  0
   -8.8920   21.0920  -32.0250 C   0  0  0  0  0  0  0  0  0  0  0  0
   -7.7220   20.3430  -32.3080 C   0  0  0  0  0  0  0  0  0  0  0  0
   -7.8570   18.9910  -32.7860 N   0  0  0  0  0  0  0  0  0  0  0  0
   -7.6150   17.8150  -31.9460 C   0  0  0  0  0  0  0  0  0  0  0  0
   -6.2540   17.1770  -32.2420 C   0  0  0  0  0  0  0  0  0  0  0  0
   -5.9580   17.0170  -33.9990 S   0  0  0  0  0  0  0  0  0  0  0  0
   -4.2720   16.5170  -34.2610 C   0  0  0  0  0  0  0  0  0  0  0  0
   -6.1950   18.3290  -34.6920 O   0  0  0  0  0  0  0  0  0  0  0  0
   -6.8760   15.9770  -34.5780 O   0  0  0  0  0  0  0  0  0  0  0  0
   -6.4510   20.9380  -32.1150 C   0  0  0  0  0  0  0  0  0  0  0  0
   -6.3970   22.2590  -31.6550 C   0  0  0  0  0  0  0  0  0  0  0  0
   -4.0453   19.1314  -32.9960 H   0  0  0  0  0  0  0  0  0  0  0  0
   -4.1927   20.4071  -34.2520 H   0  0  0  0  0  0  0  0  0  0  0  0
   -2.7731   19.3066  -34.2520 H   0  0  0  0  0  0  0  0  0  0  0  0
   -2.6532   20.3936  -31.7091 H   0  0  0  0  0  0  0  0  0  0  0  0
   -1.7310   20.9923  -33.1299 H   0  0  0  0  0  0  0  0  0  0  0  0
   -2.9880   24.7560  -31.1640 H   0  0  0  0  0  0  0  0  0  0  0  0
   -7.8344   25.0097  -30.5658 H   0  0  0  0  0  0  0  0  0  0  0  0
   -9.7110   22.9904  -31.3163 H   0  0  0  0  0  0  0  0  0  0  0  0
   -9.8804   20.6358  -32.1831 H   0  0  0  0  0  0  0  0  0  0  0  0
   -8.1280   18.8510  -33.7860 H   0  0  0  0  0  0  0  0  0  0  0  0
   -7.6435   18.1198  -30.8894 H   0  0  0  0  0  0  0  0  0  0  0  0
   -8.3964   17.0719  -32.1634 H   0  0  0  0  0  0  0  0  0  0  0  0
   -5.4643   17.8054  -31.8044 H   0  0  0  0  0  0  0  0  0  0  0  0
   -6.2484   16.1685  -31.8029 H   0  0  0  0  0  0  0  0  0  0  0  0
   -3.7778   16.3704  -33.2893 H   0  0  0  0  0  0  0  0  0  0  0  0
   -4.2529   15.5745  -34.8279 H   0  0  0  0  0  0  0  0  0  0  0  0
   -3.7422   17.2967  -34.8279 H   0  0  0  0  0  0  0  0  0  0  0  0
   -5.5286   20.3755  -32.3217 H   0  0  0  0  0  0  0  0  0  0  0  0
  1  2  1  0
  2  3  1  0
  3  4  1  0
  4  5  2  0
  4  6  1  0
  6  7  1  0
  7  8  1  0
  8  9  1  0
  8 10  2  0
  7 11  2  0
 11 12  1  0
 12 13  2  0
 13 14  1  0
 14 15  2  0
 15 16  1  0
 16 17  1  0
 17 18  1  0
 18 19  1  0
 19 20  1  0
 19 21  2  0
 19 22  2  0
 15 23  1  0
 23 24  2  0
 24  6  1  0
 24 12  1  0
  1 25  1  0
  1 26  1  0
  1 27  1  0
  2 28  1  0
  2 29  1  0
  9 30  1  0
 11 31  1  0
 13 32  1  0
 14 33  1  0
 16 34  1  0
 17 35  1  0
 17 36  1  0
 18 37  1  0
 18 38  1  0
 20 39  1  0
 20 40  1  0
 20 41  1  0
 23 42  1  0
M  CHG  1   9  -1
M  END
>  <UniqueID>  (62) 
61

>  <SMILES>  (62) 
CCOC(=O)n1c(C([NH-])=O)cc2ccc(NCCS(C)(=O)=O)cc21

>  <Energy>  (62) 
66.66970131583697

>  <Genealogy>  (62) 
CCOC(=O)n1c(C([NH-])=O)cc2ccc(NCCS(C)(=O)=O)cc21 (protonated)
CCOC(=O)n1c(C([NH-])=O)cc2ccc(NCCS(C)(=O)=O)cc21 (3D coordinates assigned)
CCOC(=O)n1c(C([NH-])=O)cc2ccc(NCCS(C)(=O)=O)cc21 (optimized conformer: 66.66970131583697 kcal/mol)

>  <smiles>  (62) 
CCOC(=O)n1c(C(N)=O)cc2ccc(NCCS(C)(=O)=O)cc21

>  <score_type>  (62) 
oracle

>  <origin>  (62) 
adg

>  <m_score__min__energy>  (62) 
-10.289999999999999

>  <m_primary>  (62) 
energy

$$$$
62:0
     RDKit          3D

 29 30  0  0  0  0  0  0  0  0999 V2000
   -1.6310   25.6710  -28.9800 N   0  0  0  0  0  0  0  0  0  0  0  0
   -1.0300   24.3930  -29.1720 C   0  0  0  0  0  0  0  0  0  0  0  0
    0.1170   24.1740  -28.6990 O   0  0  0  0  0  0  0  0  0  0  0  0
   -1.7060   23.3460  -29.9660 C   0  0  0  0  0  0  0  0  0  0  0  0
   -1.0790   22.1710  -30.3740 C   0  0  0  0  0  0  0  0  0  0  0  0
   -2.0010   21.5180  -31.1580 C   0  0  0  0  0  0  0  0  0  0  0  0
   -1.9080   20.2980  -31.8210 C   0  0  0  0  0  0  0  0  0  0  0  0
   -3.0300   19.8530  -32.5420 C   0  0  0  0  0  0  0  0  0  0  0  0
   -4.2180   20.6240  -32.5770 C   0  0  0  0  0  0  0  0  0  0  0  0
   -5.4070   20.1480  -33.3710 C   0  0  0  0  0  0  0  0  0  0  0  0
   -6.7310   20.5470  -32.7060 C   0  0  0  0  0  0  0  0  0  0  0  0
   -7.6700   19.3840  -32.6050 C   0  0  0  0  0  0  0  0  0  0  0  0
   -7.2190   18.2190  -32.4500 O   0  0  0  0  0  0  0  0  0  0  0  0
   -9.0400   19.5830  -32.7250 O   0  0  0  0  0  0  0  0  0  0  0  0
   -4.2720   21.8610  -31.8980 C   0  0  0  0  0  0  0  0  0  0  0  0
   -3.1350   22.2890  -31.2020 C   0  0  0  0  0  0  0  0  0  0  0  0
   -2.9700   23.4150  -30.4720 N   0  0  0  0  0  0  0  0  0  0  0  0
   -3.9670   24.4160  -30.2090 C   0  0  0  0  0  0  0  0  0  0  0  0
   -4.9120   24.1790  -29.4090 O   0  0  0  0  0  0  0  0  0  0  0  0
   -3.8830   25.6640  -30.8120 O   0  0  0  0  0  0  0  0  0  0  0  0
   -2.6670   25.7880  -29.0200 H   0  0  0  0  0  0  0  0  0  0  0  0
   -0.0618   21.8363  -30.1224 H   0  0  0  0  0  0  0  0  0  0  0  0
   -0.9853   19.7004  -31.7822 H   0  0  0  0  0  0  0  0  0  0  0  0
   -2.9850   18.8970  -33.0842 H   0  0  0  0  0  0  0  0  0  0  0  0
   -5.3651   20.5923  -34.3764 H   0  0  0  0  0  0  0  0  0  0  0  0
   -5.3669   19.0500  -33.4229 H   0  0  0  0  0  0  0  0  0  0  0  0
   -6.5225   20.9263  -31.6947 H   0  0  0  0  0  0  0  0  0  0  0  0
   -7.2075   21.3211  -33.3254 H   0  0  0  0  0  0  0  0  0  0  0  0
   -5.1854   22.4736  -31.9155 H   0  0  0  0  0  0  0  0  0  0  0  0
  1  2  1  0
  2  3  2  0
  2  4  1  0
  4  5  2  0
  5  6  1  0
  6  7  2  0
  7  8  1  0
  8  9  2  0
  9 10  1  0
 10 11  1  0
 11 12  1  0
 12 13  2  0
 12 14  1  0
  9 15  1  0
 15 16  2  0
 16 17  1  0
 17 18  1  0
 18 19  2  0
 18 20  1  0
 17  4  1  0
 16  6  1  0
  1 21  1  0
  5 22  1  0
  7 23  1  0
  8 24  1  0
 10 25  1  0
 10 26  1  0
 11 27  1  0
 11 28  1  0
 15 29  1  0
M  CHG  3   1  -1  14  -1  20  -1
M  END
>  <UniqueID>  (63) 
62

>  <SMILES>  (63) 
[NH-]C(=O)c1cc2ccc(CCC(=O)[O-])cc2n1C(=O)[O-]

>  <Energy>  (63) 
65.90992559231172

>  <Genealogy>  (63) 
[NH-]C(=O)c1cc2ccc(CCC(=O)[O-])cc2n1C(=O)[O-] (protonated)
[NH-]C(=O)c1cc2ccc(CCC(=O)[O-])cc2n1C(=O)[O-] (3D coordinates assigned)
[NH-]C(=O)c1cc2ccc(CCC(=O)[O-])cc2n1C(=O)[O-] (optimized conformer: 65.90992559231172 kcal/mol)

>  <smiles>  (63) 
NC(=O)c1cc2ccc(CCC(=O)O)cc2n1C(=O)O

>  <score_type>  (63) 
oracle

>  <origin>  (63) 
adg

>  <m_score__min__energy>  (63) 
-10.380000000000001

>  <m_primary>  (63) 
energy

$$$$
63:0
     RDKit          3D

 64 65  0  0  0  0  0  0  0  0999 V2000
   -3.7960   24.2470  -27.6300 C   0  0  0  0  0  0  0  0  0  0  0  0
   -2.6440   24.2100  -28.5450 N   0  0  0  0  0  0  0  0  0  0  0  0
   -1.6310   25.2070  -28.1660 C   0  0  0  0  0  0  0  0  0  0  0  0
   -2.0800   22.8510  -28.7120 C   0  0  0  0  0  0  0  0  0  0  0  0
   -3.1250   21.7240  -28.7270 C   0  0  0  0  0  0  0  0  0  0  0  0
   -3.5330   21.4840  -30.0700 O   0  0  0  0  0  0  0  0  0  0  0  0
   -3.9290   22.5110  -30.9340 C   0  0  0  0  0  0  0  0  0  0  0  0
   -3.0650   23.1520  -31.5910 O   0  0  0  0  0  0  0  0  0  0  0  0
   -5.3240   22.8310  -31.0740 N   0  0  0  0  0  0  0  0  0  0  0  0
   -5.9140   24.0520  -30.9330 C   0  0  0  0  0  0  0  0  0  0  0  0
   -5.2560   25.2840  -30.4540 C   0  0  0  0  0  0  0  0  0  0  0  0
   -3.9200   25.5960  -30.8410 N   0  0  0  0  0  0  0  0  0  0  0  0
   -5.8620   26.0440  -29.6540 O   0  0  0  0  0  0  0  0  0  0  0  0
   -7.2750   23.9790  -31.2150 C   0  0  0  0  0  0  0  0  0  0  0  0
   -7.5120   22.6580  -31.5190 C   0  0  0  0  0  0  0  0  0  0  0  0
   -8.6980   22.0200  -31.8710 C   0  0  0  0  0  0  0  0  0  0  0  0
   -8.6480   20.6460  -32.1570 C   0  0  0  0  0  0  0  0  0  0  0  0
   -7.4200   19.9420  -32.1000 C   0  0  0  0  0  0  0  0  0  0  0  0
   -7.3640   18.4880  -32.4810 C   0  0  0  0  0  0  0  0  0  0  0  0
   -5.9710   17.8880  -32.2440 C   0  0  0  0  0  0  0  0  0  0  0  0
   -5.1290   17.9840  -33.4510 N   0  0  0  0  0  0  0  0  0  0  0  0
   -5.7710   18.3450  -34.7190 C   0  0  0  0  0  0  0  0  0  0  0  0
   -3.7080   17.6900  -33.4600 C   0  0  0  0  0  0  0  0  0  0  0  0
   -3.2720   16.7380  -32.7560 O   0  0  0  0  0  0  0  0  0  0  0  0
   -2.7070   18.4680  -34.2810 C   0  0  0  0  0  0  0  0  0  0  0  0
   -2.2500   19.8140  -33.6480 C   0  0  0  0  0  0  0  0  0  0  0  0
   -3.4930   20.7130  -33.5080 C   0  0  0  0  0  0  0  0  0  0  0  0
   -1.6610   19.6100  -32.2330 C   0  0  0  0  0  0  0  0  0  0  0  0
   -1.3390   20.5170  -34.5110 O   0  0  0  0  0  0  0  0  0  0  0  0
   -0.1760   21.2110  -34.1470 C   0  0  0  0  0  0  0  0  0  0  0  0
    0.2920   22.1470  -34.8460 O   0  0  0  0  0  0  0  0  0  0  0  0
   -6.2360   20.6230  -31.7410 C   0  0  0  0  0  0  0  0  0  0  0  0
   -6.3190   21.9860  -31.4330 C   0  0  0  0  0  0  0  0  0  0  0  0
   -3.4385   24.2355  -26.5898 H   0  0  0  0  0  0  0  0  0  0  0  0
   -4.3764   25.1643  -27.8081 H   0  0  0  0  0  0  0  0  0  0  0  0
   -4.4341   23.3689  -27.8081 H   0  0  0  0  0  0  0  0  0  0  0  0
   -1.5689   25.2681  -27.0695 H   0  0  0  0  0  0  0  0  0  0  0  0
   -0.6533   24.9091  -28.5726 H   0  0  0  0  0  0  0  0  0  0  0  0
   -1.9133   26.1894  -28.5726 H   0  0  0  0  0  0  0  0  0  0  0  0
   -1.5299   22.8220  -29.6642 H   0  0  0  0  0  0  0  0  0  0  0  0
   -1.4373   22.6697  -27.8379 H   0  0  0  0  0  0  0  0  0  0  0  0
   -2.6846   20.8078  -28.3066 H   0  0  0  0  0  0  0  0  0  0  0  0
   -3.9956   22.0181  -28.1224 H   0  0  0  0  0  0  0  0  0  0  0  0
   -3.1130   25.0380  -30.4830 H   0  0  0  0  0  0  0  0  0  0  0  0
   -8.0052   24.8015  -31.1984 H   0  0  0  0  0  0  0  0  0  0  0  0
   -9.6460   22.5754  -31.9236 H   0  0  0  0  0  0  0  0  0  0  0  0
   -9.5706   20.1116  -32.4277 H   0  0  0  0  0  0  0  0  0  0  0  0
   -8.0976   17.9336  -31.8773 H   0  0  0  0  0  0  0  0  0  0  0  0
   -7.5921   18.4075  -33.5541 H   0  0  0  0  0  0  0  0  0  0  0  0
   -5.4821   18.4327  -31.4228 H   0  0  0  0  0  0  0  0  0  0  0  0
   -6.0917   16.8243  -31.9909 H   0  0  0  0  0  0  0  0  0  0  0  0
   -6.7132   18.8748  -34.5152 H   0  0  0  0  0  0  0  0  0  0  0  0
   -5.1005   18.9984  -35.2965 H   0  0  0  0  0  0  0  0  0  0  0  0
   -5.9809   17.4326  -35.2965 H   0  0  0  0  0  0  0  0  0  0  0  0
   -1.8172   17.8372  -34.4235 H   0  0  0  0  0  0  0  0  0  0  0  0
   -3.2123   18.7247  -35.2238 H   0  0  0  0  0  0  0  0  0  0  0  0
   -3.7125   20.8718  -32.4419 H   0  0  0  0  0  0  0  0  0  0  0  0
   -3.3007   21.6824  -33.9911 H   0  0  0  0  0  0  0  0  0  0  0  0
   -4.3534   20.2269  -33.9911 H   0  0  0  0  0  0  0  0  0  0  0  0
   -2.4181   19.8722  -31.4794 H   0  0  0  0  0  0  0  0  0  0  0  0
   -1.3669   18.5576  -32.1065 H   0  0  0  0  0  0  0  0  0  0  0  0
   -0.7790   20.2550  -32.1065 H   0  0  0  0  0  0  0  0  0  0  0  0
    0.3442   20.9279  -33.2201 H   0  0  0  0  0  0  0  0  0  0  0  0
   -5.2717   20.0950  -31.7043 H   0  0  0  0  0  0  0  0  0  0  0  0
  1  2  1  0
  2  3  1  0
  2  4  1  0
  4  5  1  0
  5  6  1  0
  6  7  1  0
  7  8  2  0
  7  9  1  0
  9 10  1  0
 10 11  1  0
 11 12  1  0
 11 13  2  0
 10 14  2  0
 14 15  1  0
 15 16  2  0
 16 17  1  0
 17 18  2  0
 18 19  1  0
 19 20  1  0
 20 21  1  0
 21 22  1  0
 21 23  1  0
 23 24  2  0
 23 25  1  0
 25 26  1  0
 26 27  1  0
 26 28  1  0
 26 29  1  0
 29 30  1  0
 30 31  2  0
 18 32  1  0
 32 33  2  0
 33  9  1  0
 33 15  1  0
  1 34  1  0
  1 35  1  0
  1 36  1  0
  3 37  1  0
  3 38  1  0
  3 39  1  0
  4 40  1  0
  4 41  1  0
  5 42  1  0
  5 43  1  0
 12 44  1  0
 14 45  1  0
 16 46  1  0
 17 47  1  0
 19 48  1  0
 19 49  1  0
 20 50  1  0
 20 51  1  0
 22 52  1  0
 22 53  1  0
 22 54  1  0
 25 55  1  0
 25 56  1  0
 27 57  1  0
 27 58  1  0
 27 59  1  0
 28 60  1  0
 28 61  1  0
 28 62  1  0
 30 63  1  0
 32 64  1  0
M  CHG  1  12  -1
M  END
>  <UniqueID>  (64) 
63

>  <SMILES>  (64) 
CN(C)CCOC(=O)n1c(C([NH-])=O)cc2ccc(CCN(C)C(=O)CC(C)(C)OC=O)cc21

>  <Energy>  (64) 
95.94468033240265

>  <Genealogy>  (64) 
CN(C)CCOC(=O)n1c(C([NH-])=O)cc2ccc(CCN(C)C(=O)CC(C)(C)OC=O)cc21 (protonated)
CN(C)CCOC(=O)n1c(C([NH-])=O)cc2ccc(CCN(C)C(=O)CC(C)(C)OC=O)cc21 (3D coordinates assigned)
CN(C)CCOC(=O)n1c(C([NH-])=O)cc2ccc(CCN(C)C(=O)CC(C)(C)OC=O)cc21 (optimized conformer: 95.94468033240265 kcal/mol)

>  <smiles>  (64) 
CN(C)CCOC(=O)n1c(C(N)=O)cc2ccc(CCN(C)C(=O)CC(C)(C)OC=O)cc21

>  <score_type>  (64) 
oracle

>  <origin>  (64) 
adg

>  <m_score__min__energy>  (64) 
-10.470000000000001

>  <m_primary>  (64) 
energy

$$$$
64:0
     RDKit          3D

 44 46  0  0  0  0  0  0  0  0999 V2000
   -3.6940   16.5660  -33.2210 C   0  0  0  0  0  0  0  0  0  0  0  0
   -4.6840   17.4650  -33.9670 C   0  0  2  0  0  0  0  0  0  0  0  0
   -4.1590   18.9180  -34.0130 C   0  0  0  0  0  0  0  0  0  0  0  0
   -4.4190   19.5880  -32.7370 N   0  0  0  0  0  0  0  0  0  0  0  0
   -3.3730   20.3000  -32.0440 C   0  0  0  0  0  0  0  0  0  0  0  0
   -2.0560   19.7740  -31.9970 C   0  0  0  0  0  0  0  0  0  0  0  0
   -1.0260   20.4710  -31.3440 C   0  0  0  0  0  0  0  0  0  0  0  0
   -1.3380   21.6850  -30.7440 C   0  0  0  0  0  0  0  0  0  0  0  0
   -0.5300   22.5730  -30.0720 C   0  0  0  0  0  0  0  0  0  0  0  0
   -1.3660   23.6240  -29.6990 C   0  0  0  0  0  0  0  0  0  0  0  0
   -0.9160   24.7670  -28.8770 C   0  0  0  0  0  0  0  0  0  0  0  0
   -1.6160   26.0070  -28.9420 N   0  0  0  0  0  0  0  0  0  0  0  0
    0.1060   24.6730  -28.1460 O   0  0  0  0  0  0  0  0  0  0  0  0
   -2.6400   23.3970  -30.1300 N   0  0  0  0  0  0  0  0  0  0  0  0
   -3.7820   24.2610  -30.0050 C   0  0  0  0  0  0  0  0  0  0  0  0
   -4.7150   23.9730  -29.2110 O   0  0  0  0  0  0  0  0  0  0  0  0
   -3.8560   25.4360  -30.7430 O   0  0  0  0  0  0  0  0  0  0  0  0
   -2.6060   22.2040  -30.7640 C   0  0  0  0  0  0  0  0  0  0  0  0
   -3.6470   21.5410  -31.4230 C   0  0  0  0  0  0  0  0  0  0  0  0
   -5.7660   19.5140  -32.1660 C   0  0  0  0  0  0  0  0  0  0  0  0
   -6.6950   18.6250  -33.0210 C   0  0  2  0  0  0  0  0  0  0  0  0
   -8.0190   18.4270  -32.2590 C   0  0  0  0  0  0  0  0  0  0  0  0
   -6.0250   17.3300  -33.3200 N   0  0  0  0  0  0  0  0  0  0  0  0
   -6.8860   16.4300  -34.1150 C   0  0  0  0  0  0  0  0  0  0  0  0
   -3.8310   16.6904  -32.1367 H   0  0  0  0  0  0  0  0  0  0  0  0
   -3.8737   15.5160  -33.4952 H   0  0  0  0  0  0  0  0  0  0  0  0
   -2.6661   16.8458  -33.4952 H   0  0  0  0  0  0  0  0  0  0  0  0
   -4.7893   17.1551  -35.0172 H   0  0  0  0  0  0  0  0  0  0  0  0
   -3.0758   18.9075  -34.2043 H   0  0  0  0  0  0  0  0  0  0  0  0
   -4.6760   19.4622  -34.8171 H   0  0  0  0  0  0  0  0  0  0  0  0
   -1.8390   18.8087  -32.4778 H   0  0  0  0  0  0  0  0  0  0  0  0
   -0.0031   20.0679  -31.3086 H   0  0  0  0  0  0  0  0  0  0  0  0
    0.5471   22.4744  -29.8717 H   0  0  0  0  0  0  0  0  0  0  0  0
   -2.6590   26.0330  -28.9910 H   0  0  0  0  0  0  0  0  0  0  0  0
   -4.6569   21.9755  -31.4574 H   0  0  0  0  0  0  0  0  0  0  0  0
   -5.7017   19.0925  -31.1520 H   0  0  0  0  0  0  0  0  0  0  0  0
   -6.1869   20.5300  -32.1418 H   0  0  0  0  0  0  0  0  0  0  0  0
   -6.9138   19.1063  -33.9856 H   0  0  0  0  0  0  0  0  0  0  0  0
   -7.8268   18.4557  -31.1763 H   0  0  0  0  0  0  0  0  0  0  0  0
   -8.7207   19.2302  -32.5283 H   0  0  0  0  0  0  0  0  0  0  0  0
   -8.4550   17.4537  -32.5283 H   0  0  0  0  0  0  0  0  0  0  0  0
   -7.4854   15.8035  -33.4381 H   0  0  0  0  0  0  0  0  0  0  0  0
   -7.5558   17.0291  -34.7494 H   0  0  0  0  0  0  0  0  0  0  0  0
   -6.2578   15.7874  -34.7494 H   0  0  0  0  0  0  0  0  0  0  0  0
  1  2  1  0
  2  3  1  0
  3  4  1  0
  4  5  1  0
  5  6  2  0
  6  7  1  0
  7  8  2  0
  8  9  1  0
  9 10  2  0
 10 11  1  0
 11 12  1  0
 11 13  2  0
 10 14  1  0
 14 15  1  0
 15 16  2  0
 15 17  1  0
 14 18  1  0
 18 19  2  0
  4 20  1  0
 20 21  1  0
 21 22  1  0
 21 23  1  0
 23 24  1  0
 23  2  1  0
 19  5  1  0
 18  8  1  0
  1 25  1  0
  1 26  1  0
  1 27  1  0
  2 28  1  6
  3 29  1  0
  3 30  1  0
  6 31  1  0
  7 32  1  0
  9 33  1  0
 12 34  1  0
 19 35  1  0
 20 36  1  0
 20 37  1  0
 21 38  1  6
 22 39  1  0
 22 40  1  0
 22 41  1  0
 24 42  1  0
 24 43  1  0
 24 44  1  0
M  CHG  2  12  -1  17  -1
M  END
>  <UniqueID>  (65) 
64

>  <SMILES>  (65) 
C[C@@H]1CN(c2ccc3cc(C([NH-])=O)n(C(=O)[O-])c3c2)C[C@H](C)N1C

>  <Energy>  (65) 
93.9480425758649

>  <Genealogy>  (65) 
CC1CN(c2ccc3cc(C([NH-])=O)n(C(=O)[O-])c3c2)CC(C)N1C (protonated)
C[C@@H]1CN(c2ccc3cc(C([NH-])=O)n(C(=O)[O-])c3c2)C[C@H](C)N1C (chirality)
C[C@@H]1CN(c2ccc3cc(C([NH-])=O)n(C(=O)[O-])c3c2)C[C@H](C)N1C (3D coordinates assigned)
C[C@@H]1CN(c2ccc3cc(C([NH-])=O)n(C(=O)[O-])c3c2)C[C@H](C)N1C (nonaromatic ring conformer: 93.9480425758649 kcal/mol)

>  <smiles>  (65) 
CC1CN(c2ccc3cc(C(N)=O)n(C(=O)O)c3c2)CC(C)N1C

>  <score_type>  (65) 
oracle

>  <origin>  (65) 
adg

>  <m_score__min__energy>  (65) 
-11.859999999999999

>  <m_primary>  (65) 
energy

$$$$
65:0
     RDKit          3D

 37 39  0  0  0  0  0  0  0  0999 V2000
   -1.3790   25.9690  -28.9490 N   0  0  0  0  0  0  0  0  0  0  0  0
   -0.7160   24.7070  -28.9350 C   0  0  0  0  0  0  0  0  0  0  0  0
    0.3860   24.5970  -28.3360 O   0  0  0  0  0  0  0  0  0  0  0  0
   -1.3480   23.5380  -29.5810 C   0  0  0  0  0  0  0  0  0  0  0  0
   -0.6430   22.3950  -29.9530 C   0  0  0  0  0  0  0  0  0  0  0  0
   -1.5590   21.5920  -30.5920 C   0  0  0  0  0  0  0  0  0  0  0  0
   -1.4010   20.3310  -31.1580 C   0  0  0  0  0  0  0  0  0  0  0  0
   -2.5300   19.7220  -31.7310 C   0  0  0  0  0  0  0  0  0  0  0  0
   -3.7900   20.3720  -31.7190 C   0  0  0  0  0  0  0  0  0  0  0  0
   -4.9390   19.7360  -32.3090 N   0  0  0  0  0  0  0  0  0  0  0  0
   -5.4430   18.4780  -31.7400 C   0  0  0  0  0  0  0  0  0  0  0  0
   -6.7630   18.0430  -32.3930 C   0  0  0  0  0  0  0  0  0  0  0  0
   -7.6620   19.1980  -32.5550 N   0  0  0  0  0  0  0  0  0  0  0  0
   -9.0750   19.0630  -32.3080 C   0  0  0  0  0  0  0  0  0  0  0  0
   -9.8380   20.0580  -32.4230 O   0  0  0  0  0  0  0  0  0  0  0  0
   -9.6170   17.8350  -31.9440 O   0  0  0  0  0  0  0  0  0  0  0  0
   -7.1430   20.4680  -33.0860 C   0  0  0  0  0  0  0  0  0  0  0  0
   -5.6540   20.3690  -33.4230 C   0  0  0  0  0  0  0  0  0  0  0  0
   -3.9070   21.6550  -31.1390 C   0  0  0  0  0  0  0  0  0  0  0  0
   -2.7630   22.2470  -30.5920 C   0  0  0  0  0  0  0  0  0  0  0  0
   -2.6520   23.4430  -29.9710 N   0  0  0  0  0  0  0  0  0  0  0  0
   -3.7160   24.3770  -29.7280 C   0  0  0  0  0  0  0  0  0  0  0  0
   -4.5400   24.1760  -28.7970 O   0  0  0  0  0  0  0  0  0  0  0  0
   -3.8620   25.5000  -30.5330 O   0  0  0  0  0  0  0  0  0  0  0  0
   -2.4210   26.0280  -28.9680 H   0  0  0  0  0  0  0  0  0  0  0  0
    0.4208   22.1803  -29.7736 H   0  0  0  0  0  0  0  0  0  0  0  0
   -0.4233   19.8269  -31.1569 H   0  0  0  0  0  0  0  0  0  0  0  0
   -2.4353   18.7289  -32.1945 H   0  0  0  0  0  0  0  0  0  0  0  0
   -4.6917   17.6902  -31.8975 H   0  0  0  0  0  0  0  0  0  0  0  0
   -5.6296   18.6391  -30.6680 H   0  0  0  0  0  0  0  0  0  0  0  0
   -6.5521   17.6068  -33.3806 H   0  0  0  0  0  0  0  0  0  0  0  0
   -7.2518   17.2988  -31.7470 H   0  0  0  0  0  0  0  0  0  0  0  0
   -7.6994   20.7276  -33.9987 H   0  0  0  0  0  0  0  0  0  0  0  0
   -7.2713   21.2421  -32.3151 H   0  0  0  0  0  0  0  0  0  0  0  0
   -5.5238   19.7642  -34.3326 H   0  0  0  0  0  0  0  0  0  0  0  0
   -5.2493   21.3779  -33.5910 H   0  0  0  0  0  0  0  0  0  0  0  0
   -4.8752   22.1767  -31.1179 H   0  0  0  0  0  0  0  0  0  0  0  0
  1  2  1  0
  2  3  2  0
  2  4  1  0
  4  5  2  0
  5  6  1  0
  6  7  2  0
  7  8  1  0
  8  9  2  0
  9 10  1  0
 10 11  1  0
 11 12  1  0
 12 13  1  0
 13 14  1  0
 14 15  2  0
 14 16  1  0
 13 17  1  0
 17 18  1  0
  9 19  1  0
 19 20  2  0
 20 21  1  0
 21 22  1  0
 22 23  2  0
 22 24  1  0
 21  4  1  0
 20  6  1  0
 18 10  1  0
  1 25  1  0
  5 26  1  0
  7 27  1  0
  8 28  1  0
 11 29  1  0
 11 30  1  0
 12 31  1  0
 12 32  1  0
 17 33  1  0
 17 34  1  0
 18 35  1  0
 18 36  1  0
 19 37  1  0
M  CHG  3   1  -1  16  -1  24  -1
M  END
>  <UniqueID>  (66) 
65

>  <SMILES>  (66) 
[NH-]C(=O)c1cc2ccc(N3CCN(C(=O)[O-])CC3)cc2n1C(=O)[O-]

>  <Energy>  (66) 
82.10523333915212

>  <Genealogy>  (66) 
[NH-]C(=O)c1cc2ccc(N3CCN(C(=O)[O-])CC3)cc2n1C(=O)[O-] (protonated)
[NH-]C(=O)c1cc2ccc(N3CCN(C(=O)[O-])CC3)cc2n1C(=O)[O-] (3D coordinates assigned)
[NH-]C(=O)c1cc2ccc(N3CCN(C(=O)[O-])CC3)cc2n1C(=O)[O-] (nonaromatic ring conformer: 82.10523333915212 kcal/mol)

>  <smiles>  (66) 
NC(=O)c1cc2ccc(N3CCN(C(=O)O)CC3)cc2n1C(=O)O

>  <score_type>  (66) 
oracle

>  <origin>  (66) 
adg

>  <m_score__min__energy>  (66) 
-11.24

>  <m_primary>  (66) 
energy

$$$$
66:0
     RDKit          3D

 45 46  0  0  0  0  0  0  0  0999 V2000
   -0.6470   20.5340  -33.0900 C   0  0  0  0  0  0  0  0  0  0  0  0
   -1.4270   20.9520  -31.8480 C   0  0  0  0  0  0  0  0  0  0  0  0
   -2.2040   22.1180  -32.1120 O   0  0  0  0  0  0  0  0  0  0  0  0
   -3.0820   22.6870  -31.1800 C   0  0  0  0  0  0  0  0  0  0  0  0
   -2.6390   23.1990  -30.1170 O   0  0  0  0  0  0  0  0  0  0  0  0
   -4.4920   22.6990  -31.4480 N   0  0  0  0  0  0  0  0  0  0  0  0
   -5.4010   23.6480  -31.0830 C   0  0  0  0  0  0  0  0  0  0  0  0
   -5.0920   24.9600  -30.4790 C   0  0  0  0  0  0  0  0  0  0  0  0
   -3.8960   25.6590  -30.8150 N   0  0  0  0  0  0  0  0  0  0  0  0
   -5.9170   25.4950  -29.6910 O   0  0  0  0  0  0  0  0  0  0  0  0
   -6.6890   23.2500  -31.4360 C   0  0  0  0  0  0  0  0  0  0  0  0
   -6.5390   22.0230  -32.0390 C   0  0  0  0  0  0  0  0  0  0  0  0
   -7.4960   21.1680  -32.5770 C   0  0  0  0  0  0  0  0  0  0  0  0
   -7.0600   19.9460  -33.1150 C   0  0  0  0  0  0  0  0  0  0  0  0
   -5.6830   19.5900  -33.0990 C   0  0  0  0  0  0  0  0  0  0  0  0
   -5.1950   18.2700  -33.6830 C   0  0  1  0  0  0  0  0  0  0  0  0
   -3.6870   18.2720  -33.8340 C   0  0  0  0  0  0  0  0  0  0  0  0
   -3.1400   18.1320  -34.9590 O   0  0  0  0  0  0  0  0  0  0  0  0
   -2.8870   18.3820  -32.7030 O   0  0  0  0  0  0  0  0  0  0  0  0
   -5.7960   16.9960  -32.9720 C   0  0  0  0  0  0  0  0  0  0  0  0
   -6.4270   17.3950  -31.6180 C   0  0  0  0  0  0  0  0  0  0  0  0
   -4.6590   15.9870  -32.6790 C   0  0  0  0  0  0  0  0  0  0  0  0
   -6.8660   16.2740  -33.8230 C   0  0  0  0  0  0  0  0  0  0  0  0
   -4.7450   20.4940  -32.5430 C   0  0  0  0  0  0  0  0  0  0  0  0
   -5.2060   21.7120  -32.0340 C   0  0  0  0  0  0  0  0  0  0  0  0
    0.2850   20.0345  -32.7868 H   0  0  0  0  0  0  0  0  0  0  0  0
   -1.2559   19.8413  -33.6895 H   0  0  0  0  0  0  0  0  0  0  0  0
   -0.4075   21.4246  -33.6895 H   0  0  0  0  0  0  0  0  0  0  0  0
   -2.0961   20.1319  -31.5484 H   0  0  0  0  0  0  0  0  0  0  0  0
   -0.7144   21.1761  -31.0406 H   0  0  0  0  0  0  0  0  0  0  0  0
   -2.9630   25.3020  -30.5140 H   0  0  0  0  0  0  0  0  0  0  0  0
   -7.6265   23.8003  -31.2680 H   0  0  0  0  0  0  0  0  0  0  0  0
   -8.5616   21.4408  -32.5808 H   0  0  0  0  0  0  0  0  0  0  0  0
   -7.7938   19.2546  -33.5549 H   0  0  0  0  0  0  0  0  0  0  0  0
   -5.6025   18.1864  -34.7013 H   0  0  0  0  0  0  0  0  0  0  0  0
   -5.8090   17.0042  -30.7962 H   0  0  0  0  0  0  0  0  0  0  0  0
   -6.4804   18.4914  -31.5473 H   0  0  0  0  0  0  0  0  0  0  0  0
   -7.4404   16.9732  -31.5473 H   0  0  0  0  0  0  0  0  0  0  0  0
   -4.5365   15.8783  -31.5913 H   0  0  0  0  0  0  0  0  0  0  0  0
   -4.9124   15.0111  -33.1188 H   0  0  0  0  0  0  0  0  0  0  0  0
   -3.7202   16.3547  -33.1188 H   0  0  0  0  0  0  0  0  0  0  0  0
   -7.5929   15.7835  -33.1590 H   0  0  0  0  0  0  0  0  0  0  0  0
   -7.3855   17.0069  -34.4578 H   0  0  0  0  0  0  0  0  0  0  0  0
   -6.3808   15.5179  -34.4578 H   0  0  0  0  0  0  0  0  0  0  0  0
   -3.6745   20.2427  -32.5122 H   0  0  0  0  0  0  0  0  0  0  0  0
  1  2  1  0
  2  3  1  0
  3  4  1  0
  4  5  2  0
  4  6  1  0
  6  7  1  0
  7  8  1  0
  8  9  1  0
  8 10  2  0
  7 11  2  0
 11 12  1  0
 12 13  2  0
 13 14  1  0
 14 15  2  0
 15 16  1  0
 16 17  1  0
 17 18  2  0
 17 19  1  0
 16 20  1  0
 20 21  1  0
 20 22  1  0
 20 23  1  0
 15 24  1  0
 24 25  2  0
 25  6  1  0
 25 12  1  0
  1 26  1  0
  1 27  1  0
  1 28  1  0
  2 29  1  0
  2 30  1  0
  9 31  1  0
 11 32  1  0
 13 33  1  0
 14 34  1  0
 16 35  1  6
 21 36  1  0
 21 37  1  0
 21 38  1  0
 22 39  1  0
 22 40  1  0
 22 41  1  0
 23 42  1  0
 23 43  1  0
 23 44  1  0
 24 45  1  0
M  CHG  2   9  -1  19  -1
M  END
>  <UniqueID>  (67) 
66

>  <SMILES>  (67) 
CCOC(=O)n1c(C([NH-])=O)cc2ccc([C@@H](C(=O)[O-])C(C)(C)C)cc21

>  <Energy>  (67) 
81.64392966860181

>  <Genealogy>  (67) 
CCOC(=O)n1c(C([NH-])=O)cc2ccc(C(C(=O)[O-])C(C)(C)C)cc21 (protonated)
CCOC(=O)n1c(C([NH-])=O)cc2ccc([C@@H](C(=O)[O-])C(C)(C)C)cc21 (chirality)
CCOC(=O)n1c(C([NH-])=O)cc2ccc([C@@H](C(=O)[O-])C(C)(C)C)cc21 (3D coordinates assigned)
CCOC(=O)n1c(C([NH-])=O)cc2ccc([C@@H](C(=O)[O-])C(C)(C)C)cc21 (optimized conformer: 81.64392966860181 kcal/mol)

>  <smiles>  (67) 
CCOC(=O)n1c(C(N)=O)cc2ccc(C(C(=O)O)C(C)(C)C)cc21

>  <score_type>  (67) 
oracle

>  <origin>  (67) 
adg

>  <m_score__min__energy>  (67) 
-10.24

>  <m_primary>  (67) 
energy

$$$$
67:0
     RDKit          3D

 45 46  0  0  0  0  0  0  0  0999 V2000
   -3.5390   22.5380  -29.0270 C   0  0  0  0  0  0  0  0  0  0  0  0
   -3.2520   23.0100  -30.3370 O   0  0  0  0  0  0  0  0  0  0  0  0
   -4.0450   22.6930  -31.4450 C   0  0  0  0  0  0  0  0  0  0  0  0
   -3.5100   22.2740  -32.5080 O   0  0  0  0  0  0  0  0  0  0  0  0
   -5.4730   22.8340  -31.3670 N   0  0  0  0  0  0  0  0  0  0  0  0
   -6.1800   23.9320  -30.9740 C   0  0  0  0  0  0  0  0  0  0  0  0
   -5.6020   25.1600  -30.3840 C   0  0  0  0  0  0  0  0  0  0  0  0
   -4.2550   25.5410  -30.6690 N   0  0  0  0  0  0  0  0  0  0  0  0
   -6.3080   25.9020  -29.6500 O   0  0  0  0  0  0  0  0  0  0  0  0
   -7.5490   23.7040  -31.1020 C   0  0  0  0  0  0  0  0  0  0  0  0
   -7.6610   22.4220  -31.5870 C   0  0  0  0  0  0  0  0  0  0  0  0
   -8.7980   21.6780  -31.8910 C   0  0  0  0  0  0  0  0  0  0  0  0
   -8.6200   20.3700  -32.3710 C   0  0  0  0  0  0  0  0  0  0  0  0
   -7.3200   19.8390  -32.5510 C   0  0  0  0  0  0  0  0  0  0  0  0
   -7.1390   18.4080  -32.9790 C   0  0  0  0  0  0  0  0  0  0  0  0
   -6.0180   18.3170  -33.9670 C   0  0  0  0  0  0  0  0  0  0  0  0
   -6.0430   19.0190  -35.0140 O   0  0  0  0  0  0  0  0  0  0  0  0
   -4.9410   17.4640  -33.7030 O   0  0  0  0  0  0  0  0  0  0  0  0
   -3.8200   17.8420  -32.9090 C   0  0  0  0  0  0  0  0  0  0  0  0
   -3.0830   18.9850  -33.5540 C   0  0  0  0  0  0  0  0  0  0  0  0
   -3.7310   20.0280  -33.8450 O   0  0  0  0  0  0  0  0  0  0  0  0
   -1.6630   18.9260  -33.8130 N   0  0  0  0  0  0  0  0  0  0  0  0
   -0.9680   20.1430  -34.2440 C   0  0  0  0  0  0  0  0  0  0  0  0
   -0.9230   17.6670  -33.6750 C   0  0  0  0  0  0  0  0  0  0  0  0
   -6.1890   20.6260  -32.2370 C   0  0  0  0  0  0  0  0  0  0  0  0
   -6.3950   21.9170  -31.7380 C   0  0  0  0  0  0  0  0  0  0  0  0
   -3.1165   23.2328  -28.2862 H   0  0  0  0  0  0  0  0  0  0  0  0
   -4.6287   22.4746  -28.8906 H   0  0  0  0  0  0  0  0  0  0  0  0
   -3.0938   21.5414  -28.8906 H   0  0  0  0  0  0  0  0  0  0  0  0
   -3.6240   24.9260  -31.2300 H   0  0  0  0  0  0  0  0  0  0  0  0
   -3.8690   26.4300  -30.2800 H   0  0  0  0  0  0  0  0  0  0  0  0
   -8.3662   24.4013  -30.8654 H   0  0  0  0  0  0  0  0  0  0  0  0
   -9.8046   22.1015  -31.7593 H   0  0  0  0  0  0  0  0  0  0  0  0
   -9.4987   19.7526  -32.6092 H   0  0  0  0  0  0  0  0  0  0  0  0
   -6.9033   17.7901  -32.1000 H   0  0  0  0  0  0  0  0  0  0  0  0
   -8.0672   18.0462  -33.4455 H   0  0  0  0  0  0  0  0  0  0  0  0
   -4.1691   18.1516  -31.9129 H   0  0  0  0  0  0  0  0  0  0  0  0
   -3.1391   16.9826  -32.8201 H   0  0  0  0  0  0  0  0  0  0  0  0
   -0.6430   20.7121  -33.3605 H   0  0  0  0  0  0  0  0  0  0  0  0
   -0.0899   19.8696  -34.8474 H   0  0  0  0  0  0  0  0  0  0  0  0
   -1.6497   20.7604  -34.8474 H   0  0  0  0  0  0  0  0  0  0  0  0
   -0.7875   17.4364  -32.6080 H   0  0  0  0  0  0  0  0  0  0  0  0
   -1.4876   16.8551  -34.1567 H   0  0  0  0  0  0  0  0  0  0  0  0
    0.0610   17.7653  -34.1567 H   0  0  0  0  0  0  0  0  0  0  0  0
   -5.1716   20.2334  -32.3813 H   0  0  0  0  0  0  0  0  0  0  0  0
  1  2  1  0
  2  3  1  0
  3  4  2  0
  3  5  1  0
  5  6  1  0
  6  7  1  0
  7  8  1  0
  7  9  2  0
  6 10  2  0
 10 11  1  0
 11 12  2  0
 12 13  1  0
 13 14  2  0
 14 15  1  0
 15 16  1  0
 16 17  2  0
 16 18  1  0
 18 19  1  0
 19 20  1  0
 20 21  2  0
 20 22  1  0
 22 23  1  0
 22 24  1  0
 14 25  1  0
 25 26  2  0
 26  5  1  0
 26 11  1  0
  1 27  1  0
  1 28  1  0
  1 29  1  0
  8 30  1  0
  8 31  1  0
 10 32  1  0
 12 33  1  0
 13 34  1  0
 15 35  1  0
 15 36  1  0
 19 37  1  0
 19 38  1  0
 23 39  1  0
 23 40  1  0
 23 41  1  0
 24 42  1  0
 24 43  1  0
 24 44  1  0
 25 45  1  0
M  END
>  <UniqueID>  (68) 
67

>  <SMILES>  (68) 
COC(=O)n1c(C(N)=O)cc2ccc(CC(=O)OCC(=O)N(C)C)cc21

>  <Energy>  (68) 
71.2837392300004

>  <Genealogy>  (68) 
COC(=O)n1c(C(N)=O)cc2ccc(CC(=O)OCC(=O)N(C)C)cc21 (3D coordinates assigned)
COC(=O)n1c(C(N)=O)cc2ccc(CC(=O)OCC(=O)N(C)C)cc21 (optimized conformer: 71.2837392300004 kcal/mol)

>  <smiles>  (68) 
COC(=O)n1c(C(N)=O)cc2ccc(CC(=O)OCC(=O)N(C)C)cc21

>  <score_type>  (68) 
oracle

>  <origin>  (68) 
adg

>  <m_score__min__energy>  (68) 
-8.4399999999999995

>  <m_primary>  (68) 
energy

$$$$
68:0
     RDKit          3D

 44 45  0  0  0  0  0  0  0  0999 V2000
   -3.7980   23.9390  -27.5290 C   0  0  0  0  0  0  0  0  0  0  0  0
   -3.6650   23.0490  -28.5150 C   0  0  0  0  0  0  0  0  0  0  0  0
   -2.6060   23.2000  -29.5660 C   0  0  0  0  0  0  0  0  0  0  0  0
   -3.2100   23.5380  -30.8090 O   0  0  0  0  0  0  0  0  0  0  0  0
   -4.0280   22.6530  -31.5180 C   0  0  0  0  0  0  0  0  0  0  0  0
   -3.5190   21.8280  -32.3260 O   0  0  0  0  0  0  0  0  0  0  0  0
   -5.4520   22.6950  -31.3340 N   0  0  0  0  0  0  0  0  0  0  0  0
   -6.2000   23.7520  -30.9090 C   0  0  0  0  0  0  0  0  0  0  0  0
   -5.6620   25.0280  -30.3890 C   0  0  0  0  0  0  0  0  0  0  0  0
   -6.0940   25.5410  -29.1260 N   0  0  0  0  0  0  0  0  0  0  0  0
   -4.7910   25.6600  -31.0420 O   0  0  0  0  0  0  0  0  0  0  0  0
   -7.5570   23.4340  -30.9380 C   0  0  0  0  0  0  0  0  0  0  0  0
   -7.6170   22.1380  -31.3970 C   0  0  0  0  0  0  0  0  0  0  0  0
   -8.7200   21.3240  -31.6280 C   0  0  0  0  0  0  0  0  0  0  0  0
   -8.4930   20.0310  -32.1320 C   0  0  0  0  0  0  0  0  0  0  0  0
   -7.1720   19.5790  -32.4010 C   0  0  0  0  0  0  0  0  0  0  0  0
   -6.9180   18.2650  -32.9280 N   0  0  0  0  0  0  0  0  0  0  0  0
   -6.1240   18.0240  -34.1350 C   0  0  0  0  0  0  0  0  0  0  0  0
   -4.9680   17.0530  -33.8700 C   0  0  0  0  0  0  0  0  0  0  0  0
   -5.3650   15.8690  -32.5900 S   0  0  0  0  0  0  0  0  0  0  0  0
   -4.0570   14.6940  -32.3260 C   0  0  0  0  0  0  0  0  0  0  0  0
   -5.7610   16.6310  -31.1460 O   0  0  0  0  0  0  0  0  0  0  0  0
   -6.0790   20.4390  -32.1460 C   0  0  0  0  0  0  0  0  0  0  0  0
   -6.3350   21.7140  -31.6280 C   0  0  0  0  0  0  0  0  0  0  0  0
   -4.5830   23.8058  -26.7700 H   0  0  0  0  0  0  0  0  0  0  0  0
   -3.1226   24.8056  -27.4755 H   0  0  0  0  0  0  0  0  0  0  0  0
   -4.3466   22.1867  -28.5575 H   0  0  0  0  0  0  0  0  0  0  0  0
   -1.9078   23.9967  -29.2699 H   0  0  0  0  0  0  0  0  0  0  0  0
   -2.0596   22.2512  -29.6721 H   0  0  0  0  0  0  0  0  0  0  0  0
   -5.6830   26.4250  -28.7520 H   0  0  0  0  0  0  0  0  0  0  0  0
   -6.8500   25.0710  -28.5800 H   0  0  0  0  0  0  0  0  0  0  0  0
   -8.4001   24.0811  -30.6544 H   0  0  0  0  0  0  0  0  0  0  0  0
   -9.7401   21.6808  -31.4226 H   0  0  0  0  0  0  0  0  0  0  0  0
   -9.3460   19.3625  -32.3201 H   0  0  0  0  0  0  0  0  0  0  0  0
   -7.3330   17.4470  -32.4240 H   0  0  0  0  0  0  0  0  0  0  0  0
   -6.7764   17.5978  -34.9114 H   0  0  0  0  0  0  0  0  0  0  0  0
   -5.6970   18.9838  -34.4613 H   0  0  0  0  0  0  0  0  0  0  0  0
   -4.7417   16.5089  -34.7988 H   0  0  0  0  0  0  0  0  0  0  0  0
   -4.1023   17.6410  -33.5312 H   0  0  0  0  0  0  0  0  0  0  0  0
   -3.9018   14.5546  -31.2460 H   0  0  0  0  0  0  0  0  0  0  0  0
   -4.3302   13.7321  -32.7844 H   0  0  0  0  0  0  0  0  0  0  0  0
   -3.1298   15.0684  -32.7844 H   0  0  0  0  0  0  0  0  0  0  0  0
   -5.7230   15.9120  -30.4680 H   0  0  0  0  0  0  0  0  0  0  0  0
   -5.0486   20.1128  -32.3505 H   0  0  0  0  0  0  0  0  0  0  0  0
  1  2  2  0
  2  3  1  0
  3  4  1  0
  4  5  1  0
  5  6  2  0
  5  7  1  0
  7  8  1  0
  8  9  1  0
  9 10  1  0
  9 11  2  0
  8 12  2  0
 12 13  1  0
 13 14  2  0
 14 15  1  0
 15 16  2  0
 16 17  1  0
 17 18  1  0
 18 19  1  0
 19 20  1  0
 20 21  1  0
 20 22  1  1
 16 23  1  0
 23 24  2  0
 24  7  1  0
 24 13  1  0
  1 25  1  0
  1 26  1  0
  2 27  1  0
  3 28  1  0
  3 29  1  0
 10 30  1  0
 10 31  1  0
 12 32  1  0
 14 33  1  0
 15 34  1  0
 17 35  1  0
 18 36  1  0
 18 37  1  0
 19 38  1  0
 19 39  1  0
 21 40  1  0
 21 41  1  0
 21 42  1  0
 22 43  1  0
 23 44  1  0
M  CHG  1  20   1
M  END
>  <UniqueID>  (69) 
68

>  <SMILES>  (69) 
C=CCOC(=O)n1c(C(N)=O)cc2ccc(NCC[S@@+](C)O)cc21

>  <Energy>  (69) 
68.44469607849526

>  <Genealogy>  (69) 
C=CCOC(=O)n1c(C(N)=O)cc2ccc(NCC[S+](C)O)cc21 (protonated)
C=CCOC(=O)n1c(C(N)=O)cc2ccc(NCC[S@@+](C)O)cc21 (chirality)
C=CCOC(=O)n1c(C(N)=O)cc2ccc(NCC[S@@+](C)O)cc21 (3D coordinates assigned)
C=CCOC(=O)n1c(C(N)=O)cc2ccc(NCC[S@@+](C)O)cc21 (optimized conformer: 68.44469607849526 kcal/mol)

>  <smiles>  (69) 
C=CCOC(=O)n1c(C(N)=O)cc2ccc(NCC[S+](C)[O-])cc21

>  <score_type>  (69) 
oracle

>  <origin>  (69) 
adg

>  <m_score__min__energy>  (69) 
-8.1699999999999999

>  <m_primary>  (69) 
energy

$$$$
69:0
     RDKit          3D

 41 43  0  0  0  0  0  0  0  0999 V2000
   -2.3270   21.5110  -31.9170 C   0  0  0  0  0  0  0  0  0  0  0  0
   -2.8790   21.2630  -33.1990 O   0  0  0  0  0  0  0  0  0  0  0  0
   -2.9960   19.9450  -33.6660 C   0  0  0  0  0  0  0  0  0  0  0  0
   -1.9270   19.4270  -34.0560 O   0  0  0  0  0  0  0  0  0  0  0  0
   -4.2590   19.2960  -33.6730 N   0  0  0  0  0  0  0  0  0  0  0  0
   -4.5410   18.1020  -34.2070 C   0  0  0  0  0  0  0  0  0  0  0  0
   -3.7140   17.1400  -34.9020 C   0  0  0  0  0  0  0  0  0  0  0  0
   -2.5510   16.5990  -34.2400 N   0  0  0  0  0  0  0  0  0  0  0  0
   -3.9030   16.7050  -36.0590 O   0  0  0  0  0  0  0  0  0  0  0  0
   -5.9020   17.8790  -33.9770 C   0  0  0  0  0  0  0  0  0  0  0  0
   -6.4310   18.9510  -33.3010 C   0  0  0  0  0  0  0  0  0  0  0  0
   -7.7120   19.1990  -32.8520 C   0  0  0  0  0  0  0  0  0  0  0  0
   -7.9750   20.3750  -32.1890 C   0  0  0  0  0  0  0  0  0  0  0  0
   -6.9410   21.2980  -31.9810 C   0  0  0  0  0  0  0  0  0  0  0  0
   -7.2980   22.5310  -31.2670 C   0  0  0  0  0  0  0  0  0  0  0  0
   -8.0490   23.4250  -32.2430 C   0  0  0  0  0  0  0  0  0  0  0  0
   -8.1850   22.2050  -30.1080 C   0  0  0  0  0  0  0  0  0  0  0  0
   -6.1260   23.3050  -30.8070 C   0  0  0  0  0  0  0  0  0  0  0  0
   -5.2800   24.0210  -31.5780 N   0  0  0  0  0  0  0  0  0  0  0  0
   -4.3790   24.5640  -30.8420 O   0  0  0  0  0  0  0  0  0  0  0  0
   -4.5790   24.2430  -29.5780 C   0  0  0  0  0  0  0  0  0  0  0  0
   -3.9300   24.5670  -28.5710 O   0  0  0  0  0  0  0  0  0  0  0  0
   -5.6790   23.4490  -29.5490 N   0  0  0  0  0  0  0  0  0  0  0  0
   -5.6760   21.0020  -32.4510 C   0  0  0  0  0  0  0  0  0  0  0  0
   -5.3790   19.8260  -33.1220 C   0  0  0  0  0  0  0  0  0  0  0  0
   -3.0397   21.1908  -31.1427 H   0  0  0  0  0  0  0  0  0  0  0  0
   -1.3884   20.9481  -31.8068 H   0  0  0  0  0  0  0  0  0  0  0  0
   -2.1246   22.5866  -31.8068 H   0  0  0  0  0  0  0  0  0  0  0  0
   -2.5140   15.6060  -33.9190 H   0  0  0  0  0  0  0  0  0  0  0  0
   -1.7680   17.2820  -34.1180 H   0  0  0  0  0  0  0  0  0  0  0  0
   -6.4615   16.9847  -34.2888 H   0  0  0  0  0  0  0  0  0  0  0  0
   -8.5133   18.4649  -33.0223 H   0  0  0  0  0  0  0  0  0  0  0  0
   -8.9903   20.5897  -31.8243 H   0  0  0  0  0  0  0  0  0  0  0  0
   -8.6578   24.1497  -31.6825 H   0  0  0  0  0  0  0  0  0  0  0  0
   -7.3283   23.9635  -32.8760 H   0  0  0  0  0  0  0  0  0  0  0  0
   -8.7037   22.8081  -32.8760 H   0  0  0  0  0  0  0  0  0  0  0  0
   -7.6481   22.4023  -29.1685 H   0  0  0  0  0  0  0  0  0  0  0  0
   -9.0895   22.8294  -30.1515 H   0  0  0  0  0  0  0  0  0  0  0  0
   -8.4699   21.1434  -30.1515 H   0  0  0  0  0  0  0  0  0  0  0  0
   -6.0810   23.0350  -28.6700 H   0  0  0  0  0  0  0  0  0  0  0  0
   -4.8694   21.7313  -32.2855 H   0  0  0  0  0  0  0  0  0  0  0  0
  1  2  1  0
  2  3  1  0
  3  4  2  0
  3  5  1  0
  5  6  1  0
  6  7  1  0
  7  8  1  0
  7  9  2  0
  6 10  2  0
 10 11  1  0
 11 12  2  0
 12 13  1  0
 13 14  2  0
 14 15  1  0
 15 16  1  0
 15 17  1  0
 15 18  1  0
 18 19  2  0
 19 20  1  0
 20 21  1  0
 21 22  2  0
 21 23  1  0
 14 24  1  0
 24 25  2  0
 25  5  1  0
 25 11  1  0
 23 18  1  0
  1 26  1  0
  1 27  1  0
  1 28  1  0
  8 29  1  0
  8 30  1  0
 10 31  1  0
 12 32  1  0
 13 33  1  0
 16 34  1  0
 16 35  1  0
 16 36  1  0
 17 37  1  0
 17 38  1  0
 17 39  1  0
 23 40  1  0
 24 41  1  0
M  END
>  <smiles>  (70) 
COC(=O)n1c(C(N)=O)cc2ccc(C(C)(C)c3noc(=O)[nH]3)cc21

>  <score_type>  (70) 
oracle

>  <origin>  (70) 
adg

>  <m_score__min__energy>  (70) 
-8.2799999999999994

>  <m_primary>  (70) 
energy

$$$$
70:0
     RDKit          3D

 30 31  0  0  0  0  0  0  0  0999 V2000
   -7.7890   22.1820  -31.6660 C   0  0  0  0  0  0  0  0  0  0  0  0
   -7.8370   20.9410  -32.3600 O   0  0  0  0  0  0  0  0  0  0  0  0
   -6.7520   20.0610  -32.4030 C   0  0  0  0  0  0  0  0  0  0  0  0
   -6.7060   19.0560  -31.6410 O   0  0  0  0  0  0  0  0  0  0  0  0
   -5.6140   20.3440  -33.3290 C   0  0  0  0  0  0  0  0  0  0  0  0
   -4.4070   20.7730  -32.5440 C   0  0  0  0  0  0  0  0  0  0  0  0
   -3.2460   19.9590  -32.5250 C   0  0  0  0  0  0  0  0  0  0  0  0
   -2.1030   20.3610  -31.8140 C   0  0  0  0  0  0  0  0  0  0  0  0
   -2.1440   21.5820  -31.1480 C   0  0  0  0  0  0  0  0  0  0  0  0
   -1.1910   22.1990  -30.3730 C   0  0  0  0  0  0  0  0  0  0  0  0
   -1.7690   23.3960  -29.9570 C   0  0  0  0  0  0  0  0  0  0  0  0
   -1.0480   24.4170  -29.1690 C   0  0  0  0  0  0  0  0  0  0  0  0
   -1.6420   25.6950  -28.9520 N   0  0  0  0  0  0  0  0  0  0  0  0
    0.0710   24.1620  -28.6510 O   0  0  0  0  0  0  0  0  0  0  0  0
   -3.0350   23.5130  -30.4510 N   0  0  0  0  0  0  0  0  0  0  0  0
   -3.9850   24.5620  -30.1960 C   0  0  0  0  0  0  0  0  0  0  0  0
   -3.8940   25.6620  -30.7990 O   0  0  0  0  0  0  0  0  0  0  0  0
   -5.0280   24.3610  -29.3020 O   0  0  0  0  0  0  0  0  0  0  0  0
   -3.2490   22.3950  -31.1800 C   0  0  0  0  0  0  0  0  0  0  0  0
   -4.4070   22.0120  -31.8660 C   0  0  0  0  0  0  0  0  0  0  0  0
   -7.7962   21.9963  -30.5818 H   0  0  0  0  0  0  0  0  0  0  0  0
   -6.8694   22.7199  -31.9398 H   0  0  0  0  0  0  0  0  0  0  0  0
   -8.6643   22.7893  -31.9398 H   0  0  0  0  0  0  0  0  0  0  0  0
   -5.3734   19.4345  -33.8990 H   0  0  0  0  0  0  0  0  0  0  0  0
   -5.9018   21.1513  -34.0185 H   0  0  0  0  0  0  0  0  0  0  0  0
   -3.2403   19.0045  -33.0717 H   0  0  0  0  0  0  0  0  0  0  0  0
   -1.2028   19.7296  -31.7847 H   0  0  0  0  0  0  0  0  0  0  0  0
   -0.1845   21.8262  -30.1322 H   0  0  0  0  0  0  0  0  0  0  0  0
   -2.6780   25.8180  -28.9920 H   0  0  0  0  0  0  0  0  0  0  0  0
   -5.2957   22.6602  -31.8769 H   0  0  0  0  0  0  0  0  0  0  0  0
  1  2  1  0
  2  3  1  0
  3  4  2  0
  3  5  1  0
  5  6  1  0
  6  7  2  0
  7  8  1  0
  8  9  2  0
  9 10  1  0
 10 11  2  0
 11 12  1  0
 12 13  1  0
 12 14  2  0
 11 15  1  0
 15 16  1  0
 16 17  2  0
 16 18  1  0
 15 19  1  0
 19 20  2  0
 20  6  1  0
 19  9  1  0
  1 21  1  0
  1 22  1  0
  1 23  1  0
  5 24  1  0
  5 25  1  0
  7 26  1  0
  8 27  1  0
 10 28  1  0
 13 29  1  0
 20 30  1  0
M  CHG  2  13  -1  18  -1
M  END
>  <UniqueID>  (71) 
69

>  <SMILES>  (71) 
COC(=O)Cc1ccc2cc(C([NH-])=O)n(C(=O)[O-])c2c1

>  <Energy>  (71) 
65.58056657639646

>  <Genealogy>  (71) 
COC(=O)Cc1ccc2cc(C([NH-])=O)n(C(=O)[O-])c2c1 (protonated)
COC(=O)Cc1ccc2cc(C([NH-])=O)n(C(=O)[O-])c2c1 (3D coordinates assigned)
COC(=O)Cc1ccc2cc(C([NH-])=O)n(C(=O)[O-])c2c1 (optimized conformer: 65.58056657639646 kcal/mol)

>  <smiles>  (71) 
COC(=O)Cc1ccc2cc(C(N)=O)n(C(=O)O)c2c1

>  <score_type>  (71) 
oracle

>  <origin>  (71) 
adg

>  <m_score__min__energy>  (71) 
-10.09

>  <m_primary>  (71) 
energy

$$$$
71:0
     RDKit          3D

 39 41  0  0  0  0  0  0  0  0999 V2000
   -2.3210   20.2810  -27.0630 C   0  0  0  0  0  0  0  0  0  0  0  0
   -1.5370   21.5460  -26.9230 C   0  0  0  0  0  0  0  0  0  0  0  0
   -0.8790   21.7320  -25.8640 O   0  0  0  0  0  0  0  0  0  0  0  0
   -1.4690   22.5740  -27.9810 C   0  0  0  0  0  0  0  0  0  0  0  0
   -1.3650   23.8550  -27.7080 O   0  0  0  0  0  0  0  0  0  0  0  0
   -1.3280   24.4790  -28.8600 C   0  0  0  0  0  0  0  0  0  0  0  0
   -1.2270   25.7290  -28.9740 O   0  0  0  0  0  0  0  0  0  0  0  0
   -1.4140   23.6600  -29.8770 O   0  0  0  0  0  0  0  0  0  0  0  0
   -1.5090   22.4510  -29.3720 C   0  0  0  0  0  0  0  0  0  0  0  0
   -1.7170   21.2370  -30.2290 C   0  0  0  0  0  0  0  0  0  0  0  0
   -3.1050   21.0710  -30.5040 O   0  0  0  0  0  0  0  0  0  0  0  0
   -3.8250   21.9190  -31.3540 C   0  0  0  0  0  0  0  0  0  0  0  0
   -3.3220   22.3070  -32.4440 O   0  0  0  0  0  0  0  0  0  0  0  0
   -5.1360   22.3630  -30.9740 N   0  0  0  0  0  0  0  0  0  0  0  0
   -5.4620   23.4160  -30.1730 C   0  0  0  0  0  0  0  0  0  0  0  0
   -4.5240   24.4300  -29.6470 C   0  0  0  0  0  0  0  0  0  0  0  0
   -3.7760   25.2640  -30.5270 N   0  0  0  0  0  0  0  0  0  0  0  0
   -4.4170   24.5930  -28.4030 O   0  0  0  0  0  0  0  0  0  0  0  0
   -6.8410   23.4680  -29.9750 C   0  0  0  0  0  0  0  0  0  0  0  0
   -7.3540   22.4130  -30.6960 C   0  0  0  0  0  0  0  0  0  0  0  0
   -8.6690   21.9840  -30.8430 C   0  0  0  0  0  0  0  0  0  0  0  0
   -8.9060   20.8410  -31.6250 C   0  0  0  0  0  0  0  0  0  0  0  0
   -7.8310   20.1560  -32.2460 C   0  0  0  0  0  0  0  0  0  0  0  0
   -8.0920   18.9090  -33.0350 C   0  0  0  0  0  0  0  0  0  0  0  0
   -6.5070   20.6120  -32.0610 C   0  0  0  0  0  0  0  0  0  0  0  0
   -6.3030   21.7620  -31.2900 C   0  0  0  0  0  0  0  0  0  0  0  0
   -2.5645   19.8881  -26.0648 H   0  0  0  0  0  0  0  0  0  0  0  0
   -3.2511   20.4851  -27.6136 H   0  0  0  0  0  0  0  0  0  0  0  0
   -1.7243   19.5388  -27.6136 H   0  0  0  0  0  0  0  0  0  0  0  0
   -1.1697   21.3601  -31.1752 H   0  0  0  0  0  0  0  0  0  0  0  0
   -1.3440   20.3493  -29.6971 H   0  0  0  0  0  0  0  0  0  0  0  0
   -2.7340   25.2990  -30.4800 H   0  0  0  0  0  0  0  0  0  0  0  0
   -7.4006   24.1973  -29.3709 H   0  0  0  0  0  0  0  0  0  0  0  0
   -9.4982   22.5232  -30.3616 H   0  0  0  0  0  0  0  0  0  0  0  0
   -9.9347   20.4743  -31.7566 H   0  0  0  0  0  0  0  0  0  0  0  0
   -8.2677   18.0694  -32.3463 H   0  0  0  0  0  0  0  0  0  0  0  0
   -8.9790   19.0551  -33.6689 H   0  0  0  0  0  0  0  0  0  0  0  0
   -7.2208   18.6871  -33.6689 H   0  0  0  0  0  0  0  0  0  0  0  0
   -5.6580   20.0769  -32.5114 H   0  0  0  0  0  0  0  0  0  0  0  0
  1  2  1  0
  2  3  2  0
  2  4  1  0
  4  5  1  0
  5  6  1  0
  6  7  2  0
  6  8  1  0
  8  9  1  0
  9 10  1  0
 10 11  1  0
 11 12  1  0
 12 13  2  0
 12 14  1  0
 14 15  1  0
 15 16  1  0
 16 17  1  0
 16 18  2  0
 15 19  2  0
 19 20  1  0
 20 21  2  0
 21 22  1  0
 22 23  2  0
 23 24  1  0
 23 25  1  0
 25 26  2  0
  9  4  2  0
 26 14  1  0
 26 20  1  0
  1 27  1  0
  1 28  1  0
  1 29  1  0
 10 30  1  0
 10 31  1  0
 17 32  1  0
 19 33  1  0
 21 34  1  0
 22 35  1  0
 24 36  1  0
 24 37  1  0
 24 38  1  0
 25 39  1  0
M  CHG  1  17  -1
M  END
>  <UniqueID>  (72) 
70

>  <SMILES>  (72) 
CC(=O)c1oc(=O)oc1COC(=O)n1c(C([NH-])=O)cc2ccc(C)cc21

>  <Energy>  (72) 
112.81580067426003

>  <Genealogy>  (72) 
CC(=O)c1oc(=O)oc1COC(=O)n1c(C([NH-])=O)cc2ccc(C)cc21 (protonated)
CC(=O)c1oc(=O)oc1COC(=O)n1c(C([NH-])=O)cc2ccc(C)cc21 (3D coordinates assigned)
CC(=O)c1oc(=O)oc1COC(=O)n1c(C([NH-])=O)cc2ccc(C)cc21 (optimized conformer: 112.81580067426003 kcal/mol)

>  <smiles>  (72) 
CC(=O)c1oc(=O)oc1COC(=O)n1c(C(N)=O)cc2ccc(C)cc21

>  <score_type>  (72) 
oracle

>  <origin>  (72) 
adg

>  <m_score__min__energy>  (72) 
-10.43

>  <m_primary>  (72) 
energy

$$$$
72:0
     RDKit          3D

 39 40  0  0  0  0  0  0  0  0999 V2000
   -9.2280   19.7760  -32.4490 C   0  0  0  0  0  0  0  0  0  0  0  0
   -9.0750   20.7560  -31.5540 C   0  0  0  0  0  0  0  0  0  0  0  0
   -9.2670   22.1970  -31.9300 C   0  0  0  0  0  0  0  0  0  0  0  0
   -8.0070   22.8360  -32.1210 O   0  0  0  0  0  0  0  0  0  0  0  0
   -7.0240   22.9080  -31.1270 C   0  0  0  0  0  0  0  0  0  0  0  0
   -7.3290   23.2480  -29.9510 O   0  0  0  0  0  0  0  0  0  0  0  0
   -5.6600   22.5920  -31.4500 N   0  0  0  0  0  0  0  0  0  0  0  0
   -4.5330   23.2190  -31.0140 C   0  0  0  0  0  0  0  0  0  0  0  0
   -4.4870   24.4630  -30.2180 C   0  0  0  0  0  0  0  0  0  0  0  0
   -5.1190   24.5470  -28.9390 N   0  0  0  0  0  0  0  0  0  0  0  0
   -3.9280   25.4840  -30.6980 O   0  0  0  0  0  0  0  0  0  0  0  0
   -3.3940   22.5510  -31.4570 C   0  0  0  0  0  0  0  0  0  0  0  0
   -3.8630   21.4890  -32.1980 C   0  0  0  0  0  0  0  0  0  0  0  0
   -3.1650   20.4870  -32.8670 C   0  0  0  0  0  0  0  0  0  0  0  0
   -3.9100   19.4910  -33.5210 C   0  0  0  0  0  0  0  0  0  0  0  0
   -5.3250   19.5010  -33.4760 C   0  0  0  0  0  0  0  0  0  0  0  0
   -6.1170   18.4370  -34.1840 C   0  0  0  0  0  0  0  0  0  0  0  0
   -6.6380   17.4450  -33.1950 C   0  0  0  0  0  0  0  0  0  0  0  0
   -6.8710   17.8030  -32.0090 O   0  0  0  0  0  0  0  0  0  0  0  0
   -6.8150   16.1140  -33.5890 O   0  0  0  0  0  0  0  0  0  0  0  0
   -5.7270   15.2630  -33.9220 C   0  0  0  0  0  0  0  0  0  0  0  0
   -5.9980   20.5380  -32.7930 C   0  0  0  0  0  0  0  0  0  0  0  0
   -5.2330   21.5340  -32.1740 C   0  0  0  0  0  0  0  0  0  0  0  0
   -9.0815   18.7282  -32.1478 H   0  0  0  0  0  0  0  0  0  0  0  0
   -9.5004   20.0169  -33.4872 H   0  0  0  0  0  0  0  0  0  0  0  0
   -8.8024   20.5017  -30.5191 H   0  0  0  0  0  0  0  0  0  0  0  0
   -9.8465   22.2533  -32.8633 H   0  0  0  0  0  0  0  0  0  0  0  0
   -9.8050   22.7077  -31.1178 H   0  0  0  0  0  0  0  0  0  0  0  0
   -5.0350   25.4180  -28.3710 H   0  0  0  0  0  0  0  0  0  0  0  0
   -5.7400   23.7820  -28.5930 H   0  0  0  0  0  0  0  0  0  0  0  0
   -2.3449   22.8150  -31.2578 H   0  0  0  0  0  0  0  0  0  0  0  0
   -2.0652   20.4754  -32.8831 H   0  0  0  0  0  0  0  0  0  0  0  0
   -3.3885   18.6955  -34.0735 H   0  0  0  0  0  0  0  0  0  0  0  0
   -6.9619   18.9027  -34.7125 H   0  0  0  0  0  0  0  0  0  0  0  0
   -5.4654   17.9208  -34.9044 H   0  0  0  0  0  0  0  0  0  0  0  0
   -5.2548   14.8936  -32.9997 H   0  0  0  0  0  0  0  0  0  0  0  0
   -6.0953   14.4108  -34.5120 H   0  0  0  0  0  0  0  0  0  0  0  0
   -4.9886   15.8257  -34.5120 H   0  0  0  0  0  0  0  0  0  0  0  0
   -7.0968   20.5626  -32.7484 H   0  0  0  0  0  0  0  0  0  0  0  0
  1  2  2  0
  2  3  1  0
  3  4  1  0
  4  5  1  0
  5  6  2  0
  5  7  1  0
  7  8  1  0
  8  9  1  0
  9 10  1  0
  9 11  2  0
  8 12  2  0
 12 13  1  0
 13 14  2  0
 14 15  1  0
 15 16  2  0
 16 17  1  0
 17 18  1  0
 18 19  2  0
 18 20  1  0
 20 21  1  0
 16 22  1  0
 22 23  2  0
 23  7  1  0
 23 13  1  0
  1 24  1  0
  1 25  1  0
  2 26  1  0
  3 27  1  0
  3 28  1  0
 10 29  1  0
 10 30  1  0
 12 31  1  0
 14 32  1  0
 15 33  1  0
 17 34  1  0
 17 35  1  0
 21 36  1  0
 21 37  1  0
 21 38  1  0
 22 39  1  0
M  END
>  <UniqueID>  (73) 
71

>  <SMILES>  (73) 
C=CCOC(=O)n1c(C(N)=O)cc2ccc(CC(=O)OC)cc21

>  <Energy>  (73) 
69.18320297737739

>  <Genealogy>  (73) 
C=CCOC(=O)n1c(C(N)=O)cc2ccc(CC(=O)OC)cc21 (3D coordinates assigned)
C=CCOC(=O)n1c(C(N)=O)cc2ccc(CC(=O)OC)cc21 (optimized conformer: 69.18320297737739 kcal/mol)

>  <smiles>  (73) 
C=CCOC(=O)n1c(C(N)=O)cc2ccc(CC(=O)OC)cc21

>  <score_type>  (73) 
oracle

>  <origin>  (73) 
adg

>  <m_score__min__energy>  (73) 
-7.7999999999999998

>  <m_primary>  (73) 
energy

$$$$
73:0
     RDKit          3D

 41 43  0  0  0  0  0  0  0  0999 V2000
    0.3440   21.5280  -35.6940 C   0  0  0  0  0  0  0  0  0  0  0  0
    0.5930   21.9140  -34.3620 O   0  0  0  0  0  0  0  0  0  0  0  0
   -0.1620   21.0950  -33.4930 C   0  0  0  0  0  0  0  0  0  0  0  0
   -0.6790   19.8370  -34.1730 C   0  0  0  0  0  0  0  0  0  0  0  0
   -2.0800   20.2860  -34.1180 N   0  0  0  0  0  0  0  0  0  0  0  0
   -2.8950   19.4620  -33.2030 C   0  0  0  0  0  0  0  0  0  0  0  0
   -4.3310   19.3570  -33.7240 C   0  0  0  0  0  0  0  0  0  0  0  0
   -5.2020   20.4070  -33.0900 C   0  0  0  0  0  0  0  0  0  0  0  0
   -6.6120   20.2750  -33.1250 C   0  0  0  0  0  0  0  0  0  0  0  0
   -7.4350   21.2210  -32.4940 C   0  0  0  0  0  0  0  0  0  0  0  0
   -6.8230   22.2860  -31.8410 C   0  0  0  0  0  0  0  0  0  0  0  0
   -7.3800   23.3170  -31.1190 C   0  0  0  0  0  0  0  0  0  0  0  0
   -6.3030   24.0750  -30.6690 C   0  0  0  0  0  0  0  0  0  0  0  0
   -6.4550   25.3210  -29.8950 C   0  0  0  0  0  0  0  0  0  0  0  0
   -5.6190   26.4530  -30.1410 N   0  0  0  0  0  0  0  0  0  0  0  0
   -7.3760   25.4090  -29.0380 O   0  0  0  0  0  0  0  0  0  0  0  0
   -5.1220   23.5300  -31.0830 N   0  0  0  0  0  0  0  0  0  0  0  0
   -3.7940   23.9510  -30.7300 C   0  0  0  0  0  0  0  0  0  0  0  0
   -2.8880   23.0990  -30.5330 O   0  0  0  0  0  0  0  0  0  0  0  0
   -3.4930   25.3010  -30.6040 O   0  0  0  0  0  0  0  0  0  0  0  0
   -5.4590   22.4360  -31.8030 C   0  0  0  0  0  0  0  0  0  0  0  0
   -4.6150   21.4940  -32.4050 C   0  0  0  0  0  0  0  0  0  0  0  0
   -1.6200   21.5170  -33.4590 C   0  0  0  0  0  0  0  0  0  0  0  0
   -0.2523   20.6037  -35.7025 H   0  0  0  0  0  0  0  0  0  0  0  0
   -0.2098   22.3264  -36.2097 H   0  0  0  0  0  0  0  0  0  0  0  0
    1.2997   21.3526  -36.2097 H   0  0  0  0  0  0  0  0  0  0  0  0
    0.4902   21.0691  -32.6076 H   0  0  0  0  0  0  0  0  0  0  0  0
   -0.3016   19.7083  -35.1982 H   0  0  0  0  0  0  0  0  0  0  0  0
   -0.4202   18.8587  -33.7418 H   0  0  0  0  0  0  0  0  0  0  0  0
   -2.4585   18.4546  -33.1349 H   0  0  0  0  0  0  0  0  0  0  0  0
   -2.9071   19.9338  -32.2094 H   0  0  0  0  0  0  0  0  0  0  0  0
   -4.3310   19.4977  -34.8150 H   0  0  0  0  0  0  0  0  0  0  0  0
   -4.7294   18.3640  -33.4686 H   0  0  0  0  0  0  0  0  0  0  0  0
   -7.0664   19.4229  -33.6518 H   0  0  0  0  0  0  0  0  0  0  0  0
   -8.5304   21.1232  -32.5152 H   0  0  0  0  0  0  0  0  0  0  0  0
   -8.4488   23.5024  -30.9365 H   0  0  0  0  0  0  0  0  0  0  0  0
   -4.9640   26.4720  -30.9530 H   0  0  0  0  0  0  0  0  0  0  0  0
   -5.7150   27.3120  -29.5560 H   0  0  0  0  0  0  0  0  0  0  0  0
   -3.5216   21.5982  -32.3458 H   0  0  0  0  0  0  0  0  0  0  0  0
   -1.8243   22.4265  -34.0429 H   0  0  0  0  0  0  0  0  0  0  0  0
   -2.0655   21.7953  -32.4926 H   0  0  0  0  0  0  0  0  0  0  0  0
  1  2  1  0
  2  3  1  0
  3  4  1  0
  4  5  1  0
  5  6  1  0
  6  7  1  0
  7  8  1  0
  8  9  2  0
  9 10  1  0
 10 11  2  0
 11 12  1  0
 12 13  2  0
 13 14  1  0
 14 15  1  0
 14 16  2  0
 13 17  1  0
 17 18  1  0
 18 19  2  0
 18 20  1  0
 17 21  1  0
 21 22  2  0
  5 23  1  0
 23  3  1  0
 22  8  1  0
 21 11  1  0
  1 24  1  0
  1 25  1  0
  1 26  1  0
  3 27  1  0
  4 28  1  0
  4 29  1  0
  6 30  1  0
  6 31  1  0
  7 32  1  0
  7 33  1  0
  9 34  1  0
 10 35  1  0
 12 36  1  0
 15 37  1  0
 15 38  1  0
 22 39  1  0
 23 40  1  0
 23 41  1  0
M  CHG  1  20  -1
M  END
>  <UniqueID>  (74) 
72

>  <SMILES>  (74) 
COC1CN(CCc2ccc3cc(C(N)=O)n(C(=O)[O-])c3c2)C1

>  <Energy>  (74) 
149.7921265673278

>  <Genealogy>  (74) 
COC1CN(CCc2ccc3cc(C(N)=O)n(C(=O)[O-])c3c2)C1 (protonated)
COC1CN(CCc2ccc3cc(C(N)=O)n(C(=O)[O-])c3c2)C1 (3D coordinates assigned)
COC1CN(CCc2ccc3cc(C(N)=O)n(C(=O)[O-])c3c2)C1 (nonaromatic ring conformer: 149.7921265673278 kcal/mol)

>  <smiles>  (74) 
COC1CN(CCc2ccc3cc(C(N)=O)n(C(=O)O)c3c2)C1

>  <score_type>  (74) 
oracle

>  <origin>  (74) 
adg

>  <m_score__min__energy>  (74) 
-9.2899999999999991

>  <m_primary>  (74) 
energy

$$$$
74:0
     RDKit          3D

 37 38  0  0  0  0  0  0  0  0999 V2000
   -3.3830   23.2610  -29.2640 C   0  0  0  0  0  0  0  0  0  0  0  0
   -3.0440   24.6390  -29.7220 C   0  0  0  0  0  0  0  0  0  0  0  0
   -2.0540   25.2420  -29.2270 O   0  0  0  0  0  0  0  0  0  0  0  0
   -3.8630   25.2750  -30.7040 N   0  0  0  0  0  0  0  0  0  0  0  0
   -5.2500   25.6480  -30.4540 C   0  0  0  0  0  0  0  0  0  0  0  0
   -6.1520   24.4080  -30.4710 C   0  0  0  0  0  0  0  0  0  0  0  0
   -6.7460   24.0980  -31.8570 C   0  0  0  0  0  0  0  0  0  0  0  0
   -7.0980   22.6410  -32.0120 C   0  0  0  0  0  0  0  0  0  0  0  0
   -8.4240   22.2020  -31.7740 C   0  0  0  0  0  0  0  0  0  0  0  0
   -8.7760   20.8560  -31.9640 C   0  0  0  0  0  0  0  0  0  0  0  0
   -7.7840   19.9760  -32.3880 C   0  0  0  0  0  0  0  0  0  0  0  0
   -7.8650   18.6350  -32.6880 C   0  0  0  0  0  0  0  0  0  0  0  0
   -6.5810   18.2700  -33.0840 C   0  0  0  0  0  0  0  0  0  0  0  0
   -6.2050   16.8890  -33.4410 C   0  0  0  0  0  0  0  0  0  0  0  0
   -4.8350   16.5040  -33.5710 N   0  0  0  0  0  0  0  0  0  0  0  0
   -7.1060   16.0180  -33.5770 O   0  0  0  0  0  0  0  0  0  0  0  0
   -5.7410   19.3430  -33.0450 N   0  0  0  0  0  0  0  0  0  0  0  0
   -4.3750   19.4010  -33.4920 C   0  0  0  0  0  0  0  0  0  0  0  0
   -4.0430   18.8900  -34.5940 O   0  0  0  0  0  0  0  0  0  0  0  0
   -3.4050   20.0200  -32.7130 O   0  0  0  0  0  0  0  0  0  0  0  0
   -6.4920   20.3800  -32.6110 C   0  0  0  0  0  0  0  0  0  0  0  0
   -6.1200   21.7190  -32.4470 C   0  0  0  0  0  0  0  0  0  0  0  0
   -3.3903   23.2315  -28.1644 H   0  0  0  0  0  0  0  0  0  0  0  0
   -4.3765   22.9821  -29.6449 H   0  0  0  0  0  0  0  0  0  0  0  0
   -2.6323   22.5529  -29.6449 H   0  0  0  0  0  0  0  0  0  0  0  0
   -5.3221   26.1344  -29.4700 H   0  0  0  0  0  0  0  0  0  0  0  0
   -5.5802   26.3385  -31.2440 H   0  0  0  0  0  0  0  0  0  0  0  0
   -5.5581   23.5413  -30.1452 H   0  0  0  0  0  0  0  0  0  0  0  0
   -6.9962   24.6135  -29.7964 H   0  0  0  0  0  0  0  0  0  0  0  0
   -7.6568   24.6992  -31.9947 H   0  0  0  0  0  0  0  0  0  0  0  0
   -5.9860   24.3443  -32.6131 H   0  0  0  0  0  0  0  0  0  0  0  0
   -9.1844   22.9220  -31.4374 H   0  0  0  0  0  0  0  0  0  0  0  0
   -9.8037   20.5077  -31.7834 H   0  0  0  0  0  0  0  0  0  0  0  0
   -8.7539   17.9898  -32.6278 H   0  0  0  0  0  0  0  0  0  0  0  0
   -4.0660   17.1550  -33.3040 H   0  0  0  0  0  0  0  0  0  0  0  0
   -4.5900   15.5320  -33.8610 H   0  0  0  0  0  0  0  0  0  0  0  0
   -5.0900   22.0461  -32.6520 H   0  0  0  0  0  0  0  0  0  0  0  0
  1  2  1  0
  2  3  2  0
  2  4  1  0
  4  5  1  0
  5  6  1  0
  6  7  1  0
  7  8  1  0
  8  9  2  0
  9 10  1  0
 10 11  2  0
 11 12  1  0
 12 13  2  0
 13 14  1  0
 14 15  1  0
 14 16  2  0
 13 17  1  0
 17 18  1  0
 18 19  2  0
 18 20  1  0
 17 21  1  0
 21 22  2  0
 22  8  1  0
 21 11  1  0
  1 23  1  0
  1 24  1  0
  1 25  1  0
  5 26  1  0
  5 27  1  0
  6 28  1  0
  6 29  1  0
  7 30  1  0
  7 31  1  0
  9 32  1  0
 10 33  1  0
 12 34  1  0
 15 35  1  0
 15 36  1  0
 22 37  1  0
M  CHG  2   4  -1  20  -1
M  END
>  <UniqueID>  (75) 
73

>  <SMILES>  (75) 
CC(=O)[N-]CCCc1ccc2cc(C(N)=O)n(C(=O)[O-])c2c1

>  <Energy>  (75) 
68.38195630340222

>  <Genealogy>  (75) 
CC(=O)[N-]CCCc1ccc2cc(C(N)=O)n(C(=O)[O-])c2c1 (protonated)
CC(=O)[N-]CCCc1ccc2cc(C(N)=O)n(C(=O)[O-])c2c1 (3D coordinates assigned)
CC(=O)[N-]CCCc1ccc2cc(C(N)=O)n(C(=O)[O-])c2c1 (optimized conformer: 68.38195630340222 kcal/mol)

>  <smiles>  (75) 
CC(=O)NCCCc1ccc2cc(C(N)=O)n(C(=O)O)c2c1

>  <score_type>  (75) 
oracle

>  <origin>  (75) 
adg

>  <m_score__min__energy>  (75) 
-9.7300000000000004

>  <m_primary>  (75) 
energy

$$$$
75:0
     RDKit          3D

 36 37  0  0  0  0  0  0  0  0999 V2000
   -4.4910   25.5790  -30.6920 N   0  0  0  0  0  0  0  0  0  0  0  0
   -4.7420   24.1780  -30.6110 C   0  0  0  0  0  0  0  0  0  0  0  0
   -5.8570   23.7760  -30.1860 O   0  0  0  0  0  0  0  0  0  0  0  0
   -3.7140   23.2200  -31.0660 C   0  0  0  0  0  0  0  0  0  0  0  0
   -3.9230   22.3040  -32.0950 C   0  0  0  0  0  0  0  0  0  0  0  0
   -2.7760   21.5450  -32.1490 C   0  0  0  0  0  0  0  0  0  0  0  0
   -2.4430   20.4850  -32.9860 C   0  0  0  0  0  0  0  0  0  0  0  0
   -1.1800   19.8920  -32.8270 C   0  0  0  0  0  0  0  0  0  0  0  0
   -0.2730   20.3780  -31.8520 C   0  0  0  0  0  0  0  0  0  0  0  0
    1.0570   19.7060  -31.6560 C   0  0  0  0  0  0  0  0  0  0  0  0
    1.7360   19.5380  -32.9790 C   0  0  0  0  0  0  0  0  0  0  0  0
    2.1790   18.4040  -33.3100 O   0  0  0  0  0  0  0  0  0  0  0  0
    1.8270   20.6470  -33.8850 N   0  0  0  0  0  0  0  0  0  0  0  0
    2.1880   20.4880  -35.2940 C   0  0  0  0  0  0  0  0  0  0  0  0
    2.5940   21.8340  -35.9020 C   0  0  0  0  0  0  0  0  0  0  0  0
    1.4320   22.7760  -35.9770 C   0  0  0  0  0  0  0  0  0  0  0  0
    0.4690   22.6600  -35.1720 O   0  0  0  0  0  0  0  0  0  0  0  0
    1.3990   23.7650  -36.9500 O   0  0  0  0  0  0  0  0  0  0  0  0
   -0.6480   21.4520  -31.0160 C   0  0  0  0  0  0  0  0  0  0  0  0
   -1.9220   22.0100  -31.1820 C   0  0  0  0  0  0  0  0  0  0  0  0
   -2.4810   23.0400  -30.5090 N   0  0  0  0  0  0  0  0  0  0  0  0
   -1.8630   23.8080  -29.4640 C   0  0  0  0  0  0  0  0  0  0  0  0
   -1.1220   23.2470  -28.6150 O   0  0  0  0  0  0  0  0  0  0  0  0
   -2.0970   25.1730  -29.3650 O   0  0  0  0  0  0  0  0  0  0  0  0
   -3.8590   26.0520  -30.0090 H   0  0  0  0  0  0  0  0  0  0  0  0
   -4.8160   22.2078  -32.7300 H   0  0  0  0  0  0  0  0  0  0  0  0
   -3.1474   20.1224  -33.7491 H   0  0  0  0  0  0  0  0  0  0  0  0
   -0.8920   19.0431  -33.4645 H   0  0  0  0  0  0  0  0  0  0  0  0
    1.6857   20.3239  -30.9980 H   0  0  0  0  0  0  0  0  0  0  0  0
    0.9024   18.7182  -31.1974 H   0  0  0  0  0  0  0  0  0  0  0  0
    1.4670   21.5780  -33.5750 H   0  0  0  0  0  0  0  0  0  0  0  0
    3.0312   19.7861  -35.3741 H   0  0  0  0  0  0  0  0  0  0  0  0
    1.3165   20.1001  -35.8417 H   0  0  0  0  0  0  0  0  0  0  0  0
    3.3800   22.2851  -35.2786 H   0  0  0  0  0  0  0  0  0  0  0  0
    2.9591   21.6546  -36.9240 H   0  0  0  0  0  0  0  0  0  0  0  0
    0.0429   21.8408  -30.2535 H   0  0  0  0  0  0  0  0  0  0  0  0
  1  2  1  0
  2  3  2  0
  2  4  1  0
  4  5  2  0
  5  6  1  0
  6  7  2  0
  7  8  1  0
  8  9  2  0
  9 10  1  0
 10 11  1  0
 11 12  2  0
 11 13  1  0
 13 14  1  0
 14 15  1  0
 15 16  1  0
 16 17  2  0
 16 18  1  0
  9 19  1  0
 19 20  2  0
 20 21  1  0
 21 22  1  0
 22 23  2  0
 22 24  1  0
 21  4  1  0
 20  6  1  0
  1 25  1  0
  5 26  1  0
  7 27  1  0
  8 28  1  0
 10 29  1  0
 10 30  1  0
 13 31  1  0
 14 32  1  0
 14 33  1  0
 15 34  1  0
 15 35  1  0
 19 36  1  0
M  CHG  3   1  -1  18  -1  24  -1
M  END
>  <UniqueID>  (76) 
74

>  <SMILES>  (76) 
[NH-]C(=O)c1cc2ccc(CC(=O)NCCC(=O)[O-])cc2n1C(=O)[O-]

>  <Energy>  (76) 
67.56181618172337

>  <Genealogy>  (76) 
[NH-]C(=O)c1cc2ccc(CC(=O)NCCC(=O)[O-])cc2n1C(=O)[O-] (protonated)
[NH-]C(=O)c1cc2ccc(CC(=O)NCCC(=O)[O-])cc2n1C(=O)[O-] (3D coordinates assigned)
[NH-]C(=O)c1cc2ccc(CC(=O)NCCC(=O)[O-])cc2n1C(=O)[O-] (optimized conformer: 67.56181618172337 kcal/mol)

>  <smiles>  (76) 
NC(=O)c1cc2ccc(CC(=O)NCCC(=O)O)cc2n1C(=O)O

>  <score_type>  (76) 
oracle

>  <origin>  (76) 
adg

>  <m_score__min__energy>  (76) 
-11.369999999999999

>  <m_primary>  (76) 
energy

$$$$
76:0
     RDKit          3D

 34 36  0  0  0  0  0  0  0  0999 V2000
   -3.8950   25.6380  -30.8240 N   0  0  0  0  0  0  0  0  0  0  0  0
   -5.1090   25.0180  -30.4050 C   0  0  0  0  0  0  0  0  0  0  0  0
   -5.7380   25.4950  -29.4240 O   0  0  0  0  0  0  0  0  0  0  0  0
   -5.6050   23.7980  -31.0700 C   0  0  0  0  0  0  0  0  0  0  0  0
   -6.9550   23.5400  -31.2990 C   0  0  0  0  0  0  0  0  0  0  0  0
   -6.9980   22.2750  -31.8390 C   0  0  0  0  0  0  0  0  0  0  0  0
   -8.0870   21.5160  -32.2590 C   0  0  0  0  0  0  0  0  0  0  0  0
   -7.8330   20.2420  -32.7970 C   0  0  0  0  0  0  0  0  0  0  0  0
   -6.5040   19.7550  -32.9130 C   0  0  0  0  0  0  0  0  0  0  0  0
   -6.2500   18.4510  -33.4690 N   0  0  0  0  0  0  0  0  0  0  0  0
   -5.7150   18.3260  -34.8290 C   0  0  0  0  0  0  0  0  0  0  0  0
   -4.9090   17.0290  -34.9470 C   0  0  0  0  0  0  0  0  0  0  0  0
   -5.6740   15.9200  -34.5140 O   0  0  0  0  0  0  0  0  0  0  0  0
   -5.9540   16.0420  -33.1310 C   0  0  0  0  0  0  0  0  0  0  0  0
   -6.8460   17.2570  -32.8620 C   0  0  0  0  0  0  0  0  0  0  0  0
   -5.4280   20.5560  -32.4710 C   0  0  0  0  0  0  0  0  0  0  0  0
   -5.7120   21.8130  -31.9280 C   0  0  0  0  0  0  0  0  0  0  0  0
   -4.8440   22.7370  -31.4640 N   0  0  0  0  0  0  0  0  0  0  0  0
   -3.4130   22.6360  -31.4880 C   0  0  0  0  0  0  0  0  0  0  0  0
   -2.7260   23.2090  -30.6030 O   0  0  0  0  0  0  0  0  0  0  0  0
   -2.5880   21.6190  -32.7280 S   0  0  0  0  0  0  0  0  0  0  0  0
   -2.9710   25.2980  -30.4770 H   0  0  0  0  0  0  0  0  0  0  0  0
   -7.8057   24.2060  -31.0921 H   0  0  0  0  0  0  0  0  0  0  0  0
   -9.1138   21.9009  -32.1727 H   0  0  0  0  0  0  0  0  0  0  0  0
   -8.6730   19.6156  -33.1318 H   0  0  0  0  0  0  0  0  0  0  0  0
   -6.5463   18.3072  -35.5491 H   0  0  0  0  0  0  0  0  0  0  0  0
   -5.0606   19.1836  -35.0443 H   0  0  0  0  0  0  0  0  0  0  0  0
   -4.6192   16.8790  -35.9975 H   0  0  0  0  0  0  0  0  0  0  0  0
   -4.0154   17.1105  -34.3108 H   0  0  0  0  0  0  0  0  0  0  0  0
   -6.4687   15.1332  -32.7857 H   0  0  0  0  0  0  0  0  0  0  0  0
   -5.0056   16.1741  -32.5896 H   0  0  0  0  0  0  0  0  0  0  0  0
   -7.8413   17.0835  -33.2971 H   0  0  0  0  0  0  0  0  0  0  0  0
   -6.9389   17.4078  -31.7763 H   0  0  0  0  0  0  0  0  0  0  0  0
   -4.3906   20.1993  -32.5520 H   0  0  0  0  0  0  0  0  0  0  0  0
  1  2  1  0
  2  3  2  0
  2  4  1  0
  4  5  2  0
  5  6  1  0
  6  7  2  0
  7  8  1  0
  8  9  2  0
  9 10  1  0
 10 11  1  0
 11 12  1  0
 12 13  1  0
 13 14  1  0
 14 15  1  0
  9 16  1  0
 16 17  2  0
 17 18  1  0
 18 19  1  0
 19 20  2  0
 19 21  1  0
 18  4  1  0
 17  6  1  0
 15 10  1  0
  1 22  1  0
  5 23  1  0
  7 24  1  0
  8 25  1  0
 11 26  1  0
 11 27  1  0
 12 28  1  0
 12 29  1  0
 14 30  1  0
 14 31  1  0
 15 32  1  0
 15 33  1  0
 16 34  1  0
M  CHG  2   1  -1  21  -1
M  END
>  <UniqueID>  (77) 
75

>  <SMILES>  (77) 
[NH-]C(=O)c1cc2ccc(N3CCOCC3)cc2n1C(=O)[S-]

>  <Energy>  (77) 
81.50396374750088

>  <Genealogy>  (77) 
[NH-]C(=O)c1cc2ccc(N3CCOCC3)cc2n1C(=O)[S-] (protonated)
[NH-]C(=O)c1cc2ccc(N3CCOCC3)cc2n1C(=O)[S-] (3D coordinates assigned)
[NH-]C(=O)c1cc2ccc(N3CCOCC3)cc2n1C(=O)[S-] (nonaromatic ring conformer: 81.50396374750088 kcal/mol)

>  <smiles>  (77) 
NC(=O)c1cc2ccc(N3CCOCC3)cc2n1C(=O)S

>  <score_type>  (77) 
oracle

>  <origin>  (77) 
adg

>  <m_score__min__energy>  (77) 
-10.24

>  <m_primary>  (77) 
energy

$$$$
77:0
     RDKit          3D

 43 46  0  0  0  0  0  0  0  0999 V2000
   -1.5990   26.0290  -28.9290 N   0  0  0  0  0  0  0  0  0  0  0  0
   -0.8910   24.7920  -28.9090 C   0  0  0  0  0  0  0  0  0  0  0  0
    0.1830   24.7070  -28.2560 O   0  0  0  0  0  0  0  0  0  0  0  0
   -1.3960   23.6430  -29.6870 C   0  0  0  0  0  0  0  0  0  0  0  0
   -0.6070   22.5510  -30.0420 C   0  0  0  0  0  0  0  0  0  0  0  0
   -1.4600   21.6710  -30.6680 C   0  0  0  0  0  0  0  0  0  0  0  0
   -1.2030   20.4270  -31.2330 C   0  0  0  0  0  0  0  0  0  0  0  0
   -2.2710   19.7460  -31.8400 C   0  0  0  0  0  0  0  0  0  0  0  0
   -3.5710   20.3150  -31.8720 C   0  0  0  0  0  0  0  0  0  0  0  0
   -4.6620   19.6130  -32.5120 N   0  0  0  0  0  0  0  0  0  0  0  0
   -5.7770   19.3350  -31.5720 C   0  0  2  0  0  0  0  0  0  0  0  0
   -6.6450   18.1230  -32.0510 C   0  0  0  0  0  0  0  0  0  0  0  0
   -7.8730   18.5430  -32.9080 C   0  0  1  0  0  0  0  0  0  0  0  0
   -9.1350   18.6900  -32.0470 C   0  0  0  0  0  0  0  0  0  0  0  0
   -9.1290   20.1550  -31.6380 C   0  0  0  0  0  0  0  0  0  0  0  0
   -7.8650   20.7190  -32.3000 C   0  0  1  0  0  0  0  0  0  0  0  0
   -6.6370   20.6240  -31.3500 C   0  0  0  0  0  0  0  0  0  0  0  0
   -7.6240   19.8710  -33.4630 N   0  0  0  0  0  0  0  0  0  0  0  0
   -3.7870   21.5890  -31.2940 C   0  0  0  0  0  0  0  0  0  0  0  0
   -2.7090   22.2360  -30.6800 C   0  0  0  0  0  0  0  0  0  0  0  0
   -2.6860   23.4500  -30.0850 N   0  0  0  0  0  0  0  0  0  0  0  0
   -3.7880   24.3650  -29.9710 C   0  0  0  0  0  0  0  0  0  0  0  0
   -4.7180   24.1420  -29.1530 O   0  0  0  0  0  0  0  0  0  0  0  0
   -3.8520   25.4920  -30.7820 O   0  0  0  0  0  0  0  0  0  0  0  0
   -2.6420   26.0500  -28.9680 H   0  0  0  0  0  0  0  0  0  0  0  0
    0.4700   22.4199  -29.8603 H   0  0  0  0  0  0  0  0  0  0  0  0
   -0.1941   19.9894  -31.2055 H   0  0  0  0  0  0  0  0  0  0  0  0
   -2.0979   18.7600  -32.2960 H   0  0  0  0  0  0  0  0  0  0  0  0
   -4.3220   18.7230  -32.9430 H   0  0  0  0  0  0  0  0  0  0  0  0
   -4.9970   20.2210  -33.2960 H   0  0  0  0  0  0  0  0  0  0  0  0
   -5.3475   19.0468  -30.6012 H   0  0  0  0  0  0  0  0  0  0  0  0
   -6.0107   17.4565  -32.6538 H   0  0  0  0  0  0  0  0  0  0  0  0
   -7.0328   17.6252  -31.1500 H   0  0  0  0  0  0  0  0  0  0  0  0
   -8.0178   17.7705  -33.6776 H   0  0  0  0  0  0  0  0  0  0  0  0
  -10.0366   18.4498  -32.6296 H   0  0  0  0  0  0  0  0  0  0  0  0
   -9.1419   18.0082  -31.1838 H   0  0  0  0  0  0  0  0  0  0  0  0
  -10.0278   20.6686  -32.0099 H   0  0  0  0  0  0  0  0  0  0  0  0
   -9.1319   20.2902  -30.5463 H   0  0  0  0  0  0  0  0  0  0  0  0
   -8.0024   21.7795  -32.5576 H   0  0  0  0  0  0  0  0  0  0  0  0
   -5.9974   21.5030  -31.5181 H   0  0  0  0  0  0  0  0  0  0  0  0
   -7.0248   20.5823  -30.3215 H   0  0  0  0  0  0  0  0  0  0  0  0
   -8.3510   20.0770  -34.1880 H   0  0  0  0  0  0  0  0  0  0  0  0
   -4.7805   22.0600  -31.3268 H   0  0  0  0  0  0  0  0  0  0  0  0
  1  2  1  0
  2  3  2  0
  2  4  1  0
  4  5  2  0
  5  6  1  0
  6  7  2  0
  7  8  1  0
  8  9  2  0
  9 10  1  0
 10 11  1  0
 11 12  1  0
 12 13  1  0
 13 14  1  0
 14 15  1  0
 15 16  1  0
 16 17  1  0
 16 18  1  0
  9 19  1  0
 19 20  2  0
 20 21  1  0
 21 22  1  0
 22 23  2  0
 22 24  1  0
 21  4  1  0
 20  6  1  0
 17 11  1  0
 18 13  1  0
  1 25  1  0
  5 26  1  0
  7 27  1  0
  8 28  1  0
 10 29  1  0
 10 30  1  0
 11 31  1  1
 12 32  1  0
 12 33  1  0
 13 34  1  6
 14 35  1  0
 14 36  1  0
 15 37  1  0
 15 38  1  0
 16 39  1  6
 17 40  1  0
 17 41  1  0
 18 42  1  0
 19 43  1  0
M  CHG  3   1  -1  10   1  24  -1
M  END
>  <UniqueID>  (78) 
76

>  <SMILES>  (78) 
[NH-]C(=O)c1cc2ccc([NH2+]C3C[C@H]4CC[C@@H](C3)N4)cc2n1C(=O)[O-]

>  <Energy>  (78) 
103.69259080957282

>  <Genealogy>  (78) 
[NH-]C(=O)c1cc2ccc([NH2+]C3CC4CCC(C3)N4)cc2n1C(=O)[O-] (protonated)
[NH-]C(=O)c1cc2ccc([NH2+]C3C[C@H]4CC[C@@H](C3)N4)cc2n1C(=O)[O-] (chirality)
[NH-]C(=O)c1cc2ccc([NH2+]C3C[C@H]4CC[C@@H](C3)N4)cc2n1C(=O)[O-] (3D coordinates assigned)
[NH-]C(=O)c1cc2ccc([NH2+]C3C[C@H]4CC[C@@H](C3)N4)cc2n1C(=O)[O-] (nonaromatic ring conformer: 103.69259080957282 kcal/mol)

>  <smiles>  (78) 
NC(=O)c1cc2ccc(NC3CC4CCC(C3)N4)cc2n1C(=O)O

>  <score_type>  (78) 
oracle

>  <origin>  (78) 
adg

>  <m_score__min__energy>  (78) 
-12.16

>  <m_primary>  (78) 
energy

$$$$
78:0
     RDKit          3D

 31 32  0  0  0  0  0  0  0  0999 V2000
   -6.1370   23.2730  -32.6940 N   0  0  0  0  0  0  0  0  0  0  0  0
   -5.6000   22.1320  -32.0260 C   0  0  0  0  0  0  0  0  0  0  0  0
   -6.0430   20.9860  -32.3070 O   0  0  0  0  0  0  0  0  0  0  0  0
   -4.5830   22.2750  -30.9650 C   0  0  0  0  0  0  0  0  0  0  0  0
   -3.8490   21.2060  -30.4600 C   0  0  0  0  0  0  0  0  0  0  0  0
   -3.0730   21.7400  -29.4580 C   0  0  0  0  0  0  0  0  0  0  0  0
   -2.1360   21.1270  -28.6310 C   0  0  0  0  0  0  0  0  0  0  0  0
   -1.4470   21.9300  -27.7080 C   0  0  0  0  0  0  0  0  0  0  0  0
   -1.6990   23.3220  -27.6320 C   0  0  0  0  0  0  0  0  0  0  0  0
   -0.9180   24.1810  -26.6670 C   0  0  0  0  0  0  0  0  0  0  0  0
    0.0520   25.1420  -27.3750 C   0  0  1  0  0  0  0  0  0  0  0  0
    0.6550   24.4980  -28.4660 O   0  0  0  0  0  0  0  0  0  0  0  0
   -0.6510   26.3930  -27.8270 C   0  0  0  0  0  0  0  0  0  0  0  0
   -1.2190   26.4260  -28.9500 O   0  0  0  0  0  0  0  0  0  0  0  0
   -0.6360   27.5340  -27.0320 O   0  0  0  0  0  0  0  0  0  0  0  0
   -2.6550   23.9100  -28.4910 C   0  0  0  0  0  0  0  0  0  0  0  0
   -3.3420   23.0840  -29.3880 C   0  0  0  0  0  0  0  0  0  0  0  0
   -4.2670   23.4300  -30.3130 N   0  0  0  0  0  0  0  0  0  0  0  0
   -4.7160   24.7590  -30.6290 C   0  0  0  0  0  0  0  0  0  0  0  0
   -3.8850   25.6780  -30.8550 O   0  0  0  0  0  0  0  0  0  0  0  0
   -6.0740   25.0430  -30.6950 O   0  0  0  0  0  0  0  0  0  0  0  0
   -5.9130   24.2410  -32.3730 H   0  0  0  0  0  0  0  0  0  0  0  0
   -6.8290   23.1510  -33.4670 H   0  0  0  0  0  0  0  0  0  0  0  0
   -3.8824   20.1577  -30.7915 H   0  0  0  0  0  0  0  0  0  0  0  0
   -1.9413   20.0465  -28.6985 H   0  0  0  0  0  0  0  0  0  0  0  0
   -0.7041   21.4737  -27.0372 H   0  0  0  0  0  0  0  0  0  0  0  0
   -1.6273   24.7738  -26.0708 H   0  0  0  0  0  0  0  0  0  0  0  0
   -0.3172   23.5088  -26.0368 H   0  0  0  0  0  0  0  0  0  0  0  0
    0.8304   25.4359  -26.6554 H   0  0  0  0  0  0  0  0  0  0  0  0
    0.2680   24.9010  -29.2880 H   0  0  0  0  0  0  0  0  0  0  0  0
   -2.8544   24.9912  -28.4554 H   0  0  0  0  0  0  0  0  0  0  0  0
  1  2  1  0
  2  3  2  0
  2  4  1  0
  4  5  2  0
  5  6  1  0
  6  7  2  0
  7  8  1  0
  8  9  2  0
  9 10  1  0
 10 11  1  0
 11 12  1  0
 11 13  1  0
 13 14  2  0
 13 15  1  0
  9 16  1  0
 16 17  2  0
 17 18  1  0
 18 19  1  0
 19 20  2  0
 19 21  1  0
 18  4  1  0
 17  6  1  0
  1 22  1  0
  1 23  1  0
  5 24  1  0
  7 25  1  0
  8 26  1  0
 10 27  1  0
 10 28  1  0
 11 29  1  1
 12 30  1  0
 16 31  1  0
M  CHG  2  15  -1  21  -1
M  END
>  <UniqueID>  (79) 
77

>  <SMILES>  (79) 
NC(=O)c1cc2ccc(C[C@@H](O)C(=O)[O-])cc2n1C(=O)[O-]

>  <Energy>  (79) 
69.2882940547058

>  <Genealogy>  (79) 
NC(=O)c1cc2ccc(CC(O)C(=O)[O-])cc2n1C(=O)[O-] (protonated)
NC(=O)c1cc2ccc(C[C@@H](O)C(=O)[O-])cc2n1C(=O)[O-] (chirality)
NC(=O)c1cc2ccc(C[C@@H](O)C(=O)[O-])cc2n1C(=O)[O-] (3D coordinates assigned)
NC(=O)c1cc2ccc(C[C@@H](O)C(=O)[O-])cc2n1C(=O)[O-] (optimized conformer: 69.2882940547058 kcal/mol)

>  <smiles>  (79) 
NC(=O)c1cc2ccc(CC(O)C(=O)O)cc2n1C(=O)O

>  <score_type>  (79) 
oracle

>  <origin>  (79) 
adg

>  <m_score__min__energy>  (79) 
-9.1199999999999992

>  <m_primary>  (79) 
energy

$$$$
79:0
     RDKit          3D

 37 38  0  0  0  0  0  0  0  0999 V2000
   -1.5120   22.9880  -28.2850 C   0  0  0  0  0  0  0  0  0  0  0  0
   -2.8150   22.5550  -28.9840 C   0  0  0  0  0  0  0  0  0  0  0  0
   -2.8900   21.0210  -29.0960 C   0  0  0  0  0  0  0  0  0  0  0  0
   -4.0090   23.0520  -28.1550 C   0  0  0  0  0  0  0  0  0  0  0  0
   -2.9190   23.1620  -30.2790 O   0  0  0  0  0  0  0  0  0  0  0  0
   -3.6960   22.7050  -31.3540 C   0  0  0  0  0  0  0  0  0  0  0  0
   -3.1600   22.1550  -32.3530 O   0  0  0  0  0  0  0  0  0  0  0  0
   -5.1180   22.8910  -31.3210 N   0  0  0  0  0  0  0  0  0  0  0  0
   -5.8130   23.9730  -30.8640 C   0  0  0  0  0  0  0  0  0  0  0  0
   -5.2320   25.2640  -30.4420 C   0  0  0  0  0  0  0  0  0  0  0  0
   -3.9190   25.6450  -30.8460 N   0  0  0  0  0  0  0  0  0  0  0  0
   -5.9210   26.0640  -29.7550 O   0  0  0  0  0  0  0  0  0  0  0  0
   -7.1840   23.7300  -30.9230 C   0  0  0  0  0  0  0  0  0  0  0  0
   -7.3090   22.4640  -31.4440 C   0  0  0  0  0  0  0  0  0  0  0  0
   -8.4500   21.7100  -31.6990 C   0  0  0  0  0  0  0  0  0  0  0  0
   -8.2820   20.4100  -32.2070 C   0  0  0  0  0  0  0  0  0  0  0  0
   -6.9850   19.8920  -32.4600 C   0  0  0  0  0  0  0  0  0  0  0  0
   -6.8170   18.4750  -32.9450 C   0  0  0  0  0  0  0  0  0  0  0  0
   -7.9980   17.7670  -32.8030 F   0  0  0  0  0  0  0  0  0  0  0  0
   -6.4580   18.4900  -34.2790 F   0  0  0  0  0  0  0  0  0  0  0  0
   -5.8330   17.8240  -32.2200 F   0  0  0  0  0  0  0  0  0  0  0  0
   -5.8510   20.6820  -32.1620 C   0  0  0  0  0  0  0  0  0  0  0  0
   -6.0490   21.9780  -31.6760 C   0  0  0  0  0  0  0  0  0  0  0  0
   -1.6484   22.9427  -27.1944 H   0  0  0  0  0  0  0  0  0  0  0  0
   -0.6954   22.3129  -28.5808 H   0  0  0  0  0  0  0  0  0  0  0  0
   -1.2619   24.0176  -28.5808 H   0  0  0  0  0  0  0  0  0  0  0  0
   -2.9115   20.5804  -28.0883 H   0  0  0  0  0  0  0  0  0  0  0  0
   -3.8031   20.7373  -29.6398 H   0  0  0  0  0  0  0  0  0  0  0  0
   -2.0089   20.6495  -29.6398 H   0  0  0  0  0  0  0  0  0  0  0  0
   -3.7773   22.9556  -27.0840 H   0  0  0  0  0  0  0  0  0  0  0  0
   -4.2072   24.1073  -28.3937 H   0  0  0  0  0  0  0  0  0  0  0  0
   -4.8975   22.4490  -28.3937 H   0  0  0  0  0  0  0  0  0  0  0  0
   -3.0770   25.2980  -30.3360 H   0  0  0  0  0  0  0  0  0  0  0  0
   -7.9946   24.4078  -30.6173 H   0  0  0  0  0  0  0  0  0  0  0  0
   -9.4534   22.1187  -31.5089 H   0  0  0  0  0  0  0  0  0  0  0  0
   -9.1656   19.7873  -32.4107 H   0  0  0  0  0  0  0  0  0  0  0  0
   -4.8354   20.2858  -32.3092 H   0  0  0  0  0  0  0  0  0  0  0  0
  1  2  1  0
  2  3  1  0
  2  4  1  0
  2  5  1  0
  5  6  1  0
  6  7  2  0
  6  8  1  0
  8  9  1  0
  9 10  1  0
 10 11  1  0
 10 12  2  0
  9 13  2  0
 13 14  1  0
 14 15  2  0
 15 16  1  0
 16 17  2  0
 17 18  1  0
 18 19  1  0
 18 20  1  0
 18 21  1  0
 17 22  1  0
 22 23  2  0
 23  8  1  0
 23 14  1  0
  1 24  1  0
  1 25  1  0
  1 26  1  0
  3 27  1  0
  3 28  1  0
  3 29  1  0
  4 30  1  0
  4 31  1  0
  4 32  1  0
 11 33  1  0
 13 34  1  0
 15 35  1  0
 16 36  1  0
 22 37  1  0
M  CHG  1  11  -1
M  END
>  <UniqueID>  (80) 
78

>  <SMILES>  (80) 
CC(C)(C)OC(=O)n1c(C([NH-])=O)cc2ccc(C(F)(F)F)cc21

>  <Energy>  (80) 
71.8318324677277

>  <Genealogy>  (80) 
CC(C)(C)OC(=O)n1c(C([NH-])=O)cc2ccc(C(F)(F)F)cc21 (protonated)
CC(C)(C)OC(=O)n1c(C([NH-])=O)cc2ccc(C(F)(F)F)cc21 (3D coordinates assigned)
CC(C)(C)OC(=O)n1c(C([NH-])=O)cc2ccc(C(F)(F)F)cc21 (optimized conformer: 71.8318324677277 kcal/mol)

>  <smiles>  (80) 
CC(C)(C)OC(=O)n1c(C(N)=O)cc2ccc(C(F)(F)F)cc21

>  <score_type>  (80) 
oracle

>  <origin>  (80) 
adg

>  <m_score__min__energy>  (80) 
-9.5999999999999996

>  <m_primary>  (80) 
energy

$$$$
80:0
     RDKit          3D

 50 53  0  0  0  0  0  0  0  0999 V2000
    0.5790   19.9460  -34.2840 C   0  0  0  0  0  0  0  0  0  0  0  0
   -0.1660   20.7860  -33.6200 C   0  0  0  0  0  0  0  0  0  0  0  0
   -0.5790   21.9360  -34.3340 O   0  0  0  0  0  0  0  0  0  0  0  0
   -0.6230   20.6760  -32.2550 C   0  0  0  0  0  0  0  0  0  0  0  0
   -0.8640   21.9000  -31.5990 C   0  0  0  0  0  0  0  0  0  0  0  0
   -1.2700   21.9790  -30.2930 C   0  0  0  0  0  0  0  0  0  0  0  0
   -1.5550   23.5180  -29.5180 Cl  0  0  0  0  0  0  0  0  0  0  0  0
   -1.4610   20.8330  -29.5660 C   0  0  0  0  0  0  0  0  0  0  0  0
   -1.2340   19.6350  -30.1950 C   0  0  0  0  0  0  0  0  0  0  0  0
   -0.8210   19.5600  -31.5380 C   0  0  0  0  0  0  0  0  0  0  0  0
   -0.9010   18.1890  -32.0710 C   0  0  0  0  0  0  0  0  0  0  0  0
   -1.7440   17.5760  -32.6430 N   0  0  0  0  0  0  0  0  0  0  0  0
   -1.7000   16.3450  -33.0670 C   0  0  0  0  0  0  0  0  0  0  0  0
   -2.8450   15.6730  -33.7850 C   0  0  0  0  0  0  0  0  0  0  0  0
   -3.3860   16.5510  -34.8620 C   0  0  0  0  0  0  0  0  0  0  0  0
   -4.4960   17.3510  -34.2850 C   0  0  0  0  0  0  0  0  0  0  0  0
   -5.7280   16.7710  -34.0820 C   0  0  0  0  0  0  0  0  0  0  0  0
   -6.7520   17.5210  -33.5460 C   0  0  0  0  0  0  0  0  0  0  0  0
   -6.5170   18.8450  -33.2240 C   0  0  0  0  0  0  0  0  0  0  0  0
   -7.3450   19.8020  -32.6870 C   0  0  0  0  0  0  0  0  0  0  0  0
   -6.6300   21.0000  -32.5490 C   0  0  0  0  0  0  0  0  0  0  0  0
   -7.2360   22.1970  -32.0080 C   0  0  0  0  0  0  0  0  0  0  0  0
   -7.0780   23.4510  -32.7120 N   0  0  0  0  0  0  0  0  0  0  0  0
   -7.9080   22.2750  -30.9550 O   0  0  0  0  0  0  0  0  0  0  0  0
   -5.3880   20.7660  -32.9980 N   0  0  0  0  0  0  0  0  0  0  0  0
   -4.3060   21.6680  -33.0600 C   0  0  0  0  0  0  0  0  0  0  0  0
   -4.3340   22.7290  -32.3650 O   0  0  0  0  0  0  0  0  0  0  0  0
   -3.1710   21.5060  -33.8340 O   0  0  0  0  0  0  0  0  0  0  0  0
   -5.3050   19.4660  -33.4090 C   0  0  0  0  0  0  0  0  0  0  0  0
   -4.2910   18.6930  -33.9480 C   0  0  0  0  0  0  0  0  0  0  0  0
   -0.5100   15.6880  -32.8050 C   0  0  0  0  0  0  0  0  0  0  0  0
    0.4540   16.9500  -31.9500 S   0  0  0  0  0  0  0  0  0  0  0  0
    0.9401   19.0278  -33.7977 H   0  0  0  0  0  0  0  0  0  0  0  0
    0.8461   20.1559  -35.3302 H   0  0  0  0  0  0  0  0  0  0  0  0
   -1.3800   21.8440  -34.9570 H   0  0  0  0  0  0  0  0  0  0  0  0
   -0.7195   22.8343  -32.1613 H   0  0  0  0  0  0  0  0  0  0  0  0
   -1.7848   20.8723  -28.5155 H   0  0  0  0  0  0  0  0  0  0  0  0
   -1.3797   18.7021  -29.6306 H   0  0  0  0  0  0  0  0  0  0  0  0
   -2.4882   14.7332  -34.2317 H   0  0  0  0  0  0  0  0  0  0  0  0
   -3.6465   15.4730  -33.0587 H   0  0  0  0  0  0  0  0  0  0  0  0
   -2.5951   17.2207  -35.2306 H   0  0  0  0  0  0  0  0  0  0  0  0
   -3.7491   15.9441  -35.7045 H   0  0  0  0  0  0  0  0  0  0  0  0
   -5.8937   15.7161  -34.3459 H   0  0  0  0  0  0  0  0  0  0  0  0
   -7.7422   17.0729  -33.3767 H   0  0  0  0  0  0  0  0  0  0  0  0
   -8.3990   19.6519  -32.4101 H   0  0  0  0  0  0  0  0  0  0  0  0
   -7.8470   24.1520  -32.7320 H   0  0  0  0  0  0  0  0  0  0  0  0
   -6.1490   23.5840  -33.1850 H   0  0  0  0  0  0  0  0  0  0  0  0
   -2.6480   22.2560  -34.2360 H   0  0  0  0  0  0  0  0  0  0  0  0
   -3.3018   19.1442  -34.1150 H   0  0  0  0  0  0  0  0  0  0  0  0
   -0.2242   14.6557  -33.0554 H   0  0  0  0  0  0  0  0  0  0  0  0
  1  2  2  0
  2  3  1  0
  2  4  1  0
  4  5  2  0
  5  6  1  0
  6  7  1  0
  6  8  2  0
  8  9  1  0
  9 10  2  0
 10 11  1  0
 11 12  2  0
 12 13  1  0
 13 14  1  0
 14 15  1  0
 15 16  1  0
 16 17  2  0
 17 18  1  0
 18 19  2  0
 19 20  1  0
 20 21  2  0
 21 22  1  0
 22 23  1  0
 22 24  2  0
 21 25  1  0
 25 26  1  0
 26 27  2  0
 26 28  1  0
 25 29  1  0
 29 30  2  0
 13 31  2  0
 31 32  1  0
 10  4  1  0
 32 11  1  0
 30 16  1  0
 29 19  1  0
  1 33  1  0
  1 34  1  0
  3 35  1  0
  5 36  1  0
  8 37  1  0
  9 38  1  0
 14 39  1  0
 14 40  1  0
 15 41  1  0
 15 42  1  0
 17 43  1  0
 18 44  1  0
 20 45  1  0
 23 46  1  0
 23 47  1  0
 28 48  1  0
 30 49  1  0
 31 50  1  0
M  END
>  <smiles>  (81) 
C=C(O)c1cc(Cl)ccc1-c1nc(CCc2ccc3cc(C(N)=O)n(C(=O)O)c3c2)cs1

>  <score_type>  (81) 
oracle

>  <origin>  (81) 
adg

>  <m_score__min__energy>  (81) 
-10.51

>  <m_primary>  (81) 
energy

$$$$
81:0
     RDKit          3D

 39 41  0  0  0  0  0  0  0  0999 V2000
   -3.9040   25.6330  -30.8600 N   0  0  0  0  0  0  0  0  0  0  0  0
   -5.2310   25.3000  -30.4580 C   0  0  0  0  0  0  0  0  0  0  0  0
   -5.8820   26.1110  -29.7490 O   0  0  0  0  0  0  0  0  0  0  0  0
   -5.8090   23.9950  -30.8410 C   0  0  0  0  0  0  0  0  0  0  0  0
   -7.1570   23.8110  -31.1480 C   0  0  0  0  0  0  0  0  0  0  0  0
   -7.2640   22.4970  -31.5430 C   0  0  0  0  0  0  0  0  0  0  0  0
   -8.3780   21.7770  -31.9650 C   0  0  0  0  0  0  0  0  0  0  0  0
   -8.1990   20.4250  -32.3030 C   0  0  0  0  0  0  0  0  0  0  0  0
   -6.9250   19.8100  -32.1900 C   0  0  0  0  0  0  0  0  0  0  0  0
   -6.7390   18.3690  -32.5930 C   0  0  0  0  0  0  0  0  0  0  0  0
   -6.4570   18.2730  -33.9440 F   0  0  0  0  0  0  0  0  0  0  0  0
   -7.8870   17.6400  -32.3380 F   0  0  0  0  0  0  0  0  0  0  0  0
   -5.6920   17.8280  -31.8730 F   0  0  0  0  0  0  0  0  0  0  0  0
   -5.8140   20.5830  -31.7800 C   0  0  0  0  0  0  0  0  0  0  0  0
   -6.0180   21.9320  -31.4670 C   0  0  0  0  0  0  0  0  0  0  0  0
   -5.1150   22.8370  -31.0330 N   0  0  0  0  0  0  0  0  0  0  0  0
   -3.7200   22.5970  -30.7880 C   0  0  0  0  0  0  0  0  0  0  0  0
   -2.8550   23.0580  -31.5810 O   0  0  0  0  0  0  0  0  0  0  0  0
   -3.3320   21.8690  -29.6600 O   0  0  0  0  0  0  0  0  0  0  0  0
   -3.4360   22.3630  -28.3260 C   0  0  0  0  0  0  0  0  0  0  0  0
   -2.2390   23.2710  -27.9850 C   0  0  2  0  0  0  0  0  0  0  0  0
   -2.4270   24.7920  -28.1760 C   0  0  0  0  0  0  0  0  0  0  0  0
   -1.5310   25.3360  -29.1080 O   0  0  0  0  0  0  0  0  0  0  0  0
   -0.8760   22.6850  -28.3770 C   0  0  0  0  0  0  0  0  0  0  0  0
   -1.2690   22.7860  -26.9070 C   0  0  0  0  0  0  0  0  0  0  0  0
   -0.5630   23.7360  -26.1910 F   0  0  0  0  0  0  0  0  0  0  0  0
   -1.5050   21.5600  -26.3090 F   0  0  0  0  0  0  0  0  0  0  0  0
   -3.0960   25.0280  -30.5950 H   0  0  0  0  0  0  0  0  0  0  0  0
   -7.9629   24.5572  -31.0873 H   0  0  0  0  0  0  0  0  0  0  0  0
   -9.3680   22.2518  -32.0318 H   0  0  0  0  0  0  0  0  0  0  0  0
   -9.0569   19.8360  -32.6596 H   0  0  0  0  0  0  0  0  0  0  0  0
   -4.8122   20.1343  -31.7087 H   0  0  0  0  0  0  0  0  0  0  0  0
   -4.3668   22.9406  -28.2267 H   0  0  0  0  0  0  0  0  0  0  0  0
   -3.4401   21.5090  -27.6327 H   0  0  0  0  0  0  0  0  0  0  0  0
   -3.4535   24.9785  -28.5246 H   0  0  0  0  0  0  0  0  0  0  0  0
   -2.2319   25.2748  -27.2071 H   0  0  0  0  0  0  0  0  0  0  0  0
   -2.0850   25.6730  -29.8590 H   0  0  0  0  0  0  0  0  0  0  0  0
   -0.8202   21.7008  -28.8651 H   0  0  0  0  0  0  0  0  0  0  0  0
   -0.0243   23.0323  -28.9802 H   0  0  0  0  0  0  0  0  0  0  0  0
  1  2  1  0
  2  3  2  0
  2  4  1  0
  4  5  2  0
  5  6  1  0
  6  7  2  0
  7  8  1  0
  8  9  2  0
  9 10  1  0
 10 11  1  0
 10 12  1  0
 10 13  1  0
  9 14  1  0
 14 15  2  0
 15 16  1  0
 16 17  1  0
 17 18  2  0
 17 19  1  0
 19 20  1  0
 21 20  1  6
 21 22  1  0
 22 23  1  0
 21 24  1  0
 24 25  1  0
 25 26  1  0
 25 27  1  0
 16  4  1  0
 25 21  1  0
 15  6  1  0
  1 28  1  0
  5 29  1  0
  7 30  1  0
  8 31  1  0
 14 32  1  0
 20 33  1  0
 20 34  1  0
 22 35  1  0
 22 36  1  0
 23 37  1  0
 24 38  1  0
 24 39  1  0
M  CHG  1   1  -1
M  END
>  <UniqueID>  (82) 
79

>  <SMILES>  (82) 
[NH-]C(=O)c1cc2ccc(C(F)(F)F)cc2n1C(=O)OC[C@]1(CO)CC1(F)F

>  <Energy>  (82) 
350.77558176076263

>  <Genealogy>  (82) 
[NH-]C(=O)c1cc2ccc(C(F)(F)F)cc2n1C(=O)OCC1(CO)CC1(F)F (protonated)
[NH-]C(=O)c1cc2ccc(C(F)(F)F)cc2n1C(=O)OC[C@]1(CO)CC1(F)F (chirality)
[NH-]C(=O)c1cc2ccc(C(F)(F)F)cc2n1C(=O)OC[C@]1(CO)CC1(F)F (3D coordinates assigned)
[NH-]C(=O)c1cc2ccc(C(F)(F)F)cc2n1C(=O)OC[C@]1(CO)CC1(F)F (nonaromatic ring conformer: 350.77558176076263 kcal/mol)

>  <smiles>  (82) 
NC(=O)c1cc2ccc(C(F)(F)F)cc2n1C(=O)OCC1(CO)CC1(F)F

>  <score_type>  (82) 
oracle

>  <origin>  (82) 
adg

>  <m_score__min__energy>  (82) 
-10.65

>  <m_primary>  (82) 
energy

$$$$
82:0
     RDKit          3D

 57 59  0  0  0  0  0  0  0  0999 V2000
   -2.7450   20.8940  -28.3510 C   0  0  0  0  0  0  0  0  0  0  0  0
   -2.0580   21.7620  -29.4110 C   0  0  0  0  0  0  0  0  0  0  0  0
   -2.5180   23.2500  -29.4130 C   0  0  0  0  0  0  0  0  0  0  0  0
   -3.6490   23.4970  -28.3770 C   0  0  0  0  0  0  0  0  0  0  0  0
   -3.8920   24.8650  -28.1780 O   0  0  0  0  0  0  0  0  0  0  0  0
   -1.3060   24.1650  -29.0840 C   0  0  0  0  0  0  0  0  0  0  0  0
   -1.5940   25.5180  -29.3260 O   0  0  0  0  0  0  0  0  0  0  0  0
   -3.0770   23.6000  -30.7310 N   0  0  0  0  0  0  0  0  0  0  0  0
   -3.9820   22.8370  -31.5460 C   0  0  0  0  0  0  0  0  0  0  0  0
   -3.5100   21.9990  -32.3590 O   0  0  0  0  0  0  0  0  0  0  0  0
   -5.3990   22.8970  -31.3520 N   0  0  0  0  0  0  0  0  0  0  0  0
   -6.1430   23.9380  -30.8820 C   0  0  0  0  0  0  0  0  0  0  0  0
   -5.6180   25.2200  -30.3630 C   0  0  0  0  0  0  0  0  0  0  0  0
   -4.3700   25.7410  -30.8130 N   0  0  0  0  0  0  0  0  0  0  0  0
   -6.2800   25.8640  -29.5070 O   0  0  0  0  0  0  0  0  0  0  0  0
   -7.5040   23.6340  -30.9610 C   0  0  0  0  0  0  0  0  0  0  0  0
   -7.5660   22.3790  -31.5240 C   0  0  0  0  0  0  0  0  0  0  0  0
   -8.6660   21.5940  -31.8510 C   0  0  0  0  0  0  0  0  0  0  0  0
   -8.4300   20.3410  -32.4430 C   0  0  0  0  0  0  0  0  0  0  0  0
   -7.1030   19.9010  -32.7220 C   0  0  0  0  0  0  0  0  0  0  0  0
   -6.7940   18.5240  -33.3030 C   0  0  0  0  0  0  0  0  0  0  0  0
   -6.1740   17.5140  -32.3030 C   0  0  0  0  0  0  0  0  0  0  0  0
   -4.6410   17.4060  -32.4270 C   0  0  0  0  0  0  0  0  0  0  0  0
   -4.0630   18.6930  -32.8520 N   0  0  0  0  0  0  0  0  0  0  0  0
   -2.5970   18.6650  -32.7340 C   0  0  0  0  0  0  0  0  0  0  0  0
   -4.4660   19.0550  -34.2310 C   0  0  0  0  0  0  0  0  0  0  0  0
   -5.9170   18.6490  -34.5630 C   0  0  0  0  0  0  0  0  0  0  0  0
   -6.0180   20.7390  -32.3750 C   0  0  0  0  0  0  0  0  0  0  0  0
   -6.2840   21.9660  -31.7640 C   0  0  0  0  0  0  0  0  0  0  0  0
   -2.4642   21.2488  -27.3484 H   0  0  0  0  0  0  0  0  0  0  0  0
   -3.8362   20.9625  -28.4719 H   0  0  0  0  0  0  0  0  0  0  0  0
   -2.4277   19.8477  -28.4719 H   0  0  0  0  0  0  0  0  0  0  0  0
   -0.9736   21.7363  -29.2282 H   0  0  0  0  0  0  0  0  0  0  0  0
   -2.3349   21.3440  -30.3901 H   0  0  0  0  0  0  0  0  0  0  0  0
   -4.5724   23.0216  -28.7395 H   0  0  0  0  0  0  0  0  0  0  0  0
   -3.3293   23.0661  -27.4167 H   0  0  0  0  0  0  0  0  0  0  0  0
   -3.8520   25.3050  -29.0690 H   0  0  0  0  0  0  0  0  0  0  0  0
   -1.0437   24.0409  -28.0230 H   0  0  0  0  0  0  0  0  0  0  0  0
   -0.4691   23.8716  -29.7347 H   0  0  0  0  0  0  0  0  0  0  0  0
   -2.4970   25.5560  -29.7400 H   0  0  0  0  0  0  0  0  0  0  0  0
   -3.5130   25.6640  -30.2220 H   0  0  0  0  0  0  0  0  0  0  0  0
   -8.3474   24.2636  -30.6413 H   0  0  0  0  0  0  0  0  0  0  0  0
   -9.6901   21.9429  -31.6524 H   0  0  0  0  0  0  0  0  0  0  0  0
   -9.2811   19.6910  -32.6945 H   0  0  0  0  0  0  0  0  0  0  0  0
   -7.7736   18.0997  -33.5682 H   0  0  0  0  0  0  0  0  0  0  0  0
   -6.4210   17.8366  -31.2808 H   0  0  0  0  0  0  0  0  0  0  0  0
   -6.5930   16.5235  -32.5340 H   0  0  0  0  0  0  0  0  0  0  0  0
   -4.2183   17.1246  -31.4512 H   0  0  0  0  0  0  0  0  0  0  0  0
   -4.3992   16.6425  -33.1810 H   0  0  0  0  0  0  0  0  0  0  0  0
   -2.3148   18.6596  -31.6708 H   0  0  0  0  0  0  0  0  0  0  0  0
   -2.2071   17.7592  -33.2215 H   0  0  0  0  0  0  0  0  0  0  0  0
   -2.1728   19.5552  -33.2215 H   0  0  0  0  0  0  0  0  0  0  0  0
   -4.3715   20.1446  -34.3489 H   0  0  0  0  0  0  0  0  0  0  0  0
   -3.8061   18.5078  -34.9202 H   0  0  0  0  0  0  0  0  0  0  0  0
   -6.3548   19.4114  -35.2241 H   0  0  0  0  0  0  0  0  0  0  0  0
   -5.8866   17.6631  -35.0500 H   0  0  0  0  0  0  0  0  0  0  0  0
   -4.9830   20.4297  -32.5827 H   0  0  0  0  0  0  0  0  0  0  0  0
  1  2  1  0
  2  3  1  0
  3  4  1  0
  4  5  1  0
  3  6  1  0
  6  7  1  0
  3  8  1  0
  8  9  1  0
  9 10  2  0
  9 11  1  0
 11 12  1  0
 12 13  1  0
 13 14  1  0
 13 15  2  0
 12 16  2  0
 16 17  1  0
 17 18  2  0
 18 19  1  0
 19 20  2  0
 20 21  1  0
 21 22  1  0
 22 23  1  0
 23 24  1  0
 24 25  1  0
 24 26  1  0
 26 27  1  0
 20 28  1  0
 28 29  2  0
 29 11  1  0
 29 17  1  0
 27 21  1  0
  1 30  1  0
  1 31  1  0
  1 32  1  0
  2 33  1  0
  2 34  1  0
  4 35  1  0
  4 36  1  0
  5 37  1  0
  6 38  1  0
  6 39  1  0
  7 40  1  0
 14 41  1  0
 16 42  1  0
 18 43  1  0
 19 44  1  0
 21 45  1  0
 22 46  1  0
 22 47  1  0
 23 48  1  0
 23 49  1  0
 25 50  1  0
 25 51  1  0
 25 52  1  0
 26 53  1  0
 26 54  1  0
 27 55  1  0
 27 56  1  0
 28 57  1  0
M  CHG  2   8  -1  14  -1
M  END
>  <UniqueID>  (83) 
80

>  <SMILES>  (83) 
CCC(CO)(CO)[N-]C(=O)n1c(C([NH-])=O)cc2ccc(C3CCN(C)CC3)cc21

>  <Energy>  (83) 
106.7236665925646

>  <Genealogy>  (83) 
CCC(CO)(CO)[N-]C(=O)n1c(C([NH-])=O)cc2ccc(C3CCN(C)CC3)cc21 (protonated)
CCC(CO)(CO)[N-]C(=O)n1c(C([NH-])=O)cc2ccc(C3CCN(C)CC3)cc21 (3D coordinates assigned)
CCC(CO)(CO)[N-]C(=O)n1c(C([NH-])=O)cc2ccc(C3CCN(C)CC3)cc21 (nonaromatic ring conformer: 106.7236665925646 kcal/mol)

>  <smiles>  (83) 
CCC(CO)(CO)NC(=O)n1c(C(N)=O)cc2ccc(C3CCN(C)CC3)cc21

>  <score_type>  (83) 
oracle

>  <origin>  (83) 
adg

>  <m_score__min__energy>  (83) 
-12.210000000000001

>  <m_primary>  (83) 
energy

$$$$
83:0
     RDKit          3D

 33 35  0  0  0  0  0  0  0  0999 V2000
   -8.3620   22.7960  -31.9610 C   0  0  0  0  0  0  0  0  0  0  0  0
   -8.3940   21.3230  -32.2120 C   0  0  0  0  0  0  0  0  0  0  0  0
   -9.5080   20.6560  -32.5700 N   0  0  0  0  0  0  0  0  0  0  0  0
   -9.2040   19.3740  -32.7140 N   0  0  0  0  0  0  0  0  0  0  0  0
   -7.8960   19.2110  -32.4390 C   0  0  0  0  0  0  0  0  0  0  0  0
   -7.2030   17.8880  -32.5000 C   0  0  0  0  0  0  0  0  0  0  0  0
   -7.3350   20.4340  -32.1150 C   0  0  0  0  0  0  0  0  0  0  0  0
   -5.9320   20.7250  -31.7480 C   0  0  0  0  0  0  0  0  0  0  0  0
   -4.9210   19.7580  -31.9770 C   0  0  0  0  0  0  0  0  0  0  0  0
   -3.5840   20.0280  -31.6460 C   0  0  0  0  0  0  0  0  0  0  0  0
   -3.2880   21.2660  -31.0830 C   0  0  0  0  0  0  0  0  0  0  0  0
   -2.0780   21.7950  -30.6960 C   0  0  0  0  0  0  0  0  0  0  0  0
   -2.3690   23.0690  -30.2120 C   0  0  0  0  0  0  0  0  0  0  0  0
   -1.3560   23.9590  -29.6110 C   0  0  0  0  0  0  0  0  0  0  0  0
   -1.6560   25.3210  -29.3150 N   0  0  0  0  0  0  0  0  0  0  0  0
   -0.2220   23.4990  -29.3070 O   0  0  0  0  0  0  0  0  0  0  0  0
   -3.7070   23.3210  -30.3050 N   0  0  0  0  0  0  0  0  0  0  0  0
   -4.3970   24.5440  -29.9980 C   0  0  0  0  0  0  0  0  0  0  0  0
   -5.1630   24.6090  -29.0020 O   0  0  0  0  0  0  0  0  0  0  0  0
   -4.2030   25.6740  -30.7830 O   0  0  0  0  0  0  0  0  0  0  0  0
   -4.2550   22.2070  -30.8390 C   0  0  0  0  0  0  0  0  0  0  0  0
   -5.5920   21.9710  -31.1740 C   0  0  0  0  0  0  0  0  0  0  0  0
   -8.3579   22.9832  -30.8771 H   0  0  0  0  0  0  0  0  0  0  0  0
   -7.4543   23.2249  -32.4106 H   0  0  0  0  0  0  0  0  0  0  0  0
   -9.2502   23.2639  -32.4106 H   0  0  0  0  0  0  0  0  0  0  0  0
   -7.0134   17.5260  -31.4787 H   0  0  0  0  0  0  0  0  0  0  0  0
   -7.8384   17.1655  -33.0331 H   0  0  0  0  0  0  0  0  0  0  0  0
   -6.2472   17.9990  -33.0331 H   0  0  0  0  0  0  0  0  0  0  0  0
   -5.1870   18.7863  -32.4185 H   0  0  0  0  0  0  0  0  0  0  0  0
   -2.7942   19.2839  -31.8261 H   0  0  0  0  0  0  0  0  0  0  0  0
   -1.0905   21.3142  -30.7560 H   0  0  0  0  0  0  0  0  0  0  0  0
   -2.6410   25.6650  -29.3130 H   0  0  0  0  0  0  0  0  0  0  0  0
   -6.3609   22.7370  -30.9950 H   0  0  0  0  0  0  0  0  0  0  0  0
  1  2  1  0
  2  3  2  0
  3  4  1  0
  4  5  1  0
  5  6  1  0
  5  7  2  0
  7  8  1  0
  8  9  2  0
  9 10  1  0
 10 11  2  0
 11 12  1  0
 12 13  2  0
 13 14  1  0
 14 15  1  0
 14 16  2  0
 13 17  1  0
 17 18  1  0
 18 19  2  0
 18 20  1  0
 17 21  1  0
 21 22  2  0
  7  2  1  0
 22  8  1  0
 21 11  1  0
  1 23  1  0
  1 24  1  0
  1 25  1  0
  6 26  1  0
  6 27  1  0
  6 28  1  0
  9 29  1  0
 10 30  1  0
 12 31  1  0
 15 32  1  0
 22 33  1  0
M  CHG  3   4  -1  15  -1  20  -1
M  END
>  <UniqueID>  (84) 
81

>  <SMILES>  (84) 
Cc1n[n-]c(C)c1-c1ccc2cc(C([NH-])=O)n(C(=O)[O-])c2c1

>  <Energy>  (84) 
108.02500200159052

>  <Genealogy>  (84) 
Cc1n[n-]c(C)c1-c1ccc2cc(C([NH-])=O)n(C(=O)[O-])c2c1 (protonated)
Cc1n[n-]c(C)c1-c1ccc2cc(C([NH-])=O)n(C(=O)[O-])c2c1 (3D coordinates assigned)
Cc1n[n-]c(C)c1-c1ccc2cc(C([NH-])=O)n(C(=O)[O-])c2c1 (optimized conformer: 108.02500200159052 kcal/mol)

>  <smiles>  (84) 
Cc1n[nH]c(C)c1-c1ccc2cc(C(N)=O)n(C(=O)O)c2c1

>  <score_type>  (84) 
oracle

>  <origin>  (84) 
adg

>  <m_score__min__energy>  (84) 
-11.050000000000001

>  <m_primary>  (84) 
energy

$$$$
84:0
     RDKit          3D

 30 32  0  0  0  0  0  0  0  0999 V2000
   -6.7480   14.9390  -34.1930 C   0  0  0  0  0  0  0  0  0  0  0  0
   -6.4770   16.4040  -34.1540 C   0  0  0  0  0  0  0  0  0  0  0  0
   -7.0300   17.2500  -33.2650 N   0  0  0  0  0  0  0  0  0  0  0  0
   -6.4610   18.4210  -33.6220 C   0  0  0  0  0  0  0  0  0  0  0  0
   -6.7330   19.7080  -32.9470 C   0  0  0  0  0  0  0  0  0  0  0  0
   -8.0700   20.1210  -32.7100 C   0  0  0  0  0  0  0  0  0  0  0  0
   -8.3430   21.3460  -32.0810 C   0  0  0  0  0  0  0  0  0  0  0  0
   -7.2640   22.1340  -31.6920 C   0  0  0  0  0  0  0  0  0  0  0  0
   -7.2480   23.3740  -31.0970 C   0  0  0  0  0  0  0  0  0  0  0  0
   -5.9010   23.6910  -30.9490 C   0  0  0  0  0  0  0  0  0  0  0  0
   -5.4260   24.9240  -30.2880 C   0  0  0  0  0  0  0  0  0  0  0  0
   -4.1660   25.5060  -30.6270 N   0  0  0  0  0  0  0  0  0  0  0  0
   -6.1160   25.4380  -29.3690 O   0  0  0  0  0  0  0  0  0  0  0  0
   -5.1120   22.6970  -31.4440 N   0  0  0  0  0  0  0  0  0  0  0  0
   -3.6810   22.7080  -31.5830 C   0  0  0  0  0  0  0  0  0  0  0  0
   -2.9610   23.3070  -30.7410 O   0  0  0  0  0  0  0  0  0  0  0  0
   -3.0750   22.0510  -32.6480 O   0  0  0  0  0  0  0  0  0  0  0  0
   -5.9650   21.7450  -31.8930 C   0  0  0  0  0  0  0  0  0  0  0  0
   -5.6640   20.5390  -32.5370 C   0  0  0  0  0  0  0  0  0  0  0  0
   -5.6110   18.2830  -34.6610 N   0  0  0  0  0  0  0  0  0  0  0  0
   -5.6480   17.0210  -34.9590 O   0  0  0  0  0  0  0  0  0  0  0  0
   -6.8196   14.5519  -33.1659 H   0  0  0  0  0  0  0  0  0  0  0  0
   -7.6954   14.7553  -34.7210 H   0  0  0  0  0  0  0  0  0  0  0  0
   -5.9290   14.4285  -34.7210 H   0  0  0  0  0  0  0  0  0  0  0  0
   -8.9023   19.4735  -33.0229 H   0  0  0  0  0  0  0  0  0  0  0  0
   -9.3778   21.6729  -31.9012 H   0  0  0  0  0  0  0  0  0  0  0  0
   -8.1142   23.9843  -30.8015 H   0  0  0  0  0  0  0  0  0  0  0  0
   -3.8630   26.3980  -30.1760 H   0  0  0  0  0  0  0  0  0  0  0  0
   -3.4990   25.0160  -31.2620 H   0  0  0  0  0  0  0  0  0  0  0  0
   -4.6202   20.2442  -32.7201 H   0  0  0  0  0  0  0  0  0  0  0  0
  1  2  1  0
  2  3  2  0
  3  4  1  0
  4  5  1  0
  5  6  2  0
  6  7  1  0
  7  8  2  0
  8  9  1  0
  9 10  2  0
 10 11  1  0
 11 12  1  0
 11 13  2  0
 10 14  1  0
 14 15  1  0
 15 16  2  0
 15 17  1  0
 14 18  1  0
 18 19  2  0
  4 20  2  0
 20 21  1  0
 21  2  1  0
 19  5  1  0
 18  8  1  0
  1 22  1  0
  1 23  1  0
  1 24  1  0
  6 25  1  0
  7 26  1  0
  9 27  1  0
 12 28  1  0
 12 29  1  0
 19 30  1  0
M  CHG  1  17  -1
M  END
>  <UniqueID>  (85) 
82

>  <SMILES>  (85) 
Cc1nc(-c2ccc3cc(C(N)=O)n(C(=O)[O-])c3c2)no1

>  <Energy>  (85) 
104.60252177944278

>  <Genealogy>  (85) 
Cc1nc(-c2ccc3cc(C(N)=O)n(C(=O)[O-])c3c2)no1 (protonated)
Cc1nc(-c2ccc3cc(C(N)=O)n(C(=O)[O-])c3c2)no1 (3D coordinates assigned)
Cc1nc(-c2ccc3cc(C(N)=O)n(C(=O)[O-])c3c2)no1 (optimized conformer: 104.60252177944278 kcal/mol)

>  <smiles>  (85) 
Cc1nc(-c2ccc3cc(C(N)=O)n(C(=O)O)c3c2)no1

>  <score_type>  (85) 
oracle

>  <origin>  (85) 
adg

>  <m_score__min__energy>  (85) 
-8.9000000000000004

>  <m_primary>  (85) 
energy

$$$$
85:0
     RDKit          3D

 41 43  0  0  0  0  0  0  0  0999 V2000
   -8.5240   21.8590  -31.3710 C   0  0  0  0  0  0  0  0  0  0  0  0
   -8.1670   20.6930  -32.2980 C   0  0  2  0  0  0  0  0  0  0  0  0
   -8.3520   19.3270  -31.6280 C   0  0  0  0  0  0  0  0  0  0  0  0
   -7.2670   18.4340  -32.2170 C   0  0  0  0  0  0  0  0  0  0  0  0
   -6.2810   19.3380  -32.7870 N   0  0  0  0  0  0  0  0  0  0  0  0
   -5.0060   18.8810  -33.2770 C   0  0  0  0  0  0  0  0  0  0  0  0
   -4.7710   17.6440  -33.3270 O   0  0  0  0  0  0  0  0  0  0  0  0
   -3.9470   19.8330  -33.7620 C   0  0  0  0  0  0  0  0  0  0  0  0
   -3.2230   20.4440  -32.5920 C   0  0  0  0  0  0  0  0  0  0  0  0
   -2.1480   19.7490  -31.9840 C   0  0  0  0  0  0  0  0  0  0  0  0
   -1.4490   20.3160  -30.9060 C   0  0  0  0  0  0  0  0  0  0  0  0
   -1.8310   21.5800  -30.4720 C   0  0  0  0  0  0  0  0  0  0  0  0
   -1.3400   22.3490  -29.4430 C   0  0  0  0  0  0  0  0  0  0  0  0
   -2.0970   23.5190  -29.4600 C   0  0  0  0  0  0  0  0  0  0  0  0
   -1.8360   24.6670  -28.5670 C   0  0  0  0  0  0  0  0  0  0  0  0
   -1.2500   25.8650  -29.0670 N   0  0  0  0  0  0  0  0  0  0  0  0
   -2.0910   24.5730  -27.3370 O   0  0  0  0  0  0  0  0  0  0  0  0
   -3.0260   23.4710  -30.4550 N   0  0  0  0  0  0  0  0  0  0  0  0
   -4.0520   24.4370  -30.7450 C   0  0  0  0  0  0  0  0  0  0  0  0
   -3.8610   25.6600  -30.5110 O   0  0  0  0  0  0  0  0  0  0  0  0
   -5.2540   24.0330  -31.3090 O   0  0  0  0  0  0  0  0  0  0  0  0
   -2.8500   22.2790  -31.0670 C   0  0  0  0  0  0  0  0  0  0  0  0
   -3.5790   21.7280  -32.1270 C   0  0  0  0  0  0  0  0  0  0  0  0
   -6.7080   20.7270  -32.7530 C   0  0  0  0  0  0  0  0  0  0  0  0
   -8.4257   21.5380  -30.3235 H   0  0  0  0  0  0  0  0  0  0  0  0
   -7.8425   22.7011  -31.5619 H   0  0  0  0  0  0  0  0  0  0  0  0
   -9.5601   22.1752  -31.5619 H   0  0  0  0  0  0  0  0  0  0  0  0
   -8.8533   20.8162  -33.1488 H   0  0  0  0  0  0  0  0  0  0  0  0
   -8.2290   19.4135  -30.5383 H   0  0  0  0  0  0  0  0  0  0  0  0
   -9.3577   18.9183  -31.8057 H   0  0  0  0  0  0  0  0  0  0  0  0
   -6.8106   17.8150  -31.4305 H   0  0  0  0  0  0  0  0  0  0  0  0
   -7.6730   17.7463  -32.9734 H   0  0  0  0  0  0  0  0  0  0  0  0
   -3.2275   19.2871  -34.3899 H   0  0  0  0  0  0  0  0  0  0  0  0
   -4.4239   20.6332  -34.3470 H   0  0  0  0  0  0  0  0  0  0  0  0
   -1.8585   18.7565  -32.3598 H   0  0  0  0  0  0  0  0  0  0  0  0
   -0.6235   19.7757  -30.4194 H   0  0  0  0  0  0  0  0  0  0  0  0
   -0.5225   22.0944  -28.7524 H   0  0  0  0  0  0  0  0  0  0  0  0
   -1.2020   26.0540  -30.0930 H   0  0  0  0  0  0  0  0  0  0  0  0
   -4.4101   22.2828  -32.5870 H   0  0  0  0  0  0  0  0  0  0  0  0
   -6.0962   21.3002  -32.0409 H   0  0  0  0  0  0  0  0  0  0  0  0
   -6.5968   21.2129  -33.7336 H   0  0  0  0  0  0  0  0  0  0  0  0
  1  2  1  0
  2  3  1  0
  3  4  1  0
  4  5  1  0
  5  6  1  0
  6  7  2  0
  6  8  1  0
  8  9  1  0
  9 10  2  0
 10 11  1  0
 11 12  2  0
 12 13  1  0
 13 14  2  0
 14 15  1  0
 15 16  1  0
 15 17  2  0
 14 18  1  0
 18 19  1  0
 19 20  2  0
 19 21  1  0
 18 22  1  0
 22 23  2  0
  5 24  1  0
 24  2  1  0
 23  9  1  0
 22 12  1  0
  1 25  1  0
  1 26  1  0
  1 27  1  0
  2 28  1  6
  3 29  1  0
  3 30  1  0
  4 31  1  0
  4 32  1  0
  8 33  1  0
  8 34  1  0
 10 35  1  0
 11 36  1  0
 13 37  1  0
 16 38  1  0
 23 39  1  0
 24 40  1  0
 24 41  1  0
M  CHG  2  16  -1  21  -1
M  END
>  <UniqueID>  (86) 
83

>  <SMILES>  (86) 
C[C@@H]1CCN(C(=O)Cc2ccc3cc(C([NH-])=O)n(C(=O)[O-])c3c2)C1

>  <Energy>  (86) 
78.50827867037712

>  <Genealogy>  (86) 
C[C@@H]1CCN(C(=O)Cc2ccc3cc(C([NH-])=O)n(C(=O)[O-])c3c2)C1 (protonated)
C[C@@H]1CCN(C(=O)Cc2ccc3cc(C([NH-])=O)n(C(=O)[O-])c3c2)C1 (3D coordinates assigned)
C[C@@H]1CCN(C(=O)Cc2ccc3cc(C([NH-])=O)n(C(=O)[O-])c3c2)C1 (nonaromatic ring conformer: 78.50827867037712 kcal/mol)

>  <smiles>  (86) 
C[C@@H]1CCN(C(=O)Cc2ccc3cc(C(N)=O)n(C(=O)O)c3c2)C1

>  <score_type>  (86) 
oracle

>  <origin>  (86) 
adg

>  <m_score__min__energy>  (86) 
-12.56

>  <m_primary>  (86) 
energy

$$$$
86:0
     RDKit          3D

 34 36  0  0  0  0  0  0  0  0999 V2000
   -5.3020   26.3740  -30.4870 N   0  0  0  0  0  0  0  0  0  0  0  0
   -6.2640   25.4320  -30.0130 C   0  0  0  0  0  0  0  0  0  0  0  0
   -6.9250   25.6940  -28.9720 O   0  0  0  0  0  0  0  0  0  0  0  0
   -6.4510   24.1280  -30.6800 C   0  0  0  0  0  0  0  0  0  0  0  0
   -7.6930   23.6470  -31.0820 C   0  0  0  0  0  0  0  0  0  0  0  0
   -7.4480   22.3920  -31.5910 C   0  0  0  0  0  0  0  0  0  0  0  0
   -8.3260   21.4660  -32.1440 C   0  0  0  0  0  0  0  0  0  0  0  0
   -7.7950   20.2580  -32.6250 C   0  0  0  0  0  0  0  0  0  0  0  0
   -6.4010   20.0040  -32.5600 C   0  0  0  0  0  0  0  0  0  0  0  0
   -5.8470   18.7280  -33.0760 C   0  0  0  0  0  0  0  0  0  0  0  0
   -5.3760   18.6520  -34.3980 C   0  0  0  0  0  0  0  0  0  0  0  0
   -4.8470   17.4590  -34.8970 C   0  0  0  0  0  0  0  0  0  0  0  0
   -4.7820   16.3140  -34.0870 C   0  0  0  0  0  0  0  0  0  0  0  0
   -4.2210   15.0520  -34.6200 C   0  0  0  0  0  0  0  0  0  0  0  0
   -4.5060   13.9480  -34.0840 O   0  0  0  0  0  0  0  0  0  0  0  0
   -3.3710   15.0690  -35.7190 O   0  0  0  0  0  0  0  0  0  0  0  0
   -5.2590   16.3860  -32.7670 C   0  0  0  0  0  0  0  0  0  0  0  0
   -5.7880   17.5790  -32.2640 C   0  0  0  0  0  0  0  0  0  0  0  0
   -6.2750   17.5980  -30.9970 F   0  0  0  0  0  0  0  0  0  0  0  0
   -5.5400   20.9690  -31.9870 C   0  0  0  0  0  0  0  0  0  0  0  0
   -6.1000   22.1540  -31.4960 C   0  0  0  0  0  0  0  0  0  0  0  0
   -5.4710   23.2160  -30.9400 N   0  0  0  0  0  0  0  0  0  0  0  0
   -4.0530   23.3930  -30.7810 C   0  0  0  0  0  0  0  0  0  0  0  0
   -3.2940   22.3950  -30.6680 O   0  0  0  0  0  0  0  0  0  0  0  0
   -3.5040   24.6690  -30.7540 O   0  0  0  0  0  0  0  0  0  0  0  0
   -4.6260   26.1200  -31.2410 H   0  0  0  0  0  0  0  0  0  0  0  0
   -5.2080   27.3050  -30.0250 H   0  0  0  0  0  0  0  0  0  0  0  0
   -8.6633   24.1600  -31.0087 H   0  0  0  0  0  0  0  0  0  0  0  0
   -9.4046   21.6736  -32.2029 H   0  0  0  0  0  0  0  0  0  0  0  0
   -8.4668   19.5014  -33.0564 H   0  0  0  0  0  0  0  0  0  0  0  0
   -5.4243   19.5398  -35.0457 H   0  0  0  0  0  0  0  0  0  0  0  0
   -4.4785   17.4165  -35.9326 H   0  0  0  0  0  0  0  0  0  0  0  0
   -5.2159   15.4952  -32.1231 H   0  0  0  0  0  0  0  0  0  0  0  0
   -4.4559   20.7923  -31.9287 H   0  0  0  0  0  0  0  0  0  0  0  0
  1  2  1  0
  2  3  2  0
  2  4  1  0
  4  5  2  0
  5  6  1  0
  6  7  2  0
  7  8  1  0
  8  9  2  0
  9 10  1  0
 10 11  2  0
 11 12  1  0
 12 13  2  0
 13 14  1  0
 14 15  2  0
 14 16  1  0
 13 17  1  0
 17 18  2  0
 18 19  1  0
  9 20  1  0
 20 21  2  0
 21 22  1  0
 22 23  1  0
 23 24  2  0
 23 25  1  0
 22  4  1  0
 21  6  1  0
 18 10  1  0
  1 26  1  0
  1 27  1  0
  5 28  1  0
  7 29  1  0
  8 30  1  0
 11 31  1  0
 12 32  1  0
 17 33  1  0
 20 34  1  0
M  CHG  2  16  -1  25  -1
M  END
>  <UniqueID>  (87) 
84

>  <SMILES>  (87) 
NC(=O)c1cc2ccc(-c3ccc(C(=O)[O-])cc3F)cc2n1C(=O)[O-]

>  <Energy>  (87) 
83.94912265989704

>  <Genealogy>  (87) 
NC(=O)c1cc2ccc(-c3ccc(C(=O)[O-])cc3F)cc2n1C(=O)[O-] (protonated)
NC(=O)c1cc2ccc(-c3ccc(C(=O)[O-])cc3F)cc2n1C(=O)[O-] (3D coordinates assigned)
NC(=O)c1cc2ccc(-c3ccc(C(=O)[O-])cc3F)cc2n1C(=O)[O-] (optimized conformer: 83.94912265989704 kcal/mol)

>  <smiles>  (87) 
NC(=O)c1cc2ccc(-c3ccc(C(=O)O)cc3F)cc2n1C(=O)O

>  <score_type>  (87) 
oracle

>  <origin>  (87) 
adg

>  <m_score__min__energy>  (87) 
-9.4299999999999997

>  <m_primary>  (87) 
energy

$$$$
87:0
     RDKit          3D

 69 71  0  0  0  0  0  0  0  0999 V2000
   -9.2730   21.4650  -31.9560 C   0  0  0  0  0  0  0  0  0  0  0  0
   -8.2070   20.4880  -31.4690 C   0  0  0  0  0  0  0  0  0  0  0  0
   -8.4710   19.0730  -32.0000 C   0  0  0  0  0  0  0  0  0  0  0  0
   -7.2500   18.1590  -31.8400 C   0  0  0  0  0  0  0  0  0  0  0  0
   -6.6180   17.9030  -33.0920 O   0  0  0  0  0  0  0  0  0  0  0  0
   -5.9260   18.8680  -33.8300 C   0  0  0  0  0  0  0  0  0  0  0  0
   -6.4670   19.3870  -34.8460 O   0  0  0  0  0  0  0  0  0  0  0  0
   -4.5800   19.2320  -33.4620 N   0  0  0  0  0  0  0  0  0  0  0  0
   -3.4280   18.5970  -33.8270 C   0  0  0  0  0  0  0  0  0  0  0  0
   -3.3390   17.3450  -34.5950 C   0  0  0  0  0  0  0  0  0  0  0  0
   -4.5200   16.6450  -34.9900 N   0  0  0  0  0  0  0  0  0  0  0  0
   -2.2080   16.8540  -34.8540 O   0  0  0  0  0  0  0  0  0  0  0  0
   -2.3120   19.3270  -33.4410 C   0  0  0  0  0  0  0  0  0  0  0  0
   -2.8110   20.4330  -32.7940 C   0  0  0  0  0  0  0  0  0  0  0  0
   -2.1370   21.4890  -32.1960 C   0  0  0  0  0  0  0  0  0  0  0  0
   -2.9000   22.5000  -31.5920 C   0  0  0  0  0  0  0  0  0  0  0  0
   -4.3210   22.4450  -31.5890 C   0  0  0  0  0  0  0  0  0  0  0  0
   -5.1000   23.4950  -30.9640 N   0  0  0  0  0  0  0  0  0  0  0  0
   -6.4340   23.3000  -30.4130 C   0  0  0  0  0  0  0  0  0  0  0  0
   -6.8290   24.6310  -29.7870 C   0  0  0  0  0  0  0  0  0  0  0  0
   -5.8920   25.6620  -30.4010 C   0  0  0  0  0  0  0  0  0  0  0  0
   -4.6570   24.8780  -30.8410 C   0  0  1  0  0  0  0  0  0  0  0  0
   -3.6420   24.9580  -29.8420 O   0  0  0  0  0  0  0  0  0  0  0  0
   -3.6640   24.2120  -28.6580 C   0  0  0  0  0  0  0  0  0  0  0  0
   -4.4840   24.5000  -27.7430 O   0  0  0  0  0  0  0  0  0  0  0  0
   -2.7470   23.1150  -28.4900 N   0  0  0  0  0  0  0  0  0  0  0  0
   -3.2300   21.8440  -27.9440 C   0  0  0  0  0  0  0  0  0  0  0  0
   -1.3450   23.2680  -28.9000 C   0  0  0  0  0  0  0  0  0  0  0  0
   -0.9100   24.7410  -28.7380 C   0  0  0  0  0  0  0  0  0  0  0  0
    0.3120   24.9340  -27.9240 N   0  0  0  0  0  0  0  0  0  0  0  0
    0.1950   26.0490  -26.9720 C   0  0  0  0  0  0  0  0  0  0  0  0
    0.7590   23.7030  -27.2540 C   0  0  0  0  0  0  0  0  0  0  0  0
   -4.9650   21.3440  -32.2100 C   0  0  0  0  0  0  0  0  0  0  0  0
   -4.1790   20.3550  -32.8170 C   0  0  0  0  0  0  0  0  0  0  0  0
   -9.7732   21.9234  -31.0902 H   0  0  0  0  0  0  0  0  0  0  0  0
   -8.8003   22.2501  -32.5645 H   0  0  0  0  0  0  0  0  0  0  0  0
  -10.0140   20.9258  -32.5645 H   0  0  0  0  0  0  0  0  0  0  0  0
   -7.2216   20.8262  -31.8219 H   0  0  0  0  0  0  0  0  0  0  0  0
   -8.2350   20.4596  -30.3697 H   0  0  0  0  0  0  0  0  0  0  0  0
   -9.3150   18.6377  -31.4448 H   0  0  0  0  0  0  0  0  0  0  0  0
   -8.6970   19.1511  -33.0737 H   0  0  0  0  0  0  0  0  0  0  0  0
   -6.5269   18.6439  -31.1677 H   0  0  0  0  0  0  0  0  0  0  0  0
   -7.5909   17.1993  -31.4243 H   0  0  0  0  0  0  0  0  0  0  0  0
   -4.4470   15.7560  -35.5330 H   0  0  0  0  0  0  0  0  0  0  0  0
   -5.4640   16.9720  -34.6830 H   0  0  0  0  0  0  0  0  0  0  0  0
   -1.2556   19.0748  -33.6153 H   0  0  0  0  0  0  0  0  0  0  0  0
   -1.0378   21.5320  -32.1956 H   0  0  0  0  0  0  0  0  0  0  0  0
   -2.3905   23.3491  -31.1129 H   0  0  0  0  0  0  0  0  0  0  0  0
   -7.1409   23.0282  -31.2107 H   0  0  0  0  0  0  0  0  0  0  0  0
   -6.4489   22.4866  -29.6726 H   0  0  0  0  0  0  0  0  0  0  0  0
   -7.8755   24.8724  -30.0249 H   0  0  0  0  0  0  0  0  0  0  0  0
   -6.7475   24.6068  -28.6903 H   0  0  0  0  0  0  0  0  0  0  0  0
   -6.3678   26.1474  -31.2659 H   0  0  0  0  0  0  0  0  0  0  0  0
   -5.6372   26.4591  -29.6871 H   0  0  0  0  0  0  0  0  0  0  0  0
   -4.2407   25.2722  -31.7798 H   0  0  0  0  0  0  0  0  0  0  0  0
   -3.2136   21.8872  -26.8450 H   0  0  0  0  0  0  0  0  0  0  0  0
   -4.2591   21.6644  -28.2886 H   0  0  0  0  0  0  0  0  0  0  0  0
   -2.5799   21.0263  -28.2886 H   0  0  0  0  0  0  0  0  0  0  0  0
   -0.7087   22.6281  -28.2710 H   0  0  0  0  0  0  0  0  0  0  0  0
   -1.2408   22.9725  -29.9544 H   0  0  0  0  0  0  0  0  0  0  0  0
   -0.7251   25.1568  -29.7394 H   0  0  0  0  0  0  0  0  0  0  0  0
   -1.7254   25.2514  -28.2045 H   0  0  0  0  0  0  0  0  0  0  0  0
    0.2359   25.6594  -25.9441 H   0  0  0  0  0  0  0  0  0  0  0  0
    1.0240   26.7545  -27.1299 H   0  0  0  0  0  0  0  0  0  0  0  0
   -0.7624   26.5670  -27.1299 H   0  0  0  0  0  0  0  0  0  0  0  0
    0.7092   23.8402  -26.1637 H   0  0  0  0  0  0  0  0  0  0  0  0
    0.1068   22.8676  -27.5486 H   0  0  0  0  0  0  0  0  0  0  0  0
    1.7952   23.4807  -27.5486 H   0  0  0  0  0  0  0  0  0  0  0  0
   -6.0623   21.2678  -32.2150 H   0  0  0  0  0  0  0  0  0  0  0  0
  1  2  1  0
  2  3  1  0
  3  4  1  0
  4  5  1  0
  5  6  1  0
  6  7  2  0
  6  8  1  0
  8  9  1  0
  9 10  1  0
 10 11  1  0
 10 12  2  0
  9 13  2  0
 13 14  1  0
 14 15  2  0
 15 16  1  0
 16 17  2  0
 17 18  1  0
 18 19  1  0
 19 20  1  0
 20 21  1  0
 21 22  1  0
 22 23  1  0
 23 24  1  0
 24 25  2  0
 24 26  1  0
 26 27  1  0
 26 28  1  0
 28 29  1  0
 29 30  1  0
 30 31  1  0
 30 32  1  0
 17 33  1  0
 33 34  2  0
 34  8  1  0
 34 14  1  0
 22 18  1  0
  1 35  1  0
  1 36  1  0
  1 37  1  0
  2 38  1  0
  2 39  1  0
  3 40  1  0
  3 41  1  0
  4 42  1  0
  4 43  1  0
 11 44  1  0
 11 45  1  0
 13 46  1  0
 15 47  1  0
 16 48  1  0
 19 49  1  0
 19 50  1  0
 20 51  1  0
 20 52  1  0
 21 53  1  0
 21 54  1  0
 22 55  1  6
 27 56  1  0
 27 57  1  0
 27 58  1  0
 28 59  1  0
 28 60  1  0
 29 61  1  0
 29 62  1  0
 31 63  1  0
 31 64  1  0
 31 65  1  0
 32 66  1  0
 32 67  1  0
 32 68  1  0
 33 69  1  0
M  END
>  <UniqueID>  (88) 
85

>  <SMILES>  (88) 
CCCCOC(=O)n1c(C(N)=O)cc2ccc(N3CCC[C@H]3OC(=O)N(C)CCN(C)C)cc21

>  <Energy>  (88) 
100.67601736189832

>  <Genealogy>  (88) 
CCCCOC(=O)n1c(C(N)=O)cc2ccc(N3CCC[C@H]3OC(=O)N(C)CCN(C)C)cc21 (chirality)
CCCCOC(=O)n1c(C(N)=O)cc2ccc(N3CCC[C@H]3OC(=O)N(C)CCN(C)C)cc21 (3D coordinates assigned)
CCCCOC(=O)n1c(C(N)=O)cc2ccc(N3CCC[C@H]3OC(=O)N(C)CCN(C)C)cc21 (nonaromatic ring conformer: 100.67601736189832 kcal/mol)

>  <smiles>  (88) 
CCCCOC(=O)n1c(C(N)=O)cc2ccc(N3CCCC3OC(=O)N(C)CCN(C)C)cc21

>  <score_type>  (88) 
oracle

>  <origin>  (88) 
adg

>  <m_score__min__energy>  (88) 
-9.1699999999999999

>  <m_primary>  (88) 
energy

$$$$
88:0
     RDKit          3D

 28 30  0  0  0  0  0  0  0  0999 V2000
   -1.6510   25.6760  -28.9680 N   0  0  0  0  0  0  0  0  0  0  0  0
   -1.0820   24.4000  -29.2540 C   0  0  0  0  0  0  0  0  0  0  0  0
    0.0290   24.0920  -28.7450 O   0  0  0  0  0  0  0  0  0  0  0  0
   -1.8020   23.4170  -30.0890 C   0  0  0  0  0  0  0  0  0  0  0  0
   -1.2260   22.2360  -30.5490 C   0  0  0  0  0  0  0  0  0  0  0  0
   -2.2370   21.5660  -31.1990 C   0  0  0  0  0  0  0  0  0  0  0  0
   -2.2190   20.3400  -31.8510 C   0  0  0  0  0  0  0  0  0  0  0  0
   -3.4060   19.9000  -32.4580 C   0  0  0  0  0  0  0  0  0  0  0  0
   -4.5860   20.6850  -32.4190 C   0  0  0  0  0  0  0  0  0  0  0  0
   -5.8150   20.1260  -33.1190 C   0  0  2  0  0  0  0  0  0  0  0  0
   -7.1890   20.2510  -32.4550 C   0  0  0  0  0  0  0  0  0  0  0  0
   -6.4640   18.9130  -32.4700 C   0  0  0  0  0  0  0  0  0  0  0  0
   -5.9850   18.4880  -31.2440 F   0  0  0  0  0  0  0  0  0  0  0  0
   -6.9970   17.9760  -33.3370 F   0  0  0  0  0  0  0  0  0  0  0  0
   -4.5590   21.9330  -31.7380 C   0  0  0  0  0  0  0  0  0  0  0  0
   -3.3680   22.3360  -31.1250 C   0  0  0  0  0  0  0  0  0  0  0  0
   -3.1170   23.4800  -30.4470 N   0  0  0  0  0  0  0  0  0  0  0  0
   -4.0300   24.5700  -30.2440 C   0  0  0  0  0  0  0  0  0  0  0  0
   -3.8620   25.6620  -30.8470 O   0  0  0  0  0  0  0  0  0  0  0  0
   -5.0940   24.4370  -29.3610 O   0  0  0  0  0  0  0  0  0  0  0  0
   -2.6810   25.8310  -29.0380 H   0  0  0  0  0  0  0  0  0  0  0  0
   -0.1839   21.9081  -30.4202 H   0  0  0  0  0  0  0  0  0  0  0  0
   -1.3029   19.7323  -31.8906 H   0  0  0  0  0  0  0  0  0  0  0  0
   -3.4208   18.9283  -32.9734 H   0  0  0  0  0  0  0  0  0  0  0  0
   -5.4263   20.3884  -34.1140 H   0  0  0  0  0  0  0  0  0  0  0  0
   -7.2966   20.8085  -31.5128 H   0  0  0  0  0  0  0  0  0  0  0  0
   -8.1803   20.6037  -32.7759 H   0  0  0  0  0  0  0  0  0  0  0  0
   -5.4560   22.5682  -31.6942 H   0  0  0  0  0  0  0  0  0  0  0  0
  1  2  1  0
  2  3  2  0
  2  4  1  0
  4  5  2  0
  5  6  1  0
  6  7  2  0
  7  8  1  0
  8  9  2  0
  9 10  1  0
 10 11  1  0
 11 12  1  0
 12 13  1  0
 12 14  1  0
  9 15  1  0
 15 16  2  0
 16 17  1  0
 17 18  1  0
 18 19  2  0
 18 20  1  0
 17  4  1  0
 16  6  1  0
 12 10  1  0
  1 21  1  0
  5 22  1  0
  7 23  1  0
  8 24  1  0
 10 25  1  6
 11 26  1  0
 11 27  1  0
 15 28  1  0
M  CHG  2   1  -1  20  -1
M  END
>  <UniqueID>  (89) 
86

>  <SMILES>  (89) 
[NH-]C(=O)c1cc2ccc([C@@H]3CC3(F)F)cc2n1C(=O)[O-]

>  <Energy>  (89) 
343.6184361294546

>  <Genealogy>  (89) 
[NH-]C(=O)c1cc2ccc(C3CC3(F)F)cc2n1C(=O)[O-] (protonated)
[NH-]C(=O)c1cc2ccc([C@@H]3CC3(F)F)cc2n1C(=O)[O-] (chirality)
[NH-]C(=O)c1cc2ccc([C@@H]3CC3(F)F)cc2n1C(=O)[O-] (3D coordinates assigned)
[NH-]C(=O)c1cc2ccc([C@@H]3CC3(F)F)cc2n1C(=O)[O-] (nonaromatic ring conformer: 343.6184361294546 kcal/mol)

>  <smiles>  (89) 
NC(=O)c1cc2ccc(C3CC3(F)F)cc2n1C(=O)O

>  <score_type>  (89) 
oracle

>  <origin>  (89) 
adg

>  <m_score__min__energy>  (89) 
-10.449999999999999

>  <m_primary>  (89) 
energy

$$$$
89:0
     RDKit          3D

 55 56  0  0  0  0  0  0  0  0999 V2000
   -3.8650   17.1200  -33.2880 C   0  0  0  0  0  0  0  0  0  0  0  0
   -4.8210   18.0130  -34.1080 C   0  0  0  0  0  0  0  0  0  0  0  0
   -4.5570   19.4930  -33.7840 C   0  0  0  0  0  0  0  0  0  0  0  0
   -6.2690   17.6700  -33.9730 N   0  0  1  0  0  0  0  0  0  0  0  0
   -6.5340   16.2390  -34.2160 C   0  0  0  0  0  0  0  0  0  0  0  0
   -6.8630   18.0700  -32.7040 C   0  0  0  0  0  0  0  0  0  0  0  0
   -6.3080   17.7990  -31.6510 O   0  0  0  0  0  0  0  0  0  0  0  0
   -8.2120   18.7480  -32.6530 C   0  0  0  0  0  0  0  0  0  0  0  0
   -8.0670   20.1810  -32.2190 C   0  0  0  0  0  0  0  0  0  0  0  0
   -9.2130   21.0000  -32.0640 C   0  0  0  0  0  0  0  0  0  0  0  0
   -9.0880   22.3260  -31.6160 C   0  0  0  0  0  0  0  0  0  0  0  0
   -7.8120   22.7940  -31.3100 C   0  0  0  0  0  0  0  0  0  0  0  0
   -7.4100   24.0250  -30.8440 C   0  0  0  0  0  0  0  0  0  0  0  0
   -6.0300   23.9250  -30.6830 C   0  0  0  0  0  0  0  0  0  0  0  0
   -5.2070   24.9970  -30.0870 C   0  0  0  0  0  0  0  0  0  0  0  0
   -4.1750   25.6330  -30.8380 N   0  0  0  0  0  0  0  0  0  0  0  0
   -5.3800   25.3190  -28.8800 O   0  0  0  0  0  0  0  0  0  0  0  0
   -5.5910   22.6880  -31.0550 N   0  0  0  0  0  0  0  0  0  0  0  0
   -4.2380   22.2050  -31.1030 C   0  0  0  0  0  0  0  0  0  0  0  0
   -4.0090   20.9650  -31.0790 O   0  0  0  0  0  0  0  0  0  0  0  0
   -3.1780   23.1160  -31.1490 O   0  0  0  0  0  0  0  0  0  0  0  0
   -2.0440   23.0320  -30.2960 C   0  0  0  0  0  0  0  0  0  0  0  0
   -2.2360   23.9600  -29.1300 C   0  0  0  0  0  0  0  0  0  0  0  0
   -1.7940   25.1380  -29.2280 O   0  0  0  0  0  0  0  0  0  0  0  0
   -2.9640   23.5640  -27.9460 N   0  0  0  0  0  0  0  0  0  0  0  0
   -3.2180   24.5630  -26.9010 C   0  0  0  0  0  0  0  0  0  0  0  0
   -3.4500   22.1890  -27.7810 C   0  0  0  0  0  0  0  0  0  0  0  0
   -6.6970   22.0080  -31.4340 C   0  0  0  0  0  0  0  0  0  0  0  0
   -6.7890   20.6970  -31.9120 C   0  0  0  0  0  0  0  0  0  0  0  0
   -4.0405   17.2839  -32.2145 H   0  0  0  0  0  0  0  0  0  0  0  0
   -4.0498   16.0636  -33.5326 H   0  0  0  0  0  0  0  0  0  0  0  0
   -2.8236   17.3763  -33.5326 H   0  0  0  0  0  0  0  0  0  0  0  0
   -4.5943   17.8166  -35.1663 H   0  0  0  0  0  0  0  0  0  0  0  0
   -4.5324   19.6308  -32.6929 H   0  0  0  0  0  0  0  0  0  0  0  0
   -3.5907   19.7957  -34.2137 H   0  0  0  0  0  0  0  0  0  0  0  0
   -5.3591   20.1111  -34.2137 H   0  0  0  0  0  0  0  0  0  0  0  0
   -6.7630   18.1780  -34.7450 H   0  0  0  0  0  0  0  0  0  0  0  0
   -6.6310   15.7154  -33.2535 H   0  0  0  0  0  0  0  0  0  0  0  0
   -7.4674   16.1309  -34.7879 H   0  0  0  0  0  0  0  0  0  0  0  0
   -5.7012   15.8038  -34.7879 H   0  0  0  0  0  0  0  0  0  0  0  0
   -8.6702   18.7174  -33.6525 H   0  0  0  0  0  0  0  0  0  0  0  0
   -8.8477   18.2197  -31.9272 H   0  0  0  0  0  0  0  0  0  0  0  0
  -10.2087   20.5944  -32.2963 H   0  0  0  0  0  0  0  0  0  0  0  0
   -9.9703   22.9744  -31.5102 H   0  0  0  0  0  0  0  0  0  0  0  0
   -8.0435   24.9012  -30.6418 H   0  0  0  0  0  0  0  0  0  0  0  0
   -3.1910   25.2900  -30.7980 H   0  0  0  0  0  0  0  0  0  0  0  0
   -1.9331   22.0002  -29.9312 H   0  0  0  0  0  0  0  0  0  0  0  0
   -1.1395   23.3185  -30.8526 H   0  0  0  0  0  0  0  0  0  0  0  0
   -3.0995   24.0970  -25.9117 H   0  0  0  0  0  0  0  0  0  0  0  0
   -2.5020   25.3917  -27.0041 H   0  0  0  0  0  0  0  0  0  0  0  0
   -4.2429   24.9490  -27.0041 H   0  0  0  0  0  0  0  0  0  0  0  0
   -3.5326   21.9554  -26.7093 H   0  0  0  0  0  0  0  0  0  0  0  0
   -4.4377   22.0898  -28.2550 H   0  0  0  0  0  0  0  0  0  0  0  0
   -2.7440   21.4912  -28.2550 H   0  0  0  0  0  0  0  0  0  0  0  0
   -5.8868   20.0821  -32.0457 H   0  0  0  0  0  0  0  0  0  0  0  0
  1  2  1  0
  2  3  1  0
  2  4  1  0
  4  5  1  0
  4  6  1  0
  6  7  2  0
  6  8  1  0
  8  9  1  0
  9 10  2  0
 10 11  1  0
 11 12  2  0
 12 13  1  0
 13 14  2  0
 14 15  1  0
 15 16  1  0
 15 17  2  0
 14 18  1  0
 18 19  1  0
 19 20  2  0
 19 21  1  0
 21 22  1  0
 22 23  1  0
 23 24  2  0
 23 25  1  0
 25 26  1  0
 25 27  1  0
 18 28  1  0
 28 29  2  0
 29  9  1  0
 28 12  1  0
  1 30  1  0
  1 31  1  0
  1 32  1  0
  2 33  1  0
  3 34  1  0
  3 35  1  0
  3 36  1  0
  4 37  1  6
  5 38  1  0
  5 39  1  0
  5 40  1  0
  8 41  1  0
  8 42  1  0
 10 43  1  0
 11 44  1  0
 13 45  1  0
 16 46  1  0
 22 47  1  0
 22 48  1  0
 26 49  1  0
 26 50  1  0
 26 51  1  0
 27 52  1  0
 27 53  1  0
 27 54  1  0
 29 55  1  0
M  CHG  2   4   1  16  -1
M  END
>  <UniqueID>  (90) 
87

>  <SMILES>  (90) 
CC(C)[N@@H+](C)C(=O)Cc1ccc2cc(C([NH-])=O)n(C(=O)OCC(=O)N(C)C)c2c1

>  <Energy>  (90) 
84.95302876156906

>  <Genealogy>  (90) 
CC(C)[NH+](C)C(=O)Cc1ccc2cc(C([NH-])=O)n(C(=O)OCC(=O)N(C)C)c2c1 (protonated)
CC(C)[N@@H+](C)C(=O)Cc1ccc2cc(C([NH-])=O)n(C(=O)OCC(=O)N(C)C)c2c1 (chirality)
CC(C)[N@@H+](C)C(=O)Cc1ccc2cc(C([NH-])=O)n(C(=O)OCC(=O)N(C)C)c2c1 (3D coordinates assigned)
CC(C)[N@@H+](C)C(=O)Cc1ccc2cc(C([NH-])=O)n(C(=O)OCC(=O)N(C)C)c2c1 (optimized conformer: 84.95302876156906 kcal/mol)

>  <smiles>  (90) 
CC(C)N(C)C(=O)Cc1ccc2cc(C(N)=O)n(C(=O)OCC(=O)N(C)C)c2c1

>  <score_type>  (90) 
oracle

>  <origin>  (90) 
adg

>  <m_score__min__energy>  (90) 
-10.65

>  <m_primary>  (90) 
energy

$$$$
90:0
     RDKit          3D

 60 61  0  0  0  0  0  0  0  0999 V2000
   -8.6970   23.3480  -32.0670 C   0  0  0  0  0  0  0  0  0  0  0  0
   -7.3050   22.8040  -32.4090 C   0  0  1  0  0  0  0  0  0  0  0  0
   -6.2390   23.3990  -31.5220 C   0  0  0  0  0  0  0  0  0  0  0  0
   -6.5290   23.7480  -30.3420 O   0  0  0  0  0  0  0  0  0  0  0  0
   -4.9230   23.5080  -31.9860 O   0  0  0  0  0  0  0  0  0  0  0  0
   -4.0460   22.3930  -32.1310 C   0  0  0  0  0  0  0  0  0  0  0  0
   -3.9680   21.5970  -30.8230 C   0  0  0  0  0  0  0  0  0  0  0  0
   -4.0980   22.4610  -29.7080 O   0  0  0  0  0  0  0  0  0  0  0  0
   -2.8470   23.0150  -29.3580 C   0  0  0  0  0  0  0  0  0  0  0  0
   -2.9680   24.5360  -29.3020 C   0  0  0  0  0  0  0  0  0  0  0  0
   -3.6640   25.0170  -30.4200 O   0  0  0  0  0  0  0  0  0  0  0  0
   -7.3120   21.2890  -32.3240 C   0  0  0  0  0  0  0  0  0  0  0  0
   -8.3480   20.6080  -31.6300 C   0  0  0  0  0  0  0  0  0  0  0  0
   -8.3550   19.2050  -31.5450 C   0  0  0  0  0  0  0  0  0  0  0  0
   -7.3320   18.5090  -32.1810 C   0  0  0  0  0  0  0  0  0  0  0  0
   -7.0850   17.1560  -32.2410 C   0  0  0  0  0  0  0  0  0  0  0  0
   -5.9280   17.0260  -33.0110 C   0  0  0  0  0  0  0  0  0  0  0  0
   -5.3390   15.7300  -33.4110 C   0  0  0  0  0  0  0  0  0  0  0  0
   -4.7210   15.5730  -34.6890 N   0  0  0  0  0  0  0  0  0  0  0  0
   -5.3570   14.7560  -32.6130 O   0  0  0  0  0  0  0  0  0  0  0  0
   -5.4800   18.2520  -33.4050 N   0  0  0  0  0  0  0  0  0  0  0  0
   -4.2910   18.5650  -34.1520 C   0  0  0  0  0  0  0  0  0  0  0  0
   -4.1810   18.1590  -35.3420 O   0  0  0  0  0  0  0  0  0  0  0  0
   -3.2430   19.4720  -33.5740 C   0  0  0  0  0  0  0  0  0  0  0  0
   -1.8750   18.7800  -33.4820 C   0  0  0  0  0  0  0  0  0  0  0  0
   -1.9920   17.2490  -33.5090 C   0  0  0  0  0  0  0  0  0  0  0  0
   -1.4160   16.5400  -35.0500 S   0  0  0  0  0  0  0  0  0  0  0  0
   -0.0980   15.3590  -34.8570 C   0  0  0  0  0  0  0  0  0  0  0  0
   -2.6820   15.8810  -35.9380 O   0  0  0  0  0  0  0  0  0  0  0  0
   -6.3480   19.1480  -32.8870 C   0  0  0  0  0  0  0  0  0  0  0  0
   -6.3040   20.5430  -32.9740 C   0  0  0  0  0  0  0  0  0  0  0  0
   -8.8144   23.3939  -30.9743 H   0  0  0  0  0  0  0  0  0  0  0  0
   -8.8107   24.3567  -32.4907 H   0  0  0  0  0  0  0  0  0  0  0  0
   -9.4646   22.6837  -32.4907 H   0  0  0  0  0  0  0  0  0  0  0  0
   -7.0599   23.1004  -33.4396 H   0  0  0  0  0  0  0  0  0  0  0  0
   -4.4220   21.7385  -32.9311 H   0  0  0  0  0  0  0  0  0  0  0  0
   -3.0408   22.7617  -32.3834 H   0  0  0  0  0  0  0  0  0  0  0  0
   -4.7793   20.8545  -30.8022 H   0  0  0  0  0  0  0  0  0  0  0  0
   -2.9915   21.0932  -30.7708 H   0  0  0  0  0  0  0  0  0  0  0  0
   -2.5388   22.6342  -28.3731 H   0  0  0  0  0  0  0  0  0  0  0  0
   -2.0950   22.7321  -30.1092 H   0  0  0  0  0  0  0  0  0  0  0  0
   -3.5096   24.8222  -28.3883 H   0  0  0  0  0  0  0  0  0  0  0  0
   -1.9582   24.9722  -29.2981 H   0  0  0  0  0  0  0  0  0  0  0  0
   -4.4560   24.4330  -30.5300 H   0  0  0  0  0  0  0  0  0  0  0  0
   -9.1540   21.1855  -31.1537 H   0  0  0  0  0  0  0  0  0  0  0  0
   -9.1445   18.6740  -30.9930 H   0  0  0  0  0  0  0  0  0  0  0  0
   -7.6739   16.3492  -31.7803 H   0  0  0  0  0  0  0  0  0  0  0  0
   -4.2850   14.6610  -34.9510 H   0  0  0  0  0  0  0  0  0  0  0  0
   -4.7450   16.3380  -35.4010 H   0  0  0  0  0  0  0  0  0  0  0  0
   -3.1495   20.3612  -34.2148 H   0  0  0  0  0  0  0  0  0  0  0  0
   -3.5547   19.7482  -32.5559 H   0  0  0  0  0  0  0  0  0  0  0  0
   -1.2577   19.1025  -34.3335 H   0  0  0  0  0  0  0  0  0  0  0  0
   -1.4180   19.0652  -32.5229 H   0  0  0  0  0  0  0  0  0  0  0  0
   -1.3919   16.8354  -32.6851 H   0  0  0  0  0  0  0  0  0  0  0  0
   -3.0570   16.9948  -33.4033 H   0  0  0  0  0  0  0  0  0  0  0  0
    0.0897   15.1908  -33.7863 H   0  0  0  0  0  0  0  0  0  0  0  0
   -0.3840   14.4093  -35.3327 H   0  0  0  0  0  0  0  0  0  0  0  0
    0.8147   15.7471  -35.3327 H   0  0  0  0  0  0  0  0  0  0  0  0
   -3.0790   16.6550  -36.4190 H   0  0  0  0  0  0  0  0  0  0  0  0
   -5.5035   21.0473  -33.5352 H   0  0  0  0  0  0  0  0  0  0  0  0
  1  2  1  0
  2  3  1  0
  3  4  2  0
  3  5  1  0
  5  6  1  0
  6  7  1  0
  7  8  1  0
  8  9  1  0
  9 10  1  0
 10 11  1  0
  2 12  1  0
 12 13  2  0
 13 14  1  0
 14 15  2  0
 15 16  1  0
 16 17  2  0
 17 18  1  0
 18 19  1  0
 18 20  2  0
 17 21  1  0
 21 22  1  0
 22 23  2  0
 22 24  1  0
 24 25  1  0
 25 26  1  0
 26 27  1  0
 27 28  1  0
 27 29  1  1
 21 30  1  0
 30 31  2  0
 31 12  1  0
 30 15  1  0
  1 32  1  0
  1 33  1  0
  1 34  1  0
  2 35  1  6
  6 36  1  0
  6 37  1  0
  7 38  1  0
  7 39  1  0
  9 40  1  0
  9 41  1  0
 10 42  1  0
 10 43  1  0
 11 44  1  0
 13 45  1  0
 14 46  1  0
 16 47  1  0
 19 48  1  0
 19 49  1  0
 24 50  1  0
 24 51  1  0
 25 52  1  0
 25 53  1  0
 26 54  1  0
 26 55  1  0
 28 56  1  0
 28 57  1  0
 28 58  1  0
 29 59  1  0
 31 60  1  0
M  CHG  1  27   1
M  END
>  <UniqueID>  (91) 
88

>  <SMILES>  (91) 
C[C@@H](C(=O)OCCOCCO)c1ccc2cc(C(N)=O)n(C(=O)CCC[S@@+](C)O)c2c1

>  <Energy>  (91) 
84.16580028905246

>  <Genealogy>  (91) 
CC(C(=O)OCCOCCO)c1ccc2cc(C(N)=O)n(C(=O)CCC[S+](C)O)c2c1 (protonated)
C[C@@H](C(=O)OCCOCCO)c1ccc2cc(C(N)=O)n(C(=O)CCC[S@@+](C)O)c2c1 (chirality)
C[C@@H](C(=O)OCCOCCO)c1ccc2cc(C(N)=O)n(C(=O)CCC[S@@+](C)O)c2c1 (3D coordinates assigned)
C[C@@H](C(=O)OCCOCCO)c1ccc2cc(C(N)=O)n(C(=O)CCC[S@@+](C)O)c2c1 (optimized conformer: 84.16580028905246 kcal/mol)

>  <smiles>  (91) 
CC(C(=O)OCCOCCO)c1ccc2cc(C(N)=O)n(C(=O)CCC[S+](C)[O-])c2c1

>  <score_type>  (91) 
oracle

>  <origin>  (91) 
adg

>  <m_score__min__energy>  (91) 
-7.7999999999999998

>  <m_primary>  (91) 
energy

$$$$
91:0
     RDKit          3D

 42 43  0  0  0  0  0  0  0  0999 V2000
   -2.3080   19.9010  -33.6300 C   0  0  0  0  0  0  0  0  0  0  0  0
   -3.6010   19.2940  -33.0950 C   0  0  0  0  0  0  0  0  0  0  0  0
   -4.4240   18.8330  -34.1660 O   0  0  0  0  0  0  0  0  0  0  0  0
   -5.5180   17.9790  -33.9870 C   0  0  0  0  0  0  0  0  0  0  0  0
   -5.9050   17.2240  -34.9190 O   0  0  0  0  0  0  0  0  0  0  0  0
   -6.2320   17.9590  -32.6690 C   0  0  0  0  0  0  0  0  0  0  0  0
   -7.6220   18.5970  -32.7650 C   0  0  0  0  0  0  0  0  0  0  0  0
   -7.6300   20.0050  -32.2290 C   0  0  0  0  0  0  0  0  0  0  0  0
   -8.8570   20.6950  -32.0540 C   0  0  0  0  0  0  0  0  0  0  0  0
   -8.8740   22.0230  -31.5980 C   0  0  0  0  0  0  0  0  0  0  0  0
   -7.6530   22.6310  -31.3160 C   0  0  0  0  0  0  0  0  0  0  0  0
   -7.3780   23.9090  -30.8880 C   0  0  0  0  0  0  0  0  0  0  0  0
   -5.9880   23.9760  -30.7920 C   0  0  0  0  0  0  0  0  0  0  0  0
   -5.2590   25.1750  -30.3230 C   0  0  0  0  0  0  0  0  0  0  0  0
   -3.8620   25.3290  -30.5560 N   0  0  0  0  0  0  0  0  0  0  0  0
   -5.8770   26.0710  -29.6880 O   0  0  0  0  0  0  0  0  0  0  0  0
   -5.4290   22.7840  -31.1450 N   0  0  0  0  0  0  0  0  0  0  0  0
   -4.0360   22.4510  -31.2160 C   0  0  0  0  0  0  0  0  0  0  0  0
   -3.4570   22.4180  -32.3340 O   0  0  0  0  0  0  0  0  0  0  0  0
   -3.2460   22.2090  -29.9640 C   0  0  0  0  0  0  0  0  0  0  0  0
   -1.7810   22.5690  -30.1780 C   0  0  0  0  0  0  0  0  0  0  0  0
   -6.4600   21.9740  -31.4660 C   0  0  0  0  0  0  0  0  0  0  0  0
   -6.4110   20.6590  -31.9410 C   0  0  0  0  0  0  0  0  0  0  0  0
   -1.6679   20.2015  -32.7874 H   0  0  0  0  0  0  0  0  0  0  0  0
   -1.7801   19.1566  -34.2442 H   0  0  0  0  0  0  0  0  0  0  0  0
   -2.5435   20.7826  -34.2442 H   0  0  0  0  0  0  0  0  0  0  0  0
   -3.3568   18.4469  -32.4371 H   0  0  0  0  0  0  0  0  0  0  0  0
   -4.1490   20.0667  -32.5358 H   0  0  0  0  0  0  0  0  0  0  0  0
   -6.3413   16.9154  -32.3391 H   0  0  0  0  0  0  0  0  0  0  0  0
   -5.6376   18.5410  -31.9493 H   0  0  0  0  0  0  0  0  0  0  0  0
   -7.9329   18.6159  -33.8200 H   0  0  0  0  0  0  0  0  0  0  0  0
   -8.3162   17.9966  -32.1587 H   0  0  0  0  0  0  0  0  0  0  0  0
   -9.8052   20.1843  -32.2779 H   0  0  0  0  0  0  0  0  0  0  0  0
   -9.8217   22.5660  -31.4676 H   0  0  0  0  0  0  0  0  0  0  0  0
   -8.1008   24.7085  -30.6681 H   0  0  0  0  0  0  0  0  0  0  0  0
   -3.5040   26.0230  -31.2490 H   0  0  0  0  0  0  0  0  0  0  0  0
   -3.6558   22.8280  -29.1523 H   0  0  0  0  0  0  0  0  0  0  0  0
   -3.3151   21.1432  -29.7008 H   0  0  0  0  0  0  0  0  0  0  0  0
   -1.2870   22.6904  -29.2027 H   0  0  0  0  0  0  0  0  0  0  0  0
   -1.2849   21.7661  -30.7429 H   0  0  0  0  0  0  0  0  0  0  0  0
   -1.7135   23.5105  -30.7429 H   0  0  0  0  0  0  0  0  0  0  0  0
   -5.4482   20.1473  -32.0865 H   0  0  0  0  0  0  0  0  0  0  0  0
  1  2  1  0
  2  3  1  0
  3  4  1  0
  4  5  2  0
  4  6  1  0
  6  7  1  0
  7  8  1  0
  8  9  2  0
  9 10  1  0
 10 11  2  0
 11 12  1  0
 12 13  2  0
 13 14  1  0
 14 15  1  0
 14 16  2  0
 13 17  1  0
 17 18  1  0
 18 19  2  0
 18 20  1  0
 20 21  1  0
 17 22  1  0
 22 23  2  0
 23  8  1  0
 22 11  1  0
  1 24  1  0
  1 25  1  0
  1 26  1  0
  2 27  1  0
  2 28  1  0
  6 29  1  0
  6 30  1  0
  7 31  1  0
  7 32  1  0
  9 33  1  0
 10 34  1  0
 12 35  1  0
 15 36  1  0
 20 37  1  0
 20 38  1  0
 21 39  1  0
 21 40  1  0
 21 41  1  0
 23 42  1  0
M  CHG  1  15  -1
M  END
>  <UniqueID>  (92) 
89

>  <SMILES>  (92) 
CCOC(=O)CCc1ccc2cc(C([NH-])=O)n(C(=O)CC)c2c1

>  <Energy>  (92) 
69.19699392366638

>  <Genealogy>  (92) 
CCOC(=O)CCc1ccc2cc(C([NH-])=O)n(C(=O)CC)c2c1 (protonated)
CCOC(=O)CCc1ccc2cc(C([NH-])=O)n(C(=O)CC)c2c1 (3D coordinates assigned)
CCOC(=O)CCc1ccc2cc(C([NH-])=O)n(C(=O)CC)c2c1 (optimized conformer: 69.19699392366638 kcal/mol)

>  <smiles>  (92) 
CCOC(=O)CCc1ccc2cc(C(N)=O)n(C(=O)CC)c2c1

>  <score_type>  (92) 
oracle

>  <origin>  (92) 
adg

>  <m_score__min__energy>  (92) 
-10.26

>  <m_primary>  (92) 
energy

$$$$
92:0
     RDKit          3D

 43 44  0  0  0  0  0  0  0  0999 V2000
   -3.0690   20.7510  -33.4660 C   0  0  0  0  0  0  0  0  0  0  0  0
   -2.9160   19.6330  -32.7510 C   0  0  0  0  0  0  0  0  0  0  0  0
   -3.3680   18.3030  -33.2730 C   0  0  0  0  0  0  0  0  0  0  0  0
   -4.6790   18.0240  -32.7970 O   0  0  0  0  0  0  0  0  0  0  0  0
   -5.8290   18.2830  -33.5470 C   0  0  0  0  0  0  0  0  0  0  0  0
   -5.7760   18.3620  -34.8050 O   0  0  0  0  0  0  0  0  0  0  0  0
   -7.1380   18.4490  -32.8440 C   0  0  0  0  0  0  0  0  0  0  0  0
   -7.3130   19.8780  -32.4080 C   0  0  0  0  0  0  0  0  0  0  0  0
   -8.6060   20.4560  -32.3560 C   0  0  0  0  0  0  0  0  0  0  0  0
   -8.7820   21.7730  -31.8990 C   0  0  0  0  0  0  0  0  0  0  0  0
   -7.6520   22.4820  -31.4980 C   0  0  0  0  0  0  0  0  0  0  0  0
   -7.5460   23.7480  -30.9710 C   0  0  0  0  0  0  0  0  0  0  0  0
   -6.1880   23.9280  -30.7220 C   0  0  0  0  0  0  0  0  0  0  0  0
   -5.6150   25.1840  -30.1980 C   0  0  0  0  0  0  0  0  0  0  0  0
   -4.2730   25.5680  -30.5030 N   0  0  0  0  0  0  0  0  0  0  0  0
   -6.3390   25.9560  -29.5140 O   0  0  0  0  0  0  0  0  0  0  0  0
   -5.4820   22.8140  -31.0670 N   0  0  0  0  0  0  0  0  0  0  0  0
   -4.0880   22.5580  -30.8380 C   0  0  0  0  0  0  0  0  0  0  0  0
   -3.2160   23.1590  -31.5250 O   0  0  0  0  0  0  0  0  0  0  0  0
   -3.6990   21.6470  -29.8490 O   0  0  0  0  0  0  0  0  0  0  0  0
   -3.1440   22.0400  -28.5960 C   0  0  0  0  0  0  0  0  0  0  0  0
   -4.0890   22.9400  -27.8530 C   0  0  0  0  0  0  0  0  0  0  0  0
   -3.7200   24.1620  -27.4580 C   0  0  0  0  0  0  0  0  0  0  0  0
   -6.3940   21.9390  -31.5470 C   0  0  0  0  0  0  0  0  0  0  0  0
   -6.1910   20.6250  -31.9860 C   0  0  0  0  0  0  0  0  0  0  0  0
   -2.7284   21.7147  -33.0595 H   0  0  0  0  0  0  0  0  0  0  0  0
   -3.5355   20.7079  -34.4612 H   0  0  0  0  0  0  0  0  0  0  0  0
   -2.4479   19.6899  -31.7572 H   0  0  0  0  0  0  0  0  0  0  0  0
   -3.3747   18.3245  -34.3728 H   0  0  0  0  0  0  0  0  0  0  0  0
   -2.6784   17.5202  -32.9241 H   0  0  0  0  0  0  0  0  0  0  0  0
   -7.9553   18.1744  -33.5271 H   0  0  0  0  0  0  0  0  0  0  0  0
   -7.1560   17.7974  -31.9579 H   0  0  0  0  0  0  0  0  0  0  0  0
   -9.4792   19.8686  -32.6761 H   0  0  0  0  0  0  0  0  0  0  0  0
   -9.7817   22.2302  -31.8591 H   0  0  0  0  0  0  0  0  0  0  0  0
   -8.3597   24.4647  -30.7859 H   0  0  0  0  0  0  0  0  0  0  0  0
   -3.7080   25.0420  -31.2060 H   0  0  0  0  0  0  0  0  0  0  0  0
   -3.8680   26.4330  -30.0820 H   0  0  0  0  0  0  0  0  0  0  0  0
   -2.9494   21.1426  -27.9904 H   0  0  0  0  0  0  0  0  0  0  0  0
   -2.2080   22.5873  -28.7811 H   0  0  0  0  0  0  0  0  0  0  0  0
   -5.1061   22.5859  -27.6293 H   0  0  0  0  0  0  0  0  0  0  0  0
   -4.4306   24.8025  -26.9151 H   0  0  0  0  0  0  0  0  0  0  0  0
   -2.7056   24.5275  -27.6758 H   0  0  0  0  0  0  0  0  0  0  0  0
   -5.1828   20.1854  -32.0018 H   0  0  0  0  0  0  0  0  0  0  0  0
  1  2  2  0
  2  3  1  0
  3  4  1  0
  4  5  1  0
  5  6  2  0
  5  7  1  0
  7  8  1  0
  8  9  2  0
  9 10  1  0
 10 11  2  0
 11 12  1  0
 12 13  2  0
 13 14  1  0
 14 15  1  0
 14 16  2  0
 13 17  1  0
 17 18  1  0
 18 19  2  0
 18 20  1  0
 20 21  1  0
 21 22  1  0
 22 23  2  0
 17 24  1  0
 24 25  2  0
 25  8  1  0
 24 11  1  0
  1 26  1  0
  1 27  1  0
  2 28  1  0
  3 29  1  0
  3 30  1  0
  7 31  1  0
  7 32  1  0
  9 33  1  0
 10 34  1  0
 12 35  1  0
 15 36  1  0
 15 37  1  0
 21 38  1  0
 21 39  1  0
 22 40  1  0
 23 41  1  0
 23 42  1  0
 25 43  1  0
M  END
>  <UniqueID>  (93) 
90

>  <SMILES>  (93) 
C=CCOC(=O)Cc1ccc2cc(C(N)=O)n(C(=O)OCC=C)c2c1

>  <Energy>  (93) 
70.25565488865597

>  <Genealogy>  (93) 
C=CCOC(=O)Cc1ccc2cc(C(N)=O)n(C(=O)OCC=C)c2c1 (3D coordinates assigned)
C=CCOC(=O)Cc1ccc2cc(C(N)=O)n(C(=O)OCC=C)c2c1 (optimized conformer: 70.25565488865597 kcal/mol)

>  <smiles>  (93) 
C=CCOC(=O)Cc1ccc2cc(C(N)=O)n(C(=O)OCC=C)c2c1

>  <score_type>  (93) 
oracle

>  <origin>  (93) 
adg

>  <m_score__min__energy>  (93) 
-8.1799999999999997

>  <m_primary>  (93) 
energy

$$$$
93:0
     RDKit          3D

 41 42  0  0  0  0  0  0  0  0999 V2000
   -3.4990   19.8600  -33.3940 C   0  0  0  0  0  0  0  0  0  0  0  0
   -2.7670   21.1980  -33.3670 C   0  0  0  0  0  0  0  0  0  0  0  0
   -3.6720   22.2660  -33.0870 O   0  0  0  0  0  0  0  0  0  0  0  0
   -4.0130   22.6700  -31.7920 C   0  0  0  0  0  0  0  0  0  0  0  0
   -3.1370   22.7140  -30.8830 O   0  0  0  0  0  0  0  0  0  0  0  0
   -5.3750   23.0070  -31.4880 N   0  0  0  0  0  0  0  0  0  0  0  0
   -5.8480   24.1490  -30.9130 C   0  0  0  0  0  0  0  0  0  0  0  0
   -5.0580   25.3610  -30.6140 C   0  0  0  0  0  0  0  0  0  0  0  0
   -3.6430   25.2640  -30.4620 N   0  0  0  0  0  0  0  0  0  0  0  0
   -5.6210   26.4750  -30.4570 O   0  0  0  0  0  0  0  0  0  0  0  0
   -7.2240   24.0600  -30.7120 C   0  0  0  0  0  0  0  0  0  0  0  0
   -7.5840   22.8200  -31.1910 C   0  0  0  0  0  0  0  0  0  0  0  0
   -8.8280   22.1970  -31.2190 C   0  0  0  0  0  0  0  0  0  0  0  0
   -8.9020   20.8940  -31.7370 C   0  0  0  0  0  0  0  0  0  0  0  0
   -7.7350   20.2340  -32.2020 C   0  0  0  0  0  0  0  0  0  0  0  0
   -7.8180   18.8320  -32.7480 C   0  0  0  0  0  0  0  0  0  0  0  0
   -6.6350   18.0100  -32.3070 C   0  0  0  0  0  0  0  0  0  0  0  0
   -6.4940   17.7860  -31.0730 O   0  0  0  0  0  0  0  0  0  0  0  0
   -5.6930   17.4440  -33.2480 N   0  0  0  0  0  0  0  0  0  0  0  0
   -4.6360   16.5590  -32.7470 C   0  0  0  0  0  0  0  0  0  0  0  0
   -5.7820   17.7350  -34.6830 C   0  0  0  0  0  0  0  0  0  0  0  0
   -6.4900   20.9020  -32.1630 C   0  0  0  0  0  0  0  0  0  0  0  0
   -6.4500   22.2050  -31.6550 C   0  0  0  0  0  0  0  0  0  0  0  0
   -3.6838   19.5223  -32.3636 H   0  0  0  0  0  0  0  0  0  0  0  0
   -4.4585   19.9775  -33.9190 H   0  0  0  0  0  0  0  0  0  0  0  0
   -2.8826   19.1154  -33.9190 H   0  0  0  0  0  0  0  0  0  0  0  0
   -1.9914   21.1690  -32.5875 H   0  0  0  0  0  0  0  0  0  0  0  0
   -2.3124   21.3709  -34.3536 H   0  0  0  0  0  0  0  0  0  0  0  0
   -3.0490   24.8530  -31.2160 H   0  0  0  0  0  0  0  0  0  0  0  0
   -7.8830   24.8192  -30.2654 H   0  0  0  0  0  0  0  0  0  0  0  0
   -9.7268   22.7101  -30.8464 H   0  0  0  0  0  0  0  0  0  0  0  0
   -9.8735   20.3801  -31.7828 H   0  0  0  0  0  0  0  0  0  0  0  0
   -8.7413   18.3581  -32.3835 H   0  0  0  0  0  0  0  0  0  0  0  0
   -7.8191   18.8833  -33.8468 H   0  0  0  0  0  0  0  0  0  0  0  0
   -4.6434   16.5652  -31.6470 H   0  0  0  0  0  0  0  0  0  0  0  0
   -4.8126   15.5354  -33.1091 H   0  0  0  0  0  0  0  0  0  0  0  0
   -3.6594   16.9127  -33.1091 H   0  0  0  0  0  0  0  0  0  0  0  0
   -6.1010   18.7779  -34.8265 H   0  0  0  0  0  0  0  0  0  0  0  0
   -4.7970   17.5853  -35.1493 H   0  0  0  0  0  0  0  0  0  0  0  0
   -6.5148   17.0600  -35.1493 H   0  0  0  0  0  0  0  0  0  0  0  0
   -5.5748   20.4094  -32.5233 H   0  0  0  0  0  0  0  0  0  0  0  0
  1  2  1  0
  2  3  1  0
  3  4  1  0
  4  5  2  0
  4  6  1  0
  6  7  1  0
  7  8  1  0
  8  9  1  0
  8 10  2  0
  7 11  2  0
 11 12  1  0
 12 13  2  0
 13 14  1  0
 14 15  2  0
 15 16  1  0
 16 17  1  0
 17 18  2  0
 17 19  1  0
 19 20  1  0
 19 21  1  0
 15 22  1  0
 22 23  2  0
 23  6  1  0
 23 12  1  0
  1 24  1  0
  1 25  1  0
  1 26  1  0
  2 27  1  0
  2 28  1  0
  9 29  1  0
 11 30  1  0
 13 31  1  0
 14 32  1  0
 16 33  1  0
 16 34  1  0
 20 35  1  0
 20 36  1  0
 20 37  1  0
 21 38  1  0
 21 39  1  0
 21 40  1  0
 22 41  1  0
M  CHG  1   9  -1
M  END
>  <UniqueID>  (94) 
91

>  <SMILES>  (94) 
CCOC(=O)n1c(C([NH-])=O)cc2ccc(CC(=O)N(C)C)cc21

>  <Energy>  (94) 
72.03872269171127

>  <Genealogy>  (94) 
CCOC(=O)n1c(C([NH-])=O)cc2ccc(CC(=O)N(C)C)cc21 (protonated)
CCOC(=O)n1c(C([NH-])=O)cc2ccc(CC(=O)N(C)C)cc21 (3D coordinates assigned)
CCOC(=O)n1c(C([NH-])=O)cc2ccc(CC(=O)N(C)C)cc21 (optimized conformer: 72.03872269171127 kcal/mol)

>  <smiles>  (94) 
CCOC(=O)n1c(C(N)=O)cc2ccc(CC(=O)N(C)C)cc21

>  <score_type>  (94) 
oracle

>  <origin>  (94) 
adg

>  <m_score__min__energy>  (94) 
-10.449999999999999

>  <m_primary>  (94) 
energy

$$$$
94:0
     RDKit          3D

 55 57  0  0  0  0  0  0  0  0999 V2000
   -0.2790   23.7340  -24.5430 C   0  0  0  0  0  0  0  0  0  0  0  0
   -0.8890   23.3900  -25.8630 C   0  0  0  0  0  0  0  0  0  0  0  0
   -0.8560   21.8580  -26.5540 S   0  0  0  0  0  0  0  0  0  0  0  0
   -1.6790   22.2770  -27.9640 C   0  0  0  0  0  0  0  0  0  0  0  0
   -1.9690   21.4030  -29.0690 N   0  0  0  0  0  0  0  0  0  0  0  0
   -1.4340   21.5600  -30.3930 C   0  0  0  0  0  0  0  0  0  0  0  0
   -0.4330   22.2990  -30.5960 O   0  0  0  0  0  0  0  0  0  0  0  0
   -2.0770   20.8270  -31.5420 C   0  0  2  0  0  0  0  0  0  0  0  0
   -1.1420   21.1150  -33.2260 Br  0  0  0  0  0  0  0  0  0  0  0  0
   -3.5210   21.2430  -31.6950 C   0  0  0  0  0  0  0  0  0  0  0  0
   -3.8630   22.6190  -31.7420 C   0  0  0  0  0  0  0  0  0  0  0  0
   -5.2030   23.0210  -31.8770 C   0  0  0  0  0  0  0  0  0  0  0  0
   -6.1750   22.0300  -31.9690 C   0  0  0  0  0  0  0  0  0  0  0  0
   -7.5410   22.1380  -32.0970 C   0  0  0  0  0  0  0  0  0  0  0  0
   -8.0140   20.8290  -32.1480 C   0  0  0  0  0  0  0  0  0  0  0  0
   -9.4330   20.4840  -32.3790 C   0  0  0  0  0  0  0  0  0  0  0  0
   -9.7660   19.2950  -33.0910 N   0  0  0  0  0  0  0  0  0  0  0  0
  -10.3560   21.2090  -31.9230 O   0  0  0  0  0  0  0  0  0  0  0  0
   -6.9800   19.9440  -32.0450 N   0  0  0  0  0  0  0  0  0  0  0  0
   -7.0390   18.5100  -32.0220 C   0  0  0  0  0  0  0  0  0  0  0  0
   -8.0870   17.9320  -31.6260 O   0  0  0  0  0  0  0  0  0  0  0  0
   -5.9130   17.7700  -32.4170 O   0  0  0  0  0  0  0  0  0  0  0  0
   -5.5370   17.4410  -33.7610 C   0  0  0  0  0  0  0  0  0  0  0  0
   -6.4420   16.2850  -34.2140 C   0  0  0  0  0  0  0  0  0  0  0  0
   -5.7630   18.6430  -34.6970 C   0  0  0  0  0  0  0  0  0  0  0  0
   -4.0690   16.9770  -33.8130 C   0  0  0  0  0  0  0  0  0  0  0  0
   -5.8630   20.6960  -31.9390 C   0  0  0  0  0  0  0  0  0  0  0  0
   -4.5410   20.2670  -31.7760 C   0  0  0  0  0  0  0  0  0  0  0  0
   -1.9810   23.6370  -27.9170 C   0  0  0  0  0  0  0  0  0  0  0  0
   -2.6940   24.3210  -28.9690 C   0  0  0  0  0  0  0  0  0  0  0  0
   -3.2640   24.8710  -29.8120 N   0  0  0  0  0  0  0  0  0  0  0  0
   -1.5230   24.2720  -26.7430 C   0  0  0  0  0  0  0  0  0  0  0  0
   -1.7580   25.7240  -26.4320 C   0  0  0  0  0  0  0  0  0  0  0  0
   -0.9273   23.3684  -23.7331 H   0  0  0  0  0  0  0  0  0  0  0  0
    0.7109   23.2611  -24.4621 H   0  0  0  0  0  0  0  0  0  0  0  0
   -0.1715   24.8257  -24.4621 H   0  0  0  0  0  0  0  0  0  0  0  0
   -2.6650   20.6380  -28.9210 H   0  0  0  0  0  0  0  0  0  0  0  0
   -2.0190   19.7550  -31.3022 H   0  0  0  0  0  0  0  0  0  0  0  0
   -3.0711   23.3793  -31.6721 H   0  0  0  0  0  0  0  0  0  0  0  0
   -5.4748   24.0864  -31.9089 H   0  0  0  0  0  0  0  0  0  0  0  0
   -8.1341   23.0630  -32.1482 H   0  0  0  0  0  0  0  0  0  0  0  0
   -9.0190   18.6740  -33.4760 H   0  0  0  0  0  0  0  0  0  0  0  0
   -6.8465   15.7684  -33.3311 H   0  0  0  0  0  0  0  0  0  0  0  0
   -7.2709   16.6832  -34.8176 H   0  0  0  0  0  0  0  0  0  0  0  0
   -5.8565   15.5759  -34.8176 H   0  0  0  0  0  0  0  0  0  0  0  0
   -5.9333   19.5486  -34.0962 H   0  0  0  0  0  0  0  0  0  0  0  0
   -4.8759   18.7854  -35.3316 H   0  0  0  0  0  0  0  0  0  0  0  0
   -6.6413   18.4535  -35.3316 H   0  0  0  0  0  0  0  0  0  0  0  0
   -3.6862   16.8560  -32.7889 H   0  0  0  0  0  0  0  0  0  0  0  0
   -4.0070   16.0154  -34.3436 H   0  0  0  0  0  0  0  0  0  0  0  0
   -3.4656   17.7282  -34.3436 H   0  0  0  0  0  0  0  0  0  0  0  0
   -4.3009   19.1954  -31.7124 H   0  0  0  0  0  0  0  0  0  0  0  0
   -1.7810   25.8663  -25.3415 H   0  0  0  0  0  0  0  0  0  0  0  0
   -0.9458   26.3275  -26.8635 H   0  0  0  0  0  0  0  0  0  0  0  0
   -2.7191   26.0405  -26.8635 H   0  0  0  0  0  0  0  0  0  0  0  0
  1  2  1  0
  2  3  1  0
  3  4  1  0
  4  5  1  0
  5  6  1  0
  6  7  2  0
  6  8  1  0
  8  9  1  0
  8 10  1  0
 10 11  2  0
 11 12  1  0
 12 13  2  0
 13 14  1  0
 14 15  2  0
 15 16  1  0
 16 17  1  0
 16 18  2  0
 15 19  1  0
 19 20  1  0
 20 21  2  0
 20 22  1  0
 22 23  1  0
 23 24  1  0
 23 25  1  0
 23 26  1  0
 19 27  1  0
 27 28  2  0
  4 29  2  0
 29 30  1  0
 30 31  3  0
 29 32  1  0
 32 33  1  0
 32  2  2  0
 28 10  1  0
 27 13  1  0
  1 34  1  0
  1 35  1  0
  1 36  1  0
  5 37  1  0
  8 38  1  1
 11 39  1  0
 12 40  1  0
 14 41  1  0
 17 42  1  0
 24 43  1  0
 24 44  1  0
 24 45  1  0
 25 46  1  0
 25 47  1  0
 25 48  1  0
 26 49  1  0
 26 50  1  0
 26 51  1  0
 28 52  1  0
 33 53  1  0
 33 54  1  0
 33 55  1  0
M  CHG  1  17  -1
M  END
>  <UniqueID>  (95) 
92

>  <SMILES>  (95) 
Cc1sc(NC(=O)[C@H](Br)c2ccc3cc(C([NH-])=O)n(C(=O)OC(C)(C)C)c3c2)c(C#N)c1C

>  <Energy>  (95) 
114.52954565846365

>  <Genealogy>  (95) 
Cc1sc(NC(=O)C(Br)c2ccc3cc(C([NH-])=O)n(C(=O)OC(C)(C)C)c3c2)c(C#N)c1C (protonated)
Cc1sc(NC(=O)[C@H](Br)c2ccc3cc(C([NH-])=O)n(C(=O)OC(C)(C)C)c3c2)c(C#N)c1C (chirality)
Cc1sc(NC(=O)[C@H](Br)c2ccc3cc(C([NH-])=O)n(C(=O)OC(C)(C)C)c3c2)c(C#N)c1C (3D coordinates assigned)
Cc1sc(NC(=O)[C@H](Br)c2ccc3cc(C([NH-])=O)n(C(=O)OC(C)(C)C)c3c2)c(C#N)c1C (optimized conformer: 114.52954565846365 kcal/mol)

>  <smiles>  (95) 
Cc1sc(NC(=O)C(Br)c2ccc3cc(C(N)=O)n(C(=O)OC(C)(C)C)c3c2)c(C#N)c1C

>  <score_type>  (95) 
oracle

>  <origin>  (95) 
adg

>  <m_score__min__energy>  (95) 
-11.73

>  <m_primary>  (95) 
energy

$$$$
95:0
     RDKit          3D

 51 52  0  0  0  0  0  0  0  0999 V2000
   -4.1520   23.0180  -27.9440 C   0  0  0  0  0  0  0  0  0  0  0  0
   -3.5170   24.0610  -27.3850 C   0  0  0  0  0  0  0  0  0  0  0  0
   -4.2300   24.9310  -26.3860 C   0  0  0  0  0  0  0  0  0  0  0  0
   -2.0380   24.2560  -27.5960 C   0  0  0  0  0  0  0  0  0  0  0  0
   -1.7970   24.4320  -28.9750 O   0  0  0  0  0  0  0  0  0  0  0  0
   -1.0550   23.3390  -29.4710 C   0  0  0  0  0  0  0  0  0  0  0  0
   -1.9750   22.4550  -30.3120 C   0  0  0  0  0  0  0  0  0  0  0  0
   -3.0340   23.2170  -30.8910 O   0  0  0  0  0  0  0  0  0  0  0  0
   -4.0420   22.6680  -31.6910 C   0  0  0  0  0  0  0  0  0  0  0  0
   -3.7460   21.9900  -32.7100 O   0  0  0  0  0  0  0  0  0  0  0  0
   -5.4190   22.9050  -31.3620 N   0  0  0  0  0  0  0  0  0  0  0  0
   -5.9810   24.0670  -30.9230 C   0  0  0  0  0  0  0  0  0  0  0  0
   -5.2500   25.2780  -30.5020 C   0  0  0  0  0  0  0  0  0  0  0  0
   -3.9330   25.5420  -30.9800 N   0  0  0  0  0  0  0  0  0  0  0  0
   -5.7770   26.0720  -29.6770 O   0  0  0  0  0  0  0  0  0  0  0  0
   -7.3680   23.9430  -30.8440 C   0  0  0  0  0  0  0  0  0  0  0  0
   -7.6410   22.6550  -31.2430 C   0  0  0  0  0  0  0  0  0  0  0  0
   -8.8630   22.0000  -31.3730 C   0  0  0  0  0  0  0  0  0  0  0  0
   -8.8530   20.6770  -31.8450 C   0  0  0  0  0  0  0  0  0  0  0  0
   -7.6300   20.0360  -32.1740 C   0  0  0  0  0  0  0  0  0  0  0  0
   -7.6300   18.6270  -32.7060 C   0  0  0  0  0  0  0  0  0  0  0  0
   -6.2400   18.1940  -33.1970 C   0  0  0  0  0  0  0  0  0  0  0  0
   -5.9370   18.7400  -34.5300 N   0  0  0  0  0  0  0  0  0  0  0  0
   -5.1200   17.8010  -35.3040 C   0  0  0  0  0  0  0  0  0  0  0  0
   -6.4110   20.7370  -32.0370 C   0  0  0  0  0  0  0  0  0  0  0  0
   -6.4490   22.0490  -31.5510 C   0  0  0  0  0  0  0  0  0  0  0  0
   -3.6292   22.3829  -28.6743 H   0  0  0  0  0  0  0  0  0  0  0  0
   -5.1949   22.7988  -27.6716 H   0  0  0  0  0  0  0  0  0  0  0  0
   -3.9672   24.6104  -25.3671 H   0  0  0  0  0  0  0  0  0  0  0  0
   -3.9274   25.9787  -26.5302 H   0  0  0  0  0  0  0  0  0  0  0  0
   -5.3167   24.8401  -26.5302 H   0  0  0  0  0  0  0  0  0  0  0  0
   -1.6996   25.1456  -27.0446 H   0  0  0  0  0  0  0  0  0  0  0  0
   -1.4880   23.3771  -27.2286 H   0  0  0  0  0  0  0  0  0  0  0  0
   -0.2268   23.7076  -30.0941 H   0  0  0  0  0  0  0  0  0  0  0  0
   -0.6443   22.7571  -28.6327 H   0  0  0  0  0  0  0  0  0  0  0  0
   -1.3874   21.9881  -31.1162 H   0  0  0  0  0  0  0  0  0  0  0  0
   -2.4148   21.6877  -29.6579 H   0  0  0  0  0  0  0  0  0  0  0  0
   -3.0940   25.2930  -30.4110 H   0  0  0  0  0  0  0  0  0  0  0  0
   -8.0898   24.7113  -30.5297 H   0  0  0  0  0  0  0  0  0  0  0  0
   -9.8065   22.5028  -31.1142 H   0  0  0  0  0  0  0  0  0  0  0  0
   -9.8018   20.1326  -31.9607 H   0  0  0  0  0  0  0  0  0  0  0  0
   -7.9512   17.9454  -31.9046 H   0  0  0  0  0  0  0  0  0  0  0  0
   -8.3187   18.5887  -33.5628 H   0  0  0  0  0  0  0  0  0  0  0  0
   -5.4828   18.5531  -32.4845 H   0  0  0  0  0  0  0  0  0  0  0  0
   -6.2283   17.0962  -33.2662 H   0  0  0  0  0  0  0  0  0  0  0  0
   -5.4060   19.6370  -34.4350 H   0  0  0  0  0  0  0  0  0  0  0  0
   -6.8280   18.9160  -35.0500 H   0  0  0  0  0  0  0  0  0  0  0  0
   -4.5561   17.1529  -34.6169 H   0  0  0  0  0  0  0  0  0  0  0  0
   -5.7729   17.1831  -35.9380 H   0  0  0  0  0  0  0  0  0  0  0  0
   -4.4178   18.3622  -35.9380 H   0  0  0  0  0  0  0  0  0  0  0  0
   -5.4553   20.2632  -32.3057 H   0  0  0  0  0  0  0  0  0  0  0  0
  1  2  2  0
  2  3  1  0
  2  4  1  0
  4  5  1  0
  5  6  1  0
  6  7  1  0
  7  8  1  0
  8  9  1  0
  9 10  2  0
  9 11  1  0
 11 12  1  0
 12 13  1  0
 13 14  1  0
 13 15  2  0
 12 16  2  0
 16 17  1  0
 17 18  2  0
 18 19  1  0
 19 20  2  0
 20 21  1  0
 21 22  1  0
 22 23  1  0
 23 24  1  0
 20 25  1  0
 25 26  2  0
 26 11  1  0
 26 17  1  0
  1 27  1  0
  1 28  1  0
  3 29  1  0
  3 30  1  0
  3 31  1  0
  4 32  1  0
  4 33  1  0
  6 34  1  0
  6 35  1  0
  7 36  1  0
  7 37  1  0
 14 38  1  0
 16 39  1  0
 18 40  1  0
 19 41  1  0
 21 42  1  0
 21 43  1  0
 22 44  1  0
 22 45  1  0
 23 46  1  0
 23 47  1  0
 24 48  1  0
 24 49  1  0
 24 50  1  0
 25 51  1  0
M  CHG  2  14  -1  23   1
M  END
>  <UniqueID>  (96) 
93

>  <SMILES>  (96) 
C=C(C)COCCOC(=O)n1c(C([NH-])=O)cc2ccc(CC[NH2+]C)cc21

>  <Energy>  (96) 
80.33426754225187

>  <Genealogy>  (96) 
C=C(C)COCCOC(=O)n1c(C([NH-])=O)cc2ccc(CC[NH2+]C)cc21 (protonated)
C=C(C)COCCOC(=O)n1c(C([NH-])=O)cc2ccc(CC[NH2+]C)cc21 (3D coordinates assigned)
C=C(C)COCCOC(=O)n1c(C([NH-])=O)cc2ccc(CC[NH2+]C)cc21 (optimized conformer: 80.33426754225187 kcal/mol)

>  <smiles>  (96) 
C=C(C)COCCOC(=O)n1c(C(N)=O)cc2ccc(CCNC)cc21

>  <score_type>  (96) 
oracle

>  <origin>  (96) 
adg

>  <m_score__min__energy>  (96) 
-9.8599999999999994

>  <m_primary>  (96) 
energy

$$$$
