0:0
     RDKit          3D

 41 44  0  0  0  0  0  0  0  0999 V2000
   -7.3930   18.5150  -32.8050 C   0  0  0  0  0  0  0  0  0  0  0  0
   -7.4340   19.9520  -32.3740 C   0  0  0  0  0  0  0  0  0  0  0  0
   -8.6730   20.6390  -32.3130 C   0  0  0  0  0  0  0  0  0  0  0  0
   -8.7290   21.9740  -31.8780 C   0  0  0  0  0  0  0  0  0  0  0  0
   -7.5380   22.5880  -31.4990 C   0  0  0  0  0  0  0  0  0  0  0  0
   -7.3000   23.8650  -31.0420 C   0  0  0  0  0  0  0  0  0  0  0  0
   -5.9270   23.9240  -30.8080 C   0  0  0  0  0  0  0  0  0  0  0  0
   -5.2370   25.1000  -30.2360 C   0  0  0  0  0  0  0  0  0  0  0  0
   -3.8620   25.3310  -30.5330 N   0  0  0  0  0  0  0  0  0  0  0  0
   -5.8570   25.9150  -29.5040 O   0  0  0  0  0  0  0  0  0  0  0  0
   -5.3410   22.7340  -31.1200 N   0  0  0  0  0  0  0  0  0  0  0  0
   -3.9510   22.3860  -31.0480 C   0  0  0  0  0  0  0  0  0  0  0  0
   -3.2060   22.6380  -32.0310 O   0  0  0  0  0  0  0  0  0  0  0  0
   -3.4020   21.7530  -29.8290 C   0  0  0  0  0  0  0  0  0  0  0  0
   -3.5040   20.5040  -29.6930 O   0  0  0  0  0  0  0  0  0  0  0  0
   -2.7400   22.5130  -28.8050 N   0  0  0  0  0  0  0  0  0  0  0  0
   -1.4110   22.7620  -28.7130 C   0  0  0  0  0  0  0  0  0  0  0  0
   -1.2370   23.6180  -27.6510 C   0  0  0  0  0  0  0  0  0  0  0  0
   -2.4780   23.8950  -27.1810 C   0  0  0  0  0  0  0  0  0  0  0  0
   -3.4010   23.2540  -27.9210 N   0  0  0  0  0  0  0  0  0  0  0  0
   -2.5660   25.2850  -26.6190 C   0  0  0  0  0  0  0  0  0  0  0  0
   -1.2080   25.8010  -26.8350 N   0  0  0  0  0  0  0  0  0  0  0  0
   -0.7540   27.1470  -26.5120 C   0  0  0  0  0  0  0  0  0  0  0  0
   -0.4330   24.8010  -27.4920 C   0  0  0  0  0  0  0  0  0  0  0  0
    0.7370   24.9680  -27.9250 O   0  0  0  0  0  0  0  0  0  0  0  0
   -6.3380   21.9260  -31.5320 C   0  0  0  0  0  0  0  0  0  0  0  0
   -6.2490   20.6000  -31.9660 C   0  0  0  0  0  0  0  0  0  0  0  0
   -7.3745   17.8662  -31.9169 H   0  0  0  0  0  0  0  0  0  0  0  0
   -8.2850   18.2872  -33.4070 H   0  0  0  0  0  0  0  0  0  0  0  0
   -6.4895   18.3384  -33.4070 H   0  0  0  0  0  0  0  0  0  0  0  0
   -9.5981   20.1225  -32.6087 H   0  0  0  0  0  0  0  0  0  0  0  0
   -9.6845   22.5175  -31.8381 H   0  0  0  0  0  0  0  0  0  0  0  0
   -8.0369   24.6681  -30.8932 H   0  0  0  0  0  0  0  0  0  0  0  0
   -3.5790   26.0500  -31.2340 H   0  0  0  0  0  0  0  0  0  0  0  0
   -0.6221   22.3567  -29.3637 H   0  0  0  0  0  0  0  0  0  0  0  0
   -3.3108   25.8865  -27.1607 H   0  0  0  0  0  0  0  0  0  0  0  0
   -2.8839   25.3134  -25.5663 H   0  0  0  0  0  0  0  0  0  0  0  0
   -0.7132   27.2679  -25.4194 H   0  0  0  0  0  0  0  0  0  0  0  0
    0.2481   27.3077  -26.9363 H   0  0  0  0  0  0  0  0  0  0  0  0
   -1.4540   27.8818  -26.9363 H   0  0  0  0  0  0  0  0  0  0  0  0
   -5.2819   20.0764  -31.9887 H   0  0  0  0  0  0  0  0  0  0  0  0
  1  2  1  0
  2  3  2  0
  3  4  1  0
  4  5  2  0
  5  6  1  0
  6  7  2  0
  7  8  1  0
  8  9  1  0
  8 10  2  0
  7 11  1  0
 11 12  1  0
 12 13  2  0
 12 14  1  0
 14 15  2  0
 14 16  1  0
 16 17  1  0
 17 18  2  0
 18 19  1  0
 19 20  2  0
 19 21  1  0
 21 22  1  0
 22 23  1  0
 22 24  1  0
 24 25  2  0
 11 26  1  0
 26 27  2  0
 27  2  1  0
 26  5  1  0
 20 16  1  0
 24 18  1  0
  1 28  1  0
  1 29  1  0
  1 30  1  0
  3 31  1  0
  4 32  1  0
  6 33  1  0
  9 34  1  0
 17 35  1  0
 21 36  1  0
 21 37  1  0
 23 38  1  0
 23 39  1  0
 23 40  1  0
 27 41  1  0
M  CHG  1   9  -1
M  END
>  <UniqueID>  (1) 
1

>  <SMILES>  (1) 
Cc1ccc2cc(C([NH-])=O)n(C(=O)C(=O)n3cc4c(n3)CN(C)C4=O)c2c1

>  <Energy>  (1) 
154.85633873556202

>  <Genealogy>  (1) 
Cc1ccc2cc(C([NH-])=O)n(C(=O)C(=O)n3cc4c(n3)CN(C)C4=O)c2c1 (protonated)
Cc1ccc2cc(C([NH-])=O)n(C(=O)C(=O)n3cc4c(n3)CN(C)C4=O)c2c1 (3D coordinates assigned)
Cc1ccc2cc(C([NH-])=O)n(C(=O)C(=O)n3cc4c(n3)CN(C)C4=O)c2c1 (nonaromatic ring conformer: 154.85633873556202 kcal/mol)

>  <smiles>  (1) 
Cc1ccc2cc(C(N)=O)n(C(=O)C(=O)n3cc4c(n3)CN(C)C4=O)c2c1

>  <score_type>  (1) 
oracle

>  <origin>  (1) 
adg

>  <m_score__min__energy>  (1) 
-11.84

>  <m_primary>  (1) 
energy

$$$$
1:0
     RDKit          3D

 39 40  0  0  0  0  0  0  0  0999 V2000
   -1.6100   25.7740  -27.6080 C   0  0  0  0  0  0  0  0  0  0  0  0
   -1.6280   25.1750  -28.8970 O   0  0  0  0  0  0  0  0  0  0  0  0
   -0.9290   24.0010  -29.1920 C   0  0  0  0  0  0  0  0  0  0  0  0
    0.3120   23.9230  -28.9760 O   0  0  0  0  0  0  0  0  0  0  0  0
   -1.6690   22.8210  -29.7630 C   0  0  0  0  0  0  0  0  0  0  0  0
   -3.1420   22.9330  -29.6560 N   0  0  2  0  0  0  0  0  0  0  0  0
   -3.6680   22.3090  -28.4260 C   0  0  0  0  0  0  0  0  0  0  0  0
   -3.7940   22.4180  -30.8430 C   0  0  0  0  0  0  0  0  0  0  0  0
   -3.1180   21.8790  -31.7620 O   0  0  0  0  0  0  0  0  0  0  0  0
   -5.2020   22.6340  -31.0440 N   0  0  0  0  0  0  0  0  0  0  0  0
   -5.8890   23.8100  -30.9880 C   0  0  0  0  0  0  0  0  0  0  0  0
   -5.3500   25.1040  -30.5250 C   0  0  0  0  0  0  0  0  0  0  0  0
   -3.9410   25.3070  -30.4680 N   0  0  0  0  0  0  0  0  0  0  0  0
   -6.1250   26.0460  -30.2120 O   0  0  0  0  0  0  0  0  0  0  0  0
   -7.2220   23.6140  -31.3470 C   0  0  0  0  0  0  0  0  0  0  0  0
   -7.3320   22.2680  -31.6130 C   0  0  0  0  0  0  0  0  0  0  0  0
   -8.4330   21.5230  -32.0260 C   0  0  0  0  0  0  0  0  0  0  0  0
   -8.2520   20.1470  -32.2440 C   0  0  0  0  0  0  0  0  0  0  0  0
   -6.9890   19.5370  -32.0300 C   0  0  0  0  0  0  0  0  0  0  0  0
   -6.7950   18.0700  -32.3200 C   0  0  0  0  0  0  0  0  0  0  0  0
   -6.2060   17.8900  -33.5590 F   0  0  0  0  0  0  0  0  0  0  0  0
   -8.0110   17.4090  -32.3180 F   0  0  0  0  0  0  0  0  0  0  0  0
   -5.9810   17.5190  -31.3480 F   0  0  0  0  0  0  0  0  0  0  0  0
   -5.8910   20.3340  -31.6300 C   0  0  0  0  0  0  0  0  0  0  0  0
   -6.1010   21.6990  -31.4160 C   0  0  0  0  0  0  0  0  0  0  0  0
   -1.6336   24.9885  -26.8383 H   0  0  0  0  0  0  0  0  0  0  0  0
   -0.6935   26.3715  -27.4941 H   0  0  0  0  0  0  0  0  0  0  0  0
   -2.4890   26.4255  -27.4941 H   0  0  0  0  0  0  0  0  0  0  0  0
   -1.4043   22.7267  -30.8265 H   0  0  0  0  0  0  0  0  0  0  0  0
   -1.3703   21.9398  -29.1762 H   0  0  0  0  0  0  0  0  0  0  0  0
   -3.3550   23.9550  -29.5880 H   0  0  0  0  0  0  0  0  0  0  0  0
   -3.2417   22.8147  -27.5471 H   0  0  0  0  0  0  0  0  0  0  0  0
   -4.7639   22.4025  -28.4072 H   0  0  0  0  0  0  0  0  0  0  0  0
   -3.3904   21.2448  -28.4072 H   0  0  0  0  0  0  0  0  0  0  0  0
   -3.4840   25.6500  -29.5930 H   0  0  0  0  0  0  0  0  0  0  0  0
   -8.0161   24.3730  -31.4052 H   0  0  0  0  0  0  0  0  0  0  0  0
   -9.4141   21.9969  -32.1770 H   0  0  0  0  0  0  0  0  0  0  0  0
   -9.1000   19.5349  -32.5848 H   0  0  0  0  0  0  0  0  0  0  0  0
   -4.8945   19.8895  -31.4905 H   0  0  0  0  0  0  0  0  0  0  0  0
  1  2  1  0
  2  3  1  0
  3  4  2  0
  3  5  1  0
  5  6  1  0
  6  7  1  0
  6  8  1  0
  8  9  2  0
  8 10  1  0
 10 11  1  0
 11 12  1  0
 12 13  1  0
 12 14  2  0
 11 15  2  0
 15 16  1  0
 16 17  2  0
 17 18  1  0
 18 19  2  0
 19 20  1  0
 20 21  1  0
 20 22  1  0
 20 23  1  0
 19 24  1  0
 24 25  2  0
 25 10  1  0
 25 16  1  0
  1 26  1  0
  1 27  1  0
  1 28  1  0
  5 29  1  0
  5 30  1  0
  6 31  1  1
  7 32  1  0
  7 33  1  0
  7 34  1  0
 13 35  1  0
 15 36  1  0
 17 37  1  0
 18 38  1  0
 24 39  1  0
M  CHG  2   6   1  13  -1
M  END
>  <UniqueID>  (2) 
2

>  <SMILES>  (2) 
COC(=O)C[N@H+](C)C(=O)n1c(C([NH-])=O)cc2ccc(C(F)(F)F)cc21

>  <Energy>  (2) 
80.11948469444427

>  <Genealogy>  (2) 
COC(=O)C[NH+](C)C(=O)n1c(C([NH-])=O)cc2ccc(C(F)(F)F)cc21 (protonated)
COC(=O)C[N@H+](C)C(=O)n1c(C([NH-])=O)cc2ccc(C(F)(F)F)cc21 (chirality)
COC(=O)C[N@H+](C)C(=O)n1c(C([NH-])=O)cc2ccc(C(F)(F)F)cc21 (3D coordinates assigned)
COC(=O)C[N@H+](C)C(=O)n1c(C([NH-])=O)cc2ccc(C(F)(F)F)cc21 (optimized conformer: 80.11948469444427 kcal/mol)

>  <smiles>  (2) 
COC(=O)CN(C)C(=O)n1c(C(N)=O)cc2ccc(C(F)(F)F)cc21

>  <score_type>  (2) 
oracle

>  <origin>  (2) 
adg

>  <m_score__min__energy>  (2) 
-8.9499999999999993

>  <m_primary>  (2) 
energy

$$$$
2:0
     RDKit          3D

 47 48  0  0  0  0  0  0  0  0999 V2000
   -5.8230   14.5910  -34.0520 C   0  0  0  0  0  0  0  0  0  0  0  0
   -5.2880   15.7550  -33.3280 N   0  0  0  0  0  0  0  0  0  0  0  0
   -4.6100   15.3320  -32.0930 C   0  0  0  0  0  0  0  0  0  0  0  0
   -6.3550   16.6910  -33.0210 C   0  0  0  0  0  0  0  0  0  0  0  0
   -7.2340   16.9140  -33.8430 O   0  0  0  0  0  0  0  0  0  0  0  0
   -6.3980   17.4130  -31.7020 C   0  0  0  0  0  0  0  0  0  0  0  0
   -6.4560   18.8170  -31.9290 O   0  0  0  0  0  0  0  0  0  0  0  0
   -5.8550   19.4250  -33.0360 C   0  0  0  0  0  0  0  0  0  0  0  0
   -6.5370   19.7010  -34.0590 O   0  0  0  0  0  0  0  0  0  0  0  0
   -4.4510   19.7170  -33.0090 N   0  0  0  0  0  0  0  0  0  0  0  0
   -3.4470   19.0410  -33.6360 C   0  0  0  0  0  0  0  0  0  0  0  0
   -3.6140   17.9130  -34.5730 C   0  0  0  0  0  0  0  0  0  0  0  0
   -4.7790   17.8040  -35.3860 N   0  0  0  0  0  0  0  0  0  0  0  0
   -2.7030   17.0500  -34.6790 O   0  0  0  0  0  0  0  0  0  0  0  0
   -2.2090   19.5960  -33.3170 C   0  0  0  0  0  0  0  0  0  0  0  0
   -2.4890   20.6440  -32.4700 C   0  0  0  0  0  0  0  0  0  0  0  0
   -1.6330   21.5330  -31.8350 C   0  0  0  0  0  0  0  0  0  0  0  0
   -2.1940   22.4810  -30.9660 C   0  0  0  0  0  0  0  0  0  0  0  0
   -3.5950   22.5150  -30.7120 C   0  0  0  0  0  0  0  0  0  0  0  0
   -4.1470   23.5570  -29.7190 C   0  0  0  0  0  0  0  0  0  0  0  0
   -3.8580   23.2040  -28.2450 C   0  0  0  0  0  0  0  0  0  0  0  0
   -5.6770   23.6430  -29.9030 C   0  0  0  0  0  0  0  0  0  0  0  0
   -3.5120   24.9110  -29.9790 C   0  0  0  0  0  0  0  0  0  0  0  0
   -3.9710   25.6690  -30.8750 O   0  0  0  0  0  0  0  0  0  0  0  0
   -2.3540   25.2880  -29.3120 O   0  0  0  0  0  0  0  0  0  0  0  0
   -4.4330   21.6060  -31.4130 C   0  0  0  0  0  0  0  0  0  0  0  0
   -3.8460   20.6910  -32.2940 C   0  0  0  0  0  0  0  0  0  0  0  0
   -6.1694   13.8373  -33.3295 H   0  0  0  0  0  0  0  0  0  0  0  0
   -6.6658   14.9079  -34.6838 H   0  0  0  0  0  0  0  0  0  0  0  0
   -5.0337   14.1577  -34.6838 H   0  0  0  0  0  0  0  0  0  0  0  0
   -4.5770   16.2130  -33.9450 H   0  0  0  0  0  0  0  0  0  0  0  0
   -5.1797   15.6874  -31.2218 H   0  0  0  0  0  0  0  0  0  0  0  0
   -4.5470   14.2341  -32.0669 H   0  0  0  0  0  0  0  0  0  0  0  0
   -3.5962   15.7581  -32.0669 H   0  0  0  0  0  0  0  0  0  0  0  0
   -7.2886   17.0958  -31.1397 H   0  0  0  0  0  0  0  0  0  0  0  0
   -5.4934   17.1730  -31.1240 H   0  0  0  0  0  0  0  0  0  0  0  0
   -5.7300   17.9290  -34.9780 H   0  0  0  0  0  0  0  0  0  0  0  0
   -1.2196   19.2668  -33.6673 H   0  0  0  0  0  0  0  0  0  0  0  0
   -0.5473   21.4955  -32.0078 H   0  0  0  0  0  0  0  0  0  0  0  0
   -1.5386   23.2127  -30.4709 H   0  0  0  0  0  0  0  0  0  0  0  0
   -4.4169   23.8867  -27.5881 H   0  0  0  0  0  0  0  0  0  0  0  0
   -4.1705   22.1679  -28.0480 H   0  0  0  0  0  0  0  0  0  0  0  0
   -2.7806   23.3058  -28.0480 H   0  0  0  0  0  0  0  0  0  0  0  0
   -6.1639   23.6704  -28.9170 H   0  0  0  0  0  0  0  0  0  0  0  0
   -5.9284   24.5567  -30.4616 H   0  0  0  0  0  0  0  0  0  0  0  0
   -6.0292   22.7632  -30.4616 H   0  0  0  0  0  0  0  0  0  0  0  0
   -5.5230   21.6215  -31.2657 H   0  0  0  0  0  0  0  0  0  0  0  0
  1  2  1  0
  2  3  1  0
  2  4  1  0
  4  5  2  0
  4  6  1  0
  6  7  1  0
  7  8  1  0
  8  9  2  0
  8 10  1  0
 10 11  1  0
 11 12  1  0
 12 13  1  0
 12 14  2  0
 11 15  2  0
 15 16  1  0
 16 17  2  0
 17 18  1  0
 18 19  2  0
 19 20  1  0
 20 21  1  0
 20 22  1  0
 20 23  1  0
 23 24  2  0
 23 25  1  0
 19 26  1  0
 26 27  2  0
 27 10  1  0
 27 16  1  0
  1 28  1  0
  1 29  1  0
  1 30  1  0
  2 31  1  0
  3 32  1  0
  3 33  1  0
  3 34  1  0
  6 35  1  0
  6 36  1  0
 13 37  1  0
 15 38  1  0
 17 39  1  0
 18 40  1  0
 21 41  1  0
 21 42  1  0
 21 43  1  0
 22 44  1  0
 22 45  1  0
 22 46  1  0
 26 47  1  0
M  CHG  3   2   1  13  -1  25  -1
M  END
>  <UniqueID>  (3) 
3

>  <SMILES>  (3) 
C[NH+](C)C(=O)COC(=O)n1c(C([NH-])=O)cc2ccc(C(C)(C)C(=O)[O-])cc21

>  <Energy>  (3) 
85.32145322044168

>  <Genealogy>  (3) 
C[NH+](C)C(=O)COC(=O)n1c(C([NH-])=O)cc2ccc(C(C)(C)C(=O)[O-])cc21 (protonated)
C[NH+](C)C(=O)COC(=O)n1c(C([NH-])=O)cc2ccc(C(C)(C)C(=O)[O-])cc21 (3D coordinates assigned)
C[NH+](C)C(=O)COC(=O)n1c(C([NH-])=O)cc2ccc(C(C)(C)C(=O)[O-])cc21 (optimized conformer: 85.32145322044168 kcal/mol)

>  <smiles>  (3) 
CN(C)C(=O)COC(=O)n1c(C(N)=O)cc2ccc(C(C)(C)C(=O)O)cc21

>  <score_type>  (3) 
oracle

>  <origin>  (3) 
adg

>  <m_score__min__energy>  (3) 
-10.01

>  <m_primary>  (3) 
energy

$$$$
3:0
     RDKit          3D

 38 39  0  0  0  0  0  0  0  0999 V2000
   -6.5340   17.6320  -33.7580 C   0  0  0  0  0  0  0  0  0  0  0  0
   -6.4780   18.1580  -32.3880 N   0  0  0  0  0  0  0  0  0  0  0  0
   -6.1810   17.2340  -31.2860 C   0  0  0  0  0  0  0  0  0  0  0  0
   -6.7140   19.5670  -32.1280 C   0  0  0  0  0  0  0  0  0  0  0  0
   -8.0070   20.1340  -32.3120 C   0  0  0  0  0  0  0  0  0  0  0  0
   -8.2420   21.4970  -32.0720 C   0  0  0  0  0  0  0  0  0  0  0  0
   -7.1770   22.2780  -31.6420 C   0  0  0  0  0  0  0  0  0  0  0  0
   -7.1230   23.6240  -31.3610 C   0  0  0  0  0  0  0  0  0  0  0  0
   -5.8040   23.8700  -30.9830 C   0  0  0  0  0  0  0  0  0  0  0  0
   -5.3260   25.1850  -30.5080 C   0  0  0  0  0  0  0  0  0  0  0  0
   -4.0300   25.6650  -30.8570 N   0  0  0  0  0  0  0  0  0  0  0  0
   -6.0550   25.8750  -29.7460 O   0  0  0  0  0  0  0  0  0  0  0  0
   -5.0720   22.7220  -31.0390 N   0  0  0  0  0  0  0  0  0  0  0  0
   -3.6640   22.5620  -30.8000 C   0  0  0  0  0  0  0  0  0  0  0  0
   -2.8300   23.0980  -31.5800 O   0  0  0  0  0  0  0  0  0  0  0  0
   -3.2280   21.7890  -29.7190 O   0  0  0  0  0  0  0  0  0  0  0  0
   -3.0390   22.3120  -28.4050 C   0  0  0  0  0  0  0  0  0  0  0  0
   -3.0570   23.8410  -28.4300 C   0  0  0  0  0  0  0  0  0  0  0  0
   -1.7170   24.3750  -28.8260 C   0  0  0  0  0  0  0  0  0  0  0  0
   -0.6930   23.6480  -28.7380 O   0  0  0  0  0  0  0  0  0  0  0  0
   -1.6060   25.6610  -29.3400 O   0  0  0  0  0  0  0  0  0  0  0  0
   -5.9270   21.7560  -31.4390 C   0  0  0  0  0  0  0  0  0  0  0  0
   -5.6580   20.4060  -31.6880 C   0  0  0  0  0  0  0  0  0  0  0  0
   -6.6504   16.5386  -33.7265 H   0  0  0  0  0  0  0  0  0  0  0  0
   -7.3899   18.0768  -34.2868 H   0  0  0  0  0  0  0  0  0  0  0  0
   -5.6037   17.8866  -34.2868 H   0  0  0  0  0  0  0  0  0  0  0  0
   -6.3450   17.7442  -30.3254 H   0  0  0  0  0  0  0  0  0  0  0  0
   -6.8428   16.3580  -31.3536 H   0  0  0  0  0  0  0  0  0  0  0  0
   -5.1327   16.9076  -31.3536 H   0  0  0  0  0  0  0  0  0  0  0  0
   -8.8357   19.4933  -32.6478 H   0  0  0  0  0  0  0  0  0  0  0  0
   -9.2406   21.9338  -32.2202 H   0  0  0  0  0  0  0  0  0  0  0  0
   -7.9459   24.3514  -31.4218 H   0  0  0  0  0  0  0  0  0  0  0  0
   -3.1820   25.0740  -30.7160 H   0  0  0  0  0  0  0  0  0  0  0  0
   -3.8472   21.9510  -27.7519 H   0  0  0  0  0  0  0  0  0  0  0  0
   -2.0641   21.9736  -28.0240 H   0  0  0  0  0  0  0  0  0  0  0  0
   -3.8110   24.1822  -29.1546 H   0  0  0  0  0  0  0  0  0  0  0  0
   -3.3034   24.2101  -27.4235 H   0  0  0  0  0  0  0  0  0  0  0  0
   -4.6450   20.0019  -31.5451 H   0  0  0  0  0  0  0  0  0  0  0  0
  1  2  1  0
  2  3  1  0
  2  4  1  0
  4  5  2  0
  5  6  1  0
  6  7  2  0
  7  8  1  0
  8  9  2  0
  9 10  1  0
 10 11  1  0
 10 12  2  0
  9 13  1  0
 13 14  1  0
 14 15  2  0
 14 16  1  0
 16 17  1  0
 17 18  1  0
 18 19  1  0
 19 20  2  0
 19 21  1  0
 13 22  1  0
 22 23  2  0
 23  4  1  0
 22  7  1  0
  1 24  1  0
  1 25  1  0
  1 26  1  0
  3 27  1  0
  3 28  1  0
  3 29  1  0
  5 30  1  0
  6 31  1  0
  8 32  1  0
 11 33  1  0
 17 34  1  0
 17 35  1  0
 18 36  1  0
 18 37  1  0
 23 38  1  0
M  CHG  2  11  -1  21  -1
M  END
>  <UniqueID>  (4) 
4

>  <SMILES>  (4) 
CN(C)c1ccc2cc(C([NH-])=O)n(C(=O)OCCC(=O)[O-])c2c1

>  <Energy>  (4) 
74.08781920170279

>  <Genealogy>  (4) 
CN(C)c1ccc2cc(C([NH-])=O)n(C(=O)OCCC(=O)[O-])c2c1 (protonated)
CN(C)c1ccc2cc(C([NH-])=O)n(C(=O)OCCC(=O)[O-])c2c1 (3D coordinates assigned)
CN(C)c1ccc2cc(C([NH-])=O)n(C(=O)OCCC(=O)[O-])c2c1 (optimized conformer: 74.08781920170279 kcal/mol)

>  <smiles>  (4) 
CN(C)c1ccc2cc(C(N)=O)n(C(=O)OCCC(=O)O)c2c1

>  <score_type>  (4) 
oracle

>  <origin>  (4) 
adg

>  <m_score__min__energy>  (4) 
-12.380000000000001

>  <m_primary>  (4) 
energy

$$$$
4:0
     RDKit          3D

 58 61  0  0  0  0  0  0  0  0999 V2000
   -8.3320   12.5480  -37.4700 C   0  0  0  0  0  0  0  0  0  0  0  0
   -7.7430   12.0490  -36.2180 N   0  0  0  0  0  0  0  0  0  0  0  0
   -6.2750   11.8420  -36.3540 C   0  0  0  0  0  0  0  0  0  0  0  0
   -5.4530   12.9680  -35.7120 C   0  0  0  0  0  0  0  0  0  0  0  0
   -5.7580   13.0810  -34.2010 C   0  0  0  0  0  0  0  0  0  0  0  0
   -5.4730   14.4430  -33.7390 N   0  0  0  0  0  0  0  0  0  0  0  0
   -6.3020   15.5660  -34.0820 C   0  0  0  0  0  0  0  0  0  0  0  0
   -7.2390   15.4200  -34.9150 O   0  0  0  0  0  0  0  0  0  0  0  0
   -6.0630   16.9040  -33.4860 C   0  0  0  0  0  0  0  0  0  0  0  0
   -5.0050   17.7040  -33.9540 C   0  0  0  0  0  0  0  0  0  0  0  0
   -4.7710   18.9680  -33.4040 C   0  0  0  0  0  0  0  0  0  0  0  0
   -5.5930   19.4640  -32.3790 C   0  0  0  0  0  0  0  0  0  0  0  0
   -5.3450   20.8070  -31.7940 C   0  0  0  0  0  0  0  0  0  0  0  0
   -6.1970   21.8990  -32.1130 C   0  0  0  0  0  0  0  0  0  0  0  0
   -5.9770   23.1710  -31.5570 C   0  0  0  0  0  0  0  0  0  0  0  0
   -4.8980   23.3260  -30.6900 C   0  0  0  0  0  0  0  0  0  0  0  0
   -4.4730   24.4350  -29.9930 C   0  0  0  0  0  0  0  0  0  0  0  0
   -3.3580   24.0120  -29.2680 C   0  0  0  0  0  0  0  0  0  0  0  0
   -2.5540   24.9070  -28.4070 C   0  0  0  0  0  0  0  0  0  0  0  0
   -1.6370   25.8420  -28.9660 N   0  0  0  0  0  0  0  0  0  0  0  0
   -2.6950   24.8600  -27.1550 O   0  0  0  0  0  0  0  0  0  0  0  0
   -3.1060   22.6950  -29.5110 N   0  0  0  0  0  0  0  0  0  0  0  0
   -2.0920   21.8680  -28.9220 C   0  0  0  0  0  0  0  0  0  0  0  0
   -2.4010   21.0500  -28.0140 O   0  0  0  0  0  0  0  0  0  0  0  0
   -0.6710   21.9540  -29.3920 C   0  0  0  0  0  0  0  0  0  0  0  0
    0.1120   22.8880  -28.5280 C   0  0  0  0  0  0  0  0  0  0  0  0
    0.5110   22.5150  -27.3920 O   0  0  0  0  0  0  0  0  0  0  0  0
    0.4240   24.1620  -28.9860 O   0  0  0  0  0  0  0  0  0  0  0  0
   -4.0580   22.2900  -30.3800 C   0  0  0  0  0  0  0  0  0  0  0  0
   -4.2610   21.0100  -30.9070 C   0  0  0  0  0  0  0  0  0  0  0  0
   -6.6600   18.6720  -31.9210 C   0  0  0  0  0  0  0  0  0  0  0  0
   -6.8940   17.4070  -32.4700 C   0  0  0  0  0  0  0  0  0  0  0  0
   -7.2210   12.7050  -33.8700 C   0  0  0  0  0  0  0  0  0  0  0  0
   -8.1350   12.9160  -35.0820 C   0  0  0  0  0  0  0  0  0  0  0  0
   -9.1524   13.2430  -37.2378 H   0  0  0  0  0  0  0  0  0  0  0  0
   -7.5615   13.0724  -38.0543 H   0  0  0  0  0  0  0  0  0  0  0  0
   -8.7226   11.7018  -38.0543 H   0  0  0  0  0  0  0  0  0  0  0  0
   -6.0078   10.8915  -35.8691 H   0  0  0  0  0  0  0  0  0  0  0  0
   -6.0403   11.8323  -37.4286 H   0  0  0  0  0  0  0  0  0  0  0  0
   -4.3824   12.7551  -35.8484 H   0  0  0  0  0  0  0  0  0  0  0  0
   -5.7205   13.9186  -36.1966 H   0  0  0  0  0  0  0  0  0  0  0  0
   -5.1094   12.3641  -33.6763 H   0  0  0  0  0  0  0  0  0  0  0  0
   -4.5370   14.6240  -33.3100 H   0  0  0  0  0  0  0  0  0  0  0  0
   -4.3557   17.3318  -34.7601 H   0  0  0  0  0  0  0  0  0  0  0  0
   -3.9360   19.5791  -33.7773 H   0  0  0  0  0  0  0  0  0  0  0  0
   -7.0393   21.7467  -32.8039 H   0  0  0  0  0  0  0  0  0  0  0  0
   -6.6363   24.0176  -31.7990 H   0  0  0  0  0  0  0  0  0  0  0  0
   -4.9180   25.4409  -30.0051 H   0  0  0  0  0  0  0  0  0  0  0  0
   -1.0470   25.5910  -29.7890 H   0  0  0  0  0  0  0  0  0  0  0  0
   -0.2149   20.9539  -29.3496 H   0  0  0  0  0  0  0  0  0  0  0  0
   -0.6609   22.3329  -30.4246 H   0  0  0  0  0  0  0  0  0  0  0  0
   -3.5924   20.1791  -30.6377 H   0  0  0  0  0  0  0  0  0  0  0  0
   -7.3168   19.0503  -31.1238 H   0  0  0  0  0  0  0  0  0  0  0  0
   -7.7355   16.8006  -32.1036 H   0  0  0  0  0  0  0  0  0  0  0  0
   -7.2607   11.6473  -33.5704 H   0  0  0  0  0  0  0  0  0  0  0  0
   -7.5709   13.3529  -33.0528 H   0  0  0  0  0  0  0  0  0  0  0  0
   -9.1701   12.6806  -34.7938 H   0  0  0  0  0  0  0  0  0  0  0  0
   -8.0453   13.9645  -35.4023 H   0  0  0  0  0  0  0  0  0  0  0  0
  1  2  1  0
  2  3  1  0
  3  4  1  0
  4  5  1  0
  5  6  1  0
  6  7  1  0
  7  8  2  0
  7  9  1  0
  9 10  2  0
 10 11  1  0
 11 12  2  0
 12 13  1  0
 13 14  2  0
 14 15  1  0
 15 16  2  0
 16 17  1  0
 17 18  2  0
 18 19  1  0
 19 20  1  0
 19 21  2  0
 18 22  1  0
 22 23  1  0
 23 24  2  0
 23 25  1  0
 25 26  1  0
 26 27  2  0
 26 28  1  0
 22 29  1  0
 29 30  2  0
 12 31  1  0
 31 32  2  0
  5 33  1  0
 33 34  1  0
 34  2  1  0
 32  9  1  0
 30 13  1  0
 29 16  1  0
  1 35  1  0
  1 36  1  0
  1 37  1  0
  3 38  1  0
  3 39  1  0
  4 40  1  0
  4 41  1  0
  5 42  1  0
  6 43  1  0
 10 44  1  0
 11 45  1  0
 14 46  1  0
 15 47  1  0
 17 48  1  0
 20 49  1  0
 25 50  1  0
 25 51  1  0
 30 52  1  0
 31 53  1  0
 32 54  1  0
 33 55  1  0
 33 56  1  0
 34 57  1  0
 34 58  1  0
M  CHG  2  20  -1  28  -1
M  END
>  <UniqueID>  (5) 
5

>  <SMILES>  (5) 
CN1CCC(NC(=O)c2ccc(-c3ccc4cc(C([NH-])=O)n(C(=O)CC(=O)[O-])c4c3)cc2)CC1

>  <Energy>  (5) 
113.08758391897112

>  <Genealogy>  (5) 
CN1CCC(NC(=O)c2ccc(-c3ccc4cc(C([NH-])=O)n(C(=O)CC(=O)[O-])c4c3)cc2)CC1 (protonated)
CN1CCC(NC(=O)c2ccc(-c3ccc4cc(C([NH-])=O)n(C(=O)CC(=O)[O-])c4c3)cc2)CC1 (3D coordinates assigned)
CN1CCC(NC(=O)c2ccc(-c3ccc4cc(C([NH-])=O)n(C(=O)CC(=O)[O-])c4c3)cc2)CC1 (nonaromatic ring conformer: 113.08758391897112 kcal/mol)

>  <smiles>  (5) 
CN1CCC(NC(=O)c2ccc(-c3ccc4cc(C(N)=O)n(C(=O)CC(=O)O)c4c3)cc2)CC1

>  <score_type>  (5) 
oracle

>  <origin>  (5) 
adg

>  <m_score__min__energy>  (5) 
-12.470000000000001

>  <m_primary>  (5) 
energy

$$$$
5:0
     RDKit          3D

 56 58  0  0  0  0  0  0  0  0999 V2000
    0.3630   21.8490  -27.1660 C   0  0  0  0  0  0  0  0  0  0  0  0
   -0.7550   22.5710  -27.7890 N   0  0  0  0  0  0  0  0  0  0  0  0
   -0.5390   23.9290  -28.2260 C   0  0  0  0  0  0  0  0  0  0  0  0
    0.4650   24.2040  -28.9380 O   0  0  0  0  0  0  0  0  0  0  0  0
   -1.4440   24.9380  -27.8560 O   0  0  0  0  0  0  0  0  0  0  0  0
   -1.6960   25.4140  -26.5260 C   0  0  0  0  0  0  0  0  0  0  0  0
   -1.2790   26.8910  -26.3900 C   0  0  0  0  0  0  0  0  0  0  0  0
   -3.2090   25.3010  -26.2830 C   0  0  0  0  0  0  0  0  0  0  0  0
   -0.9600   24.5440  -25.4890 C   0  0  0  0  0  0  0  0  0  0  0  0
   -2.0830   21.9370  -27.9360 C   0  0  2  0  0  0  0  0  0  0  0  0
   -1.9730   20.5620  -28.6150 C   0  0  0  0  0  0  0  0  0  0  0  0
   -2.5630   20.7170  -30.0130 C   0  0  0  0  0  0  0  0  0  0  0  0
   -3.2010   22.0210  -30.0360 N   0  0  0  0  0  0  0  0  0  0  0  0
   -3.8650   22.5520  -31.1920 C   0  0  0  0  0  0  0  0  0  0  0  0
   -3.2540   22.6300  -32.2930 O   0  0  0  0  0  0  0  0  0  0  0  0
   -5.2340   22.9650  -31.1170 N   0  0  0  0  0  0  0  0  0  0  0  0
   -5.7220   24.1920  -30.7870 C   0  0  0  0  0  0  0  0  0  0  0  0
   -4.9130   25.3910  -30.4860 C   0  0  0  0  0  0  0  0  0  0  0  0
   -3.5100   25.2910  -30.2560 N   0  0  0  0  0  0  0  0  0  0  0  0
   -5.4650   26.5220  -30.4390 O   0  0  0  0  0  0  0  0  0  0  0  0
   -7.1170   24.1730  -30.7930 C   0  0  0  0  0  0  0  0  0  0  0  0
   -7.4640   22.8860  -31.1430 C   0  0  0  0  0  0  0  0  0  0  0  0
   -8.7170   22.2980  -31.2830 C   0  0  0  0  0  0  0  0  0  0  0  0
   -8.7710   20.9370  -31.6330 C   0  0  0  0  0  0  0  0  0  0  0  0
   -7.5800   20.1940  -31.8490 C   0  0  0  0  0  0  0  0  0  0  0  0
   -7.6590   18.7230  -32.1680 C   0  0  0  0  0  0  0  0  0  0  0  0
   -8.9620   18.2640  -32.0570 F   0  0  0  0  0  0  0  0  0  0  0  0
   -7.2170   18.5130  -33.4600 F   0  0  0  0  0  0  0  0  0  0  0  0
   -6.8690   17.9960  -31.2950 F   0  0  0  0  0  0  0  0  0  0  0  0
   -6.3260   20.8230  -31.6740 C   0  0  0  0  0  0  0  0  0  0  0  0
   -6.3070   22.1790  -31.3340 C   0  0  0  0  0  0  0  0  0  0  0  0
   -3.0180   22.7790  -28.8110 C   0  0  0  0  0  0  0  0  0  0  0  0
    0.2726   21.9074  -26.0713 H   0  0  0  0  0  0  0  0  0  0  0  0
    0.3394   20.7951  -27.4802 H   0  0  0  0  0  0  0  0  0  0  0  0
    1.3139   22.3041  -27.4802 H   0  0  0  0  0  0  0  0  0  0  0  0
   -1.2046   27.1544  -25.3246 H   0  0  0  0  0  0  0  0  0  0  0  0
   -0.3030   27.0425  -26.8742 H   0  0  0  0  0  0  0  0  0  0  0  0
   -2.0317   27.5306  -26.8742 H   0  0  0  0  0  0  0  0  0  0  0  0
   -3.4065   25.2863  -25.2010 H   0  0  0  0  0  0  0  0  0  0  0  0
   -3.7187   26.1636  -26.7370 H   0  0  0  0  0  0  0  0  0  0  0  0
   -3.5849   24.3723  -26.7370 H   0  0  0  0  0  0  0  0  0  0  0  0
   -1.2357   24.8699  -24.4752 H   0  0  0  0  0  0  0  0  0  0  0  0
   -1.2451   23.4904  -25.6257 H   0  0  0  0  0  0  0  0  0  0  0  0
    0.1263   24.6506  -25.6257 H   0  0  0  0  0  0  0  0  0  0  0  0
   -2.4844   21.8435  -26.9161 H   0  0  0  0  0  0  0  0  0  0  0  0
   -0.9189   20.2542  -28.6800 H   0  0  0  0  0  0  0  0  0  0  0  0
   -2.5101   19.7925  -28.0412 H   0  0  0  0  0  0  0  0  0  0  0  0
   -1.7676   20.6673  -30.7712 H   0  0  0  0  0  0  0  0  0  0  0  0
   -3.2798   19.9138  -30.2391 H   0  0  0  0  0  0  0  0  0  0  0  0
   -3.0910   25.5910  -29.3480 H   0  0  0  0  0  0  0  0  0  0  0  0
   -7.7960   25.0082  -30.5664 H   0  0  0  0  0  0  0  0  0  0  0  0
   -9.6371   22.8797  -31.1248 H   0  0  0  0  0  0  0  0  0  0  0  0
   -9.7474   20.4420  -31.7408 H   0  0  0  0  0  0  0  0  0  0  0  0
   -5.3896   20.2602  -31.8020 H   0  0  0  0  0  0  0  0  0  0  0  0
   -2.5621   23.7560  -29.0293 H   0  0  0  0  0  0  0  0  0  0  0  0
   -3.9767   22.9745  -28.3083 H   0  0  0  0  0  0  0  0  0  0  0  0
  1  2  1  0
  2  3  1  0
  3  4  2  0
  3  5  1  0
  5  6  1  0
  6  7  1  0
  6  8  1  0
  6  9  1  0
  2 10  1  0
 10 11  1  0
 11 12  1  0
 12 13  1  0
 13 14  1  0
 14 15  2  0
 14 16  1  0
 16 17  1  0
 17 18  1  0
 18 19  1  0
 18 20  2  0
 17 21  2  0
 21 22  1  0
 22 23  2  0
 23 24  1  0
 24 25  2  0
 25 26  1  0
 26 27  1  0
 26 28  1  0
 26 29  1  0
 25 30  1  0
 30 31  2  0
 13 32  1  0
 32 10  1  0
 31 16  1  0
 31 22  1  0
  1 33  1  0
  1 34  1  0
  1 35  1  0
  7 36  1  0
  7 37  1  0
  7 38  1  0
  8 39  1  0
  8 40  1  0
  8 41  1  0
  9 42  1  0
  9 43  1  0
  9 44  1  0
 10 45  1  1
 11 46  1  0
 11 47  1  0
 12 48  1  0
 12 49  1  0
 19 50  1  0
 21 51  1  0
 23 52  1  0
 24 53  1  0
 30 54  1  0
 32 55  1  0
 32 56  1  0
M  CHG  1  19  -1
M  END
>  <UniqueID>  (6) 
6

>  <SMILES>  (6) 
CN(C(=O)OC(C)(C)C)[C@@H]1CCN(C(=O)n2c(C([NH-])=O)cc3ccc(C(F)(F)F)cc32)C1

>  <Energy>  (6) 
91.40685415155

>  <Genealogy>  (6) 
CN(C(=O)OC(C)(C)C)C1CCN(C(=O)n2c(C([NH-])=O)cc3ccc(C(F)(F)F)cc32)C1 (protonated)
CN(C(=O)OC(C)(C)C)[C@@H]1CCN(C(=O)n2c(C([NH-])=O)cc3ccc(C(F)(F)F)cc32)C1 (chirality)
CN(C(=O)OC(C)(C)C)[C@@H]1CCN(C(=O)n2c(C([NH-])=O)cc3ccc(C(F)(F)F)cc32)C1 (3D coordinates assigned)
CN(C(=O)OC(C)(C)C)[C@@H]1CCN(C(=O)n2c(C([NH-])=O)cc3ccc(C(F)(F)F)cc32)C1 (nonaromatic ring conformer: 91.40685415155 kcal/mol)

>  <smiles>  (6) 
CN(C(=O)OC(C)(C)C)C1CCN(C(=O)n2c(C(N)=O)cc3ccc(C(F)(F)F)cc32)C1

>  <score_type>  (6) 
oracle

>  <origin>  (6) 
adg

>  <m_score__min__energy>  (6) 
-11.91

>  <m_primary>  (6) 
energy

$$$$
6:0
     RDKit          3D

 51 53  0  0  0  0  0  0  0  0999 V2000
   -4.6070   14.4620  -32.0750 C   0  0  0  0  0  0  0  0  0  0  0  0
   -4.6420   15.7170  -32.8340 N   0  0  0  0  0  0  0  0  0  0  0  0
   -6.0280   16.0890  -33.1850 C   0  0  2  0  0  0  0  0  0  0  0  0
   -6.0890   16.6610  -34.6090 C   0  0  0  0  0  0  0  0  0  0  0  0
   -6.0460   18.1740  -34.4600 C   0  0  0  0  0  0  0  0  0  0  0  0
   -6.4220   18.4500  -33.0830 N   0  0  0  0  0  0  0  0  0  0  0  0
   -6.6580   19.7770  -32.5590 C   0  0  0  0  0  0  0  0  0  0  0  0
   -7.9840   20.2460  -32.3480 C   0  0  0  0  0  0  0  0  0  0  0  0
   -8.2220   21.5320  -31.8340 C   0  0  0  0  0  0  0  0  0  0  0  0
   -7.1240   22.3340  -31.5460 C   0  0  0  0  0  0  0  0  0  0  0  0
   -7.0690   23.6060  -31.0210 C   0  0  0  0  0  0  0  0  0  0  0  0
   -5.7120   23.9120  -30.9390 C   0  0  0  0  0  0  0  0  0  0  0  0
   -5.2010   25.2310  -30.5070 C   0  0  0  0  0  0  0  0  0  0  0  0
   -3.8970   25.6700  -30.8790 N   0  0  0  0  0  0  0  0  0  0  0  0
   -5.9430   25.9990  -29.8400 O   0  0  0  0  0  0  0  0  0  0  0  0
   -4.9590   22.8680  -31.3860 N   0  0  0  0  0  0  0  0  0  0  0  0
   -3.5290   22.7490  -31.4020 C   0  0  0  0  0  0  0  0  0  0  0  0
   -2.8610   23.1050  -30.3940 O   0  0  0  0  0  0  0  0  0  0  0  0
   -2.8990   22.2050  -32.5320 O   0  0  0  0  0  0  0  0  0  0  0  0
   -2.1810   20.9640  -32.5920 C   0  0  0  0  0  0  0  0  0  0  0  0
   -2.7810   20.1530  -33.7510 C   0  0  0  0  0  0  0  0  0  0  0  0
   -2.3610   20.1710  -31.2840 C   0  0  0  0  0  0  0  0  0  0  0  0
   -0.6880   21.2140  -32.8770 C   0  0  0  0  0  0  0  0  0  0  0  0
   -5.8390   21.9120  -31.7570 C   0  0  0  0  0  0  0  0  0  0  0  0
   -5.5700   20.6290  -32.2470 C   0  0  0  0  0  0  0  0  0  0  0  0
   -6.5370   17.2320  -32.2920 C   0  0  0  0  0  0  0  0  0  0  0  0
   -4.6132   14.6847  -30.9978 H   0  0  0  0  0  0  0  0  0  0  0  0
   -5.4886   13.8551  -32.3291 H   0  0  0  0  0  0  0  0  0  0  0  0
   -3.6930   13.9052  -32.3291 H   0  0  0  0  0  0  0  0  0  0  0  0
   -4.2450   16.4440  -32.1940 H   0  0  0  0  0  0  0  0  0  0  0  0
   -6.6284   15.1745  -33.0700 H   0  0  0  0  0  0  0  0  0  0  0  0
   -5.2283   16.3111  -35.1978 H   0  0  0  0  0  0  0  0  0  0  0  0
   -6.9994   16.3353  -35.1334 H   0  0  0  0  0  0  0  0  0  0  0  0
   -5.0321   18.5497  -34.6624 H   0  0  0  0  0  0  0  0  0  0  0  0
   -6.7242   18.6691  -35.1706 H   0  0  0  0  0  0  0  0  0  0  0  0
   -8.8352   19.5929  -32.5906 H   0  0  0  0  0  0  0  0  0  0  0  0
   -9.2471   21.8933  -31.6646 H   0  0  0  0  0  0  0  0  0  0  0  0
   -7.9158   24.2444  -30.7287 H   0  0  0  0  0  0  0  0  0  0  0  0
   -3.0450   25.2620  -30.4340 H   0  0  0  0  0  0  0  0  0  0  0  0
   -3.3894   19.3306  -33.3467 H   0  0  0  0  0  0  0  0  0  0  0  0
   -3.4136   20.8081  -34.3680 H   0  0  0  0  0  0  0  0  0  0  0  0
   -1.9695   19.7397  -34.3680 H   0  0  0  0  0  0  0  0  0  0  0  0
   -2.2089   20.8411  -30.4250 H   0  0  0  0  0  0  0  0  0  0  0  0
   -3.3772   19.7516  -31.2464 H   0  0  0  0  0  0  0  0  0  0  0  0
   -1.6255   19.3539  -31.2464 H   0  0  0  0  0  0  0  0  0  0  0  0
   -0.1434   21.3052  -31.9257 H   0  0  0  0  0  0  0  0  0  0  0  0
   -0.2789   20.3719  -33.4544 H   0  0  0  0  0  0  0  0  0  0  0  0
   -0.5756   22.1435  -33.4544 H   0  0  0  0  0  0  0  0  0  0  0  0
   -4.5334   20.2886  -32.3872 H   0  0  0  0  0  0  0  0  0  0  0  0
   -5.9219   17.3083  -31.3832 H   0  0  0  0  0  0  0  0  0  0  0  0
   -7.5754   17.0586  -31.9730 H   0  0  0  0  0  0  0  0  0  0  0  0
  1  2  1  0
  2  3  1  0
  3  4  1  0
  4  5  1  0
  5  6  1  0
  6  7  1  0
  7  8  2  0
  8  9  1  0
  9 10  2  0
 10 11  1  0
 11 12  2  0
 12 13  1  0
 13 14  1  0
 13 15  2  0
 12 16  1  0
 16 17  1  0
 17 18  2  0
 17 19  1  0
 19 20  1  0
 20 21  1  0
 20 22  1  0
 20 23  1  0
 16 24  1  0
 24 25  2  0
  6 26  1  0
 26  3  1  0
 25  7  1  0
 24 10  1  0
  1 27  1  0
  1 28  1  0
  1 29  1  0
  2 30  1  0
  3 31  1  6
  4 32  1  0
  4 33  1  0
  5 34  1  0
  5 35  1  0
  8 36  1  0
  9 37  1  0
 11 38  1  0
 14 39  1  0
 21 40  1  0
 21 41  1  0
 21 42  1  0
 22 43  1  0
 22 44  1  0
 22 45  1  0
 23 46  1  0
 23 47  1  0
 23 48  1  0
 25 49  1  0
 26 50  1  0
 26 51  1  0
M  CHG  1  14  -1
M  END
>  <UniqueID>  (7) 
7

>  <SMILES>  (7) 
CN[C@@H]1CCN(c2ccc3cc(C([NH-])=O)n(C(=O)OC(C)(C)C)c3c2)C1

>  <Energy>  (7) 
88.42415982765459

>  <Genealogy>  (7) 
CN[C@@H]1CCN(c2ccc3cc(C([NH-])=O)n(C(=O)OC(C)(C)C)c3c2)C1 (protonated)
CN[C@@H]1CCN(c2ccc3cc(C([NH-])=O)n(C(=O)OC(C)(C)C)c3c2)C1 (3D coordinates assigned)
CN[C@@H]1CCN(c2ccc3cc(C([NH-])=O)n(C(=O)OC(C)(C)C)c3c2)C1 (nonaromatic ring conformer: 88.42415982765459 kcal/mol)

>  <smiles>  (7) 
CN[C@@H]1CCN(c2ccc3cc(C(N)=O)n(C(=O)OC(C)(C)C)c3c2)C1

>  <score_type>  (7) 
oracle

>  <origin>  (7) 
adg

>  <m_score__min__energy>  (7) 
-11

>  <m_primary>  (7) 
energy

$$$$
7:0
     RDKit          3D

 37 38  0  0  0  0  0  0  0  0999 V2000
   -4.9210   15.4040  -32.3150 C   0  0  0  0  0  0  0  0  0  0  0  0
   -4.9640   16.3710  -33.4940 C   0  0  0  0  0  0  0  0  0  0  0  0
   -5.8250   17.5620  -33.1740 C   0  0  0  0  0  0  0  0  0  0  0  0
   -7.2280   17.4090  -33.0410 C   0  0  0  0  0  0  0  0  0  0  0  0
   -8.0410   18.5110  -32.7260 C   0  0  0  0  0  0  0  0  0  0  0  0
   -7.4220   19.7430  -32.5300 C   0  0  0  0  0  0  0  0  0  0  0  0
   -7.9720   20.9720  -32.2460 C   0  0  0  0  0  0  0  0  0  0  0  0
   -6.8930   21.8470  -32.1650 C   0  0  0  0  0  0  0  0  0  0  0  0
   -7.0300   23.2750  -31.8130 C   0  0  0  0  0  0  0  0  0  0  0  0
   -5.8850   24.1130  -31.6600 N   0  0  0  0  0  0  0  0  0  0  0  0
   -8.1770   23.7490  -31.5880 O   0  0  0  0  0  0  0  0  0  0  0  0
   -5.7230   21.1920  -32.4030 N   0  0  0  0  0  0  0  0  0  0  0  0
   -4.4080   21.7620  -32.5160 C   0  0  0  0  0  0  0  0  0  0  0  0
   -4.1390   22.5230  -33.4860 O   0  0  0  0  0  0  0  0  0  0  0  0
   -3.4390   21.4650  -31.5470 O   0  0  0  0  0  0  0  0  0  0  0  0
   -3.5440   21.7660  -30.1840 C   0  0  0  0  0  0  0  0  0  0  0  0
   -2.8540   21.1480  -29.3260 O   0  0  0  0  0  0  0  0  0  0  0  0
   -4.4360   22.7670  -29.7850 O   0  0  0  0  0  0  0  0  0  0  0  0
   -4.0710   23.8480  -28.9310 C   0  0  0  0  0  0  0  0  0  0  0  0
   -3.3500   24.9040  -29.7070 C   0  0  0  0  0  0  0  0  0  0  0  0
   -2.2100   25.2940  -29.3410 O   0  0  0  0  0  0  0  0  0  0  0  0
   -3.9270   25.4400  -30.8510 O   0  0  0  0  0  0  0  0  0  0  0  0
   -6.0630   19.9020  -32.6230 C   0  0  0  0  0  0  0  0  0  0  0  0
   -5.2330   18.8260  -32.9590 C   0  0  0  0  0  0  0  0  0  0  0  0
   -4.9463   15.9723  -31.3735 H   0  0  0  0  0  0  0  0  0  0  0  0
   -5.7901   14.7313  -32.3606 H   0  0  0  0  0  0  0  0  0  0  0  0
   -3.9956   14.8111  -32.3606 H   0  0  0  0  0  0  0  0  0  0  0  0
   -3.9428   16.7134  -33.7176 H   0  0  0  0  0  0  0  0  0  0  0  0
   -5.3908   15.8496  -34.3635 H   0  0  0  0  0  0  0  0  0  0  0  0
   -7.6844   16.4187  -33.1857 H   0  0  0  0  0  0  0  0  0  0  0  0
   -9.1322   18.4039  -32.6370 H   0  0  0  0  0  0  0  0  0  0  0  0
   -9.0372   21.2116  -32.1117 H   0  0  0  0  0  0  0  0  0  0  0  0
   -4.9200   23.7150  -31.6690 H   0  0  0  0  0  0  0  0  0  0  0  0
   -6.0030   25.1300  -31.4500 H   0  0  0  0  0  0  0  0  0  0  0  0
   -4.9790   24.2812  -28.4862 H   0  0  0  0  0  0  0  0  0  0  0  0
   -3.4066   23.4697  -28.1401 H   0  0  0  0  0  0  0  0  0  0  0  0
   -4.1455   18.9618  -33.0533 H   0  0  0  0  0  0  0  0  0  0  0  0
  1  2  1  0
  2  3  1  0
  3  4  2  0
  4  5  1  0
  5  6  2  0
  6  7  1  0
  7  8  2  0
  8  9  1  0
  9 10  1  0
  9 11  2  0
  8 12  1  0
 12 13  1  0
 13 14  2  0
 13 15  1  0
 15 16  1  0
 16 17  2  0
 16 18  1  0
 18 19  1  0
 19 20  1  0
 20 21  2  0
 20 22  1  0
 12 23  1  0
 23 24  2  0
 24  3  1  0
 23  6  1  0
  1 25  1  0
  1 26  1  0
  1 27  1  0
  2 28  1  0
  2 29  1  0
  4 30  1  0
  5 31  1  0
  7 32  1  0
 10 33  1  0
 10 34  1  0
 19 35  1  0
 19 36  1  0
 24 37  1  0
M  CHG  1  22  -1
M  END
>  <UniqueID>  (8) 
8

>  <SMILES>  (8) 
CCc1ccc2cc(C(N)=O)n(C(=O)OC(=O)OCC(=O)[O-])c2c1

>  <Energy>  (8) 
72.1861560665495

>  <Genealogy>  (8) 
CCc1ccc2cc(C(N)=O)n(C(=O)OC(=O)OCC(=O)[O-])c2c1 (protonated)
CCc1ccc2cc(C(N)=O)n(C(=O)OC(=O)OCC(=O)[O-])c2c1 (3D coordinates assigned)
CCc1ccc2cc(C(N)=O)n(C(=O)OC(=O)OCC(=O)[O-])c2c1 (optimized conformer: 72.1861560665495 kcal/mol)

>  <smiles>  (8) 
CCc1ccc2cc(C(N)=O)n(C(=O)OC(=O)OCC(=O)O)c2c1

>  <score_type>  (8) 
oracle

>  <origin>  (8) 
adg

>  <m_score__min__energy>  (8) 
-10.94

>  <m_primary>  (8) 
energy

$$$$
8:0
     RDKit          3D

 49 51  0  0  0  0  0  0  0  0999 V2000
   -0.8670   26.5510  -28.1990 C   0  0  0  0  0  0  0  0  0  0  0  0
   -1.5730   25.5730  -29.0140 N   0  0  0  0  0  0  0  0  0  0  0  0
   -1.6910   24.1960  -28.6450 C   0  0  0  0  0  0  0  0  0  0  0  0
   -1.9710   23.8750  -27.4570 O   0  0  0  0  0  0  0  0  0  0  0  0
   -1.4480   23.1310  -29.6700 C   0  0  0  0  0  0  0  0  0  0  0  0
   -2.5330   23.0690  -30.5940 O   0  0  0  0  0  0  0  0  0  0  0  0
   -3.4540   22.0150  -30.6370 C   0  0  0  0  0  0  0  0  0  0  0  0
   -3.0770   20.8320  -30.4120 O   0  0  0  0  0  0  0  0  0  0  0  0
   -4.8300   22.2800  -30.9580 N   0  0  0  0  0  0  0  0  0  0  0  0
   -5.5790   23.3550  -30.5780 C   0  0  0  0  0  0  0  0  0  0  0  0
   -5.0670   24.5560  -29.8800 C   0  0  0  0  0  0  0  0  0  0  0  0
   -3.8930   25.2250  -30.3440 N   0  0  0  0  0  0  0  0  0  0  0  0
   -5.6450   24.9820  -28.8460 O   0  0  0  0  0  0  0  0  0  0  0  0
   -6.8900   23.2180  -31.0270 C   0  0  0  0  0  0  0  0  0  0  0  0
   -6.9200   22.0180  -31.6990 C   0  0  0  0  0  0  0  0  0  0  0  0
   -7.9730   21.3860  -32.3430 C   0  0  0  0  0  0  0  0  0  0  0  0
   -7.7310   20.1390  -32.9400 C   0  0  0  0  0  0  0  0  0  0  0  0
   -6.4440   19.5190  -32.8820 C   0  0  0  0  0  0  0  0  0  0  0  0
   -6.2050   18.2130  -33.4970 N   0  0  0  0  0  0  0  0  0  0  0  0
   -4.9470   17.9990  -34.2460 C   0  0  0  0  0  0  0  0  0  0  0  0
   -4.8290   16.6310  -34.9310 C   0  0  0  0  0  0  0  0  0  0  0  0
   -5.4260   15.5440  -34.1470 N   0  0  0  0  0  0  0  0  0  0  0  0
   -4.7180   15.2910  -32.8790 C   0  0  0  0  0  0  0  0  0  0  0  0
   -6.8580   15.7970  -33.9620 C   0  0  0  0  0  0  0  0  0  0  0  0
   -7.1510   17.1090  -33.2200 C   0  0  0  0  0  0  0  0  0  0  0  0
   -5.3990   20.2190  -32.2120 C   0  0  0  0  0  0  0  0  0  0  0  0
   -5.6680   21.4710  -31.6440 C   0  0  0  0  0  0  0  0  0  0  0  0
   -1.0290   26.3266  -27.1344 H   0  0  0  0  0  0  0  0  0  0  0  0
    0.2090   26.5070  -28.4234 H   0  0  0  0  0  0  0  0  0  0  0  0
   -1.2475   27.5584  -28.4234 H   0  0  0  0  0  0  0  0  0  0  0  0
   -0.5205   23.3589  -30.2157 H   0  0  0  0  0  0  0  0  0  0  0  0
   -1.3596   22.1604  -29.1600 H   0  0  0  0  0  0  0  0  0  0  0  0
   -3.4070   24.9270  -31.2170 H   0  0  0  0  0  0  0  0  0  0  0  0
   -3.5180   26.0480  -29.8210 H   0  0  0  0  0  0  0  0  0  0  0  0
   -7.7237   23.9196  -30.8765 H   0  0  0  0  0  0  0  0  0  0  0  0
   -8.9700   21.8490  -32.3848 H   0  0  0  0  0  0  0  0  0  0  0  0
   -8.5508   19.6267  -33.4648 H   0  0  0  0  0  0  0  0  0  0  0  0
   -4.8737   18.7767  -35.0205 H   0  0  0  0  0  0  0  0  0  0  0  0
   -4.1349   18.0449  -33.5055 H   0  0  0  0  0  0  0  0  0  0  0  0
   -5.3382   16.6815  -35.9048 H   0  0  0  0  0  0  0  0  0  0  0  0
   -3.7572   16.4085  -35.0392 H   0  0  0  0  0  0  0  0  0  0  0  0
   -5.3819   15.5283  -32.0347 H   0  0  0  0  0  0  0  0  0  0  0  0
   -4.4241   14.2322  -32.8281 H   0  0  0  0  0  0  0  0  0  0  0  0
   -3.8196   15.9237  -32.8281 H   0  0  0  0  0  0  0  0  0  0  0  0
   -7.3357   15.8413  -34.9519 H   0  0  0  0  0  0  0  0  0  0  0  0
   -7.2572   14.9777  -33.3461 H   0  0  0  0  0  0  0  0  0  0  0  0
   -8.1588   17.4443  -33.5061 H   0  0  0  0  0  0  0  0  0  0  0  0
   -7.0517   16.8829  -32.1481 H   0  0  0  0  0  0  0  0  0  0  0  0
   -4.3924   19.7811  -32.1416 H   0  0  0  0  0  0  0  0  0  0  0  0
  1  2  1  0
  2  3  1  0
  3  4  2  0
  3  5  1  0
  5  6  1  0
  6  7  1  0
  7  8  2  0
  7  9  1  0
  9 10  1  0
 10 11  1  0
 11 12  1  0
 11 13  2  0
 10 14  2  0
 14 15  1  0
 15 16  2  0
 16 17  1  0
 17 18  2  0
 18 19  1  0
 19 20  1  0
 20 21  1  0
 21 22  1  0
 22 23  1  0
 22 24  1  0
 24 25  1  0
 18 26  1  0
 26 27  2  0
 27  9  1  0
 27 15  1  0
 25 19  1  0
  1 28  1  0
  1 29  1  0
  1 30  1  0
  5 31  1  0
  5 32  1  0
 12 33  1  0
 12 34  1  0
 14 35  1  0
 16 36  1  0
 17 37  1  0
 20 38  1  0
 20 39  1  0
 21 40  1  0
 21 41  1  0
 23 42  1  0
 23 43  1  0
 23 44  1  0
 24 45  1  0
 24 46  1  0
 25 47  1  0
 25 48  1  0
 26 49  1  0
M  CHG  1   2  -1
M  END
>  <UniqueID>  (9) 
9

>  <SMILES>  (9) 
C[N-]C(=O)COC(=O)n1c(C(N)=O)cc2ccc(N3CCN(C)CC3)cc21

>  <Energy>  (9) 
94.95858602870808

>  <Genealogy>  (9) 
C[N-]C(=O)COC(=O)n1c(C(N)=O)cc2ccc(N3CCN(C)CC3)cc21 (protonated)
C[N-]C(=O)COC(=O)n1c(C(N)=O)cc2ccc(N3CCN(C)CC3)cc21 (3D coordinates assigned)
C[N-]C(=O)COC(=O)n1c(C(N)=O)cc2ccc(N3CCN(C)CC3)cc21 (nonaromatic ring conformer: 94.95858602870808 kcal/mol)

>  <smiles>  (9) 
CNC(=O)COC(=O)n1c(C(N)=O)cc2ccc(N3CCN(C)CC3)cc21

>  <score_type>  (9) 
oracle

>  <origin>  (9) 
adg

>  <m_score__min__energy>  (9) 
-11.25

>  <m_primary>  (9) 
energy

$$$$
9:0
     RDKit          3D

 37 39  0  0  0  0  0  0  0  0999 V2000
   -1.8210   22.6500  -29.4040 C   0  0  0  0  0  0  0  0  0  0  0  0
   -3.1360   22.6760  -29.6200 C   0  0  0  0  0  0  0  0  0  0  0  0
   -4.2640   22.6800  -28.2210 S   0  0  0  0  0  0  0  0  0  0  0  0
   -3.5370   24.1750  -27.4870 C   0  0  0  0  0  0  0  0  0  0  0  0
   -3.6770   22.7210  -30.9910 C   0  0  0  0  0  0  0  0  0  0  0  0
   -2.9060   22.6170  -31.9780 O   0  0  0  0  0  0  0  0  0  0  0  0
   -5.0760   22.9280  -31.2020 N   0  0  0  0  0  0  0  0  0  0  0  0
   -5.8110   24.0190  -30.8400 C   0  0  0  0  0  0  0  0  0  0  0  0
   -5.2650   25.2850  -30.3030 C   0  0  0  0  0  0  0  0  0  0  0  0
   -3.8810   25.5890  -30.4110 N   0  0  0  0  0  0  0  0  0  0  0  0
   -6.0350   26.1200  -29.7630 O   0  0  0  0  0  0  0  0  0  0  0  0
   -7.1690   23.7860  -31.0490 C   0  0  0  0  0  0  0  0  0  0  0  0
   -7.2400   22.5070  -31.5530 C   0  0  0  0  0  0  0  0  0  0  0  0
   -8.3520   21.7500  -31.9160 C   0  0  0  0  0  0  0  0  0  0  0  0
   -8.1330   20.4520  -32.4030 C   0  0  0  0  0  0  0  0  0  0  0  0
   -6.8170   19.9350  -32.5310 C   0  0  0  0  0  0  0  0  0  0  0  0
   -6.5970   18.5800  -33.0930 C   0  0  0  0  0  0  0  0  0  0  0  0
   -5.6060   18.3460  -34.0630 C   0  0  0  0  0  0  0  0  0  0  0  0
   -5.4650   17.1130  -34.6150 N   0  0  0  0  0  0  0  0  0  0  0  0
   -6.2670   16.0890  -34.2370 C   0  0  0  0  0  0  0  0  0  0  0  0
   -7.2220   16.2830  -33.2890 N   0  0  0  0  0  0  0  0  0  0  0  0
   -7.4040   17.5000  -32.7130 C   0  0  0  0  0  0  0  0  0  0  0  0
   -5.7160   20.7350  -32.1420 C   0  0  0  0  0  0  0  0  0  0  0  0
   -5.9620   22.0150  -31.6430 C   0  0  0  0  0  0  0  0  0  0  0  0
   -1.1238   22.6474  -30.2548 H   0  0  0  0  0  0  0  0  0  0  0  0
   -1.4329   22.6312  -28.3749 H   0  0  0  0  0  0  0  0  0  0  0  0
   -3.5735   24.0999  -26.3902 H   0  0  0  0  0  0  0  0  0  0  0  0
   -2.4910   24.2722  -27.8133 H   0  0  0  0  0  0  0  0  0  0  0  0
   -4.1064   25.0578  -27.8133 H   0  0  0  0  0  0  0  0  0  0  0  0
   -3.4970   26.0490  -31.2660 H   0  0  0  0  0  0  0  0  0  0  0  0
   -8.0037   24.4752  -30.8535 H   0  0  0  0  0  0  0  0  0  0  0  0
   -9.3698   22.1570  -31.8238 H   0  0  0  0  0  0  0  0  0  0  0  0
   -8.9920   19.8273  -32.6892 H   0  0  0  0  0  0  0  0  0  0  0  0
   -4.9420   19.1652  -34.3761 H   0  0  0  0  0  0  0  0  0  0  0  0
   -6.1453   15.0978  -34.6983 H   0  0  0  0  0  0  0  0  0  0  0  0
   -8.1839   17.6370  -31.9494 H   0  0  0  0  0  0  0  0  0  0  0  0
   -4.6874   20.3556  -32.2312 H   0  0  0  0  0  0  0  0  0  0  0  0
  1  2  2  0
  2  3  1  0
  3  4  1  0
  2  5  1  0
  5  6  2  0
  5  7  1  0
  7  8  1  0
  8  9  1  0
  9 10  1  0
  9 11  2  0
  8 12  2  0
 12 13  1  0
 13 14  2  0
 14 15  1  0
 15 16  2  0
 16 17  1  0
 17 18  2  0
 18 19  1  0
 19 20  2  0
 20 21  1  0
 21 22  2  0
 16 23  1  0
 23 24  2  0
 24  7  1  0
 24 13  1  0
 22 17  1  0
  1 25  1  0
  1 26  1  0
  4 27  1  0
  4 28  1  0
  4 29  1  0
 10 30  1  0
 12 31  1  0
 14 32  1  0
 15 33  1  0
 18 34  1  0
 20 35  1  0
 22 36  1  0
 23 37  1  0
M  CHG  1  10  -1
M  END
>  <UniqueID>  (10) 
10

>  <SMILES>  (10) 
C=C(SC)C(=O)n1c(C([NH-])=O)cc2ccc(-c3cncnc3)cc21

>  <Energy>  (10) 
84.54137101306594

>  <Genealogy>  (10) 
C=C(SC)C(=O)n1c(C([NH-])=O)cc2ccc(-c3cncnc3)cc21 (protonated)
C=C(SC)C(=O)n1c(C([NH-])=O)cc2ccc(-c3cncnc3)cc21 (3D coordinates assigned)
C=C(SC)C(=O)n1c(C([NH-])=O)cc2ccc(-c3cncnc3)cc21 (optimized conformer: 84.54137101306594 kcal/mol)

>  <smiles>  (10) 
C=C(SC)C(=O)n1c(C(N)=O)cc2ccc(-c3cncnc3)cc21

>  <score_type>  (10) 
oracle

>  <origin>  (10) 
adg

>  <m_score__min__energy>  (10) 
-11.07

>  <m_primary>  (10) 
energy

$$$$
10:0
     RDKit          3D

 48 49  0  0  0  0  0  0  0  0999 V2000
   -0.9610   26.4390  -26.7810 C   0  0  0  0  0  0  0  0  0  0  0  0
   -1.1600   25.9930  -28.2240 C   0  0  0  0  0  0  0  0  0  0  0  0
   -2.3730   25.2560  -28.3600 O   0  0  0  0  0  0  0  0  0  0  0  0
   -2.8240   24.3350  -27.4080 C   0  0  0  0  0  0  0  0  0  0  0  0
   -3.9590   24.4680  -26.8720 O   0  0  0  0  0  0  0  0  0  0  0  0
   -1.9730   23.1460  -27.0840 C   0  0  0  0  0  0  0  0  0  0  0  0
   -1.6580   22.3790  -28.2980 N   0  0  0  0  0  0  0  0  0  0  0  0
   -0.5940   21.3720  -28.2650 C   0  0  0  0  0  0  0  0  0  0  0  0
   -2.4540   22.5410  -29.4870 C   0  0  0  0  0  0  0  0  0  0  0  0
   -1.9900   23.1830  -30.4700 O   0  0  0  0  0  0  0  0  0  0  0  0
   -3.7380   21.9830  -29.5420 O   0  0  0  0  0  0  0  0  0  0  0  0
   -4.4340   21.6510  -30.7100 C   0  0  0  0  0  0  0  0  0  0  0  0
   -3.9290   20.8710  -31.5620 O   0  0  0  0  0  0  0  0  0  0  0  0
   -5.7450   22.1990  -30.9310 N   0  0  0  0  0  0  0  0  0  0  0  0
   -6.1290   23.5050  -30.8450 C   0  0  0  0  0  0  0  0  0  0  0  0
   -5.2930   24.6210  -30.3620 C   0  0  0  0  0  0  0  0  0  0  0  0
   -5.1370   24.8790  -28.9650 N   0  0  0  0  0  0  0  0  0  0  0  0
   -4.7550   25.3970  -31.1960 O   0  0  0  0  0  0  0  0  0  0  0  0
   -7.4610   23.6530  -31.2220 C   0  0  0  0  0  0  0  0  0  0  0  0
   -7.8940   22.3840  -31.5310 C   0  0  0  0  0  0  0  0  0  0  0  0
   -9.1430   21.9450  -31.9630 C   0  0  0  0  0  0  0  0  0  0  0  0
   -9.3040   20.5750  -32.2300 C   0  0  0  0  0  0  0  0  0  0  0  0
   -8.2150   19.6790  -32.0850 C   0  0  0  0  0  0  0  0  0  0  0  0
   -8.3960   18.2110  -32.3590 C   0  0  0  0  0  0  0  0  0  0  0  0
   -7.0460   17.5080  -32.4540 C   0  0  0  0  0  0  0  0  0  0  0  0
   -6.9650   20.1600  -31.6390 C   0  0  0  0  0  0  0  0  0  0  0  0
   -6.8390   21.5250  -31.3520 C   0  0  0  0  0  0  0  0  0  0  0  0
   -1.3134   25.6492  -26.1012 H   0  0  0  0  0  0  0  0  0  0  0  0
    0.1072   26.6289  -26.5999 H   0  0  0  0  0  0  0  0  0  0  0  0
   -1.5332   27.3609  -26.5999 H   0  0  0  0  0  0  0  0  0  0  0  0
   -1.2012   26.8796  -28.8738 H   0  0  0  0  0  0  0  0  0  0  0  0
   -0.3185   25.3466  -28.5141 H   0  0  0  0  0  0  0  0  0  0  0  0
   -1.0357   23.4893  -26.6217 H   0  0  0  0  0  0  0  0  0  0  0  0
   -2.5275   22.4955  -26.3917 H   0  0  0  0  0  0  0  0  0  0  0  0
   -0.3447   21.1361  -27.2199 H   0  0  0  0  0  0  0  0  0  0  0  0
   -0.9366   20.4597  -28.7752 H   0  0  0  0  0  0  0  0  0  0  0  0
    0.2981   21.7643  -28.7752 H   0  0  0  0  0  0  0  0  0  0  0  0
   -4.5120   25.6500  -28.6420 H   0  0  0  0  0  0  0  0  0  0  0  0
   -5.7050   24.3640  -28.2560 H   0  0  0  0  0  0  0  0  0  0  0  0
   -8.0431   24.5854  -31.2639 H   0  0  0  0  0  0  0  0  0  0  0  0
   -9.9781   22.6494  -32.0913 H   0  0  0  0  0  0  0  0  0  0  0  0
  -10.2837   20.1943  -32.5544 H   0  0  0  0  0  0  0  0  0  0  0  0
   -8.9804   17.7611  -31.5429 H   0  0  0  0  0  0  0  0  0  0  0  0
   -8.9233   18.0933  -33.3172 H   0  0  0  0  0  0  0  0  0  0  0  0
   -6.6641   17.3091  -31.4418 H   0  0  0  0  0  0  0  0  0  0  0  0
   -7.1649   16.5573  -32.9944 H   0  0  0  0  0  0  0  0  0  0  0  0
   -6.3352   18.1505  -32.9944 H   0  0  0  0  0  0  0  0  0  0  0  0
   -6.1098   19.4785  -31.5197 H   0  0  0  0  0  0  0  0  0  0  0  0
  1  2  1  0
  2  3  1  0
  3  4  1  0
  4  5  2  0
  4  6  1  0
  6  7  1  0
  7  8  1  0
  7  9  1  0
  9 10  2  0
  9 11  1  0
 11 12  1  0
 12 13  2  0
 12 14  1  0
 14 15  1  0
 15 16  1  0
 16 17  1  0
 16 18  2  0
 15 19  2  0
 19 20  1  0
 20 21  2  0
 21 22  1  0
 22 23  2  0
 23 24  1  0
 24 25  1  0
 23 26  1  0
 26 27  2  0
 27 14  1  0
 27 20  1  0
  1 28  1  0
  1 29  1  0
  1 30  1  0
  2 31  1  0
  2 32  1  0
  6 33  1  0
  6 34  1  0
  8 35  1  0
  8 36  1  0
  8 37  1  0
 17 38  1  0
 17 39  1  0
 19 40  1  0
 21 41  1  0
 22 42  1  0
 24 43  1  0
 24 44  1  0
 25 45  1  0
 25 46  1  0
 25 47  1  0
 26 48  1  0
M  END
>  <UniqueID>  (11) 
11

>  <SMILES>  (11) 
CCOC(=O)CN(C)C(=O)OC(=O)n1c(C(N)=O)cc2ccc(CC)cc21

>  <Energy>  (11) 
74.53076101447286

>  <Genealogy>  (11) 
CCOC(=O)CN(C)C(=O)OC(=O)n1c(C(N)=O)cc2ccc(CC)cc21 (3D coordinates assigned)
CCOC(=O)CN(C)C(=O)OC(=O)n1c(C(N)=O)cc2ccc(CC)cc21 (optimized conformer: 74.53076101447286 kcal/mol)

>  <smiles>  (11) 
CCOC(=O)CN(C)C(=O)OC(=O)n1c(C(N)=O)cc2ccc(CC)cc21

>  <score_type>  (11) 
oracle

>  <origin>  (11) 
adg

>  <m_score__min__energy>  (11) 
-8.7899999999999991

>  <m_primary>  (11) 
energy

$$$$
11:0
     RDKit          3D

 36 38  0  0  0  0  0  0  0  0999 V2000
   -4.1540   22.9790  -27.9310 C   0  0  0  0  0  0  0  0  0  0  0  0
   -3.5690   21.9380  -28.7020 O   0  0  0  0  0  0  0  0  0  0  0  0
   -3.5870   21.9350  -30.1000 C   0  0  0  0  0  0  0  0  0  0  0  0
   -3.0530   20.9890  -30.7440 O   0  0  0  0  0  0  0  0  0  0  0  0
   -4.2120   23.0540  -30.8190 C   0  0  0  0  0  0  0  0  0  0  0  0
   -3.5070   24.0370  -31.1660 O   0  0  0  0  0  0  0  0  0  0  0  0
   -5.6090   23.0270  -31.1570 N   0  0  0  0  0  0  0  0  0  0  0  0
   -6.5550   23.9460  -30.8210 C   0  0  0  0  0  0  0  0  0  0  0  0
   -6.3030   25.2430  -30.1600 C   0  0  0  0  0  0  0  0  0  0  0  0
   -5.1680   26.0420  -30.4990 N   0  0  0  0  0  0  0  0  0  0  0  0
   -7.1280   25.6750  -29.3120 O   0  0  0  0  0  0  0  0  0  0  0  0
   -7.8230   23.5010  -31.1880 C   0  0  0  0  0  0  0  0  0  0  0  0
   -7.6220   22.2680  -31.7670 C   0  0  0  0  0  0  0  0  0  0  0  0
   -8.5410   21.3620  -32.2860 C   0  0  0  0  0  0  0  0  0  0  0  0
   -8.0560   20.1360  -32.7710 C   0  0  0  0  0  0  0  0  0  0  0  0
   -6.6700   19.8290  -32.7180 C   0  0  0  0  0  0  0  0  0  0  0  0
   -6.1720   18.5230  -33.2190 C   0  0  0  0  0  0  0  0  0  0  0  0
   -5.6640   18.3870  -34.5210 C   0  0  0  0  0  0  0  0  0  0  0  0
   -5.2140   17.1830  -34.9570 N   0  0  0  0  0  0  0  0  0  0  0  0
   -5.2480   16.0900  -34.1510 C   0  0  0  0  0  0  0  0  0  0  0  0
   -5.7350   16.1920  -32.8880 N   0  0  0  0  0  0  0  0  0  0  0  0
   -6.1930   17.3780  -32.4080 C   0  0  0  0  0  0  0  0  0  0  0  0
   -5.7700   20.7780  -32.1770 C   0  0  0  0  0  0  0  0  0  0  0  0
   -6.2790   22.0010  -31.7280 C   0  0  0  0  0  0  0  0  0  0  0  0
   -4.0293   22.7571  -26.8608 H   0  0  0  0  0  0  0  0  0  0  0  0
   -3.6597   23.9328  -28.1677 H   0  0  0  0  0  0  0  0  0  0  0  0
   -5.2257   23.0527  -28.1677 H   0  0  0  0  0  0  0  0  0  0  0  0
   -4.9790   26.9270  -29.9780 H   0  0  0  0  0  0  0  0  0  0  0  0
   -4.5740   25.8180  -31.3260 H   0  0  0  0  0  0  0  0  0  0  0  0
   -8.7806   24.0232  -31.0456 H   0  0  0  0  0  0  0  0  0  0  0  0
   -9.6149   21.5983  -32.3158 H   0  0  0  0  0  0  0  0  0  0  0  0
   -8.7583   19.4045  -33.1972 H   0  0  0  0  0  0  0  0  0  0  0  0
   -5.6306   19.2595  -35.1901 H   0  0  0  0  0  0  0  0  0  0  0  0
   -4.8807   15.1218  -34.5220 H   0  0  0  0  0  0  0  0  0  0  0  0
   -6.5813   17.4406  -31.3807 H   0  0  0  0  0  0  0  0  0  0  0  0
   -4.6941   20.5586  -32.1111 H   0  0  0  0  0  0  0  0  0  0  0  0
  1  2  1  0
  2  3  1  0
  3  4  2  0
  3  5  1  0
  5  6  2  0
  5  7  1  0
  7  8  1  0
  8  9  1  0
  9 10  1  0
  9 11  2  0
  8 12  2  0
 12 13  1  0
 13 14  2  0
 14 15  1  0
 15 16  2  0
 16 17  1  0
 17 18  2  0
 18 19  1  0
 19 20  2  0
 20 21  1  0
 21 22  2  0
 16 23  1  0
 23 24  2  0
 24  7  1  0
 24 13  1  0
 22 17  1  0
  1 25  1  0
  1 26  1  0
  1 27  1  0
 10 28  1  0
 10 29  1  0
 12 30  1  0
 14 31  1  0
 15 32  1  0
 18 33  1  0
 20 34  1  0
 22 35  1  0
 23 36  1  0
M  END
>  <UniqueID>  (12) 
12

>  <SMILES>  (12) 
COC(=O)C(=O)n1c(C(N)=O)cc2ccc(-c3cncnc3)cc21

>  <Energy>  (12) 
82.85225687810033

>  <Genealogy>  (12) 
COC(=O)C(=O)n1c(C(N)=O)cc2ccc(-c3cncnc3)cc21 (3D coordinates assigned)
COC(=O)C(=O)n1c(C(N)=O)cc2ccc(-c3cncnc3)cc21 (optimized conformer: 82.85225687810033 kcal/mol)

>  <smiles>  (12) 
COC(=O)C(=O)n1c(C(N)=O)cc2ccc(-c3cncnc3)cc21

>  <score_type>  (12) 
oracle

>  <origin>  (12) 
adg

>  <m_score__min__energy>  (12) 
-8.9600000000000009

>  <m_primary>  (12) 
energy

$$$$
12:0
     RDKit          3D

 49 51  0  0  0  0  0  0  0  0999 V2000
   -4.3030   15.5790  -34.5930 C   0  0  0  0  0  0  0  0  0  0  0  0
   -5.3170   16.4680  -34.0390 N   0  0  0  0  0  0  0  0  0  0  0  0
   -5.1480   17.7690  -33.7380 C   0  0  0  0  0  0  0  0  0  0  0  0
   -6.3170   18.2350  -33.1510 C   0  0  0  0  0  0  0  0  0  0  0  0
   -6.5960   19.6060  -32.6540 C   0  0  0  0  0  0  0  0  0  0  0  0
   -7.9310   20.0870  -32.5750 C   0  0  0  0  0  0  0  0  0  0  0  0
   -8.2030   21.3870  -32.1150 C   0  0  0  0  0  0  0  0  0  0  0  0
   -7.1290   22.1830  -31.7320 C   0  0  0  0  0  0  0  0  0  0  0  0
   -7.1060   23.4820  -31.2790 C   0  0  0  0  0  0  0  0  0  0  0  0
   -5.7600   23.7740  -31.0640 C   0  0  0  0  0  0  0  0  0  0  0  0
   -5.2820   25.0570  -30.5090 C   0  0  0  0  0  0  0  0  0  0  0  0
   -3.8970   25.3920  -30.5190 N   0  0  0  0  0  0  0  0  0  0  0  0
   -6.1040   25.8560  -29.9850 O   0  0  0  0  0  0  0  0  0  0  0  0
   -4.9840   22.6970  -31.3740 N   0  0  0  0  0  0  0  0  0  0  0  0
   -3.5520   22.6100  -31.3590 C   0  0  0  0  0  0  0  0  0  0  0  0
   -2.9490   22.1110  -32.3490 O   0  0  0  0  0  0  0  0  0  0  0  0
   -2.8180   23.0830  -30.2190 N   0  0  0  0  0  0  0  0  0  0  0  0
   -1.4090   22.9010  -30.0330 C   0  0  0  0  0  0  0  0  0  0  0  0
   -0.7250   22.2830  -30.8930 O   0  0  0  0  0  0  0  0  0  0  0  0
   -0.8110   23.4170  -28.8740 O   0  0  0  0  0  0  0  0  0  0  0  0
   -1.2790   23.2500  -27.5270 C   0  0  0  0  0  0  0  0  0  0  0  0
   -2.4650   24.2090  -27.3380 C   0  0  0  0  0  0  0  0  0  0  0  0
   -1.7640   21.8070  -27.2970 C   0  0  0  0  0  0  0  0  0  0  0  0
   -0.1750   23.6210  -26.5180 C   0  0  0  0  0  0  0  0  0  0  0  0
   -5.8370   21.7330  -31.7820 C   0  0  0  0  0  0  0  0  0  0  0  0
   -5.5330   20.4520  -32.2560 C   0  0  0  0  0  0  0  0  0  0  0  0
   -7.1630   17.1330  -33.1180 C   0  0  0  0  0  0  0  0  0  0  0  0
   -6.5220   16.0810  -33.6570 N   0  0  0  0  0  0  0  0  0  0  0  0
   -3.7516   15.0956  -33.7730 H   0  0  0  0  0  0  0  0  0  0  0  0
   -4.7882   14.8100  -35.2120 H   0  0  0  0  0  0  0  0  0  0  0  0
   -3.6040   16.1607  -35.2120 H   0  0  0  0  0  0  0  0  0  0  0  0
   -4.2400   18.3612  -33.9249 H   0  0  0  0  0  0  0  0  0  0  0  0
   -8.7623   19.4333  -32.8778 H   0  0  0  0  0  0  0  0  0  0  0  0
   -9.2350   21.7636  -32.0596 H   0  0  0  0  0  0  0  0  0  0  0  0
   -7.9667   24.1484  -31.1203 H   0  0  0  0  0  0  0  0  0  0  0  0
   -3.5100   26.0610  -31.2220 H   0  0  0  0  0  0  0  0  0  0  0  0
   -3.3430   23.5900  -29.4720 H   0  0  0  0  0  0  0  0  0  0  0  0
   -2.6488   24.3576  -26.2637 H   0  0  0  0  0  0  0  0  0  0  0  0
   -2.2328   25.1763  -27.8075 H   0  0  0  0  0  0  0  0  0  0  0  0
   -3.3623   23.7795  -27.8075 H   0  0  0  0  0  0  0  0  0  0  0  0
   -1.8301   21.6102  -26.2168 H   0  0  0  0  0  0  0  0  0  0  0  0
   -2.7555   21.6760  -27.7550 H   0  0  0  0  0  0  0  0  0  0  0  0
   -1.0528   21.1038  -27.7550 H   0  0  0  0  0  0  0  0  0  0  0  0
   -0.5560   23.4930  -25.4941 H   0  0  0  0  0  0  0  0  0  0  0  0
    0.6956   22.9661  -26.6698 H   0  0  0  0  0  0  0  0  0  0  0  0
    0.1234   24.6688  -26.6698 H   0  0  0  0  0  0  0  0  0  0  0  0
   -4.4896   20.1094  -32.3181 H   0  0  0  0  0  0  0  0  0  0  0  0
   -8.1874   17.1230  -32.7173 H   0  0  0  0  0  0  0  0  0  0  0  0
   -6.9000   15.1120  -33.7540 H   0  0  0  0  0  0  0  0  0  0  0  0
  1  2  1  0
  2  3  1  0
  3  4  2  0
  4  5  1  0
  5  6  2  0
  6  7  1  0
  7  8  2  0
  8  9  1  0
  9 10  2  0
 10 11  1  0
 11 12  1  0
 11 13  2  0
 10 14  1  0
 14 15  1  0
 15 16  2  0
 15 17  1  0
 17 18  1  0
 18 19  2  0
 18 20  1  0
 20 21  1  0
 21 22  1  0
 21 23  1  0
 21 24  1  0
 14 25  1  0
 25 26  2  0
  4 27  1  0
 27 28  2  0
 28  2  1  0
 26  5  1  0
 25  8  1  0
  1 29  1  0
  1 30  1  0
  1 31  1  0
  3 32  1  0
  6 33  1  0
  7 34  1  0
  9 35  1  0
 12 36  1  0
 17 37  1  0
 22 38  1  0
 22 39  1  0
 22 40  1  0
 23 41  1  0
 23 42  1  0
 23 43  1  0
 24 44  1  0
 24 45  1  0
 24 46  1  0
 26 47  1  0
 27 48  1  0
 28 49  1  0
M  CHG  2  12  -1  28   1
M  END
>  <UniqueID>  (13) 
13

>  <SMILES>  (13) 
Cn1cc(-c2ccc3cc(C([NH-])=O)n(C(=O)NC(=O)OC(C)(C)C)c3c2)c[nH+]1

>  <Energy>  (13) 
117.03216527669427

>  <Genealogy>  (13) 
Cn1cc(-c2ccc3cc(C([NH-])=O)n(C(=O)NC(=O)OC(C)(C)C)c3c2)c[nH+]1 (protonated)
Cn1cc(-c2ccc3cc(C([NH-])=O)n(C(=O)NC(=O)OC(C)(C)C)c3c2)c[nH+]1 (3D coordinates assigned)
Cn1cc(-c2ccc3cc(C([NH-])=O)n(C(=O)NC(=O)OC(C)(C)C)c3c2)c[nH+]1 (optimized conformer: 117.03216527669427 kcal/mol)

>  <smiles>  (13) 
Cn1cc(-c2ccc3cc(C(N)=O)n(C(=O)NC(=O)OC(C)(C)C)c3c2)cn1

>  <score_type>  (13) 
oracle

>  <origin>  (13) 
adg

>  <m_score__min__energy>  (13) 
-11.09

>  <m_primary>  (13) 
energy

$$$$
13:0
     RDKit          3D

 41 42  0  0  0  0  0  0  0  0999 V2000
   -0.6480   23.5120  -28.6230 C   0  0  0  0  0  0  0  0  0  0  0  0
   -1.9150   24.3100  -28.5840 C   0  0  0  0  0  0  0  0  0  0  0  0
   -1.8930   25.5120  -28.9630 O   0  0  0  0  0  0  0  0  0  0  0  0
   -3.1410   23.7300  -28.1030 N   0  0  0  0  0  0  0  0  0  0  0  0
   -4.0090   24.4890  -27.2020 C   0  0  0  0  0  0  0  0  0  0  0  0
   -3.4770   22.3640  -28.4070 C   0  0  0  0  0  0  0  0  0  0  0  0
   -3.8310   21.5960  -27.4720 O   0  0  0  0  0  0  0  0  0  0  0  0
   -3.3520   21.8550  -29.7500 N   0  0  0  0  0  0  0  0  0  0  0  0
   -2.6440   20.5910  -29.9750 C   0  0  0  0  0  0  0  0  0  0  0  0
   -3.8440   22.5960  -30.8870 C   0  0  0  0  0  0  0  0  0  0  0  0
   -3.0350   23.0480  -31.7420 O   0  0  0  0  0  0  0  0  0  0  0  0
   -5.2410   22.8720  -31.0450 N   0  0  0  0  0  0  0  0  0  0  0  0
   -5.8850   24.0590  -30.8820 C   0  0  0  0  0  0  0  0  0  0  0  0
   -5.2520   25.3350  -30.4840 C   0  0  0  0  0  0  0  0  0  0  0  0
   -3.9080   25.6320  -30.8500 N   0  0  0  0  0  0  0  0  0  0  0  0
   -5.9070   26.1740  -29.8100 O   0  0  0  0  0  0  0  0  0  0  0  0
   -7.2460   23.9130  -31.1490 C   0  0  0  0  0  0  0  0  0  0  0  0
   -7.4130   22.5830  -31.4700 C   0  0  0  0  0  0  0  0  0  0  0  0
   -8.5570   21.8840  -31.8410 C   0  0  0  0  0  0  0  0  0  0  0  0
   -8.4270   20.5130  -32.1290 C   0  0  0  0  0  0  0  0  0  0  0  0
   -7.1680   19.8650  -32.0240 C   0  0  0  0  0  0  0  0  0  0  0  0
   -7.0290   18.4050  -32.3740 C   0  0  0  0  0  0  0  0  0  0  0  0
   -6.1840   17.7980  -31.4660 F   0  0  0  0  0  0  0  0  0  0  0  0
   -8.2620   17.7780  -32.3320 F   0  0  0  0  0  0  0  0  0  0  0  0
   -6.5090   18.2530  -33.6470 F   0  0  0  0  0  0  0  0  0  0  0  0
   -6.0260   20.6190  -31.6690 C   0  0  0  0  0  0  0  0  0  0  0  0
   -6.1880   21.9780  -31.3920 C   0  0  0  0  0  0  0  0  0  0  0  0
   -0.3150   23.3023  -27.5958 H   0  0  0  0  0  0  0  0  0  0  0  0
   -0.8279   22.5639  -29.1509 H   0  0  0  0  0  0  0  0  0  0  0  0
    0.1294   24.0838  -29.1509 H   0  0  0  0  0  0  0  0  0  0  0  0
   -3.7458   24.2588  -26.1590 H   0  0  0  0  0  0  0  0  0  0  0  0
   -3.8756   25.5655  -27.3848 H   0  0  0  0  0  0  0  0  0  0  0  0
   -5.0581   24.2132  -27.3848 H   0  0  0  0  0  0  0  0  0  0  0  0
   -2.3892   20.1360  -29.0065 H   0  0  0  0  0  0  0  0  0  0  0  0
   -3.2894   19.9054  -30.5437 H   0  0  0  0  0  0  0  0  0  0  0  0
   -1.7222   20.7832  -30.5437 H   0  0  0  0  0  0  0  0  0  0  0  0
   -3.1350   24.9600  -30.6480 H   0  0  0  0  0  0  0  0  0  0  0  0
   -8.0209   24.6929  -31.1114 H   0  0  0  0  0  0  0  0  0  0  0  0
   -9.5328   22.3874  -31.9071 H   0  0  0  0  0  0  0  0  0  0  0  0
   -9.3110   19.9364  -32.4391 H   0  0  0  0  0  0  0  0  0  0  0  0
   -5.0342   20.1467  -31.6124 H   0  0  0  0  0  0  0  0  0  0  0  0
  1  2  1  0
  2  3  2  0
  2  4  1  0
  4  5  1  0
  4  6  1  0
  6  7  2  0
  6  8  1  0
  8  9  1  0
  8 10  1  0
 10 11  2  0
 10 12  1  0
 12 13  1  0
 13 14  1  0
 14 15  1  0
 14 16  2  0
 13 17  2  0
 17 18  1  0
 18 19  2  0
 19 20  1  0
 20 21  2  0
 21 22  1  0
 22 23  1  0
 22 24  1  0
 22 25  1  0
 21 26  1  0
 26 27  2  0
 27 12  1  0
 27 18  1  0
  1 28  1  0
  1 29  1  0
  1 30  1  0
  5 31  1  0
  5 32  1  0
  5 33  1  0
  9 34  1  0
  9 35  1  0
  9 36  1  0
 15 37  1  0
 17 38  1  0
 19 39  1  0
 20 40  1  0
 26 41  1  0
M  CHG  1  15  -1
M  END
>  <UniqueID>  (14) 
14

>  <SMILES>  (14) 
CC(=O)N(C)C(=O)N(C)C(=O)n1c(C([NH-])=O)cc2ccc(C(F)(F)F)cc21

>  <Energy>  (14) 
87.02774324532142

>  <Genealogy>  (14) 
CC(=O)N(C)C(=O)N(C)C(=O)n1c(C([NH-])=O)cc2ccc(C(F)(F)F)cc21 (protonated)
CC(=O)N(C)C(=O)N(C)C(=O)n1c(C([NH-])=O)cc2ccc(C(F)(F)F)cc21 (3D coordinates assigned)
CC(=O)N(C)C(=O)N(C)C(=O)n1c(C([NH-])=O)cc2ccc(C(F)(F)F)cc21 (optimized conformer: 87.02774324532142 kcal/mol)

>  <smiles>  (14) 
CC(=O)N(C)C(=O)N(C)C(=O)n1c(C(N)=O)cc2ccc(C(F)(F)F)cc21

>  <score_type>  (14) 
oracle

>  <origin>  (14) 
adg

>  <m_score__min__energy>  (14) 
-10.26

>  <m_primary>  (14) 
energy

$$$$
14:0
     RDKit          3D

 37 38  0  0  0  0  0  0  0  0999 V2000
   -0.0910   21.3210  -35.7190 C   0  0  0  0  0  0  0  0  0  0  0  0
   -0.8590   21.2410  -34.4840 N   0  0  0  0  0  0  0  0  0  0  0  0
   -0.2260   21.0140  -33.2190 C   0  0  0  0  0  0  0  0  0  0  0  0
    1.0240   20.8760  -33.1530 O   0  0  0  0  0  0  0  0  0  0  0  0
   -1.0340   20.9850  -31.9620 C   0  0  0  0  0  0  0  0  0  0  0  0
   -2.4420   20.8230  -32.3010 N   0  0  0  0  0  0  0  0  0  0  0  0
   -3.3230   21.9320  -32.5020 C   0  0  0  0  0  0  0  0  0  0  0  0
   -3.6760   22.2610  -33.6650 O   0  0  0  0  0  0  0  0  0  0  0  0
   -3.8300   22.6790  -31.3420 C   0  0  0  0  0  0  0  0  0  0  0  0
   -3.0210   23.1320  -30.4880 O   0  0  0  0  0  0  0  0  0  0  0  0
   -5.2380   22.8930  -31.1670 N   0  0  0  0  0  0  0  0  0  0  0  0
   -5.8690   24.0520  -30.8260 C   0  0  0  0  0  0  0  0  0  0  0  0
   -5.2050   25.3200  -30.4540 C   0  0  0  0  0  0  0  0  0  0  0  0
   -3.8660   25.5960  -30.8620 N   0  0  0  0  0  0  0  0  0  0  0  0
   -5.8180   26.1610  -29.7430 O   0  0  0  0  0  0  0  0  0  0  0  0
   -7.2510   23.8720  -30.8300 C   0  0  0  0  0  0  0  0  0  0  0  0
   -7.4470   22.5560  -31.1860 C   0  0  0  0  0  0  0  0  0  0  0  0
   -8.6270   21.8440  -31.3710 C   0  0  0  0  0  0  0  0  0  0  0  0
   -8.5290   20.5020  -31.7790 C   0  0  0  0  0  0  0  0  0  0  0  0
   -7.2610   19.8970  -31.9890 C   0  0  0  0  0  0  0  0  0  0  0  0
   -7.1580   18.4760  -32.4840 C   0  0  0  0  0  0  0  0  0  0  0  0
   -8.3810   17.8510  -32.3300 F   0  0  0  0  0  0  0  0  0  0  0  0
   -6.8110   18.4600  -33.8250 F   0  0  0  0  0  0  0  0  0  0  0  0
   -6.2000   17.7700  -31.7790 F   0  0  0  0  0  0  0  0  0  0  0  0
   -6.0870   20.6630  -31.8120 C   0  0  0  0  0  0  0  0  0  0  0  0
   -6.2160   21.9890  -31.3870 C   0  0  0  0  0  0  0  0  0  0  0  0
    0.9770   21.4322  -35.4801 H   0  0  0  0  0  0  0  0  0  0  0  0
   -0.2419   20.4023  -36.3048 H   0  0  0  0  0  0  0  0  0  0  0  0
   -0.4280   22.1889  -36.3048 H   0  0  0  0  0  0  0  0  0  0  0  0
   -1.8980   21.3430  -34.5300 H   0  0  0  0  0  0  0  0  0  0  0  0
   -0.7075   20.1429  -31.3341 H   0  0  0  0  0  0  0  0  0  0  0  0
   -0.8927   21.9260  -31.4101 H   0  0  0  0  0  0  0  0  0  0  0  0
   -3.0530   25.2950  -30.2800 H   0  0  0  0  0  0  0  0  0  0  0  0
   -8.0217   24.6218  -30.5981 H   0  0  0  0  0  0  0  0  0  0  0  0
   -9.6064   22.3158  -31.2034 H   0  0  0  0  0  0  0  0  0  0  0  0
   -9.4449   19.9137  -31.9374 H   0  0  0  0  0  0  0  0  0  0  0  0
   -5.0955   20.2269  -32.0039 H   0  0  0  0  0  0  0  0  0  0  0  0
  1  2  1  0
  2  3  1  0
  3  4  2  0
  3  5  1  0
  5  6  1  0
  6  7  1  0
  7  8  2  0
  7  9  1  0
  9 10  2  0
  9 11  1  0
 11 12  1  0
 12 13  1  0
 13 14  1  0
 13 15  2  0
 12 16  2  0
 16 17  1  0
 17 18  2  0
 18 19  1  0
 19 20  2  0
 20 21  1  0
 21 22  1  0
 21 23  1  0
 21 24  1  0
 20 25  1  0
 25 26  2  0
 26 11  1  0
 26 17  1  0
  1 27  1  0
  1 28  1  0
  1 29  1  0
  2 30  1  0
  5 31  1  0
  5 32  1  0
 14 33  1  0
 16 34  1  0
 18 35  1  0
 19 36  1  0
 25 37  1  0
M  CHG  2   6  -1  14  -1
M  END
>  <UniqueID>  (15) 
15

>  <SMILES>  (15) 
CNC(=O)C[N-]C(=O)C(=O)n1c(C([NH-])=O)cc2ccc(C(F)(F)F)cc21

>  <Energy>  (15) 
70.28142696469088

>  <Genealogy>  (15) 
CNC(=O)C[N-]C(=O)C(=O)n1c(C([NH-])=O)cc2ccc(C(F)(F)F)cc21 (protonated)
CNC(=O)C[N-]C(=O)C(=O)n1c(C([NH-])=O)cc2ccc(C(F)(F)F)cc21 (3D coordinates assigned)
CNC(=O)C[N-]C(=O)C(=O)n1c(C([NH-])=O)cc2ccc(C(F)(F)F)cc21 (optimized conformer: 70.28142696469088 kcal/mol)

>  <smiles>  (15) 
CNC(=O)CNC(=O)C(=O)n1c(C(N)=O)cc2ccc(C(F)(F)F)cc21

>  <score_type>  (15) 
oracle

>  <origin>  (15) 
adg

>  <m_score__min__energy>  (15) 
-10.539999999999999

>  <m_primary>  (15) 
energy

$$$$
15:0
     RDKit          3D

 46 47  0  0  0  0  0  0  0  0999 V2000
   -0.3250   22.1260  -28.6130 C   0  0  0  0  0  0  0  0  0  0  0  0
   -1.1620   23.2100  -29.3140 C   0  0  2  0  0  0  0  0  0  0  0  0
   -0.8140   24.6170  -28.8940 C   0  0  0  0  0  0  0  0  0  0  0  0
    0.2310   24.8630  -28.2320 O   0  0  0  0  0  0  0  0  0  0  0  0
   -1.6250   25.6710  -29.2980 O   0  0  0  0  0  0  0  0  0  0  0  0
   -2.6080   22.9160  -29.1930 N   0  0  0  0  0  0  0  0  0  0  0  0
   -3.3420   23.5160  -28.0690 C   0  0  0  0  0  0  0  0  0  0  0  0
   -3.3510   22.0170  -30.0600 C   0  0  0  0  0  0  0  0  0  0  0  0
   -3.4390   20.8000  -29.7380 O   0  0  0  0  0  0  0  0  0  0  0  0
   -4.0710   22.4560  -31.2810 C   0  0  0  0  0  0  0  0  0  0  0  0
   -3.4580   22.6070  -32.3700 O   0  0  0  0  0  0  0  0  0  0  0  0
   -5.4700   22.7840  -31.2190 N   0  0  0  0  0  0  0  0  0  0  0  0
   -6.0270   23.9590  -30.8110 C   0  0  0  0  0  0  0  0  0  0  0  0
   -5.2980   25.1110  -30.2390 C   0  0  0  0  0  0  0  0  0  0  0  0
   -4.0920   25.5660  -30.8550 N   0  0  0  0  0  0  0  0  0  0  0  0
   -5.7390   25.7160  -29.2250 O   0  0  0  0  0  0  0  0  0  0  0  0
   -7.4140   23.9160  -30.9500 C   0  0  0  0  0  0  0  0  0  0  0  0
   -7.6910   22.6660  -31.4560 C   0  0  0  0  0  0  0  0  0  0  0  0
   -8.9100   22.0860  -31.7880 C   0  0  0  0  0  0  0  0  0  0  0  0
   -8.8980   20.7800  -32.3040 C   0  0  0  0  0  0  0  0  0  0  0  0
   -7.6790   20.0800  -32.4950 C   0  0  0  0  0  0  0  0  0  0  0  0
   -7.7250   18.7390  -33.0220 N   0  0  0  0  0  0  0  0  0  0  0  0
   -6.6360   17.7650  -32.9280 C   0  0  0  0  0  0  0  0  0  0  0  0
   -5.5680   18.0460  -33.9880 C   0  0  0  0  0  0  0  0  0  0  0  0
   -6.1260   18.8760  -35.0550 N   0  0  0  0  0  0  0  0  0  0  0  0
   -6.4560   20.7080  -32.1470 C   0  0  0  0  0  0  0  0  0  0  0  0
   -6.5010   22.0030  -31.6130 C   0  0  0  0  0  0  0  0  0  0  0  0
   -0.4143   22.2417  -27.5228 H   0  0  0  0  0  0  0  0  0  0  0  0
   -0.6920   21.1317  -28.9075 H   0  0  0  0  0  0  0  0  0  0  0  0
    0.7298   22.2296  -28.9075 H   0  0  0  0  0  0  0  0  0  0  0  0
   -0.8977   23.1717  -30.3811 H   0  0  0  0  0  0  0  0  0  0  0  0
   -2.9112   23.1639  -27.1201 H   0  0  0  0  0  0  0  0  0  0  0  0
   -3.2635   24.6119  -28.1230 H   0  0  0  0  0  0  0  0  0  0  0  0
   -4.4004   23.2211  -28.1230 H   0  0  0  0  0  0  0  0  0  0  0  0
   -3.1580   25.3010  -30.4630 H   0  0  0  0  0  0  0  0  0  0  0  0
   -8.1336   24.7117  -30.7070 H   0  0  0  0  0  0  0  0  0  0  0  0
   -9.8544   22.6330  -31.6508 H   0  0  0  0  0  0  0  0  0  0  0  0
   -9.8489   20.2920  -32.5642 H   0  0  0  0  0  0  0  0  0  0  0  0
   -8.5920   18.4310  -33.5170 H   0  0  0  0  0  0  0  0  0  0  0  0
   -6.1794   17.8286  -31.9292 H   0  0  0  0  0  0  0  0  0  0  0  0
   -7.0457   16.7581  -33.0960 H   0  0  0  0  0  0  0  0  0  0  0  0
   -4.7222   18.5726  -33.5218 H   0  0  0  0  0  0  0  0  0  0  0  0
   -5.2249   17.0923  -34.4155 H   0  0  0  0  0  0  0  0  0  0  0  0
   -6.8620   19.4920  -34.6400 H   0  0  0  0  0  0  0  0  0  0  0  0
   -6.6150   18.2440  -35.7300 H   0  0  0  0  0  0  0  0  0  0  0  0
   -5.4958   20.1915  -32.2926 H   0  0  0  0  0  0  0  0  0  0  0  0
  1  2  1  0
  2  3  1  0
  3  4  2  0
  3  5  1  0
  2  6  1  0
  6  7  1  0
  6  8  1  0
  8  9  2  0
  8 10  1  0
 10 11  2  0
 10 12  1  0
 12 13  1  0
 13 14  1  0
 14 15  1  0
 14 16  2  0
 13 17  2  0
 17 18  1  0
 18 19  2  0
 19 20  1  0
 20 21  2  0
 21 22  1  0
 22 23  1  0
 23 24  1  0
 24 25  1  0
 21 26  1  0
 26 27  2  0
 27 12  1  0
 27 18  1  0
  1 28  1  0
  1 29  1  0
  1 30  1  0
  2 31  1  6
  7 32  1  0
  7 33  1  0
  7 34  1  0
 15 35  1  0
 17 36  1  0
 19 37  1  0
 20 38  1  0
 22 39  1  0
 23 40  1  0
 23 41  1  0
 24 42  1  0
 24 43  1  0
 25 44  1  0
 25 45  1  0
 26 46  1  0
M  CHG  2   5  -1  15  -1
M  END
>  <UniqueID>  (16) 
16

>  <SMILES>  (16) 
C[C@H](C(=O)[O-])N(C)C(=O)C(=O)n1c(C([NH-])=O)cc2ccc(NCCN)cc21

>  <Energy>  (16) 
85.39895133068715

>  <Genealogy>  (16) 
CC(C(=O)[O-])N(C)C(=O)C(=O)n1c(C([NH-])=O)cc2ccc(NCCN)cc21 (protonated)
C[C@H](C(=O)[O-])N(C)C(=O)C(=O)n1c(C([NH-])=O)cc2ccc(NCCN)cc21 (chirality)
C[C@H](C(=O)[O-])N(C)C(=O)C(=O)n1c(C([NH-])=O)cc2ccc(NCCN)cc21 (3D coordinates assigned)
C[C@H](C(=O)[O-])N(C)C(=O)C(=O)n1c(C([NH-])=O)cc2ccc(NCCN)cc21 (optimized conformer: 85.39895133068715 kcal/mol)

>  <smiles>  (16) 
CC(C(=O)O)N(C)C(=O)C(=O)n1c(C(N)=O)cc2ccc(NCCN)cc21

>  <score_type>  (16) 
oracle

>  <origin>  (16) 
adg

>  <m_score__min__energy>  (16) 
-13.67

>  <m_primary>  (16) 
energy

$$$$
16:0
     RDKit          3D

 46 47  0  0  0  0  0  0  0  0999 V2000
   -7.6550   18.5150  -32.7070 C   0  0  0  0  0  0  0  0  0  0  0  0
   -7.6530   19.9160  -32.1720 C   0  0  0  0  0  0  0  0  0  0  0  0
   -8.8790   20.5680  -31.8860 C   0  0  0  0  0  0  0  0  0  0  0  0
   -8.8920   21.8900  -31.4100 C   0  0  0  0  0  0  0  0  0  0  0  0
   -7.6690   22.5370  -31.2490 C   0  0  0  0  0  0  0  0  0  0  0  0
   -7.3870   23.8060  -30.7950 C   0  0  0  0  0  0  0  0  0  0  0  0
   -5.9990   23.9150  -30.8410 C   0  0  0  0  0  0  0  0  0  0  0  0
   -5.2580   25.1460  -30.5040 C   0  0  0  0  0  0  0  0  0  0  0  0
   -3.8800   25.2640  -30.8470 N   0  0  0  0  0  0  0  0  0  0  0  0
   -5.8240   26.0870  -29.8890 O   0  0  0  0  0  0  0  0  0  0  0  0
   -5.4460   22.7580  -31.3010 N   0  0  0  0  0  0  0  0  0  0  0  0
   -4.0550   22.4300  -31.4320 C   0  0  0  0  0  0  0  0  0  0  0  0
   -3.5300   22.4330  -32.5810 O   0  0  0  0  0  0  0  0  0  0  0  0
   -3.3140   21.9530  -30.2880 N   0  0  1  0  0  0  0  0  0  0  0  0
   -2.3400   20.9350  -30.7100 C   0  0  0  0  0  0  0  0  0  0  0  0
   -2.6580   23.0380  -29.6010 C   0  0  0  0  0  0  0  0  0  0  0  0
   -1.5300   23.4560  -29.9920 O   0  0  0  0  0  0  0  0  0  0  0  0
   -3.2850   23.6360  -28.5000 O   0  0  0  0  0  0  0  0  0  0  0  0
   -2.5740   24.1140  -27.3580 C   0  0  0  0  0  0  0  0  0  0  0  0
   -1.7800   25.3540  -27.6840 C   0  0  0  0  0  0  0  0  0  0  0  0
   -1.6370   25.6880  -28.8920 O   0  0  0  0  0  0  0  0  0  0  0  0
   -1.2280   26.1880  -26.6430 N   0  0  0  0  0  0  0  0  0  0  0  0
   -1.4540   25.8720  -25.2280 C   0  0  0  0  0  0  0  0  0  0  0  0
   -0.4480   27.3720  -27.0160 C   0  0  0  0  0  0  0  0  0  0  0  0
   -6.4800   21.9270  -31.5480 C   0  0  0  0  0  0  0  0  0  0  0  0
   -6.4340   20.6080  -32.0120 C   0  0  0  0  0  0  0  0  0  0  0  0
   -7.6560   17.8025  -31.8690 H   0  0  0  0  0  0  0  0  0  0  0  0
   -8.5534   18.3587  -33.3222 H   0  0  0  0  0  0  0  0  0  0  0  0
   -6.7571   18.3562  -33.3222 H   0  0  0  0  0  0  0  0  0  0  0  0
   -9.8287   20.0341  -32.0381 H   0  0  0  0  0  0  0  0  0  0  0  0
   -9.8382   22.3980  -31.1720 H   0  0  0  0  0  0  0  0  0  0  0  0
   -8.1053   24.5713  -30.4658 H   0  0  0  0  0  0  0  0  0  0  0  0
   -3.1330   25.0600  -30.1460 H   0  0  0  0  0  0  0  0  0  0  0  0
   -3.9780   21.4960  -29.6200 H   0  0  0  0  0  0  0  0  0  0  0  0
   -1.8915   20.4662  -29.8217 H   0  0  0  0  0  0  0  0  0  0  0  0
   -2.8490   20.1678  -31.3119 H   0  0  0  0  0  0  0  0  0  0  0  0
   -1.5511   21.4096  -31.3119 H   0  0  0  0  0  0  0  0  0  0  0  0
   -3.2942   24.3495  -26.5606 H   0  0  0  0  0  0  0  0  0  0  0  0
   -1.8742   23.3302  -27.0326 H   0  0  0  0  0  0  0  0  0  0  0  0
   -0.9287   26.6065  -24.5998 H   0  0  0  0  0  0  0  0  0  0  0  0
   -2.5319   25.9088  -25.0117 H   0  0  0  0  0  0  0  0  0  0  0  0
   -1.0708   24.8638  -25.0117 H   0  0  0  0  0  0  0  0  0  0  0  0
   -0.1078   27.8885  -26.1063 H   0  0  0  0  0  0  0  0  0  0  0  0
    0.4245   27.0638  -27.6108 H   0  0  0  0  0  0  0  0  0  0  0  0
   -1.0755   28.0521  -27.6108 H   0  0  0  0  0  0  0  0  0  0  0  0
   -5.4742   20.1240  -32.2456 H   0  0  0  0  0  0  0  0  0  0  0  0
  1  2  1  0
  2  3  2  0
  3  4  1  0
  4  5  2  0
  5  6  1  0
  6  7  2  0
  7  8  1  0
  8  9  1  0
  8 10  2  0
  7 11  1  0
 11 12  1  0
 12 13  2  0
 12 14  1  0
 14 15  1  0
 14 16  1  0
 16 17  2  0
 16 18  1  0
 18 19  1  0
 19 20  1  0
 20 21  2  0
 20 22  1  0
 22 23  1  0
 22 24  1  0
 11 25  1  0
 25 26  2  0
 26  2  1  0
 25  5  1  0
  1 27  1  0
  1 28  1  0
  1 29  1  0
  3 30  1  0
  4 31  1  0
  6 32  1  0
  9 33  1  0
 14 34  1  1
 15 35  1  0
 15 36  1  0
 15 37  1  0
 19 38  1  0
 19 39  1  0
 23 40  1  0
 23 41  1  0
 23 42  1  0
 24 43  1  0
 24 44  1  0
 24 45  1  0
 26 46  1  0
M  CHG  2   9  -1  14   1
M  END
>  <UniqueID>  (17) 
17

>  <SMILES>  (17) 
Cc1ccc2cc(C([NH-])=O)n(C(=O)[NH+](C)C(=O)OCC(=O)N(C)C)c2c1

>  <Energy>  (17) 
82.71122675533066

>  <Genealogy>  (17) 
Cc1ccc2cc(C([NH-])=O)n(C(=O)[NH+](C)C(=O)OCC(=O)N(C)C)c2c1 (protonated)
Cc1ccc2cc(C([NH-])=O)n(C(=O)[NH+](C)C(=O)OCC(=O)N(C)C)c2c1 (3D coordinates assigned)
Cc1ccc2cc(C([NH-])=O)n(C(=O)[NH+](C)C(=O)OCC(=O)N(C)C)c2c1 (optimized conformer: 82.71122675533066 kcal/mol)

>  <smiles>  (17) 
Cc1ccc2cc(C(N)=O)n(C(=O)N(C)C(=O)OCC(=O)N(C)C)c2c1

>  <score_type>  (17) 
oracle

>  <origin>  (17) 
adg

>  <m_score__min__energy>  (17) 
-9.9900000000000002

>  <m_primary>  (17) 
energy

$$$$
17:0
     RDKit          3D

 32 33  0  0  0  0  0  0  0  0999 V2000
   -3.4140   22.4950  -28.0420 C   0  0  0  0  0  0  0  0  0  0  0  0
   -3.4010   23.3700  -29.2260 N   0  0  1  0  0  0  0  0  0  0  0  0
   -2.0700   23.8990  -29.4000 C   0  0  0  0  0  0  0  0  0  0  0  0
   -1.1010   23.1220  -29.6150 O   0  0  0  0  0  0  0  0  0  0  0  0
   -1.8420   25.2710  -29.3380 O   0  0  0  0  0  0  0  0  0  0  0  0
   -3.8270   22.6690  -30.4240 C   0  0  0  0  0  0  0  0  0  0  0  0
   -2.9890   22.0270  -31.1160 O   0  0  0  0  0  0  0  0  0  0  0  0
   -5.1770   22.7740  -30.9050 N   0  0  0  0  0  0  0  0  0  0  0  0
   -5.9750   23.8750  -30.8920 C   0  0  0  0  0  0  0  0  0  0  0  0
   -5.5770   25.2200  -30.4240 C   0  0  0  0  0  0  0  0  0  0  0  0
   -4.2330   25.6630  -30.5940 N   0  0  0  0  0  0  0  0  0  0  0  0
   -6.4110   25.9790  -29.8640 O   0  0  0  0  0  0  0  0  0  0  0  0
   -7.2320   23.5720  -31.4130 C   0  0  0  0  0  0  0  0  0  0  0  0
   -7.1770   22.2350  -31.7410 C   0  0  0  0  0  0  0  0  0  0  0  0
   -8.1530   21.4010  -32.2770 C   0  0  0  0  0  0  0  0  0  0  0  0
   -7.8230   20.0510  -32.4870 C   0  0  0  0  0  0  0  0  0  0  0  0
   -6.5300   19.5610  -32.1700 C   0  0  0  0  0  0  0  0  0  0  0  0
   -6.2090   18.0990  -32.3450 C   0  0  0  0  0  0  0  0  0  0  0  0
   -4.9170   17.9340  -32.8150 F   0  0  0  0  0  0  0  0  0  0  0  0
   -6.3300   17.4570  -31.1270 F   0  0  0  0  0  0  0  0  0  0  0  0
   -7.0760   17.5140  -33.2520 F   0  0  0  0  0  0  0  0  0  0  0  0
   -5.5730   20.4360  -31.6030 C   0  0  0  0  0  0  0  0  0  0  0  0
   -5.9260   21.7770  -31.4200 C   0  0  0  0  0  0  0  0  0  0  0  0
   -3.4048   23.1110  -27.1307 H   0  0  0  0  0  0  0  0  0  0  0  0
   -4.3215   21.8735  -28.0553 H   0  0  0  0  0  0  0  0  0  0  0  0
   -2.5254   21.8468  -28.0553 H   0  0  0  0  0  0  0  0  0  0  0  0
   -4.0650   24.1610  -29.0580 H   0  0  0  0  0  0  0  0  0  0  0  0
   -3.5640   25.6710  -29.7920 H   0  0  0  0  0  0  0  0  0  0  0  0
   -8.0857   24.2547  -31.5360 H   0  0  0  0  0  0  0  0  0  0  0  0
   -9.1521   21.7862  -32.5287 H   0  0  0  0  0  0  0  0  0  0  0  0
   -8.5767   19.3659  -32.9023 H   0  0  0  0  0  0  0  0  0  0  0  0
   -4.5766   20.0707  -31.3135 H   0  0  0  0  0  0  0  0  0  0  0  0
  1  2  1  0
  2  3  1  0
  3  4  2  0
  3  5  1  0
  2  6  1  0
  6  7  2  0
  6  8  1  0
  8  9  1  0
  9 10  1  0
 10 11  1  0
 10 12  2  0
  9 13  2  0
 13 14  1  0
 14 15  2  0
 15 16  1  0
 16 17  2  0
 17 18  1  0
 18 19  1  0
 18 20  1  0
 18 21  1  0
 17 22  1  0
 22 23  2  0
 23  8  1  0
 23 14  1  0
  1 24  1  0
  1 25  1  0
  1 26  1  0
  2 27  1  1
 11 28  1  0
 13 29  1  0
 15 30  1  0
 16 31  1  0
 22 32  1  0
M  CHG  3   2   1   5  -1  11  -1
M  END
>  <UniqueID>  (18) 
18

>  <SMILES>  (18) 
C[NH+](C(=O)[O-])C(=O)n1c(C([NH-])=O)cc2ccc(C(F)(F)F)cc21

>  <Energy>  (18) 
76.85110441300601

>  <Genealogy>  (18) 
C[NH+](C(=O)[O-])C(=O)n1c(C([NH-])=O)cc2ccc(C(F)(F)F)cc21 (protonated)
C[NH+](C(=O)[O-])C(=O)n1c(C([NH-])=O)cc2ccc(C(F)(F)F)cc21 (3D coordinates assigned)
C[NH+](C(=O)[O-])C(=O)n1c(C([NH-])=O)cc2ccc(C(F)(F)F)cc21 (optimized conformer: 76.85110441300601 kcal/mol)

>  <smiles>  (18) 
CN(C(=O)O)C(=O)n1c(C(N)=O)cc2ccc(C(F)(F)F)cc21

>  <score_type>  (18) 
oracle

>  <origin>  (18) 
adg

>  <m_score__min__energy>  (18) 
-9.8000000000000007

>  <m_primary>  (18) 
energy

$$$$
18:0
     RDKit          3D

 39 40  0  0  0  0  0  0  0  0999 V2000
   -8.0450   21.2620  -31.9640 C   0  0  0  0  0  0  0  0  0  0  0  0
   -7.9270   19.8160  -32.1750 N   0  0  0  0  0  0  0  0  0  0  0  0
   -9.0950   18.9490  -31.9950 C   0  0  0  0  0  0  0  0  0  0  0  0
   -6.6610   19.2160  -32.5300 C   0  0  0  0  0  0  0  0  0  0  0  0
   -6.5250   17.9640  -32.4670 O   0  0  0  0  0  0  0  0  0  0  0  0
   -5.4990   20.0350  -33.0390 C   0  0  0  0  0  0  0  0  0  0  0  0
   -4.2340   19.2820  -32.9830 N   0  0  0  0  0  0  0  0  0  0  0  0
   -3.2200   20.0150  -32.2630 C   0  0  0  0  0  0  0  0  0  0  0  0
   -1.8590   19.6170  -32.3430 C   0  0  0  0  0  0  0  0  0  0  0  0
   -0.8580   20.3420  -31.6750 C   0  0  0  0  0  0  0  0  0  0  0  0
   -1.2430   21.4630  -30.9460 C   0  0  0  0  0  0  0  0  0  0  0  0
   -0.4850   22.3460  -30.2110 C   0  0  0  0  0  0  0  0  0  0  0  0
   -1.3900   23.2830  -29.7130 C   0  0  0  0  0  0  0  0  0  0  0  0
   -0.9900   24.4700  -28.9300 C   0  0  0  0  0  0  0  0  0  0  0  0
   -1.7580   25.6710  -28.9730 N   0  0  0  0  0  0  0  0  0  0  0  0
    0.0640   24.4390  -28.2390 O   0  0  0  0  0  0  0  0  0  0  0  0
   -2.6570   22.9810  -30.1140 N   0  0  0  0  0  0  0  0  0  0  0  0
   -3.8790   23.6580  -29.7870 C   0  0  0  0  0  0  0  0  0  0  0  0
   -4.3630   23.5440  -28.6290 O   0  0  0  0  0  0  0  0  0  0  0  0
   -4.5460   24.5260  -30.7690 C   0  0  0  0  0  0  0  0  0  0  0  0
   -4.2490   25.7470  -30.8450 O   0  0  0  0  0  0  0  0  0  0  0  0
   -5.5180   24.0040  -31.6120 O   0  0  0  0  0  0  0  0  0  0  0  0
   -2.5490   21.8710  -30.8730 C   0  0  0  0  0  0  0  0  0  0  0  0
   -3.5690   21.1610  -31.5110 C   0  0  0  0  0  0  0  0  0  0  0  0
   -8.0624   21.4749  -30.8849 H   0  0  0  0  0  0  0  0  0  0  0  0
   -7.1854   21.7711  -32.4244 H   0  0  0  0  0  0  0  0  0  0  0  0
   -8.9758   21.6250  -32.4244 H   0  0  0  0  0  0  0  0  0  0  0  0
   -9.2849   18.8080  -30.9207 H   0  0  0  0  0  0  0  0  0  0  0  0
   -9.9736   19.4153  -32.4646 H   0  0  0  0  0  0  0  0  0  0  0  0
   -8.9030   17.9730  -32.4646 H   0  0  0  0  0  0  0  0  0  0  0  0
   -5.6961   20.3232  -34.0821 H   0  0  0  0  0  0  0  0  0  0  0  0
   -5.3980   20.9222  -32.3966 H   0  0  0  0  0  0  0  0  0  0  0  0
   -3.9030   19.1090  -33.9610 H   0  0  0  0  0  0  0  0  0  0  0  0
   -4.3900   18.3460  -32.5410 H   0  0  0  0  0  0  0  0  0  0  0  0
   -1.5855   18.7310  -32.9347 H   0  0  0  0  0  0  0  0  0  0  0  0
    0.1965   20.0333  -31.7266 H   0  0  0  0  0  0  0  0  0  0  0  0
    0.6029   22.3185  -30.0506 H   0  0  0  0  0  0  0  0  0  0  0  0
   -2.7440   25.6650  -29.3180 H   0  0  0  0  0  0  0  0  0  0  0  0
   -4.6171   21.4850  -31.4306 H   0  0  0  0  0  0  0  0  0  0  0  0
  1  2  1  0
  2  3  1  0
  2  4  1  0
  4  5  2  0
  4  6  1  0
  6  7  1  0
  7  8  1  0
  8  9  2  0
  9 10  1  0
 10 11  2  0
 11 12  1  0
 12 13  2  0
 13 14  1  0
 14 15  1  0
 14 16  2  0
 13 17  1  0
 17 18  1  0
 18 19  2  0
 18 20  1  0
 20 21  2  0
 20 22  1  0
 17 23  1  0
 23 24  2  0
 24  8  1  0
 23 11  1  0
  1 25  1  0
  1 26  1  0
  1 27  1  0
  3 28  1  0
  3 29  1  0
  3 30  1  0
  6 31  1  0
  6 32  1  0
  7 33  1  0
  7 34  1  0
  9 35  1  0
 10 36  1  0
 12 37  1  0
 15 38  1  0
 24 39  1  0
M  CHG  3   7   1  15  -1  22  -1
M  END
>  <UniqueID>  (19) 
19

>  <SMILES>  (19) 
CN(C)C(=O)C[NH2+]c1ccc2cc(C([NH-])=O)n(C(=O)C(=O)[O-])c2c1

>  <Energy>  (19) 
76.63120671455387

>  <Genealogy>  (19) 
CN(C)C(=O)C[NH2+]c1ccc2cc(C([NH-])=O)n(C(=O)C(=O)[O-])c2c1 (protonated)
CN(C)C(=O)C[NH2+]c1ccc2cc(C([NH-])=O)n(C(=O)C(=O)[O-])c2c1 (3D coordinates assigned)
CN(C)C(=O)C[NH2+]c1ccc2cc(C([NH-])=O)n(C(=O)C(=O)[O-])c2c1 (optimized conformer: 76.63120671455387 kcal/mol)

>  <smiles>  (19) 
CN(C)C(=O)CNc1ccc2cc(C(N)=O)n(C(=O)C(=O)O)c2c1

>  <score_type>  (19) 
oracle

>  <origin>  (19) 
adg

>  <m_score__min__energy>  (19) 
-10.33

>  <m_primary>  (19) 
energy

$$$$
19:0
     RDKit          3D

 44 45  0  0  0  0  0  0  0  0999 V2000
   -7.3440   18.4850  -33.0520 C   0  0  0  0  0  0  0  0  0  0  0  0
   -7.4350   19.8940  -32.5460 C   0  0  0  0  0  0  0  0  0  0  0  0
   -8.6980   20.4710  -32.2620 C   0  0  0  0  0  0  0  0  0  0  0  0
   -8.7890   21.7790  -31.7590 C   0  0  0  0  0  0  0  0  0  0  0  0
   -7.6050   22.4760  -31.5360 C   0  0  0  0  0  0  0  0  0  0  0  0
   -7.4100   23.7500  -31.0550 C   0  0  0  0  0  0  0  0  0  0  0  0
   -6.0270   23.9230  -31.0220 C   0  0  0  0  0  0  0  0  0  0  0  0
   -5.3790   25.1250  -30.4570 C   0  0  0  0  0  0  0  0  0  0  0  0
   -4.0970   25.5490  -30.9090 N   0  0  0  0  0  0  0  0  0  0  0  0
   -5.9420   25.7550  -29.5220 O   0  0  0  0  0  0  0  0  0  0  0  0
   -5.3910   22.8060  -31.4790 N   0  0  0  0  0  0  0  0  0  0  0  0
   -3.9780   22.6230  -31.6740 C   0  0  0  0  0  0  0  0  0  0  0  0
   -3.5630   21.8440  -32.5740 O   0  0  0  0  0  0  0  0  0  0  0  0
   -3.0450   23.3050  -30.8330 N   0  0  0  0  0  0  0  0  0  0  0  0
   -2.9590   23.0750  -29.1160 S   0  0  0  0  0  0  0  0  0  0  0  0
   -3.7060   21.8170  -28.7700 O   0  0  0  0  0  0  0  0  0  0  0  0
   -3.6560   24.2180  -28.4310 O   0  0  0  0  0  0  0  0  0  0  0  0
   -1.3020   22.9340  -28.5430 N   0  0  0  0  0  0  0  0  0  0  0  0
   -1.0340   21.5550  -28.0890 C   0  0  0  0  0  0  0  0  0  0  0  0
   -0.7990   24.0510  -27.6740 C   0  0  0  0  0  0  0  0  0  0  0  0
    0.6560   23.7590  -27.2230 C   0  0  0  0  0  0  0  0  0  0  0  0
   -1.6500   24.1280  -26.3830 C   0  0  0  0  0  0  0  0  0  0  0  0
   -0.8360   25.4190  -28.3410 C   0  0  0  0  0  0  0  0  0  0  0  0
   -1.5990   25.6620  -29.3100 O   0  0  0  0  0  0  0  0  0  0  0  0
   -0.0730   26.4590  -27.8200 O   0  0  0  0  0  0  0  0  0  0  0  0
   -6.3730   21.9240  -31.7810 C   0  0  0  0  0  0  0  0  0  0  0  0
   -6.2560   20.6270  -32.2960 C   0  0  0  0  0  0  0  0  0  0  0  0
   -7.2992   17.7914  -32.1994 H   0  0  0  0  0  0  0  0  0  0  0  0
   -8.2293   18.2572  -33.6638 H   0  0  0  0  0  0  0  0  0  0  0  0
   -6.4368   18.3730  -33.6638 H   0  0  0  0  0  0  0  0  0  0  0  0
   -9.6150   19.8892  -32.4371 H   0  0  0  0  0  0  0  0  0  0  0  0
   -9.7658   22.2385  -31.5478 H   0  0  0  0  0  0  0  0  0  0  0  0
   -8.1808   24.4770  -30.7595 H   0  0  0  0  0  0  0  0  0  0  0  0
   -3.2290   25.2810  -30.3940 H   0  0  0  0  0  0  0  0  0  0  0  0
   -1.0283   21.5256  -26.9894 H   0  0  0  0  0  0  0  0  0  0  0  0
   -1.8187   20.8846  -28.4697 H   0  0  0  0  0  0  0  0  0  0  0  0
   -0.0554   21.2273  -28.4697 H   0  0  0  0  0  0  0  0  0  0  0  0
    0.7043   23.7493  -26.1241 H   0  0  0  0  0  0  0  0  0  0  0  0
    0.9711   22.7797  -27.6125 H   0  0  0  0  0  0  0  0  0  0  0  0
    1.3245   24.5409  -27.6125 H   0  0  0  0  0  0  0  0  0  0  0  0
   -0.9902   24.0683  -25.5048 H   0  0  0  0  0  0  0  0  0  0  0  0
   -2.2013   25.0797  -26.3634 H   0  0  0  0  0  0  0  0  0  0  0  0
   -2.3631   23.2907  -26.3634 H   0  0  0  0  0  0  0  0  0  0  0  0
   -5.2676   20.1899  -32.5008 H   0  0  0  0  0  0  0  0  0  0  0  0
  1  2  1  0
  2  3  2  0
  3  4  1  0
  4  5  2  0
  5  6  1  0
  6  7  2  0
  7  8  1  0
  8  9  1  0
  8 10  2  0
  7 11  1  0
 11 12  1  0
 12 13  2  0
 12 14  1  0
 14 15  1  0
 15 16  2  0
 15 17  2  0
 15 18  1  0
 18 19  1  0
 18 20  1  0
 20 21  1  0
 20 22  1  0
 20 23  1  0
 23 24  2  0
 23 25  1  0
 11 26  1  0
 26 27  2  0
 27  2  1  0
 26  5  1  0
  1 28  1  0
  1 29  1  0
  1 30  1  0
  3 31  1  0
  4 32  1  0
  6 33  1  0
  9 34  1  0
 19 35  1  0
 19 36  1  0
 19 37  1  0
 21 38  1  0
 21 39  1  0
 21 40  1  0
 22 41  1  0
 22 42  1  0
 22 43  1  0
 27 44  1  0
M  CHG  3   9  -1  14  -1  25  -1
M  END
>  <UniqueID>  (20) 
20

>  <SMILES>  (20) 
Cc1ccc2cc(C([NH-])=O)n(C(=O)[N-]S(=O)(=O)N(C)C(C)(C)C(=O)[O-])c2c1

>  <Energy>  (20) 
94.02311197313003

>  <Genealogy>  (20) 
Cc1ccc2cc(C([NH-])=O)n(C(=O)[N-]S(=O)(=O)N(C)C(C)(C)C(=O)[O-])c2c1 (protonated)
Cc1ccc2cc(C([NH-])=O)n(C(=O)[N-]S(=O)(=O)N(C)C(C)(C)C(=O)[O-])c2c1 (3D coordinates assigned)
Cc1ccc2cc(C([NH-])=O)n(C(=O)[N-]S(=O)(=O)N(C)C(C)(C)C(=O)[O-])c2c1 (optimized conformer: 94.02311197313003 kcal/mol)

>  <smiles>  (20) 
Cc1ccc2cc(C(N)=O)n(C(=O)NS(=O)(=O)N(C)C(C)(C)C(=O)O)c2c1

>  <score_type>  (20) 
oracle

>  <origin>  (20) 
adg

>  <m_score__min__energy>  (20) 
-14.07

>  <m_primary>  (20) 
energy

$$$$
20:0
     RDKit          3D

 32 34  0  0  0  0  0  0  0  0999 V2000
   -5.6610   18.1410  -35.5110 N   0  0  0  0  0  0  0  0  0  0  0  0
   -5.7050   17.7620  -34.4190 C   0  0  0  0  0  0  0  0  0  0  0  0
   -5.7620   17.2890  -33.0610 C   0  0  0  0  0  0  0  0  0  0  0  0
   -5.5720   16.0360  -32.7210 O   0  0  0  0  0  0  0  0  0  0  0  0
   -5.7250   15.8870  -31.4380 N   0  0  0  0  0  0  0  0  0  0  0  0
   -6.0330   17.0820  -30.9040 C   0  0  0  0  0  0  0  0  0  0  0  0
   -6.0580   18.0220  -31.9190 C   0  0  0  0  0  0  0  0  0  0  0  0
   -6.3630   19.4660  -31.7840 C   0  0  0  0  0  0  0  0  0  0  0  0
   -7.6530   19.9700  -32.0920 C   0  0  0  0  0  0  0  0  0  0  0  0
   -7.9360   21.3410  -31.9800 C   0  0  0  0  0  0  0  0  0  0  0  0
   -6.9140   22.1850  -31.5570 C   0  0  0  0  0  0  0  0  0  0  0  0
   -6.9080   23.5510  -31.3880 C   0  0  0  0  0  0  0  0  0  0  0  0
   -5.6190   23.8660  -30.9640 C   0  0  0  0  0  0  0  0  0  0  0  0
   -5.1970   25.2300  -30.5830 C   0  0  0  0  0  0  0  0  0  0  0  0
   -3.8810   25.6790  -30.8960 N   0  0  0  0  0  0  0  0  0  0  0  0
   -5.9990   26.0180  -30.0160 O   0  0  0  0  0  0  0  0  0  0  0  0
   -4.8540   22.7380  -30.8840 N   0  0  0  0  0  0  0  0  0  0  0  0
   -3.4620   22.6380  -30.5470 C   0  0  0  0  0  0  0  0  0  0  0  0
   -2.7010   21.9100  -31.2400 O   0  0  0  0  0  0  0  0  0  0  0  0
   -2.9700   23.3360  -29.4340 O   0  0  0  0  0  0  0  0  0  0  0  0
   -1.7090   23.9420  -29.3590 C   0  0  0  0  0  0  0  0  0  0  0  0
   -0.6510   23.2580  -29.3520 O   0  0  0  0  0  0  0  0  0  0  0  0
   -1.6260   25.3250  -29.2900 O   0  0  0  0  0  0  0  0  0  0  0  0
   -5.6640   21.7190  -31.2480 C   0  0  0  0  0  0  0  0  0  0  0  0
   -5.3490   20.3600  -31.3690 C   0  0  0  0  0  0  0  0  0  0  0  0
   -5.6260   14.9840  -30.9250 H   0  0  0  0  0  0  0  0  0  0  0  0
   -6.2315   17.2790  -29.8401 H   0  0  0  0  0  0  0  0  0  0  0  0
   -8.4416   19.2781  -32.4227 H   0  0  0  0  0  0  0  0  0  0  0  0
   -8.9346   21.7353  -32.2193 H   0  0  0  0  0  0  0  0  0  0  0  0
   -7.7440   24.2466  -31.5528 H   0  0  0  0  0  0  0  0  0  0  0  0
   -3.0450   25.2380  -30.4520 H   0  0  0  0  0  0  0  0  0  0  0  0
   -4.3352   19.9959  -31.1462 H   0  0  0  0  0  0  0  0  0  0  0  0
  1  2  3  0
  2  3  1  0
  3  4  1  0
  4  5  1  0
  5  6  2  0
  6  7  1  0
  7  8  1  0
  8  9  2  0
  9 10  1  0
 10 11  2  0
 11 12  1  0
 12 13  2  0
 13 14  1  0
 14 15  1  0
 14 16  2  0
 13 17  1  0
 17 18  1  0
 18 19  2  0
 18 20  1  0
 20 21  1  0
 21 22  2  0
 21 23  1  0
 17 24  1  0
 24 25  2  0
  7  3  2  0
 25  8  1  0
 24 11  1  0
  5 26  1  0
  6 27  1  0
  9 28  1  0
 10 29  1  0
 12 30  1  0
 15 31  1  0
 25 32  1  0
M  CHG  3   5   1  15  -1  23  -1
M  END
>  <UniqueID>  (21) 
21

>  <SMILES>  (21) 
N#Cc1o[nH+]cc1-c1ccc2cc(C([NH-])=O)n(C(=O)OC(=O)[O-])c2c1

>  <Energy>  (21) 
109.52062548736707

>  <Genealogy>  (21) 
N#Cc1o[nH+]cc1-c1ccc2cc(C([NH-])=O)n(C(=O)OC(=O)[O-])c2c1 (protonated)
N#Cc1o[nH+]cc1-c1ccc2cc(C([NH-])=O)n(C(=O)OC(=O)[O-])c2c1 (3D coordinates assigned)
N#Cc1o[nH+]cc1-c1ccc2cc(C([NH-])=O)n(C(=O)OC(=O)[O-])c2c1 (optimized conformer: 109.52062548736707 kcal/mol)

>  <smiles>  (21) 
N#Cc1oncc1-c1ccc2cc(C(N)=O)n(C(=O)OC(=O)O)c2c1

>  <score_type>  (21) 
oracle

>  <origin>  (21) 
adg

>  <m_score__min__energy>  (21) 
-11.08

>  <m_primary>  (21) 
energy

$$$$
21:0
     RDKit          3D

 40 41  0  0  0  0  0  0  0  0999 V2000
   -3.8930   24.1590  -27.5220 C   0  0  0  0  0  0  0  0  0  0  0  0
   -2.5690   24.9140  -27.4800 C   0  0  0  0  0  0  0  0  0  0  0  0
   -1.9870   24.9780  -28.7800 O   0  0  0  0  0  0  0  0  0  0  0  0
   -1.0540   24.0490  -29.2550 C   0  0  0  0  0  0  0  0  0  0  0  0
    0.1750   24.1800  -28.9960 O   0  0  0  0  0  0  0  0  0  0  0  0
   -1.5250   22.8700  -30.0460 C   0  0  1  0  0  0  0  0  0  0  0  0
   -1.0550   21.5800  -29.3710 C   0  0  0  0  0  0  0  0  0  0  0  0
   -2.9510   22.9020  -30.1120 O   0  0  0  0  0  0  0  0  0  0  0  0
   -3.6820   22.7010  -31.2870 C   0  0  0  0  0  0  0  0  0  0  0  0
   -3.1020   22.3390  -32.3460 O   0  0  0  0  0  0  0  0  0  0  0  0
   -5.1060   22.8860  -31.2750 N   0  0  0  0  0  0  0  0  0  0  0  0
   -5.8030   24.0330  -31.0330 C   0  0  0  0  0  0  0  0  0  0  0  0
   -5.2350   25.3150  -30.5680 C   0  0  0  0  0  0  0  0  0  0  0  0
   -3.8810   25.6620  -30.8470 N   0  0  0  0  0  0  0  0  0  0  0  0
   -5.9400   26.0930  -29.8720 O   0  0  0  0  0  0  0  0  0  0  0  0
   -7.1700   23.8180  -31.2020 C   0  0  0  0  0  0  0  0  0  0  0  0
   -7.2910   22.4910  -31.5460 C   0  0  0  0  0  0  0  0  0  0  0  0
   -8.4260   21.7460  -31.8470 C   0  0  0  0  0  0  0  0  0  0  0  0
   -8.2550   20.3970  -32.2020 C   0  0  0  0  0  0  0  0  0  0  0  0
   -6.9600   19.8160  -32.2400 C   0  0  0  0  0  0  0  0  0  0  0  0
   -6.7820   18.3850  -32.6800 C   0  0  0  0  0  0  0  0  0  0  0  0
   -6.4450   18.3230  -34.0210 F   0  0  0  0  0  0  0  0  0  0  0  0
   -5.7740   17.8020  -31.9350 F   0  0  0  0  0  0  0  0  0  0  0  0
   -7.9520   17.6690  -32.4950 F   0  0  0  0  0  0  0  0  0  0  0  0
   -5.8300   20.6150  -31.9540 C   0  0  0  0  0  0  0  0  0  0  0  0
   -6.0320   21.9510  -31.5830 C   0  0  0  0  0  0  0  0  0  0  0  0
   -4.2362   23.9633  -26.4954 H   0  0  0  0  0  0  0  0  0  0  0  0
   -4.6439   24.7647  -28.0504 H   0  0  0  0  0  0  0  0  0  0  0  0
   -3.7541   23.2043  -28.0504 H   0  0  0  0  0  0  0  0  0  0  0  0
   -2.7467   25.9355  -27.1127 H   0  0  0  0  0  0  0  0  0  0  0  0
   -1.8788   24.3830  -26.8079 H   0  0  0  0  0  0  0  0  0  0  0  0
   -1.1100   22.9059  -31.0641 H   0  0  0  0  0  0  0  0  0  0  0  0
   -1.0990   21.7008  -28.2785 H   0  0  0  0  0  0  0  0  0  0  0  0
   -1.7079   20.7484  -29.6746 H   0  0  0  0  0  0  0  0  0  0  0  0
   -0.0202   21.3633  -29.6746 H   0  0  0  0  0  0  0  0  0  0  0  0
   -3.0980   25.0250  -30.5810 H   0  0  0  0  0  0  0  0  0  0  0  0
   -7.9800   24.5530  -31.0852 H   0  0  0  0  0  0  0  0  0  0  0  0
   -9.4276   22.1990  -31.8084 H   0  0  0  0  0  0  0  0  0  0  0  0
   -9.1337   19.7848  -32.4531 H   0  0  0  0  0  0  0  0  0  0  0  0
   -4.8146   20.1974  -32.0211 H   0  0  0  0  0  0  0  0  0  0  0  0
  1  2  1  0
  2  3  1  0
  3  4  1  0
  4  5  2  0
  4  6  1  0
  6  7  1  0
  6  8  1  0
  8  9  1  0
  9 10  2  0
  9 11  1  0
 11 12  1  0
 12 13  1  0
 13 14  1  0
 13 15  2  0
 12 16  2  0
 16 17  1  0
 17 18  2  0
 18 19  1  0
 19 20  2  0
 20 21  1  0
 21 22  1  0
 21 23  1  0
 21 24  1  0
 20 25  1  0
 25 26  2  0
 26 11  1  0
 26 17  1  0
  1 27  1  0
  1 28  1  0
  1 29  1  0
  2 30  1  0
  2 31  1  0
  6 32  1  6
  7 33  1  0
  7 34  1  0
  7 35  1  0
 14 36  1  0
 16 37  1  0
 18 38  1  0
 19 39  1  0
 25 40  1  0
M  CHG  1  14  -1
M  END
>  <UniqueID>  (22) 
22

>  <SMILES>  (22) 
CCOC(=O)[C@@H](C)OC(=O)n1c(C([NH-])=O)cc2ccc(C(F)(F)F)cc21

>  <Energy>  (22) 
70.58767491049959

>  <Genealogy>  (22) 
CCOC(=O)C(C)OC(=O)n1c(C([NH-])=O)cc2ccc(C(F)(F)F)cc21 (protonated)
CCOC(=O)[C@@H](C)OC(=O)n1c(C([NH-])=O)cc2ccc(C(F)(F)F)cc21 (chirality)
CCOC(=O)[C@@H](C)OC(=O)n1c(C([NH-])=O)cc2ccc(C(F)(F)F)cc21 (3D coordinates assigned)
CCOC(=O)[C@@H](C)OC(=O)n1c(C([NH-])=O)cc2ccc(C(F)(F)F)cc21 (optimized conformer: 70.58767491049959 kcal/mol)

>  <smiles>  (22) 
CCOC(=O)C(C)OC(=O)n1c(C(N)=O)cc2ccc(C(F)(F)F)cc21

>  <score_type>  (22) 
oracle

>  <origin>  (22) 
adg

>  <m_score__min__energy>  (22) 
-10.359999999999999

>  <m_primary>  (22) 
energy

$$$$
22:0
     RDKit          3D

 41 42  0  0  0  0  0  0  0  0999 V2000
   -7.1080   18.4580  -32.6860 C   0  0  0  0  0  0  0  0  0  0  0  0
   -7.2370   19.8900  -32.2660 C   0  0  0  0  0  0  0  0  0  0  0  0
   -8.4990   20.5300  -32.3130 C   0  0  0  0  0  0  0  0  0  0  0  0
   -8.6340   21.8780  -31.9380 C   0  0  0  0  0  0  0  0  0  0  0  0
   -7.4890   22.5620  -31.5420 C   0  0  0  0  0  0  0  0  0  0  0  0
   -7.3390   23.8570  -31.1040 C   0  0  0  0  0  0  0  0  0  0  0  0
   -5.9800   24.0010  -30.8320 C   0  0  0  0  0  0  0  0  0  0  0  0
   -5.3680   25.2780  -30.4090 C   0  0  0  0  0  0  0  0  0  0  0  0
   -4.0530   25.6350  -30.8260 N   0  0  0  0  0  0  0  0  0  0  0  0
   -6.0340   26.0880  -29.7100 O   0  0  0  0  0  0  0  0  0  0  0  0
   -5.3160   22.8390  -31.0870 N   0  0  0  0  0  0  0  0  0  0  0  0
   -3.9300   22.5510  -30.8390 C   0  0  0  0  0  0  0  0  0  0  0  0
   -3.0370   23.0860  -31.5520 O   0  0  0  0  0  0  0  0  0  0  0  0
   -3.5790   21.6570  -29.8230 O   0  0  0  0  0  0  0  0  0  0  0  0
   -3.3500   22.0690  -28.4810 C   0  0  0  0  0  0  0  0  0  0  0  0
   -2.0510   21.6480  -28.0830 O   0  0  0  0  0  0  0  0  0  0  0  0
   -1.4900   21.9900  -26.8480 C   0  0  0  0  0  0  0  0  0  0  0  0
   -1.2780   21.0980  -25.9800 O   0  0  0  0  0  0  0  0  0  0  0  0
   -1.1550   23.3620  -26.5680 N   0  0  0  0  0  0  0  0  0  0  0  0
   -0.1130   23.6680  -25.5840 C   0  0  0  0  0  0  0  0  0  0  0  0
   -1.8740   24.4460  -27.2480 C   0  0  0  0  0  0  0  0  0  0  0  0
   -1.0880   24.9220  -28.4280 C   0  0  0  0  0  0  0  0  0  0  0  0
   -1.6210   25.6760  -29.2840 O   0  0  0  0  0  0  0  0  0  0  0  0
    0.2440   24.5530  -28.5690 O   0  0  0  0  0  0  0  0  0  0  0  0
   -6.2530   21.9670  -31.5230 C   0  0  0  0  0  0  0  0  0  0  0  0
   -6.0930   20.6210  -31.8740 C   0  0  0  0  0  0  0  0  0  0  0  0
   -7.0503   17.8178  -31.7933 H   0  0  0  0  0  0  0  0  0  0  0  0
   -7.9840   18.1717  -33.2866 H   0  0  0  0  0  0  0  0  0  0  0  0
   -6.1949   18.3329  -33.2866 H   0  0  0  0  0  0  0  0  0  0  0  0
   -9.3830   19.9666  -32.6464 H   0  0  0  0  0  0  0  0  0  0  0  0
   -9.6144   22.3765  -31.9570 H   0  0  0  0  0  0  0  0  0  0  0  0
   -8.1254   24.6180  -30.9921 H   0  0  0  0  0  0  0  0  0  0  0  0
   -3.2290   25.0470  -30.5680 H   0  0  0  0  0  0  0  0  0  0  0  0
   -3.4191   23.1648  -28.4147 H   0  0  0  0  0  0  0  0  0  0  0  0
   -4.1054   21.6192  -27.8199 H   0  0  0  0  0  0  0  0  0  0  0  0
   -0.5204   23.5484  -24.5693 H   0  0  0  0  0  0  0  0  0  0  0  0
    0.7348   22.9809  -25.7221 H   0  0  0  0  0  0  0  0  0  0  0  0
    0.2287   24.7044  -25.7221 H   0  0  0  0  0  0  0  0  0  0  0  0
   -2.8528   24.0765  -27.5877 H   0  0  0  0  0  0  0  0  0  0  0  0
   -2.0128   25.2819  -26.5466 H   0  0  0  0  0  0  0  0  0  0  0  0
   -5.1019   20.1447  -31.8453 H   0  0  0  0  0  0  0  0  0  0  0  0
  1  2  1  0
  2  3  2  0
  3  4  1  0
  4  5  2  0
  5  6  1  0
  6  7  2  0
  7  8  1  0
  8  9  1  0
  8 10  2  0
  7 11  1  0
 11 12  1  0
 12 13  2  0
 12 14  1  0
 14 15  1  0
 15 16  1  0
 16 17  1  0
 17 18  2  0
 17 19  1  0
 19 20  1  0
 19 21  1  0
 21 22  1  0
 22 23  2  0
 22 24  1  0
 11 25  1  0
 25 26  2  0
 26  2  1  0
 25  5  1  0
  1 27  1  0
  1 28  1  0
  1 29  1  0
  3 30  1  0
  4 31  1  0
  6 32  1  0
  9 33  1  0
 15 34  1  0
 15 35  1  0
 20 36  1  0
 20 37  1  0
 20 38  1  0
 21 39  1  0
 21 40  1  0
 26 41  1  0
M  CHG  2   9  -1  24  -1
M  END
>  <UniqueID>  (23) 
23

>  <SMILES>  (23) 
Cc1ccc2cc(C([NH-])=O)n(C(=O)OCOC(=O)N(C)CC(=O)[O-])c2c1

>  <Energy>  (23) 
71.97025470788415

>  <Genealogy>  (23) 
Cc1ccc2cc(C([NH-])=O)n(C(=O)OCOC(=O)N(C)CC(=O)[O-])c2c1 (protonated)
Cc1ccc2cc(C([NH-])=O)n(C(=O)OCOC(=O)N(C)CC(=O)[O-])c2c1 (3D coordinates assigned)
Cc1ccc2cc(C([NH-])=O)n(C(=O)OCOC(=O)N(C)CC(=O)[O-])c2c1 (optimized conformer: 71.97025470788415 kcal/mol)

>  <smiles>  (23) 
Cc1ccc2cc(C(N)=O)n(C(=O)OCOC(=O)N(C)CC(=O)O)c2c1

>  <score_type>  (23) 
oracle

>  <origin>  (23) 
adg

>  <m_score__min__energy>  (23) 
-12.06

>  <m_primary>  (23) 
energy

$$$$
23:0
     RDKit          3D

 45 46  0  0  0  0  0  0  0  0999 V2000
   -1.9700   22.0670  -27.5750 C   0  0  0  0  0  0  0  0  0  0  0  0
   -2.7670   22.9810  -28.5160 C   0  0  0  0  0  0  0  0  0  0  0  0
   -3.8960   23.6640  -27.7160 C   0  0  0  0  0  0  0  0  0  0  0  0
   -3.3280   22.1570  -29.5460 O   0  0  0  0  0  0  0  0  0  0  0  0
   -3.7260   22.5960  -30.8190 C   0  0  0  0  0  0  0  0  0  0  0  0
   -2.8650   22.9040  -31.6880 O   0  0  0  0  0  0  0  0  0  0  0  0
   -5.1260   22.6790  -31.1340 N   0  0  0  0  0  0  0  0  0  0  0  0
   -5.9510   23.7460  -30.9400 C   0  0  0  0  0  0  0  0  0  0  0  0
   -5.5310   25.0960  -30.5150 C   0  0  0  0  0  0  0  0  0  0  0  0
   -4.1800   25.5330  -30.6730 N   0  0  0  0  0  0  0  0  0  0  0  0
   -6.3870   25.8930  -30.0480 O   0  0  0  0  0  0  0  0  0  0  0  0
   -7.2680   23.4110  -31.2380 C   0  0  0  0  0  0  0  0  0  0  0  0
   -7.2240   22.0950  -31.6380 C   0  0  0  0  0  0  0  0  0  0  0  0
   -8.2550   21.2480  -32.0230 C   0  0  0  0  0  0  0  0  0  0  0  0
   -7.9360   19.9160  -32.3350 C   0  0  0  0  0  0  0  0  0  0  0  0
   -6.5920   19.4440  -32.2640 C   0  0  0  0  0  0  0  0  0  0  0  0
   -6.2160   17.9780  -32.5420 C   0  0  0  0  0  0  0  0  0  0  0  0
   -6.1060   17.2430  -31.1900 C   0  0  0  0  0  0  0  0  0  0  0  0
   -7.2540   17.2360  -33.4150 C   0  0  0  0  0  0  0  0  0  0  0  0
   -4.8920   17.9200  -33.2870 C   0  0  0  0  0  0  0  0  0  0  0  0
   -3.8990   17.3470  -32.7660 O   0  0  0  0  0  0  0  0  0  0  0  0
   -4.7360   18.5560  -34.5150 O   0  0  0  0  0  0  0  0  0  0  0  0
   -5.5790   20.3480  -31.8450 C   0  0  0  0  0  0  0  0  0  0  0  0
   -5.9240   21.6750  -31.5630 C   0  0  0  0  0  0  0  0  0  0  0  0
   -1.8190   23.9980  -29.1130 C   0  0  0  0  0  0  0  0  0  0  0  0
   -0.6560   23.6630  -29.4660 O   0  0  0  0  0  0  0  0  0  0  0  0
   -2.2490   25.2990  -29.3420 O   0  0  0  0  0  0  0  0  0  0  0  0
   -2.1975   22.3279  -26.5309 H   0  0  0  0  0  0  0  0  0  0  0  0
   -2.2476   21.0188  -27.7599 H   0  0  0  0  0  0  0  0  0  0  0  0
   -0.8938   22.1993  -27.7599 H   0  0  0  0  0  0  0  0  0  0  0  0
   -3.7042   23.5480  -26.6391 H   0  0  0  0  0  0  0  0  0  0  0  0
   -3.9294   24.7339  -27.9693 H   0  0  0  0  0  0  0  0  0  0  0  0
   -4.8592   23.1970  -27.9693 H   0  0  0  0  0  0  0  0  0  0  0  0
   -3.8870   26.4700  -30.3220 H   0  0  0  0  0  0  0  0  0  0  0  0
   -3.4910   24.9590  -31.2070 H   0  0  0  0  0  0  0  0  0  0  0  0
   -8.1542   24.0589  -31.1688 H   0  0  0  0  0  0  0  0  0  0  0  0
   -9.2921   21.6099  -32.0820 H   0  0  0  0  0  0  0  0  0  0  0  0
   -8.7363   19.2253  -32.6392 H   0  0  0  0  0  0  0  0  0  0  0  0
   -6.2144   17.9671  -30.3691 H   0  0  0  0  0  0  0  0  0  0  0  0
   -6.9009   16.4860  -31.1185 H   0  0  0  0  0  0  0  0  0  0  0  0
   -5.1243   16.7518  -31.1185 H   0  0  0  0  0  0  0  0  0  0  0  0
   -7.9766   16.7195  -32.7661 H   0  0  0  0  0  0  0  0  0  0  0  0
   -7.7843   17.9610  -34.0500 H   0  0  0  0  0  0  0  0  0  0  0  0
   -6.7397   16.4996  -34.0500 H   0  0  0  0  0  0  0  0  0  0  0  0
   -4.5373   20.0095  -31.7436 H   0  0  0  0  0  0  0  0  0  0  0  0
  1  2  1  0
  2  3  1  0
  2  4  1  0
  4  5  1  0
  5  6  2  0
  5  7  1  0
  7  8  1  0
  8  9  1  0
  9 10  1  0
  9 11  2  0
  8 12  2  0
 12 13  1  0
 13 14  2  0
 14 15  1  0
 15 16  2  0
 16 17  1  0
 17 18  1  0
 17 19  1  0
 17 20  1  0
 20 21  2  0
 20 22  1  0
 16 23  1  0
 23 24  2  0
  2 25  1  0
 25 26  2  0
 25 27  1  0
 24  7  1  0
 24 13  1  0
  1 28  1  0
  1 29  1  0
  1 30  1  0
  3 31  1  0
  3 32  1  0
  3 33  1  0
 10 34  1  0
 10 35  1  0
 12 36  1  0
 14 37  1  0
 15 38  1  0
 18 39  1  0
 18 40  1  0
 18 41  1  0
 19 42  1  0
 19 43  1  0
 19 44  1  0
 23 45  1  0
M  CHG  2  22  -1  27  -1
M  END
>  <UniqueID>  (24) 
24

>  <SMILES>  (24) 
CC(C)(OC(=O)n1c(C(N)=O)cc2ccc(C(C)(C)C(=O)[O-])cc21)C(=O)[O-]

>  <Energy>  (24) 
84.0230820228116

>  <Genealogy>  (24) 
CC(C)(OC(=O)n1c(C(N)=O)cc2ccc(C(C)(C)C(=O)[O-])cc21)C(=O)[O-] (protonated)
CC(C)(OC(=O)n1c(C(N)=O)cc2ccc(C(C)(C)C(=O)[O-])cc21)C(=O)[O-] (3D coordinates assigned)
CC(C)(OC(=O)n1c(C(N)=O)cc2ccc(C(C)(C)C(=O)[O-])cc21)C(=O)[O-] (optimized conformer: 84.0230820228116 kcal/mol)

>  <smiles>  (24) 
CC(C)(OC(=O)n1c(C(N)=O)cc2ccc(C(C)(C)C(=O)O)cc21)C(=O)O

>  <score_type>  (24) 
oracle

>  <origin>  (24) 
adg

>  <m_score__min__energy>  (24) 
-11.75

>  <m_primary>  (24) 
energy

$$$$
24:0
     RDKit          3D

 47 48  0  0  0  0  0  0  0  0999 V2000
   -6.6820   23.6130  -32.1220 C   0  0  0  0  0  0  0  0  0  0  0  0
   -6.4640   22.3260  -32.6560 O   0  0  0  0  0  0  0  0  0  0  0  0
   -7.1320   21.3710  -31.8600 C   0  0  0  0  0  0  0  0  0  0  0  0
   -8.0370   20.5010  -32.7340 C   0  0  0  0  0  0  0  0  0  0  0  0
   -7.8710   19.0740  -32.4150 N   0  0  0  0  0  0  0  0  0  0  0  0
   -8.5320   18.5370  -31.2210 C   0  0  0  0  0  0  0  0  0  0  0  0
   -7.0670   18.1820  -33.2250 C   0  0  0  0  0  0  0  0  0  0  0  0
   -7.2100   16.9350  -33.0910 O   0  0  0  0  0  0  0  0  0  0  0  0
   -6.1130   18.7010  -34.2770 C   0  0  0  0  0  0  0  0  0  0  0  0
   -4.7040   18.9830  -33.7340 C   0  0  0  0  0  0  0  0  0  0  0  0
   -4.5200   20.4070  -33.4380 N   0  0  0  0  0  0  0  0  0  0  0  0
   -3.5030   20.9410  -32.5690 C   0  0  0  0  0  0  0  0  0  0  0  0
   -2.2440   20.2930  -32.5090 C   0  0  0  0  0  0  0  0  0  0  0  0
   -1.2180   20.7820  -31.6860 C   0  0  0  0  0  0  0  0  0  0  0  0
   -1.4780   21.9160  -30.9240 C   0  0  0  0  0  0  0  0  0  0  0  0
   -0.6620   22.6020  -30.0550 C   0  0  0  0  0  0  0  0  0  0  0  0
   -1.4420   23.6460  -29.5670 C   0  0  0  0  0  0  0  0  0  0  0  0
   -0.9730   24.5960  -28.5390 C   0  0  0  0  0  0  0  0  0  0  0  0
   -1.8840   25.4670  -27.8660 N   0  0  0  0  0  0  0  0  0  0  0  0
    0.2420   24.6000  -28.2070 O   0  0  0  0  0  0  0  0  0  0  0  0
   -2.6860   23.6180  -30.1210 N   0  0  0  0  0  0  0  0  0  0  0  0
   -3.7450   24.5760  -29.9420 C   0  0  0  0  0  0  0  0  0  0  0  0
   -4.5700   24.4430  -29.0010 O   0  0  0  0  0  0  0  0  0  0  0  0
   -3.8700   25.6570  -30.8060 O   0  0  0  0  0  0  0  0  0  0  0  0
   -2.6930   22.5510  -30.9510 C   0  0  0  0  0  0  0  0  0  0  0  0
   -3.7230   22.1030  -31.7860 C   0  0  0  0  0  0  0  0  0  0  0  0
   -6.6731   23.5604  -31.0233 H   0  0  0  0  0  0  0  0  0  0  0  0
   -5.8859   24.2912  -32.4631 H   0  0  0  0  0  0  0  0  0  0  0  0
   -7.6570   23.9912  -32.4631 H   0  0  0  0  0  0  0  0  0  0  0  0
   -6.3902   20.7337  -31.3565 H   0  0  0  0  0  0  0  0  0  0  0  0
   -7.7465   21.8920  -31.1111 H   0  0  0  0  0  0  0  0  0  0  0  0
   -9.0850   20.7877  -32.5624 H   0  0  0  0  0  0  0  0  0  0  0  0
   -7.7600   20.6575  -33.7870 H   0  0  0  0  0  0  0  0  0  0  0  0
   -8.0419   18.9351  -30.3203 H   0  0  0  0  0  0  0  0  0  0  0  0
   -9.5912   18.8336  -31.2236 H   0  0  0  0  0  0  0  0  0  0  0  0
   -8.4586   17.4395  -31.2236 H   0  0  0  0  0  0  0  0  0  0  0  0
   -6.0348   17.9510  -35.0778 H   0  0  0  0  0  0  0  0  0  0  0  0
   -6.5187   19.6562  -34.6416 H   0  0  0  0  0  0  0  0  0  0  0  0
   -4.5533   18.4033  -32.8114 H   0  0  0  0  0  0  0  0  0  0  0  0
   -3.9723   18.6916  -34.5019 H   0  0  0  0  0  0  0  0  0  0  0  0
   -5.1780   21.0740  -33.8990 H   0  0  0  0  0  0  0  0  0  0  0  0
   -2.0684   19.3931  -33.1168 H   0  0  0  0  0  0  0  0  0  0  0  0
   -0.2382   20.2837  -31.6448 H   0  0  0  0  0  0  0  0  0  0  0  0
    0.3835   22.3741  -29.8002 H   0  0  0  0  0  0  0  0  0  0  0  0
   -2.9150   25.3690  -27.9920 H   0  0  0  0  0  0  0  0  0  0  0  0
   -1.5280   26.1590  -27.1700 H   0  0  0  0  0  0  0  0  0  0  0  0
   -4.6818   22.6401  -31.8339 H   0  0  0  0  0  0  0  0  0  0  0  0
  1  2  1  0
  2  3  1  0
  3  4  1  0
  4  5  1  0
  5  6  1  0
  5  7  1  0
  7  8  2  0
  7  9  1  0
  9 10  1  0
 10 11  1  0
 11 12  1  0
 12 13  2  0
 13 14  1  0
 14 15  2  0
 15 16  1  0
 16 17  2  0
 17 18  1  0
 18 19  1  0
 18 20  2  0
 17 21  1  0
 21 22  1  0
 22 23  2  0
 22 24  1  0
 21 25  1  0
 25 26  2  0
 26 12  1  0
 25 15  1  0
  1 27  1  0
  1 28  1  0
  1 29  1  0
  3 30  1  0
  3 31  1  0
  4 32  1  0
  4 33  1  0
  6 34  1  0
  6 35  1  0
  6 36  1  0
  9 37  1  0
  9 38  1  0
 10 39  1  0
 10 40  1  0
 11 41  1  0
 13 42  1  0
 14 43  1  0
 16 44  1  0
 19 45  1  0
 19 46  1  0
 26 47  1  0
M  CHG  1  24  -1
M  END
>  <UniqueID>  (25) 
25

>  <SMILES>  (25) 
COCCN(C)C(=O)CCNc1ccc2cc(C(N)=O)n(C(=O)[O-])c2c1

>  <Energy>  (25) 
80.00368111997044

>  <Genealogy>  (25) 
COCCN(C)C(=O)CCNc1ccc2cc(C(N)=O)n(C(=O)[O-])c2c1 (protonated)
COCCN(C)C(=O)CCNc1ccc2cc(C(N)=O)n(C(=O)[O-])c2c1 (3D coordinates assigned)
COCCN(C)C(=O)CCNc1ccc2cc(C(N)=O)n(C(=O)[O-])c2c1 (optimized conformer: 80.00368111997044 kcal/mol)

>  <smiles>  (25) 
COCCN(C)C(=O)CCNc1ccc2cc(C(N)=O)n(C(=O)O)c2c1

>  <score_type>  (25) 
oracle

>  <origin>  (25) 
adg

>  <m_score__min__energy>  (25) 
-8.6199999999999992

>  <m_primary>  (25) 
energy

$$$$
25:0
     RDKit          3D

 38 39  0  0  0  0  0  0  0  0999 V2000
   -6.6310   17.8930  -33.0500 C   0  0  0  0  0  0  0  0  0  0  0  0
   -6.9710   19.2540  -32.5200 C   0  0  0  0  0  0  0  0  0  0  0  0
   -8.2820   19.7670  -32.6720 C   0  0  0  0  0  0  0  0  0  0  0  0
   -8.6010   21.0610  -32.2270 C   0  0  0  0  0  0  0  0  0  0  0  0
   -7.5900   21.8130  -31.6340 C   0  0  0  0  0  0  0  0  0  0  0  0
   -7.6150   23.1020  -31.1500 C   0  0  0  0  0  0  0  0  0  0  0  0
   -6.3230   23.3470  -30.6920 C   0  0  0  0  0  0  0  0  0  0  0  0
   -5.9210   24.6040  -30.0310 C   0  0  0  0  0  0  0  0  0  0  0  0
   -5.0430   24.6000  -28.9050 N   0  0  0  0  0  0  0  0  0  0  0  0
   -6.4040   25.6970  -30.4310 O   0  0  0  0  0  0  0  0  0  0  0  0
   -5.5260   22.2610  -30.8960 N   0  0  0  0  0  0  0  0  0  0  0  0
   -4.1130   22.1540  -30.6570 C   0  0  0  0  0  0  0  0  0  0  0  0
   -3.2990   22.4450  -31.5770 O   0  0  0  0  0  0  0  0  0  0  0  0
   -3.6550   21.7260  -29.4040 O   0  0  0  0  0  0  0  0  0  0  0  0
   -2.9440   22.5160  -28.4930 C   0  0  0  0  0  0  0  0  0  0  0  0
   -3.5070   23.0130  -27.4780 O   0  0  0  0  0  0  0  0  0  0  0  0
   -1.4860   22.7880  -28.7390 C   0  0  1  0  0  0  0  0  0  0  0  0
   -1.2350   22.7520  -30.1200 O   0  0  0  0  0  0  0  0  0  0  0  0
   -1.0940   24.1730  -28.1810 C   0  0  1  0  0  0  0  0  0  0  0  0
    0.3030   24.3380  -28.1500 O   0  0  0  0  0  0  0  0  0  0  0  0
   -1.7300   25.2820  -28.9740 C   0  0  0  0  0  0  0  0  0  0  0  0
   -1.2390   26.4410  -28.9600 O   0  0  0  0  0  0  0  0  0  0  0  0
   -2.8590   25.0260  -29.7440 O   0  0  0  0  0  0  0  0  0  0  0  0
   -6.3170   21.3290  -31.4720 C   0  0  0  0  0  0  0  0  0  0  0  0
   -5.9660   20.0530  -31.9320 C   0  0  0  0  0  0  0  0  0  0  0  0
   -6.4590   17.2046  -32.2094 H   0  0  0  0  0  0  0  0  0  0  0  0
   -7.4637   17.5203  -33.6647 H   0  0  0  0  0  0  0  0  0  0  0  0
   -5.7209   17.9557  -33.6647 H   0  0  0  0  0  0  0  0  0  0  0  0
   -9.0584   19.1463  -33.1431 H   0  0  0  0  0  0  0  0  0  0  0  0
   -9.6167   21.4670  -32.3433 H   0  0  0  0  0  0  0  0  0  0  0  0
   -8.4723   23.7909  -31.1296 H   0  0  0  0  0  0  0  0  0  0  0  0
   -4.7600   23.7070  -28.4440 H   0  0  0  0  0  0  0  0  0  0  0  0
   -4.7400   25.5010  -28.4730 H   0  0  0  0  0  0  0  0  0  0  0  0
   -0.8878   22.0189  -28.2284 H   0  0  0  0  0  0  0  0  0  0  0  0
   -2.0260   23.1530  -30.5660 H   0  0  0  0  0  0  0  0  0  0  0  0
   -1.4706   24.2239  -27.1487 H   0  0  0  0  0  0  0  0  0  0  0  0
    0.5150   25.2080  -28.5780 H   0  0  0  0  0  0  0  0  0  0  0  0
   -4.9343   19.6832  -31.8376 H   0  0  0  0  0  0  0  0  0  0  0  0
  1  2  1  0
  2  3  2  0
  3  4  1  0
  4  5  2  0
  5  6  1  0
  6  7  2  0
  7  8  1  0
  8  9  1  0
  8 10  2  0
  7 11  1  0
 11 12  1  0
 12 13  2  0
 12 14  1  0
 14 15  1  0
 15 16  2  0
 15 17  1  0
 17 18  1  0
 17 19  1  0
 19 20  1  0
 19 21  1  0
 21 22  2  0
 21 23  1  0
 11 24  1  0
 24 25  2  0
 25  2  1  0
 24  5  1  0
  1 26  1  0
  1 27  1  0
  1 28  1  0
  3 29  1  0
  4 30  1  0
  6 31  1  0
  9 32  1  0
  9 33  1  0
 17 34  1  1
 18 35  1  0
 19 36  1  1
 20 37  1  0
 25 38  1  0
M  CHG  1  23  -1
M  END
>  <UniqueID>  (26) 
26

>  <SMILES>  (26) 
Cc1ccc2cc(C(N)=O)n(C(=O)OC(=O)[C@@H](O)[C@@H](O)C(=O)[O-])c2c1

>  <Energy>  (26) 
75.9192604357835

>  <Genealogy>  (26) 
Cc1ccc2cc(C(N)=O)n(C(=O)OC(=O)C(O)C(O)C(=O)[O-])c2c1 (protonated)
Cc1ccc2cc(C(N)=O)n(C(=O)OC(=O)[C@@H](O)[C@@H](O)C(=O)[O-])c2c1 (chirality)
Cc1ccc2cc(C(N)=O)n(C(=O)OC(=O)[C@@H](O)[C@@H](O)C(=O)[O-])c2c1 (3D coordinates assigned)
Cc1ccc2cc(C(N)=O)n(C(=O)OC(=O)[C@@H](O)[C@@H](O)C(=O)[O-])c2c1 (optimized conformer: 75.9192604357835 kcal/mol)

>  <smiles>  (26) 
Cc1ccc2cc(C(N)=O)n(C(=O)OC(=O)C(O)C(O)C(=O)O)c2c1

>  <score_type>  (26) 
oracle

>  <origin>  (26) 
adg

>  <m_score__min__energy>  (26) 
-10.380000000000001

>  <m_primary>  (26) 
energy

$$$$
26:0
     RDKit          3D

 35 36  0  0  0  0  0  0  0  0999 V2000
   -6.0880   17.2750  -31.6210 C   0  0  0  0  0  0  0  0  0  0  0  0
   -6.2260   18.2980  -32.6640 N   0  0  0  0  0  0  0  0  0  0  0  0
   -6.0720   17.9040  -34.0700 C   0  0  0  0  0  0  0  0  0  0  0  0
   -6.5050   19.6770  -32.3120 C   0  0  0  0  0  0  0  0  0  0  0  0
   -7.8380   20.1780  -32.3310 C   0  0  0  0  0  0  0  0  0  0  0  0
   -8.1210   21.5070  -31.9720 C   0  0  0  0  0  0  0  0  0  0  0  0
   -7.0590   22.3230  -31.6030 C   0  0  0  0  0  0  0  0  0  0  0  0
   -7.0520   23.6330  -31.1800 C   0  0  0  0  0  0  0  0  0  0  0  0
   -5.7150   23.9290  -30.9240 C   0  0  0  0  0  0  0  0  0  0  0  0
   -5.2350   25.2680  -30.5220 C   0  0  0  0  0  0  0  0  0  0  0  0
   -3.9080   25.6750  -30.8490 N   0  0  0  0  0  0  0  0  0  0  0  0
   -5.9750   26.0440  -29.8620 O   0  0  0  0  0  0  0  0  0  0  0  0
   -4.9300   22.8450  -31.1750 N   0  0  0  0  0  0  0  0  0  0  0  0
   -3.5210   22.7010  -30.9440 C   0  0  0  0  0  0  0  0  0  0  0  0
   -2.7350   22.5440  -31.9160 O   0  0  0  0  0  0  0  0  0  0  0  0
   -2.8680   22.6640  -29.2720 S   0  0  0  0  0  0  0  0  0  0  0  0
   -1.1950   23.2120  -29.7530 C   0  0  0  0  0  0  0  0  0  0  0  0
   -0.8380   24.4950  -29.0690 C   0  0  0  0  0  0  0  0  0  0  0  0
    0.1620   24.5490  -28.3080 O   0  0  0  0  0  0  0  0  0  0  0  0
   -1.5860   25.6430  -29.3030 O   0  0  0  0  0  0  0  0  0  0  0  0
   -5.7670   21.8730  -31.5930 C   0  0  0  0  0  0  0  0  0  0  0  0
   -5.4540   20.5520  -31.9330 C   0  0  0  0  0  0  0  0  0  0  0  0
   -6.1521   17.7499  -30.6309 H   0  0  0  0  0  0  0  0  0  0  0  0
   -6.8943   16.5341  -31.7252 H   0  0  0  0  0  0  0  0  0  0  0  0
   -5.1142   16.7742  -31.7252 H   0  0  0  0  0  0  0  0  0  0  0  0
   -5.6720   16.8806  -34.1223 H   0  0  0  0  0  0  0  0  0  0  0  0
   -7.0508   17.9411  -34.5705 H   0  0  0  0  0  0  0  0  0  0  0  0
   -5.3778   18.5951  -34.5705 H   0  0  0  0  0  0  0  0  0  0  0  0
   -8.6608   19.5129  -32.6320 H   0  0  0  0  0  0  0  0  0  0  0  0
   -9.1523   21.8895  -31.9829 H   0  0  0  0  0  0  0  0  0  0  0  0
   -7.9173   24.3029  -31.0681 H   0  0  0  0  0  0  0  0  0  0  0  0
   -3.0820   25.1490  -30.4860 H   0  0  0  0  0  0  0  0  0  0  0  0
   -0.4667   22.4377  -29.4699 H   0  0  0  0  0  0  0  0  0  0  0  0
   -1.1770   23.3757  -30.8406 H   0  0  0  0  0  0  0  0  0  0  0  0
   -4.4127   20.1985  -31.9069 H   0  0  0  0  0  0  0  0  0  0  0  0
  1  2  1  0
  2  3  1  0
  2  4  1  0
  4  5  2  0
  5  6  1  0
  6  7  2  0
  7  8  1  0
  8  9  2  0
  9 10  1  0
 10 11  1  0
 10 12  2  0
  9 13  1  0
 13 14  1  0
 14 15  2  0
 14 16  1  0
 16 17  1  0
 17 18  1  0
 18 19  2  0
 18 20  1  0
 13 21  1  0
 21 22  2  0
 22  4  1  0
 21  7  1  0
  1 23  1  0
  1 24  1  0
  1 25  1  0
  3 26  1  0
  3 27  1  0
  3 28  1  0
  5 29  1  0
  6 30  1  0
  8 31  1  0
 11 32  1  0
 17 33  1  0
 17 34  1  0
 22 35  1  0
M  CHG  2  11  -1  20  -1
M  END
>  <UniqueID>  (27) 
27

>  <SMILES>  (27) 
CN(C)c1ccc2cc(C([NH-])=O)n(C(=O)SCC(=O)[O-])c2c1

>  <Energy>  (27) 
70.54326902412065

>  <Genealogy>  (27) 
CN(C)c1ccc2cc(C([NH-])=O)n(C(=O)SCC(=O)[O-])c2c1 (protonated)
CN(C)c1ccc2cc(C([NH-])=O)n(C(=O)SCC(=O)[O-])c2c1 (3D coordinates assigned)
CN(C)c1ccc2cc(C([NH-])=O)n(C(=O)SCC(=O)[O-])c2c1 (optimized conformer: 70.54326902412065 kcal/mol)

>  <smiles>  (27) 
CN(C)c1ccc2cc(C(N)=O)n(C(=O)SCC(=O)O)c2c1

>  <score_type>  (27) 
oracle

>  <origin>  (27) 
adg

>  <m_score__min__energy>  (27) 
-12.300000000000001

>  <m_primary>  (27) 
energy

$$$$
27:0
     RDKit          3D

 44 45  0  0  0  0  0  0  0  0999 V2000
   -4.1940   22.7810  -27.7410 C   0  0  0  0  0  0  0  0  0  0  0  0
   -3.1180   22.3140  -28.3880 C   0  0  0  0  0  0  0  0  0  0  0  0
   -1.7380   22.6150  -27.8480 C   0  0  0  0  0  0  0  0  0  0  0  0
   -1.7890   23.6050  -26.6770 C   0  0  0  0  0  0  0  0  0  0  0  0
   -1.4220   24.9620  -27.1070 N   0  0  0  0  0  0  0  0  0  0  0  0
   -1.7160   26.1140  -26.2500 C   0  0  0  0  0  0  0  0  0  0  0  0
   -0.7310   25.1650  -28.3540 C   0  0  0  0  0  0  0  0  0  0  0  0
    0.3430   24.5530  -28.5960 O   0  0  0  0  0  0  0  0  0  0  0  0
   -1.2410   26.0380  -29.3080 O   0  0  0  0  0  0  0  0  0  0  0  0
   -3.2660   21.5590  -29.6550 C   0  0  0  0  0  0  0  0  0  0  0  0
   -3.5530   20.3300  -29.6340 O   0  0  0  0  0  0  0  0  0  0  0  0
   -3.0930   22.2310  -30.8710 O   0  0  0  0  0  0  0  0  0  0  0  0
   -4.0530   22.3360  -31.8860 C   0  0  0  0  0  0  0  0  0  0  0  0
   -3.7510   22.0960  -33.0870 O   0  0  0  0  0  0  0  0  0  0  0  0
   -5.3970   22.7110  -31.5490 N   0  0  0  0  0  0  0  0  0  0  0  0
   -5.8120   23.8560  -30.9370 C   0  0  0  0  0  0  0  0  0  0  0  0
   -4.9640   25.0180  -30.6090 C   0  0  0  0  0  0  0  0  0  0  0  0
   -3.6310   24.8480  -30.1260 N   0  0  0  0  0  0  0  0  0  0  0  0
   -5.4020   26.1810  -30.8140 O   0  0  0  0  0  0  0  0  0  0  0  0
   -7.1860   23.8220  -30.7090 C   0  0  0  0  0  0  0  0  0  0  0  0
   -7.6080   22.6180  -31.2230 C   0  0  0  0  0  0  0  0  0  0  0  0
   -8.8850   22.0630  -31.2680 C   0  0  0  0  0  0  0  0  0  0  0  0
   -9.0280   20.7870  -31.8400 C   0  0  0  0  0  0  0  0  0  0  0  0
   -7.9020   20.0920  -32.3400 C   0  0  0  0  0  0  0  0  0  0  0  0
   -8.0600   18.7900  -32.9100 N   0  0  0  0  0  0  0  0  0  0  0  0
   -6.6220   20.6810  -32.2710 C   0  0  0  0  0  0  0  0  0  0  0  0
   -6.5100   21.9630  -31.7210 C   0  0  0  0  0  0  0  0  0  0  0  0
   -5.2024   22.5678  -28.1253 H   0  0  0  0  0  0  0  0  0  0  0  0
   -4.0692   23.3777  -26.8254 H   0  0  0  0  0  0  0  0  0  0  0  0
   -1.2785   21.6774  -27.5020 H   0  0  0  0  0  0  0  0  0  0  0  0
   -1.1461   23.0703  -28.6557 H   0  0  0  0  0  0  0  0  0  0  0  0
   -2.8097   23.6229  -26.2674 H   0  0  0  0  0  0  0  0  0  0  0  0
   -1.0684   23.2764  -25.9136 H   0  0  0  0  0  0  0  0  0  0  0  0
   -1.6396   25.8146  -25.1943 H   0  0  0  0  0  0  0  0  0  0  0  0
   -0.9943   26.9181  -26.4562 H   0  0  0  0  0  0  0  0  0  0  0  0
   -2.7348   26.4739  -26.4562 H   0  0  0  0  0  0  0  0  0  0  0  0
   -3.1790   23.9070  -30.1120 H   0  0  0  0  0  0  0  0  0  0  0  0
   -3.0580   25.6800  -29.8630 H   0  0  0  0  0  0  0  0  0  0  0  0
   -7.8015   24.5929  -30.2222 H   0  0  0  0  0  0  0  0  0  0  0  0
   -9.7541   22.6062  -30.8685 H   0  0  0  0  0  0  0  0  0  0  0  0
  -10.0244   20.3248  -31.8993 H   0  0  0  0  0  0  0  0  0  0  0  0
   -8.5180   18.6670  -33.8410 H   0  0  0  0  0  0  0  0  0  0  0  0
   -7.7250   17.9410  -32.4030 H   0  0  0  0  0  0  0  0  0  0  0  0
   -5.7345   20.1462  -32.6401 H   0  0  0  0  0  0  0  0  0  0  0  0
  1  2  2  0
  2  3  1  0
  3  4  1  0
  4  5  1  0
  5  6  1  0
  5  7  1  0
  7  8  2  0
  7  9  1  0
  2 10  1  0
 10 11  2  0
 10 12  1  0
 12 13  1  0
 13 14  2  0
 13 15  1  0
 15 16  1  0
 16 17  1  0
 17 18  1  0
 17 19  2  0
 16 20  2  0
 20 21  1  0
 21 22  2  0
 22 23  1  0
 23 24  2  0
 24 25  1  0
 24 26  1  0
 26 27  2  0
 27 15  1  0
 27 21  1  0
  1 28  1  0
  1 29  1  0
  3 30  1  0
  3 31  1  0
  4 32  1  0
  4 33  1  0
  6 34  1  0
  6 35  1  0
  6 36  1  0
 18 37  1  0
 18 38  1  0
 20 39  1  0
 22 40  1  0
 23 41  1  0
 25 42  1  0
 25 43  1  0
 26 44  1  0
M  CHG  1   9  -1
M  END
>  <UniqueID>  (28) 
28

>  <SMILES>  (28) 
C=C(CCN(C)C(=O)[O-])C(=O)OC(=O)n1c(C(N)=O)cc2ccc(N)cc21

>  <Energy>  (28) 
73.46026601404373

>  <Genealogy>  (28) 
C=C(CCN(C)C(=O)[O-])C(=O)OC(=O)n1c(C(N)=O)cc2ccc(N)cc21 (protonated)
C=C(CCN(C)C(=O)[O-])C(=O)OC(=O)n1c(C(N)=O)cc2ccc(N)cc21 (3D coordinates assigned)
C=C(CCN(C)C(=O)[O-])C(=O)OC(=O)n1c(C(N)=O)cc2ccc(N)cc21 (optimized conformer: 73.46026601404373 kcal/mol)

>  <smiles>  (28) 
C=C(CCN(C)C(=O)O)C(=O)OC(=O)n1c(C(N)=O)cc2ccc(N)cc21

>  <score_type>  (28) 
oracle

>  <origin>  (28) 
adg

>  <m_score__min__energy>  (28) 
-10.24

>  <m_primary>  (28) 
energy

$$$$
28:0
     RDKit          3D

 48 49  0  0  0  0  0  0  0  0999 V2000
   -6.4340   23.2080  -32.3580 C   0  0  0  0  0  0  0  0  0  0  0  0
   -7.2050   22.2040  -31.6170 N   0  0  0  0  0  0  0  0  0  0  0  0
   -7.6150   22.4670  -30.2330 C   0  0  0  0  0  0  0  0  0  0  0  0
   -7.5530   20.9640  -32.2710 C   0  0  0  0  0  0  0  0  0  0  0  0
   -7.2470   20.7880  -33.4820 O   0  0  0  0  0  0  0  0  0  0  0  0
   -8.2570   19.8510  -31.5430 C   0  0  0  0  0  0  0  0  0  0  0  0
   -7.5590   18.6200  -31.7120 O   0  0  0  0  0  0  0  0  0  0  0  0
   -6.1860   18.4760  -31.4800 C   0  0  0  0  0  0  0  0  0  0  0  0
   -5.7740   17.8020  -30.4980 O   0  0  0  0  0  0  0  0  0  0  0  0
   -5.2460   19.0930  -32.3740 N   0  0  0  0  0  0  0  0  0  0  0  0
   -4.9580   18.7200  -33.6520 C   0  0  0  0  0  0  0  0  0  0  0  0
   -5.6810   17.7010  -34.4410 C   0  0  0  0  0  0  0  0  0  0  0  0
   -6.5880   16.7900  -33.8190 N   0  0  0  0  0  0  0  0  0  0  0  0
   -5.5350   17.6690  -35.6910 O   0  0  0  0  0  0  0  0  0  0  0  0
   -3.8910   19.4610  -34.1510 C   0  0  0  0  0  0  0  0  0  0  0  0
   -3.5360   20.3150  -33.1320 C   0  0  0  0  0  0  0  0  0  0  0  0
   -2.5240   21.2640  -33.0760 C   0  0  0  0  0  0  0  0  0  0  0  0
   -2.3500   21.9760  -31.8780 C   0  0  0  0  0  0  0  0  0  0  0  0
   -3.1740   21.7230  -30.7370 C   0  0  0  0  0  0  0  0  0  0  0  0
   -3.0030   22.4910  -29.4110 C   0  0  0  0  0  0  0  0  0  0  0  0
   -1.5350   22.5490  -28.9300 C   0  0  0  0  0  0  0  0  0  0  0  0
   -3.8310   21.8180  -28.2940 C   0  0  0  0  0  0  0  0  0  0  0  0
   -3.5800   24.2220  -29.6350 P   0  0  0  0  0  0  0  0  0  0  0  0
   -4.6960   24.5440  -28.6660 O   0  0  0  0  0  0  0  0  0  0  0  0
   -4.1450   24.4240  -31.2160 O   0  0  0  0  0  0  0  0  0  0  0  0
   -2.2970   25.2900  -29.3660 O   0  0  0  0  0  0  0  0  0  0  0  0
   -4.1990   20.7470  -30.8560 C   0  0  0  0  0  0  0  0  0  0  0  0
   -4.3640   20.0720  -32.0700 C   0  0  0  0  0  0  0  0  0  0  0  0
   -5.9222   23.8745  -31.6482 H   0  0  0  0  0  0  0  0  0  0  0  0
   -5.6885   22.7042  -32.9907 H   0  0  0  0  0  0  0  0  0  0  0  0
   -7.1132   23.7982  -32.9907 H   0  0  0  0  0  0  0  0  0  0  0  0
   -6.8940   22.0045  -29.5428 H   0  0  0  0  0  0  0  0  0  0  0  0
   -7.6442   23.5528  -30.0593 H   0  0  0  0  0  0  0  0  0  0  0  0
   -8.6141   22.0408  -30.0593 H   0  0  0  0  0  0  0  0  0  0  0  0
   -8.3062   20.0944  -30.4714 H   0  0  0  0  0  0  0  0  0  0  0  0
   -9.2708   19.7431  -31.9559 H   0  0  0  0  0  0  0  0  0  0  0  0
   -6.8610   16.8980  -32.8170 H   0  0  0  0  0  0  0  0  0  0  0  0
   -7.0560   16.0480  -34.3850 H   0  0  0  0  0  0  0  0  0  0  0  0
   -3.4301   19.3812  -35.1466 H   0  0  0  0  0  0  0  0  0  0  0  0
   -1.8769   21.4528  -33.9453 H   0  0  0  0  0  0  0  0  0  0  0  0
   -1.5644   22.7434  -31.8162 H   0  0  0  0  0  0  0  0  0  0  0  0
   -1.5092   22.5500  -27.8303 H   0  0  0  0  0  0  0  0  0  0  0  0
   -0.9901   21.6717  -29.3087 H   0  0  0  0  0  0  0  0  0  0  0  0
   -1.0610   23.4666  -29.3087 H   0  0  0  0  0  0  0  0  0  0  0  0
   -3.4456   22.1313  -27.3125 H   0  0  0  0  0  0  0  0  0  0  0  0
   -4.8850   22.1187  -28.3870 H   0  0  0  0  0  0  0  0  0  0  0  0
   -3.7520   20.7248  -28.3870 H   0  0  0  0  0  0  0  0  0  0  0  0
   -4.8562   20.5243  -30.0025 H   0  0  0  0  0  0  0  0  0  0  0  0
  1  2  1  0
  2  3  1  0
  2  4  1  0
  4  5  2  0
  4  6  1  0
  6  7  1  0
  7  8  1  0
  8  9  2  0
  8 10  1  0
 10 11  1  0
 11 12  1  0
 12 13  1  0
 12 14  2  0
 11 15  2  0
 15 16  1  0
 16 17  2  0
 17 18  1  0
 18 19  2  0
 19 20  1  0
 20 21  1  0
 20 22  1  0
 20 23  1  0
 23 24  2  0
 23 25  1  0
 23 26  1  0
 19 27  1  0
 27 28  2  0
 28 10  1  0
 28 16  1  0
  1 29  1  0
  1 30  1  0
  1 31  1  0
  3 32  1  0
  3 33  1  0
  3 34  1  0
  6 35  1  0
  6 36  1  0
 13 37  1  0
 13 38  1  0
 15 39  1  0
 17 40  1  0
 18 41  1  0
 21 42  1  0
 21 43  1  0
 21 44  1  0
 22 45  1  0
 22 46  1  0
 22 47  1  0
 27 48  1  0
M  CHG  2  25  -1  26  -1
M  END
>  <UniqueID>  (29) 
29

>  <SMILES>  (29) 
CN(C)C(=O)COC(=O)n1c(C(N)=O)cc2ccc(C(C)(C)P(=O)([O-])[O-])cc21

>  <Energy>  (29) 
80.97683305160918

>  <Genealogy>  (29) 
CN(C)C(=O)COC(=O)n1c(C(N)=O)cc2ccc(C(C)(C)P(=O)([O-])[O-])cc21 (protonated)
CN(C)C(=O)COC(=O)n1c(C(N)=O)cc2ccc(C(C)(C)P(=O)([O-])[O-])cc21 (3D coordinates assigned)
CN(C)C(=O)COC(=O)n1c(C(N)=O)cc2ccc(C(C)(C)P(=O)([O-])[O-])cc21 (optimized conformer: 80.97683305160918 kcal/mol)

>  <smiles>  (29) 
CN(C)C(=O)COC(=O)n1c(C(N)=O)cc2ccc(C(C)(C)P(=O)(O)O)cc21

>  <score_type>  (29) 
oracle

>  <origin>  (29) 
adg

>  <m_score__min__energy>  (29) 
-11.539999999999999

>  <m_primary>  (29) 
energy

$$$$
29:0
     RDKit          3D

 47 49  0  0  0  0  0  0  0  0999 V2000
   -2.7850   21.9040  -32.8400 N   0  0  0  0  0  0  0  0  0  0  0  0
   -1.5790   21.5680  -32.1490 C   0  0  0  0  0  0  0  0  0  0  0  0
   -0.4660   21.8530  -32.6690 O   0  0  0  0  0  0  0  0  0  0  0  0
   -1.6340   20.9100  -30.8270 C   0  0  0  0  0  0  0  0  0  0  0  0
   -0.6630   20.0250  -30.3460 C   0  0  0  0  0  0  0  0  0  0  0  0
   -1.0960   19.6570  -29.0960 C   0  0  0  0  0  0  0  0  0  0  0  0
   -0.5200   18.8070  -28.1560 C   0  0  0  0  0  0  0  0  0  0  0  0
   -1.2140   18.5890  -26.9560 C   0  0  0  0  0  0  0  0  0  0  0  0
   -2.4480   19.2410  -26.7100 C   0  0  0  0  0  0  0  0  0  0  0  0
   -3.1940   18.9400  -25.5220 N   0  0  0  0  0  0  0  0  0  0  0  0
   -2.9780   20.1350  -27.6650 C   0  0  0  0  0  0  0  0  0  0  0  0
   -2.2840   20.3120  -28.8600 C   0  0  0  0  0  0  0  0  0  0  0  0
   -2.6320   21.0650  -29.9260 N   0  0  0  0  0  0  0  0  0  0  0  0
   -3.5920   22.1160  -29.9560 C   0  0  0  0  0  0  0  0  0  0  0  0
   -4.6370   21.9400  -30.6460 O   0  0  0  0  0  0  0  0  0  0  0  0
   -3.4460   23.3160  -29.1560 N   0  0  0  0  0  0  0  0  0  0  0  0
   -3.5330   23.2100  -27.6950 C   0  0  0  0  0  0  0  0  0  0  0  0
   -2.4790   24.0770  -27.0060 C   0  0  0  0  0  0  0  0  0  0  0  0
   -1.3340   23.2530  -26.5560 N   0  0  0  0  0  0  0  0  0  0  0  0
   -0.5790   22.6550  -27.6870 C   0  0  0  0  0  0  0  0  0  0  0  0
    0.5390   23.5800  -28.2070 C   0  0  0  0  0  0  0  0  0  0  0  0
    0.2880   24.9220  -27.8530 O   0  0  0  0  0  0  0  0  0  0  0  0
    0.3810   25.0750  -26.4460 C   0  0  0  0  0  0  0  0  0  0  0  0
   -0.4210   24.0010  -25.6660 C   0  0  0  0  0  0  0  0  0  0  0  0
   -3.1110   24.5910  -29.7430 C   0  0  0  0  0  0  0  0  0  0  0  0
   -2.1110   25.2410  -29.3420 O   0  0  0  0  0  0  0  0  0  0  0  0
   -3.8650   25.1110  -30.7880 O   0  0  0  0  0  0  0  0  0  0  0  0
   -2.7540   22.4880  -33.6980 H   0  0  0  0  0  0  0  0  0  0  0  0
   -3.6960   21.4920  -32.5510 H   0  0  0  0  0  0  0  0  0  0  0  0
    0.2519   19.6946  -30.8595 H   0  0  0  0  0  0  0  0  0  0  0  0
    0.4483   18.3217  -28.3478 H   0  0  0  0  0  0  0  0  0  0  0  0
   -0.7970   17.9068  -26.2005 H   0  0  0  0  0  0  0  0  0  0  0  0
   -2.8140   18.2600  -24.8170 H   0  0  0  0  0  0  0  0  0  0  0  0
   -4.1990   19.2290  -25.4530 H   0  0  0  0  0  0  0  0  0  0  0  0
   -3.9148   20.6779  -27.4708 H   0  0  0  0  0  0  0  0  0  0  0  0
   -4.5321   23.5377  -27.3718 H   0  0  0  0  0  0  0  0  0  0  0  0
   -3.3545   22.1616  -27.4140 H   0  0  0  0  0  0  0  0  0  0  0  0
   -2.1194   24.8385  -27.7137 H   0  0  0  0  0  0  0  0  0  0  0  0
   -2.9356   24.5565  -26.1276 H   0  0  0  0  0  0  0  0  0  0  0  0
   -0.1267   21.7110  -27.3489 H   0  0  0  0  0  0  0  0  0  0  0  0
   -1.2879   22.4920  -28.5122 H   0  0  0  0  0  0  0  0  0  0  0  0
    1.4985   23.2658  -27.7702 H   0  0  0  0  0  0  0  0  0  0  0  0
    0.5736   23.5067  -29.3040 H   0  0  0  0  0  0  0  0  0  0  0  0
    1.4392   25.0027  -26.1546 H   0  0  0  0  0  0  0  0  0  0  0  0
   -0.0484   26.0554  -26.1923 H   0  0  0  0  0  0  0  0  0  0  0  0
    0.2840   23.2952  -25.2026 H   0  0  0  0  0  0  0  0  0  0  0  0
   -1.0256   24.5102  -24.9010 H   0  0  0  0  0  0  0  0  0  0  0  0
  1  2  1  0
  2  3  2  0
  2  4  1  0
  4  5  2  0
  5  6  1  0
  6  7  2  0
  7  8  1  0
  8  9  2  0
  9 10  1  0
  9 11  1  0
 11 12  2  0
 12 13  1  0
 13 14  1  0
 14 15  2  0
 14 16  1  0
 16 17  1  0
 17 18  1  0
 18 19  1  0
 19 20  1  0
 20 21  1  0
 21 22  1  0
 22 23  1  0
 23 24  1  0
 16 25  1  0
 25 26  2  0
 25 27  1  0
 13  4  1  0
 24 19  1  0
 12  6  1  0
  1 28  1  0
  1 29  1  0
  5 30  1  0
  7 31  1  0
  8 32  1  0
 10 33  1  0
 10 34  1  0
 11 35  1  0
 17 36  1  0
 17 37  1  0
 18 38  1  0
 18 39  1  0
 20 40  1  0
 20 41  1  0
 21 42  1  0
 21 43  1  0
 23 44  1  0
 23 45  1  0
 24 46  1  0
 24 47  1  0
M  CHG  1  27  -1
M  END
>  <UniqueID>  (30) 
30

>  <SMILES>  (30) 
NC(=O)c1cc2ccc(N)cc2n1C(=O)N(CCN1CCOCC1)C(=O)[O-]

>  <Energy>  (30) 
104.69160277670159

>  <Genealogy>  (30) 
NC(=O)c1cc2ccc(N)cc2n1C(=O)N(CCN1CCOCC1)C(=O)[O-] (protonated)
NC(=O)c1cc2ccc(N)cc2n1C(=O)N(CCN1CCOCC1)C(=O)[O-] (3D coordinates assigned)
NC(=O)c1cc2ccc(N)cc2n1C(=O)N(CCN1CCOCC1)C(=O)[O-] (nonaromatic ring conformer: 104.69160277670159 kcal/mol)

>  <smiles>  (30) 
NC(=O)c1cc2ccc(N)cc2n1C(=O)N(CCN1CCOCC1)C(=O)O

>  <score_type>  (30) 
oracle

>  <origin>  (30) 
adg

>  <m_score__min__energy>  (30) 
-9.6999999999999993

>  <m_primary>  (30) 
energy

$$$$
30:0
     RDKit          3D

 54 55  0  0  0  0  0  0  0  0999 V2000
   -3.7470   19.3470  -33.8420 C   0  0  0  0  0  0  0  0  0  0  0  0
   -5.0600   18.6800  -33.7940 N   0  0  0  0  0  0  0  0  0  0  0  0
   -5.3370   18.0530  -35.0960 C   0  0  0  0  0  0  0  0  0  0  0  0
   -5.1040   17.6640  -32.7180 C   0  0  0  0  0  0  0  0  0  0  0  0
   -6.5020   17.0420  -32.5850 C   0  0  0  0  0  0  0  0  0  0  0  0
   -7.5330   18.0520  -32.0550 C   0  0  0  0  0  0  0  0  0  0  0  0
   -7.8780   19.0350  -33.0920 N   0  0  0  0  0  0  0  0  0  0  0  0
   -7.8310   20.3670  -32.5420 C   0  0  0  0  0  0  0  0  0  0  0  0
   -9.0310   21.0440  -32.2060 C   0  0  0  0  0  0  0  0  0  0  0  0
   -8.9970   22.3330  -31.6520 C   0  0  0  0  0  0  0  0  0  0  0  0
   -7.7520   22.9150  -31.4290 C   0  0  0  0  0  0  0  0  0  0  0  0
   -7.4330   24.1560  -30.9280 C   0  0  0  0  0  0  0  0  0  0  0  0
   -6.0410   24.2080  -30.9300 C   0  0  0  0  0  0  0  0  0  0  0  0
   -5.2700   25.3460  -30.3900 C   0  0  0  0  0  0  0  0  0  0  0  0
   -3.9520   25.6250  -30.8550 N   0  0  0  0  0  0  0  0  0  0  0  0
   -5.7620   26.0530  -29.4690 O   0  0  0  0  0  0  0  0  0  0  0  0
   -5.5190   23.0480  -31.4190 N   0  0  0  0  0  0  0  0  0  0  0  0
   -4.1390   22.7460  -31.6740 C   0  0  0  0  0  0  0  0  0  0  0  0
   -3.8170   22.1480  -32.7360 O   0  0  0  0  0  0  0  0  0  0  0  0
   -3.1640   23.1440  -30.7470 O   0  0  0  0  0  0  0  0  0  0  0  0
   -2.9260   22.5590  -29.4580 C   0  0  0  0  0  0  0  0  0  0  0  0
   -2.6760   21.0450  -29.5890 C   0  0  0  0  0  0  0  0  0  0  0  0
   -4.1080   22.8340  -28.5080 C   0  0  0  0  0  0  0  0  0  0  0  0
   -1.6650   23.2230  -28.8850 C   0  0  0  0  0  0  0  0  0  0  0  0
   -6.5800   22.2650  -31.7190 C   0  0  0  0  0  0  0  0  0  0  0  0
   -6.5850   20.9880  -32.2900 C   0  0  0  0  0  0  0  0  0  0  0  0
   -3.3902   19.5283  -32.8174 H   0  0  0  0  0  0  0  0  0  0  0  0
   -3.0286   18.7046  -34.3722 H   0  0  0  0  0  0  0  0  0  0  0  0
   -3.8421   20.3061  -34.3722 H   0  0  0  0  0  0  0  0  0  0  0  0
   -5.7769   17.0573  -34.9373 H   0  0  0  0  0  0  0  0  0  0  0  0
   -6.0421   18.6794  -35.6620 H   0  0  0  0  0  0  0  0  0  0  0  0
   -4.3991   17.9535  -35.6620 H   0  0  0  0  0  0  0  0  0  0  0  0
   -4.3798   16.8687  -32.9481 H   0  0  0  0  0  0  0  0  0  0  0  0
   -4.8554   18.1584  -31.7674 H   0  0  0  0  0  0  0  0  0  0  0  0
   -6.8283   16.6868  -33.5736 H   0  0  0  0  0  0  0  0  0  0  0  0
   -6.4380   16.2122  -31.8657 H   0  0  0  0  0  0  0  0  0  0  0  0
   -8.4427   17.5135  -31.7510 H   0  0  0  0  0  0  0  0  0  0  0  0
   -7.0984   18.5828  -31.1952 H   0  0  0  0  0  0  0  0  0  0  0  0
   -8.8390   18.8390  -33.4590 H   0  0  0  0  0  0  0  0  0  0  0  0
   -7.2050   18.9600  -33.8910 H   0  0  0  0  0  0  0  0  0  0  0  0
   -9.9996   20.5531  -32.3816 H   0  0  0  0  0  0  0  0  0  0  0  0
   -9.9255   22.8671  -31.4016 H   0  0  0  0  0  0  0  0  0  0  0  0
   -8.1292   24.9404  -30.5963 H   0  0  0  0  0  0  0  0  0  0  0  0
   -3.1140   25.2770  -30.3380 H   0  0  0  0  0  0  0  0  0  0  0  0
   -2.6021   20.5975  -28.5869 H   0  0  0  0  0  0  0  0  0  0  0  0
   -3.5098   20.5817  -30.1369 H   0  0  0  0  0  0  0  0  0  0  0  0
   -1.7375   20.8744  -30.1369 H   0  0  0  0  0  0  0  0  0  0  0  0
   -3.7666   22.7546  -27.4654 H   0  0  0  0  0  0  0  0  0  0  0  0
   -4.4970   23.8466  -28.6903 H   0  0  0  0  0  0  0  0  0  0  0  0
   -4.9041   22.0971  -28.6903 H   0  0  0  0  0  0  0  0  0  0  0  0
   -1.7063   23.2012  -27.7860 H   0  0  0  0  0  0  0  0  0  0  0  0
   -0.7744   22.6769  -29.2293 H   0  0  0  0  0  0  0  0  0  0  0  0
   -1.6113   24.2663  -29.2293 H   0  0  0  0  0  0  0  0  0  0  0  0
   -5.6420   20.4785  -32.5374 H   0  0  0  0  0  0  0  0  0  0  0  0
  1  2  1  0
  2  3  1  0
  2  4  1  0
  4  5  1  0
  5  6  1  0
  6  7  1  0
  7  8  1  0
  8  9  2  0
  9 10  1  0
 10 11  2  0
 11 12  1  0
 12 13  2  0
 13 14  1  0
 14 15  1  0
 14 16  2  0
 13 17  1  0
 17 18  1  0
 18 19  2  0
 18 20  1  0
 20 21  1  0
 21 22  1  0
 21 23  1  0
 21 24  1  0
 17 25  1  0
 25 26  2  0
 26  8  1  0
 25 11  1  0
  1 27  1  0
  1 28  1  0
  1 29  1  0
  3 30  1  0
  3 31  1  0
  3 32  1  0
  4 33  1  0
  4 34  1  0
  5 35  1  0
  5 36  1  0
  6 37  1  0
  6 38  1  0
  7 39  1  0
  7 40  1  0
  9 41  1  0
 10 42  1  0
 12 43  1  0
 15 44  1  0
 22 45  1  0
 22 46  1  0
 22 47  1  0
 23 48  1  0
 23 49  1  0
 23 50  1  0
 24 51  1  0
 24 52  1  0
 24 53  1  0
 26 54  1  0
M  CHG  2   7   1  15  -1
M  END
>  <UniqueID>  (31) 
31

>  <SMILES>  (31) 
CN(C)CCC[NH2+]c1ccc2cc(C([NH-])=O)n(C(=O)OC(C)(C)C)c2c1

>  <Energy>  (31) 
84.70502899130548

>  <Genealogy>  (31) 
CN(C)CCC[NH2+]c1ccc2cc(C([NH-])=O)n(C(=O)OC(C)(C)C)c2c1 (protonated)
CN(C)CCC[NH2+]c1ccc2cc(C([NH-])=O)n(C(=O)OC(C)(C)C)c2c1 (3D coordinates assigned)
CN(C)CCC[NH2+]c1ccc2cc(C([NH-])=O)n(C(=O)OC(C)(C)C)c2c1 (optimized conformer: 84.70502899130548 kcal/mol)

>  <smiles>  (31) 
CN(C)CCCNc1ccc2cc(C(N)=O)n(C(=O)OC(C)(C)C)c2c1

>  <score_type>  (31) 
oracle

>  <origin>  (31) 
adg

>  <m_score__min__energy>  (31) 
-10.1

>  <m_primary>  (31) 
energy

$$$$
31:0
     RDKit          3D

 39 41  0  0  0  0  0  0  0  0999 V2000
   -6.8540   17.3800  -33.3560 C   0  0  0  0  0  0  0  0  0  0  0  0
   -6.9960   18.4950  -32.9190 C   0  0  0  0  0  0  0  0  0  0  0  0
   -7.1640   19.8250  -32.3970 C   0  0  0  0  0  0  0  0  0  0  0  0
   -8.4630   20.3590  -32.2270 C   0  0  0  0  0  0  0  0  0  0  0  0
   -8.6400   21.6550  -31.7100 C   0  0  0  0  0  0  0  0  0  0  0  0
   -7.5000   22.3850  -31.3780 C   0  0  0  0  0  0  0  0  0  0  0  0
   -7.3740   23.6510  -30.8480 C   0  0  0  0  0  0  0  0  0  0  0  0
   -6.0020   23.8600  -30.7110 C   0  0  0  0  0  0  0  0  0  0  0  0
   -5.3980   25.1030  -30.1910 C   0  0  0  0  0  0  0  0  0  0  0  0
   -4.2470   25.6530  -30.8270 N   0  0  0  0  0  0  0  0  0  0  0  0
   -5.8840   25.6820  -29.1840 O   0  0  0  0  0  0  0  0  0  0  0  0
   -5.3140   22.7660  -31.1380 N   0  0  0  0  0  0  0  0  0  0  0  0
   -3.8940   22.5650  -31.1460 C   0  0  0  0  0  0  0  0  0  0  0  0
   -3.1600   23.4110  -31.7260 O   0  0  0  0  0  0  0  0  0  0  0  0
   -3.2850   21.3620  -30.5320 C   0  0  0  0  0  0  0  0  0  0  0  0
   -3.2480   20.1920  -31.1770 C   0  0  0  0  0  0  0  0  0  0  0  0
   -2.7090   21.4560  -29.1790 C   0  0  0  0  0  0  0  0  0  0  0  0
   -3.2280   20.7930  -28.2430 O   0  0  0  0  0  0  0  0  0  0  0  0
   -1.5960   22.3120  -28.8940 N   0  0  0  0  0  0  0  0  0  0  0  0
   -1.6730   23.5150  -28.0690 C   0  0  0  0  0  0  0  0  0  0  0  0
   -0.9490   24.7390  -28.5400 C   0  0  0  0  0  0  0  0  0  0  0  0
    0.2490   24.9400  -28.2080 O   0  0  0  0  0  0  0  0  0  0  0  0
   -1.6070   25.6650  -29.3380 O   0  0  0  0  0  0  0  0  0  0  0  0
   -2.8920   23.6440  -27.1720 C   0  0  0  0  0  0  0  0  0  0  0  0
   -1.5490   23.2300  -26.5830 C   0  0  0  0  0  0  0  0  0  0  0  0
   -6.2390   21.8760  -31.5450 C   0  0  0  0  0  0  0  0  0  0  0  0
   -6.0320   20.5900  -32.0520 C   0  0  0  0  0  0  0  0  0  0  0  0
   -6.7245   16.3630  -33.7546 H   0  0  0  0  0  0  0  0  0  0  0  0
   -9.3412   19.7561  -32.5012 H   0  0  0  0  0  0  0  0  0  0  0  0
   -9.6457   22.0788  -31.5721 H   0  0  0  0  0  0  0  0  0  0  0  0
   -8.1838   24.3486  -30.5882 H   0  0  0  0  0  0  0  0  0  0  0  0
   -3.2930   25.2800  -30.6240 H   0  0  0  0  0  0  0  0  0  0  0  0
   -2.7898   19.3142  -30.6980 H   0  0  0  0  0  0  0  0  0  0  0  0
   -3.6758   20.1069  -32.1868 H   0  0  0  0  0  0  0  0  0  0  0  0
   -3.3083   24.6374  -26.9485 H   0  0  0  0  0  0  0  0  0  0  0  0
   -3.9067   23.2193  -27.1713 H   0  0  0  0  0  0  0  0  0  0  0  0
   -0.9953   23.9243  -25.9339 H   0  0  0  0  0  0  0  0  0  0  0  0
   -1.1916   22.3821  -25.9803 H   0  0  0  0  0  0  0  0  0  0  0  0
   -5.0161   20.1873  -32.1779 H   0  0  0  0  0  0  0  0  0  0  0  0
  1  2  3  0
  2  3  1  0
  3  4  2  0
  4  5  1  0
  5  6  2  0
  6  7  1  0
  7  8  2  0
  8  9  1  0
  9 10  1  0
  9 11  2  0
  8 12  1  0
 12 13  1  0
 13 14  2  0
 13 15  1  0
 15 16  2  0
 15 17  1  0
 17 18  2  0
 17 19  1  0
 19 20  1  0
 20 21  1  0
 21 22  2  0
 21 23  1  0
 20 24  1  0
 24 25  1  0
 12 26  1  0
 26 27  2  0
 27  3  1  0
 26  6  1  0
 25 20  1  0
  1 28  1  0
  4 29  1  0
  5 30  1  0
  7 31  1  0
 10 32  1  0
 16 33  1  0
 16 34  1  0
 24 35  1  0
 24 36  1  0
 25 37  1  0
 25 38  1  0
 27 39  1  0
M  CHG  3  10  -1  19  -1  23  -1
M  END
>  <UniqueID>  (32) 
32

>  <SMILES>  (32) 
C#Cc1ccc2cc(C([NH-])=O)n(C(=O)C(=C)C(=O)[N-]C3(C(=O)[O-])CC3)c2c1

>  <Energy>  (32) 
350.1265346348319

>  <Genealogy>  (32) 
C#Cc1ccc2cc(C([NH-])=O)n(C(=O)C(=C)C(=O)[N-]C3(C(=O)[O-])CC3)c2c1 (protonated)
C#Cc1ccc2cc(C([NH-])=O)n(C(=O)C(=C)C(=O)[N-]C3(C(=O)[O-])CC3)c2c1 (3D coordinates assigned)
C#Cc1ccc2cc(C([NH-])=O)n(C(=O)C(=C)C(=O)[N-]C3(C(=O)[O-])CC3)c2c1 (nonaromatic ring conformer: 350.1265346348319 kcal/mol)

>  <smiles>  (32) 
C#Cc1ccc2cc(C(N)=O)n(C(=O)C(=C)C(=O)NC3(C(=O)O)CC3)c2c1

>  <score_type>  (32) 
oracle

>  <origin>  (32) 
adg

>  <m_score__min__energy>  (32) 
-14.279999999999999

>  <m_primary>  (32) 
energy

$$$$
32:0
     RDKit          3D

 59 61  0  0  0  0  0  0  0  0999 V2000
   -4.2120   24.2040  -26.9580 C   0  0  0  0  0  0  0  0  0  0  0  0
   -4.0990   24.2920  -28.4450 C   0  0  0  0  0  0  0  0  0  0  0  0
   -5.1210   24.3880  -29.2650 O   0  0  0  0  0  0  0  0  0  0  0  0
   -4.6090   24.4480  -30.4740 C   0  0  0  0  0  0  0  0  0  0  0  0
   -5.2990   24.5470  -31.5220 O   0  0  0  0  0  0  0  0  0  0  0  0
   -3.2960   24.3990  -30.4690 O   0  0  0  0  0  0  0  0  0  0  0  0
   -2.9440   24.2990  -29.2070 C   0  0  0  0  0  0  0  0  0  0  0  0
   -1.5280   24.2080  -28.7300 C   0  0  0  0  0  0  0  0  0  0  0  0
   -0.9870   22.9250  -29.0320 O   0  0  0  0  0  0  0  0  0  0  0  0
   -0.8070   21.9150  -28.0770 C   0  0  0  0  0  0  0  0  0  0  0  0
    0.2040   21.9260  -27.3220 O   0  0  0  0  0  0  0  0  0  0  0  0
   -1.7840   20.8640  -27.9590 N   0  0  0  0  0  0  0  0  0  0  0  0
   -1.4890   19.6810  -27.1470 C   0  0  0  0  0  0  0  0  0  0  0  0
   -3.0330   20.9420  -28.7270 C   0  0  0  0  0  0  0  0  0  0  0  0
   -2.7270   20.8640  -30.2270 C   0  0  0  0  0  0  0  0  0  0  0  0
   -3.9970   20.7500  -31.0870 C   0  0  0  0  0  0  0  0  0  0  0  0
   -3.6510   20.5650  -32.5070 N   0  0  0  0  0  0  0  0  0  0  0  0
   -2.6850   21.4640  -33.1450 C   0  0  0  0  0  0  0  0  0  0  0  0
   -4.2570   19.5130  -33.2910 C   0  0  0  0  0  0  0  0  0  0  0  0
   -3.6570   19.0490  -34.2980 O   0  0  0  0  0  0  0  0  0  0  0  0
   -5.5450   18.9830  -32.9460 N   0  0  0  0  0  0  0  0  0  0  0  0
   -5.8870   17.6760  -32.7720 C   0  0  0  0  0  0  0  0  0  0  0  0
   -4.9850   16.5150  -32.9250 C   0  0  0  0  0  0  0  0  0  0  0  0
   -4.0700   16.4110  -34.0170 N   0  0  0  0  0  0  0  0  0  0  0  0
   -5.0380   15.5780  -32.0810 O   0  0  0  0  0  0  0  0  0  0  0  0
   -7.2020   17.5750  -32.3210 C   0  0  0  0  0  0  0  0  0  0  0  0
   -7.6520   18.8740  -32.2160 C   0  0  0  0  0  0  0  0  0  0  0  0
   -8.8750   19.3670  -31.7720 C   0  0  0  0  0  0  0  0  0  0  0  0
   -9.0410   20.7610  -31.7110 C   0  0  0  0  0  0  0  0  0  0  0  0
   -7.9890   21.6350  -32.0910 C   0  0  0  0  0  0  0  0  0  0  0  0
   -8.1660   23.1260  -31.9720 C   0  0  0  0  0  0  0  0  0  0  0  0
   -7.4560   23.7880  -32.9590 F   0  0  0  0  0  0  0  0  0  0  0  0
   -7.7100   23.5420  -30.7340 F   0  0  0  0  0  0  0  0  0  0  0  0
   -9.5010   23.4640  -32.0980 F   0  0  0  0  0  0  0  0  0  0  0  0
   -6.7490   21.0900  -32.4970 C   0  0  0  0  0  0  0  0  0  0  0  0
   -6.6260   19.7020  -32.5810 C   0  0  0  0  0  0  0  0  0  0  0  0
   -3.4253   24.8167  -26.4936 H   0  0  0  0  0  0  0  0  0  0  0  0
   -5.1988   24.5739  -26.6427 H   0  0  0  0  0  0  0  0  0  0  0  0
   -4.0951   23.1566  -26.6427 H   0  0  0  0  0  0  0  0  0  0  0  0
   -0.9264   24.9822  -29.2287 H   0  0  0  0  0  0  0  0  0  0  0  0
   -1.5066   24.3584  -27.6405 H   0  0  0  0  0  0  0  0  0  0  0  0
   -1.5543   19.9427  -26.0806 H   0  0  0  0  0  0  0  0  0  0  0  0
   -2.2171   18.8887  -27.3753 H   0  0  0  0  0  0  0  0  0  0  0  0
   -0.4742   19.3233  -27.3753 H   0  0  0  0  0  0  0  0  0  0  0  0
   -3.6883   20.1050  -28.4441 H   0  0  0  0  0  0  0  0  0  0  0  0
   -3.5345   21.8963  -28.5082 H   0  0  0  0  0  0  0  0  0  0  0  0
   -2.1822   21.7727  -30.5227 H   0  0  0  0  0  0  0  0  0  0  0  0
   -2.1282   19.9571  -30.3971 H   0  0  0  0  0  0  0  0  0  0  0  0
   -4.5886   19.8882  -30.7445 H   0  0  0  0  0  0  0  0  0  0  0  0
   -4.5782   21.6781  -30.9832 H   0  0  0  0  0  0  0  0  0  0  0  0
   -2.1129   21.9964  -32.3709 H   0  0  0  0  0  0  0  0  0  0  0  0
   -1.9967   20.8776  -33.7714 H   0  0  0  0  0  0  0  0  0  0  0  0
   -3.2204   22.1926  -33.7714 H   0  0  0  0  0  0  0  0  0  0  0  0
   -3.3730   15.6340  -34.0430 H   0  0  0  0  0  0  0  0  0  0  0  0
   -4.1500   17.0260  -34.8550 H   0  0  0  0  0  0  0  0  0  0  0  0
   -7.7616   16.6549  -32.0966 H   0  0  0  0  0  0  0  0  0  0  0  0
   -9.6873   18.6862  -31.4777 H   0  0  0  0  0  0  0  0  0  0  0  0
   -9.9974   21.1799  -31.3647 H   0  0  0  0  0  0  0  0  0  0  0  0
   -5.9000   21.7453  -32.7413 H   0  0  0  0  0  0  0  0  0  0  0  0
  1  2  1  0
  2  3  1  0
  3  4  1  0
  4  5  2  0
  4  6  1  0
  6  7  1  0
  7  8  1  0
  8  9  1  0
  9 10  1  0
 10 11  2  0
 10 12  1  0
 12 13  1  0
 12 14  1  0
 14 15  1  0
 15 16  1  0
 16 17  1  0
 17 18  1  0
 17 19  1  0
 19 20  2  0
 19 21  1  0
 21 22  1  0
 22 23  1  0
 23 24  1  0
 23 25  2  0
 22 26  2  0
 26 27  1  0
 27 28  2  0
 28 29  1  0
 29 30  2  0
 30 31  1  0
 31 32  1  0
 31 33  1  0
 31 34  1  0
 30 35  1  0
 35 36  2  0
  7  2  2  0
 36 21  1  0
 36 27  1  0
  1 37  1  0
  1 38  1  0
  1 39  1  0
  8 40  1  0
  8 41  1  0
 13 42  1  0
 13 43  1  0
 13 44  1  0
 14 45  1  0
 14 46  1  0
 15 47  1  0
 15 48  1  0
 16 49  1  0
 16 50  1  0
 18 51  1  0
 18 52  1  0
 18 53  1  0
 24 54  1  0
 24 55  1  0
 26 56  1  0
 28 57  1  0
 29 58  1  0
 35 59  1  0
M  END
>  <UniqueID>  (33) 
33

>  <SMILES>  (33) 
Cc1oc(=O)oc1COC(=O)N(C)CCCN(C)C(=O)n1c(C(N)=O)cc2ccc(C(F)(F)F)cc21

>  <Energy>  (33) 
121.79175944653753

>  <Genealogy>  (33) 
Cc1oc(=O)oc1COC(=O)N(C)CCCN(C)C(=O)n1c(C(N)=O)cc2ccc(C(F)(F)F)cc21 (3D coordinates assigned)
Cc1oc(=O)oc1COC(=O)N(C)CCCN(C)C(=O)n1c(C(N)=O)cc2ccc(C(F)(F)F)cc21 (optimized conformer: 121.79175944653753 kcal/mol)

>  <smiles>  (33) 
Cc1oc(=O)oc1COC(=O)N(C)CCCN(C)C(=O)n1c(C(N)=O)cc2ccc(C(F)(F)F)cc21

>  <score_type>  (33) 
oracle

>  <origin>  (33) 
adg

>  <m_score__min__energy>  (33) 
-9.3699999999999992

>  <m_primary>  (33) 
energy

$$$$
33:0
     RDKit          3D

 59 62  0  0  0  0  0  0  0  0999 V2000
   -0.2590   17.7400  -34.6000 C   0  0  0  0  0  0  0  0  0  0  0  0
   -1.0870   17.4420  -33.3350 C   0  0  0  0  0  0  0  0  0  0  0  0
   -1.1100   18.6690  -32.3990 C   0  0  0  0  0  0  0  0  0  0  0  0
   -0.4500   16.2600  -32.5900 C   0  0  0  0  0  0  0  0  0  0  0  0
   -2.4200   17.0460  -33.6950 O   0  0  0  0  0  0  0  0  0  0  0  0
   -3.4950   17.9020  -33.9830 C   0  0  0  0  0  0  0  0  0  0  0  0
   -3.3050   18.9950  -34.5760 O   0  0  0  0  0  0  0  0  0  0  0  0
   -4.8270   17.5110  -33.6010 N   0  0  0  0  0  0  0  0  0  0  0  0
   -5.4470   16.3260  -33.8680 C   0  0  0  0  0  0  0  0  0  0  0  0
   -4.7930   15.1110  -34.3940 C   0  0  0  0  0  0  0  0  0  0  0  0
   -3.6700   15.1970  -35.2740 N   0  0  0  0  0  0  0  0  0  0  0  0
   -5.1930   13.9790  -34.0130 O   0  0  0  0  0  0  0  0  0  0  0  0
   -6.7950   16.3820  -33.5210 C   0  0  0  0  0  0  0  0  0  0  0  0
   -6.9840   17.6470  -33.0110 C   0  0  0  0  0  0  0  0  0  0  0  0
   -8.1430   18.2570  -32.5400 C   0  0  0  0  0  0  0  0  0  0  0  0
   -8.0600   19.5950  -32.1150 C   0  0  0  0  0  0  0  0  0  0  0  0
   -6.8270   20.2950  -32.1660 C   0  0  0  0  0  0  0  0  0  0  0  0
   -6.7440   21.7020  -31.7120 C   0  0  0  0  0  0  0  0  0  0  0  0
   -7.8990   22.5000  -31.6490 C   0  0  0  0  0  0  0  0  0  0  0  0
   -7.8200   23.7930  -31.2330 N   0  0  0  0  0  0  0  0  0  0  0  0
   -6.6410   24.3480  -30.8470 C   0  0  0  0  0  0  0  0  0  0  0  0
   -5.4610   23.5850  -30.8540 C   0  0  0  0  0  0  0  0  0  0  0  0
   -4.1890   24.1790  -30.3900 C   0  0  0  0  0  0  0  0  0  0  0  0
   -3.8710   25.3320  -30.8040 O   0  0  0  0  0  0  0  0  0  0  0  0
   -3.3230   23.4860  -29.4630 N   0  0  0  0  0  0  0  0  0  0  0  0
   -1.9540   23.9880  -29.2730 C   0  0  0  0  0  0  0  0  0  0  0  0
   -1.0690   22.9170  -28.6220 C   0  0  0  0  0  0  0  0  0  0  0  0
   -1.6820   22.4060  -27.4540 O   0  0  0  0  0  0  0  0  0  0  0  0
   -2.8600   21.7140  -27.8120 C   0  0  0  0  0  0  0  0  0  0  0  0
   -3.9100   22.6810  -28.3800 C   0  0  0  0  0  0  0  0  0  0  0  0
   -5.5170   22.2610  -31.3190 C   0  0  0  0  0  0  0  0  0  0  0  0
   -5.6720   19.6430  -32.6560 C   0  0  0  0  0  0  0  0  0  0  0  0
   -5.7810   18.3080  -33.0650 C   0  0  0  0  0  0  0  0  0  0  0  0
    0.7391   18.0992  -34.3088 H   0  0  0  0  0  0  0  0  0  0  0  0
   -0.1584   16.8217  -35.1971 H   0  0  0  0  0  0  0  0  0  0  0  0
   -0.7667   18.5118  -35.1971 H   0  0  0  0  0  0  0  0  0  0  0  0
   -1.1037   18.3317  -31.3520 H   0  0  0  0  0  0  0  0  0  0  0  0
   -0.2234   19.2917  -32.5889 H   0  0  0  0  0  0  0  0  0  0  0  0
   -2.0193   19.2581  -32.5889 H   0  0  0  0  0  0  0  0  0  0  0  0
   -0.5366   16.4207  -31.5053 H   0  0  0  0  0  0  0  0  0  0  0  0
   -0.9692   15.3302  -32.8655 H   0  0  0  0  0  0  0  0  0  0  0  0
    0.6121   16.1824  -32.8655 H   0  0  0  0  0  0  0  0  0  0  0  0
   -3.2380   14.3290  -35.6600 H   0  0  0  0  0  0  0  0  0  0  0  0
   -3.2080   16.1130  -35.4700 H   0  0  0  0  0  0  0  0  0  0  0  0
   -7.5469   15.5866  -33.6308 H   0  0  0  0  0  0  0  0  0  0  0  0
   -9.0958   17.7087  -32.5013 H   0  0  0  0  0  0  0  0  0  0  0  0
   -8.9600   20.1039  -31.7393 H   0  0  0  0  0  0  0  0  0  0  0  0
   -8.8725   22.0769  -31.9377 H   0  0  0  0  0  0  0  0  0  0  0  0
   -6.6103   25.4001  -30.5274 H   0  0  0  0  0  0  0  0  0  0  0  0
   -1.5305   24.2608  -30.2509 H   0  0  0  0  0  0  0  0  0  0  0  0
   -1.9882   24.8674  -28.6131 H   0  0  0  0  0  0  0  0  0  0  0  0
   -0.9113   22.0955  -29.3363 H   0  0  0  0  0  0  0  0  0  0  0  0
   -0.1063   23.3724  -28.3466 H   0  0  0  0  0  0  0  0  0  0  0  0
   -2.6169   20.9581  -28.5732 H   0  0  0  0  0  0  0  0  0  0  0  0
   -3.2733   21.2333  -26.9131 H   0  0  0  0  0  0  0  0  0  0  0  0
   -4.7596   22.1045  -28.7747 H   0  0  0  0  0  0  0  0  0  0  0  0
   -4.2527   23.3516  -27.5782 H   0  0  0  0  0  0  0  0  0  0  0  0
   -4.5973   21.6602  -31.3756 H   0  0  0  0  0  0  0  0  0  0  0  0
   -4.7095   20.1724  -32.7146 H   0  0  0  0  0  0  0  0  0  0  0  0
  1  2  1  0
  2  3  1  0
  2  4  1  0
  2  5  1  0
  5  6  1  0
  6  7  2  0
  6  8  1  0
  8  9  1  0
  9 10  1  0
 10 11  1  0
 10 12  2  0
  9 13  2  0
 13 14  1  0
 14 15  2  0
 15 16  1  0
 16 17  2  0
 17 18  1  0
 18 19  2  0
 19 20  1  0
 20 21  2  0
 21 22  1  0
 22 23  1  0
 23 24  2  0
 23 25  1  0
 25 26  1  0
 26 27  1  0
 27 28  1  0
 28 29  1  0
 29 30  1  0
 22 31  2  0
 17 32  1  0
 32 33  2  0
 33  8  1  0
 33 14  1  0
 31 18  1  0
 30 25  1  0
  1 34  1  0
  1 35  1  0
  1 36  1  0
  3 37  1  0
  3 38  1  0
  3 39  1  0
  4 40  1  0
  4 41  1  0
  4 42  1  0
 11 43  1  0
 11 44  1  0
 13 45  1  0
 15 46  1  0
 16 47  1  0
 19 48  1  0
 21 49  1  0
 26 50  1  0
 26 51  1  0
 27 52  1  0
 27 53  1  0
 29 54  1  0
 29 55  1  0
 30 56  1  0
 30 57  1  0
 31 58  1  0
 32 59  1  0
M  END
>  <UniqueID>  (34) 
34

>  <SMILES>  (34) 
CC(C)(C)OC(=O)n1c(C(N)=O)cc2ccc(-c3cncc(C(=O)N4CCOCC4)c3)cc21

>  <Energy>  (34) 
109.4209892286072

>  <Genealogy>  (34) 
CC(C)(C)OC(=O)n1c(C(N)=O)cc2ccc(-c3cncc(C(=O)N4CCOCC4)c3)cc21 (3D coordinates assigned)
CC(C)(C)OC(=O)n1c(C(N)=O)cc2ccc(-c3cncc(C(=O)N4CCOCC4)c3)cc21 (nonaromatic ring conformer: 109.4209892286072 kcal/mol)

>  <smiles>  (34) 
CC(C)(C)OC(=O)n1c(C(N)=O)cc2ccc(-c3cncc(C(=O)N4CCOCC4)c3)cc21

>  <score_type>  (34) 
oracle

>  <origin>  (34) 
adg

>  <m_score__min__energy>  (34) 
-10.619999999999999

>  <m_primary>  (34) 
energy

$$$$
34:0
     RDKit          3D

 46 48  0  0  0  0  0  0  0  0999 V2000
   -3.4950   17.5110  -33.0730 C   0  0  0  0  0  0  0  0  0  0  0  0
   -4.6300   16.6110  -33.3430 N   0  0  0  0  0  0  0  0  0  0  0  0
   -5.5450   17.1680  -34.3750 C   0  0  0  0  0  0  0  0  0  0  0  0
   -6.8520   17.7480  -33.8020 C   0  0  0  0  0  0  0  0  0  0  0  0
   -6.6210   18.2880  -32.4600 N   0  0  0  0  0  0  0  0  0  0  0  0
   -6.8760   19.6720  -32.1550 C   0  0  0  0  0  0  0  0  0  0  0  0
   -8.1880   20.1980  -32.2630 C   0  0  0  0  0  0  0  0  0  0  0  0
   -8.4500   21.5450  -31.9590 C   0  0  0  0  0  0  0  0  0  0  0  0
   -7.3880   22.3350  -31.5300 C   0  0  0  0  0  0  0  0  0  0  0  0
   -7.3530   23.6690  -31.1950 C   0  0  0  0  0  0  0  0  0  0  0  0
   -6.0280   23.9320  -30.8550 C   0  0  0  0  0  0  0  0  0  0  0  0
   -5.5500   25.2530  -30.3940 C   0  0  0  0  0  0  0  0  0  0  0  0
   -4.2040   25.6660  -30.6080 N   0  0  0  0  0  0  0  0  0  0  0  0
   -6.3380   26.0210  -29.7800 O   0  0  0  0  0  0  0  0  0  0  0  0
   -5.2740   22.8010  -30.9680 N   0  0  0  0  0  0  0  0  0  0  0  0
   -3.8570   22.6610  -30.7740 C   0  0  0  0  0  0  0  0  0  0  0  0
   -3.0920   22.6490  -31.7760 O   0  0  0  0  0  0  0  0  0  0  0  0
   -3.2940   22.5030  -29.4230 C   0  0  0  0  0  0  0  0  0  0  0  0
   -2.6200   21.4780  -29.1350 O   0  0  0  0  0  0  0  0  0  0  0  0
   -3.5200   23.7770  -28.1780 S   0  0  0  0  0  0  0  0  0  0  0  0
   -1.7750   23.8030  -27.6460 C   0  0  0  0  0  0  0  0  0  0  0  0
   -0.9580   24.6940  -28.5280 C   0  0  0  0  0  0  0  0  0  0  0  0
    0.2890   24.5420  -28.5970 O   0  0  0  0  0  0  0  0  0  0  0  0
   -1.5780   25.6600  -29.3100 O   0  0  0  0  0  0  0  0  0  0  0  0
   -6.1190   21.8370  -31.3920 C   0  0  0  0  0  0  0  0  0  0  0  0
   -5.8250   20.5080  -31.7140 C   0  0  0  0  0  0  0  0  0  0  0  0
   -6.0450   17.4060  -31.4400 C   0  0  0  0  0  0  0  0  0  0  0  0
   -5.3250   16.2140  -32.0980 C   0  0  0  0  0  0  0  0  0  0  0  0
   -3.3615   17.6169  -31.9863 H   0  0  0  0  0  0  0  0  0  0  0  0
   -2.5801   17.0903  -33.5156 H   0  0  0  0  0  0  0  0  0  0  0  0
   -3.6961   18.4977  -33.5156 H   0  0  0  0  0  0  0  0  0  0  0  0
   -5.0158   17.9698  -34.9108 H   0  0  0  0  0  0  0  0  0  0  0  0
   -5.8276   16.3345  -35.0349 H   0  0  0  0  0  0  0  0  0  0  0  0
   -7.2117   18.5525  -34.4603 H   0  0  0  0  0  0  0  0  0  0  0  0
   -7.6037   16.9472  -33.7419 H   0  0  0  0  0  0  0  0  0  0  0  0
   -9.0106   19.5443  -32.5885 H   0  0  0  0  0  0  0  0  0  0  0  0
   -9.4633   21.9617  -32.0572 H   0  0  0  0  0  0  0  0  0  0  0  0
   -8.1939   24.3782  -31.1955 H   0  0  0  0  0  0  0  0  0  0  0  0
   -3.5170   25.6870  -29.8220 H   0  0  0  0  0  0  0  0  0  0  0  0
   -1.7199   24.1727  -26.6114 H   0  0  0  0  0  0  0  0  0  0  0  0
   -1.3734   22.7811  -27.7123 H   0  0  0  0  0  0  0  0  0  0  0  0
   -4.7987   20.1220  -31.6260 H   0  0  0  0  0  0  0  0  0  0  0  0
   -5.3235   17.9752  -30.8355 H   0  0  0  0  0  0  0  0  0  0  0  0
   -6.8562   17.0229  -30.8034 H   0  0  0  0  0  0  0  0  0  0  0  0
   -4.5856   15.8101  -31.3907 H   0  0  0  0  0  0  0  0  0  0  0  0
   -6.0809   15.4573  -32.3548 H   0  0  0  0  0  0  0  0  0  0  0  0
  1  2  1  0
  2  3  1  0
  3  4  1  0
  4  5  1  0
  5  6  1  0
  6  7  2  0
  7  8  1  0
  8  9  2  0
  9 10  1  0
 10 11  2  0
 11 12  1  0
 12 13  1  0
 12 14  2  0
 11 15  1  0
 15 16  1  0
 16 17  2  0
 16 18  1  0
 18 19  2  0
 18 20  1  0
 20 21  1  0
 21 22  1  0
 22 23  2  0
 22 24  1  0
 15 25  1  0
 25 26  2  0
  5 27  1  0
 27 28  1  0
 28  2  1  0
 26  6  1  0
 25  9  1  0
  1 29  1  0
  1 30  1  0
  1 31  1  0
  3 32  1  0
  3 33  1  0
  4 34  1  0
  4 35  1  0
  7 36  1  0
  8 37  1  0
 10 38  1  0
 13 39  1  0
 21 40  1  0
 21 41  1  0
 26 42  1  0
 27 43  1  0
 27 44  1  0
 28 45  1  0
 28 46  1  0
M  CHG  2  13  -1  24  -1
M  END
>  <UniqueID>  (35) 
35

>  <SMILES>  (35) 
CN1CCN(c2ccc3cc(C([NH-])=O)n(C(=O)C(=O)SCC(=O)[O-])c3c2)CC1

>  <Energy>  (35) 
93.10496996172881

>  <Genealogy>  (35) 
CN1CCN(c2ccc3cc(C([NH-])=O)n(C(=O)C(=O)SCC(=O)[O-])c3c2)CC1 (protonated)
CN1CCN(c2ccc3cc(C([NH-])=O)n(C(=O)C(=O)SCC(=O)[O-])c3c2)CC1 (3D coordinates assigned)
CN1CCN(c2ccc3cc(C([NH-])=O)n(C(=O)C(=O)SCC(=O)[O-])c3c2)CC1 (nonaromatic ring conformer: 93.10496996172881 kcal/mol)

>  <smiles>  (35) 
CN1CCN(c2ccc3cc(C(N)=O)n(C(=O)C(=O)SCC(=O)O)c3c2)CC1

>  <score_type>  (35) 
oracle

>  <origin>  (35) 
adg

>  <m_score__min__energy>  (35) 
-13.550000000000001

>  <m_primary>  (35) 
energy

$$$$
35:0
     RDKit          3D

 36 37  0  0  0  0  0  0  0  0999 V2000
   -3.2180   19.1170  -33.8070 C   0  0  0  0  0  0  0  0  0  0  0  0
   -4.3010   18.2750  -33.4320 O   0  0  0  0  0  0  0  0  0  0  0  0
   -5.5870   18.4250  -33.9580 C   0  0  0  0  0  0  0  0  0  0  0  0
   -5.7660   18.5280  -35.2020 O   0  0  0  0  0  0  0  0  0  0  0  0
   -6.7550   18.5150  -33.0300 C   0  0  0  0  0  0  0  0  0  0  0  0
   -6.9230   19.9290  -32.5510 C   0  0  0  0  0  0  0  0  0  0  0  0
   -8.2200   20.4780  -32.3970 C   0  0  0  0  0  0  0  0  0  0  0  0
   -8.3910   21.7830  -31.9050 C   0  0  0  0  0  0  0  0  0  0  0  0
   -7.2510   22.5110  -31.5760 C   0  0  0  0  0  0  0  0  0  0  0  0
   -7.1320   23.7760  -31.0490 C   0  0  0  0  0  0  0  0  0  0  0  0
   -5.7620   23.9850  -30.8990 C   0  0  0  0  0  0  0  0  0  0  0  0
   -5.1800   25.2620  -30.4360 C   0  0  0  0  0  0  0  0  0  0  0  0
   -3.8770   25.6660  -30.8460 N   0  0  0  0  0  0  0  0  0  0  0  0
   -5.8630   26.0310  -29.7070 O   0  0  0  0  0  0  0  0  0  0  0  0
   -5.0630   22.8900  -31.3110 N   0  0  0  0  0  0  0  0  0  0  0  0
   -3.6470   22.6690  -31.2220 C   0  0  0  0  0  0  0  0  0  0  0  0
   -3.0530   22.0300  -32.1330 O   0  0  0  0  0  0  0  0  0  0  0  0
   -2.9380   23.1470  -30.1140 O   0  0  0  0  0  0  0  0  0  0  0  0
   -1.5210   23.0510  -29.9930 C   0  0  0  0  0  0  0  0  0  0  0  0
   -0.9890   24.2480  -29.3540 N   0  0  0  0  0  0  0  0  0  0  0  0
   -1.7040   25.2640  -29.2410 O   0  0  0  0  0  0  0  0  0  0  0  0
    0.2410   24.2120  -28.7410 O   0  0  0  0  0  0  0  0  0  0  0  0
   -5.9890   21.9960  -31.7250 C   0  0  0  0  0  0  0  0  0  0  0  0
   -5.7900   20.6940  -32.1950 C   0  0  0  0  0  0  0  0  0  0  0  0
   -2.7229   19.5019  -32.9033 H   0  0  0  0  0  0  0  0  0  0  0  0
   -2.4954   18.5411  -34.4039 H   0  0  0  0  0  0  0  0  0  0  0  0
   -3.5980   19.9592  -34.4039 H   0  0  0  0  0  0  0  0  0  0  0  0
   -7.6660   18.1991  -33.5594 H   0  0  0  0  0  0  0  0  0  0  0  0
   -6.5799   17.8590  -32.1645 H   0  0  0  0  0  0  0  0  0  0  0  0
   -9.1014   19.8770  -32.6651 H   0  0  0  0  0  0  0  0  0  0  0  0
   -9.3948   22.2161  -31.7835 H   0  0  0  0  0  0  0  0  0  0  0  0
   -7.9447   24.4739  -30.7992 H   0  0  0  0  0  0  0  0  0  0  0  0
   -3.0250   25.2870  -30.3770 H   0  0  0  0  0  0  0  0  0  0  0  0
   -1.2670   22.1706  -29.3844 H   0  0  0  0  0  0  0  0  0  0  0  0
   -1.0805   22.9533  -30.9962 H   0  0  0  0  0  0  0  0  0  0  0  0
   -4.7765   20.2760  -32.2852 H   0  0  0  0  0  0  0  0  0  0  0  0
  1  2  1  0
  2  3  1  0
  3  4  2  0
  3  5  1  0
  5  6  1  0
  6  7  2  0
  7  8  1  0
  8  9  2  0
  9 10  1  0
 10 11  2  0
 11 12  1  0
 12 13  1  0
 12 14  2  0
 11 15  1  0
 15 16  1  0
 16 17  2  0
 16 18  1  0
 18 19  1  0
 19 20  1  0
 20 21  2  0
 20 22  1  0
 15 23  1  0
 23 24  2  0
 24  6  1  0
 23  9  1  0
  1 25  1  0
  1 26  1  0
  1 27  1  0
  5 28  1  0
  5 29  1  0
  7 30  1  0
  8 31  1  0
 10 32  1  0
 13 33  1  0
 19 34  1  0
 19 35  1  0
 24 36  1  0
M  CHG  3  13  -1  20   1  22  -1
M  END
>  <UniqueID>  (36) 
36

>  <SMILES>  (36) 
COC(=O)Cc1ccc2cc(C([NH-])=O)n(C(=O)OC[N+](=O)[O-])c2c1

>  <Energy>  (36) 
68.82740498892872

>  <Genealogy>  (36) 
COC(=O)Cc1ccc2cc(C([NH-])=O)n(C(=O)OC[N+](=O)[O-])c2c1 (protonated)
COC(=O)Cc1ccc2cc(C([NH-])=O)n(C(=O)OC[N+](=O)[O-])c2c1 (3D coordinates assigned)
COC(=O)Cc1ccc2cc(C([NH-])=O)n(C(=O)OC[N+](=O)[O-])c2c1 (optimized conformer: 68.82740498892872 kcal/mol)

>  <smiles>  (36) 
COC(=O)Cc1ccc2cc(C(N)=O)n(C(=O)OC[N+](=O)[O-])c2c1

>  <score_type>  (36) 
oracle

>  <origin>  (36) 
adg

>  <m_score__min__energy>  (36) 
-10.449999999999999

>  <m_primary>  (36) 
energy

$$$$
36:0
     RDKit          3D

 42 43  0  0  0  0  0  0  0  0999 V2000
   -3.2170   24.3450  -27.5460 C   0  0  0  0  0  0  0  0  0  0  0  0
   -1.8750   24.2460  -28.2940 C   0  0  0  0  0  0  0  0  0  0  0  0
   -1.2360   25.6390  -28.4420 C   0  0  0  0  0  0  0  0  0  0  0  0
   -0.9230   23.3400  -27.4960 C   0  0  0  0  0  0  0  0  0  0  0  0
   -2.0720   23.6340  -29.6120 N   0  0  0  0  0  0  0  0  0  0  0  0
   -2.9830   22.5750  -29.9410 C   0  0  0  0  0  0  0  0  0  0  0  0
   -3.1530   21.6040  -29.1560 O   0  0  0  0  0  0  0  0  0  0  0  0
   -3.7310   22.6300  -31.2060 C   0  0  0  0  0  0  0  0  0  0  0  0
   -3.1190   22.4850  -32.2970 O   0  0  0  0  0  0  0  0  0  0  0  0
   -5.1510   22.8410  -31.2090 N   0  0  0  0  0  0  0  0  0  0  0  0
   -5.8220   23.9980  -30.9440 C   0  0  0  0  0  0  0  0  0  0  0  0
   -5.2170   25.2610  -30.4690 C   0  0  0  0  0  0  0  0  0  0  0  0
   -3.8990   25.6380  -30.8580 N   0  0  0  0  0  0  0  0  0  0  0  0
   -5.8640   26.0050  -29.6840 O   0  0  0  0  0  0  0  0  0  0  0  0
   -7.1910   23.8210  -31.1370 C   0  0  0  0  0  0  0  0  0  0  0  0
   -7.3380   22.5100  -31.5320 C   0  0  0  0  0  0  0  0  0  0  0  0
   -8.4850   21.8020  -31.8810 C   0  0  0  0  0  0  0  0  0  0  0  0
   -8.3340   20.4650  -32.2890 C   0  0  0  0  0  0  0  0  0  0  0  0
   -7.0500   19.8660  -32.3390 C   0  0  0  0  0  0  0  0  0  0  0  0
   -6.8970   18.4480  -32.8190 C   0  0  0  0  0  0  0  0  0  0  0  0
   -6.0680   18.3990  -34.0990 C   0  0  0  0  0  0  0  0  0  0  0  0
   -6.2810   17.1950  -34.7440 F   0  0  0  0  0  0  0  0  0  0  0  0
   -5.9080   20.6210  -31.9910 C   0  0  0  0  0  0  0  0  0  0  0  0
   -6.0910   21.9430  -31.5710 C   0  0  0  0  0  0  0  0  0  0  0  0
   -3.0341   24.3315  -26.4614 H   0  0  0  0  0  0  0  0  0  0  0  0
   -3.7218   25.2828  -27.8211 H   0  0  0  0  0  0  0  0  0  0  0  0
   -3.8539   23.4914  -27.8211 H   0  0  0  0  0  0  0  0  0  0  0  0
   -1.0423   26.0613  -27.4450 H   0  0  0  0  0  0  0  0  0  0  0  0
   -0.2883   25.5510  -28.9934 H   0  0  0  0  0  0  0  0  0  0  0  0
   -1.9210   26.2999  -28.9934 H   0  0  0  0  0  0  0  0  0  0  0  0
   -1.0859   23.4950  -26.4192 H   0  0  0  0  0  0  0  0  0  0  0  0
   -1.1202   22.2878  -27.7489 H   0  0  0  0  0  0  0  0  0  0  0  0
    0.1182   23.5890  -27.7489 H   0  0  0  0  0  0  0  0  0  0  0  0
   -3.0650   25.2940  -30.3330 H   0  0  0  0  0  0  0  0  0  0  0  0
   -7.9855   24.5697  -31.0023 H   0  0  0  0  0  0  0  0  0  0  0  0
   -9.4778   22.2737  -31.8389 H   0  0  0  0  0  0  0  0  0  0  0  0
   -9.2204   19.8783  -32.5720 H   0  0  0  0  0  0  0  0  0  0  0  0
   -6.3946   17.8553  -32.0404 H   0  0  0  0  0  0  0  0  0  0  0  0
   -7.8951   18.0354  -33.0278 H   0  0  0  0  0  0  0  0  0  0  0  0
   -6.3661   19.2261  -34.7600 H   0  0  0  0  0  0  0  0  0  0  0  0
   -5.0015   18.4947  -33.8472 H   0  0  0  0  0  0  0  0  0  0  0  0
   -4.9014   20.1812  -32.0487 H   0  0  0  0  0  0  0  0  0  0  0  0
  1  2  1  0
  2  3  1  0
  2  4  1  0
  2  5  1  0
  5  6  1  0
  6  7  2  0
  6  8  1  0
  8  9  2  0
  8 10  1  0
 10 11  1  0
 11 12  1  0
 12 13  1  0
 12 14  2  0
 11 15  2  0
 15 16  1  0
 16 17  2  0
 17 18  1  0
 18 19  2  0
 19 20  1  0
 20 21  1  0
 21 22  1  0
 19 23  1  0
 23 24  2  0
 24 10  1  0
 24 16  1  0
  1 25  1  0
  1 26  1  0
  1 27  1  0
  3 28  1  0
  3 29  1  0
  3 30  1  0
  4 31  1  0
  4 32  1  0
  4 33  1  0
 13 34  1  0
 15 35  1  0
 17 36  1  0
 18 37  1  0
 20 38  1  0
 20 39  1  0
 21 40  1  0
 21 41  1  0
 23 42  1  0
M  CHG  2   5  -1  13  -1
M  END
>  <UniqueID>  (37) 
37

>  <SMILES>  (37) 
CC(C)(C)[N-]C(=O)C(=O)n1c(C([NH-])=O)cc2ccc(CCF)cc21

>  <Energy>  (37) 
71.88056559933386

>  <Genealogy>  (37) 
CC(C)(C)[N-]C(=O)C(=O)n1c(C([NH-])=O)cc2ccc(CCF)cc21 (protonated)
CC(C)(C)[N-]C(=O)C(=O)n1c(C([NH-])=O)cc2ccc(CCF)cc21 (3D coordinates assigned)
CC(C)(C)[N-]C(=O)C(=O)n1c(C([NH-])=O)cc2ccc(CCF)cc21 (optimized conformer: 71.88056559933386 kcal/mol)

>  <smiles>  (37) 
CC(C)(C)NC(=O)C(=O)n1c(C(N)=O)cc2ccc(CCF)cc21

>  <score_type>  (37) 
oracle

>  <origin>  (37) 
adg

>  <m_score__min__energy>  (37) 
-10.49

>  <m_primary>  (37) 
energy

$$$$
37:0
     RDKit          3D

 47 48  0  0  0  0  0  0  0  0999 V2000
   -5.0680   14.2280  -34.1980 C   0  0  0  0  0  0  0  0  0  0  0  0
   -4.9140   15.5040  -33.4920 N   0  0  0  0  0  0  0  0  0  0  0  0
   -3.6500   15.8210  -32.8180 C   0  0  0  0  0  0  0  0  0  0  0  0
   -6.0280   16.4250  -33.4640 C   0  0  0  0  0  0  0  0  0  0  0  0
   -7.1240   16.0950  -33.9960 O   0  0  0  0  0  0  0  0  0  0  0  0
   -5.9310   17.7810  -32.8140 C   0  0  0  0  0  0  0  0  0  0  0  0
   -7.1540   18.5550  -33.0290 N   0  0  0  0  0  0  0  0  0  0  0  0
   -7.3650   19.8960  -32.5470 C   0  0  0  0  0  0  0  0  0  0  0  0
   -8.6670   20.4610  -32.4500 C   0  0  0  0  0  0  0  0  0  0  0  0
   -8.8490   21.7700  -31.9710 C   0  0  0  0  0  0  0  0  0  0  0  0
   -7.7210   22.4890  -31.5910 C   0  0  0  0  0  0  0  0  0  0  0  0
   -7.6050   23.7650  -31.0830 C   0  0  0  0  0  0  0  0  0  0  0  0
   -6.2380   23.9580  -30.8700 C   0  0  0  0  0  0  0  0  0  0  0  0
   -5.6240   25.2020  -30.3400 C   0  0  0  0  0  0  0  0  0  0  0  0
   -4.2690   25.5470  -30.6410 N   0  0  0  0  0  0  0  0  0  0  0  0
   -6.2990   25.9760  -29.6100 O   0  0  0  0  0  0  0  0  0  0  0  0
   -5.5490   22.8410  -31.2280 N   0  0  0  0  0  0  0  0  0  0  0  0
   -4.1320   22.6280  -31.1810 C   0  0  0  0  0  0  0  0  0  0  0  0
   -3.4460   22.8470  -32.2150 O   0  0  0  0  0  0  0  0  0  0  0  0
   -3.4980   22.1460  -29.9770 N   0  0  0  0  0  0  0  0  0  0  0  0
   -3.1780   20.7210  -29.8590 C   0  0  0  0  0  0  0  0  0  0  0  0
   -3.2160   23.0590  -28.8600 C   0  0  0  0  0  0  0  0  0  0  0  0
   -2.0510   23.9390  -29.1900 C   0  0  0  0  0  0  0  0  0  0  0  0
   -0.8950   23.4530  -29.2890 O   0  0  0  0  0  0  0  0  0  0  0  0
   -2.2400   25.3040  -29.3670 O   0  0  0  0  0  0  0  0  0  0  0  0
   -6.4630   21.9580  -31.6740 C   0  0  0  0  0  0  0  0  0  0  0  0
   -6.2480   20.6600  -32.1450 C   0  0  0  0  0  0  0  0  0  0  0  0
   -5.1663   13.4132  -33.4656 H   0  0  0  0  0  0  0  0  0  0  0  0
   -5.9683   14.2644  -34.8290 H   0  0  0  0  0  0  0  0  0  0  0  0
   -4.1849   14.0492  -34.8290 H   0  0  0  0  0  0  0  0  0  0  0  0
   -3.7962   15.7843  -31.7284 H   0  0  0  0  0  0  0  0  0  0  0  0
   -2.8846   15.0870  -33.1101 H   0  0  0  0  0  0  0  0  0  0  0  0
   -3.3215   16.8293  -33.1101 H   0  0  0  0  0  0  0  0  0  0  0  0
   -5.7729   17.6512  -31.7332 H   0  0  0  0  0  0  0  0  0  0  0  0
   -5.0881   18.3257  -33.2644 H   0  0  0  0  0  0  0  0  0  0  0  0
   -7.9340   18.0830  -33.5400 H   0  0  0  0  0  0  0  0  0  0  0  0
   -9.5415   19.8666  -32.7534 H   0  0  0  0  0  0  0  0  0  0  0  0
   -9.8536   22.2123  -31.8989 H   0  0  0  0  0  0  0  0  0  0  0  0
   -8.4173   24.4803  -30.8868 H   0  0  0  0  0  0  0  0  0  0  0  0
   -3.6570   24.9330  -31.2190 H   0  0  0  0  0  0  0  0  0  0  0  0
   -3.8640   26.4340  -30.2650 H   0  0  0  0  0  0  0  0  0  0  0  0
   -3.1162   20.4459  -28.7957 H   0  0  0  0  0  0  0  0  0  0  0  0
   -3.9651   20.1269  -30.3463 H   0  0  0  0  0  0  0  0  0  0  0  0
   -2.2125   20.5204  -30.3463 H   0  0  0  0  0  0  0  0  0  0  0  0
   -4.1008   23.6843  -28.6701 H   0  0  0  0  0  0  0  0  0  0  0  0
   -2.9746   22.4662  -27.9654 H   0  0  0  0  0  0  0  0  0  0  0  0
   -5.2316   20.2431  -32.2012 H   0  0  0  0  0  0  0  0  0  0  0  0
  1  2  1  0
  2  3  1  0
  2  4  1  0
  4  5  2  0
  4  6  1  0
  6  7  1  0
  7  8  1  0
  8  9  2  0
  9 10  1  0
 10 11  2  0
 11 12  1  0
 12 13  2  0
 13 14  1  0
 14 15  1  0
 14 16  2  0
 13 17  1  0
 17 18  1  0
 18 19  2  0
 18 20  1  0
 20 21  1  0
 20 22  1  0
 22 23  1  0
 23 24  2  0
 23 25  1  0
 17 26  1  0
 26 27  2  0
 27  8  1  0
 26 11  1  0
  1 28  1  0
  1 29  1  0
  1 30  1  0
  3 31  1  0
  3 32  1  0
  3 33  1  0
  6 34  1  0
  6 35  1  0
  7 36  1  0
  9 37  1  0
 10 38  1  0
 12 39  1  0
 15 40  1  0
 15 41  1  0
 21 42  1  0
 21 43  1  0
 21 44  1  0
 22 45  1  0
 22 46  1  0
 27 47  1  0
M  CHG  1  25  -1
M  END
>  <UniqueID>  (38) 
38

>  <SMILES>  (38) 
CN(C)C(=O)CNc1ccc2cc(C(N)=O)n(C(=O)N(C)CC(=O)[O-])c2c1

>  <Energy>  (38) 
79.37276906677681

>  <Genealogy>  (38) 
CN(C)C(=O)CNc1ccc2cc(C(N)=O)n(C(=O)N(C)CC(=O)[O-])c2c1 (protonated)
CN(C)C(=O)CNc1ccc2cc(C(N)=O)n(C(=O)N(C)CC(=O)[O-])c2c1 (3D coordinates assigned)
CN(C)C(=O)CNc1ccc2cc(C(N)=O)n(C(=O)N(C)CC(=O)[O-])c2c1 (optimized conformer: 79.37276906677681 kcal/mol)

>  <smiles>  (38) 
CN(C)C(=O)CNc1ccc2cc(C(N)=O)n(C(=O)N(C)CC(=O)O)c2c1

>  <score_type>  (38) 
oracle

>  <origin>  (38) 
adg

>  <m_score__min__energy>  (38) 
-10.550000000000001

>  <m_primary>  (38) 
energy

$$$$
38:0
     RDKit          3D

 40 41  0  0  0  0  0  0  0  0999 V2000
   -6.8400   16.8050  -33.9000 C   0  0  0  0  0  0  0  0  0  0  0  0
   -6.3700   17.4160  -32.6510 N   0  0  0  0  0  0  0  0  0  0  0  0
   -5.7160   16.5660  -31.6480 C   0  0  0  0  0  0  0  0  0  0  0  0
   -6.5500   18.8360  -32.4110 C   0  0  0  0  0  0  0  0  0  0  0  0
   -7.7600   19.4890  -32.7790 C   0  0  0  0  0  0  0  0  0  0  0  0
   -7.9480   20.8600  -32.5380 C   0  0  0  0  0  0  0  0  0  0  0  0
   -6.9110   21.5660  -31.9430 C   0  0  0  0  0  0  0  0  0  0  0  0
   -6.8460   22.8870  -31.5580 C   0  0  0  0  0  0  0  0  0  0  0  0
   -5.5840   23.0420  -30.9910 C   0  0  0  0  0  0  0  0  0  0  0  0
   -5.0780   24.3260  -30.4640 C   0  0  0  0  0  0  0  0  0  0  0  0
   -5.3020   24.7120  -29.1070 N   0  0  0  0  0  0  0  0  0  0  0  0
   -4.3950   25.0750  -31.2120 O   0  0  0  0  0  0  0  0  0  0  0  0
   -4.8980   21.8650  -31.0170 N   0  0  0  0  0  0  0  0  0  0  0  0
   -3.6200   21.5870  -30.4260 C   0  0  0  0  0  0  0  0  0  0  0  0
   -3.3710   20.4270  -30.0020 O   0  0  0  0  0  0  0  0  0  0  0  0
   -2.6470   22.6360  -30.2960 N   0  0  0  0  0  0  0  0  0  0  0  0
   -1.2950   22.4310  -29.8640 C   0  0  0  0  0  0  0  0  0  0  0  0
   -0.8680   21.2690  -29.6180 O   0  0  0  0  0  0  0  0  0  0  0  0
   -0.4500   23.5380  -29.7300 O   0  0  0  0  0  0  0  0  0  0  0  0
   -0.5040   24.4360  -28.6230 C   0  0  0  0  0  0  0  0  0  0  0  0
   -1.4460   25.5610  -28.9090 C   0  0  0  0  0  0  0  0  0  0  0  0
   -1.0630   26.7540  -28.7810 O   0  0  0  0  0  0  0  0  0  0  0  0
   -2.7380   25.2950  -29.3440 O   0  0  0  0  0  0  0  0  0  0  0  0
   -5.7270   20.9700  -31.6010 C   0  0  0  0  0  0  0  0  0  0  0  0
   -5.5220   19.6010  -31.8010 C   0  0  0  0  0  0  0  0  0  0  0  0
   -7.4955   15.9528  -33.6673 H   0  0  0  0  0  0  0  0  0  0  0  0
   -7.4003   17.5497  -34.4844 H   0  0  0  0  0  0  0  0  0  0  0  0
   -5.9765   16.4545  -34.4844 H   0  0  0  0  0  0  0  0  0  0  0  0
   -5.9847   16.9152  -30.6401 H   0  0  0  0  0  0  0  0  0  0  0  0
   -6.0485   15.5253  -31.7763 H   0  0  0  0  0  0  0  0  0  0  0  0
   -4.6249   16.6207  -31.7763 H   0  0  0  0  0  0  0  0  0  0  0  0
   -8.5618   18.9100  -33.2605 H   0  0  0  0  0  0  0  0  0  0  0  0
   -8.8888   21.3595  -32.8125 H   0  0  0  0  0  0  0  0  0  0  0  0
   -7.6248   23.6552  -31.6738 H   0  0  0  0  0  0  0  0  0  0  0  0
   -5.6960   24.0410  -28.4120 H   0  0  0  0  0  0  0  0  0  0  0  0
   -4.9810   25.6460  -28.7690 H   0  0  0  0  0  0  0  0  0  0  0  0
   -2.9420   23.6140  -30.5130 H   0  0  0  0  0  0  0  0  0  0  0  0
   -0.8495   23.8919  -27.7316 H   0  0  0  0  0  0  0  0  0  0  0  0
    0.5009   24.8481  -28.4489 H   0  0  0  0  0  0  0  0  0  0  0  0
   -4.5799   19.1253  -31.4908 H   0  0  0  0  0  0  0  0  0  0  0  0
  1  2  1  0
  2  3  1  0
  2  4  1  0
  4  5  2  0
  5  6  1  0
  6  7  2  0
  7  8  1  0
  8  9  2  0
  9 10  1  0
 10 11  1  0
 10 12  2  0
  9 13  1  0
 13 14  1  0
 14 15  2  0
 14 16  1  0
 16 17  1  0
 17 18  2  0
 17 19  1  0
 19 20  1  0
 20 21  1  0
 21 22  2  0
 21 23  1  0
 13 24  1  0
 24 25  2  0
 25  4  1  0
 24  7  1  0
  1 26  1  0
  1 27  1  0
  1 28  1  0
  3 29  1  0
  3 30  1  0
  3 31  1  0
  5 32  1  0
  6 33  1  0
  8 34  1  0
 11 35  1  0
 11 36  1  0
 16 37  1  0
 20 38  1  0
 20 39  1  0
 25 40  1  0
M  CHG  1  23  -1
M  END
>  <UniqueID>  (39) 
39

>  <SMILES>  (39) 
CN(C)c1ccc2cc(C(N)=O)n(C(=O)NC(=O)OCC(=O)[O-])c2c1

>  <Energy>  (39) 
78.73236984134199

>  <Genealogy>  (39) 
CN(C)c1ccc2cc(C(N)=O)n(C(=O)NC(=O)OCC(=O)[O-])c2c1 (protonated)
CN(C)c1ccc2cc(C(N)=O)n(C(=O)NC(=O)OCC(=O)[O-])c2c1 (3D coordinates assigned)
CN(C)c1ccc2cc(C(N)=O)n(C(=O)NC(=O)OCC(=O)[O-])c2c1 (optimized conformer: 78.73236984134199 kcal/mol)

>  <smiles>  (39) 
CN(C)c1ccc2cc(C(N)=O)n(C(=O)NC(=O)OCC(=O)O)c2c1

>  <score_type>  (39) 
oracle

>  <origin>  (39) 
adg

>  <m_score__min__energy>  (39) 
-10.83

>  <m_primary>  (39) 
energy

$$$$
39:0
     RDKit          3D

 36 38  0  0  0  0  0  0  0  0999 V2000
   -4.0110   25.6450  -30.8680 N   0  0  0  0  0  0  0  0  0  0  0  0
   -5.2630   25.2350  -30.3230 C   0  0  0  0  0  0  0  0  0  0  0  0
   -5.8760   26.0070  -29.5380 O   0  0  0  0  0  0  0  0  0  0  0  0
   -5.8760   23.9470  -30.7090 C   0  0  0  0  0  0  0  0  0  0  0  0
   -7.2220   23.8080  -31.0400 C   0  0  0  0  0  0  0  0  0  0  0  0
   -7.3700   22.4950  -31.4240 C   0  0  0  0  0  0  0  0  0  0  0  0
   -8.5060   21.8060  -31.8370 C   0  0  0  0  0  0  0  0  0  0  0  0
   -8.3750   20.4400  -32.1400 C   0  0  0  0  0  0  0  0  0  0  0  0
   -7.1170   19.7950  -32.0310 C   0  0  0  0  0  0  0  0  0  0  0  0
   -7.0000   18.3220  -32.3030 C   0  0  0  0  0  0  0  0  0  0  0  0
   -5.9590   18.0840  -33.2960 N   0  0  0  0  0  0  0  0  0  0  0  0
   -4.6330   18.0940  -33.0900 C   0  0  0  0  0  0  0  0  0  0  0  0
   -3.9620   17.9110  -34.2440 N   0  0  0  0  0  0  0  0  0  0  0  0
   -4.9610   17.8000  -35.1480 C   0  0  0  0  0  0  0  0  0  0  0  0
   -6.1800   17.9120  -34.5850 N   0  0  0  0  0  0  0  0  0  0  0  0
   -5.9900   20.5240  -31.5950 C   0  0  0  0  0  0  0  0  0  0  0  0
   -6.1460   21.8860  -31.3170 C   0  0  0  0  0  0  0  0  0  0  0  0
   -5.2190   22.7640  -30.8740 N   0  0  0  0  0  0  0  0  0  0  0  0
   -3.8480   22.4660  -30.5660 C   0  0  0  0  0  0  0  0  0  0  0  0
   -3.4130   21.2900  -30.7100 O   0  0  0  0  0  0  0  0  0  0  0  0
   -2.9960   23.4880  -30.1330 O   0  0  0  0  0  0  0  0  0  0  0  0
   -1.9980   23.3040  -29.1330 C   0  0  0  0  0  0  0  0  0  0  0  0
   -1.1440   24.5270  -29.0200 C   0  0  0  0  0  0  0  0  0  0  0  0
   -1.6070   25.6560  -29.3320 O   0  0  0  0  0  0  0  0  0  0  0  0
    0.1750   24.4160  -28.5990 O   0  0  0  0  0  0  0  0  0  0  0  0
   -3.1120   25.2910  -30.4720 H   0  0  0  0  0  0  0  0  0  0  0  0
   -8.0013   24.5834  -31.0024 H   0  0  0  0  0  0  0  0  0  0  0  0
   -9.4773   22.3151  -31.9237 H   0  0  0  0  0  0  0  0  0  0  0  0
   -9.2557   19.8664  -32.4644 H   0  0  0  0  0  0  0  0  0  0  0  0
   -6.7422   17.7979  -31.3709 H   0  0  0  0  0  0  0  0  0  0  0  0
   -7.9601   17.9462  -32.6863 H   0  0  0  0  0  0  0  0  0  0  0  0
   -4.1566   18.2333  -32.1083 H   0  0  0  0  0  0  0  0  0  0  0  0
   -4.7970   17.6365  -36.2233 H   0  0  0  0  0  0  0  0  0  0  0  0
   -5.0127   20.0331  -31.4767 H   0  0  0  0  0  0  0  0  0  0  0  0
   -2.4849   23.1109  -28.1657 H   0  0  0  0  0  0  0  0  0  0  0  0
   -1.3641   22.4498  -29.4133 H   0  0  0  0  0  0  0  0  0  0  0  0
  1  2  1  0
  2  3  2  0
  2  4  1  0
  4  5  2  0
  5  6  1  0
  6  7  2  0
  7  8  1  0
  8  9  2  0
  9 10  1  0
 10 11  1  0
 11 12  1  0
 12 13  2  0
 13 14  1  0
 14 15  2  0
  9 16  1  0
 16 17  2  0
 17 18  1  0
 18 19  1  0
 19 20  2  0
 19 21  1  0
 21 22  1  0
 22 23  1  0
 23 24  2  0
 23 25  1  0
 18  4  1  0
 17  6  1  0
 15 11  1  0
  1 26  1  0
  5 27  1  0
  7 28  1  0
  8 29  1  0
 10 30  1  0
 10 31  1  0
 12 32  1  0
 14 33  1  0
 16 34  1  0
 22 35  1  0
 22 36  1  0
M  CHG  2   1  -1  25  -1
M  END
>  <UniqueID>  (40) 
40

>  <SMILES>  (40) 
[NH-]C(=O)c1cc2ccc(Cn3cncn3)cc2n1C(=O)OCC(=O)[O-]

>  <Energy>  (40) 
106.28148877523607

>  <Genealogy>  (40) 
[NH-]C(=O)c1cc2ccc(Cn3cncn3)cc2n1C(=O)OCC(=O)[O-] (protonated)
[NH-]C(=O)c1cc2ccc(Cn3cncn3)cc2n1C(=O)OCC(=O)[O-] (3D coordinates assigned)
[NH-]C(=O)c1cc2ccc(Cn3cncn3)cc2n1C(=O)OCC(=O)[O-] (optimized conformer: 106.28148877523607 kcal/mol)

>  <smiles>  (40) 
NC(=O)c1cc2ccc(Cn3cncn3)cc2n1C(=O)OCC(=O)O

>  <score_type>  (40) 
oracle

>  <origin>  (40) 
adg

>  <m_score__min__energy>  (40) 
-12.449999999999999

>  <m_primary>  (40) 
energy

$$$$
40:0
     RDKit          3D

 32 33  0  0  0  0  0  0  0  0999 V2000
   -3.8750   25.6170  -30.8460 N   0  0  0  0  0  0  0  0  0  0  0  0
   -5.1990   25.2730  -30.4440 C   0  0  0  0  0  0  0  0  0  0  0  0
   -5.8520   26.0720  -29.7220 O   0  0  0  0  0  0  0  0  0  0  0  0
   -5.8020   24.0030  -30.8990 C   0  0  0  0  0  0  0  0  0  0  0  0
   -7.1600   23.8410  -31.1670 C   0  0  0  0  0  0  0  0  0  0  0  0
   -7.3120   22.5100  -31.4880 C   0  0  0  0  0  0  0  0  0  0  0  0
   -8.4480   21.8010  -31.8650 C   0  0  0  0  0  0  0  0  0  0  0  0
   -8.3010   20.4370  -32.1750 C   0  0  0  0  0  0  0  0  0  0  0  0
   -7.0310   19.8120  -32.0980 C   0  0  0  0  0  0  0  0  0  0  0  0
   -6.8750   18.3680  -32.4830 C   0  0  0  0  0  0  0  0  0  0  0  0
   -6.1920   18.2620  -33.8090 C   0  0  0  0  0  0  0  0  0  0  0  0
   -5.6990   17.1650  -34.1810 O   0  0  0  0  0  0  0  0  0  0  0  0
   -6.0550   19.3880  -34.6120 O   0  0  0  0  0  0  0  0  0  0  0  0
   -5.8980   20.5670  -31.7190 C   0  0  0  0  0  0  0  0  0  0  0  0
   -6.0790   21.9180  -31.4070 C   0  0  0  0  0  0  0  0  0  0  0  0
   -5.1420   22.8210  -31.0540 N   0  0  0  0  0  0  0  0  0  0  0  0
   -3.7340   22.5710  -30.9410 C   0  0  0  0  0  0  0  0  0  0  0  0
   -3.0470   22.3820  -31.9800 O   0  0  0  0  0  0  0  0  0  0  0  0
   -3.0510   22.6300  -29.6070 C   0  0  0  0  0  0  0  0  0  0  0  0
   -1.9550   23.5420  -29.6550 O   0  0  0  0  0  0  0  0  0  0  0  0
   -1.7030   24.4910  -28.6580 C   0  0  0  0  0  0  0  0  0  0  0  0
   -1.4990   25.7020  -28.9460 O   0  0  0  0  0  0  0  0  0  0  0  0
   -3.0470   25.2980  -30.2970 H   0  0  0  0  0  0  0  0  0  0  0  0
   -7.9438   24.6119  -31.1301 H   0  0  0  0  0  0  0  0  0  0  0  0
   -9.4309   22.2920  -31.9190 H   0  0  0  0  0  0  0  0  0  0  0  0
   -9.1797   19.8498  -32.4800 H   0  0  0  0  0  0  0  0  0  0  0  0
   -6.2731   17.8511  -31.7211 H   0  0  0  0  0  0  0  0  0  0  0  0
   -7.8698   17.9036  -32.5516 H   0  0  0  0  0  0  0  0  0  0  0  0
   -4.9011   20.1045  -31.6708 H   0  0  0  0  0  0  0  0  0  0  0  0
   -3.7700   22.9656  -28.8451 H   0  0  0  0  0  0  0  0  0  0  0  0
   -2.6740   21.6286  -29.3520 H   0  0  0  0  0  0  0  0  0  0  0  0
   -1.6824   24.1753  -27.6045 H   0  0  0  0  0  0  0  0  0  0  0  0
  1  2  1  0
  2  3  2  0
  2  4  1  0
  4  5  2  0
  5  6  1  0
  6  7  2  0
  7  8  1  0
  8  9  2  0
  9 10  1  0
 10 11  1  0
 11 12  2  0
 11 13  1  0
  9 14  1  0
 14 15  2  0
 15 16  1  0
 16 17  1  0
 17 18  2  0
 17 19  1  0
 19 20  1  0
 20 21  1  0
 21 22  2  0
 16  4  1  0
 15  6  1  0
  1 23  1  0
  5 24  1  0
  7 25  1  0
  8 26  1  0
 10 27  1  0
 10 28  1  0
 14 29  1  0
 19 30  1  0
 19 31  1  0
 21 32  1  0
M  CHG  2   1  -1  13  -1
M  END
>  <UniqueID>  (41) 
41

>  <SMILES>  (41) 
[NH-]C(=O)c1cc2ccc(CC(=O)[O-])cc2n1C(=O)COC=O

>  <Energy>  (41) 
67.51484191245196

>  <Genealogy>  (41) 
[NH-]C(=O)c1cc2ccc(CC(=O)[O-])cc2n1C(=O)COC=O (protonated)
[NH-]C(=O)c1cc2ccc(CC(=O)[O-])cc2n1C(=O)COC=O (3D coordinates assigned)
[NH-]C(=O)c1cc2ccc(CC(=O)[O-])cc2n1C(=O)COC=O (optimized conformer: 67.51484191245196 kcal/mol)

>  <smiles>  (41) 
NC(=O)c1cc2ccc(CC(=O)O)cc2n1C(=O)COC=O

>  <score_type>  (41) 
oracle

>  <origin>  (41) 
adg

>  <m_score__min__energy>  (41) 
-9.5099999999999998

>  <m_primary>  (41) 
energy

$$$$
41:0
     RDKit          3D

 51 53  0  0  0  0  0  0  0  0999 V2000
   -3.4350   13.0790  -32.0430 C   0  0  0  0  0  0  0  0  0  0  0  0
   -4.2510   14.0420  -32.6990 O   0  0  0  0  0  0  0  0  0  0  0  0
   -3.7580   15.2740  -33.1410 C   0  0  0  0  0  0  0  0  0  0  0  0
   -2.6120   15.3470  -33.6670 O   0  0  0  0  0  0  0  0  0  0  0  0
   -4.5790   16.4530  -33.0120 N   0  0  0  0  0  0  0  0  0  0  0  0
   -5.3860   16.3840  -31.7680 C   0  0  0  0  0  0  0  0  0  0  0  0
   -6.6330   17.2940  -31.8050 C   0  0  0  0  0  0  0  0  0  0  0  0
   -6.4690   18.3650  -32.7950 N   0  0  0  0  0  0  0  0  0  0  0  0
   -6.7310   19.7410  -32.4520 C   0  0  0  0  0  0  0  0  0  0  0  0
   -8.0280   20.2890  -32.6300 C   0  0  0  0  0  0  0  0  0  0  0  0
   -8.2940   21.6290  -32.2980 C   0  0  0  0  0  0  0  0  0  0  0  0
   -7.2540   22.3910  -31.7770 C   0  0  0  0  0  0  0  0  0  0  0  0
   -7.2310   23.7120  -31.3910 C   0  0  0  0  0  0  0  0  0  0  0  0
   -5.9300   23.9450  -30.9480 C   0  0  0  0  0  0  0  0  0  0  0  0
   -5.4920   25.2260  -30.3570 C   0  0  0  0  0  0  0  0  0  0  0  0
   -4.1450   25.6730  -30.4870 N   0  0  0  0  0  0  0  0  0  0  0  0
   -6.3070   25.9140  -29.6860 O   0  0  0  0  0  0  0  0  0  0  0  0
   -5.1770   22.8130  -31.0640 N   0  0  0  0  0  0  0  0  0  0  0  0
   -3.7800   22.6470  -30.7800 C   0  0  0  0  0  0  0  0  0  0  0  0
   -2.9170   22.9850  -31.6360 O   0  0  0  0  0  0  0  0  0  0  0  0
   -3.3840   22.0830  -29.5640 O   0  0  0  0  0  0  0  0  0  0  0  0
   -2.1980   22.4710  -28.8820 C   0  0  0  0  0  0  0  0  0  0  0  0
   -2.3280   23.9210  -28.4040 C   0  0  0  0  0  0  0  0  0  0  0  0
   -3.6660   24.2130  -28.1030 O   0  0  0  0  0  0  0  0  0  0  0  0
   -1.8600   24.8080  -29.3880 O   0  0  0  0  0  0  0  0  0  0  0  0
   -6.0030   21.8720  -31.5700 C   0  0  0  0  0  0  0  0  0  0  0  0
   -5.7040   20.5490  -31.9120 C   0  0  0  0  0  0  0  0  0  0  0  0
   -6.1110   18.0040  -34.1730 C   0  0  0  0  0  0  0  0  0  0  0  0
   -5.4210   16.6320  -34.2130 C   0  0  0  0  0  0  0  0  0  0  0  0
   -3.5339   13.1957  -30.9537 H   0  0  0  0  0  0  0  0  0  0  0  0
   -3.7553   12.0677  -32.3340 H   0  0  0  0  0  0  0  0  0  0  0  0
   -2.3848   13.2290  -32.3340 H   0  0  0  0  0  0  0  0  0  0  0  0
   -3.9360   17.2790  -32.9410 H   0  0  0  0  0  0  0  0  0  0  0  0
   -5.7150   15.3447  -31.6211 H   0  0  0  0  0  0  0  0  0  0  0  0
   -4.7483   16.7340  -30.9429 H   0  0  0  0  0  0  0  0  0  0  0  0
   -7.5127   16.6893  -32.0706 H   0  0  0  0  0  0  0  0  0  0  0  0
   -6.7661   17.7494  -30.8126 H   0  0  0  0  0  0  0  0  0  0  0  0
   -8.8343   19.6581  -33.0323 H   0  0  0  0  0  0  0  0  0  0  0  0
   -9.2945   22.0616  -32.4459 H   0  0  0  0  0  0  0  0  0  0  0  0
   -8.0627   24.4311  -31.4249 H   0  0  0  0  0  0  0  0  0  0  0  0
   -3.4970   25.6710  -29.6690 H   0  0  0  0  0  0  0  0  0  0  0  0
   -2.0430   21.8126  -28.0146 H   0  0  0  0  0  0  0  0  0  0  0  0
   -1.3407   22.3885  -29.5663 H   0  0  0  0  0  0  0  0  0  0  0  0
   -1.7180   24.0424  -27.4967 H   0  0  0  0  0  0  0  0  0  0  0  0
   -4.1880   24.0960  -28.9400 H   0  0  0  0  0  0  0  0  0  0  0  0
   -2.3130   24.5610  -30.2370 H   0  0  0  0  0  0  0  0  0  0  0  0
   -4.6913   20.1458  -31.7640 H   0  0  0  0  0  0  0  0  0  0  0  0
   -7.0240   17.9670  -34.7854 H   0  0  0  0  0  0  0  0  0  0  0  0
   -5.4170   18.7606  -34.5679 H   0  0  0  0  0  0  0  0  0  0  0  0
   -6.1849   15.8411  -34.2432 H   0  0  0  0  0  0  0  0  0  0  0  0
   -4.7868   16.5735  -35.1099 H   0  0  0  0  0  0  0  0  0  0  0  0
  1  2  1  0
  2  3  1  0
  3  4  2  0
  3  5  1  0
  5  6  1  0
  6  7  1  0
  7  8  1  0
  8  9  1  0
  9 10  2  0
 10 11  1  0
 11 12  2  0
 12 13  1  0
 13 14  2  0
 14 15  1  0
 15 16  1  0
 15 17  2  0
 14 18  1  0
 18 19  1  0
 19 20  2  0
 19 21  1  0
 21 22  1  0
 22 23  1  0
 23 24  1  0
 23 25  1  0
 18 26  1  0
 26 27  2  0
  8 28  1  0
 28 29  1  0
 29  5  1  0
 27  9  1  0
 26 12  1  0
  1 30  1  0
  1 31  1  0
  1 32  1  0
  5 33  1  0
  6 34  1  0
  6 35  1  0
  7 36  1  0
  7 37  1  0
 10 38  1  0
 11 39  1  0
 13 40  1  0
 16 41  1  0
 22 42  1  0
 22 43  1  0
 23 44  1  0
 24 45  1  0
 25 46  1  0
 27 47  1  0
 28 48  1  0
 28 49  1  0
 29 50  1  0
 29 51  1  0
M  CHG  2   5   1  16  -1
M  END
>  <UniqueID>  (42) 
42

>  <SMILES>  (42) 
COC(=O)[NH+]1CCN(c2ccc3cc(C([NH-])=O)n(C(=O)OCC(O)O)c3c2)CC1

>  <Energy>  (42) 
95.98186909845415

>  <Genealogy>  (42) 
COC(=O)[NH+]1CCN(c2ccc3cc(C([NH-])=O)n(C(=O)OCC(O)O)c3c2)CC1 (protonated)
COC(=O)[NH+]1CCN(c2ccc3cc(C([NH-])=O)n(C(=O)OCC(O)O)c3c2)CC1 (3D coordinates assigned)
COC(=O)[NH+]1CCN(c2ccc3cc(C([NH-])=O)n(C(=O)OCC(O)O)c3c2)CC1 (nonaromatic ring conformer: 95.98186909845415 kcal/mol)

>  <smiles>  (42) 
COC(=O)N1CCN(c2ccc3cc(C(N)=O)n(C(=O)OCC(O)O)c3c2)CC1

>  <score_type>  (42) 
oracle

>  <origin>  (42) 
adg

>  <m_score__min__energy>  (42) 
-10.359999999999999

>  <m_primary>  (42) 
energy

$$$$
42:0
     RDKit          3D

 36 37  0  0  0  0  0  0  0  0999 V2000
   -7.2010   17.2510  -32.9770 C   0  0  0  0  0  0  0  0  0  0  0  0
   -7.2850   18.4140  -32.6700 C   0  0  0  0  0  0  0  0  0  0  0  0
   -7.3840   19.8020  -32.3010 C   0  0  0  0  0  0  0  0  0  0  0  0
   -8.6410   20.4490  -32.3200 C   0  0  0  0  0  0  0  0  0  0  0  0
   -8.7480   21.8080  -31.9710 C   0  0  0  0  0  0  0  0  0  0  0  0
   -7.5840   22.4790  -31.6030 C   0  0  0  0  0  0  0  0  0  0  0  0
   -7.3920   23.7950  -31.2440 C   0  0  0  0  0  0  0  0  0  0  0  0
   -6.0250   23.9150  -30.9970 C   0  0  0  0  0  0  0  0  0  0  0  0
   -5.3780   25.1660  -30.5440 C   0  0  0  0  0  0  0  0  0  0  0  0
   -3.9590   25.2930  -30.5200 N   0  0  0  0  0  0  0  0  0  0  0  0
   -6.0890   26.1280  -30.1490 O   0  0  0  0  0  0  0  0  0  0  0  0
   -5.4000   22.7200  -31.1930 N   0  0  0  0  0  0  0  0  0  0  0  0
   -3.9970   22.4350  -31.0970 C   0  0  0  0  0  0  0  0  0  0  0  0
   -3.3130   22.3440  -32.1520 O   0  0  0  0  0  0  0  0  0  0  0  0
   -3.3600   22.2520  -29.7760 C   0  0  0  0  0  0  0  0  0  0  0  0
   -2.9590   21.0990  -29.4490 O   0  0  0  0  0  0  0  0  0  0  0  0
   -3.1560   23.3740  -28.8790 N   0  0  1  0  0  0  0  0  0  0  0  0
   -4.1990   23.4320  -27.8390 C   0  0  0  0  0  0  0  0  0  0  0  0
   -1.7870   23.3700  -28.3120 C   0  0  0  0  0  0  0  0  0  0  0  0
   -0.9490   24.5430  -28.7480 C   0  0  0  0  0  0  0  0  0  0  0  0
    0.3000   24.5240  -28.5940 O   0  0  0  0  0  0  0  0  0  0  0  0
   -1.5540   25.6560  -29.3170 O   0  0  0  0  0  0  0  0  0  0  0  0
   -6.3650   21.8550  -31.5680 C   0  0  0  0  0  0  0  0  0  0  0  0
   -6.2250   20.5110  -31.9280 C   0  0  0  0  0  0  0  0  0  0  0  0
   -7.1244   16.1900  -33.2571 H   0  0  0  0  0  0  0  0  0  0  0  0
   -9.5409   19.8865  -32.6094 H   0  0  0  0  0  0  0  0  0  0  0  0
   -9.7194   22.3238  -31.9882 H   0  0  0  0  0  0  0  0  0  0  0  0
   -8.1551   24.5837  -31.1683 H   0  0  0  0  0  0  0  0  0  0  0  0
   -3.4660   25.6600  -29.6760 H   0  0  0  0  0  0  0  0  0  0  0  0
   -3.2520   24.2610  -29.4290 H   0  0  0  0  0  0  0  0  0  0  0  0
   -3.7279   23.4058  -26.8454 H   0  0  0  0  0  0  0  0  0  0  0  0
   -4.7739   24.3635  -27.9478 H   0  0  0  0  0  0  0  0  0  0  0  0
   -4.8736   22.5700  -27.9478 H   0  0  0  0  0  0  0  0  0  0  0  0
   -1.8652   23.3875  -27.2149 H   0  0  0  0  0  0  0  0  0  0  0  0
   -1.2878   22.4624  -28.6822 H   0  0  0  0  0  0  0  0  0  0  0  0
   -5.2397   20.0221  -31.9202 H   0  0  0  0  0  0  0  0  0  0  0  0
  1  2  3  0
  2  3  1  0
  3  4  2  0
  4  5  1  0
  5  6  2  0
  6  7  1  0
  7  8  2  0
  8  9  1  0
  9 10  1  0
  9 11  2  0
  8 12  1  0
 12 13  1  0
 13 14  2  0
 13 15  1  0
 15 16  2  0
 15 17  1  0
 17 18  1  0
 17 19  1  0
 19 20  1  0
 20 21  2  0
 20 22  1  0
 12 23  1  0
 23 24  2  0
 24  3  1  0
 23  6  1  0
  1 25  1  0
  4 26  1  0
  5 27  1  0
  7 28  1  0
 10 29  1  0
 17 30  1  6
 18 31  1  0
 18 32  1  0
 18 33  1  0
 19 34  1  0
 19 35  1  0
 24 36  1  0
M  CHG  3  10  -1  17   1  22  -1
M  END
>  <UniqueID>  (43) 
43

>  <SMILES>  (43) 
C#Cc1ccc2cc(C([NH-])=O)n(C(=O)C(=O)[N@@H+](C)CC(=O)[O-])c2c1

>  <Energy>  (43) 
77.72757788867621

>  <Genealogy>  (43) 
C#Cc1ccc2cc(C([NH-])=O)n(C(=O)C(=O)[NH+](C)CC(=O)[O-])c2c1 (protonated)
C#Cc1ccc2cc(C([NH-])=O)n(C(=O)C(=O)[N@@H+](C)CC(=O)[O-])c2c1 (chirality)
C#Cc1ccc2cc(C([NH-])=O)n(C(=O)C(=O)[N@@H+](C)CC(=O)[O-])c2c1 (3D coordinates assigned)
C#Cc1ccc2cc(C([NH-])=O)n(C(=O)C(=O)[N@@H+](C)CC(=O)[O-])c2c1 (optimized conformer: 77.72757788867621 kcal/mol)

>  <smiles>  (43) 
C#Cc1ccc2cc(C(N)=O)n(C(=O)C(=O)N(C)CC(=O)O)c2c1

>  <score_type>  (43) 
oracle

>  <origin>  (43) 
adg

>  <m_score__min__energy>  (43) 
-11.960000000000001

>  <m_primary>  (43) 
energy

$$$$
43:0
     RDKit          3D

 41 42  0  0  0  0  0  0  0  0999 V2000
   -3.9700   22.3740  -28.7650 C   0  0  0  0  0  0  0  0  0  0  0  0
   -3.1670   22.3780  -29.9910 N   0  0  0  0  0  0  0  0  0  0  0  0
   -1.7310   22.3870  -29.8850 C   0  0  0  0  0  0  0  0  0  0  0  0
   -1.0810   21.3080  -29.9760 O   0  0  0  0  0  0  0  0  0  0  0  0
   -1.0600   23.6050  -29.7010 O   0  0  0  0  0  0  0  0  0  0  0  0
   -1.3460   24.5410  -28.6960 C   0  0  0  0  0  0  0  0  0  0  0  0
   -1.5390   25.7560  -28.9700 O   0  0  0  0  0  0  0  0  0  0  0  0
   -1.4410   24.0880  -27.2750 C   0  0  0  0  0  0  0  0  0  0  0  0
   -1.0540   22.7640  -27.1820 F   0  0  0  0  0  0  0  0  0  0  0  0
   -0.6100   24.8640  -26.4890 F   0  0  0  0  0  0  0  0  0  0  0  0
   -2.7410   24.2120  -26.8200 F   0  0  0  0  0  0  0  0  0  0  0  0
   -3.8240   22.4650  -31.2730 C   0  0  0  0  0  0  0  0  0  0  0  0
   -3.1580   22.3430  -32.3370 O   0  0  0  0  0  0  0  0  0  0  0  0
   -5.2380   22.7000  -31.3540 N   0  0  0  0  0  0  0  0  0  0  0  0
   -5.9200   23.8350  -31.0350 C   0  0  0  0  0  0  0  0  0  0  0  0
   -5.3170   25.1280  -30.6450 C   0  0  0  0  0  0  0  0  0  0  0  0
   -3.9030   25.2830  -30.5610 N   0  0  0  0  0  0  0  0  0  0  0  0
   -6.0600   26.1190  -30.4130 O   0  0  0  0  0  0  0  0  0  0  0  0
   -7.2910   23.6410  -31.1970 C   0  0  0  0  0  0  0  0  0  0  0  0
   -7.4270   22.3410  -31.6300 C   0  0  0  0  0  0  0  0  0  0  0  0
   -8.5710   21.6170  -31.9540 C   0  0  0  0  0  0  0  0  0  0  0  0
   -8.4100   20.2830  -32.3680 C   0  0  0  0  0  0  0  0  0  0  0  0
   -7.1210   19.6970  -32.4330 C   0  0  0  0  0  0  0  0  0  0  0  0
   -6.9530   18.2810  -32.9150 C   0  0  0  0  0  0  0  0  0  0  0  0
   -5.9620   18.2080  -34.0770 C   0  0  0  0  0  0  0  0  0  0  0  0
   -6.1410   19.3040  -34.9300 O   0  0  0  0  0  0  0  0  0  0  0  0
   -5.9840   20.4640  -32.0980 C   0  0  0  0  0  0  0  0  0  0  0  0
   -6.1730   21.7940  -31.7110 C   0  0  0  0  0  0  0  0  0  0  0  0
   -3.3033   22.3773  -27.8900 H   0  0  0  0  0  0  0  0  0  0  0  0
   -4.6092   23.2690  -28.7424 H   0  0  0  0  0  0  0  0  0  0  0  0
   -4.6002   21.4727  -28.7424 H   0  0  0  0  0  0  0  0  0  0  0  0
   -3.4550   25.6640  -29.6980 H   0  0  0  0  0  0  0  0  0  0  0  0
   -8.0936   24.3713  -31.0171 H   0  0  0  0  0  0  0  0  0  0  0  0
   -9.5694   22.0741  -31.8882 H   0  0  0  0  0  0  0  0  0  0  0  0
   -9.2931   19.6882  -32.6442 H   0  0  0  0  0  0  0  0  0  0  0  0
   -6.5806   17.6613  -32.0860 H   0  0  0  0  0  0  0  0  0  0  0  0
   -7.9289   17.9134  -33.2650 H   0  0  0  0  0  0  0  0  0  0  0  0
   -4.9357   18.2184  -33.6814 H   0  0  0  0  0  0  0  0  0  0  0  0
   -6.1356   17.2798  -34.6412 H   0  0  0  0  0  0  0  0  0  0  0  0
   -7.1130   19.3430  -35.1300 H   0  0  0  0  0  0  0  0  0  0  0  0
   -4.9756   20.0265  -32.1404 H   0  0  0  0  0  0  0  0  0  0  0  0
  1  2  1  0
  2  3  1  0
  3  4  2  0
  3  5  1  0
  5  6  1  0
  6  7  2  0
  6  8  1  0
  8  9  1  0
  8 10  1  0
  8 11  1  0
  2 12  1  0
 12 13  2  0
 12 14  1  0
 14 15  1  0
 15 16  1  0
 16 17  1  0
 16 18  2  0
 15 19  2  0
 19 20  1  0
 20 21  2  0
 21 22  1  0
 22 23  2  0
 23 24  1  0
 24 25  1  0
 25 26  1  0
 23 27  1  0
 27 28  2  0
 28 14  1  0
 28 20  1  0
  1 29  1  0
  1 30  1  0
  1 31  1  0
 17 32  1  0
 19 33  1  0
 21 34  1  0
 22 35  1  0
 24 36  1  0
 24 37  1  0
 25 38  1  0
 25 39  1  0
 26 40  1  0
 27 41  1  0
M  CHG  1  17  -1
M  END
>  <UniqueID>  (44) 
44

>  <SMILES>  (44) 
CN(C(=O)OC(=O)C(F)(F)F)C(=O)n1c(C([NH-])=O)cc2ccc(CCO)cc21

>  <Energy>  (44) 
77.94587188509821

>  <Genealogy>  (44) 
CN(C(=O)OC(=O)C(F)(F)F)C(=O)n1c(C([NH-])=O)cc2ccc(CCO)cc21 (protonated)
CN(C(=O)OC(=O)C(F)(F)F)C(=O)n1c(C([NH-])=O)cc2ccc(CCO)cc21 (3D coordinates assigned)
CN(C(=O)OC(=O)C(F)(F)F)C(=O)n1c(C([NH-])=O)cc2ccc(CCO)cc21 (optimized conformer: 77.94587188509821 kcal/mol)

>  <smiles>  (44) 
CN(C(=O)OC(=O)C(F)(F)F)C(=O)n1c(C(N)=O)cc2ccc(CCO)cc21

>  <score_type>  (44) 
oracle

>  <origin>  (44) 
adg

>  <m_score__min__energy>  (44) 
-9.9199999999999999

>  <m_primary>  (44) 
energy

$$$$
44:0
     RDKit          3D

 35 36  0  0  0  0  0  0  0  0999 V2000
   -4.2260   25.6040  -30.7710 N   0  0  0  0  0  0  0  0  0  0  0  0
   -5.5700   25.2300  -30.4640 C   0  0  0  0  0  0  0  0  0  0  0  0
   -6.2760   25.9940  -29.7530 O   0  0  0  0  0  0  0  0  0  0  0  0
   -6.1260   23.9360  -30.9090 C   0  0  0  0  0  0  0  0  0  0  0  0
   -7.4590   23.7570  -31.2670 C   0  0  0  0  0  0  0  0  0  0  0  0
   -7.5810   22.4170  -31.5530 C   0  0  0  0  0  0  0  0  0  0  0  0
   -8.6930   21.6890  -31.9630 C   0  0  0  0  0  0  0  0  0  0  0  0
   -8.5260   20.3180  -32.2180 C   0  0  0  0  0  0  0  0  0  0  0  0
   -7.2530   19.7060  -32.0870 C   0  0  0  0  0  0  0  0  0  0  0  0
   -7.0890   18.2260  -32.3290 C   0  0  0  0  0  0  0  0  0  0  0  0
   -6.2800   17.6910  -31.3440 F   0  0  0  0  0  0  0  0  0  0  0  0
   -6.5080   17.9970  -33.5650 F   0  0  0  0  0  0  0  0  0  0  0  0
   -8.3150   17.5850  -32.3030 F   0  0  0  0  0  0  0  0  0  0  0  0
   -6.1520   20.4760  -31.6460 C   0  0  0  0  0  0  0  0  0  0  0  0
   -6.3520   21.8360  -31.3760 C   0  0  0  0  0  0  0  0  0  0  0  0
   -5.4450   22.7580  -30.9830 N   0  0  0  0  0  0  0  0  0  0  0  0
   -4.0350   22.5470  -30.7980 C   0  0  0  0  0  0  0  0  0  0  0  0
   -3.2140   23.0910  -31.5870 O   0  0  0  0  0  0  0  0  0  0  0  0
   -3.5880   21.7410  -29.7430 O   0  0  0  0  0  0  0  0  0  0  0  0
   -3.4540   22.1580  -28.4110 C   0  0  0  0  0  0  0  0  0  0  0  0
   -3.2700   21.3260  -27.4800 O   0  0  0  0  0  0  0  0  0  0  0  0
   -3.5840   23.6120  -28.0870 C   0  0  0  0  0  0  0  0  0  0  0  0
   -2.2520   24.3390  -28.2720 C   0  0  0  0  0  0  0  0  0  0  0  0
   -2.2890   25.1250  -29.4300 O   0  0  0  0  0  0  0  0  0  0  0  0
   -3.5640   24.9240  -31.2070 H   0  0  0  0  0  0  0  0  0  0  0  0
   -3.8640   26.5390  -30.4840 H   0  0  0  0  0  0  0  0  0  0  0  0
   -8.2468   24.5234  -31.3117 H   0  0  0  0  0  0  0  0  0  0  0  0
   -9.6736   22.1725  -32.0839 H   0  0  0  0  0  0  0  0  0  0  0  0
   -9.3920   19.7120  -32.5227 H   0  0  0  0  0  0  0  0  0  0  0  0
   -5.1605   20.0173  -31.5178 H   0  0  0  0  0  0  0  0  0  0  0  0
   -4.3346   24.0626  -28.7530 H   0  0  0  0  0  0  0  0  0  0  0  0
   -3.8916   23.7092  -27.0354 H   0  0  0  0  0  0  0  0  0  0  0  0
   -2.0655   24.9838  -27.4006 H   0  0  0  0  0  0  0  0  0  0  0  0
   -1.4467   23.5958  -28.3672 H   0  0  0  0  0  0  0  0  0  0  0  0
   -2.2760   24.4910  -30.1940 H   0  0  0  0  0  0  0  0  0  0  0  0
  1  2  1  0
  2  3  2  0
  2  4  1  0
  4  5  2  0
  5  6  1  0
  6  7  2  0
  7  8  1  0
  8  9  2  0
  9 10  1  0
 10 11  1  0
 10 12  1  0
 10 13  1  0
  9 14  1  0
 14 15  2  0
 15 16  1  0
 16 17  1  0
 17 18  2  0
 17 19  1  0
 19 20  1  0
 20 21  2  0
 20 22  1  0
 22 23  1  0
 23 24  1  0
 16  4  1  0
 15  6  1  0
  1 25  1  0
  1 26  1  0
  5 27  1  0
  7 28  1  0
  8 29  1  0
 14 30  1  0
 22 31  1  0
 22 32  1  0
 23 33  1  0
 23 34  1  0
 24 35  1  0
M  END
>  <UniqueID>  (45) 
45

>  <SMILES>  (45) 
NC(=O)c1cc2ccc(C(F)(F)F)cc2n1C(=O)OC(=O)CCO

>  <Energy>  (45) 
71.82264144156375

>  <Genealogy>  (45) 
NC(=O)c1cc2ccc(C(F)(F)F)cc2n1C(=O)OC(=O)CCO (3D coordinates assigned)
NC(=O)c1cc2ccc(C(F)(F)F)cc2n1C(=O)OC(=O)CCO (optimized conformer: 71.82264144156375 kcal/mol)

>  <smiles>  (45) 
NC(=O)c1cc2ccc(C(F)(F)F)cc2n1C(=O)OC(=O)CCO

>  <score_type>  (45) 
oracle

>  <origin>  (45) 
adg

>  <m_score__min__energy>  (45) 
-8.1099999999999994

>  <m_primary>  (45) 
energy

$$$$
45:0
     RDKit          3D

 38 39  0  0  0  0  0  0  0  0999 V2000
   -2.6160   22.4100  -29.6790 C   0  0  0  0  0  0  0  0  0  0  0  0
   -3.8000   23.3230  -30.0280 C   0  0  1  0  0  0  0  0  0  0  0  0
   -3.4130   24.7770  -30.0740 C   0  0  0  0  0  0  0  0  0  0  0  0
   -2.4810   25.1960  -29.3380 O   0  0  0  0  0  0  0  0  0  0  0  0
   -4.0820   25.6710  -30.9000 O   0  0  0  0  0  0  0  0  0  0  0  0
   -4.4350   22.9130  -31.2970 N   0  0  0  0  0  0  0  0  0  0  0  0
   -5.7080   23.5270  -31.6750 C   0  0  0  0  0  0  0  0  0  0  0  0
   -3.9570   21.7780  -32.0460 C   0  0  0  0  0  0  0  0  0  0  0  0
   -4.7250   20.5890  -32.1180 C   0  0  0  0  0  0  0  0  0  0  0  0
   -4.2550   19.4740  -32.8330 C   0  0  0  0  0  0  0  0  0  0  0  0
   -3.0190   19.5780  -33.4660 C   0  0  0  0  0  0  0  0  0  0  0  0
   -2.3170   18.6460  -34.1950 C   0  0  0  0  0  0  0  0  0  0  0  0
   -1.1360   19.2830  -34.5710 C   0  0  0  0  0  0  0  0  0  0  0  0
   -0.1090   18.6710  -35.4440 C   0  0  0  0  0  0  0  0  0  0  0  0
    0.9570   19.4580  -35.9810 N   0  0  0  0  0  0  0  0  0  0  0  0
   -0.1500   17.4390  -35.7050 O   0  0  0  0  0  0  0  0  0  0  0  0
   -1.1100   20.5600  -34.0940 N   0  0  0  0  0  0  0  0  0  0  0  0
   -0.0450   21.5180  -34.2140 C   0  0  0  0  0  0  0  0  0  0  0  0
    0.8500   21.5720  -33.3290 O   0  0  0  0  0  0  0  0  0  0  0  0
   -0.0100   22.4070  -35.3350 N   0  0  0  0  0  0  0  0  0  0  0  0
    1.1360   22.6550  -36.1540 C   0  0  0  0  0  0  0  0  0  0  0  0
    1.1990   23.7160  -36.8280 O   0  0  0  0  0  0  0  0  0  0  0  0
    2.1830   21.7440  -36.2170 O   0  0  0  0  0  0  0  0  0  0  0  0
   -2.2690   20.7240  -33.4180 C   0  0  0  0  0  0  0  0  0  0  0  0
   -2.7050   21.8430  -32.6970 C   0  0  0  0  0  0  0  0  0  0  0  0
   -2.5199   22.3359  -28.5857 H   0  0  0  0  0  0  0  0  0  0  0  0
   -2.7883   21.4087  -30.1006 H   0  0  0  0  0  0  0  0  0  0  0  0
   -1.6914   22.8312  -30.1006 H   0  0  0  0  0  0  0  0  0  0  0  0
   -4.5333   23.2082  -29.2162 H   0  0  0  0  0  0  0  0  0  0  0  0
   -6.2684   23.7973  -30.7679 H   0  0  0  0  0  0  0  0  0  0  0  0
   -5.5162   24.4316  -32.2707 H   0  0  0  0  0  0  0  0  0  0  0  0
   -6.2966   22.8137  -32.2707 H   0  0  0  0  0  0  0  0  0  0  0  0
   -5.6989   20.5383  -31.6091 H   0  0  0  0  0  0  0  0  0  0  0  0
   -4.8454   18.5476  -32.8908 H   0  0  0  0  0  0  0  0  0  0  0  0
   -2.6231   17.6162  -34.4311 H   0  0  0  0  0  0  0  0  0  0  0  0
    0.9810   20.4940  -35.8610 H   0  0  0  0  0  0  0  0  0  0  0  0
    1.7000   19.0070  -36.5610 H   0  0  0  0  0  0  0  0  0  0  0  0
   -2.0869   22.7511  -32.6391 H   0  0  0  0  0  0  0  0  0  0  0  0
  1  2  1  0
  2  3  1  0
  3  4  2  0
  3  5  1  0
  2  6  1  0
  6  7  1  0
  6  8  1  0
  8  9  2  0
  9 10  1  0
 10 11  2  0
 11 12  1  0
 12 13  2  0
 13 14  1  0
 14 15  1  0
 14 16  2  0
 13 17  1  0
 17 18  1  0
 18 19  2  0
 18 20  1  0
 20 21  1  0
 21 22  2  0
 21 23  1  0
 17 24  1  0
 24 25  2  0
 25  8  1  0
 24 11  1  0
  1 26  1  0
  1 27  1  0
  1 28  1  0
  2 29  1  1
  7 30  1  0
  7 31  1  0
  7 32  1  0
  9 33  1  0
 10 34  1  0
 12 35  1  0
 15 36  1  0
 15 37  1  0
 25 38  1  0
M  CHG  3   5  -1  20  -1  23  -1
M  END
>  <UniqueID>  (46) 
46

>  <SMILES>  (46) 
C[C@@H](C(=O)[O-])N(C)c1ccc2cc(C(N)=O)n(C(=O)[N-]C(=O)[O-])c2c1

>  <Energy>  (46) 
79.9068923207368

>  <Genealogy>  (46) 
CC(C(=O)[O-])N(C)c1ccc2cc(C(N)=O)n(C(=O)[N-]C(=O)[O-])c2c1 (protonated)
C[C@@H](C(=O)[O-])N(C)c1ccc2cc(C(N)=O)n(C(=O)[N-]C(=O)[O-])c2c1 (chirality)
C[C@@H](C(=O)[O-])N(C)c1ccc2cc(C(N)=O)n(C(=O)[N-]C(=O)[O-])c2c1 (3D coordinates assigned)
C[C@@H](C(=O)[O-])N(C)c1ccc2cc(C(N)=O)n(C(=O)[N-]C(=O)[O-])c2c1 (optimized conformer: 79.9068923207368 kcal/mol)

>  <smiles>  (46) 
CC(C(=O)O)N(C)c1ccc2cc(C(N)=O)n(C(=O)NC(=O)O)c2c1

>  <score_type>  (46) 
oracle

>  <origin>  (46) 
adg

>  <m_score__min__energy>  (46) 
-10.69

>  <m_primary>  (46) 
energy

$$$$
46:0
     RDKit          3D

 40 41  0  0  0  0  0  0  0  0999 V2000
   -1.0090   22.2860  -29.0660 C   0  0  0  0  0  0  0  0  0  0  0  0
   -1.7140   23.4620  -28.3660 C   0  0  1  0  0  0  0  0  0  0  0  0
   -0.9980   24.7640  -28.6540 C   0  0  0  0  0  0  0  0  0  0  0  0
   -1.5760   25.6660  -29.3160 O   0  0  0  0  0  0  0  0  0  0  0  0
    0.3060   24.9720  -28.2170 O   0  0  0  0  0  0  0  0  0  0  0  0
   -3.1710   23.5120  -28.6810 N   0  0  2  0  0  0  0  0  0  0  0  0
   -4.0350   23.7300  -27.5020 C   0  0  0  0  0  0  0  0  0  0  0  0
   -3.5740   22.3170  -29.3980 C   0  0  0  0  0  0  0  0  0  0  0  0
   -3.4400   21.1790  -28.8650 O   0  0  0  0  0  0  0  0  0  0  0  0
   -4.0730   22.3950  -30.7870 C   0  0  0  0  0  0  0  0  0  0  0  0
   -3.3030   22.1310  -31.7500 O   0  0  0  0  0  0  0  0  0  0  0  0
   -5.4470   22.7130  -31.0530 N   0  0  0  0  0  0  0  0  0  0  0  0
   -6.0780   23.9100  -30.8920 C   0  0  0  0  0  0  0  0  0  0  0  0
   -5.4320   25.1800  -30.5030 C   0  0  0  0  0  0  0  0  0  0  0  0
   -4.0120   25.2990  -30.5460 N   0  0  0  0  0  0  0  0  0  0  0  0
   -6.1220   26.1580  -30.1110 O   0  0  0  0  0  0  0  0  0  0  0  0
   -7.4300   23.7920  -31.2130 C   0  0  0  0  0  0  0  0  0  0  0  0
   -7.6030   22.4780  -31.5860 C   0  0  0  0  0  0  0  0  0  0  0  0
   -8.7510   21.8030  -31.9870 C   0  0  0  0  0  0  0  0  0  0  0  0
   -8.6390   20.4330  -32.2880 C   0  0  0  0  0  0  0  0  0  0  0  0
   -7.3870   19.7690  -32.1970 C   0  0  0  0  0  0  0  0  0  0  0  0
   -7.2960   18.2890  -32.4650 C   0  0  0  0  0  0  0  0  0  0  0  0
   -8.5420   17.7170  -32.2890 F   0  0  0  0  0  0  0  0  0  0  0  0
   -6.8710   18.0560  -33.7610 F   0  0  0  0  0  0  0  0  0  0  0  0
   -6.3980   17.6880  -31.6000 F   0  0  0  0  0  0  0  0  0  0  0  0
   -6.2490   20.4880  -31.7640 C   0  0  0  0  0  0  0  0  0  0  0  0
   -6.3900   21.8500  -31.4820 C   0  0  0  0  0  0  0  0  0  0  0  0
   -0.5986   21.6015  -28.3090 H   0  0  0  0  0  0  0  0  0  0  0  0
   -1.7326   21.7463  -29.6946 H   0  0  0  0  0  0  0  0  0  0  0  0
   -0.1920   22.6699  -29.6946 H   0  0  0  0  0  0  0  0  0  0  0  0
   -1.6558   23.2973  -27.2800 H   0  0  0  0  0  0  0  0  0  0  0  0
   -3.3370   24.3300  -29.3130 H   0  0  0  0  0  0  0  0  0  0  0  0
   -3.4471   23.5817  -26.5842 H   0  0  0  0  0  0  0  0  0  0  0  0
   -4.4307   24.7561  -27.5221 H   0  0  0  0  0  0  0  0  0  0  0  0
   -4.8702   23.0144  -27.5221 H   0  0  0  0  0  0  0  0  0  0  0  0
   -3.4790   25.6610  -29.7260 H   0  0  0  0  0  0  0  0  0  0  0  0
   -8.1955   24.5811  -31.1760 H   0  0  0  0  0  0  0  0  0  0  0  0
   -9.7166   22.3239  -32.0664 H   0  0  0  0  0  0  0  0  0  0  0  0
   -9.5317   19.8697  -32.5974 H   0  0  0  0  0  0  0  0  0  0  0  0
   -5.2759   19.9875  -31.6517 H   0  0  0  0  0  0  0  0  0  0  0  0
  1  2  1  0
  2  3  1  0
  3  4  2  0
  3  5  1  0
  2  6  1  0
  6  7  1  0
  6  8  1  0
  8  9  2  0
  8 10  1  0
 10 11  2  0
 10 12  1  0
 12 13  1  0
 13 14  1  0
 14 15  1  0
 14 16  2  0
 13 17  2  0
 17 18  1  0
 18 19  2  0
 19 20  1  0
 20 21  2  0
 21 22  1  0
 22 23  1  0
 22 24  1  0
 22 25  1  0
 21 26  1  0
 26 27  2  0
 27 12  1  0
 27 18  1  0
  1 28  1  0
  1 29  1  0
  1 30  1  0
  2 31  1  1
  6 32  1  6
  7 33  1  0
  7 34  1  0
  7 35  1  0
 15 36  1  0
 17 37  1  0
 19 38  1  0
 20 39  1  0
 26 40  1  0
M  CHG  3   5  -1   6   1  15  -1
M  END
>  <UniqueID>  (47) 
47

>  <SMILES>  (47) 
C[C@@H](C(=O)[O-])[N@H+](C)C(=O)C(=O)n1c(C([NH-])=O)cc2ccc(C(F)(F)F)cc21

>  <Energy>  (47) 
85.12787831006032

>  <Genealogy>  (47) 
CC(C(=O)[O-])[NH+](C)C(=O)C(=O)n1c(C([NH-])=O)cc2ccc(C(F)(F)F)cc21 (protonated)
C[C@@H](C(=O)[O-])[N@H+](C)C(=O)C(=O)n1c(C([NH-])=O)cc2ccc(C(F)(F)F)cc21 (chirality)
C[C@@H](C(=O)[O-])[N@H+](C)C(=O)C(=O)n1c(C([NH-])=O)cc2ccc(C(F)(F)F)cc21 (3D coordinates assigned)
C[C@@H](C(=O)[O-])[N@H+](C)C(=O)C(=O)n1c(C([NH-])=O)cc2ccc(C(F)(F)F)cc21 (optimized conformer: 85.12787831006032 kcal/mol)

>  <smiles>  (47) 
CC(C(=O)O)N(C)C(=O)C(=O)n1c(C(N)=O)cc2ccc(C(F)(F)F)cc21

>  <score_type>  (47) 
oracle

>  <origin>  (47) 
adg

>  <m_score__min__energy>  (47) 
-11.56

>  <m_primary>  (47) 
energy

$$$$
47:0
     RDKit          3D

 39 40  0  0  0  0  0  0  0  0999 V2000
   -1.1920   22.8100  -27.8410 C   0  0  0  0  0  0  0  0  0  0  0  0
   -1.9140   24.1040  -28.2540 C   0  0  0  0  0  0  0  0  0  0  0  0
   -2.9050   24.5470  -27.1610 C   0  0  0  0  0  0  0  0  0  0  0  0
   -2.6270   23.9010  -29.5220 N   0  0  0  0  0  0  0  0  0  0  0  0
   -3.2780   22.7020  -29.9650 C   0  0  0  0  0  0  0  0  0  0  0  0
   -3.2890   21.6690  -29.2420 O   0  0  0  0  0  0  0  0  0  0  0  0
   -3.9260   22.6750  -31.2840 C   0  0  0  0  0  0  0  0  0  0  0  0
   -3.2230   22.5130  -32.3170 O   0  0  0  0  0  0  0  0  0  0  0  0
   -5.3510   22.8080  -31.4080 N   0  0  0  0  0  0  0  0  0  0  0  0
   -6.1180   23.8660  -31.0230 C   0  0  0  0  0  0  0  0  0  0  0  0
   -5.6120   25.1650  -30.5360 C   0  0  0  0  0  0  0  0  0  0  0  0
   -4.2350   25.5220  -30.6580 N   0  0  0  0  0  0  0  0  0  0  0  0
   -6.4200   25.9950  -30.0400 O   0  0  0  0  0  0  0  0  0  0  0  0
   -7.4700   23.5650  -31.1590 C   0  0  0  0  0  0  0  0  0  0  0  0
   -7.5100   22.2760  -31.6440 C   0  0  0  0  0  0  0  0  0  0  0  0
   -8.6000   21.4670  -31.9470 C   0  0  0  0  0  0  0  0  0  0  0  0
   -8.3450   20.1570  -32.3860 C   0  0  0  0  0  0  0  0  0  0  0  0
   -7.0160   19.6690  -32.4830 C   0  0  0  0  0  0  0  0  0  0  0  0
   -6.7550   18.2710  -32.9850 C   0  0  0  0  0  0  0  0  0  0  0  0
   -5.6780   17.7090  -32.3210 F   0  0  0  0  0  0  0  0  0  0  0  0
   -7.8760   17.4930  -32.7640 F   0  0  0  0  0  0  0  0  0  0  0  0
   -6.4720   18.2810  -34.3400 F   0  0  0  0  0  0  0  0  0  0  0  0
   -5.9350   20.5300  -32.1840 C   0  0  0  0  0  0  0  0  0  0  0  0
   -6.2180   21.8400  -31.7770 C   0  0  0  0  0  0  0  0  0  0  0  0
   -0.8810   25.1890  -28.4580 C   0  0  0  0  0  0  0  0  0  0  0  0
    0.3310   24.9750  -28.1830 O   0  0  0  0  0  0  0  0  0  0  0  0
   -1.2460   26.4220  -28.9870 O   0  0  0  0  0  0  0  0  0  0  0  0
   -1.1556   22.7447  -26.7435 H   0  0  0  0  0  0  0  0  0  0  0  0
   -1.7364   21.9424  -28.2421 H   0  0  0  0  0  0  0  0  0  0  0  0
   -0.1677   22.8176  -28.2421 H   0  0  0  0  0  0  0  0  0  0  0  0
   -2.4691   24.3521  -26.1700 H   0  0  0  0  0  0  0  0  0  0  0  0
   -3.1102   25.6225  -27.2662 H   0  0  0  0  0  0  0  0  0  0  0  0
   -3.8433   23.9827  -27.2662 H   0  0  0  0  0  0  0  0  0  0  0  0
   -3.5770   24.9520  -31.2350 H   0  0  0  0  0  0  0  0  0  0  0  0
   -3.8880   26.4160  -30.2470 H   0  0  0  0  0  0  0  0  0  0  0  0
   -8.3250   24.2175  -30.9283 H   0  0  0  0  0  0  0  0  0  0  0  0
   -9.6295   21.8411  -31.8461 H   0  0  0  0  0  0  0  0  0  0  0  0
   -9.1857   19.5017  -32.6578 H   0  0  0  0  0  0  0  0  0  0  0  0
   -4.8959   20.1792  -32.2690 H   0  0  0  0  0  0  0  0  0  0  0  0
  1  2  1  0
  2  3  1  0
  2  4  1  0
  4  5  1  0
  5  6  2  0
  5  7  1  0
  7  8  2  0
  7  9  1  0
  9 10  1  0
 10 11  1  0
 11 12  1  0
 11 13  2  0
 10 14  2  0
 14 15  1  0
 15 16  2  0
 16 17  1  0
 17 18  2  0
 18 19  1  0
 19 20  1  0
 19 21  1  0
 19 22  1  0
 18 23  1  0
 23 24  2  0
  2 25  1  0
 25 26  2  0
 25 27  1  0
 24  9  1  0
 24 15  1  0
  1 28  1  0
  1 29  1  0
  1 30  1  0
  3 31  1  0
  3 32  1  0
  3 33  1  0
 12 34  1  0
 12 35  1  0
 14 36  1  0
 16 37  1  0
 17 38  1  0
 23 39  1  0
M  CHG  2   4  -1  27  -1
M  END
>  <UniqueID>  (48) 
48

>  <SMILES>  (48) 
CC(C)([N-]C(=O)C(=O)n1c(C(N)=O)cc2ccc(C(F)(F)F)cc21)C(=O)[O-]

>  <Energy>  (48) 
76.83261497083691

>  <Genealogy>  (48) 
CC(C)([N-]C(=O)C(=O)n1c(C(N)=O)cc2ccc(C(F)(F)F)cc21)C(=O)[O-] (protonated)
CC(C)([N-]C(=O)C(=O)n1c(C(N)=O)cc2ccc(C(F)(F)F)cc21)C(=O)[O-] (3D coordinates assigned)
CC(C)([N-]C(=O)C(=O)n1c(C(N)=O)cc2ccc(C(F)(F)F)cc21)C(=O)[O-] (optimized conformer: 76.83261497083691 kcal/mol)

>  <smiles>  (48) 
CC(C)(NC(=O)C(=O)n1c(C(N)=O)cc2ccc(C(F)(F)F)cc21)C(=O)O

>  <score_type>  (48) 
oracle

>  <origin>  (48) 
adg

>  <m_score__min__energy>  (48) 
-11.74

>  <m_primary>  (48) 
energy

$$$$
48:0
     RDKit          3D

 54 56  0  0  1  0  0  0  0  0999 V2000
    1.0680   24.5660  -27.2800 C   0  0  0  0  0  0  0  0  0  0  0  0
   -0.3980   24.4190  -27.5170 C   0  0  0  0  0  0  0  0  0  0  0  0
   -0.9160   23.3410  -26.5750 C   0  0  0  0  0  0  0  0  0  0  0  0
   -0.5610   23.9100  -28.8220 O   0  0  0  0  0  0  0  0  0  0  0  0
   -1.9040   24.3960  -29.1600 B   0  0  0  0  0  0  0  0  0  0  0  0
   -3.1470   23.4780  -29.6060 C   0  0  1  0  0  0  0  0  0  0  0  0
   -4.3970   24.1480  -29.0550 C   0  0  0  0  0  0  0  0  0  0  0  0
   -5.0340   24.9400  -30.1270 C   0  0  0  0  0  0  0  0  0  0  0  0
   -4.3270   25.6710  -30.7970 O   0  0  0  0  0  0  0  0  0  0  0  0
   -3.1910   23.3530  -31.0340 N   0  0  0  0  0  0  0  0  0  0  0  0
   -3.3180   22.1360  -31.7510 C   0  0  0  0  0  0  0  0  0  0  0  0
   -2.1840   21.5560  -32.3260 C   0  0  0  0  0  0  0  0  0  0  0  0
   -2.2330   20.3720  -33.0220 C   0  0  0  0  0  0  0  0  0  0  0  0
   -3.4570   19.7560  -33.1400 C   0  0  0  0  0  0  0  0  0  0  0  0
   -3.8180   18.5900  -33.7620 C   0  0  0  0  0  0  0  0  0  0  0  0
   -5.1950   18.3810  -33.6070 C   0  0  0  0  0  0  0  0  0  0  0  0
   -5.8610   17.2210  -34.1630 C   0  0  0  0  0  0  0  0  0  0  0  0
   -7.2360   16.9510  -33.8010 N   0  0  0  0  0  0  0  0  0  0  0  0
   -5.3640   16.3950  -34.9520 O   0  0  0  0  0  0  0  0  0  0  0  0
   -5.6430   19.4140  -32.9000 N   0  0  0  0  0  0  0  0  0  0  0  0
   -6.9800   19.6430  -32.4940 C   0  0  0  0  0  0  0  0  0  0  0  0
   -7.6070   18.7440  -31.8290 O   0  0  0  0  0  0  0  0  0  0  0  0
   -7.7140   20.7810  -32.7490 O   0  0  0  0  0  0  0  0  0  0  0  0
   -8.6990   21.2330  -31.9210 C   0  0  0  0  0  0  0  0  0  0  0  0
   -9.5290   21.6370  -31.2170 N   0  0  0  0  0  0  0  0  0  0  0  0
   -4.6160   20.2660  -32.6010 C   0  0  0  0  0  0  0  0  0  0  0  0
   -4.5070   21.4570  -31.9130 C   0  0  0  0  0  0  0  0  0  0  0  0
   -1.9980   25.7310  -28.5970 O   0  0  0  0  0  0  0  0  0  0  0  0
   -1.1870   25.6870  -27.4640 C   0  0  0  0  0  0  0  0  0  0  0  0
   -0.3460   26.9390  -27.4880 C   0  0  0  0  0  0  0  0  0  0  0  0
   -2.0870   25.7650  -26.2510 C   0  0  0  0  0  0  0  0  0  0  0  0
    1.2643   24.5857  -26.1978 H   0  0  0  0  0  0  0  0  0  0  0  0
    1.5998   23.7167  -27.7337 H   0  0  0  0  0  0  0  0  0  0  0  0
    1.4205   25.5040  -27.7337 H   0  0  0  0  0  0  0  0  0  0  0  0
   -0.7628   23.6598  -25.5334 H   0  0  0  0  0  0  0  0  0  0  0  0
   -1.9893   23.1812  -26.7555 H   0  0  0  0  0  0  0  0  0  0  0  0
   -0.3702   22.4032  -26.7555 H   0  0  0  0  0  0  0  0  0  0  0  0
   -3.0591   22.4549  -29.2115 H   0  0  0  0  0  0  0  0  0  0  0  0
   -5.0991   23.3804  -28.6975 H   0  0  0  0  0  0  0  0  0  0  0  0
   -4.1251   24.8083  -28.2183 H   0  0  0  0  0  0  0  0  0  0  0  0
   -6.1157   24.8715  -30.3147 H   0  0  0  0  0  0  0  0  0  0  0  0
   -3.1230   24.2410  -31.5940 H   0  0  0  0  0  0  0  0  0  0  0  0
   -1.2157   22.0664  -32.2174 H   0  0  0  0  0  0  0  0  0  0  0  0
   -1.3279   19.9337  -33.4677 H   0  0  0  0  0  0  0  0  0  0  0  0
   -3.1318   17.9201  -34.3008 H   0  0  0  0  0  0  0  0  0  0  0  0
   -7.5820   16.0040  -33.5900 H   0  0  0  0  0  0  0  0  0  0  0  0
   -7.8420   17.8230  -33.7770 H   0  0  0  0  0  0  0  0  0  0  0  0
   -5.4171   21.8877  -31.4702 H   0  0  0  0  0  0  0  0  0  0  0  0
   -0.1324   27.2570  -26.4569 H   0  0  0  0  0  0  0  0  0  0  0  0
    0.5994   26.7357  -28.0123 H   0  0  0  0  0  0  0  0  0  0  0  0
   -0.8917   27.7373  -28.0123 H   0  0  0  0  0  0  0  0  0  0  0  0
   -1.4765   25.7121  -25.3375 H   0  0  0  0  0  0  0  0  0  0  0  0
   -2.6420   26.7146  -26.2667 H   0  0  0  0  0  0  0  0  0  0  0  0
   -2.7971   24.9250  -26.2667 H   0  0  0  0  0  0  0  0  0  0  0  0
  1  2  1  0
  2  3  1  0
  2  4  1  0
  4  5  1  0
  5  6  1  0
  6  7  1  0
  7  8  1  0
  8  9  2  0
  6 10  1  0
 10 11  1  0
 11 12  2  0
 12 13  1  0
 13 14  2  0
 14 15  1  0
 15 16  2  0
 16 17  1  0
 17 18  1  0
 17 19  2  0
 16 20  1  0
 20 21  1  0
 21 22  2  0
 21 23  1  0
 23 24  1  0
 24 25  3  0
 20 26  1  0
 26 27  2  0
  5 28  1  0
 28 29  1  0
 29 30  1  0
 29 31  1  0
 29  2  1  0
 27 11  1  0
 26 14  1  0
  1 32  1  0
  1 33  1  0
  1 34  1  0
  3 35  1  0
  3 36  1  0
  3 37  1  0
  6 38  1  1
  7 39  1  0
  7 40  1  0
  8 41  1  0
 10 42  1  0
 12 43  1  0
 13 44  1  0
 15 45  1  0
 18 46  1  0
 18 47  1  0
 27 48  1  0
 30 49  1  0
 30 50  1  0
 30 51  1  0
 31 52  1  0
 31 53  1  0
 31 54  1  0
M  END
>  <smiles>  (49) 
CC1(C)OB(C(CC=O)Nc2ccc3cc(C(N)=O)n(C(=O)OC#N)c3c2)OC1(C)C

>  <score_type>  (49) 
oracle

>  <origin>  (49) 
adg

>  <m_score__min__energy>  (49) 
-9.5899999999999999

>  <m_primary>  (49) 
energy

$$$$
49:0
     RDKit          3D

 51 53  0  0  0  0  0  0  0  0999 V2000
   -5.7250   25.1850  -28.9790 N   0  0  0  0  0  0  0  0  0  0  0  0
   -5.1490   24.7480  -30.2120 C   0  0  0  0  0  0  0  0  0  0  0  0
   -4.2360   25.4400  -30.7380 O   0  0  0  0  0  0  0  0  0  0  0  0
   -5.5840   23.4830  -30.8470 C   0  0  0  0  0  0  0  0  0  0  0  0
   -6.8650   23.2670  -31.3540 C   0  0  0  0  0  0  0  0  0  0  0  0
   -6.8860   21.9460  -31.7390 C   0  0  0  0  0  0  0  0  0  0  0  0
   -7.9090   21.2010  -32.3170 C   0  0  0  0  0  0  0  0  0  0  0  0
   -7.6500   19.8550  -32.6290 C   0  0  0  0  0  0  0  0  0  0  0  0
   -6.3840   19.2770  -32.3530 C   0  0  0  0  0  0  0  0  0  0  0  0
   -6.0970   17.8520  -32.7520 C   0  0  0  0  0  0  0  0  0  0  0  0
   -7.1560   17.3220  -33.4680 F   0  0  0  0  0  0  0  0  0  0  0  0
   -4.9630   17.7880  -33.5440 F   0  0  0  0  0  0  0  0  0  0  0  0
   -5.8960   17.0940  -31.6150 F   0  0  0  0  0  0  0  0  0  0  0  0
   -5.3610   20.0760  -31.7890 C   0  0  0  0  0  0  0  0  0  0  0  0
   -5.6540   21.4080  -31.4710 C   0  0  0  0  0  0  0  0  0  0  0  0
   -4.8420   22.3420  -30.9290 N   0  0  0  0  0  0  0  0  0  0  0  0
   -3.4690   22.1570  -30.5470 C   0  0  0  0  0  0  0  0  0  0  0  0
   -2.5820   22.9410  -30.9770 O   0  0  0  0  0  0  0  0  0  0  0  0
   -3.1230   21.0930  -29.7080 O   0  0  0  0  0  0  0  0  0  0  0  0
   -3.1170   21.1980  -28.2890 C   0  0  0  0  0  0  0  0  0  0  0  0
   -1.9130   20.4340  -27.7390 C   0  0  0  0  0  0  0  0  0  0  0  0
   -1.1940   21.1360  -26.5620 C   0  0  0  0  0  0  0  0  0  0  0  0
   -0.6510   22.4830  -26.8500 N   0  0  0  0  0  0  0  0  0  0  0  0
   -0.2920   22.7220  -28.2650 C   0  0  0  0  0  0  0  0  0  0  0  0
   -0.1100   24.2130  -28.5710 C   0  0  0  0  0  0  0  0  0  0  0  0
   -1.3770   25.0300  -28.2270 C   0  0  0  0  0  0  0  0  0  0  0  0
   -2.2290   25.1390  -29.3430 O   0  0  0  0  0  0  0  0  0  0  0  0
   -2.1540   24.4700  -27.0110 C   0  0  0  0  0  0  0  0  0  0  0  0
   -1.2580   23.6130  -26.1100 C   0  0  0  0  0  0  0  0  0  0  0  0
   -5.3830   26.0580  -28.5220 H   0  0  0  0  0  0  0  0  0  0  0  0
   -6.5030   24.6580  -28.5240 H   0  0  0  0  0  0  0  0  0  0  0  0
   -7.6842   23.9971  -31.4300 H   0  0  0  0  0  0  0  0  0  0  0  0
   -8.8909   21.6517  -32.5236 H   0  0  0  0  0  0  0  0  0  0  0  0
   -8.4378   19.2429  -33.0924 H   0  0  0  0  0  0  0  0  0  0  0  0
   -4.3593   19.6605  -31.6048 H   0  0  0  0  0  0  0  0  0  0  0  0
   -3.0467   22.2564  -27.9977 H   0  0  0  0  0  0  0  0  0  0  0  0
   -4.0455   20.7724  -27.8808 H   0  0  0  0  0  0  0  0  0  0  0  0
   -2.2595   19.4492  -27.3924 H   0  0  0  0  0  0  0  0  0  0  0  0
   -1.1823   20.3673  -28.5585 H   0  0  0  0  0  0  0  0  0  0  0  0
   -1.9137   21.2318  -25.7357 H   0  0  0  0  0  0  0  0  0  0  0  0
   -0.3230   20.5069  -26.3260 H   0  0  0  0  0  0  0  0  0  0  0  0
    0.6494   22.1974  -28.4853 H   0  0  0  0  0  0  0  0  0  0  0  0
   -1.1149   22.3463  -28.8908 H   0  0  0  0  0  0  0  0  0  0  0  0
    0.7331   24.5975  -27.9783 H   0  0  0  0  0  0  0  0  0  0  0  0
    0.0825   24.3193  -29.6488 H   0  0  0  0  0  0  0  0  0  0  0  0
   -1.0224   26.0321  -27.9442 H   0  0  0  0  0  0  0  0  0  0  0  0
   -2.8550   24.3680  -29.3190 H   0  0  0  0  0  0  0  0  0  0  0  0
   -2.5500   25.3112  -26.4231 H   0  0  0  0  0  0  0  0  0  0  0  0
   -2.9684   23.8341  -27.3884 H   0  0  0  0  0  0  0  0  0  0  0  0
   -0.4544   24.2445  -25.7033 H   0  0  0  0  0  0  0  0  0  0  0  0
   -1.8816   23.1977  -25.3046 H   0  0  0  0  0  0  0  0  0  0  0  0
  1  2  1  0
  2  3  2  0
  2  4  1  0
  4  5  2  0
  5  6  1  0
  6  7  2  0
  7  8  1  0
  8  9  2  0
  9 10  1  0
 10 11  1  0
 10 12  1  0
 10 13  1  0
  9 14  1  0
 14 15  2  0
 15 16  1  0
 16 17  1  0
 17 18  2  0
 17 19  1  0
 19 20  1  0
 20 21  1  0
 21 22  1  0
 22 23  1  0
 23 24  1  0
 24 25  1  0
 25 26  1  0
 26 27  1  0
 26 28  1  0
 28 29  1  0
 16  4  1  0
 29 23  1  0
 15  6  1  0
  1 30  1  0
  1 31  1  0
  5 32  1  0
  7 33  1  0
  8 34  1  0
 14 35  1  0
 20 36  1  0
 20 37  1  0
 21 38  1  0
 21 39  1  0
 22 40  1  0
 22 41  1  0
 24 42  1  0
 24 43  1  0
 25 44  1  0
 25 45  1  0
 26 46  1  0
 27 47  1  0
 28 48  1  0
 28 49  1  0
 29 50  1  0
 29 51  1  0
M  END
>  <UniqueID>  (50) 
49

>  <SMILES>  (50) 
NC(=O)c1cc2ccc(C(F)(F)F)cc2n1C(=O)OCCCN1CCC(O)CC1

>  <Energy>  (50) 
101.03255594375597

>  <Genealogy>  (50) 
NC(=O)c1cc2ccc(C(F)(F)F)cc2n1C(=O)OCCCN1CCC(O)CC1 (3D coordinates assigned)
NC(=O)c1cc2ccc(C(F)(F)F)cc2n1C(=O)OCCCN1CCC(O)CC1 (nonaromatic ring conformer: 101.03255594375597 kcal/mol)

>  <smiles>  (50) 
NC(=O)c1cc2ccc(C(F)(F)F)cc2n1C(=O)OCCCN1CCC(O)CC1

>  <score_type>  (50) 
oracle

>  <origin>  (50) 
adg

>  <m_score__min__energy>  (50) 
-9.1899999999999995

>  <m_primary>  (50) 
energy

$$$$
50:0
     RDKit          3D

 45 46  0  0  0  0  0  0  0  0999 V2000
   -4.2290   24.6190  -26.8290 C   0  0  0  0  0  0  0  0  0  0  0  0
   -2.7330   24.3070  -26.7660 C   0  0  0  0  0  0  0  0  0  0  0  0
   -2.2560   23.1310  -27.6600 C   0  0  2  0  0  0  0  0  0  0  0  0
   -1.6230   21.9960  -26.8370 C   0  0  0  0  0  0  0  0  0  0  0  0
   -1.4020   23.5300  -28.9020 C   0  0  1  0  0  0  0  0  0  0  0  0
   -2.2170   23.5030  -30.1240 N   0  0  0  0  0  0  0  0  0  0  0  0
   -3.1050   22.4140  -30.4260 C   0  0  0  0  0  0  0  0  0  0  0  0
   -3.1120   21.3830  -29.6990 O   0  0  0  0  0  0  0  0  0  0  0  0
   -4.0270   22.4930  -31.5760 C   0  0  0  0  0  0  0  0  0  0  0  0
   -3.5820   22.3720  -32.7490 O   0  0  0  0  0  0  0  0  0  0  0  0
   -5.4220   22.7650  -31.3750 N   0  0  0  0  0  0  0  0  0  0  0  0
   -6.0050   23.9350  -30.9900 C   0  0  0  0  0  0  0  0  0  0  0  0
   -5.2870   25.1650  -30.5930 C   0  0  0  0  0  0  0  0  0  0  0  0
   -3.8830   25.2710  -30.8160 N   0  0  0  0  0  0  0  0  0  0  0  0
   -5.9050   26.1340  -30.0790 O   0  0  0  0  0  0  0  0  0  0  0  0
   -7.3910   23.7980  -30.9520 C   0  0  0  0  0  0  0  0  0  0  0  0
   -7.6390   22.4940  -31.3170 C   0  0  0  0  0  0  0  0  0  0  0  0
   -8.8450   21.8090  -31.4430 C   0  0  0  0  0  0  0  0  0  0  0  0
   -8.7990   20.4630  -31.8480 C   0  0  0  0  0  0  0  0  0  0  0  0
   -7.5590   19.8370  -32.1320 C   0  0  0  0  0  0  0  0  0  0  0  0
   -7.5230   18.3930  -32.5320 C   0  0  0  0  0  0  0  0  0  0  0  0
   -6.3560   20.5590  -31.9780 C   0  0  0  0  0  0  0  0  0  0  0  0
   -6.4330   21.8930  -31.5650 C   0  0  0  0  0  0  0  0  0  0  0  0
   -0.6670   24.8430  -28.7580 C   0  0  0  0  0  0  0  0  0  0  0  0
    0.4190   24.9220  -28.1240 O   0  0  0  0  0  0  0  0  0  0  0  0
   -1.2050   25.9970  -29.3150 O   0  0  0  0  0  0  0  0  0  0  0  0
   -4.6295   24.7025  -25.8079 H   0  0  0  0  0  0  0  0  0  0  0  0
   -4.3834   25.5687  -27.3622 H   0  0  0  0  0  0  0  0  0  0  0  0
   -4.7501   23.8102  -27.3622 H   0  0  0  0  0  0  0  0  0  0  0  0
   -2.1855   25.2101  -27.0738 H   0  0  0  0  0  0  0  0  0  0  0  0
   -2.5330   23.9980  -25.7294 H   0  0  0  0  0  0  0  0  0  0  0  0
   -3.1820   22.7395  -28.1065 H   0  0  0  0  0  0  0  0  0  0  0  0
   -1.7424   22.2101  -25.7647 H   0  0  0  0  0  0  0  0  0  0  0  0
   -2.1214   21.0457  -27.0789 H   0  0  0  0  0  0  0  0  0  0  0  0
   -0.5526   21.9206  -27.0789 H   0  0  0  0  0  0  0  0  0  0  0  0
   -0.6122   22.7683  -28.9789 H   0  0  0  0  0  0  0  0  0  0  0  0
   -2.2560   24.3540  -30.7290 H   0  0  0  0  0  0  0  0  0  0  0  0
   -3.4870   26.0540  -31.3830 H   0  0  0  0  0  0  0  0  0  0  0  0
   -8.1301   24.5682  -30.6867 H   0  0  0  0  0  0  0  0  0  0  0  0
   -9.8038   22.3053  -31.2323 H   0  0  0  0  0  0  0  0  0  0  0  0
   -9.7334   19.8908  -31.9453 H   0  0  0  0  0  0  0  0  0  0  0  0
   -7.5073   17.7631  -31.6304 H   0  0  0  0  0  0  0  0  0  0  0  0
   -8.4155   18.1557  -33.1296 H   0  0  0  0  0  0  0  0  0  0  0  0
   -6.6198   18.2005  -33.1296 H   0  0  0  0  0  0  0  0  0  0  0  0
   -5.3836   20.0850  -32.1775 H   0  0  0  0  0  0  0  0  0  0  0  0
  1  2  1  0
  2  3  1  0
  3  4  1  0
  3  5  1  0
  5  6  1  0
  6  7  1  0
  7  8  2  0
  7  9  1  0
  9 10  2  0
  9 11  1  0
 11 12  1  0
 12 13  1  0
 13 14  1  0
 13 15  2  0
 12 16  2  0
 16 17  1  0
 17 18  2  0
 18 19  1  0
 19 20  2  0
 20 21  1  0
 20 22  1  0
 22 23  2  0
  5 24  1  0
 24 25  2  0
 24 26  1  0
 23 11  1  0
 23 17  1  0
  1 27  1  0
  1 28  1  0
  1 29  1  0
  2 30  1  0
  2 31  1  0
  3 32  1  6
  4 33  1  0
  4 34  1  0
  4 35  1  0
  5 36  1  6
  6 37  1  0
 14 38  1  0
 16 39  1  0
 18 40  1  0
 19 41  1  0
 21 42  1  0
 21 43  1  0
 21 44  1  0
 22 45  1  0
M  CHG  2  14  -1  26  -1
M  END
>  <UniqueID>  (51) 
50

>  <SMILES>  (51) 
CC[C@H](C)[C@@H](NC(=O)C(=O)n1c(C([NH-])=O)cc2ccc(C)cc21)C(=O)[O-]

>  <Energy>  (51) 
82.28607301949889

>  <Genealogy>  (51) 
CCC(C)C(NC(=O)C(=O)n1c(C([NH-])=O)cc2ccc(C)cc21)C(=O)[O-] (protonated)
CC[C@H](C)[C@@H](NC(=O)C(=O)n1c(C([NH-])=O)cc2ccc(C)cc21)C(=O)[O-] (chirality)
CC[C@H](C)[C@@H](NC(=O)C(=O)n1c(C([NH-])=O)cc2ccc(C)cc21)C(=O)[O-] (3D coordinates assigned)
CC[C@H](C)[C@@H](NC(=O)C(=O)n1c(C([NH-])=O)cc2ccc(C)cc21)C(=O)[O-] (optimized conformer: 82.28607301949889 kcal/mol)

>  <smiles>  (51) 
CCC(C)C(NC(=O)C(=O)n1c(C(N)=O)cc2ccc(C)cc21)C(=O)O

>  <score_type>  (51) 
oracle

>  <origin>  (51) 
adg

>  <m_score__min__energy>  (51) 
-13.57

>  <m_primary>  (51) 
energy

$$$$
51:0
     RDKit          3D

 50 52  0  0  0  0  0  0  0  0999 V2000
   -4.5900   13.8960  -32.0370 C   0  0  0  0  0  0  0  0  0  0  0  0
   -4.8430   15.2410  -32.4240 O   0  0  0  0  0  0  0  0  0  0  0  0
   -5.1520   15.6020  -33.7400 C   0  0  0  0  0  0  0  0  0  0  0  0
   -4.4540   15.1740  -34.7000 O   0  0  0  0  0  0  0  0  0  0  0  0
   -6.3780   16.4270  -34.0180 C   0  0  0  0  0  0  0  0  0  0  0  0
   -7.0020   17.0410  -32.8000 C   0  0  0  0  0  0  0  0  0  0  0  0
   -6.7270   18.4430  -33.1720 N   0  0  0  0  0  0  0  0  0  0  0  0
   -6.9570   19.7410  -32.6240 C   0  0  0  0  0  0  0  0  0  0  0  0
   -8.2780   20.2090  -32.4420 C   0  0  0  0  0  0  0  0  0  0  0  0
   -8.5130   21.4790  -31.8920 C   0  0  0  0  0  0  0  0  0  0  0  0
   -7.4110   22.2570  -31.5480 C   0  0  0  0  0  0  0  0  0  0  0  0
   -7.3600   23.5100  -30.9870 C   0  0  0  0  0  0  0  0  0  0  0  0
   -6.0070   23.7910  -30.8410 C   0  0  0  0  0  0  0  0  0  0  0  0
   -5.5110   25.0510  -30.2620 C   0  0  0  0  0  0  0  0  0  0  0  0
   -6.1200   25.6060  -29.0970 N   0  0  0  0  0  0  0  0  0  0  0  0
   -4.5920   25.6820  -30.8460 O   0  0  0  0  0  0  0  0  0  0  0  0
   -5.2380   22.7680  -31.3190 N   0  0  0  0  0  0  0  0  0  0  0  0
   -3.8070   22.7600  -31.5060 C   0  0  0  0  0  0  0  0  0  0  0  0
   -3.2820   21.9810  -32.3450 O   0  0  0  0  0  0  0  0  0  0  0  0
   -2.9980   23.5930  -30.7180 O   0  0  0  0  0  0  0  0  0  0  0  0
   -2.4880   23.3050  -29.4090 C   0  0  0  0  0  0  0  0  0  0  0  0
   -3.5950   22.7200  -28.5110 C   0  0  0  0  0  0  0  0  0  0  0  0
   -1.8810   24.5700  -28.7720 C   0  0  0  0  0  0  0  0  0  0  0  0
   -1.3810   22.2540  -29.5800 C   0  0  0  0  0  0  0  0  0  0  0  0
   -6.1200   21.8260  -31.7350 C   0  0  0  0  0  0  0  0  0  0  0  0
   -5.8620   20.5520  -32.2620 C   0  0  0  0  0  0  0  0  0  0  0  0
   -6.0970   17.8590  -34.3700 C   0  0  0  0  0  0  0  0  0  0  0  0
   -4.5769   13.8266  -30.9393 H   0  0  0  0  0  0  0  0  0  0  0  0
   -5.3814   13.2445  -32.4362 H   0  0  0  0  0  0  0  0  0  0  0  0
   -3.6160   13.5766  -32.4362 H   0  0  0  0  0  0  0  0  0  0  0  0
   -6.8898   15.7161  -34.6833 H   0  0  0  0  0  0  0  0  0  0  0  0
   -8.0779   16.8262  -32.7202 H   0  0  0  0  0  0  0  0  0  0  0  0
   -6.6313   16.7006  -31.8219 H   0  0  0  0  0  0  0  0  0  0  0  0
   -9.1276   19.5739  -32.7332 H   0  0  0  0  0  0  0  0  0  0  0  0
   -9.5375   21.8485  -31.7374 H   0  0  0  0  0  0  0  0  0  0  0  0
   -8.2088   24.1534  -30.7121 H   0  0  0  0  0  0  0  0  0  0  0  0
   -6.9630   25.1600  -28.6720 H   0  0  0  0  0  0  0  0  0  0  0  0
   -5.7560   26.4940  -28.6860 H   0  0  0  0  0  0  0  0  0  0  0  0
   -3.3240   22.8632  -27.4546 H   0  0  0  0  0  0  0  0  0  0  0  0
   -4.5453   23.2337  -28.7187 H   0  0  0  0  0  0  0  0  0  0  0  0
   -3.7060   21.6455  -28.7187 H   0  0  0  0  0  0  0  0  0  0  0  0
   -1.9220   24.4845  -27.6761 H   0  0  0  0  0  0  0  0  0  0  0  0
   -0.8341   24.6757  -29.0926 H   0  0  0  0  0  0  0  0  0  0  0  0
   -2.4536   25.4528  -29.0926 H   0  0  0  0  0  0  0  0  0  0  0  0
   -1.0330   21.9236  -28.5902 H   0  0  0  0  0  0  0  0  0  0  0  0
   -1.7770   21.3915  -30.1361 H   0  0  0  0  0  0  0  0  0  0  0  0
   -0.5402   22.6942  -30.1361 H   0  0  0  0  0  0  0  0  0  0  0  0
   -4.8297   20.1941  -32.3898 H   0  0  0  0  0  0  0  0  0  0  0  0
   -6.5891   18.1710  -35.3030 H   0  0  0  0  0  0  0  0  0  0  0  0
   -5.0490   18.1295  -34.5664 H   0  0  0  0  0  0  0  0  0  0  0  0
  1  2  1  0
  2  3  1  0
  3  4  2  0
  3  5  1  0
  5  6  1  0
  6  7  1  0
  7  8  1  0
  8  9  2  0
  9 10  1  0
 10 11  2  0
 11 12  1  0
 12 13  2  0
 13 14  1  0
 14 15  1  0
 14 16  2  0
 13 17  1  0
 17 18  1  0
 18 19  2  0
 18 20  1  0
 20 21  1  0
 21 22  1  0
 21 23  1  0
 21 24  1  0
 17 25  1  0
 25 26  2  0
  7 27  1  0
 27  5  1  0
 26  8  1  0
 25 11  1  0
  1 28  1  0
  1 29  1  0
  1 30  1  0
  5 31  1  0
  6 32  1  0
  6 33  1  0
  9 34  1  0
 10 35  1  0
 12 36  1  0
 15 37  1  0
 15 38  1  0
 22 39  1  0
 22 40  1  0
 22 41  1  0
 23 42  1  0
 23 43  1  0
 23 44  1  0
 24 45  1  0
 24 46  1  0
 24 47  1  0
 26 48  1  0
 27 49  1  0
 27 50  1  0
M  END
>  <UniqueID>  (52) 
51

>  <SMILES>  (52) 
COC(=O)C1CN(c2ccc3cc(C(N)=O)n(C(=O)OC(C)(C)C)c3c2)C1

>  <Energy>  (52) 
129.8870041020804

>  <Genealogy>  (52) 
COC(=O)C1CN(c2ccc3cc(C(N)=O)n(C(=O)OC(C)(C)C)c3c2)C1 (3D coordinates assigned)
COC(=O)C1CN(c2ccc3cc(C(N)=O)n(C(=O)OC(C)(C)C)c3c2)C1 (nonaromatic ring conformer: 129.8870041020804 kcal/mol)

>  <smiles>  (52) 
COC(=O)C1CN(c2ccc3cc(C(N)=O)n(C(=O)OC(C)(C)C)c3c2)C1

>  <score_type>  (52) 
oracle

>  <origin>  (52) 
adg

>  <m_score__min__energy>  (52) 
-9.1099999999999994

>  <m_primary>  (52) 
energy

$$$$
52:0
     RDKit          3D

 41 43  0  0  0  0  0  0  0  0999 V2000
   -0.6200   21.7360  -28.2760 C   0  0  0  0  0  0  0  0  0  0  0  0
   -0.8820   22.8130  -27.3270 N   0  0  0  0  0  0  0  0  0  0  0  0
   -0.3480   22.8530  -26.1170 N   0  0  0  0  0  0  0  0  0  0  0  0
   -0.7900   23.9700  -25.5070 C   0  0  0  0  0  0  0  0  0  0  0  0
   -1.6310   24.6610  -26.3570 C   0  0  0  0  0  0  0  0  0  0  0  0
   -1.6690   23.8980  -27.5070 C   0  0  0  0  0  0  0  0  0  0  0  0
   -2.4470   24.2290  -28.7200 C   0  0  0  0  0  0  0  0  0  0  0  0
   -2.2380   25.3040  -29.3430 O   0  0  0  0  0  0  0  0  0  0  0  0
   -3.4420   23.3140  -29.1860 N   0  0  0  0  0  0  0  0  0  0  0  0
   -3.1780   22.3120  -30.2090 C   0  0  0  0  0  0  0  0  0  0  0  0
   -4.0710   22.5660  -31.3820 C   0  0  0  0  0  0  0  0  0  0  0  0
   -3.5590   22.7510  -32.5200 O   0  0  0  0  0  0  0  0  0  0  0  0
   -5.4880   22.7060  -31.2100 N   0  0  0  0  0  0  0  0  0  0  0  0
   -6.1920   23.8330  -30.9080 C   0  0  0  0  0  0  0  0  0  0  0  0
   -5.6150   25.1420  -30.5360 C   0  0  0  0  0  0  0  0  0  0  0  0
   -4.2420   25.4480  -30.7790 N   0  0  0  0  0  0  0  0  0  0  0  0
   -6.3410   25.9920  -29.9540 O   0  0  0  0  0  0  0  0  0  0  0  0
   -7.5610   23.5830  -30.9600 C   0  0  0  0  0  0  0  0  0  0  0  0
   -7.6750   22.2510  -31.2950 C   0  0  0  0  0  0  0  0  0  0  0  0
   -8.8090   21.4680  -31.4870 C   0  0  0  0  0  0  0  0  0  0  0  0
   -8.6260   20.1240  -31.8570 C   0  0  0  0  0  0  0  0  0  0  0  0
   -7.3240   19.5950  -32.0500 C   0  0  0  0  0  0  0  0  0  0  0  0
   -7.1410   18.1420  -32.4100 C   0  0  0  0  0  0  0  0  0  0  0  0
   -6.2370   17.5680  -31.5360 F   0  0  0  0  0  0  0  0  0  0  0  0
   -6.6620   18.0150  -33.7030 F   0  0  0  0  0  0  0  0  0  0  0  0
   -8.3440   17.4630  -32.3250 F   0  0  0  0  0  0  0  0  0  0  0  0
   -6.1960   20.4190  -31.8220 C   0  0  0  0  0  0  0  0  0  0  0  0
   -6.4100   21.7470  -31.4400 C   0  0  0  0  0  0  0  0  0  0  0  0
   -0.3947   20.8100  -27.7267 H   0  0  0  0  0  0  0  0  0  0  0  0
   -1.5066   21.5808  -28.9084 H   0  0  0  0  0  0  0  0  0  0  0  0
    0.2388   22.0054  -28.9084 H   0  0  0  0  0  0  0  0  0  0  0  0
   -0.5219   24.2838  -24.4874 H   0  0  0  0  0  0  0  0  0  0  0  0
   -2.1542   25.6086  -26.1613 H   0  0  0  0  0  0  0  0  0  0  0  0
   -2.1264   22.3762  -30.5254 H   0  0  0  0  0  0  0  0  0  0  0  0
   -3.3728   21.3078  -29.8044 H   0  0  0  0  0  0  0  0  0  0  0  0
   -3.8730   26.4000  -30.5620 H   0  0  0  0  0  0  0  0  0  0  0  0
   -3.5680   24.7110  -31.0800 H   0  0  0  0  0  0  0  0  0  0  0  0
   -8.3772   24.2964  -30.7735 H   0  0  0  0  0  0  0  0  0  0  0  0
   -9.8171   21.8874  -31.3535 H   0  0  0  0  0  0  0  0  0  0  0  0
   -9.5028   19.4750  -31.9985 H   0  0  0  0  0  0  0  0  0  0  0  0
   -5.1763   20.0245  -31.9423 H   0  0  0  0  0  0  0  0  0  0  0  0
  1  2  1  0
  2  3  1  0
  3  4  2  0
  4  5  1  0
  5  6  2  0
  6  7  1  0
  7  8  2  0
  7  9  1  0
  9 10  1  0
 10 11  1  0
 11 12  2  0
 11 13  1  0
 13 14  1  0
 14 15  1  0
 15 16  1  0
 15 17  2  0
 14 18  2  0
 18 19  1  0
 19 20  2  0
 20 21  1  0
 21 22  2  0
 22 23  1  0
 23 24  1  0
 23 25  1  0
 23 26  1  0
 22 27  1  0
 27 28  2  0
  6  2  1  0
 28 13  1  0
 28 19  1  0
  1 29  1  0
  1 30  1  0
  1 31  1  0
  4 32  1  0
  5 33  1  0
 10 34  1  0
 10 35  1  0
 16 36  1  0
 16 37  1  0
 18 38  1  0
 20 39  1  0
 21 40  1  0
 27 41  1  0
M  CHG  1   9  -1
M  END
>  <UniqueID>  (53) 
52

>  <SMILES>  (53) 
Cn1nccc1C(=O)[N-]CC(=O)n1c(C(N)=O)cc2ccc(C(F)(F)F)cc21

>  <Energy>  (53) 
110.46024211628617

>  <Genealogy>  (53) 
Cn1nccc1C(=O)[N-]CC(=O)n1c(C(N)=O)cc2ccc(C(F)(F)F)cc21 (protonated)
Cn1nccc1C(=O)[N-]CC(=O)n1c(C(N)=O)cc2ccc(C(F)(F)F)cc21 (3D coordinates assigned)
Cn1nccc1C(=O)[N-]CC(=O)n1c(C(N)=O)cc2ccc(C(F)(F)F)cc21 (optimized conformer: 110.46024211628617 kcal/mol)

>  <smiles>  (53) 
Cn1nccc1C(=O)NCC(=O)n1c(C(N)=O)cc2ccc(C(F)(F)F)cc21

>  <score_type>  (53) 
oracle

>  <origin>  (53) 
adg

>  <m_score__min__energy>  (53) 
-9.9100000000000001

>  <m_primary>  (53) 
energy

$$$$
53:0
     RDKit          3D

 42 44  0  0  0  0  0  0  0  0999 V2000
   -3.8640   25.4220  -30.8320 N   0  0  0  0  0  0  0  0  0  0  0  0
   -5.2320   25.1750  -30.5150 C   0  0  0  0  0  0  0  0  0  0  0  0
   -5.8820   26.0410  -29.8730 O   0  0  0  0  0  0  0  0  0  0  0  0
   -5.8810   23.9300  -30.9770 C   0  0  0  0  0  0  0  0  0  0  0  0
   -7.2440   23.8250  -31.2430 C   0  0  0  0  0  0  0  0  0  0  0  0
   -7.4530   22.5040  -31.5640 C   0  0  0  0  0  0  0  0  0  0  0  0
   -8.6210   21.8450  -31.9340 C   0  0  0  0  0  0  0  0  0  0  0  0
   -8.5380   20.4780  -32.2460 C   0  0  0  0  0  0  0  0  0  0  0  0
   -7.2960   19.7950  -32.1890 C   0  0  0  0  0  0  0  0  0  0  0  0
   -7.2250   18.3240  -32.5590 C   0  0  1  0  0  0  0  0  0  0  0  0
   -6.4730   18.0950  -33.8690 C   0  0  0  0  0  0  0  0  0  0  0  0
   -5.5240   16.9480  -33.5790 C   0  0  0  0  0  0  0  0  0  0  0  0
   -5.2740   16.9520  -32.1390 N   0  0  0  0  0  0  0  0  0  0  0  0
   -6.4850   17.4810  -31.5110 C   0  0  0  0  0  0  0  0  0  0  0  0
   -6.1300   20.5030  -31.8120 C   0  0  0  0  0  0  0  0  0  0  0  0
   -6.2470   21.8590  -31.4890 C   0  0  0  0  0  0  0  0  0  0  0  0
   -5.2700   22.7210  -31.1300 N   0  0  0  0  0  0  0  0  0  0  0  0
   -3.8700   22.4220  -31.0230 C   0  0  0  0  0  0  0  0  0  0  0  0
   -3.1010   22.6630  -31.9940 O   0  0  0  0  0  0  0  0  0  0  0  0
   -3.3650   21.8800  -29.8350 O   0  0  0  0  0  0  0  0  0  0  0  0
   -3.6300   22.4230  -28.5430 C   0  0  0  0  0  0  0  0  0  0  0  0
   -2.9390   23.7740  -28.3690 C   0  0  0  0  0  0  0  0  0  0  0  0
   -2.0180   23.9860  -29.4030 O   0  0  0  0  0  0  0  0  0  0  0  0
   -3.2160   24.6370  -31.0620 H   0  0  0  0  0  0  0  0  0  0  0  0
   -7.9944   24.6284  -31.2045 H   0  0  0  0  0  0  0  0  0  0  0  0
   -9.5816   22.3789  -31.9809 H   0  0  0  0  0  0  0  0  0  0  0  0
   -9.4465   19.9308  -32.5379 H   0  0  0  0  0  0  0  0  0  0  0  0
   -8.2786   18.0177  -32.6372 H   0  0  0  0  0  0  0  0  0  0  0  0
   -7.1719   17.8248  -34.6743 H   0  0  0  0  0  0  0  0  0  0  0  0
   -5.9413   18.9976  -34.2044 H   0  0  0  0  0  0  0  0  0  0  0  0
   -5.9816   15.9941  -33.8801 H   0  0  0  0  0  0  0  0  0  0  0  0
   -4.5851   17.0647  -34.1401 H   0  0  0  0  0  0  0  0  0  0  0  0
   -4.4640   17.5810  -31.9260 H   0  0  0  0  0  0  0  0  0  0  0  0
   -5.0680   15.9850  -31.7970 H   0  0  0  0  0  0  0  0  0  0  0  0
   -7.1261   16.6521  -31.1765 H   0  0  0  0  0  0  0  0  0  0  0  0
   -6.2278   18.0947  -30.6351 H   0  0  0  0  0  0  0  0  0  0  0  0
   -5.1534   19.9982  -31.7738 H   0  0  0  0  0  0  0  0  0  0  0  0
   -4.7154   22.5553  -28.4234 H   0  0  0  0  0  0  0  0  0  0  0  0
   -3.2422   21.7287  -27.7830 H   0  0  0  0  0  0  0  0  0  0  0  0
   -3.6948   24.5731  -28.3868 H   0  0  0  0  0  0  0  0  0  0  0  0
   -2.4051   23.7815  -27.4073 H   0  0  0  0  0  0  0  0  0  0  0  0
   -2.5140   23.8400  -30.2490 H   0  0  0  0  0  0  0  0  0  0  0  0
  1  2  1  0
  2  3  2  0
  2  4  1  0
  4  5  2  0
  5  6  1  0
  6  7  2  0
  7  8  1  0
  8  9  2  0
  9 10  1  0
 10 11  1  0
 11 12  1  0
 12 13  1  0
 13 14  1  0
  9 15  1  0
 15 16  2  0
 16 17  1  0
 17 18  1  0
 18 19  2  0
 18 20  1  0
 20 21  1  0
 21 22  1  0
 22 23  1  0
 17  4  1  0
 16  6  1  0
 14 10  1  0
  1 24  1  0
  5 25  1  0
  7 26  1  0
  8 27  1  0
 10 28  1  6
 11 29  1  0
 11 30  1  0
 12 31  1  0
 12 32  1  0
 13 33  1  0
 13 34  1  0
 14 35  1  0
 14 36  1  0
 15 37  1  0
 21 38  1  0
 21 39  1  0
 22 40  1  0
 22 41  1  0
 23 42  1  0
M  CHG  2   1  -1  13   1
M  END
>  <UniqueID>  (54) 
53

>  <SMILES>  (54) 
[NH-]C(=O)c1cc2ccc([C@H]3CC[NH2+]C3)cc2n1C(=O)OCCO

>  <Energy>  (54) 
80.69848092256231

>  <Genealogy>  (54) 
[NH-]C(=O)c1cc2ccc([C@H]3CC[NH2+]C3)cc2n1C(=O)OCCO (protonated)
[NH-]C(=O)c1cc2ccc([C@H]3CC[NH2+]C3)cc2n1C(=O)OCCO (3D coordinates assigned)
[NH-]C(=O)c1cc2ccc([C@H]3CC[NH2+]C3)cc2n1C(=O)OCCO (nonaromatic ring conformer: 80.69848092256231 kcal/mol)

>  <smiles>  (54) 
NC(=O)c1cc2ccc([C@H]3CCNC3)cc2n1C(=O)OCCO

>  <score_type>  (54) 
oracle

>  <origin>  (54) 
adg

>  <m_score__min__energy>  (54) 
-10.460000000000001

>  <m_primary>  (54) 
energy

$$$$
54:0
     RDKit          3D

 44 45  0  0  0  0  0  0  0  0999 V2000
   -7.9980   18.3520  -32.4760 C   0  0  0  0  0  0  0  0  0  0  0  0
   -7.8650   19.7650  -31.9910 C   0  0  0  0  0  0  0  0  0  0  0  0
   -9.0100   20.4800  -31.5660 C   0  0  0  0  0  0  0  0  0  0  0  0
   -8.9040   21.8190  -31.1520 C   0  0  0  0  0  0  0  0  0  0  0  0
   -7.6450   22.4120  -31.1780 C   0  0  0  0  0  0  0  0  0  0  0  0
   -7.2690   23.6960  -30.8570 C   0  0  0  0  0  0  0  0  0  0  0  0
   -5.8950   23.7410  -31.0770 C   0  0  0  0  0  0  0  0  0  0  0  0
   -5.0670   24.9260  -30.7790 C   0  0  0  0  0  0  0  0  0  0  0  0
   -3.6520   24.8170  -30.6130 N   0  0  0  0  0  0  0  0  0  0  0  0
   -5.6240   26.0440  -30.6100 O   0  0  0  0  0  0  0  0  0  0  0  0
   -5.4390   22.5410  -31.5350 N   0  0  0  0  0  0  0  0  0  0  0  0
   -4.1050   22.2170  -31.9670 C   0  0  0  0  0  0  0  0  0  0  0  0
   -3.7970   22.3030  -33.1870 O   0  0  0  0  0  0  0  0  0  0  0  0
   -3.1550   21.7980  -31.0340 O   0  0  0  0  0  0  0  0  0  0  0  0
   -1.7750   22.1300  -31.1220 C   0  0  0  0  0  0  0  0  0  0  0  0
   -1.2590   22.3530  -29.8150 O   0  0  0  0  0  0  0  0  0  0  0  0
   -1.6990   23.3950  -28.9900 C   0  0  0  0  0  0  0  0  0  0  0  0
   -1.5230   24.5960  -29.3410 O   0  0  0  0  0  0  0  0  0  0  0  0
   -2.4800   23.0800  -27.7290 C   0  0  0  0  0  0  0  0  0  0  0  0
   -1.4940   22.9940  -26.5500 C   0  0  0  0  0  0  0  0  0  0  0  0
   -3.2230   21.7370  -27.8790 C   0  0  0  0  0  0  0  0  0  0  0  0
   -3.5120   24.1910  -27.4530 C   0  0  0  0  0  0  0  0  0  0  0  0
   -6.5240   21.7340  -31.5860 C   0  0  0  0  0  0  0  0  0  0  0  0
   -6.6070   20.4050  -32.0260 C   0  0  0  0  0  0  0  0  0  0  0  0
   -8.0619   17.6727  -31.6132 H   0  0  0  0  0  0  0  0  0  0  0  0
   -8.9090   18.2577  -33.0853 H   0  0  0  0  0  0  0  0  0  0  0  0
   -7.1206   18.0893  -33.0853 H   0  0  0  0  0  0  0  0  0  0  0  0
   -9.9915   19.9835  -31.5596 H   0  0  0  0  0  0  0  0  0  0  0  0
   -9.7886   22.3809  -30.8178 H   0  0  0  0  0  0  0  0  0  0  0  0
   -7.9156   24.5122  -30.5024 H   0  0  0  0  0  0  0  0  0  0  0  0
   -3.1850   23.8840  -30.5810 H   0  0  0  0  0  0  0  0  0  0  0  0
   -3.0770   25.6710  -30.4430 H   0  0  0  0  0  0  0  0  0  0  0  0
   -1.2278   21.3021  -31.5964 H   0  0  0  0  0  0  0  0  0  0  0  0
   -1.6539   23.0416  -31.7256 H   0  0  0  0  0  0  0  0  0  0  0  0
   -2.0504   23.0425  -25.6024 H   0  0  0  0  0  0  0  0  0  0  0  0
   -0.9415   22.0443  -26.6026 H   0  0  0  0  0  0  0  0  0  0  0  0
   -0.7854   23.8338  -26.6026 H   0  0  0  0  0  0  0  0  0  0  0  0
   -3.4485   21.3294  -26.8825 H   0  0  0  0  0  0  0  0  0  0  0  0
   -4.1611   21.8966  -28.4308 H   0  0  0  0  0  0  0  0  0  0  0  0
   -2.5894   21.0270  -28.4308 H   0  0  0  0  0  0  0  0  0  0  0  0
   -3.6311   24.3192  -26.3670 H   0  0  0  0  0  0  0  0  0  0  0  0
   -3.1627   25.1346  -27.8975 H   0  0  0  0  0  0  0  0  0  0  0  0
   -4.4788   23.9121  -27.8975 H   0  0  0  0  0  0  0  0  0  0  0  0
   -5.7144   19.8745  -32.3893 H   0  0  0  0  0  0  0  0  0  0  0  0
  1  2  1  0
  2  3  2  0
  3  4  1  0
  4  5  2  0
  5  6  1  0
  6  7  2  0
  7  8  1  0
  8  9  1  0
  8 10  2  0
  7 11  1  0
 11 12  1  0
 12 13  2  0
 12 14  1  0
 14 15  1  0
 15 16  1  0
 16 17  1  0
 17 18  2  0
 17 19  1  0
 19 20  1  0
 19 21  1  0
 19 22  1  0
 11 23  1  0
 23 24  2  0
 24  2  1  0
 23  5  1  0
  1 25  1  0
  1 26  1  0
  1 27  1  0
  3 28  1  0
  4 29  1  0
  6 30  1  0
  9 31  1  0
  9 32  1  0
 15 33  1  0
 15 34  1  0
 20 35  1  0
 20 36  1  0
 20 37  1  0
 21 38  1  0
 21 39  1  0
 21 40  1  0
 22 41  1  0
 22 42  1  0
 22 43  1  0
 24 44  1  0
M  END
>  <UniqueID>  (55) 
54

>  <SMILES>  (55) 
Cc1ccc2cc(C(N)=O)n(C(=O)OCOC(=O)C(C)(C)C)c2c1

>  <Energy>  (55) 
74.15975678293692

>  <Genealogy>  (55) 
Cc1ccc2cc(C(N)=O)n(C(=O)OCOC(=O)C(C)(C)C)c2c1 (3D coordinates assigned)
Cc1ccc2cc(C(N)=O)n(C(=O)OCOC(=O)C(C)(C)C)c2c1 (optimized conformer: 74.15975678293692 kcal/mol)

>  <smiles>  (55) 
Cc1ccc2cc(C(N)=O)n(C(=O)OCOC(=O)C(C)(C)C)c2c1

>  <score_type>  (55) 
oracle

>  <origin>  (55) 
adg

>  <m_score__min__energy>  (55) 
-8.9100000000000001

>  <m_primary>  (55) 
energy

$$$$
55:0
     RDKit          3D

 44 45  0  0  0  0  0  0  0  0999 V2000
   -9.0470   18.3790  -31.6500 C   0  0  0  0  0  0  0  0  0  0  0  0
   -9.4440   19.2420  -32.6910 O   0  0  0  0  0  0  0  0  0  0  0  0
   -9.4400   20.5730  -32.2200 C   0  0  0  0  0  0  0  0  0  0  0  0
   -8.0280   21.1670  -32.3370 C   0  0  0  0  0  0  0  0  0  0  0  0
   -7.1670   20.4410  -33.2890 N   0  0  0  0  0  0  0  0  0  0  0  0
   -6.0850   19.7000  -32.6180 C   0  0  0  0  0  0  0  0  0  0  0  0
   -4.8090   19.7100  -33.4690 C   0  0  0  0  0  0  0  0  0  0  0  0
   -3.6880   20.3930  -32.7320 C   0  0  0  0  0  0  0  0  0  0  0  0
   -2.3880   19.8270  -32.7350 C   0  0  0  0  0  0  0  0  0  0  0  0
   -1.3440   20.4290  -32.0140 C   0  0  0  0  0  0  0  0  0  0  0  0
   -1.6280   21.5910  -31.3020 C   0  0  0  0  0  0  0  0  0  0  0  0
   -0.8150   22.3620  -30.5010 C   0  0  0  0  0  0  0  0  0  0  0  0
   -1.6300   23.3880  -30.0260 C   0  0  0  0  0  0  0  0  0  0  0  0
   -1.1470   24.4860  -29.1620 C   0  0  0  0  0  0  0  0  0  0  0  0
   -1.9540   25.6440  -28.9690 N   0  0  0  0  0  0  0  0  0  0  0  0
   -0.0390   24.4010  -28.5710 O   0  0  0  0  0  0  0  0  0  0  0  0
   -2.8940   23.2570  -30.5170 N   0  0  0  0  0  0  0  0  0  0  0  0
   -4.0340   24.0830  -30.2290 C   0  0  0  0  0  0  0  0  0  0  0  0
   -4.2860   25.0810  -30.9570 O   0  0  0  0  0  0  0  0  0  0  0  0
   -4.9230   23.7800  -29.0620 C   0  0  0  0  0  0  0  0  0  0  0  0
   -4.5810   24.6100  -27.9880 O   0  0  0  0  0  0  0  0  0  0  0  0
   -2.8780   22.1530  -31.2940 C   0  0  0  0  0  0  0  0  0  0  0  0
   -3.9420   21.5640  -31.9860 C   0  0  0  0  0  0  0  0  0  0  0  0
   -9.2639   18.8504  -30.6801 H   0  0  0  0  0  0  0  0  0  0  0  0
   -9.5996   17.4311  -31.7287 H   0  0  0  0  0  0  0  0  0  0  0  0
   -7.9677   18.1818  -31.7287 H   0  0  0  0  0  0  0  0  0  0  0  0
  -10.1390   21.1740  -32.8202 H   0  0  0  0  0  0  0  0  0  0  0  0
   -9.7502   20.5837  -31.1647 H   0  0  0  0  0  0  0  0  0  0  0  0
   -8.1151   22.2113  -32.6713 H   0  0  0  0  0  0  0  0  0  0  0  0
   -7.5577   21.0870  -31.3458 H   0  0  0  0  0  0  0  0  0  0  0  0
   -6.7600   21.1060  -33.9880 H   0  0  0  0  0  0  0  0  0  0  0  0
   -7.7730   19.7630  -33.8060 H   0  0  0  0  0  0  0  0  0  0  0  0
   -5.8742   20.1707  -31.6464 H   0  0  0  0  0  0  0  0  0  0  0  0
   -6.4065   18.6576  -32.4767 H   0  0  0  0  0  0  0  0  0  0  0  0
   -4.5159   18.6739  -33.6938 H   0  0  0  0  0  0  0  0  0  0  0  0
   -5.0079   20.2590  -34.4012 H   0  0  0  0  0  0  0  0  0  0  0  0
   -2.1954   18.9077  -33.3075 H   0  0  0  0  0  0  0  0  0  0  0  0
   -0.3330   19.9957  -32.0119 H   0  0  0  0  0  0  0  0  0  0  0  0
    0.2511   22.2020  -30.2826 H   0  0  0  0  0  0  0  0  0  0  0  0
   -2.9430   25.6730  -29.3030 H   0  0  0  0  0  0  0  0  0  0  0  0
   -5.9714   23.9578  -29.3436 H   0  0  0  0  0  0  0  0  0  0  0  0
   -4.7962   22.7278  -28.7675 H   0  0  0  0  0  0  0  0  0  0  0  0
   -4.0010   25.3230  -28.3630 H   0  0  0  0  0  0  0  0  0  0  0  0
   -4.9503   22.0022  -31.9496 H   0  0  0  0  0  0  0  0  0  0  0  0
  1  2  1  0
  2  3  1  0
  3  4  1  0
  4  5  1  0
  5  6  1  0
  6  7  1  0
  7  8  1  0
  8  9  2  0
  9 10  1  0
 10 11  2  0
 11 12  1  0
 12 13  2  0
 13 14  1  0
 14 15  1  0
 14 16  2  0
 13 17  1  0
 17 18  1  0
 18 19  2  0
 18 20  1  0
 20 21  1  0
 17 22  1  0
 22 23  2  0
 23  8  1  0
 22 11  1  0
  1 24  1  0
  1 25  1  0
  1 26  1  0
  3 27  1  0
  3 28  1  0
  4 29  1  0
  4 30  1  0
  5 31  1  0
  5 32  1  0
  6 33  1  0
  6 34  1  0
  7 35  1  0
  7 36  1  0
  9 37  1  0
 10 38  1  0
 12 39  1  0
 15 40  1  0
 20 41  1  0
 20 42  1  0
 21 43  1  0
 23 44  1  0
M  CHG  2   5   1  15  -1
M  END
>  <UniqueID>  (56) 
55

>  <SMILES>  (56) 
COCC[NH2+]CCc1ccc2cc(C([NH-])=O)n(C(=O)CO)c2c1

>  <Energy>  (56) 
78.49927046866414

>  <Genealogy>  (56) 
COCC[NH2+]CCc1ccc2cc(C([NH-])=O)n(C(=O)CO)c2c1 (protonated)
COCC[NH2+]CCc1ccc2cc(C([NH-])=O)n(C(=O)CO)c2c1 (3D coordinates assigned)
COCC[NH2+]CCc1ccc2cc(C([NH-])=O)n(C(=O)CO)c2c1 (optimized conformer: 78.49927046866414 kcal/mol)

>  <smiles>  (56) 
COCCNCCc1ccc2cc(C(N)=O)n(C(=O)CO)c2c1

>  <score_type>  (56) 
oracle

>  <origin>  (56) 
adg

>  <m_score__min__energy>  (56) 
-8.9700000000000006

>  <m_primary>  (56) 
energy

$$$$
56:0
     RDKit          3D

 33 34  0  0  0  0  0  0  0  0999 V2000
   -3.9050   25.6210  -30.8250 N   0  0  0  0  0  0  0  0  0  0  0  0
   -5.2480   25.2920  -30.4750 C   0  0  0  0  0  0  0  0  0  0  0  0
   -5.9070   26.0820  -29.7490 O   0  0  0  0  0  0  0  0  0  0  0  0
   -5.8340   24.0140  -30.9300 C   0  0  0  0  0  0  0  0  0  0  0  0
   -7.2050   23.8020  -31.0610 C   0  0  0  0  0  0  0  0  0  0  0  0
   -7.3290   22.5360  -31.5870 C   0  0  0  0  0  0  0  0  0  0  0  0
   -8.4710   21.8110  -31.9100 C   0  0  0  0  0  0  0  0  0  0  0  0
   -8.3040   20.5090  -32.4130 C   0  0  0  0  0  0  0  0  0  0  0  0
   -7.0090   19.9580  -32.5760 C   0  0  0  0  0  0  0  0  0  0  0  0
   -6.8540   18.5580  -33.0970 C   0  0  0  0  0  0  0  0  0  0  0  0
   -6.2240   17.7740  -32.1470 F   0  0  0  0  0  0  0  0  0  0  0  0
   -6.0940   18.5730  -34.2530 F   0  0  0  0  0  0  0  0  0  0  0  0
   -5.8720   20.7240  -32.2340 C   0  0  0  0  0  0  0  0  0  0  0  0
   -6.0670   22.0250  -31.7530 C   0  0  0  0  0  0  0  0  0  0  0  0
   -5.1370   22.9200  -31.3510 N   0  0  0  0  0  0  0  0  0  0  0  0
   -3.7160   22.7130  -31.3060 C   0  0  0  0  0  0  0  0  0  0  0  0
   -3.1090   22.3240  -32.3400 O   0  0  0  0  0  0  0  0  0  0  0  0
   -3.0260   22.9240  -30.1050 O   0  0  0  0  0  0  0  0  0  0  0  0
   -1.7440   22.4390  -29.8170 C   0  0  0  0  0  0  0  0  0  0  0  0
   -1.0790   21.8050  -30.6800 O   0  0  0  0  0  0  0  0  0  0  0  0
   -1.1900   22.6830  -28.5210 N   0  0  0  0  0  0  0  0  0  0  0  0
   -1.5200   23.8470  -27.7070 C   0  0  0  0  0  0  0  0  0  0  0  0
   -0.8630   25.0700  -28.2620 C   0  0  0  0  0  0  0  0  0  0  0  0
    0.3750   25.2470  -28.1110 O   0  0  0  0  0  0  0  0  0  0  0  0
   -1.6090   26.0000  -28.9740 O   0  0  0  0  0  0  0  0  0  0  0  0
   -3.0980   25.1660  -30.3440 H   0  0  0  0  0  0  0  0  0  0  0  0
   -8.0156   24.4981  -30.7997 H   0  0  0  0  0  0  0  0  0  0  0  0
   -9.4737   22.2429  -31.7760 H   0  0  0  0  0  0  0  0  0  0  0  0
   -9.1876   19.9120  -32.6827 H   0  0  0  0  0  0  0  0  0  0  0  0
   -7.8488   18.1427  -33.3155 H   0  0  0  0  0  0  0  0  0  0  0  0
   -4.8591   20.3090  -32.3428 H   0  0  0  0  0  0  0  0  0  0  0  0
   -2.6106   23.9904  -27.7038 H   0  0  0  0  0  0  0  0  0  0  0  0
   -1.1594   23.6807  -26.6812 H   0  0  0  0  0  0  0  0  0  0  0  0
  1  2  1  0
  2  3  2  0
  2  4  1  0
  4  5  2  0
  5  6  1  0
  6  7  2  0
  7  8  1  0
  8  9  2  0
  9 10  1  0
 10 11  1  0
 10 12  1  0
  9 13  1  0
 13 14  2  0
 14 15  1  0
 15 16  1  0
 16 17  2  0
 16 18  1  0
 18 19  1  0
 19 20  2  0
 19 21  1  0
 21 22  1  0
 22 23  1  0
 23 24  2  0
 23 25  1  0
 15  4  1  0
 14  6  1  0
  1 26  1  0
  5 27  1  0
  7 28  1  0
  8 29  1  0
 10 30  1  0
 13 31  1  0
 22 32  1  0
 22 33  1  0
M  CHG  3   1  -1  21  -1  25  -1
M  END
>  <UniqueID>  (57) 
56

>  <SMILES>  (57) 
[NH-]C(=O)c1cc2ccc(C(F)F)cc2n1C(=O)OC(=O)[N-]CC(=O)[O-]

>  <Energy>  (57) 
70.06577845404423

>  <Genealogy>  (57) 
[NH-]C(=O)c1cc2ccc(C(F)F)cc2n1C(=O)OC(=O)[N-]CC(=O)[O-] (protonated)
[NH-]C(=O)c1cc2ccc(C(F)F)cc2n1C(=O)OC(=O)[N-]CC(=O)[O-] (3D coordinates assigned)
[NH-]C(=O)c1cc2ccc(C(F)F)cc2n1C(=O)OC(=O)[N-]CC(=O)[O-] (optimized conformer: 70.06577845404423 kcal/mol)

>  <smiles>  (57) 
NC(=O)c1cc2ccc(C(F)F)cc2n1C(=O)OC(=O)NCC(=O)O

>  <score_type>  (57) 
oracle

>  <origin>  (57) 
adg

>  <m_score__min__energy>  (57) 
-12.140000000000001

>  <m_primary>  (57) 
energy

$$$$
57:0
     RDKit          3D

 41 42  0  0  0  0  0  0  0  0999 V2000
   -6.4370   18.1840  -33.5230 C   0  0  0  0  0  0  0  0  0  0  0  0
   -7.3200   18.4240  -32.3010 C   0  0  1  0  0  0  0  0  0  0  0  0
   -6.8120   17.7250  -31.2180 F   0  0  0  0  0  0  0  0  0  0  0  0
   -7.3980   19.8940  -31.9810 C   0  0  0  0  0  0  0  0  0  0  0  0
   -8.6530   20.5120  -31.7470 C   0  0  0  0  0  0  0  0  0  0  0  0
   -8.7310   21.8760  -31.4150 C   0  0  0  0  0  0  0  0  0  0  0  0
   -7.5420   22.5930  -31.3230 C   0  0  0  0  0  0  0  0  0  0  0  0
   -7.3220   23.9100  -30.9900 C   0  0  0  0  0  0  0  0  0  0  0  0
   -5.9380   24.0680  -31.0080 C   0  0  0  0  0  0  0  0  0  0  0  0
   -5.2550   25.2760  -30.5170 C   0  0  0  0  0  0  0  0  0  0  0  0
   -3.9580   25.6090  -31.0060 N   0  0  0  0  0  0  0  0  0  0  0  0
   -5.8340   26.0520  -29.7130 O   0  0  0  0  0  0  0  0  0  0  0  0
   -5.3290   22.9080  -31.3800 N   0  0  0  0  0  0  0  0  0  0  0  0
   -3.9260   22.6580  -31.5890 C   0  0  0  0  0  0  0  0  0  0  0  0
   -3.5730   22.0400  -32.6300 O   0  0  0  0  0  0  0  0  0  0  0  0
   -2.9070   23.1190  -30.6550 N   0  0  2  0  0  0  0  0  0  0  0  0
   -1.6940   22.2940  -30.8110 C   0  0  0  0  0  0  0  0  0  0  0  0
   -3.3830   23.1610  -29.2390 C   0  0  1  0  0  0  0  0  0  0  0  0
   -3.0650   21.8620  -28.4730 C   0  0  0  0  0  0  0  0  0  0  0  0
   -2.7570   24.3020  -28.4740 C   0  0  0  0  0  0  0  0  0  0  0  0
   -2.9160   24.4060  -27.2290 O   0  0  0  0  0  0  0  0  0  0  0  0
   -2.0590   25.2900  -29.1580 O   0  0  0  0  0  0  0  0  0  0  0  0
   -6.3210   22.0080  -31.5370 C   0  0  0  0  0  0  0  0  0  0  0  0
   -6.2120   20.6510  -31.8560 C   0  0  0  0  0  0  0  0  0  0  0  0
   -5.4238   17.9086  -33.1949 H   0  0  0  0  0  0  0  0  0  0  0  0
   -6.8610   17.3685  -34.1273 H   0  0  0  0  0  0  0  0  0  0  0  0
   -6.3899   19.1019  -34.1273 H   0  0  0  0  0  0  0  0  0  0  0  0
   -8.3367   18.0665  -32.5214 H   0  0  0  0  0  0  0  0  0  0  0  0
   -9.5753   19.9177  -31.8261 H   0  0  0  0  0  0  0  0  0  0  0  0
   -9.7015   22.3611  -31.2337 H   0  0  0  0  0  0  0  0  0  0  0  0
   -8.0779   24.6750  -30.7589 H   0  0  0  0  0  0  0  0  0  0  0  0
   -3.1000   25.2950  -30.5030 H   0  0  0  0  0  0  0  0  0  0  0  0
   -2.6460   24.0940  -30.9390 H   0  0  0  0  0  0  0  0  0  0  0  0
   -1.3018   22.0273  -29.8185 H   0  0  0  0  0  0  0  0  0  0  0  0
   -1.9430   21.3771  -31.3654 H   0  0  0  0  0  0  0  0  0  0  0  0
   -0.9327   22.8624  -31.3654 H   0  0  0  0  0  0  0  0  0  0  0  0
   -4.4729   23.2946  -29.3043 H   0  0  0  0  0  0  0  0  0  0  0  0
   -3.1119   22.0536  -27.3908 H   0  0  0  0  0  0  0  0  0  0  0  0
   -3.8004   21.0891  -28.7407 H   0  0  0  0  0  0  0  0  0  0  0  0
   -2.0557   21.5162  -28.7407 H   0  0  0  0  0  0  0  0  0  0  0  0
   -5.2271   20.1845  -32.0059 H   0  0  0  0  0  0  0  0  0  0  0  0
  1  2  1  0
  2  3  1  0
  2  4  1  0
  4  5  2  0
  5  6  1  0
  6  7  2  0
  7  8  1  0
  8  9  2  0
  9 10  1  0
 10 11  1  0
 10 12  2  0
  9 13  1  0
 13 14  1  0
 14 15  2  0
 14 16  1  0
 16 17  1  0
 16 18  1  0
 18 19  1  0
 18 20  1  0
 20 21  2  0
 20 22  1  0
 13 23  1  0
 23 24  2  0
 24  4  1  0
 23  7  1  0
  1 25  1  0
  1 26  1  0
  1 27  1  0
  2 28  1  6
  5 29  1  0
  6 30  1  0
  8 31  1  0
 11 32  1  0
 16 33  1  6
 17 34  1  0
 17 35  1  0
 17 36  1  0
 18 37  1  6
 19 38  1  0
 19 39  1  0
 19 40  1  0
 24 41  1  0
M  CHG  3  11  -1  16   1  22  -1
M  END
>  <UniqueID>  (58) 
57

>  <SMILES>  (58) 
CC(C(=O)[O-])[N@@H+](C)C(=O)n1c(C([NH-])=O)cc2ccc([C@@H](C)F)cc21

>  <Energy>  (58) 
85.33314640187719

>  <Genealogy>  (58) 
CC(F)c1ccc2cc(C([NH-])=O)n(C(=O)[NH+](C)C(C)C(=O)[O-])c2c1 (protonated)
CC(C(=O)[O-])[N@@H+](C)C(=O)n1c(C([NH-])=O)cc2ccc([C@@H](C)F)cc21 (chirality)
CC(C(=O)[O-])[N@@H+](C)C(=O)n1c(C([NH-])=O)cc2ccc([C@@H](C)F)cc21 (3D coordinates assigned)
CC(C(=O)[O-])[N@@H+](C)C(=O)n1c(C([NH-])=O)cc2ccc([C@@H](C)F)cc21 (optimized conformer: 85.33314640187719 kcal/mol)

>  <smiles>  (58) 
CC(F)c1ccc2cc(C(N)=O)n(C(=O)N(C)C(C)C(=O)O)c2c1

>  <score_type>  (58) 
oracle

>  <origin>  (58) 
adg

>  <m_score__min__energy>  (58) 
-11.140000000000001

>  <m_primary>  (58) 
energy

$$$$
58:0
     RDKit          3D

 41 42  0  0  0  0  0  0  0  0999 V2000
    0.0070   25.3760  -27.4940 C   0  0  0  0  0  0  0  0  0  0  0  0
   -0.1660   24.4400  -28.5950 N   0  0  0  0  0  0  0  0  0  0  0  0
   -1.3950   24.3090  -29.3120 C   0  0  0  0  0  0  0  0  0  0  0  0
   -2.2240   25.2610  -29.3410 O   0  0  0  0  0  0  0  0  0  0  0  0
   -1.7220   23.0120  -29.9830 C   0  0  0  0  0  0  0  0  0  0  0  0
   -3.1790   22.8190  -30.0190 N   0  0  0  0  0  0  0  0  0  0  0  0
   -3.9660   22.9730  -28.7910 C   0  0  0  0  0  0  0  0  0  0  0  0
   -3.8710   22.6570  -31.2750 C   0  0  0  0  0  0  0  0  0  0  0  0
   -3.2210   22.3900  -32.3220 O   0  0  0  0  0  0  0  0  0  0  0  0
   -5.2990   22.7890  -31.3550 N   0  0  0  0  0  0  0  0  0  0  0  0
   -6.0690   23.8500  -30.9840 C   0  0  0  0  0  0  0  0  0  0  0  0
   -5.5740   25.1490  -30.4790 C   0  0  0  0  0  0  0  0  0  0  0  0
   -4.2060   25.5350  -30.6190 N   0  0  0  0  0  0  0  0  0  0  0  0
   -6.3840   25.9490  -29.9400 O   0  0  0  0  0  0  0  0  0  0  0  0
   -7.4200   23.5440  -31.1320 C   0  0  0  0  0  0  0  0  0  0  0  0
   -7.4520   22.2590  -31.6280 C   0  0  0  0  0  0  0  0  0  0  0  0
   -8.5350   21.4420  -31.9380 C   0  0  0  0  0  0  0  0  0  0  0  0
   -8.2670   20.1360  -32.3860 C   0  0  0  0  0  0  0  0  0  0  0  0
   -6.9320   19.6760  -32.5190 C   0  0  0  0  0  0  0  0  0  0  0  0
   -6.6580   18.2620  -32.9540 C   0  0  0  0  0  0  0  0  0  0  0  0
   -5.6290   18.2370  -34.0430 C   0  0  0  0  0  0  0  0  0  0  0  0
   -5.9310   18.5450  -35.1860 O   0  0  0  0  0  0  0  0  0  0  0  0
   -5.8600   20.5330  -32.1890 C   0  0  0  0  0  0  0  0  0  0  0  0
   -6.1570   21.8290  -31.7570 C   0  0  0  0  0  0  0  0  0  0  0  0
   -0.0920   24.8403  -26.5384 H   0  0  0  0  0  0  0  0  0  0  0  0
    1.0051   25.8343  -27.5558 H   0  0  0  0  0  0  0  0  0  0  0  0
   -0.7613   26.1608  -27.5558 H   0  0  0  0  0  0  0  0  0  0  0  0
   -1.3305   23.0246  -31.0109 H   0  0  0  0  0  0  0  0  0  0  0  0
   -1.2619   22.1872  -29.4191 H   0  0  0  0  0  0  0  0  0  0  0  0
   -3.3106   22.8447  -27.9169 H   0  0  0  0  0  0  0  0  0  0  0  0
   -4.4164   23.9763  -28.7675 H   0  0  0  0  0  0  0  0  0  0  0  0
   -4.7613   22.2134  -28.7675 H   0  0  0  0  0  0  0  0  0  0  0  0
   -3.5480   25.0050  -31.2340 H   0  0  0  0  0  0  0  0  0  0  0  0
   -3.8700   26.4240  -30.1850 H   0  0  0  0  0  0  0  0  0  0  0  0
   -8.2791   24.1912  -30.9017 H   0  0  0  0  0  0  0  0  0  0  0  0
   -9.5680   21.8061  -31.8359 H   0  0  0  0  0  0  0  0  0  0  0  0
   -9.1015   19.4643  -32.6358 H   0  0  0  0  0  0  0  0  0  0  0  0
   -6.2888   17.6840  -32.0940 H   0  0  0  0  0  0  0  0  0  0  0  0
   -7.5904   17.8207  -33.3359 H   0  0  0  0  0  0  0  0  0  0  0  0
   -4.5955   17.9395  -33.8119 H   0  0  0  0  0  0  0  0  0  0  0  0
   -4.8180   20.1900  -32.2697 H   0  0  0  0  0  0  0  0  0  0  0  0
  1  2  1  0
  2  3  1  0
  3  4  2  0
  3  5  1  0
  5  6  1  0
  6  7  1  0
  6  8  1  0
  8  9  2  0
  8 10  1  0
 10 11  1  0
 11 12  1  0
 12 13  1  0
 12 14  2  0
 11 15  2  0
 15 16  1  0
 16 17  2  0
 17 18  1  0
 18 19  2  0
 19 20  1  0
 20 21  1  0
 21 22  2  0
 19 23  1  0
 23 24  2  0
 24 10  1  0
 24 16  1  0
  1 25  1  0
  1 26  1  0
  1 27  1  0
  5 28  1  0
  5 29  1  0
  7 30  1  0
  7 31  1  0
  7 32  1  0
 13 33  1  0
 13 34  1  0
 15 35  1  0
 17 36  1  0
 18 37  1  0
 20 38  1  0
 20 39  1  0
 21 40  1  0
 23 41  1  0
M  CHG  1   2  -1
M  END
>  <UniqueID>  (59) 
58

>  <SMILES>  (59) 
C[N-]C(=O)CN(C)C(=O)n1c(C(N)=O)cc2ccc(CC=O)cc21

>  <Energy>  (59) 
72.82521646020918

>  <Genealogy>  (59) 
C[N-]C(=O)CN(C)C(=O)n1c(C(N)=O)cc2ccc(CC=O)cc21 (protonated)
C[N-]C(=O)CN(C)C(=O)n1c(C(N)=O)cc2ccc(CC=O)cc21 (3D coordinates assigned)
C[N-]C(=O)CN(C)C(=O)n1c(C(N)=O)cc2ccc(CC=O)cc21 (optimized conformer: 72.82521646020918 kcal/mol)

>  <smiles>  (59) 
CNC(=O)CN(C)C(=O)n1c(C(N)=O)cc2ccc(CC=O)cc21

>  <score_type>  (59) 
oracle

>  <origin>  (59) 
adg

>  <m_score__min__energy>  (59) 
-10.52

>  <m_primary>  (59) 
energy

$$$$
59:0
     RDKit          3D

 30 31  0  0  0  0  0  0  0  0999 V2000
   -3.1980   24.9880  -31.0350 H   0  0  0  0  0  0  0  0  0  0  0  0
   -3.9590   25.6740  -30.8360 N   0  0  0  0  0  0  0  0  0  0  0  0
   -5.2950   25.2380  -30.5960 C   0  0  0  0  0  0  0  0  0  0  0  0
   -6.1430   26.0620  -30.1570 O   0  0  0  0  0  0  0  0  0  0  0  0
   -5.7100   23.8570  -30.9090 C   0  0  0  0  0  0  0  0  0  0  0  0
   -7.0040   23.5200  -31.3040 C   0  0  0  0  0  0  0  0  0  0  0  0
   -7.8795   24.1839  -31.3565 H   0  0  0  0  0  0  0  0  0  0  0  0
   -6.9530   22.1810  -31.6140 C   0  0  0  0  0  0  0  0  0  0  0  0
   -7.9530   21.3280  -32.0700 C   0  0  0  0  0  0  0  0  0  0  0  0
   -8.9743   21.6960  -32.2474 H   0  0  0  0  0  0  0  0  0  0  0  0
   -7.6190   19.9830  -32.2970 C   0  0  0  0  0  0  0  0  0  0  0  0
   -8.3840   19.2895  -32.6761 H   0  0  0  0  0  0  0  0  0  0  0  0
   -6.3060   19.5080  -32.0430 C   0  0  0  0  0  0  0  0  0  0  0  0
   -5.9480   18.0710  -32.3260 C   0  0  0  0  0  0  0  0  0  0  0  0
   -4.6250   17.9670  -32.7200 F   0  0  0  0  0  0  0  0  0  0  0  0
   -6.1260   17.2890  -31.1970 F   0  0  0  0  0  0  0  0  0  0  0  0
   -6.7580   17.5910  -33.3390 F   0  0  0  0  0  0  0  0  0  0  0  0
   -5.3120   20.4120  -31.6030 C   0  0  0  0  0  0  0  0  0  0  0  0
   -4.2814   20.0719  -31.4237 H   0  0  0  0  0  0  0  0  0  0  0  0
   -5.6700   21.7490  -31.4010 C   0  0  0  0  0  0  0  0  0  0  0  0
   -4.8970   22.7630  -30.9520 N   0  0  0  0  0  0  0  0  0  0  0  0
   -3.5110   22.6660  -30.5740 C   0  0  0  0  0  0  0  0  0  0  0  0
   -2.6200   22.8540  -31.4460 O   0  0  0  0  0  0  0  0  0  0  0  0
   -3.0870   22.4210  -29.1800 C   0  0  0  0  0  0  0  0  0  0  0  0
   -3.6409   21.6555  -28.6168 H   0  0  0  0  0  0  0  0  0  0  0  0
   -2.0890   23.0460  -28.5380 C   0  0  0  0  0  0  0  0  0  0  0  0
   -1.7770   22.6278  -27.5696 H   0  0  0  0  0  0  0  0  0  0  0  0
   -1.3730   24.2430  -29.0140 C   0  0  0  0  0  0  0  0  0  0  0  0
   -1.9910   25.2960  -29.3170 O   0  0  0  0  0  0  0  0  0  0  0  0
    0.0150   24.2370  -29.0420 O   0  0  0  0  0  0  0  0  0  0  0  0
  1  2  1  0
  2  3  1  0
  3  4  2  0
  3  5  1  0
  5  6  2  0
  6  7  1  0
  6  8  1  0
  8  9  2  0
  9 10  1  0
  9 11  1  0
 11 12  1  0
 11 13  2  0
 13 14  1  0
 14 15  1  0
 14 16  1  0
 14 17  1  0
 13 18  1  0
 18 19  1  0
 18 20  2  0
 20 21  1  0
 21 22  1  0
 22 23  2  0
 22 24  1  0
 24 25  1  0
 24 26  2  0
 26 27  1  0
 26 28  1  0
 28 29  2  0
 28 30  1  0
 21  5  1  0
 20  8  1  0
M  CHG  2   2  -1  30  -1
M  END
>  <UniqueID>  (60) 
59

>  <SMILES>  (60) 
[NH-]C(=O)c1cc2ccc(C(F)(F)F)cc2n1C(=O)/C=C\C(=O)[O-]

>  <Energy>  (60) 
76.73274240151439

>  <Genealogy>  (60) 
[NH-]C(=O)c1cc2ccc(C(F)(F)F)cc2n1C(=O)/C=C\C(=O)[O-] (protonated)
[NH-]C(=O)c1cc2ccc(C(F)(F)F)cc2n1C(=O)/C=C\C(=O)[O-] (cis-trans isomerization)
[NH-]C(=O)c1cc2ccc(C(F)(F)F)cc2n1C(=O)/C=C\C(=O)[O-] (3D coordinates assigned)
[NH-]C(=O)c1cc2ccc(C(F)(F)F)cc2n1C(=O)/C=C\C(=O)[O-] (optimized conformer: 76.73274240151439 kcal/mol)

>  <smiles>  (60) 
NC(=O)c1cc2ccc(C(F)(F)F)cc2n1C(=O)/C=C\C(=O)O

>  <score_type>  (60) 
oracle

>  <origin>  (60) 
adg

>  <m_score__min__energy>  (60) 
-11.630000000000001

>  <m_primary>  (60) 
energy

$$$$
60:0
     RDKit          3D

 42 43  0  0  0  0  0  0  0  0999 V2000
   -7.4450   18.3680  -32.3760 C   0  0  0  0  0  0  0  0  0  0  0  0
   -7.5000   19.8230  -32.0190 C   0  0  0  0  0  0  0  0  0  0  0  0
   -8.7230   20.5320  -32.1140 C   0  0  0  0  0  0  0  0  0  0  0  0
   -8.7820   21.9000  -31.8010 C   0  0  0  0  0  0  0  0  0  0  0  0
   -7.6030   22.5340  -31.4180 C   0  0  0  0  0  0  0  0  0  0  0  0
   -7.3820   23.8400  -31.0450 C   0  0  0  0  0  0  0  0  0  0  0  0
   -6.0200   23.9190  -30.7640 C   0  0  0  0  0  0  0  0  0  0  0  0
   -5.3230   25.1770  -30.4150 C   0  0  0  0  0  0  0  0  0  0  0  0
   -3.9580   25.1610  -29.9950 N   0  0  0  0  0  0  0  0  0  0  0  0
   -5.9420   26.2720  -30.4510 O   0  0  0  0  0  0  0  0  0  0  0  0
   -5.4220   22.7090  -30.9560 N   0  0  0  0  0  0  0  0  0  0  0  0
   -4.0490   22.3680  -30.7020 C   0  0  0  0  0  0  0  0  0  0  0  0
   -3.1610   22.6830  -31.5390 O   0  0  0  0  0  0  0  0  0  0  0  0
   -3.7150   21.6800  -29.5270 O   0  0  0  0  0  0  0  0  0  0  0  0
   -3.3830   22.2810  -28.3070 C   0  0  0  0  0  0  0  0  0  0  0  0
   -3.8200   23.4260  -28.0050 O   0  0  0  0  0  0  0  0  0  0  0  0
   -2.5450   21.5890  -27.4290 O   0  0  0  0  0  0  0  0  0  0  0  0
   -1.1680   21.9070  -27.2450 C   0  0  1  0  0  0  0  0  0  0  0  0
   -0.3560   21.5490  -28.4810 C   0  0  0  0  0  0  0  0  0  0  0  0
   -0.8390   25.8480  -27.7420 S   0  0  0  0  0  0  0  0  0  0  0  0
    0.8940   24.5060  -26.7780 O   0  0  0  0  0  0  0  0  0  0  0  0
   -0.6470   24.5130  -24.7730 O   0  0  0  0  0  0  0  0  0  0  0  0
   -1.2200   24.8840  -28.8270 C   0  0  0  0  0  0  0  0  0  0  0  0
   -1.5580   26.0940  -28.9060 O   0  0  0  0  0  0  0  0  0  0  0  0
   -1.5750   23.9960  -29.8330 O   0  0  0  0  0  0  0  0  0  0  0  0
   -6.4050   21.8700  -31.3560 C   0  0  0  0  0  0  0  0  0  0  0  0
   -6.3200   20.5030  -31.6430 C   0  0  0  0  0  0  0  0  0  0  0  0
   -7.4222   17.7654  -31.4561 H   0  0  0  0  0  0  0  0  0  0  0  0
   -8.3337   18.1016  -32.9669 H   0  0  0  0  0  0  0  0  0  0  0  0
   -6.5387   18.1695  -32.9669 H   0  0  0  0  0  0  0  0  0  0  0  0
   -9.6343   20.0065  -32.4357 H   0  0  0  0  0  0  0  0  0  0  0  0
   -9.7309   22.4537  -31.8568 H   0  0  0  0  0  0  0  0  0  0  0  0
   -8.1237   24.6499  -30.9821 H   0  0  0  0  0  0  0  0  0  0  0  0
   -3.4880   26.0490  -29.7120 H   0  0  0  0  0  0  0  0  0  0  0  0
   -3.3970   24.2810  -30.0050 H   0  0  0  0  0  0  0  0  0  0  0  0
   -0.8578   21.4370  -26.3001 H   0  0  0  0  0  0  0  0  0  0  0  0
    0.6105   21.1229  -28.1740 H   0  0  0  0  0  0  0  0  0  0  0  0
   -0.9081   20.8108  -29.0813 H   0  0  0  0  0  0  0  0  0  0  0  0
   -0.1834   22.4545  -29.0813 H   0  0  0  0  0  0  0  0  0  0  0  0
    1.1550   24.0920  -25.9190 H   0  0  0  0  0  0  0  0  0  0  0  0
   -0.1690   24.3840  -23.9160 H   0  0  0  0  0  0  0  0  0  0  0  0
   -5.3591   19.9715  -31.5775 H   0  0  0  0  0  0  0  0  0  0  0  0
  1  2  1  0
  2  3  2  0
  3  4  1  0
  4  5  2  0
  5  6  1  0
  6  7  2  0
  7  8  1  0
  8  9  1  0
  8 10  2  0
  7 11  1  0
 11 12  1  0
 12 13  2  0
 12 14  1  0
 14 15  1  0
 15 16  2  0
 15 17  1  0
 17 18  1  0
 18 19  1  0
 18 20  1  0
 20 21  1  0
 20 22  1  0
 20 23  1  0
 23 24  2  0
 23 25  1  0
 11 26  1  0
 26 27  2  0
 27  2  1  0
 26  5  1  0
  1 28  1  0
  1 29  1  0
  1 30  1  0
  3 31  1  0
  4 32  1  0
  6 33  1  0
  9 34  1  0
  9 35  1  0
 18 36  1  1
 19 37  1  0
 19 38  1  0
 19 39  1  0
 21 40  1  0
 22 41  1  0
 27 42  1  0
M  CHG  1  25  -1
M  END
>  <UniqueID>  (61) 
60

>  <SMILES>  (61) 
Cc1ccc2cc(C(N)=O)n(C(=O)OC(=O)O[C@@H](C)S(O)(O)C(=O)[O-])c2c1

>  <Energy>  (61) 
67.4559111379476

>  <Genealogy>  (61) 
Cc1ccc2cc(C(N)=O)n(C(=O)OC(=O)OC(C)S(O)(O)C(=O)[O-])c2c1 (protonated)
Cc1ccc2cc(C(N)=O)n(C(=O)OC(=O)O[C@@H](C)S(O)(O)C(=O)[O-])c2c1 (chirality)
Cc1ccc2cc(C(N)=O)n(C(=O)OC(=O)O[C@@H](C)S(O)(O)C(=O)[O-])c2c1 (3D coordinates assigned)
Cc1ccc2cc(C(N)=O)n(C(=O)OC(=O)O[C@@H](C)S(O)(O)C(=O)[O-])c2c1 (optimized conformer: 67.4559111379476 kcal/mol)

>  <smiles>  (61) 
Cc1ccc2cc(C(N)=O)n(C(=O)OC(=O)OC(C)S(O)(O)C(=O)O)c2c1

>  <score_type>  (61) 
oracle

>  <origin>  (61) 
adg

>  <m_score__min__energy>  (61) 
-9.4800000000000004

>  <m_primary>  (61) 
energy

$$$$
61:0
     RDKit          3D

 31 32  0  0  0  0  0  0  0  0999 V2000
   -4.1750   25.5730  -30.4510 N   0  0  0  0  0  0  0  0  0  0  0  0
   -5.5420   25.2320  -30.2360 C   0  0  0  0  0  0  0  0  0  0  0  0
   -6.3080   26.0700  -29.6900 O   0  0  0  0  0  0  0  0  0  0  0  0
   -6.0860   23.9370  -30.6980 C   0  0  0  0  0  0  0  0  0  0  0  0
   -7.4330   23.7330  -30.9860 C   0  0  0  0  0  0  0  0  0  0  0  0
   -7.5120   22.4500  -31.4740 C   0  0  0  0  0  0  0  0  0  0  0  0
   -8.6150   21.7270  -31.9190 C   0  0  0  0  0  0  0  0  0  0  0  0
   -8.4070   20.4070  -32.3550 C   0  0  0  0  0  0  0  0  0  0  0  0
   -7.1130   19.8320  -32.3200 C   0  0  0  0  0  0  0  0  0  0  0  0
   -6.8960   18.4310  -32.8110 C   0  0  0  0  0  0  0  0  0  0  0  0
   -5.8920   18.4590  -34.2810 Cl  0  0  0  0  0  0  0  0  0  0  0  0
   -6.0160   20.5990  -31.8710 C   0  0  0  0  0  0  0  0  0  0  0  0
   -6.2480   21.9180  -31.4620 C   0  0  0  0  0  0  0  0  0  0  0  0
   -5.3600   22.8190  -30.9850 N   0  0  0  0  0  0  0  0  0  0  0  0
   -3.9590   22.5930  -30.7660 C   0  0  0  0  0  0  0  0  0  0  0  0
   -3.1040   23.1780  -31.4860 O   0  0  0  0  0  0  0  0  0  0  0  0
   -3.5480   21.7470  -29.7330 O   0  0  0  0  0  0  0  0  0  0  0  0
   -3.5790   22.1290  -28.3640 C   0  0  0  0  0  0  0  0  0  0  0  0
   -3.2970   23.9160  -28.2380 P   0  0  0  0  0  0  0  0  0  0  0  0
   -1.9630   24.5030  -28.6390 O   0  0  0  0  0  0  0  0  0  0  0  0
   -4.5140   24.9210  -27.6330 O   0  0  0  0  0  0  0  0  0  0  0  0
   -3.5130   25.6670  -29.6500 H   0  0  0  0  0  0  0  0  0  0  0  0
   -8.2589   24.4470  -30.8516 H   0  0  0  0  0  0  0  0  0  0  0  0
   -9.6195   22.1752  -31.9292 H   0  0  0  0  0  0  0  0  0  0  0  0
   -9.2566   19.8153  -32.7266 H   0  0  0  0  0  0  0  0  0  0  0  0
   -6.3868   17.8451  -32.0316 H   0  0  0  0  0  0  0  0  0  0  0  0
   -7.8682   17.9715  -33.0426 H   0  0  0  0  0  0  0  0  0  0  0  0
   -5.0032   20.1707  -31.8431 H   0  0  0  0  0  0  0  0  0  0  0  0
   -4.5607   21.8801  -27.9346 H   0  0  0  0  0  0  0  0  0  0  0  0
   -2.7944   21.5909  -27.8120 H   0  0  0  0  0  0  0  0  0  0  0  0
   -4.6420   25.6070  -28.3360 H   0  0  0  0  0  0  0  0  0  0  0  0
  1  2  1  0
  2  3  2  0
  2  4  1  0
  4  5  2  0
  5  6  1  0
  6  7  2  0
  7  8  1  0
  8  9  2  0
  9 10  1  0
 10 11  1  0
  9 12  1  0
 12 13  2  0
 13 14  1  0
 14 15  1  0
 15 16  2  0
 15 17  1  0
 17 18  1  0
 18 19  1  0
 19 20  2  0
 19 21  1  0
 14  4  1  0
 13  6  1  0
  1 22  1  0
  5 23  1  0
  7 24  1  0
  8 25  1  0
 10 26  1  0
 10 27  1  0
 12 28  1  0
 18 29  1  0
 18 30  1  0
 21 31  1  0
M  CHG  2   1  -1  19   1
M  END
>  <UniqueID>  (62) 
61

>  <SMILES>  (62) 
[NH-]C(=O)c1cc2ccc(CCl)cc2n1C(=O)OC[P+](=O)O

>  <Energy>  (62) 
86.34061506252789

>  <Genealogy>  (62) 
[NH-]C(=O)c1cc2ccc(CCl)cc2n1C(=O)OC[P+](=O)O (protonated)
[NH-]C(=O)c1cc2ccc(CCl)cc2n1C(=O)OC[P+](=O)O (chirality)
[NH-]C(=O)c1cc2ccc(CCl)cc2n1C(=O)OC[P+](=O)O (3D coordinates assigned)
[NH-]C(=O)c1cc2ccc(CCl)cc2n1C(=O)OC[P+](=O)O (optimized conformer: 86.34061506252789 kcal/mol)

>  <smiles>  (62) 
NC(=O)c1cc2ccc(CCl)cc2n1C(=O)OC[P+](=O)O

>  <score_type>  (62) 
oracle

>  <origin>  (62) 
adg

>  <m_score__min__energy>  (62) 
-9.2599999999999998

>  <m_primary>  (62) 
energy

$$$$
62:0
     RDKit          3D

 41 42  0  0  0  0  0  0  0  0999 V2000
   -9.4300   21.3520  -31.2800 C   0  0  0  0  0  0  0  0  0  0  0  0
   -8.4310   20.3730  -31.8220 C   0  0  0  0  0  0  0  0  0  0  0  0
   -8.8380   19.0590  -32.1600 C   0  0  0  0  0  0  0  0  0  0  0  0
   -7.9220   18.1480  -32.7150 C   0  0  0  0  0  0  0  0  0  0  0  0
   -6.6150   18.5800  -32.9210 C   0  0  0  0  0  0  0  0  0  0  0  0
   -5.5400   17.9210  -33.4730 C   0  0  0  0  0  0  0  0  0  0  0  0
   -4.4930   18.8440  -33.4590 C   0  0  0  0  0  0  0  0  0  0  0  0
   -3.1140   18.5540  -33.9170 C   0  0  0  0  0  0  0  0  0  0  0  0
   -2.3220   19.5640  -34.5480 N   0  0  0  0  0  0  0  0  0  0  0  0
   -2.6270   17.4030  -33.7670 O   0  0  0  0  0  0  0  0  0  0  0  0
   -4.9060   20.0200  -32.9120 N   0  0  0  0  0  0  0  0  0  0  0  0
   -4.1480   21.2330  -32.7750 C   0  0  0  0  0  0  0  0  0  0  0  0
   -3.6190   21.7550  -33.7930 O   0  0  0  0  0  0  0  0  0  0  0  0
   -3.9730   21.8680  -31.4610 C   0  0  0  0  0  0  0  0  0  0  0  0
   -3.5770   21.1800  -30.4820 O   0  0  0  0  0  0  0  0  0  0  0  0
   -4.2450   23.2680  -31.3110 N   0  0  0  0  0  0  0  0  0  0  0  0
   -5.5190   23.8810  -30.9160 C   0  0  0  0  0  0  0  0  0  0  0  0
   -6.5020   23.8890  -32.1040 C   0  0  0  0  0  0  0  0  0  0  0  0
   -6.1290   23.1080  -29.7310 C   0  0  0  0  0  0  0  0  0  0  0  0
   -5.2350   25.3330  -30.4670 C   0  0  0  0  0  0  0  0  0  0  0  0
   -3.8960   25.6840  -30.6990 O   0  0  0  0  0  0  0  0  0  0  0  0
   -6.2080   19.8470  -32.5960 C   0  0  0  0  0  0  0  0  0  0  0  0
   -7.1020   20.7820  -32.0620 C   0  0  0  0  0  0  0  0  0  0  0  0
   -9.4066   21.3290  -30.1805 H   0  0  0  0  0  0  0  0  0  0  0  0
   -9.1794   22.3639  -31.6310 H   0  0  0  0  0  0  0  0  0  0  0  0
  -10.4366   21.0810  -31.6310 H   0  0  0  0  0  0  0  0  0  0  0  0
   -9.8791   18.7488  -31.9869 H   0  0  0  0  0  0  0  0  0  0  0  0
   -8.2290   17.1251  -32.9784 H   0  0  0  0  0  0  0  0  0  0  0  0
   -5.5120   16.8865  -33.8460 H   0  0  0  0  0  0  0  0  0  0  0  0
   -1.3650   19.3340  -34.8970 H   0  0  0  0  0  0  0  0  0  0  0  0
   -2.6570   20.5480  -34.6330 H   0  0  0  0  0  0  0  0  0  0  0  0
   -7.5347   23.8974  -31.7253 H   0  0  0  0  0  0  0  0  0  0  0  0
   -6.3289   24.7858  -32.7171 H   0  0  0  0  0  0  0  0  0  0  0  0
   -6.3436   22.9895  -32.7171 H   0  0  0  0  0  0  0  0  0  0  0  0
   -5.7800   23.5502  -28.7862 H   0  0  0  0  0  0  0  0  0  0  0  0
   -7.2263   23.1673  -29.7804 H   0  0  0  0  0  0  0  0  0  0  0  0
   -5.8162   22.0546  -29.7804 H   0  0  0  0  0  0  0  0  0  0  0  0
   -5.8877   26.0166  -31.0298 H   0  0  0  0  0  0  0  0  0  0  0  0
   -5.4325   25.4084  -29.3875 H   0  0  0  0  0  0  0  0  0  0  0  0
   -3.4900   24.9450  -31.2220 H   0  0  0  0  0  0  0  0  0  0  0  0
   -6.7773   21.8083  -31.8354 H   0  0  0  0  0  0  0  0  0  0  0  0
  1  2  1  0
  2  3  2  0
  3  4  1  0
  4  5  2  0
  5  6  1  0
  6  7  2  0
  7  8  1  0
  8  9  1  0
  8 10  2  0
  7 11  1  0
 11 12  1  0
 12 13  2  0
 12 14  1  0
 14 15  2  0
 14 16  1  0
 16 17  1  0
 17 18  1  0
 17 19  1  0
 17 20  1  0
 20 21  1  0
 11 22  1  0
 22 23  2  0
 23  2  1  0
 22  5  1  0
  1 24  1  0
  1 25  1  0
  1 26  1  0
  3 27  1  0
  4 28  1  0
  6 29  1  0
  9 30  1  0
  9 31  1  0
 18 32  1  0
 18 33  1  0
 18 34  1  0
 19 35  1  0
 19 36  1  0
 19 37  1  0
 20 38  1  0
 20 39  1  0
 21 40  1  0
 23 41  1  0
M  CHG  1  16  -1
M  END
>  <UniqueID>  (63) 
62

>  <SMILES>  (63) 
Cc1ccc2cc(C(N)=O)n(C(=O)C(=O)[N-]C(C)(C)CO)c2c1

>  <Energy>  (63) 
74.44081182315368

>  <Genealogy>  (63) 
Cc1ccc2cc(C(N)=O)n(C(=O)C(=O)[N-]C(C)(C)CO)c2c1 (protonated)
Cc1ccc2cc(C(N)=O)n(C(=O)C(=O)[N-]C(C)(C)CO)c2c1 (3D coordinates assigned)
Cc1ccc2cc(C(N)=O)n(C(=O)C(=O)[N-]C(C)(C)CO)c2c1 (optimized conformer: 74.44081182315368 kcal/mol)

>  <smiles>  (63) 
Cc1ccc2cc(C(N)=O)n(C(=O)C(=O)NC(C)(C)CO)c2c1

>  <score_type>  (63) 
oracle

>  <origin>  (63) 
adg

>  <m_score__min__energy>  (63) 
-10.039999999999999

>  <m_primary>  (63) 
energy

$$$$
63:0
     RDKit          3D

 39 40  0  0  0  0  0  0  0  0999 V2000
   -1.3821   21.5183  -35.1425 H   0  0  0  0  0  0  0  0  0  0  0  0
   -0.7070   21.5120  -34.2740 C   0  0  0  0  0  0  0  0  0  0  0  0
    0.6230   21.9080  -34.4330 O   0  0  0  0  0  0  0  0  0  0  0  0
    1.5540   21.1130  -35.1530 C   0  0  0  0  0  0  0  0  0  0  0  0
    2.1942   20.5664  -34.4449 H   0  0  0  0  0  0  0  0  0  0  0  0
    1.0112   20.3955  -35.7859 H   0  0  0  0  0  0  0  0  0  0  0  0
    2.1777   21.7615  -35.7859 H   0  0  0  0  0  0  0  0  0  0  0  0
   -1.1730   21.1240  -33.0770 C   0  0  0  0  0  0  0  0  0  0  0  0
   -2.6020   20.7660  -32.9050 C   0  0  0  0  0  0  0  0  0  0  0  0
   -3.2190   20.1500  -33.8180 O   0  0  0  0  0  0  0  0  0  0  0  0
   -3.2570   21.1200  -31.7170 O   0  0  0  0  0  0  0  0  0  0  0  0
   -3.8260   22.3700  -31.4450 C   0  0  0  0  0  0  0  0  0  0  0  0
   -3.0970   23.3720  -31.2080 O   0  0  0  0  0  0  0  0  0  0  0  0
   -5.2560   22.5090  -31.4230 N   0  0  0  0  0  0  0  0  0  0  0  0
   -5.9850   23.5210  -30.8730 C   0  0  0  0  0  0  0  0  0  0  0  0
   -5.4400   24.7760  -30.3170 C   0  0  0  0  0  0  0  0  0  0  0  0
   -4.6200   25.4490  -30.9980 O   0  0  0  0  0  0  0  0  0  0  0  0
   -5.7740   25.2070  -28.9970 N   0  0  0  0  0  0  0  0  0  0  0  0
   -6.3130   24.5910  -28.3500 H   0  0  0  0  0  0  0  0  0  0  0  0
   -5.4090   26.1160  -28.6360 H   0  0  0  0  0  0  0  0  0  0  0  0
   -7.3470   23.2460  -30.9490 C   0  0  0  0  0  0  0  0  0  0  0  0
   -8.1751   23.8687  -30.5795 H   0  0  0  0  0  0  0  0  0  0  0  0
   -7.4370   22.0290  -31.5850 C   0  0  0  0  0  0  0  0  0  0  0  0
   -8.5590   21.2750  -31.9140 C   0  0  0  0  0  0  0  0  0  0  0  0
   -9.5725   21.6399  -31.6909 H   0  0  0  0  0  0  0  0  0  0  0  0
   -8.3580   20.0330  -32.5400 C   0  0  0  0  0  0  0  0  0  0  0  0
   -9.2252   19.4162  -32.8183 H   0  0  0  0  0  0  0  0  0  0  0  0
   -7.0480   19.5680  -32.8160 C   0  0  0  0  0  0  0  0  0  0  0  0
   -6.8550   18.2290  -33.4690 C   0  0  0  0  0  0  0  0  0  0  0  0
   -7.8373   17.8154  -33.7411 H   0  0  0  0  0  0  0  0  0  0  0  0
   -6.0820   18.3740  -34.6070 F   0  0  0  0  0  0  0  0  0  0  0  0
   -6.2190   17.3690  -32.5910 F   0  0  0  0  0  0  0  0  0  0  0  0
   -5.9320   20.3580  -32.4620 C   0  0  0  0  0  0  0  0  0  0  0  0
   -4.9079   20.0057  -32.6548 H   0  0  0  0  0  0  0  0  0  0  0  0
   -6.1620   21.6020  -31.8590 C   0  0  0  0  0  0  0  0  0  0  0  0
   -0.2700   21.1420  -31.8690 C   0  0  0  0  0  0  0  0  0  0  0  0
   -0.8809   21.1298  -30.9543 H   0  0  0  0  0  0  0  0  0  0  0  0
    0.3826   20.2567  -31.8858 H   0  0  0  0  0  0  0  0  0  0  0  0
    0.3468   22.0526  -31.8858 H   0  0  0  0  0  0  0  0  0  0  0  0
  1  2  1  0
  2  3  1  0
  3  4  1  0
  4  5  1  0
  4  6  1  0
  4  7  1  0
  2  8  2  0
  8  9  1  0
  9 10  2  0
  9 11  1  0
 11 12  1  0
 12 13  2  0
 12 14  1  0
 14 15  1  0
 15 16  1  0
 16 17  2  0
 16 18  1  0
 18 19  1  0
 18 20  1  0
 15 21  2  0
 21 22  1  0
 21 23  1  0
 23 24  2  0
 24 25  1  0
 24 26  1  0
 26 27  1  0
 26 28  2  0
 28 29  1  0
 29 30  1  0
 29 31  1  0
 29 32  1  0
 28 33  1  0
 33 34  1  0
 33 35  2  0
  8 36  1  0
 36 37  1  0
 36 38  1  0
 36 39  1  0
 35 14  1  0
 35 23  1  0
M  END
>  <UniqueID>  (64) 
63

>  <SMILES>  (64) 
CO/C=C(\C)C(=O)OC(=O)n1c(C(N)=O)cc2ccc(C(F)F)cc21

>  <Energy>  (64) 
74.6311698073197

>  <Genealogy>  (64) 
CO/C=C(\C)C(=O)OC(=O)n1c(C(N)=O)cc2ccc(C(F)F)cc21 (cis-trans isomerization)
CO/C=C(\C)C(=O)OC(=O)n1c(C(N)=O)cc2ccc(C(F)F)cc21 (3D coordinates assigned)
CO/C=C(\C)C(=O)OC(=O)n1c(C(N)=O)cc2ccc(C(F)F)cc21 (optimized conformer: 74.6311698073197 kcal/mol)

>  <smiles>  (64) 
CO/C=C(\C)C(=O)OC(=O)n1c(C(N)=O)cc2ccc(C(F)F)cc21

>  <score_type>  (64) 
oracle

>  <origin>  (64) 
adg

>  <m_score__min__energy>  (64) 
-8.9900000000000002

>  <m_primary>  (64) 
energy

$$$$
64:0
     RDKit          3D

 42 43  0  0  0  0  0  0  0  0999 V2000
    0.4520   24.1840  -27.0980 C   0  0  0  0  0  0  0  0  0  0  0  0
   -0.4990   25.0500  -27.8050 N   0  0  0  0  0  0  0  0  0  0  0  0
   -0.5430   26.4840  -27.5000 C   0  0  0  0  0  0  0  0  0  0  0  0
   -1.4000   24.5230  -28.8060 C   0  0  0  0  0  0  0  0  0  0  0  0
   -2.2420   25.2910  -29.3480 O   0  0  0  0  0  0  0  0  0  0  0  0
   -1.3420   23.0890  -29.2790 C   0  0  0  0  0  0  0  0  0  0  0  0
   -1.7900   22.9460  -30.7390 C   0  0  0  0  0  0  0  0  0  0  0  0
   -3.1830   23.2180  -30.9040 O   0  0  0  0  0  0  0  0  0  0  0  0
   -4.2000   22.3740  -30.4410 C   0  0  0  0  0  0  0  0  0  0  0  0
   -3.9080   21.3380  -29.7850 O   0  0  0  0  0  0  0  0  0  0  0  0
   -5.5770   22.6770  -30.7410 N   0  0  0  0  0  0  0  0  0  0  0  0
   -6.1740   23.9030  -30.7260 C   0  0  0  0  0  0  0  0  0  0  0  0
   -5.5710   25.1530  -30.2310 C   0  0  0  0  0  0  0  0  0  0  0  0
   -4.2670   25.5540  -30.6480 N   0  0  0  0  0  0  0  0  0  0  0  0
   -6.1890   25.8460  -29.3790 O   0  0  0  0  0  0  0  0  0  0  0  0
   -7.4760   23.8280  -31.2090 C   0  0  0  0  0  0  0  0  0  0  0  0
   -7.6720   22.5030  -31.5170 C   0  0  0  0  0  0  0  0  0  0  0  0
   -8.7860   21.8720  -32.0600 C   0  0  0  0  0  0  0  0  0  0  0  0
   -8.7020   20.4950  -32.3220 C   0  0  0  0  0  0  0  0  0  0  0  0
   -7.5160   19.7740  -32.0370 C   0  0  0  0  0  0  0  0  0  0  0  0
   -7.4200   18.3120  -32.3910 C   0  0  0  0  0  0  0  0  0  0  0  0
   -6.9430   18.1470  -33.6800 F   0  0  0  0  0  0  0  0  0  0  0  0
   -6.5610   17.6580  -31.5250 F   0  0  0  0  0  0  0  0  0  0  0  0
   -8.6740   17.7380  -32.2990 F   0  0  0  0  0  0  0  0  0  0  0  0
   -6.3940   20.4570  -31.5090 C   0  0  0  0  0  0  0  0  0  0  0  0
   -6.5130   21.8270  -31.2310 C   0  0  0  0  0  0  0  0  0  0  0  0
    0.3202   24.3040  -26.0125 H   0  0  0  0  0  0  0  0  0  0  0  0
    0.2696   23.1354  -27.3758 H   0  0  0  0  0  0  0  0  0  0  0  0
    1.4790   24.4635  -27.3758 H   0  0  0  0  0  0  0  0  0  0  0  0
   -0.5474   26.6269  -26.4093 H   0  0  0  0  0  0  0  0  0  0  0  0
    0.3404   26.9778  -27.9310 H   0  0  0  0  0  0  0  0  0  0  0  0
   -1.4550   26.9227  -27.9310 H   0  0  0  0  0  0  0  0  0  0  0  0
   -0.3073   22.7268  -29.1881 H   0  0  0  0  0  0  0  0  0  0  0  0
   -2.0274   22.4976  -28.6542 H   0  0  0  0  0  0  0  0  0  0  0  0
   -1.2154   23.6518  -31.3569 H   0  0  0  0  0  0  0  0  0  0  0  0
   -1.6096   21.9058  -31.0478 H   0  0  0  0  0  0  0  0  0  0  0  0
   -3.6710   24.9140  -31.2180 H   0  0  0  0  0  0  0  0  0  0  0  0
   -3.8690   26.4640  -30.3250 H   0  0  0  0  0  0  0  0  0  0  0  0
   -8.1952   24.6528  -31.3206 H   0  0  0  0  0  0  0  0  0  0  0  0
   -9.7056   22.4349  -32.2778 H   0  0  0  0  0  0  0  0  0  0  0  0
   -9.5670   19.9700  -32.7535 H   0  0  0  0  0  0  0  0  0  0  0  0
   -5.4496   19.9252  -31.3208 H   0  0  0  0  0  0  0  0  0  0  0  0
  1  2  1  0
  2  3  1  0
  2  4  1  0
  4  5  2  0
  4  6  1  0
  6  7  1  0
  7  8  1  0
  8  9  1  0
  9 10  2  0
  9 11  1  0
 11 12  1  0
 12 13  1  0
 13 14  1  0
 13 15  2  0
 12 16  2  0
 16 17  1  0
 17 18  2  0
 18 19  1  0
 19 20  2  0
 20 21  1  0
 21 22  1  0
 21 23  1  0
 21 24  1  0
 20 25  1  0
 25 26  2  0
 26 11  1  0
 26 17  1  0
  1 27  1  0
  1 28  1  0
  1 29  1  0
  3 30  1  0
  3 31  1  0
  3 32  1  0
  6 33  1  0
  6 34  1  0
  7 35  1  0
  7 36  1  0
 14 37  1  0
 14 38  1  0
 16 39  1  0
 18 40  1  0
 19 41  1  0
 25 42  1  0
M  END
>  <UniqueID>  (65) 
64

>  <SMILES>  (65) 
CN(C)C(=O)CCOC(=O)n1c(C(N)=O)cc2ccc(C(F)(F)F)cc21

>  <Energy>  (65) 
75.7637818380524

>  <Genealogy>  (65) 
CN(C)C(=O)CCOC(=O)n1c(C(N)=O)cc2ccc(C(F)(F)F)cc21 (3D coordinates assigned)
CN(C)C(=O)CCOC(=O)n1c(C(N)=O)cc2ccc(C(F)(F)F)cc21 (optimized conformer: 75.7637818380524 kcal/mol)

>  <smiles>  (65) 
CN(C)C(=O)CCOC(=O)n1c(C(N)=O)cc2ccc(C(F)(F)F)cc21

>  <score_type>  (65) 
oracle

>  <origin>  (65) 
adg

>  <m_score__min__energy>  (65) 
-8.5700000000000003

>  <m_primary>  (65) 
energy

$$$$
65:0
     RDKit          3D

 43 44  0  0  0  0  0  0  0  0999 V2000
   -2.0439   22.4778  -27.7731 H   0  0  0  0  0  0  0  0  0  0  0  0
   -2.3360   22.8930  -28.7490 C   0  0  0  0  0  0  0  0  0  0  0  0
   -1.6140   24.0900  -29.2180 C   0  0  0  0  0  0  0  0  0  0  0  0
   -0.4100   24.0360  -29.5750 O   0  0  0  0  0  0  0  0  0  0  0  0
   -2.2990   25.2930  -29.3450 O   0  0  0  0  0  0  0  0  0  0  0  0
   -3.3200   22.2680  -29.4140 C   0  0  0  0  0  0  0  0  0  0  0  0
   -3.8802   21.4876  -28.8781 H   0  0  0  0  0  0  0  0  0  0  0  0
   -3.7070   22.5490  -30.8100 C   0  0  0  0  0  0  0  0  0  0  0  0
   -2.8030   22.7410  -31.6630 O   0  0  0  0  0  0  0  0  0  0  0  0
   -5.0900   22.6680  -31.1980 N   0  0  0  0  0  0  0  0  0  0  0  0
   -5.9170   23.7380  -31.0260 C   0  0  0  0  0  0  0  0  0  0  0  0
   -5.5170   25.0750  -30.5490 C   0  0  0  0  0  0  0  0  0  0  0  0
   -6.3900   25.8500  -30.0770 O   0  0  0  0  0  0  0  0  0  0  0  0
   -4.1730   25.5290  -30.6780 N   0  0  0  0  0  0  0  0  0  0  0  0
   -3.8900   26.4550  -30.2880 H   0  0  0  0  0  0  0  0  0  0  0  0
   -3.4640   24.9730  -31.2080 H   0  0  0  0  0  0  0  0  0  0  0  0
   -7.2120   23.4250  -31.4200 C   0  0  0  0  0  0  0  0  0  0  0  0
   -8.0960   24.0789  -31.3889 H   0  0  0  0  0  0  0  0  0  0  0  0
   -7.1520   22.1230  -31.8570 C   0  0  0  0  0  0  0  0  0  0  0  0
   -8.1630   21.2920  -32.3260 C   0  0  0  0  0  0  0  0  0  0  0  0
   -9.1909   21.6647  -32.4460 H   0  0  0  0  0  0  0  0  0  0  0  0
   -7.8360   19.9650  -32.6420 C   0  0  0  0  0  0  0  0  0  0  0  0
   -8.6208   19.2878  -33.0100 H   0  0  0  0  0  0  0  0  0  0  0  0
   -6.5010   19.4780  -32.4940 C   0  0  0  0  0  0  0  0  0  0  0  0
   -6.1140   18.0160  -32.7750 C   0  0  0  0  0  0  0  0  0  0  0  0
   -4.9230   18.0010  -33.7170 C   0  0  0  0  0  0  0  0  0  0  0  0
   -5.1180   17.9450  -34.9620 O   0  0  0  0  0  0  0  0  0  0  0  0
   -3.5850   18.1140  -33.2160 N   0  0  0  0  0  0  0  0  0  0  0  0
   -2.7030   19.2120  -33.5840 C   0  0  0  0  0  0  0  0  0  0  0  0
   -2.3166   19.6930  -32.6733 H   0  0  0  0  0  0  0  0  0  0  0  0
   -1.8627   18.8239  -34.1784 H   0  0  0  0  0  0  0  0  0  0  0  0
   -3.2631   19.9488  -34.1784 H   0  0  0  0  0  0  0  0  0  0  0  0
   -7.2510   17.1970  -33.4330 C   0  0  0  0  0  0  0  0  0  0  0  0
   -7.8780   16.7454  -32.6501 H   0  0  0  0  0  0  0  0  0  0  0  0
   -7.8664   17.8606  -34.0582 H   0  0  0  0  0  0  0  0  0  0  0  0
   -6.8165   16.4031  -34.0582 H   0  0  0  0  0  0  0  0  0  0  0  0
   -5.7700   17.3230  -31.4360 C   0  0  0  0  0  0  0  0  0  0  0  0
   -6.0877   17.9630  -30.5997 H   0  0  0  0  0  0  0  0  0  0  0  0
   -6.2933   16.3572  -31.3779 H   0  0  0  0  0  0  0  0  0  0  0  0
   -4.6843   17.1559  -31.3779 H   0  0  0  0  0  0  0  0  0  0  0  0
   -5.5030   20.3760  -32.0270 C   0  0  0  0  0  0  0  0  0  0  0  0
   -4.4622   20.0404  -31.9080 H   0  0  0  0  0  0  0  0  0  0  0  0
   -5.8630   21.6920  -31.7210 C   0  0  0  0  0  0  0  0  0  0  0  0
  1  2  1  0
  2  3  1  0
  3  4  2  0
  3  5  1  0
  2  6  2  0
  6  7  1  0
  6  8  1  0
  8  9  2  0
  8 10  1  0
 10 11  1  0
 11 12  1  0
 12 13  2  0
 12 14  1  0
 14 15  1  0
 14 16  1  0
 11 17  2  0
 17 18  1  0
 17 19  1  0
 19 20  2  0
 20 21  1  0
 20 22  1  0
 22 23  1  0
 22 24  2  0
 24 25  1  0
 25 26  1  0
 26 27  2  0
 26 28  1  0
 28 29  1  0
 29 30  1  0
 29 31  1  0
 29 32  1  0
 25 33  1  0
 33 34  1  0
 33 35  1  0
 33 36  1  0
 25 37  1  0
 37 38  1  0
 37 39  1  0
 37 40  1  0
 24 41  1  0
 41 42  1  0
 41 43  2  0
 43 10  1  0
 43 19  1  0
M  CHG  2   5  -1  28  -1
M  END
>  <UniqueID>  (66) 
65

>  <SMILES>  (66) 
C[N-]C(=O)C(C)(C)c1ccc2cc(C(N)=O)n(C(=O)/C=C\C(=O)[O-])c2c1

>  <Energy>  (66) 
90.03370884263195

>  <Genealogy>  (66) 
C[N-]C(=O)C(C)(C)c1ccc2cc(C(N)=O)n(C(=O)/C=C\C(=O)[O-])c2c1 (protonated)
C[N-]C(=O)C(C)(C)c1ccc2cc(C(N)=O)n(C(=O)/C=C\C(=O)[O-])c2c1 (cis-trans isomerization)
C[N-]C(=O)C(C)(C)c1ccc2cc(C(N)=O)n(C(=O)/C=C\C(=O)[O-])c2c1 (3D coordinates assigned)
C[N-]C(=O)C(C)(C)c1ccc2cc(C(N)=O)n(C(=O)/C=C\C(=O)[O-])c2c1 (optimized conformer: 90.03370884263195 kcal/mol)

>  <smiles>  (66) 
CNC(=O)C(C)(C)c1ccc2cc(C(N)=O)n(C(=O)/C=C\C(=O)O)c2c1

>  <score_type>  (66) 
oracle

>  <origin>  (66) 
adg

>  <m_score__min__energy>  (66) 
-11.140000000000001

>  <m_primary>  (66) 
energy

$$$$
66:0
     RDKit          3D

 38 39  0  0  0  0  0  0  0  0999 V2000
   -3.4840   25.6640  -29.7050 H   0  0  0  0  0  0  0  0  0  0  0  0
   -3.8990   25.2640  -30.5750 N   0  0  0  0  0  0  0  0  0  0  0  0
   -5.3110   25.1380  -30.7220 C   0  0  0  0  0  0  0  0  0  0  0  0
   -6.0470   26.1320  -30.4830 O   0  0  0  0  0  0  0  0  0  0  0  0
   -5.8990   23.8400  -31.1110 C   0  0  0  0  0  0  0  0  0  0  0  0
   -7.2700   23.5970  -31.1620 C   0  0  0  0  0  0  0  0  0  0  0  0
   -8.0796   24.2824  -30.8709 H   0  0  0  0  0  0  0  0  0  0  0  0
   -7.3970   22.3170  -31.6540 C   0  0  0  0  0  0  0  0  0  0  0  0
   -8.5370   21.5590  -31.9000 C   0  0  0  0  0  0  0  0  0  0  0  0
   -9.5408   21.9699  -31.7171 H   0  0  0  0  0  0  0  0  0  0  0  0
   -8.3680   20.2530  -32.3890 C   0  0  0  0  0  0  0  0  0  0  0  0
   -9.2501   19.6268  -32.5883 H   0  0  0  0  0  0  0  0  0  0  0  0
   -7.0690   19.7350  -32.6280 C   0  0  0  0  0  0  0  0  0  0  0  0
   -6.8990   18.3230  -33.1020 C   0  0  0  0  0  0  0  0  0  0  0  0
   -6.8182   17.6521  -32.2341 H   0  0  0  0  0  0  0  0  0  0  0  0
   -7.7687   18.0331  -33.7099 H   0  0  0  0  0  0  0  0  0  0  0  0
   -5.9853   18.2478  -33.7099 H   0  0  0  0  0  0  0  0  0  0  0  0
   -5.9350   20.5290  -32.3540 C   0  0  0  0  0  0  0  0  0  0  0  0
   -4.9196   20.1354  -32.5090 H   0  0  0  0  0  0  0  0  0  0  0  0
   -6.1360   21.8300  -31.8800 C   0  0  0  0  0  0  0  0  0  0  0  0
   -5.2060   22.7490  -31.5460 N   0  0  0  0  0  0  0  0  0  0  0  0
   -3.7820   22.5670  -31.5940 C   0  0  0  0  0  0  0  0  0  0  0  0
   -3.2370   22.2180  -32.6770 O   0  0  0  0  0  0  0  0  0  0  0  0
   -2.9730   22.7420  -30.3740 C   0  0  0  0  0  0  0  0  0  0  0  0
   -1.8798   22.8184  -30.4689 H   0  0  0  0  0  0  0  0  0  0  0  0
   -3.5200   22.8110  -29.1580 C   0  0  0  0  0  0  0  0  0  0  0  0
   -4.6135   22.7522  -29.0541 H   0  0  0  0  0  0  0  0  0  0  0  0
   -2.5260   22.9940  -27.7200 S   0  0  0  0  0  0  0  0  0  0  0  0
   -2.3910   21.6600  -27.0420 O   0  0  0  0  0  0  0  0  0  0  0  0
   -3.1590   23.9690  -26.7650 O   0  0  0  0  0  0  0  0  0  0  0  0
   -0.9050   23.5930  -28.1800 C   0  0  0  0  0  0  0  0  0  0  0  0
   -0.1665   23.2076  -27.4616 H   0  0  0  0  0  0  0  0  0  0  0  0
   -0.6882   23.2408  -29.1993 H   0  0  0  0  0  0  0  0  0  0  0  0
   -0.8410   25.1220  -28.1830 C   0  0  0  0  0  0  0  0  0  0  0  0
   -0.8846   25.4854  -27.1457 H   0  0  0  0  0  0  0  0  0  0  0  0
    0.0997   25.4314  -28.6619 H   0  0  0  0  0  0  0  0  0  0  0  0
   -1.9090   25.6700  -28.9050 O   0  0  0  0  0  0  0  0  0  0  0  0
   -2.7350   25.2390  -28.5610 H   0  0  0  0  0  0  0  0  0  0  0  0
  1  2  1  0
  2  3  1  0
  3  4  2  0
  3  5  1  0
  5  6  2  0
  6  7  1  0
  6  8  1  0
  8  9  2  0
  9 10  1  0
  9 11  1  0
 11 12  1  0
 11 13  2  0
 13 14  1  0
 14 15  1  0
 14 16  1  0
 14 17  1  0
 13 18  1  0
 18 19  1  0
 18 20  2  0
 20 21  1  0
 21 22  1  0
 22 23  2  0
 22 24  1  0
 24 25  1  0
 24 26  2  0
 26 27  1  0
 26 28  1  0
 28 29  2  0
 28 30  2  0
 28 31  1  0
 31 32  1  0
 31 33  1  0
 31 34  1  0
 34 35  1  0
 34 36  1  0
 34 37  1  0
 37 38  1  0
 21  5  1  0
 20  8  1  0
M  CHG  1   2  -1
M  END
>  <UniqueID>  (67) 
66

>  <SMILES>  (67) 
Cc1ccc2cc(C([NH-])=O)n(C(=O)/C=C/S(=O)(=O)CCO)c2c1

>  <Energy>  (67) 
71.04311766080636

>  <Genealogy>  (67) 
Cc1ccc2cc(C([NH-])=O)n(C(=O)/C=C/S(=O)(=O)CCO)c2c1 (protonated)
Cc1ccc2cc(C([NH-])=O)n(C(=O)/C=C/S(=O)(=O)CCO)c2c1 (cis-trans isomerization)
Cc1ccc2cc(C([NH-])=O)n(C(=O)/C=C/S(=O)(=O)CCO)c2c1 (3D coordinates assigned)
Cc1ccc2cc(C([NH-])=O)n(C(=O)/C=C/S(=O)(=O)CCO)c2c1 (optimized conformer: 71.04311766080636 kcal/mol)

>  <smiles>  (67) 
Cc1ccc2cc(C(N)=O)n(C(=O)/C=C/S(=O)(=O)CCO)c2c1

>  <score_type>  (67) 
oracle

>  <origin>  (67) 
adg

>  <m_score__min__energy>  (67) 
-10.93

>  <m_primary>  (67) 
energy

$$$$
67:0
     RDKit          3D

 41 43  0  0  0  0  0  0  0  0999 V2000
   -2.1030   25.8070  -26.3450 C   0  0  0  0  0  0  0  0  0  0  0  0
   -1.7450   24.8760  -27.4280 N   0  0  0  0  0  0  0  0  0  0  0  0
   -0.5060   24.9290  -28.0060 C   0  0  0  0  0  0  0  0  0  0  0  0
    0.3400   25.7910  -27.6430 O   0  0  0  0  0  0  0  0  0  0  0  0
   -0.1710   24.0500  -28.9760 N   0  0  0  0  0  0  0  0  0  0  0  0
   -1.0400   23.0970  -29.3780 C   0  0  0  0  0  0  0  0  0  0  0  0
   -0.6890   22.2940  -30.2860 O   0  0  0  0  0  0  0  0  0  0  0  0
   -2.2750   23.0020  -28.8010 N   0  0  0  0  0  0  0  0  0  0  0  0
   -3.1890   21.9190  -29.2130 C   0  0  0  0  0  0  0  0  0  0  0  0
   -2.9810   21.6040  -30.5880 O   0  0  0  0  0  0  0  0  0  0  0  0
   -3.8290   22.0450  -31.6090 C   0  0  0  0  0  0  0  0  0  0  0  0
   -3.3690   22.2970  -32.7560 O   0  0  0  0  0  0  0  0  0  0  0  0
   -5.2280   22.2250  -31.3470 N   0  0  0  0  0  0  0  0  0  0  0  0
   -5.8390   23.3310  -30.8400 C   0  0  0  0  0  0  0  0  0  0  0  0
   -5.1550   24.5290  -30.3090 C   0  0  0  0  0  0  0  0  0  0  0  0
   -5.1530   24.8220  -28.9110 N   0  0  0  0  0  0  0  0  0  0  0  0
   -4.6060   25.3330  -31.1080 O   0  0  0  0  0  0  0  0  0  0  0  0
   -7.2210   23.1690  -30.8310 C   0  0  0  0  0  0  0  0  0  0  0  0
   -7.4420   21.9080  -31.3370 C   0  0  0  0  0  0  0  0  0  0  0  0
   -8.6360   21.2300  -31.5610 C   0  0  0  0  0  0  0  0  0  0  0  0
   -8.5680   19.9460  -32.1270 C   0  0  0  0  0  0  0  0  0  0  0  0
   -7.3180   19.3690  -32.4630 C   0  0  0  0  0  0  0  0  0  0  0  0
   -7.2700   18.0020  -33.0830 C   0  0  0  0  0  0  0  0  0  0  0  0
   -6.8000   17.0880  -32.1590 F   0  0  0  0  0  0  0  0  0  0  0  0
   -6.4280   18.0170  -34.1810 F   0  0  0  0  0  0  0  0  0  0  0  0
   -6.1260   20.0890  -32.2230 C   0  0  0  0  0  0  0  0  0  0  0  0
   -6.2220   21.3590  -31.6410 C   0  0  0  0  0  0  0  0  0  0  0  0
   -2.6200   23.8920  -27.8140 C   0  0  0  0  0  0  0  0  0  0  0  0
   -3.7490   23.8050  -27.2520 O   0  0  0  0  0  0  0  0  0  0  0  0
   -1.9184   25.3268  -25.3727 H   0  0  0  0  0  0  0  0  0  0  0  0
   -1.4907   26.7172  -26.4266 H   0  0  0  0  0  0  0  0  0  0  0  0
   -3.1674   26.0725  -26.4266 H   0  0  0  0  0  0  0  0  0  0  0  0
   -2.9951   21.0258  -28.6010 H   0  0  0  0  0  0  0  0  0  0  0  0
   -4.2286   22.2493  -29.0708 H   0  0  0  0  0  0  0  0  0  0  0  0
   -4.6210   25.6450  -28.5480 H   0  0  0  0  0  0  0  0  0  0  0  0
   -5.7460   24.2810  -28.2420 H   0  0  0  0  0  0  0  0  0  0  0  0
   -7.9758   23.8938  -30.4919 H   0  0  0  0  0  0  0  0  0  0  0  0
   -9.6035   21.6853  -31.3029 H   0  0  0  0  0  0  0  0  0  0  0  0
   -9.4946   19.3826  -32.3113 H   0  0  0  0  0  0  0  0  0  0  0  0
   -8.2831   17.7149  -33.4012 H   0  0  0  0  0  0  0  0  0  0  0  0
   -5.1470   19.6624  -32.4868 H   0  0  0  0  0  0  0  0  0  0  0  0
  1  2  1  0
  2  3  1  0
  3  4  2  0
  3  5  1  0
  5  6  1  0
  6  7  2  0
  6  8  1  0
  8  9  1  0
  9 10  1  0
 10 11  1  0
 11 12  2  0
 11 13  1  0
 13 14  1  0
 14 15  1  0
 15 16  1  0
 15 17  2  0
 14 18  2  0
 18 19  1  0
 19 20  2  0
 20 21  1  0
 21 22  2  0
 22 23  1  0
 23 24  1  0
 23 25  1  0
 22 26  1  0
 26 27  2  0
  8 28  1  0
 28 29  2  0
 28  2  1  0
 27 13  1  0
 27 19  1  0
  1 30  1  0
  1 31  1  0
  1 32  1  0
  9 33  1  0
  9 34  1  0
 16 35  1  0
 16 36  1  0
 18 37  1  0
 20 38  1  0
 21 39  1  0
 23 40  1  0
 26 41  1  0
M  CHG  1   5  -1
M  END
>  <UniqueID>  (68) 
67

>  <SMILES>  (68) 
Cn1c(=O)[n-]c(=O)n(COC(=O)n2c(C(N)=O)cc3ccc(C(F)F)cc32)c1=O

>  <Energy>  (68) 
87.52953400465991

>  <Genealogy>  (68) 
Cn1c(=O)[n-]c(=O)n(COC(=O)n2c(C(N)=O)cc3ccc(C(F)F)cc32)c1=O (protonated)
Cn1c(=O)[n-]c(=O)n(COC(=O)n2c(C(N)=O)cc3ccc(C(F)F)cc32)c1=O (3D coordinates assigned)
Cn1c(=O)[n-]c(=O)n(COC(=O)n2c(C(N)=O)cc3ccc(C(F)F)cc32)c1=O (optimized conformer: 87.52953400465991 kcal/mol)

>  <smiles>  (68) 
Cn1c(=O)[nH]c(=O)n(COC(=O)n2c(C(N)=O)cc3ccc(C(F)F)cc32)c1=O

>  <score_type>  (68) 
oracle

>  <origin>  (68) 
adg

>  <m_score__min__energy>  (68) 
-10.08

>  <m_primary>  (68) 
energy

$$$$
68:0
     RDKit          3D

 44 45  0  0  0  0  0  0  0  0999 V2000
   -4.0020   22.7450  -27.5730 C   0  0  0  0  0  0  0  0  0  0  0  0
   -3.8480   24.0720  -27.6030 C   0  0  0  0  0  0  0  0  0  0  0  0
   -4.0690   24.9230  -26.3830 C   0  0  0  0  0  0  0  0  0  0  0  0
   -2.9660   25.8050  -26.1900 O   0  0  0  0  0  0  0  0  0  0  0  0
   -1.6720   25.5480  -26.6590 C   0  0  0  0  0  0  0  0  0  0  0  0
   -0.8650   24.8470  -25.9870 O   0  0  0  0  0  0  0  0  0  0  0  0
   -1.2380   26.1460  -27.9580 C   0  0  0  0  0  0  0  0  0  0  0  0
   -1.4450   25.2160  -29.0640 N   0  0  0  0  0  0  0  0  0  0  0  0
   -0.6980   24.0130  -29.3000 C   0  0  0  0  0  0  0  0  0  0  0  0
    0.5140   23.9740  -28.9590 O   0  0  0  0  0  0  0  0  0  0  0  0
   -1.3090   22.8100  -29.9520 C   0  0  0  0  0  0  0  0  0  0  0  0
   -2.6940   23.0410  -30.1830 O   0  0  0  0  0  0  0  0  0  0  0  0
   -3.3380   22.6560  -31.3600 C   0  0  0  0  0  0  0  0  0  0  0  0
   -2.6610   22.1680  -32.3040 O   0  0  0  0  0  0  0  0  0  0  0  0
   -4.7730   22.7750  -31.4810 N   0  0  0  0  0  0  0  0  0  0  0  0
   -5.5630   23.7870  -31.0110 C   0  0  0  0  0  0  0  0  0  0  0  0
   -5.1030   25.0400  -30.3930 C   0  0  0  0  0  0  0  0  0  0  0  0
   -3.8970   25.6640  -30.8270 N   0  0  0  0  0  0  0  0  0  0  0  0
   -5.8190   25.6060  -29.5250 O   0  0  0  0  0  0  0  0  0  0  0  0
   -6.9100   23.4750  -31.1570 C   0  0  0  0  0  0  0  0  0  0  0  0
   -6.9350   22.2440  -31.7630 C   0  0  0  0  0  0  0  0  0  0  0  0
   -8.0220   21.4660  -32.1500 C   0  0  0  0  0  0  0  0  0  0  0  0
   -7.7640   20.2300  -32.7660 C   0  0  0  0  0  0  0  0  0  0  0  0
   -6.4310   19.8050  -33.0060 C   0  0  0  0  0  0  0  0  0  0  0  0
   -6.1550   18.4600  -33.6330 C   0  0  0  0  0  0  0  0  0  0  0  0
   -4.9680   17.9250  -33.1650 F   0  0  0  0  0  0  0  0  0  0  0  0
   -6.0690   18.6090  -35.0060 F   0  0  0  0  0  0  0  0  0  0  0  0
   -7.1780   17.5740  -33.3380 F   0  0  0  0  0  0  0  0  0  0  0  0
   -5.3530   20.6140  -32.5790 C   0  0  0  0  0  0  0  0  0  0  0  0
   -5.6370   21.8390  -31.9520 C   0  0  0  0  0  0  0  0  0  0  0  0
   -3.8326   22.1509  -28.4832 H   0  0  0  0  0  0  0  0  0  0  0  0
   -4.2981   22.2467  -26.6381 H   0  0  0  0  0  0  0  0  0  0  0  0
   -3.5515   24.5550  -28.5457 H   0  0  0  0  0  0  0  0  0  0  0  0
   -4.9877   25.5137  -26.5139 H   0  0  0  0  0  0  0  0  0  0  0  0
   -4.1638   24.2699  -25.5029 H   0  0  0  0  0  0  0  0  0  0  0  0
   -1.8207   27.0602  -28.1444 H   0  0  0  0  0  0  0  0  0  0  0  0
   -0.1643   26.3761  -27.8934 H   0  0  0  0  0  0  0  0  0  0  0  0
   -0.8053   22.6185  -30.9110 H   0  0  0  0  0  0  0  0  0  0  0  0
   -1.1903   21.9382  -29.2918 H   0  0  0  0  0  0  0  0  0  0  0  0
   -2.9640   25.2700  -30.5660 H   0  0  0  0  0  0  0  0  0  0  0  0
   -7.7726   24.0854  -30.8516 H   0  0  0  0  0  0  0  0  0  0  0  0
   -9.0531   21.8088  -31.9786 H   0  0  0  0  0  0  0  0  0  0  0  0
   -8.6033   19.5851  -33.0653 H   0  0  0  0  0  0  0  0  0  0  0  0
   -4.3130   20.2910  -32.7345 H   0  0  0  0  0  0  0  0  0  0  0  0
  1  2  2  0
  2  3  1  0
  3  4  1  0
  4  5  1  0
  5  6  2  0
  5  7  1  0
  7  8  1  0
  8  9  1  0
  9 10  2  0
  9 11  1  0
 11 12  1  0
 12 13  1  0
 13 14  2  0
 13 15  1  0
 15 16  1  0
 16 17  1  0
 17 18  1  0
 17 19  2  0
 16 20  2  0
 20 21  1  0
 21 22  2  0
 22 23  1  0
 23 24  2  0
 24 25  1  0
 25 26  1  0
 25 27  1  0
 25 28  1  0
 24 29  1  0
 29 30  2  0
 30 15  1  0
 30 21  1  0
  1 31  1  0
  1 32  1  0
  2 33  1  0
  3 34  1  0
  3 35  1  0
  7 36  1  0
  7 37  1  0
 11 38  1  0
 11 39  1  0
 18 40  1  0
 20 41  1  0
 22 42  1  0
 23 43  1  0
 29 44  1  0
M  CHG  2   8  -1  18  -1
M  END
>  <UniqueID>  (69) 
68

>  <SMILES>  (69) 
C=CCOC(=O)C[N-]C(=O)COC(=O)n1c(C([NH-])=O)cc2ccc(C(F)(F)F)cc21

>  <Energy>  (69) 
76.55357124062563

>  <Genealogy>  (69) 
C=CCOC(=O)C[N-]C(=O)COC(=O)n1c(C([NH-])=O)cc2ccc(C(F)(F)F)cc21 (protonated)
C=CCOC(=O)C[N-]C(=O)COC(=O)n1c(C([NH-])=O)cc2ccc(C(F)(F)F)cc21 (3D coordinates assigned)
C=CCOC(=O)C[N-]C(=O)COC(=O)n1c(C([NH-])=O)cc2ccc(C(F)(F)F)cc21 (optimized conformer: 76.55357124062563 kcal/mol)

>  <smiles>  (69) 
C=CCOC(=O)CNC(=O)COC(=O)n1c(C(N)=O)cc2ccc(C(F)(F)F)cc21

>  <score_type>  (69) 
oracle

>  <origin>  (69) 
adg

>  <m_score__min__energy>  (69) 
-11.17

>  <m_primary>  (69) 
energy

$$$$
69:0
     RDKit          3D

 42 43  0  0  0  0  0  0  0  0999 V2000
   -6.1490   18.5270  -33.0940 C   0  0  0  0  0  0  0  0  0  0  0  0
   -6.5610   19.8660  -32.5620 C   0  0  0  0  0  0  0  0  0  0  0  0
   -7.9320   20.2100  -32.4850 C   0  0  0  0  0  0  0  0  0  0  0  0
   -8.3300   21.4550  -31.9700 C   0  0  0  0  0  0  0  0  0  0  0  0
   -7.3400   22.3250  -31.5300 C   0  0  0  0  0  0  0  0  0  0  0  0
   -7.4430   23.5820  -30.9780 C   0  0  0  0  0  0  0  0  0  0  0  0
   -6.1310   23.9790  -30.7060 C   0  0  0  0  0  0  0  0  0  0  0  0
   -5.7480   25.2970  -30.1470 C   0  0  0  0  0  0  0  0  0  0  0  0
   -6.4040   25.8300  -28.9950 N   0  0  0  0  0  0  0  0  0  0  0  0
   -4.8340   25.9720  -30.6880 O   0  0  0  0  0  0  0  0  0  0  0  0
   -5.2590   22.9980  -31.0740 N   0  0  0  0  0  0  0  0  0  0  0  0
   -3.8270   23.0140  -30.9770 C   0  0  0  0  0  0  0  0  0  0  0  0
   -3.1320   22.6650  -31.9690 O   0  0  0  0  0  0  0  0  0  0  0  0
   -3.1650   23.4260  -29.7310 C   0  0  0  0  0  0  0  0  0  0  0  0
   -3.1280   22.6370  -28.7510 O   0  0  0  0  0  0  0  0  0  0  0  0
   -2.5490   24.7160  -29.6450 N   0  0  0  0  0  0  0  0  0  0  0  0
   -1.2950   24.9790  -28.9450 C   0  0  0  0  0  0  0  0  0  0  0  0
   -1.5100   25.9540  -27.7830 C   0  0  0  0  0  0  0  0  0  0  0  0
   -1.9500   25.2100  -26.5820 N   0  0  0  0  0  0  0  0  0  0  0  0
   -3.3930   24.9220  -26.6360 C   0  0  0  0  0  0  0  0  0  0  0  0
   -1.6340   25.9520  -25.3510 C   0  0  0  0  0  0  0  0  0  0  0  0
   -6.0110   22.0000  -31.5810 C   0  0  0  0  0  0  0  0  0  0  0  0
   -5.5860   20.7660  -32.0870 C   0  0  0  0  0  0  0  0  0  0  0  0
   -5.9399   17.8475  -32.2546 H   0  0  0  0  0  0  0  0  0  0  0  0
   -6.9608   18.1112  -33.7089 H   0  0  0  0  0  0  0  0  0  0  0  0
   -5.2439   18.6395  -33.7089 H   0  0  0  0  0  0  0  0  0  0  0  0
   -8.6931   19.4955  -32.8318 H   0  0  0  0  0  0  0  0  0  0  0  0
   -9.3931   21.7326  -31.9167 H   0  0  0  0  0  0  0  0  0  0  0  0
   -8.3640   24.1535  -30.7905 H   0  0  0  0  0  0  0  0  0  0  0  0
   -7.2210   25.3530  -28.5590 H   0  0  0  0  0  0  0  0  0  0  0  0
   -6.1030   26.7550  -28.6020 H   0  0  0  0  0  0  0  0  0  0  0  0
   -0.8971   24.0320  -28.5513 H   0  0  0  0  0  0  0  0  0  0  0  0
   -0.5851   25.4295  -29.6542 H   0  0  0  0  0  0  0  0  0  0  0  0
   -0.5667   26.4760  -27.5645 H   0  0  0  0  0  0  0  0  0  0  0  0
   -2.2821   26.6866  -28.0606 H   0  0  0  0  0  0  0  0  0  0  0  0
   -3.7896   24.8428  -25.6131 H   0  0  0  0  0  0  0  0  0  0  0  0
   -3.9095   25.7348  -27.1676 H   0  0  0  0  0  0  0  0  0  0  0  0
   -3.5579   23.9732  -27.1676 H   0  0  0  0  0  0  0  0  0  0  0  0
   -1.8952   25.3387  -24.4760 H   0  0  0  0  0  0  0  0  0  0  0  0
   -0.5590   26.1840  -25.3285 H   0  0  0  0  0  0  0  0  0  0  0  0
   -2.2116   26.8879  -25.3285 H   0  0  0  0  0  0  0  0  0  0  0  0
   -4.5177   20.5052  -32.1132 H   0  0  0  0  0  0  0  0  0  0  0  0
  1  2  1  0
  2  3  2  0
  3  4  1  0
  4  5  2  0
  5  6  1  0
  6  7  2  0
  7  8  1  0
  8  9  1  0
  8 10  2  0
  7 11  1  0
 11 12  1  0
 12 13  2  0
 12 14  1  0
 14 15  2  0
 14 16  1  0
 16 17  1  0
 17 18  1  0
 18 19  1  0
 19 20  1  0
 19 21  1  0
 11 22  1  0
 22 23  2  0
 23  2  1  0
 22  5  1  0
  1 24  1  0
  1 25  1  0
  1 26  1  0
  3 27  1  0
  4 28  1  0
  6 29  1  0
  9 30  1  0
  9 31  1  0
 17 32  1  0
 17 33  1  0
 18 34  1  0
 18 35  1  0
 20 36  1  0
 20 37  1  0
 20 38  1  0
 21 39  1  0
 21 40  1  0
 21 41  1  0
 23 42  1  0
M  CHG  1  16  -1
M  END
>  <UniqueID>  (70) 
69

>  <SMILES>  (70) 
Cc1ccc2cc(C(N)=O)n(C(=O)C(=O)[N-]CCN(C)C)c2c1

>  <Energy>  (70) 
78.22777299610067

>  <Genealogy>  (70) 
Cc1ccc2cc(C(N)=O)n(C(=O)C(=O)[N-]CCN(C)C)c2c1 (protonated)
Cc1ccc2cc(C(N)=O)n(C(=O)C(=O)[N-]CCN(C)C)c2c1 (3D coordinates assigned)
Cc1ccc2cc(C(N)=O)n(C(=O)C(=O)[N-]CCN(C)C)c2c1 (optimized conformer: 78.22777299610067 kcal/mol)

>  <smiles>  (70) 
Cc1ccc2cc(C(N)=O)n(C(=O)C(=O)NCCN(C)C)c2c1

>  <score_type>  (70) 
oracle

>  <origin>  (70) 
adg

>  <m_score__min__energy>  (70) 
-9.2100000000000009

>  <m_primary>  (70) 
energy

$$$$
70:0
     RDKit          3D

 36 37  0  0  0  0  0  0  0  0999 V2000
   -8.7717   18.2755  -32.4498 H   0  0  0  0  0  0  0  0  0  0  0  0
   -8.0510   19.0950  -32.3120 C   0  0  0  0  0  0  0  0  0  0  0  0
   -6.7880   19.0340  -32.9670 C   0  0  0  0  0  0  0  0  0  0  0  0
   -6.4370   17.8930  -33.7950 N   0  0  0  0  0  0  0  0  0  0  0  0
   -5.6550   18.0750  -35.0260 C   0  0  0  0  0  0  0  0  0  0  0  0
   -4.6139   18.3173  -34.7665 H   0  0  0  0  0  0  0  0  0  0  0  0
   -5.6793   17.1472  -35.6164 H   0  0  0  0  0  0  0  0  0  0  0  0
   -6.0865   18.8967  -35.6164 H   0  0  0  0  0  0  0  0  0  0  0  0
   -6.8750   16.5400  -33.4290 C   0  0  0  0  0  0  0  0  0  0  0  0
   -6.9048   16.4481  -32.3333 H   0  0  0  0  0  0  0  0  0  0  0  0
   -7.8787   16.3558  -33.8398 H   0  0  0  0  0  0  0  0  0  0  0  0
   -6.1697   15.8026  -33.8398 H   0  0  0  0  0  0  0  0  0  0  0  0
   -5.8730   20.1050  -32.7820 C   0  0  0  0  0  0  0  0  0  0  0  0
   -4.8855   20.0870  -33.2663 H   0  0  0  0  0  0  0  0  0  0  0  0
   -6.2490   21.1820  -31.9740 C   0  0  0  0  0  0  0  0  0  0  0  0
   -7.4650   21.2070  -31.3440 C   0  0  0  0  0  0  0  0  0  0  0  0
   -8.3920   20.1840  -31.4930 C   0  0  0  0  0  0  0  0  0  0  0  0
   -9.3662   20.2253  -30.9839 H   0  0  0  0  0  0  0  0  0  0  0  0
   -7.5310   22.3600  -30.5980 C   0  0  0  0  0  0  0  0  0  0  0  0
   -8.3645   22.6965  -29.9639 H   0  0  0  0  0  0  0  0  0  0  0  0
   -6.3190   23.0120  -30.8150 C   0  0  0  0  0  0  0  0  0  0  0  0
   -6.0020   24.3580  -30.2880 C   0  0  0  0  0  0  0  0  0  0  0  0
   -6.8070   25.3120  -30.4700 O   0  0  0  0  0  0  0  0  0  0  0  0
   -4.8090   24.5850  -29.5300 N   0  0  0  0  0  0  0  0  0  0  0  0
   -4.0770   23.8480  -29.4390 H   0  0  0  0  0  0  0  0  0  0  0  0
   -4.6200   25.5290  -29.1270 H   0  0  0  0  0  0  0  0  0  0  0  0
   -5.5350   22.2880  -31.6620 N   0  0  0  0  0  0  0  0  0  0  0  0
   -4.1960   22.5880  -32.0880 C   0  0  0  0  0  0  0  0  0  0  0  0
   -3.8500   22.3740  -33.2840 O   0  0  0  0  0  0  0  0  0  0  0  0
   -3.2460   23.1010  -31.1510 N   0  0  0  0  0  0  0  0  0  0  0  0
   -2.8300   22.3920  -30.1810 N   0  0  0  0  0  0  0  0  0  0  0  0
   -1.8830   22.8800  -29.2220 C   0  0  0  0  0  0  0  0  0  0  0  0
   -1.3710   22.0610  -28.4120 O   0  0  0  0  0  0  0  0  0  0  0  0
   -1.4890   24.3040  -29.1400 C   0  0  0  0  0  0  0  0  0  0  0  0
   -0.3010   24.6400  -28.8850 O   0  0  0  0  0  0  0  0  0  0  0  0
   -2.4420   25.2930  -29.3450 O   0  0  0  0  0  0  0  0  0  0  0  0
  1  2  1  0
  2  3  2  0
  3  4  1  0
  4  5  1  0
  5  6  1  0
  5  7  1  0
  5  8  1  0
  4  9  1  0
  9 10  1  0
  9 11  1  0
  9 12  1  0
  3 13  1  0
 13 14  1  0
 13 15  2  0
 15 16  1  0
 16 17  2  0
 17 18  1  0
 16 19  1  0
 19 20  1  0
 19 21  2  0
 21 22  1  0
 22 23  2  0
 22 24  1  0
 24 25  1  0
 24 26  1  0
 21 27  1  0
 27 28  1  0
 28 29  2  0
 28 30  1  0
 30 31  2  0
 31 32  1  0
 32 33  2  0
 32 34  1  0
 34 35  2  0
 34 36  1  0
 17  2  1  0
 27 15  1  0
M  CHG  1  36  -1
M  END
>  <UniqueID>  (71) 
70

>  <SMILES>  (71) 
CN(C)c1ccc2cc(C(N)=O)n(C(=O)/N=N/C(=O)C(=O)[O-])c2c1

>  <Energy>  (71) 
74.97302249887872

>  <Genealogy>  (71) 
CN(C)c1ccc2cc(C(N)=O)n(C(=O)/N=N/C(=O)C(=O)[O-])c2c1 (protonated)
CN(C)c1ccc2cc(C(N)=O)n(C(=O)/N=N/C(=O)C(=O)[O-])c2c1 (cis-trans isomerization)
CN(C)c1ccc2cc(C(N)=O)n(C(=O)/N=N/C(=O)C(=O)[O-])c2c1 (3D coordinates assigned)
CN(C)c1ccc2cc(C(N)=O)n(C(=O)/N=N/C(=O)C(=O)[O-])c2c1 (optimized conformer: 74.97302249887872 kcal/mol)

>  <smiles>  (71) 
CN(C)c1ccc2cc(C(N)=O)n(C(=O)/N=N/C(=O)C(=O)O)c2c1

>  <score_type>  (71) 
oracle

>  <origin>  (71) 
adg

>  <m_score__min__energy>  (71) 
-9.6500000000000004

>  <m_primary>  (71) 
energy

$$$$
71:0
     RDKit          3D

 43 45  0  0  0  0  0  0  0  0999 V2000
   -6.2600   23.7990  -31.8790 C   0  0  0  0  0  0  0  0  0  0  0  0
   -6.3270   23.7900  -30.3400 C   0  0  0  0  0  0  0  0  0  0  0  0
   -6.8520   25.1510  -29.8570 C   0  0  0  0  0  0  0  0  0  0  0  0
   -7.2800   22.6850  -29.8430 C   0  0  0  0  0  0  0  0  0  0  0  0
   -5.0170   23.6190  -29.7800 O   0  0  0  0  0  0  0  0  0  0  0  0
   -3.8070   24.0490  -30.3460 C   0  0  0  0  0  0  0  0  0  0  0  0
   -3.6880   25.2140  -30.8100 O   0  0  0  0  0  0  0  0  0  0  0  0
   -2.6850   23.1540  -30.3730 N   0  0  0  0  0  0  0  0  0  0  0  0
   -1.4230   23.3900  -29.9150 C   0  0  0  0  0  0  0  0  0  0  0  0
   -0.9900   24.5620  -29.1290 C   0  0  0  0  0  0  0  0  0  0  0  0
   -1.8680   25.6640  -28.9120 N   0  0  0  0  0  0  0  0  0  0  0  0
    0.1540   24.5710  -28.5990 O   0  0  0  0  0  0  0  0  0  0  0  0
   -0.5830   22.3200  -30.2230 C   0  0  0  0  0  0  0  0  0  0  0  0
   -1.3780   21.4130  -30.8840 C   0  0  0  0  0  0  0  0  0  0  0  0
   -1.0590   20.1710  -31.4230 C   0  0  0  0  0  0  0  0  0  0  0  0
   -2.0740   19.4550  -32.0780 C   0  0  0  0  0  0  0  0  0  0  0  0
   -3.3830   19.9930  -32.2000 C   0  0  0  0  0  0  0  0  0  0  0  0
   -4.4330   19.2140  -32.9050 C   0  0  0  0  0  0  0  0  0  0  0  0
   -4.1370   18.4130  -34.0230 C   0  0  0  0  0  0  0  0  0  0  0  0
   -5.1600   17.6970  -34.6470 C   0  0  0  0  0  0  0  0  0  0  0  0
   -6.4640   17.7740  -34.1570 C   0  0  0  0  0  0  0  0  0  0  0  0
   -6.7250   18.5680  -33.0390 C   0  0  0  0  0  0  0  0  0  0  0  0
   -8.4950   18.6890  -32.3370 Br  0  0  0  0  0  0  0  0  0  0  0  0
   -5.7170   19.2590  -32.4460 N   0  0  0  0  0  0  0  0  0  0  0  0
   -3.6680   21.2570  -31.6280 C   0  0  0  0  0  0  0  0  0  0  0  0
   -2.6410   21.9390  -30.9640 C   0  0  0  0  0  0  0  0  0  0  0  0
   -5.2172   23.9391  -32.1998 H   0  0  0  0  0  0  0  0  0  0  0  0
   -6.6379   22.8420  -32.2681 H   0  0  0  0  0  0  0  0  0  0  0  0
   -6.8770   24.6223  -32.2681 H   0  0  0  0  0  0  0  0  0  0  0  0
   -6.8600   25.1716  -28.7572 H   0  0  0  0  0  0  0  0  0  0  0  0
   -6.1980   25.9511  -30.2340 H   0  0  0  0  0  0  0  0  0  0  0  0
   -7.8739   25.3046  -30.2340 H   0  0  0  0  0  0  0  0  0  0  0  0
   -7.2883   22.6754  -28.7431 H   0  0  0  0  0  0  0  0  0  0  0  0
   -8.2960   22.8821  -30.2156 H   0  0  0  0  0  0  0  0  0  0  0  0
   -6.9357   21.7090  -30.2156 H   0  0  0  0  0  0  0  0  0  0  0  0
   -2.8240   25.6790  -29.3290 H   0  0  0  0  0  0  0  0  0  0  0  0
    0.4870   22.2224  -29.9875 H   0  0  0  0  0  0  0  0  0  0  0  0
   -0.0415   19.7617  -31.3386 H   0  0  0  0  0  0  0  0  0  0  0  0
   -1.8525   18.4645  -32.5022 H   0  0  0  0  0  0  0  0  0  0  0  0
   -3.1065   18.3513  -34.4028 H   0  0  0  0  0  0  0  0  0  0  0  0
   -4.9381   17.0723  -35.5248 H   0  0  0  0  0  0  0  0  0  0  0  0
   -7.2763   17.2160  -34.6456 H   0  0  0  0  0  0  0  0  0  0  0  0
   -4.6748   21.6937  -31.7038 H   0  0  0  0  0  0  0  0  0  0  0  0
  1  2  1  0
  2  3  1  0
  2  4  1  0
  2  5  1  0
  5  6  1  0
  6  7  2  0
  6  8  1  0
  8  9  1  0
  9 10  1  0
 10 11  1  0
 10 12  2  0
  9 13  2  0
 13 14  1  0
 14 15  2  0
 15 16  1  0
 16 17  2  0
 17 18  1  0
 18 19  2  0
 19 20  1  0
 20 21  2  0
 21 22  1  0
 22 23  1  0
 22 24  2  0
 17 25  1  0
 25 26  2  0
 26  8  1  0
 26 14  1  0
 24 18  1  0
  1 27  1  0
  1 28  1  0
  1 29  1  0
  3 30  1  0
  3 31  1  0
  3 32  1  0
  4 33  1  0
  4 34  1  0
  4 35  1  0
 11 36  1  0
 13 37  1  0
 15 38  1  0
 16 39  1  0
 19 40  1  0
 20 41  1  0
 21 42  1  0
 25 43  1  0
M  CHG  1  11  -1
M  END
>  <UniqueID>  (72) 
71

>  <SMILES>  (72) 
CC(C)(C)OC(=O)n1c(C([NH-])=O)cc2ccc(-c3cccc(Br)n3)cc21

>  <Energy>  (72) 
83.92272585824708

>  <Genealogy>  (72) 
CC(C)(C)OC(=O)n1c(C([NH-])=O)cc2ccc(-c3cccc(Br)n3)cc21 (protonated)
CC(C)(C)OC(=O)n1c(C([NH-])=O)cc2ccc(-c3cccc(Br)n3)cc21 (3D coordinates assigned)
CC(C)(C)OC(=O)n1c(C([NH-])=O)cc2ccc(-c3cccc(Br)n3)cc21 (optimized conformer: 83.92272585824708 kcal/mol)

>  <smiles>  (72) 
CC(C)(C)OC(=O)n1c(C(N)=O)cc2ccc(-c3cccc(Br)n3)cc21

>  <score_type>  (72) 
oracle

>  <origin>  (72) 
adg

>  <m_score__min__energy>  (72) 
-11.82

>  <m_primary>  (72) 
energy

$$$$
72:0
     RDKit          3D

 57 59  0  0  0  0  0  0  0  0999 V2000
    1.9300   22.7570  -35.3980 C   0  0  0  0  0  0  0  0  0  0  0  0
    0.5250   22.6030  -35.2170 O   0  0  0  0  0  0  0  0  0  0  0  0
   -0.0900   21.4530  -34.6950 C   0  0  0  0  0  0  0  0  0  0  0  0
   -0.8370   21.4810  -33.5030 C   0  0  0  0  0  0  0  0  0  0  0  0
   -1.4350   20.3180  -33.0150 C   0  0  0  0  0  0  0  0  0  0  0  0
   -1.2990   19.1040  -33.7030 C   0  0  0  0  0  0  0  0  0  0  0  0
   -1.9410   17.8760  -33.1830 C   0  0  0  0  0  0  0  0  0  0  0  0
   -1.3340   17.1570  -32.3430 O   0  0  0  0  0  0  0  0  0  0  0  0
   -3.2250   17.5230  -33.6270 O   0  0  0  0  0  0  0  0  0  0  0  0
   -3.5010   16.6330  -34.6720 C   0  0  0  0  0  0  0  0  0  0  0  0
   -2.6570   16.4300  -35.5890 O   0  0  0  0  0  0  0  0  0  0  0  0
   -4.7350   15.9710  -34.6750 O   0  0  0  0  0  0  0  0  0  0  0  0
   -5.9660   16.5650  -34.3600 C   0  0  0  0  0  0  0  0  0  0  0  0
   -7.0060   15.8690  -34.1980 O   0  0  0  0  0  0  0  0  0  0  0  0
   -6.0410   18.0530  -34.2180 C   0  0  0  0  0  0  0  0  0  0  0  0
   -7.2360   18.4450  -33.4670 N   0  0  0  0  0  0  0  0  0  0  0  0
   -7.3290   19.6750  -32.7240 C   0  0  0  0  0  0  0  0  0  0  0  0
   -8.5800   20.0550  -32.1760 C   0  0  0  0  0  0  0  0  0  0  0  0
   -8.7220   21.2580  -31.4670 C   0  0  0  0  0  0  0  0  0  0  0  0
   -7.5950   22.0550  -31.3050 C   0  0  0  0  0  0  0  0  0  0  0  0
   -7.4610   23.2810  -30.6950 C   0  0  0  0  0  0  0  0  0  0  0  0
   -6.1180   23.6160  -30.8370 C   0  0  0  0  0  0  0  0  0  0  0  0
   -5.5210   24.8420  -30.2720 C   0  0  0  0  0  0  0  0  0  0  0  0
   -5.9880   25.3910  -29.0380 N   0  0  0  0  0  0  0  0  0  0  0  0
   -4.6220   25.4450  -30.9160 O   0  0  0  0  0  0  0  0  0  0  0  0
   -5.4460   22.6450  -31.5170 N   0  0  0  0  0  0  0  0  0  0  0  0
   -4.0710   22.6710  -31.9410 C   0  0  0  0  0  0  0  0  0  0  0  0
   -3.7440   22.1810  -33.0560 O   0  0  0  0  0  0  0  0  0  0  0  0
   -3.0990   23.2360  -31.1070 O   0  0  0  0  0  0  0  0  0  0  0  0
   -2.3400   22.4800  -30.1680 C   0  0  0  0  0  0  0  0  0  0  0  0
   -2.8190   21.1840  -30.1070 F   0  0  0  0  0  0  0  0  0  0  0  0
   -2.4200   23.0650  -28.9160 F   0  0  0  0  0  0  0  0  0  0  0  0
   -1.0180   22.4540  -30.5690 F   0  0  0  0  0  0  0  0  0  0  0  0
   -6.3670   21.6930  -31.7980 C   0  0  0  0  0  0  0  0  0  0  0  0
   -6.2030   20.5130  -32.5320 C   0  0  0  0  0  0  0  0  0  0  0  0
   -0.5510   19.0750  -34.8940 C   0  0  0  0  0  0  0  0  0  0  0  0
    0.0530   20.2460  -35.3940 C   0  0  0  0  0  0  0  0  0  0  0  0
    0.8010   20.2500  -36.5830 O   0  0  0  0  0  0  0  0  0  0  0  0
    1.2460   19.0790  -37.2610 C   0  0  0  0  0  0  0  0  0  0  0  0
    2.4225   22.8110  -34.4159 H   0  0  0  0  0  0  0  0  0  0  0  0
    2.3239   21.8967  -35.9589 H   0  0  0  0  0  0  0  0  0  0  0  0
    2.1282   23.6822  -35.9589 H   0  0  0  0  0  0  0  0  0  0  0  0
   -0.9505   22.4261  -32.9518 H   0  0  0  0  0  0  0  0  0  0  0  0
   -2.0179   20.3543  -32.0828 H   0  0  0  0  0  0  0  0  0  0  0  0
   -5.1472   18.4098  -33.6852 H   0  0  0  0  0  0  0  0  0  0  0  0
   -6.0931   18.5005  -35.2215 H   0  0  0  0  0  0  0  0  0  0  0  0
   -8.0770   17.8240  -33.4960 H   0  0  0  0  0  0  0  0  0  0  0  0
   -9.4520   19.3976  -32.3083 H   0  0  0  0  0  0  0  0  0  0  0  0
   -9.6950   21.5606  -31.0525 H   0  0  0  0  0  0  0  0  0  0  0  0
   -8.2474   23.8703  -30.2008 H   0  0  0  0  0  0  0  0  0  0  0  0
   -6.8270   24.9990  -28.5570 H   0  0  0  0  0  0  0  0  0  0  0  0
   -5.5310   26.2410  -28.6360 H   0  0  0  0  0  0  0  0  0  0  0  0
   -5.2223   20.2423  -32.9503 H   0  0  0  0  0  0  0  0  0  0  0  0
   -0.4362   18.1277  -35.4412 H   0  0  0  0  0  0  0  0  0  0  0  0
    1.5359   18.3161  -36.5235 H   0  0  0  0  0  0  0  0  0  0  0  0
    0.4333   18.6892  -37.8916 H   0  0  0  0  0  0  0  0  0  0  0  0
    2.1124   19.3273  -37.8916 H   0  0  0  0  0  0  0  0  0  0  0  0
  1  2  1  0
  2  3  1  0
  3  4  2  0
  4  5  1  0
  5  6  2  0
  6  7  1  0
  7  8  2  0
  7  9  1  0
  9 10  1  0
 10 11  2  0
 10 12  1  0
 12 13  1  0
 13 14  2  0
 13 15  1  0
 15 16  1  0
 16 17  1  0
 17 18  2  0
 18 19  1  0
 19 20  2  0
 20 21  1  0
 21 22  2  0
 22 23  1  0
 23 24  1  0
 23 25  2  0
 22 26  1  0
 26 27  1  0
 27 28  2  0
 27 29  1  0
 29 30  1  0
 30 31  1  0
 30 32  1  0
 30 33  1  0
 26 34  1  0
 34 35  2  0
  6 36  1  0
 36 37  2  0
 37 38  1  0
 38 39  1  0
 37  3  1  0
 35 17  1  0
 34 20  1  0
  1 40  1  0
  1 41  1  0
  1 42  1  0
  4 43  1  0
  5 44  1  0
 15 45  1  0
 15 46  1  0
 16 47  1  0
 18 48  1  0
 19 49  1  0
 21 50  1  0
 24 51  1  0
 24 52  1  0
 35 53  1  0
 36 54  1  0
 39 55  1  0
 39 56  1  0
 39 57  1  0
M  END
>  <UniqueID>  (73) 
72

>  <SMILES>  (73) 
COc1ccc(C(=O)OC(=O)OC(=O)CNc2ccc3cc(C(N)=O)n(C(=O)OC(F)(F)F)c3c2)cc1OC

>  <Energy>  (73) 
97.84414978696238

>  <Genealogy>  (73) 
COc1ccc(C(=O)OC(=O)OC(=O)CNc2ccc3cc(C(N)=O)n(C(=O)OC(F)(F)F)c3c2)cc1OC (3D coordinates assigned)
COc1ccc(C(=O)OC(=O)OC(=O)CNc2ccc3cc(C(N)=O)n(C(=O)OC(F)(F)F)c3c2)cc1OC (optimized conformer: 97.84414978696238 kcal/mol)

>  <smiles>  (73) 
COc1ccc(C(=O)OC(=O)OC(=O)CNc2ccc3cc(C(N)=O)n(C(=O)OC(F)(F)F)c3c2)cc1OC

>  <score_type>  (73) 
oracle

>  <origin>  (73) 
adg

>  <m_score__min__energy>  (73) 
-8.7599999999999998

>  <m_primary>  (73) 
energy

$$$$
73:0
     RDKit          3D

 50 51  0  0  0  0  0  0  0  0999 V2000
   -4.1160   22.5100  -28.9810 C   0  0  0  0  0  0  0  0  0  0  0  0
   -4.0240   23.2540  -30.0890 C   0  0  0  0  0  0  0  0  0  0  0  0
   -3.5120   24.6400  -30.0360 C   0  0  0  0  0  0  0  0  0  0  0  0
   -2.4610   24.9120  -29.3920 O   0  0  0  0  0  0  0  0  0  0  0  0
   -4.2070   25.6760  -30.7360 N   0  0  0  0  0  0  0  0  0  0  0  0
   -5.5960   26.0140  -30.4640 C   0  0  0  0  0  0  0  0  0  0  0  0
   -4.3980   22.6840  -31.3570 N   0  0  0  0  0  0  0  0  0  0  0  0
   -5.6550   23.1080  -31.9760 C   0  0  0  0  0  0  0  0  0  0  0  0
   -3.6440   21.5750  -31.8940 C   0  0  0  0  0  0  0  0  0  0  0  0
   -2.2260   21.5540  -31.8200 C   0  0  0  0  0  0  0  0  0  0  0  0
   -1.4940   20.4910  -32.3750 C   0  0  0  0  0  0  0  0  0  0  0  0
   -2.2000   19.4710  -33.0050 C   0  0  0  0  0  0  0  0  0  0  0  0
   -1.7420   18.3350  -33.6330 C   0  0  0  0  0  0  0  0  0  0  0  0
   -2.8830   17.6840  -34.0990 C   0  0  0  0  0  0  0  0  0  0  0  0
   -2.8590   16.4480  -34.9140 C   0  0  0  0  0  0  0  0  0  0  0  0
   -3.6480   16.3390  -36.0990 N   0  0  0  0  0  0  0  0  0  0  0  0
   -2.1560   15.4670  -34.5550 O   0  0  0  0  0  0  0  0  0  0  0  0
   -4.0030   18.3940  -33.7780 N   0  0  0  0  0  0  0  0  0  0  0  0
   -5.3710   18.0280  -34.0430 C   0  0  0  0  0  0  0  0  0  0  0  0
   -5.7470   17.8780  -35.2360 O   0  0  0  0  0  0  0  0  0  0  0  0
   -6.3420   17.7350  -32.9630 C   0  0  0  0  0  0  0  0  0  0  0  0
   -7.2740   18.5850  -32.4870 C   0  0  0  0  0  0  0  0  0  0  0  0
   -8.0230   18.2070  -31.2400 C   0  0  0  0  0  0  0  0  0  0  0  0
   -7.5610   19.8960  -33.1040 C   0  0  0  0  0  0  0  0  0  0  0  0
   -6.7920   20.3640  -33.9870 O   0  0  0  0  0  0  0  0  0  0  0  0
   -8.7080   20.5970  -32.7190 O   0  0  0  0  0  0  0  0  0  0  0  0
   -8.7020   21.5510  -31.6660 C   0  0  0  0  0  0  0  0  0  0  0  0
   -3.5670   19.4780  -33.0960 C   0  0  0  0  0  0  0  0  0  0  0  0
   -4.3220   20.5060  -32.5240 C   0  0  0  0  0  0  0  0  0  0  0  0
   -4.4994   21.4807  -29.0400 H   0  0  0  0  0  0  0  0  0  0  0  0
   -3.8083   22.9276  -28.0110 H   0  0  0  0  0  0  0  0  0  0  0  0
   -5.7576   26.0533  -29.3767 H   0  0  0  0  0  0  0  0  0  0  0  0
   -5.8278   26.9948  -30.9049 H   0  0  0  0  0  0  0  0  0  0  0  0
   -6.2525   25.2494  -30.9049 H   0  0  0  0  0  0  0  0  0  0  0  0
   -6.3854   23.3544  -31.1912 H   0  0  0  0  0  0  0  0  0  0  0  0
   -5.4750   23.9952  -32.6010 H   0  0  0  0  0  0  0  0  0  0  0  0
   -6.0491   22.2931  -32.6010 H   0  0  0  0  0  0  0  0  0  0  0  0
   -1.6949   22.3790  -31.3227 H   0  0  0  0  0  0  0  0  0  0  0  0
   -0.3960   20.4659  -32.3133 H   0  0  0  0  0  0  0  0  0  0  0  0
   -0.6970   18.0098  -33.7437 H   0  0  0  0  0  0  0  0  0  0  0  0
   -3.6530   15.4480  -36.6440 H   0  0  0  0  0  0  0  0  0  0  0  0
   -4.1960   17.1480  -36.4660 H   0  0  0  0  0  0  0  0  0  0  0  0
   -6.2986   16.7341  -32.5087 H   0  0  0  0  0  0  0  0  0  0  0  0
   -7.4375   18.5025  -30.3569 H   0  0  0  0  0  0  0  0  0  0  0  0
   -8.9945   18.7228  -31.2252 H   0  0  0  0  0  0  0  0  0  0  0  0
   -8.1852   17.1191  -31.2252 H   0  0  0  0  0  0  0  0  0  0  0  0
   -8.7053   21.0286  -30.6980 H   0  0  0  0  0  0  0  0  0  0  0  0
   -7.7999   22.1758  -31.7424 H   0  0  0  0  0  0  0  0  0  0  0  0
   -9.5962   22.1871  -31.7424 H   0  0  0  0  0  0  0  0  0  0  0  0
   -5.4211   20.4838  -32.5632 H   0  0  0  0  0  0  0  0  0  0  0  0
  1  2  2  0
  2  3  1  0
  3  4  2  0
  3  5  1  0
  5  6  1  0
  2  7  1  0
  7  8  1  0
  7  9  1  0
  9 10  2  0
 10 11  1  0
 11 12  2  0
 12 13  1  0
 13 14  2  0
 14 15  1  0
 15 16  1  0
 15 17  2  0
 14 18  1  0
 18 19  1  0
 19 20  2  0
 19 21  1  0
 21 22  2  3
 22 23  1  0
 22 24  1  0
 24 25  2  0
 24 26  1  0
 26 27  1  0
 18 28  1  0
 28 29  2  0
 29  9  1  0
 28 12  1  0
  1 30  1  0
  1 31  1  0
  6 32  1  0
  6 33  1  0
  6 34  1  0
  8 35  1  0
  8 36  1  0
  8 37  1  0
 10 38  1  0
 11 39  1  0
 13 40  1  0
 16 41  1  0
 16 42  1  0
 21 43  1  0
 23 44  1  0
 23 45  1  0
 23 46  1  0
 27 47  1  0
 27 48  1  0
 27 49  1  0
 29 50  1  0
M  CHG  1   5  -1
M  END
>  <UniqueID>  (74) 
73

>  <SMILES>  (74) 
C=C(C(=O)[N-]C)N(C)c1ccc2cc(C(N)=O)n(C(=O)C=C(C)C(=O)OC)c2c1

>  <Energy>  (74) 
93.81299443670372

>  <Genealogy>  (74) 
C=C(C(=O)[N-]C)N(C)c1ccc2cc(C(N)=O)n(C(=O)C=C(C)C(=O)OC)c2c1 (protonated)
C=C(C(=O)[N-]C)N(C)c1ccc2cc(C(N)=O)n(C(=O)C=C(C)C(=O)OC)c2c1 (3D coordinates assigned)
C=C(C(=O)[N-]C)N(C)c1ccc2cc(C(N)=O)n(C(=O)C=C(C)C(=O)OC)c2c1 (optimized conformer: 93.81299443670372 kcal/mol)

>  <smiles>  (74) 
C=C(C(=O)NC)N(C)c1ccc2cc(C(N)=O)n(C(=O)C=C(C)C(=O)OC)c2c1

>  <score_type>  (74) 
oracle

>  <origin>  (74) 
adg

>  <m_score__min__energy>  (74) 
-10.08

>  <m_primary>  (74) 
energy

$$$$
74:0
     RDKit          3D

 39 41  0  0  0  0  0  0  0  0999 V2000
   -3.0380   24.2140  -27.3230 C   0  0  0  0  0  0  0  0  0  0  0  0
   -2.0700   24.3690  -28.5020 C   0  0  0  0  0  0  0  0  0  0  0  0
   -2.6700   24.0660  -29.8010 N   0  0  0  0  0  0  0  0  0  0  0  0
   -2.8030   22.7440  -30.3340 C   0  0  0  0  0  0  0  0  0  0  0  0
   -2.2010   21.7770  -29.7940 O   0  0  0  0  0  0  0  0  0  0  0  0
   -3.6660   22.5120  -31.5020 C   0  0  0  0  0  0  0  0  0  0  0  0
   -3.1430   22.3170  -32.6310 O   0  0  0  0  0  0  0  0  0  0  0  0
   -5.0970   22.5320  -31.3760 N   0  0  0  0  0  0  0  0  0  0  0  0
   -5.8690   23.5530  -30.9130 C   0  0  0  0  0  0  0  0  0  0  0  0
   -5.3720   24.8040  -30.3030 C   0  0  0  0  0  0  0  0  0  0  0  0
   -5.7740   25.2020  -28.9910 N   0  0  0  0  0  0  0  0  0  0  0  0
   -4.6130   25.5570  -30.9680 O   0  0  0  0  0  0  0  0  0  0  0  0
   -7.2210   23.2630  -31.0860 C   0  0  0  0  0  0  0  0  0  0  0  0
   -7.2530   22.0190  -31.6740 C   0  0  0  0  0  0  0  0  0  0  0  0
   -8.3380   21.2550  -32.0970 C   0  0  0  0  0  0  0  0  0  0  0  0
   -8.0740   20.0270  -32.7270 C   0  0  0  0  0  0  0  0  0  0  0  0
   -6.7400   19.5920  -32.9300 C   0  0  0  0  0  0  0  0  0  0  0  0
   -6.4790   18.2870  -33.6270 C   0  0  0  0  0  0  0  0  0  0  0  0
   -5.7520   18.5120  -34.7820 F   0  0  0  0  0  0  0  0  0  0  0  0
   -5.7620   17.4500  -32.7920 F   0  0  0  0  0  0  0  0  0  0  0  0
   -5.6640   20.3970  -32.4940 C   0  0  0  0  0  0  0  0  0  0  0  0
   -5.9580   21.6020  -31.8460 C   0  0  0  0  0  0  0  0  0  0  0  0
   -0.7340   23.6830  -28.3170 C   0  0  0  0  0  0  0  0  0  0  0  0
   -0.0310   24.9050  -28.3280 O   0  0  0  0  0  0  0  0  0  0  0  0
   -1.2280   25.6280  -28.5040 C   0  0  0  0  0  0  0  0  0  0  0  0
   -2.4821   24.3030  -26.3780 H   0  0  0  0  0  0  0  0  0  0  0  0
   -3.8052   25.0007  -27.3726 H   0  0  0  0  0  0  0  0  0  0  0  0
   -3.5212   23.2270  -27.3726 H   0  0  0  0  0  0  0  0  0  0  0  0
   -6.5470   24.7120  -28.4880 H   0  0  0  0  0  0  0  0  0  0  0  0
   -5.3660   26.0590  -28.5580 H   0  0  0  0  0  0  0  0  0  0  0  0
   -8.0794   23.8937  -30.8113 H   0  0  0  0  0  0  0  0  0  0  0  0
   -9.3702   21.6023  -31.9426 H   0  0  0  0  0  0  0  0  0  0  0  0
   -8.9100   19.3975  -33.0658 H   0  0  0  0  0  0  0  0  0  0  0  0
   -7.4397   17.8168  -33.8839 H   0  0  0  0  0  0  0  0  0  0  0  0
   -4.6223   20.0848  -32.6596 H   0  0  0  0  0  0  0  0  0  0  0  0
   -0.6494   23.1369  -27.3659 H   0  0  0  0  0  0  0  0  0  0  0  0
   -0.4389   22.8921  -29.0223 H   0  0  0  0  0  0  0  0  0  0  0  0
   -1.4556   26.3093  -27.6709 H   0  0  0  0  0  0  0  0  0  0  0  0
   -1.3110   26.3237  -29.3520 H   0  0  0  0  0  0  0  0  0  0  0  0
  1  2  1  0
  2  3  1  0
  3  4  1  0
  4  5  2  0
  4  6  1  0
  6  7  2  0
  6  8  1  0
  8  9  1  0
  9 10  1  0
 10 11  1  0
 10 12  2  0
  9 13  2  0
 13 14  1  0
 14 15  2  0
 15 16  1  0
 16 17  2  0
 17 18  1  0
 18 19  1  0
 18 20  1  0
 17 21  1  0
 21 22  2  0
  2 23  1  0
 23 24  1  0
 24 25  1  0
 25  2  1  0
 22  8  1  0
 22 14  1  0
  1 26  1  0
  1 27  1  0
  1 28  1  0
 11 29  1  0
 11 30  1  0
 13 31  1  0
 15 32  1  0
 16 33  1  0
 18 34  1  0
 21 35  1  0
 23 36  1  0
 23 37  1  0
 25 38  1  0
 25 39  1  0
M  CHG  1   3  -1
M  END
>  <UniqueID>  (75) 
74

>  <SMILES>  (75) 
CC1([N-]C(=O)C(=O)n2c(C(N)=O)cc3ccc(C(F)F)cc32)COC1

>  <Energy>  (75) 
141.45877513327127

>  <Genealogy>  (75) 
CC1([N-]C(=O)C(=O)n2c(C(N)=O)cc3ccc(C(F)F)cc32)COC1 (protonated)
CC1([N-]C(=O)C(=O)n2c(C(N)=O)cc3ccc(C(F)F)cc32)COC1 (3D coordinates assigned)
CC1([N-]C(=O)C(=O)n2c(C(N)=O)cc3ccc(C(F)F)cc32)COC1 (nonaromatic ring conformer: 141.45877513327127 kcal/mol)

>  <smiles>  (75) 
CC1(NC(=O)C(=O)n2c(C(N)=O)cc3ccc(C(F)F)cc32)COC1

>  <score_type>  (75) 
oracle

>  <origin>  (75) 
adg

>  <m_score__min__energy>  (75) 
-9.6899999999999995

>  <m_primary>  (75) 
energy

$$$$
75:0
     RDKit          3D

 35 36  0  0  0  0  0  0  0  0999 V2000
   -5.7760   25.1630  -29.1260 N   0  0  0  0  0  0  0  0  0  0  0  0
   -5.2260   24.6680  -30.3490 C   0  0  0  0  0  0  0  0  0  0  0  0
   -4.2570   25.2760  -30.8750 O   0  0  0  0  0  0  0  0  0  0  0  0
   -5.7660   23.4430  -30.9840 C   0  0  0  0  0  0  0  0  0  0  0  0
   -7.1210   23.1160  -31.0330 C   0  0  0  0  0  0  0  0  0  0  0  0
   -7.1730   21.8670  -31.6130 C   0  0  0  0  0  0  0  0  0  0  0  0
   -8.2690   21.0650  -31.9170 C   0  0  0  0  0  0  0  0  0  0  0  0
   -8.0260   19.8250  -32.5320 C   0  0  0  0  0  0  0  0  0  0  0  0
   -6.7010   19.4030  -32.8190 C   0  0  0  0  0  0  0  0  0  0  0  0
   -6.4590   18.0970  -33.5320 C   0  0  0  0  0  0  0  0  0  0  0  0
   -6.1630   18.3170  -34.8660 F   0  0  0  0  0  0  0  0  0  0  0  0
   -7.5790   17.2880  -33.4650 F   0  0  0  0  0  0  0  0  0  0  0  0
   -5.3950   17.4440  -32.9370 F   0  0  0  0  0  0  0  0  0  0  0  0
   -5.6170   20.2590  -32.5140 C   0  0  0  0  0  0  0  0  0  0  0  0
   -5.8900   21.4820  -31.8930 C   0  0  0  0  0  0  0  0  0  0  0  0
   -5.0160   22.4390  -31.5200 N   0  0  0  0  0  0  0  0  0  0  0  0
   -3.5900   22.3960  -31.6920 C   0  0  0  0  0  0  0  0  0  0  0  0
   -3.1070   22.1890  -32.8370 O   0  0  0  0  0  0  0  0  0  0  0  0
   -2.6840   22.6350  -30.5590 C   0  0  0  0  0  0  0  0  0  0  0  0
   -1.4420   22.7420  -30.7560 O   0  0  0  0  0  0  0  0  0  0  0  0
   -3.2070   22.7260  -29.2670 O   0  0  0  0  0  0  0  0  0  0  0  0
   -2.4430   23.1950  -28.1600 C   0  0  0  0  0  0  0  0  0  0  0  0
   -2.5220   24.7170  -28.0950 C   0  0  0  0  0  0  0  0  0  0  0  0
   -2.1690   25.2760  -29.3300 O   0  0  0  0  0  0  0  0  0  0  0  0
   -6.6180   24.7260  -28.6910 H   0  0  0  0  0  0  0  0  0  0  0  0
   -5.3620   26.0060  -28.6710 H   0  0  0  0  0  0  0  0  0  0  0  0
   -7.9676   23.7251  -30.6833 H   0  0  0  0  0  0  0  0  0  0  0  0
   -9.2931   21.3914  -31.6833 H   0  0  0  0  0  0  0  0  0  0  0  0
   -8.8726   19.1734  -32.7942 H   0  0  0  0  0  0  0  0  0  0  0  0
   -4.5844   19.9698  -32.7593 H   0  0  0  0  0  0  0  0  0  0  0  0
   -2.8448   22.7671  -27.2297 H   0  0  0  0  0  0  0  0  0  0  0  0
   -1.3940   22.8875  -28.2823 H   0  0  0  0  0  0  0  0  0  0  0  0
   -3.5497   25.0164  -27.8418 H   0  0  0  0  0  0  0  0  0  0  0  0
   -1.8235   25.0787  -27.3261 H   0  0  0  0  0  0  0  0  0  0  0  0
   -2.3640   24.5880  -30.0190 H   0  0  0  0  0  0  0  0  0  0  0  0
  1  2  1  0
  2  3  2  0
  2  4  1  0
  4  5  2  0
  5  6  1  0
  6  7  2  0
  7  8  1  0
  8  9  2  0
  9 10  1  0
 10 11  1  0
 10 12  1  0
 10 13  1  0
  9 14  1  0
 14 15  2  0
 15 16  1  0
 16 17  1  0
 17 18  2  0
 17 19  1  0
 19 20  2  0
 19 21  1  0
 21 22  1  0
 22 23  1  0
 23 24  1  0
 16  4  1  0
 15  6  1  0
  1 25  1  0
  1 26  1  0
  5 27  1  0
  7 28  1  0
  8 29  1  0
 14 30  1  0
 22 31  1  0
 22 32  1  0
 23 33  1  0
 23 34  1  0
 24 35  1  0
M  END
>  <UniqueID>  (76) 
75

>  <SMILES>  (76) 
NC(=O)c1cc2ccc(C(F)(F)F)cc2n1C(=O)C(=O)OCCO

>  <Energy>  (76) 
70.08773933299629

>  <Genealogy>  (76) 
NC(=O)c1cc2ccc(C(F)(F)F)cc2n1C(=O)C(=O)OCCO (3D coordinates assigned)
NC(=O)c1cc2ccc(C(F)(F)F)cc2n1C(=O)C(=O)OCCO (optimized conformer: 70.08773933299629 kcal/mol)

>  <smiles>  (76) 
NC(=O)c1cc2ccc(C(F)(F)F)cc2n1C(=O)C(=O)OCCO

>  <score_type>  (76) 
oracle

>  <origin>  (76) 
adg

>  <m_score__min__energy>  (76) 
-8.0199999999999996

>  <m_primary>  (76) 
energy

$$$$
76:0
     RDKit          3D

 28 29  0  0  0  0  0  0  0  0999 V2000
   -3.8760   25.6470  -30.8400 N   0  0  0  0  0  0  0  0  0  0  0  0
   -5.1970   25.2800  -30.4510 C   0  0  0  0  0  0  0  0  0  0  0  0
   -5.8740   26.0730  -29.7440 O   0  0  0  0  0  0  0  0  0  0  0  0
   -5.7920   23.9990  -30.8880 C   0  0  0  0  0  0  0  0  0  0  0  0
   -7.1640   23.7920  -31.0290 C   0  0  0  0  0  0  0  0  0  0  0  0
   -7.2930   22.5030  -31.4930 C   0  0  0  0  0  0  0  0  0  0  0  0
   -8.4360   21.7710  -31.8030 C   0  0  0  0  0  0  0  0  0  0  0  0
   -8.2710   20.4460  -32.2400 C   0  0  0  0  0  0  0  0  0  0  0  0
   -6.9780   19.8670  -32.3330 C   0  0  0  0  0  0  0  0  0  0  0  0
   -6.8120   18.4570  -32.8400 C   0  0  0  0  0  0  0  0  0  0  0  0
   -5.8170   17.7990  -32.1390 F   0  0  0  0  0  0  0  0  0  0  0  0
   -7.9880   17.7440  -32.6930 F   0  0  0  0  0  0  0  0  0  0  0  0
   -6.4710   18.4930  -34.1800 F   0  0  0  0  0  0  0  0  0  0  0  0
   -5.8410   20.6520  -32.0300 C   0  0  0  0  0  0  0  0  0  0  0  0
   -6.0350   21.9740  -31.6160 C   0  0  0  0  0  0  0  0  0  0  0  0
   -5.1040   22.8820  -31.2550 N   0  0  0  0  0  0  0  0  0  0  0  0
   -3.6860   22.6630  -31.1870 C   0  0  0  0  0  0  0  0  0  0  0  0
   -3.0360   23.1150  -30.2070 O   0  0  0  0  0  0  0  0  0  0  0  0
   -2.9890   21.9220  -32.2530 C   0  0  0  0  0  0  0  0  0  0  0  0
   -3.4790   21.9340  -33.5950 N   0  0  0  0  0  0  0  0  0  0  0  0
   -1.9530   21.2590  -31.9800 O   0  0  0  0  0  0  0  0  0  0  0  0
   -3.0430   25.2750  -30.3310 H   0  0  0  0  0  0  0  0  0  0  0  0
   -7.9717   24.5074  -30.8147 H   0  0  0  0  0  0  0  0  0  0  0  0
   -9.4374   22.2163  -31.7087 H   0  0  0  0  0  0  0  0  0  0  0  0
   -9.1542   19.8500  -32.5134 H   0  0  0  0  0  0  0  0  0  0  0  0
   -4.8279   20.2327  -32.1179 H   0  0  0  0  0  0  0  0  0  0  0  0
   -2.9790   21.4000  -34.3410 H   0  0  0  0  0  0  0  0  0  0  0  0
   -4.3340   22.4760  -33.8540 H   0  0  0  0  0  0  0  0  0  0  0  0
  1  2  1  0
  2  3  2  0
  2  4  1  0
  4  5  2  0
  5  6  1  0
  6  7  2  0
  7  8  1  0
  8  9  2  0
  9 10  1  0
 10 11  1  0
 10 12  1  0
 10 13  1  0
  9 14  1  0
 14 15  2  0
 15 16  1  0
 16 17  1  0
 17 18  2  0
 17 19  1  0
 19 20  1  0
 19 21  2  0
 16  4  1  0
 15  6  1  0
  1 22  1  0
  5 23  1  0
  7 24  1  0
  8 25  1  0
 14 26  1  0
 20 27  1  0
 20 28  1  0
M  CHG  1   1  -1
M  END
>  <UniqueID>  (77) 
76

>  <SMILES>  (77) 
[NH-]C(=O)c1cc2ccc(C(F)(F)F)cc2n1C(=O)C(N)=O

>  <Energy>  (77) 
67.47335840540835

>  <Genealogy>  (77) 
[NH-]C(=O)c1cc2ccc(C(F)(F)F)cc2n1C(=O)C(N)=O (protonated)
[NH-]C(=O)c1cc2ccc(C(F)(F)F)cc2n1C(=O)C(N)=O (3D coordinates assigned)
[NH-]C(=O)c1cc2ccc(C(F)(F)F)cc2n1C(=O)C(N)=O (optimized conformer: 67.47335840540835 kcal/mol)

>  <smiles>  (77) 
NC(=O)C(=O)n1c(C(N)=O)cc2ccc(C(F)(F)F)cc21

>  <score_type>  (77) 
oracle

>  <origin>  (77) 
adg

>  <m_score__min__energy>  (77) 
-10.24

>  <m_primary>  (77) 
energy

$$$$
77:0
     RDKit          3D

 41 42  0  0  0  0  0  0  0  0999 V2000
   -1.9410   25.3290  -27.4790 C   0  0  0  0  0  0  0  0  0  0  0  0
   -1.6070   25.3220  -28.8500 O   0  0  0  0  0  0  0  0  0  0  0  0
   -0.4860   24.4880  -29.0820 C   0  0  0  0  0  0  0  0  0  0  0  0
   -0.8250   23.0190  -28.7920 C   0  0  0  0  0  0  0  0  0  0  0  0
   -1.6770   22.4470  -29.8460 N   0  0  0  0  0  0  0  0  0  0  0  0
   -1.0810   21.5240  -30.8180 C   0  0  0  0  0  0  0  0  0  0  0  0
   -3.0490   22.8650  -30.0480 C   0  0  0  0  0  0  0  0  0  0  0  0
   -3.6630   23.4240  -29.0990 O   0  0  0  0  0  0  0  0  0  0  0  0
   -3.7750   22.6740  -31.3270 C   0  0  0  0  0  0  0  0  0  0  0  0
   -3.1670   22.3440  -32.3780 O   0  0  0  0  0  0  0  0  0  0  0  0
   -5.1920   22.8900  -31.3870 N   0  0  0  0  0  0  0  0  0  0  0  0
   -5.8800   24.0050  -31.0150 C   0  0  0  0  0  0  0  0  0  0  0  0
   -5.2810   25.2780  -30.5580 C   0  0  0  0  0  0  0  0  0  0  0  0
   -3.9300   25.6080  -30.8660 N   0  0  0  0  0  0  0  0  0  0  0  0
   -5.9800   26.0950  -29.9010 O   0  0  0  0  0  0  0  0  0  0  0  0
   -7.2520   23.8000  -31.1590 C   0  0  0  0  0  0  0  0  0  0  0  0
   -7.3820   22.5110  -31.6280 C   0  0  0  0  0  0  0  0  0  0  0  0
   -8.5230   21.7780  -31.9370 C   0  0  0  0  0  0  0  0  0  0  0  0
   -8.3560   20.4550  -32.3800 C   0  0  0  0  0  0  0  0  0  0  0  0
   -7.0610   19.8870  -32.4850 C   0  0  0  0  0  0  0  0  0  0  0  0
   -6.8950   18.4840  -32.9870 C   0  0  0  0  0  0  0  0  0  0  0  0
   -5.9260   20.6650  -32.1750 C   0  0  0  0  0  0  0  0  0  0  0  0
   -6.1230   21.9840  -31.7520 C   0  0  0  0  0  0  0  0  0  0  0  0
   -1.0204   25.3097  -26.8772 H   0  0  0  0  0  0  0  0  0  0  0  0
   -2.5127   26.2393  -27.2455 H   0  0  0  0  0  0  0  0  0  0  0  0
   -2.5503   24.4434  -27.2455 H   0  0  0  0  0  0  0  0  0  0  0  0
   -0.1765   24.5852  -30.1331 H   0  0  0  0  0  0  0  0  0  0  0  0
    0.3279   24.7994  -28.4107 H   0  0  0  0  0  0  0  0  0  0  0  0
    0.1090   22.4409  -28.7336 H   0  0  0  0  0  0  0  0  0  0  0  0
   -1.3733   22.9716  -27.8396 H   0  0  0  0  0  0  0  0  0  0  0  0
   -0.5593   20.7160  -30.2842 H   0  0  0  0  0  0  0  0  0  0  0  0
   -1.8729   21.0947  -31.4493 H   0  0  0  0  0  0  0  0  0  0  0  0
   -0.3639   22.0691  -31.4493 H   0  0  0  0  0  0  0  0  0  0  0  0
   -3.1440   25.2590  -30.2750 H   0  0  0  0  0  0  0  0  0  0  0  0
   -8.0592   24.5157  -30.9438 H   0  0  0  0  0  0  0  0  0  0  0  0
   -9.5252   22.2204  -31.8376 H   0  0  0  0  0  0  0  0  0  0  0  0
   -9.2379   19.8545  -32.6478 H   0  0  0  0  0  0  0  0  0  0  0  0
   -6.8136   17.7961  -32.1325 H   0  0  0  0  0  0  0  0  0  0  0  0
   -7.7667   18.2078  -33.5984 H   0  0  0  0  0  0  0  0  0  0  0  0
   -5.9829   18.4188  -33.5984 H   0  0  0  0  0  0  0  0  0  0  0  0
   -4.9129   20.2458  -32.2635 H   0  0  0  0  0  0  0  0  0  0  0  0
  1  2  1  0
  2  3  1  0
  3  4  1  0
  4  5  1  0
  5  6  1  0
  5  7  1  0
  7  8  2  0
  7  9  1  0
  9 10  2  0
  9 11  1  0
 11 12  1  0
 12 13  1  0
 13 14  1  0
 13 15  2  0
 12 16  2  0
 16 17  1  0
 17 18  2  0
 18 19  1  0
 19 20  2  0
 20 21  1  0
 20 22  1  0
 22 23  2  0
 23 11  1  0
 23 17  1  0
  1 24  1  0
  1 25  1  0
  1 26  1  0
  3 27  1  0
  3 28  1  0
  4 29  1  0
  4 30  1  0
  6 31  1  0
  6 32  1  0
  6 33  1  0
 14 34  1  0
 16 35  1  0
 18 36  1  0
 19 37  1  0
 21 38  1  0
 21 39  1  0
 21 40  1  0
 22 41  1  0
M  CHG  1  14  -1
M  END
>  <UniqueID>  (78) 
77

>  <SMILES>  (78) 
COCCN(C)C(=O)C(=O)n1c(C([NH-])=O)cc2ccc(C)cc21

>  <Energy>  (78) 
82.3189693729339

>  <Genealogy>  (78) 
COCCN(C)C(=O)C(=O)n1c(C([NH-])=O)cc2ccc(C)cc21 (protonated)
COCCN(C)C(=O)C(=O)n1c(C([NH-])=O)cc2ccc(C)cc21 (3D coordinates assigned)
COCCN(C)C(=O)C(=O)n1c(C([NH-])=O)cc2ccc(C)cc21 (optimized conformer: 82.3189693729339 kcal/mol)

>  <smiles>  (78) 
COCCN(C)C(=O)C(=O)n1c(C(N)=O)cc2ccc(C)cc21

>  <score_type>  (78) 
oracle

>  <origin>  (78) 
adg

>  <m_score__min__energy>  (78) 
-10.17

>  <m_primary>  (78) 
energy

$$$$
78:0
     RDKit          3D

 36 38  0  0  0  0  0  0  0  0999 V2000
   -3.8870   25.6680  -30.8490 N   0  0  0  0  0  0  0  0  0  0  0  0
   -5.2110   25.1840  -30.6380 C   0  0  0  0  0  0  0  0  0  0  0  0
   -6.0620   25.9350  -30.0920 O   0  0  0  0  0  0  0  0  0  0  0  0
   -5.6110   23.8390  -31.0990 C   0  0  0  0  0  0  0  0  0  0  0  0
   -6.9330   23.4740  -31.3430 C   0  0  0  0  0  0  0  0  0  0  0  0
   -6.8720   22.1910  -31.8370 C   0  0  0  0  0  0  0  0  0  0  0  0
   -7.8960   21.3370  -32.2370 C   0  0  0  0  0  0  0  0  0  0  0  0
   -7.5460   20.0520  -32.6810 C   0  0  0  0  0  0  0  0  0  0  0  0
   -6.1880   19.6370  -32.7090 C   0  0  0  0  0  0  0  0  0  0  0  0
   -5.8320   18.2700  -33.1680 C   0  0  0  0  0  0  0  0  0  0  0  0
   -4.4880   17.8790  -33.2710 C   0  0  0  0  0  0  0  0  0  0  0  0
   -4.1480   16.5930  -33.7000 C   0  0  0  0  0  0  0  0  0  0  0  0
   -2.8340   16.2660  -33.7750 F   0  0  0  0  0  0  0  0  0  0  0  0
   -5.1540   15.6620  -34.0420 C   0  0  0  0  0  0  0  0  0  0  0  0
   -4.8000   14.2920  -34.5020 C   0  0  0  0  0  0  0  0  0  0  0  0
   -5.2460   13.2770  -33.9030 O   0  0  0  0  0  0  0  0  0  0  0  0
   -3.9730   14.1020  -35.6020 O   0  0  0  0  0  0  0  0  0  0  0  0
   -6.5040   16.0590  -33.9390 C   0  0  0  0  0  0  0  0  0  0  0  0
   -7.5140   15.2110  -34.2590 F   0  0  0  0  0  0  0  0  0  0  0  0
   -6.8340   17.3470  -33.5060 C   0  0  0  0  0  0  0  0  0  0  0  0
   -5.1780   20.5360  -32.2940 C   0  0  0  0  0  0  0  0  0  0  0  0
   -5.5550   21.8180  -31.8740 C   0  0  0  0  0  0  0  0  0  0  0  0
   -4.7660   22.8180  -31.4230 N   0  0  0  0  0  0  0  0  0  0  0  0
   -3.3440   22.7630  -31.2260 C   0  0  0  0  0  0  0  0  0  0  0  0
   -2.6040   22.3250  -32.1480 O   0  0  0  0  0  0  0  0  0  0  0  0
   -2.7990   23.1750  -30.0030 O   0  0  0  0  0  0  0  0  0  0  0  0
   -3.5350   23.4060  -28.8340 C   0  0  0  0  0  0  0  0  0  0  0  0
   -3.5420   24.5320  -28.2680 O   0  0  0  0  0  0  0  0  0  0  0  0
   -3.0850   25.2990  -30.2930 H   0  0  0  0  0  0  0  0  0  0  0  0
   -7.8343   24.0822  -31.1762 H   0  0  0  0  0  0  0  0  0  0  0  0
   -8.9473   21.6592  -32.2061 H   0  0  0  0  0  0  0  0  0  0  0  0
   -8.3331   19.3581  -33.0112 H   0  0  0  0  0  0  0  0  0  0  0  0
   -3.6928   18.5932  -33.0110 H   0  0  0  0  0  0  0  0  0  0  0  0
   -7.8914   17.6403  -33.4294 H   0  0  0  0  0  0  0  0  0  0  0  0
   -4.1200   20.2351  -32.3009 H   0  0  0  0  0  0  0  0  0  0  0  0
   -4.1219   22.5837  -28.3988 H   0  0  0  0  0  0  0  0  0  0  0  0
  1  2  1  0
  2  3  2  0
  2  4  1  0
  4  5  2  0
  5  6  1  0
  6  7  2  0
  7  8  1  0
  8  9  2  0
  9 10  1  0
 10 11  2  0
 11 12  1  0
 12 13  1  0
 12 14  2  0
 14 15  1  0
 15 16  2  0
 15 17  1  0
 14 18  1  0
 18 19  1  0
 18 20  2  0
  9 21  1  0
 21 22  2  0
 22 23  1  0
 23 24  1  0
 24 25  2  0
 24 26  1  0
 26 27  1  0
 27 28  2  0
 23  4  1  0
 22  6  1  0
 20 10  1  0
  1 29  1  0
  5 30  1  0
  7 31  1  0
  8 32  1  0
 11 33  1  0
 20 34  1  0
 21 35  1  0
 27 36  1  0
M  CHG  2   1  -1  17  -1
M  END
>  <UniqueID>  (79) 
78

>  <SMILES>  (79) 
[NH-]C(=O)c1cc2ccc(-c3cc(F)c(C(=O)[O-])c(F)c3)cc2n1C(=O)OC=O

>  <Energy>  (79) 
87.90399885099978

>  <Genealogy>  (79) 
[NH-]C(=O)c1cc2ccc(-c3cc(F)c(C(=O)[O-])c(F)c3)cc2n1C(=O)OC=O (protonated)
[NH-]C(=O)c1cc2ccc(-c3cc(F)c(C(=O)[O-])c(F)c3)cc2n1C(=O)OC=O (3D coordinates assigned)
[NH-]C(=O)c1cc2ccc(-c3cc(F)c(C(=O)[O-])c(F)c3)cc2n1C(=O)OC=O (optimized conformer: 87.90399885099978 kcal/mol)

>  <smiles>  (79) 
NC(=O)c1cc2ccc(-c3cc(F)c(C(=O)O)c(F)c3)cc2n1C(=O)OC=O

>  <score_type>  (79) 
oracle

>  <origin>  (79) 
adg

>  <m_score__min__energy>  (79) 
-10.08

>  <m_primary>  (79) 
energy

$$$$
79:0
     RDKit          3D

 37 38  0  0  0  0  0  0  0  0999 V2000
   -8.2580   20.3900  -32.9760 C   0  0  0  0  0  0  0  0  0  0  0  0
   -7.8680   19.1360  -32.3230 N   0  0  0  0  0  0  0  0  0  0  0  0
   -8.6800   18.5970  -31.2280 C   0  0  0  0  0  0  0  0  0  0  0  0
   -6.6790   18.4230  -32.7300 C   0  0  0  0  0  0  0  0  0  0  0  0
   -6.3080   17.4090  -32.0760 O   0  0  0  0  0  0  0  0  0  0  0  0
   -5.8220   18.8950  -33.8780 C   0  0  0  0  0  0  0  0  0  0  0  0
   -5.4000   20.2830  -33.6810 N   0  0  0  0  0  0  0  0  0  0  0  0
   -4.3030   20.6840  -32.8350 C   0  0  0  0  0  0  0  0  0  0  0  0
   -3.1590   19.8590  -32.6560 C   0  0  0  0  0  0  0  0  0  0  0  0
   -2.1100   20.2630  -31.8140 C   0  0  0  0  0  0  0  0  0  0  0  0
   -2.2200   21.4930  -31.1750 C   0  0  0  0  0  0  0  0  0  0  0  0
   -1.3670   22.1060  -30.2860 C   0  0  0  0  0  0  0  0  0  0  0  0
   -1.9820   23.3100  -29.9580 C   0  0  0  0  0  0  0  0  0  0  0  0
   -1.3690   24.3170  -29.0700 C   0  0  0  0  0  0  0  0  0  0  0  0
   -2.1640   25.3120  -28.4220 N   0  0  0  0  0  0  0  0  0  0  0  0
   -0.1180   24.3350  -28.9250 O   0  0  0  0  0  0  0  0  0  0  0  0
   -3.1750   23.4360  -30.6050 N   0  0  0  0  0  0  0  0  0  0  0  0
   -4.1540   24.4750  -30.4320 C   0  0  0  0  0  0  0  0  0  0  0  0
   -3.8670   25.6730  -30.6930 O   0  0  0  0  0  0  0  0  0  0  0  0
   -5.4310   24.1660  -29.9800 O   0  0  0  0  0  0  0  0  0  0  0  0
   -3.3050   22.3130  -31.3510 C   0  0  0  0  0  0  0  0  0  0  0  0
   -4.3760   21.9260  -32.1670 C   0  0  0  0  0  0  0  0  0  0  0  0
   -8.4926   21.1444  -32.2106 H   0  0  0  0  0  0  0  0  0  0  0  0
   -7.4293   20.7498  -33.6036 H   0  0  0  0  0  0  0  0  0  0  0  0
   -9.1446   20.2163  -33.6036 H   0  0  0  0  0  0  0  0  0  0  0  0
   -8.2377   18.8906  -30.2646 H   0  0  0  0  0  0  0  0  0  0  0  0
   -9.7025   18.9963  -31.2989 H   0  0  0  0  0  0  0  0  0  0  0  0
   -8.7091   17.4997  -31.2989 H   0  0  0  0  0  0  0  0  0  0  0  0
   -4.9305   18.2545  -33.9486 H   0  0  0  0  0  0  0  0  0  0  0  0
   -6.4128   18.8362  -34.8040 H   0  0  0  0  0  0  0  0  0  0  0  0
   -5.9290   21.0220  -34.1980 H   0  0  0  0  0  0  0  0  0  0  0  0
   -3.0949   18.8950  -33.1820 H   0  0  0  0  0  0  0  0  0  0  0  0
   -1.2267   19.6247  -31.6644 H   0  0  0  0  0  0  0  0  0  0  0  0
   -0.4043   21.7253  -29.9141 H   0  0  0  0  0  0  0  0  0  0  0  0
   -3.1750   25.4260  -28.6500 H   0  0  0  0  0  0  0  0  0  0  0  0
   -1.7180   25.9940  -27.7680 H   0  0  0  0  0  0  0  0  0  0  0  0
   -5.2555   22.5761  -32.2849 H   0  0  0  0  0  0  0  0  0  0  0  0
  1  2  1  0
  2  3  1  0
  2  4  1  0
  4  5  2  0
  4  6  1  0
  6  7  1  0
  7  8  1  0
  8  9  2  0
  9 10  1  0
 10 11  2  0
 11 12  1  0
 12 13  2  0
 13 14  1  0
 14 15  1  0
 14 16  2  0
 13 17  1  0
 17 18  1  0
 18 19  2  0
 18 20  1  0
 17 21  1  0
 21 22  2  0
 22  8  1  0
 21 11  1  0
  1 23  1  0
  1 24  1  0
  1 25  1  0
  3 26  1  0
  3 27  1  0
  3 28  1  0
  6 29  1  0
  6 30  1  0
  7 31  1  0
  9 32  1  0
 10 33  1  0
 12 34  1  0
 15 35  1  0
 15 36  1  0
 22 37  1  0
M  CHG  1  20  -1
M  END
>  <UniqueID>  (80) 
79

>  <SMILES>  (80) 
CN(C)C(=O)CNc1ccc2cc(C(N)=O)n(C(=O)[O-])c2c1

>  <Energy>  (80) 
74.23742378464172

>  <Genealogy>  (80) 
CN(C)C(=O)CNc1ccc2cc(C(N)=O)n(C(=O)[O-])c2c1 (protonated)
CN(C)C(=O)CNc1ccc2cc(C(N)=O)n(C(=O)[O-])c2c1 (3D coordinates assigned)
CN(C)C(=O)CNc1ccc2cc(C(N)=O)n(C(=O)[O-])c2c1 (optimized conformer: 74.23742378464172 kcal/mol)

>  <smiles>  (80) 
CN(C)C(=O)CNc1ccc2cc(C(N)=O)n(C(=O)O)c2c1

>  <score_type>  (80) 
oracle

>  <origin>  (80) 
adg

>  <m_score__min__energy>  (80) 
-8.5700000000000003

>  <m_primary>  (80) 
energy

$$$$
80:0
     RDKit          3D

 33 34  0  0  0  0  0  0  0  0999 V2000
   -7.1300   17.4180  -32.7210 C   0  0  0  0  0  0  0  0  0  0  0  0
   -7.1980   18.5900  -32.4470 C   0  0  0  0  0  0  0  0  0  0  0  0
   -7.2780   19.9890  -32.1190 C   0  0  0  0  0  0  0  0  0  0  0  0
   -8.5300   20.6460  -32.1390 C   0  0  0  0  0  0  0  0  0  0  0  0
   -8.6240   22.0090  -31.8070 C   0  0  0  0  0  0  0  0  0  0  0  0
   -7.4510   22.6800  -31.4690 C   0  0  0  0  0  0  0  0  0  0  0  0
   -7.2580   23.9860  -31.0810 C   0  0  0  0  0  0  0  0  0  0  0  0
   -5.8890   24.1060  -30.8520 C   0  0  0  0  0  0  0  0  0  0  0  0
   -5.2320   25.3790  -30.4890 C   0  0  0  0  0  0  0  0  0  0  0  0
   -3.8650   25.5940  -30.8340 N   0  0  0  0  0  0  0  0  0  0  0  0
   -5.8520   26.2650  -29.8450 O   0  0  0  0  0  0  0  0  0  0  0  0
   -5.2610   22.9190  -31.0840 N   0  0  0  0  0  0  0  0  0  0  0  0
   -3.8720   22.6080  -30.8880 C   0  0  0  0  0  0  0  0  0  0  0  0
   -3.0100   23.0430  -31.7000 O   0  0  0  0  0  0  0  0  0  0  0  0
   -3.4850   21.7990  -29.8130 O   0  0  0  0  0  0  0  0  0  0  0  0
   -2.5450   22.2090  -28.8240 C   0  0  0  0  0  0  0  0  0  0  0  0
   -2.2440   23.6680  -28.9630 C   0  0  0  0  0  0  0  0  0  0  0  0
   -1.2750   24.0430  -29.6770 O   0  0  0  0  0  0  0  0  0  0  0  0
   -3.0600   24.6030  -28.3200 O   0  0  0  0  0  0  0  0  0  0  0  0
   -4.1370   24.2230  -27.4700 C   0  0  0  0  0  0  0  0  0  0  0  0
   -6.2280   22.0560  -31.4630 C   0  0  0  0  0  0  0  0  0  0  0  0
   -6.1090   20.6960  -31.7710 C   0  0  0  0  0  0  0  0  0  0  0  0
   -7.0680   16.3486  -32.9710 H   0  0  0  0  0  0  0  0  0  0  0  0
   -9.4361   20.0872  -32.4160 H   0  0  0  0  0  0  0  0  0  0  0  0
   -9.5933   22.5291  -31.8139 H   0  0  0  0  0  0  0  0  0  0  0  0
   -8.0227   24.7694  -30.9742 H   0  0  0  0  0  0  0  0  0  0  0  0
   -3.1190   24.9430  -30.5020 H   0  0  0  0  0  0  0  0  0  0  0  0
   -2.9641   22.0190  -27.8249 H   0  0  0  0  0  0  0  0  0  0  0  0
   -1.6142   21.6384  -28.9584 H   0  0  0  0  0  0  0  0  0  0  0  0
   -3.8305   24.3312  -26.4191 H   0  0  0  0  0  0  0  0  0  0  0  0
   -5.0052   24.8691  -27.6671 H   0  0  0  0  0  0  0  0  0  0  0  0
   -4.4075   23.1751  -27.6671 H   0  0  0  0  0  0  0  0  0  0  0  0
   -5.1312   20.1930  -31.7424 H   0  0  0  0  0  0  0  0  0  0  0  0
  1  2  3  0
  2  3  1  0
  3  4  2  0
  4  5  1  0
  5  6  2  0
  6  7  1  0
  7  8  2  0
  8  9  1  0
  9 10  1  0
  9 11  2  0
  8 12  1  0
 12 13  1  0
 13 14  2  0
 13 15  1  0
 15 16  1  0
 16 17  1  0
 17 18  2  0
 17 19  1  0
 19 20  1  0
 12 21  1  0
 21 22  2  0
 22  3  1  0
 21  6  1  0
  1 23  1  0
  4 24  1  0
  5 25  1  0
  7 26  1  0
 10 27  1  0
 16 28  1  0
 16 29  1  0
 20 30  1  0
 20 31  1  0
 20 32  1  0
 22 33  1  0
M  CHG  1  10  -1
M  END
>  <UniqueID>  (81) 
80

>  <SMILES>  (81) 
C#Cc1ccc2cc(C([NH-])=O)n(C(=O)OCC(=O)OC)c2c1

>  <Energy>  (81) 
65.56932904851156

>  <Genealogy>  (81) 
C#Cc1ccc2cc(C([NH-])=O)n(C(=O)OCC(=O)OC)c2c1 (protonated)
C#Cc1ccc2cc(C([NH-])=O)n(C(=O)OCC(=O)OC)c2c1 (3D coordinates assigned)
C#Cc1ccc2cc(C([NH-])=O)n(C(=O)OCC(=O)OC)c2c1 (optimized conformer: 65.56932904851156 kcal/mol)

>  <smiles>  (81) 
C#Cc1ccc2cc(C(N)=O)n(C(=O)OCC(=O)OC)c2c1

>  <score_type>  (81) 
oracle

>  <origin>  (81) 
adg

>  <m_score__min__energy>  (81) 
-10.300000000000001

>  <m_primary>  (81) 
energy

$$$$
81:0
     RDKit          3D

 37 38  0  0  0  0  0  0  0  0999 V2000
   -4.2140   24.5460  -27.0840 C   0  0  0  0  0  0  0  0  0  0  0  0
   -3.2590   23.5820  -27.4860 O   0  0  0  0  0  0  0  0  0  0  0  0
   -1.9480   24.1070  -27.3490 C   0  0  0  0  0  0  0  0  0  0  0  0
   -1.3450   24.4010  -28.6890 C   0  0  0  0  0  0  0  0  0  0  0  0
   -1.1580   25.5980  -29.0450 O   0  0  0  0  0  0  0  0  0  0  0  0
   -0.9280   23.3370  -29.4960 O   0  0  0  0  0  0  0  0  0  0  0  0
   -1.7270   22.7160  -30.4650 C   0  0  0  0  0  0  0  0  0  0  0  0
   -1.2020   22.0420  -31.3930 O   0  0  0  0  0  0  0  0  0  0  0  0
   -3.1470   22.9150  -30.4240 N   0  0  0  0  0  0  0  0  0  0  0  0
   -4.0620   22.3850  -31.3970 C   0  0  0  0  0  0  0  0  0  0  0  0
   -3.6610   21.5810  -32.2840 O   0  0  0  0  0  0  0  0  0  0  0  0
   -5.4480   22.7600  -31.3560 N   0  0  0  0  0  0  0  0  0  0  0  0
   -5.9820   23.9270  -30.8940 C   0  0  0  0  0  0  0  0  0  0  0  0
   -5.2220   25.1180  -30.4570 C   0  0  0  0  0  0  0  0  0  0  0  0
   -3.8610   25.3070  -30.8430 N   0  0  0  0  0  0  0  0  0  0  0  0
   -5.7940   26.0060  -29.7720 O   0  0  0  0  0  0  0  0  0  0  0  0
   -7.3730   23.8850  -30.9590 C   0  0  0  0  0  0  0  0  0  0  0  0
   -7.6790   22.6480  -31.4780 C   0  0  0  0  0  0  0  0  0  0  0  0
   -8.9180   22.0690  -31.7430 C   0  0  0  0  0  0  0  0  0  0  0  0
   -8.9360   20.7570  -32.2490 C   0  0  0  0  0  0  0  0  0  0  0  0
   -7.7270   20.0520  -32.4630 C   0  0  0  0  0  0  0  0  0  0  0  0
   -7.7600   18.7120  -32.9560 N   0  0  0  0  0  0  0  0  0  0  0  0
   -6.4890   20.6700  -32.1810 C   0  0  0  0  0  0  0  0  0  0  0  0
   -6.5010   21.9860  -31.7040 C   0  0  0  0  0  0  0  0  0  0  0  0
   -4.2541   24.5865  -25.9855 H   0  0  0  0  0  0  0  0  0  0  0  0
   -3.9270   25.5325  -27.4770 H   0  0  0  0  0  0  0  0  0  0  0  0
   -5.2031   24.2683  -27.4770 H   0  0  0  0  0  0  0  0  0  0  0  0
   -1.9921   25.0366  -26.7625 H   0  0  0  0  0  0  0  0  0  0  0  0
   -1.3224   23.3594  -26.8394 H   0  0  0  0  0  0  0  0  0  0  0  0
   -3.5330   23.4930  -29.6440 H   0  0  0  0  0  0  0  0  0  0  0  0
   -3.0920   25.2910  -30.1380 H   0  0  0  0  0  0  0  0  0  0  0  0
   -8.0779   24.6743  -30.6587 H   0  0  0  0  0  0  0  0  0  0  0  0
   -9.8525   22.6204  -31.5622 H   0  0  0  0  0  0  0  0  0  0  0  0
   -9.8971   20.2746  -32.4804 H   0  0  0  0  0  0  0  0  0  0  0  0
   -7.1430   17.9750  -32.5460 H   0  0  0  0  0  0  0  0  0  0  0  0
   -8.4020   18.4420  -33.7350 H   0  0  0  0  0  0  0  0  0  0  0  0
   -5.5414   20.1322  -32.3320 H   0  0  0  0  0  0  0  0  0  0  0  0
  1  2  1  0
  2  3  1  0
  3  4  1  0
  4  5  2  0
  4  6  1  0
  6  7  1  0
  7  8  2  0
  7  9  1  0
  9 10  1  0
 10 11  2  0
 10 12  1  0
 12 13  1  0
 13 14  1  0
 14 15  1  0
 14 16  2  0
 13 17  2  0
 17 18  1  0
 18 19  2  0
 19 20  1  0
 20 21  2  0
 21 22  1  0
 21 23  1  0
 23 24  2  0
 24 12  1  0
 24 18  1  0
  1 25  1  0
  1 26  1  0
  1 27  1  0
  3 28  1  0
  3 29  1  0
  9 30  1  0
 15 31  1  0
 17 32  1  0
 19 33  1  0
 20 34  1  0
 22 35  1  0
 22 36  1  0
 23 37  1  0
M  CHG  1  15  -1
M  END
>  <UniqueID>  (82) 
81

>  <SMILES>  (82) 
COCC(=O)OC(=O)NC(=O)n1c(C([NH-])=O)cc2ccc(N)cc21

>  <Energy>  (82) 
78.3134179740281

>  <Genealogy>  (82) 
COCC(=O)OC(=O)NC(=O)n1c(C([NH-])=O)cc2ccc(N)cc21 (protonated)
COCC(=O)OC(=O)NC(=O)n1c(C([NH-])=O)cc2ccc(N)cc21 (3D coordinates assigned)
COCC(=O)OC(=O)NC(=O)n1c(C([NH-])=O)cc2ccc(N)cc21 (optimized conformer: 78.3134179740281 kcal/mol)

>  <smiles>  (82) 
COCC(=O)OC(=O)NC(=O)n1c(C(N)=O)cc2ccc(N)cc21

>  <score_type>  (82) 
oracle

>  <origin>  (82) 
adg

>  <m_score__min__energy>  (82) 
-9.5199999999999996

>  <m_primary>  (82) 
energy

$$$$
82:0
     RDKit          3D

 46 48  0  0  0  0  0  0  0  0999 V2000
   -1.5040   22.1830  -31.0170 C   0  0  0  0  0  0  0  0  0  0  0  0
   -2.3350   20.9400  -31.3670 C   0  0  0  0  0  0  0  0  0  0  0  0
   -3.3600   20.6920  -30.2440 C   0  0  0  0  0  0  0  0  0  0  0  0
   -1.3880   19.7340  -31.5140 C   0  0  0  0  0  0  0  0  0  0  0  0
   -3.0040   21.2140  -32.6070 O   0  0  0  0  0  0  0  0  0  0  0  0
   -3.8350   20.3350  -33.3170 C   0  0  0  0  0  0  0  0  0  0  0  0
   -3.3570   19.5350  -34.1660 O   0  0  0  0  0  0  0  0  0  0  0  0
   -5.2460   20.3310  -33.0540 N   0  0  0  0  0  0  0  0  0  0  0  0
   -6.1580   19.3830  -33.4120 C   0  0  0  0  0  0  0  0  0  0  0  0
   -5.8510   18.0630  -34.0000 C   0  0  0  0  0  0  0  0  0  0  0  0
   -5.3510   17.9510  -35.3300 N   0  0  0  0  0  0  0  0  0  0  0  0
   -5.9830   17.0220  -33.3020 O   0  0  0  0  0  0  0  0  0  0  0  0
   -7.4460   19.7900  -33.0740 C   0  0  0  0  0  0  0  0  0  0  0  0
   -7.2960   21.0250  -32.4860 C   0  0  0  0  0  0  0  0  0  0  0  0
   -8.2540   21.8900  -31.9650 C   0  0  0  0  0  0  0  0  0  0  0  0
   -7.8160   23.1170  -31.4390 C   0  0  0  0  0  0  0  0  0  0  0  0
   -6.4430   23.4630  -31.4630 C   0  0  0  0  0  0  0  0  0  0  0  0
   -5.9820   24.7660  -30.8720 C   0  0  0  0  0  0  0  0  0  0  0  0
   -4.8070   24.5320  -29.9790 C   0  0  0  0  0  0  0  0  0  0  0  0
   -4.7360   23.5990  -28.9620 C   0  0  0  0  0  0  0  0  0  0  0  0
   -3.4640   23.7110  -28.4400 C   0  0  0  0  0  0  0  0  0  0  0  0
   -2.8430   24.7020  -29.1770 C   0  0  0  0  0  0  0  0  0  0  0  0
   -1.4670   25.1750  -28.9920 C   0  0  0  0  0  0  0  0  0  0  0  0
   -1.2240   26.4100  -28.9700 O   0  0  0  0  0  0  0  0  0  0  0  0
   -0.4280   24.2660  -28.8410 O   0  0  0  0  0  0  0  0  0  0  0  0
   -3.6640   25.1710  -30.0880 O   0  0  0  0  0  0  0  0  0  0  0  0
   -5.4980   22.5540  -31.9890 C   0  0  0  0  0  0  0  0  0  0  0  0
   -5.9600   21.3300  -32.4870 C   0  0  0  0  0  0  0  0  0  0  0  0
   -1.4370   22.2833  -29.9236 H   0  0  0  0  0  0  0  0  0  0  0  0
   -0.4932   22.0789  -31.4383 H   0  0  0  0  0  0  0  0  0  0  0  0
   -1.9865   23.0772  -31.4383 H   0  0  0  0  0  0  0  0  0  0  0  0
   -2.8692   20.8108  -29.2668 H   0  0  0  0  0  0  0  0  0  0  0  0
   -4.1826   21.4170  -30.3317 H   0  0  0  0  0  0  0  0  0  0  0  0
   -3.7602   19.6711  -30.3317 H   0  0  0  0  0  0  0  0  0  0  0  0
   -1.1015   19.3691  -30.5166 H   0  0  0  0  0  0  0  0  0  0  0  0
   -1.8995   18.9312  -32.0652 H   0  0  0  0  0  0  0  0  0  0  0  0
   -0.4868   20.0405  -32.0652 H   0  0  0  0  0  0  0  0  0  0  0  0
   -4.3740   18.2350  -35.5630 H   0  0  0  0  0  0  0  0  0  0  0  0
   -8.3843   19.2408  -33.2415 H   0  0  0  0  0  0  0  0  0  0  0  0
   -9.3207   21.6213  -31.9651 H   0  0  0  0  0  0  0  0  0  0  0  0
   -8.5464   23.8154  -31.0045 H   0  0  0  0  0  0  0  0  0  0  0  0
   -5.6936   25.4521  -31.6820 H   0  0  0  0  0  0  0  0  0  0  0  0
   -6.8009   25.2072  -30.2849 H   0  0  0  0  0  0  0  0  0  0  0  0
   -5.5292   22.9100  -28.6363 H   0  0  0  0  0  0  0  0  0  0  0  0
   -3.0333   23.1320  -27.6098 H   0  0  0  0  0  0  0  0  0  0  0  0
   -4.4264   22.8018  -32.0068 H   0  0  0  0  0  0  0  0  0  0  0  0
  1  2  1  0
  2  3  1  0
  2  4  1  0
  2  5  1  0
  5  6  1  0
  6  7  2  0
  6  8  1  0
  8  9  1  0
  9 10  1  0
 10 11  1  0
 10 12  2  0
  9 13  2  0
 13 14  1  0
 14 15  2  0
 15 16  1  0
 16 17  2  0
 17 18  1  0
 18 19  1  0
 19 20  2  0
 20 21  1  0
 21 22  2  0
 22 23  1  0
 23 24  2  0
 23 25  1  0
 22 26  1  0
 17 27  1  0
 27 28  2  0
 28  8  1  0
 28 14  1  0
 26 19  1  0
  1 29  1  0
  1 30  1  0
  1 31  1  0
  3 32  1  0
  3 33  1  0
  3 34  1  0
  4 35  1  0
  4 36  1  0
  4 37  1  0
 11 38  1  0
 13 39  1  0
 15 40  1  0
 16 41  1  0
 18 42  1  0
 18 43  1  0
 20 44  1  0
 21 45  1  0
 27 46  1  0
M  CHG  2  11  -1  25  -1
M  END
>  <UniqueID>  (83) 
82

>  <SMILES>  (83) 
CC(C)(C)OC(=O)n1c(C([NH-])=O)cc2ccc(Cc3ccc(C(=O)[O-])o3)cc21

>  <Energy>  (83) 
104.97569260831936

>  <Genealogy>  (83) 
CC(C)(C)OC(=O)n1c(C([NH-])=O)cc2ccc(Cc3ccc(C(=O)[O-])o3)cc21 (protonated)
CC(C)(C)OC(=O)n1c(C([NH-])=O)cc2ccc(Cc3ccc(C(=O)[O-])o3)cc21 (3D coordinates assigned)
CC(C)(C)OC(=O)n1c(C([NH-])=O)cc2ccc(Cc3ccc(C(=O)[O-])o3)cc21 (optimized conformer: 104.97569260831936 kcal/mol)

>  <smiles>  (83) 
CC(C)(C)OC(=O)n1c(C(N)=O)cc2ccc(Cc3ccc(C(=O)O)o3)cc21

>  <score_type>  (83) 
oracle

>  <origin>  (83) 
adg

>  <m_score__min__energy>  (83) 
-10.91

>  <m_primary>  (83) 
energy

$$$$
83:0
     RDKit          3D

 43 44  0  0  0  0  0  0  0  0999 V2000
   -8.7120   23.4030  -31.8250 C   0  0  0  0  0  0  0  0  0  0  0  0
   -7.2580   23.5530  -31.7030 N   0  0  0  0  0  0  0  0  0  0  0  0
   -6.3780   22.9070  -32.6840 C   0  0  0  0  0  0  0  0  0  0  0  0
   -6.7310   24.4260  -30.6820 C   0  0  0  0  0  0  0  0  0  0  0  0
   -7.4930   25.2770  -30.1450 O   0  0  0  0  0  0  0  0  0  0  0  0
   -5.3290   24.3490  -30.2150 C   0  0  0  0  0  0  0  0  0  0  0  0
   -4.3920   24.7490  -30.9560 O   0  0  0  0  0  0  0  0  0  0  0  0
   -5.0350   23.7780  -28.9310 N   0  0  0  0  0  0  0  0  0  0  0  0
   -3.7390   23.2760  -28.5710 C   0  0  0  0  0  0  0  0  0  0  0  0
   -3.4450   23.1500  -27.3530 O   0  0  0  0  0  0  0  0  0  0  0  0
   -2.8000   22.8560  -29.5740 N   0  0  0  0  0  0  0  0  0  0  0  0
   -1.5200   23.2880  -29.7570 C   0  0  0  0  0  0  0  0  0  0  0  0
   -0.8660   24.4010  -29.0340 C   0  0  0  0  0  0  0  0  0  0  0  0
   -1.4510   25.7000  -28.9960 N   0  0  0  0  0  0  0  0  0  0  0  0
    0.2370   24.2060  -28.4570 O   0  0  0  0  0  0  0  0  0  0  0  0
   -0.9070   22.5690  -30.7830 C   0  0  0  0  0  0  0  0  0  0  0  0
   -1.8610   21.6800  -31.2270 C   0  0  0  0  0  0  0  0  0  0  0  0
   -1.7950   20.7190  -32.2280 C   0  0  0  0  0  0  0  0  0  0  0  0
   -2.9340   19.9290  -32.4620 C   0  0  0  0  0  0  0  0  0  0  0  0
   -4.1180   20.1020  -31.6930 C   0  0  0  0  0  0  0  0  0  0  0  0
   -5.2930   19.2930  -31.9490 N   0  0  0  0  0  0  0  0  0  0  0  0
   -5.1630   17.9480  -32.5260 C   0  0  0  0  0  0  0  0  0  0  0  0
   -6.6300   19.8110  -31.6370 C   0  0  0  0  0  0  0  0  0  0  0  0
   -4.1310   21.0850  -30.6710 C   0  0  0  0  0  0  0  0  0  0  0  0
   -2.9900   21.8710  -30.4790 C   0  0  0  0  0  0  0  0  0  0  0  0
   -9.1613   23.3567  -30.8220 H   0  0  0  0  0  0  0  0  0  0  0  0
   -9.1247   24.2633  -32.3722 H   0  0  0  0  0  0  0  0  0  0  0  0
   -8.9404   22.4765  -32.3722 H   0  0  0  0  0  0  0  0  0  0  0  0
   -5.5994   22.3354  -32.1577 H   0  0  0  0  0  0  0  0  0  0  0  0
   -6.9690   22.2267  -33.3148 H   0  0  0  0  0  0  0  0  0  0  0  0
   -5.9061   23.6747  -33.3148 H   0  0  0  0  0  0  0  0  0  0  0  0
   -5.7860   23.7650  -28.2040 H   0  0  0  0  0  0  0  0  0  0  0  0
   -1.2240   26.4150  -29.7190 H   0  0  0  0  0  0  0  0  0  0  0  0
    0.1203   22.6869  -31.1581 H   0  0  0  0  0  0  0  0  0  0  0  0
   -0.8784   20.5803  -32.8201 H   0  0  0  0  0  0  0  0  0  0  0  0
   -2.9092   19.1646  -33.2527 H   0  0  0  0  0  0  0  0  0  0  0  0
   -5.0914   17.2070  -31.7162 H   0  0  0  0  0  0  0  0  0  0  0  0
   -6.0441   17.7286  -33.1469 H   0  0  0  0  0  0  0  0  0  0  0  0
   -4.2562   17.9014  -33.1469 H   0  0  0  0  0  0  0  0  0  0  0  0
   -6.7585   19.8608  -30.5457 H   0  0  0  0  0  0  0  0  0  0  0  0
   -6.7424   20.8178  -32.0657 H   0  0  0  0  0  0  0  0  0  0  0  0
   -7.3914   19.1428  -32.0657 H   0  0  0  0  0  0  0  0  0  0  0  0
   -5.0216   21.2267  -30.0411 H   0  0  0  0  0  0  0  0  0  0  0  0
  1  2  1  0
  2  3  1  0
  2  4  1  0
  4  5  2  0
  4  6  1  0
  6  7  2  0
  6  8  1  0
  8  9  1  0
  9 10  2  0
  9 11  1  0
 11 12  1  0
 12 13  1  0
 13 14  1  0
 13 15  2  0
 12 16  2  0
 16 17  1  0
 17 18  2  0
 18 19  1  0
 19 20  2  0
 20 21  1  0
 21 22  1  0
 21 23  1  0
 20 24  1  0
 24 25  2  0
 25 11  1  0
 25 17  1  0
  1 26  1  0
  1 27  1  0
  1 28  1  0
  3 29  1  0
  3 30  1  0
  3 31  1  0
  8 32  1  0
 14 33  1  0
 16 34  1  0
 18 35  1  0
 19 36  1  0
 22 37  1  0
 22 38  1  0
 22 39  1  0
 23 40  1  0
 23 41  1  0
 23 42  1  0
 24 43  1  0
M  CHG  1  14  -1
M  END
>  <UniqueID>  (84) 
83

>  <SMILES>  (84) 
CN(C)C(=O)C(=O)NC(=O)n1c(C([NH-])=O)cc2ccc(N(C)C)cc21

>  <Energy>  (84) 
83.48128407136458

>  <Genealogy>  (84) 
CN(C)C(=O)C(=O)NC(=O)n1c(C([NH-])=O)cc2ccc(N(C)C)cc21 (protonated)
CN(C)C(=O)C(=O)NC(=O)n1c(C([NH-])=O)cc2ccc(N(C)C)cc21 (3D coordinates assigned)
CN(C)C(=O)C(=O)NC(=O)n1c(C([NH-])=O)cc2ccc(N(C)C)cc21 (optimized conformer: 83.48128407136458 kcal/mol)

>  <smiles>  (84) 
CN(C)C(=O)C(=O)NC(=O)n1c(C(N)=O)cc2ccc(N(C)C)cc21

>  <score_type>  (84) 
oracle

>  <origin>  (84) 
adg

>  <m_score__min__energy>  (84) 
-10.289999999999999

>  <m_primary>  (84) 
energy

$$$$
84:0
     RDKit          3D

 55 58  0  0  0  0  0  0  0  0999 V2000
   -5.2390   15.5100  -33.5060 C   0  0  0  0  0  0  0  0  0  0  0  0
   -6.4320   16.3940  -33.8830 C   0  0  0  0  0  0  0  0  0  0  0  0
   -7.0640   17.1020  -32.7240 C   0  0  0  0  0  0  0  0  0  0  0  0
   -6.6860   18.4640  -33.1500 N   0  0  0  0  0  0  0  0  0  0  0  0
   -6.8760   19.8020  -32.6850 C   0  0  0  0  0  0  0  0  0  0  0  0
   -8.1740   20.3630  -32.6430 C   0  0  0  0  0  0  0  0  0  0  0  0
   -8.3680   21.6750  -32.1820 C   0  0  0  0  0  0  0  0  0  0  0  0
   -7.2510   22.3900  -31.7550 C   0  0  0  0  0  0  0  0  0  0  0  0
   -7.1500   23.6720  -31.2680 C   0  0  0  0  0  0  0  0  0  0  0  0
   -5.7950   23.8590  -30.9930 C   0  0  0  0  0  0  0  0  0  0  0  0
   -5.2470   25.0870  -30.3790 C   0  0  0  0  0  0  0  0  0  0  0  0
   -3.8560   25.3790  -30.5000 N   0  0  0  0  0  0  0  0  0  0  0  0
   -5.9970   25.8960  -29.7730 O   0  0  0  0  0  0  0  0  0  0  0  0
   -5.0870   22.7370  -31.3040 N   0  0  0  0  0  0  0  0  0  0  0  0
   -3.6680   22.5320  -31.2000 C   0  0  0  0  0  0  0  0  0  0  0  0
   -3.0620   21.9080  -32.1130 O   0  0  0  0  0  0  0  0  0  0  0  0
   -2.9550   23.0200  -30.0530 N   0  0  0  0  0  0  0  0  0  0  0  0
   -1.5800   22.7120  -29.7700 C   0  0  0  0  0  0  0  0  0  0  0  0
   -0.8250   22.2930  -30.6900 O   0  0  0  0  0  0  0  0  0  0  0  0
   -1.0400   23.0060  -28.4590 N   0  0  2  0  0  0  0  0  0  0  0  0
   -1.9720   22.7950  -27.3350 C   0  0  0  0  0  0  0  0  0  0  0  0
   -1.9520   24.2700  -26.9490 C   0  0  1  0  0  0  0  0  0  0  0  0
   -1.3810   24.5420  -25.6010 N   0  0  0  0  0  0  0  0  0  0  0  0
   -1.2970   25.9950  -25.3800 C   0  0  0  0  0  0  0  0  0  0  0  0
   -0.0780   23.9100  -25.2960 C   0  0  0  0  0  0  0  0  0  0  0  0
   -1.0250   24.4470  -28.1510 C   0  0  0  0  0  0  0  0  0  0  0  0
   -5.9920   21.8490  -31.7730 C   0  0  0  0  0  0  0  0  0  0  0  0
   -5.7670   20.5580  -32.2590 C   0  0  0  0  0  0  0  0  0  0  0  0
   -6.0580   17.7860  -34.2990 C   0  0  0  0  0  0  0  0  0  0  0  0
   -5.1585   15.4504  -32.4106 H   0  0  0  0  0  0  0  0  0  0  0  0
   -5.3856   14.5008  -33.9184 H   0  0  0  0  0  0  0  0  0  0  0  0
   -4.3162   15.9441  -33.9184 H   0  0  0  0  0  0  0  0  0  0  0  0
   -6.9597   15.6772  -34.5293 H   0  0  0  0  0  0  0  0  0  0  0  0
   -8.1536   16.9574  -32.6806 H   0  0  0  0  0  0  0  0  0  0  0  0
   -6.7559   16.7881  -31.7158 H   0  0  0  0  0  0  0  0  0  0  0  0
   -9.0374   19.7671  -32.9738 H   0  0  0  0  0  0  0  0  0  0  0  0
   -9.3716   22.1248  -32.1587 H   0  0  0  0  0  0  0  0  0  0  0  0
   -7.9651   24.3968  -31.1254 H   0  0  0  0  0  0  0  0  0  0  0  0
   -3.5090   26.0500  -31.2200 H   0  0  0  0  0  0  0  0  0  0  0  0
   -3.4790   23.6000  -29.3590 H   0  0  0  0  0  0  0  0  0  0  0  0
   -0.1090   22.5530  -28.2990 H   0  0  0  0  0  0  0  0  0  0  0  0
   -2.9637   22.4372  -27.6488 H   0  0  0  0  0  0  0  0  0  0  0  0
   -1.7255   22.0413  -26.5727 H   0  0  0  0  0  0  0  0  0  0  0  0
   -2.8539   24.8874  -26.8249 H   0  0  0  0  0  0  0  0  0  0  0  0
   -1.2851   26.2015  -24.2996 H   0  0  0  0  0  0  0  0  0  0  0  0
   -0.3749   26.3828  -25.8376 H   0  0  0  0  0  0  0  0  0  0  0  0
   -2.1682   26.4865  -25.8376 H   0  0  0  0  0  0  0  0  0  0  0  0
    0.0525   23.8467  -24.2056 H   0  0  0  0  0  0  0  0  0  0  0  0
   -0.0510   22.8987  -25.7278 H   0  0  0  0  0  0  0  0  0  0  0  0
    0.7329   24.5149  -25.7278 H   0  0  0  0  0  0  0  0  0  0  0  0
   -1.4548   25.0708  -28.9486 H   0  0  0  0  0  0  0  0  0  0  0  0
   -0.0583   24.9523  -28.0094 H   0  0  0  0  0  0  0  0  0  0  0  0
   -4.7494   20.1430  -32.3075 H   0  0  0  0  0  0  0  0  0  0  0  0
   -6.5057   18.0769  -35.2607 H   0  0  0  0  0  0  0  0  0  0  0  0
   -4.9915   17.9867  -34.4786 H   0  0  0  0  0  0  0  0  0  0  0  0
  1  2  1  0
  2  3  1  0
  3  4  1  0
  4  5  1  0
  5  6  2  0
  6  7  1  0
  7  8  2  0
  8  9  1  0
  9 10  2  0
 10 11  1  0
 11 12  1  0
 11 13  2  0
 10 14  1  0
 14 15  1  0
 15 16  2  0
 15 17  1  0
 17 18  1  0
 18 19  2  0
 18 20  1  0
 20 21  1  0
 21 22  1  0
 22 23  1  0
 23 24  1  0
 23 25  1  0
 22 26  1  0
 14 27  1  0
 27 28  2  0
  4 29  1  0
 29  2  1  0
 28  5  1  0
 27  8  1  0
 26 20  1  0
  1 30  1  0
  1 31  1  0
  1 32  1  0
  2 33  1  0
  3 34  1  0
  3 35  1  0
  6 36  1  0
  7 37  1  0
  9 38  1  0
 12 39  1  0
 17 40  1  0
 20 41  1  1
 21 42  1  0
 21 43  1  0
 22 44  1  6
 24 45  1  0
 24 46  1  0
 24 47  1  0
 25 48  1  0
 25 49  1  0
 25 50  1  0
 26 51  1  0
 26 52  1  0
 28 53  1  0
 29 54  1  0
 29 55  1  0
M  CHG  2  12  -1  20   1
M  END
>  <UniqueID>  (85) 
84

>  <SMILES>  (85) 
CC1CN(c2ccc3cc(C([NH-])=O)n(C(=O)NC(=O)[NH+]4CC(N(C)C)C4)c3c2)C1

>  <Energy>  (85) 
220.2215232284926

>  <Genealogy>  (85) 
CC1CN(c2ccc3cc(C([NH-])=O)n(C(=O)NC(=O)[NH+]4CC(N(C)C)C4)c3c2)C1 (protonated)
CC1CN(c2ccc3cc(C([NH-])=O)n(C(=O)NC(=O)[NH+]4CC(N(C)C)C4)c3c2)C1 (3D coordinates assigned)
CC1CN(c2ccc3cc(C([NH-])=O)n(C(=O)NC(=O)[NH+]4CC(N(C)C)C4)c3c2)C1 (nonaromatic ring conformer: 220.2215232284926 kcal/mol)

>  <smiles>  (85) 
CC1CN(c2ccc3cc(C(N)=O)n(C(=O)NC(=O)N4CC(N(C)C)C4)c3c2)C1

>  <score_type>  (85) 
oracle

>  <origin>  (85) 
adg

>  <m_score__min__energy>  (85) 
-11.15

>  <m_primary>  (85) 
energy

$$$$
85:0
     RDKit          3D

 42 44  0  0  0  0  0  0  0  0999 V2000
   -1.8740   20.2890  -26.7870 C   0  0  0  0  0  0  0  0  0  0  0  0
   -1.8030   21.7100  -26.7750 O   0  0  0  0  0  0  0  0  0  0  0  0
   -2.5420   22.5080  -27.6550 C   0  0  0  0  0  0  0  0  0  0  0  0
   -3.2780   23.4380  -27.2140 O   0  0  0  0  0  0  0  0  0  0  0  0
   -2.4710   22.2420  -29.1280 C   0  0  2  0  0  0  0  0  0  0  0  0
   -2.0810   23.4290  -29.8180 O   0  0  0  0  0  0  0  0  0  0  0  0
   -1.3380   24.4580  -29.2310 C   0  0  0  0  0  0  0  0  0  0  0  0
   -0.1210   24.3020  -28.9510 O   0  0  0  0  0  0  0  0  0  0  0  0
   -1.9510   25.6720  -28.9580 O   0  0  0  0  0  0  0  0  0  0  0  0
   -3.7470   21.8200  -29.6040 O   0  0  0  0  0  0  0  0  0  0  0  0
   -4.2030   22.0800  -30.9010 C   0  0  0  0  0  0  0  0  0  0  0  0
   -3.4210   21.9580  -31.8840 O   0  0  0  0  0  0  0  0  0  0  0  0
   -5.5720   22.4670  -31.1110 N   0  0  0  0  0  0  0  0  0  0  0  0
   -6.1410   23.6730  -30.8320 C   0  0  0  0  0  0  0  0  0  0  0  0
   -5.4150   24.8850  -30.3980 C   0  0  0  0  0  0  0  0  0  0  0  0
   -4.3830   24.8010  -29.4130 N   0  0  0  0  0  0  0  0  0  0  0  0
   -5.7320   26.0140  -30.8600 O   0  0  0  0  0  0  0  0  0  0  0  0
   -7.5080   23.6430  -31.0980 C   0  0  0  0  0  0  0  0  0  0  0  0
   -7.7620   22.3710  -31.5540 C   0  0  0  0  0  0  0  0  0  0  0  0
   -8.9590   21.7880  -31.9530 C   0  0  0  0  0  0  0  0  0  0  0  0
   -8.9400   20.4400  -32.3470 C   0  0  0  0  0  0  0  0  0  0  0  0
   -7.7270   19.6910  -32.3270 C   0  0  0  0  0  0  0  0  0  0  0  0
   -7.6390   18.2250  -32.7180 C   0  0  0  0  0  0  0  0  0  0  0  0
   -6.4950   17.4110  -32.1280 C   0  0  0  0  0  0  0  0  0  0  0  0
   -6.4690   17.8080  -33.6000 C   0  0  0  0  0  0  0  0  0  0  0  0
   -6.5340   20.3280  -31.9160 C   0  0  0  0  0  0  0  0  0  0  0  0
   -6.5800   21.6770  -31.5490 C   0  0  0  0  0  0  0  0  0  0  0  0
   -1.8927   19.9141  -25.7530 H   0  0  0  0  0  0  0  0  0  0  0  0
   -2.7891   19.9720  -27.3086 H   0  0  0  0  0  0  0  0  0  0  0  0
   -0.9951   19.8823  -27.3086 H   0  0  0  0  0  0  0  0  0  0  0  0
   -1.7289   21.4511  -29.3118 H   0  0  0  0  0  0  0  0  0  0  0  0
   -4.0630   23.8790  -29.0420 H   0  0  0  0  0  0  0  0  0  0  0  0
   -3.8970   25.6670  -29.0870 H   0  0  0  0  0  0  0  0  0  0  0  0
   -8.2305   24.4626  -30.9704 H   0  0  0  0  0  0  0  0  0  0  0  0
   -9.8948   22.3661  -31.9600 H   0  0  0  0  0  0  0  0  0  0  0  0
   -9.8720   19.9564  -32.6749 H   0  0  0  0  0  0  0  0  0  0  0  0
   -8.7317   18.1081  -32.7671 H   0  0  0  0  0  0  0  0  0  0  0  0
   -5.7953   17.8786  -31.4197 H   0  0  0  0  0  0  0  0  0  0  0  0
   -6.4188   16.4622  -31.5767 H   0  0  0  0  0  0  0  0  0  0  0  0
   -5.7506   18.5622  -33.9538 H   0  0  0  0  0  0  0  0  0  0  0  0
   -6.3664   17.2645  -34.5508 H   0  0  0  0  0  0  0  0  0  0  0  0
   -5.5853   19.7722  -31.8853 H   0  0  0  0  0  0  0  0  0  0  0  0
  1  2  1  0
  2  3  1  0
  3  4  2  0
  3  5  1  0
  5  6  1  0
  6  7  1  0
  7  8  2  0
  7  9  1  0
  5 10  1  0
 10 11  1  0
 11 12  2  0
 11 13  1  0
 13 14  1  0
 14 15  1  0
 15 16  1  0
 15 17  2  0
 14 18  2  0
 18 19  1  0
 19 20  2  0
 20 21  1  0
 21 22  2  0
 22 23  1  0
 23 24  1  0
 24 25  1  0
 22 26  1  0
 26 27  2  0
 27 13  1  0
 27 19  1  0
 25 23  1  0
  1 28  1  0
  1 29  1  0
  1 30  1  0
  5 31  1  1
 16 32  1  0
 16 33  1  0
 18 34  1  0
 20 35  1  0
 21 36  1  0
 23 37  1  0
 24 38  1  0
 24 39  1  0
 25 40  1  0
 25 41  1  0
 26 42  1  0
M  CHG  1   9  -1
M  END
>  <UniqueID>  (86) 
85

>  <SMILES>  (86) 
COC(=O)[C@H](OC(=O)[O-])OC(=O)n1c(C(N)=O)cc2ccc(C3CC3)cc21

>  <Energy>  (86) 
344.2680237177367

>  <Genealogy>  (86) 
COC(=O)C(OC(=O)[O-])OC(=O)n1c(C(N)=O)cc2ccc(C3CC3)cc21 (protonated)
COC(=O)[C@H](OC(=O)[O-])OC(=O)n1c(C(N)=O)cc2ccc(C3CC3)cc21 (chirality)
COC(=O)[C@H](OC(=O)[O-])OC(=O)n1c(C(N)=O)cc2ccc(C3CC3)cc21 (3D coordinates assigned)
COC(=O)[C@H](OC(=O)[O-])OC(=O)n1c(C(N)=O)cc2ccc(C3CC3)cc21 (nonaromatic ring conformer: 344.2680237177367 kcal/mol)

>  <smiles>  (86) 
COC(=O)C(OC(=O)O)OC(=O)n1c(C(N)=O)cc2ccc(C3CC3)cc21

>  <score_type>  (86) 
oracle

>  <origin>  (86) 
adg

>  <m_score__min__energy>  (86) 
-9.5299999999999994

>  <m_primary>  (86) 
energy

$$$$
86:0
     RDKit          3D

 40 41  0  0  0  0  0  0  0  0999 V2000
   -2.9730   20.6720  -29.7640 C   0  0  0  0  0  0  0  0  0  0  0  0
   -3.3160   22.1020  -29.7220 N   0  0  0  0  0  0  0  0  0  0  0  0
   -3.8780   22.6670  -30.9290 C   0  0  0  0  0  0  0  0  0  0  0  0
   -3.1120   23.0360  -31.8610 O   0  0  0  0  0  0  0  0  0  0  0  0
   -5.2960   22.8320  -31.0870 N   0  0  0  0  0  0  0  0  0  0  0  0
   -6.0330   23.9670  -30.9210 C   0  0  0  0  0  0  0  0  0  0  0  0
   -5.5150   25.2750  -30.4680 C   0  0  0  0  0  0  0  0  0  0  0  0
   -4.1990   25.6830  -30.8350 N   0  0  0  0  0  0  0  0  0  0  0  0
   -6.2300   26.0460  -29.7760 O   0  0  0  0  0  0  0  0  0  0  0  0
   -7.3820   23.7120  -31.1620 C   0  0  0  0  0  0  0  0  0  0  0  0
   -7.4510   22.3690  -31.4570 C   0  0  0  0  0  0  0  0  0  0  0  0
   -8.5520   21.5710  -31.7510 C   0  0  0  0  0  0  0  0  0  0  0  0
   -8.3300   20.2060  -31.9960 C   0  0  0  0  0  0  0  0  0  0  0  0
   -7.0180   19.6650  -31.9570 C   0  0  0  0  0  0  0  0  0  0  0  0
   -6.7980   18.1890  -32.1740 C   0  0  0  0  0  0  0  0  0  0  0  0
   -6.0250   18.0050  -33.3040 F   0  0  0  0  0  0  0  0  0  0  0  0
   -6.1520   17.6260  -31.0870 F   0  0  0  0  0  0  0  0  0  0  0  0
   -8.0070   17.5360  -32.3430 F   0  0  0  0  0  0  0  0  0  0  0  0
   -5.9290   20.5040  -31.6270 C   0  0  0  0  0  0  0  0  0  0  0  0
   -6.1810   21.8600  -31.3920 C   0  0  0  0  0  0  0  0  0  0  0  0
   -2.8100   22.9960  -28.6390 C   0  0  0  0  0  0  0  0  0  0  0  0
   -2.2250   22.1320  -27.4990 C   0  0  0  0  0  0  0  0  0  0  0  0
   -3.9280   23.8740  -28.0210 C   0  0  0  0  0  0  0  0  0  0  0  0
   -1.7540   23.9330  -29.1920 C   0  0  0  0  0  0  0  0  0  0  0  0
   -0.6330   23.4790  -29.5460 O   0  0  0  0  0  0  0  0  0  0  0  0
   -1.9950   25.2990  -29.3140 O   0  0  0  0  0  0  0  0  0  0  0  0
   -2.8806   20.2868  -28.7378 H   0  0  0  0  0  0  0  0  0  0  0  0
   -3.7643   20.1205  -30.2928 H   0  0  0  0  0  0  0  0  0  0  0  0
   -2.0176   20.5395  -30.2928 H   0  0  0  0  0  0  0  0  0  0  0  0
   -3.4160   24.9940  -30.8770 H   0  0  0  0  0  0  0  0  0  0  0  0
   -8.2140   24.4306  -31.1245 H   0  0  0  0  0  0  0  0  0  0  0  0
   -9.5657   21.9962  -31.7904 H   0  0  0  0  0  0  0  0  0  0  0  0
   -9.1827   19.5484  -32.2207 H   0  0  0  0  0  0  0  0  0  0  0  0
   -4.9081   20.1004  -31.5567 H   0  0  0  0  0  0  0  0  0  0  0  0
   -2.5151   22.5605  -26.5283 H   0  0  0  0  0  0  0  0  0  0  0  0
   -2.6155   21.1067  -27.5786 H   0  0  0  0  0  0  0  0  0  0  0  0
   -1.1280   22.1138  -27.5786 H   0  0  0  0  0  0  0  0  0  0  0  0
   -3.8673   23.8263  -26.9237 H   0  0  0  0  0  0  0  0  0  0  0  0
   -3.8003   24.9157  -28.3504 H   0  0  0  0  0  0  0  0  0  0  0  0
   -4.9098   23.5030  -28.3504 H   0  0  0  0  0  0  0  0  0  0  0  0
  1  2  1  0
  2  3  1  0
  3  4  2  0
  3  5  1  0
  5  6  1  0
  6  7  1  0
  7  8  1  0
  7  9  2  0
  6 10  2  0
 10 11  1  0
 11 12  2  0
 12 13  1  0
 13 14  2  0
 14 15  1  0
 15 16  1  0
 15 17  1  0
 15 18  1  0
 14 19  1  0
 19 20  2  0
  2 21  1  0
 21 22  1  0
 21 23  1  0
 21 24  1  0
 24 25  2  0
 24 26  1  0
 20  5  1  0
 20 11  1  0
  1 27  1  0
  1 28  1  0
  1 29  1  0
  8 30  1  0
 10 31  1  0
 12 32  1  0
 13 33  1  0
 19 34  1  0
 22 35  1  0
 22 36  1  0
 22 37  1  0
 23 38  1  0
 23 39  1  0
 23 40  1  0
M  CHG  2   8  -1  26  -1
M  END
>  <UniqueID>  (87) 
86

>  <SMILES>  (87) 
CN(C(=O)n1c(C([NH-])=O)cc2ccc(C(F)(F)F)cc21)C(C)(C)C(=O)[O-]

>  <Energy>  (87) 
84.59189659510447

>  <Genealogy>  (87) 
CN(C(=O)n1c(C([NH-])=O)cc2ccc(C(F)(F)F)cc21)C(C)(C)C(=O)[O-] (protonated)
CN(C(=O)n1c(C([NH-])=O)cc2ccc(C(F)(F)F)cc21)C(C)(C)C(=O)[O-] (3D coordinates assigned)
CN(C(=O)n1c(C([NH-])=O)cc2ccc(C(F)(F)F)cc21)C(C)(C)C(=O)[O-] (optimized conformer: 84.59189659510447 kcal/mol)

>  <smiles>  (87) 
CN(C(=O)n1c(C(N)=O)cc2ccc(C(F)(F)F)cc21)C(C)(C)C(=O)O

>  <score_type>  (87) 
oracle

>  <origin>  (87) 
adg

>  <m_score__min__energy>  (87) 
-11.81

>  <m_primary>  (87) 
energy

$$$$
87:0
     RDKit          3D

 39 40  0  0  0  0  0  0  0  0999 V2000
   -3.9770   25.1770  -30.8410 N   0  0  0  0  0  0  0  0  0  0  0  0
   -5.2100   24.7460  -30.2700 C   0  0  0  0  0  0  0  0  0  0  0  0
   -5.7130   25.4060  -29.3220 O   0  0  0  0  0  0  0  0  0  0  0  0
   -5.9220   23.5620  -30.7980 C   0  0  0  0  0  0  0  0  0  0  0  0
   -7.2970   23.5270  -31.0300 C   0  0  0  0  0  0  0  0  0  0  0  0
   -7.5460   22.2830  -31.5650 C   0  0  0  0  0  0  0  0  0  0  0  0
   -8.7430   21.7070  -31.9810 C   0  0  0  0  0  0  0  0  0  0  0  0
   -8.7040   20.3930  -32.4770 C   0  0  0  0  0  0  0  0  0  0  0  0
   -7.4830   19.6760  -32.5310 C   0  0  0  0  0  0  0  0  0  0  0  0
   -7.4510   18.2760  -33.0890 C   0  0  2  0  0  0  0  0  0  0  0  0
   -7.6430   17.3540  -32.0730 F   0  0  0  0  0  0  0  0  0  0  0  0
   -6.1410   18.0230  -33.7670 C   0  0  0  0  0  0  0  0  0  0  0  0
   -5.2570   17.3240  -33.2060 O   0  0  0  0  0  0  0  0  0  0  0  0
   -5.8760   18.6060  -35.0000 O   0  0  0  0  0  0  0  0  0  0  0  0
   -6.2870   20.2970  -32.1040 C   0  0  0  0  0  0  0  0  0  0  0  0
   -6.3520   21.6140  -31.6370 C   0  0  0  0  0  0  0  0  0  0  0  0
   -5.3460   22.3860  -31.1760 N   0  0  0  0  0  0  0  0  0  0  0  0
   -3.9700   21.9980  -31.0430 C   0  0  0  0  0  0  0  0  0  0  0  0
   -3.3870   21.4410  -32.0110 O   0  0  0  0  0  0  0  0  0  0  0  0
   -3.2400   22.2480  -29.7860 C   0  0  0  0  0  0  0  0  0  0  0  0
   -3.2520   21.3690  -28.8830 O   0  0  0  0  0  0  0  0  0  0  0  0
   -2.5330   23.4870  -29.5870 N   0  0  0  0  0  0  0  0  0  0  0  0
   -1.7610   23.8200  -28.3820 C   0  0  2  0  0  0  0  0  0  0  0  0
   -2.6890   24.0070  -27.1690 C   0  0  0  0  0  0  0  0  0  0  0  0
   -3.8880   24.6280  -27.5390 O   0  0  0  0  0  0  0  0  0  0  0  0
   -0.8420   24.9930  -28.6230 C   0  0  0  0  0  0  0  0  0  0  0  0
   -1.2260   25.9510  -29.3450 O   0  0  0  0  0  0  0  0  0  0  0  0
    0.4500   25.0060  -28.1100 O   0  0  0  0  0  0  0  0  0  0  0  0
   -3.1250   25.2990  -30.2490 H   0  0  0  0  0  0  0  0  0  0  0  0
   -8.0275   24.3243  -30.8283 H   0  0  0  0  0  0  0  0  0  0  0  0
   -9.6902   22.2634  -31.9232 H   0  0  0  0  0  0  0  0  0  0  0  0
   -9.6312   19.9158  -32.8271 H   0  0  0  0  0  0  0  0  0  0  0  0
   -8.2611   18.1694  -33.8255 H   0  0  0  0  0  0  0  0  0  0  0  0
   -5.3288   19.7578  -32.1381 H   0  0  0  0  0  0  0  0  0  0  0  0
   -2.5920   24.2180  -30.3310 H   0  0  0  0  0  0  0  0  0  0  0  0
   -1.1045   22.9712  -28.1402 H   0  0  0  0  0  0  0  0  0  0  0  0
   -2.9145   23.0219  -26.7346 H   0  0  0  0  0  0  0  0  0  0  0  0
   -2.1776   24.6471  -26.4350 H   0  0  0  0  0  0  0  0  0  0  0  0
   -3.7660   24.9280  -28.4760 H   0  0  0  0  0  0  0  0  0  0  0  0
  1  2  1  0
  2  3  2  0
  2  4  1  0
  4  5  2  0
  5  6  1  0
  6  7  2  0
  7  8  1  0
  8  9  2  0
  9 10  1  0
 10 11  1  0
 10 12  1  0
 12 13  2  0
 12 14  1  0
  9 15  1  0
 15 16  2  0
 16 17  1  0
 17 18  1  0
 18 19  2  0
 18 20  1  0
 20 21  2  0
 20 22  1  0
 22 23  1  0
 23 24  1  0
 24 25  1  0
 23 26  1  0
 26 27  2  0
 26 28  1  0
 17  4  1  0
 16  6  1  0
  1 29  1  0
  5 30  1  0
  7 31  1  0
  8 32  1  0
 10 33  1  6
 15 34  1  0
 22 35  1  0
 23 36  1  1
 24 37  1  0
 24 38  1  0
 25 39  1  0
M  CHG  3   1  -1  14  -1  28  -1
M  END
>  <UniqueID>  (88) 
87

>  <SMILES>  (88) 
[NH-]C(=O)c1cc2ccc([C@H](F)C(=O)[O-])cc2n1C(=O)C(=O)N[C@H](CO)C(=O)[O-]

>  <Energy>  (88) 
76.52004417466642

>  <Genealogy>  (88) 
[NH-]C(=O)c1cc2ccc(C(F)C(=O)[O-])cc2n1C(=O)C(=O)NC(CO)C(=O)[O-] (protonated)
[NH-]C(=O)c1cc2ccc([C@H](F)C(=O)[O-])cc2n1C(=O)C(=O)N[C@H](CO)C(=O)[O-] (chirality)
[NH-]C(=O)c1cc2ccc([C@H](F)C(=O)[O-])cc2n1C(=O)C(=O)N[C@H](CO)C(=O)[O-] (3D coordinates assigned)
[NH-]C(=O)c1cc2ccc([C@H](F)C(=O)[O-])cc2n1C(=O)C(=O)N[C@H](CO)C(=O)[O-] (optimized conformer: 76.52004417466642 kcal/mol)

>  <smiles>  (88) 
NC(=O)c1cc2ccc(C(F)C(=O)O)cc2n1C(=O)C(=O)NC(CO)C(=O)O

>  <score_type>  (88) 
oracle

>  <origin>  (88) 
adg

>  <m_score__min__energy>  (88) 
-12.789999999999999

>  <m_primary>  (88) 
energy

$$$$
88:0
     RDKit          3D

 38 39  0  0  0  0  0  0  0  0999 V2000
   -6.5340   18.1760  -32.7670 C   0  0  0  0  0  0  0  0  0  0  0  0
   -6.7830   19.5840  -32.3180 C   0  0  0  0  0  0  0  0  0  0  0  0
   -8.1090   20.0790  -32.2660 C   0  0  0  0  0  0  0  0  0  0  0  0
   -8.3640   21.4080  -31.8840 C   0  0  0  0  0  0  0  0  0  0  0  0
   -7.2750   22.2130  -31.5570 C   0  0  0  0  0  0  0  0  0  0  0  0
   -7.2270   23.5400  -31.1960 C   0  0  0  0  0  0  0  0  0  0  0  0
   -5.8760   23.8270  -31.0280 C   0  0  0  0  0  0  0  0  0  0  0  0
   -5.3630   25.1300  -30.5750 C   0  0  0  0  0  0  0  0  0  0  0  0
   -3.9610   25.3830  -30.5460 N   0  0  0  0  0  0  0  0  0  0  0  0
   -6.1650   26.0110  -30.1620 O   0  0  0  0  0  0  0  0  0  0  0  0
   -5.1180   22.7260  -31.2870 N   0  0  0  0  0  0  0  0  0  0  0  0
   -3.6890   22.6430  -31.3980 C   0  0  0  0  0  0  0  0  0  0  0  0
   -3.1930   22.1810  -32.4650 O   0  0  0  0  0  0  0  0  0  0  0  0
   -2.8330   23.0790  -30.3080 N   0  0  2  0  0  0  0  0  0  0  0  0
   -1.4510   22.6140  -30.5060 C   0  0  0  0  0  0  0  0  0  0  0  0
   -3.3330   22.6200  -29.0340 C   0  0  0  0  0  0  0  0  0  0  0  0
   -4.4450   22.0230  -28.9610 O   0  0  0  0  0  0  0  0  0  0  0  0
   -2.6030   22.8960  -27.8720 O   0  0  0  0  0  0  0  0  0  0  0  0
   -2.2870   24.2190  -27.4430 C   0  0  0  0  0  0  0  0  0  0  0  0
   -1.2370   24.8190  -28.3290 C   0  0  0  0  0  0  0  0  0  0  0  0
   -0.0250   24.5080  -28.1810 O   0  0  0  0  0  0  0  0  0  0  0  0
   -1.5990   25.6720  -29.3630 O   0  0  0  0  0  0  0  0  0  0  0  0
   -5.9890   21.7460  -31.6060 C   0  0  0  0  0  0  0  0  0  0  0  0
   -5.7050   20.4360  -31.9970 C   0  0  0  0  0  0  0  0  0  0  0  0
   -6.4190   17.5256  -31.8874 H   0  0  0  0  0  0  0  0  0  0  0  0
   -7.3846   17.8281  -33.3716 H   0  0  0  0  0  0  0  0  0  0  0  0
   -5.6157   18.1409  -33.3716 H   0  0  0  0  0  0  0  0  0  0  0  0
   -8.9479   19.4171  -32.5271 H   0  0  0  0  0  0  0  0  0  0  0  0
   -9.3911   21.7998  -31.8446 H   0  0  0  0  0  0  0  0  0  0  0  0
   -8.0760   24.2275  -31.0676 H   0  0  0  0  0  0  0  0  0  0  0  0
   -3.4860   25.6670  -29.6600 H   0  0  0  0  0  0  0  0  0  0  0  0
   -2.8220   24.1230  -30.2860 H   0  0  0  0  0  0  0  0  0  0  0  0
   -0.9744   22.4536  -29.5277 H   0  0  0  0  0  0  0  0  0  0  0  0
   -1.4592   21.6691  -31.0692 H   0  0  0  0  0  0  0  0  0  0  0  0
   -0.8863   23.3716  -31.0692 H   0  0  0  0  0  0  0  0  0  0  0  0
   -3.1941   24.8398  -27.4844 H   0  0  0  0  0  0  0  0  0  0  0  0
   -1.9037   24.1780  -26.4128 H   0  0  0  0  0  0  0  0  0  0  0  0
   -4.6667   20.0771  -32.0534 H   0  0  0  0  0  0  0  0  0  0  0  0
  1  2  1  0
  2  3  2  0
  3  4  1  0
  4  5  2  0
  5  6  1  0
  6  7  2  0
  7  8  1  0
  8  9  1  0
  8 10  2  0
  7 11  1  0
 11 12  1  0
 12 13  2  0
 12 14  1  0
 14 15  1  0
 14 16  1  0
 16 17  2  0
 16 18  1  0
 18 19  1  0
 19 20  1  0
 20 21  2  0
 20 22  1  0
 11 23  1  0
 23 24  2  0
 24  2  1  0
 23  5  1  0
  1 25  1  0
  1 26  1  0
  1 27  1  0
  3 28  1  0
  4 29  1  0
  6 30  1  0
  9 31  1  0
 14 32  1  1
 15 33  1  0
 15 34  1  0
 15 35  1  0
 19 36  1  0
 19 37  1  0
 24 38  1  0
M  CHG  3   9  -1  14   1  22  -1
M  END
>  <UniqueID>  (89) 
88

>  <SMILES>  (89) 
Cc1ccc2cc(C([NH-])=O)n(C(=O)[NH+](C)C(=O)OCC(=O)[O-])c2c1

>  <Energy>  (89) 
81.04468876800334

>  <Genealogy>  (89) 
Cc1ccc2cc(C([NH-])=O)n(C(=O)[NH+](C)C(=O)OCC(=O)[O-])c2c1 (protonated)
Cc1ccc2cc(C([NH-])=O)n(C(=O)[NH+](C)C(=O)OCC(=O)[O-])c2c1 (3D coordinates assigned)
Cc1ccc2cc(C([NH-])=O)n(C(=O)[NH+](C)C(=O)OCC(=O)[O-])c2c1 (optimized conformer: 81.04468876800334 kcal/mol)

>  <smiles>  (89) 
Cc1ccc2cc(C(N)=O)n(C(=O)N(C)C(=O)OCC(=O)O)c2c1

>  <score_type>  (89) 
oracle

>  <origin>  (89) 
adg

>  <m_score__min__energy>  (89) 
-10.869999999999999

>  <m_primary>  (89) 
energy

$$$$
89:0
     RDKit          3D

 43 45  0  0  0  0  0  0  0  0999 V2000
    0.6980   23.8420  -36.0150 C   0  0  0  0  0  0  0  0  0  0  0  0
    1.2010   22.6690  -35.3860 O   0  0  0  0  0  0  0  0  0  0  0  0
    0.4280   21.5140  -35.2150 C   0  0  0  0  0  0  0  0  0  0  0  0
    0.3100   20.6890  -36.1620 O   0  0  0  0  0  0  0  0  0  0  0  0
   -0.2470   21.2650  -33.9220 C   0  0  0  0  0  0  0  0  0  0  0  0
    0.4990   21.1100  -32.7400 C   0  0  0  0  0  0  0  0  0  0  0  0
   -0.1420   20.8760  -31.5210 C   0  0  0  0  0  0  0  0  0  0  0  0
   -1.5430   20.7910  -31.4570 C   0  0  0  0  0  0  0  0  0  0  0  0
   -2.2160   20.5490  -30.1610 C   0  0  0  0  0  0  0  0  0  0  0  0
   -1.6360   19.8790  -29.2630 O   0  0  0  0  0  0  0  0  0  0  0  0
   -3.4990   21.0720  -29.9440 O   0  0  0  0  0  0  0  0  0  0  0  0
   -3.8690   22.4110  -30.1170 C   0  0  0  0  0  0  0  0  0  0  0  0
   -3.1140   23.3450  -29.7300 O   0  0  0  0  0  0  0  0  0  0  0  0
   -5.1410   22.7200  -30.7100 N   0  0  0  0  0  0  0  0  0  0  0  0
   -5.7660   23.9310  -30.7720 C   0  0  0  0  0  0  0  0  0  0  0  0
   -5.1890   25.2310  -30.3730 C   0  0  0  0  0  0  0  0  0  0  0  0
   -3.8920   25.6240  -30.8150 N   0  0  0  0  0  0  0  0  0  0  0  0
   -5.8700   26.0280  -29.6730 O   0  0  0  0  0  0  0  0  0  0  0  0
   -7.0250   23.8000  -31.3560 C   0  0  0  0  0  0  0  0  0  0  0  0
   -7.1470   22.4650  -31.6640 C   0  0  0  0  0  0  0  0  0  0  0  0
   -8.2060   21.7760  -32.2480 C   0  0  0  0  0  0  0  0  0  0  0  0
   -8.0720   20.3890  -32.4230 C   0  0  0  0  0  0  0  0  0  0  0  0
   -6.8890   19.7180  -32.0220 C   0  0  0  0  0  0  0  0  0  0  0  0
   -6.7800   18.2200  -32.1600 C   0  0  0  0  0  0  0  0  0  0  0  0
   -6.0590   17.8860  -33.2940 F   0  0  0  0  0  0  0  0  0  0  0  0
   -6.1370   17.7060  -31.0500 F   0  0  0  0  0  0  0  0  0  0  0  0
   -8.0340   17.6450  -32.2620 F   0  0  0  0  0  0  0  0  0  0  0  0
   -5.8470   20.4490  -31.4060 C   0  0  0  0  0  0  0  0  0  0  0  0
   -5.9990   21.8350  -31.2650 C   0  0  0  0  0  0  0  0  0  0  0  0
   -2.2900   20.9480  -32.6370 C   0  0  0  0  0  0  0  0  0  0  0  0
   -1.6480   21.1810  -33.8570 C   0  0  0  0  0  0  0  0  0  0  0  0
    0.3877   24.5656  -35.2468 H   0  0  0  0  0  0  0  0  0  0  0  0
    1.4842   24.2876  -36.6422 H   0  0  0  0  0  0  0  0  0  0  0  0
   -0.1667   23.5796  -36.6422 H   0  0  0  0  0  0  0  0  0  0  0  0
    1.5966   21.1736  -32.7756 H   0  0  0  0  0  0  0  0  0  0  0  0
    0.4545   20.7574  -30.6044 H   0  0  0  0  0  0  0  0  0  0  0  0
   -3.0340   25.2910  -30.3230 H   0  0  0  0  0  0  0  0  0  0  0  0
   -7.7640   24.5954  -31.5329 H   0  0  0  0  0  0  0  0  0  0  0  0
   -9.1196   22.3016  -32.5627 H   0  0  0  0  0  0  0  0  0  0  0  0
   -8.8945   19.8164  -32.8765 H   0  0  0  0  0  0  0  0  0  0  0  0
   -4.9394   19.9422  -31.0463 H   0  0  0  0  0  0  0  0  0  0  0  0
   -3.3877   20.8871  -32.6005 H   0  0  0  0  0  0  0  0  0  0  0  0
   -2.2447   21.2995  -34.7735 H   0  0  0  0  0  0  0  0  0  0  0  0
  1  2  1  0
  2  3  1  0
  3  4  2  0
  3  5  1  0
  5  6  2  0
  6  7  1  0
  7  8  2  0
  8  9  1  0
  9 10  2  0
  9 11  1  0
 11 12  1  0
 12 13  2  0
 12 14  1  0
 14 15  1  0
 15 16  1  0
 16 17  1  0
 16 18  2  0
 15 19  2  0
 19 20  1  0
 20 21  2  0
 21 22  1  0
 22 23  2  0
 23 24  1  0
 24 25  1  0
 24 26  1  0
 24 27  1  0
 23 28  1  0
 28 29  2  0
  8 30  1  0
 30 31  2  0
 31  5  1  0
 29 14  1  0
 29 20  1  0
  1 32  1  0
  1 33  1  0
  1 34  1  0
  6 35  1  0
  7 36  1  0
 17 37  1  0
 19 38  1  0
 21 39  1  0
 22 40  1  0
 28 41  1  0
 30 42  1  0
 31 43  1  0
M  CHG  1  17  -1
M  END
>  <UniqueID>  (90) 
89

>  <SMILES>  (90) 
COC(=O)c1ccc(C(=O)OC(=O)n2c(C([NH-])=O)cc3ccc(C(F)(F)F)cc32)cc1

>  <Energy>  (90) 
85.02058659192808

>  <Genealogy>  (90) 
COC(=O)c1ccc(C(=O)OC(=O)n2c(C([NH-])=O)cc3ccc(C(F)(F)F)cc32)cc1 (protonated)
COC(=O)c1ccc(C(=O)OC(=O)n2c(C([NH-])=O)cc3ccc(C(F)(F)F)cc32)cc1 (3D coordinates assigned)
COC(=O)c1ccc(C(=O)OC(=O)n2c(C([NH-])=O)cc3ccc(C(F)(F)F)cc32)cc1 (optimized conformer: 85.02058659192808 kcal/mol)

>  <smiles>  (90) 
COC(=O)c1ccc(C(=O)OC(=O)n2c(C(N)=O)cc3ccc(C(F)(F)F)cc32)cc1

>  <score_type>  (90) 
oracle

>  <origin>  (90) 
adg

>  <m_score__min__energy>  (90) 
-10.92

>  <m_primary>  (90) 
energy

$$$$
90:0
     RDKit          3D

 50 51  0  0  0  0  0  0  0  0999 V2000
    1.0190   24.5660  -26.8390 C   0  0  0  0  0  0  0  0  0  0  0  0
    0.5990   24.8300  -28.1720 O   0  0  0  0  0  0  0  0  0  0  0  0
   -0.6810   24.5130  -28.6340 C   0  0  0  0  0  0  0  0  0  0  0  0
   -1.4730   25.4210  -29.0130 O   0  0  0  0  0  0  0  0  0  0  0  0
   -1.0940   23.0780  -28.7310 C   0  0  0  0  0  0  0  0  0  0  0  0
   -1.7040   22.7700  -30.0650 C   0  0  0  0  0  0  0  0  0  0  0  0
   -1.0200   22.1420  -30.9200 O   0  0  0  0  0  0  0  0  0  0  0  0
   -3.0040   23.2060  -30.3610 O   0  0  0  0  0  0  0  0  0  0  0  0
   -3.7910   22.7480  -31.4250 C   0  0  0  0  0  0  0  0  0  0  0  0
   -3.2730   22.1160  -32.3850 O   0  0  0  0  0  0  0  0  0  0  0  0
   -5.2080   22.9880  -31.4100 N   0  0  0  0  0  0  0  0  0  0  0  0
   -5.8610   24.0690  -30.8980 C   0  0  0  0  0  0  0  0  0  0  0  0
   -5.2280   25.3100  -30.4050 C   0  0  0  0  0  0  0  0  0  0  0  0
   -3.9180   25.6610  -30.8440 N   0  0  0  0  0  0  0  0  0  0  0  0
   -5.8160   26.0450  -29.5680 O   0  0  0  0  0  0  0  0  0  0  0  0
   -7.2390   23.8890  -30.9730 C   0  0  0  0  0  0  0  0  0  0  0  0
   -7.4150   22.6560  -31.5560 C   0  0  0  0  0  0  0  0  0  0  0  0
   -8.5870   21.9720  -31.8640 C   0  0  0  0  0  0  0  0  0  0  0  0
   -8.4720   20.6970  -32.4430 C   0  0  0  0  0  0  0  0  0  0  0  0
   -7.1970   20.1230  -32.6850 C   0  0  0  0  0  0  0  0  0  0  0  0
   -7.0930   18.8210  -33.2970 N   0  0  0  0  0  0  0  0  0  0  0  0
   -6.0110   18.8200  -34.2930 C   0  0  0  0  0  0  0  0  0  0  0  0
   -5.4420   17.4050  -34.4780 C   0  0  0  0  0  0  0  0  0  0  0  0
   -6.0540   16.4670  -33.5110 N   0  0  0  0  0  0  0  0  0  0  0  0
   -6.8320   15.4380  -34.2210 C   0  0  0  0  0  0  0  0  0  0  0  0
   -5.0250   15.8130  -32.6820 C   0  0  0  0  0  0  0  0  0  0  0  0
   -6.0290   20.8550  -32.3670 C   0  0  0  0  0  0  0  0  0  0  0  0
   -6.1740   22.1310  -31.8100 C   0  0  0  0  0  0  0  0  0  0  0  0
    0.3044   25.0152  -26.1336 H   0  0  0  0  0  0  0  0  0  0  0  0
    1.0608   23.4789  -26.6762 H   0  0  0  0  0  0  0  0  0  0  0  0
    2.0167   24.9997  -26.6762 H   0  0  0  0  0  0  0  0  0  0  0  0
   -0.2088   22.4410  -28.5873 H   0  0  0  0  0  0  0  0  0  0  0  0
   -1.8478   22.8829  -27.9540 H   0  0  0  0  0  0  0  0  0  0  0  0
   -3.0720   25.2990  -30.3510 H   0  0  0  0  0  0  0  0  0  0  0  0
   -8.0215   24.5854  -30.6371 H   0  0  0  0  0  0  0  0  0  0  0  0
   -9.5728   22.4157  -31.6605 H   0  0  0  0  0  0  0  0  0  0  0  0
   -9.3803   20.1376  -32.7117 H   0  0  0  0  0  0  0  0  0  0  0  0
   -6.8990   18.1020  -32.5610 H   0  0  0  0  0  0  0  0  0  0  0  0
   -7.9990   18.5750  -33.7600 H   0  0  0  0  0  0  0  0  0  0  0  0
   -6.4059   19.1787  -35.2550 H   0  0  0  0  0  0  0  0  0  0  0  0
   -5.2056   19.4808  -33.9398 H   0  0  0  0  0  0  0  0  0  0  0  0
   -5.6555   17.0604  -35.5006 H   0  0  0  0  0  0  0  0  0  0  0  0
   -4.3561   17.4341  -34.3051 H   0  0  0  0  0  0  0  0  0  0  0  0
   -7.3273   14.7829  -33.4892 H   0  0  0  0  0  0  0  0  0  0  0  0
   -7.5914   15.9229  -34.8521 H   0  0  0  0  0  0  0  0  0  0  0  0
   -6.1585   14.8395  -34.8521 H   0  0  0  0  0  0  0  0  0  0  0  0
   -5.2612   15.9631  -31.6182 H   0  0  0  0  0  0  0  0  0  0  0  0
   -5.0048   14.7360  -32.9046 H   0  0  0  0  0  0  0  0  0  0  0  0
   -4.0413   16.2520  -32.9046 H   0  0  0  0  0  0  0  0  0  0  0  0
   -5.0309   20.4317  -32.5529 H   0  0  0  0  0  0  0  0  0  0  0  0
  1  2  1  0
  2  3  1  0
  3  4  2  0
  3  5  1  0
  5  6  1  0
  6  7  2  0
  6  8  1  0
  8  9  1  0
  9 10  2  0
  9 11  1  0
 11 12  1  0
 12 13  1  0
 13 14  1  0
 13 15  2  0
 12 16  2  0
 16 17  1  0
 17 18  2  0
 18 19  1  0
 19 20  2  0
 20 21  1  0
 21 22  1  0
 22 23  1  0
 23 24  1  0
 24 25  1  0
 24 26  1  0
 20 27  1  0
 27 28  2  0
 28 11  1  0
 28 17  1  0
  1 29  1  0
  1 30  1  0
  1 31  1  0
  5 32  1  0
  5 33  1  0
 14 34  1  0
 16 35  1  0
 18 36  1  0
 19 37  1  0
 21 38  1  0
 21 39  1  0
 22 40  1  0
 22 41  1  0
 23 42  1  0
 23 43  1  0
 25 44  1  0
 25 45  1  0
 25 46  1  0
 26 47  1  0
 26 48  1  0
 26 49  1  0
 27 50  1  0
M  CHG  2  14  -1  21   1
M  END
>  <UniqueID>  (91) 
90

>  <SMILES>  (91) 
COC(=O)CC(=O)OC(=O)n1c(C([NH-])=O)cc2ccc([NH2+]CCN(C)C)cc21

>  <Energy>  (91) 
83.63783499802247

>  <Genealogy>  (91) 
COC(=O)CC(=O)OC(=O)n1c(C([NH-])=O)cc2ccc([NH2+]CCN(C)C)cc21 (protonated)
COC(=O)CC(=O)OC(=O)n1c(C([NH-])=O)cc2ccc([NH2+]CCN(C)C)cc21 (3D coordinates assigned)
COC(=O)CC(=O)OC(=O)n1c(C([NH-])=O)cc2ccc([NH2+]CCN(C)C)cc21 (optimized conformer: 83.63783499802247 kcal/mol)

>  <smiles>  (91) 
COC(=O)CC(=O)OC(=O)n1c(C(N)=O)cc2ccc(NCCN(C)C)cc21

>  <score_type>  (91) 
oracle

>  <origin>  (91) 
adg

>  <m_score__min__energy>  (91) 
-10.41

>  <m_primary>  (91) 
energy

$$$$
91:0
     RDKit          3D

 47 49  0  0  0  0  0  0  0  0999 V2000
   -6.1140   18.5660  -34.3860 C   0  0  0  0  0  0  0  0  0  0  0  0
   -6.3360   19.7120  -33.4440 C   0  0  0  0  0  0  0  0  0  0  0  0
   -7.6470   20.0590  -33.0330 C   0  0  0  0  0  0  0  0  0  0  0  0
   -7.8580   21.1420  -32.1610 C   0  0  0  0  0  0  0  0  0  0  0  0
   -6.7480   21.8650  -31.7370 C   0  0  0  0  0  0  0  0  0  0  0  0
   -6.6630   22.9390  -30.8790 C   0  0  0  0  0  0  0  0  0  0  0  0
   -5.3070   23.2530  -30.8140 C   0  0  0  0  0  0  0  0  0  0  0  0
   -4.7750   24.4070  -30.0570 C   0  0  0  0  0  0  0  0  0  0  0  0
   -3.8560   25.3160  -30.6550 N   0  0  0  0  0  0  0  0  0  0  0  0
   -5.1730   24.6170  -28.8800 O   0  0  0  0  0  0  0  0  0  0  0  0
   -4.5810   22.4050  -31.5960 N   0  0  0  0  0  0  0  0  0  0  0  0
   -3.1560   22.3390  -31.7500 C   0  0  0  0  0  0  0  0  0  0  0  0
   -2.6580   21.6550  -32.6840 O   0  0  0  0  0  0  0  0  0  0  0  0
   -2.3370   23.0530  -30.8650 O   0  0  0  0  0  0  0  0  0  0  0  0
   -1.8530   22.5650  -29.6440 C   0  0  0  0  0  0  0  0  0  0  0  0
   -0.6800   22.1020  -29.5620 O   0  0  0  0  0  0  0  0  0  0  0  0
   -2.6950   22.6720  -28.4690 N   0  0  1  0  0  0  0  0  0  0  0  0
   -3.1060   21.3580  -27.9160 C   0  0  0  0  0  0  0  0  0  0  0  0
   -2.0850   20.8070  -26.8850 C   0  0  1  0  0  0  0  0  0  0  0  0
   -1.9640   19.2880  -26.9900 C   0  0  0  0  0  0  0  0  0  0  0  0
   -0.8110   21.3850  -27.0900 O   0  0  0  0  0  0  0  0  0  0  0  0
   -0.8400   22.7690  -26.7730 C   0  0  1  0  0  0  0  0  0  0  0  0
    0.4880   23.3910  -27.2060 C   0  0  0  0  0  0  0  0  0  0  0  0
   -2.0410   23.5030  -27.4390 C   0  0  0  0  0  0  0  0  0  0  0  0
   -5.4770   21.5610  -32.1540 C   0  0  0  0  0  0  0  0  0  0  0  0
   -5.2350   20.4760  -33.0030 C   0  0  0  0  0  0  0  0  0  0  0  0
   -5.9359   17.6465  -33.8092 H   0  0  0  0  0  0  0  0  0  0  0  0
   -7.0034   18.4348  -35.0198 H   0  0  0  0  0  0  0  0  0  0  0  0
   -5.2399   18.7764  -35.0198 H   0  0  0  0  0  0  0  0  0  0  0  0
   -8.5059   19.4771  -33.3987 H   0  0  0  0  0  0  0  0  0  0  0  0
   -8.8705   21.4093  -31.8244 H   0  0  0  0  0  0  0  0  0  0  0  0
   -7.4898   23.4420  -30.3562 H   0  0  0  0  0  0  0  0  0  0  0  0
   -2.8250   25.1950  -30.5360 H   0  0  0  0  0  0  0  0  0  0  0  0
   -3.5640   23.1720  -28.7730 H   0  0  0  0  0  0  0  0  0  0  0  0
   -4.0818   21.4721  -27.4211 H   0  0  0  0  0  0  0  0  0  0  0  0
   -3.1598   20.6437  -28.7508 H   0  0  0  0  0  0  0  0  0  0  0  0
   -2.4532   21.0704  -25.8825 H   0  0  0  0  0  0  0  0  0  0  0  0
   -1.9293   18.8523  -25.9806 H   0  0  0  0  0  0  0  0  0  0  0  0
   -2.8331   18.8876  -27.5325 H   0  0  0  0  0  0  0  0  0  0  0  0
   -1.0425   19.0302  -27.5325 H   0  0  0  0  0  0  0  0  0  0  0  0
   -0.9768   22.8810  -25.6873 H   0  0  0  0  0  0  0  0  0  0  0  0
    1.0724   23.6647  -26.3152 H   0  0  0  0  0  0  0  0  0  0  0  0
    1.0544   22.6645  -27.8072 H   0  0  0  0  0  0  0  0  0  0  0  0
    0.2925   24.2912  -27.8072 H   0  0  0  0  0  0  0  0  0  0  0  0
   -2.7793   23.7526  -26.6627 H   0  0  0  0  0  0  0  0  0  0  0  0
   -1.6559   24.4098  -27.9283 H   0  0  0  0  0  0  0  0  0  0  0  0
   -4.2118   20.2247  -33.3189 H   0  0  0  0  0  0  0  0  0  0  0  0
  1  2  1  0
  2  3  2  0
  3  4  1  0
  4  5  2  0
  5  6  1  0
  6  7  2  0
  7  8  1  0
  8  9  1  0
  8 10  2  0
  7 11  1  0
 11 12  1  0
 12 13  2  0
 12 14  1  0
 14 15  1  0
 15 16  2  0
 15 17  1  0
 17 18  1  0
 18 19  1  0
 19 20  1  0
 19 21  1  0
 21 22  1  0
 22 23  1  0
 22 24  1  0
 11 25  1  0
 25 26  2  0
 26  2  1  0
 25  5  1  0
 24 17  1  0
  1 27  1  0
  1 28  1  0
  1 29  1  0
  3 30  1  0
  4 31  1  0
  6 32  1  0
  9 33  1  0
 17 34  1  6
 18 35  1  0
 18 36  1  0
 19 37  1  1
 20 38  1  0
 20 39  1  0
 20 40  1  0
 22 41  1  1
 23 42  1  0
 23 43  1  0
 23 44  1  0
 24 45  1  0
 24 46  1  0
 26 47  1  0
M  CHG  2   9  -1  17   1
M  END
>  <UniqueID>  (92) 
91

>  <SMILES>  (92) 
Cc1ccc2cc(C([NH-])=O)n(C(=O)OC(=O)[NH+]3C[C@@H](C)O[C@@H](C)C3)c2c1

>  <Energy>  (92) 
96.48231461069712

>  <Genealogy>  (92) 
Cc1ccc2cc(C([NH-])=O)n(C(=O)OC(=O)[NH+]3CC(C)OC(C)C3)c2c1 (protonated)
Cc1ccc2cc(C([NH-])=O)n(C(=O)OC(=O)[NH+]3C[C@@H](C)O[C@@H](C)C3)c2c1 (chirality)
Cc1ccc2cc(C([NH-])=O)n(C(=O)OC(=O)[NH+]3C[C@@H](C)O[C@@H](C)C3)c2c1 (3D coordinates assigned)
Cc1ccc2cc(C([NH-])=O)n(C(=O)OC(=O)[NH+]3C[C@@H](C)O[C@@H](C)C3)c2c1 (nonaromatic ring conformer: 96.48231461069712 kcal/mol)

>  <smiles>  (92) 
Cc1ccc2cc(C(N)=O)n(C(=O)OC(=O)N3CC(C)OC(C)C3)c2c1

>  <score_type>  (92) 
oracle

>  <origin>  (92) 
adg

>  <m_score__min__energy>  (92) 
-10.630000000000001

>  <m_primary>  (92) 
energy

$$$$
92:0
     RDKit          3D

 46 48  0  0  0  0  0  0  0  0999 V2000
   -0.2640   20.3880  -30.7650 C   0  0  0  0  0  0  0  0  0  0  0  0
   -0.9720   20.7100  -29.5220 N   0  0  0  0  0  0  0  0  0  0  0  0
   -0.2160   21.0180  -28.3030 C   0  0  0  0  0  0  0  0  0  0  0  0
   -0.6470   22.3450  -27.7520 C   0  0  0  0  0  0  0  0  0  0  0  0
   -0.3790   22.6940  -26.4210 C   0  0  0  0  0  0  0  0  0  0  0  0
   -0.8240   23.9240  -25.9330 C   0  0  0  0  0  0  0  0  0  0  0  0
   -1.5340   24.7880  -26.7680 C   0  0  0  0  0  0  0  0  0  0  0  0
   -1.7950   24.4040  -28.0900 C   0  0  0  0  0  0  0  0  0  0  0  0
   -2.5280   25.2640  -28.9630 N   0  0  0  0  0  0  0  0  0  0  0  0
   -1.3510   23.2000  -28.5440 N   0  0  0  0  0  0  0  0  0  0  0  0
   -2.4100   20.7790  -29.5350 C   0  0  0  0  0  0  0  0  0  0  0  0
   -3.0640   20.4870  -28.4960 O   0  0  0  0  0  0  0  0  0  0  0  0
   -3.0710   21.1690  -30.7080 O   0  0  0  0  0  0  0  0  0  0  0  0
   -3.5620   22.4540  -30.9720 C   0  0  0  0  0  0  0  0  0  0  0  0
   -2.7770   23.4360  -31.0770 O   0  0  0  0  0  0  0  0  0  0  0  0
   -4.9740   22.6480  -31.1440 N   0  0  0  0  0  0  0  0  0  0  0  0
   -5.7210   23.7170  -30.7430 C   0  0  0  0  0  0  0  0  0  0  0  0
   -5.1960   24.9890  -30.2040 C   0  0  0  0  0  0  0  0  0  0  0  0
   -4.1210   25.6690  -30.8470 N   0  0  0  0  0  0  0  0  0  0  0  0
   -5.7370   25.5060  -29.1910 O   0  0  0  0  0  0  0  0  0  0  0  0
   -7.0730   23.4860  -30.9830 C   0  0  0  0  0  0  0  0  0  0  0  0
   -7.1340   22.2370  -31.5550 C   0  0  0  0  0  0  0  0  0  0  0  0
   -8.2370   21.4980  -31.9730 C   0  0  0  0  0  0  0  0  0  0  0  0
   -8.0110   20.2120  -32.4910 C   0  0  0  0  0  0  0  0  0  0  0  0
   -6.6940   19.6920  -32.5940 C   0  0  0  0  0  0  0  0  0  0  0  0
   -6.4740   18.2860  -33.0920 C   0  0  0  0  0  0  0  0  0  0  0  0
   -5.4460   17.6780  -32.3940 F   0  0  0  0  0  0  0  0  0  0  0  0
   -7.6180   17.5240  -32.9320 F   0  0  0  0  0  0  0  0  0  0  0  0
   -6.1440   18.3270  -34.4340 F   0  0  0  0  0  0  0  0  0  0  0  0
   -5.6020   20.4660  -32.1370 C   0  0  0  0  0  0  0  0  0  0  0  0
   -5.8550   21.7510  -31.6420 C   0  0  0  0  0  0  0  0  0  0  0  0
    0.7133   19.9435  -30.5257 H   0  0  0  0  0  0  0  0  0  0  0  0
   -0.8589   19.6719  -31.3509 H   0  0  0  0  0  0  0  0  0  0  0  0
   -0.1153   21.3070  -31.3509 H   0  0  0  0  0  0  0  0  0  0  0  0
   -0.4004   20.2350  -27.5527 H   0  0  0  0  0  0  0  0  0  0  0  0
    0.8564   21.0590  -28.5445 H   0  0  0  0  0  0  0  0  0  0  0  0
    0.1765   22.0054  -25.7674 H   0  0  0  0  0  0  0  0  0  0  0  0
   -0.6153   24.2117  -24.8920 H   0  0  0  0  0  0  0  0  0  0  0  0
   -1.8851   25.7604  -26.3922 H   0  0  0  0  0  0  0  0  0  0  0  0
   -2.0810   25.6690  -29.8170 H   0  0  0  0  0  0  0  0  0  0  0  0
   -3.5200   25.5060  -28.7520 H   0  0  0  0  0  0  0  0  0  0  0  0
   -3.1510   25.2820  -30.8240 H   0  0  0  0  0  0  0  0  0  0  0  0
   -7.9139   24.1598  -30.7619 H   0  0  0  0  0  0  0  0  0  0  0  0
   -9.2549   21.9086  -31.8999 H   0  0  0  0  0  0  0  0  0  0  0  0
   -8.8642   19.6009  -32.8206 H   0  0  0  0  0  0  0  0  0  0  0  0
   -4.5773   20.0675  -32.1697 H   0  0  0  0  0  0  0  0  0  0  0  0
  1  2  1  0
  2  3  1  0
  3  4  1  0
  4  5  2  0
  5  6  1  0
  6  7  2  0
  7  8  1  0
  8  9  1  0
  8 10  2  0
  2 11  1  0
 11 12  2  0
 11 13  1  0
 13 14  1  0
 14 15  2  0
 14 16  1  0
 16 17  1  0
 17 18  1  0
 18 19  1  0
 18 20  2  0
 17 21  2  0
 21 22  1  0
 22 23  2  0
 23 24  1  0
 24 25  2  0
 25 26  1  0
 26 27  1  0
 26 28  1  0
 26 29  1  0
 25 30  1  0
 30 31  2  0
 10  4  1  0
 31 16  1  0
 31 22  1  0
  1 32  1  0
  1 33  1  0
  1 34  1  0
  3 35  1  0
  3 36  1  0
  5 37  1  0
  6 38  1  0
  7 39  1  0
  9 40  1  0
  9 41  1  0
 19 42  1  0
 21 43  1  0
 23 44  1  0
 24 45  1  0
 30 46  1  0
M  CHG  1  19  -1
M  END
>  <UniqueID>  (93) 
92

>  <SMILES>  (93) 
CN(Cc1cccc(N)n1)C(=O)OC(=O)n1c(C([NH-])=O)cc2ccc(C(F)(F)F)cc21

>  <Energy>  (93) 
84.53594688109638

>  <Genealogy>  (93) 
CN(Cc1cccc(N)n1)C(=O)OC(=O)n1c(C([NH-])=O)cc2ccc(C(F)(F)F)cc21 (protonated)
CN(Cc1cccc(N)n1)C(=O)OC(=O)n1c(C([NH-])=O)cc2ccc(C(F)(F)F)cc21 (3D coordinates assigned)
CN(Cc1cccc(N)n1)C(=O)OC(=O)n1c(C([NH-])=O)cc2ccc(C(F)(F)F)cc21 (optimized conformer: 84.53594688109638 kcal/mol)

>  <smiles>  (93) 
CN(Cc1cccc(N)n1)C(=O)OC(=O)n1c(C(N)=O)cc2ccc(C(F)(F)F)cc21

>  <score_type>  (93) 
oracle

>  <origin>  (93) 
adg

>  <m_score__min__energy>  (93) 
-10.93

>  <m_primary>  (93) 
energy

$$$$
93:0
     RDKit          3D

 40 41  0  0  0  0  0  0  0  0999 V2000
   -6.1420   17.4750  -31.4420 C   0  0  0  0  0  0  0  0  0  0  0  0
   -6.8920   18.2190  -32.5530 C   0  0  2  0  0  0  0  0  0  0  0  0
   -6.1910   18.0920  -33.8780 C   0  0  0  0  0  0  0  0  0  0  0  0
   -6.0240   16.9550  -34.3920 O   0  0  0  0  0  0  0  0  0  0  0  0
   -5.7730   19.2220  -34.5710 O   0  0  0  0  0  0  0  0  0  0  0  0
   -7.0970   19.6760  -32.1940 C   0  0  0  0  0  0  0  0  0  0  0  0
   -8.3930   20.2590  -32.2230 C   0  0  0  0  0  0  0  0  0  0  0  0
   -8.5810   21.6140  -31.9000 C   0  0  0  0  0  0  0  0  0  0  0  0
   -7.4610   22.3610  -31.5450 C   0  0  0  0  0  0  0  0  0  0  0  0
   -7.3500   23.6910  -31.2050 C   0  0  0  0  0  0  0  0  0  0  0  0
   -5.9930   23.8970  -30.9620 C   0  0  0  0  0  0  0  0  0  0  0  0
   -5.4210   25.1890  -30.5250 C   0  0  0  0  0  0  0  0  0  0  0  0
   -4.0150   25.4230  -30.5720 N   0  0  0  0  0  0  0  0  0  0  0  0
   -6.1810   26.0920  -30.0860 O   0  0  0  0  0  0  0  0  0  0  0  0
   -5.2990   22.7410  -31.1410 N   0  0  0  0  0  0  0  0  0  0  0  0
   -3.8810   22.5410  -31.0510 C   0  0  0  0  0  0  0  0  0  0  0  0
   -3.1720   22.6930  -32.0830 O   0  0  0  0  0  0  0  0  0  0  0  0
   -3.2710   22.1800  -29.8000 N   0  0  0  0  0  0  0  0  0  0  0  0
   -3.1820   20.7740  -29.4090 C   0  0  0  0  0  0  0  0  0  0  0  0
   -2.7960   23.4170  -28.6730 S   0  0  0  0  0  0  0  0  0  0  0  0
   -2.0090   22.6630  -27.2680 C   0  0  0  0  0  0  0  0  0  0  0  0
   -1.8380   24.3710  -29.3320 O   0  0  0  0  0  0  0  0  0  0  0  0
   -4.0040   24.1880  -28.2230 O   0  0  0  0  0  0  0  0  0  0  0  0
   -6.2080   21.8120  -31.5030 C   0  0  0  0  0  0  0  0  0  0  0  0
   -5.9860   20.4720  -31.8330 C   0  0  0  0  0  0  0  0  0  0  0  0
   -6.4962   17.8264  -30.4616 H   0  0  0  0  0  0  0  0  0  0  0  0
   -6.3284   16.3948  -31.5336 H   0  0  0  0  0  0  0  0  0  0  0  0
   -5.0633   17.6700  -31.5336 H   0  0  0  0  0  0  0  0  0  0  0  0
   -7.8803   17.7461  -32.6506 H   0  0  0  0  0  0  0  0  0  0  0  0
   -9.2599   19.6419  -32.5018 H   0  0  0  0  0  0  0  0  0  0  0  0
   -9.5817   22.0700  -31.9269 H   0  0  0  0  0  0  0  0  0  0  0  0
   -8.1597   24.4327  -31.1392 H   0  0  0  0  0  0  0  0  0  0  0  0
   -3.4830   25.6750  -29.7090 H   0  0  0  0  0  0  0  0  0  0  0  0
   -3.1772   20.6982  -28.3116 H   0  0  0  0  0  0  0  0  0  0  0  0
   -4.0473   20.2263  -29.8106 H   0  0  0  0  0  0  0  0  0  0  0  0
   -2.2546   20.3397  -29.8106 H   0  0  0  0  0  0  0  0  0  0  0  0
   -2.4384   23.0744  -26.3426 H   0  0  0  0  0  0  0  0  0  0  0  0
   -2.1722   21.5755  -27.2961 H   0  0  0  0  0  0  0  0  0  0  0  0
   -0.9295   22.8726  -27.2961 H   0  0  0  0  0  0  0  0  0  0  0  0
   -4.9715   20.0472  -31.8123 H   0  0  0  0  0  0  0  0  0  0  0  0
  1  2  1  0
  2  3  1  0
  3  4  2  0
  3  5  1  0
  2  6  1  0
  6  7  2  0
  7  8  1  0
  8  9  2  0
  9 10  1  0
 10 11  2  0
 11 12  1  0
 12 13  1  0
 12 14  2  0
 11 15  1  0
 15 16  1  0
 16 17  2  0
 16 18  1  0
 18 19  1  0
 18 20  1  0
 20 21  1  0
 20 22  2  0
 20 23  2  0
 15 24  1  0
 24 25  2  0
 25  6  1  0
 24  9  1  0
  1 26  1  0
  1 27  1  0
  1 28  1  0
  2 29  1  6
  7 30  1  0
  8 31  1  0
 10 32  1  0
 13 33  1  0
 19 34  1  0
 19 35  1  0
 19 36  1  0
 21 37  1  0
 21 38  1  0
 21 39  1  0
 25 40  1  0
M  CHG  2   5  -1  13  -1
M  END
>  <UniqueID>  (94) 
93

>  <SMILES>  (94) 
C[C@H](C(=O)[O-])c1ccc2cc(C([NH-])=O)n(C(=O)N(C)S(C)(=O)=O)c2c1

>  <Energy>  (94) 
73.76814672136791

>  <Genealogy>  (94) 
CC(C(=O)[O-])c1ccc2cc(C([NH-])=O)n(C(=O)N(C)S(C)(=O)=O)c2c1 (protonated)
C[C@H](C(=O)[O-])c1ccc2cc(C([NH-])=O)n(C(=O)N(C)S(C)(=O)=O)c2c1 (chirality)
C[C@H](C(=O)[O-])c1ccc2cc(C([NH-])=O)n(C(=O)N(C)S(C)(=O)=O)c2c1 (3D coordinates assigned)
C[C@H](C(=O)[O-])c1ccc2cc(C([NH-])=O)n(C(=O)N(C)S(C)(=O)=O)c2c1 (optimized conformer: 73.76814672136791 kcal/mol)

>  <smiles>  (94) 
CC(C(=O)O)c1ccc2cc(C(N)=O)n(C(=O)N(C)S(C)(=O)=O)c2c1

>  <score_type>  (94) 
oracle

>  <origin>  (94) 
adg

>  <m_score__min__energy>  (94) 
-10.92

>  <m_primary>  (94) 
energy

$$$$
94:0
     RDKit          3D

 44 45  0  0  0  0  0  0  0  0999 V2000
   -2.3240   22.7830  -27.2160 C   0  0  0  0  0  0  0  0  0  0  0  0
   -2.7790   23.0770  -28.6510 C   0  0  2  0  0  0  0  0  0  0  0  0
   -1.9390   22.4160  -29.5630 O   0  0  0  0  0  0  0  0  0  0  0  0
   -2.7970   24.5950  -28.9500 C   0  0  2  0  0  0  0  0  0  0  0  0
   -3.4390   24.8470  -30.2380 N   0  0  0  0  0  0  0  0  0  0  0  0
   -4.8530   24.9570  -30.4160 C   0  0  0  0  0  0  0  0  0  0  0  0
   -5.4460   26.0460  -30.1830 O   0  0  0  0  0  0  0  0  0  0  0  0
   -5.6350   23.7760  -30.9010 C   0  0  0  0  0  0  0  0  0  0  0  0
   -5.0830   23.2620  -32.1140 O   0  0  0  0  0  0  0  0  0  0  0  0
   -3.9390   22.4550  -32.1600 C   0  0  0  0  0  0  0  0  0  0  0  0
   -2.8350   22.9010  -31.7440 O   0  0  0  0  0  0  0  0  0  0  0  0
   -4.0280   21.1140  -32.6780 N   0  0  0  0  0  0  0  0  0  0  0  0
   -3.0480   20.4080  -33.3110 C   0  0  0  0  0  0  0  0  0  0  0  0
   -1.6390   20.8180  -33.4480 C   0  0  0  0  0  0  0  0  0  0  0  0
   -0.9220   21.3630  -32.3420 N   0  0  0  0  0  0  0  0  0  0  0  0
   -1.0410   20.6290  -34.5400 O   0  0  0  0  0  0  0  0  0  0  0  0
   -3.5350   19.1920  -33.7770 C   0  0  0  0  0  0  0  0  0  0  0  0
   -4.8550   19.1610  -33.3960 C   0  0  0  0  0  0  0  0  0  0  0  0
   -5.8220   18.1830  -33.6120 C   0  0  0  0  0  0  0  0  0  0  0  0
   -7.1200   18.4230  -33.1380 C   0  0  0  0  0  0  0  0  0  0  0  0
   -7.4320   19.6260  -32.4550 C   0  0  0  0  0  0  0  0  0  0  0  0
   -8.8480   19.8950  -32.0120 C   0  0  0  0  0  0  0  0  0  0  0  0
   -9.0570   21.2520  -31.8270 F   0  0  0  0  0  0  0  0  0  0  0  0
   -9.7230   19.4310  -32.9760 F   0  0  0  0  0  0  0  0  0  0  0  0
   -9.1100   19.2510  -30.8150 F   0  0  0  0  0  0  0  0  0  0  0  0
   -6.4270   20.6090  -32.2800 C   0  0  0  0  0  0  0  0  0  0  0  0
   -5.1320   20.3320  -32.7380 C   0  0  0  0  0  0  0  0  0  0  0  0
   -1.4120   25.1770  -28.9670 C   0  0  0  0  0  0  0  0  0  0  0  0
   -1.2410   26.4260  -28.9500 O   0  0  0  0  0  0  0  0  0  0  0  0
   -0.3070   24.3370  -29.0430 O   0  0  0  0  0  0  0  0  0  0  0  0
   -3.0302   23.2393  -26.5067 H   0  0  0  0  0  0  0  0  0  0  0  0
   -2.2952   21.6951  -27.0561 H   0  0  0  0  0  0  0  0  0  0  0  0
   -1.3203   23.2038  -27.0561 H   0  0  0  0  0  0  0  0  0  0  0  0
   -3.8085   22.7050  -28.7597 H   0  0  0  0  0  0  0  0  0  0  0  0
   -1.6310   23.0960  -30.2170 H   0  0  0  0  0  0  0  0  0  0  0  0
   -3.3664   25.0804  -28.1437 H   0  0  0  0  0  0  0  0  0  0  0  0
   -5.6120   22.9889  -30.1330 H   0  0  0  0  0  0  0  0  0  0  0  0
   -6.6700   24.0950  -31.0935 H   0  0  0  0  0  0  0  0  0  0  0  0
    0.0650   21.6810  -32.4590 H   0  0  0  0  0  0  0  0  0  0  0  0
   -1.3460   21.3780  -31.3880 H   0  0  0  0  0  0  0  0  0  0  0  0
   -2.9820   18.4199  -34.3320 H   0  0  0  0  0  0  0  0  0  0  0  0
   -5.5753   17.2495  -34.1389 H   0  0  0  0  0  0  0  0  0  0  0  0
   -7.9051   17.6693  -33.2979 H   0  0  0  0  0  0  0  0  0  0  0  0
   -6.6582   21.5689  -31.7951 H   0  0  0  0  0  0  0  0  0  0  0  0
  1  2  1  0
  2  3  1  0
  2  4  1  0
  4  5  1  0
  5  6  1  0
  6  7  2  0
  6  8  1  0
  8  9  1  0
  9 10  1  0
 10 11  2  0
 10 12  1  0
 12 13  1  0
 13 14  1  0
 14 15  1  0
 14 16  2  0
 13 17  2  0
 17 18  1  0
 18 19  2  0
 19 20  1  0
 20 21  2  0
 21 22  1  0
 22 23  1  0
 22 24  1  0
 22 25  1  0
 21 26  1  0
 26 27  2  0
  4 28  1  0
 28 29  2  0
 28 30  1  0
 27 12  1  0
 27 18  1  0
  1 31  1  0
  1 32  1  0
  1 33  1  0
  2 34  1  1
  3 35  1  0
  4 36  1  1
  8 37  1  0
  8 38  1  0
 15 39  1  0
 15 40  1  0
 17 41  1  0
 19 42  1  0
 20 43  1  0
 26 44  1  0
M  CHG  2   5  -1  30  -1
M  END
>  <UniqueID>  (95) 
94

>  <SMILES>  (95) 
C[C@H](O)[C@H]([N-]C(=O)COC(=O)n1c(C(N)=O)cc2ccc(C(F)(F)F)cc21)C(=O)[O-]

>  <Energy>  (95) 
75.68578256903099

>  <Genealogy>  (95) 
CC(O)C([N-]C(=O)COC(=O)n1c(C(N)=O)cc2ccc(C(F)(F)F)cc21)C(=O)[O-] (protonated)
C[C@H](O)[C@H]([N-]C(=O)COC(=O)n1c(C(N)=O)cc2ccc(C(F)(F)F)cc21)C(=O)[O-] (chirality)
C[C@H](O)[C@H]([N-]C(=O)COC(=O)n1c(C(N)=O)cc2ccc(C(F)(F)F)cc21)C(=O)[O-] (3D coordinates assigned)
C[C@H](O)[C@H]([N-]C(=O)COC(=O)n1c(C(N)=O)cc2ccc(C(F)(F)F)cc21)C(=O)[O-] (optimized conformer: 75.68578256903099 kcal/mol)

>  <smiles>  (95) 
CC(O)C(NC(=O)COC(=O)n1c(C(N)=O)cc2ccc(C(F)(F)F)cc21)C(=O)O

>  <score_type>  (95) 
oracle

>  <origin>  (95) 
adg

>  <m_score__min__energy>  (95) 
-11.42

>  <m_primary>  (95) 
energy

$$$$
95:0
     RDKit          3D

 40 42  0  0  0  0  0  0  0  0999 V2000
   -3.9940   25.6370  -30.8450 N   0  0  0  0  0  0  0  0  0  0  0  0
   -5.2190   25.0950  -30.3670 C   0  0  0  0  0  0  0  0  0  0  0  0
   -5.9560   25.7970  -29.6270 O   0  0  0  0  0  0  0  0  0  0  0  0
   -5.6690   23.7480  -30.7780 C   0  0  0  0  0  0  0  0  0  0  0  0
   -6.9850   23.4570  -31.1350 C   0  0  0  0  0  0  0  0  0  0  0  0
   -6.9700   22.1410  -31.5360 C   0  0  0  0  0  0  0  0  0  0  0  0
   -8.0080   21.3360  -32.0060 C   0  0  0  0  0  0  0  0  0  0  0  0
   -7.7070   20.0030  -32.3300 C   0  0  0  0  0  0  0  0  0  0  0  0
   -6.3990   19.4870  -32.1580 C   0  0  0  0  0  0  0  0  0  0  0  0
   -6.1480   18.0970  -32.4470 N   0  0  0  0  0  0  0  0  0  0  0  0
   -5.3850   17.6400  -33.6140 C   0  0  0  0  0  0  0  0  0  0  0  0
   -5.0310   16.1350  -33.7030 C   0  0  0  0  0  0  0  0  0  0  0  0
   -5.3680   15.4450  -32.5250 O   0  0  0  0  0  0  0  0  0  0  0  0
   -4.4360   18.6920  -34.1970 C   0  0  0  0  0  0  0  0  0  0  0  0
   -5.7310   18.3540  -34.9190 C   0  0  0  0  0  0  0  0  0  0  0  0
   -5.3720   20.3390  -31.6780 C   0  0  0  0  0  0  0  0  0  0  0  0
   -5.6890   21.6740  -31.4000 C   0  0  0  0  0  0  0  0  0  0  0  0
   -4.8750   22.6480  -30.9290 N   0  0  0  0  0  0  0  0  0  0  0  0
   -3.4770   22.5090  -30.6070 C   0  0  0  0  0  0  0  0  0  0  0  0
   -2.7700   21.6550  -31.2100 O   0  0  0  0  0  0  0  0  0  0  0  0
   -2.8990   23.3460  -29.6490 O   0  0  0  0  0  0  0  0  0  0  0  0
   -1.5710   23.1680  -29.1730 C   0  0  0  0  0  0  0  0  0  0  0  0
   -0.9430   24.4990  -28.9430 C   0  0  0  0  0  0  0  0  0  0  0  0
    0.2020   24.5790  -28.4200 O   0  0  0  0  0  0  0  0  0  0  0  0
   -1.6190   25.6610  -29.3020 O   0  0  0  0  0  0  0  0  0  0  0  0
   -3.0750   25.2930  -30.4880 H   0  0  0  0  0  0  0  0  0  0  0  0
   -7.8506   24.1350  -31.1029 H   0  0  0  0  0  0  0  0  0  0  0  0
   -9.0280   21.7321  -32.1190 H   0  0  0  0  0  0  0  0  0  0  0  0
   -8.4994   19.3494  -32.7235 H   0  0  0  0  0  0  0  0  0  0  0  0
   -6.4140   17.3760  -31.7340 H   0  0  0  0  0  0  0  0  0  0  0  0
   -5.5810   15.6898  -34.5452 H   0  0  0  0  0  0  0  0  0  0  0  0
   -3.9440   16.0492  -33.8484 H   0  0  0  0  0  0  0  0  0  0  0  0
   -4.9520   14.5410  -32.6030 H   0  0  0  0  0  0  0  0  0  0  0  0
   -4.3222   19.6662  -33.6990 H   0  0  0  0  0  0  0  0  0  0  0  0
   -3.3721   18.7101  -34.4759 H   0  0  0  0  0  0  0  0  0  0  0  0
   -6.5527   19.0849  -34.9438 H   0  0  0  0  0  0  0  0  0  0  0  0
   -5.9890   18.0273  -35.9372 H   0  0  0  0  0  0  0  0  0  0  0  0
   -4.3504   19.9599  -31.5276 H   0  0  0  0  0  0  0  0  0  0  0  0
   -1.5925   22.6047  -28.2284 H   0  0  0  0  0  0  0  0  0  0  0  0
   -0.9858   22.6107  -29.9193 H   0  0  0  0  0  0  0  0  0  0  0  0
  1  2  1  0
  2  3  2  0
  2  4  1  0
  4  5  2  0
  5  6  1  0
  6  7  2  0
  7  8  1  0
  8  9  2  0
  9 10  1  0
 10 11  1  0
 11 12  1  0
 12 13  1  0
 11 14  1  0
 14 15  1  0
  9 16  1  0
 16 17  2  0
 17 18  1  0
 18 19  1  0
 19 20  2  0
 19 21  1  0
 21 22  1  0
 22 23  1  0
 23 24  2  0
 23 25  1  0
 18  4  1  0
 17  6  1  0
 15 11  1  0
  1 26  1  0
  5 27  1  0
  7 28  1  0
  8 29  1  0
 10 30  1  0
 12 31  1  0
 12 32  1  0
 13 33  1  0
 14 34  1  0
 14 35  1  0
 15 36  1  0
 15 37  1  0
 16 38  1  0
 22 39  1  0
 22 40  1  0
M  CHG  2   1  -1  25  -1
M  END
>  <UniqueID>  (96) 
95

>  <SMILES>  (96) 
[NH-]C(=O)c1cc2ccc(NC3(CO)CC3)cc2n1C(=O)OCC(=O)[O-]

>  <Energy>  (96) 
346.1679023384998

>  <Genealogy>  (96) 
[NH-]C(=O)c1cc2ccc(NC3(CO)CC3)cc2n1C(=O)OCC(=O)[O-] (protonated)
[NH-]C(=O)c1cc2ccc(NC3(CO)CC3)cc2n1C(=O)OCC(=O)[O-] (3D coordinates assigned)
[NH-]C(=O)c1cc2ccc(NC3(CO)CC3)cc2n1C(=O)OCC(=O)[O-] (nonaromatic ring conformer: 346.1679023384998 kcal/mol)

>  <smiles>  (96) 
NC(=O)c1cc2ccc(NC3(CO)CC3)cc2n1C(=O)OCC(=O)O

>  <score_type>  (96) 
oracle

>  <origin>  (96) 
adg

>  <m_score__min__energy>  (96) 
-12.789999999999999

>  <m_primary>  (96) 
energy

$$$$
96:0
     RDKit          3D

 35 36  0  0  0  0  0  0  0  0999 V2000
   -3.7730   22.2120  -28.4810 C   0  0  0  0  0  0  0  0  0  0  0  0
   -3.0870   22.6320  -29.7050 N   0  0  0  0  0  0  0  0  0  0  0  0
   -1.6480   22.9320  -29.6680 C   0  0  0  0  0  0  0  0  0  0  0  0
   -1.4060   24.3480  -29.2480 C   0  0  0  0  0  0  0  0  0  0  0  0
   -2.3010   25.2190  -29.4020 O   0  0  0  0  0  0  0  0  0  0  0  0
   -0.1990   24.7000  -28.6560 O   0  0  0  0  0  0  0  0  0  0  0  0
   -3.8230   22.6850  -30.9430 C   0  0  0  0  0  0  0  0  0  0  0  0
   -3.2100   22.6470  -32.0440 O   0  0  0  0  0  0  0  0  0  0  0  0
   -5.2530   22.7890  -30.9430 N   0  0  0  0  0  0  0  0  0  0  0  0
   -6.0040   23.9140  -30.7890 C   0  0  0  0  0  0  0  0  0  0  0  0
   -5.4900   25.2620  -30.4680 C   0  0  0  0  0  0  0  0  0  0  0  0
   -4.1780   25.6750  -30.8560 N   0  0  0  0  0  0  0  0  0  0  0  0
   -6.2120   26.0550  -29.8070 O   0  0  0  0  0  0  0  0  0  0  0  0
   -7.3510   23.6320  -31.0120 C   0  0  0  0  0  0  0  0  0  0  0  0
   -7.3970   22.2890  -31.3140 C   0  0  0  0  0  0  0  0  0  0  0  0
   -8.4760   21.4840  -31.6680 C   0  0  0  0  0  0  0  0  0  0  0  0
   -8.2180   20.1410  -31.9930 C   0  0  0  0  0  0  0  0  0  0  0  0
   -6.8950   19.6270  -31.9580 C   0  0  0  0  0  0  0  0  0  0  0  0
   -6.6220   18.2010  -32.3650 C   0  0  0  0  0  0  0  0  0  0  0  0
   -5.7170   18.1910  -33.4090 F   0  0  0  0  0  0  0  0  0  0  0  0
   -7.7890   17.5760  -32.7710 F   0  0  0  0  0  0  0  0  0  0  0  0
   -6.0940   17.4850  -31.3040 F   0  0  0  0  0  0  0  0  0  0  0  0
   -5.8240   20.4860  -31.6270 C   0  0  0  0  0  0  0  0  0  0  0  0
   -6.1150   21.8080  -31.2780 C   0  0  0  0  0  0  0  0  0  0  0  0
   -3.2056   22.5594  -27.6050 H   0  0  0  0  0  0  0  0  0  0  0  0
   -4.7833   22.6466  -28.4594 H   0  0  0  0  0  0  0  0  0  0  0  0
   -3.8454   21.1146  -28.4594 H   0  0  0  0  0  0  0  0  0  0  0  0
   -1.1578   22.2557  -28.9522 H   0  0  0  0  0  0  0  0  0  0  0  0
   -1.2344   22.7903  -30.6774 H   0  0  0  0  0  0  0  0  0  0  0  0
   -3.4750   24.9940  -31.2150 H   0  0  0  0  0  0  0  0  0  0  0  0
   -3.8670   26.6550  -30.6770 H   0  0  0  0  0  0  0  0  0  0  0  0
   -8.1970   24.3330  -30.9582 H   0  0  0  0  0  0  0  0  0  0  0  0
   -9.4994   21.8866  -31.6927 H   0  0  0  0  0  0  0  0  0  0  0  0
   -9.0505   19.4808  -32.2777 H   0  0  0  0  0  0  0  0  0  0  0  0
   -4.7856   20.1235  -31.6434 H   0  0  0  0  0  0  0  0  0  0  0  0
  1  2  1  0
  2  3  1  0
  3  4  1  0
  4  5  2  0
  4  6  1  0
  2  7  1  0
  7  8  2  0
  7  9  1  0
  9 10  1  0
 10 11  1  0
 11 12  1  0
 11 13  2  0
 10 14  2  0
 14 15  1  0
 15 16  2  0
 16 17  1  0
 17 18  2  0
 18 19  1  0
 19 20  1  0
 19 21  1  0
 19 22  1  0
 18 23  1  0
 23 24  2  0
 24  9  1  0
 24 15  1  0
  1 25  1  0
  1 26  1  0
  1 27  1  0
  3 28  1  0
  3 29  1  0
 12 30  1  0
 12 31  1  0
 14 32  1  0
 16 33  1  0
 17 34  1  0
 23 35  1  0
M  CHG  1   6  -1
M  END
>  <UniqueID>  (97) 
96

>  <SMILES>  (97) 
CN(CC(=O)[O-])C(=O)n1c(C(N)=O)cc2ccc(C(F)(F)F)cc21

>  <Energy>  (97) 
73.34032245366066

>  <Genealogy>  (97) 
CN(CC(=O)[O-])C(=O)n1c(C(N)=O)cc2ccc(C(F)(F)F)cc21 (protonated)
CN(CC(=O)[O-])C(=O)n1c(C(N)=O)cc2ccc(C(F)(F)F)cc21 (3D coordinates assigned)
CN(CC(=O)[O-])C(=O)n1c(C(N)=O)cc2ccc(C(F)(F)F)cc21 (optimized conformer: 73.34032245366066 kcal/mol)

>  <smiles>  (97) 
CN(CC(=O)O)C(=O)n1c(C(N)=O)cc2ccc(C(F)(F)F)cc21

>  <score_type>  (97) 
oracle

>  <origin>  (97) 
adg

>  <m_score__min__energy>  (97) 
-10.4

>  <m_primary>  (97) 
energy

$$$$
97:0
     RDKit          3D

 55 57  0  0  0  0  0  0  0  0999 V2000
   -3.5700   23.9690  -27.5460 C   0  0  0  0  0  0  0  0  0  0  0  0
   -2.1000   24.3290  -27.2730 C   0  0  0  0  0  0  0  0  0  0  0  0
   -1.3590   23.0930  -26.7240 C   0  0  0  0  0  0  0  0  0  0  0  0
   -2.0330   25.4540  -26.2200 C   0  0  0  0  0  0  0  0  0  0  0  0
   -1.4630   24.7940  -28.5680 C   0  0  0  0  0  0  0  0  0  0  0  0
   -1.5600   26.0010  -28.9240 O   0  0  0  0  0  0  0  0  0  0  0  0
   -0.6970   23.9020  -29.3270 O   0  0  0  0  0  0  0  0  0  0  0  0
   -1.2710   22.8740  -30.1310 C   0  0  0  0  0  0  0  0  0  0  0  0
   -2.6600   23.1260  -30.3330 O   0  0  0  0  0  0  0  0  0  0  0  0
   -3.3790   22.5810  -31.4040 C   0  0  0  0  0  0  0  0  0  0  0  0
   -2.7710   22.0340  -32.3650 O   0  0  0  0  0  0  0  0  0  0  0  0
   -4.8110   22.6800  -31.4270 N   0  0  0  0  0  0  0  0  0  0  0  0
   -5.5790   23.7510  -31.0810 C   0  0  0  0  0  0  0  0  0  0  0  0
   -5.1020   24.9810  -30.4200 C   0  0  0  0  0  0  0  0  0  0  0  0
   -3.8870   25.6050  -30.8270 N   0  0  0  0  0  0  0  0  0  0  0  0
   -5.7450   25.4590  -29.4480 O   0  0  0  0  0  0  0  0  0  0  0  0
   -6.9230   23.4990  -31.3510 C   0  0  0  0  0  0  0  0  0  0  0  0
   -6.9570   22.2250  -31.8690 C   0  0  0  0  0  0  0  0  0  0  0  0
   -8.0370   21.4670  -32.3110 C   0  0  0  0  0  0  0  0  0  0  0  0
   -7.7770   20.1860  -32.8230 C   0  0  0  0  0  0  0  0  0  0  0  0
   -6.4500   19.6890  -32.8960 C   0  0  0  0  0  0  0  0  0  0  0  0
   -6.1950   18.3720  -33.4200 N   0  0  0  0  0  0  0  0  0  0  0  0
   -5.7060   18.1840  -34.7910 C   0  0  0  0  0  0  0  0  0  0  0  0
   -4.4610   17.2730  -34.8030 C   0  0  0  0  0  0  0  0  0  0  0  0
   -4.3970   16.3440  -33.6540 N   0  0  0  0  0  0  0  0  0  0  0  0
   -5.7260   15.9600  -33.1590 C   0  0  0  0  0  0  0  0  0  0  0  0
   -6.4550   17.1870  -32.5930 C   0  0  0  0  0  0  0  0  0  0  0  0
   -5.3800   20.4870  -32.4300 C   0  0  0  0  0  0  0  0  0  0  0  0
   -5.6700   21.7530  -31.9080 C   0  0  0  0  0  0  0  0  0  0  0  0
   -4.0993   23.8394  -26.5905 H   0  0  0  0  0  0  0  0  0  0  0  0
   -4.0447   24.7774  -28.1214 H   0  0  0  0  0  0  0  0  0  0  0  0
   -3.6174   23.0327  -28.1214 H   0  0  0  0  0  0  0  0  0  0  0  0
   -1.3727   23.1158  -25.6243 H   0  0  0  0  0  0  0  0  0  0  0  0
   -1.8582   22.1790  -27.0780 H   0  0  0  0  0  0  0  0  0  0  0  0
   -0.3176   23.1026  -27.0780 H   0  0  0  0  0  0  0  0  0  0  0  0
   -2.0592   25.0147  -25.2119 H   0  0  0  0  0  0  0  0  0  0  0  0
   -1.0995   26.0214  -26.3486 H   0  0  0  0  0  0  0  0  0  0  0  0
   -2.8926   26.1282  -26.3486 H   0  0  0  0  0  0  0  0  0  0  0  0
   -0.7610   22.8470  -31.1052 H   0  0  0  0  0  0  0  0  0  0  0  0
   -1.1518   21.9081  -29.6184 H   0  0  0  0  0  0  0  0  0  0  0  0
   -2.9690   25.2920  -30.4390 H   0  0  0  0  0  0  0  0  0  0  0  0
   -7.7749   24.1748  -31.1852 H   0  0  0  0  0  0  0  0  0  0  0  0
   -9.0633   21.8596  -32.2607 H   0  0  0  0  0  0  0  0  0  0  0  0
   -8.6118   19.5602  -33.1717 H   0  0  0  0  0  0  0  0  0  0  0  0
   -6.4986   17.7211  -35.3973 H   0  0  0  0  0  0  0  0  0  0  0  0
   -5.4321   19.1646  -35.2075 H   0  0  0  0  0  0  0  0  0  0  0  0
   -4.4726   16.6802  -35.7295 H   0  0  0  0  0  0  0  0  0  0  0  0
   -3.5803   17.9288  -34.7375 H   0  0  0  0  0  0  0  0  0  0  0  0
   -3.8560   16.7890  -32.8740 H   0  0  0  0  0  0  0  0  0  0  0  0
   -3.8830   15.4790  -33.9440 H   0  0  0  0  0  0  0  0  0  0  0  0
   -6.3142   15.5376  -33.9870 H   0  0  0  0  0  0  0  0  0  0  0  0
   -5.6098   15.2115  -32.3613 H   0  0  0  0  0  0  0  0  0  0  0  0
   -7.5368   16.9885  -32.5764 H   0  0  0  0  0  0  0  0  0  0  0  0
   -6.0866   17.3787  -31.5744 H   0  0  0  0  0  0  0  0  0  0  0  0
   -4.3436   20.1214  -32.4766 H   0  0  0  0  0  0  0  0  0  0  0  0
  1  2  1  0
  2  3  1  0
  2  4  1  0
  2  5  1  0
  5  6  2  0
  5  7  1  0
  7  8  1  0
  8  9  1  0
  9 10  1  0
 10 11  2  0
 10 12  1  0
 12 13  1  0
 13 14  1  0
 14 15  1  0
 14 16  2  0
 13 17  2  0
 17 18  1  0
 18 19  2  0
 19 20  1  0
 20 21  2  0
 21 22  1  0
 22 23  1  0
 23 24  1  0
 24 25  1  0
 25 26  1  0
 26 27  1  0
 21 28  1  0
 28 29  2  0
 29 12  1  0
 29 18  1  0
 27 22  1  0
  1 30  1  0
  1 31  1  0
  1 32  1  0
  3 33  1  0
  3 34  1  0
  3 35  1  0
  4 36  1  0
  4 37  1  0
  4 38  1  0
  8 39  1  0
  8 40  1  0
 15 41  1  0
 17 42  1  0
 19 43  1  0
 20 44  1  0
 23 45  1  0
 23 46  1  0
 24 47  1  0
 24 48  1  0
 25 49  1  0
 25 50  1  0
 26 51  1  0
 26 52  1  0
 27 53  1  0
 27 54  1  0
 28 55  1  0
M  CHG  2  15  -1  25   1
M  END
>  <UniqueID>  (98) 
97

>  <SMILES>  (98) 
CC(C)(C)C(=O)OCOC(=O)n1c(C([NH-])=O)cc2ccc(N3CC[NH2+]CC3)cc21

>  <Energy>  (98) 
94.8145004349969

>  <Genealogy>  (98) 
CC(C)(C)C(=O)OCOC(=O)n1c(C([NH-])=O)cc2ccc(N3CC[NH2+]CC3)cc21 (protonated)
CC(C)(C)C(=O)OCOC(=O)n1c(C([NH-])=O)cc2ccc(N3CC[NH2+]CC3)cc21 (3D coordinates assigned)
CC(C)(C)C(=O)OCOC(=O)n1c(C([NH-])=O)cc2ccc(N3CC[NH2+]CC3)cc21 (nonaromatic ring conformer: 94.8145004349969 kcal/mol)

>  <smiles>  (98) 
CC(C)(C)C(=O)OCOC(=O)n1c(C(N)=O)cc2ccc(N3CCNCC3)cc21

>  <score_type>  (98) 
oracle

>  <origin>  (98) 
adg

>  <m_score__min__energy>  (98) 
-11.02

>  <m_primary>  (98) 
energy

$$$$
