0:0
     RDKit          3D

 43 45  0  0  0  0  0  0  0  0999 V2000
   -4.8540   17.4060  -34.8310 C   0  0  0  0  0  0  0  0  0  0  0  0
   -5.3300   16.9380  -33.5210 N   0  0  2  0  0  0  0  0  0  0  0  0
   -6.7740   16.6600  -33.4810 C   0  0  0  0  0  0  0  0  0  0  0  0
   -7.0230   17.7530  -32.4450 C   0  0  2  0  0  0  0  0  0  0  0  0
   -7.8790   18.8580  -32.9040 N   0  0  0  0  0  0  0  0  0  0  0  0
   -7.8200   20.2020  -32.4100 C   0  0  0  0  0  0  0  0  0  0  0  0
   -9.0150   20.9340  -32.2210 C   0  0  0  0  0  0  0  0  0  0  0  0
   -8.9800   22.2410  -31.7070 C   0  0  0  0  0  0  0  0  0  0  0  0
   -7.7370   22.7820  -31.3860 C   0  0  0  0  0  0  0  0  0  0  0  0
   -7.4150   24.0120  -30.8610 C   0  0  0  0  0  0  0  0  0  0  0  0
   -6.0260   24.0100  -30.7410 C   0  0  0  0  0  0  0  0  0  0  0  0
   -5.2490   25.1890  -30.3060 C   0  0  0  0  0  0  0  0  0  0  0  0
   -3.8570   25.2990  -30.5920 N   0  0  0  0  0  0  0  0  0  0  0  0
   -5.8330   26.1380  -29.7160 O   0  0  0  0  0  0  0  0  0  0  0  0
   -5.5120   22.8180  -31.1620 N   0  0  0  0  0  0  0  0  0  0  0  0
   -4.1400   22.3950  -31.1630 C   0  0  0  0  0  0  0  0  0  0  0  0
   -3.5270   22.2330  -30.0730 O   0  0  0  0  0  0  0  0  0  0  0  0
   -3.5010   22.1360  -32.3800 O   0  0  0  0  0  0  0  0  0  0  0  0
   -2.3980   21.2430  -32.4980 C   0  0  0  0  0  0  0  0  0  0  0  0
   -2.7570   20.1140  -33.4540 C   0  0  0  0  0  0  0  0  0  0  0  0
   -4.0860   20.2130  -33.8240 F   0  0  0  0  0  0  0  0  0  0  0  0
   -2.5460   18.8920  -32.8400 F   0  0  0  0  0  0  0  0  0  0  0  0
   -1.9650   20.1940  -34.5850 F   0  0  0  0  0  0  0  0  0  0  0  0
   -6.5720   22.0800  -31.5550 C   0  0  0  0  0  0  0  0  0  0  0  0
   -6.5830   20.7650  -32.0330 C   0  0  0  0  0  0  0  0  0  0  0  0
   -5.5240   18.0180  -32.5420 C   0  0  0  0  0  0  0  0  0  0  0  0
   -4.0764   18.1705  -34.6868 H   0  0  0  0  0  0  0  0  0  0  0  0
   -4.4351   16.5584  -35.3931 H   0  0  0  0  0  0  0  0  0  0  0  0
   -5.6944   17.8392  -35.3931 H   0  0  0  0  0  0  0  0  0  0  0  0
   -4.7590   16.1470  -33.1370 H   0  0  0  0  0  0  0  0  0  0  0  0
   -7.2826   16.8394  -34.4397 H   0  0  0  0  0  0  0  0  0  0  0  0
   -7.1155   15.6358  -33.2700 H   0  0  0  0  0  0  0  0  0  0  0  0
   -7.5342   17.5638  -31.4895 H   0  0  0  0  0  0  0  0  0  0  0  0
   -8.4430   18.6950  -33.7670 H   0  0  0  0  0  0  0  0  0  0  0  0
   -9.9812   20.4757  -32.4789 H   0  0  0  0  0  0  0  0  0  0  0  0
   -9.9048   22.8189  -31.5626 H   0  0  0  0  0  0  0  0  0  0  0  0
   -8.1064   24.8244  -30.5929 H   0  0  0  0  0  0  0  0  0  0  0  0
   -3.4950   26.0460  -31.2230 H   0  0  0  0  0  0  0  0  0  0  0  0
   -1.5251   21.7882  -32.8863 H   0  0  0  0  0  0  0  0  0  0  0  0
   -2.1594   20.8235  -31.5095 H   0  0  0  0  0  0  0  0  0  0  0  0
   -5.6514   20.1855  -32.1127 H   0  0  0  0  0  0  0  0  0  0  0  0
   -5.2791   19.0158  -32.9349 H   0  0  0  0  0  0  0  0  0  0  0  0
   -4.9214   18.0190  -31.6218 H   0  0  0  0  0  0  0  0  0  0  0  0
  1  2  1  0
  2  3  1  0
  3  4  1  0
  4  5  1  0
  5  6  1  0
  6  7  2  0
  7  8  1  0
  8  9  2  0
  9 10  1  0
 10 11  2  0
 11 12  1  0
 12 13  1  0
 12 14  2  0
 11 15  1  0
 15 16  1  0
 16 17  2  0
 16 18  1  0
 18 19  1  0
 19 20  1  0
 20 21  1  0
 20 22  1  0
 20 23  1  0
 15 24  1  0
 24 25  2  0
  4 26  1  0
 26  2  1  0
 25  6  1  0
 24  9  1  0
  1 27  1  0
  1 28  1  0
  1 29  1  0
  2 30  1  1
  3 31  1  0
  3 32  1  0
  4 33  1  1
  5 34  1  0
  7 35  1  0
  8 36  1  0
 10 37  1  0
 13 38  1  0
 19 39  1  0
 19 40  1  0
 25 41  1  0
 26 42  1  0
 26 43  1  0
M  CHG  2   2   1  13  -1
M  END
>  <UniqueID>  (1) 
1

>  <SMILES>  (1) 
C[NH+]1CC(Nc2ccc3cc(C([NH-])=O)n(C(=O)OCC(F)(F)F)c3c2)C1

>  <Energy>  (1) 
157.98532889371856

>  <Genealogy>  (1) 
C[NH+]1CC(Nc2ccc3cc(C([NH-])=O)n(C(=O)OCC(F)(F)F)c3c2)C1 (protonated)
C[NH+]1CC(Nc2ccc3cc(C([NH-])=O)n(C(=O)OCC(F)(F)F)c3c2)C1 (3D coordinates assigned)
C[NH+]1CC(Nc2ccc3cc(C([NH-])=O)n(C(=O)OCC(F)(F)F)c3c2)C1 (nonaromatic ring conformer: 157.98532889371856 kcal/mol)

>  <smiles>  (1) 
CN1CC(Nc2ccc3cc(C(N)=O)n(C(=O)OCC(F)(F)F)c3c2)C1

>  <score_type>  (1) 
oracle

>  <origin>  (1) 
adg

>  <m_score__min__energy>  (1) 
-9.5999999999999996

>  <m_primary>  (1) 
energy

$$$$
1:0
     RDKit          3D

 47 49  0  0  0  0  0  0  0  0999 V2000
   -4.2860   16.9740  -34.6800 C   0  0  0  0  0  0  0  0  0  0  0  0
   -4.9900   16.0090  -33.8170 N   0  0  0  0  0  0  0  0  0  0  0  0
   -4.7160   16.2370  -32.3770 C   0  0  0  0  0  0  0  0  0  0  0  0
   -5.7720   17.1230  -31.6860 C   0  0  0  0  0  0  0  0  0  0  0  0
   -6.4140   18.0040  -32.6730 N   0  0  0  0  0  0  0  0  0  0  0  0
   -7.2400   19.0480  -32.0260 C   0  0  0  0  0  0  0  0  0  0  0  0
   -6.7420   20.4260  -32.4650 C   0  0  0  0  0  0  0  0  0  0  0  0
   -5.5550   20.3130  -33.3240 N   0  0  0  0  0  0  0  0  0  0  0  0
   -4.3860   20.7490  -32.6030 C   0  0  0  0  0  0  0  0  0  0  0  0
   -3.1830   19.9960  -32.6660 C   0  0  0  0  0  0  0  0  0  0  0  0
   -2.0240   20.4400  -32.0100 C   0  0  0  0  0  0  0  0  0  0  0  0
   -2.0930   21.6360  -31.3000 C   0  0  0  0  0  0  0  0  0  0  0  0
   -1.1200   22.3030  -30.5930 C   0  0  0  0  0  0  0  0  0  0  0  0
   -1.7420   23.4440  -30.0930 C   0  0  0  0  0  0  0  0  0  0  0  0
   -1.0700   24.3990  -29.1870 C   0  0  0  0  0  0  0  0  0  0  0  0
   -1.6050   25.7010  -28.9660 N   0  0  0  0  0  0  0  0  0  0  0  0
   -0.0370   24.0430  -28.5590 O   0  0  0  0  0  0  0  0  0  0  0  0
   -3.0470   23.4860  -30.4850 N   0  0  0  0  0  0  0  0  0  0  0  0
   -4.0130   24.5210  -30.2340 C   0  0  0  0  0  0  0  0  0  0  0  0
   -3.8870   25.6500  -30.7760 O   0  0  0  0  0  0  0  0  0  0  0  0
   -5.1020   24.2790  -29.4060 O   0  0  0  0  0  0  0  0  0  0  0  0
   -3.2460   22.3710  -31.2200 C   0  0  0  0  0  0  0  0  0  0  0  0
   -4.4100   21.9640  -31.8790 C   0  0  0  0  0  0  0  0  0  0  0  0
   -7.1950   17.2110  -33.6450 C   0  0  0  0  0  0  0  0  0  0  0  0
   -6.4330   15.9490  -34.1110 C   0  0  0  0  0  0  0  0  0  0  0  0
   -3.7529   17.7048  -34.0541 H   0  0  0  0  0  0  0  0  0  0  0  0
   -3.5642   16.4394  -35.3151 H   0  0  0  0  0  0  0  0  0  0  0  0
   -5.0154   17.4981  -35.3151 H   0  0  0  0  0  0  0  0  0  0  0  0
   -4.6916   15.2622  -31.8680 H   0  0  0  0  0  0  0  0  0  0  0  0
   -3.7537   16.7655  -32.3090 H   0  0  0  0  0  0  0  0  0  0  0  0
   -6.5348   16.4830  -31.2185 H   0  0  0  0  0  0  0  0  0  0  0  0
   -5.2800   17.7389  -30.9187 H   0  0  0  0  0  0  0  0  0  0  0  0
   -8.2911   18.9239  -32.3256 H   0  0  0  0  0  0  0  0  0  0  0  0
   -7.1611   18.9572  -30.9326 H   0  0  0  0  0  0  0  0  0  0  0  0
   -7.5415   20.9355  -33.0229 H   0  0  0  0  0  0  0  0  0  0  0  0
   -6.4691   21.0001  -31.5673 H   0  0  0  0  0  0  0  0  0  0  0  0
   -5.6810   20.9010  -34.1800 H   0  0  0  0  0  0  0  0  0  0  0  0
   -5.4280   19.3200  -33.6300 H   0  0  0  0  0  0  0  0  0  0  0  0
   -3.1594   19.0549  -33.2350 H   0  0  0  0  0  0  0  0  0  0  0  0
   -1.0899   19.8609  -32.0554 H   0  0  0  0  0  0  0  0  0  0  0  0
   -0.0721   21.9993  -30.4523 H   0  0  0  0  0  0  0  0  0  0  0  0
   -2.6310   25.8740  -29.0170 H   0  0  0  0  0  0  0  0  0  0  0  0
   -5.3238   22.5748  -31.8355 H   0  0  0  0  0  0  0  0  0  0  0  0
   -8.1392   16.9013  -33.1731 H   0  0  0  0  0  0  0  0  0  0  0  0
   -7.3782   17.8415  -34.5275 H   0  0  0  0  0  0  0  0  0  0  0  0
   -6.8592   15.0730  -33.6001 H   0  0  0  0  0  0  0  0  0  0  0  0
   -6.5448   15.8804  -35.2032 H   0  0  0  0  0  0  0  0  0  0  0  0
  1  2  1  0
  2  3  1  0
  3  4  1  0
  4  5  1  0
  5  6  1  0
  6  7  1  0
  7  8  1  0
  8  9  1  0
  9 10  2  0
 10 11  1  0
 11 12  2  0
 12 13  1  0
 13 14  2  0
 14 15  1  0
 15 16  1  0
 15 17  2  0
 14 18  1  0
 18 19  1  0
 19 20  2  0
 19 21  1  0
 18 22  1  0
 22 23  2  0
  5 24  1  0
 24 25  1  0
 25  2  1  0
 23  9  1  0
 22 12  1  0
  1 26  1  0
  1 27  1  0
  1 28  1  0
  3 29  1  0
  3 30  1  0
  4 31  1  0
  4 32  1  0
  6 33  1  0
  6 34  1  0
  7 35  1  0
  7 36  1  0
  8 37  1  0
  8 38  1  0
 10 39  1  0
 11 40  1  0
 13 41  1  0
 16 42  1  0
 23 43  1  0
 24 44  1  0
 24 45  1  0
 25 46  1  0
 25 47  1  0
M  CHG  3   8   1  16  -1  21  -1
M  END
>  <UniqueID>  (2) 
2

>  <SMILES>  (2) 
CN1CCN(CC[NH2+]c2ccc3cc(C([NH-])=O)n(C(=O)[O-])c3c2)CC1

>  <Energy>  (2) 
98.95673212747819

>  <Genealogy>  (2) 
CN1CCN(CC[NH2+]c2ccc3cc(C([NH-])=O)n(C(=O)[O-])c3c2)CC1 (protonated)
CN1CCN(CC[NH2+]c2ccc3cc(C([NH-])=O)n(C(=O)[O-])c3c2)CC1 (3D coordinates assigned)
CN1CCN(CC[NH2+]c2ccc3cc(C([NH-])=O)n(C(=O)[O-])c3c2)CC1 (nonaromatic ring conformer: 98.95673212747819 kcal/mol)

>  <smiles>  (2) 
CN1CCN(CCNc2ccc3cc(C(N)=O)n(C(=O)O)c3c2)CC1

>  <score_type>  (2) 
oracle

>  <origin>  (2) 
adg

>  <m_score__min__energy>  (2) 
-10.789999999999999

>  <m_primary>  (2) 
energy

$$$$
2:0
     RDKit          3D

 44 45  0  0  0  0  0  0  0  0999 V2000
   -3.7750   23.9720  -27.9210 C   0  0  0  0  0  0  0  0  0  0  0  0
   -2.3280   23.7790  -28.4110 C   0  0  0  0  0  0  0  0  0  0  0  0
   -1.3640   23.9020  -27.2120 C   0  0  0  0  0  0  0  0  0  0  0  0
   -2.0590   24.8180  -29.3230 O   0  0  0  0  0  0  0  0  0  0  0  0
   -2.1630   22.4180  -29.1460 C   0  0  0  0  0  0  0  0  0  0  0  0
   -3.4660   21.8080  -29.6890 C   0  0  0  0  0  0  0  0  0  0  0  0
   -3.9510   22.5950  -30.8720 C   0  0  0  0  0  0  0  0  0  0  0  0
   -3.1180   23.0940  -31.6740 O   0  0  0  0  0  0  0  0  0  0  0  0
   -5.3510   22.8650  -31.0380 N   0  0  0  0  0  0  0  0  0  0  0  0
   -5.9930   24.0600  -30.9300 C   0  0  0  0  0  0  0  0  0  0  0  0
   -5.3900   25.3260  -30.4630 C   0  0  0  0  0  0  0  0  0  0  0  0
   -4.0510   25.6710  -30.8110 N   0  0  0  0  0  0  0  0  0  0  0  0
   -6.0530   26.0980  -29.7200 O   0  0  0  0  0  0  0  0  0  0  0  0
   -7.3410   23.9190  -31.2550 C   0  0  0  0  0  0  0  0  0  0  0  0
   -7.5040   22.5860  -31.5600 C   0  0  0  0  0  0  0  0  0  0  0  0
   -8.6420   21.8850  -31.9530 C   0  0  0  0  0  0  0  0  0  0  0  0
   -8.5110   20.5120  -32.2180 C   0  0  0  0  0  0  0  0  0  0  0  0
   -7.2520   19.8700  -32.1020 C   0  0  0  0  0  0  0  0  0  0  0  0
   -7.1270   18.3960  -32.3690 C   0  0  0  0  0  0  0  0  0  0  0  0
   -6.0090   18.1380  -33.3320 C   0  0  0  0  0  0  0  0  0  0  0  0
   -6.0630   18.6550  -34.6620 N   0  0  0  0  0  0  0  0  0  0  0  0
   -4.9950   17.4900  -32.9540 O   0  0  0  0  0  0  0  0  0  0  0  0
   -6.1210   20.6110  -31.6930 C   0  0  0  0  0  0  0  0  0  0  0  0
   -6.2870   21.9730  -31.4210 C   0  0  0  0  0  0  0  0  0  0  0  0
   -3.7924   23.9743  -26.8211 H   0  0  0  0  0  0  0  0  0  0  0  0
   -4.1644   24.9300  -28.2959 H   0  0  0  0  0  0  0  0  0  0  0  0
   -4.4019   23.1495  -28.2959 H   0  0  0  0  0  0  0  0  0  0  0  0
   -1.9342   23.8292  -26.2741 H   0  0  0  0  0  0  0  0  0  0  0  0
   -0.6217   23.0913  -27.2537 H   0  0  0  0  0  0  0  0  0  0  0  0
   -0.8491   24.8731  -27.2537 H   0  0  0  0  0  0  0  0  0  0  0  0
   -2.2920   24.4990  -30.2350 H   0  0  0  0  0  0  0  0  0  0  0  0
   -1.4783   22.5692  -29.9936 H   0  0  0  0  0  0  0  0  0  0  0  0
   -1.7819   21.7090  -28.3962 H   0  0  0  0  0  0  0  0  0  0  0  0
   -3.2807   20.7679  -29.9953 H   0  0  0  0  0  0  0  0  0  0  0  0
   -4.2321   21.8353  -28.9001 H   0  0  0  0  0  0  0  0  0  0  0  0
   -3.3020   24.9450  -30.8550 H   0  0  0  0  0  0  0  0  0  0  0  0
   -8.1106   24.7049  -31.2656 H   0  0  0  0  0  0  0  0  0  0  0  0
   -9.6134   22.3914  -32.0527 H   0  0  0  0  0  0  0  0  0  0  0  0
   -9.3939   19.9288  -32.5186 H   0  0  0  0  0  0  0  0  0  0  0  0
   -6.9211   17.8717  -31.4242 H   0  0  0  0  0  0  0  0  0  0  0  0
   -8.0680   18.0289  -32.8046 H   0  0  0  0  0  0  0  0  0  0  0  0
   -5.2790   18.4770  -35.3280 H   0  0  0  0  0  0  0  0  0  0  0  0
   -6.8810   19.2190  -34.9830 H   0  0  0  0  0  0  0  0  0  0  0  0
   -5.1369   20.1302  -31.5912 H   0  0  0  0  0  0  0  0  0  0  0  0
  1  2  1  0
  2  3  1  0
  2  4  1  0
  2  5  1  0
  5  6  1  0
  6  7  1  0
  7  8  2  0
  7  9  1  0
  9 10  1  0
 10 11  1  0
 11 12  1  0
 11 13  2  0
 10 14  2  0
 14 15  1  0
 15 16  2  0
 16 17  1  0
 17 18  2  0
 18 19  1  0
 19 20  1  0
 20 21  1  0
 20 22  2  0
 18 23  1  0
 23 24  2  0
 24  9  1  0
 24 15  1  0
  1 25  1  0
  1 26  1  0
  1 27  1  0
  3 28  1  0
  3 29  1  0
  3 30  1  0
  4 31  1  0
  5 32  1  0
  5 33  1  0
  6 34  1  0
  6 35  1  0
 12 36  1  0
 14 37  1  0
 16 38  1  0
 17 39  1  0
 19 40  1  0
 19 41  1  0
 21 42  1  0
 21 43  1  0
 23 44  1  0
M  CHG  1  12  -1
M  END
>  <UniqueID>  (3) 
3

>  <SMILES>  (3) 
CC(C)(O)CCC(=O)n1c(C([NH-])=O)cc2ccc(CC(N)=O)cc21

>  <Energy>  (3) 
75.55019230039355

>  <Genealogy>  (3) 
CC(C)(O)CCC(=O)n1c(C([NH-])=O)cc2ccc(CC(N)=O)cc21 (protonated)
CC(C)(O)CCC(=O)n1c(C([NH-])=O)cc2ccc(CC(N)=O)cc21 (3D coordinates assigned)
CC(C)(O)CCC(=O)n1c(C([NH-])=O)cc2ccc(CC(N)=O)cc21 (optimized conformer: 75.55019230039355 kcal/mol)

>  <smiles>  (3) 
CC(C)(O)CCC(=O)n1c(C(N)=O)cc2ccc(CC(N)=O)cc21

>  <score_type>  (3) 
oracle

>  <origin>  (3) 
adg

>  <m_score__min__energy>  (3) 
-12.08

>  <m_primary>  (3) 
energy

$$$$
3:0
     RDKit          3D

 33 34  0  0  0  0  0  0  0  0999 V2000
   -3.8400   18.0810  -34.1500 N   0  0  0  0  0  0  0  0  0  0  0  0
   -5.1590   18.6140  -34.2750 C   0  0  0  0  0  0  0  0  0  0  0  0
   -5.9480   18.1150  -35.1220 O   0  0  0  0  0  0  0  0  0  0  0  0
   -5.5940   19.7780  -33.4770 C   0  0  0  0  0  0  0  0  0  0  0  0
   -6.9270   20.0490  -33.1850 C   0  0  0  0  0  0  0  0  0  0  0  0
   -6.9110   21.2330  -32.4840 C   0  0  0  0  0  0  0  0  0  0  0  0
   -7.9630   21.9550  -31.9280 C   0  0  0  0  0  0  0  0  0  0  0  0
   -7.6550   23.1260  -31.2170 C   0  0  0  0  0  0  0  0  0  0  0  0
   -6.3110   23.5510  -31.0750 C   0  0  0  0  0  0  0  0  0  0  0  0
   -5.9900   24.7790  -30.2690 C   0  0  0  0  0  0  0  0  0  0  0  0
   -4.5100   24.9220  -30.1170 C   0  0  0  0  0  0  0  0  0  0  0  0
   -3.8630   25.6710  -30.8950 O   0  0  0  0  0  0  0  0  0  0  0  0
   -3.8510   24.2660  -29.0870 O   0  0  0  0  0  0  0  0  0  0  0  0
   -5.2680   22.7860  -31.6420 C   0  0  0  0  0  0  0  0  0  0  0  0
   -5.6050   21.6340  -32.3650 C   0  0  0  0  0  0  0  0  0  0  0  0
   -4.7810   20.7460  -32.9670 N   0  0  0  0  0  0  0  0  0  0  0  0
   -3.3440   20.7550  -32.9550 C   0  0  0  0  0  0  0  0  0  0  0  0
   -2.7250   20.8880  -31.8640 O   0  0  0  0  0  0  0  0  0  0  0  0
   -2.6440   20.6110  -34.1620 O   0  0  0  0  0  0  0  0  0  0  0  0
   -1.3860   20.0090  -34.2970 C   0  0  0  0  0  0  0  0  0  0  0  0
   -1.2740   18.7840  -34.5720 O   0  0  0  0  0  0  0  0  0  0  0  0
   -0.1570   20.8220  -34.0440 C   0  0  0  0  0  0  0  0  0  0  0  0
   -0.1010   21.8820  -34.9310 F   0  0  0  0  0  0  0  0  0  0  0  0
    0.9710   20.0390  -34.2060 F   0  0  0  0  0  0  0  0  0  0  0  0
   -0.1910   21.3130  -32.7530 F   0  0  0  0  0  0  0  0  0  0  0  0
   -3.1130   18.5700  -33.5830 H   0  0  0  0  0  0  0  0  0  0  0  0
   -3.5630   17.2320  -34.6900 H   0  0  0  0  0  0  0  0  0  0  0  0
   -7.8059   19.4457  -33.4565 H   0  0  0  0  0  0  0  0  0  0  0  0
   -9.0040   21.6185  -32.0421 H   0  0  0  0  0  0  0  0  0  0  0  0
   -8.4646   23.7187  -30.7662 H   0  0  0  0  0  0  0  0  0  0  0  0
   -6.3903   25.6658  -30.7822 H   0  0  0  0  0  0  0  0  0  0  0  0
   -6.4465   24.6849  -29.2727 H   0  0  0  0  0  0  0  0  0  0  0  0
   -4.2172   23.0870  -31.5191 H   0  0  0  0  0  0  0  0  0  0  0  0
  1  2  1  0
  2  3  2  0
  2  4  1  0
  4  5  2  0
  5  6  1  0
  6  7  2  0
  7  8  1  0
  8  9  2  0
  9 10  1  0
 10 11  1  0
 11 12  2  0
 11 13  1  0
  9 14  1  0
 14 15  2  0
 15 16  1  0
 16 17  1  0
 17 18  2  0
 17 19  1  0
 19 20  1  0
 20 21  2  0
 20 22  1  0
 22 23  1  0
 22 24  1  0
 22 25  1  0
 16  4  1  0
 15  6  1  0
  1 26  1  0
  1 27  1  0
  5 28  1  0
  7 29  1  0
  8 30  1  0
 10 31  1  0
 10 32  1  0
 14 33  1  0
M  CHG  1  13  -1
M  END
>  <UniqueID>  (4) 
4

>  <SMILES>  (4) 
NC(=O)c1cc2ccc(CC(=O)[O-])cc2n1C(=O)OC(=O)C(F)(F)F

>  <Energy>  (4) 
70.5294868211064

>  <Genealogy>  (4) 
NC(=O)c1cc2ccc(CC(=O)[O-])cc2n1C(=O)OC(=O)C(F)(F)F (protonated)
NC(=O)c1cc2ccc(CC(=O)[O-])cc2n1C(=O)OC(=O)C(F)(F)F (3D coordinates assigned)
NC(=O)c1cc2ccc(CC(=O)[O-])cc2n1C(=O)OC(=O)C(F)(F)F (optimized conformer: 70.5294868211064 kcal/mol)

>  <smiles>  (4) 
NC(=O)c1cc2ccc(CC(=O)O)cc2n1C(=O)OC(=O)C(F)(F)F

>  <score_type>  (4) 
oracle

>  <origin>  (4) 
adg

>  <m_score__min__energy>  (4) 
-9.0600000000000005

>  <m_primary>  (4) 
energy

$$$$
4:0
     RDKit          3D

 43 44  0  0  0  0  0  0  0  0999 V2000
   -5.6820   17.7900  -34.9590 C   0  0  0  0  0  0  0  0  0  0  0  0
   -6.6150   16.9600  -34.3050 O   0  0  0  0  0  0  0  0  0  0  0  0
   -6.1510   16.6710  -33.0030 C   0  0  0  0  0  0  0  0  0  0  0  0
   -6.7810   17.6460  -32.0080 C   0  0  0  0  0  0  0  0  0  0  0  0
   -7.5610   18.6790  -32.6950 N   0  0  0  0  0  0  0  0  0  0  0  0
   -7.5460   20.0640  -32.3020 C   0  0  0  0  0  0  0  0  0  0  0  0
   -8.7590   20.7980  -32.3070 C   0  0  0  0  0  0  0  0  0  0  0  0
   -8.7830   22.1580  -31.9530 C   0  0  0  0  0  0  0  0  0  0  0  0
   -7.5820   22.7570  -31.5870 C   0  0  0  0  0  0  0  0  0  0  0  0
   -7.3110   24.0590  -31.2330 C   0  0  0  0  0  0  0  0  0  0  0  0
   -5.9400   24.0990  -30.9860 C   0  0  0  0  0  0  0  0  0  0  0  0
   -5.2310   25.3030  -30.5040 C   0  0  0  0  0  0  0  0  0  0  0  0
   -3.8640   25.5320  -30.8370 N   0  0  0  0  0  0  0  0  0  0  0  0
   -5.8280   26.1200  -29.7550 O   0  0  0  0  0  0  0  0  0  0  0  0
   -5.3860   22.8680  -31.1850 N   0  0  0  0  0  0  0  0  0  0  0  0
   -4.0030   22.4940  -31.1090 C   0  0  0  0  0  0  0  0  0  0  0  0
   -3.1850   22.9330  -31.9630 O   0  0  0  0  0  0  0  0  0  0  0  0
   -3.5810   21.6170  -30.1030 O   0  0  0  0  0  0  0  0  0  0  0  0
   -2.8020   22.0270  -28.9830 C   0  0  1  0  0  0  0  0  0  0  0  0
   -1.6820   21.2210  -28.8990 F   0  0  0  0  0  0  0  0  0  0  0  0
   -2.3680   23.4470  -29.1620 C   0  0  0  0  0  0  0  0  0  0  0  0
   -1.3690   23.7120  -29.8850 O   0  0  0  0  0  0  0  0  0  0  0  0
   -3.0510   24.4630  -28.4870 O   0  0  0  0  0  0  0  0  0  0  0  0
   -4.0400   24.1970  -27.5000 C   0  0  0  0  0  0  0  0  0  0  0  0
   -6.4030   22.0600  -31.5510 C   0  0  0  0  0  0  0  0  0  0  0  0
   -6.3460   20.7110  -31.9180 C   0  0  0  0  0  0  0  0  0  0  0  0
   -5.0798   18.3257  -34.2104 H   0  0  0  0  0  0  0  0  0  0  0  0
   -5.0221   17.1750  -35.5885 H   0  0  0  0  0  0  0  0  0  0  0  0
   -6.2160   18.5170  -35.5885 H   0  0  0  0  0  0  0  0  0  0  0  0
   -6.4306   15.6416  -32.7344 H   0  0  0  0  0  0  0  0  0  0  0  0
   -5.0562   16.7738  -32.9732 H   0  0  0  0  0  0  0  0  0  0  0  0
   -7.4439   17.0879  -31.3304 H   0  0  0  0  0  0  0  0  0  0  0  0
   -5.9736   18.1376  -31.4455 H   0  0  0  0  0  0  0  0  0  0  0  0
   -8.1360   18.4100  -33.5260 H   0  0  0  0  0  0  0  0  0  0  0  0
   -9.6951   20.2957  -32.5921 H   0  0  0  0  0  0  0  0  0  0  0  0
   -9.7220   22.7308  -31.9650 H   0  0  0  0  0  0  0  0  0  0  0  0
   -8.0256   24.8921  -31.1604 H   0  0  0  0  0  0  0  0  0  0  0  0
   -3.1390   24.8000  -30.6630 H   0  0  0  0  0  0  0  0  0  0  0  0
   -3.4029   21.9417  -28.0656 H   0  0  0  0  0  0  0  0  0  0  0  0
   -3.6000   24.3153  -26.4988 H   0  0  0  0  0  0  0  0  0  0  0  0
   -4.8757   24.9023  -27.6189 H   0  0  0  0  0  0  0  0  0  0  0  0
   -4.4092   23.1676  -27.6189 H   0  0  0  0  0  0  0  0  0  0  0  0
   -5.3909   20.1653  -31.9085 H   0  0  0  0  0  0  0  0  0  0  0  0
  1  2  1  0
  2  3  1  0
  3  4  1  0
  4  5  1  0
  5  6  1  0
  6  7  2  0
  7  8  1  0
  8  9  2  0
  9 10  1  0
 10 11  2  0
 11 12  1  0
 12 13  1  0
 12 14  2  0
 11 15  1  0
 15 16  1  0
 16 17  2  0
 16 18  1  0
 18 19  1  0
 19 20  1  0
 19 21  1  0
 21 22  2  0
 21 23  1  0
 23 24  1  0
 15 25  1  0
 25 26  2  0
 26  6  1  0
 25  9  1  0
  1 27  1  0
  1 28  1  0
  1 29  1  0
  3 30  1  0
  3 31  1  0
  4 32  1  0
  4 33  1  0
  5 34  1  0
  7 35  1  0
  8 36  1  0
 10 37  1  0
 13 38  1  0
 19 39  1  1
 24 40  1  0
 24 41  1  0
 24 42  1  0
 26 43  1  0
M  CHG  1  13  -1
M  END
>  <UniqueID>  (5) 
5

>  <SMILES>  (5) 
COCCNc1ccc2cc(C([NH-])=O)n(C(=O)O[C@@H](F)C(=O)OC)c2c1

>  <Energy>  (5) 
73.92576277378495

>  <Genealogy>  (5) 
COCCNc1ccc2cc(C([NH-])=O)n(C(=O)OC(F)C(=O)OC)c2c1 (protonated)
COCCNc1ccc2cc(C([NH-])=O)n(C(=O)O[C@@H](F)C(=O)OC)c2c1 (chirality)
COCCNc1ccc2cc(C([NH-])=O)n(C(=O)O[C@@H](F)C(=O)OC)c2c1 (3D coordinates assigned)
COCCNc1ccc2cc(C([NH-])=O)n(C(=O)O[C@@H](F)C(=O)OC)c2c1 (optimized conformer: 73.92576277378495 kcal/mol)

>  <smiles>  (5) 
COCCNc1ccc2cc(C(N)=O)n(C(=O)OC(F)C(=O)OC)c2c1

>  <score_type>  (5) 
oracle

>  <origin>  (5) 
adg

>  <m_score__min__energy>  (5) 
-9.8300000000000001

>  <m_primary>  (5) 
energy

$$$$
5:0
     RDKit          3D

 37 39  0  0  0  0  0  0  0  0999 V2000
   -1.5830   25.9990  -28.9290 N   0  0  0  0  0  0  0  0  0  0  0  0
   -0.8650   24.7680  -28.9170 C   0  0  0  0  0  0  0  0  0  0  0  0
    0.1460   24.6510  -28.1750 O   0  0  0  0  0  0  0  0  0  0  0  0
   -1.3240   23.6130  -29.7140 C   0  0  0  0  0  0  0  0  0  0  0  0
   -0.4960   22.5510  -30.0700 C   0  0  0  0  0  0  0  0  0  0  0  0
   -1.3110   21.6510  -30.7160 C   0  0  0  0  0  0  0  0  0  0  0  0
   -1.0090   20.4210  -31.2890 C   0  0  0  0  0  0  0  0  0  0  0  0
   -2.0470   19.7120  -31.9180 C   0  0  0  0  0  0  0  0  0  0  0  0
   -3.3620   20.2460  -31.9720 C   0  0  0  0  0  0  0  0  0  0  0  0
   -4.4460   19.4930  -32.6510 C   0  0  0  0  0  0  0  0  0  0  0  0
   -4.1750   18.7340  -33.8020 C   0  0  0  0  0  0  0  0  0  0  0  0
   -5.1940   18.0150  -34.4320 C   0  0  0  0  0  0  0  0  0  0  0  0
   -6.4960   18.0500  -33.9270 C   0  0  0  0  0  0  0  0  0  0  0  0
   -6.7900   18.8160  -32.7890 C   0  0  0  0  0  0  0  0  0  0  0  0
   -8.1860   18.8270  -32.2220 C   0  0  0  0  0  0  0  0  0  0  0  0
   -9.0920   19.5700  -33.0970 N   0  0  0  0  0  0  0  0  0  0  0  0
   -5.7610   19.5240  -32.1480 C   0  0  0  0  0  0  0  0  0  0  0  0
   -3.6270   21.5020  -31.3770 C   0  0  0  0  0  0  0  0  0  0  0  0
   -2.5770   22.1760  -30.7420 C   0  0  0  0  0  0  0  0  0  0  0  0
   -2.6020   23.3830  -30.1320 N   0  0  0  0  0  0  0  0  0  0  0  0
   -3.7260   24.2720  -30.0450 C   0  0  0  0  0  0  0  0  0  0  0  0
   -3.7580   25.3300  -30.7290 O   0  0  0  0  0  0  0  0  0  0  0  0
   -4.7790   23.9890  -29.1840 O   0  0  0  0  0  0  0  0  0  0  0  0
   -2.6250   26.0120  -28.9900 H   0  0  0  0  0  0  0  0  0  0  0  0
    0.5822   22.4529  -29.8755 H   0  0  0  0  0  0  0  0  0  0  0  0
    0.0124   20.0144  -31.2513 H   0  0  0  0  0  0  0  0  0  0  0  0
   -1.8386   18.7327  -32.3735 H   0  0  0  0  0  0  0  0  0  0  0  0
   -3.1538   18.7057  -34.2098 H   0  0  0  0  0  0  0  0  0  0  0  0
   -4.9701   17.4191  -35.3291 H   0  0  0  0  0  0  0  0  0  0  0  0
   -7.2925   17.4757  -34.4227 H   0  0  0  0  0  0  0  0  0  0  0  0
   -8.5450   17.7917  -32.1255 H   0  0  0  0  0  0  0  0  0  0  0  0
   -8.1644   19.3161  -31.2370 H   0  0  0  0  0  0  0  0  0  0  0  0
   -8.5330   20.0490  -33.8400 H   0  0  0  0  0  0  0  0  0  0  0  0
   -9.6120   20.2920  -32.5460 H   0  0  0  0  0  0  0  0  0  0  0  0
   -9.7690   18.9160  -33.5520 H   0  0  0  0  0  0  0  0  0  0  0  0
   -5.9842   20.1090  -31.2436 H   0  0  0  0  0  0  0  0  0  0  0  0
   -4.6357   21.9393  -31.4125 H   0  0  0  0  0  0  0  0  0  0  0  0
  1  2  1  0
  2  3  2  0
  2  4  1  0
  4  5  2  0
  5  6  1  0
  6  7  2  0
  7  8  1  0
  8  9  2  0
  9 10  1  0
 10 11  2  0
 11 12  1  0
 12 13  2  0
 13 14  1  0
 14 15  1  0
 15 16  1  0
 14 17  2  0
  9 18  1  0
 18 19  2  0
 19 20  1  0
 20 21  1  0
 21 22  2  0
 21 23  1  0
 20  4  1  0
 19  6  1  0
 17 10  1  0
  1 24  1  0
  5 25  1  0
  7 26  1  0
  8 27  1  0
 11 28  1  0
 12 29  1  0
 13 30  1  0
 15 31  1  0
 15 32  1  0
 16 33  1  0
 16 34  1  0
 16 35  1  0
 17 36  1  0
 18 37  1  0
M  CHG  3   1  -1  16   1  23  -1
M  END
>  <UniqueID>  (6) 
6

>  <SMILES>  (6) 
[NH-]C(=O)c1cc2ccc(-c3cccc(C[NH3+])c3)cc2n1C(=O)[O-]

>  <Energy>  (6) 
82.96274315276966

>  <Genealogy>  (6) 
[NH-]C(=O)c1cc2ccc(-c3cccc(C[NH3+])c3)cc2n1C(=O)[O-] (protonated)
[NH-]C(=O)c1cc2ccc(-c3cccc(C[NH3+])c3)cc2n1C(=O)[O-] (3D coordinates assigned)
[NH-]C(=O)c1cc2ccc(-c3cccc(C[NH3+])c3)cc2n1C(=O)[O-] (optimized conformer: 82.96274315276966 kcal/mol)

>  <smiles>  (6) 
NCc1cccc(-c2ccc3cc(C(N)=O)n(C(=O)O)c3c2)c1

>  <score_type>  (6) 
oracle

>  <origin>  (6) 
adg

>  <m_score__min__energy>  (6) 
-11.23

>  <m_primary>  (6) 
energy

$$$$
6:0
     RDKit          3D

 35 36  0  0  0  0  0  0  0  0999 V2000
   -3.3970   22.7300  -28.9100 C   0  0  0  0  0  0  0  0  0  0  0  0
   -3.0650   23.0890  -30.2490 O   0  0  0  0  0  0  0  0  0  0  0  0
   -3.8150   22.6530  -31.3470 C   0  0  0  0  0  0  0  0  0  0  0  0
   -3.2210   22.2340  -32.3820 O   0  0  0  0  0  0  0  0  0  0  0  0
   -5.2590   22.7170  -31.3080 N   0  0  0  0  0  0  0  0  0  0  0  0
   -6.0250   23.8070  -31.0040 C   0  0  0  0  0  0  0  0  0  0  0  0
   -5.5350   25.1000  -30.4860 C   0  0  0  0  0  0  0  0  0  0  0  0
   -4.2070   25.5470  -30.7540 N   0  0  0  0  0  0  0  0  0  0  0  0
   -6.2800   25.7890  -29.7360 O   0  0  0  0  0  0  0  0  0  0  0  0
   -7.3740   23.5360  -31.1950 C   0  0  0  0  0  0  0  0  0  0  0  0
   -7.4270   22.2220  -31.5990 C   0  0  0  0  0  0  0  0  0  0  0  0
   -8.5300   21.4360  -31.9150 C   0  0  0  0  0  0  0  0  0  0  0  0
   -8.3040   20.1100  -32.3120 C   0  0  0  0  0  0  0  0  0  0  0  0
   -6.9860   19.5900  -32.3930 C   0  0  0  0  0  0  0  0  0  0  0  0
   -6.7790   18.1660  -32.8810 C   0  0  0  0  0  0  0  0  0  0  0  0
   -6.2190   17.2500  -31.7800 C   0  0  0  0  0  0  0  0  0  0  0  0
   -5.4920   16.2150  -32.3450 F   0  0  0  0  0  0  0  0  0  0  0  0
   -5.9040   18.1420  -34.1410 C   0  0  0  0  0  0  0  0  0  0  0  0
   -6.1120   19.2720  -34.9170 F   0  0  0  0  0  0  0  0  0  0  0  0
   -5.8880   20.4320  -32.0840 C   0  0  0  0  0  0  0  0  0  0  0  0
   -6.1390   21.7450  -31.6640 C   0  0  0  0  0  0  0  0  0  0  0  0
   -2.8210   23.3529  -28.2098 H   0  0  0  0  0  0  0  0  0  0  0  0
   -4.4725   22.8899  -28.7435 H   0  0  0  0  0  0  0  0  0  0  0  0
   -3.1537   21.6702  -28.7435 H   0  0  0  0  0  0  0  0  0  0  0  0
   -3.5350   24.9300  -31.2430 H   0  0  0  0  0  0  0  0  0  0  0  0
   -3.8690   26.4540  -30.3780 H   0  0  0  0  0  0  0  0  0  0  0  0
   -8.2196   24.2252  -31.0534 H   0  0  0  0  0  0  0  0  0  0  0  0
   -9.5503   21.8427  -31.8553 H   0  0  0  0  0  0  0  0  0  0  0  0
   -9.1588   19.4651  -32.5637 H   0  0  0  0  0  0  0  0  0  0  0  0
   -7.7669   17.7627  -33.1481 H   0  0  0  0  0  0  0  0  0  0  0  0
   -5.5640   17.8355  -31.1181 H   0  0  0  0  0  0  0  0  0  0  0  0
   -7.0552   16.8289  -31.2026 H   0  0  0  0  0  0  0  0  0  0  0  0
   -4.8460   18.1014  -33.8425 H   0  0  0  0  0  0  0  0  0  0  0  0
   -6.1733   17.2566  -34.7355 H   0  0  0  0  0  0  0  0  0  0  0  0
   -4.8563   20.0607  -32.1725 H   0  0  0  0  0  0  0  0  0  0  0  0
  1  2  1  0
  2  3  1  0
  3  4  2  0
  3  5  1  0
  5  6  1  0
  6  7  1  0
  7  8  1  0
  7  9  2  0
  6 10  2  0
 10 11  1  0
 11 12  2  0
 12 13  1  0
 13 14  2  0
 14 15  1  0
 15 16  1  0
 16 17  1  0
 15 18  1  0
 18 19  1  0
 14 20  1  0
 20 21  2  0
 21  5  1  0
 21 11  1  0
  1 22  1  0
  1 23  1  0
  1 24  1  0
  8 25  1  0
  8 26  1  0
 10 27  1  0
 12 28  1  0
 13 29  1  0
 15 30  1  0
 16 31  1  0
 16 32  1  0
 18 33  1  0
 18 34  1  0
 20 35  1  0
M  END
>  <UniqueID>  (7) 
7

>  <SMILES>  (7) 
COC(=O)n1c(C(N)=O)cc2ccc(C(CF)CF)cc21

>  <Energy>  (7) 
71.20473853420057

>  <Genealogy>  (7) 
COC(=O)n1c(C(N)=O)cc2ccc(C(CF)CF)cc21 (3D coordinates assigned)
COC(=O)n1c(C(N)=O)cc2ccc(C(CF)CF)cc21 (optimized conformer: 71.20473853420057 kcal/mol)

>  <smiles>  (7) 
COC(=O)n1c(C(N)=O)cc2ccc(C(CF)CF)cc21

>  <score_type>  (7) 
oracle

>  <origin>  (7) 
adg

>  <m_score__min__energy>  (7) 
-7.3700000000000001

>  <m_primary>  (7) 
energy

$$$$
7:0
     RDKit          3D

 57 59  0  0  0  0  0  0  0  0999 V2000
   -1.1160   19.3070  -27.1440 C   0  0  0  0  0  0  0  0  0  0  0  0
   -2.5760   19.6590  -26.9840 C   0  0  0  0  0  0  0  0  0  0  0  0
   -3.4920   18.7180  -26.2430 C   0  0  0  0  0  0  0  0  0  0  0  0
   -3.0980   20.7990  -27.4850 C   0  0  0  0  0  0  0  0  0  0  0  0
   -2.3170   21.8500  -28.2360 C   0  0  0  0  0  0  0  0  0  0  0  0
   -3.2410   22.8880  -28.8740 C   0  0  0  0  0  0  0  0  0  0  0  0
   -2.9430   23.0580  -30.2590 O   0  0  0  0  0  0  0  0  0  0  0  0
   -3.8070   22.6990  -31.3000 C   0  0  0  0  0  0  0  0  0  0  0  0
   -3.3610   22.1280  -32.3320 O   0  0  0  0  0  0  0  0  0  0  0  0
   -5.2190   22.9390  -31.1620 N   0  0  0  0  0  0  0  0  0  0  0  0
   -5.8530   24.1120  -30.8680 C   0  0  0  0  0  0  0  0  0  0  0  0
   -5.2060   25.3770  -30.4660 C   0  0  0  0  0  0  0  0  0  0  0  0
   -3.8650   25.6690  -30.8430 N   0  0  0  0  0  0  0  0  0  0  0  0
   -5.8300   26.1890  -29.7300 O   0  0  0  0  0  0  0  0  0  0  0  0
   -7.2340   23.9510  -30.9230 C   0  0  0  0  0  0  0  0  0  0  0  0
   -7.4360   22.6320  -31.2560 C   0  0  0  0  0  0  0  0  0  0  0  0
   -8.6210   21.9340  -31.4600 C   0  0  0  0  0  0  0  0  0  0  0  0
   -8.5360   20.5840  -31.8340 C   0  0  0  0  0  0  0  0  0  0  0  0
   -7.2770   19.9550  -32.0050 C   0  0  0  0  0  0  0  0  0  0  0  0
   -7.2310   18.4970  -32.4300 C   0  0  2  0  0  0  0  0  0  0  0  0
   -6.8700   17.5230  -31.3030 C   0  0  0  0  0  0  0  0  0  0  0  0
   -5.5740   17.1520  -32.0230 C   0  0  0  0  0  0  0  0  0  0  0  0
   -5.9430   18.0990  -33.1750 C   0  0  1  0  0  0  0  0  0  0  0  0
   -6.1760   17.4690  -34.5080 N   0  0  0  0  0  0  0  0  0  0  0  0
   -6.7580   16.1060  -34.4930 C   0  0  0  0  0  0  0  0  0  0  0  0
   -4.9240   17.4610  -35.2840 C   0  0  0  0  0  0  0  0  0  0  0  0
   -6.0930   20.7050  -31.7940 C   0  0  0  0  0  0  0  0  0  0  0  0
   -6.2070   22.0430  -31.3980 C   0  0  0  0  0  0  0  0  0  0  0  0
   -0.6548   19.1958  -26.1516 H   0  0  0  0  0  0  0  0  0  0  0  0
   -1.0255   18.3613  -27.6985 H   0  0  0  0  0  0  0  0  0  0  0  0
   -0.6044   20.1075  -27.6985 H   0  0  0  0  0  0  0  0  0  0  0  0
   -3.3592   18.8544  -25.1596 H   0  0  0  0  0  0  0  0  0  0  0  0
   -4.5361   18.9331  -26.5144 H   0  0  0  0  0  0  0  0  0  0  0  0
   -3.2489   17.6801  -26.5144 H   0  0  0  0  0  0  0  0  0  0  0  0
   -4.1733   20.9751  -27.3346 H   0  0  0  0  0  0  0  0  0  0  0  0
   -1.6380   22.3587  -27.5358 H   0  0  0  0  0  0  0  0  0  0  0  0
   -1.7526   21.3520  -29.0381 H   0  0  0  0  0  0  0  0  0  0  0  0
   -4.2837   22.5536  -28.7692 H   0  0  0  0  0  0  0  0  0  0  0  0
   -3.0908   23.8506  -28.3633 H   0  0  0  0  0  0  0  0  0  0  0  0
   -3.0610   25.2430  -30.3310 H   0  0  0  0  0  0  0  0  0  0  0  0
   -8.0019   24.7168  -30.7390 H   0  0  0  0  0  0  0  0  0  0  0  0
   -9.5967   22.4255  -31.3320 H   0  0  0  0  0  0  0  0  0  0  0  0
   -9.4580   20.0065  -31.9965 H   0  0  0  0  0  0  0  0  0  0  0  0
   -8.2093   18.4353  -32.9291 H   0  0  0  0  0  0  0  0  0  0  0  0
   -6.7169   18.0057  -30.3265 H   0  0  0  0  0  0  0  0  0  0  0  0
   -7.5795   16.7381  -31.0022 H   0  0  0  0  0  0  0  0  0  0  0  0
   -4.6610   17.4389  -31.4807 H   0  0  0  0  0  0  0  0  0  0  0  0
   -5.3311   16.0983  -32.2246 H   0  0  0  0  0  0  0  0  0  0  0  0
   -5.2146   18.8545  -33.5048 H   0  0  0  0  0  0  0  0  0  0  0  0
   -6.8470   18.0870  -35.0230 H   0  0  0  0  0  0  0  0  0  0  0  0
   -6.8979   15.7785  -33.4523 H   0  0  0  0  0  0  0  0  0  0  0  0
   -7.7300   16.1167  -35.0078 H   0  0  0  0  0  0  0  0  0  0  0  0
   -6.0780   15.4113  -35.0078 H   0  0  0  0  0  0  0  0  0  0  0  0
   -4.0660   17.4555  -34.5957 H   0  0  0  0  0  0  0  0  0  0  0  0
   -4.8913   16.5626  -35.9179 H   0  0  0  0  0  0  0  0  0  0  0  0
   -4.8798   18.3589  -35.9179 H   0  0  0  0  0  0  0  0  0  0  0  0
   -5.1043   20.2450  -31.9385 H   0  0  0  0  0  0  0  0  0  0  0  0
  1  2  1  0
  2  3  1  0
  2  4  2  3
  4  5  1  0
  5  6  1  0
  6  7  1  0
  7  8  1  0
  8  9  2  0
  8 10  1  0
 10 11  1  0
 11 12  1  0
 12 13  1  0
 12 14  2  0
 11 15  2  0
 15 16  1  0
 16 17  2  0
 17 18  1  0
 18 19  2  0
 19 20  1  0
 20 21  1  0
 21 22  1  0
 22 23  1  0
 23 24  1  0
 24 25  1  0
 24 26  1  0
 19 27  1  0
 27 28  2  0
 28 10  1  0
 28 16  1  0
 23 20  1  0
  1 29  1  0
  1 30  1  0
  1 31  1  0
  3 32  1  0
  3 33  1  0
  3 34  1  0
  4 35  1  0
  5 36  1  0
  5 37  1  0
  6 38  1  0
  6 39  1  0
 13 40  1  0
 15 41  1  0
 17 42  1  0
 18 43  1  0
 20 44  1  6
 21 45  1  0
 21 46  1  0
 22 47  1  0
 22 48  1  0
 23 49  1  6
 24 50  1  0
 25 51  1  0
 25 52  1  0
 25 53  1  0
 26 54  1  0
 26 55  1  0
 26 56  1  0
 27 57  1  0
M  CHG  2  13  -1  24   1
M  END
>  <UniqueID>  (8) 
8

>  <SMILES>  (8) 
CC(C)=CCCOC(=O)n1c(C([NH-])=O)cc2ccc([C@@H]3CC[C@H]3[NH+](C)C)cc21

>  <Energy>  (8) 
158.5842521581617

>  <Genealogy>  (8) 
CC(C)=CCCOC(=O)n1c(C([NH-])=O)cc2ccc([C@@H]3CC[C@H]3[NH+](C)C)cc21 (protonated)
CC(C)=CCCOC(=O)n1c(C([NH-])=O)cc2ccc([C@@H]3CC[C@H]3[NH+](C)C)cc21 (3D coordinates assigned)
CC(C)=CCCOC(=O)n1c(C([NH-])=O)cc2ccc([C@@H]3CC[C@H]3[NH+](C)C)cc21 (nonaromatic ring conformer: 158.5842521581617 kcal/mol)

>  <smiles>  (8) 
CC(C)=CCCOC(=O)n1c(C(N)=O)cc2ccc([C@@H]3CC[C@H]3N(C)C)cc21

>  <score_type>  (8) 
oracle

>  <origin>  (8) 
adg

>  <m_score__min__energy>  (8) 
-11.4

>  <m_primary>  (8) 
energy

$$$$
8:0
     RDKit          3D

 35 37  0  0  0  0  0  0  0  0999 V2000
   -1.6850   25.6910  -28.9630 N   0  0  0  0  0  0  0  0  0  0  0  0
   -1.0910   24.4180  -29.2100 C   0  0  0  0  0  0  0  0  0  0  0  0
    0.0410   24.1610  -28.7230 O   0  0  0  0  0  0  0  0  0  0  0  0
   -1.7890   23.4340  -30.0650 C   0  0  0  0  0  0  0  0  0  0  0  0
   -1.2000   22.2520  -30.5070 C   0  0  0  0  0  0  0  0  0  0  0  0
   -2.1900   21.5830  -31.1880 C   0  0  0  0  0  0  0  0  0  0  0  0
   -2.1520   20.3590  -31.8490 C   0  0  0  0  0  0  0  0  0  0  0  0
   -3.3210   19.9210  -32.4920 C   0  0  0  0  0  0  0  0  0  0  0  0
   -4.5010   20.7080  -32.4650 C   0  0  0  0  0  0  0  0  0  0  0  0
   -5.7460   20.2350  -33.1800 C   0  0  0  0  0  0  0  0  0  0  0  0
   -6.9450   19.8930  -32.2620 C   0  0  2  0  0  0  0  0  0  0  0  0
   -7.6830   18.6280  -32.5990 C   0  0  0  0  0  0  0  0  0  0  0  0
   -9.0550   18.8830  -31.9970 C   0  0  0  0  0  0  0  0  0  0  0  0
   -9.2400   20.2700  -31.8080 O   0  0  0  0  0  0  0  0  0  0  0  0
   -8.0650   20.9180  -32.2320 C   0  0  0  0  0  0  0  0  0  0  0  0
   -4.4940   21.9540  -31.7980 C   0  0  0  0  0  0  0  0  0  0  0  0
   -3.3220   22.3550  -31.1470 C   0  0  0  0  0  0  0  0  0  0  0  0
   -3.0920   23.4980  -30.4620 N   0  0  0  0  0  0  0  0  0  0  0  0
   -4.0250   24.5710  -30.2610 C   0  0  0  0  0  0  0  0  0  0  0  0
   -3.8630   25.6760  -30.8440 O   0  0  0  0  0  0  0  0  0  0  0  0
   -5.1320   24.3930  -29.4400 O   0  0  0  0  0  0  0  0  0  0  0  0
   -2.7200   25.8190  -29.0180 H   0  0  0  0  0  0  0  0  0  0  0  0
   -0.1628   21.9232  -30.3456 H   0  0  0  0  0  0  0  0  0  0  0  0
   -1.2341   19.7530  -31.8672 H   0  0  0  0  0  0  0  0  0  0  0  0
   -3.3218   18.9573  -33.0223 H   0  0  0  0  0  0  0  0  0  0  0  0
   -6.0632   21.0290  -33.8720 H   0  0  0  0  0  0  0  0  0  0  0  0
   -5.4703   19.2967  -33.6836 H   0  0  0  0  0  0  0  0  0  0  0  0
   -6.4015   19.8282  -31.3079 H   0  0  0  0  0  0  0  0  0  0  0  0
   -7.7465   18.4818  -33.6874 H   0  0  0  0  0  0  0  0  0  0  0  0
   -7.1962   17.7189  -32.2162 H   0  0  0  0  0  0  0  0  0  0  0  0
   -9.8300   18.4998  -32.6771 H   0  0  0  0  0  0  0  0  0  0  0  0
   -9.1290   18.3695  -31.0270 H   0  0  0  0  0  0  0  0  0  0  0  0
   -8.2131   21.3379  -33.2379 H   0  0  0  0  0  0  0  0  0  0  0  0
   -7.8126   21.7379  -31.5435 H   0  0  0  0  0  0  0  0  0  0  0  0
   -5.3889   22.5936  -31.7908 H   0  0  0  0  0  0  0  0  0  0  0  0
  1  2  1  0
  2  3  2  0
  2  4  1  0
  4  5  2  0
  5  6  1  0
  6  7  2  0
  7  8  1  0
  8  9  2  0
  9 10  1  0
 10 11  1  0
 11 12  1  0
 12 13  1  0
 13 14  1  0
 14 15  1  0
  9 16  1  0
 16 17  2  0
 17 18  1  0
 18 19  1  0
 19 20  2  0
 19 21  1  0
 18  4  1  0
 17  6  1  0
 15 11  1  0
  1 22  1  0
  5 23  1  0
  7 24  1  0
  8 25  1  0
 10 26  1  0
 10 27  1  0
 11 28  1  1
 12 29  1  0
 12 30  1  0
 13 31  1  0
 13 32  1  0
 15 33  1  0
 15 34  1  0
 16 35  1  0
M  CHG  2   1  -1  21  -1
M  END
>  <UniqueID>  (9) 
9

>  <SMILES>  (9) 
[NH-]C(=O)c1cc2ccc(C[C@@H]3CCOC3)cc2n1C(=O)[O-]

>  <Energy>  (9) 
77.1384216323194

>  <Genealogy>  (9) 
[NH-]C(=O)c1cc2ccc(CC3CCOC3)cc2n1C(=O)[O-] (protonated)
[NH-]C(=O)c1cc2ccc(C[C@@H]3CCOC3)cc2n1C(=O)[O-] (chirality)
[NH-]C(=O)c1cc2ccc(C[C@@H]3CCOC3)cc2n1C(=O)[O-] (3D coordinates assigned)
[NH-]C(=O)c1cc2ccc(C[C@@H]3CCOC3)cc2n1C(=O)[O-] (nonaromatic ring conformer: 77.1384216323194 kcal/mol)

>  <smiles>  (9) 
NC(=O)c1cc2ccc(CC3CCOC3)cc2n1C(=O)O

>  <score_type>  (9) 
oracle

>  <origin>  (9) 
adg

>  <m_score__min__energy>  (9) 
-11.69

>  <m_primary>  (9) 
energy

$$$$
9:0
     RDKit          3D

 63 65  0  0  0  0  0  0  0  0999 V2000
   -0.4340   19.7800  -27.7990 C   0  0  0  0  0  0  0  0  0  0  0  0
   -1.4120   20.8000  -28.2120 N   0  0  0  0  0  0  0  0  0  0  0  0
   -2.7690   20.3900  -27.7900 C   0  0  0  0  0  0  0  0  0  0  0  0
   -2.7000   19.3900  -26.6740 C   0  0  0  0  0  0  0  0  0  0  0  0
   -3.6070   18.5870  -26.5190 O   0  0  0  0  0  0  0  0  0  0  0  0
   -1.3310   21.0500  -29.6730 C   0  0  0  0  0  0  0  0  0  0  0  0
   -2.6880   20.7910  -30.3350 C   0  0  0  0  0  0  0  0  0  0  0  0
   -2.5380   20.2090  -31.6770 N   0  0  0  0  0  0  0  0  0  0  0  0
   -1.4720   19.2360  -31.9360 C   0  0  0  0  0  0  0  0  0  0  0  0
   -3.4140   20.6130  -32.7480 C   0  0  0  0  0  0  0  0  0  0  0  0
   -2.9280   21.0630  -33.8210 O   0  0  0  0  0  0  0  0  0  0  0  0
   -4.8400   20.5180  -32.6090 N   0  0  0  0  0  0  0  0  0  0  0  0
   -5.6850   19.6850  -33.2780 C   0  0  0  0  0  0  0  0  0  0  0  0
   -5.2800   18.5970  -34.1900 C   0  0  0  0  0  0  0  0  0  0  0  0
   -3.9140   18.4100  -34.5590 N   0  0  0  0  0  0  0  0  0  0  0  0
   -6.1500   17.7910  -34.6190 O   0  0  0  0  0  0  0  0  0  0  0  0
   -7.0110   20.0100  -33.0040 C   0  0  0  0  0  0  0  0  0  0  0  0
   -6.9530   21.0820  -32.1420 C   0  0  0  0  0  0  0  0  0  0  0  0
   -7.9780   21.8360  -31.5780 C   0  0  0  0  0  0  0  0  0  0  0  0
   -7.6230   22.9300  -30.7700 C   0  0  0  0  0  0  0  0  0  0  0  0
   -6.2610   23.2550  -30.5510 C   0  0  0  0  0  0  0  0  0  0  0  0
   -5.8960   24.4570  -29.7210 C   0  0  0  0  0  0  0  0  0  0  0  0
   -4.4260   24.7890  -29.8180 C   0  0  0  0  0  0  0  0  0  0  0  0
   -3.9860   25.3360  -30.8680 O   0  0  0  0  0  0  0  0  0  0  0  0
   -3.5220   24.5420  -28.7180 N   0  0  0  0  0  0  0  0  0  0  0  0
   -2.0740   24.5290  -28.9840 C   0  0  0  0  0  0  0  0  0  0  0  0
   -1.2960   23.8950  -27.8230 C   0  0  0  0  0  0  0  0  0  0  0  0
   -1.6220   24.5820  -26.4860 C   0  0  0  0  0  0  0  0  0  0  0  0
   -1.2040   23.7590  -25.4490 F   0  0  0  0  0  0  0  0  0  0  0  0
   -3.1210   24.9230  -26.3170 C   0  0  0  0  0  0  0  0  0  0  0  0
   -4.0180   24.2510  -27.3630 C   0  0  0  0  0  0  0  0  0  0  0  0
   -5.2480   22.4810  -31.1610 C   0  0  0  0  0  0  0  0  0  0  0  0
   -5.6310   21.3760  -31.9300 C   0  0  0  0  0  0  0  0  0  0  0  0
   -0.3918   19.7360  -26.7007 H   0  0  0  0  0  0  0  0  0  0  0  0
   -0.7380   18.7994  -28.1939 H   0  0  0  0  0  0  0  0  0  0  0  0
    0.5585   20.0426  -28.1939 H   0  0  0  0  0  0  0  0  0  0  0  0
   -3.3231   21.2761  -27.4466 H   0  0  0  0  0  0  0  0  0  0  0  0
   -3.2802   19.9274  -28.6471 H   0  0  0  0  0  0  0  0  0  0  0  0
   -1.8337   19.3800  -25.9962 H   0  0  0  0  0  0  0  0  0  0  0  0
   -1.0370   22.0958  -29.8460 H   0  0  0  0  0  0  0  0  0  0  0  0
   -0.5849   20.3703  -30.1105 H   0  0  0  0  0  0  0  0  0  0  0  0
   -3.2635   20.0949  -29.7072 H   0  0  0  0  0  0  0  0  0  0  0  0
   -3.2089   21.7546  -30.4362 H   0  0  0  0  0  0  0  0  0  0  0  0
   -1.0701   18.8692  -30.9800 H   0  0  0  0  0  0  0  0  0  0  0  0
   -1.8786   18.3911  -32.5112 H   0  0  0  0  0  0  0  0  0  0  0  0
   -0.6676   19.7178  -32.5112 H   0  0  0  0  0  0  0  0  0  0  0  0
   -3.1520   18.9260  -34.0750 H   0  0  0  0  0  0  0  0  0  0  0  0
   -3.6550   17.6870  -35.2670 H   0  0  0  0  0  0  0  0  0  0  0  0
   -7.9131   19.5154  -33.3935 H   0  0  0  0  0  0  0  0  0  0  0  0
   -9.0332   21.5836  -31.7590 H   0  0  0  0  0  0  0  0  0  0  0  0
   -8.4102   23.5400  -30.3029 H   0  0  0  0  0  0  0  0  0  0  0  0
   -6.4788   25.3211  -30.0727 H   0  0  0  0  0  0  0  0  0  0  0  0
   -6.1221   24.2243  -28.6700 H   0  0  0  0  0  0  0  0  0  0  0  0
   -1.8838   23.9506  -29.9001 H   0  0  0  0  0  0  0  0  0  0  0  0
   -1.7346   25.5688  -29.1007 H   0  0  0  0  0  0  0  0  0  0  0  0
   -1.5632   22.8303  -27.7525 H   0  0  0  0  0  0  0  0  0  0  0  0
   -0.2207   24.0159  -28.0206 H   0  0  0  0  0  0  0  0  0  0  0  0
   -1.0867   25.5429  -26.4707 H   0  0  0  0  0  0  0  0  0  0  0  0
   -3.4432   24.5943  -25.3179 H   0  0  0  0  0  0  0  0  0  0  0  0
   -3.2245   26.0101  -26.4494 H   0  0  0  0  0  0  0  0  0  0  0  0
   -4.0143   23.1631  -27.2002 H   0  0  0  0  0  0  0  0  0  0  0  0
   -5.0415   24.6414  -27.2632 H   0  0  0  0  0  0  0  0  0  0  0  0
   -4.1865   22.7402  -31.0347 H   0  0  0  0  0  0  0  0  0  0  0  0
  1  2  1  0
  2  3  1  0
  3  4  1  0
  4  5  2  0
  2  6  1  0
  6  7  1  0
  7  8  1  0
  8  9  1  0
  8 10  1  0
 10 11  2  0
 10 12  1  0
 12 13  1  0
 13 14  1  0
 14 15  1  0
 14 16  2  0
 13 17  2  0
 17 18  1  0
 18 19  2  0
 19 20  1  0
 20 21  2  0
 21 22  1  0
 22 23  1  0
 23 24  2  0
 23 25  1  0
 25 26  1  0
 26 27  1  0
 27 28  1  0
 28 29  1  0
 28 30  1  0
 30 31  1  0
 21 32  1  0
 32 33  2  0
 33 12  1  0
 33 18  1  0
 31 25  1  0
  1 34  1  0
  1 35  1  0
  1 36  1  0
  3 37  1  0
  3 38  1  0
  4 39  1  0
  6 40  1  0
  6 41  1  0
  7 42  1  0
  7 43  1  0
  9 44  1  0
  9 45  1  0
  9 46  1  0
 15 47  1  0
 15 48  1  0
 17 49  1  0
 19 50  1  0
 20 51  1  0
 22 52  1  0
 22 53  1  0
 26 54  1  0
 26 55  1  0
 27 56  1  0
 27 57  1  0
 28 58  1  0
 30 59  1  0
 30 60  1  0
 31 61  1  0
 31 62  1  0
 32 63  1  0
M  END
>  <UniqueID>  (10) 
10

>  <SMILES>  (10) 
CN(CC=O)CCN(C)C(=O)n1c(C(N)=O)cc2ccc(CC(=O)N3CCC(F)CC3)cc21

>  <Energy>  (10) 
102.37143425428734

>  <Genealogy>  (10) 
CN(CC=O)CCN(C)C(=O)n1c(C(N)=O)cc2ccc(CC(=O)N3CCC(F)CC3)cc21 (3D coordinates assigned)
CN(CC=O)CCN(C)C(=O)n1c(C(N)=O)cc2ccc(CC(=O)N3CCC(F)CC3)cc21 (nonaromatic ring conformer: 102.37143425428734 kcal/mol)

>  <smiles>  (10) 
CN(CC=O)CCN(C)C(=O)n1c(C(N)=O)cc2ccc(CC(=O)N3CCC(F)CC3)cc21

>  <score_type>  (10) 
oracle

>  <origin>  (10) 
adg

>  <m_score__min__energy>  (10) 
-9.9199999999999999

>  <m_primary>  (10) 
energy

$$$$
10:0
     RDKit          3D

 39 41  0  0  0  0  0  0  0  0999 V2000
   -5.4040   26.5570  -30.3340 N   0  0  0  0  0  0  0  0  0  0  0  0
   -6.3180   25.5220  -29.9720 C   0  0  0  0  0  0  0  0  0  0  0  0
   -7.0810   25.6900  -28.9830 O   0  0  0  0  0  0  0  0  0  0  0  0
   -6.3400   24.2330  -30.6920 C   0  0  0  0  0  0  0  0  0  0  0  0
   -7.5120   23.6160  -31.1190 C   0  0  0  0  0  0  0  0  0  0  0  0
   -7.1120   22.4250  -31.6800 C   0  0  0  0  0  0  0  0  0  0  0  0
   -7.8680   21.4200  -32.2780 C   0  0  0  0  0  0  0  0  0  0  0  0
   -7.1870   20.3140  -32.8120 C   0  0  0  0  0  0  0  0  0  0  0  0
   -5.7770   20.2410  -32.7460 C   0  0  0  0  0  0  0  0  0  0  0  0
   -5.0910   19.1090  -33.3090 C   0  0  0  0  0  0  0  0  0  0  0  0
   -4.5180   18.1590  -33.7800 C   0  0  0  0  0  0  0  0  0  0  0  0
   -3.8180   16.9970  -34.3520 C   0  0  0  0  0  0  0  0  0  0  0  0
   -2.4070   16.8780  -33.7330 C   0  0  0  0  0  0  0  0  0  0  0  0
   -1.9130   15.4260  -33.7820 C   0  0  0  0  0  0  0  0  0  0  0  0
   -2.7830   14.5050  -33.0210 N   0  0  0  0  0  0  0  0  0  0  0  0
   -4.1950   14.9280  -32.9230 C   0  0  0  0  0  0  0  0  0  0  0  0
   -4.6520   15.7090  -34.1630 C   0  0  0  0  0  0  0  0  0  0  0  0
   -5.0390   21.2760  -32.1370 C   0  0  0  0  0  0  0  0  0  0  0  0
   -5.7430   22.3580  -31.5920 C   0  0  0  0  0  0  0  0  0  0  0  0
   -5.2530   23.4650  -30.9880 N   0  0  0  0  0  0  0  0  0  0  0  0
   -3.8670   23.8060  -30.8140 C   0  0  0  0  0  0  0  0  0  0  0  0
   -2.9760   22.9260  -30.9310 O   0  0  0  0  0  0  0  0  0  0  0  0
   -3.4960   25.1100  -30.5090 O   0  0  0  0  0  0  0  0  0  0  0  0
   -4.6480   26.3870  -31.0330 H   0  0  0  0  0  0  0  0  0  0  0  0
   -5.4300   27.4760  -29.8380 H   0  0  0  0  0  0  0  0  0  0  0  0
   -8.5392   23.9988  -31.0275 H   0  0  0  0  0  0  0  0  0  0  0  0
   -8.9645   21.4903  -32.3305 H   0  0  0  0  0  0  0  0  0  0  0  0
   -7.7547   19.4990  -33.2848 H   0  0  0  0  0  0  0  0  0  0  0  0
   -3.6968   17.1407  -35.4358 H   0  0  0  0  0  0  0  0  0  0  0  0
   -1.7104   17.5155  -34.2972 H   0  0  0  0  0  0  0  0  0  0  0  0
   -2.4539   17.2000  -32.6822 H   0  0  0  0  0  0  0  0  0  0  0  0
   -1.8853   15.0983  -34.8317 H   0  0  0  0  0  0  0  0  0  0  0  0
   -0.9140   15.3977  -33.3224 H   0  0  0  0  0  0  0  0  0  0  0  0
   -2.4050   14.4190  -32.0480 H   0  0  0  0  0  0  0  0  0  0  0  0
   -4.8263   14.0337  -32.8146 H   0  0  0  0  0  0  0  0  0  0  0  0
   -4.2897   15.5919  -32.0510 H   0  0  0  0  0  0  0  0  0  0  0  0
   -4.5342   15.0717  -35.0518 H   0  0  0  0  0  0  0  0  0  0  0  0
   -5.7057   15.9936  -34.0263 H   0  0  0  0  0  0  0  0  0  0  0  0
   -3.9407   21.2354  -32.0909 H   0  0  0  0  0  0  0  0  0  0  0  0
  1  2  1  0
  2  3  2  0
  2  4  1  0
  4  5  2  0
  5  6  1  0
  6  7  2  0
  7  8  1  0
  8  9  2  0
  9 10  1  0
 10 11  3  0
 11 12  1  0
 12 13  1  0
 13 14  1  0
 14 15  1  0
 15 16  1  0
 16 17  1  0
  9 18  1  0
 18 19  2  0
 19 20  1  0
 20 21  1  0
 21 22  2  0
 21 23  1  0
 20  4  1  0
 19  6  1  0
 17 12  1  0
  1 24  1  0
  1 25  1  0
  5 26  1  0
  7 27  1  0
  8 28  1  0
 12 29  1  0
 13 30  1  0
 13 31  1  0
 14 32  1  0
 14 33  1  0
 15 34  1  0
 16 35  1  0
 16 36  1  0
 17 37  1  0
 17 38  1  0
 18 39  1  0
M  CHG  1  23  -1
M  END
>  <UniqueID>  (11) 
11

>  <SMILES>  (11) 
NC(=O)c1cc2ccc(C#CC3CCNCC3)cc2n1C(=O)[O-]

>  <Energy>  (11) 
81.87167782570017

>  <Genealogy>  (11) 
NC(=O)c1cc2ccc(C#CC3CCNCC3)cc2n1C(=O)[O-] (protonated)
NC(=O)c1cc2ccc(C#CC3CCNCC3)cc2n1C(=O)[O-] (3D coordinates assigned)
NC(=O)c1cc2ccc(C#CC3CCNCC3)cc2n1C(=O)[O-] (nonaromatic ring conformer: 81.87167782570017 kcal/mol)

>  <smiles>  (11) 
NC(=O)c1cc2ccc(C#CC3CCNCC3)cc2n1C(=O)O

>  <score_type>  (11) 
oracle

>  <origin>  (11) 
adg

>  <m_score__min__energy>  (11) 
-9.3599999999999994

>  <m_primary>  (11) 
energy

$$$$
11:0
     RDKit          3D

 46 48  0  0  0  0  0  0  0  0999 V2000
   -1.9920   25.6590  -28.8600 N   0  0  0  0  0  0  0  0  0  0  0  0
   -1.1180   24.5360  -28.9540 C   0  0  0  0  0  0  0  0  0  0  0  0
   -0.0750   24.5060  -28.2500 O   0  0  0  0  0  0  0  0  0  0  0  0
   -1.4260   23.4410  -29.8990 C   0  0  0  0  0  0  0  0  0  0  0  0
   -0.4980   22.4810  -30.2930 C   0  0  0  0  0  0  0  0  0  0  0  0
   -1.1900   21.6270  -31.1220 C   0  0  0  0  0  0  0  0  0  0  0  0
   -0.7420   20.5220  -31.8330 C   0  0  0  0  0  0  0  0  0  0  0  0
   -1.6570   19.8630  -32.6670 C   0  0  0  0  0  0  0  0  0  0  0  0
   -3.0030   20.3020  -32.7730 C   0  0  0  0  0  0  0  0  0  0  0  0
   -3.8780   19.5990  -33.6830 N   0  0  0  0  0  0  0  0  0  0  0  0
   -5.3090   19.3070  -33.5130 C   0  0  2  0  0  0  0  0  0  0  0  0
   -5.7320   19.1460  -32.0480 C   0  0  0  0  0  0  0  0  0  0  0  0
   -6.6050   17.8890  -31.9870 C   0  0  0  0  0  0  0  0  0  0  0  0
   -6.9490   17.5340  -33.4310 C   0  0  2  0  0  0  0  0  0  0  0  0
   -7.1130   16.1490  -33.5790 O   0  0  0  0  0  0  0  0  0  0  0  0
   -5.7650   18.0440  -34.2520 C   0  0  1  0  0  0  0  0  0  0  0  0
   -6.1150   18.3030  -35.5900 O   0  0  0  0  0  0  0  0  0  0  0  0
   -3.4210   21.4310  -32.0220 C   0  0  0  0  0  0  0  0  0  0  0  0
   -2.4840   22.0720  -31.2010 C   0  0  0  0  0  0  0  0  0  0  0  0
   -2.6420   23.1900  -30.4610 N   0  0  0  0  0  0  0  0  0  0  0  0
   -3.8160   24.0140  -30.3950 C   0  0  0  0  0  0  0  0  0  0  0  0
   -3.7800   25.1880  -30.8560 O   0  0  0  0  0  0  0  0  0  0  0  0
   -4.9860   23.5210  -29.8110 O   0  0  0  0  0  0  0  0  0  0  0  0
   -4.9630   22.7570  -28.6080 C   0  0  0  0  0  0  0  0  0  0  0  0
   -4.0820   23.4350  -27.5650 C   0  0  0  0  0  0  0  0  0  0  0  0
   -4.2010   24.8300  -27.6480 O   0  0  0  0  0  0  0  0  0  0  0  0
   -2.9450   25.6330  -29.2840 H   0  0  0  0  0  0  0  0  0  0  0  0
    0.5615   22.4182  -30.0038 H   0  0  0  0  0  0  0  0  0  0  0  0
    0.2979   20.1742  -31.7450 H   0  0  0  0  0  0  0  0  0  0  0  0
   -1.3259   18.9905  -33.2493 H   0  0  0  0  0  0  0  0  0  0  0  0
   -3.4270   19.1420  -34.5080 H   0  0  0  0  0  0  0  0  0  0  0  0
   -5.7943   20.1936  -33.9471 H   0  0  0  0  0  0  0  0  0  0  0  0
   -4.8462   19.0257  -31.4070 H   0  0  0  0  0  0  0  0  0  0  0  0
   -6.2800   20.0305  -31.6911 H   0  0  0  0  0  0  0  0  0  0  0  0
   -6.0521   17.0642  -31.5137 H   0  0  0  0  0  0  0  0  0  0  0  0
   -7.5133   18.0624  -31.3913 H   0  0  0  0  0  0  0  0  0  0  0  0
   -7.8973   17.9863  -33.7568 H   0  0  0  0  0  0  0  0  0  0  0  0
   -6.7960   15.9250  -34.4930 H   0  0  0  0  0  0  0  0  0  0  0  0
   -4.9610   17.2971  -34.3277 H   0  0  0  0  0  0  0  0  0  0  0  0
   -6.8340   18.9870  -35.5960 H   0  0  0  0  0  0  0  0  0  0  0  0
   -4.4573   21.7948  -32.0830 H   0  0  0  0  0  0  0  0  0  0  0  0
   -5.9867   22.6682  -28.2154 H   0  0  0  0  0  0  0  0  0  0  0  0
   -4.5542   21.7594  -28.8265 H   0  0  0  0  0  0  0  0  0  0  0  0
   -4.3905   23.1052  -26.5620 H   0  0  0  0  0  0  0  0  0  0  0  0
   -3.0342   23.1573  -27.7521 H   0  0  0  0  0  0  0  0  0  0  0  0
   -4.0590   25.0700  -28.6010 H   0  0  0  0  0  0  0  0  0  0  0  0
  1  2  1  0
  2  3  2  0
  2  4  1  0
  4  5  2  0
  5  6  1  0
  6  7  2  0
  7  8  1  0
  8  9  2  0
  9 10  1  0
 10 11  1  0
 11 12  1  0
 12 13  1  0
 13 14  1  0
 14 15  1  0
 14 16  1  0
 16 17  1  0
  9 18  1  0
 18 19  2  0
 19 20  1  0
 20 21  1  0
 21 22  2  0
 21 23  1  0
 23 24  1  0
 24 25  1  0
 25 26  1  0
 20  4  1  0
 19  6  1  0
 16 11  1  0
  1 27  1  0
  5 28  1  0
  7 29  1  0
  8 30  1  0
 10 31  1  0
 11 32  1  6
 12 33  1  0
 12 34  1  0
 13 35  1  0
 13 36  1  0
 14 37  1  6
 15 38  1  0
 16 39  1  6
 17 40  1  0
 18 41  1  0
 24 42  1  0
 24 43  1  0
 25 44  1  0
 25 45  1  0
 26 46  1  0
M  CHG  1   1  -1
M  END
>  <UniqueID>  (12) 
12

>  <SMILES>  (12) 
[NH-]C(=O)c1cc2ccc(N[C@@H]3CC[C@H](O)C3O)cc2n1C(=O)OCCO

>  <Energy>  (12) 
87.15213336791822

>  <Genealogy>  (12) 
[NH-]C(=O)c1cc2ccc(NC3CCC(O)C3O)cc2n1C(=O)OCCO (protonated)
[NH-]C(=O)c1cc2ccc(N[C@@H]3CC[C@H](O)C3O)cc2n1C(=O)OCCO (chirality)
[NH-]C(=O)c1cc2ccc(N[C@@H]3CC[C@H](O)C3O)cc2n1C(=O)OCCO (3D coordinates assigned)
[NH-]C(=O)c1cc2ccc(N[C@@H]3CC[C@H](O)C3O)cc2n1C(=O)OCCO (nonaromatic ring conformer: 87.15213336791822 kcal/mol)

>  <smiles>  (12) 
NC(=O)c1cc2ccc(NC3CCC(O)C3O)cc2n1C(=O)OCCO

>  <score_type>  (12) 
oracle

>  <origin>  (12) 
adg

>  <m_score__min__energy>  (12) 
-9.9100000000000001

>  <m_primary>  (12) 
energy

$$$$
12:0
     RDKit          3D

 28 29  0  0  0  0  0  0  0  0999 V2000
   -3.2510   22.9700  -28.9700 C   0  0  0  0  0  0  0  0  0  0  0  0
   -2.8710   23.1430  -30.3300 O   0  0  0  0  0  0  0  0  0  0  0  0
   -3.6810   22.7410  -31.3970 C   0  0  0  0  0  0  0  0  0  0  0  0
   -3.1640   22.2620  -32.4430 O   0  0  0  0  0  0  0  0  0  0  0  0
   -5.1060   22.8980  -31.3080 N   0  0  0  0  0  0  0  0  0  0  0  0
   -5.8010   24.0290  -30.9960 C   0  0  0  0  0  0  0  0  0  0  0  0
   -5.2210   25.2970  -30.5080 C   0  0  0  0  0  0  0  0  0  0  0  0
   -3.8880   25.6720  -30.8460 N   0  0  0  0  0  0  0  0  0  0  0  0
   -5.8940   26.0360  -29.7410 O   0  0  0  0  0  0  0  0  0  0  0  0
   -7.1710   23.8100  -31.1190 C   0  0  0  0  0  0  0  0  0  0  0  0
   -7.2970   22.4970  -31.5110 C   0  0  0  0  0  0  0  0  0  0  0  0
   -8.4380   21.7570  -31.8040 C   0  0  0  0  0  0  0  0  0  0  0  0
   -8.2710   20.4270  -32.2230 C   0  0  0  0  0  0  0  0  0  0  0  0
   -6.9760   19.8580  -32.3350 C   0  0  0  0  0  0  0  0  0  0  0  0
   -6.8070   18.4500  -32.8490 C   0  0  0  0  0  0  0  0  0  0  0  0
   -5.8060   17.8220  -32.1310 F   0  0  0  0  0  0  0  0  0  0  0  0
   -6.4640   18.4570  -34.1900 F   0  0  0  0  0  0  0  0  0  0  0  0
   -7.9830   17.7340  -32.7060 F   0  0  0  0  0  0  0  0  0  0  0  0
   -5.8400   20.6520  -32.0530 C   0  0  0  0  0  0  0  0  0  0  0  0
   -6.0370   21.9680  -31.6180 C   0  0  0  0  0  0  0  0  0  0  0  0
   -2.4466   23.3362  -28.3151 H   0  0  0  0  0  0  0  0  0  0  0  0
   -4.1722   23.5374  -28.7717 H   0  0  0  0  0  0  0  0  0  0  0  0
   -3.4280   21.9026  -28.7717 H   0  0  0  0  0  0  0  0  0  0  0  0
   -3.0730   25.2950  -30.3140 H   0  0  0  0  0  0  0  0  0  0  0  0
   -7.9805   24.5332  -30.9406 H   0  0  0  0  0  0  0  0  0  0  0  0
   -9.4404   22.2001  -31.7104 H   0  0  0  0  0  0  0  0  0  0  0  0
   -9.1547   19.8191  -32.4673 H   0  0  0  0  0  0  0  0  0  0  0  0
   -4.8251   20.2449  -32.1727 H   0  0  0  0  0  0  0  0  0  0  0  0
  1  2  1  0
  2  3  1  0
  3  4  2  0
  3  5  1  0
  5  6  1  0
  6  7  1  0
  7  8  1  0
  7  9  2  0
  6 10  2  0
 10 11  1  0
 11 12  2  0
 12 13  1  0
 13 14  2  0
 14 15  1  0
 15 16  1  0
 15 17  1  0
 15 18  1  0
 14 19  1  0
 19 20  2  0
 20  5  1  0
 20 11  1  0
  1 21  1  0
  1 22  1  0
  1 23  1  0
  8 24  1  0
 10 25  1  0
 12 26  1  0
 13 27  1  0
 19 28  1  0
M  CHG  1   8  -1
M  END
>  <UniqueID>  (13) 
13

>  <SMILES>  (13) 
COC(=O)n1c(C([NH-])=O)cc2ccc(C(F)(F)F)cc21

>  <Energy>  (13) 
66.28508851399144

>  <Genealogy>  (13) 
COC(=O)n1c(C([NH-])=O)cc2ccc(C(F)(F)F)cc21 (protonated)
COC(=O)n1c(C([NH-])=O)cc2ccc(C(F)(F)F)cc21 (3D coordinates assigned)
COC(=O)n1c(C([NH-])=O)cc2ccc(C(F)(F)F)cc21 (optimized conformer: 66.28508851399144 kcal/mol)

>  <smiles>  (13) 
COC(=O)n1c(C(N)=O)cc2ccc(C(F)(F)F)cc21

>  <score_type>  (13) 
oracle

>  <origin>  (13) 
adg

>  <m_score__min__energy>  (13) 
-8.7899999999999991

>  <m_primary>  (13) 
energy

$$$$
13:0
     RDKit          3D

 50 51  0  0  0  0  0  0  0  0999 V2000
   -2.6150   24.7870  -27.1190 C   0  0  0  0  0  0  0  0  0  0  0  0
   -1.5790   25.1080  -28.5840 S   0  0  0  0  0  0  0  0  0  0  0  0
   -1.6900   23.4150  -29.2610 C   0  0  0  0  0  0  0  0  0  0  0  0
   -3.0760   22.8190  -28.9930 C   0  0  0  0  0  0  0  0  0  0  0  0
   -3.4560   21.7510  -30.0290 C   0  0  0  0  0  0  0  0  0  0  0  0
   -4.1570   22.3590  -31.2120 C   0  0  0  0  0  0  0  0  0  0  0  0
   -3.4980   22.6210  -32.2540 O   0  0  0  0  0  0  0  0  0  0  0  0
   -5.5380   22.7420  -31.1300 N   0  0  0  0  0  0  0  0  0  0  0  0
   -6.0580   23.9730  -30.8680 C   0  0  0  0  0  0  0  0  0  0  0  0
   -5.2920   25.1610  -30.4370 C   0  0  0  0  0  0  0  0  0  0  0  0
   -3.8920   25.2560  -30.6820 N   0  0  0  0  0  0  0  0  0  0  0  0
   -5.8740   26.0890  -29.8150 O   0  0  0  0  0  0  0  0  0  0  0  0
   -7.4470   23.9520  -30.9910 C   0  0  0  0  0  0  0  0  0  0  0  0
   -7.7640   22.6530  -31.3290 C   0  0  0  0  0  0  0  0  0  0  0  0
   -8.9990   22.0690  -31.5940 C   0  0  0  0  0  0  0  0  0  0  0  0
   -9.0200   20.7110  -31.9580 C   0  0  0  0  0  0  0  0  0  0  0  0
   -7.8150   19.9710  -32.0550 C   0  0  0  0  0  0  0  0  0  0  0  0
   -7.8460   18.5160  -32.4350 C   0  0  0  0  0  0  0  0  0  0  0  0
   -6.5900   17.8200  -31.9830 C   0  0  0  0  0  0  0  0  0  0  0  0
   -6.4640   17.5140  -30.8060 O   0  0  0  0  0  0  0  0  0  0  0  0
   -5.4680   17.5270  -32.9450 C   0  0  0  0  0  0  0  0  0  0  0  0
   -5.2910   18.6390  -33.9020 N   0  0  0  0  0  0  0  0  0  0  0  0
   -3.9850   19.2940  -33.7120 C   0  0  0  0  0  0  0  0  0  0  0  0
   -5.3910   18.1340  -35.2810 C   0  0  0  0  0  0  0  0  0  0  0  0
   -6.5820   20.5950  -31.7650 C   0  0  0  0  0  0  0  0  0  0  0  0
   -6.5930   21.9450  -31.4000 C   0  0  0  0  0  0  0  0  0  0  0  0
   -2.0272   24.9691  -26.2072 H   0  0  0  0  0  0  0  0  0  0  0  0
   -3.4873   25.4570  -27.1328 H   0  0  0  0  0  0  0  0  0  0  0  0
   -2.9557   23.7412  -27.1328 H   0  0  0  0  0  0  0  0  0  0  0  0
   -1.5135   23.4469  -30.3463 H   0  0  0  0  0  0  0  0  0  0  0  0
   -0.9318   22.7860  -28.7716 H   0  0  0  0  0  0  0  0  0  0  0  0
   -3.0774   22.3598  -27.9934 H   0  0  0  0  0  0  0  0  0  0  0  0
   -3.8132   23.6327  -29.0595 H   0  0  0  0  0  0  0  0  0  0  0  0
   -2.5417   21.2468  -30.3751 H   0  0  0  0  0  0  0  0  0  0  0  0
   -4.1404   21.0341  -29.5520 H   0  0  0  0  0  0  0  0  0  0  0  0
   -3.4950   26.0530  -31.2260 H   0  0  0  0  0  0  0  0  0  0  0  0
   -8.1420   24.7927  -30.8487 H   0  0  0  0  0  0  0  0  0  0  0  0
   -9.9294   22.6513  -31.5210 H   0  0  0  0  0  0  0  0  0  0  0  0
   -9.9805   20.2183  -32.1694 H   0  0  0  0  0  0  0  0  0  0  0  0
   -8.7149   18.0373  -31.9597 H   0  0  0  0  0  0  0  0  0  0  0  0
   -7.9183   18.4384  -33.5299 H   0  0  0  0  0  0  0  0  0  0  0  0
   -4.5353   17.3870  -32.3789 H   0  0  0  0  0  0  0  0  0  0  0  0
   -5.7161   16.6149  -33.5076 H   0  0  0  0  0  0  0  0  0  0  0  0
   -3.7795   19.3970  -32.6363 H   0  0  0  0  0  0  0  0  0  0  0  0
   -3.1976   18.6842  -34.1789 H   0  0  0  0  0  0  0  0  0  0  0  0
   -4.0029   20.2898  -34.1789 H   0  0  0  0  0  0  0  0  0  0  0  0
   -5.6046   17.0551  -35.2618 H   0  0  0  0  0  0  0  0  0  0  0  0
   -6.2026   18.6592  -35.8059 H   0  0  0  0  0  0  0  0  0  0  0  0
   -4.4405   18.3103  -35.8059 H   0  0  0  0  0  0  0  0  0  0  0  0
   -5.6377   20.0340  -31.8246 H   0  0  0  0  0  0  0  0  0  0  0  0
  1  2  1  0
  2  3  1  0
  3  4  1  0
  4  5  1  0
  5  6  1  0
  6  7  2  0
  6  8  1  0
  8  9  1  0
  9 10  1  0
 10 11  1  0
 10 12  2  0
  9 13  2  0
 13 14  1  0
 14 15  2  0
 15 16  1  0
 16 17  2  0
 17 18  1  0
 18 19  1  0
 19 20  2  0
 19 21  1  0
 21 22  1  0
 22 23  1  0
 22 24  1  0
 17 25  1  0
 25 26  2  0
 26  8  1  0
 26 14  1  0
  1 27  1  0
  1 28  1  0
  1 29  1  0
  3 30  1  0
  3 31  1  0
  4 32  1  0
  4 33  1  0
  5 34  1  0
  5 35  1  0
 11 36  1  0
 13 37  1  0
 15 38  1  0
 16 39  1  0
 18 40  1  0
 18 41  1  0
 21 42  1  0
 21 43  1  0
 23 44  1  0
 23 45  1  0
 23 46  1  0
 24 47  1  0
 24 48  1  0
 24 49  1  0
 25 50  1  0
M  CHG  1  11  -1
M  END
>  <UniqueID>  (14) 
14

>  <SMILES>  (14) 
CSCCCC(=O)n1c(C([NH-])=O)cc2ccc(CC(=O)CN(C)C)cc21

>  <Energy>  (14) 
75.23002362835042

>  <Genealogy>  (14) 
CSCCCC(=O)n1c(C([NH-])=O)cc2ccc(CC(=O)CN(C)C)cc21 (protonated)
CSCCCC(=O)n1c(C([NH-])=O)cc2ccc(CC(=O)CN(C)C)cc21 (3D coordinates assigned)
CSCCCC(=O)n1c(C([NH-])=O)cc2ccc(CC(=O)CN(C)C)cc21 (optimized conformer: 75.23002362835042 kcal/mol)

>  <smiles>  (14) 
CSCCCC(=O)n1c(C(N)=O)cc2ccc(CC(=O)CN(C)C)cc21

>  <score_type>  (14) 
oracle

>  <origin>  (14) 
adg

>  <m_score__min__energy>  (14) 
-11.130000000000001

>  <m_primary>  (14) 
energy

$$$$
14:0
     RDKit          3D

 39 40  0  0  0  0  0  0  0  0999 V2000
   -6.4990   24.2670  -30.1600 C   0  0  0  0  0  0  0  0  0  0  0  0
   -5.1940   23.7800  -29.7450 N   0  0  0  0  0  0  0  0  0  0  0  0
   -3.9780   24.1680  -30.3920 C   0  0  0  0  0  0  0  0  0  0  0  0
   -3.8520   25.3350  -30.8500 O   0  0  0  0  0  0  0  0  0  0  0  0
   -2.9090   23.2200  -30.5380 N   0  0  0  0  0  0  0  0  0  0  0  0
   -1.6260   23.3300  -30.0890 C   0  0  0  0  0  0  0  0  0  0  0  0
   -1.1030   24.3930  -29.2060 C   0  0  0  0  0  0  0  0  0  0  0  0
   -1.8490   25.5820  -28.9660 N   0  0  0  0  0  0  0  0  0  0  0  0
   -0.0000   24.2290  -28.6190 O   0  0  0  0  0  0  0  0  0  0  0  0
   -0.8640   22.2450  -30.5180 C   0  0  0  0  0  0  0  0  0  0  0  0
   -1.7280   21.4570  -31.2450 C   0  0  0  0  0  0  0  0  0  0  0  0
   -1.4970   20.2660  -31.9210 C   0  0  0  0  0  0  0  0  0  0  0  0
   -2.5690   19.6890  -32.6240 C   0  0  0  0  0  0  0  0  0  0  0  0
   -3.8460   20.3050  -32.6440 C   0  0  0  0  0  0  0  0  0  0  0  0
   -4.9040   19.6800  -33.4030 N   0  0  0  0  0  0  0  0  0  0  0  0
   -6.0910   19.0060  -32.8540 C   0  0  1  0  0  0  0  0  0  0  0  0
   -7.2500   19.9960  -32.6770 C   0  0  0  0  0  0  0  0  0  0  0  0
   -6.4690   17.7980  -33.6710 C   0  0  0  0  0  0  0  0  0  0  0  0
   -7.2220   16.9140  -33.1800 O   0  0  0  0  0  0  0  0  0  0  0  0
   -5.9320   17.6340  -34.9530 O   0  0  0  0  0  0  0  0  0  0  0  0
   -4.6060   17.1720  -35.1740 C   0  0  0  0  0  0  0  0  0  0  0  0
   -4.0340   21.5250  -31.9480 C   0  0  0  0  0  0  0  0  0  0  0  0
   -2.9550   22.0670  -31.2410 C   0  0  0  0  0  0  0  0  0  0  0  0
   -7.1057   24.4934  -29.2708 H   0  0  0  0  0  0  0  0  0  0  0  0
   -6.3755   25.1796  -30.7617 H   0  0  0  0  0  0  0  0  0  0  0  0
   -7.0035   23.4966  -30.7617 H   0  0  0  0  0  0  0  0  0  0  0  0
   -2.8380   25.6720  -29.2910 H   0  0  0  0  0  0  0  0  0  0  0  0
    0.2014   22.0578  -30.3183 H   0  0  0  0  0  0  0  0  0  0  0  0
   -0.5059   19.7889  -31.9068 H   0  0  0  0  0  0  0  0  0  0  0  0
   -2.4147   18.7449  -33.1670 H   0  0  0  0  0  0  0  0  0  0  0  0
   -4.7890   19.6350  -34.4410 H   0  0  0  0  0  0  0  0  0  0  0  0
   -5.8411   18.6283  -31.8515 H   0  0  0  0  0  0  0  0  0  0  0  0
   -7.4360   20.1549  -31.6045 H   0  0  0  0  0  0  0  0  0  0  0  0
   -6.9891   20.9543  -33.1498 H   0  0  0  0  0  0  0  0  0  0  0  0
   -8.1558   19.5885  -33.1498 H   0  0  0  0  0  0  0  0  0  0  0  0
   -4.1117   16.9998  -34.2065 H   0  0  0  0  0  0  0  0  0  0  0  0
   -4.6356   16.2312  -35.7432 H   0  0  0  0  0  0  0  0  0  0  0  0
   -4.0446   17.9275  -35.7432 H   0  0  0  0  0  0  0  0  0  0  0  0
   -5.0083   22.0355  -31.9632 H   0  0  0  0  0  0  0  0  0  0  0  0
  1  2  1  0
  2  3  1  0
  3  4  2  0
  3  5  1  0
  5  6  1  0
  6  7  1  0
  7  8  1  0
  7  9  2  0
  6 10  2  0
 10 11  1  0
 11 12  2  0
 12 13  1  0
 13 14  2  0
 14 15  1  0
 15 16  1  0
 16 17  1  0
 16 18  1  0
 18 19  2  0
 18 20  1  0
 20 21  1  0
 14 22  1  0
 22 23  2  0
 23  5  1  0
 23 11  1  0
  1 24  1  0
  1 25  1  0
  1 26  1  0
  8 27  1  0
 10 28  1  0
 12 29  1  0
 13 30  1  0
 15 31  1  0
 16 32  1  1
 17 33  1  0
 17 34  1  0
 17 35  1  0
 21 36  1  0
 21 37  1  0
 21 38  1  0
 22 39  1  0
M  CHG  2   2  -1   8  -1
M  END
>  <UniqueID>  (15) 
15

>  <SMILES>  (15) 
C[N-]C(=O)n1c(C([NH-])=O)cc2ccc(N[C@@H](C)C(=O)OC)cc21

>  <Energy>  (15) 
73.36925619208641

>  <Genealogy>  (15) 
C[N-]C(=O)n1c(C([NH-])=O)cc2ccc(NC(C)C(=O)OC)cc21 (protonated)
C[N-]C(=O)n1c(C([NH-])=O)cc2ccc(N[C@@H](C)C(=O)OC)cc21 (chirality)
C[N-]C(=O)n1c(C([NH-])=O)cc2ccc(N[C@@H](C)C(=O)OC)cc21 (3D coordinates assigned)
C[N-]C(=O)n1c(C([NH-])=O)cc2ccc(N[C@@H](C)C(=O)OC)cc21 (optimized conformer: 73.36925619208641 kcal/mol)

>  <smiles>  (15) 
CNC(=O)n1c(C(N)=O)cc2ccc(NC(C)C(=O)OC)cc21

>  <score_type>  (15) 
oracle

>  <origin>  (15) 
adg

>  <m_score__min__energy>  (15) 
-10.16

>  <m_primary>  (15) 
energy

$$$$
15:0
     RDKit          3D

 45 47  0  0  0  0  0  0  0  0999 V2000
   -9.3380   20.3420  -32.3800 C   0  0  0  0  0  0  0  0  0  0  0  0
   -8.7280   19.1920  -33.0550 N   0  0  0  0  0  0  0  0  0  0  0  0
   -7.7580   18.4890  -32.1870 C   0  0  1  0  0  0  0  0  0  0  0  0
   -6.9750   17.4100  -32.9660 C   0  0  0  0  0  0  0  0  0  0  0  0
   -6.1760   17.9940  -34.1490 C   0  0  0  0  0  0  0  0  0  0  0  0
   -5.8020   19.4740  -33.9570 C   0  0  0  0  0  0  0  0  0  0  0  0
   -5.6480   19.7980  -32.5320 N   0  0  0  0  0  0  0  0  0  0  0  0
   -4.4280   20.3840  -32.0410 C   0  0  0  0  0  0  0  0  0  0  0  0
   -3.1770   19.7810  -32.3290 C   0  0  0  0  0  0  0  0  0  0  0  0
   -1.9790   20.3590  -31.8750 C   0  0  0  0  0  0  0  0  0  0  0  0
   -2.0610   21.5350  -31.1370 C   0  0  0  0  0  0  0  0  0  0  0  0
   -1.0620   22.3180  -30.6050 C   0  0  0  0  0  0  0  0  0  0  0  0
   -1.7160   23.3810  -29.9840 C   0  0  0  0  0  0  0  0  0  0  0  0
   -1.0140   24.4210  -29.2050 C   0  0  0  0  0  0  0  0  0  0  0  0
   -1.6240   25.6830  -28.9490 N   0  0  0  0  0  0  0  0  0  0  0  0
    0.1220   24.1760  -28.7190 O   0  0  0  0  0  0  0  0  0  0  0  0
   -3.0660   23.2650  -30.1350 N   0  0  0  0  0  0  0  0  0  0  0  0
   -4.0850   24.1870  -29.7180 C   0  0  0  0  0  0  0  0  0  0  0  0
   -4.7890   23.9300  -28.7040 O   0  0  0  0  0  0  0  0  0  0  0  0
   -4.2740   25.3790  -30.4240 O   0  0  0  0  0  0  0  0  0  0  0  0
   -5.5360   26.0290  -30.5100 C   0  0  0  0  0  0  0  0  0  0  0  0
   -3.2610   22.1270  -30.8400 C   0  0  0  0  0  0  0  0  0  0  0  0
   -4.4670   21.5850  -31.2950 C   0  0  0  0  0  0  0  0  0  0  0  0
   -6.7400   19.4910  -31.5910 C   0  0  0  0  0  0  0  0  0  0  0  0
   -9.2668   20.2078  -31.2905 H   0  0  0  0  0  0  0  0  0  0  0  0
   -8.8090   21.2613  -32.6716 H   0  0  0  0  0  0  0  0  0  0  0  0
  -10.3958   20.4196  -32.6716 H   0  0  0  0  0  0  0  0  0  0  0  0
   -8.2110   19.5780  -33.8790 H   0  0  0  0  0  0  0  0  0  0  0  0
   -8.3364   18.0075  -31.3847 H   0  0  0  0  0  0  0  0  0  0  0  0
   -6.2738   16.9172  -32.2765 H   0  0  0  0  0  0  0  0  0  0  0  0
   -7.7071   16.6994  -33.3773 H   0  0  0  0  0  0  0  0  0  0  0  0
   -5.2500   17.4120  -34.2665 H   0  0  0  0  0  0  0  0  0  0  0  0
   -6.8190   17.9325  -35.0394 H   0  0  0  0  0  0  0  0  0  0  0  0
   -4.8534   19.6755  -34.4762 H   0  0  0  0  0  0  0  0  0  0  0  0
   -6.6086   20.0959  -34.3725 H   0  0  0  0  0  0  0  0  0  0  0  0
   -3.1440   18.8503  -32.9144 H   0  0  0  0  0  0  0  0  0  0  0  0
   -1.0064   19.8955  -32.0966 H   0  0  0  0  0  0  0  0  0  0  0  0
    0.0226   22.1423  -30.6585 H   0  0  0  0  0  0  0  0  0  0  0  0
   -2.6590   25.8030  -29.0130 H   0  0  0  0  0  0  0  0  0  0  0  0
   -5.9171   26.2253  -29.4970 H   0  0  0  0  0  0  0  0  0  0  0  0
   -5.4222   26.9807  -31.0498 H   0  0  0  0  0  0  0  0  0  0  0  0
   -6.2447   25.3838  -31.0498 H   0  0  0  0  0  0  0  0  0  0  0  0
   -5.4243   22.0814  -31.0777 H   0  0  0  0  0  0  0  0  0  0  0  0
   -6.3089   19.0570  -30.6768 H   0  0  0  0  0  0  0  0  0  0  0  0
   -7.2741   20.4280  -31.3747 H   0  0  0  0  0  0  0  0  0  0  0  0
  1  2  1  0
  2  3  1  0
  3  4  1  0
  4  5  1  0
  5  6  1  0
  6  7  1  0
  7  8  1  0
  8  9  2  0
  9 10  1  0
 10 11  2  0
 11 12  1  0
 12 13  2  0
 13 14  1  0
 14 15  1  0
 14 16  2  0
 13 17  1  0
 17 18  1  0
 18 19  2  0
 18 20  1  0
 20 21  1  0
 17 22  1  0
 22 23  2  0
  7 24  1  0
 24  3  1  0
 23  8  1  0
 22 11  1  0
  1 25  1  0
  1 26  1  0
  1 27  1  0
  2 28  1  0
  3 29  1  1
  4 30  1  0
  4 31  1  0
  5 32  1  0
  5 33  1  0
  6 34  1  0
  6 35  1  0
  9 36  1  0
 10 37  1  0
 12 38  1  0
 15 39  1  0
 21 40  1  0
 21 41  1  0
 21 42  1  0
 23 43  1  0
 24 44  1  0
 24 45  1  0
M  CHG  1  15  -1
M  END
>  <UniqueID>  (16) 
16

>  <SMILES>  (16) 
CN[C@H]1CCCN(c2ccc3cc(C([NH-])=O)n(C(=O)OC)c3c2)C1

>  <Energy>  (16) 
90.28824736392046

>  <Genealogy>  (16) 
CNC1CCCN(c2ccc3cc(C([NH-])=O)n(C(=O)OC)c3c2)C1 (protonated)
CN[C@H]1CCCN(c2ccc3cc(C([NH-])=O)n(C(=O)OC)c3c2)C1 (chirality)
CN[C@H]1CCCN(c2ccc3cc(C([NH-])=O)n(C(=O)OC)c3c2)C1 (3D coordinates assigned)
CN[C@H]1CCCN(c2ccc3cc(C([NH-])=O)n(C(=O)OC)c3c2)C1 (nonaromatic ring conformer: 90.28824736392046 kcal/mol)

>  <smiles>  (16) 
CNC1CCCN(c2ccc3cc(C(N)=O)n(C(=O)OC)c3c2)C1

>  <score_type>  (16) 
oracle

>  <origin>  (16) 
adg

>  <m_score__min__energy>  (16) 
-10.81

>  <m_primary>  (16) 
energy

$$$$
16:0
     RDKit          3D

 41 42  0  0  0  0  0  0  0  0999 V2000
   -4.7570   18.7170  -33.6700 C   0  0  0  0  0  0  0  0  0  0  0  0
   -5.5640   17.6190  -33.1260 N   0  0  0  0  0  0  0  0  0  0  0  0
   -5.2280   16.2370  -33.5020 C   0  0  0  0  0  0  0  0  0  0  0  0
   -4.3120   15.6060  -32.4540 C   0  0  0  0  0  0  0  0  0  0  0  0
   -5.0830   15.0940  -31.4040 O   0  0  0  0  0  0  0  0  0  0  0  0
   -6.6390   17.9350  -32.2090 C   0  0  0  0  0  0  0  0  0  0  0  0
   -6.5390   17.5850  -31.0000 O   0  0  0  0  0  0  0  0  0  0  0  0
   -7.8540   18.7270  -32.6310 C   0  0  0  0  0  0  0  0  0  0  0  0
   -7.7800   20.1440  -32.1270 C   0  0  0  0  0  0  0  0  0  0  0  0
   -8.9660   20.8590  -31.8210 C   0  0  0  0  0  0  0  0  0  0  0  0
   -8.9060   22.1950  -31.3900 C   0  0  0  0  0  0  0  0  0  0  0  0
   -7.6510   22.7890  -31.2820 C   0  0  0  0  0  0  0  0  0  0  0  0
   -7.3010   24.0710  -30.9180 C   0  0  0  0  0  0  0  0  0  0  0  0
   -5.9110   24.1130  -31.0080 C   0  0  0  0  0  0  0  0  0  0  0  0
   -5.1000   25.2950  -30.6450 C   0  0  0  0  0  0  0  0  0  0  0  0
   -3.6910   25.1880  -30.4580 N   0  0  0  0  0  0  0  0  0  0  0  0
   -5.6630   26.4080  -30.4670 O   0  0  0  0  0  0  0  0  0  0  0  0
   -5.4230   22.9080  -31.4150 N   0  0  0  0  0  0  0  0  0  0  0  0
   -4.0640   22.5550  -31.7080 C   0  0  0  0  0  0  0  0  0  0  0  0
   -3.1810   22.6810  -30.8190 O   0  0  0  0  0  0  0  0  0  0  0  0
   -3.7120   21.9250  -33.0190 C   0  0  0  0  0  0  0  0  0  0  0  0
   -2.2880   20.8780  -32.8050 Cl  0  0  0  0  0  0  0  0  0  0  0  0
   -6.4980   22.1090  -31.5740 C   0  0  0  0  0  0  0  0  0  0  0  0
   -6.5260   20.7820  -32.0110 C   0  0  0  0  0  0  0  0  0  0  0  0
   -4.3276   19.3012  -32.8428 H   0  0  0  0  0  0  0  0  0  0  0  0
   -3.9455   18.3046  -34.2875 H   0  0  0  0  0  0  0  0  0  0  0  0
   -5.3929   19.3684  -34.2875 H   0  0  0  0  0  0  0  0  0  0  0  0
   -6.1533   15.6468  -33.5768 H   0  0  0  0  0  0  0  0  0  0  0  0
   -4.7066   16.2481  -34.4705 H   0  0  0  0  0  0  0  0  0  0  0  0
   -3.7346   14.7913  -32.9153 H   0  0  0  0  0  0  0  0  0  0  0  0
   -3.6235   16.3697  -32.0631 H   0  0  0  0  0  0  0  0  0  0  0  0
   -5.2540   15.8550  -30.7900 H   0  0  0  0  0  0  0  0  0  0  0  0
   -7.9111   18.7390  -33.7294 H   0  0  0  0  0  0  0  0  0  0  0  0
   -8.7478   18.2502  -32.2023 H   0  0  0  0  0  0  0  0  0  0  0  0
   -9.9425   20.3627  -31.9221 H   0  0  0  0  0  0  0  0  0  0  0  0
   -9.8213   22.7540  -31.1456 H   0  0  0  0  0  0  0  0  0  0  0  0
   -7.9752   24.8874  -30.6199 H   0  0  0  0  0  0  0  0  0  0  0  0
   -3.0740   24.8190  -31.2160 H   0  0  0  0  0  0  0  0  0  0  0  0
   -4.5602   21.3230  -33.3769 H   0  0  0  0  0  0  0  0  0  0  0  0
   -3.4852   22.7096  -33.7558 H   0  0  0  0  0  0  0  0  0  0  0  0
   -5.5960   20.2489  -32.2580 H   0  0  0  0  0  0  0  0  0  0  0  0
  1  2  1  0
  2  3  1  0
  3  4  1  0
  4  5  1  0
  2  6  1  0
  6  7  2  0
  6  8  1  0
  8  9  1  0
  9 10  2  0
 10 11  1  0
 11 12  2  0
 12 13  1  0
 13 14  2  0
 14 15  1  0
 15 16  1  0
 15 17  2  0
 14 18  1  0
 18 19  1  0
 19 20  2  0
 19 21  1  0
 21 22  1  0
 18 23  1  0
 23 24  2  0
 24  9  1  0
 23 12  1  0
  1 25  1  0
  1 26  1  0
  1 27  1  0
  3 28  1  0
  3 29  1  0
  4 30  1  0
  4 31  1  0
  5 32  1  0
  8 33  1  0
  8 34  1  0
 10 35  1  0
 11 36  1  0
 13 37  1  0
 16 38  1  0
 21 39  1  0
 21 40  1  0
 24 41  1  0
M  CHG  1  16  -1
M  END
>  <UniqueID>  (17) 
17

>  <SMILES>  (17) 
CN(CCO)C(=O)Cc1ccc2cc(C([NH-])=O)n(C(=O)CCl)c2c1

>  <Energy>  (17) 
75.07378324442442

>  <Genealogy>  (17) 
CN(CCO)C(=O)Cc1ccc2cc(C([NH-])=O)n(C(=O)CCl)c2c1 (protonated)
CN(CCO)C(=O)Cc1ccc2cc(C([NH-])=O)n(C(=O)CCl)c2c1 (3D coordinates assigned)
CN(CCO)C(=O)Cc1ccc2cc(C([NH-])=O)n(C(=O)CCl)c2c1 (optimized conformer: 75.07378324442442 kcal/mol)

>  <smiles>  (17) 
CN(CCO)C(=O)Cc1ccc2cc(C(N)=O)n(C(=O)CCl)c2c1

>  <score_type>  (17) 
oracle

>  <origin>  (17) 
adg

>  <m_score__min__energy>  (17) 
-10.289999999999999

>  <m_primary>  (17) 
energy

$$$$
17:0
     RDKit          3D

 42 43  0  0  0  0  0  0  0  0999 V2000
   -3.8580   24.1420  -27.1430 C   0  0  0  0  0  0  0  0  0  0  0  0
   -2.9630   23.4670  -27.8620 C   0  0  0  0  0  0  0  0  0  0  0  0
   -2.4970   23.9370  -29.1750 C   0  0  0  0  0  0  0  0  0  0  0  0
   -1.6870   24.9010  -29.2270 O   0  0  0  0  0  0  0  0  0  0  0  0
   -2.9510   23.3110  -30.3440 O   0  0  0  0  0  0  0  0  0  0  0  0
   -3.9130   22.2940  -30.3980 C   0  0  0  0  0  0  0  0  0  0  0  0
   -3.5980   21.0940  -30.1650 O   0  0  0  0  0  0  0  0  0  0  0  0
   -5.2620   22.6210  -30.7660 N   0  0  0  0  0  0  0  0  0  0  0  0
   -5.9150   23.8090  -30.6090 C   0  0  0  0  0  0  0  0  0  0  0  0
   -5.3130   25.0780  -30.1490 C   0  0  0  0  0  0  0  0  0  0  0  0
   -4.2040   25.6550  -30.8320 N   0  0  0  0  0  0  0  0  0  0  0  0
   -5.8200   25.6890  -29.1700 O   0  0  0  0  0  0  0  0  0  0  0  0
   -7.2360   23.7020  -31.0380 C   0  0  0  0  0  0  0  0  0  0  0  0
   -7.3740   22.4060  -31.4790 C   0  0  0  0  0  0  0  0  0  0  0  0
   -8.4770   21.7580  -32.0260 C   0  0  0  0  0  0  0  0  0  0  0  0
   -8.3350   20.4080  -32.3920 C   0  0  0  0  0  0  0  0  0  0  0  0
   -7.1080   19.7320  -32.1860 C   0  0  0  0  0  0  0  0  0  0  0  0
   -6.9460   18.2980  -32.6110 C   0  0  0  0  0  0  0  0  0  0  0  0
   -6.1460   18.2120  -33.9170 C   0  0  0  0  0  0  0  0  0  0  0  0
   -4.7280   17.8980  -33.6380 N   0  0  0  0  0  0  0  0  0  0  0  0
   -4.2460   16.8530  -34.5550 C   0  0  0  0  0  0  0  0  0  0  0  0
   -3.8840   19.0980  -33.7790 C   0  0  0  0  0  0  0  0  0  0  0  0
   -6.0090   20.4230  -31.6310 C   0  0  0  0  0  0  0  0  0  0  0  0
   -6.1700   21.7740  -31.3020 C   0  0  0  0  0  0  0  0  0  0  0  0
   -4.1811   23.7567  -26.1647 H   0  0  0  0  0  0  0  0  0  0  0  0
   -4.2741   25.0849  -27.5275 H   0  0  0  0  0  0  0  0  0  0  0  0
   -2.5588   22.5262  -27.4601 H   0  0  0  0  0  0  0  0  0  0  0  0
   -3.2320   25.3130  -30.6600 H   0  0  0  0  0  0  0  0  0  0  0  0
   -8.0060   24.4875  -31.0266 H   0  0  0  0  0  0  0  0  0  0  0  0
   -9.4315   22.2861  -32.1679 H   0  0  0  0  0  0  0  0  0  0  0  0
   -9.1840   19.8726  -32.8420 H   0  0  0  0  0  0  0  0  0  0  0  0
   -6.4136   17.7449  -31.8232 H   0  0  0  0  0  0  0  0  0  0  0  0
   -7.9420   17.8606  -32.7744 H   0  0  0  0  0  0  0  0  0  0  0  0
   -6.5734   17.4216  -34.5516 H   0  0  0  0  0  0  0  0  0  0  0  0
   -6.2001   19.1830  -34.4311 H   0  0  0  0  0  0  0  0  0  0  0  0
   -3.8552   16.0057  -33.9724 H   0  0  0  0  0  0  0  0  0  0  0  0
   -5.0768   16.5099  -35.1890 H   0  0  0  0  0  0  0  0  0  0  0  0
   -3.4457   17.2622  -35.1890 H   0  0  0  0  0  0  0  0  0  0  0  0
   -3.6170   19.4777  -32.7817 H   0  0  0  0  0  0  0  0  0  0  0  0
   -2.9679   18.8393  -34.3302 H   0  0  0  0  0  0  0  0  0  0  0  0
   -4.4372   19.8727  -34.3302 H   0  0  0  0  0  0  0  0  0  0  0  0
   -5.0497   19.9122  -31.4613 H   0  0  0  0  0  0  0  0  0  0  0  0
  1  2  2  0
  2  3  1  0
  3  4  2  0
  3  5  1  0
  5  6  1  0
  6  7  2  0
  6  8  1  0
  8  9  1  0
  9 10  1  0
 10 11  1  0
 10 12  2  0
  9 13  2  0
 13 14  1  0
 14 15  2  0
 15 16  1  0
 16 17  2  0
 17 18  1  0
 18 19  1  0
 19 20  1  0
 20 21  1  0
 20 22  1  0
 17 23  1  0
 23 24  2  0
 24  8  1  0
 24 14  1  0
  1 25  1  0
  1 26  1  0
  2 27  1  0
 11 28  1  0
 13 29  1  0
 15 30  1  0
 16 31  1  0
 18 32  1  0
 18 33  1  0
 19 34  1  0
 19 35  1  0
 21 36  1  0
 21 37  1  0
 21 38  1  0
 22 39  1  0
 22 40  1  0
 22 41  1  0
 23 42  1  0
M  CHG  1  11  -1
M  END
>  <UniqueID>  (18) 
18

>  <SMILES>  (18) 
C=CC(=O)OC(=O)n1c(C([NH-])=O)cc2ccc(CCN(C)C)cc21

>  <Energy>  (18) 
77.10734202012911

>  <Genealogy>  (18) 
C=CC(=O)OC(=O)n1c(C([NH-])=O)cc2ccc(CCN(C)C)cc21 (protonated)
C=CC(=O)OC(=O)n1c(C([NH-])=O)cc2ccc(CCN(C)C)cc21 (3D coordinates assigned)
C=CC(=O)OC(=O)n1c(C([NH-])=O)cc2ccc(CCN(C)C)cc21 (optimized conformer: 77.10734202012911 kcal/mol)

>  <smiles>  (18) 
C=CC(=O)OC(=O)n1c(C(N)=O)cc2ccc(CCN(C)C)cc21

>  <score_type>  (18) 
oracle

>  <origin>  (18) 
adg

>  <m_score__min__energy>  (18) 
-10.18

>  <m_primary>  (18) 
energy

$$$$
18:0
     RDKit          3D

 43 44  0  0  0  0  0  0  0  0999 V2000
   -6.8210   23.7270  -31.3280 C   0  0  0  0  0  0  0  0  0  0  0  0
   -6.3920   23.0850  -30.0130 C   0  0  0  0  0  0  0  0  0  0  0  0
   -5.2060   23.7030  -29.5190 O   0  0  0  0  0  0  0  0  0  0  0  0
   -4.1690   24.1460  -30.3450 C   0  0  0  0  0  0  0  0  0  0  0  0
   -4.2080   25.2970  -30.8610 O   0  0  0  0  0  0  0  0  0  0  0  0
   -3.0710   23.2690  -30.6400 N   0  0  0  0  0  0  0  0  0  0  0  0
   -1.8240   23.2800  -30.0930 C   0  0  0  0  0  0  0  0  0  0  0  0
   -1.2720   24.3330  -29.2140 C   0  0  0  0  0  0  0  0  0  0  0  0
   -1.9920   25.5400  -28.9740 N   0  0  0  0  0  0  0  0  0  0  0  0
   -0.1310   24.1840  -28.7010 O   0  0  0  0  0  0  0  0  0  0  0  0
   -1.0920   22.1740  -30.5220 C   0  0  0  0  0  0  0  0  0  0  0  0
   -1.9380   21.4790  -31.3570 C   0  0  0  0  0  0  0  0  0  0  0  0
   -1.7480   20.2730  -32.0250 C   0  0  0  0  0  0  0  0  0  0  0  0
   -2.8250   19.7510  -32.7620 C   0  0  0  0  0  0  0  0  0  0  0  0
   -4.0610   20.4400  -32.8210 C   0  0  0  0  0  0  0  0  0  0  0  0
   -5.2300   19.8500  -33.5610 C   0  0  0  0  0  0  0  0  0  0  0  0
   -6.4000   19.7110  -32.6380 C   0  0  0  0  0  0  0  0  0  0  0  0
   -6.2130   19.3470  -31.4470 O   0  0  0  0  0  0  0  0  0  0  0  0
   -7.7080   20.0680  -33.1040 N   0  0  0  0  0  0  0  0  0  0  0  0
   -8.9580   19.9400  -32.3540 C   0  0  0  0  0  0  0  0  0  0  0  0
   -9.0650   18.5700  -31.6790 C   0  0  0  0  0  0  0  0  0  0  0  0
   -9.1090   21.0850  -31.3490 C   0  0  0  0  0  0  0  0  0  0  0  0
   -4.2130   21.6660  -32.1340 C   0  0  0  0  0  0  0  0  0  0  0  0
   -3.1240   22.1640  -31.4130 C   0  0  0  0  0  0  0  0  0  0  0  0
   -7.4210   24.6249  -31.1191 H   0  0  0  0  0  0  0  0  0  0  0  0
   -5.9289   24.0086  -31.9068 H   0  0  0  0  0  0  0  0  0  0  0  0
   -7.4225   23.0106  -31.9068 H   0  0  0  0  0  0  0  0  0  0  0  0
   -7.1971   23.2033  -29.2728 H   0  0  0  0  0  0  0  0  0  0  0  0
   -6.1908   22.0177  -30.1872 H   0  0  0  0  0  0  0  0  0  0  0  0
   -2.9650   25.6640  -29.3300 H   0  0  0  0  0  0  0  0  0  0  0  0
   -0.0585   21.9122  -30.2511 H   0  0  0  0  0  0  0  0  0  0  0  0
   -0.7845   19.7445  -31.9777 H   0  0  0  0  0  0  0  0  0  0  0  0
   -2.7067   18.7979  -33.2983 H   0  0  0  0  0  0  0  0  0  0  0  0
   -5.5022   20.5097  -34.3981 H   0  0  0  0  0  0  0  0  0  0  0  0
   -4.9518   18.8574  -33.9449 H   0  0  0  0  0  0  0  0  0  0  0  0
   -9.7931   20.0124  -33.0663 H   0  0  0  0  0  0  0  0  0  0  0  0
   -9.0550   18.6977  -30.5865 H   0  0  0  0  0  0  0  0  0  0  0  0
  -10.0038   18.0839  -31.9828 H   0  0  0  0  0  0  0  0  0  0  0  0
   -8.2130   17.9440  -31.9828 H   0  0  0  0  0  0  0  0  0  0  0  0
   -9.0562   20.6843  -30.3260 H   0  0  0  0  0  0  0  0  0  0  0  0
   -8.2992   21.8141  -31.4995 H   0  0  0  0  0  0  0  0  0  0  0  0
  -10.0801   21.5793  -31.4995 H   0  0  0  0  0  0  0  0  0  0  0  0
   -5.1656   22.2151  -32.1660 H   0  0  0  0  0  0  0  0  0  0  0  0
  1  2  1  0
  2  3  1  0
  3  4  1  0
  4  5  2  0
  4  6  1  0
  6  7  1  0
  7  8  1  0
  8  9  1  0
  8 10  2  0
  7 11  2  0
 11 12  1  0
 12 13  2  0
 13 14  1  0
 14 15  2  0
 15 16  1  0
 16 17  1  0
 17 18  2  0
 17 19  1  0
 19 20  1  0
 20 21  1  0
 20 22  1  0
 15 23  1  0
 23 24  2  0
 24  6  1  0
 24 12  1  0
  1 25  1  0
  1 26  1  0
  1 27  1  0
  2 28  1  0
  2 29  1  0
  9 30  1  0
 11 31  1  0
 13 32  1  0
 14 33  1  0
 16 34  1  0
 16 35  1  0
 20 36  1  0
 21 37  1  0
 21 38  1  0
 21 39  1  0
 22 40  1  0
 22 41  1  0
 22 42  1  0
 23 43  1  0
M  CHG  2   9  -1  19  -1
M  END
>  <UniqueID>  (19) 
19

>  <SMILES>  (19) 
CCOC(=O)n1c(C([NH-])=O)cc2ccc(CC(=O)[N-]C(C)C)cc21

>  <Energy>  (19) 
70.59659798888909

>  <Genealogy>  (19) 
CCOC(=O)n1c(C([NH-])=O)cc2ccc(CC(=O)[N-]C(C)C)cc21 (protonated)
CCOC(=O)n1c(C([NH-])=O)cc2ccc(CC(=O)[N-]C(C)C)cc21 (3D coordinates assigned)
CCOC(=O)n1c(C([NH-])=O)cc2ccc(CC(=O)[N-]C(C)C)cc21 (optimized conformer: 70.59659798888909 kcal/mol)

>  <smiles>  (19) 
CCOC(=O)n1c(C(N)=O)cc2ccc(CC(=O)NC(C)C)cc21

>  <score_type>  (19) 
oracle

>  <origin>  (19) 
adg

>  <m_score__min__energy>  (19) 
-10.289999999999999

>  <m_primary>  (19) 
energy

$$$$
19:0
     RDKit          3D

 37 39  0  0  0  0  0  0  0  0999 V2000
   -3.8880   25.6430  -30.8430 N   0  0  0  0  0  0  0  0  0  0  0  0
   -5.2240   25.3430  -30.4530 C   0  0  0  0  0  0  0  0  0  0  0  0
   -5.8670   26.1760  -29.7590 O   0  0  0  0  0  0  0  0  0  0  0  0
   -5.8460   24.0470  -30.7990 C   0  0  0  0  0  0  0  0  0  0  0  0
   -7.2240   23.8430  -30.8230 C   0  0  0  0  0  0  0  0  0  0  0  0
   -7.3900   22.5050  -31.0970 C   0  0  0  0  0  0  0  0  0  0  0  0
   -8.5550   21.7600  -31.2460 C   0  0  0  0  0  0  0  0  0  0  0  0
   -8.4310   20.3960  -31.5550 C   0  0  0  0  0  0  0  0  0  0  0  0
   -7.1520   19.8060  -31.7170 C   0  0  0  0  0  0  0  0  0  0  0  0
   -7.0260   18.3390  -32.0410 C   0  0  0  0  0  0  0  0  0  0  0  0
   -6.7880   18.0960  -33.5410 C   0  0  0  0  0  0  0  0  0  0  0  0
   -5.9110   19.1690  -34.2070 C   0  0  0  0  0  0  0  0  0  0  0  0
   -4.4500   18.8940  -34.0190 C   0  0  0  0  0  0  0  0  0  0  0  0
   -3.5800   19.7700  -33.4710 N   0  0  0  0  0  0  0  0  0  0  0  0
   -2.3110   19.2850  -33.4240 C   0  0  0  0  0  0  0  0  0  0  0  0
   -2.1580   18.0030  -33.9410 C   0  0  0  0  0  0  0  0  0  0  0  0
   -3.6670   17.4740  -34.4680 S   0  0  0  0  0  0  0  0  0  0  0  0
   -5.9910   20.5950  -31.5620 C   0  0  0  0  0  0  0  0  0  0  0  0
   -6.1440   21.9480  -31.2340 C   0  0  0  0  0  0  0  0  0  0  0  0
   -5.1840   22.8830  -31.0570 N   0  0  0  0  0  0  0  0  0  0  0  0
   -3.7690   22.6850  -31.2050 C   0  0  0  0  0  0  0  0  0  0  0  0
   -2.9720   23.1250  -30.3350 O   0  0  0  0  0  0  0  0  0  0  0  0
   -3.2650   22.0320  -32.3220 O   0  0  0  0  0  0  0  0  0  0  0  0
   -3.0750   25.2950  -30.2880 H   0  0  0  0  0  0  0  0  0  0  0  0
   -8.0120   24.5926  -30.6579 H   0  0  0  0  0  0  0  0  0  0  0  0
   -9.5443   22.2256  -31.1253 H   0  0  0  0  0  0  0  0  0  0  0  0
   -9.3344   19.7795  -31.6725 H   0  0  0  0  0  0  0  0  0  0  0  0
   -6.1795   17.9223  -31.4755 H   0  0  0  0  0  0  0  0  0  0  0  0
   -7.9710   17.8486  -31.7642 H   0  0  0  0  0  0  0  0  0  0  0  0
   -6.2949   17.1201  -33.6612 H   0  0  0  0  0  0  0  0  0  0  0  0
   -7.7710   18.1316  -34.0334 H   0  0  0  0  0  0  0  0  0  0  0  0
   -6.1328   19.1909  -35.2842 H   0  0  0  0  0  0  0  0  0  0  0  0
   -6.1388   20.1360  -33.7348 H   0  0  0  0  0  0  0  0  0  0  0  0
   -3.8470   20.7170  -33.1210 H   0  0  0  0  0  0  0  0  0  0  0  0
   -1.4708   19.8614  -33.0095 H   0  0  0  0  0  0  0  0  0  0  0  0
   -1.2175   17.4351  -33.9959 H   0  0  0  0  0  0  0  0  0  0  0  0
   -4.9907   20.1575  -31.6957 H   0  0  0  0  0  0  0  0  0  0  0  0
  1  2  1  0
  2  3  2  0
  2  4  1  0
  4  5  2  0
  5  6  1  0
  6  7  2  0
  7  8  1  0
  8  9  2  0
  9 10  1  0
 10 11  1  0
 11 12  1  0
 12 13  1  0
 13 14  2  0
 14 15  1  0
 15 16  2  0
 16 17  1  0
  9 18  1  0
 18 19  2  0
 19 20  1  0
 20 21  1  0
 21 22  2  0
 21 23  1  0
 20  4  1  0
 19  6  1  0
 17 13  1  0
  1 24  1  0
  5 25  1  0
  7 26  1  0
  8 27  1  0
 10 28  1  0
 10 29  1  0
 11 30  1  0
 11 31  1  0
 12 32  1  0
 12 33  1  0
 14 34  1  0
 15 35  1  0
 16 36  1  0
 18 37  1  0
M  CHG  3   1  -1  14   1  23  -1
M  END
>  <UniqueID>  (20) 
20

>  <SMILES>  (20) 
[NH-]C(=O)c1cc2ccc(CCCc3[nH+]ccs3)cc2n1C(=O)[O-]

>  <Energy>  (20) 
102.75199789339804

>  <Genealogy>  (20) 
[NH-]C(=O)c1cc2ccc(CCCc3[nH+]ccs3)cc2n1C(=O)[O-] (protonated)
[NH-]C(=O)c1cc2ccc(CCCc3[nH+]ccs3)cc2n1C(=O)[O-] (3D coordinates assigned)
[NH-]C(=O)c1cc2ccc(CCCc3[nH+]ccs3)cc2n1C(=O)[O-] (optimized conformer: 102.75199789339804 kcal/mol)

>  <smiles>  (20) 
NC(=O)c1cc2ccc(CCCc3nccs3)cc2n1C(=O)O

>  <score_type>  (20) 
oracle

>  <origin>  (20) 
adg

>  <m_score__min__energy>  (20) 
-11.220000000000001

>  <m_primary>  (20) 
energy

$$$$
20:0
     RDKit          3D

 66 69  0  0  0  0  0  0  0  0999 V2000
   -5.8030   23.3090  -32.2640 C   0  0  0  0  0  0  0  0  0  0  0  0
   -6.4670   22.7910  -30.9890 C   0  0  0  0  0  0  0  0  0  0  0  0
   -5.6120   23.1280  -29.7640 C   0  0  0  0  0  0  0  0  0  0  0  0
   -6.6340   21.3780  -31.1000 O   0  0  0  0  0  0  0  0  0  0  0  0
   -7.8680   20.7600  -31.3370 C   0  0  0  0  0  0  0  0  0  0  0  0
   -8.9430   21.4040  -31.1810 O   0  0  0  0  0  0  0  0  0  0  0  0
   -7.9000   19.3430  -31.8570 C   0  0  2  0  0  0  0  0  0  0  0  0
   -9.0880   18.5300  -31.3140 C   0  0  0  0  0  0  0  0  0  0  0  0
   -6.6060   18.6570  -31.6720 N   0  0  0  0  0  0  0  0  0  0  0  0
   -6.0670   17.6810  -33.0490 P   0  0  1  0  0  0  0  0  0  0  0  0
   -7.1860   16.7210  -33.3950 O   0  0  0  0  0  0  0  0  0  0  0  0
   -5.7230   18.6460  -34.4140 O   0  0  0  0  0  0  0  0  0  0  0  0
   -5.6000   19.9840  -34.0010 C   0  0  0  0  0  0  0  0  0  0  0  0
   -4.2950   20.1580  -33.3810 N   0  0  0  0  0  0  0  0  0  0  0  0
   -3.1520   20.1120  -34.0480 N   0  0  0  0  0  0  0  0  0  0  0  0
   -2.1890   20.4280  -33.1630 C   0  0  0  0  0  0  0  0  0  0  0  0
   -2.8040   20.6790  -31.9470 C   0  0  0  0  0  0  0  0  0  0  0  0
   -2.1690   21.0860  -30.6730 C   0  0  0  0  0  0  0  0  0  0  0  0
   -1.5860   20.1030  -29.8320 C   0  0  0  0  0  0  0  0  0  0  0  0
   -0.9960   20.4600  -28.6100 C   0  0  0  0  0  0  0  0  0  0  0  0
   -0.9960   21.8030  -28.2520 C   0  0  0  0  0  0  0  0  0  0  0  0
   -0.5250   22.4120  -27.1130 C   0  0  0  0  0  0  0  0  0  0  0  0
   -0.8080   23.7670  -27.2740 C   0  0  0  0  0  0  0  0  0  0  0  0
   -0.4090   24.8150  -26.3090 C   0  0  0  0  0  0  0  0  0  0  0  0
   -1.1310   26.0450  -26.2280 N   0  0  0  0  0  0  0  0  0  0  0  0
    0.5640   24.6220  -25.5320 O   0  0  0  0  0  0  0  0  0  0  0  0
   -1.4310   23.9850  -28.4690 N   0  0  0  0  0  0  0  0  0  0  0  0
   -1.9460   25.2280  -28.9750 C   0  0  0  0  0  0  0  0  0  0  0  0
   -3.0910   25.2770  -29.4990 O   0  0  0  0  0  0  0  0  0  0  0  0
   -1.1800   26.3850  -28.9090 O   0  0  0  0  0  0  0  0  0  0  0  0
   -1.5380   22.7720  -29.0560 C   0  0  0  0  0  0  0  0  0  0  0  0
   -2.1490   22.4440  -30.2720 C   0  0  0  0  0  0  0  0  0  0  0  0
   -4.1300   20.5100  -32.1150 N   0  0  0  0  0  0  0  0  0  0  0  0
   -4.6930   16.7560  -32.5700 O   0  0  0  0  0  0  0  0  0  0  0  0
   -3.5130   16.6700  -33.3200 C   0  0  0  0  0  0  0  0  0  0  0  0
   -2.3080   17.0690  -32.7230 C   0  0  0  0  0  0  0  0  0  0  0  0
   -1.1070   17.0140  -33.4410 C   0  0  0  0  0  0  0  0  0  0  0  0
   -1.1020   16.5390  -34.7570 C   0  0  0  0  0  0  0  0  0  0  0  0
   -2.2960   16.1160  -35.3530 C   0  0  0  0  0  0  0  0  0  0  0  0
   -3.4970   16.1740  -34.6370 C   0  0  0  0  0  0  0  0  0  0  0  0
   -4.9614   23.9656  -31.9984 H   0  0  0  0  0  0  0  0  0  0  0  0
   -5.4324   22.4590  -32.8557 H   0  0  0  0  0  0  0  0  0  0  0  0
   -6.5373   23.8753  -32.8557 H   0  0  0  0  0  0  0  0  0  0  0  0
   -7.4475   23.2735  -30.8633 H   0  0  0  0  0  0  0  0  0  0  0  0
   -6.1791   22.9045  -28.8483 H   0  0  0  0  0  0  0  0  0  0  0  0
   -4.6920   22.5252  -29.7819 H   0  0  0  0  0  0  0  0  0  0  0  0
   -5.3507   24.1964  -29.7819 H   0  0  0  0  0  0  0  0  0  0  0  0
   -8.0657   19.4149  -32.9421 H   0  0  0  0  0  0  0  0  0  0  0  0
   -9.0691   18.5430  -30.2142 H   0  0  0  0  0  0  0  0  0  0  0  0
  -10.0294   18.9741  -31.6698 H   0  0  0  0  0  0  0  0  0  0  0  0
   -9.0149   17.4917  -31.6698 H   0  0  0  0  0  0  0  0  0  0  0  0
   -5.8630   19.3660  -31.4680 H   0  0  0  0  0  0  0  0  0  0  0  0
   -5.6891   20.6506  -34.8714 H   0  0  0  0  0  0  0  0  0  0  0  0
   -6.3948   20.2309  -33.2817 H   0  0  0  0  0  0  0  0  0  0  0  0
   -1.1094   20.4780  -33.3677 H   0  0  0  0  0  0  0  0  0  0  0  0
   -1.5967   19.0476  -30.1420 H   0  0  0  0  0  0  0  0  0  0  0  0
   -0.5467   19.6994  -27.9546 H   0  0  0  0  0  0  0  0  0  0  0  0
   -0.0298   21.9316  -26.2563 H   0  0  0  0  0  0  0  0  0  0  0  0
   -0.8440   26.7730  -25.5380 H   0  0  0  0  0  0  0  0  0  0  0  0
   -1.9140   26.2610  -26.8830 H   0  0  0  0  0  0  0  0  0  0  0  0
   -2.6032   23.2233  -30.9016 H   0  0  0  0  0  0  0  0  0  0  0  0
   -2.3065   17.4277  -31.6831 H   0  0  0  0  0  0  0  0  0  0  0  0
   -0.1688   17.3438  -32.9710 H   0  0  0  0  0  0  0  0  0  0  0  0
   -0.1599   16.4979  -35.3233 H   0  0  0  0  0  0  0  0  0  0  0  0
   -2.2902   15.7374  -36.3858 H   0  0  0  0  0  0  0  0  0  0  0  0
   -4.4315   15.8308  -35.1050 H   0  0  0  0  0  0  0  0  0  0  0  0
  1  2  1  0
  2  3  1  0
  2  4  1  0
  4  5  1  0
  5  6  2  0
  5  7  1  0
  7  8  1  0
  7  9  1  0
  9 10  1  0
 10 11  2  0
 10 12  1  6
 12 13  1  0
 13 14  1  0
 14 15  1  0
 15 16  2  0
 16 17  1  0
 17 18  1  0
 18 19  2  0
 19 20  1  0
 20 21  2  0
 21 22  1  0
 22 23  2  0
 23 24  1  0
 24 25  1  0
 24 26  2  0
 23 27  1  0
 27 28  1  0
 28 29  2  0
 28 30  1  0
 27 31  1  0
 31 32  2  0
 17 33  2  0
 10 34  1  0
 34 35  1  0
 35 36  2  0
 36 37  1  0
 37 38  2  0
 38 39  1  0
 39 40  2  0
 33 14  1  0
 40 35  1  0
 32 18  1  0
 31 21  1  0
  1 41  1  0
  1 42  1  0
  1 43  1  0
  2 44  1  0
  3 45  1  0
  3 46  1  0
  3 47  1  0
  7 48  1  6
  8 49  1  0
  8 50  1  0
  8 51  1  0
  9 52  1  0
 13 53  1  0
 13 54  1  0
 16 55  1  0
 19 56  1  0
 20 57  1  0
 22 58  1  0
 25 59  1  0
 25 60  1  0
 32 61  1  0
 36 62  1  0
 37 63  1  0
 38 64  1  0
 39 65  1  0
 40 66  1  0
M  CHG  1  30  -1
M  END
>  <UniqueID>  (21) 
21

>  <SMILES>  (21) 
CC(C)OC(=O)[C@H](C)N[P@@](=O)(OCn1ncc(-c2ccc3cc(C(N)=O)n(C(=O)[O-])c3c2)n1)Oc1ccccc1

>  <Energy>  (21) 
137.1754213992178

>  <Genealogy>  (21) 
CC(C)OC(=O)C(C)NP(=O)(OCn1ncc(-c2ccc3cc(C(N)=O)n(C(=O)[O-])c3c2)n1)Oc1ccccc1 (protonated)
CC(C)OC(=O)[C@H](C)N[P@@](=O)(OCn1ncc(-c2ccc3cc(C(N)=O)n(C(=O)[O-])c3c2)n1)Oc1ccccc1 (chirality)
CC(C)OC(=O)[C@H](C)N[P@@](=O)(OCn1ncc(-c2ccc3cc(C(N)=O)n(C(=O)[O-])c3c2)n1)Oc1ccccc1 (3D coordinates assigned)
CC(C)OC(=O)[C@H](C)N[P@@](=O)(OCn1ncc(-c2ccc3cc(C(N)=O)n(C(=O)[O-])c3c2)n1)Oc1ccccc1 (optimized conformer: 137.1754213992178 kcal/mol)

>  <smiles>  (21) 
CC(C)OC(=O)C(C)NP(=O)(OCn1ncc(-c2ccc3cc(C(N)=O)n(C(=O)O)c3c2)n1)Oc1ccccc1

>  <score_type>  (21) 
oracle

>  <origin>  (21) 
adg

>  <m_score__min__energy>  (21) 
-11.109999999999999

>  <m_primary>  (21) 
energy

$$$$
21:0
     RDKit          3D

 52 53  0  0  0  0  0  0  0  0999 V2000
   -1.3759   21.3103  -34.9695 H   0  0  0  0  0  0  0  0  0  0  0  0
   -0.8640   21.1510  -34.0090 C   0  0  0  0  0  0  0  0  0  0  0  0
   -1.5600   21.2400  -32.8680 C   0  0  0  0  0  0  0  0  0  0  0  0
   -1.0474   21.0782  -31.9083 H   0  0  0  0  0  0  0  0  0  0  0  0
   -3.0240   21.5560  -32.8760 C   0  0  0  0  0  0  0  0  0  0  0  0
   -3.2308   22.3530  -32.1466 H   0  0  0  0  0  0  0  0  0  0  0  0
   -3.3206   21.8916  -33.8807 H   0  0  0  0  0  0  0  0  0  0  0  0
   -3.7640   20.3910  -32.5280 O   0  0  0  0  0  0  0  0  0  0  0  0
   -4.1910   19.4540  -33.4730 C   0  0  0  0  0  0  0  0  0  0  0  0
   -3.4750   19.1960  -34.4800 O   0  0  0  0  0  0  0  0  0  0  0  0
   -5.4400   18.7670  -33.2840 N   0  0  0  0  0  0  0  0  0  0  0  0
   -5.6850   17.4320  -33.4150 C   0  0  0  0  0  0  0  0  0  0  0  0
   -4.7310   16.4280  -33.9330 C   0  0  0  0  0  0  0  0  0  0  0  0
   -4.5490   15.3480  -33.3110 O   0  0  0  0  0  0  0  0  0  0  0  0
   -3.9810   16.6800  -35.1220 N   0  0  0  0  0  0  0  0  0  0  0  0
   -4.1440   17.5380  -35.6950 H   0  0  0  0  0  0  0  0  0  0  0  0
   -3.2810   15.9820  -35.4580 H   0  0  0  0  0  0  0  0  0  0  0  0
   -7.0050   17.1440  -33.0720 C   0  0  0  0  0  0  0  0  0  0  0  0
   -7.4946   16.1590  -33.0756 H   0  0  0  0  0  0  0  0  0  0  0  0
   -7.5660   18.3520  -32.7280 C   0  0  0  0  0  0  0  0  0  0  0  0
   -8.8480   18.6420  -32.2740 C   0  0  0  0  0  0  0  0  0  0  0  0
   -9.6110   17.8543  -32.1878 H   0  0  0  0  0  0  0  0  0  0  0  0
   -9.1380   19.9720  -31.9290 C   0  0  0  0  0  0  0  0  0  0  0  0
  -10.1433   20.2344  -31.5677 H   0  0  0  0  0  0  0  0  0  0  0  0
   -8.1470   20.9800  -32.0420 C   0  0  0  0  0  0  0  0  0  0  0  0
   -8.4360   22.3820  -31.5710 C   0  0  0  0  0  0  0  0  0  0  0  0
   -9.4459   22.6647  -31.9028 H   0  0  0  0  0  0  0  0  0  0  0  0
   -8.3542   22.3901  -30.4741 H   0  0  0  0  0  0  0  0  0  0  0  0
   -7.4300   23.4070  -32.1230 C   0  0  0  0  0  0  0  0  0  0  0  0
   -6.8084   22.9102  -32.8825 H   0  0  0  0  0  0  0  0  0  0  0  0
   -8.0143   24.2401  -32.5408 H   0  0  0  0  0  0  0  0  0  0  0  0
   -6.5000   24.0020  -31.0440 C   0  0  0  0  0  0  0  0  0  0  0  0
   -6.6354   25.0934  -31.0234 H   0  0  0  0  0  0  0  0  0  0  0  0
   -6.7683   23.5449  -30.0801 H   0  0  0  0  0  0  0  0  0  0  0  0
   -5.0230   23.6940  -31.3130 C   0  0  0  0  0  0  0  0  0  0  0  0
   -4.7396   22.7677  -30.7918 H   0  0  0  0  0  0  0  0  0  0  0  0
   -4.8632   23.5665  -32.3938 H   0  0  0  0  0  0  0  0  0  0  0  0
   -4.2340   24.7600  -30.8410 O   0  0  0  0  0  0  0  0  0  0  0  0
   -3.1950   24.1770  -29.6340 S   0  0  0  0  0  0  0  0  0  0  0  0
   -2.4670   22.9520  -30.1140 O   0  0  0  0  0  0  0  0  0  0  0  0
   -2.1860   25.2450  -29.3210 O   0  0  0  0  0  0  0  0  0  0  0  0
   -4.0950   23.7950  -28.1430 C   0  0  0  0  0  0  0  0  0  0  0  0
   -3.4818   24.0553  -27.2677 H   0  0  0  0  0  0  0  0  0  0  0  0
   -5.0302   24.3738  -28.1207 H   0  0  0  0  0  0  0  0  0  0  0  0
   -4.3283   22.7203  -28.1207 H   0  0  0  0  0  0  0  0  0  0  0  0
   -6.8590   20.6480  -32.5180 C   0  0  0  0  0  0  0  0  0  0  0  0
   -6.0782   21.4168  -32.6144 H   0  0  0  0  0  0  0  0  0  0  0  0
   -6.6010   19.3160  -32.8640 C   0  0  0  0  0  0  0  0  0  0  0  0
    0.6000   20.8380  -33.9970 C   0  0  0  0  0  0  0  0  0  0  0  0
    0.9504   20.7631  -32.9570 H   0  0  0  0  0  0  0  0  0  0  0  0
    0.7748   19.8822  -34.5126 H   0  0  0  0  0  0  0  0  0  0  0  0
    1.1504   21.6388  -34.5126 H   0  0  0  0  0  0  0  0  0  0  0  0
  1  2  1  0
  2  3  2  0
  3  4  1  0
  3  5  1  0
  5  6  1  0
  5  7  1  0
  5  8  1  0
  8  9  1  0
  9 10  2  0
  9 11  1  0
 11 12  1  0
 12 13  1  0
 13 14  2  0
 13 15  1  0
 15 16  1  0
 15 17  1  0
 12 18  2  0
 18 19  1  0
 18 20  1  0
 20 21  2  0
 21 22  1  0
 21 23  1  0
 23 24  1  0
 23 25  2  0
 25 26  1  0
 26 27  1  0
 26 28  1  0
 26 29  1  0
 29 30  1  0
 29 31  1  0
 29 32  1  0
 32 33  1  0
 32 34  1  0
 32 35  1  0
 35 36  1  0
 35 37  1  0
 35 38  1  0
 38 39  1  0
 39 40  2  0
 39 41  2  0
 39 42  1  0
 42 43  1  0
 42 44  1  0
 42 45  1  0
 25 46  1  0
 46 47  1  0
 46 48  2  0
  2 49  1  0
 49 50  1  0
 49 51  1  0
 49 52  1  0
 48 11  1  0
 48 20  1  0
M  END
>  <UniqueID>  (22) 
22

>  <SMILES>  (22) 
C/C=C/COC(=O)n1c(C(N)=O)cc2ccc(CCCCOS(C)(=O)=O)cc21

>  <Energy>  (22) 
72.77466397746109

>  <Genealogy>  (22) 
C/C=C/COC(=O)n1c(C(N)=O)cc2ccc(CCCCOS(C)(=O)=O)cc21 (cis-trans isomerization)
C/C=C/COC(=O)n1c(C(N)=O)cc2ccc(CCCCOS(C)(=O)=O)cc21 (3D coordinates assigned)
C/C=C/COC(=O)n1c(C(N)=O)cc2ccc(CCCCOS(C)(=O)=O)cc21 (optimized conformer: 72.77466397746109 kcal/mol)

>  <smiles>  (22) 
C/C=C/COC(=O)n1c(C(N)=O)cc2ccc(CCCCOS(C)(=O)=O)cc21

>  <score_type>  (22) 
oracle

>  <origin>  (22) 
adg

>  <m_score__min__energy>  (22) 
-9.0299999999999994

>  <m_primary>  (22) 
energy

$$$$
22:0
     RDKit          3D

 43 44  0  0  0  0  0  0  0  0999 V2000
   -3.3920   24.5380  -31.2220 H   0  0  0  0  0  0  0  0  0  0  0  0
   -3.8630   25.2790  -30.6570 N   0  0  0  0  0  0  0  0  0  0  0  0
   -5.2770   25.2770  -30.4790 C   0  0  0  0  0  0  0  0  0  0  0  0
   -5.8490   26.3270  -30.0820 O   0  0  0  0  0  0  0  0  0  0  0  0
   -6.0850   24.0840  -30.8080 C   0  0  0  0  0  0  0  0  0  0  0  0
   -7.4670   24.1230  -30.9840 C   0  0  0  0  0  0  0  0  0  0  0  0
   -8.1327   24.9874  -30.8440 H   0  0  0  0  0  0  0  0  0  0  0  0
   -7.8220   22.8510  -31.3700 C   0  0  0  0  0  0  0  0  0  0  0  0
   -9.0750   22.3240  -31.6670 C   0  0  0  0  0  0  0  0  0  0  0  0
   -9.9769   22.9529  -31.6335 H   0  0  0  0  0  0  0  0  0  0  0  0
   -9.1530   20.9640  -32.0110 C   0  0  0  0  0  0  0  0  0  0  0  0
  -10.1293   20.5176  -32.2507 H   0  0  0  0  0  0  0  0  0  0  0  0
   -7.9850   20.1620  -32.0520 C   0  0  0  0  0  0  0  0  0  0  0  0
   -8.0870   18.6970  -32.3760 C   0  0  0  0  0  0  0  0  0  0  0  0
   -8.1598   18.5725  -33.4665 H   0  0  0  0  0  0  0  0  0  0  0  0
   -8.9819   18.2875  -31.8847 H   0  0  0  0  0  0  0  0  0  0  0  0
   -6.8610   17.9460  -31.8670 C   0  0  0  0  0  0  0  0  0  0  0  0
   -6.8614   17.9462  -30.7670 H   0  0  0  0  0  0  0  0  0  0  0  0
   -6.8878   16.9092  -32.2334 H   0  0  0  0  0  0  0  0  0  0  0  0
   -5.9495   18.4409  -32.2334 H   0  0  0  0  0  0  0  0  0  0  0  0
   -6.7320   20.7300  -31.7320 C   0  0  0  0  0  0  0  0  0  0  0  0
   -5.8184   20.1173  -31.7351 H   0  0  0  0  0  0  0  0  0  0  0  0
   -6.6810   22.0910  -31.4110 C   0  0  0  0  0  0  0  0  0  0  0  0
   -5.6060   22.8330  -31.0620 N   0  0  0  0  0  0  0  0  0  0  0  0
   -4.2550   22.3610  -30.9350 C   0  0  0  0  0  0  0  0  0  0  0  0
   -3.5180   22.8020  -30.0110 O   0  0  0  0  0  0  0  0  0  0  0  0
   -3.7700   21.3980  -31.8260 O   0  0  0  0  0  0  0  0  0  0  0  0
   -2.5510   21.5420  -32.5500 C   0  0  0  0  0  0  0  0  0  0  0  0
   -2.3858   20.6411  -33.1592 H   0  0  0  0  0  0  0  0  0  0  0  0
   -2.6275   22.4323  -33.1916 H   0  0  0  0  0  0  0  0  0  0  0  0
   -1.3660   21.7270  -31.5980 C   0  0  0  0  0  0  0  0  0  0  0  0
   -0.4775   21.2419  -32.0284 H   0  0  0  0  0  0  0  0  0  0  0  0
   -1.1843   22.8035  -31.4632 H   0  0  0  0  0  0  0  0  0  0  0  0
   -1.6480   21.1450  -30.3250 O   0  0  0  0  0  0  0  0  0  0  0  0
   -0.8320   21.3030  -29.2000 C   0  0  0  0  0  0  0  0  0  0  0  0
   -0.4100   20.2980  -28.5640 O   0  0  0  0  0  0  0  0  0  0  0  0
   -0.4620   22.6640  -28.7790 C   0  0  0  0  0  0  0  0  0  0  0  0
    0.4817   22.8123  -28.2337 H   0  0  0  0  0  0  0  0  0  0  0  0
   -1.2330   23.7280  -29.0360 C   0  0  0  0  0  0  0  0  0  0  0  0
   -2.1795   23.5829  -29.5774 H   0  0  0  0  0  0  0  0  0  0  0  0
   -0.8520   25.0850  -28.6160 C   0  0  0  0  0  0  0  0  0  0  0  0
   -1.5850   26.0600  -28.9270 O   0  0  0  0  0  0  0  0  0  0  0  0
    0.3040   25.3090  -27.8790 O   0  0  0  0  0  0  0  0  0  0  0  0
  1  2  1  0
  2  3  1  0
  3  4  2  0
  3  5  1  0
  5  6  2  0
  6  7  1  0
  6  8  1  0
  8  9  2  0
  9 10  1  0
  9 11  1  0
 11 12  1  0
 11 13  2  0
 13 14  1  0
 14 15  1  0
 14 16  1  0
 14 17  1  0
 17 18  1  0
 17 19  1  0
 17 20  1  0
 13 21  1  0
 21 22  1  0
 21 23  2  0
 23 24  1  0
 24 25  1  0
 25 26  2  0
 25 27  1  0
 27 28  1  0
 28 29  1  0
 28 30  1  0
 28 31  1  0
 31 32  1  0
 31 33  1  0
 31 34  1  0
 34 35  1  0
 35 36  2  0
 35 37  1  0
 37 38  1  0
 37 39  2  0
 39 40  1  0
 39 41  1  0
 41 42  2  0
 41 43  1  0
 24  5  1  0
 23  8  1  0
M  CHG  2   2  -1  43  -1
M  END
>  <UniqueID>  (23) 
23

>  <SMILES>  (23) 
CCc1ccc2cc(C([NH-])=O)n(C(=O)OCCOC(=O)/C=C/C(=O)[O-])c2c1

>  <Energy>  (23) 
71.6145571404187

>  <Genealogy>  (23) 
CCc1ccc2cc(C([NH-])=O)n(C(=O)OCCOC(=O)/C=C/C(=O)[O-])c2c1 (protonated)
CCc1ccc2cc(C([NH-])=O)n(C(=O)OCCOC(=O)/C=C/C(=O)[O-])c2c1 (cis-trans isomerization)
CCc1ccc2cc(C([NH-])=O)n(C(=O)OCCOC(=O)/C=C/C(=O)[O-])c2c1 (3D coordinates assigned)
CCc1ccc2cc(C([NH-])=O)n(C(=O)OCCOC(=O)/C=C/C(=O)[O-])c2c1 (optimized conformer: 71.6145571404187 kcal/mol)

>  <smiles>  (23) 
CCc1ccc2cc(C(N)=O)n(C(=O)OCCOC(=O)/C=C/C(=O)O)c2c1

>  <score_type>  (23) 
oracle

>  <origin>  (23) 
adg

>  <m_score__min__energy>  (23) 
-12.34

>  <m_primary>  (23) 
energy

$$$$
23:0
     RDKit          3D

 42 43  0  0  0  0  0  0  0  0999 V2000
   -1.7290   25.6760  -28.9640 N   0  0  0  0  0  0  0  0  0  0  0  0
   -1.0040   24.4620  -29.1420 C   0  0  0  0  0  0  0  0  0  0  0  0
    0.1090   24.3200  -28.5710 O   0  0  0  0  0  0  0  0  0  0  0  0
   -1.5860   23.3720  -29.9530 C   0  0  0  0  0  0  0  0  0  0  0  0
   -0.8700   22.2430  -30.3440 C   0  0  0  0  0  0  0  0  0  0  0  0
   -1.7270   21.5270  -31.1480 C   0  0  0  0  0  0  0  0  0  0  0  0
   -1.5330   20.3160  -31.8070 C   0  0  0  0  0  0  0  0  0  0  0  0
   -2.6020   19.7950  -32.5530 C   0  0  0  0  0  0  0  0  0  0  0  0
   -3.8430   20.4790  -32.6120 C   0  0  0  0  0  0  0  0  0  0  0  0
   -4.9710   19.9190  -33.4340 C   0  0  0  0  0  0  0  0  0  0  0  0
   -6.2060   19.7710  -32.5870 C   0  0  0  0  0  0  0  0  0  0  0  0
   -6.1540   19.1200  -31.5540 O   0  0  0  0  0  0  0  0  0  0  0  0
   -7.5140   20.3810  -33.0150 C   0  0  0  0  0  0  0  0  0  0  0  0
   -8.6150   20.1960  -31.9590 C   0  0  0  0  0  0  0  0  0  0  0  0
   -9.0580   21.4990  -31.2610 C   0  0  0  0  0  0  0  0  0  0  0  0
   -8.5010   22.7910  -31.8870 C   0  0  0  0  0  0  0  0  0  0  0  0
   -7.3450   23.3970  -31.0810 C   0  0  0  0  0  0  0  0  0  0  0  0
   -6.3920   23.9500  -31.9470 O   0  0  0  0  0  0  0  0  0  0  0  0
   -3.9980   21.7110  -31.9390 C   0  0  0  0  0  0  0  0  0  0  0  0
   -2.9090   22.2170  -31.2190 C   0  0  0  0  0  0  0  0  0  0  0  0
   -2.8410   23.3520  -30.4880 N   0  0  0  0  0  0  0  0  0  0  0  0
   -3.9050   24.2950  -30.2800 C   0  0  0  0  0  0  0  0  0  0  0  0
   -3.8910   25.4090  -30.8660 O   0  0  0  0  0  0  0  0  0  0  0  0
   -4.9460   23.9980  -29.4100 O   0  0  0  0  0  0  0  0  0  0  0  0
   -2.7590   25.7180  -29.1330 H   0  0  0  0  0  0  0  0  0  0  0  0
    0.1618   21.9796  -30.0685 H   0  0  0  0  0  0  0  0  0  0  0  0
   -0.5721   19.7841  -31.7450 H   0  0  0  0  0  0  0  0  0  0  0  0
   -2.4759   18.8473  -33.0969 H   0  0  0  0  0  0  0  0  0  0  0  0
   -5.1838   20.6001  -34.2712 H   0  0  0  0  0  0  0  0  0  0  0  0
   -4.6789   18.9310  -33.8193 H   0  0  0  0  0  0  0  0  0  0  0  0
   -7.3639   21.4573  -33.1851 H   0  0  0  0  0  0  0  0  0  0  0  0
   -7.8391   19.8714  -33.9340 H   0  0  0  0  0  0  0  0  0  0  0  0
   -9.4936   19.7548  -32.4524 H   0  0  0  0  0  0  0  0  0  0  0  0
   -8.1917   19.5500  -31.1758 H   0  0  0  0  0  0  0  0  0  0  0  0
  -10.1564   21.5486  -31.2951 H   0  0  0  0  0  0  0  0  0  0  0  0
   -8.6560   21.4533  -30.2381 H   0  0  0  0  0  0  0  0  0  0  0  0
   -8.1397   22.5621  -32.9004 H   0  0  0  0  0  0  0  0  0  0  0  0
   -9.3165   23.5292  -31.8990 H   0  0  0  0  0  0  0  0  0  0  0  0
   -7.7360   24.1843  -30.4198 H   0  0  0  0  0  0  0  0  0  0  0  0
   -6.8707   22.6061  -30.4815 H   0  0  0  0  0  0  0  0  0  0  0  0
   -5.6880   24.3540  -31.3740 H   0  0  0  0  0  0  0  0  0  0  0  0
   -4.9507   22.2594  -31.9795 H   0  0  0  0  0  0  0  0  0  0  0  0
  1  2  1  0
  2  3  2  0
  2  4  1  0
  4  5  2  0
  5  6  1  0
  6  7  2  0
  7  8  1  0
  8  9  2  0
  9 10  1  0
 10 11  1  0
 11 12  2  0
 11 13  1  0
 13 14  1  0
 14 15  1  0
 15 16  1  0
 16 17  1  0
 17 18  1  0
  9 19  1  0
 19 20  2  0
 20 21  1  0
 21 22  1  0
 22 23  2  0
 22 24  1  0
 21  4  1  0
 20  6  1  0
  1 25  1  0
  5 26  1  0
  7 27  1  0
  8 28  1  0
 10 29  1  0
 10 30  1  0
 13 31  1  0
 13 32  1  0
 14 33  1  0
 14 34  1  0
 15 35  1  0
 15 36  1  0
 16 37  1  0
 16 38  1  0
 17 39  1  0
 17 40  1  0
 18 41  1  0
 19 42  1  0
M  CHG  2   1  -1  24  -1
M  END
>  <UniqueID>  (24) 
24

>  <SMILES>  (24) 
[NH-]C(=O)c1cc2ccc(CC(=O)CCCCCO)cc2n1C(=O)[O-]

>  <Energy>  (24) 
72.07321746723487

>  <Genealogy>  (24) 
[NH-]C(=O)c1cc2ccc(CC(=O)CCCCCO)cc2n1C(=O)[O-] (protonated)
[NH-]C(=O)c1cc2ccc(CC(=O)CCCCCO)cc2n1C(=O)[O-] (3D coordinates assigned)
[NH-]C(=O)c1cc2ccc(CC(=O)CCCCCO)cc2n1C(=O)[O-] (optimized conformer: 72.07321746723487 kcal/mol)

>  <smiles>  (24) 
NC(=O)c1cc2ccc(CC(=O)CCCCCO)cc2n1C(=O)O

>  <score_type>  (24) 
oracle

>  <origin>  (24) 
adg

>  <m_score__min__energy>  (24) 
-11.050000000000001

>  <m_primary>  (24) 
energy

$$$$
24:0
     RDKit          3D

 40 42  0  0  0  0  0  0  0  0999 V2000
   -6.0930   17.8380  -31.1840 C   0  0  0  0  0  0  0  0  0  0  0  0
   -6.8890   18.3020  -32.4140 C   0  0  2  0  0  0  0  0  0  0  0  0
   -7.6070   17.1910  -32.8980 O   0  0  0  0  0  0  0  0  0  0  0  0
   -5.8930   18.8150  -33.4520 C   0  0  0  0  0  0  0  0  0  0  0  0
   -5.2550   18.0030  -34.1090 O   0  0  0  0  0  0  0  0  0  0  0  0
   -5.6560   20.2830  -33.7090 C   0  0  0  0  0  0  0  0  0  0  0  0
   -4.4340   20.7500  -32.9650 C   0  0  0  0  0  0  0  0  0  0  0  0
   -3.2490   19.9740  -32.9980 C   0  0  0  0  0  0  0  0  0  0  0  0
   -2.1110   20.3730  -32.2760 C   0  0  0  0  0  0  0  0  0  0  0  0
   -2.1930   21.5400  -31.5230 C   0  0  0  0  0  0  0  0  0  0  0  0
   -1.2420   22.1600  -30.7460 C   0  0  0  0  0  0  0  0  0  0  0  0
   -1.8680   23.2920  -30.2280 C   0  0  0  0  0  0  0  0  0  0  0  0
   -1.2250   24.2030  -29.2590 C   0  0  0  0  0  0  0  0  0  0  0  0
   -1.8630   25.4120  -28.8550 N   0  0  0  0  0  0  0  0  0  0  0  0
   -0.1210   23.8850  -28.7420 O   0  0  0  0  0  0  0  0  0  0  0  0
   -3.1540   23.3740  -30.6740 N   0  0  0  0  0  0  0  0  0  0  0  0
   -4.0990   24.4310  -30.4420 C   0  0  0  0  0  0  0  0  0  0  0  0
   -3.8680   25.5960  -30.8620 O   0  0  0  0  0  0  0  0  0  0  0  0
   -5.2650   24.1840  -29.7270 O   0  0  0  0  0  0  0  0  0  0  0  0
   -3.3380   22.2920  -31.4640 C   0  0  0  0  0  0  0  0  0  0  0  0
   -4.4780   21.9320  -32.1920 C   0  0  0  0  0  0  0  0  0  0  0  0
   -7.8660   19.4060  -32.0350 C   0  0  0  0  0  0  0  0  0  0  0  0
   -7.5790   20.5070  -31.2270 C   0  0  0  0  0  0  0  0  0  0  0  0
   -8.6220   21.4390  -31.1520 C   0  0  0  0  0  0  0  0  0  0  0  0
   -9.7280   21.1010  -31.9170 C   0  0  0  0  0  0  0  0  0  0  0  0
   -9.4030   19.6460  -32.6900 S   0  0  0  0  0  0  0  0  0  0  0  0
   -6.6202   18.1453  -30.2688 H   0  0  0  0  0  0  0  0  0  0  0  0
   -5.9968   16.7423  -31.2014 H   0  0  0  0  0  0  0  0  0  0  0  0
   -5.0922   18.2942  -31.2014 H   0  0  0  0  0  0  0  0  0  0  0  0
   -7.1370   16.8450  -33.7010 H   0  0  0  0  0  0  0  0  0  0  0  0
   -5.5087   20.4440  -34.7871 H   0  0  0  0  0  0  0  0  0  0  0  0
   -6.5289   20.8541  -33.3599 H   0  0  0  0  0  0  0  0  0  0  0  0
   -3.2193   19.0503  -33.5945 H   0  0  0  0  0  0  0  0  0  0  0  0
   -1.1844   19.7810  -32.3054 H   0  0  0  0  0  0  0  0  0  0  0  0
   -0.2069   21.8317  -30.5708 H   0  0  0  0  0  0  0  0  0  0  0  0
   -2.7990   25.6770  -29.2320 H   0  0  0  0  0  0  0  0  0  0  0  0
   -5.3851   22.5535  -32.1631 H   0  0  0  0  0  0  0  0  0  0  0  0
   -6.6225   20.6314  -30.6981 H   0  0  0  0  0  0  0  0  0  0  0  0
   -8.5687   22.3536  -30.5431 H   0  0  0  0  0  0  0  0  0  0  0  0
  -10.6566   21.6844  -32.0026 H   0  0  0  0  0  0  0  0  0  0  0  0
  1  2  1  0
  2  3  1  6
  2  4  1  0
  4  5  2  0
  4  6  1  0
  6  7  1  0
  7  8  2  0
  8  9  1  0
  9 10  2  0
 10 11  1  0
 11 12  2  0
 12 13  1  0
 13 14  1  0
 13 15  2  0
 12 16  1  0
 16 17  1  0
 17 18  2  0
 17 19  1  0
 16 20  1  0
 20 21  2  0
  2 22  1  0
 22 23  2  0
 23 24  1  0
 24 25  2  0
 25 26  1  0
 21  7  1  0
 26 22  1  0
 20 10  1  0
  1 27  1  0
  1 28  1  0
  1 29  1  0
  3 30  1  0
  6 31  1  0
  6 32  1  0
  8 33  1  0
  9 34  1  0
 11 35  1  0
 14 36  1  0
 21 37  1  0
 23 38  1  0
 24 39  1  0
 25 40  1  0
M  CHG  2  14  -1  19  -1
M  END
>  <UniqueID>  (25) 
25

>  <SMILES>  (25) 
C[C@](O)(C(=O)Cc1ccc2cc(C([NH-])=O)n(C(=O)[O-])c2c1)c1cccs1

>  <Energy>  (25) 
106.71513350838237

>  <Genealogy>  (25) 
C[C@](O)(C(=O)Cc1ccc2cc(C([NH-])=O)n(C(=O)[O-])c2c1)c1cccs1 (protonated)
C[C@](O)(C(=O)Cc1ccc2cc(C([NH-])=O)n(C(=O)[O-])c2c1)c1cccs1 (3D coordinates assigned)
C[C@](O)(C(=O)Cc1ccc2cc(C([NH-])=O)n(C(=O)[O-])c2c1)c1cccs1 (optimized conformer: 106.71513350838237 kcal/mol)

>  <smiles>  (25) 
C[C@](O)(C(=O)Cc1ccc2cc(C(N)=O)n(C(=O)O)c2c1)c1cccs1

>  <score_type>  (25) 
oracle

>  <origin>  (25) 
adg

>  <m_score__min__energy>  (25) 
-12.41

>  <m_primary>  (25) 
energy

$$$$
25:0
     RDKit          3D

 38 39  0  0  0  0  0  0  0  0999 V2000
   -3.4110   23.8510  -27.4950 C   0  0  0  0  0  0  0  0  0  0  0  0
   -2.5200   23.4040  -28.5750 N   0  0  1  0  0  0  0  0  0  0  0  0
   -1.3770   24.2300  -28.5920 C   0  0  0  0  0  0  0  0  0  0  0  0
   -0.4390   24.9090  -28.6060 N   0  0  0  0  0  0  0  0  0  0  0  0
   -2.1310   21.9910  -28.3740 C   0  0  0  0  0  0  0  0  0  0  0  0
   -2.4280   21.1150  -29.6050 C   0  0  0  0  0  0  0  0  0  0  0  0
   -3.7330   21.3710  -30.1220 O   0  0  0  0  0  0  0  0  0  0  0  0
   -4.0360   22.4590  -30.9470 C   0  0  0  0  0  0  0  0  0  0  0  0
   -3.1240   23.0510  -31.5870 O   0  0  0  0  0  0  0  0  0  0  0  0
   -5.3980   22.8870  -31.0860 N   0  0  0  0  0  0  0  0  0  0  0  0
   -5.9160   24.1190  -30.8190 C   0  0  0  0  0  0  0  0  0  0  0  0
   -5.1410   25.3340  -30.4950 C   0  0  0  0  0  0  0  0  0  0  0  0
   -3.7220   25.2890  -30.3760 N   0  0  0  0  0  0  0  0  0  0  0  0
   -5.7350   26.4380  -30.3660 O   0  0  0  0  0  0  0  0  0  0  0  0
   -7.3030   24.1080  -30.9640 C   0  0  0  0  0  0  0  0  0  0  0  0
   -7.6200   22.8220  -31.3360 C   0  0  0  0  0  0  0  0  0  0  0  0
   -8.8600   22.2430  -31.5850 C   0  0  0  0  0  0  0  0  0  0  0  0
   -8.8960   20.8760  -31.9080 C   0  0  0  0  0  0  0  0  0  0  0  0
   -7.7000   20.1150  -31.9850 C   0  0  0  0  0  0  0  0  0  0  0  0
   -7.7580   18.6360  -32.2670 C   0  0  0  0  0  0  0  0  0  0  0  0
   -9.0700   18.1960  -32.3010 F   0  0  0  0  0  0  0  0  0  0  0  0
   -7.1750   18.3500  -33.4900 F   0  0  0  0  0  0  0  0  0  0  0  0
   -7.0790   17.9560  -31.2740 F   0  0  0  0  0  0  0  0  0  0  0  0
   -6.4610   20.7370  -31.7020 C   0  0  0  0  0  0  0  0  0  0  0  0
   -6.4540   22.1050  -31.4020 C   0  0  0  0  0  0  0  0  0  0  0  0
   -2.9521   23.6208  -26.5222 H   0  0  0  0  0  0  0  0  0  0  0  0
   -3.5711   24.9362  -27.5773 H   0  0  0  0  0  0  0  0  0  0  0  0
   -4.3766   23.3306  -27.5773 H   0  0  0  0  0  0  0  0  0  0  0  0
   -3.0250   23.5170  -29.4840 H   0  0  0  0  0  0  0  0  0  0  0  0
   -1.0521   21.9490  -28.1635 H   0  0  0  0  0  0  0  0  0  0  0  0
   -2.7233   21.5982  -27.5344 H   0  0  0  0  0  0  0  0  0  0  0  0
   -1.6845   21.3313  -30.3863 H   0  0  0  0  0  0  0  0  0  0  0  0
   -2.3768   20.0594  -29.2999 H   0  0  0  0  0  0  0  0  0  0  0  0
   -3.1140   25.2040  -31.2210 H   0  0  0  0  0  0  0  0  0  0  0  0
   -7.9961   24.9487  -30.8130 H   0  0  0  0  0  0  0  0  0  0  0  0
   -9.7842   22.8371  -31.5307 H   0  0  0  0  0  0  0  0  0  0  0  0
   -9.8629   20.3894  -32.1036 H   0  0  0  0  0  0  0  0  0  0  0  0
   -5.5249   20.1595  -31.7173 H   0  0  0  0  0  0  0  0  0  0  0  0
  1  2  1  0
  2  3  1  0
  3  4  3  0
  2  5  1  0
  5  6  1  0
  6  7  1  0
  7  8  1  0
  8  9  2  0
  8 10  1  0
 10 11  1  0
 11 12  1  0
 12 13  1  0
 12 14  2  0
 11 15  2  0
 15 16  1  0
 16 17  2  0
 17 18  1  0
 18 19  2  0
 19 20  1  0
 20 21  1  0
 20 22  1  0
 20 23  1  0
 19 24  1  0
 24 25  2  0
 25 10  1  0
 25 16  1  0
  1 26  1  0
  1 27  1  0
  1 28  1  0
  2 29  1  6
  5 30  1  0
  5 31  1  0
  6 32  1  0
  6 33  1  0
 13 34  1  0
 15 35  1  0
 17 36  1  0
 18 37  1  0
 24 38  1  0
M  CHG  2   2   1  13  -1
M  END
>  <UniqueID>  (26) 
26

>  <SMILES>  (26) 
C[N@@H+](C#N)CCOC(=O)n1c(C([NH-])=O)cc2ccc(C(F)(F)F)cc21

>  <Energy>  (26) 
75.13268240539568

>  <Genealogy>  (26) 
C[NH+](C#N)CCOC(=O)n1c(C([NH-])=O)cc2ccc(C(F)(F)F)cc21 (protonated)
C[N@@H+](C#N)CCOC(=O)n1c(C([NH-])=O)cc2ccc(C(F)(F)F)cc21 (chirality)
C[N@@H+](C#N)CCOC(=O)n1c(C([NH-])=O)cc2ccc(C(F)(F)F)cc21 (3D coordinates assigned)
C[N@@H+](C#N)CCOC(=O)n1c(C([NH-])=O)cc2ccc(C(F)(F)F)cc21 (optimized conformer: 75.13268240539568 kcal/mol)

>  <smiles>  (26) 
CN(C#N)CCOC(=O)n1c(C(N)=O)cc2ccc(C(F)(F)F)cc21

>  <score_type>  (26) 
oracle

>  <origin>  (26) 
adg

>  <m_score__min__energy>  (26) 
-9.0700000000000003

>  <m_primary>  (26) 
energy

$$$$
26:0
     RDKit          3D

 48 50  0  0  0  0  0  0  0  0999 V2000
   -3.2410   18.3440  -34.1980 C   0  0  0  0  0  0  0  0  0  0  0  0
   -1.8190   18.8430  -33.8750 C   0  0  0  0  0  0  0  0  0  0  0  0
   -1.4460   18.5070  -32.4190 C   0  0  0  0  0  0  0  0  0  0  0  0
   -0.8240   18.1490  -34.8170 C   0  0  0  0  0  0  0  0  0  0  0  0
   -1.7110   20.2550  -34.1080 O   0  0  0  0  0  0  0  0  0  0  0  0
   -0.9060   21.1560  -33.3930 C   0  0  0  0  0  0  0  0  0  0  0  0
    0.1510   21.6260  -33.8910 O   0  0  0  0  0  0  0  0  0  0  0  0
   -1.3380   21.6130  -32.0350 C   0  0  0  0  0  0  0  0  0  0  0  0
   -2.7590   21.7110  -31.9570 O   0  0  0  0  0  0  0  0  0  0  0  0
   -3.4250   22.5990  -31.1040 C   0  0  0  0  0  0  0  0  0  0  0  0
   -2.7730   23.3110  -30.2910 O   0  0  0  0  0  0  0  0  0  0  0  0
   -4.8540   22.7190  -31.1780 N   0  0  0  0  0  0  0  0  0  0  0  0
   -5.6180   23.8230  -30.9380 C   0  0  0  0  0  0  0  0  0  0  0  0
   -5.1410   25.1120  -30.3950 C   0  0  0  0  0  0  0  0  0  0  0  0
   -3.8960   25.6680  -30.8070 N   0  0  0  0  0  0  0  0  0  0  0  0
   -5.8220   25.7080  -29.5170 O   0  0  0  0  0  0  0  0  0  0  0  0
   -6.9610   23.5540  -31.1980 C   0  0  0  0  0  0  0  0  0  0  0  0
   -6.9970   22.2380  -31.5980 C   0  0  0  0  0  0  0  0  0  0  0  0
   -8.0760   21.4520  -31.9900 C   0  0  0  0  0  0  0  0  0  0  0  0
   -7.8200   20.1290  -32.3830 C   0  0  0  0  0  0  0  0  0  0  0  0
   -6.4970   19.6140  -32.3890 C   0  0  0  0  0  0  0  0  0  0  0  0
   -6.2360   18.2170  -32.8170 C   0  0  0  0  0  0  0  0  0  0  0  0
   -5.7450   17.2590  -31.9160 C   0  0  0  0  0  0  0  0  0  0  0  0
   -5.5140   15.9870  -32.3300 N   0  0  0  0  0  0  0  0  0  0  0  0
   -5.7470   15.6160  -33.6140 C   0  0  0  0  0  0  0  0  0  0  0  0
   -6.2180   16.5220  -34.5090 N   0  0  0  0  0  0  0  0  0  0  0  0
   -6.4670   17.8050  -34.1380 C   0  0  0  0  0  0  0  0  0  0  0  0
   -5.4270   20.4490  -31.9840 C   0  0  0  0  0  0  0  0  0  0  0  0
   -5.7150   21.7560  -31.5780 C   0  0  0  0  0  0  0  0  0  0  0  0
   -3.7844   18.1533  -33.2608 H   0  0  0  0  0  0  0  0  0  0  0  0
   -3.7742   19.1087  -34.7819 H   0  0  0  0  0  0  0  0  0  0  0  0
   -3.1794   17.4138  -34.7819 H   0  0  0  0  0  0  0  0  0  0  0  0
   -2.0857   19.0832  -31.7343 H   0  0  0  0  0  0  0  0  0  0  0  0
   -1.5941   17.4316  -32.2414 H   0  0  0  0  0  0  0  0  0  0  0  0
   -0.3918   18.7662  -32.2414 H   0  0  0  0  0  0  0  0  0  0  0  0
   -0.0648   17.6194  -34.2227 H   0  0  0  0  0  0  0  0  0  0  0  0
   -1.3611   17.4286  -35.4515 H   0  0  0  0  0  0  0  0  0  0  0  0
   -0.3335   18.9019  -35.4515 H   0  0  0  0  0  0  0  0  0  0  0  0
   -0.9853   20.8913  -31.2835 H   0  0  0  0  0  0  0  0  0  0  0  0
   -0.9071   22.6073  -31.8462 H   0  0  0  0  0  0  0  0  0  0  0  0
   -2.9940   25.2910  -30.4420 H   0  0  0  0  0  0  0  0  0  0  0  0
   -7.8107   24.2462  -31.1035 H   0  0  0  0  0  0  0  0  0  0  0  0
   -9.0994   21.8554  -31.9919 H   0  0  0  0  0  0  0  0  0  0  0  0
   -8.6554   19.4828  -32.6904 H   0  0  0  0  0  0  0  0  0  0  0  0
   -5.5468   17.5400  -30.8711 H   0  0  0  0  0  0  0  0  0  0  0  0
   -5.5542   14.5803  -33.9303 H   0  0  0  0  0  0  0  0  0  0  0  0
   -6.8514   18.5239  -34.8766 H   0  0  0  0  0  0  0  0  0  0  0  0
   -4.3917   20.0775  -31.9887 H   0  0  0  0  0  0  0  0  0  0  0  0
  1  2  1  0
  2  3  1  0
  2  4  1  0
  2  5  1  0
  5  6  1  0
  6  7  2  0
  6  8  1  0
  8  9  1  0
  9 10  1  0
 10 11  2  0
 10 12  1  0
 12 13  1  0
 13 14  1  0
 14 15  1  0
 14 16  2  0
 13 17  2  0
 17 18  1  0
 18 19  2  0
 19 20  1  0
 20 21  2  0
 21 22  1  0
 22 23  2  0
 23 24  1  0
 24 25  2  0
 25 26  1  0
 26 27  2  0
 21 28  1  0
 28 29  2  0
 29 12  1  0
 29 18  1  0
 27 22  1  0
  1 30  1  0
  1 31  1  0
  1 32  1  0
  3 33  1  0
  3 34  1  0
  3 35  1  0
  4 36  1  0
  4 37  1  0
  4 38  1  0
  8 39  1  0
  8 40  1  0
 15 41  1  0
 17 42  1  0
 19 43  1  0
 20 44  1  0
 23 45  1  0
 25 46  1  0
 27 47  1  0
 28 48  1  0
M  CHG  1  15  -1
M  END
>  <UniqueID>  (27) 
27

>  <SMILES>  (27) 
CC(C)(C)OC(=O)COC(=O)n1c(C([NH-])=O)cc2ccc(-c3cncnc3)cc21

>  <Energy>  (27) 
87.85987258876811

>  <Genealogy>  (27) 
CC(C)(C)OC(=O)COC(=O)n1c(C([NH-])=O)cc2ccc(-c3cncnc3)cc21 (protonated)
CC(C)(C)OC(=O)COC(=O)n1c(C([NH-])=O)cc2ccc(-c3cncnc3)cc21 (3D coordinates assigned)
CC(C)(C)OC(=O)COC(=O)n1c(C([NH-])=O)cc2ccc(-c3cncnc3)cc21 (optimized conformer: 87.85987258876811 kcal/mol)

>  <smiles>  (27) 
CC(C)(C)OC(=O)COC(=O)n1c(C(N)=O)cc2ccc(-c3cncnc3)cc21

>  <score_type>  (27) 
oracle

>  <origin>  (27) 
adg

>  <m_score__min__energy>  (27) 
-11.74

>  <m_primary>  (27) 
energy

$$$$
27:0
     RDKit          3D

 36 37  0  0  0  0  0  0  0  0999 V2000
   -6.1500   25.6710  -29.4520 C   0  0  0  0  0  0  0  0  0  0  0  0
   -5.2890   25.2440  -30.5940 C   0  0  0  0  0  0  0  0  0  0  0  0
   -5.8170   24.8690  -31.6750 O   0  0  0  0  0  0  0  0  0  0  0  0
   -3.8690   25.3100  -30.4660 N   0  0  0  0  0  0  0  0  0  0  0  0
   -3.0950   24.3980  -29.6350 C   0  0  0  0  0  0  0  0  0  0  0  0
   -3.2300   22.9620  -30.1470 C   0  0  0  0  0  0  0  0  0  0  0  0
   -3.9760   22.9150  -31.4080 N   0  0  0  0  0  0  0  0  0  0  0  0
   -4.7680   21.7990  -31.8610 C   0  0  0  0  0  0  0  0  0  0  0  0
   -6.1790   21.8770  -31.7610 C   0  0  0  0  0  0  0  0  0  0  0  0
   -6.9930   20.8140  -32.1840 C   0  0  0  0  0  0  0  0  0  0  0  0
   -6.3700   19.6810  -32.6970 C   0  0  0  0  0  0  0  0  0  0  0  0
   -6.9180   18.5210  -33.1940 C   0  0  0  0  0  0  0  0  0  0  0  0
   -5.8330   17.7360  -33.5720 C   0  0  0  0  0  0  0  0  0  0  0  0
   -5.9700   16.3650  -34.1010 C   0  0  0  0  0  0  0  0  0  0  0  0
   -4.8230   15.5870  -34.4470 N   0  0  0  0  0  0  0  0  0  0  0  0
   -7.1160   15.8500  -34.1980 O   0  0  0  0  0  0  0  0  0  0  0  0
   -4.6600   18.3870  -33.3340 N   0  0  0  0  0  0  0  0  0  0  0  0
   -3.3320   17.9510  -33.6710 C   0  0  0  0  0  0  0  0  0  0  0  0
   -2.4760   17.7630  -32.7680 O   0  0  0  0  0  0  0  0  0  0  0  0
   -2.9780   17.7320  -34.9970 O   0  0  0  0  0  0  0  0  0  0  0  0
   -5.0070   19.5790  -32.7950 C   0  0  0  0  0  0  0  0  0  0  0  0
   -4.1750   20.6380  -32.4160 C   0  0  0  0  0  0  0  0  0  0  0  0
   -5.6506   25.4233  -28.5037 H   0  0  0  0  0  0  0  0  0  0  0  0
   -6.3179   26.7568  -29.5053 H   0  0  0  0  0  0  0  0  0  0  0  0
   -7.1160   25.1475  -29.5053 H   0  0  0  0  0  0  0  0  0  0  0  0
   -2.0359   24.6940  -29.6619 H   0  0  0  0  0  0  0  0  0  0  0  0
   -3.4756   24.4457  -28.6041 H   0  0  0  0  0  0  0  0  0  0  0  0
   -2.2258   22.5432  -30.3087 H   0  0  0  0  0  0  0  0  0  0  0  0
   -3.7795   22.3754  -29.3960 H   0  0  0  0  0  0  0  0  0  0  0  0
   -3.9640   23.7810  -31.9950 H   0  0  0  0  0  0  0  0  0  0  0  0
   -6.6436   22.7835  -31.3459 H   0  0  0  0  0  0  0  0  0  0  0  0
   -8.0889   20.8752  -32.1120 H   0  0  0  0  0  0  0  0  0  0  0  0
   -7.9855   18.2682  -33.2752 H   0  0  0  0  0  0  0  0  0  0  0  0
   -3.8600   15.9170  -34.2180 H   0  0  0  0  0  0  0  0  0  0  0  0
   -4.9410   14.6340  -34.8570 H   0  0  0  0  0  0  0  0  0  0  0  0
   -3.0848   20.5708  -32.5460 H   0  0  0  0  0  0  0  0  0  0  0  0
  1  2  1  0
  2  3  2  0
  2  4  1  0
  4  5  1  0
  5  6  1  0
  6  7  1  0
  7  8  1  0
  8  9  2  0
  9 10  1  0
 10 11  2  0
 11 12  1  0
 12 13  2  0
 13 14  1  0
 14 15  1  0
 14 16  2  0
 13 17  1  0
 17 18  1  0
 18 19  2  0
 18 20  1  0
 17 21  1  0
 21 22  2  0
 22  8  1  0
 21 11  1  0
  1 23  1  0
  1 24  1  0
  1 25  1  0
  5 26  1  0
  5 27  1  0
  6 28  1  0
  6 29  1  0
  7 30  1  0
  9 31  1  0
 10 32  1  0
 12 33  1  0
 15 34  1  0
 15 35  1  0
 22 36  1  0
M  CHG  2   4  -1  20  -1
M  END
>  <UniqueID>  (28) 
28

>  <SMILES>  (28) 
CC(=O)[N-]CCNc1ccc2cc(C(N)=O)n(C(=O)[O-])c2c1

>  <Energy>  (28) 
69.86400156127982

>  <Genealogy>  (28) 
CC(=O)[N-]CCNc1ccc2cc(C(N)=O)n(C(=O)[O-])c2c1 (protonated)
CC(=O)[N-]CCNc1ccc2cc(C(N)=O)n(C(=O)[O-])c2c1 (3D coordinates assigned)
CC(=O)[N-]CCNc1ccc2cc(C(N)=O)n(C(=O)[O-])c2c1 (optimized conformer: 69.86400156127982 kcal/mol)

>  <smiles>  (28) 
CC(=O)NCCNc1ccc2cc(C(N)=O)n(C(=O)O)c2c1

>  <score_type>  (28) 
oracle

>  <origin>  (28) 
adg

>  <m_score__min__energy>  (28) 
-9.0999999999999996

>  <m_primary>  (28) 
energy

$$$$
28:0
     RDKit          3D

 38 40  0  0  0  0  0  0  0  0999 V2000
   -1.6260   25.6710  -29.0140 N   0  0  0  0  0  0  0  0  0  0  0  0
   -1.1940   24.3130  -29.0330 C   0  0  0  0  0  0  0  0  0  0  0  0
   -0.3420   23.9250  -28.1910 O   0  0  0  0  0  0  0  0  0  0  0  0
   -1.7730   23.3450  -29.9870 C   0  0  0  0  0  0  0  0  0  0  0  0
   -1.0830   22.2300  -30.4580 C   0  0  0  0  0  0  0  0  0  0  0  0
   -1.9870   21.5410  -31.2340 C   0  0  0  0  0  0  0  0  0  0  0  0
   -1.8340   20.3570  -31.9490 C   0  0  0  0  0  0  0  0  0  0  0  0
   -2.9350   19.8840  -32.6820 C   0  0  0  0  0  0  0  0  0  0  0  0
   -4.1540   20.6050  -32.6990 C   0  0  0  0  0  0  0  0  0  0  0  0
   -5.3320   20.0750  -33.4740 C   0  0  0  0  0  0  0  0  0  0  0  0
   -6.6460   20.7650  -33.0680 C   0  0  0  0  0  0  0  0  0  0  0  0
   -7.8010   19.8440  -33.1390 N   0  0  1  0  0  0  0  0  0  0  0  0
   -7.5240   18.4880  -32.6420 C   0  0  0  0  0  0  0  0  0  0  0  0
   -8.5060   18.6310  -31.4890 C   0  0  2  0  0  0  0  0  0  0  0  0
   -9.6300   17.8090  -31.6400 O   0  0  0  0  0  0  0  0  0  0  0  0
   -8.7520   20.0300  -32.0310 C   0  0  0  0  0  0  0  0  0  0  0  0
   -4.2730   21.8030  -31.9590 C   0  0  0  0  0  0  0  0  0  0  0  0
   -3.1680   22.2390  -31.2190 C   0  0  0  0  0  0  0  0  0  0  0  0
   -3.0530   23.3510  -30.4590 N   0  0  0  0  0  0  0  0  0  0  0  0
   -4.0500   24.3690  -30.2790 C   0  0  0  0  0  0  0  0  0  0  0  0
   -3.8730   25.5240  -30.7460 O   0  0  0  0  0  0  0  0  0  0  0  0
   -5.2090   24.0950  -29.5620 O   0  0  0  0  0  0  0  0  0  0  0  0
   -2.6410   25.9110  -28.9880 H   0  0  0  0  0  0  0  0  0  0  0  0
   -0.0371   21.9580  -30.2530 H   0  0  0  0  0  0  0  0  0  0  0  0
   -0.8805   19.8085  -31.9405 H   0  0  0  0  0  0  0  0  0  0  0  0
   -2.8496   18.9448  -33.2482 H   0  0  0  0  0  0  0  0  0  0  0  0
   -5.1576   20.2461  -34.5465 H   0  0  0  0  0  0  0  0  0  0  0  0
   -5.4292   19.0018  -33.2531 H   0  0  0  0  0  0  0  0  0  0  0  0
   -6.5491   21.1341  -32.0363 H   0  0  0  0  0  0  0  0  0  0  0  0
   -6.8269   21.5913  -33.7712 H   0  0  0  0  0  0  0  0  0  0  0  0
   -8.2920   19.8450  -34.0630 H   0  0  0  0  0  0  0  0  0  0  0  0
   -6.4832   18.3449  -32.3160 H   0  0  0  0  0  0  0  0  0  0  0  0
   -7.6319   17.6367  -33.3303 H   0  0  0  0  0  0  0  0  0  0  0  0
   -8.2333   18.4262  -30.4432 H   0  0  0  0  0  0  0  0  0  0  0  0
   -9.8180   17.4420  -30.7380 H   0  0  0  0  0  0  0  0  0  0  0  0
   -8.4604   20.8282  -31.3325 H   0  0  0  0  0  0  0  0  0  0  0  0
   -9.7827   20.3383  -32.2604 H   0  0  0  0  0  0  0  0  0  0  0  0
   -5.2105   22.3784  -31.9645 H   0  0  0  0  0  0  0  0  0  0  0  0
  1  2  1  0
  2  3  2  0
  2  4  1  0
  4  5  2  0
  5  6  1  0
  6  7  2  0
  7  8  1  0
  8  9  2  0
  9 10  1  0
 10 11  1  0
 11 12  1  0
 12 13  1  0
 13 14  1  0
 14 15  1  0
 14 16  1  0
  9 17  1  0
 17 18  2  0
 18 19  1  0
 19 20  1  0
 20 21  2  0
 20 22  1  0
 19  4  1  0
 18  6  1  0
 16 12  1  0
  1 23  1  0
  5 24  1  0
  7 25  1  0
  8 26  1  0
 10 27  1  0
 10 28  1  0
 11 29  1  0
 11 30  1  0
 12 31  1  6
 13 32  1  0
 13 33  1  0
 14 34  1  1
 15 35  1  0
 16 36  1  0
 16 37  1  0
 17 38  1  0
M  CHG  3   1  -1  12   1  22  -1
M  END
>  <UniqueID>  (29) 
29

>  <SMILES>  (29) 
[NH-]C(=O)c1cc2ccc(CC[NH+]3CC(O)C3)cc2n1C(=O)[O-]

>  <Energy>  (29) 
148.76889633576775

>  <Genealogy>  (29) 
[NH-]C(=O)c1cc2ccc(CC[NH+]3CC(O)C3)cc2n1C(=O)[O-] (protonated)
[NH-]C(=O)c1cc2ccc(CC[NH+]3CC(O)C3)cc2n1C(=O)[O-] (3D coordinates assigned)
[NH-]C(=O)c1cc2ccc(CC[NH+]3CC(O)C3)cc2n1C(=O)[O-] (nonaromatic ring conformer: 148.76889633576775 kcal/mol)

>  <smiles>  (29) 
NC(=O)c1cc2ccc(CCN3CC(O)C3)cc2n1C(=O)O

>  <score_type>  (29) 
oracle

>  <origin>  (29) 
adg

>  <m_score__min__energy>  (29) 
-11.02

>  <m_primary>  (29) 
energy

$$$$
29:0
     RDKit          3D

 34 35  0  0  0  0  0  0  0  0999 V2000
   -5.0600   15.0110  -33.2330 C   0  0  0  0  0  0  0  0  0  0  0  0
   -5.7150   15.9110  -34.1180 O   0  0  0  0  0  0  0  0  0  0  0  0
   -5.3230   17.2450  -34.2600 C   0  0  0  0  0  0  0  0  0  0  0  0
   -5.6880   17.9220  -35.2600 O   0  0  0  0  0  0  0  0  0  0  0  0
   -4.4110   17.8560  -33.2410 C   0  0  0  0  0  0  0  0  0  0  0  0
   -4.0160   19.2870  -33.6250 C   0  0  0  0  0  0  0  0  0  0  0  0
   -4.9420   20.3070  -33.0110 C   0  0  0  0  0  0  0  0  0  0  0  0
   -6.3410   20.2150  -33.2230 C   0  0  0  0  0  0  0  0  0  0  0  0
   -7.2070   21.1920  -32.7040 C   0  0  0  0  0  0  0  0  0  0  0  0
   -6.6480   22.2410  -31.9800 C   0  0  0  0  0  0  0  0  0  0  0  0
   -7.2530   23.3290  -31.3950 C   0  0  0  0  0  0  0  0  0  0  0  0
   -6.2160   24.0640  -30.8230 C   0  0  0  0  0  0  0  0  0  0  0  0
   -6.4220   25.2790  -30.0030 C   0  0  0  0  0  0  0  0  0  0  0  0
   -5.6540   26.4590  -30.2400 N   0  0  0  0  0  0  0  0  0  0  0  0
   -7.3070   25.2940  -29.1050 O   0  0  0  0  0  0  0  0  0  0  0  0
   -5.0170   23.4550  -31.0460 N   0  0  0  0  0  0  0  0  0  0  0  0
   -3.7110   23.9320  -30.6810 C   0  0  0  0  0  0  0  0  0  0  0  0
   -2.7530   23.1270  -30.5420 O   0  0  0  0  0  0  0  0  0  0  0  0
   -3.4880   25.2910  -30.4940 O   0  0  0  0  0  0  0  0  0  0  0  0
   -5.2990   22.3380  -31.7560 C   0  0  0  0  0  0  0  0  0  0  0  0
   -4.4110   21.3890  -32.2770 C   0  0  0  0  0  0  0  0  0  0  0  0
   -5.2709   15.3008  -32.1930 H   0  0  0  0  0  0  0  0  0  0  0  0
   -5.4274   13.9895  -33.4107 H   0  0  0  0  0  0  0  0  0  0  0  0
   -3.9750   15.0465  -33.4107 H   0  0  0  0  0  0  0  0  0  0  0  0
   -4.9244   17.8759  -32.2684 H   0  0  0  0  0  0  0  0  0  0  0  0
   -3.4958   17.2480  -33.1889 H   0  0  0  0  0  0  0  0  0  0  0  0
   -2.9913   19.4798  -33.2747 H   0  0  0  0  0  0  0  0  0  0  0  0
   -4.0833   19.3786  -34.7191 H   0  0  0  0  0  0  0  0  0  0  0  0
   -6.7515   19.3721  -33.7983 H   0  0  0  0  0  0  0  0  0  0  0  0
   -8.2934   21.1298  -32.8649 H   0  0  0  0  0  0  0  0  0  0  0  0
   -8.3266   23.5681  -31.3815 H   0  0  0  0  0  0  0  0  0  0  0  0
   -4.8770   26.4690  -30.9370 H   0  0  0  0  0  0  0  0  0  0  0  0
   -5.8340   27.3230  -29.6820 H   0  0  0  0  0  0  0  0  0  0  0  0
   -3.3267   21.4845  -32.1181 H   0  0  0  0  0  0  0  0  0  0  0  0
  1  2  1  0
  2  3  1  0
  3  4  2  0
  3  5  1  0
  5  6  1  0
  6  7  1  0
  7  8  2  0
  8  9  1  0
  9 10  2  0
 10 11  1  0
 11 12  2  0
 12 13  1  0
 13 14  1  0
 13 15  2  0
 12 16  1  0
 16 17  1  0
 17 18  2  0
 17 19  1  0
 16 20  1  0
 20 21  2  0
 21  7  1  0
 20 10  1  0
  1 22  1  0
  1 23  1  0
  1 24  1  0
  5 25  1  0
  5 26  1  0
  6 27  1  0
  6 28  1  0
  8 29  1  0
  9 30  1  0
 11 31  1  0
 14 32  1  0
 14 33  1  0
 21 34  1  0
M  CHG  1  19  -1
M  END
>  <UniqueID>  (30) 
30

>  <SMILES>  (30) 
COC(=O)CCc1ccc2cc(C(N)=O)n(C(=O)[O-])c2c1

>  <Energy>  (30) 
66.84437400894655

>  <Genealogy>  (30) 
COC(=O)CCc1ccc2cc(C(N)=O)n(C(=O)[O-])c2c1 (protonated)
COC(=O)CCc1ccc2cc(C(N)=O)n(C(=O)[O-])c2c1 (3D coordinates assigned)
COC(=O)CCc1ccc2cc(C(N)=O)n(C(=O)[O-])c2c1 (optimized conformer: 66.84437400894655 kcal/mol)

>  <smiles>  (30) 
COC(=O)CCc1ccc2cc(C(N)=O)n(C(=O)O)c2c1

>  <score_type>  (30) 
oracle

>  <origin>  (30) 
adg

>  <m_score__min__energy>  (30) 
-8.2899999999999991

>  <m_primary>  (30) 
energy

$$$$
30:0
     RDKit          3D

 37 38  0  0  0  0  0  0  0  0999 V2000
   -4.0450   22.9380  -28.0850 C   0  0  0  0  0  0  0  0  0  0  0  0
   -3.0910   21.9790  -28.7890 C   0  0  0  0  0  0  0  0  0  0  0  0
   -3.6670   21.4960  -30.0000 O   0  0  0  0  0  0  0  0  0  0  0  0
   -4.1060   22.3320  -31.0340 C   0  0  0  0  0  0  0  0  0  0  0  0
   -3.3050   22.7120  -31.9300 O   0  0  0  0  0  0  0  0  0  0  0  0
   -5.4850   22.7280  -31.0900 N   0  0  0  0  0  0  0  0  0  0  0  0
   -6.0070   23.9740  -30.9020 C   0  0  0  0  0  0  0  0  0  0  0  0
   -5.2700   25.1620  -30.4260 C   0  0  0  0  0  0  0  0  0  0  0  0
   -3.8680   25.2960  -30.6490 N   0  0  0  0  0  0  0  0  0  0  0  0
   -5.8770   26.0510  -29.7690 O   0  0  0  0  0  0  0  0  0  0  0  0
   -7.3790   23.9710  -31.1470 C   0  0  0  0  0  0  0  0  0  0  0  0
   -7.6870   22.6720  -31.4840 C   0  0  0  0  0  0  0  0  0  0  0  0
   -8.9050   22.1070  -31.8480 C   0  0  0  0  0  0  0  0  0  0  0  0
   -8.9230   20.7440  -32.1870 C   0  0  0  0  0  0  0  0  0  0  0  0
   -7.7340   19.9750  -32.1510 C   0  0  0  0  0  0  0  0  0  0  0  0
   -7.7530   18.5300  -32.5650 C   0  0  0  0  0  0  0  0  0  0  0  0
   -6.5400   17.8340  -32.0380 C   0  0  0  0  0  0  0  0  0  0  0  0
   -6.4870   17.4950  -30.8240 O   0  0  0  0  0  0  0  0  0  0  0  0
   -5.4960   17.5220  -32.9140 O   0  0  0  0  0  0  0  0  0  0  0  0
   -5.0950   18.3840  -33.9710 C   0  0  0  0  0  0  0  0  0  0  0  0
   -3.2880   19.3670  -33.4170 I   0  0  0  0  0  0  0  0  0  0  0  0
   -6.5140   20.5860  -31.7850 C   0  0  0  0  0  0  0  0  0  0  0  0
   -6.5270   21.9420  -31.4400 C   0  0  0  0  0  0  0  0  0  0  0  0
   -3.9367   22.8292  -26.9958 H   0  0  0  0  0  0  0  0  0  0  0  0
   -3.8065   23.9717  -28.3757 H   0  0  0  0  0  0  0  0  0  0  0  0
   -5.0800   22.7049  -28.3757 H   0  0  0  0  0  0  0  0  0  0  0  0
   -2.1537   22.5063  -29.0199 H   0  0  0  0  0  0  0  0  0  0  0  0
   -2.8938   21.1245  -28.1250 H   0  0  0  0  0  0  0  0  0  0  0  0
   -3.4930   26.0480  -31.2670 H   0  0  0  0  0  0  0  0  0  0  0  0
   -8.0693   24.8251  -31.0844 H   0  0  0  0  0  0  0  0  0  0  0  0
   -9.8254   22.7089  -31.8697 H   0  0  0  0  0  0  0  0  0  0  0  0
   -9.8699   20.2691  -32.4834 H   0  0  0  0  0  0  0  0  0  0  0  0
   -8.6550   18.0468  -32.1614 H   0  0  0  0  0  0  0  0  0  0  0  0
   -7.7577   18.4679  -33.6632 H   0  0  0  0  0  0  0  0  0  0  0  0
   -4.9289   17.7945  -34.8847 H   0  0  0  0  0  0  0  0  0  0  0  0
   -5.8808   19.1301  -34.1604 H   0  0  0  0  0  0  0  0  0  0  0  0
   -5.5770   20.0100  -31.7716 H   0  0  0  0  0  0  0  0  0  0  0  0
  1  2  1  0
  2  3  1  0
  3  4  1  0
  4  5  2  0
  4  6  1  0
  6  7  1  0
  7  8  1  0
  8  9  1  0
  8 10  2  0
  7 11  2  0
 11 12  1  0
 12 13  2  0
 13 14  1  0
 14 15  2  0
 15 16  1  0
 16 17  1  0
 17 18  2  0
 17 19  1  0
 19 20  1  0
 20 21  1  0
 15 22  1  0
 22 23  2  0
 23  6  1  0
 23 12  1  0
  1 24  1  0
  1 25  1  0
  1 26  1  0
  2 27  1  0
  2 28  1  0
  9 29  1  0
 11 30  1  0
 13 31  1  0
 14 32  1  0
 16 33  1  0
 16 34  1  0
 20 35  1  0
 20 36  1  0
 22 37  1  0
M  CHG  1   9  -1
M  END
>  <UniqueID>  (31) 
31

>  <SMILES>  (31) 
CCOC(=O)n1c(C([NH-])=O)cc2ccc(CC(=O)OCI)cc21

>  <Energy>  (31) 
67.37583587401495

>  <Genealogy>  (31) 
CCOC(=O)n1c(C([NH-])=O)cc2ccc(CC(=O)OCI)cc21 (protonated)
CCOC(=O)n1c(C([NH-])=O)cc2ccc(CC(=O)OCI)cc21 (3D coordinates assigned)
CCOC(=O)n1c(C([NH-])=O)cc2ccc(CC(=O)OCI)cc21 (optimized conformer: 67.37583587401495 kcal/mol)

>  <smiles>  (31) 
CCOC(=O)n1c(C(N)=O)cc2ccc(CC(=O)OCI)cc21

>  <score_type>  (31) 
oracle

>  <origin>  (31) 
adg

>  <m_score__min__energy>  (31) 
-10.15

>  <m_primary>  (31) 
energy

$$$$
31:0
     RDKit          3D

 50 52  0  0  0  0  0  0  0  0999 V2000
   -9.0220   21.9000  -30.4520 C   0  0  0  0  0  0  0  0  0  0  0  0
   -8.3350   20.7910  -31.1360 N   0  0  0  0  0  0  0  0  0  0  0  0
   -9.2230   20.1840  -32.1490 C   0  0  0  0  0  0  0  0  0  0  0  0
   -8.5970   18.8920  -32.6980 C   0  0  0  0  0  0  0  0  0  0  0  0
   -7.1350   19.0030  -32.7620 N   0  0  0  0  0  0  0  0  0  0  0  0
   -6.3500   17.8100  -32.9550 C   0  0  0  0  0  0  0  0  0  0  0  0
   -6.8700   16.8170  -33.5340 O   0  0  0  0  0  0  0  0  0  0  0  0
   -4.9070   17.7360  -32.5160 C   0  0  0  0  0  0  0  0  0  0  0  0
   -3.9120   18.1130  -33.6310 C   0  0  0  0  0  0  0  0  0  0  0  0
   -3.7580   19.6310  -33.8290 C   0  0  0  0  0  0  0  0  0  0  0  0
   -2.8830   20.2770  -32.7850 C   0  0  0  0  0  0  0  0  0  0  0  0
   -1.6230   19.7130  -32.4650 C   0  0  0  0  0  0  0  0  0  0  0  0
   -0.8000   20.3050  -31.4930 C   0  0  0  0  0  0  0  0  0  0  0  0
   -1.2560   21.4630  -30.8690 C   0  0  0  0  0  0  0  0  0  0  0  0
   -0.6390   22.2660  -29.9390 C   0  0  0  0  0  0  0  0  0  0  0  0
   -1.5390   23.3020  -29.6940 C   0  0  0  0  0  0  0  0  0  0  0  0
   -1.3050   24.3550  -28.6840 C   0  0  0  0  0  0  0  0  0  0  0  0
   -1.2780   25.7310  -29.0540 N   0  0  0  0  0  0  0  0  0  0  0  0
   -1.1770   24.0400  -27.4710 O   0  0  0  0  0  0  0  0  0  0  0  0
   -2.6640   23.1490  -30.4480 N   0  0  0  0  0  0  0  0  0  0  0  0
   -3.7740   24.0550  -30.5610 C   0  0  0  0  0  0  0  0  0  0  0  0
   -3.5920   25.2970  -30.4740 O   0  0  0  0  0  0  0  0  0  0  0  0
   -5.0630   23.5660  -30.7370 O   0  0  0  0  0  0  0  0  0  0  0  0
   -2.4760   22.0170  -31.1620 C   0  0  0  0  0  0  0  0  0  0  0  0
   -3.3170   21.4480  -32.1250 C   0  0  0  0  0  0  0  0  0  0  0  0
   -6.5450   20.3440  -32.8640 C   0  0  0  0  0  0  0  0  0  0  0  0
   -7.0600   21.2610  -31.7340 C   0  0  0  0  0  0  0  0  0  0  0  0
   -8.9394   21.7667  -29.3632 H   0  0  0  0  0  0  0  0  0  0  0  0
   -8.5563   22.8537  -30.7410 H   0  0  0  0  0  0  0  0  0  0  0  0
  -10.0833   21.9078  -30.7410 H   0  0  0  0  0  0  0  0  0  0  0  0
   -8.1130   20.0700  -30.4100 H   0  0  0  0  0  0  0  0  0  0  0  0
  -10.1938   19.9499  -31.6877 H   0  0  0  0  0  0  0  0  0  0  0  0
   -9.3622   20.8952  -32.9766 H   0  0  0  0  0  0  0  0  0  0  0  0
   -8.8658   18.0535  -32.0387 H   0  0  0  0  0  0  0  0  0  0  0  0
   -8.9807   18.7206  -33.7146 H   0  0  0  0  0  0  0  0  0  0  0  0
   -4.7630   18.4257  -31.6713 H   0  0  0  0  0  0  0  0  0  0  0  0
   -4.7039   16.6916  -32.2367 H   0  0  0  0  0  0  0  0  0  0  0  0
   -2.9277   17.6936  -33.3756 H   0  0  0  0  0  0  0  0  0  0  0  0
   -4.3092   17.7028  -34.5712 H   0  0  0  0  0  0  0  0  0  0  0  0
   -3.3138   19.8118  -34.8189 H   0  0  0  0  0  0  0  0  0  0  0  0
   -4.7595   20.0771  -33.7398 H   0  0  0  0  0  0  0  0  0  0  0  0
   -1.2863   18.8028  -32.9828 H   0  0  0  0  0  0  0  0  0  0  0  0
    0.1750   19.8671  -31.2327 H   0  0  0  0  0  0  0  0  0  0  0  0
    0.3527   22.1218  -29.4853 H   0  0  0  0  0  0  0  0  0  0  0  0
   -1.2450   26.0180  -30.0570 H   0  0  0  0  0  0  0  0  0  0  0  0
   -4.2910   21.9010  -32.3619 H   0  0  0  0  0  0  0  0  0  0  0  0
   -5.4505   20.2622  -32.7906 H   0  0  0  0  0  0  0  0  0  0  0  0
   -6.8341   20.7820  -33.8307 H   0  0  0  0  0  0  0  0  0  0  0  0
   -6.2971   21.3032  -30.9427 H   0  0  0  0  0  0  0  0  0  0  0  0
   -7.2509   22.2499  -32.1763 H   0  0  0  0  0  0  0  0  0  0  0  0
  1  2  1  0
  2  3  1  0
  3  4  1  0
  4  5  1  0
  5  6  1  0
  6  7  2  0
  6  8  1  0
  8  9  1  0
  9 10  1  0
 10 11  1  0
 11 12  2  0
 12 13  1  0
 13 14  2  0
 14 15  1  0
 15 16  2  0
 16 17  1  0
 17 18  1  0
 17 19  2  0
 16 20  1  0
 20 21  1  0
 21 22  2  0
 21 23  1  0
 20 24  1  0
 24 25  2  0
  5 26  1  0
 26 27  1  0
 27  2  1  0
 25 11  1  0
 24 14  1  0
  1 28  1  0
  1 29  1  0
  1 30  1  0
  2 31  1  0
  3 32  1  0
  3 33  1  0
  4 34  1  0
  4 35  1  0
  8 36  1  0
  8 37  1  0
  9 38  1  0
  9 39  1  0
 10 40  1  0
 10 41  1  0
 12 42  1  0
 13 43  1  0
 15 44  1  0
 18 45  1  0
 25 46  1  0
 26 47  1  0
 26 48  1  0
 27 49  1  0
 27 50  1  0
M  CHG  3   2   1  18  -1  23  -1
M  END
>  <UniqueID>  (32) 
32

>  <SMILES>  (32) 
C[NH+]1CCN(C(=O)CCCc2ccc3cc(C([NH-])=O)n(C(=O)[O-])c3c2)CC1

>  <Energy>  (32) 
91.39422960054273

>  <Genealogy>  (32) 
C[NH+]1CCN(C(=O)CCCc2ccc3cc(C([NH-])=O)n(C(=O)[O-])c3c2)CC1 (protonated)
C[NH+]1CCN(C(=O)CCCc2ccc3cc(C([NH-])=O)n(C(=O)[O-])c3c2)CC1 (3D coordinates assigned)
C[NH+]1CCN(C(=O)CCCc2ccc3cc(C([NH-])=O)n(C(=O)[O-])c3c2)CC1 (nonaromatic ring conformer: 91.39422960054273 kcal/mol)

>  <smiles>  (32) 
CN1CCN(C(=O)CCCc2ccc3cc(C(N)=O)n(C(=O)O)c3c2)CC1

>  <score_type>  (32) 
oracle

>  <origin>  (32) 
adg

>  <m_score__min__energy>  (32) 
-11.390000000000001

>  <m_primary>  (32) 
energy

$$$$
32:0
     RDKit          3D

 52 53  0  0  0  0  0  0  0  0999 V2000
   -6.7000   15.5190  -34.1780 C   0  0  0  0  0  0  0  0  0  0  0  0
   -7.2200   16.7240  -33.6300 O   0  0  0  0  0  0  0  0  0  0  0  0
   -6.8490   17.2000  -32.3700 C   0  0  0  0  0  0  0  0  0  0  0  0
   -5.8180   16.7590  -31.7920 O   0  0  0  0  0  0  0  0  0  0  0  0
   -7.6970   18.2310  -31.6960 C   0  0  0  0  0  0  0  0  0  0  0  0
   -6.9670   19.4460  -31.5320 O   0  0  0  0  0  0  0  0  0  0  0  0
   -6.3540   20.1200  -32.5950 C   0  0  0  0  0  0  0  0  0  0  0  0
   -7.0490   20.7790  -33.4150 O   0  0  0  0  0  0  0  0  0  0  0  0
   -4.9260   20.0620  -32.7470 N   0  0  0  0  0  0  0  0  0  0  0  0
   -4.2160   19.2390  -33.5690 C   0  0  0  0  0  0  0  0  0  0  0  0
   -4.7840   18.3510  -34.6030 C   0  0  0  0  0  0  0  0  0  0  0  0
   -6.1390   18.4890  -35.0340 N   0  0  0  0  0  0  0  0  0  0  0  0
   -4.0450   17.4930  -35.1550 O   0  0  0  0  0  0  0  0  0  0  0  0
   -2.8490   19.3820  -33.3480 C   0  0  0  0  0  0  0  0  0  0  0  0
   -2.7380   20.3370  -32.3630 C   0  0  0  0  0  0  0  0  0  0  0  0
   -1.6040   20.8590  -31.7490 C   0  0  0  0  0  0  0  0  0  0  0  0
   -1.7850   21.8130  -30.7340 C   0  0  0  0  0  0  0  0  0  0  0  0
   -3.0870   22.2180  -30.3470 C   0  0  0  0  0  0  0  0  0  0  0  0
   -3.2760   23.2120  -29.2320 C   0  0  0  0  0  0  0  0  0  0  0  0
   -3.0520   24.6130  -29.7340 C   0  0  0  0  0  0  0  0  0  0  0  0
   -2.0840   25.2750  -29.2760 O   0  0  0  0  0  0  0  0  0  0  0  0
   -3.8910   25.2190  -30.7270 N   0  0  0  0  0  0  0  0  0  0  0  0
   -5.2430   25.7080  -30.4880 C   0  0  0  0  0  0  0  0  0  0  0  0
   -6.0740   24.6050  -29.8110 C   0  0  0  0  0  0  0  0  0  0  0  0
   -6.3790   23.4470  -30.6820 N   0  0  0  0  0  0  0  0  0  0  0  0
   -6.5370   23.8190  -32.0960 C   0  0  0  0  0  0  0  0  0  0  0  0
   -7.5260   22.6570  -30.2070 C   0  0  0  0  0  0  0  0  0  0  0  0
   -4.2150   21.6580  -30.9880 C   0  0  0  0  0  0  0  0  0  0  0  0
   -4.0060   20.7290  -32.0130 C   0  0  0  0  0  0  0  0  0  0  0  0
   -6.4076   14.8414  -33.3623 H   0  0  0  0  0  0  0  0  0  0  0  0
   -7.4697   15.0359  -34.7978 H   0  0  0  0  0  0  0  0  0  0  0  0
   -5.8205   15.7476  -34.7978 H   0  0  0  0  0  0  0  0  0  0  0  0
   -8.5891   18.4242  -32.3099 H   0  0  0  0  0  0  0  0  0  0  0  0
   -7.9937   17.8566  -30.7052 H   0  0  0  0  0  0  0  0  0  0  0  0
   -6.5320   17.8320  -35.7440 H   0  0  0  0  0  0  0  0  0  0  0  0
   -6.7200   19.3030  -34.7340 H   0  0  0  0  0  0  0  0  0  0  0  0
   -2.0318   18.8461  -33.8529 H   0  0  0  0  0  0  0  0  0  0  0  0
   -0.5967   20.5347  -32.0491 H   0  0  0  0  0  0  0  0  0  0  0  0
   -0.9077   22.2500  -30.2346 H   0  0  0  0  0  0  0  0  0  0  0  0
   -4.3004   23.1268  -28.8404 H   0  0  0  0  0  0  0  0  0  0  0  0
   -2.5478   22.9977  -28.4359 H   0  0  0  0  0  0  0  0  0  0  0  0
   -5.2033   26.5913  -29.8336 H   0  0  0  0  0  0  0  0  0  0  0  0
   -5.7087   25.9826  -31.4460 H   0  0  0  0  0  0  0  0  0  0  0  0
   -5.5144   24.2402  -28.9371 H   0  0  0  0  0  0  0  0  0  0  0  0
   -7.0394   25.0591  -29.5431 H   0  0  0  0  0  0  0  0  0  0  0  0
   -6.9662   24.8296  -32.1635 H   0  0  0  0  0  0  0  0  0  0  0  0
   -5.5548   23.8040  -32.5911 H   0  0  0  0  0  0  0  0  0  0  0  0
   -7.2082   23.1017  -32.5911 H   0  0  0  0  0  0  0  0  0  0  0  0
   -7.5361   22.6500  -29.1071 H   0  0  0  0  0  0  0  0  0  0  0  0
   -8.4591   23.1049  -30.5794 H   0  0  0  0  0  0  0  0  0  0  0  0
   -7.4402   21.6255  -30.5794 H   0  0  0  0  0  0  0  0  0  0  0  0
   -5.2335   21.9457  -30.6881 H   0  0  0  0  0  0  0  0  0  0  0  0
  1  2  1  0
  2  3  1  0
  3  4  2  0
  3  5  1  0
  5  6  1  0
  6  7  1  0
  7  8  2  0
  7  9  1  0
  9 10  1  0
 10 11  1  0
 11 12  1  0
 11 13  2  0
 10 14  2  0
 14 15  1  0
 15 16  2  0
 16 17  1  0
 17 18  2  0
 18 19  1  0
 19 20  1  0
 20 21  2  0
 20 22  1  0
 22 23  1  0
 23 24  1  0
 24 25  1  0
 25 26  1  0
 25 27  1  0
 18 28  1  0
 28 29  2  0
 29  9  1  0
 29 15  1  0
  1 30  1  0
  1 31  1  0
  1 32  1  0
  5 33  1  0
  5 34  1  0
 12 35  1  0
 12 36  1  0
 14 37  1  0
 16 38  1  0
 17 39  1  0
 19 40  1  0
 19 41  1  0
 23 42  1  0
 23 43  1  0
 24 44  1  0
 24 45  1  0
 26 46  1  0
 26 47  1  0
 26 48  1  0
 27 49  1  0
 27 50  1  0
 27 51  1  0
 28 52  1  0
M  CHG  1  22  -1
M  END
>  <UniqueID>  (33) 
33

>  <SMILES>  (33) 
COC(=O)COC(=O)n1c(C(N)=O)cc2ccc(CC(=O)[N-]CCN(C)C)cc21

>  <Energy>  (33) 
83.71658496197371

>  <Genealogy>  (33) 
COC(=O)COC(=O)n1c(C(N)=O)cc2ccc(CC(=O)[N-]CCN(C)C)cc21 (protonated)
COC(=O)COC(=O)n1c(C(N)=O)cc2ccc(CC(=O)[N-]CCN(C)C)cc21 (3D coordinates assigned)
COC(=O)COC(=O)n1c(C(N)=O)cc2ccc(CC(=O)[N-]CCN(C)C)cc21 (optimized conformer: 83.71658496197371 kcal/mol)

>  <smiles>  (33) 
COC(=O)COC(=O)n1c(C(N)=O)cc2ccc(CC(=O)NCCN(C)C)cc21

>  <score_type>  (33) 
oracle

>  <origin>  (33) 
adg

>  <m_score__min__energy>  (33) 
-9.1300000000000008

>  <m_primary>  (33) 
energy

$$$$
33:0
     RDKit          3D

 36 37  0  0  0  0  0  0  0  0999 V2000
   -2.7020   21.2410  -33.0140 C   0  0  0  0  0  0  0  0  0  0  0  0
   -3.6540   20.4360  -32.5440 C   0  0  0  0  0  0  0  0  0  0  0  0
   -4.5720   19.6930  -33.4280 C   0  0  0  0  0  0  0  0  0  0  0  0
   -4.1370   19.1270  -34.4680 O   0  0  0  0  0  0  0  0  0  0  0  0
   -5.9760   19.6380  -33.1280 N   0  0  0  0  0  0  0  0  0  0  0  0
   -6.7940   18.5510  -33.2100 C   0  0  0  0  0  0  0  0  0  0  0  0
   -6.4270   17.2330  -33.7650 C   0  0  0  0  0  0  0  0  0  0  0  0
   -5.6910   17.1190  -34.9850 N   0  0  0  0  0  0  0  0  0  0  0  0
   -6.8080   16.1860  -33.1770 O   0  0  0  0  0  0  0  0  0  0  0  0
   -8.0590   18.8500  -32.7090 C   0  0  0  0  0  0  0  0  0  0  0  0
   -7.9930   20.1680  -32.3180 C   0  0  0  0  0  0  0  0  0  0  0  0
   -8.9620   20.9770  -31.7310 C   0  0  0  0  0  0  0  0  0  0  0  0
   -8.6030   22.2900  -31.3870 C   0  0  0  0  0  0  0  0  0  0  0  0
   -7.2850   22.7610  -31.6130 C   0  0  0  0  0  0  0  0  0  0  0  0
   -6.9120   24.1770  -31.2540 C   0  0  0  0  0  0  0  0  0  0  0  0
   -5.8420   24.2220  -30.1450 C   0  0  2  0  0  0  0  0  0  0  0  0
   -6.1310   25.3170  -29.2170 N   0  0  0  0  0  0  0  0  0  0  0  0
   -4.4710   24.4070  -30.7350 C   0  0  0  0  0  0  0  0  0  0  0  0
   -3.8470   23.4270  -31.2230 O   0  0  0  0  0  0  0  0  0  0  0  0
   -3.8680   25.6590  -30.7100 O   0  0  0  0  0  0  0  0  0  0  0  0
   -6.3290   21.9120  -32.2130 C   0  0  0  0  0  0  0  0  0  0  0  0
   -6.7240   20.6190  -32.5740 C   0  0  0  0  0  0  0  0  0  0  0  0
   -2.0399   21.7754  -32.3168 H   0  0  0  0  0  0  0  0  0  0  0  0
   -2.5781   21.3712  -34.0992 H   0  0  0  0  0  0  0  0  0  0  0  0
   -3.7595   20.3210  -31.4551 H   0  0  0  0  0  0  0  0  0  0  0  0
   -5.5250   17.9480  -35.5970 H   0  0  0  0  0  0  0  0  0  0  0  0
   -5.3960   16.1790  -35.3310 H   0  0  0  0  0  0  0  0  0  0  0  0
   -8.9259   18.1763  -32.6405 H   0  0  0  0  0  0  0  0  0  0  0  0
   -9.9777   20.5991  -31.5425 H   0  0  0  0  0  0  0  0  0  0  0  0
   -9.3513   22.9596  -30.9379 H   0  0  0  0  0  0  0  0  0  0  0  0
   -6.5182   24.6798  -32.1497 H   0  0  0  0  0  0  0  0  0  0  0  0
   -7.8137   24.6846  -30.8808 H   0  0  0  0  0  0  0  0  0  0  0  0
   -5.8649   23.2656  -29.6021 H   0  0  0  0  0  0  0  0  0  0  0  0
   -6.3140   24.9080  -28.2720 H   0  0  0  0  0  0  0  0  0  0  0  0
   -5.2670   25.8970  -29.1150 H   0  0  0  0  0  0  0  0  0  0  0  0
   -5.3004   22.2583  -32.3919 H   0  0  0  0  0  0  0  0  0  0  0  0
  1  2  2  0
  2  3  1  0
  3  4  2  0
  3  5  1  0
  5  6  1  0
  6  7  1  0
  7  8  1  0
  7  9  2  0
  6 10  2  0
 10 11  1  0
 11 12  2  0
 12 13  1  0
 13 14  2  0
 14 15  1  0
 15 16  1  0
 16 17  1  0
 16 18  1  0
 18 19  2  0
 18 20  1  0
 14 21  1  0
 21 22  2  0
 22  5  1  0
 22 11  1  0
  1 23  1  0
  1 24  1  0
  2 25  1  0
  8 26  1  0
  8 27  1  0
 10 28  1  0
 12 29  1  0
 13 30  1  0
 15 31  1  0
 15 32  1  0
 16 33  1  1
 17 34  1  0
 17 35  1  0
 21 36  1  0
M  CHG  1  20  -1
M  END
>  <UniqueID>  (34) 
34

>  <SMILES>  (34) 
C=CC(=O)n1c(C(N)=O)cc2ccc(C[C@H](N)C(=O)[O-])cc21

>  <Energy>  (34) 
71.69696008691223

>  <Genealogy>  (34) 
C=CC(=O)n1c(C(N)=O)cc2ccc(CC(N)C(=O)[O-])cc21 (protonated)
C=CC(=O)n1c(C(N)=O)cc2ccc(C[C@H](N)C(=O)[O-])cc21 (chirality)
C=CC(=O)n1c(C(N)=O)cc2ccc(C[C@H](N)C(=O)[O-])cc21 (3D coordinates assigned)
C=CC(=O)n1c(C(N)=O)cc2ccc(C[C@H](N)C(=O)[O-])cc21 (optimized conformer: 71.69696008691223 kcal/mol)

>  <smiles>  (34) 
C=CC(=O)n1c(C(N)=O)cc2ccc(CC(N)C(=O)O)cc21

>  <score_type>  (34) 
oracle

>  <origin>  (34) 
adg

>  <m_score__min__energy>  (34) 
-10.43

>  <m_primary>  (34) 
energy

$$$$
34:0
     RDKit          3D

 59 60  0  0  0  0  0  0  0  0999 V2000
   -6.0060   17.0710  -32.0390 C   0  0  0  0  0  0  0  0  0  0  0  0
   -6.7200   18.1120  -31.4160 O   0  0  0  0  0  0  0  0  0  0  0  0
   -7.8810   18.3940  -32.1680 C   0  0  0  0  0  0  0  0  0  0  0  0
   -8.7410   19.4080  -31.4060 C   0  0  0  0  0  0  0  0  0  0  0  0
   -9.2670   20.5410  -32.3160 C   0  0  0  0  0  0  0  0  0  0  0  0
   -8.7590   21.7950  -31.8930 O   0  0  0  0  0  0  0  0  0  0  0  0
   -8.1300   21.6840  -30.6260 C   0  0  0  0  0  0  0  0  0  0  0  0
   -7.2400   22.9020  -30.3930 C   0  0  0  0  0  0  0  0  0  0  0  0
   -6.3260   23.1860  -31.5990 C   0  0  0  0  0  0  0  0  0  0  0  0
   -5.5450   21.9680  -32.0270 C   0  0  0  0  0  0  0  0  0  0  0  0
   -6.0350   21.1580  -33.0810 C   0  0  0  0  0  0  0  0  0  0  0  0
   -5.2800   20.0800  -33.5630 C   0  0  0  0  0  0  0  0  0  0  0  0
   -4.0520   19.8230  -32.9580 C   0  0  0  0  0  0  0  0  0  0  0  0
   -3.1060   18.8800  -33.2720 C   0  0  0  0  0  0  0  0  0  0  0  0
   -2.0580   19.0990  -32.3810 C   0  0  0  0  0  0  0  0  0  0  0  0
   -0.7560   18.3970  -32.4930 C   0  0  0  0  0  0  0  0  0  0  0  0
    0.2710   18.5530  -31.5130 N   0  0  0  0  0  0  0  0  0  0  0  0
   -0.5110   17.7190  -33.5310 O   0  0  0  0  0  0  0  0  0  0  0  0
   -2.3630   20.1120  -31.5200 N   0  0  0  0  0  0  0  0  0  0  0  0
   -1.6170   20.5210  -30.3590 C   0  0  0  0  0  0  0  0  0  0  0  0
   -0.6020   21.2590  -30.4870 O   0  0  0  0  0  0  0  0  0  0  0  0
   -2.0110   20.0940  -29.0880 O   0  0  0  0  0  0  0  0  0  0  0  0
   -2.1520   20.9810  -27.9860 C   0  0  0  0  0  0  0  0  0  0  0  0
   -3.4280   21.8160  -28.1310 C   0  0  0  0  0  0  0  0  0  0  0  0
   -3.2590   23.2590  -27.6420 C   0  0  0  0  0  0  0  0  0  0  0  0
   -3.9900   24.1330  -28.4710 O   0  0  0  0  0  0  0  0  0  0  0  0
   -2.9670   24.6650  -29.7270 P   0  0  0  0  0  0  0  0  0  0  0  0
   -2.3800   23.4720  -30.4470 O   0  0  0  0  0  0  0  0  0  0  0  0
   -3.8720   25.5820  -30.8240 O   0  0  0  0  0  0  0  0  0  0  0  0
   -1.7210   25.6370  -29.1170 O   0  0  0  0  0  0  0  0  0  0  0  0
   -3.5800   20.5640  -31.9090 C   0  0  0  0  0  0  0  0  0  0  0  0
   -4.3170   21.6480  -31.4060 C   0  0  0  0  0  0  0  0  0  0  0  0
   -5.5604   16.4213  -31.2713 H   0  0  0  0  0  0  0  0  0  0  0  0
   -6.6905   16.4811  -32.6663 H   0  0  0  0  0  0  0  0  0  0  0  0
   -5.2092   17.4971  -32.6663 H   0  0  0  0  0  0  0  0  0  0  0  0
   -7.5945   18.8140  -33.1435 H   0  0  0  0  0  0  0  0  0  0  0  0
   -8.4535   17.4680  -32.3251 H   0  0  0  0  0  0  0  0  0  0  0  0
   -9.6006   18.8813  -30.9660 H   0  0  0  0  0  0  0  0  0  0  0  0
   -8.1086   19.8676  -30.6321 H   0  0  0  0  0  0  0  0  0  0  0  0
   -8.9470   20.3516  -33.3513 H   0  0  0  0  0  0  0  0  0  0  0  0
  -10.3651   20.5640  -32.2562 H   0  0  0  0  0  0  0  0  0  0  0  0
   -8.8967   21.6338  -29.8388 H   0  0  0  0  0  0  0  0  0  0  0  0
   -7.5173   20.7708  -30.5988 H   0  0  0  0  0  0  0  0  0  0  0  0
   -7.8785   23.7801  -30.2164 H   0  0  0  0  0  0  0  0  0  0  0  0
   -6.6003   22.6945  -29.5225 H   0  0  0  0  0  0  0  0  0  0  0  0
   -6.9475   23.5216  -32.4422 H   0  0  0  0  0  0  0  0  0  0  0  0
   -5.6039   23.9594  -31.2983 H   0  0  0  0  0  0  0  0  0  0  0  0
   -7.0172   21.3772  -33.5252 H   0  0  0  0  0  0  0  0  0  0  0  0
   -5.6456   19.4569  -34.3925 H   0  0  0  0  0  0  0  0  0  0  0  0
   -3.1631   18.1142  -34.0596 H   0  0  0  0  0  0  0  0  0  0  0  0
    1.1210   17.9460  -31.5450 H   0  0  0  0  0  0  0  0  0  0  0  0
    0.1980   19.2710  -30.7610 H   0  0  0  0  0  0  0  0  0  0  0  0
   -2.2051   20.3969  -27.0554 H   0  0  0  0  0  0  0  0  0  0  0  0
   -1.2848   21.6572  -27.9596 H   0  0  0  0  0  0  0  0  0  0  0  0
   -3.7142   21.8371  -29.1929 H   0  0  0  0  0  0  0  0  0  0  0  0
   -4.2015   21.3456  -27.5062 H   0  0  0  0  0  0  0  0  0  0  0  0
   -3.6292   23.3403  -26.6093 H   0  0  0  0  0  0  0  0  0  0  0  0
   -2.1939   23.5317  -27.6767 H   0  0  0  0  0  0  0  0  0  0  0  0
   -3.9479   22.2329  -30.5506 H   0  0  0  0  0  0  0  0  0  0  0  0
  1  2  1  0
  2  3  1  0
  3  4  1  0
  4  5  1  0
  5  6  1  0
  6  7  1  0
  7  8  1  0
  8  9  1  0
  9 10  1  0
 10 11  2  0
 11 12  1  0
 12 13  2  0
 13 14  1  0
 14 15  2  0
 15 16  1  0
 16 17  1  0
 16 18  2  0
 15 19  1  0
 19 20  1  0
 20 21  2  0
 20 22  1  0
 22 23  1  0
 23 24  1  0
 24 25  1  0
 25 26  1  0
 26 27  1  0
 27 28  2  0
 27 29  1  0
 27 30  1  0
 19 31  1  0
 31 32  2  0
 32 10  1  0
 31 13  1  0
  1 33  1  0
  1 34  1  0
  1 35  1  0
  3 36  1  0
  3 37  1  0
  4 38  1  0
  4 39  1  0
  5 40  1  0
  5 41  1  0
  7 42  1  0
  7 43  1  0
  8 44  1  0
  8 45  1  0
  9 46  1  0
  9 47  1  0
 11 48  1  0
 12 49  1  0
 14 50  1  0
 17 51  1  0
 17 52  1  0
 23 53  1  0
 23 54  1  0
 24 55  1  0
 24 56  1  0
 25 57  1  0
 25 58  1  0
 32 59  1  0
M  CHG  2  29  -1  30  -1
M  END
>  <UniqueID>  (35) 
35

>  <SMILES>  (35) 
COCCCOCCCc1ccc2cc(C(N)=O)n(C(=O)OCCCOP(=O)([O-])[O-])c2c1

>  <Energy>  (35) 
89.7905048555501

>  <Genealogy>  (35) 
COCCCOCCCc1ccc2cc(C(N)=O)n(C(=O)OCCCOP(=O)([O-])[O-])c2c1 (protonated)
COCCCOCCCc1ccc2cc(C(N)=O)n(C(=O)OCCCOP(=O)([O-])[O-])c2c1 (3D coordinates assigned)
COCCCOCCCc1ccc2cc(C(N)=O)n(C(=O)OCCCOP(=O)([O-])[O-])c2c1 (optimized conformer: 89.7905048555501 kcal/mol)

>  <smiles>  (35) 
COCCCOCCCc1ccc2cc(C(N)=O)n(C(=O)OCCCOP(=O)(O)O)c2c1

>  <score_type>  (35) 
oracle

>  <origin>  (35) 
adg

>  <m_score__min__energy>  (35) 
-13.16

>  <m_primary>  (35) 
energy

$$$$
35:0
     RDKit          3D

 49 51  0  0  0  0  0  0  0  0999 V2000
   -3.9620   13.9720  -34.7050 C   0  0  0  0  0  0  0  0  0  0  0  0
   -5.3360   14.3120  -34.3230 N   0  0  0  0  0  0  0  0  0  0  0  0
   -6.3980   13.3020  -34.3860 C   0  0  0  0  0  0  0  0  0  0  0  0
   -5.6470   15.6490  -33.8840 C   0  0  0  0  0  0  0  0  0  0  0  0
   -6.9010   15.9580  -33.4610 N   0  0  0  0  0  0  0  0  0  0  0  0
   -7.2170   17.2100  -33.0400 C   0  0  0  0  0  0  0  0  0  0  0  0
   -6.2430   18.2200  -33.0390 C   0  0  0  0  0  0  0  0  0  0  0  0
   -6.5630   19.5970  -32.5870 C   0  0  0  0  0  0  0  0  0  0  0  0
   -7.8930   20.0870  -32.6680 C   0  0  0  0  0  0  0  0  0  0  0  0
   -8.2100   21.3830  -32.2300 C   0  0  0  0  0  0  0  0  0  0  0  0
   -7.1820   22.1720  -31.7270 C   0  0  0  0  0  0  0  0  0  0  0  0
   -7.2240   23.4440  -31.2060 C   0  0  0  0  0  0  0  0  0  0  0  0
   -5.9130   23.7330  -30.8410 C   0  0  0  0  0  0  0  0  0  0  0  0
   -5.4960   25.0340  -30.2860 C   0  0  0  0  0  0  0  0  0  0  0  0
   -4.1660   25.5220  -30.4690 N   0  0  0  0  0  0  0  0  0  0  0  0
   -6.3410   25.7550  -29.6910 O   0  0  0  0  0  0  0  0  0  0  0  0
   -5.0900   22.6800  -31.1130 N   0  0  0  0  0  0  0  0  0  0  0  0
   -3.7020   22.5490  -30.7580 C   0  0  0  0  0  0  0  0  0  0  0  0
   -2.8160   23.1300  -31.4430 O   0  0  0  0  0  0  0  0  0  0  0  0
   -3.3370   21.7560  -29.6620 O   0  0  0  0  0  0  0  0  0  0  0  0
   -3.2150   22.2450  -28.3270 C   0  0  0  0  0  0  0  0  0  0  0  0
   -1.9910   23.1560  -28.1740 C   0  0  0  0  0  0  0  0  0  0  0  0
   -2.3620   24.6380  -28.1090 C   0  0  0  0  0  0  0  0  0  0  0  0
   -2.0770   25.2410  -29.3400 O   0  0  0  0  0  0  0  0  0  0  0  0
   -5.8870   21.7290  -31.6570 C   0  0  0  0  0  0  0  0  0  0  0  0
   -5.5460   20.4330  -32.0660 C   0  0  0  0  0  0  0  0  0  0  0  0
   -4.9560   17.8790  -33.4810 C   0  0  0  0  0  0  0  0  0  0  0  0
   -4.6870   16.6130  -33.8880 N   0  0  0  0  0  0  0  0  0  0  0  0
   -3.3561   13.8221  -33.7993 H   0  0  0  0  0  0  0  0  0  0  0  0
   -3.9653   13.0476  -35.3012 H   0  0  0  0  0  0  0  0  0  0  0  0
   -3.5338   14.7913  -35.3012 H   0  0  0  0  0  0  0  0  0  0  0  0
   -6.6957   13.0189  -33.3656 H   0  0  0  0  0  0  0  0  0  0  0  0
   -7.2663   13.7157  -34.9198 H   0  0  0  0  0  0  0  0  0  0  0  0
   -6.0284   12.4141  -34.9198 H   0  0  0  0  0  0  0  0  0  0  0  0
   -8.2388   17.4327  -32.6990 H   0  0  0  0  0  0  0  0  0  0  0  0
   -8.6849   19.4436  -33.0789 H   0  0  0  0  0  0  0  0  0  0  0  0
   -9.2411   21.7625  -32.2833 H   0  0  0  0  0  0  0  0  0  0  0  0
   -8.1053   24.0937  -31.1005 H   0  0  0  0  0  0  0  0  0  0  0  0
   -3.8710   26.4230  -30.0350 H   0  0  0  0  0  0  0  0  0  0  0  0
   -3.4990   25.0280  -31.1020 H   0  0  0  0  0  0  0  0  0  0  0  0
   -4.1199   22.8155  -28.0708 H   0  0  0  0  0  0  0  0  0  0  0  0
   -3.0921   21.3843  -27.6531 H   0  0  0  0  0  0  0  0  0  0  0  0
   -1.4639   22.8843  -27.2475 H   0  0  0  0  0  0  0  0  0  0  0  0
   -1.3565   23.0112  -29.0608 H   0  0  0  0  0  0  0  0  0  0  0  0
   -3.4353   24.7388  -27.8903 H   0  0  0  0  0  0  0  0  0  0  0  0
   -1.7803   25.1289  -27.3149 H   0  0  0  0  0  0  0  0  0  0  0  0
   -1.9670   24.5000  -29.9910 H   0  0  0  0  0  0  0  0  0  0  0  0
   -4.5099   20.0726  -31.9840 H   0  0  0  0  0  0  0  0  0  0  0  0
   -4.1624   18.6405  -33.4976 H   0  0  0  0  0  0  0  0  0  0  0  0
  1  2  1  0
  2  3  1  0
  2  4  1  0
  4  5  2  0
  5  6  1  0
  6  7  2  0
  7  8  1  0
  8  9  2  0
  9 10  1  0
 10 11  2  0
 11 12  1  0
 12 13  2  0
 13 14  1  0
 14 15  1  0
 14 16  2  0
 13 17  1  0
 17 18  1  0
 18 19  2  0
 18 20  1  0
 20 21  1  0
 21 22  1  0
 22 23  1  0
 23 24  1  0
 17 25  1  0
 25 26  2  0
  7 27  1  0
 27 28  2  0
 28  4  1  0
 26  8  1  0
 25 11  1  0
  1 29  1  0
  1 30  1  0
  1 31  1  0
  3 32  1  0
  3 33  1  0
  3 34  1  0
  6 35  1  0
  9 36  1  0
 10 37  1  0
 12 38  1  0
 15 39  1  0
 15 40  1  0
 21 41  1  0
 21 42  1  0
 22 43  1  0
 22 44  1  0
 23 45  1  0
 23 46  1  0
 24 47  1  0
 26 48  1  0
 27 49  1  0
M  END
>  <UniqueID>  (36) 
36

>  <SMILES>  (36) 
CN(C)c1ncc(-c2ccc3cc(C(N)=O)n(C(=O)OCCCO)c3c2)cn1

>  <Energy>  (36) 
88.61605127963283

>  <Genealogy>  (36) 
CN(C)c1ncc(-c2ccc3cc(C(N)=O)n(C(=O)OCCCO)c3c2)cn1 (3D coordinates assigned)
CN(C)c1ncc(-c2ccc3cc(C(N)=O)n(C(=O)OCCCO)c3c2)cn1 (optimized conformer: 88.61605127963283 kcal/mol)

>  <smiles>  (36) 
CN(C)c1ncc(-c2ccc3cc(C(N)=O)n(C(=O)OCCCO)c3c2)cn1

>  <score_type>  (36) 
oracle

>  <origin>  (36) 
adg

>  <m_score__min__energy>  (36) 
-9.6999999999999993

>  <m_primary>  (36) 
energy

$$$$
36:0
     RDKit          3D

 42 45  0  0  0  0  0  0  0  0999 V2000
   -3.8950   25.5240  -30.8390 N   0  0  0  0  0  0  0  0  0  0  0  0
   -5.1150   24.9400  -30.3850 C   0  0  0  0  0  0  0  0  0  0  0  0
   -5.7720   25.5140  -29.4770 O   0  0  0  0  0  0  0  0  0  0  0  0
   -5.6130   23.6980  -31.0120 C   0  0  0  0  0  0  0  0  0  0  0  0
   -6.9640   23.3720  -31.1050 C   0  0  0  0  0  0  0  0  0  0  0  0
   -6.9990   22.1130  -31.6600 C   0  0  0  0  0  0  0  0  0  0  0  0
   -8.0840   21.3070  -31.9830 C   0  0  0  0  0  0  0  0  0  0  0  0
   -7.8270   20.0580  -32.5700 C   0  0  0  0  0  0  0  0  0  0  0  0
   -6.4970   19.6360  -32.8300 C   0  0  0  0  0  0  0  0  0  0  0  0
   -6.2630   18.3180  -33.4590 C   0  0  0  0  0  0  0  0  0  0  0  0
   -5.1640   17.9140  -34.2030 C   0  0  0  0  0  0  0  0  0  0  0  0
   -5.3630   16.6400  -34.5810 N   0  0  0  0  0  0  0  0  0  0  0  0
   -6.5600   16.3180  -34.0610 C   0  0  0  0  0  0  0  0  0  0  0  0
   -7.1730   15.0400  -34.2180 N   0  0  0  0  0  0  0  0  0  0  0  0
   -7.1030   17.3080  -33.3920 O   0  0  0  0  0  0  0  0  0  0  0  0
   -5.4190   20.4870  -32.4870 C   0  0  0  0  0  0  0  0  0  0  0  0
   -5.7060   21.7190  -31.8860 C   0  0  0  0  0  0  0  0  0  0  0  0
   -4.8430   22.6830  -31.4980 N   0  0  0  0  0  0  0  0  0  0  0  0
   -3.4130   22.6460  -31.6260 C   0  0  0  0  0  0  0  0  0  0  0  0
   -2.8880   22.1100  -32.6400 O   0  0  0  0  0  0  0  0  0  0  0  0
   -2.6130   23.1690  -30.6040 O   0  0  0  0  0  0  0  0  0  0  0  0
   -2.5790   22.6520  -29.2760 C   0  0  0  0  0  0  0  0  0  0  0  0
   -1.8420   23.6260  -28.3450 C   0  0  0  0  0  0  0  0  0  0  0  0
   -2.5690   24.9220  -28.0560 C   0  0  0  0  0  0  0  0  0  0  0  0
   -1.6050   25.6930  -28.7320 O   0  0  0  0  0  0  0  0  0  0  0  0
   -0.8710   24.5390  -29.0590 C   0  0  0  0  0  0  0  0  0  0  0  0
   -2.9870   25.3000  -30.3740 H   0  0  0  0  0  0  0  0  0  0  0  0
   -7.8213   23.9899  -30.7996 H   0  0  0  0  0  0  0  0  0  0  0  0
   -9.1141   21.6380  -31.7845 H   0  0  0  0  0  0  0  0  0  0  0  0
   -8.6671   19.3979  -32.8318 H   0  0  0  0  0  0  0  0  0  0  0  0
   -4.2837   18.5290  -34.4417 H   0  0  0  0  0  0  0  0  0  0  0  0
   -4.7280   16.0370  -35.1510 H   0  0  0  0  0  0  0  0  0  0  0  0
   -7.9820   14.9230  -34.8670 H   0  0  0  0  0  0  0  0  0  0  0  0
   -6.8180   14.2150  -33.6860 H   0  0  0  0  0  0  0  0  0  0  0  0
   -4.3798   20.1875  -32.6879 H   0  0  0  0  0  0  0  0  0  0  0  0
   -3.6084   22.5125  -28.9142 H   0  0  0  0  0  0  0  0  0  0  0  0
   -2.0479   21.6887  -29.2799 H   0  0  0  0  0  0  0  0  0  0  0  0
   -1.5629   22.9012  -27.5660 H   0  0  0  0  0  0  0  0  0  0  0  0
   -3.5692   24.9741  -28.5109 H   0  0  0  0  0  0  0  0  0  0  0  0
   -2.8149   25.1728  -27.0136 H   0  0  0  0  0  0  0  0  0  0  0  0
   -0.8093   24.3517  -30.1412 H   0  0  0  0  0  0  0  0  0  0  0  0
    0.1948   24.4942  -28.7906 H   0  0  0  0  0  0  0  0  0  0  0  0
  1  2  1  0
  2  3  2  0
  2  4  1  0
  4  5  2  0
  5  6  1  0
  6  7  2  0
  7  8  1  0
  8  9  2  0
  9 10  1  0
 10 11  2  0
 11 12  1  0
 12 13  2  0
 13 14  1  0
 13 15  1  0
  9 16  1  0
 16 17  2  0
 17 18  1  0
 18 19  1  0
 19 20  2  0
 19 21  1  0
 21 22  1  0
 22 23  1  0
 23 24  1  0
 24 25  1  0
 25 26  1  0
 18  4  1  0
 26 23  1  0
 17  6  1  0
 15 10  1  0
  1 27  1  0
  5 28  1  0
  7 29  1  0
  8 30  1  0
 11 31  1  0
 12 32  1  0
 14 33  1  0
 14 34  1  0
 16 35  1  0
 22 36  1  0
 22 37  1  0
 23 38  1  0
 24 39  1  0
 24 40  1  0
 26 41  1  0
 26 42  1  0
M  CHG  2   1  -1  12   1
M  END
>  <UniqueID>  (37) 
37

>  <SMILES>  (37) 
[NH-]C(=O)c1cc2ccc(-c3c[nH+]c(N)o3)cc2n1C(=O)OCC1COC1

>  <Energy>  (37) 
176.2722888750113

>  <Genealogy>  (37) 
[NH-]C(=O)c1cc2ccc(-c3c[nH+]c(N)o3)cc2n1C(=O)OCC1COC1 (protonated)
[NH-]C(=O)c1cc2ccc(-c3c[nH+]c(N)o3)cc2n1C(=O)OCC1COC1 (3D coordinates assigned)
[NH-]C(=O)c1cc2ccc(-c3c[nH+]c(N)o3)cc2n1C(=O)OCC1COC1 (nonaromatic ring conformer: 176.2722888750113 kcal/mol)

>  <smiles>  (37) 
NC(=O)c1cc2ccc(-c3cnc(N)o3)cc2n1C(=O)OCC1COC1

>  <score_type>  (37) 
oracle

>  <origin>  (37) 
adg

>  <m_score__min__energy>  (37) 
-9.9100000000000001

>  <m_primary>  (37) 
energy

$$$$
37:0
     RDKit          3D

 43 44  0  0  0  0  0  0  0  0999 V2000
   -6.1550   17.4330  -31.1370 C   0  0  0  0  0  0  0  0  0  0  0  0
   -6.1030   16.8390  -32.5350 C   0  0  0  0  0  0  0  0  0  0  0  0
   -6.7540   17.7160  -33.4490 O   0  0  0  0  0  0  0  0  0  0  0  0
   -6.1030   18.8000  -34.0460 C   0  0  0  0  0  0  0  0  0  0  0  0
   -5.4280   18.6380  -35.1020 O   0  0  0  0  0  0  0  0  0  0  0  0
   -6.2640   20.1710  -33.4490 C   0  0  0  0  0  0  0  0  0  0  0  0
   -7.5100   20.2640  -32.6000 C   0  0  0  0  0  0  0  0  0  0  0  0
   -8.6270   19.9540  -33.1000 O   0  0  0  0  0  0  0  0  0  0  0  0
   -7.4340   20.7330  -31.2840 O   0  0  0  0  0  0  0  0  0  0  0  0
   -8.1230   21.8950  -30.8360 C   0  0  0  0  0  0  0  0  0  0  0  0
   -8.0920   22.9530  -31.9270 C   0  0  0  0  0  0  0  0  0  0  0  0
   -5.0120   20.5500  -32.6820 C   0  0  0  0  0  0  0  0  0  0  0  0
   -3.9360   19.6310  -32.5880 C   0  0  0  0  0  0  0  0  0  0  0  0
   -2.7740   19.9580  -31.8680 C   0  0  0  0  0  0  0  0  0  0  0  0
   -2.7120   21.2080  -31.2620 C   0  0  0  0  0  0  0  0  0  0  0  0
   -1.7210   21.7630  -30.4850 C   0  0  0  0  0  0  0  0  0  0  0  0
   -2.1900   23.0270  -30.1400 C   0  0  0  0  0  0  0  0  0  0  0  0
   -1.4040   23.9980  -29.3540 C   0  0  0  0  0  0  0  0  0  0  0  0
   -2.0330   25.0980  -28.6940 N   0  0  0  0  0  0  0  0  0  0  0  0
   -0.1500   23.8880  -29.3110 O   0  0  0  0  0  0  0  0  0  0  0  0
   -3.4280   23.2430  -30.6680 N   0  0  0  0  0  0  0  0  0  0  0  0
   -4.2860   24.3770  -30.4520 C   0  0  0  0  0  0  0  0  0  0  0  0
   -5.4230   24.2240  -29.9320 O   0  0  0  0  0  0  0  0  0  0  0  0
   -3.8720   25.6530  -30.8170 O   0  0  0  0  0  0  0  0  0  0  0  0
   -3.7330   22.1180  -31.3550 C   0  0  0  0  0  0  0  0  0  0  0  0
   -4.9130   21.8090  -32.0420 C   0  0  0  0  0  0  0  0  0  0  0  0
   -6.0844   16.6260  -30.3929 H   0  0  0  0  0  0  0  0  0  0  0  0
   -5.3144   18.1298  -31.0032 H   0  0  0  0  0  0  0  0  0  0  0  0
   -7.1039   17.9731  -31.0032 H   0  0  0  0  0  0  0  0  0  0  0  0
   -5.0539   16.7066  -32.8382 H   0  0  0  0  0  0  0  0  0  0  0  0
   -6.6118   15.8638  -32.5377 H   0  0  0  0  0  0  0  0  0  0  0  0
   -6.3949   20.8991  -34.2631 H   0  0  0  0  0  0  0  0  0  0  0  0
   -9.1670   21.6364  -30.6052 H   0  0  0  0  0  0  0  0  0  0  0  0
   -7.6342   22.2859  -29.9314 H   0  0  0  0  0  0  0  0  0  0  0  0
   -8.0627   23.9522  -31.4680 H   0  0  0  0  0  0  0  0  0  0  0  0
   -7.1977   22.8099  -32.5512 H   0  0  0  0  0  0  0  0  0  0  0  0
   -8.9932   22.8625  -32.5512 H   0  0  0  0  0  0  0  0  0  0  0  0
   -4.0116   18.6520  -33.0838 H   0  0  0  0  0  0  0  0  0  0  0  0
   -1.9390   19.2466  -31.7864 H   0  0  0  0  0  0  0  0  0  0  0  0
   -0.7628   21.3053  -30.1979 H   0  0  0  0  0  0  0  0  0  0  0  0
   -3.0420   25.3140  -28.8500 H   0  0  0  0  0  0  0  0  0  0  0  0
   -1.4650   25.7520  -28.1110 H   0  0  0  0  0  0  0  0  0  0  0  0
   -5.7444   22.5281  -32.0836 H   0  0  0  0  0  0  0  0  0  0  0  0
  1  2  1  0
  2  3  1  0
  3  4  1  0
  4  5  2  0
  4  6  1  0
  6  7  1  0
  7  8  2  0
  7  9  1  0
  9 10  1  0
 10 11  1  0
  6 12  1  0
 12 13  2  0
 13 14  1  0
 14 15  2  0
 15 16  1  0
 16 17  2  0
 17 18  1  0
 18 19  1  0
 18 20  2  0
 17 21  1  0
 21 22  1  0
 22 23  2  0
 22 24  1  0
 21 25  1  0
 25 26  2  0
 26 12  1  0
 25 15  1  0
  1 27  1  0
  1 28  1  0
  1 29  1  0
  2 30  1  0
  2 31  1  0
  6 32  1  0
 10 33  1  0
 10 34  1  0
 11 35  1  0
 11 36  1  0
 11 37  1  0
 13 38  1  0
 14 39  1  0
 16 40  1  0
 19 41  1  0
 19 42  1  0
 26 43  1  0
M  CHG  1  24  -1
M  END
>  <UniqueID>  (38) 
38

>  <SMILES>  (38) 
CCOC(=O)C(C(=O)OCC)c1ccc2cc(C(N)=O)n(C(=O)[O-])c2c1

>  <Energy>  (38) 
73.18827658888156

>  <Genealogy>  (38) 
CCOC(=O)C(C(=O)OCC)c1ccc2cc(C(N)=O)n(C(=O)[O-])c2c1 (protonated)
CCOC(=O)C(C(=O)OCC)c1ccc2cc(C(N)=O)n(C(=O)[O-])c2c1 (3D coordinates assigned)
CCOC(=O)C(C(=O)OCC)c1ccc2cc(C(N)=O)n(C(=O)[O-])c2c1 (optimized conformer: 73.18827658888156 kcal/mol)

>  <smiles>  (38) 
CCOC(=O)C(C(=O)OCC)c1ccc2cc(C(N)=O)n(C(=O)O)c2c1

>  <score_type>  (38) 
oracle

>  <origin>  (38) 
adg

>  <m_score__min__energy>  (38) 
-8.5099999999999998

>  <m_primary>  (38) 
energy

$$$$
38:0
     RDKit          3D

 47 49  0  0  0  0  0  0  0  0999 V2000
   -2.0570   25.6730  -29.8980 H   0  0  0  0  0  0  0  0  0  0  0  0
   -2.3520   25.5000  -28.9660 O   0  0  0  0  0  0  0  0  0  0  0  0
   -1.5320   24.4760  -28.4690 C   0  0  0  0  0  0  0  0  0  0  0  0
   -1.9455   24.1111  -27.5172 H   0  0  0  0  0  0  0  0  0  0  0  0
   -0.5188   24.8754  -28.3144 H   0  0  0  0  0  0  0  0  0  0  0  0
   -1.4610   23.3380  -29.4450 C   0  0  0  0  0  0  0  0  0  0  0  0
   -0.9465   23.4829  -30.4064 H   0  0  0  0  0  0  0  0  0  0  0  0
   -2.0130   22.1480  -29.1670 C   0  0  0  0  0  0  0  0  0  0  0  0
   -2.5294   22.0080  -28.2059 H   0  0  0  0  0  0  0  0  0  0  0  0
   -1.9440   21.0000  -30.1360 C   0  0  0  0  0  0  0  0  0  0  0  0
   -1.6327   20.0912  -29.6000 H   0  0  0  0  0  0  0  0  0  0  0  0
   -1.2159   21.2413  -30.9244 H   0  0  0  0  0  0  0  0  0  0  0  0
   -3.2190   20.7790  -30.7350 O   0  0  0  0  0  0  0  0  0  0  0  0
   -3.8780   21.7360  -31.5140 C   0  0  0  0  0  0  0  0  0  0  0  0
   -3.2850   22.2840  -32.4820 O   0  0  0  0  0  0  0  0  0  0  0  0
   -5.2400   22.0880  -31.2130 N   0  0  0  0  0  0  0  0  0  0  0  0
   -5.6900   23.2530  -30.6660 C   0  0  0  0  0  0  0  0  0  0  0  0
   -4.8480   24.3340  -30.1180 C   0  0  0  0  0  0  0  0  0  0  0  0
   -3.9340   24.8280  -30.8310 O   0  0  0  0  0  0  0  0  0  0  0  0
   -5.0930   24.8770  -28.8190 N   0  0  0  0  0  0  0  0  0  0  0  0
   -4.4670   25.6170  -28.4320 H   0  0  0  0  0  0  0  0  0  0  0  0
   -5.9350   24.5960  -28.2700 H   0  0  0  0  0  0  0  0  0  0  0  0
   -7.0810   23.2780  -30.6340 C   0  0  0  0  0  0  0  0  0  0  0  0
   -7.7255   24.0874  -30.2604 H   0  0  0  0  0  0  0  0  0  0  0  0
   -7.4780   22.0750  -31.1690 C   0  0  0  0  0  0  0  0  0  0  0  0
   -8.7580   21.5760  -31.3900 C   0  0  0  0  0  0  0  0  0  0  0  0
   -9.6488   22.1526  -31.1003 H   0  0  0  0  0  0  0  0  0  0  0  0
   -8.8780   20.3140  -31.9940 C   0  0  0  0  0  0  0  0  0  0  0  0
   -9.8763   19.8898  -32.1769 H   0  0  0  0  0  0  0  0  0  0  0  0
   -7.7240   19.5820  -32.3700 C   0  0  0  0  0  0  0  0  0  0  0  0
   -7.8650   18.2560  -33.0730 C   0  0  0  0  0  0  0  0  0  0  0  0
   -8.8563   17.8355  -32.8482 H   0  0  0  0  0  0  0  0  0  0  0  0
   -7.7475   18.4234  -34.1538 H   0  0  0  0  0  0  0  0  0  0  0  0
   -6.7880   17.2640  -32.6190 C   0  0  0  0  0  0  0  0  0  0  0  0
   -6.6068   17.3968  -31.5422 H   0  0  0  0  0  0  0  0  0  0  0  0
   -7.1407   16.2428  -32.8259 H   0  0  0  0  0  0  0  0  0  0  0  0
   -5.5390   17.4830  -33.3450 N   0  0  0  0  0  0  0  0  0  0  0  0
   -4.3920   17.7940  -32.7640 N   0  0  0  0  0  0  0  0  0  0  0  0
   -3.4840   17.9850  -33.7400 C   0  0  0  0  0  0  0  0  0  0  0  0
   -2.4280   18.2487  -33.5810 H   0  0  0  0  0  0  0  0  0  0  0  0
   -4.0820   17.7990  -34.9720 C   0  0  0  0  0  0  0  0  0  0  0  0
   -3.6152   17.8832  -35.9645 H   0  0  0  0  0  0  0  0  0  0  0  0
   -5.3910   17.4850  -34.6830 C   0  0  0  0  0  0  0  0  0  0  0  0
   -6.1803   17.2723  -35.4190 H   0  0  0  0  0  0  0  0  0  0  0  0
   -6.4410   20.1250  -32.1410 C   0  0  0  0  0  0  0  0  0  0  0  0
   -5.5355   19.5807  -32.4474 H   0  0  0  0  0  0  0  0  0  0  0  0
   -6.3500   21.3740  -31.5140 C   0  0  0  0  0  0  0  0  0  0  0  0
  1  2  1  0
  2  3  1  0
  3  4  1  0
  3  5  1  0
  3  6  1  0
  6  7  1  0
  6  8  2  0
  8  9  1  0
  8 10  1  0
 10 11  1  0
 10 12  1  0
 10 13  1  0
 13 14  1  0
 14 15  2  0
 14 16  1  0
 16 17  1  0
 17 18  1  0
 18 19  2  0
 18 20  1  0
 20 21  1  0
 20 22  1  0
 17 23  2  0
 23 24  1  0
 23 25  1  0
 25 26  2  0
 26 27  1  0
 26 28  1  0
 28 29  1  0
 28 30  2  0
 30 31  1  0
 31 32  1  0
 31 33  1  0
 31 34  1  0
 34 35  1  0
 34 36  1  0
 34 37  1  0
 37 38  1  0
 38 39  2  0
 39 40  1  0
 39 41  1  0
 41 42  1  0
 41 43  2  0
 43 44  1  0
 30 45  1  0
 45 46  1  0
 45 47  2  0
 47 16  1  0
 47 25  1  0
 43 37  1  0
M  END
>  <UniqueID>  (39) 
39

>  <SMILES>  (39) 
NC(=O)c1cc2ccc(CCn3cccn3)cc2n1C(=O)OC/C=C/CO

>  <Energy>  (39) 
107.3767112785168

>  <Genealogy>  (39) 
NC(=O)c1cc2ccc(CCn3cccn3)cc2n1C(=O)OC/C=C/CO (cis-trans isomerization)
NC(=O)c1cc2ccc(CCn3cccn3)cc2n1C(=O)OC/C=C/CO (3D coordinates assigned)
NC(=O)c1cc2ccc(CCn3cccn3)cc2n1C(=O)OC/C=C/CO (optimized conformer: 107.3767112785168 kcal/mol)

>  <smiles>  (39) 
NC(=O)c1cc2ccc(CCn3cccn3)cc2n1C(=O)OC/C=C/CO

>  <score_type>  (39) 
oracle

>  <origin>  (39) 
adg

>  <m_score__min__energy>  (39) 
-9.5600000000000005

>  <m_primary>  (39) 
energy

$$$$
39:0
     RDKit          3D

 44 45  0  0  0  0  0  0  0  0999 V2000
   -1.4810   25.7270  -26.9790 C   0  0  0  0  0  0  0  0  0  0  0  0
   -1.8990   24.8390  -27.8930 C   0  0  0  0  0  0  0  0  0  0  0  0
   -0.9090   24.1540  -28.7910 C   0  0  0  0  0  0  0  0  0  0  0  0
   -1.5620   23.7390  -30.0420 N   0  0  0  0  0  0  0  0  0  0  0  0
   -1.1790   22.3820  -30.4610 C   0  0  0  0  0  0  0  0  0  0  0  0
   -1.9650   21.9190  -31.6590 C   0  0  0  0  0  0  0  0  0  0  0  0
   -3.3030   21.8660  -31.7510 C   0  0  0  0  0  0  0  0  0  0  0  0
   -4.2670   22.1960  -30.6790 C   0  0  0  0  0  0  0  0  0  0  0  0
   -3.9040   22.0510  -29.4820 O   0  0  0  0  0  0  0  0  0  0  0  0
   -5.5810   22.7060  -30.9520 N   0  0  0  0  0  0  0  0  0  0  0  0
   -6.0170   23.9960  -30.8920 C   0  0  0  0  0  0  0  0  0  0  0  0
   -5.2190   25.1630  -30.4620 C   0  0  0  0  0  0  0  0  0  0  0  0
   -3.8490   25.2920  -30.8300 N   0  0  0  0  0  0  0  0  0  0  0  0
   -5.7450   26.0420  -29.7290 O   0  0  0  0  0  0  0  0  0  0  0  0
   -7.3620   24.0710  -31.2520 C   0  0  0  0  0  0  0  0  0  0  0  0
   -7.7460   22.7740  -31.5080 C   0  0  0  0  0  0  0  0  0  0  0  0
   -8.9760   22.2620  -31.9090 C   0  0  0  0  0  0  0  0  0  0  0  0
   -9.0770   20.8760  -32.1150 C   0  0  0  0  0  0  0  0  0  0  0  0
   -7.9560   20.0310  -31.9150 C   0  0  0  0  0  0  0  0  0  0  0  0
   -8.0800   18.5540  -32.1570 C   0  0  0  0  0  0  0  0  0  0  0  0
   -7.1950   17.8730  -31.3420 F   0  0  0  0  0  0  0  0  0  0  0  0
   -9.3700   18.1430  -31.8760 F   0  0  0  0  0  0  0  0  0  0  0  0
   -6.7250   20.5870  -31.5040 C   0  0  0  0  0  0  0  0  0  0  0  0
   -6.6550   21.9690  -31.3060 C   0  0  0  0  0  0  0  0  0  0  0  0
   -3.2560   24.5140  -28.0570 O   0  0  0  0  0  0  0  0  0  0  0  0
   -4.2260   24.5150  -27.0150 C   0  0  0  0  0  0  0  0  0  0  0  0
   -2.2099   26.2261  -26.3236 H   0  0  0  0  0  0  0  0  0  0  0  0
   -0.4093   25.9562  -26.8848 H   0  0  0  0  0  0  0  0  0  0  0  0
   -0.0874   24.8478  -29.0225 H   0  0  0  0  0  0  0  0  0  0  0  0
   -0.5150   23.2639  -28.2788 H   0  0  0  0  0  0  0  0  0  0  0  0
   -2.5950   23.7260  -29.8690 H   0  0  0  0  0  0  0  0  0  0  0  0
   -0.1087   22.3775  -30.7150 H   0  0  0  0  0  0  0  0  0  0  0  0
   -1.3930   21.6960  -29.6282 H   0  0  0  0  0  0  0  0  0  0  0  0
   -1.3902   21.5946  -32.5390 H   0  0  0  0  0  0  0  0  0  0  0  0
   -3.7228   21.5465  -32.7162 H   0  0  0  0  0  0  0  0  0  0  0  0
   -3.0970   25.2970  -30.1060 H   0  0  0  0  0  0  0  0  0  0  0  0
   -7.9847   24.9754  -31.3176 H   0  0  0  0  0  0  0  0  0  0  0  0
   -9.8428   22.9222  -32.0601 H   0  0  0  0  0  0  0  0  0  0  0  0
  -10.0357   20.4417  -32.4348 H   0  0  0  0  0  0  0  0  0  0  0  0
   -7.8478   18.3401  -33.2107 H   0  0  0  0  0  0  0  0  0  0  0  0
   -5.8434   19.9489  -31.3437 H   0  0  0  0  0  0  0  0  0  0  0  0
   -3.7167   24.5145  -26.0400 H   0  0  0  0  0  0  0  0  0  0  0  0
   -4.8545   25.4138  -27.0999 H   0  0  0  0  0  0  0  0  0  0  0  0
   -4.8563   23.6175  -27.0999 H   0  0  0  0  0  0  0  0  0  0  0  0
  1  2  2  0
  2  3  1  0
  3  4  1  0
  4  5  1  0
  5  6  1  0
  6  7  2  3
  7  8  1  0
  8  9  2  0
  8 10  1  0
 10 11  1  0
 11 12  1  0
 12 13  1  0
 12 14  2  0
 11 15  2  0
 15 16  1  0
 16 17  2  0
 17 18  1  0
 18 19  2  0
 19 20  1  0
 20 21  1  0
 20 22  1  0
 19 23  1  0
 23 24  2  0
  2 25  1  0
 25 26  1  0
 24 10  1  0
 24 16  1  0
  1 27  1  0
  1 28  1  0
  3 29  1  0
  3 30  1  0
  4 31  1  0
  5 32  1  0
  5 33  1  0
  6 34  1  0
  7 35  1  0
 13 36  1  0
 15 37  1  0
 17 38  1  0
 18 39  1  0
 20 40  1  0
 23 41  1  0
 26 42  1  0
 26 43  1  0
 26 44  1  0
M  CHG  1  13  -1
M  END
>  <UniqueID>  (40) 
40

>  <SMILES>  (40) 
C=C(CNCC=CC(=O)n1c(C([NH-])=O)cc2ccc(C(F)F)cc21)OC

>  <Energy>  (40) 
80.31826876444852

>  <Genealogy>  (40) 
C=C(CNCC=CC(=O)n1c(C([NH-])=O)cc2ccc(C(F)F)cc21)OC (protonated)
C=C(CNCC=CC(=O)n1c(C([NH-])=O)cc2ccc(C(F)F)cc21)OC (3D coordinates assigned)
C=C(CNCC=CC(=O)n1c(C([NH-])=O)cc2ccc(C(F)F)cc21)OC (optimized conformer: 80.31826876444852 kcal/mol)

>  <smiles>  (40) 
C=C(CNCC=CC(=O)n1c(C(N)=O)cc2ccc(C(F)F)cc21)OC

>  <score_type>  (40) 
oracle

>  <origin>  (40) 
adg

>  <m_score__min__energy>  (40) 
-10.43

>  <m_primary>  (40) 
energy

$$$$
40:0
     RDKit          3D

 34 36  0  0  0  0  0  0  0  0999 V2000
   -3.8780   24.2160  -27.3760 C   0  0  0  0  0  0  0  0  0  0  0  0
   -2.8640   23.8510  -28.1650 C   0  0  0  0  0  0  0  0  0  0  0  0
   -2.9740   22.6930  -29.1160 C   0  0  0  0  0  0  0  0  0  0  0  0
   -2.8360   23.1450  -30.4600 O   0  0  0  0  0  0  0  0  0  0  0  0
   -3.6460   22.6920  -31.5090 C   0  0  0  0  0  0  0  0  0  0  0  0
   -3.1320   22.1480  -32.5230 O   0  0  0  0  0  0  0  0  0  0  0  0
   -5.0730   22.8250  -31.4130 N   0  0  0  0  0  0  0  0  0  0  0  0
   -5.7850   23.9110  -30.9980 C   0  0  0  0  0  0  0  0  0  0  0  0
   -5.2250   25.1420  -30.4000 C   0  0  0  0  0  0  0  0  0  0  0  0
   -3.9780   25.6710  -30.8430 N   0  0  0  0  0  0  0  0  0  0  0  0
   -5.8320   25.7060  -29.4520 O   0  0  0  0  0  0  0  0  0  0  0  0
   -7.1520   23.6780  -31.1320 C   0  0  0  0  0  0  0  0  0  0  0  0
   -7.2570   22.4030  -31.6370 C   0  0  0  0  0  0  0  0  0  0  0  0
   -8.3860   21.6630  -31.9730 C   0  0  0  0  0  0  0  0  0  0  0  0
   -8.1980   20.3760  -32.5020 C   0  0  0  0  0  0  0  0  0  0  0  0
   -6.8920   19.8540  -32.6940 C   0  0  0  0  0  0  0  0  0  0  0  0
   -6.7070   18.5020  -33.2620 C   0  0  0  0  0  0  0  0  0  0  0  0
   -5.9620   18.2430  -34.3570 N   0  0  0  0  0  0  0  0  0  0  0  0
   -6.0960   16.9070  -34.4790 C   0  0  0  0  0  0  0  0  0  0  0  0
   -6.8750   16.3830  -33.5160 N   0  0  0  0  0  0  0  0  0  0  0  0
   -7.2600   17.3870  -32.7480 N   0  0  0  0  0  0  0  0  0  0  0  0
   -5.7700   20.6370  -32.3400 C   0  0  0  0  0  0  0  0  0  0  0  0
   -5.9890   21.9100  -31.7980 C   0  0  0  0  0  0  0  0  0  0  0  0
   -3.7626   25.0692  -26.6913 H   0  0  0  0  0  0  0  0  0  0  0  0
   -4.8285   23.6634  -27.4109 H   0  0  0  0  0  0  0  0  0  0  0  0
   -1.9207   24.4147  -28.1172 H   0  0  0  0  0  0  0  0  0  0  0  0
   -2.1803   21.9643  -28.8945 H   0  0  0  0  0  0  0  0  0  0  0  0
   -3.9607   22.2221  -28.9953 H   0  0  0  0  0  0  0  0  0  0  0  0
   -3.0750   25.2900  -30.4830 H   0  0  0  0  0  0  0  0  0  0  0  0
   -7.9731   24.3674  -30.8861 H   0  0  0  0  0  0  0  0  0  0  0  0
   -9.3961   22.0739  -31.8285 H   0  0  0  0  0  0  0  0  0  0  0  0
   -9.0726   19.7654  -32.7707 H   0  0  0  0  0  0  0  0  0  0  0  0
   -5.6224   16.3136  -35.2750 H   0  0  0  0  0  0  0  0  0  0  0  0
   -4.7487   20.2557  -32.4866 H   0  0  0  0  0  0  0  0  0  0  0  0
  1  2  2  0
  2  3  1  0
  3  4  1  0
  4  5  1  0
  5  6  2  0
  5  7  1  0
  7  8  1  0
  8  9  1  0
  9 10  1  0
  9 11  2  0
  8 12  2  0
 12 13  1  0
 13 14  2  0
 14 15  1  0
 15 16  2  0
 16 17  1  0
 17 18  2  0
 18 19  1  0
 19 20  2  0
 20 21  1  0
 16 22  1  0
 22 23  2  0
 23  7  1  0
 23 13  1  0
 21 17  1  0
  1 24  1  0
  1 25  1  0
  2 26  1  0
  3 27  1  0
  3 28  1  0
 10 29  1  0
 12 30  1  0
 14 31  1  0
 15 32  1  0
 19 33  1  0
 22 34  1  0
M  CHG  2  10  -1  21  -1
M  END
>  <UniqueID>  (41) 
41

>  <SMILES>  (41) 
C=CCOC(=O)n1c(C([NH-])=O)cc2ccc(-c3ncn[n-]3)cc21

>  <Energy>  (41) 
104.47253347540872

>  <Genealogy>  (41) 
C=CCOC(=O)n1c(C([NH-])=O)cc2ccc(-c3ncn[n-]3)cc21 (protonated)
C=CCOC(=O)n1c(C([NH-])=O)cc2ccc(-c3ncn[n-]3)cc21 (3D coordinates assigned)
C=CCOC(=O)n1c(C([NH-])=O)cc2ccc(-c3ncn[n-]3)cc21 (optimized conformer: 104.47253347540872 kcal/mol)

>  <smiles>  (41) 
C=CCOC(=O)n1c(C(N)=O)cc2ccc(-c3ncn[nH]3)cc21

>  <score_type>  (41) 
oracle

>  <origin>  (41) 
adg

>  <m_score__min__energy>  (41) 
-9.9600000000000009

>  <m_primary>  (41) 
energy

$$$$
41:0
     RDKit          3D

 47 48  0  0  0  0  0  0  0  0999 V2000
   -3.1180   25.2540  -30.1520 H   0  0  0  0  0  0  0  0  0  0  0  0
   -3.8710   25.3100  -30.8750 N   0  0  0  0  0  0  0  0  0  0  0  0
   -5.2270   25.0300  -30.5420 C   0  0  0  0  0  0  0  0  0  0  0  0
   -5.8300   25.7810  -29.7260 O   0  0  0  0  0  0  0  0  0  0  0  0
   -5.9180   23.8430  -31.0900 C   0  0  0  0  0  0  0  0  0  0  0  0
   -7.3050   23.7220  -31.1420 C   0  0  0  0  0  0  0  0  0  0  0  0
   -8.0511   24.4822  -30.8674 H   0  0  0  0  0  0  0  0  0  0  0  0
   -7.5440   22.4490  -31.6100 C   0  0  0  0  0  0  0  0  0  0  0  0
   -8.7470   21.7940  -31.8470 C   0  0  0  0  0  0  0  0  0  0  0  0
   -9.7098   22.2904  -31.6554 H   0  0  0  0  0  0  0  0  0  0  0  0
   -8.6960   20.4780  -32.3390 C   0  0  0  0  0  0  0  0  0  0  0  0
   -9.6308   19.9282  -32.5231 H   0  0  0  0  0  0  0  0  0  0  0  0
   -7.4500   19.8530  -32.6000 C   0  0  0  0  0  0  0  0  0  0  0  0
   -7.4050   18.4300  -33.0920 C   0  0  0  0  0  0  0  0  0  0  0  0
   -8.3151   18.2297  -33.6765 H   0  0  0  0  0  0  0  0  0  0  0  0
   -7.3375   17.7737  -32.2119 H   0  0  0  0  0  0  0  0  0  0  0  0
   -6.1990   18.1570  -33.9630 C   0  0  0  0  0  0  0  0  0  0  0  0
   -6.0430   18.8080  -35.0340 O   0  0  0  0  0  0  0  0  0  0  0  0
   -5.2330   17.1440  -33.6030 N   0  0  0  0  0  0  0  0  0  0  0  0
   -4.0860   16.9060  -34.4850 C   0  0  0  0  0  0  0  0  0  0  0  0
   -3.1884   16.7198  -33.8770 H   0  0  0  0  0  0  0  0  0  0  0  0
   -4.2871   16.0304  -35.1198 H   0  0  0  0  0  0  0  0  0  0  0  0
   -3.9221   17.7893  -35.1198 H   0  0  0  0  0  0  0  0  0  0  0  0
   -5.3940   16.3550  -32.3760 C   0  0  0  0  0  0  0  0  0  0  0  0
   -5.2609   17.0074  -31.5004 H   0  0  0  0  0  0  0  0  0  0  0  0
   -6.4009   15.9127  -32.3540 H   0  0  0  0  0  0  0  0  0  0  0  0
   -4.6409   15.5535  -32.3540 H   0  0  0  0  0  0  0  0  0  0  0  0
   -6.2480   20.5480  -32.3390 C   0  0  0  0  0  0  0  0  0  0  0  0
   -5.2721   20.0783  -32.5311 H   0  0  0  0  0  0  0  0  0  0  0  0
   -6.3300   21.8490  -31.8300 C   0  0  0  0  0  0  0  0  0  0  0  0
   -5.3220   22.6930  -31.5200 N   0  0  0  0  0  0  0  0  0  0  0  0
   -3.9200   22.4250  -31.6720 C   0  0  0  0  0  0  0  0  0  0  0  0
   -3.4490   22.1460  -32.8100 O   0  0  0  0  0  0  0  0  0  0  0  0
   -3.0850   22.4580  -30.5520 O   0  0  0  0  0  0  0  0  0  0  0  0
   -3.0920   21.4430  -29.5530 C   0  0  0  0  0  0  0  0  0  0  0  0
   -3.9112   20.7373  -29.7554 H   0  0  0  0  0  0  0  0  0  0  0  0
   -2.1300   20.9099  -29.5708 H   0  0  0  0  0  0  0  0  0  0  0  0
   -3.2940   22.0730  -28.1740 C   0  0  0  0  0  0  0  0  0  0  0  0
   -4.3724   22.1502  -27.9710 H   0  0  0  0  0  0  0  0  0  0  0  0
   -2.7992   21.4343  -27.4275 H   0  0  0  0  0  0  0  0  0  0  0  0
   -2.6840   23.4440  -28.0990 C   0  0  0  0  0  0  0  0  0  0  0  0
   -3.2263   24.2461  -27.5769 H   0  0  0  0  0  0  0  0  0  0  0  0
   -1.4960   23.7110  -28.6530 C   0  0  0  0  0  0  0  0  0  0  0  0
   -0.9591   22.9022  -29.1704 H   0  0  0  0  0  0  0  0  0  0  0  0
   -0.8810   25.0460  -28.5960 C   0  0  0  0  0  0  0  0  0  0  0  0
   -1.5140   26.0710  -28.9660 O   0  0  0  0  0  0  0  0  0  0  0  0
    0.4230   25.1780  -28.1340 O   0  0  0  0  0  0  0  0  0  0  0  0
  1  2  1  0
  2  3  1  0
  3  4  2  0
  3  5  1  0
  5  6  2  0
  6  7  1  0
  6  8  1  0
  8  9  2  0
  9 10  1  0
  9 11  1  0
 11 12  1  0
 11 13  2  0
 13 14  1  0
 14 15  1  0
 14 16  1  0
 14 17  1  0
 17 18  2  0
 17 19  1  0
 19 20  1  0
 20 21  1  0
 20 22  1  0
 20 23  1  0
 19 24  1  0
 24 25  1  0
 24 26  1  0
 24 27  1  0
 13 28  1  0
 28 29  1  0
 28 30  2  0
 30 31  1  0
 31 32  1  0
 32 33  2  0
 32 34  1  0
 34 35  1  0
 35 36  1  0
 35 37  1  0
 35 38  1  0
 38 39  1  0
 38 40  1  0
 38 41  1  0
 41 42  1  0
 41 43  2  0
 43 44  1  0
 43 45  1  0
 45 46  2  0
 45 47  1  0
 31  5  1  0
 30  8  1  0
M  CHG  2   2  -1  47  -1
M  END
>  <UniqueID>  (42) 
42

>  <SMILES>  (42) 
CN(C)C(=O)Cc1ccc2cc(C([NH-])=O)n(C(=O)OCC/C=C/C(=O)[O-])c2c1

>  <Energy>  (42) 
75.8083763301357

>  <Genealogy>  (42) 
CN(C)C(=O)Cc1ccc2cc(C([NH-])=O)n(C(=O)OCC/C=C/C(=O)[O-])c2c1 (protonated)
CN(C)C(=O)Cc1ccc2cc(C([NH-])=O)n(C(=O)OCC/C=C/C(=O)[O-])c2c1 (cis-trans isomerization)
CN(C)C(=O)Cc1ccc2cc(C([NH-])=O)n(C(=O)OCC/C=C/C(=O)[O-])c2c1 (3D coordinates assigned)
CN(C)C(=O)Cc1ccc2cc(C([NH-])=O)n(C(=O)OCC/C=C/C(=O)[O-])c2c1 (optimized conformer: 75.8083763301357 kcal/mol)

>  <smiles>  (42) 
CN(C)C(=O)Cc1ccc2cc(C(N)=O)n(C(=O)OCC/C=C/C(=O)O)c2c1

>  <score_type>  (42) 
oracle

>  <origin>  (42) 
adg

>  <m_score__min__energy>  (42) 
-13.91

>  <m_primary>  (42) 
energy

$$$$
42:0
     RDKit          3D

 48 50  0  0  0  0  0  0  0  0999 V2000
   -3.9470   21.4290  -33.0640 C   0  0  0  0  0  0  0  0  0  0  0  0
   -3.7340   20.9960  -31.8220 C   0  0  0  0  0  0  0  0  0  0  0  0
   -4.3320   21.6460  -30.6390 C   0  0  0  0  0  0  0  0  0  0  0  0
   -3.7760   21.5520  -29.5110 O   0  0  0  0  0  0  0  0  0  0  0  0
   -5.5610   22.3800  -30.7640 N   0  0  0  0  0  0  0  0  0  0  0  0
   -5.7680   23.7040  -30.5160 C   0  0  0  0  0  0  0  0  0  0  0  0
   -4.7760   24.6440  -29.9550 C   0  0  0  0  0  0  0  0  0  0  0  0
   -3.8600   25.3100  -30.8230 N   0  0  0  0  0  0  0  0  0  0  0  0
   -4.7460   24.8910  -28.7200 O   0  0  0  0  0  0  0  0  0  0  0  0
   -7.0890   24.0530  -30.7950 C   0  0  0  0  0  0  0  0  0  0  0  0
   -7.6910   22.8910  -31.2220 C   0  0  0  0  0  0  0  0  0  0  0  0
   -9.0000   22.6600  -31.6350 C   0  0  0  0  0  0  0  0  0  0  0  0
   -9.3420   21.3590  -32.0410 C   0  0  0  0  0  0  0  0  0  0  0  0
   -8.3760   20.3220  -32.0350 C   0  0  0  0  0  0  0  0  0  0  0  0
   -8.7460   18.9430  -32.5050 C   0  0  0  0  0  0  0  0  0  0  0  0
   -7.5170   18.1040  -32.6770 C   0  0  0  0  0  0  0  0  0  0  0  0
   -7.1610   17.3370  -31.7430 O   0  0  0  0  0  0  0  0  0  0  0  0
   -6.7100   18.2440  -33.8580 N   0  0  0  0  0  0  0  0  0  0  0  0
   -5.6500   17.3430  -34.2250 C   0  0  0  0  0  0  0  0  0  0  0  0
   -4.4440   17.8650  -34.7140 C   0  0  0  0  0  0  0  0  0  0  0  0
   -3.4060   17.0120  -35.1010 C   0  0  0  0  0  0  0  0  0  0  0  0
   -3.5600   15.6170  -35.0170 C   0  0  0  0  0  0  0  0  0  0  0  0
   -2.4650   14.7080  -35.4220 C   0  0  0  0  0  0  0  0  0  0  0  0
   -1.9220   13.9500  -34.5700 O   0  0  0  0  0  0  0  0  0  0  0  0
   -2.0310   14.6900  -36.7530 O   0  0  0  0  0  0  0  0  0  0  0  0
   -2.9050   14.4110  -37.8410 C   0  0  0  0  0  0  0  0  0  0  0  0
   -4.7780   15.0950  -34.5470 C   0  0  0  0  0  0  0  0  0  0  0  0
   -5.8160   15.9490  -34.1620 C   0  0  0  0  0  0  0  0  0  0  0  0
   -7.0520   20.6000  -31.6260 C   0  0  0  0  0  0  0  0  0  0  0  0
   -6.7470   21.8970  -31.1990 C   0  0  0  0  0  0  0  0  0  0  0  0
   -3.4793   20.9116  -33.9146 H   0  0  0  0  0  0  0  0  0  0  0  0
   -4.5905   22.3038  -33.2387 H   0  0  0  0  0  0  0  0  0  0  0  0
   -3.0868   20.1193  -31.6721 H   0  0  0  0  0  0  0  0  0  0  0  0
   -2.8330   25.3010  -30.6320 H   0  0  0  0  0  0  0  0  0  0  0  0
   -7.5517   25.0459  -30.6951 H   0  0  0  0  0  0  0  0  0  0  0  0
   -9.7435   23.4706  -31.6433 H   0  0  0  0  0  0  0  0  0  0  0  0
  -10.3702   21.1431  -32.3669 H   0  0  0  0  0  0  0  0  0  0  0  0
   -9.4059   18.4715  -31.7619 H   0  0  0  0  0  0  0  0  0  0  0  0
   -9.2630   19.0220  -33.4727 H   0  0  0  0  0  0  0  0  0  0  0  0
   -6.8580   19.0920  -34.4510 H   0  0  0  0  0  0  0  0  0  0  0  0
   -4.3135   18.9543  -34.7938 H   0  0  0  0  0  0  0  0  0  0  0  0
   -2.4618   17.4355  -35.4740 H   0  0  0  0  0  0  0  0  0  0  0  0
   -3.8855   14.0980  -37.4528 H   0  0  0  0  0  0  0  0  0  0  0  0
   -3.0257   15.3153  -38.4556 H   0  0  0  0  0  0  0  0  0  0  0  0
   -2.4794   13.6041  -38.4556 H   0  0  0  0  0  0  0  0  0  0  0  0
   -4.9154   14.0056  -34.4816 H   0  0  0  0  0  0  0  0  0  0  0  0
   -6.7681   15.5272  -33.8077 H   0  0  0  0  0  0  0  0  0  0  0  0
   -6.2805   19.8161  -31.6430 H   0  0  0  0  0  0  0  0  0  0  0  0
  1  2  2  0
  2  3  1  0
  3  4  2  0
  3  5  1  0
  5  6  1  0
  6  7  1  0
  7  8  1  0
  7  9  2  0
  6 10  2  0
 10 11  1  0
 11 12  2  0
 12 13  1  0
 13 14  2  0
 14 15  1  0
 15 16  1  0
 16 17  2  0
 16 18  1  0
 18 19  1  0
 19 20  2  0
 20 21  1  0
 21 22  2  0
 22 23  1  0
 23 24  2  0
 23 25  1  0
 25 26  1  0
 22 27  1  0
 27 28  2  0
 14 29  1  0
 29 30  2  0
 30  5  1  0
 30 11  1  0
 28 19  1  0
  1 31  1  0
  1 32  1  0
  2 33  1  0
  8 34  1  0
 10 35  1  0
 12 36  1  0
 13 37  1  0
 15 38  1  0
 15 39  1  0
 18 40  1  0
 20 41  1  0
 21 42  1  0
 26 43  1  0
 26 44  1  0
 26 45  1  0
 27 46  1  0
 28 47  1  0
 29 48  1  0
M  CHG  1   8  -1
M  END
>  <UniqueID>  (43) 
43

>  <SMILES>  (43) 
C=CC(=O)n1c(C([NH-])=O)cc2ccc(CC(=O)Nc3ccc(C(=O)OC)cc3)cc21

>  <Energy>  (43) 
88.07790005688929

>  <Genealogy>  (43) 
C=CC(=O)n1c(C([NH-])=O)cc2ccc(CC(=O)Nc3ccc(C(=O)OC)cc3)cc21 (protonated)
C=CC(=O)n1c(C([NH-])=O)cc2ccc(CC(=O)Nc3ccc(C(=O)OC)cc3)cc21 (3D coordinates assigned)
C=CC(=O)n1c(C([NH-])=O)cc2ccc(CC(=O)Nc3ccc(C(=O)OC)cc3)cc21 (optimized conformer: 88.07790005688929 kcal/mol)

>  <smiles>  (43) 
C=CC(=O)n1c(C(N)=O)cc2ccc(CC(=O)Nc3ccc(C(=O)OC)cc3)cc21

>  <score_type>  (43) 
oracle

>  <origin>  (43) 
adg

>  <m_score__min__energy>  (43) 
-11.07

>  <m_primary>  (43) 
energy

$$$$
43:0
     RDKit          3D

 36 37  0  0  0  0  0  0  0  0999 V2000
   -4.9050   17.4440  -35.0890 C   0  0  0  0  0  0  0  0  0  0  0  0
   -5.7650   18.2970  -33.7820 S   0  0  0  0  0  0  0  0  0  0  0  0
   -4.8640   18.3680  -32.5830 O   0  0  0  0  0  0  0  0  0  0  0  0
   -6.0940   19.6990  -34.2210 O   0  0  0  0  0  0  0  0  0  0  0  0
   -7.1720   17.4550  -33.3500 O   0  0  0  0  0  0  0  0  0  0  0  0
   -7.6260   17.9340  -32.1070 C   0  0  0  0  0  0  0  0  0  0  0  0
   -8.7730   18.9210  -32.3240 C   0  0  0  0  0  0  0  0  0  0  0  0
   -8.3740   20.3200  -31.9330 C   0  0  0  0  0  0  0  0  0  0  0  0
   -9.3200   21.3720  -32.0040 C   0  0  0  0  0  0  0  0  0  0  0  0
   -8.9690   22.6780  -31.6240 C   0  0  0  0  0  0  0  0  0  0  0  0
   -7.6660   22.9030  -31.1920 C   0  0  0  0  0  0  0  0  0  0  0  0
   -7.0670   24.0670  -30.7660 C   0  0  0  0  0  0  0  0  0  0  0  0
   -5.7530   23.7160  -30.4730 C   0  0  0  0  0  0  0  0  0  0  0  0
   -4.7270   24.6990  -30.0730 C   0  0  0  0  0  0  0  0  0  0  0  0
   -3.9880   24.5440  -28.8610 N   0  0  0  0  0  0  0  0  0  0  0  0
   -4.4500   25.6550  -30.8460 O   0  0  0  0  0  0  0  0  0  0  0  0
   -5.5480   22.3860  -30.6880 N   0  0  0  0  0  0  0  0  0  0  0  0
   -4.3510   21.6320  -30.4270 C   0  0  0  0  0  0  0  0  0  0  0  0
   -3.6850   21.8440  -29.3770 O   0  0  0  0  0  0  0  0  0  0  0  0
   -3.9180   20.6710  -31.3370 O   0  0  0  0  0  0  0  0  0  0  0  0
   -2.8060   21.1480  -33.0050 I   0  0  0  0  0  0  0  0  0  0  0  0
   -6.7310   21.9010  -31.1310 C   0  0  0  0  0  0  0  0  0  0  0  0
   -7.0650   20.5840  -31.4720 C   0  0  0  0  0  0  0  0  0  0  0  0
   -4.1880   16.7328  -34.6530 H   0  0  0  0  0  0  0  0  0  0  0  0
   -5.6306   16.8986  -35.7104 H   0  0  0  0  0  0  0  0  0  0  0  0
   -4.3656   18.1740  -35.7104 H   0  0  0  0  0  0  0  0  0  0  0  0
   -7.9802   17.0900  -31.4969 H   0  0  0  0  0  0  0  0  0  0  0  0
   -6.8001   18.4430  -31.5886 H   0  0  0  0  0  0  0  0  0  0  0  0
   -9.0559   18.9132  -33.3870 H   0  0  0  0  0  0  0  0  0  0  0  0
   -9.6197   18.6128  -31.6931 H   0  0  0  0  0  0  0  0  0  0  0  0
  -10.3397   21.1641  -32.3603 H   0  0  0  0  0  0  0  0  0  0  0  0
   -9.7017   23.4973  -31.6667 H   0  0  0  0  0  0  0  0  0  0  0  0
   -7.5284   25.0615  -30.6765 H   0  0  0  0  0  0  0  0  0  0  0  0
   -4.0810   23.6820  -28.2780 H   0  0  0  0  0  0  0  0  0  0  0  0
   -3.2640   25.2470  -28.5950 H   0  0  0  0  0  0  0  0  0  0  0  0
   -6.3255   19.7745  -31.3829 H   0  0  0  0  0  0  0  0  0  0  0  0
  1  2  1  0
  2  3  2  0
  2  4  2  0
  2  5  1  0
  5  6  1  0
  6  7  1  0
  7  8  1  0
  8  9  2  0
  9 10  1  0
 10 11  2  0
 11 12  1  0
 12 13  2  0
 13 14  1  0
 14 15  1  0
 14 16  2  0
 13 17  1  0
 17 18  1  0
 18 19  2  0
 18 20  1  0
 20 21  1  0
 17 22  1  0
 22 23  2  0
 23  8  1  0
 22 11  1  0
  1 24  1  0
  1 25  1  0
  1 26  1  0
  6 27  1  0
  6 28  1  0
  7 29  1  0
  7 30  1  0
  9 31  1  0
 10 32  1  0
 12 33  1  0
 15 34  1  0
 15 35  1  0
 23 36  1  0
M  END
>  <UniqueID>  (44) 
44

>  <SMILES>  (44) 
CS(=O)(=O)OCCc1ccc2cc(C(N)=O)n(C(=O)OI)c2c1

>  <Energy>  (44) 
70.1240392249487

>  <Genealogy>  (44) 
CS(=O)(=O)OCCc1ccc2cc(C(N)=O)n(C(=O)OI)c2c1 (3D coordinates assigned)
CS(=O)(=O)OCCc1ccc2cc(C(N)=O)n(C(=O)OI)c2c1 (optimized conformer: 70.1240392249487 kcal/mol)

>  <smiles>  (44) 
CS(=O)(=O)OCCc1ccc2cc(C(N)=O)n(C(=O)OI)c2c1

>  <score_type>  (44) 
oracle

>  <origin>  (44) 
adg

>  <m_score__min__energy>  (44) 
-8.5600000000000005

>  <m_primary>  (44) 
energy

$$$$
44:0
     RDKit          3D

 49 51  0  0  0  0  0  0  0  0999 V2000
   -1.6220   24.5300  -29.0300 C   0  0  0  0  0  0  0  0  0  0  0  0
   -3.0010   24.0300  -29.5020 C   0  0  0  0  0  0  0  0  0  0  0  0
   -3.9450   23.9630  -28.2910 C   0  0  0  0  0  0  0  0  0  0  0  0
   -2.8860   22.6250  -30.1220 C   0  0  0  0  0  0  0  0  0  0  0  0
   -3.5780   24.9510  -30.4380 O   0  0  0  0  0  0  0  0  0  0  0  0
   -4.9350   25.3030  -30.5320 C   0  0  0  0  0  0  0  0  0  0  0  0
   -5.2980   26.5090  -30.4690 O   0  0  0  0  0  0  0  0  0  0  0  0
   -5.9160   24.2740  -30.7040 N   0  0  0  0  0  0  0  0  0  0  0  0
   -6.9960   24.0240  -29.7690 C   0  0  0  0  0  0  0  0  0  0  0  0
   -7.6390   22.7290  -30.2460 C   0  0  0  0  0  0  0  0  0  0  0  0
   -7.2510   22.5970  -31.7300 C   0  0  2  0  0  0  0  0  0  0  0  0
   -8.1920   23.2750  -32.4910 F   0  0  0  0  0  0  0  0  0  0  0  0
   -7.1810   21.1580  -32.2340 C   0  0  0  0  0  0  0  0  0  0  0  0
   -8.3360   20.3280  -32.1930 C   0  0  0  0  0  0  0  0  0  0  0  0
   -8.2790   18.9840  -32.5990 C   0  0  0  0  0  0  0  0  0  0  0  0
   -7.0510   18.4780  -33.0070 C   0  0  0  0  0  0  0  0  0  0  0  0
   -6.7140   17.2180  -33.4500 C   0  0  0  0  0  0  0  0  0  0  0  0
   -5.3440   17.2690  -33.7000 C   0  0  0  0  0  0  0  0  0  0  0  0
   -4.5310   16.0980  -34.0930 C   0  0  0  0  0  0  0  0  0  0  0  0
   -3.7120   16.1370  -35.2620 N   0  0  0  0  0  0  0  0  0  0  0  0
   -4.5780   15.0390  -33.4110 O   0  0  0  0  0  0  0  0  0  0  0  0
   -4.8560   18.5110  -33.4230 N   0  0  0  0  0  0  0  0  0  0  0  0
   -3.5150   18.9910  -33.6090 C   0  0  0  0  0  0  0  0  0  0  0  0
   -2.8490   18.6360  -34.6170 O   0  0  0  0  0  0  0  0  0  0  0  0
   -2.7600   20.0250  -32.4080 Cl  0  0  0  0  0  0  0  0  0  0  0  0
   -5.9130   19.2380  -33.0000 C   0  0  0  0  0  0  0  0  0  0  0  0
   -5.9410   20.5820  -32.6140 C   0  0  0  0  0  0  0  0  0  0  0  0
   -5.9130   23.3480  -31.8220 C   0  0  0  0  0  0  0  0  0  0  0  0
   -1.5925   24.5407  -27.9304 H   0  0  0  0  0  0  0  0  0  0  0  0
   -0.8384   23.8588  -29.4113 H   0  0  0  0  0  0  0  0  0  0  0  0
   -1.4507   25.5475  -29.4113 H   0  0  0  0  0  0  0  0  0  0  0  0
   -3.3551   24.0049  -27.3635 H   0  0  0  0  0  0  0  0  0  0  0  0
   -4.6414   24.8140  -28.3214 H   0  0  0  0  0  0  0  0  0  0  0  0
   -4.5142   23.0222  -28.3214 H   0  0  0  0  0  0  0  0  0  0  0  0
   -2.8246   21.8743  -29.3203 H   0  0  0  0  0  0  0  0  0  0  0  0
   -3.7708   22.4253  -30.7443 H   0  0  0  0  0  0  0  0  0  0  0  0
   -1.9805   22.5718  -30.7443 H   0  0  0  0  0  0  0  0  0  0  0  0
   -6.6040   23.9077  -28.7478 H   0  0  0  0  0  0  0  0  0  0  0  0
   -7.7157   24.8553  -29.7375 H   0  0  0  0  0  0  0  0  0  0  0  0
   -7.2537   21.8742  -29.6708 H   0  0  0  0  0  0  0  0  0  0  0  0
   -8.7305   22.7420  -30.1100 H   0  0  0  0  0  0  0  0  0  0  0  0
   -9.2896   20.7455  -31.8375 H   0  0  0  0  0  0  0  0  0  0  0  0
   -9.1791   18.3517  -32.5940 H   0  0  0  0  0  0  0  0  0  0  0  0
   -7.3838   16.3551  -33.5790 H   0  0  0  0  0  0  0  0  0  0  0  0
   -3.6050   17.0110  -35.8220 H   0  0  0  0  0  0  0  0  0  0  0  0
   -3.1710   15.2910  -35.5520 H   0  0  0  0  0  0  0  0  0  0  0  0
   -5.0188   21.1815  -32.6051 H   0  0  0  0  0  0  0  0  0  0  0  0
   -5.0704   22.6458  -31.7384 H   0  0  0  0  0  0  0  0  0  0  0  0
   -5.7997   23.8678  -32.7848 H   0  0  0  0  0  0  0  0  0  0  0  0
  1  2  1  0
  2  3  1  0
  2  4  1  0
  2  5  1  0
  5  6  1  0
  6  7  2  0
  6  8  1  0
  8  9  1  0
  9 10  1  0
 10 11  1  0
 11 12  1  6
 11 13  1  0
 13 14  2  0
 14 15  1  0
 15 16  2  0
 16 17  1  0
 17 18  2  0
 18 19  1  0
 19 20  1  0
 19 21  2  0
 18 22  1  0
 22 23  1  0
 23 24  2  0
 23 25  1  0
 22 26  1  0
 26 27  2  0
 11 28  1  0
 28  8  1  0
 27 13  1  0
 26 16  1  0
  1 29  1  0
  1 30  1  0
  1 31  1  0
  3 32  1  0
  3 33  1  0
  3 34  1  0
  4 35  1  0
  4 36  1  0
  4 37  1  0
  9 38  1  0
  9 39  1  0
 10 40  1  0
 10 41  1  0
 14 42  1  0
 15 43  1  0
 17 44  1  0
 20 45  1  0
 20 46  1  0
 27 47  1  0
 28 48  1  0
 28 49  1  0
M  END
>  <UniqueID>  (45) 
45

>  <SMILES>  (45) 
CC(C)(C)OC(=O)N1CC[C@](F)(c2ccc3cc(C(N)=O)n(C(=O)Cl)c3c2)C1

>  <Energy>  (45) 
88.74438748976519

>  <Genealogy>  (45) 
CC(C)(C)OC(=O)N1CC[C@](F)(c2ccc3cc(C(N)=O)n(C(=O)Cl)c3c2)C1 (chirality)
CC(C)(C)OC(=O)N1CC[C@](F)(c2ccc3cc(C(N)=O)n(C(=O)Cl)c3c2)C1 (3D coordinates assigned)
CC(C)(C)OC(=O)N1CC[C@](F)(c2ccc3cc(C(N)=O)n(C(=O)Cl)c3c2)C1 (nonaromatic ring conformer: 88.74438748976519 kcal/mol)

>  <smiles>  (45) 
CC(C)(C)OC(=O)N1CCC(F)(c2ccc3cc(C(N)=O)n(C(=O)Cl)c3c2)C1

>  <score_type>  (45) 
oracle

>  <origin>  (45) 
adg

>  <m_score__min__energy>  (45) 
-9.4299999999999997

>  <m_primary>  (45) 
energy

$$$$
45:0
     RDKit          3D

 41 42  0  0  0  0  0  0  0  0999 V2000
   -4.8920   17.5890  -35.0340 C   0  0  0  0  0  0  0  0  0  0  0  0
   -5.9080   16.6280  -34.5960 N   0  0  0  0  0  0  0  0  0  0  0  0
   -5.8010   16.3120  -33.1620 C   0  0  0  0  0  0  0  0  0  0  0  0
   -6.4670   17.3610  -32.2500 C   0  0  0  0  0  0  0  0  0  0  0  0
   -7.0320   18.4690  -33.0220 N   0  0  0  0  0  0  0  0  0  0  0  0
   -7.1890   19.8150  -32.5320 C   0  0  0  0  0  0  0  0  0  0  0  0
   -8.4930   20.3640  -32.4430 C   0  0  0  0  0  0  0  0  0  0  0  0
   -8.6950   21.6750  -31.9850 C   0  0  0  0  0  0  0  0  0  0  0  0
   -7.5780   22.4150  -31.6130 C   0  0  0  0  0  0  0  0  0  0  0  0
   -7.4870   23.7120  -31.1650 C   0  0  0  0  0  0  0  0  0  0  0  0
   -6.1290   23.9350  -30.9590 C   0  0  0  0  0  0  0  0  0  0  0  0
   -5.5830   25.1940  -30.4130 C   0  0  0  0  0  0  0  0  0  0  0  0
   -4.2230   25.5690  -30.6330 N   0  0  0  0  0  0  0  0  0  0  0  0
   -6.3140   25.9230  -29.6920 O   0  0  0  0  0  0  0  0  0  0  0  0
   -5.4050   22.8260  -31.2800 N   0  0  0  0  0  0  0  0  0  0  0  0
   -3.9750   22.6880  -31.2980 C   0  0  0  0  0  0  0  0  0  0  0  0
   -3.3920   22.3220  -32.3550 O   0  0  0  0  0  0  0  0  0  0  0  0
   -3.2350   22.9610  -30.1410 O   0  0  0  0  0  0  0  0  0  0  0  0
   -1.8140   23.0710  -30.1280 C   0  0  0  0  0  0  0  0  0  0  0  0
   -1.3970   24.3150  -29.4120 C   0  0  0  0  0  0  0  0  0  0  0  0
   -2.1720   25.3060  -29.3540 O   0  0  0  0  0  0  0  0  0  0  0  0
   -0.1610   24.3700  -28.7810 O   0  0  0  0  0  0  0  0  0  0  0  0
   -6.3090   21.9010  -31.6760 C   0  0  0  0  0  0  0  0  0  0  0  0
   -6.0770   20.6060  -32.1550 C   0  0  0  0  0  0  0  0  0  0  0  0
   -4.4126   18.0424  -34.1539 H   0  0  0  0  0  0  0  0  0  0  0  0
   -4.1332   17.0704  -35.6384 H   0  0  0  0  0  0  0  0  0  0  0  0
   -5.3676   18.3754  -35.6384 H   0  0  0  0  0  0  0  0  0  0  0  0
   -6.8570   17.0130  -34.8100 H   0  0  0  0  0  0  0  0  0  0  0  0
   -6.2823   15.3392  -32.9830 H   0  0  0  0  0  0  0  0  0  0  0  0
   -4.7298   16.2997  -32.9124 H   0  0  0  0  0  0  0  0  0  0  0  0
   -7.2730   16.8768  -31.6791 H   0  0  0  0  0  0  0  0  0  0  0  0
   -5.6978   17.7687  -31.5777 H   0  0  0  0  0  0  0  0  0  0  0  0
   -7.3530   18.2540  -33.9940 H   0  0  0  0  0  0  0  0  0  0  0  0
   -9.3593   19.7533  -32.7373 H   0  0  0  0  0  0  0  0  0  0  0  0
   -9.7059   22.1041  -31.9222 H   0  0  0  0  0  0  0  0  0  0  0  0
   -8.3118   24.4218  -31.0039 H   0  0  0  0  0  0  0  0  0  0  0  0
   -3.5450   24.9090  -31.0740 H   0  0  0  0  0  0  0  0  0  0  0  0
   -3.8670   26.4830  -30.2740 H   0  0  0  0  0  0  0  0  0  0  0  0
   -1.3869   22.1966  -29.6152 H   0  0  0  0  0  0  0  0  0  0  0  0
   -1.4488   23.1151  -31.1647 H   0  0  0  0  0  0  0  0  0  0  0  0
   -5.0533   20.2118  -32.2366 H   0  0  0  0  0  0  0  0  0  0  0  0
  1  2  1  0
  2  3  1  0
  3  4  1  0
  4  5  1  0
  5  6  1  0
  6  7  2  0
  7  8  1  0
  8  9  2  0
  9 10  1  0
 10 11  2  0
 11 12  1  0
 12 13  1  0
 12 14  2  0
 11 15  1  0
 15 16  1  0
 16 17  2  0
 16 18  1  0
 18 19  1  0
 19 20  1  0
 20 21  2  0
 20 22  1  0
 15 23  1  0
 23 24  2  0
 24  6  1  0
 23  9  1  0
  1 25  1  0
  1 26  1  0
  1 27  1  0
  2 28  1  0
  3 29  1  0
  3 30  1  0
  4 31  1  0
  4 32  1  0
  5 33  1  0
  7 34  1  0
  8 35  1  0
 10 36  1  0
 13 37  1  0
 13 38  1  0
 19 39  1  0
 19 40  1  0
 24 41  1  0
M  CHG  1  22  -1
M  END
>  <UniqueID>  (46) 
46

>  <SMILES>  (46) 
CNCCNc1ccc2cc(C(N)=O)n(C(=O)OCC(=O)[O-])c2c1

>  <Energy>  (46) 
76.03693308446672

>  <Genealogy>  (46) 
CNCCNc1ccc2cc(C(N)=O)n(C(=O)OCC(=O)[O-])c2c1 (protonated)
CNCCNc1ccc2cc(C(N)=O)n(C(=O)OCC(=O)[O-])c2c1 (3D coordinates assigned)
CNCCNc1ccc2cc(C(N)=O)n(C(=O)OCC(=O)[O-])c2c1 (optimized conformer: 76.03693308446672 kcal/mol)

>  <smiles>  (46) 
CNCCNc1ccc2cc(C(N)=O)n(C(=O)OCC(=O)O)c2c1

>  <score_type>  (46) 
oracle

>  <origin>  (46) 
adg

>  <m_score__min__energy>  (46) 
-10.17

>  <m_primary>  (46) 
energy

$$$$
46:0
     RDKit          3D

 36 37  0  0  0  0  0  0  0  0999 V2000
   -2.4870   20.3190  -33.6040 C   0  0  0  0  0  0  0  0  0  0  0  0
   -2.3880   20.9790  -32.4510 C   0  0  0  0  0  0  0  0  0  0  0  0
   -2.8550   22.2900  -32.2700 O   0  0  0  0  0  0  0  0  0  0  0  0
   -3.5540   22.7580  -31.1490 C   0  0  0  0  0  0  0  0  0  0  0  0
   -2.9360   23.1270  -30.1140 O   0  0  0  0  0  0  0  0  0  0  0  0
   -4.9830   22.8900  -31.2100 N   0  0  0  0  0  0  0  0  0  0  0  0
   -5.7330   23.9760  -30.8640 C   0  0  0  0  0  0  0  0  0  0  0  0
   -5.2100   25.3060  -30.4890 C   0  0  0  0  0  0  0  0  0  0  0  0
   -3.8790   25.6710  -30.8480 N   0  0  0  0  0  0  0  0  0  0  0  0
   -5.9130   26.1110  -29.8230 O   0  0  0  0  0  0  0  0  0  0  0  0
   -7.0910   23.6920  -30.9900 C   0  0  0  0  0  0  0  0  0  0  0  0
   -7.1510   22.3900  -31.4330 C   0  0  0  0  0  0  0  0  0  0  0  0
   -8.2550   21.5940  -31.7150 C   0  0  0  0  0  0  0  0  0  0  0  0
   -8.0250   20.2720  -32.1310 C   0  0  0  0  0  0  0  0  0  0  0  0
   -6.7040   19.7610  -32.2490 C   0  0  0  0  0  0  0  0  0  0  0  0
   -6.4740   18.3920  -32.6630 N   0  0  0  0  0  0  0  0  0  0  0  0
   -7.5920   17.4410  -32.6750 C   0  0  0  0  0  0  0  0  0  0  0  0
   -5.1410   17.9410  -33.0940 C   0  0  0  0  0  0  0  0  0  0  0  0
   -4.9960   18.0730  -34.5790 C   0  0  0  0  0  0  0  0  0  0  0  0
   -3.9450   17.6780  -35.1480 O   0  0  0  0  0  0  0  0  0  0  0  0
   -6.0320   18.6050  -35.3360 O   0  0  0  0  0  0  0  0  0  0  0  0
   -5.6090   20.6110  -31.9530 C   0  0  0  0  0  0  0  0  0  0  0  0
   -5.8690   21.9290  -31.5590 C   0  0  0  0  0  0  0  0  0  0  0  0
   -2.1018   19.2918  -33.6846 H   0  0  0  0  0  0  0  0  0  0  0  0
   -2.9539   20.8012  -34.4754 H   0  0  0  0  0  0  0  0  0  0  0  0
   -1.9162   20.4705  -31.5973 H   0  0  0  0  0  0  0  0  0  0  0  0
   -3.0590   25.2870  -30.3280 H   0  0  0  0  0  0  0  0  0  0  0  0
   -7.9355   24.3649  -30.7802 H   0  0  0  0  0  0  0  0  0  0  0  0
   -9.2775   21.9871  -31.6155 H   0  0  0  0  0  0  0  0  0  0  0  0
   -8.8803   19.6225  -32.3690 H   0  0  0  0  0  0  0  0  0  0  0  0
   -7.8777   17.1979  -31.6409 H   0  0  0  0  0  0  0  0  0  0  0  0
   -8.4500   17.8903  -33.1965 H   0  0  0  0  0  0  0  0  0  0  0  0
   -7.2861   16.5221  -33.1965 H   0  0  0  0  0  0  0  0  0  0  0  0
   -4.3739   18.5551  -32.5996 H   0  0  0  0  0  0  0  0  0  0  0  0
   -5.0172   16.8835  -32.8176 H   0  0  0  0  0  0  0  0  0  0  0  0
   -4.5756   20.2424  -32.0313 H   0  0  0  0  0  0  0  0  0  0  0  0
  1  2  2  0
  2  3  1  0
  3  4  1  0
  4  5  2  0
  4  6  1  0
  6  7  1  0
  7  8  1  0
  8  9  1  0
  8 10  2  0
  7 11  2  0
 11 12  1  0
 12 13  2  0
 13 14  1  0
 14 15  2  0
 15 16  1  0
 16 17  1  0
 16 18  1  0
 18 19  1  0
 19 20  2  0
 19 21  1  0
 15 22  1  0
 22 23  2  0
 23  6  1  0
 23 12  1  0
  1 24  1  0
  1 25  1  0
  2 26  1  0
  9 27  1  0
 11 28  1  0
 13 29  1  0
 14 30  1  0
 17 31  1  0
 17 32  1  0
 17 33  1  0
 18 34  1  0
 18 35  1  0
 22 36  1  0
M  CHG  2   9  -1  21  -1
M  END
>  <UniqueID>  (47) 
47

>  <SMILES>  (47) 
C=COC(=O)n1c(C([NH-])=O)cc2ccc(N(C)CC(=O)[O-])cc21

>  <Energy>  (47) 
80.0932501886301

>  <Genealogy>  (47) 
C=COC(=O)n1c(C([NH-])=O)cc2ccc(N(C)CC(=O)[O-])cc21 (protonated)
C=COC(=O)n1c(C([NH-])=O)cc2ccc(N(C)CC(=O)[O-])cc21 (3D coordinates assigned)
C=COC(=O)n1c(C([NH-])=O)cc2ccc(N(C)CC(=O)[O-])cc21 (optimized conformer: 80.0932501886301 kcal/mol)

>  <smiles>  (47) 
C=COC(=O)n1c(C(N)=O)cc2ccc(N(C)CC(=O)O)cc21

>  <score_type>  (47) 
oracle

>  <origin>  (47) 
adg

>  <m_score__min__energy>  (47) 
-9.4199999999999999

>  <m_primary>  (47) 
energy

$$$$
47:0
     RDKit          3D

 36 38  0  0  0  0  0  0  0  0999 V2000
   -1.5550   21.2430  -34.1570 N   0  0  0  0  0  0  0  0  0  0  0  0
   -1.3090   19.8190  -33.9500 C   0  0  0  0  0  0  0  0  0  0  0  0
   -2.5910   19.0450  -33.9660 C   0  0  0  0  0  0  0  0  0  0  0  0
   -2.7510   17.7070  -33.6850 C   0  0  0  0  0  0  0  0  0  0  0  0
   -4.0600   17.4000  -33.7700 N   0  0  0  0  0  0  0  0  0  0  0  0
   -4.6360   18.5760  -34.1020 C   0  0  0  0  0  0  0  0  0  0  0  0
   -6.1090   18.7510  -34.2790 C   0  0  0  0  0  0  0  0  0  0  0  0
   -6.6170   19.7910  -33.3210 C   0  0  0  0  0  0  0  0  0  0  0  0
   -7.9950   19.8460  -32.9990 C   0  0  0  0  0  0  0  0  0  0  0  0
   -8.4920   20.8460  -32.1460 C   0  0  0  0  0  0  0  0  0  0  0  0
   -7.5890   21.7720  -31.6340 C   0  0  0  0  0  0  0  0  0  0  0  0
   -7.8090   22.8620  -30.8220 C   0  0  0  0  0  0  0  0  0  0  0  0
   -6.5590   23.4460  -30.6460 C   0  0  0  0  0  0  0  0  0  0  0  0
   -6.3270   24.6190  -29.7800 C   0  0  0  0  0  0  0  0  0  0  0  0
   -5.1470   24.7300  -28.9840 N   0  0  0  0  0  0  0  0  0  0  0  0
   -7.2120   25.5120  -29.6980 O   0  0  0  0  0  0  0  0  0  0  0  0
   -5.6030   22.7580  -31.3320 N   0  0  0  0  0  0  0  0  0  0  0  0
   -4.2200   23.1200  -31.4970 C   0  0  0  0  0  0  0  0  0  0  0  0
   -3.7630   24.1590  -30.9530 O   0  0  0  0  0  0  0  0  0  0  0  0
   -3.3720   22.3220  -32.2550 O   0  0  0  0  0  0  0  0  0  0  0  0
   -6.2500   21.7320  -31.9300 C   0  0  0  0  0  0  0  0  0  0  0  0
   -5.7330   20.7580  -32.7930 C   0  0  0  0  0  0  0  0  0  0  0  0
   -3.7690   19.5580  -34.2120 O   0  0  0  0  0  0  0  0  0  0  0  0
   -1.2610   21.4970  -35.1290 H   0  0  0  0  0  0  0  0  0  0  0  0
   -2.5830   21.4220  -34.0800 H   0  0  0  0  0  0  0  0  0  0  0  0
   -0.6541   19.4468  -34.7516 H   0  0  0  0  0  0  0  0  0  0  0  0
   -0.8310   19.6850  -32.9684 H   0  0  0  0  0  0  0  0  0  0  0  0
   -1.9432   17.0043  -33.4326 H   0  0  0  0  0  0  0  0  0  0  0  0
   -6.3173   19.0718  -35.3104 H   0  0  0  0  0  0  0  0  0  0  0  0
   -6.6149   17.7950  -34.0788 H   0  0  0  0  0  0  0  0  0  0  0  0
   -8.6831   19.0986  -33.4208 H   0  0  0  0  0  0  0  0  0  0  0  0
   -9.5610   20.8950  -31.8913 H   0  0  0  0  0  0  0  0  0  0  0  0
   -8.7683   23.1989  -30.4022 H   0  0  0  0  0  0  0  0  0  0  0  0
   -4.4750   23.9350  -28.9040 H   0  0  0  0  0  0  0  0  0  0  0  0
   -4.9830   25.5820  -28.4050 H   0  0  0  0  0  0  0  0  0  0  0  0
   -4.6643   20.7462  -33.0535 H   0  0  0  0  0  0  0  0  0  0  0  0
  1  2  1  0
  2  3  1  0
  3  4  2  0
  4  5  1  0
  5  6  2  0
  6  7  1  0
  7  8  1  0
  8  9  2  0
  9 10  1  0
 10 11  2  0
 11 12  1  0
 12 13  2  0
 13 14  1  0
 14 15  1  0
 14 16  2  0
 13 17  1  0
 17 18  1  0
 18 19  2  0
 18 20  1  0
 17 21  1  0
 21 22  2  0
  6 23  1  0
 23  3  1  0
 22  8  1  0
 21 11  1  0
  1 24  1  0
  1 25  1  0
  2 26  1  0
  2 27  1  0
  4 28  1  0
  7 29  1  0
  7 30  1  0
  9 31  1  0
 10 32  1  0
 12 33  1  0
 15 34  1  0
 15 35  1  0
 22 36  1  0
M  CHG  1  20  -1
M  END
>  <UniqueID>  (48) 
48

>  <SMILES>  (48) 
NCc1cnc(Cc2ccc3cc(C(N)=O)n(C(=O)[O-])c3c2)o1

>  <Energy>  (48) 
103.74452290447748

>  <Genealogy>  (48) 
NCc1cnc(Cc2ccc3cc(C(N)=O)n(C(=O)[O-])c3c2)o1 (protonated)
NCc1cnc(Cc2ccc3cc(C(N)=O)n(C(=O)[O-])c3c2)o1 (3D coordinates assigned)
NCc1cnc(Cc2ccc3cc(C(N)=O)n(C(=O)[O-])c3c2)o1 (optimized conformer: 103.74452290447748 kcal/mol)

>  <smiles>  (48) 
NCc1cnc(Cc2ccc3cc(C(N)=O)n(C(=O)O)c3c2)o1

>  <score_type>  (48) 
oracle

>  <origin>  (48) 
adg

>  <m_score__min__energy>  (48) 
-9.1199999999999992

>  <m_primary>  (48) 
energy

$$$$
48:0
     RDKit          3D

 44 46  0  0  0  0  0  0  0  0999 V2000
   -1.6140   26.0260  -28.9380 N   0  0  0  0  0  0  0  0  0  0  0  0
   -0.8860   24.8110  -28.7930 C   0  0  0  0  0  0  0  0  0  0  0  0
    0.0290   24.7390  -27.9280 O   0  0  0  0  0  0  0  0  0  0  0  0
   -1.2260   23.6200  -29.5980 C   0  0  0  0  0  0  0  0  0  0  0  0
   -0.3050   22.6240  -29.9180 C   0  0  0  0  0  0  0  0  0  0  0  0
   -1.0260   21.6600  -30.5840 C   0  0  0  0  0  0  0  0  0  0  0  0
   -0.6090   20.4510  -31.1320 C   0  0  0  0  0  0  0  0  0  0  0  0
   -1.5680   19.6600  -31.7870 C   0  0  0  0  0  0  0  0  0  0  0  0
   -2.9120   20.0960  -31.8950 C   0  0  0  0  0  0  0  0  0  0  0  0
   -3.9300   19.2260  -32.5770 C   0  0  0  0  0  0  0  0  0  0  0  0
   -5.2050   20.0020  -32.8040 C   0  0  0  0  0  0  0  0  0  0  0  0
   -5.1500   21.0180  -33.4820 O   0  0  0  0  0  0  0  0  0  0  0  0
   -6.5460   19.6250  -32.1870 C   0  0  2  0  0  0  0  0  0  0  0  0
   -7.5790   18.9680  -33.0930 C   0  0  0  0  0  0  0  0  0  0  0  0
   -8.8720   19.1120  -32.3040 C   0  0  2  0  0  0  0  0  0  0  0  0
   -9.9030   19.5250  -33.1320 F   0  0  0  0  0  0  0  0  0  0  0  0
   -8.5770   20.1690  -31.2340 C   0  0  0  0  0  0  0  0  0  0  0  0
   -7.2460   20.7400  -31.5170 N   0  0  0  0  0  0  0  0  0  0  0  0
   -7.3750   21.9610  -32.3590 C   0  0  0  0  0  0  0  0  0  0  0  0
   -7.2890   23.2150  -31.4880 C   0  0  0  0  0  0  0  0  0  0  0  0
   -7.1230   22.8460  -30.1660 F   0  0  0  0  0  0  0  0  0  0  0  0
   -8.4570   23.9480  -31.6060 F   0  0  0  0  0  0  0  0  0  0  0  0
   -6.2190   24.0030  -31.8690 F   0  0  0  0  0  0  0  0  0  0  0  0
   -3.3000   21.3250  -31.3170 C   0  0  0  0  0  0  0  0  0  0  0  0
   -2.3280   22.0850  -30.6550 C   0  0  0  0  0  0  0  0  0  0  0  0
   -2.4670   23.2880  -30.0550 N   0  0  0  0  0  0  0  0  0  0  0  0
   -3.6600   24.0870  -30.0100 C   0  0  0  0  0  0  0  0  0  0  0  0
   -4.6760   23.6790  -29.3860 O   0  0  0  0  0  0  0  0  0  0  0  0
   -3.7170   25.3030  -30.6780 O   0  0  0  0  0  0  0  0  0  0  0  0
   -2.6580   26.0300  -28.9490 H   0  0  0  0  0  0  0  0  0  0  0  0
    0.7704   22.6114  -29.6870 H   0  0  0  0  0  0  0  0  0  0  0  0
    0.4386   20.1246  -31.0549 H   0  0  0  0  0  0  0  0  0  0  0  0
   -1.2726   18.6930  -32.2201 H   0  0  0  0  0  0  0  0  0  0  0  0
   -3.5312   18.8896  -33.5454 H   0  0  0  0  0  0  0  0  0  0  0  0
   -4.1460   18.3561  -31.9394 H   0  0  0  0  0  0  0  0  0  0  0  0
   -6.1880   18.8735  -31.4679 H   0  0  0  0  0  0  0  0  0  0  0  0
   -7.6458   19.4899  -34.0590 H   0  0  0  0  0  0  0  0  0  0  0  0
   -7.3366   17.9235  -33.3386 H   0  0  0  0  0  0  0  0  0  0  0  0
   -9.1902   18.1584  -31.8575 H   0  0  0  0  0  0  0  0  0  0  0  0
   -9.3393   20.9612  -31.2707 H   0  0  0  0  0  0  0  0  0  0  0  0
   -8.5949   19.7159  -30.2318 H   0  0  0  0  0  0  0  0  0  0  0  0
   -6.5634   21.9779  -33.1013 H   0  0  0  0  0  0  0  0  0  0  0  0
   -8.3498   21.9442  -32.8685 H   0  0  0  0  0  0  0  0  0  0  0  0
   -4.3401   21.6764  -31.3852 H   0  0  0  0  0  0  0  0  0  0  0  0
  1  2  1  0
  2  3  2  0
  2  4  1  0
  4  5  2  0
  5  6  1  0
  6  7  2  0
  7  8  1  0
  8  9  2  0
  9 10  1  0
 10 11  1  0
 11 12  2  0
 11 13  1  0
 13 14  1  0
 14 15  1  0
 15 16  1  0
 15 17  1  0
 17 18  1  0
 18 19  1  0
 19 20  1  0
 20 21  1  0
 20 22  1  0
 20 23  1  0
  9 24  1  0
 24 25  2  0
 25 26  1  0
 26 27  1  0
 27 28  2  0
 27 29  1  0
 26  4  1  0
 25  6  1  0
 18 13  1  0
  1 30  1  0
  5 31  1  0
  7 32  1  0
  8 33  1  0
 10 34  1  0
 10 35  1  0
 13 36  1  1
 14 37  1  0
 14 38  1  0
 15 39  1  1
 17 40  1  0
 17 41  1  0
 19 42  1  0
 19 43  1  0
 24 44  1  0
M  CHG  2   1  -1  29  -1
M  END
>  <UniqueID>  (49) 
49

>  <SMILES>  (49) 
[NH-]C(=O)c1cc2ccc(CC(=O)[C@@H]3C[C@H](F)CN3CC(F)(F)F)cc2n1C(=O)[O-]

>  <Energy>  (49) 
93.3293025333147

>  <Genealogy>  (49) 
[NH-]C(=O)c1cc2ccc(CC(=O)C3CC(F)CN3CC(F)(F)F)cc2n1C(=O)[O-] (protonated)
[NH-]C(=O)c1cc2ccc(CC(=O)[C@@H]3C[C@H](F)CN3CC(F)(F)F)cc2n1C(=O)[O-] (chirality)
[NH-]C(=O)c1cc2ccc(CC(=O)[C@@H]3C[C@H](F)CN3CC(F)(F)F)cc2n1C(=O)[O-] (3D coordinates assigned)
[NH-]C(=O)c1cc2ccc(CC(=O)[C@@H]3C[C@H](F)CN3CC(F)(F)F)cc2n1C(=O)[O-] (nonaromatic ring conformer: 93.3293025333147 kcal/mol)

>  <smiles>  (49) 
NC(=O)c1cc2ccc(CC(=O)C3CC(F)CN3CC(F)(F)F)cc2n1C(=O)O

>  <score_type>  (49) 
oracle

>  <origin>  (49) 
adg

>  <m_score__min__energy>  (49) 
-11.529999999999999

>  <m_primary>  (49) 
energy

$$$$
49:0
     RDKit          3D

 37 39  0  0  0  0  0  0  0  0999 V2000
   -1.3870   25.8030  -28.9860 N   0  0  0  0  0  0  0  0  0  0  0  0
   -0.8710   24.4790  -29.1310 C   0  0  0  0  0  0  0  0  0  0  0  0
    0.1840   24.1570  -28.5200 O   0  0  0  0  0  0  0  0  0  0  0  0
   -1.5840   23.4630  -29.9310 C   0  0  0  0  0  0  0  0  0  0  0  0
   -0.9750   22.3130  -30.4230 C   0  0  0  0  0  0  0  0  0  0  0  0
   -1.9790   21.6100  -31.0470 C   0  0  0  0  0  0  0  0  0  0  0  0
   -1.9310   20.3950  -31.7240 C   0  0  0  0  0  0  0  0  0  0  0  0
   -3.1160   19.9190  -32.3080 C   0  0  0  0  0  0  0  0  0  0  0  0
   -4.3190   20.6650  -32.2210 C   0  0  0  0  0  0  0  0  0  0  0  0
   -5.5890   20.1360  -32.8610 C   0  0  0  0  0  0  0  0  0  0  0  0
   -5.9170   18.7270  -32.3090 C   0  0  0  0  0  0  0  0  0  0  0  0
   -7.3050   18.2500  -32.7530 C   0  0  0  0  0  0  0  0  0  0  0  0
   -8.3570   19.2690  -32.4110 C   0  0  0  0  0  0  0  0  0  0  0  0
   -9.5400   18.9820  -32.5220 O   0  0  0  0  0  0  0  0  0  0  0  0
   -7.9540   20.6290  -31.9160 C   0  0  0  0  0  0  0  0  0  0  0  0
   -6.7660   21.1540  -32.7340 C   0  0  0  0  0  0  0  0  0  0  0  0
   -4.3260   21.8950  -31.5220 C   0  0  0  0  0  0  0  0  0  0  0  0
   -3.1360   22.3360  -30.9300 C   0  0  0  0  0  0  0  0  0  0  0  0
   -2.9100   23.4810  -30.2470 N   0  0  0  0  0  0  0  0  0  0  0  0
   -3.8490   24.5460  -30.0160 C   0  0  0  0  0  0  0  0  0  0  0  0
   -4.6770   24.4700  -29.0710 O   0  0  0  0  0  0  0  0  0  0  0  0
   -3.8520   25.6710  -30.8320 O   0  0  0  0  0  0  0  0  0  0  0  0
   -0.8490   26.5190  -28.4480 H   0  0  0  0  0  0  0  0  0  0  0  0
   -2.3390   26.0520  -29.3350 H   0  0  0  0  0  0  0  0  0  0  0  0
    0.0833   22.0271  -30.3323 H   0  0  0  0  0  0  0  0  0  0  0  0
   -0.9933   19.8249  -31.7993 H   0  0  0  0  0  0  0  0  0  0  0  0
   -3.1111   18.9559  -32.8394 H   0  0  0  0  0  0  0  0  0  0  0  0
   -5.4270   20.0219  -33.9430 H   0  0  0  0  0  0  0  0  0  0  0  0
   -5.1620   18.0162  -32.6761 H   0  0  0  0  0  0  0  0  0  0  0  0
   -5.9091   18.7800  -31.2103 H   0  0  0  0  0  0  0  0  0  0  0  0
   -7.2996   18.0891  -33.8412 H   0  0  0  0  0  0  0  0  0  0  0  0
   -7.5394   17.3126  -32.2274 H   0  0  0  0  0  0  0  0  0  0  0  0
   -8.8026   21.3210  -32.0206 H   0  0  0  0  0  0  0  0  0  0  0  0
   -7.6605   20.5562  -30.8584 H   0  0  0  0  0  0  0  0  0  0  0  0
   -7.1227   21.3995  -33.7452 H   0  0  0  0  0  0  0  0  0  0  0  0
   -6.3735   22.0325  -32.2010 H   0  0  0  0  0  0  0  0  0  0  0  0
   -5.2466   22.4922  -31.4452 H   0  0  0  0  0  0  0  0  0  0  0  0
  1  2  1  0
  2  3  2  0
  2  4  1  0
  4  5  2  0
  5  6  1  0
  6  7  2  0
  7  8  1  0
  8  9  2  0
  9 10  1  0
 10 11  1  0
 11 12  1  0
 12 13  1  0
 13 14  2  0
 13 15  1  0
 15 16  1  0
  9 17  1  0
 17 18  2  0
 18 19  1  0
 19 20  1  0
 20 21  2  0
 20 22  1  0
 19  4  1  0
 18  6  1  0
 16 10  1  0
  1 23  1  0
  1 24  1  0
  5 25  1  0
  7 26  1  0
  8 27  1  0
 10 28  1  0
 11 29  1  0
 11 30  1  0
 12 31  1  0
 12 32  1  0
 15 33  1  0
 15 34  1  0
 16 35  1  0
 16 36  1  0
 17 37  1  0
M  CHG  1  22  -1
M  END
>  <UniqueID>  (50) 
50

>  <SMILES>  (50) 
NC(=O)c1cc2ccc(C3CCC(=O)CC3)cc2n1C(=O)[O-]

>  <Energy>  (50) 
80.19229888420821

>  <Genealogy>  (50) 
NC(=O)c1cc2ccc(C3CCC(=O)CC3)cc2n1C(=O)[O-] (protonated)
NC(=O)c1cc2ccc(C3CCC(=O)CC3)cc2n1C(=O)[O-] (3D coordinates assigned)
NC(=O)c1cc2ccc(C3CCC(=O)CC3)cc2n1C(=O)[O-] (nonaromatic ring conformer: 80.19229888420821 kcal/mol)

>  <smiles>  (50) 
NC(=O)c1cc2ccc(C3CCC(=O)CC3)cc2n1C(=O)O

>  <score_type>  (50) 
oracle

>  <origin>  (50) 
adg

>  <m_score__min__energy>  (50) 
-10.109999999999999

>  <m_primary>  (50) 
energy

$$$$
50:0
     RDKit          3D

 44 45  0  0  0  0  0  0  0  0999 V2000
   -2.6780   21.0990  -28.7460 C   0  0  0  0  0  0  0  0  0  0  0  0
   -2.5330   22.0440  -29.7990 O   0  0  0  0  0  0  0  0  0  0  0  0
   -2.9920   21.8030  -31.0960 C   0  0  0  0  0  0  0  0  0  0  0  0
   -3.1690   22.7580  -31.9040 O   0  0  0  0  0  0  0  0  0  0  0  0
   -3.2370   20.3970  -31.5410 C   0  0  0  0  0  0  0  0  0  0  0  0
   -3.9860   20.3960  -32.8410 C   0  0  0  0  0  0  0  0  0  0  0  0
   -3.3500   20.5190  -33.9220 O   0  0  0  0  0  0  0  0  0  0  0  0
   -5.4190   20.3050  -32.8650 N   0  0  0  0  0  0  0  0  0  0  0  0
   -6.1880   19.2730  -33.3110 C   0  0  0  0  0  0  0  0  0  0  0  0
   -5.7000   18.0690  -34.0140 C   0  0  0  0  0  0  0  0  0  0  0  0
   -4.4890   18.0870  -34.7710 N   0  0  0  0  0  0  0  0  0  0  0  0
   -6.3890   17.0150  -33.9840 O   0  0  0  0  0  0  0  0  0  0  0  0
   -7.5350   19.5210  -33.0590 C   0  0  0  0  0  0  0  0  0  0  0  0
   -7.5690   20.7570  -32.4530 C   0  0  0  0  0  0  0  0  0  0  0  0
   -8.6500   21.4920  -31.9750 C   0  0  0  0  0  0  0  0  0  0  0  0
   -8.3850   22.7290  -31.3630 C   0  0  0  0  0  0  0  0  0  0  0  0
   -7.0550   23.2030  -31.2350 C   0  0  0  0  0  0  0  0  0  0  0  0
   -6.7850   24.5040  -30.5330 C   0  0  0  0  0  0  0  0  0  0  0  0
   -5.3300   24.6220  -30.2140 C   0  0  0  0  0  0  0  0  0  0  0  0
   -4.6150   25.4530  -30.8380 O   0  0  0  0  0  0  0  0  0  0  0  0
   -4.7670   23.7740  -29.2560 O   0  0  0  0  0  0  0  0  0  0  0  0
   -4.1430   24.2570  -28.0710 C   0  0  0  0  0  0  0  0  0  0  0  0
   -2.6710   24.5440  -28.3520 C   0  0  0  0  0  0  0  0  0  0  0  0
   -2.4820   24.8560  -29.7070 O   0  0  0  0  0  0  0  0  0  0  0  0
   -5.9820   22.4230  -31.7240 C   0  0  0  0  0  0  0  0  0  0  0  0
   -6.2780   21.2060  -32.3470 C   0  0  0  0  0  0  0  0  0  0  0  0
   -2.5989   21.6143  -27.7774 H   0  0  0  0  0  0  0  0  0  0  0  0
   -3.6614   20.6121  -28.8231 H   0  0  0  0  0  0  0  0  0  0  0  0
   -1.8859   20.3397  -28.8231 H   0  0  0  0  0  0  0  0  0  0  0  0
   -2.2734   19.8836  -31.6749 H   0  0  0  0  0  0  0  0  0  0  0  0
   -3.8338   19.8747  -30.7788 H   0  0  0  0  0  0  0  0  0  0  0  0
   -4.1480   17.2160  -35.2350 H   0  0  0  0  0  0  0  0  0  0  0  0
   -3.9830   18.9790  -34.9620 H   0  0  0  0  0  0  0  0  0  0  0  0
   -8.3892   18.8689  -33.2938 H   0  0  0  0  0  0  0  0  0  0  0  0
   -9.6792   21.1165  -32.0732 H   0  0  0  0  0  0  0  0  0  0  0  0
   -9.2183   23.3359  -30.9792 H   0  0  0  0  0  0  0  0  0  0  0  0
   -7.0835   25.3382  -31.1850 H   0  0  0  0  0  0  0  0  0  0  0  0
   -7.3628   24.5354  -29.5975 H   0  0  0  0  0  0  0  0  0  0  0  0
   -4.6412   25.1820  -27.7452 H   0  0  0  0  0  0  0  0  0  0  0  0
   -4.2239   23.4983  -27.2787 H   0  0  0  0  0  0  0  0  0  0  0  0
   -2.3437   25.3942  -27.7355 H   0  0  0  0  0  0  0  0  0  0  0  0
   -2.0805   23.6489  -28.1069 H   0  0  0  0  0  0  0  0  0  0  0  0
   -2.9400   24.1460  -30.2260 H   0  0  0  0  0  0  0  0  0  0  0  0
   -4.9417   22.7642  -31.6174 H   0  0  0  0  0  0  0  0  0  0  0  0
  1  2  1  0
  2  3  1  0
  3  4  2  0
  3  5  1  0
  5  6  1  0
  6  7  2  0
  6  8  1  0
  8  9  1  0
  9 10  1  0
 10 11  1  0
 10 12  2  0
  9 13  2  0
 13 14  1  0
 14 15  2  0
 15 16  1  0
 16 17  2  0
 17 18  1  0
 18 19  1  0
 19 20  2  0
 19 21  1  0
 21 22  1  0
 22 23  1  0
 23 24  1  0
 17 25  1  0
 25 26  2  0
 26  8  1  0
 26 14  1  0
  1 27  1  0
  1 28  1  0
  1 29  1  0
  5 30  1  0
  5 31  1  0
 11 32  1  0
 11 33  1  0
 13 34  1  0
 15 35  1  0
 16 36  1  0
 18 37  1  0
 18 38  1  0
 22 39  1  0
 22 40  1  0
 23 41  1  0
 23 42  1  0
 24 43  1  0
 25 44  1  0
M  END
>  <UniqueID>  (51) 
51

>  <SMILES>  (51) 
COC(=O)CC(=O)n1c(C(N)=O)cc2ccc(CC(=O)OCCO)cc21

>  <Energy>  (51) 
73.06033313865841

>  <Genealogy>  (51) 
COC(=O)CC(=O)n1c(C(N)=O)cc2ccc(CC(=O)OCCO)cc21 (3D coordinates assigned)
COC(=O)CC(=O)n1c(C(N)=O)cc2ccc(CC(=O)OCCO)cc21 (optimized conformer: 73.06033313865841 kcal/mol)

>  <smiles>  (51) 
COC(=O)CC(=O)n1c(C(N)=O)cc2ccc(CC(=O)OCCO)cc21

>  <score_type>  (51) 
oracle

>  <origin>  (51) 
adg

>  <m_score__min__energy>  (51) 
-7.29

>  <m_primary>  (51) 
energy

$$$$
51:0
     RDKit          3D

 45 46  0  0  0  0  0  0  0  0999 V2000
   -1.0330   25.2720  -28.8360 C   0  0  0  0  0  0  0  0  0  0  0  0
   -2.4080   25.2040  -29.1470 O   0  0  0  0  0  0  0  0  0  0  0  0
   -3.0670   24.2980  -28.2800 C   0  0  0  0  0  0  0  0  0  0  0  0
   -3.5620   23.0800  -29.0550 C   0  0  0  0  0  0  0  0  0  0  0  0
   -3.2840   23.2490  -30.4400 O   0  0  0  0  0  0  0  0  0  0  0  0
   -4.0990   22.7220  -31.4460 C   0  0  0  0  0  0  0  0  0  0  0  0
   -3.5850   22.1340  -32.4380 O   0  0  0  0  0  0  0  0  0  0  0  0
   -5.5270   22.8600  -31.3540 N   0  0  0  0  0  0  0  0  0  0  0  0
   -6.2260   23.9650  -30.9690 C   0  0  0  0  0  0  0  0  0  0  0  0
   -5.6390   25.2010  -30.4090 C   0  0  0  0  0  0  0  0  0  0  0  0
   -4.2830   25.5540  -30.6870 N   0  0  0  0  0  0  0  0  0  0  0  0
   -6.3440   25.9750  -29.7090 O   0  0  0  0  0  0  0  0  0  0  0  0
   -7.5980   23.7390  -31.0820 C   0  0  0  0  0  0  0  0  0  0  0  0
   -7.7180   22.4510  -31.5460 C   0  0  0  0  0  0  0  0  0  0  0  0
   -8.8600   21.7070  -31.8340 C   0  0  0  0  0  0  0  0  0  0  0  0
   -8.6880   20.3980  -32.3130 C   0  0  0  0  0  0  0  0  0  0  0  0
   -7.3910   19.8670  -32.5140 C   0  0  0  0  0  0  0  0  0  0  0  0
   -7.2210   18.4480  -32.9930 C   0  0  0  0  0  0  0  0  0  0  0  0
   -5.7460   18.0280  -33.0040 C   0  0  0  0  0  0  0  0  0  0  0  0
   -5.0870   18.3680  -34.3050 C   0  0  0  0  0  0  0  0  0  0  0  0
   -5.6960   18.1570  -35.3890 O   0  0  0  0  0  0  0  0  0  0  0  0
   -3.7840   18.8730  -34.3060 O   0  0  0  0  0  0  0  0  0  0  0  0
   -3.0720   19.1540  -33.1060 C   0  0  0  0  0  0  0  0  0  0  0  0
   -6.2550   20.6500  -32.2080 C   0  0  0  0  0  0  0  0  0  0  0  0
   -6.4550   21.9420  -31.7070 C   0  0  0  0  0  0  0  0  0  0  0  0
   -0.9040   25.2784  -27.7436 H   0  0  0  0  0  0  0  0  0  0  0  0
   -0.5173   24.3983  -29.2610 H   0  0  0  0  0  0  0  0  0  0  0  0
   -0.6060   26.1924  -29.2610 H   0  0  0  0  0  0  0  0  0  0  0  0
   -2.3656   23.9694  -27.4989 H   0  0  0  0  0  0  0  0  0  0  0  0
   -3.9307   24.8053  -27.8254 H   0  0  0  0  0  0  0  0  0  0  0  0
   -3.0500   22.1789  -28.6863 H   0  0  0  0  0  0  0  0  0  0  0  0
   -4.6472   22.9724  -28.9112 H   0  0  0  0  0  0  0  0  0  0  0  0
   -3.8910   26.4520  -30.3250 H   0  0  0  0  0  0  0  0  0  0  0  0
   -3.6520   24.9120  -31.2130 H   0  0  0  0  0  0  0  0  0  0  0  0
   -8.4111   24.4424  -30.8492 H   0  0  0  0  0  0  0  0  0  0  0  0
   -9.8647   22.1313  -31.6908 H   0  0  0  0  0  0  0  0  0  0  0  0
   -9.5700   19.7790  -32.5343 H   0  0  0  0  0  0  0  0  0  0  0  0
   -7.7783   17.7762  -32.3236 H   0  0  0  0  0  0  0  0  0  0  0  0
   -7.6042   18.3843  -34.0221 H   0  0  0  0  0  0  0  0  0  0  0  0
   -5.2202   18.5490  -32.1903 H   0  0  0  0  0  0  0  0  0  0  0  0
   -5.6972   16.9376  -32.8676 H   0  0  0  0  0  0  0  0  0  0  0  0
   -3.7019   18.9054  -32.2391 H   0  0  0  0  0  0  0  0  0  0  0  0
   -2.1522   18.5514  -33.0757 H   0  0  0  0  0  0  0  0  0  0  0  0
   -2.8116   20.2223  -33.0757 H   0  0  0  0  0  0  0  0  0  0  0  0
   -5.2398   20.2546  -32.3595 H   0  0  0  0  0  0  0  0  0  0  0  0
  1  2  1  0
  2  3  1  0
  3  4  1  0
  4  5  1  0
  5  6  1  0
  6  7  2  0
  6  8  1  0
  8  9  1  0
  9 10  1  0
 10 11  1  0
 10 12  2  0
  9 13  2  0
 13 14  1  0
 14 15  2  0
 15 16  1  0
 16 17  2  0
 17 18  1  0
 18 19  1  0
 19 20  1  0
 20 21  2  0
 20 22  1  0
 22 23  1  0
 17 24  1  0
 24 25  2  0
 25  8  1  0
 25 14  1  0
  1 26  1  0
  1 27  1  0
  1 28  1  0
  3 29  1  0
  3 30  1  0
  4 31  1  0
  4 32  1  0
 11 33  1  0
 11 34  1  0
 13 35  1  0
 15 36  1  0
 16 37  1  0
 18 38  1  0
 18 39  1  0
 19 40  1  0
 19 41  1  0
 23 42  1  0
 23 43  1  0
 23 44  1  0
 24 45  1  0
M  END
>  <UniqueID>  (52) 
52

>  <SMILES>  (52) 
COCCOC(=O)n1c(C(N)=O)cc2ccc(CCC(=O)OC)cc21

>  <Energy>  (52) 
74.50135037690073

>  <Genealogy>  (52) 
COCCOC(=O)n1c(C(N)=O)cc2ccc(CCC(=O)OC)cc21 (3D coordinates assigned)
COCCOC(=O)n1c(C(N)=O)cc2ccc(CCC(=O)OC)cc21 (optimized conformer: 74.50135037690073 kcal/mol)

>  <smiles>  (52) 
COCCOC(=O)n1c(C(N)=O)cc2ccc(CCC(=O)OC)cc21

>  <score_type>  (52) 
oracle

>  <origin>  (52) 
adg

>  <m_score__min__energy>  (52) 
-8.6300000000000008

>  <m_primary>  (52) 
energy

$$$$
52:0
     RDKit          3D

 47 49  0  0  0  0  0  0  0  0999 V2000
   -9.2910   19.5740  -32.6800 C   0  0  0  0  0  0  0  0  0  0  0  0
   -8.2400   18.7650  -31.9280 C   0  0  0  0  0  0  0  0  0  0  0  0
   -7.0090   19.4790  -31.8690 O   0  0  0  0  0  0  0  0  0  0  0  0
   -6.1640   19.6550  -32.9740 C   0  0  0  0  0  0  0  0  0  0  0  0
   -6.4380   20.5240  -33.8470 O   0  0  0  0  0  0  0  0  0  0  0  0
   -4.8930   18.8340  -33.1090 C   0  0  0  0  0  0  0  0  0  0  0  0
   -5.0250   17.4990  -32.3470 C   0  0  0  0  0  0  0  0  0  0  0  0
   -4.7050   18.5180  -34.6110 C   0  0  0  0  0  0  0  0  0  0  0  0
   -3.7160   19.6190  -32.5050 C   0  0  0  0  0  0  0  0  0  0  0  0
   -2.3770   19.1270  -32.5320 C   0  0  0  0  0  0  0  0  0  0  0  0
   -1.3300   19.8400  -31.9250 C   0  0  0  0  0  0  0  0  0  0  0  0
   -1.6340   21.0370  -31.2890 C   0  0  0  0  0  0  0  0  0  0  0  0
   -0.8190   21.9040  -30.5980 C   0  0  0  0  0  0  0  0  0  0  0  0
   -1.6580   22.9230  -30.1530 C   0  0  0  0  0  0  0  0  0  0  0  0
   -1.1750   24.1190  -29.4320 C   0  0  0  0  0  0  0  0  0  0  0  0
   -1.9750   25.2940  -29.3420 N   0  0  0  0  0  0  0  0  0  0  0  0
   -0.0190   24.1200  -28.9290 O   0  0  0  0  0  0  0  0  0  0  0  0
   -2.9420   22.6890  -30.5450 N   0  0  0  0  0  0  0  0  0  0  0  0
   -4.1120   23.4540  -30.2170 C   0  0  0  0  0  0  0  0  0  0  0  0
   -4.3070   23.8150  -29.0250 O   0  0  0  0  0  0  0  0  0  0  0  0
   -4.9900   23.8400  -31.2380 O   0  0  0  0  0  0  0  0  0  0  0  0
   -6.2830   23.3360  -31.4370 C   0  0  0  0  0  0  0  0  0  0  0  0
   -7.3320   23.2880  -30.5340 C   0  0  0  0  0  0  0  0  0  0  0  0
   -8.3480   22.6760  -31.2420 C   0  0  0  0  0  0  0  0  0  0  0  0
   -7.9120   22.3960  -32.4500 O   0  0  0  0  0  0  0  0  0  0  0  0
   -6.6780   22.7780  -32.5930 N   0  0  0  0  0  0  0  0  0  0  0  0
   -2.9080   21.5310  -31.2410 C   0  0  0  0  0  0  0  0  0  0  0  0
   -3.9760   20.8340  -31.8140 C   0  0  0  0  0  0  0  0  0  0  0  0
   -9.9491   20.0806  -31.9587 H   0  0  0  0  0  0  0  0  0  0  0  0
   -8.7932   20.3243  -33.3119 H   0  0  0  0  0  0  0  0  0  0  0  0
   -9.8889   18.9008  -33.3119 H   0  0  0  0  0  0  0  0  0  0  0  0
   -8.5956   18.5715  -30.9052 H   0  0  0  0  0  0  0  0  0  0  0  0
   -8.0754   17.8154  -32.4583 H   0  0  0  0  0  0  0  0  0  0  0  0
   -5.0060   17.6915  -31.2641 H   0  0  0  0  0  0  0  0  0  0  0  0
   -5.9754   17.0152  -32.6168 H   0  0  0  0  0  0  0  0  0  0  0  0
   -4.1878   16.8385  -32.6168 H   0  0  0  0  0  0  0  0  0  0  0  0
   -4.1454   17.5774  -34.7205 H   0  0  0  0  0  0  0  0  0  0  0  0
   -5.6898   18.4167  -35.0905 H   0  0  0  0  0  0  0  0  0  0  0  0
   -4.1461   19.3351  -35.0905 H   0  0  0  0  0  0  0  0  0  0  0  0
   -2.1610   18.1736  -33.0365 H   0  0  0  0  0  0  0  0  0  0  0  0
   -0.2977   19.4609  -31.9525 H   0  0  0  0  0  0  0  0  0  0  0  0
    0.2645   21.8120  -30.4323 H   0  0  0  0  0  0  0  0  0  0  0  0
   -2.9370   25.3220  -29.7460 H   0  0  0  0  0  0  0  0  0  0  0  0
   -7.3515   23.6520  -29.4961 H   0  0  0  0  0  0  0  0  0  0  0  0
   -9.3557   22.4588  -30.8582 H   0  0  0  0  0  0  0  0  0  0  0  0
   -6.1090   22.6620  -33.4590 H   0  0  0  0  0  0  0  0  0  0  0  0
   -5.0027   21.2201  -31.7314 H   0  0  0  0  0  0  0  0  0  0  0  0
  1  2  1  0
  2  3  1  0
  3  4  1  0
  4  5  2  0
  4  6  1  0
  6  7  1  0
  6  8  1  0
  6  9  1  0
  9 10  2  0
 10 11  1  0
 11 12  2  0
 12 13  1  0
 13 14  2  0
 14 15  1  0
 15 16  1  0
 15 17  2  0
 14 18  1  0
 18 19  1  0
 19 20  2  0
 19 21  1  0
 21 22  1  0
 22 23  1  0
 23 24  2  0
 24 25  1  0
 25 26  1  0
 18 27  1  0
 27 28  2  0
 28  9  1  0
 27 12  1  0
 26 22  2  0
  1 29  1  0
  1 30  1  0
  1 31  1  0
  2 32  1  0
  2 33  1  0
  7 34  1  0
  7 35  1  0
  7 36  1  0
  8 37  1  0
  8 38  1  0
  8 39  1  0
 10 40  1  0
 11 41  1  0
 13 42  1  0
 16 43  1  0
 23 44  1  0
 24 45  1  0
 26 46  1  0
 28 47  1  0
M  CHG  2  16  -1  26   1
M  END
>  <UniqueID>  (53) 
53

>  <SMILES>  (53) 
CCOC(=O)C(C)(C)c1ccc2cc(C([NH-])=O)n(C(=O)Oc3cco[nH+]3)c2c1

>  <Energy>  (53) 
119.63746035791746

>  <Genealogy>  (53) 
CCOC(=O)C(C)(C)c1ccc2cc(C([NH-])=O)n(C(=O)Oc3cco[nH+]3)c2c1 (protonated)
CCOC(=O)C(C)(C)c1ccc2cc(C([NH-])=O)n(C(=O)Oc3cco[nH+]3)c2c1 (3D coordinates assigned)
CCOC(=O)C(C)(C)c1ccc2cc(C([NH-])=O)n(C(=O)Oc3cco[nH+]3)c2c1 (optimized conformer: 119.63746035791746 kcal/mol)

>  <smiles>  (53) 
CCOC(=O)C(C)(C)c1ccc2cc(C(N)=O)n(C(=O)Oc3ccon3)c2c1

>  <score_type>  (53) 
oracle

>  <origin>  (53) 
adg

>  <m_score__min__energy>  (53) 
-10.07

>  <m_primary>  (53) 
energy

$$$$
53:0
     RDKit          3D

 39 40  0  0  0  0  0  0  0  0999 V2000
    1.1690   20.3110  -36.6910 C   0  0  0  0  0  0  0  0  0  0  0  0
    0.8870   21.3060  -35.5620 C   0  0  2  0  0  0  0  0  0  0  0  0
   -0.4430   21.0720  -34.9920 N   0  0  0  0  0  0  0  0  0  0  0  0
   -0.8640   19.7760  -34.5410 C   0  0  0  0  0  0  0  0  0  0  0  0
   -0.0450   18.8180  -34.5030 O   0  0  0  0  0  0  0  0  0  0  0  0
   -2.3010   19.5380  -34.1780 C   0  0  0  0  0  0  0  0  0  0  0  0
   -2.4350   18.9530  -32.7650 C   0  0  0  0  0  0  0  0  0  0  0  0
   -1.8660   19.8800  -31.7200 C   0  0  0  0  0  0  0  0  0  0  0  0
   -0.8050   19.4450  -30.8870 C   0  0  0  0  0  0  0  0  0  0  0  0
   -0.3250   20.2650  -29.8520 C   0  0  0  0  0  0  0  0  0  0  0  0
   -0.9220   21.5090  -29.6770 C   0  0  0  0  0  0  0  0  0  0  0  0
   -0.6830   22.4780  -28.7300 C   0  0  0  0  0  0  0  0  0  0  0  0
   -1.5860   23.5010  -29.0120 C   0  0  0  0  0  0  0  0  0  0  0  0
   -1.6120   24.7850  -28.2820 C   0  0  0  0  0  0  0  0  0  0  0  0
   -1.3300   26.0140  -28.9470 N   0  0  0  0  0  0  0  0  0  0  0  0
   -1.8370   24.7920  -27.0420 O   0  0  0  0  0  0  0  0  0  0  0  0
   -2.3610   23.1740  -30.0860 N   0  0  0  0  0  0  0  0  0  0  0  0
   -3.4700   23.9100  -30.6250 C   0  0  0  0  0  0  0  0  0  0  0  0
   -4.4030   23.3100  -31.2210 O   0  0  0  0  0  0  0  0  0  0  0  0
   -3.5390   25.2900  -30.4680 O   0  0  0  0  0  0  0  0  0  0  0  0
   -1.9390   21.9530  -30.4840 C   0  0  0  0  0  0  0  0  0  0  0  0
   -2.4470   21.1510  -31.5120 C   0  0  0  0  0  0  0  0  0  0  0  0
    0.9880   22.7130  -36.0740 C   0  0  0  0  0  0  0  0  0  0  0  0
    1.9740   23.0690  -36.7710 O   0  0  0  0  0  0  0  0  0  0  0  0
    0.0060   23.6400  -35.7500 O   0  0  0  0  0  0  0  0  0  0  0  0
    1.4451   19.3370  -36.2609 H   0  0  0  0  0  0  0  0  0  0  0  0
    0.2682   20.1957  -37.3116 H   0  0  0  0  0  0  0  0  0  0  0  0
    1.9964   20.6855  -37.3116 H   0  0  0  0  0  0  0  0  0  0  0  0
    1.6382   21.1593  -34.7720 H   0  0  0  0  0  0  0  0  0  0  0  0
   -1.1360   21.8560  -34.9660 H   0  0  0  0  0  0  0  0  0  0  0  0
   -2.8438   20.4937  -34.2221 H   0  0  0  0  0  0  0  0  0  0  0  0
   -2.7222   18.8151  -34.8922 H   0  0  0  0  0  0  0  0  0  0  0  0
   -3.5002   18.7837  -32.5490 H   0  0  0  0  0  0  0  0  0  0  0  0
   -1.8703   18.0097  -32.7299 H   0  0  0  0  0  0  0  0  0  0  0  0
   -0.3530   18.4559  -31.0524 H   0  0  0  0  0  0  0  0  0  0  0  0
    0.4971   19.9336  -29.2006 H   0  0  0  0  0  0  0  0  0  0  0  0
    0.0627   22.4509  -27.9218 H   0  0  0  0  0  0  0  0  0  0  0  0
   -1.2380   26.0530  -29.9850 H   0  0  0  0  0  0  0  0  0  0  0  0
   -3.2777   21.5012  -32.1423 H   0  0  0  0  0  0  0  0  0  0  0  0
  1  2  1  0
  2  3  1  0
  3  4  1  0
  4  5  2  0
  4  6  1  0
  6  7  1  0
  7  8  1  0
  8  9  2  0
  9 10  1  0
 10 11  2  0
 11 12  1  0
 12 13  2  0
 13 14  1  0
 14 15  1  0
 14 16  2  0
 13 17  1  0
 17 18  1  0
 18 19  2  0
 18 20  1  0
 17 21  1  0
 21 22  2  0
  2 23  1  0
 23 24  2  0
 23 25  1  0
 22  8  1  0
 21 11  1  0
  1 26  1  0
  1 27  1  0
  1 28  1  0
  2 29  1  1
  3 30  1  0
  6 31  1  0
  6 32  1  0
  7 33  1  0
  7 34  1  0
  9 35  1  0
 10 36  1  0
 12 37  1  0
 15 38  1  0
 22 39  1  0
M  CHG  3  15  -1  20  -1  25  -1
M  END
>  <UniqueID>  (54) 
54

>  <SMILES>  (54) 
C[C@H](NC(=O)CCc1ccc2cc(C([NH-])=O)n(C(=O)[O-])c2c1)C(=O)[O-]

>  <Energy>  (54) 
69.17957309780563

>  <Genealogy>  (54) 
CC(NC(=O)CCc1ccc2cc(C([NH-])=O)n(C(=O)[O-])c2c1)C(=O)[O-] (protonated)
C[C@H](NC(=O)CCc1ccc2cc(C([NH-])=O)n(C(=O)[O-])c2c1)C(=O)[O-] (chirality)
C[C@H](NC(=O)CCc1ccc2cc(C([NH-])=O)n(C(=O)[O-])c2c1)C(=O)[O-] (3D coordinates assigned)
C[C@H](NC(=O)CCc1ccc2cc(C([NH-])=O)n(C(=O)[O-])c2c1)C(=O)[O-] (optimized conformer: 69.17957309780563 kcal/mol)

>  <smiles>  (54) 
CC(NC(=O)CCc1ccc2cc(C(N)=O)n(C(=O)O)c2c1)C(=O)O

>  <score_type>  (54) 
oracle

>  <origin>  (54) 
adg

>  <m_score__min__energy>  (54) 
-11.73

>  <m_primary>  (54) 
energy

$$$$
54:0
     RDKit          3D

 40 41  0  0  0  0  0  0  0  0999 V2000
   -3.3230   21.4420  -29.8600 C   0  0  0  0  0  0  0  0  0  0  0  0
   -2.9780   22.2270  -31.0550 N   0  0  0  0  0  0  0  0  0  0  0  0
   -1.7080   21.7540  -31.6340 C   0  0  0  0  0  0  0  0  0  0  0  0
   -4.0610   22.1480  -32.0100 C   0  0  0  0  0  0  0  0  0  0  0  0
   -3.8980   21.5630  -33.1180 O   0  0  0  0  0  0  0  0  0  0  0  0
   -5.3770   22.5830  -31.6380 N   0  0  0  0  0  0  0  0  0  0  0  0
   -5.7410   23.7430  -31.0250 C   0  0  0  0  0  0  0  0  0  0  0  0
   -4.8550   24.8940  -30.7560 C   0  0  0  0  0  0  0  0  0  0  0  0
   -3.4860   24.6990  -30.4170 N   0  0  0  0  0  0  0  0  0  0  0  0
   -5.3050   26.0660  -30.8600 O   0  0  0  0  0  0  0  0  0  0  0  0
   -7.1040   23.7300  -30.7300 C   0  0  0  0  0  0  0  0  0  0  0  0
   -7.5660   22.5170  -31.1890 C   0  0  0  0  0  0  0  0  0  0  0  0
   -8.8420   21.9640  -31.1390 C   0  0  0  0  0  0  0  0  0  0  0  0
   -9.0190   20.6710  -31.6600 C   0  0  0  0  0  0  0  0  0  0  0  0
   -7.9260   19.9600  -32.2190 C   0  0  0  0  0  0  0  0  0  0  0  0
   -8.1170   18.5590  -32.7390 C   0  0  0  0  0  0  0  0  0  0  0  0
   -6.7760   17.8560  -33.0050 C   0  0  0  0  0  0  0  0  0  0  0  0
   -6.0940   18.3250  -34.2980 C   0  0  0  0  0  0  0  0  0  0  0  0
   -4.8290   18.8680  -34.0330 O   0  0  0  0  0  0  0  0  0  0  0  0
   -6.6460   20.5550  -32.2500 C   0  0  0  0  0  0  0  0  0  0  0  0
   -6.5030   21.8460  -31.7340 C   0  0  0  0  0  0  0  0  0  0  0  0
   -3.0700   22.0177  -28.9575 H   0  0  0  0  0  0  0  0  0  0  0  0
   -4.4008   21.2220  -29.8644 H   0  0  0  0  0  0  0  0  0  0  0  0
   -2.7563   20.4992  -29.8644 H   0  0  0  0  0  0  0  0  0  0  0  0
   -2.8510   23.2250  -30.7640 H   0  0  0  0  0  0  0  0  0  0  0  0
   -1.0102   21.4941  -30.8244 H   0  0  0  0  0  0  0  0  0  0  0  0
   -1.8964   20.8658  -32.2549 H   0  0  0  0  0  0  0  0  0  0  0  0
   -1.2695   22.5491  -32.2549 H   0  0  0  0  0  0  0  0  0  0  0  0
   -2.7390   25.3000  -30.8320 H   0  0  0  0  0  0  0  0  0  0  0  0
   -7.6865   24.5212  -30.2354 H   0  0  0  0  0  0  0  0  0  0  0  0
   -9.6854   22.5214  -30.7054 H   0  0  0  0  0  0  0  0  0  0  0  0
  -10.0152   20.2054  -31.6341 H   0  0  0  0  0  0  0  0  0  0  0  0
   -8.6813   17.9778  -31.9948 H   0  0  0  0  0  0  0  0  0  0  0  0
   -8.6629   18.6216  -33.6919 H   0  0  0  0  0  0  0  0  0  0  0  0
   -6.1012   18.0588  -32.1603 H   0  0  0  0  0  0  0  0  0  0  0  0
   -6.9862   16.7821  -33.1170 H   0  0  0  0  0  0  0  0  0  0  0  0
   -5.9815   17.4666  -34.9766 H   0  0  0  0  0  0  0  0  0  0  0  0
   -6.7187   19.1037  -34.7599 H   0  0  0  0  0  0  0  0  0  0  0  0
   -4.9590   19.8460  -33.9190 H   0  0  0  0  0  0  0  0  0  0  0  0
   -5.7835   20.0164  -32.6695 H   0  0  0  0  0  0  0  0  0  0  0  0
  1  2  1  0
  2  3  1  0
  2  4  1  0
  4  5  2  0
  4  6  1  0
  6  7  1  0
  7  8  1  0
  8  9  1  0
  8 10  2  0
  7 11  2  0
 11 12  1  0
 12 13  2  0
 13 14  1  0
 14 15  2  0
 15 16  1  0
 16 17  1  0
 17 18  1  0
 18 19  1  0
 15 20  1  0
 20 21  2  0
 21  6  1  0
 21 12  1  0
  1 22  1  0
  1 23  1  0
  1 24  1  0
  2 25  1  0
  3 26  1  0
  3 27  1  0
  3 28  1  0
  9 29  1  0
 11 30  1  0
 13 31  1  0
 14 32  1  0
 16 33  1  0
 16 34  1  0
 17 35  1  0
 17 36  1  0
 18 37  1  0
 18 38  1  0
 19 39  1  0
 20 40  1  0
M  CHG  2   2   1   9  -1
M  END
>  <UniqueID>  (55) 
55

>  <SMILES>  (55) 
C[NH+](C)C(=O)n1c(C([NH-])=O)cc2ccc(CCCO)cc21

>  <Energy>  (55) 
76.08032433677315

>  <Genealogy>  (55) 
C[NH+](C)C(=O)n1c(C([NH-])=O)cc2ccc(CCCO)cc21 (protonated)
C[NH+](C)C(=O)n1c(C([NH-])=O)cc2ccc(CCCO)cc21 (3D coordinates assigned)
C[NH+](C)C(=O)n1c(C([NH-])=O)cc2ccc(CCCO)cc21 (optimized conformer: 76.08032433677315 kcal/mol)

>  <smiles>  (55) 
CN(C)C(=O)n1c(C(N)=O)cc2ccc(CCCO)cc21

>  <score_type>  (55) 
oracle

>  <origin>  (55) 
adg

>  <m_score__min__energy>  (55) 
-9.0500000000000007

>  <m_primary>  (55) 
energy

$$$$
55:0
     RDKit          3D

 57 58  0  0  0  0  0  0  0  0999 V2000
   -1.1730   20.4410  -34.5350 C   0  0  0  0  0  0  0  0  0  0  0  0
   -2.1550   21.0220  -33.6130 N   0  0  0  0  0  0  0  0  0  0  0  0
   -3.3390   20.1700  -33.3900 C   0  0  1  0  0  0  0  0  0  0  0  0
   -4.5190   20.7970  -33.8410 O   0  0  0  0  0  0  0  0  0  0  0  0
   -3.1460   18.7530  -33.9850 C   0  0  0  0  0  0  0  0  0  0  0  0
   -4.1990   17.7530  -33.4860 C   0  0  0  0  0  0  0  0  0  0  0  0
   -5.5290   18.3640  -33.4610 N   0  0  0  0  0  0  0  0  0  0  0  0
   -6.5040   18.0820  -32.4460 C   0  0  0  0  0  0  0  0  0  0  0  0
   -6.2240   17.3090  -31.4880 O   0  0  0  0  0  0  0  0  0  0  0  0
   -7.8740   18.6920  -32.5280 C   0  0  0  0  0  0  0  0  0  0  0  0
   -7.8390   20.1460  -32.1360 C   0  0  0  0  0  0  0  0  0  0  0  0
   -9.0400   20.8690  -31.9430 C   0  0  0  0  0  0  0  0  0  0  0  0
   -9.0140   22.2210  -31.5580 C   0  0  0  0  0  0  0  0  0  0  0  0
   -7.7710   22.8230  -31.3830 C   0  0  0  0  0  0  0  0  0  0  0  0
   -7.4500   24.0960  -30.9670 C   0  0  0  0  0  0  0  0  0  0  0  0
   -6.0570   24.1240  -30.9180 C   0  0  0  0  0  0  0  0  0  0  0  0
   -5.2690   25.3250  -30.5780 C   0  0  0  0  0  0  0  0  0  0  0  0
   -3.8660   25.3530  -30.8490 N   0  0  0  0  0  0  0  0  0  0  0  0
   -5.8180   26.3130  -30.0170 O   0  0  0  0  0  0  0  0  0  0  0  0
   -5.5420   22.9200  -31.2840 N   0  0  0  0  0  0  0  0  0  0  0  0
   -4.1760   22.4830  -31.2140 C   0  0  0  0  0  0  0  0  0  0  0  0
   -3.3920   22.7310  -32.1710 O   0  0  0  0  0  0  0  0  0  0  0  0
   -3.6880   21.6670  -30.0470 C   0  0  0  0  0  0  0  0  0  0  0  0
   -2.4540   22.2990  -29.3830 C   0  0  0  0  0  0  0  0  0  0  0  0
   -2.7310   23.6780  -28.9220 N   0  0  0  0  0  0  0  0  0  0  0  0
   -3.7670   23.6940  -27.8730 C   0  0  0  0  0  0  0  0  0  0  0  0
   -1.4960   24.2980  -28.4080 C   0  0  0  0  0  0  0  0  0  0  0  0
   -6.6010   22.1360  -31.5680 C   0  0  0  0  0  0  0  0  0  0  0  0
   -6.5960   20.7900  -31.9380 C   0  0  0  0  0  0  0  0  0  0  0  0
   -0.3666   19.9639  -33.9588 H   0  0  0  0  0  0  0  0  0  0  0  0
   -1.6654   19.6887  -35.1688 H   0  0  0  0  0  0  0  0  0  0  0  0
   -0.7507   21.2347  -35.1688 H   0  0  0  0  0  0  0  0  0  0  0  0
   -2.4850   21.9240  -34.0350 H   0  0  0  0  0  0  0  0  0  0  0  0
   -3.4536   20.0340  -32.3045 H   0  0  0  0  0  0  0  0  0  0  0  0
   -4.3690   21.7780  -33.8450 H   0  0  0  0  0  0  0  0  0  0  0  0
   -3.2147   18.8190  -35.0809 H   0  0  0  0  0  0  0  0  0  0  0  0
   -2.1604   18.3876  -33.6608 H   0  0  0  0  0  0  0  0  0  0  0  0
   -4.2153   16.8820  -34.1577 H   0  0  0  0  0  0  0  0  0  0  0  0
   -3.9345   17.4449  -32.4637 H   0  0  0  0  0  0  0  0  0  0  0  0
   -5.7650   19.0520  -34.2140 H   0  0  0  0  0  0  0  0  0  0  0  0
   -8.2454   18.6060  -33.5598 H   0  0  0  0  0  0  0  0  0  0  0  0
   -8.5392   18.1568  -31.8344 H   0  0  0  0  0  0  0  0  0  0  0  0
  -10.0066   20.3667  -32.0962 H   0  0  0  0  0  0  0  0  0  0  0  0
   -9.9453   22.7847  -31.4002 H   0  0  0  0  0  0  0  0  0  0  0  0
   -8.1437   24.9148  -30.7253 H   0  0  0  0  0  0  0  0  0  0  0  0
   -3.3090   24.4700  -30.8740 H   0  0  0  0  0  0  0  0  0  0  0  0
   -4.4943   21.5934  -29.3023 H   0  0  0  0  0  0  0  0  0  0  0  0
   -3.4026   20.6728  -30.4213 H   0  0  0  0  0  0  0  0  0  0  0  0
   -2.1601   21.6856  -28.5185 H   0  0  0  0  0  0  0  0  0  0  0  0
   -1.6454   22.3405  -30.1276 H   0  0  0  0  0  0  0  0  0  0  0  0
   -3.2869   23.6866  -26.8833 H   0  0  0  0  0  0  0  0  0  0  0  0
   -4.3796   24.6017  -27.9765 H   0  0  0  0  0  0  0  0  0  0  0  0
   -4.4074   22.8056  -27.9765 H   0  0  0  0  0  0  0  0  0  0  0  0
   -1.5120   24.2900  -27.3081 H   0  0  0  0  0  0  0  0  0  0  0  0
   -0.6243   23.7306  -28.7662 H   0  0  0  0  0  0  0  0  0  0  0  0
   -1.4303   25.3360  -28.7662 H   0  0  0  0  0  0  0  0  0  0  0  0
   -5.6500   20.2448  -32.0720 H   0  0  0  0  0  0  0  0  0  0  0  0
  1  2  1  0
  2  3  1  0
  3  4  1  0
  3  5  1  0
  5  6  1  0
  6  7  1  0
  7  8  1  0
  8  9  2  0
  8 10  1  0
 10 11  1  0
 11 12  2  0
 12 13  1  0
 13 14  2  0
 14 15  1  0
 15 16  2  0
 16 17  1  0
 17 18  1  0
 17 19  2  0
 16 20  1  0
 20 21  1  0
 21 22  2  0
 21 23  1  0
 23 24  1  0
 24 25  1  0
 25 26  1  0
 25 27  1  0
 20 28  1  0
 28 29  2  0
 29 11  1  0
 28 14  1  0
  1 30  1  0
  1 31  1  0
  1 32  1  0
  2 33  1  0
  3 34  1  1
  4 35  1  0
  5 36  1  0
  5 37  1  0
  6 38  1  0
  6 39  1  0
  7 40  1  0
 10 41  1  0
 10 42  1  0
 12 43  1  0
 13 44  1  0
 15 45  1  0
 18 46  1  0
 23 47  1  0
 23 48  1  0
 24 49  1  0
 24 50  1  0
 26 51  1  0
 26 52  1  0
 26 53  1  0
 27 54  1  0
 27 55  1  0
 27 56  1  0
 29 57  1  0
M  CHG  1  18  -1
M  END
>  <UniqueID>  (56) 
56

>  <SMILES>  (56) 
CN[C@@H](O)CCNC(=O)Cc1ccc2cc(C([NH-])=O)n(C(=O)CCN(C)C)c2c1

>  <Energy>  (56) 
88.39291661165538

>  <Genealogy>  (56) 
CNC(O)CCNC(=O)Cc1ccc2cc(C([NH-])=O)n(C(=O)CCN(C)C)c2c1 (protonated)
CN[C@@H](O)CCNC(=O)Cc1ccc2cc(C([NH-])=O)n(C(=O)CCN(C)C)c2c1 (chirality)
CN[C@@H](O)CCNC(=O)Cc1ccc2cc(C([NH-])=O)n(C(=O)CCN(C)C)c2c1 (3D coordinates assigned)
CN[C@@H](O)CCNC(=O)Cc1ccc2cc(C([NH-])=O)n(C(=O)CCN(C)C)c2c1 (optimized conformer: 88.39291661165538 kcal/mol)

>  <smiles>  (56) 
CNC(O)CCNC(=O)Cc1ccc2cc(C(N)=O)n(C(=O)CCN(C)C)c2c1

>  <score_type>  (56) 
oracle

>  <origin>  (56) 
adg

>  <m_score__min__energy>  (56) 
-10.75

>  <m_primary>  (56) 
energy

$$$$
56:0
     RDKit          3D

 61 62  0  0  0  0  0  0  0  0999 V2000
   -3.0270   25.2920  -30.1310 H   0  0  0  0  0  0  0  0  0  0  0  0
   -3.9020   25.3110  -30.7000 N   0  0  0  0  0  0  0  0  0  0  0  0
   -5.1330   24.8320  -30.1660 C   0  0  0  0  0  0  0  0  0  0  0  0
   -5.7520   25.5260  -29.3150 O   0  0  0  0  0  0  0  0  0  0  0  0
   -5.7180   23.5670  -30.6460 C   0  0  0  0  0  0  0  0  0  0  0  0
   -7.0250   23.4440  -31.1100 C   0  0  0  0  0  0  0  0  0  0  0  0
   -7.8020   24.2224  -31.1290 H   0  0  0  0  0  0  0  0  0  0  0  0
   -7.1380   22.1410  -31.5400 C   0  0  0  0  0  0  0  0  0  0  0  0
   -8.2360   21.4520  -32.0470 C   0  0  0  0  0  0  0  0  0  0  0  0
   -9.1953   21.9617  -32.2201 H   0  0  0  0  0  0  0  0  0  0  0  0
   -8.0800   20.0830  -32.3310 C   0  0  0  0  0  0  0  0  0  0  0  0
   -8.9315   19.5089  -32.7252 H   0  0  0  0  0  0  0  0  0  0  0  0
   -6.8380   19.4350  -32.1150 C   0  0  0  0  0  0  0  0  0  0  0  0
   -6.6930   17.9580  -32.3800 C   0  0  0  0  0  0  0  0  0  0  0  0
   -7.6870   17.5273  -32.5710 H   0  0  0  0  0  0  0  0  0  0  0  0
   -6.2323   17.4869  -31.4992 H   0  0  0  0  0  0  0  0  0  0  0  0
   -5.8050   17.7080  -33.5820 C   0  0  0  0  0  0  0  0  0  0  0  0
   -6.0990   16.7990  -34.4620 N   0  0  0  0  0  0  0  0  0  0  0  0
   -7.2070   15.9900  -34.3470 O   0  0  0  0  0  0  0  0  0  0  0  0
   -7.0690   14.5790  -34.3140 C   0  0  0  0  0  0  0  0  0  0  0  0
   -7.0357   14.2382  -33.2687 H   0  0  0  0  0  0  0  0  0  0  0  0
   -7.9260   14.1147  -34.8239 H   0  0  0  0  0  0  0  0  0  0  0  0
   -6.1383   14.2896  -34.8239 H   0  0  0  0  0  0  0  0  0  0  0  0
   -4.6210   18.5560  -33.8120 C   0  0  0  0  0  0  0  0  0  0  0  0
   -4.7640   19.7510  -34.1870 O   0  0  0  0  0  0  0  0  0  0  0  0
   -3.3430   18.0220  -33.6240 O   0  0  0  0  0  0  0  0  0  0  0  0
   -2.3210   18.7100  -32.9120 C   0  0  0  0  0  0  0  0  0  0  0  0
   -1.5016   18.0134  -32.6808 H   0  0  0  0  0  0  0  0  0  0  0  0
   -2.7324   19.1131  -31.9749 H   0  0  0  0  0  0  0  0  0  0  0  0
   -1.8000   19.8330  -33.7550 C   0  0  0  0  0  0  0  0  0  0  0  0
   -1.1843   19.6003  -34.6363 H   0  0  0  0  0  0  0  0  0  0  0  0
   -2.0640   21.1110  -33.4640 C   0  0  0  0  0  0  0  0  0  0  0  0
   -1.6669   21.9138  -34.1026 H   0  0  0  0  0  0  0  0  0  0  0  0
   -2.6783   21.3596  -32.5860 H   0  0  0  0  0  0  0  0  0  0  0  0
   -5.7340   20.1830  -31.6480 C   0  0  0  0  0  0  0  0  0  0  0  0
   -4.7464   19.7137  -31.5283 H   0  0  0  0  0  0  0  0  0  0  0  0
   -5.9260   21.5320  -31.3420 C   0  0  0  0  0  0  0  0  0  0  0  0
   -5.0510   22.3860  -30.7760 N   0  0  0  0  0  0  0  0  0  0  0  0
   -3.7810   22.0230  -30.2140 C   0  0  0  0  0  0  0  0  0  0  0  0
   -3.7360   21.1940  -29.2650 O   0  0  0  0  0  0  0  0  0  0  0  0
   -2.5040   22.6600  -30.7030 C   0  0  0  0  0  0  0  0  0  0  0  0
   -2.2700   22.2569  -31.6994 H   0  0  0  0  0  0  0  0  0  0  0  0
   -2.6668   23.7476  -30.7289 H   0  0  0  0  0  0  0  0  0  0  0  0
   -1.3090   22.3950  -29.7740 C   0  0  0  0  0  0  0  0  0  0  0  0
   -1.1733   21.3066  -29.6901 H   0  0  0  0  0  0  0  0  0  0  0  0
   -0.4429   22.9019  -30.2245 H   0  0  0  0  0  0  0  0  0  0  0  0
   -1.4660   22.9710  -28.3560 C   0  0  0  0  0  0  0  0  0  0  0  0
   -2.1308   22.3100  -27.7806 H   0  0  0  0  0  0  0  0  0  0  0  0
   -0.4615   23.0304  -27.9116 H   0  0  0  0  0  0  0  0  0  0  0  0
   -2.0480   24.3660  -28.3470 C   0  0  0  0  0  0  0  0  0  0  0  0
   -1.4680   25.2520  -28.9590 O   0  0  0  0  0  0  0  0  0  0  0  0
   -3.3020   24.6450  -27.6710 N   0  0  0  0  0  0  0  0  0  0  0  0
   -3.8930   25.2760  -28.2620 H   0  0  0  0  0  0  0  0  0  0  0  0
   -3.0430   25.3370  -26.3970 C   0  0  0  0  0  0  0  0  0  0  0  0
   -3.2930   24.6691  -25.5595 H   0  0  0  0  0  0  0  0  0  0  0  0
   -1.9801   25.6146  -26.3400 H   0  0  0  0  0  0  0  0  0  0  0  0
   -3.6624   26.2442  -26.3400 H   0  0  0  0  0  0  0  0  0  0  0  0
   -4.0610   23.4060  -27.4400 C   0  0  0  0  0  0  0  0  0  0  0  0
   -4.1651   23.2361  -26.3582 H   0  0  0  0  0  0  0  0  0  0  0  0
   -5.0586   23.4969  -27.8945 H   0  0  0  0  0  0  0  0  0  0  0  0
   -3.5268   22.5586  -27.8945 H   0  0  0  0  0  0  0  0  0  0  0  0
  1  2  1  0
  2  3  1  0
  3  4  2  0
  3  5  1  0
  5  6  2  0
  6  7  1  0
  6  8  1  0
  8  9  2  0
  9 10  1  0
  9 11  1  0
 11 12  1  0
 11 13  2  0
 13 14  1  0
 14 15  1  0
 14 16  1  0
 14 17  1  0
 17 18  2  0
 18 19  1  0
 19 20  1  0
 20 21  1  0
 20 22  1  0
 20 23  1  0
 17 24  1  0
 24 25  2  0
 24 26  1  0
 26 27  1  0
 27 28  1  0
 27 29  1  0
 27 30  1  0
 30 31  1  0
 30 32  2  0
 32 33  1  0
 32 34  1  0
 13 35  1  0
 35 36  1  0
 35 37  2  0
 37 38  1  0
 38 39  1  0
 39 40  2  0
 39 41  1  0
 41 42  1  0
 41 43  1  0
 41 44  1  0
 44 45  1  0
 44 46  1  0
 44 47  1  0
 47 48  1  0
 47 49  1  0
 47 50  1  0
 50 51  2  0
 50 52  1  0
 52 53  1  0
 52 54  1  0
 54 55  1  0
 54 56  1  0
 54 57  1  0
 52 58  1  0
 58 59  1  0
 58 60  1  0
 58 61  1  0
 38  5  1  0
 37  8  1  0
M  CHG  2   2  -1  52   1
M  END
>  <UniqueID>  (57) 
57

>  <SMILES>  (57) 
C=CCOC(=O)/C(Cc1ccc2cc(C([NH-])=O)n(C(=O)CCCC(=O)[NH+](C)C)c2c1)=N/OC

>  <Energy>  (57) 
79.32553063642791

>  <Genealogy>  (57) 
C=CCOC(=O)/C(Cc1ccc2cc(C([NH-])=O)n(C(=O)CCCC(=O)[NH+](C)C)c2c1)=N/OC (protonated)
C=CCOC(=O)/C(Cc1ccc2cc(C([NH-])=O)n(C(=O)CCCC(=O)[NH+](C)C)c2c1)=N/OC (cis-trans isomerization)
C=CCOC(=O)/C(Cc1ccc2cc(C([NH-])=O)n(C(=O)CCCC(=O)[NH+](C)C)c2c1)=N/OC (3D coordinates assigned)
C=CCOC(=O)/C(Cc1ccc2cc(C([NH-])=O)n(C(=O)CCCC(=O)[NH+](C)C)c2c1)=N/OC (optimized conformer: 79.32553063642791 kcal/mol)

>  <smiles>  (57) 
C=CCOC(=O)/C(Cc1ccc2cc(C(N)=O)n(C(=O)CCCC(=O)N(C)C)c2c1)=N/OC

>  <score_type>  (57) 
oracle

>  <origin>  (57) 
adg

>  <m_score__min__energy>  (57) 
-10.09

>  <m_primary>  (57) 
energy

$$$$
57:0
     RDKit          3D

 33 34  0  0  0  0  0  0  0  0999 V2000
   -6.7450   17.4540  -33.4360 C   0  0  0  0  0  0  0  0  0  0  0  0
   -6.8710   18.5760  -33.0140 C   0  0  0  0  0  0  0  0  0  0  0  0
   -7.0220   19.9160  -32.5100 C   0  0  0  0  0  0  0  0  0  0  0  0
   -8.3140   20.4580  -32.3240 C   0  0  0  0  0  0  0  0  0  0  0  0
   -8.4740   21.7700  -31.8450 C   0  0  0  0  0  0  0  0  0  0  0  0
   -7.3260   22.5030  -31.5570 C   0  0  0  0  0  0  0  0  0  0  0  0
   -7.1910   23.7970  -31.1090 C   0  0  0  0  0  0  0  0  0  0  0  0
   -5.8170   24.0120  -31.0060 C   0  0  0  0  0  0  0  0  0  0  0  0
   -5.2290   25.2570  -30.4740 C   0  0  0  0  0  0  0  0  0  0  0  0
   -3.9130   25.6630  -30.8420 N   0  0  0  0  0  0  0  0  0  0  0  0
   -5.8770   25.9500  -29.6450 O   0  0  0  0  0  0  0  0  0  0  0  0
   -5.1290   22.8970  -31.3860 N   0  0  0  0  0  0  0  0  0  0  0  0
   -3.7090   22.7320  -31.5030 C   0  0  0  0  0  0  0  0  0  0  0  0
   -3.2210   22.1900  -32.5320 O   0  0  0  0  0  0  0  0  0  0  0  0
   -2.8750   23.1540  -30.4610 O   0  0  0  0  0  0  0  0  0  0  0  0
   -2.8040   22.5050  -29.1920 C   0  0  0  0  0  0  0  0  0  0  0  0
   -3.0960   21.0090  -29.3500 C   0  0  0  0  0  0  0  0  0  0  0  0
   -3.8190   23.1500  -28.2510 C   0  0  0  0  0  0  0  0  0  0  0  0
   -6.0670   21.9810  -31.7160 C   0  0  0  0  0  0  0  0  0  0  0  0
   -5.8780   20.6840  -32.2100 C   0  0  0  0  0  0  0  0  0  0  0  0
   -6.6300   16.4301  -33.8211 H   0  0  0  0  0  0  0  0  0  0  0  0
   -9.2004   19.8491  -32.5556 H   0  0  0  0  0  0  0  0  0  0  0  0
   -9.4747   22.2037  -31.7023 H   0  0  0  0  0  0  0  0  0  0  0  0
   -7.9963   24.5107  -30.8805 H   0  0  0  0  0  0  0  0  0  0  0  0
   -3.0770   25.2980  -30.3340 H   0  0  0  0  0  0  0  0  0  0  0  0
   -1.7934   22.6156  -28.7720 H   0  0  0  0  0  0  0  0  0  0  0  0
   -3.1864   20.5461  -28.3562 H   0  0  0  0  0  0  0  0  0  0  0  0
   -4.0371   20.8756  -29.9036 H   0  0  0  0  0  0  0  0  0  0  0  0
   -2.2741   20.5315  -29.9036 H   0  0  0  0  0  0  0  0  0  0  0  0
   -3.5233   22.9621  -27.2083 H   0  0  0  0  0  0  0  0  0  0  0  0
   -3.8507   24.2343  -28.4334 H   0  0  0  0  0  0  0  0  0  0  0  0
   -4.8141   22.7182  -28.4334 H   0  0  0  0  0  0  0  0  0  0  0  0
   -4.8672   20.2766  -32.3595 H   0  0  0  0  0  0  0  0  0  0  0  0
  1  2  3  0
  2  3  1  0
  3  4  2  0
  4  5  1  0
  5  6  2  0
  6  7  1  0
  7  8  2  0
  8  9  1  0
  9 10  1  0
  9 11  2  0
  8 12  1  0
 12 13  1  0
 13 14  2  0
 13 15  1  0
 15 16  1  0
 16 17  1  0
 16 18  1  0
 12 19  1  0
 19 20  2  0
 20  3  1  0
 19  6  1  0
  1 21  1  0
  4 22  1  0
  5 23  1  0
  7 24  1  0
 10 25  1  0
 16 26  1  0
 17 27  1  0
 17 28  1  0
 17 29  1  0
 18 30  1  0
 18 31  1  0
 18 32  1  0
 20 33  1  0
M  CHG  1  10  -1
M  END
>  <UniqueID>  (58) 
58

>  <SMILES>  (58) 
C#Cc1ccc2cc(C([NH-])=O)n(C(=O)OC(C)C)c2c1

>  <Energy>  (58) 
64.40676289428517

>  <Genealogy>  (58) 
C#Cc1ccc2cc(C([NH-])=O)n(C(=O)OC(C)C)c2c1 (protonated)
C#Cc1ccc2cc(C([NH-])=O)n(C(=O)OC(C)C)c2c1 (3D coordinates assigned)
C#Cc1ccc2cc(C([NH-])=O)n(C(=O)OC(C)C)c2c1 (optimized conformer: 64.40676289428517 kcal/mol)

>  <smiles>  (58) 
C#Cc1ccc2cc(C(N)=O)n(C(=O)OC(C)C)c2c1

>  <score_type>  (58) 
oracle

>  <origin>  (58) 
adg

>  <m_score__min__energy>  (58) 
-10

>  <m_primary>  (58) 
energy

$$$$
58:0
     RDKit          3D

 67 69  0  0  0  0  0  0  0  0999 V2000
   -7.1610   23.4480  -31.3990 C   0  0  0  0  0  0  0  0  0  0  0  0
   -7.9420   22.6810  -30.4920 O   0  0  0  0  0  0  0  0  0  0  0  0
   -8.8630   21.7210  -30.9190 C   0  0  0  0  0  0  0  0  0  0  0  0
  -10.1020   21.9240  -30.8000 O   0  0  0  0  0  0  0  0  0  0  0  0
   -8.3820   20.4810  -31.5360 C   0  0  0  0  0  0  0  0  0  0  0  0
   -9.1500   19.4410  -32.0240 C   0  0  0  0  0  0  0  0  0  0  0  0
   -8.3380   18.4330  -32.4000 N   0  0  0  0  0  0  0  0  0  0  0  0
   -7.0900   18.8110  -32.1630 N   0  0  0  0  0  0  0  0  0  0  0  0
   -5.9240   17.9590  -32.3840 C   0  0  0  0  0  0  0  0  0  0  0  0
   -5.1280   18.4080  -33.6230 C   0  0  0  0  0  0  0  0  0  0  0  0
   -4.9000   19.9290  -33.7030 C   0  0  0  0  0  0  0  0  0  0  0  0
   -3.7050   20.4020  -32.9120 C   0  0  0  0  0  0  0  0  0  0  0  0
   -2.4470   19.7670  -33.0750 C   0  0  0  0  0  0  0  0  0  0  0  0
   -1.3150   20.2270  -32.3790 C   0  0  0  0  0  0  0  0  0  0  0  0
   -1.4730   21.3190  -31.5290 C   0  0  0  0  0  0  0  0  0  0  0  0
   -0.5400   22.0100  -30.7870 C   0  0  0  0  0  0  0  0  0  0  0  0
   -1.2490   23.0450  -30.1700 C   0  0  0  0  0  0  0  0  0  0  0  0
   -0.6450   24.1010  -29.3230 C   0  0  0  0  0  0  0  0  0  0  0  0
   -1.2090   25.4150  -29.2600 N   0  0  0  0  0  0  0  0  0  0  0  0
    0.3790   23.8480  -28.6360 O   0  0  0  0  0  0  0  0  0  0  0  0
   -2.5640   22.9780  -30.5140 N   0  0  0  0  0  0  0  0  0  0  0  0
   -3.6220   23.8600  -30.1230 C   0  0  0  0  0  0  0  0  0  0  0  0
   -3.9010   24.8560  -30.8410 O   0  0  0  0  0  0  0  0  0  0  0  0
   -4.4820   23.5260  -28.9450 C   0  0  0  0  0  0  0  0  0  0  0  0
   -3.6460   23.4010  -27.7450 N   0  0  0  0  0  0  0  0  0  0  0  0
   -2.9730   22.1320  -27.4560 C   0  0  0  0  0  0  0  0  0  0  0  0
   -3.3540   24.5490  -26.9280 C   0  0  0  0  0  0  0  0  0  0  0  0
   -4.2400   25.0180  -26.1630 O   0  0  0  0  0  0  0  0  0  0  0  0
   -2.0860   25.1450  -27.0050 O   0  0  0  0  0  0  0  0  0  0  0  0
   -1.2390   25.4930  -25.8990 C   0  0  0  0  0  0  0  0  0  0  0  0
   -0.7430   24.2240  -25.1790 C   0  0  0  0  0  0  0  0  0  0  0  0
   -1.9760   26.4210  -24.9150 C   0  0  0  0  0  0  0  0  0  0  0  0
   -0.0300   26.2440  -26.4750 C   0  0  0  0  0  0  0  0  0  0  0  0
   -2.6840   21.9260  -31.3470 C   0  0  0  0  0  0  0  0  0  0  0  0
   -3.8310   21.4800  -32.0070 C   0  0  0  0  0  0  0  0  0  0  0  0
   -7.0760   20.0580  -31.6530 C   0  0  0  0  0  0  0  0  0  0  0  0
   -6.4875   24.1095  -30.8344 H   0  0  0  0  0  0  0  0  0  0  0  0
   -6.5663   22.7732  -32.0322 H   0  0  0  0  0  0  0  0  0  0  0  0
   -7.8249   24.0548  -32.0322 H   0  0  0  0  0  0  0  0  0  0  0  0
  -10.2477   19.4365  -32.0943 H   0  0  0  0  0  0  0  0  0  0  0  0
   -5.2705   18.0103  -31.5007 H   0  0  0  0  0  0  0  0  0  0  0  0
   -6.2737   16.9295  -32.5511 H   0  0  0  0  0  0  0  0  0  0  0  0
   -4.1466   17.9116  -33.6023 H   0  0  0  0  0  0  0  0  0  0  0  0
   -5.7251   18.1287  -34.5036 H   0  0  0  0  0  0  0  0  0  0  0  0
   -4.7500   20.2034  -34.7576 H   0  0  0  0  0  0  0  0  0  0  0  0
   -5.7873   20.4121  -33.2678 H   0  0  0  0  0  0  0  0  0  0  0  0
   -2.3560   18.9056  -33.7530 H   0  0  0  0  0  0  0  0  0  0  0  0
   -0.3363   19.7401  -32.5019 H   0  0  0  0  0  0  0  0  0  0  0  0
    0.5348   21.7933  -30.6988 H   0  0  0  0  0  0  0  0  0  0  0  0
   -2.0710   25.6750  -29.7850 H   0  0  0  0  0  0  0  0  0  0  0  0
   -0.7750   26.1360  -28.6400 H   0  0  0  0  0  0  0  0  0  0  0  0
   -5.2224   24.3254  -28.7938 H   0  0  0  0  0  0  0  0  0  0  0  0
   -5.0009   22.5738  -29.1297 H   0  0  0  0  0  0  0  0  0  0  0  0
   -2.9004   21.9952  -26.3670 H   0  0  0  0  0  0  0  0  0  0  0  0
   -3.5501   21.3033  -27.8920 H   0  0  0  0  0  0  0  0  0  0  0  0
   -1.9632   22.1449  -27.8920 H   0  0  0  0  0  0  0  0  0  0  0  0
   -0.8014   24.3734  -24.0908 H   0  0  0  0  0  0  0  0  0  0  0  0
   -1.3733   23.3694  -25.4662 H   0  0  0  0  0  0  0  0  0  0  0  0
    0.2997   24.0234  -25.4662 H   0  0  0  0  0  0  0  0  0  0  0  0
   -1.7394   26.1231  -23.8829 H   0  0  0  0  0  0  0  0  0  0  0  0
   -1.6541   27.4599  -25.0797 H   0  0  0  0  0  0  0  0  0  0  0  0
   -3.0608   26.3427  -25.0797 H   0  0  0  0  0  0  0  0  0  0  0  0
    0.5892   26.6286  -25.6512 H   0  0  0  0  0  0  0  0  0  0  0  0
    0.5674   25.5578  -27.0932 H   0  0  0  0  0  0  0  0  0  0  0  0
   -0.3804   27.0836  -27.0932 H   0  0  0  0  0  0  0  0  0  0  0  0
   -4.8066   21.9552  -31.8272 H   0  0  0  0  0  0  0  0  0  0  0  0
   -6.1810   20.6357  -31.3788 H   0  0  0  0  0  0  0  0  0  0  0  0
  1  2  1  0
  2  3  1  0
  3  4  2  0
  3  5  1  0
  5  6  1  0
  6  7  2  0
  7  8  1  0
  8  9  1  0
  9 10  1  0
 10 11  1  0
 11 12  1  0
 12 13  2  0
 13 14  1  0
 14 15  2  0
 15 16  1  0
 16 17  2  0
 17 18  1  0
 18 19  1  0
 18 20  2  0
 17 21  1  0
 21 22  1  0
 22 23  2  0
 22 24  1  0
 24 25  1  0
 25 26  1  0
 25 27  1  0
 27 28  2  0
 27 29  1  0
 29 30  1  0
 30 31  1  0
 30 32  1  0
 30 33  1  0
 21 34  1  0
 34 35  2  0
  8 36  1  0
 36  5  2  0
 35 12  1  0
 34 15  1  0
  1 37  1  0
  1 38  1  0
  1 39  1  0
  6 40  1  0
  9 41  1  0
  9 42  1  0
 10 43  1  0
 10 44  1  0
 11 45  1  0
 11 46  1  0
 13 47  1  0
 14 48  1  0
 16 49  1  0
 19 50  1  0
 19 51  1  0
 24 52  1  0
 24 53  1  0
 26 54  1  0
 26 55  1  0
 26 56  1  0
 31 57  1  0
 31 58  1  0
 31 59  1  0
 32 60  1  0
 32 61  1  0
 32 62  1  0
 33 63  1  0
 33 64  1  0
 33 65  1  0
 35 66  1  0
 36 67  1  0
M  END
>  <UniqueID>  (59) 
59

>  <SMILES>  (59) 
COC(=O)c1cnn(CCCc2ccc3cc(C(N)=O)n(C(=O)CN(C)C(=O)OC(C)(C)C)c3c2)c1

>  <Energy>  (59) 
113.28365183595503

>  <Genealogy>  (59) 
COC(=O)c1cnn(CCCc2ccc3cc(C(N)=O)n(C(=O)CN(C)C(=O)OC(C)(C)C)c3c2)c1 (3D coordinates assigned)
COC(=O)c1cnn(CCCc2ccc3cc(C(N)=O)n(C(=O)CN(C)C(=O)OC(C)(C)C)c3c2)c1 (optimized conformer: 113.28365183595503 kcal/mol)

>  <smiles>  (59) 
COC(=O)c1cnn(CCCc2ccc3cc(C(N)=O)n(C(=O)CN(C)C(=O)OC(C)(C)C)c3c2)c1

>  <score_type>  (59) 
oracle

>  <origin>  (59) 
adg

>  <m_score__min__energy>  (59) 
-10.19

>  <m_primary>  (59) 
energy

$$$$
59:0
     RDKit          3D

 42 43  0  0  0  0  0  0  0  0999 V2000
   -7.2790   22.8670  -32.0370 C   0  0  0  0  0  0  0  0  0  0  0  0
   -7.5700   21.4420  -32.1080 N   0  0  0  0  0  0  0  0  0  0  0  0
   -8.8740   20.8690  -31.9450 C   0  0  0  0  0  0  0  0  0  0  0  0
   -9.8450   21.6310  -31.6960 O   0  0  0  0  0  0  0  0  0  0  0  0
   -9.1070   19.3850  -32.0100 C   0  0  0  0  0  0  0  0  0  0  0  0
   -7.7810   18.6350  -32.1580 C   0  0  0  0  0  0  0  0  0  0  0  0
   -7.2680   18.8100  -33.4640 O   0  0  0  0  0  0  0  0  0  0  0  0
   -6.1800   17.9350  -33.6900 C   0  0  0  0  0  0  0  0  0  0  0  0
   -4.8790   18.7370  -33.7120 C   0  0  0  0  0  0  0  0  0  0  0  0
   -4.9770   19.9290  -32.8660 N   0  0  0  0  0  0  0  0  0  0  0  0
   -3.8460   20.5140  -32.1930 C   0  0  0  0  0  0  0  0  0  0  0  0
   -2.5780   19.8710  -32.1720 C   0  0  0  0  0  0  0  0  0  0  0  0
   -1.4840   20.4650  -31.5200 C   0  0  0  0  0  0  0  0  0  0  0  0
   -1.6820   21.6900  -30.8930 C   0  0  0  0  0  0  0  0  0  0  0  0
   -0.7930   22.4900  -30.2140 C   0  0  0  0  0  0  0  0  0  0  0  0
   -1.5300   23.6000  -29.8090 C   0  0  0  0  0  0  0  0  0  0  0  0
   -0.9760   24.6800  -28.9660 C   0  0  0  0  0  0  0  0  0  0  0  0
   -1.6150   25.9550  -28.9360 N   0  0  0  0  0  0  0  0  0  0  0  0
    0.0780   24.5030  -28.3010 O   0  0  0  0  0  0  0  0  0  0  0  0
   -2.8240   23.4950  -30.2270 N   0  0  0  0  0  0  0  0  0  0  0  0
   -3.8780   24.4590  -30.0750 C   0  0  0  0  0  0  0  0  0  0  0  0
   -3.8640   25.5260  -30.7430 O   0  0  0  0  0  0  0  0  0  0  0  0
   -4.9080   24.2380  -29.1690 O   0  0  0  0  0  0  0  0  0  0  0  0
   -2.9010   22.3170  -30.8870 C   0  0  0  0  0  0  0  0  0  0  0  0
   -4.0040   21.7590  -31.5440 C   0  0  0  0  0  0  0  0  0  0  0  0
   -7.2158   23.1763  -30.9833 H   0  0  0  0  0  0  0  0  0  0  0  0
   -6.3207   23.0709  -32.5370 H   0  0  0  0  0  0  0  0  0  0  0  0
   -8.0806   23.4303  -32.5370 H   0  0  0  0  0  0  0  0  0  0  0  0
   -9.6061   19.0571  -31.0862 H   0  0  0  0  0  0  0  0  0  0  0  0
   -9.7377   19.1640  -32.8838 H   0  0  0  0  0  0  0  0  0  0  0  0
   -7.0579   19.0265  -31.4274 H   0  0  0  0  0  0  0  0  0  0  0  0
   -7.9511   17.5632  -31.9781 H   0  0  0  0  0  0  0  0  0  0  0  0
   -6.1367   17.1876  -32.8841 H   0  0  0  0  0  0  0  0  0  0  0  0
   -6.3133   17.4249  -34.6554 H   0  0  0  0  0  0  0  0  0  0  0  0
   -4.0598   18.1020  -33.3437 H   0  0  0  0  0  0  0  0  0  0  0  0
   -4.6856   19.0587  -34.7460 H   0  0  0  0  0  0  0  0  0  0  0  0
   -5.9120   20.3800  -32.7380 H   0  0  0  0  0  0  0  0  0  0  0  0
   -2.4521   18.8989  -32.6711 H   0  0  0  0  0  0  0  0  0  0  0  0
   -0.4993   19.9749  -31.5061 H   0  0  0  0  0  0  0  0  0  0  0  0
    0.2737   22.2946  -30.0299 H   0  0  0  0  0  0  0  0  0  0  0  0
   -2.6550   26.0350  -28.9740 H   0  0  0  0  0  0  0  0  0  0  0  0
   -4.9733   22.2789  -31.5548 H   0  0  0  0  0  0  0  0  0  0  0  0
  1  2  1  0
  2  3  1  0
  3  4  2  0
  3  5  1  0
  5  6  1  0
  6  7  1  0
  7  8  1  0
  8  9  1  0
  9 10  1  0
 10 11  1  0
 11 12  2  0
 12 13  1  0
 13 14  2  0
 14 15  1  0
 15 16  2  0
 16 17  1  0
 17 18  1  0
 17 19  2  0
 16 20  1  0
 20 21  1  0
 21 22  2  0
 21 23  1  0
 20 24  1  0
 24 25  2  0
 25 11  1  0
 24 14  1  0
  1 26  1  0
  1 27  1  0
  1 28  1  0
  5 29  1  0
  5 30  1  0
  6 31  1  0
  6 32  1  0
  8 33  1  0
  8 34  1  0
  9 35  1  0
  9 36  1  0
 10 37  1  0
 12 38  1  0
 13 39  1  0
 15 40  1  0
 18 41  1  0
 25 42  1  0
M  CHG  3   2  -1  18  -1  23  -1
M  END
>  <UniqueID>  (60) 
60

>  <SMILES>  (60) 
C[N-]C(=O)CCOCCNc1ccc2cc(C([NH-])=O)n(C(=O)[O-])c2c1

>  <Energy>  (60) 
75.3175554604827

>  <Genealogy>  (60) 
C[N-]C(=O)CCOCCNc1ccc2cc(C([NH-])=O)n(C(=O)[O-])c2c1 (protonated)
C[N-]C(=O)CCOCCNc1ccc2cc(C([NH-])=O)n(C(=O)[O-])c2c1 (3D coordinates assigned)
C[N-]C(=O)CCOCCNc1ccc2cc(C([NH-])=O)n(C(=O)[O-])c2c1 (optimized conformer: 75.3175554604827 kcal/mol)

>  <smiles>  (60) 
CNC(=O)CCOCCNc1ccc2cc(C(N)=O)n(C(=O)O)c2c1

>  <score_type>  (60) 
oracle

>  <origin>  (60) 
adg

>  <m_score__min__energy>  (60) 
-10.300000000000001

>  <m_primary>  (60) 
energy

$$$$
60:0
     RDKit          3D

 51 53  0  0  0  0  0  0  0  0999 V2000
   -7.0880   13.7810  -34.5690 C   0  0  0  0  0  0  0  0  0  0  0  0
   -7.1850   15.2030  -34.2340 N   0  0  0  0  0  0  0  0  0  0  0  0
   -5.8640   15.8060  -33.9530 C   0  0  1  0  0  0  0  0  0  0  0  0
   -5.6240   17.0080  -34.9070 C   0  0  0  0  0  0  0  0  0  0  0  0
   -5.7200   18.3850  -34.2260 C   0  0  0  0  0  0  0  0  0  0  0  0
   -6.8530   18.4120  -33.1850 C   0  0  2  0  0  0  0  0  0  0  0  0
   -7.0640   19.8110  -32.6360 C   0  0  0  0  0  0  0  0  0  0  0  0
   -8.3700   20.3650  -32.5950 C   0  0  0  0  0  0  0  0  0  0  0  0
   -8.5850   21.6630  -32.0990 C   0  0  0  0  0  0  0  0  0  0  0  0
   -7.4840   22.3780  -31.6410 C   0  0  0  0  0  0  0  0  0  0  0  0
   -7.4080   23.6530  -31.1310 C   0  0  0  0  0  0  0  0  0  0  0  0
   -6.0600   23.8560  -30.8400 C   0  0  0  0  0  0  0  0  0  0  0  0
   -5.5310   25.0710  -30.1800 C   0  0  0  0  0  0  0  0  0  0  0  0
   -4.2120   25.5410  -30.4670 N   0  0  0  0  0  0  0  0  0  0  0  0
   -6.2530   25.7210  -29.3780 O   0  0  0  0  0  0  0  0  0  0  0  0
   -5.3320   22.7490  -31.1620 N   0  0  0  0  0  0  0  0  0  0  0  0
   -3.9100   22.5750  -31.0620 C   0  0  0  0  0  0  0  0  0  0  0  0
   -3.1540   23.0450  -31.9570 O   0  0  0  0  0  0  0  0  0  0  0  0
   -3.3700   21.8630  -29.9840 O   0  0  0  0  0  0  0  0  0  0  0  0
   -3.4890   22.2730  -28.6230 C   0  0  0  0  0  0  0  0  0  0  0  0
   -2.9090   23.6720  -28.4250 C   0  0  0  0  0  0  0  0  0  0  0  0
   -2.2680   24.1020  -29.5940 O   0  0  0  0  0  0  0  0  0  0  0  0
   -6.2180   21.8540  -31.6510 C   0  0  0  0  0  0  0  0  0  0  0  0
   -5.9700   20.5730  -32.1580 C   0  0  0  0  0  0  0  0  0  0  0  0
   -6.6080   17.3880  -32.0470 C   0  0  0  0  0  0  0  0  0  0  0  0
   -5.7050   16.2090  -32.4660 C   0  0  0  0  0  0  0  0  0  0  0  0
   -7.0476   13.1882  -33.6433 H   0  0  0  0  0  0  0  0  0  0  0  0
   -7.9678   13.4821  -35.1577 H   0  0  0  0  0  0  0  0  0  0  0  0
   -6.1757   13.6044  -35.1577 H   0  0  0  0  0  0  0  0  0  0  0  0
   -7.8250   15.3070  -33.4130 H   0  0  0  0  0  0  0  0  0  0  0  0
   -5.0920   15.0456  -34.1422 H   0  0  0  0  0  0  0  0  0  0  0  0
   -6.3757   16.9670  -35.7090 H   0  0  0  0  0  0  0  0  0  0  0  0
   -4.5942   16.9126  -35.2817 H   0  0  0  0  0  0  0  0  0  0  0  0
   -5.9168   19.1508  -34.9908 H   0  0  0  0  0  0  0  0  0  0  0  0
   -4.7688   18.5868  -33.7116 H   0  0  0  0  0  0  0  0  0  0  0  0
   -7.7786   18.1132  -33.6989 H   0  0  0  0  0  0  0  0  0  0  0  0
   -9.2237   19.7722  -32.9553 H   0  0  0  0  0  0  0  0  0  0  0  0
   -9.5942   22.0998  -32.0741 H   0  0  0  0  0  0  0  0  0  0  0  0
   -8.2357   24.3624  -30.9839 H   0  0  0  0  0  0  0  0  0  0  0  0
   -3.5650   25.0010  -31.0820 H   0  0  0  0  0  0  0  0  0  0  0  0
   -3.8640   26.4200  -30.0250 H   0  0  0  0  0  0  0  0  0  0  0  0
   -4.5520   22.2800  -28.3402 H   0  0  0  0  0  0  0  0  0  0  0  0
   -2.9294   21.5669  -27.9920 H   0  0  0  0  0  0  0  0  0  0  0  0
   -3.7223   24.3706  -28.1790 H   0  0  0  0  0  0  0  0  0  0  0  0
   -2.1764   23.6431  -27.6049 H   0  0  0  0  0  0  0  0  0  0  0  0
   -2.0570   23.2810  -30.1090 H   0  0  0  0  0  0  0  0  0  0  0  0
   -4.9480   20.1671  -32.1846 H   0  0  0  0  0  0  0  0  0  0  0  0
   -7.5798   16.9854  -31.7253 H   0  0  0  0  0  0  0  0  0  0  0  0
   -6.0895   17.9216  -31.2368 H   0  0  0  0  0  0  0  0  0  0  0  0
   -5.9559   15.3393  -31.8410 H   0  0  0  0  0  0  0  0  0  0  0  0
   -4.6634   16.5351  -32.3291 H   0  0  0  0  0  0  0  0  0  0  0  0
  1  2  1  0
  2  3  1  0
  3  4  1  0
  4  5  1  0
  5  6  1  0
  6  7  1  0
  7  8  2  0
  8  9  1  0
  9 10  2  0
 10 11  1  0
 11 12  2  0
 12 13  1  0
 13 14  1  0
 13 15  2  0
 12 16  1  0
 16 17  1  0
 17 18  2  0
 17 19  1  0
 19 20  1  0
 20 21  1  0
 21 22  1  0
 16 23  1  0
 23 24  2  0
  6 25  1  0
 25 26  1  0
 26  3  1  0
 24  7  1  0
 23 10  1  0
  1 27  1  0
  1 28  1  0
  1 29  1  0
  2 30  1  0
  3 31  1  6
  4 32  1  0
  4 33  1  0
  5 34  1  0
  5 35  1  0
  6 36  1  6
  8 37  1  0
  9 38  1  0
 11 39  1  0
 14 40  1  0
 14 41  1  0
 20 42  1  0
 20 43  1  0
 21 44  1  0
 21 45  1  0
 22 46  1  0
 24 47  1  0
 25 48  1  0
 25 49  1  0
 26 50  1  0
 26 51  1  0
M  END
>  <UniqueID>  (61) 
61

>  <SMILES>  (61) 
CNC1CCC(c2ccc3cc(C(N)=O)n(C(=O)OCCO)c3c2)CC1

>  <Energy>  (61) 
92.3695624363852

>  <Genealogy>  (61) 
CNC1CCC(c2ccc3cc(C(N)=O)n(C(=O)OCCO)c3c2)CC1 (3D coordinates assigned)
CNC1CCC(c2ccc3cc(C(N)=O)n(C(=O)OCCO)c3c2)CC1 (nonaromatic ring conformer: 92.3695624363852 kcal/mol)

>  <smiles>  (61) 
CNC1CCC(c2ccc3cc(C(N)=O)n(C(=O)OCCO)c3c2)CC1

>  <score_type>  (61) 
oracle

>  <origin>  (61) 
adg

>  <m_score__min__energy>  (61) 
-10.640000000000001

>  <m_primary>  (61) 
energy

$$$$
61:0
     RDKit          3D

 32 34  0  0  0  0  0  0  0  0999 V2000
   -1.6080   25.7620  -28.9570 N   0  0  0  0  0  0  0  0  0  0  0  0
   -1.0700   24.4490  -29.0830 C   0  0  0  0  0  0  0  0  0  0  0  0
    0.0320   24.1790  -28.5340 O   0  0  0  0  0  0  0  0  0  0  0  0
   -1.7550   23.4210  -29.8940 C   0  0  0  0  0  0  0  0  0  0  0  0
   -1.1520   22.2250  -30.2800 C   0  0  0  0  0  0  0  0  0  0  0  0
   -2.0710   21.5970  -31.0870 C   0  0  0  0  0  0  0  0  0  0  0  0
   -1.9960   20.3710  -31.7430 C   0  0  0  0  0  0  0  0  0  0  0  0
   -3.1090   19.9560  -32.4920 C   0  0  0  0  0  0  0  0  0  0  0  0
   -4.2760   20.7590  -32.5570 C   0  0  0  0  0  0  0  0  0  0  0  0
   -5.4520   20.3130  -33.3830 C   0  0  0  0  0  0  0  0  0  0  0  0
   -6.7650   20.7830  -32.7410 C   0  0  0  0  0  0  0  0  0  0  0  0
   -7.0270   22.1580  -32.6890 O   0  0  0  0  0  0  0  0  0  0  0  0
   -7.9990   19.9200  -32.9380 C   0  0  0  0  0  0  0  0  0  0  0  0
   -7.3170   19.9840  -31.5740 C   0  0  0  0  0  0  0  0  0  0  0  0
   -4.3120   22.0000  -31.8850 C   0  0  0  0  0  0  0  0  0  0  0  0
   -3.1810   22.3980  -31.1630 C   0  0  0  0  0  0  0  0  0  0  0  0
   -3.0040   23.5220  -30.4320 N   0  0  0  0  0  0  0  0  0  0  0  0
   -3.9780   24.5540  -30.2130 C   0  0  0  0  0  0  0  0  0  0  0  0
   -3.8630   25.6700  -30.7850 O   0  0  0  0  0  0  0  0  0  0  0  0
   -5.0450   24.3410  -29.3470 O   0  0  0  0  0  0  0  0  0  0  0  0
   -2.6390   25.9240  -28.9680 H   0  0  0  0  0  0  0  0  0  0  0  0
   -0.1529   21.8609  -29.9986 H   0  0  0  0  0  0  0  0  0  0  0  0
   -1.0927   19.7468  -31.6765 H   0  0  0  0  0  0  0  0  0  0  0  0
   -3.0753   18.9990  -33.0334 H   0  0  0  0  0  0  0  0  0  0  0  0
   -5.3688   20.7408  -34.3930 H   0  0  0  0  0  0  0  0  0  0  0  0
   -5.4542   19.2143  -33.4372 H   0  0  0  0  0  0  0  0  0  0  0  0
   -6.2940   22.5890  -33.2000 H   0  0  0  0  0  0  0  0  0  0  0  0
   -8.9823   20.3907  -33.0845 H   0  0  0  0  0  0  0  0  0  0  0  0
   -8.2830   19.1133  -33.6298 H   0  0  0  0  0  0  0  0  0  0  0  0
   -7.8085   20.5008  -30.7365 H   0  0  0  0  0  0  0  0  0  0  0  0
   -6.9050   19.2424  -30.8738 H   0  0  0  0  0  0  0  0  0  0  0  0
   -5.2068   22.6384  -31.9278 H   0  0  0  0  0  0  0  0  0  0  0  0
  1  2  1  0
  2  3  2  0
  2  4  1  0
  4  5  2  0
  5  6  1  0
  6  7  2  0
  7  8  1  0
  8  9  2  0
  9 10  1  0
 10 11  1  0
 11 12  1  0
 11 13  1  0
 13 14  1  0
  9 15  1  0
 15 16  2  0
 16 17  1  0
 17 18  1  0
 18 19  2  0
 18 20  1  0
 17  4  1  0
 16  6  1  0
 14 11  1  0
  1 21  1  0
  5 22  1  0
  7 23  1  0
  8 24  1  0
 10 25  1  0
 10 26  1  0
 12 27  1  0
 13 28  1  0
 13 29  1  0
 14 30  1  0
 14 31  1  0
 15 32  1  0
M  CHG  2   1  -1  20  -1
M  END
>  <UniqueID>  (62) 
62

>  <SMILES>  (62) 
[NH-]C(=O)c1cc2ccc(CC3(O)CC3)cc2n1C(=O)[O-]

>  <Energy>  (62) 
338.6458164865846

>  <Genealogy>  (62) 
[NH-]C(=O)c1cc2ccc(CC3(O)CC3)cc2n1C(=O)[O-] (protonated)
[NH-]C(=O)c1cc2ccc(CC3(O)CC3)cc2n1C(=O)[O-] (3D coordinates assigned)
[NH-]C(=O)c1cc2ccc(CC3(O)CC3)cc2n1C(=O)[O-] (nonaromatic ring conformer: 338.6458164865846 kcal/mol)

>  <smiles>  (62) 
NC(=O)c1cc2ccc(CC3(O)CC3)cc2n1C(=O)O

>  <score_type>  (62) 
oracle

>  <origin>  (62) 
adg

>  <m_score__min__energy>  (62) 
-10.960000000000001

>  <m_primary>  (62) 
energy

$$$$
62:0
     RDKit          3D

 29 31  0  0  0  0  0  0  0  0999 V2000
   -3.8810   25.5110  -30.8410 N   0  0  0  0  0  0  0  0  0  0  0  0
   -5.2180   25.2320  -30.4290 C   0  0  0  0  0  0  0  0  0  0  0  0
   -5.8310   26.0700  -29.7180 O   0  0  0  0  0  0  0  0  0  0  0  0
   -5.8590   23.9590  -30.8220 C   0  0  0  0  0  0  0  0  0  0  0  0
   -7.2070   23.8430  -31.1620 C   0  0  0  0  0  0  0  0  0  0  0  0
   -7.3830   22.5200  -31.5020 C   0  0  0  0  0  0  0  0  0  0  0  0
   -8.5310   21.8420  -31.9030 C   0  0  0  0  0  0  0  0  0  0  0  0
   -8.4270   20.4640  -32.1610 C   0  0  0  0  0  0  0  0  0  0  0  0
   -7.1870   19.7930  -32.0080 C   0  0  0  0  0  0  0  0  0  0  0  0
   -7.0820   18.3180  -32.2680 C   0  0  0  0  0  0  0  0  0  0  0  0
   -6.2980   17.7270  -31.2950 F   0  0  0  0  0  0  0  0  0  0  0  0
   -8.3440   17.7510  -32.2460 F   0  0  0  0  0  0  0  0  0  0  0  0
   -6.0460   20.5140  -31.5940 C   0  0  0  0  0  0  0  0  0  0  0  0
   -6.1760   21.8870  -31.3630 C   0  0  0  0  0  0  0  0  0  0  0  0
   -5.2310   22.7590  -30.9510 N   0  0  0  0  0  0  0  0  0  0  0  0
   -3.8600   22.4510  -30.6510 C   0  0  0  0  0  0  0  0  0  0  0  0
   -3.2960   21.4860  -31.2310 O   0  0  0  0  0  0  0  0  0  0  0  0
   -3.1100   23.2470  -29.6700 C   0  0  0  0  0  0  0  0  0  0  0  0
   -3.5860   23.5710  -28.4490 N   0  0  0  0  0  0  0  0  0  0  0  0
   -2.5670   24.2940  -27.9470 C   0  0  0  0  0  0  0  0  0  0  0  0
   -1.5800   24.3870  -28.8030 O   0  0  0  0  0  0  0  0  0  0  0  0
   -1.8800   23.7480  -29.8930 N   0  0  0  0  0  0  0  0  0  0  0  0
   -3.0720   25.3000  -30.2170 H   0  0  0  0  0  0  0  0  0  0  0  0
   -7.9670   24.6383  -31.1592 H   0  0  0  0  0  0  0  0  0  0  0  0
   -9.4903   22.3686  -32.0146 H   0  0  0  0  0  0  0  0  0  0  0  0
   -9.3151   19.9013  -32.4844 H   0  0  0  0  0  0  0  0  0  0  0  0
   -6.6235   18.1577  -33.2550 H   0  0  0  0  0  0  0  0  0  0  0  0
   -5.0788   20.0083  -31.4566 H   0  0  0  0  0  0  0  0  0  0  0  0
   -2.5639   24.7487  -26.9454 H   0  0  0  0  0  0  0  0  0  0  0  0
  1  2  1  0
  2  3  2  0
  2  4  1  0
  4  5  2  0
  5  6  1  0
  6  7  2  0
  7  8  1  0
  8  9  2  0
  9 10  1  0
 10 11  1  0
 10 12  1  0
  9 13  1  0
 13 14  2  0
 14 15  1  0
 15 16  1  0
 16 17  2  0
 16 18  1  0
 18 19  1  0
 19 20  2  0
 20 21  1  0
 21 22  1  0
 15  4  1  0
 22 18  2  0
 14  6  1  0
  1 23  1  0
  5 24  1  0
  7 25  1  0
  8 26  1  0
 10 27  1  0
 13 28  1  0
 20 29  1  0
M  CHG  1   1  -1
M  END
>  <UniqueID>  (63) 
63

>  <SMILES>  (63) 
[NH-]C(=O)c1cc2ccc(C(F)F)cc2n1C(=O)c1ncon1

>  <Energy>  (63) 
102.74883207238452

>  <Genealogy>  (63) 
[NH-]C(=O)c1cc2ccc(C(F)F)cc2n1C(=O)c1ncon1 (protonated)
[NH-]C(=O)c1cc2ccc(C(F)F)cc2n1C(=O)c1ncon1 (3D coordinates assigned)
[NH-]C(=O)c1cc2ccc(C(F)F)cc2n1C(=O)c1ncon1 (optimized conformer: 102.74883207238452 kcal/mol)

>  <smiles>  (63) 
NC(=O)c1cc2ccc(C(F)F)cc2n1C(=O)c1ncon1

>  <score_type>  (63) 
oracle

>  <origin>  (63) 
adg

>  <m_score__min__energy>  (63) 
-9.3499999999999996

>  <m_primary>  (63) 
energy

$$$$
63:0
     RDKit          3D

 31 32  0  0  0  0  0  0  0  0999 V2000
   -4.1790   22.6280  -27.8120 C   0  0  0  0  0  0  0  0  0  0  0  0
   -3.4510   22.1100  -28.9200 O   0  0  0  0  0  0  0  0  0  0  0  0
   -3.1490   22.8780  -30.0480 C   0  0  0  0  0  0  0  0  0  0  0  0
   -2.2100   23.7200  -30.0160 O   0  0  0  0  0  0  0  0  0  0  0  0
   -3.9250   22.6890  -31.2810 C   0  0  0  0  0  0  0  0  0  0  0  0
   -3.3220   22.4480  -32.3610 O   0  0  0  0  0  0  0  0  0  0  0  0
   -5.3590   22.7910  -31.2760 N   0  0  0  0  0  0  0  0  0  0  0  0
   -6.1080   23.8860  -30.9700 C   0  0  0  0  0  0  0  0  0  0  0  0
   -5.5730   25.1700  -30.4610 C   0  0  0  0  0  0  0  0  0  0  0  0
   -4.2210   25.5570  -30.7200 N   0  0  0  0  0  0  0  0  0  0  0  0
   -6.3140   25.9460  -29.8030 O   0  0  0  0  0  0  0  0  0  0  0  0
   -7.4650   23.6090  -31.1430 C   0  0  0  0  0  0  0  0  0  0  0  0
   -7.5180   22.3040  -31.5810 C   0  0  0  0  0  0  0  0  0  0  0  0
   -8.6130   21.5160  -31.9170 C   0  0  0  0  0  0  0  0  0  0  0  0
   -8.3710   20.2050  -32.3630 C   0  0  0  0  0  0  0  0  0  0  0  0
   -7.0440   19.7160  -32.4910 C   0  0  0  0  0  0  0  0  0  0  0  0
   -6.7980   18.2970  -32.9360 C   0  0  0  0  0  0  0  0  0  0  0  0
   -6.4840   18.2550  -34.2840 F   0  0  0  0  0  0  0  0  0  0  0  0
   -7.9230   17.5180  -32.7290 F   0  0  0  0  0  0  0  0  0  0  0  0
   -5.7450   17.7700  -32.2120 F   0  0  0  0  0  0  0  0  0  0  0  0
   -5.9590   20.5430  -32.1180 C   0  0  0  0  0  0  0  0  0  0  0  0
   -6.2330   21.8350  -31.6580 C   0  0  0  0  0  0  0  0  0  0  0  0
   -3.7087   22.2934  -26.8756 H   0  0  0  0  0  0  0  0  0  0  0  0
   -4.1747   23.7273  -27.8521 H   0  0  0  0  0  0  0  0  0  0  0  0
   -5.2161   22.2637  -27.8521 H   0  0  0  0  0  0  0  0  0  0  0  0
   -3.5530   24.9180  -31.2020 H   0  0  0  0  0  0  0  0  0  0  0  0
   -3.8690   26.4820  -30.3860 H   0  0  0  0  0  0  0  0  0  0  0  0
   -8.3121   24.2883  -30.9670 H   0  0  0  0  0  0  0  0  0  0  0  0
   -9.6381   21.9067  -31.8363 H   0  0  0  0  0  0  0  0  0  0  0  0
   -9.2186   19.5510  -32.6155 H   0  0  0  0  0  0  0  0  0  0  0  0
   -4.9235   20.1784  -32.1881 H   0  0  0  0  0  0  0  0  0  0  0  0
  1  2  1  0
  2  3  1  0
  3  4  2  0
  3  5  1  0
  5  6  2  0
  5  7  1  0
  7  8  1  0
  8  9  1  0
  9 10  1  0
  9 11  2  0
  8 12  2  0
 12 13  1  0
 13 14  2  0
 14 15  1  0
 15 16  2  0
 16 17  1  0
 17 18  1  0
 17 19  1  0
 17 20  1  0
 16 21  1  0
 21 22  2  0
 22  7  1  0
 22 13  1  0
  1 23  1  0
  1 24  1  0
  1 25  1  0
 10 26  1  0
 10 27  1  0
 12 28  1  0
 14 29  1  0
 15 30  1  0
 21 31  1  0
M  END
>  <UniqueID>  (64) 
64

>  <SMILES>  (64) 
COC(=O)C(=O)n1c(C(N)=O)cc2ccc(C(F)(F)F)cc21

>  <Energy>  (64) 
68.61771211565284

>  <Genealogy>  (64) 
COC(=O)C(=O)n1c(C(N)=O)cc2ccc(C(F)(F)F)cc21 (3D coordinates assigned)
COC(=O)C(=O)n1c(C(N)=O)cc2ccc(C(F)(F)F)cc21 (optimized conformer: 68.61771211565284 kcal/mol)

>  <smiles>  (64) 
COC(=O)C(=O)n1c(C(N)=O)cc2ccc(C(F)(F)F)cc21

>  <score_type>  (64) 
oracle

>  <origin>  (64) 
adg

>  <m_score__min__energy>  (64) 
-7.1799999999999997

>  <m_primary>  (64) 
energy

$$$$
64:0
     RDKit          3D

 35 36  0  0  0  0  0  0  0  0999 V2000
   -4.3900   25.6400  -30.7650 N   0  0  0  0  0  0  0  0  0  0  0  0
   -5.5600   25.0700  -30.1850 C   0  0  0  0  0  0  0  0  0  0  0  0
   -6.1310   25.6650  -29.2340 O   0  0  0  0  0  0  0  0  0  0  0  0
   -6.0680   23.7720  -30.6770 C   0  0  0  0  0  0  0  0  0  0  0  0
   -7.3050   23.6130  -31.2980 C   0  0  0  0  0  0  0  0  0  0  0  0
   -7.3520   22.2930  -31.6850 C   0  0  0  0  0  0  0  0  0  0  0  0
   -8.3500   21.5900  -32.3520 C   0  0  0  0  0  0  0  0  0  0  0  0
   -8.1330   20.2260  -32.6130 C   0  0  0  0  0  0  0  0  0  0  0  0
   -6.9390   19.5860  -32.1860 C   0  0  0  0  0  0  0  0  0  0  0  0
   -6.7010   18.1320  -32.5090 C   0  0  0  0  0  0  0  0  0  0  0  0
   -6.2250   17.9910  -33.8010 F   0  0  0  0  0  0  0  0  0  0  0  0
   -5.7700   17.6170  -31.6270 F   0  0  0  0  0  0  0  0  0  0  0  0
   -7.8760   17.4090  -32.3990 F   0  0  0  0  0  0  0  0  0  0  0  0
   -5.9390   20.3430  -31.5320 C   0  0  0  0  0  0  0  0  0  0  0  0
   -6.1780   21.7010  -31.2990 C   0  0  0  0  0  0  0  0  0  0  0  0
   -5.3810   22.5950  -30.6750 N   0  0  0  0  0  0  0  0  0  0  0  0
   -4.1010   22.3220  -30.0840 C   0  0  0  0  0  0  0  0  0  0  0  0
   -3.8450   21.1620  -29.6590 O   0  0  0  0  0  0  0  0  0  0  0  0
   -3.1350   23.3740  -29.9420 N   0  0  0  0  0  0  0  0  0  0  0  0
   -1.7840   23.1320  -29.4260 C   0  0  1  0  0  0  0  0  0  0  0  0
   -0.9760   22.2970  -30.4330 C   0  0  0  0  0  0  0  0  0  0  0  0
   -1.7500   21.9910  -31.5610 O   0  0  0  0  0  0  0  0  0  0  0  0
   -1.0970   24.4400  -29.1390 C   0  0  0  0  0  0  0  0  0  0  0  0
    0.0970   24.4610  -28.7360 O   0  0  0  0  0  0  0  0  0  0  0  0
   -1.7790   25.6360  -29.3200 O   0  0  0  0  0  0  0  0  0  0  0  0
   -3.4900   25.6720  -30.2360 H   0  0  0  0  0  0  0  0  0  0  0  0
   -8.0796   24.3796  -31.4473 H   0  0  0  0  0  0  0  0  0  0  0  0
   -9.2803   22.0862  -32.6655 H   0  0  0  0  0  0  0  0  0  0  0  0
   -8.8964   19.6477  -33.1540 H   0  0  0  0  0  0  0  0  0  0  0  0
   -4.9958   19.8746  -31.2142 H   0  0  0  0  0  0  0  0  0  0  0  0
   -3.4180   24.3410  -30.2210 H   0  0  0  0  0  0  0  0  0  0  0  0
   -1.8538   22.5660  -28.4854 H   0  0  0  0  0  0  0  0  0  0  0  0
   -0.0907   22.8691  -30.7476 H   0  0  0  0  0  0  0  0  0  0  0  0
   -0.6725   21.3573  -29.9484 H   0  0  0  0  0  0  0  0  0  0  0  0
   -2.4140   21.3110  -31.2740 H   0  0  0  0  0  0  0  0  0  0  0  0
  1  2  1  0
  2  3  2  0
  2  4  1  0
  4  5  2  0
  5  6  1  0
  6  7  2  0
  7  8  1  0
  8  9  2  0
  9 10  1  0
 10 11  1  0
 10 12  1  0
 10 13  1  0
  9 14  1  0
 14 15  2  0
 15 16  1  0
 16 17  1  0
 17 18  2  0
 17 19  1  0
 19 20  1  0
 20 21  1  0
 21 22  1  0
 20 23  1  0
 23 24  2  0
 23 25  1  0
 16  4  1  0
 15  6  1  0
  1 26  1  0
  5 27  1  0
  7 28  1  0
  8 29  1  0
 14 30  1  0
 19 31  1  0
 20 32  1  1
 21 33  1  0
 21 34  1  0
 22 35  1  0
M  CHG  2   1  -1  25  -1
M  END
>  <UniqueID>  (65) 
65

>  <SMILES>  (65) 
[NH-]C(=O)c1cc2ccc(C(F)(F)F)cc2n1C(=O)N[C@@H](CO)C(=O)[O-]

>  <Energy>  (65) 
71.58681949402784

>  <Genealogy>  (65) 
[NH-]C(=O)c1cc2ccc(C(F)(F)F)cc2n1C(=O)N[C@@H](CO)C(=O)[O-] (protonated)
[NH-]C(=O)c1cc2ccc(C(F)(F)F)cc2n1C(=O)N[C@@H](CO)C(=O)[O-] (3D coordinates assigned)
[NH-]C(=O)c1cc2ccc(C(F)(F)F)cc2n1C(=O)N[C@@H](CO)C(=O)[O-] (optimized conformer: 71.58681949402784 kcal/mol)

>  <smiles>  (65) 
NC(=O)c1cc2ccc(C(F)(F)F)cc2n1C(=O)N[C@@H](CO)C(=O)O

>  <score_type>  (65) 
oracle

>  <origin>  (65) 
adg

>  <m_score__min__energy>  (65) 
-11.050000000000001

>  <m_primary>  (65) 
energy

$$$$
65:0
     RDKit          3D

 49 51  0  0  0  0  0  0  0  0999 V2000
   -1.7160   21.5830  -27.3100 C   0  0  0  0  0  0  0  0  0  0  0  0
   -1.6010   22.8180  -28.0060 O   0  0  0  0  0  0  0  0  0  0  0  0
   -2.4020   23.1440  -29.1070 C   0  0  0  0  0  0  0  0  0  0  0  0
   -2.3240   24.2860  -29.6370 O   0  0  0  0  0  0  0  0  0  0  0  0
   -3.4010   22.1570  -29.6370 C   0  0  0  0  0  0  0  0  0  0  0  0
   -4.0020   22.6090  -30.9390 C   0  0  0  0  0  0  0  0  0  0  0  0
   -3.2310   22.9020  -31.8920 O   0  0  0  0  0  0  0  0  0  0  0  0
   -5.4260   22.7700  -31.0900 N   0  0  0  0  0  0  0  0  0  0  0  0
   -6.1550   23.8890  -30.8260 C   0  0  0  0  0  0  0  0  0  0  0  0
   -5.6100   25.1780  -30.3690 C   0  0  0  0  0  0  0  0  0  0  0  0
   -4.2500   25.5270  -30.6200 N   0  0  0  0  0  0  0  0  0  0  0  0
   -6.3720   26.0080  -29.8070 O   0  0  0  0  0  0  0  0  0  0  0  0
   -7.5160   23.6410  -30.9620 C   0  0  0  0  0  0  0  0  0  0  0  0
   -7.6050   22.3250  -31.3500 C   0  0  0  0  0  0  0  0  0  0  0  0
   -8.7260   21.5600  -31.6620 C   0  0  0  0  0  0  0  0  0  0  0  0
   -8.5250   20.2290  -32.0600 C   0  0  0  0  0  0  0  0  0  0  0  0
   -7.2170   19.6870  -32.1300 C   0  0  0  0  0  0  0  0  0  0  0  0
   -7.0090   18.2710  -32.6020 C   0  0  0  0  0  0  0  0  0  0  0  0
   -5.5200   17.9400  -32.7290 C   0  0  0  0  0  0  0  0  0  0  0  0
   -4.9760   18.5230  -33.9760 N   0  0  0  0  0  0  0  0  0  0  0  0
   -5.3790   17.7810  -35.1820 C   0  0  0  0  0  0  0  0  0  0  0  0
   -3.5460   18.9090  -33.8480 C   0  0  0  0  0  0  0  0  0  0  0  0
   -2.9980   19.3370  -32.4830 C   0  0  0  0  0  0  0  0  0  0  0  0
   -3.3010   20.3830  -33.5430 C   0  0  0  0  0  0  0  0  0  0  0  0
   -6.1040   20.4960  -31.8140 C   0  0  0  0  0  0  0  0  0  0  0  0
   -6.3330   21.8180  -31.4160 C   0  0  0  0  0  0  0  0  0  0  0  0
   -1.6986   21.7699  -26.2261 H   0  0  0  0  0  0  0  0  0  0  0  0
   -2.6635   21.0952  -27.5828 H   0  0  0  0  0  0  0  0  0  0  0  0
   -0.8749   20.9287  -27.5828 H   0  0  0  0  0  0  0  0  0  0  0  0
   -2.8976   21.1916  -29.7942 H   0  0  0  0  0  0  0  0  0  0  0  0
   -4.2132   22.0665  -28.9007 H   0  0  0  0  0  0  0  0  0  0  0  0
   -3.6510   24.9330  -31.2350 H   0  0  0  0  0  0  0  0  0  0  0  0
   -3.8630   26.4280  -30.2590 H   0  0  0  0  0  0  0  0  0  0  0  0
   -8.3437   24.3460  -30.7951 H   0  0  0  0  0  0  0  0  0  0  0  0
   -9.7383   21.9858  -31.5985 H   0  0  0  0  0  0  0  0  0  0  0  0
   -9.3900   19.6011  -32.3198 H   0  0  0  0  0  0  0  0  0  0  0  0
   -7.4690   17.5812  -31.8792 H   0  0  0  0  0  0  0  0  0  0  0  0
   -7.4742   18.1635  -33.5930 H   0  0  0  0  0  0  0  0  0  0  0  0
   -4.9795   18.3564  -31.8662 H   0  0  0  0  0  0  0  0  0  0  0  0
   -5.3942   16.8476  -32.7565 H   0  0  0  0  0  0  0  0  0  0  0  0
   -5.8848   16.8496  -34.8875 H   0  0  0  0  0  0  0  0  0  0  0  0
   -6.0659   18.3981  -35.7798 H   0  0  0  0  0  0  0  0  0  0  0  0
   -4.4874   17.5408  -35.7798 H   0  0  0  0  0  0  0  0  0  0  0  0
   -3.2156   18.1741  -34.5968 H   0  0  0  0  0  0  0  0  0  0  0  0
   -3.6322   19.2616  -31.5874 H   0  0  0  0  0  0  0  0  0  0  0  0
   -2.1164   19.0723  -31.8808 H   0  0  0  0  0  0  0  0  0  0  0  0
   -4.1537   21.0656  -33.4126 H   0  0  0  0  0  0  0  0  0  0  0  0
   -2.7270   21.1892  -34.0232 H   0  0  0  0  0  0  0  0  0  0  0  0
   -5.0811   20.0967  -31.8791 H   0  0  0  0  0  0  0  0  0  0  0  0
  1  2  1  0
  2  3  1  0
  3  4  2  0
  3  5  1  0
  5  6  1  0
  6  7  2  0
  6  8  1  0
  8  9  1  0
  9 10  1  0
 10 11  1  0
 10 12  2  0
  9 13  2  0
 13 14  1  0
 14 15  2  0
 15 16  1  0
 16 17  2  0
 17 18  1  0
 18 19  1  0
 19 20  1  0
 20 21  1  0
 20 22  1  0
 22 23  1  0
 23 24  1  0
 17 25  1  0
 25 26  2  0
 26  8  1  0
 26 14  1  0
 24 22  1  0
  1 27  1  0
  1 28  1  0
  1 29  1  0
  5 30  1  0
  5 31  1  0
 11 32  1  0
 11 33  1  0
 13 34  1  0
 15 35  1  0
 16 36  1  0
 18 37  1  0
 18 38  1  0
 19 39  1  0
 19 40  1  0
 21 41  1  0
 21 42  1  0
 21 43  1  0
 22 44  1  0
 23 45  1  0
 23 46  1  0
 24 47  1  0
 24 48  1  0
 25 49  1  0
M  END
>  <UniqueID>  (66) 
66

>  <SMILES>  (66) 
COC(=O)CC(=O)n1c(C(N)=O)cc2ccc(CCN(C)C3CC3)cc21

>  <Energy>  (66) 
361.6740130643893

>  <Genealogy>  (66) 
COC(=O)CC(=O)n1c(C(N)=O)cc2ccc(CCN(C)C3CC3)cc21 (3D coordinates assigned)
COC(=O)CC(=O)n1c(C(N)=O)cc2ccc(CCN(C)C3CC3)cc21 (nonaromatic ring conformer: 361.6740130643893 kcal/mol)

>  <smiles>  (66) 
COC(=O)CC(=O)n1c(C(N)=O)cc2ccc(CCN(C)C3CC3)cc21

>  <score_type>  (66) 
oracle

>  <origin>  (66) 
adg

>  <m_score__min__energy>  (66) 
-9.4800000000000004

>  <m_primary>  (66) 
energy

$$$$
66:0
     RDKit          3D

 57 59  0  0  0  0  0  0  0  0999 V2000
   -4.6980   15.5600  -32.7790 C   0  0  0  0  0  0  0  0  0  0  0  0
   -5.4350   15.7440  -34.0410 N   0  0  0  0  0  0  0  0  0  0  0  0
   -4.8830   16.8160  -34.8750 C   0  0  0  0  0  0  0  0  0  0  0  0
   -5.0380   18.2090  -34.2490 C   0  0  0  0  0  0  0  0  0  0  0  0
   -6.2810   18.4100  -33.4720 N   0  0  0  0  0  0  0  0  0  0  0  0
   -6.5450   19.7290  -32.8930 C   0  0  0  0  0  0  0  0  0  0  0  0
   -7.8810   20.2040  -32.7170 C   0  0  0  0  0  0  0  0  0  0  0  0
   -8.1420   21.4710  -32.1690 C   0  0  0  0  0  0  0  0  0  0  0  0
   -7.0620   22.2540  -31.7890 C   0  0  0  0  0  0  0  0  0  0  0  0
   -7.0350   23.5210  -31.2520 C   0  0  0  0  0  0  0  0  0  0  0  0
   -5.6850   23.8140  -31.0690 C   0  0  0  0  0  0  0  0  0  0  0  0
   -5.2000   25.0550  -30.4270 C   0  0  0  0  0  0  0  0  0  0  0  0
   -3.9440   25.6070  -30.8110 N   0  0  0  0  0  0  0  0  0  0  0  0
   -5.9010   25.6530  -29.5690 O   0  0  0  0  0  0  0  0  0  0  0  0
   -4.9110   22.7710  -31.4840 N   0  0  0  0  0  0  0  0  0  0  0  0
   -3.4770   22.6940  -31.5110 C   0  0  0  0  0  0  0  0  0  0  0  0
   -2.8970   22.0820  -32.4500 O   0  0  0  0  0  0  0  0  0  0  0  0
   -2.7320   23.2780  -30.4800 O   0  0  0  0  0  0  0  0  0  0  0  0
   -1.6190   22.6420  -29.8560 C   0  0  0  0  0  0  0  0  0  0  0  0
   -1.6170   22.9260  -28.3490 C   0  0  0  0  0  0  0  0  0  0  0  0
   -2.1930   24.3120  -27.9900 C   0  0  0  0  0  0  0  0  0  0  0  0
   -3.6740   24.3500  -27.8810 N   0  0  0  0  0  0  0  0  0  0  0  0
   -4.2140   22.9900  -28.0550 C   0  0  0  0  0  0  0  0  0  0  0  0
   -4.1180   24.8940  -26.5850 C   0  0  0  0  0  0  0  0  0  0  0  0
   -5.7710   21.8240  -31.9200 C   0  0  0  0  0  0  0  0  0  0  0  0
   -5.4760   20.5760  -32.4800 C   0  0  0  0  0  0  0  0  0  0  0  0
   -7.1830   17.2890  -33.1290 C   0  0  0  0  0  0  0  0  0  0  0  0
   -6.8710   15.9650  -33.8390 C   0  0  0  0  0  0  0  0  0  0  0  0
   -5.3766   15.7294  -31.9300 H   0  0  0  0  0  0  0  0  0  0  0  0
   -4.3011   14.5352  -32.7323 H   0  0  0  0  0  0  0  0  0  0  0  0
   -3.8659   16.2780  -32.7323 H   0  0  0  0  0  0  0  0  0  0  0  0
   -3.8120   16.6205  -35.0323 H   0  0  0  0  0  0  0  0  0  0  0  0
   -5.4455   16.8177  -35.8203 H   0  0  0  0  0  0  0  0  0  0  0  0
   -4.1840   18.3780  -33.5766 H   0  0  0  0  0  0  0  0  0  0  0  0
   -5.0808   18.9200  -35.0873 H   0  0  0  0  0  0  0  0  0  0  0  0
   -8.7236   19.5637  -33.0171 H   0  0  0  0  0  0  0  0  0  0  0  0
   -9.1737   21.8319  -32.0448 H   0  0  0  0  0  0  0  0  0  0  0  0
   -7.8954   24.1649  -31.0174 H   0  0  0  0  0  0  0  0  0  0  0  0
   -3.0580   25.2960  -30.3520 H   0  0  0  0  0  0  0  0  0  0  0  0
   -1.6831   21.5562  -30.0201 H   0  0  0  0  0  0  0  0  0  0  0  0
   -0.6906   23.0364  -30.2947 H   0  0  0  0  0  0  0  0  0  0  0  0
   -2.2214   22.1558  -27.8474 H   0  0  0  0  0  0  0  0  0  0  0  0
   -0.5689   22.9116  -28.0154 H   0  0  0  0  0  0  0  0  0  0  0  0
   -1.7686   24.6214  -27.0235 H   0  0  0  0  0  0  0  0  0  0  0  0
   -1.9207   24.9887  -28.8134 H   0  0  0  0  0  0  0  0  0  0  0  0
   -4.0700   24.9390  -28.6490 H   0  0  0  0  0  0  0  0  0  0  0  0
   -4.3936   22.5378  -27.0685 H   0  0  0  0  0  0  0  0  0  0  0  0
   -5.1605   23.0399  -28.6132 H   0  0  0  0  0  0  0  0  0  0  0  0
   -3.4910   22.3771  -28.6132 H   0  0  0  0  0  0  0  0  0  0  0  0
   -3.6519   24.3229  -25.7686 H   0  0  0  0  0  0  0  0  0  0  0  0
   -3.8209   25.9504  -26.5096 H   0  0  0  0  0  0  0  0  0  0  0  0
   -5.2125   24.8146  -26.5096 H   0  0  0  0  0  0  0  0  0  0  0  0
   -4.4315   20.2526  -32.6000 H   0  0  0  0  0  0  0  0  0  0  0  0
   -7.1178   17.1182  -32.0443 H   0  0  0  0  0  0  0  0  0  0  0  0
   -8.1869   17.5885  -33.4644 H   0  0  0  0  0  0  0  0  0  0  0  0
   -7.2700   15.1395  -33.2313 H   0  0  0  0  0  0  0  0  0  0  0  0
   -7.3389   16.0083  -34.8336 H   0  0  0  0  0  0  0  0  0  0  0  0
  1  2  1  0
  2  3  1  0
  3  4  1  0
  4  5  1  0
  5  6  1  0
  6  7  2  0
  7  8  1  0
  8  9  2  0
  9 10  1  0
 10 11  2  0
 11 12  1  0
 12 13  1  0
 12 14  2  0
 11 15  1  0
 15 16  1  0
 16 17  2  0
 16 18  1  0
 18 19  1  0
 19 20  1  0
 20 21  1  0
 21 22  1  0
 22 23  1  0
 22 24  1  0
 15 25  1  0
 25 26  2  0
  5 27  1  0
 27 28  1  0
 28  2  1  0
 26  6  1  0
 25  9  1  0
  1 29  1  0
  1 30  1  0
  1 31  1  0
  3 32  1  0
  3 33  1  0
  4 34  1  0
  4 35  1  0
  7 36  1  0
  8 37  1  0
 10 38  1  0
 13 39  1  0
 19 40  1  0
 19 41  1  0
 20 42  1  0
 20 43  1  0
 21 44  1  0
 21 45  1  0
 22 46  1  0
 23 47  1  0
 23 48  1  0
 23 49  1  0
 24 50  1  0
 24 51  1  0
 24 52  1  0
 26 53  1  0
 27 54  1  0
 27 55  1  0
 28 56  1  0
 28 57  1  0
M  CHG  2  13  -1  22   1
M  END
>  <UniqueID>  (67) 
67

>  <SMILES>  (67) 
CN1CCN(c2ccc3cc(C([NH-])=O)n(C(=O)OCCC[NH+](C)C)c3c2)CC1

>  <Energy>  (67) 
104.40518887548059

>  <Genealogy>  (67) 
CN1CCN(c2ccc3cc(C([NH-])=O)n(C(=O)OCCC[NH+](C)C)c3c2)CC1 (protonated)
CN1CCN(c2ccc3cc(C([NH-])=O)n(C(=O)OCCC[NH+](C)C)c3c2)CC1 (3D coordinates assigned)
CN1CCN(c2ccc3cc(C([NH-])=O)n(C(=O)OCCC[NH+](C)C)c3c2)CC1 (nonaromatic ring conformer: 104.40518887548059 kcal/mol)

>  <smiles>  (67) 
CN(C)CCCOC(=O)n1c(C(N)=O)cc2ccc(N3CCN(C)CC3)cc21

>  <score_type>  (67) 
oracle

>  <origin>  (67) 
adg

>  <m_score__min__energy>  (67) 
-9.9100000000000001

>  <m_primary>  (67) 
energy

$$$$
67:0
     RDKit          3D

 54 55  0  0  0  0  0  0  0  0999 V2000
   -2.5720   22.5970  -29.9250 C   0  0  0  0  0  0  0  0  0  0  0  0
   -3.1320   23.2660  -31.0500 O   0  0  0  0  0  0  0  0  0  0  0  0
   -4.0870   22.6730  -31.8820 C   0  0  0  0  0  0  0  0  0  0  0  0
   -3.7400   22.1650  -32.9810 O   0  0  0  0  0  0  0  0  0  0  0  0
   -5.4750   22.6910  -31.5120 N   0  0  0  0  0  0  0  0  0  0  0  0
   -6.1570   23.6930  -30.8880 C   0  0  0  0  0  0  0  0  0  0  0  0
   -5.5610   24.9040  -30.2850 C   0  0  0  0  0  0  0  0  0  0  0  0
   -6.0380   25.4240  -29.0430 N   0  0  0  0  0  0  0  0  0  0  0  0
   -4.6540   25.5230  -30.9050 O   0  0  0  0  0  0  0  0  0  0  0  0
   -7.5150   23.3950  -30.8200 C   0  0  0  0  0  0  0  0  0  0  0  0
   -7.6450   22.1590  -31.4090 C   0  0  0  0  0  0  0  0  0  0  0  0
   -8.7810   21.3860  -31.6210 C   0  0  0  0  0  0  0  0  0  0  0  0
   -8.6280   20.1610  -32.2900 C   0  0  0  0  0  0  0  0  0  0  0  0
   -7.3580   19.7380  -32.7500 C   0  0  0  0  0  0  0  0  0  0  0  0
   -7.2580   18.4950  -33.4670 N   0  0  0  0  0  0  0  0  0  0  0  0
   -7.1030   17.1810  -32.8370 C   0  0  0  0  0  0  0  0  0  0  0  0
   -6.3640   16.1990  -33.7580 C   0  0  0  0  0  0  0  0  0  0  0  0
   -4.9290   16.5150  -33.8290 N   0  0  0  0  0  0  0  0  0  0  0  0
   -3.9550   15.6950  -33.1020 C   0  0  0  0  0  0  0  0  0  0  0  0
   -4.4580   17.6280  -34.6070 C   0  0  0  0  0  0  0  0  0  0  0  0
   -5.2660   18.2890  -35.3160 O   0  0  0  0  0  0  0  0  0  0  0  0
   -3.0980   17.9700  -34.5600 O   0  0  0  0  0  0  0  0  0  0  0  0
   -2.4670   18.8150  -33.5860 C   0  0  0  0  0  0  0  0  0  0  0  0
   -1.8890   20.0760  -34.2550 C   0  0  0  0  0  0  0  0  0  0  0  0
   -1.3160   18.0080  -32.9670 C   0  0  0  0  0  0  0  0  0  0  0  0
   -3.4620   19.1950  -32.4730 C   0  0  0  0  0  0  0  0  0  0  0  0
   -6.2230   20.5500  -32.5060 C   0  0  0  0  0  0  0  0  0  0  0  0
   -6.4000   21.7540  -31.8190 C   0  0  0  0  0  0  0  0  0  0  0  0
   -2.9538   23.0531  -28.9997 H   0  0  0  0  0  0  0  0  0  0  0  0
   -2.8535   21.5340  -29.9530 H   0  0  0  0  0  0  0  0  0  0  0  0
   -1.4760   22.6870  -29.9530 H   0  0  0  0  0  0  0  0  0  0  0  0
   -6.8900   25.0330  -28.5890 H   0  0  0  0  0  0  0  0  0  0  0  0
   -5.6090   26.2850  -28.6360 H   0  0  0  0  0  0  0  0  0  0  0  0
   -8.3137   24.0156  -30.3875 H   0  0  0  0  0  0  0  0  0  0  0  0
   -9.7692   21.7237  -31.2753 H   0  0  0  0  0  0  0  0  0  0  0  0
   -9.5069   19.5215  -32.4589 H   0  0  0  0  0  0  0  0  0  0  0  0
   -7.2270   18.5260  -34.5110 H   0  0  0  0  0  0  0  0  0  0  0  0
   -6.5304   17.2968  -31.9049 H   0  0  0  0  0  0  0  0  0  0  0  0
   -8.1050   16.7756  -32.6332 H   0  0  0  0  0  0  0  0  0  0  0  0
   -6.4879   15.1781  -33.3675 H   0  0  0  0  0  0  0  0  0  0  0  0
   -6.7897   16.2814  -34.7689 H   0  0  0  0  0  0  0  0  0  0  0  0
   -4.1048   15.8211  -32.0196 H   0  0  0  0  0  0  0  0  0  0  0  0
   -4.0932   14.6373  -33.3705 H   0  0  0  0  0  0  0  0  0  0  0  0
   -2.9363   16.0114  -33.3705 H   0  0  0  0  0  0  0  0  0  0  0  0
   -1.5637   20.7858  -33.4802 H   0  0  0  0  0  0  0  0  0  0  0  0
   -1.0288   19.7972  -34.8813 H   0  0  0  0  0  0  0  0  0  0  0  0
   -2.6617   20.5457  -34.8813 H   0  0  0  0  0  0  0  0  0  0  0  0
   -1.3835   18.0553  -31.8701 H   0  0  0  0  0  0  0  0  0  0  0  0
   -1.3857   16.9600  -33.2938 H   0  0  0  0  0  0  0  0  0  0  0  0
   -0.3545   18.4308  -33.2938 H   0  0  0  0  0  0  0  0  0  0  0  0
   -2.9989   19.0181  -31.4911 H   0  0  0  0  0  0  0  0  0  0  0  0
   -3.7284   20.2581  -32.5666 H   0  0  0  0  0  0  0  0  0  0  0  0
   -4.3692   18.5801  -32.5666 H   0  0  0  0  0  0  0  0  0  0  0  0
   -5.2251   20.2398  -32.8495 H   0  0  0  0  0  0  0  0  0  0  0  0
  1  2  1  0
  2  3  1  0
  3  4  2  0
  3  5  1  0
  5  6  1  0
  6  7  1  0
  7  8  1  0
  7  9  2  0
  6 10  2  0
 10 11  1  0
 11 12  2  0
 12 13  1  0
 13 14  2  0
 14 15  1  0
 15 16  1  0
 16 17  1  0
 17 18  1  0
 18 19  1  0
 18 20  1  0
 20 21  2  0
 20 22  1  0
 22 23  1  0
 23 24  1  0
 23 25  1  0
 23 26  1  0
 14 27  1  0
 27 28  2  0
 28  5  1  0
 28 11  1  0
  1 29  1  0
  1 30  1  0
  1 31  1  0
  8 32  1  0
  8 33  1  0
 10 34  1  0
 12 35  1  0
 13 36  1  0
 15 37  1  0
 16 38  1  0
 16 39  1  0
 17 40  1  0
 17 41  1  0
 19 42  1  0
 19 43  1  0
 19 44  1  0
 24 45  1  0
 24 46  1  0
 24 47  1  0
 25 48  1  0
 25 49  1  0
 25 50  1  0
 26 51  1  0
 26 52  1  0
 26 53  1  0
 27 54  1  0
M  END
>  <UniqueID>  (68) 
68

>  <SMILES>  (68) 
COC(=O)n1c(C(N)=O)cc2ccc(NCCN(C)C(=O)OC(C)(C)C)cc21

>  <Energy>  (68) 
80.37083181021468

>  <Genealogy>  (68) 
COC(=O)n1c(C(N)=O)cc2ccc(NCCN(C)C(=O)OC(C)(C)C)cc21 (3D coordinates assigned)
COC(=O)n1c(C(N)=O)cc2ccc(NCCN(C)C(=O)OC(C)(C)C)cc21 (optimized conformer: 80.37083181021468 kcal/mol)

>  <smiles>  (68) 
COC(=O)n1c(C(N)=O)cc2ccc(NCCN(C)C(=O)OC(C)(C)C)cc21

>  <score_type>  (68) 
oracle

>  <origin>  (68) 
adg

>  <m_score__min__energy>  (68) 
-8.2899999999999991

>  <m_primary>  (68) 
energy

$$$$
68:0
     RDKit          3D

 46 47  0  0  0  0  0  0  0  0999 V2000
   -2.7550   21.1110  -28.0880 C   0  0  0  0  0  0  0  0  0  0  0  0
   -3.6070   22.1650  -28.8230 C   0  0  0  0  0  0  0  0  0  0  0  0
   -4.0950   23.2340  -27.8310 C   0  0  0  0  0  0  0  0  0  0  0  0
   -2.9340   22.7710  -30.0090 N   0  0  1  0  0  0  0  0  0  0  0  0
   -1.5320   22.3430  -30.1990 C   0  0  0  0  0  0  0  0  0  0  0  0
   -3.7140   22.5440  -31.2100 C   0  0  0  0  0  0  0  0  0  0  0  0
   -3.2300   21.8970  -32.1820 O   0  0  0  0  0  0  0  0  0  0  0  0
   -5.0990   22.9270  -31.2510 N   0  0  0  0  0  0  0  0  0  0  0  0
   -5.6560   24.1080  -30.8610 C   0  0  0  0  0  0  0  0  0  0  0  0
   -4.9140   25.3410  -30.5330 C   0  0  0  0  0  0  0  0  0  0  0  0
   -3.5220   25.2730  -30.2320 N   0  0  0  0  0  0  0  0  0  0  0  0
   -5.5030   26.4510  -30.4810 O   0  0  0  0  0  0  0  0  0  0  0  0
   -7.0470   24.0210  -30.8850 C   0  0  0  0  0  0  0  0  0  0  0  0
   -7.3260   22.7420  -31.3140 C   0  0  0  0  0  0  0  0  0  0  0  0
   -8.5480   22.0990  -31.4870 C   0  0  0  0  0  0  0  0  0  0  0  0
   -8.5310   20.7560  -31.8980 C   0  0  0  0  0  0  0  0  0  0  0  0
   -7.3040   20.0870  -32.1310 C   0  0  0  0  0  0  0  0  0  0  0  0
   -7.3020   18.7070  -32.5320 N   0  0  0  0  0  0  0  0  0  0  0  0
   -8.3850   17.8320  -32.0770 C   0  0  0  0  0  0  0  0  0  0  0  0
   -6.1140   18.1270  -33.1700 C   0  0  0  0  0  0  0  0  0  0  0  0
   -6.0170   18.5860  -34.5930 C   0  0  0  0  0  0  0  0  0  0  0  0
   -5.3810   17.9410  -35.4110 O   0  0  0  0  0  0  0  0  0  0  0  0
   -6.0850   20.7710  -31.9430 C   0  0  0  0  0  0  0  0  0  0  0  0
   -6.1320   22.1090  -31.5360 C   0  0  0  0  0  0  0  0  0  0  0  0
   -2.8632   21.2448  -27.0015 H   0  0  0  0  0  0  0  0  0  0  0  0
   -3.0955   20.1035  -28.3690 H   0  0  0  0  0  0  0  0  0  0  0  0
   -1.6985   21.2327  -28.3690 H   0  0  0  0  0  0  0  0  0  0  0  0
   -4.4774   21.6354  -29.2377 H   0  0  0  0  0  0  0  0  0  0  0  0
   -3.9335   22.8803  -26.8020 H   0  0  0  0  0  0  0  0  0  0  0  0
   -3.5332   24.1661  -27.9907 H   0  0  0  0  0  0  0  0  0  0  0  0
   -5.1673   23.4202  -27.9907 H   0  0  0  0  0  0  0  0  0  0  0  0
   -2.9060   23.8050  -29.8560 H   0  0  0  0  0  0  0  0  0  0  0  0
   -1.0567   22.1979  -29.2176 H   0  0  0  0  0  0  0  0  0  0  0  0
   -1.5102   21.3973  -30.7604 H   0  0  0  0  0  0  0  0  0  0  0  0
   -0.9857   23.1153  -30.7604 H   0  0  0  0  0  0  0  0  0  0  0  0
   -3.1420   25.6720  -29.3440 H   0  0  0  0  0  0  0  0  0  0  0  0
   -7.7688   24.8069  -30.6180 H   0  0  0  0  0  0  0  0  0  0  0  0
   -9.4969   22.6257  -31.3076 H   0  0  0  0  0  0  0  0  0  0  0  0
   -9.4799   20.2182  -32.0404 H   0  0  0  0  0  0  0  0  0  0  0  0
   -8.4055   17.8154  -30.9773 H   0  0  0  0  0  0  0  0  0  0  0  0
   -9.3458   18.2104  -32.4560 H   0  0  0  0  0  0  0  0  0  0  0  0
   -8.2170   16.8131  -32.4560 H   0  0  0  0  0  0  0  0  0  0  0  0
   -5.2148   18.4464  -32.6228 H   0  0  0  0  0  0  0  0  0  0  0  0
   -6.1946   17.0301  -33.1505 H   0  0  0  0  0  0  0  0  0  0  0  0
   -6.5232   19.5121  -34.9031 H   0  0  0  0  0  0  0  0  0  0  0  0
   -5.1225   20.2659  -32.1119 H   0  0  0  0  0  0  0  0  0  0  0  0
  1  2  1  0
  2  3  1  0
  2  4  1  0
  4  5  1  0
  4  6  1  0
  6  7  2  0
  6  8  1  0
  8  9  1  0
  9 10  1  0
 10 11  1  0
 10 12  2  0
  9 13  2  0
 13 14  1  0
 14 15  2  0
 15 16  1  0
 16 17  2  0
 17 18  1  0
 18 19  1  0
 18 20  1  0
 20 21  1  0
 21 22  2  0
 17 23  1  0
 23 24  2  0
 24  8  1  0
 24 14  1  0
  1 25  1  0
  1 26  1  0
  1 27  1  0
  2 28  1  0
  3 29  1  0
  3 30  1  0
  3 31  1  0
  4 32  1  1
  5 33  1  0
  5 34  1  0
  5 35  1  0
 11 36  1  0
 13 37  1  0
 15 38  1  0
 16 39  1  0
 19 40  1  0
 19 41  1  0
 19 42  1  0
 20 43  1  0
 20 44  1  0
 21 45  1  0
 23 46  1  0
M  CHG  2   4   1  11  -1
M  END
>  <UniqueID>  (69) 
69

>  <SMILES>  (69) 
CC(C)[N@@H+](C)C(=O)n1c(C([NH-])=O)cc2ccc(N(C)CC=O)cc21

>  <Energy>  (69) 
92.23828771971172

>  <Genealogy>  (69) 
CC(C)[NH+](C)C(=O)n1c(C([NH-])=O)cc2ccc(N(C)CC=O)cc21 (protonated)
CC(C)[N@@H+](C)C(=O)n1c(C([NH-])=O)cc2ccc(N(C)CC=O)cc21 (chirality)
CC(C)[N@@H+](C)C(=O)n1c(C([NH-])=O)cc2ccc(N(C)CC=O)cc21 (3D coordinates assigned)
CC(C)[N@@H+](C)C(=O)n1c(C([NH-])=O)cc2ccc(N(C)CC=O)cc21 (optimized conformer: 92.23828771971172 kcal/mol)

>  <smiles>  (69) 
CC(C)N(C)C(=O)n1c(C(N)=O)cc2ccc(N(C)CC=O)cc21

>  <score_type>  (69) 
oracle

>  <origin>  (69) 
adg

>  <m_score__min__energy>  (69) 
-9.2100000000000009

>  <m_primary>  (69) 
energy

$$$$
69:0
     RDKit          3D

 39 40  0  0  0  0  0  0  0  0999 V2000
   -3.3340   25.3060  -28.8850 H   0  0  0  0  0  0  0  0  0  0  0  0
   -2.3460   25.3580  -28.9670 O   0  0  0  0  0  0  0  0  0  0  0  0
   -1.8190   24.9410  -27.7370 C   0  0  0  0  0  0  0  0  0  0  0  0
   -2.4797   25.2845  -26.9274 H   0  0  0  0  0  0  0  0  0  0  0  0
   -0.8134   25.3717  -27.6222 H   0  0  0  0  0  0  0  0  0  0  0  0
   -1.7060   23.4110  -27.6780 C   0  0  0  0  0  0  0  0  0  0  0  0
   -2.7127   22.9810  -27.7862 H   0  0  0  0  0  0  0  0  0  0  0  0
   -1.2500   23.1524  -26.7110 H   0  0  0  0  0  0  0  0  0  0  0  0
   -0.8050   22.8310  -28.7800 C   0  0  0  0  0  0  0  0  0  0  0  0
   -0.4676   21.8306  -28.4711 H   0  0  0  0  0  0  0  0  0  0  0  0
    0.0440   23.5170  -28.9163 H   0  0  0  0  0  0  0  0  0  0  0  0
   -1.5180   22.7150  -30.0970 C   0  0  0  0  0  0  0  0  0  0  0  0
   -0.9614   22.9025  -31.0271 H   0  0  0  0  0  0  0  0  0  0  0  0
   -2.8140   22.3890  -30.1660 C   0  0  0  0  0  0  0  0  0  0  0  0
   -3.3579   22.1847  -29.2320 H   0  0  0  0  0  0  0  0  0  0  0  0
   -3.5410   22.2930  -31.4440 C   0  0  0  0  0  0  0  0  0  0  0  0
   -2.8920   22.0500  -32.4970 O   0  0  0  0  0  0  0  0  0  0  0  0
   -4.9670   22.4500  -31.5150 N   0  0  0  0  0  0  0  0  0  0  0  0
   -5.7130   23.4500  -30.9710 C   0  0  0  0  0  0  0  0  0  0  0  0
   -5.1820   24.6710  -30.3300 C   0  0  0  0  0  0  0  0  0  0  0  0
   -4.2100   25.2740  -30.8570 O   0  0  0  0  0  0  0  0  0  0  0  0
   -5.7160   25.1550  -29.0960 N   0  0  0  0  0  0  0  0  0  0  0  0
   -5.3670   26.0520  -28.6910 H   0  0  0  0  0  0  0  0  0  0  0  0
   -6.3790   24.5810  -28.5300 H   0  0  0  0  0  0  0  0  0  0  0  0
   -7.0720   23.1740  -31.1000 C   0  0  0  0  0  0  0  0  0  0  0  0
   -7.9143   23.7920  -30.7555 H   0  0  0  0  0  0  0  0  0  0  0  0
   -7.1360   21.9620  -31.7510 C   0  0  0  0  0  0  0  0  0  0  0  0
   -8.2380   21.1930  -32.1070 C   0  0  0  0  0  0  0  0  0  0  0  0
   -9.2616   21.5455  -31.9123 H   0  0  0  0  0  0  0  0  0  0  0  0
   -8.0050   19.9520  -32.7230 C   0  0  0  0  0  0  0  0  0  0  0  0
   -8.8576   19.3194  -33.0110 H   0  0  0  0  0  0  0  0  0  0  0  0
   -6.6820   19.5050  -32.9780 C   0  0  0  0  0  0  0  0  0  0  0  0
   -6.4430   18.1450  -33.5840 C   0  0  0  0  0  0  0  0  0  0  0  0
   -6.1180   18.2590  -34.9240 F   0  0  0  0  0  0  0  0  0  0  0  0
   -7.5900   17.3830  -33.4610 F   0  0  0  0  0  0  0  0  0  0  0  0
   -5.4020   17.5000  -32.9390 F   0  0  0  0  0  0  0  0  0  0  0  0
   -5.5880   20.3030  -32.5710 C   0  0  0  0  0  0  0  0  0  0  0  0
   -4.5539   19.9564  -32.7144 H   0  0  0  0  0  0  0  0  0  0  0  0
   -5.8520   21.5430  -31.9820 C   0  0  0  0  0  0  0  0  0  0  0  0
  1  2  1  0
  2  3  1  0
  3  4  1  0
  3  5  1  0
  3  6  1  0
  6  7  1  0
  6  8  1  0
  6  9  1  0
  9 10  1  0
  9 11  1  0
  9 12  1  0
 12 13  1  0
 12 14  2  0
 14 15  1  0
 14 16  1  0
 16 17  2  0
 16 18  1  0
 18 19  1  0
 19 20  1  0
 20 21  2  0
 20 22  1  0
 22 23  1  0
 22 24  1  0
 19 25  2  0
 25 26  1  0
 25 27  1  0
 27 28  2  0
 28 29  1  0
 28 30  1  0
 30 31  1  0
 30 32  2  0
 32 33  1  0
 33 34  1  0
 33 35  1  0
 33 36  1  0
 32 37  1  0
 37 38  1  0
 37 39  2  0
 39 18  1  0
 39 27  1  0
M  END
>  <UniqueID>  (70) 
70

>  <SMILES>  (70) 
NC(=O)c1cc2ccc(C(F)(F)F)cc2n1C(=O)/C=C/CCCO

>  <Energy>  (70) 
73.20866922312621

>  <Genealogy>  (70) 
NC(=O)c1cc2ccc(C(F)(F)F)cc2n1C(=O)/C=C/CCCO (cis-trans isomerization)
NC(=O)c1cc2ccc(C(F)(F)F)cc2n1C(=O)/C=C/CCCO (3D coordinates assigned)
NC(=O)c1cc2ccc(C(F)(F)F)cc2n1C(=O)/C=C/CCCO (optimized conformer: 73.20866922312621 kcal/mol)

>  <smiles>  (70) 
NC(=O)c1cc2ccc(C(F)(F)F)cc2n1C(=O)/C=C/CCCO

>  <score_type>  (70) 
oracle

>  <origin>  (70) 
adg

>  <m_score__min__energy>  (70) 
-9.2300000000000004

>  <m_primary>  (70) 
energy

$$$$
70:0
     RDKit          3D

 52 53  0  0  0  0  0  0  0  0999 V2000
   -1.8080   25.6340  -28.9740 N   0  0  0  0  0  0  0  0  0  0  0  0
   -1.0460   24.4330  -29.0500 C   0  0  0  0  0  0  0  0  0  0  0  0
   -0.0330   24.2980  -28.3120 O   0  0  0  0  0  0  0  0  0  0  0  0
   -1.4540   23.3280  -29.9410 C   0  0  0  0  0  0  0  0  0  0  0  0
   -0.5790   22.3400  -30.3940 C   0  0  0  0  0  0  0  0  0  0  0  0
   -1.3570   21.4710  -31.1250 C   0  0  0  0  0  0  0  0  0  0  0  0
   -1.0050   20.3130  -31.8140 C   0  0  0  0  0  0  0  0  0  0  0  0
   -2.0150   19.6290  -32.5120 C   0  0  0  0  0  0  0  0  0  0  0  0
   -3.3450   20.1190  -32.5220 C   0  0  0  0  0  0  0  0  0  0  0  0
   -4.4240   19.3840  -33.2750 C   0  0  0  0  0  0  0  0  0  0  0  0
   -5.7990   19.9190  -32.9380 C   0  0  0  0  0  0  0  0  0  0  0  0
   -6.1570   21.0170  -33.4500 O   0  0  0  0  0  0  0  0  0  0  0  0
   -6.6570   19.2810  -31.9610 N   0  0  0  0  0  0  0  0  0  0  0  0
   -6.5000   17.8630  -31.5920 C   0  0  0  0  0  0  0  0  0  0  0  0
   -6.7910   16.9310  -32.7730 C   0  0  0  0  0  0  0  0  0  0  0  0
   -7.2470   17.6700  -33.8710 O   0  0  0  0  0  0  0  0  0  0  0  0
   -7.6410   20.1000  -31.2310 C   0  0  0  0  0  0  0  0  0  0  0  0
   -8.8360   20.4660  -32.1140 C   0  0  0  0  0  0  0  0  0  0  0  0
   -8.8710   19.6690  -33.2680 O   0  0  0  0  0  0  0  0  0  0  0  0
   -3.6640   21.2930  -31.8040 C   0  0  0  0  0  0  0  0  0  0  0  0
   -2.6440   21.9400  -31.1010 C   0  0  0  0  0  0  0  0  0  0  0  0
   -2.7200   23.0770  -30.3760 N   0  0  0  0  0  0  0  0  0  0  0  0
   -3.8880   23.8900  -30.2020 C   0  0  0  0  0  0  0  0  0  0  0  0
   -3.9960   24.9760  -30.8340 O   0  0  0  0  0  0  0  0  0  0  0  0
   -4.8860   23.4870  -29.3080 O   0  0  0  0  0  0  0  0  0  0  0  0
   -6.2790   23.5080  -29.6210 C   0  0  0  0  0  0  0  0  0  0  0  0
   -6.5630   22.8430  -30.9760 C   0  0  0  0  0  0  0  0  0  0  0  0
   -6.4700   23.8170  -32.1530 C   0  0  0  0  0  0  0  0  0  0  0  0
   -5.3830   23.5090  -32.9490 F   0  0  0  0  0  0  0  0  0  0  0  0
   -7.6230   23.7690  -32.9150 F   0  0  0  0  0  0  0  0  0  0  0  0
   -6.3160   25.1020  -31.6680 F   0  0  0  0  0  0  0  0  0  0  0  0
   -2.7920   25.6690  -29.3200 H   0  0  0  0  0  0  0  0  0  0  0  0
    0.5027   22.2704  -30.2067 H   0  0  0  0  0  0  0  0  0  0  0  0
    0.0316   19.9451  -31.8119 H   0  0  0  0  0  0  0  0  0  0  0  0
   -1.7710   18.7045  -33.0558 H   0  0  0  0  0  0  0  0  0  0  0  0
   -4.2496   19.5014  -34.3547 H   0  0  0  0  0  0  0  0  0  0  0  0
   -4.3859   18.3236  -32.9850 H   0  0  0  0  0  0  0  0  0  0  0  0
   -5.4670   17.6958  -31.2528 H   0  0  0  0  0  0  0  0  0  0  0  0
   -7.2208   17.6364  -30.7925 H   0  0  0  0  0  0  0  0  0  0  0  0
   -5.8697   16.3982  -33.0510 H   0  0  0  0  0  0  0  0  0  0  0  0
   -7.5675   16.2098  -32.4783 H   0  0  0  0  0  0  0  0  0  0  0  0
   -8.0200   18.2020  -33.5440 H   0  0  0  0  0  0  0  0  0  0  0  0
   -8.0013   19.5329  -30.3600 H   0  0  0  0  0  0  0  0  0  0  0  0
   -7.1475   21.0316  -30.9169 H   0  0  0  0  0  0  0  0  0  0  0  0
   -9.7644   20.3144  -31.5438 H   0  0  0  0  0  0  0  0  0  0  0  0
   -8.7379   21.5186  -32.4178 H   0  0  0  0  0  0  0  0  0  0  0  0
   -7.9740   19.7310  -33.6860 H   0  0  0  0  0  0  0  0  0  0  0  0
   -4.6905   21.6884  -31.7984 H   0  0  0  0  0  0  0  0  0  0  0  0
   -6.8296   22.9688  -28.8361 H   0  0  0  0  0  0  0  0  0  0  0  0
   -6.6036   24.5575  -29.6775 H   0  0  0  0  0  0  0  0  0  0  0  0
   -5.8314   22.0362  -31.1304 H   0  0  0  0  0  0  0  0  0  0  0  0
   -7.5947   22.4625  -30.9453 H   0  0  0  0  0  0  0  0  0  0  0  0
  1  2  1  0
  2  3  2  0
  2  4  1  0
  4  5  2  0
  5  6  1  0
  6  7  2  0
  7  8  1  0
  8  9  2  0
  9 10  1  0
 10 11  1  0
 11 12  2  0
 11 13  1  0
 13 14  1  0
 14 15  1  0
 15 16  1  0
 13 17  1  0
 17 18  1  0
 18 19  1  0
  9 20  1  0
 20 21  2  0
 21 22  1  0
 22 23  1  0
 23 24  2  0
 23 25  1  0
 25 26  1  0
 26 27  1  0
 27 28  1  0
 28 29  1  0
 28 30  1  0
 28 31  1  0
 22  4  1  0
 21  6  1  0
  1 32  1  0
  5 33  1  0
  7 34  1  0
  8 35  1  0
 10 36  1  0
 10 37  1  0
 14 38  1  0
 14 39  1  0
 15 40  1  0
 15 41  1  0
 16 42  1  0
 17 43  1  0
 17 44  1  0
 18 45  1  0
 18 46  1  0
 19 47  1  0
 20 48  1  0
 26 49  1  0
 26 50  1  0
 27 51  1  0
 27 52  1  0
M  CHG  1   1  -1
M  END
>  <UniqueID>  (71) 
71

>  <SMILES>  (71) 
[NH-]C(=O)c1cc2ccc(CC(=O)N(CCO)CCO)cc2n1C(=O)OCCC(F)(F)F

>  <Energy>  (71) 
81.3769270887767

>  <Genealogy>  (71) 
[NH-]C(=O)c1cc2ccc(CC(=O)N(CCO)CCO)cc2n1C(=O)OCCC(F)(F)F (protonated)
[NH-]C(=O)c1cc2ccc(CC(=O)N(CCO)CCO)cc2n1C(=O)OCCC(F)(F)F (3D coordinates assigned)
[NH-]C(=O)c1cc2ccc(CC(=O)N(CCO)CCO)cc2n1C(=O)OCCC(F)(F)F (optimized conformer: 81.3769270887767 kcal/mol)

>  <smiles>  (71) 
NC(=O)c1cc2ccc(CC(=O)N(CCO)CCO)cc2n1C(=O)OCCC(F)(F)F

>  <score_type>  (71) 
oracle

>  <origin>  (71) 
adg

>  <m_score__min__energy>  (71) 
-8.9900000000000002

>  <m_primary>  (71) 
energy

$$$$
71:0
     RDKit          3D

 41 42  0  0  0  0  0  0  0  0999 V2000
   -5.3160   17.7860  -34.9650 C   0  0  0  0  0  0  0  0  0  0  0  0
   -5.9050   16.6440  -34.2470 N   0  0  0  0  0  0  0  0  0  0  0  0
   -4.8310   15.8450  -33.6300 C   0  0  0  0  0  0  0  0  0  0  0  0
   -6.8670   17.1220  -33.2280 C   0  0  0  0  0  0  0  0  0  0  0  0
   -6.1750   17.3440  -31.8820 C   0  0  0  0  0  0  0  0  0  0  0  0
   -6.4970   18.6410  -31.3900 O   0  0  0  0  0  0  0  0  0  0  0  0
   -6.9110   19.6890  -32.2170 C   0  0  0  0  0  0  0  0  0  0  0  0
   -8.1180   20.0540  -32.2360 O   0  0  0  0  0  0  0  0  0  0  0  0
   -5.9190   20.3510  -33.1220 C   0  0  0  0  0  0  0  0  0  0  0  0
   -4.6860   20.7390  -32.3540 C   0  0  0  0  0  0  0  0  0  0  0  0
   -3.5580   19.8820  -32.3340 C   0  0  0  0  0  0  0  0  0  0  0  0
   -2.3860   20.2570  -31.6570 C   0  0  0  0  0  0  0  0  0  0  0  0
   -2.3650   21.4990  -31.0290 C   0  0  0  0  0  0  0  0  0  0  0  0
   -1.3670   22.1030  -30.2980 C   0  0  0  0  0  0  0  0  0  0  0  0
   -1.8850   23.3370  -29.9150 C   0  0  0  0  0  0  0  0  0  0  0  0
   -1.1020   24.3530  -29.1810 C   0  0  0  0  0  0  0  0  0  0  0  0
   -1.6190   25.6640  -28.9650 N   0  0  0  0  0  0  0  0  0  0  0  0
    0.0600   24.0750  -28.7820 O   0  0  0  0  0  0  0  0  0  0  0  0
   -3.1580   23.4880  -30.3820 N   0  0  0  0  0  0  0  0  0  0  0  0
   -4.0650   24.5760  -30.1390 C   0  0  0  0  0  0  0  0  0  0  0  0
   -3.9210   25.6720  -30.7430 O   0  0  0  0  0  0  0  0  0  0  0  0
   -5.0940   24.4380  -29.2180 O   0  0  0  0  0  0  0  0  0  0  0  0
   -3.4350   22.3540  -31.0630 C   0  0  0  0  0  0  0  0  0  0  0  0
   -4.6240   21.9950  -31.7100 C   0  0  0  0  0  0  0  0  0  0  0  0
   -4.9374   18.5201  -34.2385 H   0  0  0  0  0  0  0  0  0  0  0  0
   -4.4870   17.4340  -35.5965 H   0  0  0  0  0  0  0  0  0  0  0  0
   -6.0835   18.2574  -35.5965 H   0  0  0  0  0  0  0  0  0  0  0  0
   -4.9121   15.9054  -32.5347 H   0  0  0  0  0  0  0  0  0  0  0  0
   -4.9258   14.7961  -33.9474 H   0  0  0  0  0  0  0  0  0  0  0  0
   -3.8536   16.2373  -33.9474 H   0  0  0  0  0  0  0  0  0  0  0  0
   -7.3077   18.0712  -33.5667 H   0  0  0  0  0  0  0  0  0  0  0  0
   -7.6484   16.3587  -33.0985 H   0  0  0  0  0  0  0  0  0  0  0  0
   -6.5175   16.5842  -31.1641 H   0  0  0  0  0  0  0  0  0  0  0  0
   -5.0858   17.2616  -32.0121 H   0  0  0  0  0  0  0  0  0  0  0  0
   -5.6407   19.6541  -33.9263 H   0  0  0  0  0  0  0  0  0  0  0  0
   -6.3740   21.2574  -33.5478 H   0  0  0  0  0  0  0  0  0  0  0  0
   -3.6005   18.9135  -32.8538 H   0  0  0  0  0  0  0  0  0  0  0  0
   -1.5119   19.5900  -31.6241 H   0  0  0  0  0  0  0  0  0  0  0  0
   -0.3715   21.6967  -30.0658 H   0  0  0  0  0  0  0  0  0  0  0  0
   -2.6470   25.8460  -28.9730 H   0  0  0  0  0  0  0  0  0  0  0  0
   -5.4889   22.6746  -31.7166 H   0  0  0  0  0  0  0  0  0  0  0  0
  1  2  1  0
  2  3  1  0
  2  4  1  0
  4  5  1  0
  5  6  1  0
  6  7  1  0
  7  8  2  0
  7  9  1  0
  9 10  1  0
 10 11  2  0
 11 12  1  0
 12 13  2  0
 13 14  1  0
 14 15  2  0
 15 16  1  0
 16 17  1  0
 16 18  2  0
 15 19  1  0
 19 20  1  0
 20 21  2  0
 20 22  1  0
 19 23  1  0
 23 24  2  0
 24 10  1  0
 23 13  1  0
  1 25  1  0
  1 26  1  0
  1 27  1  0
  3 28  1  0
  3 29  1  0
  3 30  1  0
  4 31  1  0
  4 32  1  0
  5 33  1  0
  5 34  1  0
  9 35  1  0
  9 36  1  0
 11 37  1  0
 12 38  1  0
 14 39  1  0
 17 40  1  0
 24 41  1  0
M  CHG  2  17  -1  22  -1
M  END
>  <UniqueID>  (72) 
72

>  <SMILES>  (72) 
CN(C)CCOC(=O)Cc1ccc2cc(C([NH-])=O)n(C(=O)[O-])c2c1

>  <Energy>  (72) 
74.67481862221243

>  <Genealogy>  (72) 
CN(C)CCOC(=O)Cc1ccc2cc(C([NH-])=O)n(C(=O)[O-])c2c1 (protonated)
CN(C)CCOC(=O)Cc1ccc2cc(C([NH-])=O)n(C(=O)[O-])c2c1 (3D coordinates assigned)
CN(C)CCOC(=O)Cc1ccc2cc(C([NH-])=O)n(C(=O)[O-])c2c1 (optimized conformer: 74.67481862221243 kcal/mol)

>  <smiles>  (72) 
CN(C)CCOC(=O)Cc1ccc2cc(C(N)=O)n(C(=O)O)c2c1

>  <score_type>  (72) 
oracle

>  <origin>  (72) 
adg

>  <m_score__min__energy>  (72) 
-10.82

>  <m_primary>  (72) 
energy

$$$$
72:0
     RDKit          3D

 47 48  0  0  0  0  0  0  0  0999 V2000
   -4.9760   17.7590  -34.9020 C   0  0  0  0  0  0  0  0  0  0  0  0
   -6.1550   17.0320  -34.6340 O   0  0  0  0  0  0  0  0  0  0  0  0
   -6.1440   16.5400  -33.3080 C   0  0  0  0  0  0  0  0  0  0  0  0
   -6.8680   17.5130  -32.3750 C   0  0  0  0  0  0  0  0  0  0  0  0
   -7.3230   18.7000  -33.1020 N   0  0  0  0  0  0  0  0  0  0  0  0
   -7.4230   20.0050  -32.5000 C   0  0  0  0  0  0  0  0  0  0  0  0
   -8.6820   20.5830  -32.1830 C   0  0  0  0  0  0  0  0  0  0  0  0
   -8.7590   21.8630  -31.6080 C   0  0  0  0  0  0  0  0  0  0  0  0
   -7.5700   22.5380  -31.3530 C   0  0  0  0  0  0  0  0  0  0  0  0
   -7.3580   23.7940  -30.8320 C   0  0  0  0  0  0  0  0  0  0  0  0
   -5.9750   23.9570  -30.8140 C   0  0  0  0  0  0  0  0  0  0  0  0
   -5.3030   25.1450  -30.2450 C   0  0  0  0  0  0  0  0  0  0  0  0
   -4.1210   25.6720  -30.8410 N   0  0  0  0  0  0  0  0  0  0  0  0
   -5.7520   25.6720  -29.1930 O   0  0  0  0  0  0  0  0  0  0  0  0
   -5.3560   22.8500  -31.3120 N   0  0  0  0  0  0  0  0  0  0  0  0
   -3.9550   22.6590  -31.5550 C   0  0  0  0  0  0  0  0  0  0  0  0
   -3.5790   21.9430  -32.5200 O   0  0  0  0  0  0  0  0  0  0  0  0
   -2.9940   23.3160  -30.7150 N   0  0  0  0  0  0  0  0  0  0  0  0
   -2.5140   22.8650  -29.4030 C   0  0  0  0  0  0  0  0  0  0  0  0
   -1.5510   21.6750  -29.5720 C   0  0  0  0  0  0  0  0  0  0  0  0
   -3.7370   22.4000  -28.5940 C   0  0  0  0  0  0  0  0  0  0  0  0
   -1.8100   24.0220  -28.6570 C   0  0  0  0  0  0  0  0  0  0  0  0
   -2.3740   25.2530  -29.0180 O   0  0  0  0  0  0  0  0  0  0  0  0
   -6.3470   21.9890  -31.6350 C   0  0  0  0  0  0  0  0  0  0  0  0
   -6.2400   20.7250  -32.2250 C   0  0  0  0  0  0  0  0  0  0  0  0
   -4.5019   18.0513  -33.9534 H   0  0  0  0  0  0  0  0  0  0  0  0
   -4.2820   17.1318  -35.4808 H   0  0  0  0  0  0  0  0  0  0  0  0
   -5.2248   18.6607  -35.4808 H   0  0  0  0  0  0  0  0  0  0  0  0
   -6.6507   15.5641  -33.2787 H   0  0  0  0  0  0  0  0  0  0  0  0
   -5.1013   16.4331  -32.9745 H   0  0  0  0  0  0  0  0  0  0  0  0
   -7.7388   17.0065  -31.9332 H   0  0  0  0  0  0  0  0  0  0  0  0
   -6.1667   17.8315  -31.5897 H   0  0  0  0  0  0  0  0  0  0  0  0
   -7.5920   18.6010  -34.1080 H   0  0  0  0  0  0  0  0  0  0  0  0
   -9.6057   20.0227  -32.3898 H   0  0  0  0  0  0  0  0  0  0  0  0
   -9.7311   22.3177  -31.3667 H   0  0  0  0  0  0  0  0  0  0  0  0
   -8.1190   24.5157  -30.5003 H   0  0  0  0  0  0  0  0  0  0  0  0
   -3.1800   25.2970  -30.5890 H   0  0  0  0  0  0  0  0  0  0  0  0
   -1.2501   21.3032  -28.5814 H   0  0  0  0  0  0  0  0  0  0  0  0
   -2.0557   20.8709  -30.1276 H   0  0  0  0  0  0  0  0  0  0  0  0
   -0.6594   22.0009  -30.1276 H   0  0  0  0  0  0  0  0  0  0  0  0
   -3.5187   22.4830  -27.5191 H   0  0  0  0  0  0  0  0  0  0  0  0
   -4.6026   23.0318  -28.8422 H   0  0  0  0  0  0  0  0  0  0  0  0
   -3.9642   21.3527  -28.8422 H   0  0  0  0  0  0  0  0  0  0  0  0
   -1.9234   23.8758  -27.5727 H   0  0  0  0  0  0  0  0  0  0  0  0
   -0.7443   24.0250  -28.9295 H   0  0  0  0  0  0  0  0  0  0  0  0
   -3.3070   25.0600  -29.2950 H   0  0  0  0  0  0  0  0  0  0  0  0
   -5.2549   20.3010  -32.4695 H   0  0  0  0  0  0  0  0  0  0  0  0
  1  2  1  0
  2  3  1  0
  3  4  1  0
  4  5  1  0
  5  6  1  0
  6  7  2  0
  7  8  1  0
  8  9  2  0
  9 10  1  0
 10 11  2  0
 11 12  1  0
 12 13  1  0
 12 14  2  0
 11 15  1  0
 15 16  1  0
 16 17  2  0
 16 18  1  0
 18 19  1  0
 19 20  1  0
 19 21  1  0
 19 22  1  0
 22 23  1  0
 15 24  1  0
 24 25  2  0
 25  6  1  0
 24  9  1  0
  1 26  1  0
  1 27  1  0
  1 28  1  0
  3 29  1  0
  3 30  1  0
  4 31  1  0
  4 32  1  0
  5 33  1  0
  7 34  1  0
  8 35  1  0
 10 36  1  0
 13 37  1  0
 20 38  1  0
 20 39  1  0
 20 40  1  0
 21 41  1  0
 21 42  1  0
 21 43  1  0
 22 44  1  0
 22 45  1  0
 23 46  1  0
 25 47  1  0
M  CHG  2  13  -1  18  -1
M  END
>  <UniqueID>  (73) 
73

>  <SMILES>  (73) 
COCCNc1ccc2cc(C([NH-])=O)n(C(=O)[N-]C(C)(C)CO)c2c1

>  <Energy>  (73) 
80.27055778195538

>  <Genealogy>  (73) 
COCCNc1ccc2cc(C([NH-])=O)n(C(=O)[N-]C(C)(C)CO)c2c1 (protonated)
COCCNc1ccc2cc(C([NH-])=O)n(C(=O)[N-]C(C)(C)CO)c2c1 (3D coordinates assigned)
COCCNc1ccc2cc(C([NH-])=O)n(C(=O)[N-]C(C)(C)CO)c2c1 (optimized conformer: 80.27055778195538 kcal/mol)

>  <smiles>  (73) 
COCCNc1ccc2cc(C(N)=O)n(C(=O)NC(C)(C)CO)c2c1

>  <score_type>  (73) 
oracle

>  <origin>  (73) 
adg

>  <m_score__min__energy>  (73) 
-11.109999999999999

>  <m_primary>  (73) 
energy

$$$$
73:0
     RDKit          3D

 58 60  0  0  0  0  0  0  0  0999 V2000
   -6.5210   17.4570  -31.2030 C   0  0  0  0  0  0  0  0  0  0  0  0
   -6.4420   16.9410  -32.6080 C   0  0  0  0  0  0  0  0  0  0  0  0
   -7.4870   16.4780  -33.1400 O   0  0  0  0  0  0  0  0  0  0  0  0
   -5.1840   17.0300  -33.3950 C   0  0  0  0  0  0  0  0  0  0  0  0
   -4.6360   15.8540  -33.9430 C   0  0  0  0  0  0  0  0  0  0  0  0
   -3.4170   15.8840  -34.6210 C   0  0  0  0  0  0  0  0  0  0  0  0
   -2.7230   17.0830  -34.7630 C   0  0  0  0  0  0  0  0  0  0  0  0
   -3.2530   18.2630  -34.2390 C   0  0  0  0  0  0  0  0  0  0  0  0
   -4.4870   18.2580  -33.5650 C   0  0  0  0  0  0  0  0  0  0  0  0
   -5.0390   19.5530  -33.1040 C   0  0  0  0  0  0  0  0  0  0  0  0
   -6.3380   19.9590  -33.5010 C   0  0  0  0  0  0  0  0  0  0  0  0
   -6.8670   21.1870  -33.0720 C   0  0  0  0  0  0  0  0  0  0  0  0
   -6.0720   21.9940  -32.2640 C   0  0  0  0  0  0  0  0  0  0  0  0
   -6.3410   23.2170  -31.6950 C   0  0  0  0  0  0  0  0  0  0  0  0
   -5.1890   23.5570  -30.9870 C   0  0  0  0  0  0  0  0  0  0  0  0
   -5.0140   24.8490  -30.2910 C   0  0  0  0  0  0  0  0  0  0  0  0
   -3.8780   25.6620  -30.5790 N   0  0  0  0  0  0  0  0  0  0  0  0
   -5.8380   25.2300  -29.4180 O   0  0  0  0  0  0  0  0  0  0  0  0
   -4.2480   22.5780  -31.1070 N   0  0  0  0  0  0  0  0  0  0  0  0
   -2.9510   22.5190  -30.4930 C   0  0  0  0  0  0  0  0  0  0  0  0
   -2.0720   23.3710  -30.7970 O   0  0  0  0  0  0  0  0  0  0  0  0
   -2.6810   21.5340  -29.5370 O   0  0  0  0  0  0  0  0  0  0  0  0
   -1.7540   20.4700  -29.7460 C   0  0  0  0  0  0  0  0  0  0  0  0
   -0.5770   20.5880  -28.7840 C   0  0  0  0  0  0  0  0  0  0  0  0
   -0.4400   21.9410  -28.3640 O   0  0  0  0  0  0  0  0  0  0  0  0
   -1.0930   22.4520  -27.2350 C   0  0  0  0  0  0  0  0  0  0  0  0
   -1.2090   21.7400  -26.1990 O   0  0  0  0  0  0  0  0  0  0  0  0
   -1.5760   23.8900  -27.2330 C   0  0  0  0  0  0  0  0  0  0  0  0
   -1.2320   24.5750  -25.8940 C   0  0  0  0  0  0  0  0  0  0  0  0
   -3.1060   23.9300  -27.4320 C   0  0  0  0  0  0  0  0  0  0  0  0
   -0.8900   24.6420  -28.3860 C   0  0  0  0  0  0  0  0  0  0  0  0
   -4.8020   21.6300  -31.8940 C   0  0  0  0  0  0  0  0  0  0  0  0
   -4.2560   20.4040  -32.2910 C   0  0  0  0  0  0  0  0  0  0  0  0
   -6.3932   16.6223  -30.4981 H   0  0  0  0  0  0  0  0  0  0  0  0
   -5.7261   18.1996  -31.0399 H   0  0  0  0  0  0  0  0  0  0  0  0
   -7.5017   17.9278  -31.0399 H   0  0  0  0  0  0  0  0  0  0  0  0
   -5.1751   14.9012  -33.8353 H   0  0  0  0  0  0  0  0  0  0  0  0
   -3.0026   14.9574  -35.0449 H   0  0  0  0  0  0  0  0  0  0  0  0
   -1.7567   17.1000  -35.2884 H   0  0  0  0  0  0  0  0  0  0  0  0
   -2.6996   19.2066  -34.3545 H   0  0  0  0  0  0  0  0  0  0  0  0
   -6.9376   19.3055  -34.1517 H   0  0  0  0  0  0  0  0  0  0  0  0
   -7.8793   21.5015  -33.3658 H   0  0  0  0  0  0  0  0  0  0  0  0
   -7.2683   23.8026  -31.7804 H   0  0  0  0  0  0  0  0  0  0  0  0
   -2.9100   25.2870  -30.4760 H   0  0  0  0  0  0  0  0  0  0  0  0
   -2.2627   19.5091  -29.5789 H   0  0  0  0  0  0  0  0  0  0  0  0
   -1.3763   20.5258  -30.7776 H   0  0  0  0  0  0  0  0  0  0  0  0
   -0.7549   19.9483  -27.9070 H   0  0  0  0  0  0  0  0  0  0  0  0
    0.3445   20.2671  -29.2917 H   0  0  0  0  0  0  0  0  0  0  0  0
   -1.5542   23.9335  -25.0605 H   0  0  0  0  0  0  0  0  0  0  0  0
   -0.1457   24.7369  -25.8334 H   0  0  0  0  0  0  0  0  0  0  0  0
   -1.7509   25.5430  -25.8334 H   0  0  0  0  0  0  0  0  0  0  0  0
   -3.6031   23.9430  -26.4508 H   0  0  0  0  0  0  0  0  0  0  0  0
   -3.3792   24.8356  -27.9935 H   0  0  0  0  0  0  0  0  0  0  0  0
   -3.4261   23.0399  -27.9935 H   0  0  0  0  0  0  0  0  0  0  0  0
   -0.2025   25.3957  -27.9745 H   0  0  0  0  0  0  0  0  0  0  0  0
   -0.3249   23.9288  -29.0041 H   0  0  0  0  0  0  0  0  0  0  0  0
   -1.6520   25.1394  -29.0041 H   0  0  0  0  0  0  0  0  0  0  0  0
   -3.2432   20.1101  -31.9783 H   0  0  0  0  0  0  0  0  0  0  0  0
  1  2  1  0
  2  3  2  0
  2  4  1  0
  4  5  2  0
  5  6  1  0
  6  7  2  0
  7  8  1  0
  8  9  2  0
  9 10  1  0
 10 11  2  0
 11 12  1  0
 12 13  2  0
 13 14  1  0
 14 15  2  0
 15 16  1  0
 16 17  1  0
 16 18  2  0
 15 19  1  0
 19 20  1  0
 20 21  2  0
 20 22  1  0
 22 23  1  0
 23 24  1  0
 24 25  1  0
 25 26  1  0
 26 27  2  0
 26 28  1  0
 28 29  1  0
 28 30  1  0
 28 31  1  0
 19 32  1  0
 32 33  2  0
  9  4  1  0
 33 10  1  0
 32 13  1  0
  1 34  1  0
  1 35  1  0
  1 36  1  0
  5 37  1  0
  6 38  1  0
  7 39  1  0
  8 40  1  0
 11 41  1  0
 12 42  1  0
 14 43  1  0
 17 44  1  0
 23 45  1  0
 23 46  1  0
 24 47  1  0
 24 48  1  0
 29 49  1  0
 29 50  1  0
 29 51  1  0
 30 52  1  0
 30 53  1  0
 30 54  1  0
 31 55  1  0
 31 56  1  0
 31 57  1  0
 33 58  1  0
M  CHG  1  17  -1
M  END
>  <UniqueID>  (74) 
74

>  <SMILES>  (74) 
CC(=O)c1ccccc1-c1ccc2cc(C([NH-])=O)n(C(=O)OCCOC(=O)C(C)(C)C)c2c1

>  <Energy>  (74) 
98.72931603366759

>  <Genealogy>  (74) 
CC(=O)c1ccccc1-c1ccc2cc(C([NH-])=O)n(C(=O)OCCOC(=O)C(C)(C)C)c2c1 (protonated)
CC(=O)c1ccccc1-c1ccc2cc(C([NH-])=O)n(C(=O)OCCOC(=O)C(C)(C)C)c2c1 (3D coordinates assigned)
CC(=O)c1ccccc1-c1ccc2cc(C([NH-])=O)n(C(=O)OCCOC(=O)C(C)(C)C)c2c1 (optimized conformer: 98.72931603366759 kcal/mol)

>  <smiles>  (74) 
CC(=O)c1ccccc1-c1ccc2cc(C(N)=O)n(C(=O)OCCOC(=O)C(C)(C)C)c2c1

>  <score_type>  (74) 
oracle

>  <origin>  (74) 
adg

>  <m_score__min__energy>  (74) 
-12.32

>  <m_primary>  (74) 
energy

$$$$
74:0
     RDKit          3D

 34 35  0  0  0  0  0  0  0  0999 V2000
   -3.8660   25.6570  -30.8400 N   0  0  0  0  0  0  0  0  0  0  0  0
   -5.2240   25.3080  -30.5870 C   0  0  0  0  0  0  0  0  0  0  0  0
   -6.0060   26.1750  -30.1130 O   0  0  0  0  0  0  0  0  0  0  0  0
   -5.7390   23.9630  -30.9220 C   0  0  0  0  0  0  0  0  0  0  0  0
   -7.0730   23.7110  -31.2360 C   0  0  0  0  0  0  0  0  0  0  0  0
   -7.1220   22.3780  -31.5750 C   0  0  0  0  0  0  0  0  0  0  0  0
   -8.2040   21.5910  -31.9550 C   0  0  0  0  0  0  0  0  0  0  0  0
   -7.9700   20.2300  -32.2140 C   0  0  0  0  0  0  0  0  0  0  0  0
   -6.6680   19.6850  -32.0900 C   0  0  0  0  0  0  0  0  0  0  0  0
   -6.4390   18.2180  -32.3240 C   0  0  0  0  0  0  0  0  0  0  0  0
   -6.2330   17.9560  -33.7810 C   0  0  0  0  0  0  0  0  0  0  0  0
   -6.4800   16.8190  -34.2620 O   0  0  0  0  0  0  0  0  0  0  0  0
   -5.7210   18.9540  -34.6010 O   0  0  0  0  0  0  0  0  0  0  0  0
   -5.5960   20.5130  -31.6880 C   0  0  0  0  0  0  0  0  0  0  0  0
   -5.8550   21.8680  -31.4550 C   0  0  0  0  0  0  0  0  0  0  0  0
   -4.9940   22.8290  -31.0510 N   0  0  0  0  0  0  0  0  0  0  0  0
   -3.6040   22.6470  -30.7440 C   0  0  0  0  0  0  0  0  0  0  0  0
   -2.7370   22.7950  -31.6490 O   0  0  0  0  0  0  0  0  0  0  0  0
   -3.2180   22.3400  -29.4340 O   0  0  0  0  0  0  0  0  0  0  0  0
   -3.4440   23.2010  -28.3190 C   0  0  0  0  0  0  0  0  0  0  0  0
   -2.2710   24.1610  -28.1280 C   0  0  0  0  0  0  0  0  0  0  0  0
   -1.9490   24.7830  -29.3400 O   0  0  0  0  0  0  0  0  0  0  0  0
   -3.1400   24.9200  -30.9910 H   0  0  0  0  0  0  0  0  0  0  0  0
   -7.9091   24.4255  -31.2170 H   0  0  0  0  0  0  0  0  0  0  0  0
   -9.2121   22.0209  -32.0499 H   0  0  0  0  0  0  0  0  0  0  0  0
   -8.8056   19.5814  -32.5159 H   0  0  0  0  0  0  0  0  0  0  0  0
   -5.5471   17.8956  -31.7668 H   0  0  0  0  0  0  0  0  0  0  0  0
   -7.3196   17.6567  -31.9784 H   0  0  0  0  0  0  0  0  0  0  0  0
   -4.5833   20.1026  -31.5614 H   0  0  0  0  0  0  0  0  0  0  0  0
   -4.3614   23.7826  -28.4927 H   0  0  0  0  0  0  0  0  0  0  0  0
   -3.5466   22.5852  -27.4133 H   0  0  0  0  0  0  0  0  0  0  0  0
   -2.5464   24.9276  -27.3888 H   0  0  0  0  0  0  0  0  0  0  0  0
   -1.3979   23.5928  -27.7748 H   0  0  0  0  0  0  0  0  0  0  0  0
   -2.4160   24.2660  -30.0470 H   0  0  0  0  0  0  0  0  0  0  0  0
  1  2  1  0
  2  3  2  0
  2  4  1  0
  4  5  2  0
  5  6  1  0
  6  7  2  0
  7  8  1  0
  8  9  2  0
  9 10  1  0
 10 11  1  0
 11 12  2  0
 11 13  1  0
  9 14  1  0
 14 15  2  0
 15 16  1  0
 16 17  1  0
 17 18  2  0
 17 19  1  0
 19 20  1  0
 20 21  1  0
 21 22  1  0
 16  4  1  0
 15  6  1  0
  1 23  1  0
  5 24  1  0
  7 25  1  0
  8 26  1  0
 10 27  1  0
 10 28  1  0
 14 29  1  0
 20 30  1  0
 20 31  1  0
 21 32  1  0
 21 33  1  0
 22 34  1  0
M  CHG  2   1  -1  13  -1
M  END
>  <UniqueID>  (75) 
75

>  <SMILES>  (75) 
[NH-]C(=O)c1cc2ccc(CC(=O)[O-])cc2n1C(=O)OCCO

>  <Energy>  (75) 
68.28058048972552

>  <Genealogy>  (75) 
[NH-]C(=O)c1cc2ccc(CC(=O)[O-])cc2n1C(=O)OCCO (protonated)
[NH-]C(=O)c1cc2ccc(CC(=O)[O-])cc2n1C(=O)OCCO (3D coordinates assigned)
[NH-]C(=O)c1cc2ccc(CC(=O)[O-])cc2n1C(=O)OCCO (optimized conformer: 68.28058048972552 kcal/mol)

>  <smiles>  (75) 
NC(=O)c1cc2ccc(CC(=O)O)cc2n1C(=O)OCCO

>  <score_type>  (75) 
oracle

>  <origin>  (75) 
adg

>  <m_score__min__energy>  (75) 
-10.220000000000001

>  <m_primary>  (75) 
energy

$$$$
75:0
     RDKit          3D

 58 60  0  0  0  0  0  0  0  0999 V2000
   -5.3570   16.4460  -31.9620 C   0  0  0  0  0  0  0  0  0  0  0  0
   -5.8970   17.3750  -33.0790 C   0  0  0  0  0  0  0  0  0  0  0  0
   -7.2030   16.7390  -33.6200 C   0  0  0  0  0  0  0  0  0  0  0  0
   -4.8390   17.4630  -34.2110 C   0  0  0  0  0  0  0  0  0  0  0  0
   -5.3480   18.1270  -35.3400 O   0  0  0  0  0  0  0  0  0  0  0  0
   -6.1940   18.8020  -32.5700 C   0  0  0  0  0  0  0  0  0  0  0  0
   -7.5490   19.2000  -32.3560 C   0  0  0  0  0  0  0  0  0  0  0  0
   -7.8710   20.4750  -31.8630 C   0  0  0  0  0  0  0  0  0  0  0  0
   -6.8320   21.3620  -31.6230 C   0  0  0  0  0  0  0  0  0  0  0  0
   -6.8570   22.6310  -31.0890 C   0  0  0  0  0  0  0  0  0  0  0  0
   -5.5260   23.0330  -31.0390 C   0  0  0  0  0  0  0  0  0  0  0  0
   -5.0810   24.3050  -30.4280 C   0  0  0  0  0  0  0  0  0  0  0  0
   -5.1930   24.5420  -29.0260 N   0  0  0  0  0  0  0  0  0  0  0  0
   -4.5670   25.1920  -31.1600 O   0  0  0  0  0  0  0  0  0  0  0  0
   -4.7150   22.0600  -31.5350 N   0  0  0  0  0  0  0  0  0  0  0  0
   -3.2810   22.0430  -31.5360 C   0  0  0  0  0  0  0  0  0  0  0  0
   -2.6860   21.9830  -32.6450 O   0  0  0  0  0  0  0  0  0  0  0  0
   -2.5270   22.0290  -30.2970 N   0  0  0  0  0  0  0  0  0  0  0  0
   -1.2520   22.7700  -30.2020 C   0  0  0  0  0  0  0  0  0  0  0  0
   -1.0760   23.4760  -28.8550 C   0  0  0  0  0  0  0  0  0  0  0  0
   -1.4520   24.9240  -28.9340 C   0  0  0  0  0  0  0  0  0  0  0  0
   -0.6170   25.8150  -28.6300 O   0  0  0  0  0  0  0  0  0  0  0  0
   -2.7230   25.2890  -29.3630 O   0  0  0  0  0  0  0  0  0  0  0  0
   -3.2160   21.6580  -29.0440 C   0  0  0  0  0  0  0  0  0  0  0  0
   -2.5110   20.5390  -28.3100 C   0  0  0  0  0  0  0  0  0  0  0  0
   -1.3100   20.0060  -28.8130 C   0  0  0  0  0  0  0  0  0  0  0  0
   -0.6610   18.9640  -28.1440 C   0  0  0  0  0  0  0  0  0  0  0  0
   -1.2090   18.4340  -26.9750 C   0  0  0  0  0  0  0  0  0  0  0  0
   -2.4110   18.9420  -26.4740 C   0  0  0  0  0  0  0  0  0  0  0  0
   -3.0640   19.9850  -27.1410 C   0  0  0  0  0  0  0  0  0  0  0  0
   -5.5270   21.0330  -31.8660 C   0  0  0  0  0  0  0  0  0  0  0  0
   -5.1680   19.7610  -32.3250 C   0  0  0  0  0  0  0  0  0  0  0  0
   -5.6049   16.8724  -30.9788 H   0  0  0  0  0  0  0  0  0  0  0  0
   -5.8179   15.4518  -32.0572 H   0  0  0  0  0  0  0  0  0  0  0  0
   -4.2650   16.3545  -32.0572 H   0  0  0  0  0  0  0  0  0  0  0  0
   -7.8373   16.4301  -32.7761 H   0  0  0  0  0  0  0  0  0  0  0  0
   -7.7425   17.4753  -34.2339 H   0  0  0  0  0  0  0  0  0  0  0  0
   -6.9560   15.8603  -34.2339 H   0  0  0  0  0  0  0  0  0  0  0  0
   -3.9616   18.0121  -33.8385 H   0  0  0  0  0  0  0  0  0  0  0  0
   -4.5636   16.4399  -34.5068 H   0  0  0  0  0  0  0  0  0  0  0  0
   -4.8740   17.7540  -36.1320 H   0  0  0  0  0  0  0  0  0  0  0  0
   -8.3592   18.4913  -32.5826 H   0  0  0  0  0  0  0  0  0  0  0  0
   -8.9159   20.7616  -31.6729 H   0  0  0  0  0  0  0  0  0  0  0  0
   -7.7401   23.2041  -30.7702 H   0  0  0  0  0  0  0  0  0  0  0  0
   -5.3640   23.7620  -28.3580 H   0  0  0  0  0  0  0  0  0  0  0  0
   -4.9660   25.4850  -28.6360 H   0  0  0  0  0  0  0  0  0  0  0  0
   -0.4222   22.0609  -30.3384 H   0  0  0  0  0  0  0  0  0  0  0  0
   -1.2594   23.5440  -30.9835 H   0  0  0  0  0  0  0  0  0  0  0  0
   -1.7147   22.9823  -28.1078 H   0  0  0  0  0  0  0  0  0  0  0  0
   -0.0152   23.4126  -28.5711 H   0  0  0  0  0  0  0  0  0  0  0  0
   -3.2569   22.5403  -28.3883 H   0  0  0  0  0  0  0  0  0  0  0  0
   -4.2242   21.3050  -29.3065 H   0  0  0  0  0  0  0  0  0  0  0  0
   -0.8784   20.4122  -29.7397 H   0  0  0  0  0  0  0  0  0  0  0  0
    0.2831   18.5612  -28.5396 H   0  0  0  0  0  0  0  0  0  0  0  0
   -0.6951   17.6166  -26.4480 H   0  0  0  0  0  0  0  0  0  0  0  0
   -2.8442   18.5216  -25.5545 H   0  0  0  0  0  0  0  0  0  0  0  0
   -4.0153   20.3739  -26.7488 H   0  0  0  0  0  0  0  0  0  0  0  0
   -4.1116   19.5051  -32.4940 H   0  0  0  0  0  0  0  0  0  0  0  0
  1  2  1  0
  2  3  1  0
  2  4  1  0
  4  5  1  0
  2  6  1  0
  6  7  2  0
  7  8  1  0
  8  9  2  0
  9 10  1  0
 10 11  2  0
 11 12  1  0
 12 13  1  0
 12 14  2  0
 11 15  1  0
 15 16  1  0
 16 17  2  0
 16 18  1  0
 18 19  1  0
 19 20  1  0
 20 21  1  0
 21 22  2  0
 21 23  1  0
 18 24  1  0
 24 25  1  0
 25 26  2  0
 26 27  1  0
 27 28  2  0
 28 29  1  0
 29 30  2  0
 15 31  1  0
 31 32  2  0
 32  6  1  0
 31  9  1  0
 30 25  1  0
  1 33  1  0
  1 34  1  0
  1 35  1  0
  3 36  1  0
  3 37  1  0
  3 38  1  0
  4 39  1  0
  4 40  1  0
  5 41  1  0
  7 42  1  0
  8 43  1  0
 10 44  1  0
 13 45  1  0
 13 46  1  0
 19 47  1  0
 19 48  1  0
 20 49  1  0
 20 50  1  0
 24 51  1  0
 24 52  1  0
 26 53  1  0
 27 54  1  0
 28 55  1  0
 29 56  1  0
 30 57  1  0
 32 58  1  0
M  CHG  1  23  -1
M  END
>  <UniqueID>  (76) 
76

>  <SMILES>  (76) 
CC(C)(CO)c1ccc2cc(C(N)=O)n(C(=O)N(CCC(=O)[O-])Cc3ccccc3)c2c1

>  <Energy>  (76) 
101.94393158216627

>  <Genealogy>  (76) 
CC(C)(CO)c1ccc2cc(C(N)=O)n(C(=O)N(CCC(=O)[O-])Cc3ccccc3)c2c1 (protonated)
CC(C)(CO)c1ccc2cc(C(N)=O)n(C(=O)N(CCC(=O)[O-])Cc3ccccc3)c2c1 (3D coordinates assigned)
CC(C)(CO)c1ccc2cc(C(N)=O)n(C(=O)N(CCC(=O)[O-])Cc3ccccc3)c2c1 (optimized conformer: 101.94393158216627 kcal/mol)

>  <smiles>  (76) 
CC(C)(CO)c1ccc2cc(C(N)=O)n(C(=O)N(CCC(=O)O)Cc3ccccc3)c2c1

>  <score_type>  (76) 
oracle

>  <origin>  (76) 
adg

>  <m_score__min__energy>  (76) 
-12.220000000000001

>  <m_primary>  (76) 
energy

$$$$
76:0
     RDKit          3D

 25 26  0  0  0  0  0  0  0  0999 V2000
   -3.8800   25.6650  -30.8400 N   0  0  0  0  0  0  0  0  0  0  0  0
   -5.1800   25.2340  -30.4500 C   0  0  0  0  0  0  0  0  0  0  0  0
   -5.8930   25.9910  -29.7380 O   0  0  0  0  0  0  0  0  0  0  0  0
   -5.7260   23.9430  -30.9160 C   0  0  0  0  0  0  0  0  0  0  0  0
   -7.0900   23.6820  -31.0210 C   0  0  0  0  0  0  0  0  0  0  0  0
   -7.1820   22.4240  -31.5690 C   0  0  0  0  0  0  0  0  0  0  0  0
   -8.3050   21.6620  -31.8810 C   0  0  0  0  0  0  0  0  0  0  0  0
   -8.1020   20.3770  -32.4120 C   0  0  0  0  0  0  0  0  0  0  0  0
   -6.7930   19.8830  -32.6100 C   0  0  0  0  0  0  0  0  0  0  0  0
   -6.5990   18.5600  -33.1420 C   0  0  0  0  0  0  0  0  0  0  0  0
   -6.4370   17.4520  -33.5870 C   0  0  0  0  0  0  0  0  0  0  0  0
   -6.2430   16.1320  -34.1160 C   0  0  0  0  0  0  0  0  0  0  0  0
   -7.2210   15.3490  -34.2290 O   0  0  0  0  0  0  0  0  0  0  0  0
   -4.9760   15.7190  -34.5050 O   0  0  0  0  0  0  0  0  0  0  0  0
   -5.6760   20.6780  -32.2840 C   0  0  0  0  0  0  0  0  0  0  0  0
   -5.9050   21.9620  -31.7740 C   0  0  0  0  0  0  0  0  0  0  0  0
   -4.9990   22.8820  -31.3750 N   0  0  0  0  0  0  0  0  0  0  0  0
   -3.5720   22.7180  -31.3610 C   0  0  0  0  0  0  0  0  0  0  0  0
   -2.9780   22.2270  -32.3570 O   0  0  0  0  0  0  0  0  0  0  0  0
   -2.8310   23.1280  -30.2600 O   0  0  0  0  0  0  0  0  0  0  0  0
   -3.0250   25.2810  -30.3780 H   0  0  0  0  0  0  0  0  0  0  0  0
   -7.9190   24.3428  -30.7275 H   0  0  0  0  0  0  0  0  0  0  0  0
   -9.3196   22.0539  -31.7168 H   0  0  0  0  0  0  0  0  0  0  0  0
   -8.9677   19.7515  -32.6753 H   0  0  0  0  0  0  0  0  0  0  0  0
   -4.6526   20.3005  -32.4262 H   0  0  0  0  0  0  0  0  0  0  0  0
  1  2  1  0
  2  3  2  0
  2  4  1  0
  4  5  2  0
  5  6  1  0
  6  7  2  0
  7  8  1  0
  8  9  2  0
  9 10  1  0
 10 11  3  0
 11 12  1  0
 12 13  2  0
 12 14  1  0
  9 15  1  0
 15 16  2  0
 16 17  1  0
 17 18  1  0
 18 19  2  0
 18 20  1  0
 17  4  1  0
 16  6  1  0
  1 21  1  0
  5 22  1  0
  7 23  1  0
  8 24  1  0
 15 25  1  0
M  CHG  3   1  -1  14  -1  20  -1
M  END
>  <UniqueID>  (77) 
77

>  <SMILES>  (77) 
[NH-]C(=O)c1cc2ccc(C#CC(=O)[O-])cc2n1C(=O)[O-]

>  <Energy>  (77) 
61.48637149269126

>  <Genealogy>  (77) 
[NH-]C(=O)c1cc2ccc(C#CC(=O)[O-])cc2n1C(=O)[O-] (protonated)
[NH-]C(=O)c1cc2ccc(C#CC(=O)[O-])cc2n1C(=O)[O-] (3D coordinates assigned)
[NH-]C(=O)c1cc2ccc(C#CC(=O)[O-])cc2n1C(=O)[O-] (optimized conformer: 61.48637149269126 kcal/mol)

>  <smiles>  (77) 
NC(=O)c1cc2ccc(C#CC(=O)O)cc2n1C(=O)O

>  <score_type>  (77) 
oracle

>  <origin>  (77) 
adg

>  <m_score__min__energy>  (77) 
-10.460000000000001

>  <m_primary>  (77) 
energy

$$$$
77:0
     RDKit          3D

 61 62  0  0  0  0  0  0  0  0999 V2000
   -0.8730   26.2840  -28.1200 C   0  0  0  0  0  0  0  0  0  0  0  0
   -1.5590   25.4830  -29.1230 N   0  0  0  0  0  0  0  0  0  0  0  0
   -2.4410   24.4020  -28.7780 C   0  0  0  0  0  0  0  0  0  0  0  0
   -3.4630   24.6120  -28.0640 O   0  0  0  0  0  0  0  0  0  0  0  0
   -2.1320   23.0120  -29.2420 C   0  0  0  0  0  0  0  0  0  0  0  0
   -3.4050   22.2100  -29.5620 C   0  0  0  0  0  0  0  0  0  0  0  0
   -3.8700   22.3480  -30.9890 C   0  0  0  0  0  0  0  0  0  0  0  0
   -3.0430   22.4300  -31.9390 O   0  0  0  0  0  0  0  0  0  0  0  0
   -5.2610   22.5400  -31.2620 N   0  0  0  0  0  0  0  0  0  0  0  0
   -6.0120   23.6630  -31.0840 C   0  0  0  0  0  0  0  0  0  0  0  0
   -5.5200   24.9610  -30.5760 C   0  0  0  0  0  0  0  0  0  0  0  0
   -4.1760   25.3840  -30.8150 N   0  0  0  0  0  0  0  0  0  0  0  0
   -6.2910   25.6990  -29.9040 O   0  0  0  0  0  0  0  0  0  0  0  0
   -7.3470   23.4070  -31.4020 C   0  0  0  0  0  0  0  0  0  0  0  0
   -7.3870   22.0780  -31.7710 C   0  0  0  0  0  0  0  0  0  0  0  0
   -8.4610   21.2760  -32.1470 C   0  0  0  0  0  0  0  0  0  0  0  0
   -8.2040   19.9240  -32.4420 C   0  0  0  0  0  0  0  0  0  0  0  0
   -6.8870   19.4030  -32.3590 C   0  0  0  0  0  0  0  0  0  0  0  0
   -6.6230   17.9440  -32.6510 C   0  0  0  0  0  0  0  0  0  0  0  0
   -6.4850   17.6670  -34.1570 C   0  0  0  0  0  0  0  0  0  0  0  0
   -5.0340   17.8570  -34.6620 C   0  0  0  0  0  0  0  0  0  0  0  0
   -4.1550   16.6950  -34.3930 N   0  0  0  0  0  0  0  0  0  0  0  0
   -3.3520   16.3160  -35.5700 C   0  0  0  0  0  0  0  0  0  0  0  0
   -3.3250   16.8740  -33.1780 C   0  0  0  0  0  0  0  0  0  0  0  0
   -2.2190   17.9300  -33.4020 C   0  0  0  0  0  0  0  0  0  0  0  0
   -2.5090   19.2780  -32.8480 N   0  0  0  0  0  0  0  0  0  0  0  0
   -2.7750   20.2950  -33.8770 C   0  0  0  0  0  0  0  0  0  0  0  0
   -1.4980   19.7430  -31.8790 C   0  0  0  0  0  0  0  0  0  0  0  0
   -5.8230   20.2520  -31.9810 C   0  0  0  0  0  0  0  0  0  0  0  0
   -6.1130   21.5840  -31.6790 C   0  0  0  0  0  0  0  0  0  0  0  0
   -1.1651   25.9430  -27.1158 H   0  0  0  0  0  0  0  0  0  0  0  0
    0.2144   26.1730  -28.2431 H   0  0  0  0  0  0  0  0  0  0  0  0
   -1.1499   27.3414  -28.2431 H   0  0  0  0  0  0  0  0  0  0  0  0
   -1.5129   23.0708  -30.1493 H   0  0  0  0  0  0  0  0  0  0  0  0
   -1.6022   22.4944  -28.4288 H   0  0  0  0  0  0  0  0  0  0  0  0
   -3.2036   21.1468  -29.3645 H   0  0  0  0  0  0  0  0  0  0  0  0
   -4.2056   22.6132  -28.9244 H   0  0  0  0  0  0  0  0  0  0  0  0
   -3.5470   25.6460  -30.0250 H   0  0  0  0  0  0  0  0  0  0  0  0
   -8.1885   24.1146  -31.3660 H   0  0  0  0  0  0  0  0  0  0  0  0
   -9.4795   21.6865  -32.2116 H   0  0  0  0  0  0  0  0  0  0  0  0
   -9.0326   19.2647  -32.7399 H   0  0  0  0  0  0  0  0  0  0  0  0
   -5.6906   17.6458  -32.1494 H   0  0  0  0  0  0  0  0  0  0  0  0
   -7.4814   17.3653  -32.2793 H   0  0  0  0  0  0  0  0  0  0  0  0
   -6.7951   16.6304  -34.3553 H   0  0  0  0  0  0  0  0  0  0  0  0
   -7.1225   18.3877  -34.6901 H   0  0  0  0  0  0  0  0  0  0  0  0
   -5.0634   18.0266  -35.7485 H   0  0  0  0  0  0  0  0  0  0  0  0
   -4.6121   18.7136  -34.1159 H   0  0  0  0  0  0  0  0  0  0  0  0
   -2.4036   15.8684  -35.2381 H   0  0  0  0  0  0  0  0  0  0  0  0
   -3.9100   15.5862  -36.1750 H   0  0  0  0  0  0  0  0  0  0  0  0
   -3.1433   17.2107  -36.1750 H   0  0  0  0  0  0  0  0  0  0  0  0
   -3.9697   17.2012  -32.3490 H   0  0  0  0  0  0  0  0  0  0  0  0
   -2.8441   15.9132  -32.9423 H   0  0  0  0  0  0  0  0  0  0  0  0
   -1.2956   17.5605  -32.9320 H   0  0  0  0  0  0  0  0  0  0  0  0
   -2.1367   18.0592  -34.4913 H   0  0  0  0  0  0  0  0  0  0  0  0
   -3.0249   21.2503  -33.3924 H   0  0  0  0  0  0  0  0  0  0  0  0
   -1.8806   20.4248  -34.5041 H   0  0  0  0  0  0  0  0  0  0  0  0
   -3.6184   19.9703  -34.5041 H   0  0  0  0  0  0  0  0  0  0  0  0
   -1.8655   19.5740  -30.8561 H   0  0  0  0  0  0  0  0  0  0  0  0
   -0.5621   19.1849  -32.0293 H   0  0  0  0  0  0  0  0  0  0  0  0
   -1.3127   20.8168  -32.0293 H   0  0  0  0  0  0  0  0  0  0  0  0
   -4.7918   19.8731  -31.9260 H   0  0  0  0  0  0  0  0  0  0  0  0
  1  2  1  0
  2  3  1  0
  3  4  2  0
  3  5  1  0
  5  6  1  0
  6  7  1  0
  7  8  2  0
  7  9  1  0
  9 10  1  0
 10 11  1  0
 11 12  1  0
 11 13  2  0
 10 14  2  0
 14 15  1  0
 15 16  2  0
 16 17  1  0
 17 18  2  0
 18 19  1  0
 19 20  1  0
 20 21  1  0
 21 22  1  0
 22 23  1  0
 22 24  1  0
 24 25  1  0
 25 26  1  0
 26 27  1  0
 26 28  1  0
 18 29  1  0
 29 30  2  0
 30  9  1  0
 30 15  1  0
  1 31  1  0
  1 32  1  0
  1 33  1  0
  5 34  1  0
  5 35  1  0
  6 36  1  0
  6 37  1  0
 12 38  1  0
 14 39  1  0
 16 40  1  0
 17 41  1  0
 19 42  1  0
 19 43  1  0
 20 44  1  0
 20 45  1  0
 21 46  1  0
 21 47  1  0
 23 48  1  0
 23 49  1  0
 23 50  1  0
 24 51  1  0
 24 52  1  0
 25 53  1  0
 25 54  1  0
 27 55  1  0
 27 56  1  0
 27 57  1  0
 28 58  1  0
 28 59  1  0
 28 60  1  0
 29 61  1  0
M  CHG  2   2  -1  12  -1
M  END
>  <UniqueID>  (78) 
78

>  <SMILES>  (78) 
C[N-]C(=O)CCC(=O)n1c(C([NH-])=O)cc2ccc(CCCN(C)CCN(C)C)cc21

>  <Energy>  (78) 
99.09076945865343

>  <Genealogy>  (78) 
C[N-]C(=O)CCC(=O)n1c(C([NH-])=O)cc2ccc(CCCN(C)CCN(C)C)cc21 (protonated)
C[N-]C(=O)CCC(=O)n1c(C([NH-])=O)cc2ccc(CCCN(C)CCN(C)C)cc21 (3D coordinates assigned)
C[N-]C(=O)CCC(=O)n1c(C([NH-])=O)cc2ccc(CCCN(C)CCN(C)C)cc21 (optimized conformer: 99.09076945865343 kcal/mol)

>  <smiles>  (78) 
CNC(=O)CCC(=O)n1c(C(N)=O)cc2ccc(CCCN(C)CCN(C)C)cc21

>  <score_type>  (78) 
oracle

>  <origin>  (78) 
adg

>  <m_score__min__energy>  (78) 
-12.49

>  <m_primary>  (78) 
energy

$$$$
78:0
     RDKit          3D

 43 45  0  0  0  0  0  0  0  0999 V2000
   -3.7710   24.3440  -27.2300 C   0  0  0  0  0  0  0  0  0  0  0  0
   -4.2460   23.0780  -27.9480 C   0  0  0  0  0  0  0  0  0  0  0  0
   -3.1000   22.3850  -28.6970 C   0  0  0  0  0  0  0  0  0  0  0  0
   -3.5720   21.7700  -29.8980 O   0  0  0  0  0  0  0  0  0  0  0  0
   -3.9830   22.4950  -31.0230 C   0  0  0  0  0  0  0  0  0  0  0  0
   -3.1680   22.7490  -31.9520 O   0  0  0  0  0  0  0  0  0  0  0  0
   -5.3500   22.9200  -31.1320 N   0  0  0  0  0  0  0  0  0  0  0  0
   -5.8660   24.1500  -30.8530 C   0  0  0  0  0  0  0  0  0  0  0  0
   -5.0830   25.3630  -30.5320 C   0  0  0  0  0  0  0  0  0  0  0  0
   -3.6590   25.2980  -30.4690 N   0  0  0  0  0  0  0  0  0  0  0  0
   -5.6620   26.4550  -30.2860 O   0  0  0  0  0  0  0  0  0  0  0  0
   -7.2540   24.1370  -30.9820 C   0  0  0  0  0  0  0  0  0  0  0  0
   -7.5740   22.8490  -31.3500 C   0  0  0  0  0  0  0  0  0  0  0  0
   -8.8150   22.2670  -31.5980 C   0  0  0  0  0  0  0  0  0  0  0  0
   -8.8480   20.9040  -31.9440 C   0  0  0  0  0  0  0  0  0  0  0  0
   -7.6480   20.1520  -32.0290 C   0  0  0  0  0  0  0  0  0  0  0  0
   -7.6820   18.7060  -32.4540 C   0  0  0  0  0  0  0  0  0  0  0  0
   -6.5760   18.4160  -33.4830 C   0  0  0  0  0  0  0  0  0  0  0  0
   -6.4560   19.3430  -34.6150 N   0  0  0  0  0  0  0  0  0  0  0  0
   -5.2730   17.8080  -32.9640 C   0  0  0  0  0  0  0  0  0  0  0  0
   -6.2370   16.9560  -33.7930 C   0  0  0  0  0  0  0  0  0  0  0  0
   -6.4100   20.7770  -31.7630 C   0  0  0  0  0  0  0  0  0  0  0  0
   -6.4070   22.1360  -31.4370 C   0  0  0  0  0  0  0  0  0  0  0  0
   -3.8281   24.1918  -26.1421 H   0  0  0  0  0  0  0  0  0  0  0  0
   -2.7309   24.5594  -27.5160 H   0  0  0  0  0  0  0  0  0  0  0  0
   -4.4127   25.1904  -27.5160 H   0  0  0  0  0  0  0  0  0  0  0  0
   -4.6589   22.3804  -27.2044 H   0  0  0  0  0  0  0  0  0  0  0  0
   -5.0101   23.3682  -28.6842 H   0  0  0  0  0  0  0  0  0  0  0  0
   -2.3335   23.1315  -28.9522 H   0  0  0  0  0  0  0  0  0  0  0  0
   -2.6766   21.6054  -28.0466 H   0  0  0  0  0  0  0  0  0  0  0  0
   -3.1140   24.7870  -31.1970 H   0  0  0  0  0  0  0  0  0  0  0  0
   -7.9464   24.9769  -30.8236 H   0  0  0  0  0  0  0  0  0  0  0  0
   -9.7414   22.8556  -31.5254 H   0  0  0  0  0  0  0  0  0  0  0  0
   -9.8125   20.4170  -32.1504 H   0  0  0  0  0  0  0  0  0  0  0  0
   -7.5311   18.0666  -31.5717 H   0  0  0  0  0  0  0  0  0  0  0  0
   -8.6583   18.4956  -32.9151 H   0  0  0  0  0  0  0  0  0  0  0  0
   -7.2810   19.9900  -34.5810 H   0  0  0  0  0  0  0  0  0  0  0  0
   -6.5120   18.8340  -35.5290 H   0  0  0  0  0  0  0  0  0  0  0  0
   -4.3101   18.1232  -33.3924 H   0  0  0  0  0  0  0  0  0  0  0  0
   -4.8008   17.7087  -31.9755 H   0  0  0  0  0  0  0  0  0  0  0  0
   -5.9674   16.6593  -34.8173 H   0  0  0  0  0  0  0  0  0  0  0  0
   -6.7451   15.9913  -33.6476 H   0  0  0  0  0  0  0  0  0  0  0  0
   -5.4701   20.2076  -31.8112 H   0  0  0  0  0  0  0  0  0  0  0  0
  1  2  1  0
  2  3  1  0
  3  4  1  0
  4  5  1  0
  5  6  2  0
  5  7  1  0
  7  8  1  0
  8  9  1  0
  9 10  1  0
  9 11  2  0
  8 12  2  0
 12 13  1  0
 13 14  2  0
 14 15  1  0
 15 16  2  0
 16 17  1  0
 17 18  1  0
 18 19  1  0
 18 20  1  0
 20 21  1  0
 16 22  1  0
 22 23  2  0
 23  7  1  0
 23 13  1  0
 21 18  1  0
  1 24  1  0
  1 25  1  0
  1 26  1  0
  2 27  1  0
  2 28  1  0
  3 29  1  0
  3 30  1  0
 10 31  1  0
 12 32  1  0
 14 33  1  0
 15 34  1  0
 17 35  1  0
 17 36  1  0
 19 37  1  0
 19 38  1  0
 20 39  1  0
 20 40  1  0
 21 41  1  0
 21 42  1  0
 22 43  1  0
M  CHG  1  10  -1
M  END
>  <UniqueID>  (79) 
79

>  <SMILES>  (79) 
CCCOC(=O)n1c(C([NH-])=O)cc2ccc(CC3(N)CC3)cc21

>  <Energy>  (79) 
344.727215020707

>  <Genealogy>  (79) 
CCCOC(=O)n1c(C([NH-])=O)cc2ccc(CC3(N)CC3)cc21 (protonated)
CCCOC(=O)n1c(C([NH-])=O)cc2ccc(CC3(N)CC3)cc21 (3D coordinates assigned)
CCCOC(=O)n1c(C([NH-])=O)cc2ccc(CC3(N)CC3)cc21 (nonaromatic ring conformer: 344.727215020707 kcal/mol)

>  <smiles>  (79) 
CCCOC(=O)n1c(C(N)=O)cc2ccc(CC3(N)CC3)cc21

>  <score_type>  (79) 
oracle

>  <origin>  (79) 
adg

>  <m_score__min__energy>  (79) 
-11.119999999999999

>  <m_primary>  (79) 
energy

$$$$
79:0
     RDKit          3D

 57 58  0  0  0  0  0  0  0  0999 V2000
   -0.5580   19.0840  -34.6300 C   0  0  0  0  0  0  0  0  0  0  0  0
   -1.2840   20.1380  -33.7880 C   0  0  0  0  0  0  0  0  0  0  0  0
   -0.6090   21.5040  -33.9460 C   0  0  0  0  0  0  0  0  0  0  0  0
   -2.6930   20.2240  -34.1850 N   0  0  0  0  0  0  0  0  0  0  0  0
   -3.6160   19.1470  -33.9870 C   0  0  0  0  0  0  0  0  0  0  0  0
   -3.2210   18.0480  -33.5090 O   0  0  0  0  0  0  0  0  0  0  0  0
   -4.9570   19.3260  -34.3350 O   0  0  0  0  0  0  0  0  0  0  0  0
   -5.9240   18.2830  -34.2420 C   0  0  0  0  0  0  0  0  0  0  0  0
   -5.8490   17.6170  -32.8650 C   0  0  0  0  0  0  0  0  0  0  0  0
   -6.9870   18.0440  -31.9240 C   0  0  0  0  0  0  0  0  0  0  0  0
   -7.0910   19.5430  -31.8070 C   0  0  0  0  0  0  0  0  0  0  0  0
   -8.3130   20.1930  -32.1100 C   0  0  0  0  0  0  0  0  0  0  0  0
   -8.4200   21.5900  -32.0200 C   0  0  0  0  0  0  0  0  0  0  0  0
   -7.2950   22.3080  -31.6280 C   0  0  0  0  0  0  0  0  0  0  0  0
   -7.1200   23.6640  -31.4810 C   0  0  0  0  0  0  0  0  0  0  0  0
   -5.7940   23.8240  -31.0830 C   0  0  0  0  0  0  0  0  0  0  0  0
   -5.2100   25.1320  -30.7200 C   0  0  0  0  0  0  0  0  0  0  0  0
   -3.8120   25.2690  -30.4810 N   0  0  0  0  0  0  0  0  0  0  0  0
   -5.9630   26.1310  -30.5670 O   0  0  0  0  0  0  0  0  0  0  0  0
   -5.1700   22.6150  -30.9990 N   0  0  0  0  0  0  0  0  0  0  0  0
   -3.7810   22.3570  -30.7290 C   0  0  0  0  0  0  0  0  0  0  0  0
   -2.8990   22.8260  -31.4970 O   0  0  0  0  0  0  0  0  0  0  0  0
   -3.4280   21.5600  -29.6310 O   0  0  0  0  0  0  0  0  0  0  0  0
   -2.0970   21.1930  -29.2380 C   0  0  0  0  0  0  0  0  0  0  0  0
   -1.4110   20.3700  -30.3450 C   0  0  0  0  0  0  0  0  0  0  0  0
   -1.2700   22.4480  -28.9020 C   0  0  0  0  0  0  0  0  0  0  0  0
   -2.2210   20.3240  -27.9780 C   0  0  0  0  0  0  0  0  0  0  0  0
   -6.1050   21.6950  -31.3270 C   0  0  0  0  0  0  0  0  0  0  0  0
   -5.9650   20.3050  -31.4240 C   0  0  0  0  0  0  0  0  0  0  0  0
   -0.0609   18.3623  -33.9651 H   0  0  0  0  0  0  0  0  0  0  0  0
   -1.2856   18.5570  -35.2647 H   0  0  0  0  0  0  0  0  0  0  0  0
    0.1938   19.5759  -35.2647 H   0  0  0  0  0  0  0  0  0  0  0  0
   -1.2310   19.8377  -32.7311 H   0  0  0  0  0  0  0  0  0  0  0  0
   -0.4000   21.9269  -32.9523 H   0  0  0  0  0  0  0  0  0  0  0  0
    0.3341   21.3851  -34.4996 H   0  0  0  0  0  0  0  0  0  0  0  0
   -1.2763   22.1809  -34.4996 H   0  0  0  0  0  0  0  0  0  0  0  0
   -3.0490   21.0880  -34.6530 H   0  0  0  0  0  0  0  0  0  0  0  0
   -6.9294   18.7049  -34.3878 H   0  0  0  0  0  0  0  0  0  0  0  0
   -5.7177   17.5306  -35.0175 H   0  0  0  0  0  0  0  0  0  0  0  0
   -5.8980   16.5265  -33.0008 H   0  0  0  0  0  0  0  0  0  0  0  0
   -4.9037   17.9330  -32.3997 H   0  0  0  0  0  0  0  0  0  0  0  0
   -7.9373   17.6516  -32.3152 H   0  0  0  0  0  0  0  0  0  0  0  0
   -6.7707   17.6395  -30.9242 H   0  0  0  0  0  0  0  0  0  0  0  0
   -9.1853   19.5980  -32.4184 H   0  0  0  0  0  0  0  0  0  0  0  0
   -9.3656   22.1016  -32.2526 H   0  0  0  0  0  0  0  0  0  0  0  0
   -7.8677   24.4544  -31.6431 H   0  0  0  0  0  0  0  0  0  0  0  0
   -3.1130   24.9660  -31.1940 H   0  0  0  0  0  0  0  0  0  0  0  0
   -0.7706   19.6017  -29.8872 H   0  0  0  0  0  0  0  0  0  0  0  0
   -2.1762   19.8853  -30.9691 H   0  0  0  0  0  0  0  0  0  0  0  0
   -0.7964   21.0354  -30.9691 H   0  0  0  0  0  0  0  0  0  0  0  0
   -1.1976   22.5579  -27.8099 H   0  0  0  0  0  0  0  0  0  0  0  0
   -0.2609   22.3471  -29.3281 H   0  0  0  0  0  0  0  0  0  0  0  0
   -1.7608   23.3355  -29.3281 H   0  0  0  0  0  0  0  0  0  0  0  0
   -2.1304   20.9589  -27.0843 H   0  0  0  0  0  0  0  0  0  0  0  0
   -3.1998   19.8222  -27.9736 H   0  0  0  0  0  0  0  0  0  0  0  0
   -1.4216   19.5684  -27.9736 H   0  0  0  0  0  0  0  0  0  0  0  0
   -5.0024   19.8188  -31.2074 H   0  0  0  0  0  0  0  0  0  0  0  0
  1  2  1  0
  2  3  1  0
  2  4  1  0
  4  5  1  0
  5  6  2  0
  5  7  1  0
  7  8  1  0
  8  9  1  0
  9 10  1  0
 10 11  1  0
 11 12  2  0
 12 13  1  0
 13 14  2  0
 14 15  1  0
 15 16  2  0
 16 17  1  0
 17 18  1  0
 17 19  2  0
 16 20  1  0
 20 21  1  0
 21 22  2  0
 21 23  1  0
 23 24  1  0
 24 25  1  0
 24 26  1  0
 24 27  1  0
 20 28  1  0
 28 29  2  0
 29 11  1  0
 28 14  1  0
  1 30  1  0
  1 31  1  0
  1 32  1  0
  2 33  1  0
  3 34  1  0
  3 35  1  0
  3 36  1  0
  4 37  1  0
  8 38  1  0
  8 39  1  0
  9 40  1  0
  9 41  1  0
 10 42  1  0
 10 43  1  0
 12 44  1  0
 13 45  1  0
 15 46  1  0
 18 47  1  0
 25 48  1  0
 25 49  1  0
 25 50  1  0
 26 51  1  0
 26 52  1  0
 26 53  1  0
 27 54  1  0
 27 55  1  0
 27 56  1  0
 29 57  1  0
M  CHG  1  18  -1
M  END
>  <UniqueID>  (80) 
80

>  <SMILES>  (80) 
CC(C)NC(=O)OCCCc1ccc2cc(C([NH-])=O)n(C(=O)OC(C)(C)C)c2c1

>  <Energy>  (80) 
74.07593852803085

>  <Genealogy>  (80) 
CC(C)NC(=O)OCCCc1ccc2cc(C([NH-])=O)n(C(=O)OC(C)(C)C)c2c1 (protonated)
CC(C)NC(=O)OCCCc1ccc2cc(C([NH-])=O)n(C(=O)OC(C)(C)C)c2c1 (3D coordinates assigned)
CC(C)NC(=O)OCCCc1ccc2cc(C([NH-])=O)n(C(=O)OC(C)(C)C)c2c1 (optimized conformer: 74.07593852803085 kcal/mol)

>  <smiles>  (80) 
CC(C)NC(=O)OCCCc1ccc2cc(C(N)=O)n(C(=O)OC(C)(C)C)c2c1

>  <score_type>  (80) 
oracle

>  <origin>  (80) 
adg

>  <m_score__min__energy>  (80) 
-10.84

>  <m_primary>  (80) 
energy

$$$$
80:0
     RDKit          3D

 43 45  0  0  0  0  0  0  0  0999 V2000
   -4.2120   25.5550  -30.5210 N   0  0  0  0  0  0  0  0  0  0  0  0
   -5.5500   25.1170  -30.2670 C   0  0  0  0  0  0  0  0  0  0  0  0
   -6.3000   25.8310  -29.5510 O   0  0  0  0  0  0  0  0  0  0  0  0
   -6.0460   23.8330  -30.8140 C   0  0  0  0  0  0  0  0  0  0  0  0
   -7.3770   23.5820  -31.1450 C   0  0  0  0  0  0  0  0  0  0  0  0
   -7.3890   22.3100  -31.6700 C   0  0  0  0  0  0  0  0  0  0  0  0
   -8.4520   21.5480  -32.1480 C   0  0  0  0  0  0  0  0  0  0  0  0
   -8.1770   20.2480  -32.6060 C   0  0  0  0  0  0  0  0  0  0  0  0
   -6.8580   19.7390  -32.5700 C   0  0  0  0  0  0  0  0  0  0  0  0
   -6.5910   18.4130  -33.0280 N   0  0  0  0  0  0  0  0  0  0  0  0
   -6.6590   17.0390  -32.4920 C   0  0  0  0  0  0  0  0  0  0  0  0
   -6.1800   16.3630  -33.7400 C   0  0  0  0  0  0  0  0  0  0  0  0
   -4.9180   15.7470  -33.6110 O   0  0  0  0  0  0  0  0  0  0  0  0
   -6.1230   17.7640  -34.2690 C   0  0  0  0  0  0  0  0  0  0  0  0
   -5.8050   20.5380  -32.0790 C   0  0  0  0  0  0  0  0  0  0  0  0
   -6.1030   21.8340  -31.6470 C   0  0  0  0  0  0  0  0  0  0  0  0
   -5.2660   22.7600  -31.1300 N   0  0  0  0  0  0  0  0  0  0  0  0
   -3.8570   22.6130  -30.8880 C   0  0  0  0  0  0  0  0  0  0  0  0
   -3.0390   23.3020  -31.5550 O   0  0  0  0  0  0  0  0  0  0  0  0
   -3.3480   21.5770  -29.9210 C   0  0  0  0  0  0  0  0  0  0  0  0
   -2.0180   21.9830  -29.2570 C   0  0  0  0  0  0  0  0  0  0  0  0
   -2.1490   23.1570  -28.2750 C   0  0  0  0  0  0  0  0  0  0  0  0
   -1.4770   24.3930  -28.7910 C   0  0  0  0  0  0  0  0  0  0  0  0
   -2.1500   25.2880  -29.3680 O   0  0  0  0  0  0  0  0  0  0  0  0
   -0.1020   24.5460  -28.6550 O   0  0  0  0  0  0  0  0  0  0  0  0
   -3.8650   26.4430  -30.0980 H   0  0  0  0  0  0  0  0  0  0  0  0
   -3.5780   25.0290  -31.1610 H   0  0  0  0  0  0  0  0  0  0  0  0
   -8.2353   24.2574  -31.0142 H   0  0  0  0  0  0  0  0  0  0  0  0
   -9.4753   21.9511  -32.1666 H   0  0  0  0  0  0  0  0  0  0  0  0
   -8.9935   19.6220  -32.9952 H   0  0  0  0  0  0  0  0  0  0  0  0
   -5.9844   16.8819  -31.6374 H   0  0  0  0  0  0  0  0  0  0  0  0
   -7.6232   16.7076  -32.0791 H   0  0  0  0  0  0  0  0  0  0  0  0
   -6.7126   15.5385  -34.2365 H   0  0  0  0  0  0  0  0  0  0  0  0
   -5.0060   14.7770  -33.8050 H   0  0  0  0  0  0  0  0  0  0  0  0
   -5.1053   18.0709  -34.5520 H   0  0  0  0  0  0  0  0  0  0  0  0
   -6.6844   17.9770  -35.1907 H   0  0  0  0  0  0  0  0  0  0  0  0
   -4.7759   20.1518  -32.0369 H   0  0  0  0  0  0  0  0  0  0  0  0
   -4.1028   21.4292  -29.1346 H   0  0  0  0  0  0  0  0  0  0  0  0
   -3.1659   20.6535  -30.4902 H   0  0  0  0  0  0  0  0  0  0  0  0
   -1.6246   21.1143  -28.7087 H   0  0  0  0  0  0  0  0  0  0  0  0
   -1.3449   22.3122  -30.0624 H   0  0  0  0  0  0  0  0  0  0  0  0
   -3.2163   23.3716  -28.1173 H   0  0  0  0  0  0  0  0  0  0  0  0
   -1.6594   22.8702  -27.3326 H   0  0  0  0  0  0  0  0  0  0  0  0
  1  2  1  0
  2  3  2  0
  2  4  1  0
  4  5  2  0
  5  6  1  0
  6  7  2  0
  7  8  1  0
  8  9  2  0
  9 10  1  0
 10 11  1  0
 11 12  1  0
 12 13  1  0
 12 14  1  0
  9 15  1  0
 15 16  2  0
 16 17  1  0
 17 18  1  0
 18 19  2  0
 18 20  1  0
 20 21  1  0
 21 22  1  0
 22 23  1  0
 23 24  2  0
 23 25  1  0
 17  4  1  0
 16  6  1  0
 14 10  1  0
  1 26  1  0
  1 27  1  0
  5 28  1  0
  7 29  1  0
  8 30  1  0
 11 31  1  0
 11 32  1  0
 12 33  1  0
 13 34  1  0
 14 35  1  0
 14 36  1  0
 15 37  1  0
 20 38  1  0
 20 39  1  0
 21 40  1  0
 21 41  1  0
 22 42  1  0
 22 43  1  0
M  CHG  1  25  -1
M  END
>  <UniqueID>  (81) 
81

>  <SMILES>  (81) 
NC(=O)c1cc2ccc(N3CC(O)C3)cc2n1C(=O)CCCC(=O)[O-]

>  <Energy>  (81) 
126.8602150996829

>  <Genealogy>  (81) 
NC(=O)c1cc2ccc(N3CC(O)C3)cc2n1C(=O)CCCC(=O)[O-] (protonated)
NC(=O)c1cc2ccc(N3CC(O)C3)cc2n1C(=O)CCCC(=O)[O-] (3D coordinates assigned)
NC(=O)c1cc2ccc(N3CC(O)C3)cc2n1C(=O)CCCC(=O)[O-] (nonaromatic ring conformer: 126.8602150996829 kcal/mol)

>  <smiles>  (81) 
NC(=O)c1cc2ccc(N3CC(O)C3)cc2n1C(=O)CCCC(=O)O

>  <score_type>  (81) 
oracle

>  <origin>  (81) 
adg

>  <m_score__min__energy>  (81) 
-10.81

>  <m_primary>  (81) 
energy

$$$$
81:0
     RDKit          3D

 41 42  0  0  0  0  0  0  0  0999 V2000
   -5.5090   17.9430  -35.0410 C   0  0  0  0  0  0  0  0  0  0  0  0
   -4.5420   17.9830  -33.8500 C   0  0  1  0  0  0  0  0  0  0  0  0
   -3.2860   17.1160  -34.0720 C   0  0  0  0  0  0  0  0  0  0  0  0
   -2.0640   17.9540  -34.0650 N   0  0  0  0  0  0  0  0  0  0  0  0
   -1.0470   17.4160  -34.9850 C   0  0  0  0  0  0  0  0  0  0  0  0
   -1.5010   18.0380  -32.7080 C   0  0  0  0  0  0  0  0  0  0  0  0
   -4.2010   19.3660  -33.4770 N   0  0  0  0  0  0  0  0  0  0  0  0
   -5.0940   20.3560  -32.9240 C   0  0  0  0  0  0  0  0  0  0  0  0
   -6.5050   20.2420  -33.0300 C   0  0  0  0  0  0  0  0  0  0  0  0
   -7.3490   21.2100  -32.4620 C   0  0  0  0  0  0  0  0  0  0  0  0
   -6.7630   22.2750  -31.7890 C   0  0  0  0  0  0  0  0  0  0  0  0
   -7.3460   23.3310  -31.1280 C   0  0  0  0  0  0  0  0  0  0  0  0
   -6.2860   24.0840  -30.6260 C   0  0  0  0  0  0  0  0  0  0  0  0
   -6.4530   25.3740  -29.9200 C   0  0  0  0  0  0  0  0  0  0  0  0
   -5.6490   26.5030  -30.2670 N   0  0  0  0  0  0  0  0  0  0  0  0
   -7.2860   25.4780  -28.9810 O   0  0  0  0  0  0  0  0  0  0  0  0
   -5.0930   23.5130  -30.9620 N   0  0  0  0  0  0  0  0  0  0  0  0
   -3.7780   23.9440  -30.5730 C   0  0  0  0  0  0  0  0  0  0  0  0
   -2.8780   23.1010  -30.3210 O   0  0  0  0  0  0  0  0  0  0  0  0
   -3.4900   25.2980  -30.4530 O   0  0  0  0  0  0  0  0  0  0  0  0
   -5.4050   22.4050  -31.6740 C   0  0  0  0  0  0  0  0  0  0  0  0
   -4.5410   21.4470  -32.2160 C   0  0  0  0  0  0  0  0  0  0  0  0
   -6.5442   17.9002  -34.6715 H   0  0  0  0  0  0  0  0  0  0  0  0
   -5.3751   18.8475  -35.6526 H   0  0  0  0  0  0  0  0  0  0  0  0
   -5.3008   17.0527  -35.6526 H   0  0  0  0  0  0  0  0  0  0  0  0
   -5.0736   17.5343  -32.9979 H   0  0  0  0  0  0  0  0  0  0  0  0
   -3.2162   16.3687  -33.2678 H   0  0  0  0  0  0  0  0  0  0  0  0
   -3.3680   16.6179  -35.0493 H   0  0  0  0  0  0  0  0  0  0  0  0
   -0.2214   16.9792  -34.4040 H   0  0  0  0  0  0  0  0  0  0  0  0
   -1.5001   16.6396  -35.6190 H   0  0  0  0  0  0  0  0  0  0  0  0
   -0.6601   18.2274  -35.6190 H   0  0  0  0  0  0  0  0  0  0  0  0
   -2.3066   17.9178  -31.9687 H   0  0  0  0  0  0  0  0  0  0  0  0
   -0.7552   17.2412  -32.5705 H   0  0  0  0  0  0  0  0  0  0  0  0
   -1.0203   19.0178  -32.5705 H   0  0  0  0  0  0  0  0  0  0  0  0
   -3.2850   19.7180  -33.8390 H   0  0  0  0  0  0  0  0  0  0  0  0
   -6.9425   19.3852  -33.5634 H   0  0  0  0  0  0  0  0  0  0  0  0
   -8.4426   21.1275  -32.5474 H   0  0  0  0  0  0  0  0  0  0  0  0
   -8.4209   23.5374  -31.0187 H   0  0  0  0  0  0  0  0  0  0  0  0
   -5.7440   27.3960  -29.7340 H   0  0  0  0  0  0  0  0  0  0  0  0
   -4.9930   26.4740  -31.0770 H   0  0  0  0  0  0  0  0  0  0  0  0
   -3.4519   21.5413  -32.0933 H   0  0  0  0  0  0  0  0  0  0  0  0
  1  2  1  0
  2  3  1  0
  3  4  1  0
  4  5  1  0
  4  6  1  0
  2  7  1  0
  7  8  1  0
  8  9  2  0
  9 10  1  0
 10 11  2  0
 11 12  1  0
 12 13  2  0
 13 14  1  0
 14 15  1  0
 14 16  2  0
 13 17  1  0
 17 18  1  0
 18 19  2  0
 18 20  1  0
 17 21  1  0
 21 22  2  0
 22  8  1  0
 21 11  1  0
  1 23  1  0
  1 24  1  0
  1 25  1  0
  2 26  1  1
  3 27  1  0
  3 28  1  0
  5 29  1  0
  5 30  1  0
  5 31  1  0
  6 32  1  0
  6 33  1  0
  6 34  1  0
  7 35  1  0
  9 36  1  0
 10 37  1  0
 12 38  1  0
 15 39  1  0
 15 40  1  0
 22 41  1  0
M  CHG  1  20  -1
M  END
>  <UniqueID>  (82) 
82

>  <SMILES>  (82) 
C[C@@H](CN(C)C)Nc1ccc2cc(C(N)=O)n(C(=O)[O-])c2c1

>  <Energy>  (82) 
82.69456715759111

>  <Genealogy>  (82) 
C[C@@H](CN(C)C)Nc1ccc2cc(C(N)=O)n(C(=O)[O-])c2c1 (protonated)
C[C@@H](CN(C)C)Nc1ccc2cc(C(N)=O)n(C(=O)[O-])c2c1 (3D coordinates assigned)
C[C@@H](CN(C)C)Nc1ccc2cc(C(N)=O)n(C(=O)[O-])c2c1 (optimized conformer: 82.69456715759111 kcal/mol)

>  <smiles>  (82) 
C[C@@H](CN(C)C)Nc1ccc2cc(C(N)=O)n(C(=O)O)c2c1

>  <score_type>  (82) 
oracle

>  <origin>  (82) 
adg

>  <m_score__min__energy>  (82) 
-8.6699999999999999

>  <m_primary>  (82) 
energy

$$$$
82:0
     RDKit          3D

 49 51  0  0  0  0  0  0  0  0999 V2000
   -2.0710   15.7000  -34.4530 C   0  0  0  0  0  0  0  0  0  0  0  0
   -2.4850   16.9600  -35.0950 N   0  0  0  0  0  0  0  0  0  0  0  0
   -3.9670   17.1040  -35.1110 C   0  0  0  0  0  0  0  0  0  0  0  0
   -4.4730   18.4360  -34.5380 C   0  0  0  0  0  0  0  0  0  0  0  0
   -3.7980   18.7130  -33.2660 N   0  0  0  0  0  0  0  0  0  0  0  0
   -4.5120   19.2690  -32.1440 C   0  0  0  0  0  0  0  0  0  0  0  0
   -3.8860   19.9030  -31.2520 O   0  0  0  0  0  0  0  0  0  0  0  0
   -5.9330   19.1030  -32.0110 N   0  0  0  0  0  0  0  0  0  0  0  0
   -6.6450   17.9560  -32.1840 C   0  0  0  0  0  0  0  0  0  0  0  0
   -6.0550   16.6100  -32.3650 C   0  0  0  0  0  0  0  0  0  0  0  0
   -5.3910   15.9480  -31.2860 N   0  0  0  0  0  0  0  0  0  0  0  0
   -6.1240   16.0360  -33.4840 O   0  0  0  0  0  0  0  0  0  0  0  0
   -8.0130   18.2210  -32.1300 C   0  0  0  0  0  0  0  0  0  0  0  0
   -8.1120   19.5810  -31.9340 C   0  0  0  0  0  0  0  0  0  0  0  0
   -9.2400   20.3930  -31.8570 C   0  0  0  0  0  0  0  0  0  0  0  0
   -9.0450   21.7750  -31.7100 C   0  0  0  0  0  0  0  0  0  0  0  0
   -7.7370   22.3210  -31.6320 C   0  0  0  0  0  0  0  0  0  0  0  0
   -7.5460   23.8110  -31.4940 C   0  0  0  0  0  0  0  0  0  0  0  0
   -6.6900   24.1940  -30.2770 C   0  0  0  0  0  0  0  0  0  0  0  0
   -4.9370   24.1020  -30.6180 S   0  0  0  0  0  0  0  0  0  0  0  0
   -4.2340   25.6810  -30.5760 N   0  0  0  0  0  0  0  0  0  0  0  0
   -4.2690   23.2220  -29.6000 O   0  0  0  0  0  0  0  0  0  0  0  0
   -4.7360   23.5130  -31.9860 O   0  0  0  0  0  0  0  0  0  0  0  0
   -6.6160   21.4630  -31.7260 C   0  0  0  0  0  0  0  0  0  0  0  0
   -6.8430   20.0900  -31.8680 C   0  0  0  0  0  0  0  0  0  0  0  0
   -2.3390   18.5820  -33.1930 C   0  0  0  0  0  0  0  0  0  0  0  0
   -1.7550   18.1190  -34.5360 C   0  0  0  0  0  0  0  0  0  0  0  0
   -2.1090   15.8157  -33.3598 H   0  0  0  0  0  0  0  0  0  0  0  0
   -2.7507   14.8915  -34.7600 H   0  0  0  0  0  0  0  0  0  0  0  0
   -1.0442   15.4522  -34.7600 H   0  0  0  0  0  0  0  0  0  0  0  0
   -4.3109   17.0231  -36.1527 H   0  0  0  0  0  0  0  0  0  0  0  0
   -4.3703   16.3080  -34.4678 H   0  0  0  0  0  0  0  0  0  0  0  0
   -4.2580   19.2461  -35.2504 H   0  0  0  0  0  0  0  0  0  0  0  0
   -5.5581   18.3721  -34.3691 H   0  0  0  0  0  0  0  0  0  0  0  0
   -4.9560   15.0110  -31.4370 H   0  0  0  0  0  0  0  0  0  0  0  0
   -5.3650   16.3570  -30.3260 H   0  0  0  0  0  0  0  0  0  0  0  0
   -8.8371   17.4984  -32.2239 H   0  0  0  0  0  0  0  0  0  0  0  0
  -10.2520   19.9651  -31.9097 H   0  0  0  0  0  0  0  0  0  0  0  0
   -9.9167   22.4436  -31.6545 H   0  0  0  0  0  0  0  0  0  0  0  0
   -7.0528   24.1872  -32.4024 H   0  0  0  0  0  0  0  0  0  0  0  0
   -8.5404   24.2595  -31.3524 H   0  0  0  0  0  0  0  0  0  0  0  0
   -6.9384   25.2238  -29.9808 H   0  0  0  0  0  0  0  0  0  0  0  0
   -6.9125   23.4775  -29.4725 H   0  0  0  0  0  0  0  0  0  0  0  0
   -3.4120   25.6680  -31.2200 H   0  0  0  0  0  0  0  0  0  0  0  0
   -5.5928   21.8650  -31.6884 H   0  0  0  0  0  0  0  0  0  0  0  0
   -1.9039   19.5574  -32.9297 H   0  0  0  0  0  0  0  0  0  0  0  0
   -2.0947   17.8293  -32.4289 H   0  0  0  0  0  0  0  0  0  0  0  0
   -1.8114   18.9518  -35.2524 H   0  0  0  0  0  0  0  0  0  0  0  0
   -0.7140   17.8093  -34.3618 H   0  0  0  0  0  0  0  0  0  0  0  0
  1  2  1  0
  2  3  1  0
  3  4  1  0
  4  5  1  0
  5  6  1  0
  6  7  2  0
  6  8  1  0
  8  9  1  0
  9 10  1  0
 10 11  1  0
 10 12  2  0
  9 13  2  0
 13 14  1  0
 14 15  2  0
 15 16  1  0
 16 17  2  0
 17 18  1  0
 18 19  1  0
 19 20  1  0
 20 21  1  0
 20 22  2  0
 20 23  2  0
 17 24  1  0
 24 25  2  0
  5 26  1  0
 26 27  1  0
 27  2  1  0
 25  8  1  0
 25 14  1  0
  1 28  1  0
  1 29  1  0
  1 30  1  0
  3 31  1  0
  3 32  1  0
  4 33  1  0
  4 34  1  0
 11 35  1  0
 11 36  1  0
 13 37  1  0
 15 38  1  0
 16 39  1  0
 18 40  1  0
 18 41  1  0
 19 42  1  0
 19 43  1  0
 21 44  1  0
 24 45  1  0
 26 46  1  0
 26 47  1  0
 27 48  1  0
 27 49  1  0
M  CHG  1  21  -1
M  END
>  <UniqueID>  (83) 
83

>  <SMILES>  (83) 
CN1CCN(C(=O)n2c(C(N)=O)cc3ccc(CCS([NH-])(=O)=O)cc32)CC1

>  <Energy>  (83) 
87.29192350227191

>  <Genealogy>  (83) 
CN1CCN(C(=O)n2c(C(N)=O)cc3ccc(CCS([NH-])(=O)=O)cc32)CC1 (protonated)
CN1CCN(C(=O)n2c(C(N)=O)cc3ccc(CCS([NH-])(=O)=O)cc32)CC1 (3D coordinates assigned)
CN1CCN(C(=O)n2c(C(N)=O)cc3ccc(CCS([NH-])(=O)=O)cc32)CC1 (nonaromatic ring conformer: 87.29192350227191 kcal/mol)

>  <smiles>  (83) 
CN1CCN(C(=O)n2c(C(N)=O)cc3ccc(CCS(N)(=O)=O)cc32)CC1

>  <score_type>  (83) 
oracle

>  <origin>  (83) 
adg

>  <m_score__min__energy>  (83) 
-10.970000000000001

>  <m_primary>  (83) 
energy

$$$$
83:0
     RDKit          3D

 56 57  0  0  0  0  0  0  0  0999 V2000
   -2.1970   21.5730  -31.3750 C   0  0  0  0  0  0  0  0  0  0  0  0
   -3.1860   21.9580  -32.1850 C   0  0  0  0  0  0  0  0  0  0  0  0
   -3.5480   21.1680  -33.4090 C   0  0  0  0  0  0  0  0  0  0  0  0
   -3.8960   19.8290  -33.0600 O   0  0  0  0  0  0  0  0  0  0  0  0
   -4.7890   19.0480  -33.8050 C   0  0  0  0  0  0  0  0  0  0  0  0
   -4.4320   18.5550  -34.9100 O   0  0  0  0  0  0  0  0  0  0  0  0
   -6.1190   18.8240  -33.3140 N   0  0  0  0  0  0  0  0  0  0  0  0
   -6.7500   17.6270  -33.1460 C   0  0  0  0  0  0  0  0  0  0  0  0
   -6.2380   16.3160  -33.6030 C   0  0  0  0  0  0  0  0  0  0  0  0
   -4.8340   16.0860  -33.7310 N   0  0  0  0  0  0  0  0  0  0  0  0
   -7.0390   15.3770  -33.8550 O   0  0  0  0  0  0  0  0  0  0  0  0
   -8.0010   17.8130  -32.5590 C   0  0  0  0  0  0  0  0  0  0  0  0
   -8.1160   19.1710  -32.3700 C   0  0  0  0  0  0  0  0  0  0  0  0
   -9.1490   19.9090  -31.7970 C   0  0  0  0  0  0  0  0  0  0  0  0
   -8.9820   21.2990  -31.6890 C   0  0  0  0  0  0  0  0  0  0  0  0
   -7.7970   21.9220  -32.1520 C   0  0  0  0  0  0  0  0  0  0  0  0
   -7.5980   23.4030  -31.9630 C   0  0  0  0  0  0  0  0  0  0  0  0
   -6.1080   23.7650  -31.8930 C   0  0  0  0  0  0  0  0  0  0  0  0
   -5.7570   24.3450  -30.5880 N   0  0  0  0  0  0  0  0  0  0  0  0
   -6.7950   24.9330  -29.7370 C   0  0  0  0  0  0  0  0  0  0  0  0
   -4.3880   24.3510  -30.1450 C   0  0  0  0  0  0  0  0  0  0  0  0
   -3.6250   25.2980  -30.4770 O   0  0  0  0  0  0  0  0  0  0  0  0
   -3.9130   23.2940  -29.3510 O   0  0  0  0  0  0  0  0  0  0  0  0
   -3.1570   23.4140  -28.1380 C   0  0  0  0  0  0  0  0  0  0  0  0
   -1.8320   24.1020  -28.4980 C   0  0  0  0  0  0  0  0  0  0  0  0
   -3.9110   24.2870  -27.1170 C   0  0  0  0  0  0  0  0  0  0  0  0
   -2.8520   22.0240  -27.5460 C   0  0  0  0  0  0  0  0  0  0  0  0
   -6.7690   21.1410  -32.7240 C   0  0  0  0  0  0  0  0  0  0  0  0
   -6.9690   19.7590  -32.8330 C   0  0  0  0  0  0  0  0  0  0  0  0
   -1.9517   22.1699  -30.4842 H   0  0  0  0  0  0  0  0  0  0  0  0
   -1.6274   20.6588  -31.5984 H   0  0  0  0  0  0  0  0  0  0  0  0
   -3.7478   22.8741  -31.9503 H   0  0  0  0  0  0  0  0  0  0  0  0
   -4.4047   21.6457  -33.9069 H   0  0  0  0  0  0  0  0  0  0  0  0
   -2.6797   21.1434  -34.0838 H   0  0  0  0  0  0  0  0  0  0  0  0
   -4.4820   15.1450  -34.0170 H   0  0  0  0  0  0  0  0  0  0  0  0
   -4.1420   16.8530  -33.5850 H   0  0  0  0  0  0  0  0  0  0  0  0
   -8.7389   17.0388  -32.3018 H   0  0  0  0  0  0  0  0  0  0  0  0
  -10.0667   19.4184  -31.4403 H   0  0  0  0  0  0  0  0  0  0  0  0
   -9.7791   21.9101  -31.2405 H   0  0  0  0  0  0  0  0  0  0  0  0
   -8.0562   23.9362  -32.8090 H   0  0  0  0  0  0  0  0  0  0  0  0
   -8.0699   23.6967  -31.0138 H   0  0  0  0  0  0  0  0  0  0  0  0
   -5.5108   22.8551  -32.0524 H   0  0  0  0  0  0  0  0  0  0  0  0
   -5.8966   24.5124  -32.6719 H   0  0  0  0  0  0  0  0  0  0  0  0
   -6.5307   24.7833  -28.6798 H   0  0  0  0  0  0  0  0  0  0  0  0
   -6.8741   26.0100  -29.9462 H   0  0  0  0  0  0  0  0  0  0  0  0
   -7.7594   24.4471  -29.9462 H   0  0  0  0  0  0  0  0  0  0  0  0
   -1.2999   24.3783  -27.5758 H   0  0  0  0  0  0  0  0  0  0  0  0
   -1.2096   23.4132  -29.0880 H   0  0  0  0  0  0  0  0  0  0  0  0
   -2.0374   25.0073  -29.0880 H   0  0  0  0  0  0  0  0  0  0  0  0
   -3.6412   23.9746  -26.0974 H   0  0  0  0  0  0  0  0  0  0  0  0
   -3.6354   25.3420  -27.2623 H   0  0  0  0  0  0  0  0  0  0  0  0
   -4.9948   24.1678  -27.2623 H   0  0  0  0  0  0  0  0  0  0  0  0
   -2.8648   22.0824  -26.4476 H   0  0  0  0  0  0  0  0  0  0  0  0
   -3.6140   21.3063  -27.8839 H   0  0  0  0  0  0  0  0  0  0  0  0
   -1.8595   21.6913  -27.8839 H   0  0  0  0  0  0  0  0  0  0  0  0
   -5.8357   21.6057  -33.0747 H   0  0  0  0  0  0  0  0  0  0  0  0
  1  2  2  0
  2  3  1  0
  3  4  1  0
  4  5  1  0
  5  6  2  0
  5  7  1  0
  7  8  1  0
  8  9  1  0
  9 10  1  0
  9 11  2  0
  8 12  2  0
 12 13  1  0
 13 14  2  0
 14 15  1  0
 15 16  2  0
 16 17  1  0
 17 18  1  0
 18 19  1  0
 19 20  1  0
 19 21  1  0
 21 22  2  0
 21 23  1  0
 23 24  1  0
 24 25  1  0
 24 26  1  0
 24 27  1  0
 16 28  1  0
 28 29  2  0
 29  7  1  0
 29 13  1  0
  1 30  1  0
  1 31  1  0
  2 32  1  0
  3 33  1  0
  3 34  1  0
 10 35  1  0
 10 36  1  0
 12 37  1  0
 14 38  1  0
 15 39  1  0
 17 40  1  0
 17 41  1  0
 18 42  1  0
 18 43  1  0
 20 44  1  0
 20 45  1  0
 20 46  1  0
 25 47  1  0
 25 48  1  0
 25 49  1  0
 26 50  1  0
 26 51  1  0
 26 52  1  0
 27 53  1  0
 27 54  1  0
 27 55  1  0
 28 56  1  0
M  END
>  <UniqueID>  (84) 
84

>  <SMILES>  (84) 
C=CCOC(=O)n1c(C(N)=O)cc2ccc(CCN(C)C(=O)OC(C)(C)C)cc21

>  <Energy>  (84) 
77.2880628983392

>  <Genealogy>  (84) 
C=CCOC(=O)n1c(C(N)=O)cc2ccc(CCN(C)C(=O)OC(C)(C)C)cc21 (3D coordinates assigned)
C=CCOC(=O)n1c(C(N)=O)cc2ccc(CCN(C)C(=O)OC(C)(C)C)cc21 (optimized conformer: 77.2880628983392 kcal/mol)

>  <smiles>  (84) 
C=CCOC(=O)n1c(C(N)=O)cc2ccc(CCN(C)C(=O)OC(C)(C)C)cc21

>  <score_type>  (84) 
oracle

>  <origin>  (84) 
adg

>  <m_score__min__energy>  (84) 
-8.6899999999999995

>  <m_primary>  (84) 
energy

$$$$
84:0
     RDKit          3D

 50 51  0  0  0  0  0  0  0  0999 V2000
   -0.2270   21.1630  -28.7360 C   0  0  0  0  0  0  0  0  0  0  0  0
   -1.5840   21.8680  -28.5150 C   0  0  0  0  0  0  0  0  0  0  0  0
   -1.5590   22.5440  -27.1270 C   0  0  0  0  0  0  0  0  0  0  0  0
   -2.7010   20.8000  -28.5370 C   0  0  0  0  0  0  0  0  0  0  0  0
   -1.7970   22.9320  -29.6410 C   0  0  1  0  0  0  0  0  0  0  0  0
   -3.1920   23.0520  -29.9400 O   0  0  0  0  0  0  0  0  0  0  0  0
   -3.7760   22.6670  -31.1590 C   0  0  0  0  0  0  0  0  0  0  0  0
   -3.0570   22.1970  -32.0880 O   0  0  0  0  0  0  0  0  0  0  0  0
   -5.2050   22.7680  -31.3250 N   0  0  0  0  0  0  0  0  0  0  0  0
   -6.0050   23.7810  -30.8870 C   0  0  0  0  0  0  0  0  0  0  0  0
   -5.5450   25.0970  -30.4080 C   0  0  0  0  0  0  0  0  0  0  0  0
   -4.1860   25.5010  -30.5790 N   0  0  0  0  0  0  0  0  0  0  0  0
   -6.3740   25.8970  -29.8990 O   0  0  0  0  0  0  0  0  0  0  0  0
   -7.3460   23.4590  -31.0430 C   0  0  0  0  0  0  0  0  0  0  0  0
   -7.3550   22.2130  -31.6260 C   0  0  0  0  0  0  0  0  0  0  0  0
   -8.4300   21.4250  -32.0280 C   0  0  0  0  0  0  0  0  0  0  0  0
   -8.1560   20.1820  -32.6180 C   0  0  0  0  0  0  0  0  0  0  0  0
   -6.8200   19.7450  -32.7850 C   0  0  0  0  0  0  0  0  0  0  0  0
   -6.5300   18.4280  -33.4610 C   0  0  0  0  0  0  0  0  0  0  0  0
   -5.3580   18.5340  -34.4510 C   0  0  0  0  0  0  0  0  0  0  0  0
   -3.9900   18.5640  -33.7610 C   0  0  0  0  0  0  0  0  0  0  0  0
   -3.3870   19.8160  -33.9400 O   0  0  0  0  0  0  0  0  0  0  0  0
   -5.7530   20.5680  -32.3600 C   0  0  0  0  0  0  0  0  0  0  0  0
   -6.0520   21.8150  -31.7880 C   0  0  0  0  0  0  0  0  0  0  0  0
   -1.2610   24.2900  -29.2770 C   0  0  0  0  0  0  0  0  0  0  0  0
   -2.0080   25.3030  -29.3430 O   0  0  0  0  0  0  0  0  0  0  0  0
    0.0640   24.4440  -28.8870 O   0  0  0  0  0  0  0  0  0  0  0  0
    0.2267   20.9273  -27.7620 H   0  0  0  0  0  0  0  0  0  0  0  0
   -0.3849   20.2329  -29.3017 H   0  0  0  0  0  0  0  0  0  0  0  0
    0.4433   21.8269  -29.3017 H   0  0  0  0  0  0  0  0  0  0  0  0
   -1.5875   21.7729  -26.3430 H   0  0  0  0  0  0  0  0  0  0  0  0
   -0.6383   23.1372  -27.0246 H   0  0  0  0  0  0  0  0  0  0  0  0
   -2.4334   23.2035  -27.0246 H   0  0  0  0  0  0  0  0  0  0  0  0
   -2.9767   20.5364  -27.5052 H   0  0  0  0  0  0  0  0  0  0  0  0
   -3.5813   21.2009  -29.0607 H   0  0  0  0  0  0  0  0  0  0  0  0
   -2.3400   19.9026  -29.0607 H   0  0  0  0  0  0  0  0  0  0  0  0
   -1.2361   22.5759  -30.5177 H   0  0  0  0  0  0  0  0  0  0  0  0
   -3.5030   24.8950  -31.0860 H   0  0  0  0  0  0  0  0  0  0  0  0
   -3.8640   26.4270  -30.2160 H   0  0  0  0  0  0  0  0  0  0  0  0
   -8.2161   24.0699  -30.7607 H   0  0  0  0  0  0  0  0  0  0  0  0
   -9.4657   21.7676  -31.8869 H   0  0  0  0  0  0  0  0  0  0  0  0
   -8.9856   19.5422  -32.9533 H   0  0  0  0  0  0  0  0  0  0  0  0
   -6.2792   17.6820  -32.6925 H   0  0  0  0  0  0  0  0  0  0  0  0
   -7.4261   18.1317  -34.0260 H   0  0  0  0  0  0  0  0  0  0  0  0
   -5.3906   17.6664  -35.1265 H   0  0  0  0  0  0  0  0  0  0  0  0
   -5.4724   19.4834  -34.9947 H   0  0  0  0  0  0  0  0  0  0  0  0
   -4.1209   18.3738  -32.6855 H   0  0  0  0  0  0  0  0  0  0  0  0
   -3.3471   17.7886  -34.2031 H   0  0  0  0  0  0  0  0  0  0  0  0
   -3.4130   20.2650  -33.0570 H   0  0  0  0  0  0  0  0  0  0  0  0
   -4.7098   20.2387  -32.4749 H   0  0  0  0  0  0  0  0  0  0  0  0
  1  2  1  0
  2  3  1  0
  2  4  1  0
  2  5  1  0
  5  6  1  0
  6  7  1  0
  7  8  2  0
  7  9  1  0
  9 10  1  0
 10 11  1  0
 11 12  1  0
 11 13  2  0
 10 14  2  0
 14 15  1  0
 15 16  2  0
 16 17  1  0
 17 18  2  0
 18 19  1  0
 19 20  1  0
 20 21  1  0
 21 22  1  0
 18 23  1  0
 23 24  2  0
  5 25  1  0
 25 26  2  0
 25 27  1  0
 24  9  1  0
 24 15  1  0
  1 28  1  0
  1 29  1  0
  1 30  1  0
  3 31  1  0
  3 32  1  0
  3 33  1  0
  4 34  1  0
  4 35  1  0
  4 36  1  0
  5 37  1  6
 12 38  1  0
 12 39  1  0
 14 40  1  0
 16 41  1  0
 17 42  1  0
 19 43  1  0
 19 44  1  0
 20 45  1  0
 20 46  1  0
 21 47  1  0
 21 48  1  0
 22 49  1  0
 23 50  1  0
M  CHG  1  27  -1
M  END
>  <UniqueID>  (85) 
85

>  <SMILES>  (85) 
CC(C)(C)[C@@H](OC(=O)n1c(C(N)=O)cc2ccc(CCCO)cc21)C(=O)[O-]

>  <Energy>  (85) 
81.41709853908645

>  <Genealogy>  (85) 
CC(C)(C)C(OC(=O)n1c(C(N)=O)cc2ccc(CCCO)cc21)C(=O)[O-] (protonated)
CC(C)(C)[C@@H](OC(=O)n1c(C(N)=O)cc2ccc(CCCO)cc21)C(=O)[O-] (chirality)
CC(C)(C)[C@@H](OC(=O)n1c(C(N)=O)cc2ccc(CCCO)cc21)C(=O)[O-] (3D coordinates assigned)
CC(C)(C)[C@@H](OC(=O)n1c(C(N)=O)cc2ccc(CCCO)cc21)C(=O)[O-] (optimized conformer: 81.41709853908645 kcal/mol)

>  <smiles>  (85) 
CC(C)(C)C(OC(=O)n1c(C(N)=O)cc2ccc(CCCO)cc21)C(=O)O

>  <score_type>  (85) 
oracle

>  <origin>  (85) 
adg

>  <m_score__min__energy>  (85) 
-11.68

>  <m_primary>  (85) 
energy

$$$$
85:0
     RDKit          3D

 45 46  0  0  0  0  0  0  0  0999 V2000
   -1.1680   25.3370  -28.6340 C   0  0  0  0  0  0  0  0  0  0  0  0
   -2.3390   24.9980  -29.3420 O   0  0  0  0  0  0  0  0  0  0  0  0
   -3.0420   24.0000  -28.6320 C   0  0  0  0  0  0  0  0  0  0  0  0
   -2.4960   22.6310  -29.0170 C   0  0  0  0  0  0  0  0  0  0  0  0
   -3.4250   21.9740  -29.8730 O   0  0  0  0  0  0  0  0  0  0  0  0
   -3.9590   22.5720  -31.0170 C   0  0  0  0  0  0  0  0  0  0  0  0
   -3.2000   22.9410  -31.9540 O   0  0  0  0  0  0  0  0  0  0  0  0
   -5.3800   22.7510  -31.1300 N   0  0  0  0  0  0  0  0  0  0  0  0
   -6.0930   23.8990  -30.9570 C   0  0  0  0  0  0  0  0  0  0  0  0
   -5.5580   25.1820  -30.4560 C   0  0  0  0  0  0  0  0  0  0  0  0
   -4.2200   25.5910  -30.7460 N   0  0  0  0  0  0  0  0  0  0  0  0
   -6.2770   25.9040  -29.7160 O   0  0  0  0  0  0  0  0  0  0  0  0
   -7.4340   23.7000  -31.2710 C   0  0  0  0  0  0  0  0  0  0  0  0
   -7.5280   22.3760  -31.6340 C   0  0  0  0  0  0  0  0  0  0  0  0
   -8.6330   21.6420  -32.0550 C   0  0  0  0  0  0  0  0  0  0  0  0
   -8.4360   20.2970  -32.4040 C   0  0  0  0  0  0  0  0  0  0  0  0
   -7.1440   19.7110  -32.3400 C   0  0  0  0  0  0  0  0  0  0  0  0
   -6.9260   18.2630  -32.7340 C   0  0  2  0  0  0  0  0  0  0  0  0
   -6.4550   17.4260  -31.5380 C   0  0  0  0  0  0  0  0  0  0  0  0
   -5.9790   18.1720  -33.9000 C   0  0  0  0  0  0  0  0  0  0  0  0
   -6.0940   18.9560  -34.8810 O   0  0  0  0  0  0  0  0  0  0  0  0
   -5.0090   17.1640  -33.9080 O   0  0  0  0  0  0  0  0  0  0  0  0
   -4.0760   17.0080  -34.9700 C   0  0  0  0  0  0  0  0  0  0  0  0
   -6.0460   20.4930  -31.9100 C   0  0  0  0  0  0  0  0  0  0  0  0
   -6.2770   21.8250  -31.5440 C   0  0  0  0  0  0  0  0  0  0  0  0
   -1.3637   25.2803  -27.5530 H   0  0  0  0  0  0  0  0  0  0  0  0
   -0.3635   24.6349  -28.8983 H   0  0  0  0  0  0  0  0  0  0  0  0
   -0.8630   26.3603  -28.8983 H   0  0  0  0  0  0  0  0  0  0  0  0
   -2.9119   24.1570  -27.5511 H   0  0  0  0  0  0  0  0  0  0  0  0
   -4.1120   24.0541  -28.8814 H   0  0  0  0  0  0  0  0  0  0  0  0
   -1.5368   22.7529  -29.5414 H   0  0  0  0  0  0  0  0  0  0  0  0
   -2.3433   22.0283  -28.1096 H   0  0  0  0  0  0  0  0  0  0  0  0
   -3.8700   26.5140  -30.4040 H   0  0  0  0  0  0  0  0  0  0  0  0
   -3.5480   24.9450  -31.2130 H   0  0  0  0  0  0  0  0  0  0  0  0
   -8.2452   24.4422  -31.2364 H   0  0  0  0  0  0  0  0  0  0  0  0
   -9.6305   22.1021  -32.1125 H   0  0  0  0  0  0  0  0  0  0  0  0
   -9.2927   19.6894  -32.7310 H   0  0  0  0  0  0  0  0  0  0  0  0
   -7.8888   17.8393  -33.0556 H   0  0  0  0  0  0  0  0  0  0  0  0
   -6.7390   17.9306  -30.6027 H   0  0  0  0  0  0  0  0  0  0  0  0
   -6.9269   16.4331  -31.5768 H   0  0  0  0  0  0  0  0  0  0  0  0
   -5.3614   17.3140  -31.5768 H   0  0  0  0  0  0  0  0  0  0  0  0
   -3.0716   16.8401  -34.5540 H   0  0  0  0  0  0  0  0  0  0  0  0
   -4.3655   16.1458  -35.5887 H   0  0  0  0  0  0  0  0  0  0  0  0
   -4.0693   17.9175  -35.5887 H   0  0  0  0  0  0  0  0  0  0  0  0
   -5.0339   20.0645  -31.8642 H   0  0  0  0  0  0  0  0  0  0  0  0
  1  2  1  0
  2  3  1  0
  3  4  1  0
  4  5  1  0
  5  6  1  0
  6  7  2  0
  6  8  1  0
  8  9  1  0
  9 10  1  0
 10 11  1  0
 10 12  2  0
  9 13  2  0
 13 14  1  0
 14 15  2  0
 15 16  1  0
 16 17  2  0
 17 18  1  0
 18 19  1  0
 18 20  1  0
 20 21  2  0
 20 22  1  0
 22 23  1  0
 17 24  1  0
 24 25  2  0
 25  8  1  0
 25 14  1  0
  1 26  1  0
  1 27  1  0
  1 28  1  0
  3 29  1  0
  3 30  1  0
  4 31  1  0
  4 32  1  0
 11 33  1  0
 11 34  1  0
 13 35  1  0
 15 36  1  0
 16 37  1  0
 18 38  1  6
 19 39  1  0
 19 40  1  0
 19 41  1  0
 23 42  1  0
 23 43  1  0
 23 44  1  0
 24 45  1  0
M  END
>  <UniqueID>  (86) 
86

>  <SMILES>  (86) 
COCCOC(=O)n1c(C(N)=O)cc2ccc([C@H](C)C(=O)OC)cc21

>  <Energy>  (86) 
75.78454110167705

>  <Genealogy>  (86) 
COCCOC(=O)n1c(C(N)=O)cc2ccc([C@H](C)C(=O)OC)cc21 (chirality)
COCCOC(=O)n1c(C(N)=O)cc2ccc([C@H](C)C(=O)OC)cc21 (3D coordinates assigned)
COCCOC(=O)n1c(C(N)=O)cc2ccc([C@H](C)C(=O)OC)cc21 (optimized conformer: 75.78454110167705 kcal/mol)

>  <smiles>  (86) 
COCCOC(=O)n1c(C(N)=O)cc2ccc(C(C)C(=O)OC)cc21

>  <score_type>  (86) 
oracle

>  <origin>  (86) 
adg

>  <m_score__min__energy>  (86) 
-8.5899999999999999

>  <m_primary>  (86) 
energy

$$$$
86:0
     RDKit          3D

 43 44  0  0  0  0  0  0  0  0999 V2000
   -3.8790   25.2950  -30.8950 N   0  0  0  0  0  0  0  0  0  0  0  0
   -5.2500   25.2540  -30.5060 C   0  0  0  0  0  0  0  0  0  0  0  0
   -5.7700   26.2710  -29.9740 O   0  0  0  0  0  0  0  0  0  0  0  0
   -6.0840   24.0610  -30.7750 C   0  0  0  0  0  0  0  0  0  0  0  0
   -7.4140   24.1340  -31.1830 C   0  0  0  0  0  0  0  0  0  0  0  0
   -7.7930   22.8340  -31.4310 C   0  0  0  0  0  0  0  0  0  0  0  0
   -9.0130   22.3250  -31.8690 C   0  0  0  0  0  0  0  0  0  0  0  0
   -9.1250   20.9340  -32.0300 C   0  0  0  0  0  0  0  0  0  0  0  0
   -8.0310   20.0830  -31.7340 C   0  0  0  0  0  0  0  0  0  0  0  0
   -8.1570   18.5980  -31.9320 C   0  0  0  0  0  0  0  0  0  0  0  0
   -6.8010   17.9670  -31.9350 C   0  0  0  0  0  0  0  0  0  0  0  0
   -6.2630   17.6430  -30.8400 O   0  0  0  0  0  0  0  0  0  0  0  0
   -6.1640   17.7200  -33.1590 O   0  0  0  0  0  0  0  0  0  0  0  0
   -5.6140   18.7090  -33.9870 C   0  0  0  0  0  0  0  0  0  0  0  0
   -6.0880   18.9340  -35.1340 O   0  0  0  0  0  0  0  0  0  0  0  0
   -4.4900   19.5510  -33.4800 C   0  0  0  0  0  0  0  0  0  0  0  0
   -4.2060   19.2200  -32.1680 F   0  0  0  0  0  0  0  0  0  0  0  0
   -3.3680   19.3350  -34.2580 F   0  0  0  0  0  0  0  0  0  0  0  0
   -4.8370   20.8890  -33.5410 F   0  0  0  0  0  0  0  0  0  0  0  0
   -6.8060   20.6370  -31.2990 C   0  0  0  0  0  0  0  0  0  0  0  0
   -6.7170   22.0280  -31.1670 C   0  0  0  0  0  0  0  0  0  0  0  0
   -5.6620   22.7640  -30.7550 N   0  0  0  0  0  0  0  0  0  0  0  0
   -4.3890   22.2510  -30.3340 C   0  0  0  0  0  0  0  0  0  0  0  0
   -3.6220   21.7020  -31.1720 O   0  0  0  0  0  0  0  0  0  0  0  0
   -4.0000   22.3860  -28.9990 O   0  0  0  0  0  0  0  0  0  0  0  0
   -4.1920   23.5840  -28.2540 C   0  0  0  0  0  0  0  0  0  0  0  0
   -2.9050   23.9450  -27.5190 C   0  0  0  0  0  0  0  0  0  0  0  0
   -1.5730   24.3830  -28.6840 P   0  0  2  0  0  0  0  0  0  0  0  0
   -0.2410   24.0110  -28.0740 O   0  0  0  0  0  0  0  0  0  0  0  0
   -1.6020   26.0480  -28.9820 O   0  0  0  0  0  0  0  0  0  0  0  0
   -1.7690   23.5440  -30.1410 O   0  0  0  0  0  0  0  0  0  0  0  0
   -3.1180   25.2770  -30.1820 H   0  0  0  0  0  0  0  0  0  0  0  0
   -8.0309   25.0390  -31.2854 H   0  0  0  0  0  0  0  0  0  0  0  0
   -9.8621   22.9911  -32.0821 H   0  0  0  0  0  0  0  0  0  0  0  0
  -10.0704   20.5013  -32.3891 H   0  0  0  0  0  0  0  0  0  0  0  0
   -8.7561   18.1707  -31.1144 H   0  0  0  0  0  0  0  0  0  0  0  0
   -8.6493   18.4021  -32.8960 H   0  0  0  0  0  0  0  0  0  0  0  0
   -5.9447   19.9922  -31.0700 H   0  0  0  0  0  0  0  0  0  0  0  0
   -4.4632   24.4009  -28.9389 H   0  0  0  0  0  0  0  0  0  0  0  0
   -4.9989   23.4321  -27.5220 H   0  0  0  0  0  0  0  0  0  0  0  0
   -3.0989   24.8029  -26.8584 H   0  0  0  0  0  0  0  0  0  0  0  0
   -2.5816   23.0692  -26.9374 H   0  0  0  0  0  0  0  0  0  0  0  0
   -2.7430   23.5580  -30.3160 H   0  0  0  0  0  0  0  0  0  0  0  0
  1  2  1  0
  2  3  2  0
  2  4  1  0
  4  5  2  0
  5  6  1  0
  6  7  2  0
  7  8  1  0
  8  9  2  0
  9 10  1  0
 10 11  1  0
 11 12  2  0
 11 13  1  0
 13 14  1  0
 14 15  2  0
 14 16  1  0
 16 17  1  0
 16 18  1  0
 16 19  1  0
  9 20  1  0
 20 21  2  0
 21 22  1  0
 22 23  1  0
 23 24  2  0
 23 25  1  0
 25 26  1  0
 26 27  1  0
 27 28  1  0
 28 29  2  0
 28 30  1  6
 28 31  1  0
 22  4  1  0
 21  6  1  0
  1 32  1  0
  5 33  1  0
  7 34  1  0
  8 35  1  0
 10 36  1  0
 10 37  1  0
 20 38  1  0
 26 39  1  0
 26 40  1  0
 27 41  1  0
 27 42  1  0
 31 43  1  0
M  CHG  2   1  -1  30  -1
M  END
>  <UniqueID>  (87) 
87

>  <SMILES>  (87) 
[NH-]C(=O)c1cc2ccc(CC(=O)OC(=O)C(F)(F)F)cc2n1C(=O)OCC[P@](=O)([O-])O

>  <Energy>  (87) 
68.71003407341985

>  <Genealogy>  (87) 
[NH-]C(=O)c1cc2ccc(CC(=O)OC(=O)C(F)(F)F)cc2n1C(=O)OCCP(=O)([O-])O (protonated)
[NH-]C(=O)c1cc2ccc(CC(=O)OC(=O)C(F)(F)F)cc2n1C(=O)OCC[P@](=O)([O-])O (chirality)
[NH-]C(=O)c1cc2ccc(CC(=O)OC(=O)C(F)(F)F)cc2n1C(=O)OCC[P@](=O)([O-])O (3D coordinates assigned)
[NH-]C(=O)c1cc2ccc(CC(=O)OC(=O)C(F)(F)F)cc2n1C(=O)OCC[P@](=O)([O-])O (optimized conformer: 68.71003407341985 kcal/mol)

>  <smiles>  (87) 
NC(=O)c1cc2ccc(CC(=O)OC(=O)C(F)(F)F)cc2n1C(=O)OCCP(=O)(O)O

>  <score_type>  (87) 
oracle

>  <origin>  (87) 
adg

>  <m_score__min__energy>  (87) 
-12.44

>  <m_primary>  (87) 
energy

$$$$
87:0
     RDKit          3D

 47 49  0  0  0  0  0  0  0  0999 V2000
   -6.4300   17.3170  -33.8970 C   0  0  0  0  0  0  0  0  0  0  0  0
   -6.6930   18.2050  -32.7590 N   0  0  0  0  0  0  0  0  0  0  0  0
   -7.6320   17.7970  -31.7100 C   0  0  0  0  0  0  0  0  0  0  0  0
   -6.0470   19.4940  -32.6540 C   0  0  0  0  0  0  0  0  0  0  0  0
   -6.4440   20.3210  -31.7880 O   0  0  0  0  0  0  0  0  0  0  0  0
   -4.9000   19.8920  -33.5480 C   0  0  0  0  0  0  0  0  0  0  0  0
   -3.7620   20.5010  -32.7700 C   0  0  0  0  0  0  0  0  0  0  0  0
   -2.4720   19.9120  -32.8200 C   0  0  0  0  0  0  0  0  0  0  0  0
   -1.4070   20.4510  -32.0780 C   0  0  0  0  0  0  0  0  0  0  0  0
   -1.6630   21.5690  -31.2890 C   0  0  0  0  0  0  0  0  0  0  0  0
   -0.8130   22.3160  -30.5010 C   0  0  0  0  0  0  0  0  0  0  0  0
   -1.6020   23.3420  -29.9820 C   0  0  0  0  0  0  0  0  0  0  0  0
   -1.1030   24.3890  -29.0690 C   0  0  0  0  0  0  0  0  0  0  0  0
   -1.7980   25.6280  -28.9600 N   0  0  0  0  0  0  0  0  0  0  0  0
   -0.0530   24.2070  -28.3970 O   0  0  0  0  0  0  0  0  0  0  0  0
   -2.8830   23.2270  -30.4270 N   0  0  0  0  0  0  0  0  0  0  0  0
   -3.9570   24.1660  -30.2720 C   0  0  0  0  0  0  0  0  0  0  0  0
   -3.8900   25.2860  -30.8440 O   0  0  0  0  0  0  0  0  0  0  0  0
   -5.1570   23.8310  -29.4310 C   0  0  0  0  0  0  0  0  0  0  0  0
   -6.3250   23.4210  -30.2900 C   0  0  0  0  0  0  0  0  0  0  0  0
   -7.3190   22.5710  -29.7770 C   0  0  0  0  0  0  0  0  0  0  0  0
   -8.3660   22.1380  -30.5950 C   0  0  0  0  0  0  0  0  0  0  0  0
   -8.4210   22.5360  -31.9340 C   0  0  0  0  0  0  0  0  0  0  0  0
   -7.4320   23.3730  -32.4550 C   0  0  0  0  0  0  0  0  0  0  0  0
   -6.3860   23.8150  -31.6390 C   0  0  0  0  0  0  0  0  0  0  0  0
   -2.9040   22.1390  -31.2220 C   0  0  0  0  0  0  0  0  0  0  0  0
   -3.9830   21.6290  -31.9480 C   0  0  0  0  0  0  0  0  0  0  0  0
   -6.1358   16.3238  -33.5268 H   0  0  0  0  0  0  0  0  0  0  0  0
   -7.3397   17.2257  -34.5087 H   0  0  0  0  0  0  0  0  0  0  0  0
   -5.6173   17.7358  -34.5087 H   0  0  0  0  0  0  0  0  0  0  0  0
   -7.1862   17.9907  -30.7232 H   0  0  0  0  0  0  0  0  0  0  0  0
   -8.5652   18.3708  -31.8098 H   0  0  0  0  0  0  0  0  0  0  0  0
   -7.8493   16.7233  -31.8098 H   0  0  0  0  0  0  0  0  0  0  0  0
   -4.5326   18.9981  -34.0734 H   0  0  0  0  0  0  0  0  0  0  0  0
   -5.2688   20.6474  -34.2575 H   0  0  0  0  0  0  0  0  0  0  0  0
   -2.3036   19.0236  -33.4465 H   0  0  0  0  0  0  0  0  0  0  0  0
   -0.4029   20.0036  -32.1194 H   0  0  0  0  0  0  0  0  0  0  0  0
    0.2578   22.1403  -30.3205 H   0  0  0  0  0  0  0  0  0  0  0  0
   -2.8180   25.6930  -29.1740 H   0  0  0  0  0  0  0  0  0  0  0  0
   -4.9010   23.0028  -28.7538 H   0  0  0  0  0  0  0  0  0  0  0  0
   -5.4423   24.7255  -28.8578 H   0  0  0  0  0  0  0  0  0  0  0  0
   -7.2730   22.2451  -28.7274 H   0  0  0  0  0  0  0  0  0  0  0  0
   -9.1484   21.4827  -30.1845 H   0  0  0  0  0  0  0  0  0  0  0  0
   -9.2434   22.1898  -32.5773 H   0  0  0  0  0  0  0  0  0  0  0  0
   -7.4759   23.6851  -33.5089 H   0  0  0  0  0  0  0  0  0  0  0  0
   -5.6081   24.4731  -32.0534 H   0  0  0  0  0  0  0  0  0  0  0  0
   -4.9781   22.0931  -31.8816 H   0  0  0  0  0  0  0  0  0  0  0  0
  1  2  1  0
  2  3  1  0
  2  4  1  0
  4  5  2  0
  4  6  1  0
  6  7  1  0
  7  8  2  0
  8  9  1  0
  9 10  2  0
 10 11  1  0
 11 12  2  0
 12 13  1  0
 13 14  1  0
 13 15  2  0
 12 16  1  0
 16 17  1  0
 17 18  2  0
 17 19  1  0
 19 20  1  0
 20 21  2  0
 21 22  1  0
 22 23  2  0
 23 24  1  0
 24 25  2  0
 16 26  1  0
 26 27  2  0
 27  7  1  0
 26 10  1  0
 25 20  1  0
  1 28  1  0
  1 29  1  0
  1 30  1  0
  3 31  1  0
  3 32  1  0
  3 33  1  0
  6 34  1  0
  6 35  1  0
  8 36  1  0
  9 37  1  0
 11 38  1  0
 14 39  1  0
 19 40  1  0
 19 41  1  0
 21 42  1  0
 22 43  1  0
 23 44  1  0
 24 45  1  0
 25 46  1  0
 27 47  1  0
M  CHG  1  14  -1
M  END
>  <UniqueID>  (88) 
88

>  <SMILES>  (88) 
CN(C)C(=O)Cc1ccc2cc(C([NH-])=O)n(C(=O)Cc3ccccc3)c2c1

>  <Energy>  (88) 
80.62007905265109

>  <Genealogy>  (88) 
CN(C)C(=O)Cc1ccc2cc(C([NH-])=O)n(C(=O)Cc3ccccc3)c2c1 (protonated)
CN(C)C(=O)Cc1ccc2cc(C([NH-])=O)n(C(=O)Cc3ccccc3)c2c1 (3D coordinates assigned)
CN(C)C(=O)Cc1ccc2cc(C([NH-])=O)n(C(=O)Cc3ccccc3)c2c1 (optimized conformer: 80.62007905265109 kcal/mol)

>  <smiles>  (88) 
CN(C)C(=O)Cc1ccc2cc(C(N)=O)n(C(=O)Cc3ccccc3)c2c1

>  <score_type>  (88) 
oracle

>  <origin>  (88) 
adg

>  <m_score__min__energy>  (88) 
-12.199999999999999

>  <m_primary>  (88) 
energy

$$$$
88:0
     RDKit          3D

 40 41  0  0  0  0  0  0  0  0999 V2000
   -3.6890   18.3760  -34.6600 N   0  0  0  0  0  0  0  0  0  0  0  0
   -5.0660   18.2330  -34.3100 C   0  0  0  0  0  0  0  0  0  0  0  0
   -5.6990   17.2190  -34.7110 O   0  0  0  0  0  0  0  0  0  0  0  0
   -5.7580   19.2740  -33.5180 C   0  0  0  0  0  0  0  0  0  0  0  0
   -7.0990   19.2040  -33.1460 C   0  0  0  0  0  0  0  0  0  0  0  0
   -7.3150   20.3060  -32.3510 C   0  0  0  0  0  0  0  0  0  0  0  0
   -8.4790   20.7430  -31.7240 C   0  0  0  0  0  0  0  0  0  0  0  0
   -8.4230   21.9410  -30.9920 C   0  0  0  0  0  0  0  0  0  0  0  0
   -7.2130   22.6720  -30.8970 C   0  0  0  0  0  0  0  0  0  0  0  0
   -7.1800   23.9800  -30.1520 C   0  0  0  0  0  0  0  0  0  0  0  0
   -6.1110   24.9080  -30.7400 C   0  0  0  0  0  0  0  0  0  0  0  0
   -4.7740   24.7720  -30.0040 C   0  0  0  0  0  0  0  0  0  0  0  0
   -3.7250   25.3040  -30.7680 O   0  0  0  0  0  0  0  0  0  0  0  0
   -6.0550   22.2050  -31.5570 C   0  0  0  0  0  0  0  0  0  0  0  0
   -6.1350   21.0000  -32.2650 C   0  0  0  0  0  0  0  0  0  0  0  0
   -5.1690   20.3780  -32.9760 N   0  0  0  0  0  0  0  0  0  0  0  0
   -3.8240   20.8410  -33.1840 C   0  0  0  0  0  0  0  0  0  0  0  0
   -3.6220   21.9620  -33.7260 O   0  0  0  0  0  0  0  0  0  0  0  0
   -2.7450   20.0410  -32.7910 O   0  0  0  0  0  0  0  0  0  0  0  0
   -1.4460   20.5570  -32.5070 C   0  0  0  0  0  0  0  0  0  0  0  0
   -0.6070   20.6320  -33.7830 C   0  0  0  0  0  0  0  0  0  0  0  0
   -1.4030   20.3570  -34.9030 O   0  0  0  0  0  0  0  0  0  0  0  0
   -3.1180   19.1740  -34.3020 H   0  0  0  0  0  0  0  0  0  0  0  0
   -3.2210   17.6550  -35.2520 H   0  0  0  0  0  0  0  0  0  0  0  0
   -7.8298   18.4317  -33.4280 H   0  0  0  0  0  0  0  0  0  0  0  0
   -9.4137   20.1680  -31.7995 H   0  0  0  0  0  0  0  0  0  0  0  0
   -9.3266   22.3147  -30.4882 H   0  0  0  0  0  0  0  0  0  0  0  0
   -8.1637   24.4659  -30.2307 H   0  0  0  0  0  0  0  0  0  0  0  0
   -6.9371   23.7819  -29.0976 H   0  0  0  0  0  0  0  0  0  0  0  0
   -5.9619   24.6533  -31.7997 H   0  0  0  0  0  0  0  0  0  0  0  0
   -6.4593   25.9454  -30.6286 H   0  0  0  0  0  0  0  0  0  0  0  0
   -4.8329   25.3124  -29.0477 H   0  0  0  0  0  0  0  0  0  0  0  0
   -4.5756   23.7040  -29.8307 H   0  0  0  0  0  0  0  0  0  0  0  0
   -4.1330   25.6680  -31.5970 H   0  0  0  0  0  0  0  0  0  0  0  0
   -5.1143   22.7736  -31.5158 H   0  0  0  0  0  0  0  0  0  0  0  0
   -1.5432   21.5653  -32.0782 H   0  0  0  0  0  0  0  0  0  0  0  0
   -0.9461   19.8866  -31.7923 H   0  0  0  0  0  0  0  0  0  0  0  0
   -0.1813   21.6417  -33.8790 H   0  0  0  0  0  0  0  0  0  0  0  0
    0.2007   19.8875  -33.7255 H   0  0  0  0  0  0  0  0  0  0  0  0
   -2.2540   20.8520  -34.7740 H   0  0  0  0  0  0  0  0  0  0  0  0
  1  2  1  0
  2  3  2  0
  2  4  1  0
  4  5  2  0
  5  6  1  0
  6  7  2  0
  7  8  1  0
  8  9  2  0
  9 10  1  0
 10 11  1  0
 11 12  1  0
 12 13  1  0
  9 14  1  0
 14 15  2  0
 15 16  1  0
 16 17  1  0
 17 18  2  0
 17 19  1  0
 19 20  1  0
 20 21  1  0
 21 22  1  0
 16  4  1  0
 15  6  1  0
  1 23  1  0
  1 24  1  0
  5 25  1  0
  7 26  1  0
  8 27  1  0
 10 28  1  0
 10 29  1  0
 11 30  1  0
 11 31  1  0
 12 32  1  0
 12 33  1  0
 13 34  1  0
 14 35  1  0
 20 36  1  0
 20 37  1  0
 21 38  1  0
 21 39  1  0
 22 40  1  0
M  END
>  <UniqueID>  (89) 
89

>  <SMILES>  (89) 
NC(=O)c1cc2ccc(CCCO)cc2n1C(=O)OCCO

>  <Energy>  (89) 
69.82691484715775

>  <Genealogy>  (89) 
NC(=O)c1cc2ccc(CCCO)cc2n1C(=O)OCCO (3D coordinates assigned)
NC(=O)c1cc2ccc(CCCO)cc2n1C(=O)OCCO (optimized conformer: 69.82691484715775 kcal/mol)

>  <smiles>  (89) 
NC(=O)c1cc2ccc(CCCO)cc2n1C(=O)OCCO

>  <score_type>  (89) 
oracle

>  <origin>  (89) 
adg

>  <m_score__min__energy>  (89) 
-8.4399999999999995

>  <m_primary>  (89) 
energy

$$$$
89:0
     RDKit          3D

 50 51  0  0  0  0  0  0  0  0999 V2000
   -5.3590   25.5910  -30.8380 C   0  0  0  0  0  0  0  0  0  0  0  0
   -3.9160   25.4280  -30.7420 N   0  0  0  0  0  0  0  0  0  0  0  0
   -3.2580   24.5310  -29.8400 C   0  0  0  0  0  0  0  0  0  0  0  0
   -2.1620   24.8860  -29.3300 O   0  0  0  0  0  0  0  0  0  0  0  0
   -3.8030   23.1530  -29.5580 C   0  0  0  0  0  0  0  0  0  0  0  0
   -3.3480   22.1580  -30.5960 C   0  0  0  0  0  0  0  0  0  0  0  0
   -1.9680   21.9180  -30.7860 C   0  0  0  0  0  0  0  0  0  0  0  0
   -1.5350   20.9780  -31.7330 C   0  0  0  0  0  0  0  0  0  0  0  0
   -2.4980   20.3380  -32.5090 C   0  0  0  0  0  0  0  0  0  0  0  0
   -2.3480   19.3130  -33.4070 C   0  0  0  0  0  0  0  0  0  0  0  0
   -3.6340   19.0030  -33.8280 C   0  0  0  0  0  0  0  0  0  0  0  0
   -3.9270   17.8450  -34.6920 C   0  0  0  0  0  0  0  0  0  0  0  0
   -5.2660   17.4190  -34.9320 N   0  0  0  0  0  0  0  0  0  0  0  0
   -2.9780   17.2520  -35.2710 O   0  0  0  0  0  0  0  0  0  0  0  0
   -4.5580   19.8190  -33.2350 N   0  0  0  0  0  0  0  0  0  0  0  0
   -5.9930   19.7450  -33.3980 C   0  0  0  0  0  0  0  0  0  0  0  0
   -6.4850   19.8700  -34.5530 O   0  0  0  0  0  0  0  0  0  0  0  0
   -6.9410   19.6020  -32.2120 C   0  0  2  0  0  0  0  0  0  0  0  0
   -7.4940   18.2470  -32.1620 N   0  0  0  0  0  0  0  0  0  0  0  0
   -6.8260   17.0730  -32.6310 C   0  0  0  0  0  0  0  0  0  0  0  0
   -7.2160   16.4920  -33.6800 O   0  0  0  0  0  0  0  0  0  0  0  0
   -5.7390   16.5760  -31.9090 O   0  0  0  0  0  0  0  0  0  0  0  0
   -4.9700   15.4640  -32.3500 C   0  0  0  0  0  0  0  0  0  0  0  0
   -8.1050   20.6230  -32.2280 C   0  0  0  0  0  0  0  0  0  0  0  0
   -8.0670   21.6050  -31.0450 C   0  0  0  0  0  0  0  0  0  0  0  0
   -9.4730   19.9350  -32.3470 C   0  0  0  0  0  0  0  0  0  0  0  0
   -3.8400   20.6090  -32.3940 C   0  0  0  0  0  0  0  0  0  0  0  0
   -4.2980   21.4860  -31.3970 C   0  0  0  0  0  0  0  0  0  0  0  0
   -5.7905   25.6397  -29.8274 H   0  0  0  0  0  0  0  0  0  0  0  0
   -5.5878   26.5207  -31.3796 H   0  0  0  0  0  0  0  0  0  0  0  0
   -5.7894   24.7358  -31.3796 H   0  0  0  0  0  0  0  0  0  0  0  0
   -3.4511   22.8245  -28.5689 H   0  0  0  0  0  0  0  0  0  0  0  0
   -4.9015   23.2031  -29.5848 H   0  0  0  0  0  0  0  0  0  0  0  0
   -1.2293   22.4716  -30.1878 H   0  0  0  0  0  0  0  0  0  0  0  0
   -0.4657   20.7530  -31.8590 H   0  0  0  0  0  0  0  0  0  0  0  0
   -1.4088   18.8375  -33.7260 H   0  0  0  0  0  0  0  0  0  0  0  0
   -5.4490   16.5500  -35.4830 H   0  0  0  0  0  0  0  0  0  0  0  0
   -6.0690   18.0330  -34.6900 H   0  0  0  0  0  0  0  0  0  0  0  0
   -6.3372   19.8067  -31.3156 H   0  0  0  0  0  0  0  0  0  0  0  0
   -4.5888   14.9128  -31.4777 H   0  0  0  0  0  0  0  0  0  0  0  0
   -5.6019   14.7987  -32.9567 H   0  0  0  0  0  0  0  0  0  0  0  0
   -4.1245   15.8204  -32.9567 H   0  0  0  0  0  0  0  0  0  0  0  0
   -7.9575   21.2284  -33.1345 H   0  0  0  0  0  0  0  0  0  0  0  0
   -8.0888   21.0420  -30.1003 H   0  0  0  0  0  0  0  0  0  0  0  0
   -7.1450   22.2030  -31.0943 H   0  0  0  0  0  0  0  0  0  0  0  0
   -8.9400   22.2724  -31.0943 H   0  0  0  0  0  0  0  0  0  0  0  0
   -9.8714   19.7346  -31.3414 H   0  0  0  0  0  0  0  0  0  0  0  0
  -10.1672   20.5912  -32.8924 H   0  0  0  0  0  0  0  0  0  0  0  0
   -9.3602   18.9864  -32.8924 H   0  0  0  0  0  0  0  0  0  0  0  0
   -5.3753   21.6464  -31.2429 H   0  0  0  0  0  0  0  0  0  0  0  0
  1  2  1  0
  2  3  1  0
  3  4  2  0
  3  5  1  0
  5  6  1  0
  6  7  2  0
  7  8  1  0
  8  9  2  0
  9 10  1  0
 10 11  2  0
 11 12  1  0
 12 13  1  0
 12 14  2  0
 11 15  1  0
 15 16  1  0
 16 17  2  0
 16 18  1  0
 18 19  1  0
 19 20  1  0
 20 21  2  0
 20 22  1  0
 22 23  1  0
 18 24  1  0
 24 25  1  0
 24 26  1  0
 15 27  1  0
 27 28  2  0
 28  6  1  0
 27  9  1  0
  1 29  1  0
  1 30  1  0
  1 31  1  0
  5 32  1  0
  5 33  1  0
  7 34  1  0
  8 35  1  0
 10 36  1  0
 13 37  1  0
 13 38  1  0
 18 39  1  1
 23 40  1  0
 23 41  1  0
 23 42  1  0
 24 43  1  0
 25 44  1  0
 25 45  1  0
 25 46  1  0
 26 47  1  0
 26 48  1  0
 26 49  1  0
 28 50  1  0
M  CHG  2   2  -1  19  -1
M  END
>  <UniqueID>  (90) 
90

>  <SMILES>  (90) 
C[N-]C(=O)Cc1ccc2cc(C(N)=O)n(C(=O)[C@H]([N-]C(=O)OC)C(C)C)c2c1

>  <Energy>  (90) 
84.09600775471891

>  <Genealogy>  (90) 
C[N-]C(=O)Cc1ccc2cc(C(N)=O)n(C(=O)C([N-]C(=O)OC)C(C)C)c2c1 (protonated)
C[N-]C(=O)Cc1ccc2cc(C(N)=O)n(C(=O)[C@H]([N-]C(=O)OC)C(C)C)c2c1 (chirality)
C[N-]C(=O)Cc1ccc2cc(C(N)=O)n(C(=O)[C@H]([N-]C(=O)OC)C(C)C)c2c1 (3D coordinates assigned)
C[N-]C(=O)Cc1ccc2cc(C(N)=O)n(C(=O)[C@H]([N-]C(=O)OC)C(C)C)c2c1 (optimized conformer: 84.09600775471891 kcal/mol)

>  <smiles>  (90) 
CNC(=O)Cc1ccc2cc(C(N)=O)n(C(=O)C(NC(=O)OC)C(C)C)c2c1

>  <score_type>  (90) 
oracle

>  <origin>  (90) 
adg

>  <m_score__min__energy>  (90) 
-10.52

>  <m_primary>  (90) 
energy

$$$$
90:0
     RDKit          3D

 45 47  0  0  0  0  0  0  0  0999 V2000
   -0.8870   26.2890  -28.0010 C   0  0  0  0  0  0  0  0  0  0  0  0
   -1.6870   25.6370  -28.9650 O   0  0  0  0  0  0  0  0  0  0  0  0
   -2.0460   24.3420  -28.5170 C   0  0  0  0  0  0  0  0  0  0  0  0
   -1.2460   23.2640  -29.2560 C   0  0  0  0  0  0  0  0  0  0  0  0
   -1.8920   21.8800  -29.1240 C   0  0  0  0  0  0  0  0  0  0  0  0
   -3.2130   21.8960  -29.6580 O   0  0  0  0  0  0  0  0  0  0  0  0
   -3.5700   22.6010  -30.8130 C   0  0  0  0  0  0  0  0  0  0  0  0
   -2.6810   23.0590  -31.5810 O   0  0  0  0  0  0  0  0  0  0  0  0
   -4.9570   22.7850  -31.1350 N   0  0  0  0  0  0  0  0  0  0  0  0
   -5.7250   23.8890  -30.9110 C   0  0  0  0  0  0  0  0  0  0  0  0
   -5.2390   25.2030  -30.4440 C   0  0  0  0  0  0  0  0  0  0  0  0
   -3.9350   25.6660  -30.7810 N   0  0  0  0  0  0  0  0  0  0  0  0
   -6.0050   25.9490  -29.7760 O   0  0  0  0  0  0  0  0  0  0  0  0
   -7.0490   23.6420  -31.2650 C   0  0  0  0  0  0  0  0  0  0  0  0
   -7.0690   22.3440  -31.7220 C   0  0  0  0  0  0  0  0  0  0  0  0
   -8.1300   21.5760  -32.1880 C   0  0  0  0  0  0  0  0  0  0  0  0
   -7.8690   20.2470  -32.5640 C   0  0  0  0  0  0  0  0  0  0  0  0
   -6.5600   19.7080  -32.4630 C   0  0  0  0  0  0  0  0  0  0  0  0
   -6.2950   18.2980  -32.8510 C   0  0  0  0  0  0  0  0  0  0  0  0
   -5.9970   17.3230  -31.8870 C   0  0  0  0  0  0  0  0  0  0  0  0
   -5.7570   16.0400  -32.2660 N   0  0  0  0  0  0  0  0  0  0  0  0
   -5.8020   15.6750  -33.5730 C   0  0  0  0  0  0  0  0  0  0  0  0
   -5.5490   14.3220  -33.9460 N   0  0  0  0  0  0  0  0  0  0  0  0
   -6.0910   16.5990  -34.5250 N   0  0  0  0  0  0  0  0  0  0  0  0
   -6.3350   17.8940  -34.1940 C   0  0  0  0  0  0  0  0  0  0  0  0
   -5.5070   20.5240  -31.9820 C   0  0  0  0  0  0  0  0  0  0  0  0
   -5.7950   21.8480  -31.6340 C   0  0  0  0  0  0  0  0  0  0  0  0
   -1.2281   26.0110  -26.9928 H   0  0  0  0  0  0  0  0  0  0  0  0
    0.1625   25.9857  -28.1297 H   0  0  0  0  0  0  0  0  0  0  0  0
   -0.9723   27.3781  -28.1297 H   0  0  0  0  0  0  0  0  0  0  0  0
   -1.8426   24.2651  -27.4387 H   0  0  0  0  0  0  0  0  0  0  0  0
   -3.1158   24.1851  -28.7194 H   0  0  0  0  0  0  0  0  0  0  0  0
   -1.1909   23.5303  -30.3218 H   0  0  0  0  0  0  0  0  0  0  0  0
   -0.2433   23.2160  -28.8063 H   0  0  0  0  0  0  0  0  0  0  0  0
   -1.2875   21.1438  -29.6741 H   0  0  0  0  0  0  0  0  0  0  0  0
   -1.9406   21.6088  -28.0591 H   0  0  0  0  0  0  0  0  0  0  0  0
   -3.0890   25.0940  -30.5660 H   0  0  0  0  0  0  0  0  0  0  0  0
   -7.8987   24.3370  -31.1943 H   0  0  0  0  0  0  0  0  0  0  0  0
   -9.1441   21.9961  -32.2604 H   0  0  0  0  0  0  0  0  0  0  0  0
   -8.6886   19.6176  -32.9408 H   0  0  0  0  0  0  0  0  0  0  0  0
   -5.9575   17.5975  -30.8225 H   0  0  0  0  0  0  0  0  0  0  0  0
   -4.6920   13.8330  -33.6070 H   0  0  0  0  0  0  0  0  0  0  0  0
   -6.2190   13.8090  -34.5600 H   0  0  0  0  0  0  0  0  0  0  0  0
   -6.5645   18.6275  -34.9810 H   0  0  0  0  0  0  0  0  0  0  0  0
   -4.4863   20.1258  -31.8843 H   0  0  0  0  0  0  0  0  0  0  0  0
  1  2  1  0
  2  3  1  0
  3  4  1  0
  4  5  1  0
  5  6  1  0
  6  7  1  0
  7  8  2  0
  7  9  1  0
  9 10  1  0
 10 11  1  0
 11 12  1  0
 11 13  2  0
 10 14  2  0
 14 15  1  0
 15 16  2  0
 16 17  1  0
 17 18  2  0
 18 19  1  0
 19 20  2  0
 20 21  1  0
 21 22  2  0
 22 23  1  0
 22 24  1  0
 24 25  2  0
 18 26  1  0
 26 27  2  0
 27  9  1  0
 27 15  1  0
 25 19  1  0
  1 28  1  0
  1 29  1  0
  1 30  1  0
  3 31  1  0
  3 32  1  0
  4 33  1  0
  4 34  1  0
  5 35  1  0
  5 36  1  0
 12 37  1  0
 14 38  1  0
 16 39  1  0
 17 40  1  0
 20 41  1  0
 23 42  1  0
 23 43  1  0
 25 44  1  0
 26 45  1  0
M  CHG  1  12  -1
M  END
>  <UniqueID>  (91) 
91

>  <SMILES>  (91) 
COCCCOC(=O)n1c(C([NH-])=O)cc2ccc(-c3cnc(N)nc3)cc21

>  <Energy>  (91) 
88.11107837222981

>  <Genealogy>  (91) 
COCCCOC(=O)n1c(C([NH-])=O)cc2ccc(-c3cnc(N)nc3)cc21 (protonated)
COCCCOC(=O)n1c(C([NH-])=O)cc2ccc(-c3cnc(N)nc3)cc21 (3D coordinates assigned)
COCCCOC(=O)n1c(C([NH-])=O)cc2ccc(-c3cnc(N)nc3)cc21 (optimized conformer: 88.11107837222981 kcal/mol)

>  <smiles>  (91) 
COCCCOC(=O)n1c(C(N)=O)cc2ccc(-c3cnc(N)nc3)cc21

>  <score_type>  (91) 
oracle

>  <origin>  (91) 
adg

>  <m_score__min__energy>  (91) 
-10.449999999999999

>  <m_primary>  (91) 
energy

$$$$
91:0
     RDKit          3D

 42 44  0  0  0  0  0  0  0  0999 V2000
   -1.5420   26.0250  -28.8040 N   0  0  0  0  0  0  0  0  0  0  0  0
   -0.8030   24.8060  -28.8430 C   0  0  0  0  0  0  0  0  0  0  0  0
    0.2900   24.7290  -28.2220 O   0  0  0  0  0  0  0  0  0  0  0  0
   -1.3020   23.6690  -29.6440 C   0  0  0  0  0  0  0  0  0  0  0  0
   -0.5160   22.5720  -29.9920 C   0  0  0  0  0  0  0  0  0  0  0  0
   -1.3620   21.7110  -30.6500 C   0  0  0  0  0  0  0  0  0  0  0  0
   -1.1050   20.4680  -31.2200 C   0  0  0  0  0  0  0  0  0  0  0  0
   -2.1650   19.8070  -31.8630 C   0  0  0  0  0  0  0  0  0  0  0  0
   -3.4520   20.3950  -31.9350 C   0  0  0  0  0  0  0  0  0  0  0  0
   -4.5040   19.6900  -32.6200 N   0  0  0  0  0  0  0  0  0  0  0  0
   -5.7210   20.3420  -33.1080 C   0  0  0  0  0  0  0  0  0  0  0  0
   -6.9330   19.3870  -33.1020 C   0  0  0  0  0  0  0  0  0  0  0  0
   -6.7570   18.1630  -33.9180 N   0  0  0  0  0  0  0  0  0  0  0  0
   -5.7110   18.2400  -34.9620 C   0  0  0  0  0  0  0  0  0  0  0  0
   -4.5470   17.2740  -34.6940 C   0  0  0  0  0  0  0  0  0  0  0  0
   -4.3550   17.1160  -33.3070 O   0  0  0  0  0  0  0  0  0  0  0  0
   -5.4220   16.3630  -32.7620 C   0  0  0  0  0  0  0  0  0  0  0  0
   -6.8170   16.8840  -33.1830 C   0  0  0  0  0  0  0  0  0  0  0  0
   -3.6740   21.6610  -31.3380 C   0  0  0  0  0  0  0  0  0  0  0  0
   -2.6040   22.2890  -30.6890 C   0  0  0  0  0  0  0  0  0  0  0  0
   -2.5840   23.4940  -30.0770 N   0  0  0  0  0  0  0  0  0  0  0  0
   -3.6830   24.4140  -29.9750 C   0  0  0  0  0  0  0  0  0  0  0  0
   -3.7670   25.3960  -30.7580 O   0  0  0  0  0  0  0  0  0  0  0  0
   -4.6780   24.2170  -29.0240 O   0  0  0  0  0  0  0  0  0  0  0  0
   -2.5730   26.0330  -28.9690 H   0  0  0  0  0  0  0  0  0  0  0  0
    0.5543   22.4260  -29.7842 H   0  0  0  0  0  0  0  0  0  0  0  0
   -0.1031   20.0169  -31.1688 H   0  0  0  0  0  0  0  0  0  0  0  0
   -1.9934   18.8197  -32.3166 H   0  0  0  0  0  0  0  0  0  0  0  0
   -4.3810   18.6640  -32.7740 H   0  0  0  0  0  0  0  0  0  0  0  0
   -5.9452   21.2038  -32.4622 H   0  0  0  0  0  0  0  0  0  0  0  0
   -5.5433   20.6575  -34.1467 H   0  0  0  0  0  0  0  0  0  0  0  0
   -7.1245   19.0820  -32.0626 H   0  0  0  0  0  0  0  0  0  0  0  0
   -7.7703   19.9426  -33.5495 H   0  0  0  0  0  0  0  0  0  0  0  0
   -6.1619   17.9895  -35.9336 H   0  0  0  0  0  0  0  0  0  0  0  0
   -5.3067   19.2630  -34.9583 H   0  0  0  0  0  0  0  0  0  0  0  0
   -4.7757   16.2961  -35.1428 H   0  0  0  0  0  0  0  0  0  0  0  0
   -3.6291   17.6860  -35.1387 H   0  0  0  0  0  0  0  0  0  0  0  0
   -5.3220   15.3209  -33.0997 H   0  0  0  0  0  0  0  0  0  0  0  0
   -5.3578   16.4522  -31.6675 H   0  0  0  0  0  0  0  0  0  0  0  0
   -7.2925   16.1307  -33.8284 H   0  0  0  0  0  0  0  0  0  0  0  0
   -7.3942   17.0596  -32.2632 H   0  0  0  0  0  0  0  0  0  0  0  0
   -4.6637   22.1390  -31.3834 H   0  0  0  0  0  0  0  0  0  0  0  0
  1  2  1  0
  2  3  2  0
  2  4  1  0
  4  5  2  0
  5  6  1  0
  6  7  2  0
  7  8  1  0
  8  9  2  0
  9 10  1  0
 10 11  1  0
 11 12  1  0
 12 13  1  0
 13 14  1  0
 14 15  1  0
 15 16  1  0
 16 17  1  0
 17 18  1  0
  9 19  1  0
 19 20  2  0
 20 21  1  0
 21 22  1  0
 22 23  2  0
 22 24  1  0
 21  4  1  0
 20  6  1  0
 18 13  1  0
  1 25  1  0
  5 26  1  0
  7 27  1  0
  8 28  1  0
 10 29  1  0
 11 30  1  0
 11 31  1  0
 12 32  1  0
 12 33  1  0
 14 34  1  0
 14 35  1  0
 15 36  1  0
 15 37  1  0
 17 38  1  0
 17 39  1  0
 18 40  1  0
 18 41  1  0
 19 42  1  0
M  CHG  2   1  -1  24  -1
M  END
>  <UniqueID>  (92) 
92

>  <SMILES>  (92) 
[NH-]C(=O)c1cc2ccc(NCCN3CCOCC3)cc2n1C(=O)[O-]

>  <Energy>  (92) 
97.78151127796656

>  <Genealogy>  (92) 
[NH-]C(=O)c1cc2ccc(NCCN3CCOCC3)cc2n1C(=O)[O-] (protonated)
[NH-]C(=O)c1cc2ccc(NCCN3CCOCC3)cc2n1C(=O)[O-] (3D coordinates assigned)
[NH-]C(=O)c1cc2ccc(NCCN3CCOCC3)cc2n1C(=O)[O-] (nonaromatic ring conformer: 97.78151127796656 kcal/mol)

>  <smiles>  (92) 
NC(=O)c1cc2ccc(NCCN3CCOCC3)cc2n1C(=O)O

>  <score_type>  (92) 
oracle

>  <origin>  (92) 
adg

>  <m_score__min__energy>  (92) 
-11.43

>  <m_primary>  (92) 
energy

$$$$
92:0
     RDKit          3D

 56 58  0  0  0  0  0  0  0  0999 V2000
   -4.0180   15.4040  -32.7540 C   0  0  0  0  0  0  0  0  0  0  0  0
   -5.1750   15.5060  -33.5770 O   0  0  0  0  0  0  0  0  0  0  0  0
   -5.3720   16.5620  -34.4730 C   0  0  0  0  0  0  0  0  0  0  0  0
   -6.5200   16.8160  -34.9250 O   0  0  0  0  0  0  0  0  0  0  0  0
   -4.2630   17.3600  -34.8820 N   0  0  0  0  0  0  0  0  0  0  0  0
   -4.1170   18.6350  -34.4360 O   0  0  0  0  0  0  0  0  0  0  0  0
   -2.7420   18.8250  -34.2190 C   0  0  0  0  0  0  0  0  0  0  0  0
   -2.5330   19.4290  -32.8300 C   0  0  0  0  0  0  0  0  0  0  0  0
   -1.6670   20.6850  -32.8960 C   0  0  0  0  0  0  0  0  0  0  0  0
   -2.3770   21.7790  -32.3260 O   0  0  0  0  0  0  0  0  0  0  0  0
   -2.1400   22.2430  -31.0290 C   0  0  0  0  0  0  0  0  0  0  0  0
   -1.0360   22.0080  -30.4640 O   0  0  0  0  0  0  0  0  0  0  0  0
   -3.1480   23.0050  -30.3480 N   0  0  0  0  0  0  0  0  0  0  0  0
   -2.9690   24.0140  -29.4470 C   0  0  0  0  0  0  0  0  0  0  0  0
   -1.6810   24.4410  -28.8620 C   0  0  0  0  0  0  0  0  0  0  0  0
   -1.2990   25.8140  -28.8480 N   0  0  0  0  0  0  0  0  0  0  0  0
   -0.8830   23.5740  -28.4130 O   0  0  0  0  0  0  0  0  0  0  0  0
   -4.1970   24.5490  -29.0650 C   0  0  0  0  0  0  0  0  0  0  0  0
   -5.1420   23.8240  -29.7530 C   0  0  0  0  0  0  0  0  0  0  0  0
   -6.5280   23.9320  -29.7490 C   0  0  0  0  0  0  0  0  0  0  0  0
   -7.2590   23.0630  -30.5740 C   0  0  0  0  0  0  0  0  0  0  0  0
   -6.5980   22.1080  -31.3930 C   0  0  0  0  0  0  0  0  0  0  0  0
   -7.3880   21.1800  -32.2970 C   0  0  2  0  0  0  0  0  0  0  0  0
   -8.2740   20.2270  -31.4670 C   0  0  0  0  0  0  0  0  0  0  0  0
   -8.8090   19.0950  -32.3540 C   0  0  0  0  0  0  0  0  0  0  0  0
   -7.7240   18.2810  -32.9700 N   0  0  2  0  0  0  0  0  0  0  0  0
   -7.6390   17.0660  -32.3530 O   0  0  0  0  0  0  0  0  0  0  0  0
   -6.3860   18.9200  -32.9800 C   0  0  0  0  0  0  0  0  0  0  0  0
   -6.4760   20.4200  -33.2980 C   0  0  0  0  0  0  0  0  0  0  0  0
   -5.1860   22.0350  -31.3700 C   0  0  0  0  0  0  0  0  0  0  0  0
   -4.4830   22.8990  -30.5210 C   0  0  0  0  0  0  0  0  0  0  0  0
   -4.3173   15.4304  -31.6958 H   0  0  0  0  0  0  0  0  0  0  0  0
   -3.5002   14.4567  -32.9651 H   0  0  0  0  0  0  0  0  0  0  0  0
   -3.3425   16.2461  -32.9651 H   0  0  0  0  0  0  0  0  0  0  0  0
   -2.2221   17.8577  -34.2820 H   0  0  0  0  0  0  0  0  0  0  0  0
   -2.3369   19.5046  -34.9832 H   0  0  0  0  0  0  0  0  0  0  0  0
   -3.5119   19.6908  -32.4020 H   0  0  0  0  0  0  0  0  0  0  0  0
   -2.0199   18.6860  -32.2018 H   0  0  0  0  0  0  0  0  0  0  0  0
   -0.7361   20.5189  -32.3341 H   0  0  0  0  0  0  0  0  0  0  0  0
   -1.4256   20.9102  -33.9453 H   0  0  0  0  0  0  0  0  0  0  0  0
   -1.2350   26.3630  -29.7340 H   0  0  0  0  0  0  0  0  0  0  0  0
   -4.3737   25.3763  -28.3619 H   0  0  0  0  0  0  0  0  0  0  0  0
   -7.0365   24.6761  -29.1183 H   0  0  0  0  0  0  0  0  0  0  0  0
   -8.3573   23.1219  -30.5868 H   0  0  0  0  0  0  0  0  0  0  0  0
   -8.0575   21.8012  -32.9101 H   0  0  0  0  0  0  0  0  0  0  0  0
   -7.6779   19.7968  -30.6487 H   0  0  0  0  0  0  0  0  0  0  0  0
   -9.1229   20.7927  -31.0555 H   0  0  0  0  0  0  0  0  0  0  0  0
   -9.4379   18.4343  -31.7392 H   0  0  0  0  0  0  0  0  0  0  0  0
   -9.3804   19.5578  -33.1721 H   0  0  0  0  0  0  0  0  0  0  0  0
   -7.9920   18.0870  -33.9630 H   0  0  0  0  0  0  0  0  0  0  0  0
   -6.9220   16.5450  -32.8070 H   0  0  0  0  0  0  0  0  0  0  0  0
   -5.9225   18.7924  -31.9906 H   0  0  0  0  0  0  0  0  0  0  0  0
   -5.7817   18.4388  -33.7631 H   0  0  0  0  0  0  0  0  0  0  0  0
   -5.4654   20.8523  -33.2545 H   0  0  0  0  0  0  0  0  0  0  0  0
   -6.9149   20.5260  -34.3010 H   0  0  0  0  0  0  0  0  0  0  0  0
   -4.6508   21.3144  -32.0059 H   0  0  0  0  0  0  0  0  0  0  0  0
  1  2  1  0
  2  3  1  0
  3  4  2  0
  3  5  1  0
  5  6  1  0
  6  7  1  0
  7  8  1  0
  8  9  1  0
  9 10  1  0
 10 11  1  0
 11 12  2  0
 11 13  1  0
 13 14  1  0
 14 15  1  0
 15 16  1  0
 15 17  2  0
 14 18  2  0
 18 19  1  0
 19 20  2  0
 20 21  1  0
 21 22  2  0
 22 23  1  0
 23 24  1  0
 24 25  1  0
 25 26  1  0
 26 27  1  0
 26 28  1  0
 28 29  1  0
 22 30  1  0
 30 31  2  0
 31 13  1  0
 31 19  1  0
 29 23  1  0
  1 32  1  0
  1 33  1  0
  1 34  1  0
  7 35  1  0
  7 36  1  0
  8 37  1  0
  8 38  1  0
  9 39  1  0
  9 40  1  0
 16 41  1  0
 18 42  1  0
 20 43  1  0
 21 44  1  0
 23 45  1  6
 24 46  1  0
 24 47  1  0
 25 48  1  0
 25 49  1  0
 26 50  1  6
 27 51  1  0
 28 52  1  0
 28 53  1  0
 29 54  1  0
 29 55  1  0
 30 56  1  0
M  CHG  3   5  -1  16  -1  26   1
M  END
>  <UniqueID>  (93) 
93

>  <SMILES>  (93) 
COC(=O)[N-]OCCCOC(=O)n1c(C([NH-])=O)cc2ccc(C3CC[NH+](O)CC3)cc21

>  <Energy>  (93) 
95.6324622861679

>  <Genealogy>  (93) 
COC(=O)[N-]OCCCOC(=O)n1c(C([NH-])=O)cc2ccc(C3CC[NH+](O)CC3)cc21 (protonated)
COC(=O)[N-]OCCCOC(=O)n1c(C([NH-])=O)cc2ccc(C3CC[NH+](O)CC3)cc21 (3D coordinates assigned)
COC(=O)[N-]OCCCOC(=O)n1c(C([NH-])=O)cc2ccc(C3CC[NH+](O)CC3)cc21 (nonaromatic ring conformer: 95.6324622861679 kcal/mol)

>  <smiles>  (93) 
COC(=O)NOCCCOC(=O)n1c(C(N)=O)cc2ccc(C3CCN(O)CC3)cc21

>  <score_type>  (93) 
oracle

>  <origin>  (93) 
adg

>  <m_score__min__energy>  (93) 
-11.949999999999999

>  <m_primary>  (93) 
energy

$$$$
93:0
     RDKit          3D

 53 57  0  0  0  0  0  0  0  0999 V2000
   -0.9800   25.6260  -24.9930 C   0  0  0  0  0  0  0  0  0  0  0  0
   -1.4210   25.1530  -25.9540 N   0  0  0  0  0  0  0  0  0  0  0  0
   -1.9370   24.5780  -27.0770 C   0  0  0  0  0  0  0  0  0  0  0  0
   -3.2450   24.1520  -27.1020 C   0  0  0  0  0  0  0  0  0  0  0  0
   -3.8100   23.5570  -28.2330 C   0  0  0  0  0  0  0  0  0  0  0  0
   -3.0500   23.3740  -29.3970 C   0  0  0  0  0  0  0  0  0  0  0  0
   -3.7220   22.8410  -30.5460 C   0  0  0  0  0  0  0  0  0  0  0  0
   -2.9600   22.1580  -31.3290 O   0  0  0  0  0  0  0  0  0  0  0  0
   -5.0680   22.9430  -30.9310 N   0  0  0  0  0  0  0  0  0  0  0  0
   -6.0010   23.8760  -30.6880 C   0  0  0  0  0  0  0  0  0  0  0  0
   -5.8470   25.2470  -30.2020 C   0  0  0  0  0  0  0  0  0  0  0  0
   -6.5210   25.7910  -29.0880 N   0  0  0  0  0  0  0  0  0  0  0  0
   -5.0440   26.0360  -30.8010 O   0  0  0  0  0  0  0  0  0  0  0  0
   -7.2540   23.4420  -31.1300 C   0  0  0  0  0  0  0  0  0  0  0  0
   -7.0620   22.2010  -31.6650 C   0  0  0  0  0  0  0  0  0  0  0  0
   -7.9910   21.3520  -32.2370 C   0  0  0  0  0  0  0  0  0  0  0  0
   -7.5730   20.1300  -32.7190 C   0  0  0  0  0  0  0  0  0  0  0  0
   -6.2400   19.7960  -32.6130 C   0  0  0  0  0  0  0  0  0  0  0  0
   -5.7910   18.5260  -33.1110 N   0  0  0  0  0  0  0  0  0  0  0  0
   -5.4540   17.3300  -32.3560 C   0  0  0  0  0  0  0  0  0  0  0  0
   -6.0290   16.2440  -33.2640 C   0  0  0  0  0  0  0  0  0  0  0  0
   -6.4850   16.9330  -34.5330 C   0  0  0  0  0  0  0  0  0  0  0  0
   -5.5700   18.1660  -34.5010 C   0  0  2  0  0  0  0  0  0  0  0  0
   -4.1550   17.6840  -34.6770 C   0  0  0  0  0  0  0  0  0  0  0  0
   -3.0330   18.2400  -34.1410 N   0  0  0  0  0  0  0  0  0  0  0  0
   -1.9630   17.5270  -34.5240 C   0  0  0  0  0  0  0  0  0  0  0  0
   -0.5610   17.8280  -34.1390 C   0  0  0  0  0  0  0  0  0  0  0  0
   -2.4450   16.5330  -35.2970 N   0  0  0  0  0  0  0  0  0  0  0  0
   -3.7390   16.6510  -35.3690 O   0  0  0  0  0  0  0  0  0  0  0  0
   -5.3320   20.6720  -32.0320 C   0  0  0  0  0  0  0  0  0  0  0  0
   -5.7360   21.9160  -31.5380 C   0  0  0  0  0  0  0  0  0  0  0  0
   -1.7520   23.8140  -29.3280 C   0  0  0  0  0  0  0  0  0  0  0  0
   -1.1920   24.4000  -28.2130 C   0  0  0  0  0  0  0  0  0  0  0  0
   -3.8655   24.2840  -26.2033 H   0  0  0  0  0  0  0  0  0  0  0  0
   -4.8598   23.2294  -28.2100 H   0  0  0  0  0  0  0  0  0  0  0  0
   -6.6250   25.2290  -28.2180 H   0  0  0  0  0  0  0  0  0  0  0  0
   -6.9110   26.7670  -29.1570 H   0  0  0  0  0  0  0  0  0  0  0  0
   -8.2048   23.9908  -31.0606 H   0  0  0  0  0  0  0  0  0  0  0  0
   -9.0484   21.6472  -32.3065 H   0  0  0  0  0  0  0  0  0  0  0  0
   -8.2899   19.4344  -33.1796 H   0  0  0  0  0  0  0  0  0  0  0  0
   -4.3661   17.2215  -32.2346 H   0  0  0  0  0  0  0  0  0  0  0  0
   -5.8444   17.3165  -31.3277 H   0  0  0  0  0  0  0  0  0  0  0  0
   -5.2568   15.4956  -33.4956 H   0  0  0  0  0  0  0  0  0  0  0  0
   -6.8649   15.7219  -32.7754 H   0  0  0  0  0  0  0  0  0  0  0  0
   -6.3050   16.3125  -35.4233 H   0  0  0  0  0  0  0  0  0  0  0  0
   -7.5617   17.1525  -34.5833 H   0  0  0  0  0  0  0  0  0  0  0  0
   -5.7441   18.9591  -35.2431 H   0  0  0  0  0  0  0  0  0  0  0  0
   -0.4777   17.8459  -33.0423 H   0  0  0  0  0  0  0  0  0  0  0  0
    0.1052   17.0524  -34.5447 H   0  0  0  0  0  0  0  0  0  0  0  0
   -0.2718   18.8087  -34.5447 H   0  0  0  0  0  0  0  0  0  0  0  0
   -4.2737   20.3811  -31.9591 H   0  0  0  0  0  0  0  0  0  0  0  0
   -1.1184   23.6913  -30.2188 H   0  0  0  0  0  0  0  0  0  0  0  0
   -0.1418   24.7263  -28.2354 H   0  0  0  0  0  0  0  0  0  0  0  0
  1  2  3  0
  2  3  1  0
  3  4  2  0
  4  5  1  0
  5  6  2  0
  6  7  1  0
  7  8  2  0
  7  9  1  0
  9 10  1  0
 10 11  1  0
 11 12  1  0
 11 13  2  0
 10 14  2  0
 14 15  1  0
 15 16  2  0
 16 17  1  0
 17 18  2  0
 18 19  1  0
 19 20  1  0
 20 21  1  0
 21 22  1  0
 22 23  1  0
 23 24  1  0
 24 25  2  0
 25 26  1  0
 26 27  1  0
 26 28  2  0
 28 29  1  0
 18 30  1  0
 30 31  2  0
  6 32  1  0
 32 33  2  0
 33  3  1  0
 31  9  1  0
 31 15  1  0
 23 19  1  0
 29 24  1  0
  4 34  1  0
  5 35  1  0
 12 36  1  0
 12 37  1  0
 14 38  1  0
 16 39  1  0
 17 40  1  0
 20 41  1  0
 20 42  1  0
 21 43  1  0
 21 44  1  0
 22 45  1  0
 22 46  1  0
 23 47  1  6
 27 48  1  0
 27 49  1  0
 27 50  1  0
 30 51  1  0
 32 52  1  0
 33 53  1  0
M  CHG  2   1  -1   2   1
M  END
>  <smiles>  (94) 
[C-]#[N+]c1ccc(C(=O)n2c(C(N)=O)cc3ccc(N4CCC[C@@H]4c4nc(C)no4)cc32)cc1

>  <score_type>  (94) 
oracle

>  <origin>  (94) 
adg

>  <m_score__min__energy>  (94) 
-10.58

>  <m_primary>  (94) 
energy

$$$$
94:0
     RDKit          3D

 60 63  0  0  0  0  0  0  0  0999 V2000
   -7.5000   13.3310  -34.9330 C   0  0  0  0  0  0  0  0  0  0  0  0
   -6.3770   13.2350  -34.0670 O   0  0  0  0  0  0  0  0  0  0  0  0
   -5.3550   14.1920  -34.0460 C   0  0  0  0  0  0  0  0  0  0  0  0
   -4.1830   13.8710  -34.3870 O   0  0  0  0  0  0  0  0  0  0  0  0
   -5.6510   15.5790  -33.6220 C   0  0  0  0  0  0  0  0  0  0  0  0
   -5.3970   15.9950  -32.3040 C   0  0  0  0  0  0  0  0  0  0  0  0
   -5.6810   17.3040  -31.9060 C   0  0  0  0  0  0  0  0  0  0  0  0
   -6.2250   18.2280  -32.8170 C   0  0  0  0  0  0  0  0  0  0  0  0
   -6.5140   19.6220  -32.3930 C   0  0  0  0  0  0  0  0  0  0  0  0
   -7.8520   20.0740  -32.2430 C   0  0  0  0  0  0  0  0  0  0  0  0
   -8.1240   21.3910  -31.8340 C   0  0  0  0  0  0  0  0  0  0  0  0
   -7.0440   22.2290  -31.5670 C   0  0  0  0  0  0  0  0  0  0  0  0
   -7.0240   23.5420  -31.1580 C   0  0  0  0  0  0  0  0  0  0  0  0
   -5.6750   23.8660  -31.0270 C   0  0  0  0  0  0  0  0  0  0  0  0
   -5.2070   25.1620  -30.4940 C   0  0  0  0  0  0  0  0  0  0  0  0
   -3.9160   25.6670  -30.8220 N   0  0  0  0  0  0  0  0  0  0  0  0
   -5.9350   25.8040  -29.6920 O   0  0  0  0  0  0  0  0  0  0  0  0
   -4.8890   22.8020  -31.3610 N   0  0  0  0  0  0  0  0  0  0  0  0
   -3.4520   22.7390  -31.4080 C   0  0  0  0  0  0  0  0  0  0  0  0
   -2.7700   23.1350  -30.4230 O   0  0  0  0  0  0  0  0  0  0  0  0
   -2.8120   22.2660  -32.5580 O   0  0  0  0  0  0  0  0  0  0  0  0
   -1.6270   21.4760  -32.5240 C   0  0  0  0  0  0  0  0  0  0  0  0
   -1.8480   20.1700  -33.3060 C   0  0  2  0  0  0  0  0  0  0  0  0
   -2.4370   19.0670  -32.3960 C   0  0  0  0  0  0  0  0  0  0  0  0
   -1.9420   17.6490  -32.7560 C   0  0  0  0  0  0  0  0  0  0  0  0
   -1.7490   17.4540  -34.2120 N   0  0  1  0  0  0  0  0  0  0  0  0
   -3.0400   17.4330  -34.9280 C   0  0  0  0  0  0  0  0  0  0  0  0
   -0.7910   18.4260  -34.8170 C   0  0  0  0  0  0  0  0  0  0  0  0
   -0.5470   19.6890  -33.9660 C   0  0  0  0  0  0  0  0  0  0  0  0
   -5.7480   21.8070  -31.6870 C   0  0  0  0  0  0  0  0  0  0  0  0
   -5.4500   20.5130  -32.1260 C   0  0  0  0  0  0  0  0  0  0  0  0
   -6.4790   17.8100  -34.1350 C   0  0  0  0  0  0  0  0  0  0  0  0
   -6.1930   16.5010  -34.5330 C   0  0  0  0  0  0  0  0  0  0  0  0
   -8.4193   13.4096  -34.3340 H   0  0  0  0  0  0  0  0  0  0  0  0
   -7.3984   14.2237  -35.5676 H   0  0  0  0  0  0  0  0  0  0  0  0
   -7.5514   12.4340  -35.5676 H   0  0  0  0  0  0  0  0  0  0  0  0
   -4.9713   15.2847  -31.5800 H   0  0  0  0  0  0  0  0  0  0  0  0
   -5.4773   17.6150  -30.8707 H   0  0  0  0  0  0  0  0  0  0  0  0
   -8.6849   19.3857  -32.4492 H   0  0  0  0  0  0  0  0  0  0  0  0
   -9.1587   21.7491  -31.7280 H   0  0  0  0  0  0  0  0  0  0  0  0
   -7.8885   24.1967  -30.9736 H   0  0  0  0  0  0  0  0  0  0  0  0
   -3.0580   25.2820  -30.3700 H   0  0  0  0  0  0  0  0  0  0  0  0
   -0.7996   22.0392  -32.9803 H   0  0  0  0  0  0  0  0  0  0  0  0
   -1.3806   21.2361  -31.4791 H   0  0  0  0  0  0  0  0  0  0  0  0
   -2.5762   20.3818  -34.1028 H   0  0  0  0  0  0  0  0  0  0  0  0
   -2.1512   19.2830  -31.3560 H   0  0  0  0  0  0  0  0  0  0  0  0
   -3.5279   19.0767  -32.5367 H   0  0  0  0  0  0  0  0  0  0  0  0
   -0.9817   17.4740  -32.2488 H   0  0  0  0  0  0  0  0  0  0  0  0
   -2.7154   16.9383  -32.4291 H   0  0  0  0  0  0  0  0  0  0  0  0
   -1.3380   16.4970  -34.3310 H   0  0  0  0  0  0  0  0  0  0  0  0
   -3.8635   17.4196  -34.1988 H   0  0  0  0  0  0  0  0  0  0  0  0
   -3.1238   18.3299  -35.5593 H   0  0  0  0  0  0  0  0  0  0  0  0
   -3.0946   16.5338  -35.5593 H   0  0  0  0  0  0  0  0  0  0  0  0
    0.1729   17.9158  -34.9608 H   0  0  0  0  0  0  0  0  0  0  0  0
   -1.2402   18.7647  -35.7623 H   0  0  0  0  0  0  0  0  0  0  0  0
    0.1894   19.4576  -33.1823 H   0  0  0  0  0  0  0  0  0  0  0  0
   -0.1728   20.4871  -34.6240 H   0  0  0  0  0  0  0  0  0  0  0  0
   -4.4059   20.1944  -32.2611 H   0  0  0  0  0  0  0  0  0  0  0  0
   -6.9064   18.5191  -34.8592 H   0  0  0  0  0  0  0  0  0  0  0  0
   -6.3941   16.1900  -35.5688 H   0  0  0  0  0  0  0  0  0  0  0  0
  1  2  1  0
  2  3  1  0
  3  4  2  0
  3  5  1  0
  5  6  2  0
  6  7  1  0
  7  8  2  0
  8  9  1  0
  9 10  2  0
 10 11  1  0
 11 12  2  0
 12 13  1  0
 13 14  2  0
 14 15  1  0
 15 16  1  0
 15 17  2  0
 14 18  1  0
 18 19  1  0
 19 20  2  0
 19 21  1  0
 21 22  1  0
 22 23  1  0
 23 24  1  0
 24 25  1  0
 25 26  1  0
 26 27  1  0
 26 28  1  0
 28 29  1  0
 18 30  1  0
 30 31  2  0
  8 32  1  0
 32 33  2  0
 33  5  1  0
 31  9  1  0
 30 12  1  0
 29 23  1  0
  1 34  1  0
  1 35  1  0
  1 36  1  0
  6 37  1  0
  7 38  1  0
 10 39  1  0
 11 40  1  0
 13 41  1  0
 16 42  1  0
 22 43  1  0
 22 44  1  0
 23 45  1  6
 24 46  1  0
 24 47  1  0
 25 48  1  0
 25 49  1  0
 26 50  1  1
 27 51  1  0
 27 52  1  0
 27 53  1  0
 28 54  1  0
 28 55  1  0
 29 56  1  0
 29 57  1  0
 31 58  1  0
 32 59  1  0
 33 60  1  0
M  CHG  2  16  -1  26   1
M  END
>  <UniqueID>  (95) 
94

>  <SMILES>  (95) 
COC(=O)c1ccc(-c2ccc3cc(C([NH-])=O)n(C(=O)OCC4CC[NH+](C)CC4)c3c2)cc1

>  <Energy>  (95) 
109.64098357613895

>  <Genealogy>  (95) 
COC(=O)c1ccc(-c2ccc3cc(C([NH-])=O)n(C(=O)OCC4CC[NH+](C)CC4)c3c2)cc1 (protonated)
COC(=O)c1ccc(-c2ccc3cc(C([NH-])=O)n(C(=O)OCC4CC[NH+](C)CC4)c3c2)cc1 (3D coordinates assigned)
COC(=O)c1ccc(-c2ccc3cc(C([NH-])=O)n(C(=O)OCC4CC[NH+](C)CC4)c3c2)cc1 (nonaromatic ring conformer: 109.64098357613895 kcal/mol)

>  <smiles>  (95) 
COC(=O)c1ccc(-c2ccc3cc(C(N)=O)n(C(=O)OCC4CCN(C)CC4)c3c2)cc1

>  <score_type>  (95) 
oracle

>  <origin>  (95) 
adg

>  <m_score__min__energy>  (95) 
-10.98

>  <m_primary>  (95) 
energy

$$$$
95:0
     RDKit          3D

 37 38  0  0  0  0  0  0  0  0999 V2000
   -9.0510   19.4620  -31.7250 C   0  0  0  0  0  0  0  0  0  0  0  0
   -9.1650   20.6420  -32.3390 C   0  0  0  0  0  0  0  0  0  0  0  0
   -9.2910   21.9280  -31.5700 C   0  0  0  0  0  0  0  0  0  0  0  0
   -8.0740   22.6650  -31.6420 O   0  0  0  0  0  0  0  0  0  0  0  0
   -7.0750   22.5930  -30.6650 C   0  0  0  0  0  0  0  0  0  0  0  0
   -7.3600   22.7650  -29.4480 O   0  0  0  0  0  0  0  0  0  0  0  0
   -5.7170   22.3210  -31.0490 N   0  0  0  0  0  0  0  0  0  0  0  0
   -4.6500   23.1650  -30.9710 C   0  0  0  0  0  0  0  0  0  0  0  0
   -4.6400   24.4930  -30.3260 C   0  0  0  0  0  0  0  0  0  0  0  0
   -5.3660   24.7340  -29.1180 N   0  0  0  0  0  0  0  0  0  0  0  0
   -3.9380   25.4150  -30.8170 O   0  0  0  0  0  0  0  0  0  0  0  0
   -3.5210   22.5840  -31.5450 C   0  0  0  0  0  0  0  0  0  0  0  0
   -3.9300   21.3390  -31.9690 C   0  0  0  0  0  0  0  0  0  0  0  0
   -3.2140   20.3350  -32.6140 C   0  0  0  0  0  0  0  0  0  0  0  0
   -3.8990   19.1590  -32.9620 C   0  0  0  0  0  0  0  0  0  0  0  0
   -5.2790   19.0160  -32.6780 C   0  0  0  0  0  0  0  0  0  0  0  0
   -5.9940   17.7420  -33.0420 C   0  0  0  0  0  0  0  0  0  0  0  0
   -5.7390   16.6420  -32.0070 C   0  0  0  0  0  0  0  0  0  0  0  0
   -6.1040   17.0720  -30.7230 O   0  0  0  0  0  0  0  0  0  0  0  0
   -5.9710   20.0540  -32.0160 C   0  0  0  0  0  0  0  0  0  0  0  0
   -5.2600   21.2050  -31.6590 C   0  0  0  0  0  0  0  0  0  0  0  0
   -8.9606   18.5399  -32.3180 H   0  0  0  0  0  0  0  0  0  0  0  0
   -9.0475   19.4118  -30.6262 H   0  0  0  0  0  0  0  0  0  0  0  0
   -9.1668   20.6744  -33.4385 H   0  0  0  0  0  0  0  0  0  0  0  0
  -10.1061   22.5295  -31.9988 H   0  0  0  0  0  0  0  0  0  0  0  0
   -9.5091   21.6968  -30.5169 H   0  0  0  0  0  0  0  0  0  0  0  0
   -5.8140   23.9520  -28.5920 H   0  0  0  0  0  0  0  0  0  0  0  0
   -5.3820   25.6910  -28.7000 H   0  0  0  0  0  0  0  0  0  0  0  0
   -2.5178   23.0252  -31.6393 H   0  0  0  0  0  0  0  0  0  0  0  0
   -2.1454   20.4584  -32.8440 H   0  0  0  0  0  0  0  0  0  0  0  0
   -3.3580   18.3409  -33.4601 H   0  0  0  0  0  0  0  0  0  0  0  0
   -7.0747   17.9406  -33.0942 H   0  0  0  0  0  0  0  0  0  0  0  0
   -5.6128   17.3971  -34.0145 H   0  0  0  0  0  0  0  0  0  0  0  0
   -6.3311   15.7535  -32.2717 H   0  0  0  0  0  0  0  0  0  0  0  0
   -4.6658   16.4006  -32.0062 H   0  0  0  0  0  0  0  0  0  0  0  0
   -5.9160   16.3180  -30.1040 H   0  0  0  0  0  0  0  0  0  0  0  0
   -7.0427   19.9599  -31.7867 H   0  0  0  0  0  0  0  0  0  0  0  0
  1  2  2  0
  2  3  1  0
  3  4  1  0
  4  5  1  0
  5  6  2  0
  5  7  1  0
  7  8  1  0
  8  9  1  0
  9 10  1  0
  9 11  2  0
  8 12  2  0
 12 13  1  0
 13 14  2  0
 14 15  1  0
 15 16  2  0
 16 17  1  0
 17 18  1  0
 18 19  1  0
 16 20  1  0
 20 21  2  0
 21  7  1  0
 21 13  1  0
  1 22  1  0
  1 23  1  0
  2 24  1  0
  3 25  1  0
  3 26  1  0
 10 27  1  0
 10 28  1  0
 12 29  1  0
 14 30  1  0
 15 31  1  0
 17 32  1  0
 17 33  1  0
 18 34  1  0
 18 35  1  0
 19 36  1  0
 20 37  1  0
M  END
>  <UniqueID>  (96) 
95

>  <SMILES>  (96) 
C=CCOC(=O)n1c(C(N)=O)cc2ccc(CCO)cc21

>  <Energy>  (96) 
70.04510571310948

>  <Genealogy>  (96) 
C=CCOC(=O)n1c(C(N)=O)cc2ccc(CCO)cc21 (3D coordinates assigned)
C=CCOC(=O)n1c(C(N)=O)cc2ccc(CCO)cc21 (optimized conformer: 70.04510571310948 kcal/mol)

>  <smiles>  (96) 
C=CCOC(=O)n1c(C(N)=O)cc2ccc(CCO)cc21

>  <score_type>  (96) 
oracle

>  <origin>  (96) 
adg

>  <m_score__min__energy>  (96) 
-7.9100000000000001

>  <m_primary>  (96) 
energy

$$$$
96:0
     RDKit          3D

 37 38  0  0  0  0  0  0  0  0999 V2000
   -4.2360   25.5930  -30.7420 N   0  0  0  0  0  0  0  0  0  0  0  0
   -5.5940   25.2380  -30.4840 C   0  0  0  0  0  0  0  0  0  0  0  0
   -6.3230   26.0060  -29.8010 O   0  0  0  0  0  0  0  0  0  0  0  0
   -6.1290   23.9440  -30.9370 C   0  0  0  0  0  0  0  0  0  0  0  0
   -7.4650   23.7600  -31.2680 C   0  0  0  0  0  0  0  0  0  0  0  0
   -7.5710   22.4360  -31.6140 C   0  0  0  0  0  0  0  0  0  0  0  0
   -8.6920   21.7050  -31.9960 C   0  0  0  0  0  0  0  0  0  0  0  0
   -8.5270   20.3380  -32.2710 C   0  0  0  0  0  0  0  0  0  0  0  0
   -7.2510   19.7290  -32.1720 C   0  0  0  0  0  0  0  0  0  0  0  0
   -7.0970   18.2470  -32.4070 C   0  0  0  0  0  0  0  0  0  0  0  0
   -6.5730   18.0370  -33.6690 F   0  0  0  0  0  0  0  0  0  0  0  0
   -8.3220   17.6100  -32.3140 F   0  0  0  0  0  0  0  0  0  0  0  0
   -6.2470   17.6880  -31.4680 F   0  0  0  0  0  0  0  0  0  0  0  0
   -6.1400   20.5010  -31.7560 C   0  0  0  0  0  0  0  0  0  0  0  0
   -6.3270   21.8680  -31.5030 C   0  0  0  0  0  0  0  0  0  0  0  0
   -5.4170   22.7900  -31.0960 N   0  0  0  0  0  0  0  0  0  0  0  0
   -3.9850   22.6190  -30.9960 C   0  0  0  0  0  0  0  0  0  0  0  0
   -3.2430   22.9070  -31.9730 O   0  0  0  0  0  0  0  0  0  0  0  0
   -3.3880   22.1590  -29.7790 N   0  0  0  0  0  0  0  0  0  0  0  0
   -3.0290   23.0360  -28.6710 C   0  0  0  0  0  0  0  0  0  0  0  0
   -1.9990   24.0240  -29.1140 C   0  0  0  0  0  0  0  0  0  0  0  0
   -2.3400   25.2120  -29.3660 O   0  0  0  0  0  0  0  0  0  0  0  0
   -0.6590   23.6340  -29.1910 O   0  0  0  0  0  0  0  0  0  0  0  0
   -0.1820   22.4090  -28.6420 C   0  0  0  0  0  0  0  0  0  0  0  0
   -0.1710   22.5050  -27.1470 C   0  0  0  0  0  0  0  0  0  0  0  0
   -0.8960   21.5570  -26.3470 S   0  0  0  0  0  0  0  0  0  0  0  0
   -3.5940   24.9260  -31.2250 H   0  0  0  0  0  0  0  0  0  0  0  0
   -3.8620   26.5140  -30.4220 H   0  0  0  0  0  0  0  0  0  0  0  0
   -8.2663   24.5135  -31.2556 H   0  0  0  0  0  0  0  0  0  0  0  0
   -9.6786   22.1842  -32.0800 H   0  0  0  0  0  0  0  0  0  0  0  0
   -9.3972   19.7334  -32.5664 H   0  0  0  0  0  0  0  0  0  0  0  0
   -5.1496   20.0382  -31.6335 H   0  0  0  0  0  0  0  0  0  0  0  0
   -3.9249   23.5734  -28.3268 H   0  0  0  0  0  0  0  0  0  0  0  0
   -2.6186   22.4304  -27.8496 H   0  0  0  0  0  0  0  0  0  0  0  0
   -0.8426   21.5859  -28.9521 H   0  0  0  0  0  0  0  0  0  0  0  0
    0.8381   22.2159  -29.0054 H   0  0  0  0  0  0  0  0  0  0  0  0
    0.3977   23.3091  -26.6570 H   0  0  0  0  0  0  0  0  0  0  0  0
  1  2  1  0
  2  3  2  0
  2  4  1  0
  4  5  2  0
  5  6  1  0
  6  7  2  0
  7  8  1  0
  8  9  2  0
  9 10  1  0
 10 11  1  0
 10 12  1  0
 10 13  1  0
  9 14  1  0
 14 15  2  0
 15 16  1  0
 16 17  1  0
 17 18  2  0
 17 19  1  0
 19 20  1  0
 20 21  1  0
 21 22  2  0
 21 23  1  0
 23 24  1  0
 24 25  1  0
 25 26  2  0
 16  4  1  0
 15  6  1  0
  1 27  1  0
  1 28  1  0
  5 29  1  0
  7 30  1  0
  8 31  1  0
 14 32  1  0
 20 33  1  0
 20 34  1  0
 24 35  1  0
 24 36  1  0
 25 37  1  0
M  CHG  1  19  -1
M  END
>  <UniqueID>  (97) 
96

>  <SMILES>  (97) 
NC(=O)c1cc2ccc(C(F)(F)F)cc2n1C(=O)[N-]CC(=O)OCC=S

>  <Energy>  (97) 
73.9430544563224

>  <Genealogy>  (97) 
NC(=O)c1cc2ccc(C(F)(F)F)cc2n1C(=O)[N-]CC(=O)OCC=S (protonated)
NC(=O)c1cc2ccc(C(F)(F)F)cc2n1C(=O)[N-]CC(=O)OCC=S (3D coordinates assigned)
NC(=O)c1cc2ccc(C(F)(F)F)cc2n1C(=O)[N-]CC(=O)OCC=S (optimized conformer: 73.9430544563224 kcal/mol)

>  <smiles>  (97) 
NC(=O)c1cc2ccc(C(F)(F)F)cc2n1C(=O)NCC(=O)OCC=S

>  <score_type>  (97) 
oracle

>  <origin>  (97) 
adg

>  <m_score__min__energy>  (97) 
-9.3599999999999994

>  <m_primary>  (97) 
energy

$$$$
97:0
     RDKit          3D

 62 65  0  0  0  0  0  0  0  0999 V2000
    1.3270   19.0580  -30.1410 C   0  0  0  0  0  0  0  0  0  0  0  0
    1.1320   19.2040  -28.6260 C   0  0  1  0  0  0  0  0  0  0  0  0
    2.4460   19.2910  -27.8940 C   0  0  0  0  0  0  0  0  0  0  0  0
    3.1680   20.3200  -27.9780 O   0  0  0  0  0  0  0  0  0  0  0  0
    2.8400   18.2480  -27.0660 O   0  0  0  0  0  0  0  0  0  0  0  0
    0.2540   20.3980  -28.3100 C   0  0  0  0  0  0  0  0  0  0  0  0
    0.4390   21.1430  -27.1140 C   0  0  0  0  0  0  0  0  0  0  0  0
   -0.3570   22.2660  -26.8350 C   0  0  0  0  0  0  0  0  0  0  0  0
   -1.3230   22.6280  -27.7680 C   0  0  0  0  0  0  0  0  0  0  0  0
   -2.2000   23.6890  -27.7670 C   0  0  0  0  0  0  0  0  0  0  0  0
   -2.9060   23.5840  -28.9650 C   0  0  0  0  0  0  0  0  0  0  0  0
   -4.0090   24.4890  -29.3480 C   0  0  0  0  0  0  0  0  0  0  0  0
   -3.8780   25.3250  -30.4940 N   0  0  0  0  0  0  0  0  0  0  0  0
   -5.0600   24.5520  -28.6560 O   0  0  0  0  0  0  0  0  0  0  0  0
   -2.4820   22.5020  -29.6740 N   0  0  0  0  0  0  0  0  0  0  0  0
   -2.8840   22.1020  -30.9910 C   0  0  0  0  0  0  0  0  0  0  0  0
   -3.2620   22.9760  -31.8170 O   0  0  0  0  0  0  0  0  0  0  0  0
   -2.8880   20.7390  -31.3260 O   0  0  0  0  0  0  0  0  0  0  0  0
   -2.6180   20.1850  -32.6220 C   0  0  0  0  0  0  0  0  0  0  0  0
   -1.8940   21.2200  -33.5120 C   0  0  0  0  0  0  0  0  0  0  0  0
   -1.7420   18.9190  -32.5010 C   0  0  0  0  0  0  0  0  0  0  0  0
   -3.9590   19.8580  -33.2560 C   0  0  0  0  0  0  0  0  0  0  0  0
   -4.0050   19.0640  -34.2350 O   0  0  0  0  0  0  0  0  0  0  0  0
   -5.1770   20.4740  -32.8120 N   0  0  0  0  0  0  0  0  0  0  0  0
   -5.3350   21.7760  -32.6240 N   0  0  0  0  0  0  0  0  0  0  0  0
   -6.6140   22.0100  -32.2580 C   0  0  0  0  0  0  0  0  0  0  0  0
   -7.1730   23.3670  -31.9700 C   0  0  0  0  0  0  0  0  0  0  0  0
   -7.6310   23.4200  -30.6670 F   0  0  0  0  0  0  0  0  0  0  0  0
   -6.1880   24.3190  -32.1480 F   0  0  0  0  0  0  0  0  0  0  0  0
   -7.3010   20.8050  -32.2620 C   0  0  0  0  0  0  0  0  0  0  0  0
   -6.3550   19.8560  -32.5870 C   0  0  0  0  0  0  0  0  0  0  0  0
   -6.6500   18.3860  -32.7040 C   0  0  0  0  0  0  0  0  0  0  0  0
   -5.6170   17.6550  -32.1430 F   0  0  0  0  0  0  0  0  0  0  0  0
   -6.7640   18.0530  -34.0420 F   0  0  0  0  0  0  0  0  0  0  0  0
   -7.9660   18.0450  -31.9740 C   0  0  0  0  0  0  0  0  0  0  0  0
   -9.0860   19.0570  -32.3000 C   0  0  0  0  0  0  0  0  0  0  0  0
   -8.7120   20.4890  -31.8570 C   0  0  0  0  0  0  0  0  0  0  0  0
   -8.8190   20.5900  -30.4820 F   0  0  0  0  0  0  0  0  0  0  0  0
   -9.5810   21.3920  -32.4440 F   0  0  0  0  0  0  0  0  0  0  0  0
   -1.5160   21.9250  -28.9270 C   0  0  0  0  0  0  0  0  0  0  0  0
   -0.7340   20.8070  -29.2360 C   0  0  0  0  0  0  0  0  0  0  0  0
    2.1933   18.4094  -30.3384 H   0  0  0  0  0  0  0  0  0  0  0  0
    0.4255   18.6110  -30.5853 H   0  0  0  0  0  0  0  0  0  0  0  0
    1.5021   20.0489  -30.5853 H   0  0  0  0  0  0  0  0  0  0  0  0
    0.6237   18.2953  -28.2713 H   0  0  0  0  0  0  0  0  0  0  0  0
    1.2154   20.8362  -26.3977 H   0  0  0  0  0  0  0  0  0  0  0  0
   -0.2207   22.8414  -25.9074 H   0  0  0  0  0  0  0  0  0  0  0  0
   -2.3186   24.4560  -26.9875 H   0  0  0  0  0  0  0  0  0  0  0  0
   -3.1480   25.1330  -31.2150 H   0  0  0  0  0  0  0  0  0  0  0  0
   -1.3798   21.9551  -32.8754 H   0  0  0  0  0  0  0  0  0  0  0  0
   -1.1574   20.7061  -34.1471 H   0  0  0  0  0  0  0  0  0  0  0  0
   -2.6294   21.7357  -34.1471 H   0  0  0  0  0  0  0  0  0  0  0  0
   -1.5802   18.6852  -31.4384 H   0  0  0  0  0  0  0  0  0  0  0  0
   -2.2495   18.0739  -32.9892 H   0  0  0  0  0  0  0  0  0  0  0  0
   -0.7723   19.0960  -32.9892 H   0  0  0  0  0  0  0  0  0  0  0  0
   -4.5900   22.4920  -32.7600 H   0  0  0  0  0  0  0  0  0  0  0  0
   -8.0086   23.5659  -32.6572 H   0  0  0  0  0  0  0  0  0  0  0  0
   -8.2935   17.0411  -32.2821 H   0  0  0  0  0  0  0  0  0  0  0  0
   -7.7751   18.0858  -30.8915 H   0  0  0  0  0  0  0  0  0  0  0  0
   -9.2628   19.0549  -33.3857 H   0  0  0  0  0  0  0  0  0  0  0  0
   -9.9903   18.7546  -31.7516 H   0  0  0  0  0  0  0  0  0  0  0  0
   -0.8840   20.2584  -30.1776 H   0  0  0  0  0  0  0  0  0  0  0  0
  1  2  1  0
  2  3  1  0
  3  4  2  0
  3  5  1  0
  2  6  1  0
  6  7  2  0
  7  8  1  0
  8  9  2  0
  9 10  1  0
 10 11  2  0
 11 12  1  0
 12 13  1  0
 12 14  2  0
 11 15  1  0
 15 16  1  0
 16 17  2  0
 16 18  1  0
 18 19  1  0
 19 20  1  0
 19 21  1  0
 19 22  1  0
 22 23  2  0
 22 24  1  0
 24 25  1  0
 25 26  2  0
 26 27  1  0
 27 28  1  0
 27 29  1  0
 26 30  1  0
 30 31  2  0
 31 32  1  0
 32 33  1  0
 32 34  1  0
 32 35  1  0
 35 36  1  0
 36 37  1  0
 37 38  1  0
 37 39  1  0
 15 40  1  0
 40 41  2  0
 41  6  1  0
 40  9  1  0
 31 24  1  0
 37 30  1  0
  1 42  1  0
  1 43  1  0
  1 44  1  0
  2 45  1  1
  7 46  1  0
  8 47  1  0
 10 48  1  0
 13 49  1  0
 20 50  1  0
 20 51  1  0
 20 52  1  0
 21 53  1  0
 21 54  1  0
 21 55  1  0
 25 56  1  0
 27 57  1  0
 35 58  1  0
 35 59  1  0
 36 60  1  0
 36 61  1  0
 41 62  1  0
M  CHG  3   5  -1  13  -1  25   1
M  END
>  <UniqueID>  (98) 
97

>  <SMILES>  (98) 
C[C@@H](C(=O)[O-])c1ccc2cc(C([NH-])=O)n(C(=O)OC(C)(C)C(=O)n3[nH+]c(C(F)F)c4c3C(F)(F)CCC4(F)F)c2c1

>  <Energy>  (98) 
137.5722058991348

>  <Genealogy>  (98) 
CC(C(=O)[O-])c1ccc2cc(C([NH-])=O)n(C(=O)OC(C)(C)C(=O)n3[nH+]c(C(F)F)c4c3C(F)(F)CCC4(F)F)c2c1 (protonated)
C[C@@H](C(=O)[O-])c1ccc2cc(C([NH-])=O)n(C(=O)OC(C)(C)C(=O)n3[nH+]c(C(F)F)c4c3C(F)(F)CCC4(F)F)c2c1 (chirality)
C[C@@H](C(=O)[O-])c1ccc2cc(C([NH-])=O)n(C(=O)OC(C)(C)C(=O)n3[nH+]c(C(F)F)c4c3C(F)(F)CCC4(F)F)c2c1 (3D coordinates assigned)
C[C@@H](C(=O)[O-])c1ccc2cc(C([NH-])=O)n(C(=O)OC(C)(C)C(=O)n3[nH+]c(C(F)F)c4c3C(F)(F)CCC4(F)F)c2c1 (nonaromatic ring conformer: 137.5722058991348 kcal/mol)

>  <smiles>  (98) 
CC(C(=O)O)c1ccc2cc(C(N)=O)n(C(=O)OC(C)(C)C(=O)n3nc(C(F)F)c4c3C(F)(F)CCC4(F)F)c2c1

>  <score_type>  (98) 
oracle

>  <origin>  (98) 
adg

>  <m_score__min__energy>  (98) 
-10.800000000000001

>  <m_primary>  (98) 
energy

$$$$
