0:0
     RDKit          3D

 34 35  0  0  0  0  0  0  0  0999 V2000
   -8.7080   18.9670  -31.3820 C   0  0  0  0  0  0  0  0  0  0  0  0
   -7.8020   19.0750  -32.6180 C   0  0  1  0  0  0  0  0  0  0  0  0
   -8.2100   20.1160  -33.4710 O   0  0  0  0  0  0  0  0  0  0  0  0
   -6.3020   19.1910  -32.2650 C   0  0  0  0  0  0  0  0  0  0  0  0
   -5.5810   20.1570  -33.1120 N   0  0  0  0  0  0  0  0  0  0  0  0
   -4.4090   20.6320  -32.4200 C   0  0  0  0  0  0  0  0  0  0  0  0
   -3.2060   19.8810  -32.4540 C   0  0  0  0  0  0  0  0  0  0  0  0
   -2.0460   20.3540  -31.8200 C   0  0  0  0  0  0  0  0  0  0  0  0
   -2.1150   21.5780  -31.1620 C   0  0  0  0  0  0  0  0  0  0  0  0
   -1.1360   22.2800  -30.4970 C   0  0  0  0  0  0  0  0  0  0  0  0
   -1.7560   23.4460  -30.0530 C   0  0  0  0  0  0  0  0  0  0  0  0
   -1.0780   24.4550  -29.2120 C   0  0  0  0  0  0  0  0  0  0  0  0
   -1.6710   25.7270  -28.9680 N   0  0  0  0  0  0  0  0  0  0  0  0
    0.0190   24.1700  -28.6590 O   0  0  0  0  0  0  0  0  0  0  0  0
   -3.0650   23.4690  -30.4350 N   0  0  0  0  0  0  0  0  0  0  0  0
   -4.0200   24.5280  -30.2530 C   0  0  0  0  0  0  0  0  0  0  0  0
   -3.8680   25.6300  -30.8430 O   0  0  0  0  0  0  0  0  0  0  0  0
   -5.1330   24.3360  -29.4450 O   0  0  0  0  0  0  0  0  0  0  0  0
   -3.2690   22.3150  -31.1100 C   0  0  0  0  0  0  0  0  0  0  0  0
   -4.4350   21.8780  -31.7500 C   0  0  0  0  0  0  0  0  0  0  0  0
   -8.0957   19.0400  -30.4711 H   0  0  0  0  0  0  0  0  0  0  0  0
   -9.4448   19.7837  -31.3950 H   0  0  0  0  0  0  0  0  0  0  0  0
   -9.2322   18.0000  -31.3950 H   0  0  0  0  0  0  0  0  0  0  0  0
   -7.9177   18.1256  -33.1614 H   0  0  0  0  0  0  0  0  0  0  0  0
   -8.8430   19.7410  -34.1360 H   0  0  0  0  0  0  0  0  0  0  0  0
   -6.2131   19.5106  -31.2162 H   0  0  0  0  0  0  0  0  0  0  0  0
   -5.8481   18.2035  -32.4351 H   0  0  0  0  0  0  0  0  0  0  0  0
   -5.2900   19.7030  -34.0090 H   0  0  0  0  0  0  0  0  0  0  0  0
   -6.1970   20.9700  -33.3420 H   0  0  0  0  0  0  0  0  0  0  0  0
   -3.1817   18.9170  -32.9832 H   0  0  0  0  0  0  0  0  0  0  0  0
   -1.1112   19.7746  -31.8428 H   0  0  0  0  0  0  0  0  0  0  0  0
   -0.0872   21.9837  -30.3477 H   0  0  0  0  0  0  0  0  0  0  0  0
   -2.7060   25.8550  -29.0130 H   0  0  0  0  0  0  0  0  0  0  0  0
   -5.3496   22.4888  -31.7324 H   0  0  0  0  0  0  0  0  0  0  0  0
  1  2  1  0
  2  3  1  0
  2  4  1  0
  4  5  1  0
  5  6  1  0
  6  7  2  0
  7  8  1  0
  8  9  2  0
  9 10  1  0
 10 11  2  0
 11 12  1  0
 12 13  1  0
 12 14  2  0
 11 15  1  0
 15 16  1  0
 16 17  2  0
 16 18  1  0
 15 19  1  0
 19 20  2  0
 20  6  1  0
 19  9  1  0
  1 21  1  0
  1 22  1  0
  1 23  1  0
  2 24  1  6
  3 25  1  0
  4 26  1  0
  4 27  1  0
  5 28  1  0
  5 29  1  0
  7 30  1  0
  8 31  1  0
 10 32  1  0
 13 33  1  0
 20 34  1  0
M  CHG  3   5   1  13  -1  18  -1
M  END
>  <UniqueID>  (1) 
1

>  <SMILES>  (1) 
C[C@@H](O)C[NH2+]c1ccc2cc(C([NH-])=O)n(C(=O)[O-])c2c1

>  <Energy>  (1) 
73.36437360640599

>  <Genealogy>  (1) 
CC(O)C[NH2+]c1ccc2cc(C([NH-])=O)n(C(=O)[O-])c2c1 (protonated)
C[C@@H](O)C[NH2+]c1ccc2cc(C([NH-])=O)n(C(=O)[O-])c2c1 (chirality)
C[C@@H](O)C[NH2+]c1ccc2cc(C([NH-])=O)n(C(=O)[O-])c2c1 (3D coordinates assigned)
C[C@@H](O)C[NH2+]c1ccc2cc(C([NH-])=O)n(C(=O)[O-])c2c1 (optimized conformer: 73.36437360640599 kcal/mol)

>  <smiles>  (1) 
CC(O)CNc1ccc2cc(C(N)=O)n(C(=O)O)c2c1

>  <score_type>  (1) 
oracle

>  <origin>  (1) 
adg

>  <m_score__min__energy>  (1) 
-9.7300000000000004

>  <m_primary>  (1) 
energy

$$$$
1:0
     RDKit          3D

 29 30  0  0  0  0  0  0  0  0999 V2000
   -1.6020   25.6090  -28.9770 N   0  0  0  0  0  0  0  0  0  0  0  0
   -0.9140   24.3700  -29.1230 C   0  0  0  0  0  0  0  0  0  0  0  0
    0.1810   24.1990  -28.5230 O   0  0  0  0  0  0  0  0  0  0  0  0
   -1.4850   23.2730  -29.9310 C   0  0  0  0  0  0  0  0  0  0  0  0
   -0.7150   22.2890  -30.5520 C   0  0  0  0  0  0  0  0  0  0  0  0
   -1.6200   21.4220  -31.1210 C   0  0  0  0  0  0  0  0  0  0  0  0
   -1.4100   20.2670  -31.8680 C   0  0  0  0  0  0  0  0  0  0  0  0
   -2.5370   19.5780  -32.3480 C   0  0  0  0  0  0  0  0  0  0  0  0
   -3.8450   20.0480  -32.0680 C   0  0  0  0  0  0  0  0  0  0  0  0
   -5.0420   19.3250  -32.6210 C   0  0  0  0  0  0  0  0  0  0  0  0
   -6.3240   20.0990  -32.3260 C   0  0  0  0  0  0  0  0  0  0  0  0
   -7.1300   20.1080  -33.4490 F   0  0  0  0  0  0  0  0  0  0  0  0
   -4.0180   21.2310  -31.3140 C   0  0  0  0  0  0  0  0  0  0  0  0
   -2.8790   21.8890  -30.8430 C   0  0  0  0  0  0  0  0  0  0  0  0
   -2.8120   23.0270  -30.1220 N   0  0  0  0  0  0  0  0  0  0  0  0
   -3.9320   23.8240  -29.7050 C   0  0  0  0  0  0  0  0  0  0  0  0
   -4.4410   23.6350  -28.5680 O   0  0  0  0  0  0  0  0  0  0  0  0
   -4.5250   24.8220  -30.6060 C   0  0  0  0  0  0  0  0  0  0  0  0
   -4.2450   26.0430  -30.4760 O   0  0  0  0  0  0  0  0  0  0  0  0
   -5.3900   24.4220  -31.6170 O   0  0  0  0  0  0  0  0  0  0  0  0
   -2.6260   25.6800  -29.1700 H   0  0  0  0  0  0  0  0  0  0  0  0
    0.3825   22.2206  -30.5807 H   0  0  0  0  0  0  0  0  0  0  0  0
   -0.3927   19.9042  -32.0765 H   0  0  0  0  0  0  0  0  0  0  0  0
   -2.4029   18.6651  -32.9468 H   0  0  0  0  0  0  0  0  0  0  0  0
   -4.9276   19.2175  -33.7097 H   0  0  0  0  0  0  0  0  0  0  0  0
   -5.1087   18.3358  -32.1445 H   0  0  0  0  0  0  0  0  0  0  0  0
   -6.8596   19.6167  -31.4950 H   0  0  0  0  0  0  0  0  0  0  0  0
   -6.0706   21.1333  -32.0504 H   0  0  0  0  0  0  0  0  0  0  0  0
   -5.0237   21.6236  -31.1034 H   0  0  0  0  0  0  0  0  0  0  0  0
  1  2  1  0
  2  3  2  0
  2  4  1  0
  4  5  2  0
  5  6  1  0
  6  7  2  0
  7  8  1  0
  8  9  2  0
  9 10  1  0
 10 11  1  0
 11 12  1  0
  9 13  1  0
 13 14  2  0
 14 15  1  0
 15 16  1  0
 16 17  2  0
 16 18  1  0
 18 19  2  0
 18 20  1  0
 15  4  1  0
 14  6  1  0
  1 21  1  0
  5 22  1  0
  7 23  1  0
  8 24  1  0
 10 25  1  0
 10 26  1  0
 11 27  1  0
 11 28  1  0
 13 29  1  0
M  CHG  2   1  -1  20  -1
M  END
>  <UniqueID>  (2) 
2

>  <SMILES>  (2) 
[NH-]C(=O)c1cc2ccc(CCF)cc2n1C(=O)C(=O)[O-]

>  <Energy>  (2) 
65.79939598010387

>  <Genealogy>  (2) 
[NH-]C(=O)c1cc2ccc(CCF)cc2n1C(=O)C(=O)[O-] (protonated)
[NH-]C(=O)c1cc2ccc(CCF)cc2n1C(=O)C(=O)[O-] (3D coordinates assigned)
[NH-]C(=O)c1cc2ccc(CCF)cc2n1C(=O)C(=O)[O-] (optimized conformer: 65.79939598010387 kcal/mol)

>  <smiles>  (2) 
NC(=O)c1cc2ccc(CCF)cc2n1C(=O)C(=O)O

>  <score_type>  (2) 
oracle

>  <origin>  (2) 
adg

>  <m_score__min__energy>  (2) 
-9.8300000000000001

>  <m_primary>  (2) 
energy

$$$$
2:0
     RDKit          3D

 31 32  0  0  0  0  0  0  0  0999 V2000
   -4.1840   25.5230  -30.5870 N   0  0  0  0  0  0  0  0  0  0  0  0
   -5.5500   25.1170  -30.4820 C   0  0  0  0  0  0  0  0  0  0  0  0
   -6.3970   25.9180  -30.0060 O   0  0  0  0  0  0  0  0  0  0  0  0
   -5.9960   23.8000  -30.9820 C   0  0  0  0  0  0  0  0  0  0  0  0
   -7.3350   23.4450  -31.1110 C   0  0  0  0  0  0  0  0  0  0  0  0
   -7.3240   22.1820  -31.6570 C   0  0  0  0  0  0  0  0  0  0  0  0
   -8.3830   21.3370  -31.9720 C   0  0  0  0  0  0  0  0  0  0  0  0
   -8.0800   20.0630  -32.4810 C   0  0  0  0  0  0  0  0  0  0  0  0
   -6.7330   19.6590  -32.6730 C   0  0  0  0  0  0  0  0  0  0  0  0
   -6.4220   18.2660  -33.1580 C   0  0  0  0  0  0  0  0  0  0  0  0
   -5.8620   18.3030  -34.4240 F   0  0  0  0  0  0  0  0  0  0  0  0
   -5.5260   17.6420  -32.3070 F   0  0  0  0  0  0  0  0  0  0  0  0
   -7.5890   17.5280  -33.2030 F   0  0  0  0  0  0  0  0  0  0  0  0
   -5.6850   20.5380  -32.3150 C   0  0  0  0  0  0  0  0  0  0  0  0
   -6.0150   21.8100  -31.8310 C   0  0  0  0  0  0  0  0  0  0  0  0
   -5.1850   22.7950  -31.4160 N   0  0  0  0  0  0  0  0  0  0  0  0
   -3.7520   22.7350  -31.3290 C   0  0  0  0  0  0  0  0  0  0  0  0
   -3.0670   22.4830  -32.3580 O   0  0  0  0  0  0  0  0  0  0  0  0
   -3.1220   22.9580  -30.0980 O   0  0  0  0  0  0  0  0  0  0  0  0
   -1.7080   23.0510  -29.9480 C   0  0  0  0  0  0  0  0  0  0  0  0
   -1.3350   24.3530  -29.3160 C   0  0  0  0  0  0  0  0  0  0  0  0
   -2.1410   25.3200  -29.3380 O   0  0  0  0  0  0  0  0  0  0  0  0
   -0.1090   24.4930  -28.6760 O   0  0  0  0  0  0  0  0  0  0  0  0
   -3.8800   26.4410  -30.1920 H   0  0  0  0  0  0  0  0  0  0  0  0
   -3.4920   24.9570  -31.1240 H   0  0  0  0  0  0  0  0  0  0  0  0
   -8.2144   24.0456  -30.8354 H   0  0  0  0  0  0  0  0  0  0  0  0
   -9.4256   21.6564  -31.8271 H   0  0  0  0  0  0  0  0  0  0  0  0
   -8.8964   19.3704  -32.7337 H   0  0  0  0  0  0  0  0  0  0  0  0
   -4.6338   20.2296  -32.4144 H   0  0  0  0  0  0  0  0  0  0  0  0
   -1.3560   22.2255  -29.3119 H   0  0  0  0  0  0  0  0  0  0  0  0
   -1.2393   22.9896  -30.9412 H   0  0  0  0  0  0  0  0  0  0  0  0
  1  2  1  0
  2  3  2  0
  2  4  1  0
  4  5  2  0
  5  6  1  0
  6  7  2  0
  7  8  1  0
  8  9  2  0
  9 10  1  0
 10 11  1  0
 10 12  1  0
 10 13  1  0
  9 14  1  0
 14 15  2  0
 15 16  1  0
 16 17  1  0
 17 18  2  0
 17 19  1  0
 19 20  1  0
 20 21  1  0
 21 22  2  0
 21 23  1  0
 16  4  1  0
 15  6  1  0
  1 24  1  0
  1 25  1  0
  5 26  1  0
  7 27  1  0
  8 28  1  0
 14 29  1  0
 20 30  1  0
 20 31  1  0
M  CHG  1  23  -1
M  END
>  <UniqueID>  (3) 
3

>  <SMILES>  (3) 
NC(=O)c1cc2ccc(C(F)(F)F)cc2n1C(=O)OCC(=O)[O-]

>  <Energy>  (3) 
69.04271747859893

>  <Genealogy>  (3) 
NC(=O)c1cc2ccc(C(F)(F)F)cc2n1C(=O)OCC(=O)[O-] (protonated)
NC(=O)c1cc2ccc(C(F)(F)F)cc2n1C(=O)OCC(=O)[O-] (3D coordinates assigned)
NC(=O)c1cc2ccc(C(F)(F)F)cc2n1C(=O)OCC(=O)[O-] (optimized conformer: 69.04271747859893 kcal/mol)

>  <smiles>  (3) 
NC(=O)c1cc2ccc(C(F)(F)F)cc2n1C(=O)OCC(=O)O

>  <score_type>  (3) 
oracle

>  <origin>  (3) 
adg

>  <m_score__min__energy>  (3) 
-9.8100000000000005

>  <m_primary>  (3) 
energy

$$$$
3:0
     RDKit          3D

 31 33  0  0  0  0  0  0  0  0999 V2000
   -5.3800   26.4590  -30.4390 N   0  0  0  0  0  0  0  0  0  0  0  0
   -6.2790   25.4350  -30.0110 C   0  0  0  0  0  0  0  0  0  0  0  0
   -6.9710   25.6160  -28.9750 O   0  0  0  0  0  0  0  0  0  0  0  0
   -6.3640   24.1450  -30.7230 C   0  0  0  0  0  0  0  0  0  0  0  0
   -7.5680   23.5590  -31.1030 C   0  0  0  0  0  0  0  0  0  0  0  0
   -7.2220   22.3560  -31.6730 C   0  0  0  0  0  0  0  0  0  0  0  0
   -8.0290   21.3720  -32.2360 C   0  0  0  0  0  0  0  0  0  0  0  0
   -7.4010   20.2440  -32.7890 C   0  0  0  0  0  0  0  0  0  0  0  0
   -5.9870   20.1200  -32.7820 C   0  0  0  0  0  0  0  0  0  0  0  0
   -5.3350   18.9290  -33.3840 C   0  0  0  0  0  0  0  0  0  0  0  0
   -6.0550   17.7380  -33.5820 C   0  0  0  0  0  0  0  0  0  0  0  0
   -5.4300   16.6260  -34.1470 C   0  0  0  0  0  0  0  0  0  0  0  0
   -4.0850   16.7090  -34.5150 C   0  0  0  0  0  0  0  0  0  0  0  0
   -3.5060   15.7160  -35.0270 O   0  0  0  0  0  0  0  0  0  0  0  0
   -3.3990   17.8660  -34.3230 N   0  0  0  0  0  0  0  0  0  0  0  0
   -3.9840   18.9630  -33.7710 C   0  0  0  0  0  0  0  0  0  0  0  0
   -5.2030   21.1470  -32.2010 C   0  0  0  0  0  0  0  0  0  0  0  0
   -5.8560   22.2500  -31.6370 C   0  0  0  0  0  0  0  0  0  0  0  0
   -5.3110   23.3440  -31.0570 N   0  0  0  0  0  0  0  0  0  0  0  0
   -3.9120   23.6470  -30.9360 C   0  0  0  0  0  0  0  0  0  0  0  0
   -3.0460   22.7790  -31.2250 O   0  0  0  0  0  0  0  0  0  0  0  0
   -3.4960   24.8990  -30.5000 O   0  0  0  0  0  0  0  0  0  0  0  0
   -5.3620   27.3790  -29.9470 H   0  0  0  0  0  0  0  0  0  0  0  0
   -4.6750   26.2780  -31.1870 H   0  0  0  0  0  0  0  0  0  0  0  0
   -8.5802   23.9702  -30.9748 H   0  0  0  0  0  0  0  0  0  0  0  0
   -9.1242   21.4744  -32.2476 H   0  0  0  0  0  0  0  0  0  0  0  0
   -8.0133   19.4457  -33.2336 H   0  0  0  0  0  0  0  0  0  0  0  0
   -7.1143   17.6826  -33.2906 H   0  0  0  0  0  0  0  0  0  0  0  0
   -5.9911   15.6925  -34.3013 H   0  0  0  0  0  0  0  0  0  0  0  0
   -3.3967   19.8818  -33.6266 H   0  0  0  0  0  0  0  0  0  0  0  0
   -4.1051   21.0795  -32.1931 H   0  0  0  0  0  0  0  0  0  0  0  0
  1  2  1  0
  2  3  2  0
  2  4  1  0
  4  5  2  0
  5  6  1  0
  6  7  2  0
  7  8  1  0
  8  9  2  0
  9 10  1  0
 10 11  1  0
 11 12  2  0
 12 13  1  0
 13 14  2  0
 13 15  1  0
 15 16  1  0
  9 17  1  0
 17 18  2  0
 18 19  1  0
 19 20  1  0
 20 21  2  0
 20 22  1  0
 19  4  1  0
 18  6  1  0
 16 10  2  0
  1 23  1  0
  1 24  1  0
  5 25  1  0
  7 26  1  0
  8 27  1  0
 11 28  1  0
 12 29  1  0
 16 30  1  0
 17 31  1  0
M  CHG  2  15  -1  22  -1
M  END
>  <UniqueID>  (4) 
4

>  <SMILES>  (4) 
NC(=O)c1cc2ccc(-c3ccc(=O)[n-]c3)cc2n1C(=O)[O-]

>  <Energy>  (4) 
80.33418542384615

>  <Genealogy>  (4) 
NC(=O)c1cc2ccc(-c3ccc(=O)[n-]c3)cc2n1C(=O)[O-] (protonated)
NC(=O)c1cc2ccc(-c3ccc(=O)[n-]c3)cc2n1C(=O)[O-] (3D coordinates assigned)
NC(=O)c1cc2ccc(-c3ccc(=O)[n-]c3)cc2n1C(=O)[O-] (optimized conformer: 80.33418542384615 kcal/mol)

>  <smiles>  (4) 
NC(=O)c1cc2ccc(-c3ccc(=O)[nH]c3)cc2n1C(=O)O

>  <score_type>  (4) 
oracle

>  <origin>  (4) 
adg

>  <m_score__min__energy>  (4) 
-9.1699999999999999

>  <m_primary>  (4) 
energy

$$$$
4:0
     RDKit          3D

 46 48  0  0  0  0  0  0  0  0999 V2000
   -6.8990   17.8370  -31.5490 C   0  0  0  0  0  0  0  0  0  0  0  0
   -8.0870   18.5930  -32.1330 C   0  0  1  0  0  0  0  0  0  0  0  0
   -9.2640   18.0910  -31.6020 F   0  0  0  0  0  0  0  0  0  0  0  0
   -7.9750   20.0690  -31.8420 C   0  0  0  0  0  0  0  0  0  0  0  0
   -9.1110   20.9060  -31.9780 C   0  0  0  0  0  0  0  0  0  0  0  0
   -9.0130   22.2890  -31.7530 C   0  0  0  0  0  0  0  0  0  0  0  0
   -7.7710   22.8060  -31.3970 C   0  0  0  0  0  0  0  0  0  0  0  0
   -7.3910   24.1050  -31.1500 C   0  0  0  0  0  0  0  0  0  0  0  0
   -6.0300   24.0430  -30.8570 C   0  0  0  0  0  0  0  0  0  0  0  0
   -5.2310   25.2170  -30.4450 C   0  0  0  0  0  0  0  0  0  0  0  0
   -3.8560   25.3020  -30.8120 N   0  0  0  0  0  0  0  0  0  0  0  0
   -5.7580   26.1630  -29.8020 O   0  0  0  0  0  0  0  0  0  0  0  0
   -5.5840   22.7560  -30.9300 N   0  0  0  0  0  0  0  0  0  0  0  0
   -4.2420   22.2760  -30.7560 C   0  0  0  0  0  0  0  0  0  0  0  0
   -3.9340   21.6330  -29.7160 O   0  0  0  0  0  0  0  0  0  0  0  0
   -3.2760   22.5480  -31.7320 O   0  0  0  0  0  0  0  0  0  0  0  0
   -3.0310   21.6990  -32.8520 C   0  0  0  0  0  0  0  0  0  0  0  0
   -3.4770   20.2660  -32.5450 C   0  0  0  0  0  0  0  0  0  0  0  0
   -3.9010   19.5760  -33.7800 N   0  0  0  0  0  0  0  0  0  0  0  0
   -5.3550   19.6260  -33.9440 C   0  0  0  0  0  0  0  0  0  0  0  0
   -5.7320   18.4430  -34.8160 C   0  0  0  0  0  0  0  0  0  0  0  0
   -4.6110   17.4360  -34.6240 C   0  0  0  0  0  0  0  0  0  0  0  0
   -3.5600   18.1470  -33.7810 C   0  0  0  0  0  0  0  0  0  0  0  0
   -6.6630   22.0110  -31.2570 C   0  0  0  0  0  0  0  0  0  0  0  0
   -6.7280   20.6330  -31.4920 C   0  0  0  0  0  0  0  0  0  0  0  0
   -6.9484   17.8685  -30.4506 H   0  0  0  0  0  0  0  0  0  0  0  0
   -6.9279   16.7908  -31.8875 H   0  0  0  0  0  0  0  0  0  0  0  0
   -5.9635   18.3062  -31.8875 H   0  0  0  0  0  0  0  0  0  0  0  0
   -8.0915   18.4563  -33.2245 H   0  0  0  0  0  0  0  0  0  0  0  0
  -10.0790   20.4680  -32.2626 H   0  0  0  0  0  0  0  0  0  0  0  0
   -9.8912   22.9435  -31.8551 H   0  0  0  0  0  0  0  0  0  0  0  0
   -8.0267   25.0023  -31.1779 H   0  0  0  0  0  0  0  0  0  0  0  0
   -3.3430   24.4650  -31.1670 H   0  0  0  0  0  0  0  0  0  0  0  0
   -3.5916   22.0746  -33.7207 H   0  0  0  0  0  0  0  0  0  0  0  0
   -1.9526   21.6978  -33.0690 H   0  0  0  0  0  0  0  0  0  0  0  0
   -2.6384   19.7156  -32.0935 H   0  0  0  0  0  0  0  0  0  0  0  0
   -4.3284   20.3017  -31.8494 H   0  0  0  0  0  0  0  0  0  0  0  0
   -5.8506   19.5494  -32.9649 H   0  0  0  0  0  0  0  0  0  0  0  0
   -5.6708   20.5746  -34.4028 H   0  0  0  0  0  0  0  0  0  0  0  0
   -6.6934   18.0166  -34.4937 H   0  0  0  0  0  0  0  0  0  0  0  0
   -5.8513   18.7304  -35.8711 H   0  0  0  0  0  0  0  0  0  0  0  0
   -4.9829   16.5429  -34.1006 H   0  0  0  0  0  0  0  0  0  0  0  0
   -4.1994   17.0974  -35.5863 H   0  0  0  0  0  0  0  0  0  0  0  0
   -3.5727   17.7554  -32.7531 H   0  0  0  0  0  0  0  0  0  0  0  0
   -2.5529   17.9852  -34.1928 H   0  0  0  0  0  0  0  0  0  0  0  0
   -5.8296   20.0041  -31.4062 H   0  0  0  0  0  0  0  0  0  0  0  0
  1  2  1  0
  2  3  1  0
  2  4  1  0
  4  5  2  0
  5  6  1  0
  6  7  2  0
  7  8  1  0
  8  9  2  0
  9 10  1  0
 10 11  1  0
 10 12  2  0
  9 13  1  0
 13 14  1  0
 14 15  2  0
 14 16  1  0
 16 17  1  0
 17 18  1  0
 18 19  1  0
 19 20  1  0
 20 21  1  0
 21 22  1  0
 22 23  1  0
 13 24  1  0
 24 25  2  0
 25  4  1  0
 24  7  1  0
 23 19  1  0
  1 26  1  0
  1 27  1  0
  1 28  1  0
  2 29  1  6
  5 30  1  0
  6 31  1  0
  8 32  1  0
 11 33  1  0
 17 34  1  0
 17 35  1  0
 18 36  1  0
 18 37  1  0
 20 38  1  0
 20 39  1  0
 21 40  1  0
 21 41  1  0
 22 42  1  0
 22 43  1  0
 23 44  1  0
 23 45  1  0
 25 46  1  0
M  CHG  1  11  -1
M  END
>  <UniqueID>  (5) 
5

>  <SMILES>  (5) 
C[C@@H](F)c1ccc2cc(C([NH-])=O)n(C(=O)OCCN3CCCC3)c2c1

>  <Energy>  (5) 
81.7950205440655

>  <Genealogy>  (5) 
CC(F)c1ccc2cc(C([NH-])=O)n(C(=O)OCCN3CCCC3)c2c1 (protonated)
C[C@@H](F)c1ccc2cc(C([NH-])=O)n(C(=O)OCCN3CCCC3)c2c1 (chirality)
C[C@@H](F)c1ccc2cc(C([NH-])=O)n(C(=O)OCCN3CCCC3)c2c1 (3D coordinates assigned)
C[C@@H](F)c1ccc2cc(C([NH-])=O)n(C(=O)OCCN3CCCC3)c2c1 (nonaromatic ring conformer: 81.7950205440655 kcal/mol)

>  <smiles>  (5) 
CC(F)c1ccc2cc(C(N)=O)n(C(=O)OCCN3CCCC3)c2c1

>  <score_type>  (5) 
oracle

>  <origin>  (5) 
adg

>  <m_score__min__energy>  (5) 
-10.68

>  <m_primary>  (5) 
energy

$$$$
5:0
     RDKit          3D

 46 47  0  0  0  0  0  0  0  0999 V2000
   -3.4020   19.4260  -33.8750 C   0  0  0  0  0  0  0  0  0  0  0  0
   -4.6580   18.8150  -34.0630 O   0  0  0  0  0  0  0  0  0  0  0  0
   -4.9260   17.9450  -32.9820 C   0  0  0  0  0  0  0  0  0  0  0  0
   -6.4590   17.7670  -32.8000 C   0  0  0  0  0  0  0  0  0  0  0  0
   -6.8600   16.3720  -33.3300 C   0  0  0  0  0  0  0  0  0  0  0  0
   -6.7940   17.8110  -31.2910 C   0  0  0  0  0  0  0  0  0  0  0  0
   -7.2310   18.8000  -33.5520 N   0  0  0  0  0  0  0  0  0  0  0  0
   -7.3110   20.0870  -32.8930 C   0  0  0  0  0  0  0  0  0  0  0  0
   -8.5760   20.6680  -32.6020 C   0  0  0  0  0  0  0  0  0  0  0  0
   -8.6660   21.9190  -31.9690 C   0  0  0  0  0  0  0  0  0  0  0  0
   -7.4820   22.5590  -31.6190 C   0  0  0  0  0  0  0  0  0  0  0  0
   -7.2770   23.7840  -31.0250 C   0  0  0  0  0  0  0  0  0  0  0  0
   -5.8930   23.9210  -30.9270 C   0  0  0  0  0  0  0  0  0  0  0  0
   -5.2220   25.0840  -30.3090 C   0  0  0  0  0  0  0  0  0  0  0  0
   -3.9890   25.5590  -30.8420 N   0  0  0  0  0  0  0  0  0  0  0  0
   -5.7370   25.6770  -29.3240 O   0  0  0  0  0  0  0  0  0  0  0  0
   -5.2700   22.8220  -31.4350 N   0  0  0  0  0  0  0  0  0  0  0  0
   -3.8570   22.6020  -31.5730 C   0  0  0  0  0  0  0  0  0  0  0  0
   -3.3750   22.3340  -32.7060 O   0  0  0  0  0  0  0  0  0  0  0  0
   -2.9630   22.6870  -30.4090 C   0  0  0  0  0  0  0  0  0  0  0  0
   -1.9440   23.4280  -30.4500 O   0  0  0  0  0  0  0  0  0  0  0  0
   -3.2470   21.9330  -29.2660 O   0  0  0  0  0  0  0  0  0  0  0  0
   -3.8810   22.4880  -28.1210 C   0  0  0  0  0  0  0  0  0  0  0  0
   -6.2540   22.0000  -31.8590 C   0  0  0  0  0  0  0  0  0  0  0  0
   -6.1320   20.7650  -32.5020 C   0  0  0  0  0  0  0  0  0  0  0  0
   -3.1996   19.5244  -32.7983 H   0  0  0  0  0  0  0  0  0  0  0  0
   -2.6201   18.8076  -34.3400 H   0  0  0  0  0  0  0  0  0  0  0  0
   -3.4059   20.4229  -34.3400 H   0  0  0  0  0  0  0  0  0  0  0  0
   -4.4682   16.9651  -33.1828 H   0  0  0  0  0  0  0  0  0  0  0  0
   -4.5043   18.3767  -32.0623 H   0  0  0  0  0  0  0  0  0  0  0  0
   -7.0534   15.6991  -32.4816 H   0  0  0  0  0  0  0  0  0  0  0  0
   -7.7692   16.4600  -33.9429 H   0  0  0  0  0  0  0  0  0  0  0  0
   -6.0428   15.9638  -33.9429 H   0  0  0  0  0  0  0  0  0  0  0  0
   -5.8700   17.6896  -30.7066 H   0  0  0  0  0  0  0  0  0  0  0  0
   -7.2582   18.7778  -31.0465 H   0  0  0  0  0  0  0  0  0  0  0  0
   -7.4921   16.9968  -31.0465 H   0  0  0  0  0  0  0  0  0  0  0  0
   -6.8090   18.9330  -34.5010 H   0  0  0  0  0  0  0  0  0  0  0  0
   -8.2040   18.4510  -33.7200 H   0  0  0  0  0  0  0  0  0  0  0  0
   -9.4960   20.1309  -32.8761 H   0  0  0  0  0  0  0  0  0  0  0  0
   -9.6428   22.3781  -31.7568 H   0  0  0  0  0  0  0  0  0  0  0  0
   -8.0428   24.5024  -30.6972 H   0  0  0  0  0  0  0  0  0  0  0  0
   -3.0780   25.2780  -30.4170 H   0  0  0  0  0  0  0  0  0  0  0  0
   -3.4160   22.0810  -27.2110 H   0  0  0  0  0  0  0  0  0  0  0  0
   -3.7672   23.5820  -28.1330 H   0  0  0  0  0  0  0  0  0  0  0  0
   -4.9504   22.2304  -28.1330 H   0  0  0  0  0  0  0  0  0  0  0  0
   -5.1414   20.3297  -32.6998 H   0  0  0  0  0  0  0  0  0  0  0  0
  1  2  1  0
  2  3  1  0
  3  4  1  0
  4  5  1  0
  4  6  1  0
  4  7  1  0
  7  8  1  0
  8  9  2  0
  9 10  1  0
 10 11  2  0
 11 12  1  0
 12 13  2  0
 13 14  1  0
 14 15  1  0
 14 16  2  0
 13 17  1  0
 17 18  1  0
 18 19  2  0
 18 20  1  0
 20 21  2  0
 20 22  1  0
 22 23  1  0
 17 24  1  0
 24 25  2  0
 25  8  1  0
 24 11  1  0
  1 26  1  0
  1 27  1  0
  1 28  1  0
  3 29  1  0
  3 30  1  0
  5 31  1  0
  5 32  1  0
  5 33  1  0
  6 34  1  0
  6 35  1  0
  6 36  1  0
  7 37  1  0
  7 38  1  0
  9 39  1  0
 10 40  1  0
 12 41  1  0
 15 42  1  0
 23 43  1  0
 23 44  1  0
 23 45  1  0
 25 46  1  0
M  CHG  2   7   1  15  -1
M  END
>  <UniqueID>  (6) 
6

>  <SMILES>  (6) 
COCC(C)(C)[NH2+]c1ccc2cc(C([NH-])=O)n(C(=O)C(=O)OC)c2c1

>  <Energy>  (6) 
83.94254332392737

>  <Genealogy>  (6) 
COCC(C)(C)[NH2+]c1ccc2cc(C([NH-])=O)n(C(=O)C(=O)OC)c2c1 (protonated)
COCC(C)(C)[NH2+]c1ccc2cc(C([NH-])=O)n(C(=O)C(=O)OC)c2c1 (3D coordinates assigned)
COCC(C)(C)[NH2+]c1ccc2cc(C([NH-])=O)n(C(=O)C(=O)OC)c2c1 (optimized conformer: 83.94254332392737 kcal/mol)

>  <smiles>  (6) 
COCC(C)(C)Nc1ccc2cc(C(N)=O)n(C(=O)C(=O)OC)c2c1

>  <score_type>  (6) 
oracle

>  <origin>  (6) 
adg

>  <m_score__min__energy>  (6) 
-9.3000000000000007

>  <m_primary>  (6) 
energy

$$$$
6:0
     RDKit          3D

 35 36  0  0  0  0  0  0  0  0999 V2000
   -6.1040   16.8230  -32.2740 C   0  0  0  0  0  0  0  0  0  0  0  0
   -6.2490   18.0170  -32.1920 C   0  0  0  0  0  0  0  0  0  0  0  0
   -6.4200   19.4430  -32.0950 C   0  0  0  0  0  0  0  0  0  0  0  0
   -7.6530   20.0300  -32.4590 C   0  0  0  0  0  0  0  0  0  0  0  0
   -7.8410   21.4170  -32.3410 C   0  0  0  0  0  0  0  0  0  0  0  0
   -6.7740   22.1830  -31.8780 C   0  0  0  0  0  0  0  0  0  0  0  0
   -6.7110   23.5290  -31.6090 C   0  0  0  0  0  0  0  0  0  0  0  0
   -5.4270   23.7470  -31.1120 C   0  0  0  0  0  0  0  0  0  0  0  0
   -4.9480   25.0680  -30.6480 C   0  0  0  0  0  0  0  0  0  0  0  0
   -3.5500   25.2940  -30.4740 N   0  0  0  0  0  0  0  0  0  0  0  0
   -5.7560   25.9990  -30.3930 O   0  0  0  0  0  0  0  0  0  0  0  0
   -4.7090   22.5850  -31.1110 N   0  0  0  0  0  0  0  0  0  0  0  0
   -3.3740   22.3940  -30.6060 C   0  0  0  0  0  0  0  0  0  0  0  0
   -2.4520   22.1270  -31.4240 O   0  0  0  0  0  0  0  0  0  0  0  0
   -3.0130   22.5980  -29.1380 C   0  0  2  0  0  0  0  0  0  0  0  0
   -4.0080   23.3380  -28.4700 O   0  0  0  0  0  0  0  0  0  0  0  0
   -1.6110   23.2020  -28.8470 C   0  0  1  0  0  0  0  0  0  0  0  0
   -1.0580   23.7420  -30.0200 O   0  0  0  0  0  0  0  0  0  0  0  0
   -1.5720   24.2420  -27.7120 C   0  0  0  0  0  0  0  0  0  0  0  0
   -2.0690   25.4730  -28.1470 O   0  0  0  0  0  0  0  0  0  0  0  0
   -5.5620   21.6300  -31.5510 C   0  0  0  0  0  0  0  0  0  0  0  0
   -5.3630   20.2460  -31.6220 C   0  0  0  0  0  0  0  0  0  0  0  0
   -5.9717   15.7336  -32.3488 H   0  0  0  0  0  0  0  0  0  0  0  0
   -8.4698   19.3974  -32.8367 H   0  0  0  0  0  0  0  0  0  0  0  0
   -8.8012   21.8837  -32.6061 H   0  0  0  0  0  0  0  0  0  0  0  0
   -7.5052   24.2760  -31.7549 H   0  0  0  0  0  0  0  0  0  0  0  0
   -2.9890   24.7040  -29.8210 H   0  0  0  0  0  0  0  0  0  0  0  0
   -2.9592   21.5729  -28.7428 H   0  0  0  0  0  0  0  0  0  0  0  0
   -3.8600   24.3000  -28.6610 H   0  0  0  0  0  0  0  0  0  0  0  0
   -1.0034   22.3581  -28.4883 H   0  0  0  0  0  0  0  0  0  0  0  0
   -1.4980   24.6180  -30.1730 H   0  0  0  0  0  0  0  0  0  0  0  0
   -2.1852   23.8823  -26.8726 H   0  0  0  0  0  0  0  0  0  0  0  0
   -0.5275   24.3769  -27.3944 H   0  0  0  0  0  0  0  0  0  0  0  0
   -2.9620   25.2890  -28.5400 H   0  0  0  0  0  0  0  0  0  0  0  0
   -4.4064   19.7971  -31.3165 H   0  0  0  0  0  0  0  0  0  0  0  0
  1  2  3  0
  2  3  1  0
  3  4  2  0
  4  5  1  0
  5  6  2  0
  6  7  1  0
  7  8  2  0
  8  9  1  0
  9 10  1  0
  9 11  2  0
  8 12  1  0
 12 13  1  0
 13 14  2  0
 13 15  1  0
 15 16  1  0
 15 17  1  0
 17 18  1  0
 17 19  1  0
 19 20  1  0
 12 21  1  0
 21 22  2  0
 22  3  1  0
 21  6  1  0
  1 23  1  0
  4 24  1  0
  5 25  1  0
  7 26  1  0
 10 27  1  0
 15 28  1  1
 16 29  1  0
 17 30  1  1
 18 31  1  0
 19 32  1  0
 19 33  1  0
 20 34  1  0
 22 35  1  0
M  CHG  1  10  -1
M  END
>  <UniqueID>  (7) 
7

>  <SMILES>  (7) 
C#Cc1ccc2cc(C([NH-])=O)n(C(=O)[C@H](O)[C@@H](O)CO)c2c1

>  <Energy>  (7) 
76.2661533619227

>  <Genealogy>  (7) 
C#Cc1ccc2cc(C([NH-])=O)n(C(=O)C(O)C(O)CO)c2c1 (protonated)
C#Cc1ccc2cc(C([NH-])=O)n(C(=O)[C@H](O)[C@@H](O)CO)c2c1 (chirality)
C#Cc1ccc2cc(C([NH-])=O)n(C(=O)[C@H](O)[C@@H](O)CO)c2c1 (3D coordinates assigned)
C#Cc1ccc2cc(C([NH-])=O)n(C(=O)[C@H](O)[C@@H](O)CO)c2c1 (optimized conformer: 76.2661533619227 kcal/mol)

>  <smiles>  (7) 
C#Cc1ccc2cc(C(N)=O)n(C(=O)C(O)C(O)CO)c2c1

>  <score_type>  (7) 
oracle

>  <origin>  (7) 
adg

>  <m_score__min__energy>  (7) 
-9.8000000000000007

>  <m_primary>  (7) 
energy

$$$$
7:0
     RDKit          3D

 56 58  0  0  0  0  0  0  0  0999 V2000
   -1.2690   17.7250  -34.6390 C   0  0  0  0  0  0  0  0  0  0  0  0
   -2.4690   17.0340  -34.9730 O   0  0  0  0  0  0  0  0  0  0  0  0
   -3.6850   17.1720  -34.2800 C   0  0  0  0  0  0  0  0  0  0  0  0
   -4.5740   18.1720  -34.6850 C   0  0  0  0  0  0  0  0  0  0  0  0
   -5.8000   18.3470  -34.0300 C   0  0  0  0  0  0  0  0  0  0  0  0
   -6.1570   17.5130  -32.9610 C   0  0  0  0  0  0  0  0  0  0  0  0
   -7.4740   17.7010  -32.2600 C   0  0  0  0  0  0  0  0  0  0  0  0
   -8.1830   18.8630  -32.7890 N   0  0  0  0  0  0  0  0  0  0  0  0
   -8.0420   20.2050  -32.2840 C   0  0  0  0  0  0  0  0  0  0  0  0
   -9.2090   20.9650  -32.0180 C   0  0  0  0  0  0  0  0  0  0  0  0
   -9.1200   22.2880  -31.5510 C   0  0  0  0  0  0  0  0  0  0  0  0
   -7.8520   22.8270  -31.3610 C   0  0  0  0  0  0  0  0  0  0  0  0
   -7.4760   24.0720  -30.9090 C   0  0  0  0  0  0  0  0  0  0  0  0
   -6.0820   24.0490  -30.8880 C   0  0  0  0  0  0  0  0  0  0  0  0
   -5.2410   25.1730  -30.4320 C   0  0  0  0  0  0  0  0  0  0  0  0
   -3.8610   25.2160  -30.7980 N   0  0  0  0  0  0  0  0  0  0  0  0
   -5.7210   26.0970  -29.7290 O   0  0  0  0  0  0  0  0  0  0  0  0
   -5.6190   22.8510  -31.3390 N   0  0  0  0  0  0  0  0  0  0  0  0
   -4.2470   22.4530  -31.4750 C   0  0  0  0  0  0  0  0  0  0  0  0
   -3.5150   23.0600  -32.3040 O   0  0  0  0  0  0  0  0  0  0  0  0
   -3.7150   21.3400  -30.7320 N   0  0  0  0  0  0  0  0  0  0  0  0
   -3.0760   19.9440  -31.6220 S   0  0  0  0  0  0  0  0  0  0  0  0
   -3.4700   21.4190  -29.2830 C   0  0  0  0  0  0  0  0  0  0  0  0
   -3.0080   22.8220  -28.8380 C   0  0  0  0  0  0  0  0  0  0  0  0
   -1.5820   22.8400  -28.2500 C   0  0  0  0  0  0  0  0  0  0  0  0
   -0.9340   24.4940  -28.0580 S   0  0  0  0  0  0  0  0  0  0  0  0
   -1.8850   25.6110  -28.9720 N   0  0  0  0  0  0  0  0  0  0  0  0
    0.4810   24.5240  -28.5680 O   0  0  0  0  0  0  0  0  0  0  0  0
   -0.9480   24.8870  -26.6030 O   0  0  0  0  0  0  0  0  0  0  0  0
   -6.7120   22.1070  -31.6070 C   0  0  0  0  0  0  0  0  0  0  0  0
   -6.7680   20.7850  -32.0560 C   0  0  0  0  0  0  0  0  0  0  0  0
   -5.2580   16.5220  -32.5340 C   0  0  0  0  0  0  0  0  0  0  0  0
   -4.0340   16.3470  -33.1920 C   0  0  0  0  0  0  0  0  0  0  0  0
   -1.1708   17.7815  -33.5448 H   0  0  0  0  0  0  0  0  0  0  0  0
   -0.4066   17.1852  -35.0571 H   0  0  0  0  0  0  0  0  0  0  0  0
   -1.3029   18.7419  -35.0571 H   0  0  0  0  0  0  0  0  0  0  0  0
   -4.3081   18.8283  -35.5268 H   0  0  0  0  0  0  0  0  0  0  0  0
   -6.4860   19.1427  -34.3560 H   0  0  0  0  0  0  0  0  0  0  0  0
   -8.0924   16.8034  -32.4079 H   0  0  0  0  0  0  0  0  0  0  0  0
   -7.2828   17.8627  -31.1889 H   0  0  0  0  0  0  0  0  0  0  0  0
   -8.7750   18.7150  -33.6440 H   0  0  0  0  0  0  0  0  0  0  0  0
  -10.1987   20.5128  -32.1794 H   0  0  0  0  0  0  0  0  0  0  0  0
  -10.0245   22.8782  -31.3425 H   0  0  0  0  0  0  0  0  0  0  0  0
   -8.1344   24.9062  -30.6252 H   0  0  0  0  0  0  0  0  0  0  0  0
   -3.4610   26.0490  -31.2860 H   0  0  0  0  0  0  0  0  0  0  0  0
   -2.8620   20.7160  -32.7770 H   0  0  0  0  0  0  0  0  0  0  0  0
   -4.4015   21.1698  -28.7536 H   0  0  0  0  0  0  0  0  0  0  0  0
   -2.6651   20.7094  -29.0408 H   0  0  0  0  0  0  0  0  0  0  0  0
   -3.0335   23.4906  -29.7111 H   0  0  0  0  0  0  0  0  0  0  0  0
   -3.6916   23.1514  -28.0416 H   0  0  0  0  0  0  0  0  0  0  0  0
   -1.6023   22.3536  -27.2636 H   0  0  0  0  0  0  0  0  0  0  0  0
   -0.9263   22.3067  -28.9541 H   0  0  0  0  0  0  0  0  0  0  0  0
   -1.8610   25.2860  -29.9650 H   0  0  0  0  0  0  0  0  0  0  0  0
   -5.8471   20.2086  -32.2283 H   0  0  0  0  0  0  0  0  0  0  0  0
   -5.5164   15.8803  -31.6788 H   0  0  0  0  0  0  0  0  0  0  0  0
   -3.3410   15.5609  -32.8576 H   0  0  0  0  0  0  0  0  0  0  0  0
  1  2  1  0
  2  3  1  0
  3  4  2  0
  4  5  1  0
  5  6  2  0
  6  7  1  0
  7  8  1  0
  8  9  1  0
  9 10  2  0
 10 11  1  0
 11 12  2  0
 12 13  1  0
 13 14  2  0
 14 15  1  0
 15 16  1  0
 15 17  2  0
 14 18  1  0
 18 19  1  0
 19 20  2  0
 19 21  1  0
 21 22  1  0
 21 23  1  0
 23 24  1  0
 24 25  1  0
 25 26  1  0
 26 27  1  0
 26 28  2  0
 26 29  2  0
 18 30  1  0
 30 31  2  0
  6 32  1  0
 32 33  2  0
 33  3  1  0
 31  9  1  0
 30 12  1  0
  1 34  1  0
  1 35  1  0
  1 36  1  0
  4 37  1  0
  5 38  1  0
  7 39  1  0
  7 40  1  0
  8 41  1  0
 10 42  1  0
 11 43  1  0
 13 44  1  0
 16 45  1  0
 22 46  1  0
 23 47  1  0
 23 48  1  0
 24 49  1  0
 24 50  1  0
 25 51  1  0
 25 52  1  0
 27 53  1  0
 31 54  1  0
 32 55  1  0
 33 56  1  0
M  CHG  2  16  -1  27  -1
M  END
>  <UniqueID>  (8) 
8

>  <SMILES>  (8) 
COc1ccc(CNc2ccc3cc(C([NH-])=O)n(C(=O)N(S)CCCS([NH-])(=O)=O)c3c2)cc1

>  <Energy>  (8) 
88.896062088478

>  <Genealogy>  (8) 
COc1ccc(CNc2ccc3cc(C([NH-])=O)n(C(=O)N(S)CCCS([NH-])(=O)=O)c3c2)cc1 (protonated)
COc1ccc(CNc2ccc3cc(C([NH-])=O)n(C(=O)N(S)CCCS([NH-])(=O)=O)c3c2)cc1 (3D coordinates assigned)
COc1ccc(CNc2ccc3cc(C([NH-])=O)n(C(=O)N(S)CCCS([NH-])(=O)=O)c3c2)cc1 (optimized conformer: 88.896062088478 kcal/mol)

>  <smiles>  (8) 
COc1ccc(CNc2ccc3cc(C(N)=O)n(C(=O)N(S)CCCS(N)(=O)=O)c3c2)cc1

>  <score_type>  (8) 
oracle

>  <origin>  (8) 
adg

>  <m_score__min__energy>  (8) 
-14.18

>  <m_primary>  (8) 
energy

$$$$
8:0
     RDKit          3D

 30 31  0  0  0  0  0  0  0  0999 V2000
   -4.7090   18.0210  -34.9860 N   0  0  0  0  0  0  0  0  0  0  0  0
   -5.9040   18.0920  -34.2050 C   0  0  0  0  0  0  0  0  0  0  0  0
   -6.6810   17.1000  -34.1830 O   0  0  0  0  0  0  0  0  0  0  0  0
   -6.2490   19.3240  -33.4640 C   0  0  0  0  0  0  0  0  0  0  0  0
   -7.5430   19.6530  -33.0650 C   0  0  0  0  0  0  0  0  0  0  0  0
   -7.4160   20.8060  -32.3280 C   0  0  0  0  0  0  0  0  0  0  0  0
   -8.3890   21.5710  -31.6910 C   0  0  0  0  0  0  0  0  0  0  0  0
   -7.9770   22.7300  -31.0140 C   0  0  0  0  0  0  0  0  0  0  0  0
   -6.6100   23.1130  -30.9980 C   0  0  0  0  0  0  0  0  0  0  0  0
   -6.1620   24.3450  -30.2470 C   0  0  1  0  0  0  0  0  0  0  0  0
   -7.1580   24.7930  -29.3940 F   0  0  0  0  0  0  0  0  0  0  0  0
   -4.8660   24.0940  -29.4630 C   0  0  0  0  0  0  0  0  0  0  0  0
   -3.7240   24.9200  -29.9740 C   0  0  0  0  0  0  0  0  0  0  0  0
   -3.8750   25.6470  -30.9900 O   0  0  0  0  0  0  0  0  0  0  0  0
   -2.5070   24.9150  -29.3050 O   0  0  0  0  0  0  0  0  0  0  0  0
   -5.6510   22.3030  -31.6470 C   0  0  0  0  0  0  0  0  0  0  0  0
   -6.0880   21.1430  -32.2990 C   0  0  0  0  0  0  0  0  0  0  0  0
   -5.3570   20.2410  -32.9920 N   0  0  0  0  0  0  0  0  0  0  0  0
   -3.9410   20.2910  -33.2420 C   0  0  0  0  0  0  0  0  0  0  0  0
   -3.4050   21.3510  -33.6590 O   0  0  0  0  0  0  0  0  0  0  0  0
   -3.1530   19.1650  -33.0410 O   0  0  0  0  0  0  0  0  0  0  0  0
   -4.0160   18.8000  -34.9880 H   0  0  0  0  0  0  0  0  0  0  0  0
   -4.4940   17.1600  -35.5380 H   0  0  0  0  0  0  0  0  0  0  0  0
   -8.4698   19.1057  -33.2919 H   0  0  0  0  0  0  0  0  0  0  0  0
   -9.4485   21.2764  -31.7172 H   0  0  0  0  0  0  0  0  0  0  0  0
   -8.7213   23.3479  -30.4904 H   0  0  0  0  0  0  0  0  0  0  0  0
   -5.9584   25.1250  -30.9954 H   0  0  0  0  0  0  0  0  0  0  0  0
   -5.0380   24.3436  -28.4056 H   0  0  0  0  0  0  0  0  0  0  0  0
   -4.5973   23.0345  -29.5866 H   0  0  0  0  0  0  0  0  0  0  0  0
   -4.5858   22.5772  -31.6403 H   0  0  0  0  0  0  0  0  0  0  0  0
  1  2  1  0
  2  3  2  0
  2  4  1  0
  4  5  2  0
  5  6  1  0
  6  7  2  0
  7  8  1  0
  8  9  2  0
  9 10  1  0
 10 11  1  0
 10 12  1  0
 12 13  1  0
 13 14  2  0
 13 15  1  0
  9 16  1  0
 16 17  2  0
 17 18  1  0
 18 19  1  0
 19 20  2  0
 19 21  1  0
 18  4  1  0
 17  6  1  0
  1 22  1  0
  1 23  1  0
  5 24  1  0
  7 25  1  0
  8 26  1  0
 10 27  1  6
 12 28  1  0
 12 29  1  0
 16 30  1  0
M  CHG  2  15  -1  21  -1
M  END
>  <UniqueID>  (9) 
9

>  <SMILES>  (9) 
NC(=O)c1cc2ccc([C@@H](F)CC(=O)[O-])cc2n1C(=O)[O-]

>  <Energy>  (9) 
67.2614263685024

>  <Genealogy>  (9) 
NC(=O)c1cc2ccc(C(F)CC(=O)[O-])cc2n1C(=O)[O-] (protonated)
NC(=O)c1cc2ccc([C@@H](F)CC(=O)[O-])cc2n1C(=O)[O-] (chirality)
NC(=O)c1cc2ccc([C@@H](F)CC(=O)[O-])cc2n1C(=O)[O-] (3D coordinates assigned)
NC(=O)c1cc2ccc([C@@H](F)CC(=O)[O-])cc2n1C(=O)[O-] (optimized conformer: 67.2614263685024 kcal/mol)

>  <smiles>  (9) 
NC(=O)c1cc2ccc(C(F)CC(=O)O)cc2n1C(=O)O

>  <score_type>  (9) 
oracle

>  <origin>  (9) 
adg

>  <m_score__min__energy>  (9) 
-9.4700000000000006

>  <m_primary>  (9) 
energy

$$$$
9:0
     RDKit          3D

 40 42  0  0  0  0  0  0  0  0999 V2000
   -3.8780   25.3800  -30.4890 N   0  0  0  0  0  0  0  0  0  0  0  0
   -3.7320   23.9650  -30.5620 C   0  0  0  0  0  0  0  0  0  0  0  0
   -2.5870   23.4550  -30.4420 O   0  0  0  0  0  0  0  0  0  0  0  0
   -4.9100   23.0880  -30.7230 C   0  0  0  0  0  0  0  0  0  0  0  0
   -6.1230   23.3030  -30.0720 C   0  0  0  0  0  0  0  0  0  0  0  0
   -6.9740   22.3340  -30.5540 C   0  0  0  0  0  0  0  0  0  0  0  0
   -8.3010   22.0690  -30.2340 C   0  0  0  0  0  0  0  0  0  0  0  0
   -8.9250   20.9790  -30.8640 C   0  0  0  0  0  0  0  0  0  0  0  0
   -8.2210   20.1850  -31.8070 C   0  0  0  0  0  0  0  0  0  0  0  0
   -8.8830   18.9830  -32.4320 C   0  0  0  0  0  0  0  0  0  0  0  0
   -9.4720   18.1910  -31.4610 F   0  0  0  0  0  0  0  0  0  0  0  0
   -9.8640   19.3740  -33.3260 F   0  0  0  0  0  0  0  0  0  0  0  0
   -7.9310   18.2380  -33.1040 F   0  0  0  0  0  0  0  0  0  0  0  0
   -6.8650   20.4750  -32.0860 C   0  0  0  0  0  0  0  0  0  0  0  0
   -6.2750   21.5750  -31.4560 C   0  0  0  0  0  0  0  0  0  0  0  0
   -5.0050   22.0210  -31.5660 N   0  0  0  0  0  0  0  0  0  0  0  0
   -3.9630   21.4180  -32.3510 C   0  0  0  0  0  0  0  0  0  0  0  0
   -4.1910   21.1030  -33.5510 O   0  0  0  0  0  0  0  0  0  0  0  0
   -2.6880   21.1340  -31.7600 N   0  0  0  0  0  0  0  0  0  0  0  0
   -1.6110   20.4790  -32.5110 C   0  0  2  0  0  0  0  0  0  0  0  0
   -0.2810   20.4860  -31.7480 C   0  0  0  0  0  0  0  0  0  0  0  0
    0.7990   20.6110  -32.8150 C   0  0  0  0  0  0  0  0  0  0  0  0
    0.1210   21.1320  -33.9870 N   0  0  0  0  0  0  0  0  0  0  0  0
    0.8080   21.5450  -35.1750 C   0  0  0  0  0  0  0  0  0  0  0  0
    1.0980   22.7570  -35.3540 O   0  0  0  0  0  0  0  0  0  0  0  0
    1.1630   20.6090  -36.1390 O   0  0  0  0  0  0  0  0  0  0  0  0
   -1.3210   21.1960  -33.8310 C   0  0  0  0  0  0  0  0  0  0  0  0
   -3.4880   26.0000  -31.2330 H   0  0  0  0  0  0  0  0  0  0  0  0
   -6.3522   24.0820  -29.3300 H   0  0  0  0  0  0  0  0  0  0  0  0
   -8.8453   22.6933  -29.5101 H   0  0  0  0  0  0  0  0  0  0  0  0
   -9.9711   20.7382  -30.6237 H   0  0  0  0  0  0  0  0  0  0  0  0
   -6.2878   19.8494  -32.7827 H   0  0  0  0  0  0  0  0  0  0  0  0
   -2.5690   21.3260  -30.7400 H   0  0  0  0  0  0  0  0  0  0  0  0
   -1.9714   19.4527  -32.6746 H   0  0  0  0  0  0  0  0  0  0  0  0
   -0.2390   21.3403  -31.0564 H   0  0  0  0  0  0  0  0  0  0  0  0
   -0.1531   19.5769  -31.1421 H   0  0  0  0  0  0  0  0  0  0  0  0
    1.5872   21.3041  -32.4860 H   0  0  0  0  0  0  0  0  0  0  0  0
    1.2876   19.6468  -33.0188 H   0  0  0  0  0  0  0  0  0  0  0  0
   -1.6584   22.2419  -33.7846 H   0  0  0  0  0  0  0  0  0  0  0  0
   -1.8482   20.7312  -34.6771 H   0  0  0  0  0  0  0  0  0  0  0  0
  1  2  1  0
  2  3  2  0
  2  4  1  0
  4  5  2  0
  5  6  1  0
  6  7  2  0
  7  8  1  0
  8  9  2  0
  9 10  1  0
 10 11  1  0
 10 12  1  0
 10 13  1  0
  9 14  1  0
 14 15  2  0
 15 16  1  0
 16 17  1  0
 17 18  2  0
 17 19  1  0
 19 20  1  0
 20 21  1  0
 21 22  1  0
 22 23  1  0
 23 24  1  0
 24 25  2  0
 24 26  1  0
 23 27  1  0
 16  4  1  0
 27 20  1  0
 15  6  1  0
  1 28  1  0
  5 29  1  0
  7 30  1  0
  8 31  1  0
 14 32  1  0
 19 33  1  0
 20 34  1  6
 21 35  1  0
 21 36  1  0
 22 37  1  0
 22 38  1  0
 27 39  1  0
 27 40  1  0
M  CHG  2   1  -1  26  -1
M  END
>  <UniqueID>  (10) 
10

>  <SMILES>  (10) 
[NH-]C(=O)c1cc2ccc(C(F)(F)F)cc2n1C(=O)N[C@@H]1CCN(C(=O)[O-])C1

>  <Energy>  (10) 
78.9639723840506

>  <Genealogy>  (10) 
[NH-]C(=O)c1cc2ccc(C(F)(F)F)cc2n1C(=O)N[C@@H]1CCN(C(=O)[O-])C1 (protonated)
[NH-]C(=O)c1cc2ccc(C(F)(F)F)cc2n1C(=O)N[C@@H]1CCN(C(=O)[O-])C1 (3D coordinates assigned)
[NH-]C(=O)c1cc2ccc(C(F)(F)F)cc2n1C(=O)N[C@@H]1CCN(C(=O)[O-])C1 (nonaromatic ring conformer: 78.9639723840506 kcal/mol)

>  <smiles>  (10) 
NC(=O)c1cc2ccc(C(F)(F)F)cc2n1C(=O)N[C@@H]1CCN(C(=O)O)C1

>  <score_type>  (10) 
oracle

>  <origin>  (10) 
adg

>  <m_score__min__energy>  (10) 
-11.1

>  <m_primary>  (10) 
energy

$$$$
10:0
     RDKit          3D

 41 43  0  0  0  0  0  0  0  0999 V2000
   -6.4210   17.2040  -31.6880 C   0  0  0  0  0  0  0  0  0  0  0  0
   -6.4180   18.2210  -32.7470 N   0  0  0  0  0  0  0  0  0  0  0  0
   -6.1940   17.8000  -34.1350 C   0  0  0  0  0  0  0  0  0  0  0  0
   -6.6360   19.6200  -32.4260 C   0  0  0  0  0  0  0  0  0  0  0  0
   -7.9040   20.2280  -32.6460 C   0  0  0  0  0  0  0  0  0  0  0  0
   -8.1210   21.5840  -32.3440 C   0  0  0  0  0  0  0  0  0  0  0  0
   -7.0640   22.3110  -31.8120 C   0  0  0  0  0  0  0  0  0  0  0  0
   -6.9930   23.6390  -31.4540 C   0  0  0  0  0  0  0  0  0  0  0  0
   -5.6910   23.8290  -30.9960 C   0  0  0  0  0  0  0  0  0  0  0  0
   -5.1960   25.1110  -30.4500 C   0  0  0  0  0  0  0  0  0  0  0  0
   -3.9360   25.6440  -30.8500 N   0  0  0  0  0  0  0  0  0  0  0  0
   -5.8810   25.7290  -29.5910 O   0  0  0  0  0  0  0  0  0  0  0  0
   -4.9860   22.6660  -31.0700 N   0  0  0  0  0  0  0  0  0  0  0  0
   -3.5990   22.4580  -30.7580 C   0  0  0  0  0  0  0  0  0  0  0  0
   -2.7400   23.2850  -31.1670 O   0  0  0  0  0  0  0  0  0  0  0  0
   -3.1900   21.2820  -29.9670 C   0  0  0  0  0  0  0  0  0  0  0  0
   -2.9930   21.3410  -28.6450 C   0  0  0  0  0  0  0  0  0  0  0  0
   -2.5700   20.1670  -27.8690 C   0  0  0  0  0  0  0  0  0  0  0  0
   -1.3640   19.5660  -27.9860 N   0  0  0  0  0  0  0  0  0  0  0  0
   -1.2460   18.5070  -27.1400 C   0  0  0  0  0  0  0  0  0  0  0  0
   -0.0570   17.7200  -27.0870 N   0  0  0  0  0  0  0  0  0  0  0  0
   -2.3540   18.2530  -26.3390 C   0  0  0  0  0  0  0  0  0  0  0  0
   -3.5230   19.4030  -26.7110 S   0  0  0  0  0  0  0  0  0  0  0  0
   -5.8400   21.7470  -31.5730 C   0  0  0  0  0  0  0  0  0  0  0  0
   -5.5860   20.4080  -31.8860 C   0  0  0  0  0  0  0  0  0  0  0  0
   -6.4195   17.6980  -30.7052 H   0  0  0  0  0  0  0  0  0  0  0  0
   -7.3210   16.5787  -31.7827 H   0  0  0  0  0  0  0  0  0  0  0  0
   -5.5247   16.5734  -31.7827 H   0  0  0  0  0  0  0  0  0  0  0  0
   -5.6773   16.8289  -34.1448 H   0  0  0  0  0  0  0  0  0  0  0  0
   -7.1613   17.7059  -34.6503 H   0  0  0  0  0  0  0  0  0  0  0  0
   -5.5755   18.5496  -34.6503 H   0  0  0  0  0  0  0  0  0  0  0  0
   -8.7277   19.6272  -33.0590 H   0  0  0  0  0  0  0  0  0  0  0  0
   -9.0987   22.0549  -32.5237 H   0  0  0  0  0  0  0  0  0  0  0  0
   -7.7942   24.3902  -31.5164 H   0  0  0  0  0  0  0  0  0  0  0  0
   -3.0470   25.2890  -30.4350 H   0  0  0  0  0  0  0  0  0  0  0  0
   -3.0416   20.3218  -30.4827 H   0  0  0  0  0  0  0  0  0  0  0  0
   -3.1524   22.2964  -28.1236 H   0  0  0  0  0  0  0  0  0  0  0  0
    0.0530   16.9850  -26.3550 H   0  0  0  0  0  0  0  0  0  0  0  0
    0.7110   17.8700  -27.7780 H   0  0  0  0  0  0  0  0  0  0  0  0
   -2.4485   17.4465  -25.5970 H   0  0  0  0  0  0  0  0  0  0  0  0
   -4.5900   19.9729  -31.7167 H   0  0  0  0  0  0  0  0  0  0  0  0
  1  2  1  0
  2  3  1  0
  2  4  1  0
  4  5  2  0
  5  6  1  0
  6  7  2  0
  7  8  1  0
  8  9  2  0
  9 10  1  0
 10 11  1  0
 10 12  2  0
  9 13  1  0
 13 14  1  0
 14 15  2  0
 14 16  1  0
 16 17  2  3
 17 18  1  0
 18 19  2  0
 19 20  1  0
 20 21  1  0
 20 22  2  0
 22 23  1  0
 13 24  1  0
 24 25  2  0
 25  4  1  0
 24  7  1  0
 23 18  1  0
  1 26  1  0
  1 27  1  0
  1 28  1  0
  3 29  1  0
  3 30  1  0
  3 31  1  0
  5 32  1  0
  6 33  1  0
  8 34  1  0
 11 35  1  0
 16 36  1  0
 17 37  1  0
 21 38  1  0
 21 39  1  0
 22 40  1  0
 25 41  1  0
M  CHG  1  11  -1
M  END
>  <UniqueID>  (11) 
11

>  <SMILES>  (11) 
CN(C)c1ccc2cc(C([NH-])=O)n(C(=O)C=Cc3nc(N)cs3)c2c1

>  <Energy>  (11) 
110.3448559469207

>  <Genealogy>  (11) 
CN(C)c1ccc2cc(C([NH-])=O)n(C(=O)C=Cc3nc(N)cs3)c2c1 (protonated)
CN(C)c1ccc2cc(C([NH-])=O)n(C(=O)C=Cc3nc(N)cs3)c2c1 (3D coordinates assigned)
CN(C)c1ccc2cc(C([NH-])=O)n(C(=O)C=Cc3nc(N)cs3)c2c1 (optimized conformer: 110.3448559469207 kcal/mol)

>  <smiles>  (11) 
CN(C)c1ccc2cc(C(N)=O)n(C(=O)C=Cc3nc(N)cs3)c2c1

>  <score_type>  (11) 
oracle

>  <origin>  (11) 
adg

>  <m_score__min__energy>  (11) 
-11.27

>  <m_primary>  (11) 
energy

$$$$
11:0
     RDKit          3D

 40 42  0  0  0  0  0  0  0  0999 V2000
   -4.3030   13.9130  -34.9680 C   0  0  0  0  0  0  0  0  0  0  0  0
   -5.6320   14.4090  -34.5910 N   0  0  0  0  0  0  0  0  0  0  0  0
   -6.7930   13.5140  -34.6760 C   0  0  0  0  0  0  0  0  0  0  0  0
   -5.8260   15.7690  -34.1320 C   0  0  0  0  0  0  0  0  0  0  0  0
   -4.8680   16.7730  -34.3620 C   0  0  0  0  0  0  0  0  0  0  0  0
   -5.1000   18.0700  -33.9010 C   0  0  0  0  0  0  0  0  0  0  0  0
   -6.2840   18.3780  -33.2130 C   0  0  0  0  0  0  0  0  0  0  0  0
   -6.5430   19.7540  -32.7190 C   0  0  0  0  0  0  0  0  0  0  0  0
   -7.8660   20.2700  -32.6850 C   0  0  0  0  0  0  0  0  0  0  0  0
   -8.1210   21.5670  -32.2110 C   0  0  0  0  0  0  0  0  0  0  0  0
   -7.0390   22.3320  -31.7870 C   0  0  0  0  0  0  0  0  0  0  0  0
   -7.0030   23.6020  -31.2570 C   0  0  0  0  0  0  0  0  0  0  0  0
   -5.6570   23.8540  -30.9920 C   0  0  0  0  0  0  0  0  0  0  0  0
   -5.1550   25.1350  -30.4480 C   0  0  0  0  0  0  0  0  0  0  0  0
   -3.8860   25.6520  -30.8390 N   0  0  0  0  0  0  0  0  0  0  0  0
   -5.8710   25.7960  -29.6490 O   0  0  0  0  0  0  0  0  0  0  0  0
   -4.8930   22.7830  -31.3470 N   0  0  0  0  0  0  0  0  0  0  0  0
   -3.4790   22.6160  -31.1690 C   0  0  0  0  0  0  0  0  0  0  0  0
   -2.9120   23.1310  -30.1690 O   0  0  0  0  0  0  0  0  0  0  0  0
   -2.6810   21.8550  -32.1400 C   0  0  0  0  0  0  0  0  0  0  0  0
   -3.0200   21.8150  -33.3520 O   0  0  0  0  0  0  0  0  0  0  0  0
   -1.5360   21.1850  -31.7280 O   0  0  0  0  0  0  0  0  0  0  0  0
   -5.7540   21.8590  -31.8280 C   0  0  0  0  0  0  0  0  0  0  0  0
   -5.4710   20.5650  -32.2750 C   0  0  0  0  0  0  0  0  0  0  0  0
   -7.2150   17.3490  -33.0040 C   0  0  0  0  0  0  0  0  0  0  0  0
   -6.9670   16.0940  -33.4590 N   0  0  0  0  0  0  0  0  0  0  0  0
   -3.7214   13.6960  -34.0599 H   0  0  0  0  0  0  0  0  0  0  0  0
   -4.4098   12.9942  -35.5633 H   0  0  0  0  0  0  0  0  0  0  0  0
   -3.7817   14.6771  -35.5633 H   0  0  0  0  0  0  0  0  0  0  0  0
   -7.1305   13.2539  -33.6619 H   0  0  0  0  0  0  0  0  0  0  0  0
   -7.6075   14.0202  -35.2149 H   0  0  0  0  0  0  0  0  0  0  0  0
   -6.5108   12.5975  -35.2149 H   0  0  0  0  0  0  0  0  0  0  0  0
   -3.9397   16.5370  -34.9030 H   0  0  0  0  0  0  0  0  0  0  0  0
   -4.3504   18.8554  -34.0780 H   0  0  0  0  0  0  0  0  0  0  0  0
   -8.7015   19.6456  -33.0345 H   0  0  0  0  0  0  0  0  0  0  0  0
   -9.1454   21.9662  -32.1760 H   0  0  0  0  0  0  0  0  0  0  0  0
   -7.8548   24.2751  -31.0801 H   0  0  0  0  0  0  0  0  0  0  0  0
   -3.0040   25.2880  -30.4130 H   0  0  0  0  0  0  0  0  0  0  0  0
   -4.4386   20.1855  -32.2816 H   0  0  0  0  0  0  0  0  0  0  0  0
   -8.1520   17.5606  -32.4680 H   0  0  0  0  0  0  0  0  0  0  0  0
  1  2  1  0
  2  3  1  0
  2  4  1  0
  4  5  2  0
  5  6  1  0
  6  7  2  0
  7  8  1  0
  8  9  2  0
  9 10  1  0
 10 11  2  0
 11 12  1  0
 12 13  2  0
 13 14  1  0
 14 15  1  0
 14 16  2  0
 13 17  1  0
 17 18  1  0
 18 19  2  0
 18 20  1  0
 20 21  2  0
 20 22  1  0
 17 23  1  0
 23 24  2  0
  7 25  1  0
 25 26  2  0
 26  4  1  0
 24  8  1  0
 23 11  1  0
  1 27  1  0
  1 28  1  0
  1 29  1  0
  3 30  1  0
  3 31  1  0
  3 32  1  0
  5 33  1  0
  6 34  1  0
  9 35  1  0
 10 36  1  0
 12 37  1  0
 15 38  1  0
 24 39  1  0
 25 40  1  0
M  CHG  2  15  -1  22  -1
M  END
>  <UniqueID>  (12) 
12

>  <SMILES>  (12) 
CN(C)c1ccc(-c2ccc3cc(C([NH-])=O)n(C(=O)C(=O)[O-])c3c2)cn1

>  <Energy>  (12) 
86.85062299026893

>  <Genealogy>  (12) 
CN(C)c1ccc(-c2ccc3cc(C([NH-])=O)n(C(=O)C(=O)[O-])c3c2)cn1 (protonated)
CN(C)c1ccc(-c2ccc3cc(C([NH-])=O)n(C(=O)C(=O)[O-])c3c2)cn1 (3D coordinates assigned)
CN(C)c1ccc(-c2ccc3cc(C([NH-])=O)n(C(=O)C(=O)[O-])c3c2)cn1 (optimized conformer: 86.85062299026893 kcal/mol)

>  <smiles>  (12) 
CN(C)c1ccc(-c2ccc3cc(C(N)=O)n(C(=O)C(=O)O)c3c2)cn1

>  <score_type>  (12) 
oracle

>  <origin>  (12) 
adg

>  <m_score__min__energy>  (12) 
-11.09

>  <m_primary>  (12) 
energy

$$$$
12:0
     RDKit          3D

 36 37  0  0  0  0  0  0  0  0999 V2000
   -4.1840   25.5160  -30.6980 N   0  0  0  0  0  0  0  0  0  0  0  0
   -5.5000   25.0420  -30.4030 C   0  0  0  0  0  0  0  0  0  0  0  0
   -6.2330   25.7050  -29.6210 O   0  0  0  0  0  0  0  0  0  0  0  0
   -5.9900   23.7590  -30.9430 C   0  0  0  0  0  0  0  0  0  0  0  0
   -7.3220   23.5260  -31.2730 C   0  0  0  0  0  0  0  0  0  0  0  0
   -7.3720   22.2120  -31.6740 C   0  0  0  0  0  0  0  0  0  0  0  0
   -8.4510   21.4550  -32.1260 C   0  0  0  0  0  0  0  0  0  0  0  0
   -8.2080   20.1270  -32.5130 C   0  0  0  0  0  0  0  0  0  0  0  0
   -6.9010   19.5910  -32.4500 C   0  0  0  0  0  0  0  0  0  0  0  0
   -6.6640   18.2330  -32.8640 C   0  0  0  0  0  0  0  0  0  0  0  0
   -6.4640   17.0960  -33.2100 C   0  0  0  0  0  0  0  0  0  0  0  0
   -6.2200   15.7140  -33.6330 C   0  0  0  0  0  0  0  0  0  0  0  0
   -7.2500   15.2810  -34.4770 O   0  0  0  0  0  0  0  0  0  0  0  0
   -5.8290   20.3820  -31.9910 C   0  0  0  0  0  0  0  0  0  0  0  0
   -6.1020   21.6970  -31.5910 C   0  0  0  0  0  0  0  0  0  0  0  0
   -5.2400   22.6390  -31.1440 N   0  0  0  0  0  0  0  0  0  0  0  0
   -3.8110   22.5190  -31.0370 C   0  0  0  0  0  0  0  0  0  0  0  0
   -3.0700   22.8950  -31.9850 O   0  0  0  0  0  0  0  0  0  0  0  0
   -3.2470   21.9830  -29.8750 O   0  0  0  0  0  0  0  0  0  0  0  0
   -3.4160   22.5760  -28.5910 C   0  0  0  0  0  0  0  0  0  0  0  0
   -2.3660   23.6590  -28.3830 C   0  0  0  0  0  0  0  0  0  0  0  0
   -2.1950   24.3870  -29.5680 O   0  0  0  0  0  0  0  0  0  0  0  0
   -3.8690   26.4450  -30.3400 H   0  0  0  0  0  0  0  0  0  0  0  0
   -3.4970   24.9160  -31.2060 H   0  0  0  0  0  0  0  0  0  0  0  0
   -8.1566   24.2408  -31.2235 H   0  0  0  0  0  0  0  0  0  0  0  0
   -9.4624   21.8845  -32.1781 H   0  0  0  0  0  0  0  0  0  0  0  0
   -9.0395   19.5000  -32.8673 H   0  0  0  0  0  0  0  0  0  0  0  0
   -5.2621   15.6618  -34.1713 H   0  0  0  0  0  0  0  0  0  0  0  0
   -6.1854   15.0660  -32.7448 H   0  0  0  0  0  0  0  0  0  0  0  0
   -6.9750   14.3950  -34.8330 H   0  0  0  0  0  0  0  0  0  0  0  0
   -4.8066   19.9786  -31.9479 H   0  0  0  0  0  0  0  0  0  0  0  0
   -4.4193   23.0218  -28.5235 H   0  0  0  0  0  0  0  0  0  0  0  0
   -3.3015   21.8042  -27.8156 H   0  0  0  0  0  0  0  0  0  0  0  0
   -2.6945   24.3373  -27.5817 H   0  0  0  0  0  0  0  0  0  0  0  0
   -1.4109   23.1905  -28.1031 H   0  0  0  0  0  0  0  0  0  0  0  0
   -2.0190   23.7180  -30.2780 H   0  0  0  0  0  0  0  0  0  0  0  0
  1  2  1  0
  2  3  2  0
  2  4  1  0
  4  5  2  0
  5  6  1  0
  6  7  2  0
  7  8  1  0
  8  9  2  0
  9 10  1  0
 10 11  3  0
 11 12  1  0
 12 13  1  0
  9 14  1  0
 14 15  2  0
 15 16  1  0
 16 17  1  0
 17 18  2  0
 17 19  1  0
 19 20  1  0
 20 21  1  0
 21 22  1  0
 16  4  1  0
 15  6  1  0
  1 23  1  0
  1 24  1  0
  5 25  1  0
  7 26  1  0
  8 27  1  0
 12 28  1  0
 12 29  1  0
 13 30  1  0
 14 31  1  0
 20 32  1  0
 20 33  1  0
 21 34  1  0
 21 35  1  0
 22 36  1  0
M  END
>  <UniqueID>  (13) 
13

>  <SMILES>  (13) 
NC(=O)c1cc2ccc(C#CCO)cc2n1C(=O)OCCO

>  <Energy>  (13) 
65.29699179361344

>  <Genealogy>  (13) 
NC(=O)c1cc2ccc(C#CCO)cc2n1C(=O)OCCO (3D coordinates assigned)
NC(=O)c1cc2ccc(C#CCO)cc2n1C(=O)OCCO (optimized conformer: 65.29699179361344 kcal/mol)

>  <smiles>  (13) 
NC(=O)c1cc2ccc(C#CCO)cc2n1C(=O)OCCO

>  <score_type>  (13) 
oracle

>  <origin>  (13) 
adg

>  <m_score__min__energy>  (13) 
-8.4399999999999995

>  <m_primary>  (13) 
energy

$$$$
13:0
     RDKit          3D

 48 50  0  0  0  0  0  0  0  0999 V2000
   -3.8300   25.2910  -30.5970 N   0  0  0  0  0  0  0  0  0  0  0  0
   -5.2240   25.0750  -30.3910 C   0  0  0  0  0  0  0  0  0  0  0  0
   -5.8910   25.9300  -29.7510 O   0  0  0  0  0  0  0  0  0  0  0  0
   -5.8750   23.8780  -30.9640 C   0  0  0  0  0  0  0  0  0  0  0  0
   -7.2570   23.7130  -31.0180 C   0  0  0  0  0  0  0  0  0  0  0  0
   -7.4550   22.4400  -31.5010 C   0  0  0  0  0  0  0  0  0  0  0  0
   -8.6370   21.7440  -31.7340 C   0  0  0  0  0  0  0  0  0  0  0  0
   -8.5430   20.4350  -32.2340 C   0  0  0  0  0  0  0  0  0  0  0  0
   -7.2790   19.8570  -32.5110 C   0  0  0  0  0  0  0  0  0  0  0  0
   -7.1900   18.4480  -33.0290 C   0  0  0  0  0  0  0  0  0  0  0  0
   -5.9680   18.2810  -33.8760 C   0  0  0  0  0  0  0  0  0  0  0  0
   -4.9190   17.7860  -33.3850 O   0  0  0  0  0  0  0  0  0  0  0  0
   -5.9800   18.6890  -35.2030 O   0  0  0  0  0  0  0  0  0  0  0  0
   -6.1010   20.5930  -32.2580 C   0  0  0  0  0  0  0  0  0  0  0  0
   -6.2240   21.8840  -31.7340 C   0  0  0  0  0  0  0  0  0  0  0  0
   -5.2430   22.7550  -31.4110 N   0  0  0  0  0  0  0  0  0  0  0  0
   -3.8300   22.5100  -31.4970 C   0  0  0  0  0  0  0  0  0  0  0  0
   -3.2800   22.3630  -32.6230 O   0  0  0  0  0  0  0  0  0  0  0  0
   -3.0730   22.4330  -30.3260 O   0  0  0  0  0  0  0  0  0  0  0  0
   -3.5070   21.7340  -29.1660 C   0  0  0  0  0  0  0  0  0  0  0  0
   -3.5740   22.6770  -27.9550 C   0  0  0  0  0  0  0  0  0  0  0  0
   -2.2310   23.3380  -27.5410 C   0  0  0  0  0  0  0  0  0  0  0  0
   -1.0050   22.6870  -28.2120 C   0  0  0  0  0  0  0  0  0  0  0  0
    0.2730   23.4530  -27.8370 C   0  0  0  0  0  0  0  0  0  0  0  0
    0.2130   24.9040  -28.1290 N   0  0  0  0  0  0  0  0  0  0  0  0
   -1.0970   25.3880  -28.5950 C   0  0  0  0  0  0  0  0  0  0  0  0
   -2.2390   24.8830  -27.7020 C   0  0  0  0  0  0  0  0  0  0  0  0
   -3.4920   26.0370  -31.2430 H   0  0  0  0  0  0  0  0  0  0  0  0
   -8.0272   24.4455  -30.7345 H   0  0  0  0  0  0  0  0  0  0  0  0
   -9.6153   22.2050  -31.5327 H   0  0  0  0  0  0  0  0  0  0  0  0
   -9.4591   19.8528  -32.4123 H   0  0  0  0  0  0  0  0  0  0  0  0
   -7.1400   17.7516  -32.1790 H   0  0  0  0  0  0  0  0  0  0  0  0
   -8.0798   18.2350  -33.6396 H   0  0  0  0  0  0  0  0  0  0  0  0
   -5.1110   20.1618  -32.4678 H   0  0  0  0  0  0  0  0  0  0  0  0
   -4.5063   21.3131  -29.3512 H   0  0  0  0  0  0  0  0  0  0  0  0
   -2.7878   20.9306  -28.9484 H   0  0  0  0  0  0  0  0  0  0  0  0
   -4.2874   23.4803  -28.1913 H   0  0  0  0  0  0  0  0  0  0  0  0
   -3.8747   22.0498  -27.1028 H   0  0  0  0  0  0  0  0  0  0  0  0
   -2.1310   23.1416  -26.4633 H   0  0  0  0  0  0  0  0  0  0  0  0
   -0.9163   21.6441  -27.8735 H   0  0  0  0  0  0  0  0  0  0  0  0
   -1.1347   22.7172  -29.3039 H   0  0  0  0  0  0  0  0  0  0  0  0
    0.4499   23.3241  -26.7590 H   0  0  0  0  0  0  0  0  0  0  0  0
    1.0851   23.0378  -28.4520 H   0  0  0  0  0  0  0  0  0  0  0  0
    0.4650   25.4320  -27.2590 H   0  0  0  0  0  0  0  0  0  0  0  0
   -1.0953   26.4879  -28.5837 H   0  0  0  0  0  0  0  0  0  0  0  0
   -1.2621   25.0046  -29.6127 H   0  0  0  0  0  0  0  0  0  0  0  0
   -2.1379   25.3417  -26.7073 H   0  0  0  0  0  0  0  0  0  0  0  0
   -3.1877   25.1636  -28.1828 H   0  0  0  0  0  0  0  0  0  0  0  0
  1  2  1  0
  2  3  2  0
  2  4  1  0
  4  5  2  0
  5  6  1  0
  6  7  2  0
  7  8  1  0
  8  9  2  0
  9 10  1  0
 10 11  1  0
 11 12  2  0
 11 13  1  0
  9 14  1  0
 14 15  2  0
 15 16  1  0
 16 17  1  0
 17 18  2  0
 17 19  1  0
 19 20  1  0
 20 21  1  0
 21 22  1  0
 22 23  1  0
 23 24  1  0
 24 25  1  0
 25 26  1  0
 26 27  1  0
 16  4  1  0
 27 22  1  0
 15  6  1  0
  1 28  1  0
  5 29  1  0
  7 30  1  0
  8 31  1  0
 10 32  1  0
 10 33  1  0
 14 34  1  0
 20 35  1  0
 20 36  1  0
 21 37  1  0
 21 38  1  0
 22 39  1  0
 23 40  1  0
 23 41  1  0
 24 42  1  0
 24 43  1  0
 25 44  1  0
 26 45  1  0
 26 46  1  0
 27 47  1  0
 27 48  1  0
M  CHG  2   1  -1  13  -1
M  END
>  <UniqueID>  (14) 
14

>  <SMILES>  (14) 
[NH-]C(=O)c1cc2ccc(CC(=O)[O-])cc2n1C(=O)OCCC1CCNCC1

>  <Energy>  (14) 
87.23662211718602

>  <Genealogy>  (14) 
[NH-]C(=O)c1cc2ccc(CC(=O)[O-])cc2n1C(=O)OCCC1CCNCC1 (protonated)
[NH-]C(=O)c1cc2ccc(CC(=O)[O-])cc2n1C(=O)OCCC1CCNCC1 (3D coordinates assigned)
[NH-]C(=O)c1cc2ccc(CC(=O)[O-])cc2n1C(=O)OCCC1CCNCC1 (nonaromatic ring conformer: 87.23662211718602 kcal/mol)

>  <smiles>  (14) 
NC(=O)c1cc2ccc(CC(=O)O)cc2n1C(=O)OCCC1CCNCC1

>  <score_type>  (14) 
oracle

>  <origin>  (14) 
adg

>  <m_score__min__energy>  (14) 
-11.49

>  <m_primary>  (14) 
energy

$$$$
14:0
     RDKit          3D

 41 42  0  0  0  0  0  0  0  0999 V2000
   -7.8730   23.1120  -31.5960 C   0  0  0  0  0  0  0  0  0  0  0  0
   -8.4600   22.0110  -31.1370 C   0  0  0  0  0  0  0  0  0  0  0  0
   -9.4780   21.3050  -31.9400 C   0  0  0  0  0  0  0  0  0  0  0  0
   -9.4780   19.9840  -32.1580 C   0  0  0  0  0  0  0  0  0  0  0  0
   -8.5200   19.0440  -31.5380 C   0  0  0  0  0  0  0  0  0  0  0  0
   -7.2540   18.8890  -31.9510 C   0  0  0  0  0  0  0  0  0  0  0  0
   -6.5710   19.7480  -32.9420 C   0  0  0  0  0  0  0  0  0  0  0  0
   -7.2610   20.2930  -33.8440 O   0  0  0  0  0  0  0  0  0  0  0  0
   -5.1430   19.9360  -32.9370 N   0  0  0  0  0  0  0  0  0  0  0  0
   -4.1990   19.2230  -33.6150 C   0  0  0  0  0  0  0  0  0  0  0  0
   -4.4620   18.1690  -34.6150 C   0  0  0  0  0  0  0  0  0  0  0  0
   -5.7190   18.0830  -35.2880 N   0  0  0  0  0  0  0  0  0  0  0  0
   -3.5470   17.3580  -34.9140 O   0  0  0  0  0  0  0  0  0  0  0  0
   -2.9200   19.6340  -33.2500 C   0  0  0  0  0  0  0  0  0  0  0  0
   -3.1100   20.6450  -32.3360 C   0  0  0  0  0  0  0  0  0  0  0  0
   -2.1790   21.3960  -31.6240 C   0  0  0  0  0  0  0  0  0  0  0  0
   -2.6610   22.3420  -30.7040 C   0  0  0  0  0  0  0  0  0  0  0  0
   -4.0550   22.5190  -30.5130 C   0  0  0  0  0  0  0  0  0  0  0  0
   -4.5560   23.4980  -29.4850 C   0  0  0  0  0  0  0  0  0  0  0  0
   -4.9680   24.8240  -30.1310 C   0  0  0  0  0  0  0  0  0  0  0  0
   -3.8690   25.4360  -30.7520 O   0  0  0  0  0  0  0  0  0  0  0  0
   -4.9700   21.7320  -31.2470 C   0  0  0  0  0  0  0  0  0  0  0  0
   -4.4600   20.8100  -32.1670 C   0  0  0  0  0  0  0  0  0  0  0  0
   -7.1162   23.6270  -30.9860 H   0  0  0  0  0  0  0  0  0  0  0  0
   -8.1441   23.5080  -32.5858 H   0  0  0  0  0  0  0  0  0  0  0  0
   -8.1837   21.6211  -30.1462 H   0  0  0  0  0  0  0  0  0  0  0  0
  -10.2869   21.9015  -32.3871 H   0  0  0  0  0  0  0  0  0  0  0  0
  -10.2370   19.5730  -32.8399 H   0  0  0  0  0  0  0  0  0  0  0  0
   -8.8660   18.4366  -30.6887 H   0  0  0  0  0  0  0  0  0  0  0  0
   -6.6781   18.0575  -31.5187 H   0  0  0  0  0  0  0  0  0  0  0  0
   -6.4360   18.8350  -35.1910 H   0  0  0  0  0  0  0  0  0  0  0  0
   -5.9040   17.3010  -35.9540 H   0  0  0  0  0  0  0  0  0  0  0  0
   -1.9617   19.2355  -33.6145 H   0  0  0  0  0  0  0  0  0  0  0  0
   -1.0991   21.2531  -31.7770 H   0  0  0  0  0  0  0  0  0  0  0  0
   -1.9503   22.9512  -30.1263 H   0  0  0  0  0  0  0  0  0  0  0  0
   -5.4268   23.0640  -28.9718 H   0  0  0  0  0  0  0  0  0  0  0  0
   -3.7427   23.6980  -28.7719 H   0  0  0  0  0  0  0  0  0  0  0  0
   -5.7472   24.6323  -30.8834 H   0  0  0  0  0  0  0  0  0  0  0  0
   -5.3503   25.4951  -29.3477 H   0  0  0  0  0  0  0  0  0  0  0  0
   -4.1560   25.6790  -31.6710 H   0  0  0  0  0  0  0  0  0  0  0  0
   -6.0545   21.8413  -31.0991 H   0  0  0  0  0  0  0  0  0  0  0  0
  1  2  2  0
  2  3  1  0
  3  4  2  3
  4  5  1  0
  5  6  2  3
  6  7  1  0
  7  8  2  0
  7  9  1  0
  9 10  1  0
 10 11  1  0
 11 12  1  0
 11 13  2  0
 10 14  2  0
 14 15  1  0
 15 16  2  0
 16 17  1  0
 17 18  2  0
 18 19  1  0
 19 20  1  0
 20 21  1  0
 18 22  1  0
 22 23  2  0
 23  9  1  0
 23 15  1  0
  1 24  1  0
  1 25  1  0
  2 26  1  0
  3 27  1  0
  4 28  1  0
  5 29  1  0
  6 30  1  0
 12 31  1  0
 12 32  1  0
 14 33  1  0
 16 34  1  0
 17 35  1  0
 19 36  1  0
 19 37  1  0
 20 38  1  0
 20 39  1  0
 21 40  1  0
 22 41  1  0
M  END
>  <UniqueID>  (15) 
15

>  <SMILES>  (15) 
C=CC=CC=CC(=O)n1c(C(N)=O)cc2ccc(CCO)cc21

>  <Energy>  (15) 
79.5700472906458

>  <Genealogy>  (15) 
C=CC=CC=CC(=O)n1c(C(N)=O)cc2ccc(CCO)cc21 (3D coordinates assigned)
C=CC=CC=CC(=O)n1c(C(N)=O)cc2ccc(CCO)cc21 (optimized conformer: 79.5700472906458 kcal/mol)

>  <smiles>  (15) 
C=CC=CC=CC(=O)n1c(C(N)=O)cc2ccc(CCO)cc21

>  <score_type>  (15) 
oracle

>  <origin>  (15) 
adg

>  <m_score__min__energy>  (15) 
-9.25

>  <m_primary>  (15) 
energy

$$$$
15:0
     RDKit          3D

 62 63  0  0  0  0  0  0  0  0999 V2000
   -2.6470   21.2660  -28.7970 C   0  0  0  0  0  0  0  0  0  0  0  0
   -3.2420   22.5170  -29.2730 N   0  0  0  0  0  0  0  0  0  0  0  0
   -3.3280   23.6710  -28.3660 C   0  0  0  0  0  0  0  0  0  0  0  0
   -1.9660   23.9380  -27.7150 C   0  0  0  0  0  0  0  0  0  0  0  0
   -1.0780   24.7450  -28.6120 C   0  0  0  0  0  0  0  0  0  0  0  0
   -1.5570   25.6800  -29.3080 O   0  0  0  0  0  0  0  0  0  0  0  0
    0.2900   24.4940  -28.6420 O   0  0  0  0  0  0  0  0  0  0  0  0
   -3.6080   22.6330  -30.6660 C   0  0  0  0  0  0  0  0  0  0  0  0
   -2.7100   22.7050  -31.5490 O   0  0  0  0  0  0  0  0  0  0  0  0
   -4.9830   22.7200  -31.0670 N   0  0  0  0  0  0  0  0  0  0  0  0
   -5.8490   23.7530  -30.8770 C   0  0  0  0  0  0  0  0  0  0  0  0
   -5.5170   25.0580  -30.2730 C   0  0  0  0  0  0  0  0  0  0  0  0
   -4.2500   25.6730  -30.4980 N   0  0  0  0  0  0  0  0  0  0  0  0
   -6.3660   25.6450  -29.5520 O   0  0  0  0  0  0  0  0  0  0  0  0
   -7.1170   23.4150  -31.3490 C   0  0  0  0  0  0  0  0  0  0  0  0
   -7.0000   22.1260  -31.8220 C   0  0  0  0  0  0  0  0  0  0  0  0
   -7.9500   21.2880  -32.3960 C   0  0  0  0  0  0  0  0  0  0  0  0
   -7.5370   20.0090  -32.8110 C   0  0  0  0  0  0  0  0  0  0  0  0
   -6.1860   19.5980  -32.6630 C   0  0  0  0  0  0  0  0  0  0  0  0
   -5.7620   18.3030  -33.1460 N   0  0  0  0  0  0  0  0  0  0  0  0
   -6.6580   17.2410  -32.6610 C   0  0  0  0  0  0  0  0  0  0  0  0
   -6.6920   16.0600  -33.6480 C   0  0  0  0  0  0  0  0  0  0  0  0
   -5.2910   15.5260  -34.0120 C   0  0  0  0  0  0  0  0  0  0  0  0
   -4.3330   16.5690  -34.4180 N   0  0  0  0  0  0  0  0  0  0  0  0
   -2.9890   16.0350  -34.6820 C   0  0  0  0  0  0  0  0  0  0  0  0
   -1.9780   16.6850  -33.7400 C   0  0  0  0  0  0  0  0  0  0  0  0
   -2.6400   17.6350  -32.9290 O   0  0  0  0  0  0  0  0  0  0  0  0
   -1.9350   18.8600  -32.9610 C   0  0  0  0  0  0  0  0  0  0  0  0
   -2.7430   19.8820  -33.7490 C   0  0  0  0  0  0  0  0  0  0  0  0
   -3.8190   19.2490  -34.3840 O   0  0  0  0  0  0  0  0  0  0  0  0
   -5.2540   20.4770  -32.0600 C   0  0  0  0  0  0  0  0  0  0  0  0
   -5.7000   21.7340  -31.6410 C   0  0  0  0  0  0  0  0  0  0  0  0
   -2.6428   21.2572  -27.6970 H   0  0  0  0  0  0  0  0  0  0  0  0
   -3.2368   20.4149  -29.1683 H   0  0  0  0  0  0  0  0  0  0  0  0
   -1.6146   21.1864  -29.1683 H   0  0  0  0  0  0  0  0  0  0  0  0
   -3.6378   24.5589  -28.9367 H   0  0  0  0  0  0  0  0  0  0  0  0
   -4.0647   23.4534  -27.5786 H   0  0  0  0  0  0  0  0  0  0  0  0
   -2.1206   24.4888  -26.7755 H   0  0  0  0  0  0  0  0  0  0  0  0
   -1.4781   22.9705  -27.5257 H   0  0  0  0  0  0  0  0  0  0  0  0
   -3.5190   25.6770  -29.7530 H   0  0  0  0  0  0  0  0  0  0  0  0
   -8.0194   24.0441  -31.3447 H   0  0  0  0  0  0  0  0  0  0  0  0
   -8.9926   21.6154  -32.5216 H   0  0  0  0  0  0  0  0  0  0  0  0
   -8.2694   19.3190  -33.2555 H   0  0  0  0  0  0  0  0  0  0  0  0
   -4.7890   18.1200  -32.8080 H   0  0  0  0  0  0  0  0  0  0  0  0
   -5.7450   18.2980  -34.1940 H   0  0  0  0  0  0  0  0  0  0  0  0
   -6.2987   16.8844  -31.6844 H   0  0  0  0  0  0  0  0  0  0  0  0
   -7.6740   17.6523  -32.5688 H   0  0  0  0  0  0  0  0  0  0  0  0
   -7.2698   15.2419  -33.1932 H   0  0  0  0  0  0  0  0  0  0  0  0
   -7.1518   16.4265  -34.5777 H   0  0  0  0  0  0  0  0  0  0  0  0
   -4.8818   15.0049  -33.1340 H   0  0  0  0  0  0  0  0  0  0  0  0
   -5.4216   14.8624  -34.8795 H   0  0  0  0  0  0  0  0  0  0  0  0
   -4.2810   17.3110  -33.6800 H   0  0  0  0  0  0  0  0  0  0  0  0
   -2.9906   14.9469  -34.5209 H   0  0  0  0  0  0  0  0  0  0  0  0
   -2.7091   16.2561  -35.7226 H   0  0  0  0  0  0  0  0  0  0  0  0
   -1.5200   15.9137  -33.1034 H   0  0  0  0  0  0  0  0  0  0  0  0
   -1.1940   17.1845  -34.3281 H   0  0  0  0  0  0  0  0  0  0  0  0
   -1.7828   19.2239  -31.9341 H   0  0  0  0  0  0  0  0  0  0  0  0
   -0.9572   18.7113  -33.4423 H   0  0  0  0  0  0  0  0  0  0  0  0
   -3.1256   20.6523  -33.0632 H   0  0  0  0  0  0  0  0  0  0  0  0
   -2.0973   20.3485  -34.5075 H   0  0  0  0  0  0  0  0  0  0  0  0
   -3.4580   18.4040  -34.7640 H   0  0  0  0  0  0  0  0  0  0  0  0
   -4.2041   20.1780  -31.9245 H   0  0  0  0  0  0  0  0  0  0  0  0
  1  2  1  0
  2  3  1  0
  3  4  1  0
  4  5  1  0
  5  6  2  0
  5  7  1  0
  2  8  1  0
  8  9  2  0
  8 10  1  0
 10 11  1  0
 11 12  1  0
 12 13  1  0
 12 14  2  0
 11 15  2  0
 15 16  1  0
 16 17  2  0
 17 18  1  0
 18 19  2  0
 19 20  1  0
 20 21  1  0
 21 22  1  0
 22 23  1  0
 23 24  1  0
 24 25  1  0
 25 26  1  0
 26 27  1  0
 27 28  1  0
 28 29  1  0
 29 30  1  0
 19 31  1  0
 31 32  2  0
 32 10  1  0
 32 16  1  0
  1 33  1  0
  1 34  1  0
  1 35  1  0
  3 36  1  0
  3 37  1  0
  4 38  1  0
  4 39  1  0
 13 40  1  0
 15 41  1  0
 17 42  1  0
 18 43  1  0
 20 44  1  0
 20 45  1  0
 21 46  1  0
 21 47  1  0
 22 48  1  0
 22 49  1  0
 23 50  1  0
 23 51  1  0
 24 52  1  0
 25 53  1  0
 25 54  1  0
 26 55  1  0
 26 56  1  0
 28 57  1  0
 28 58  1  0
 29 59  1  0
 29 60  1  0
 30 61  1  0
 31 62  1  0
M  CHG  3   7  -1  13  -1  20   1
M  END
>  <UniqueID>  (16) 
16

>  <SMILES>  (16) 
CN(CCC(=O)[O-])C(=O)n1c(C([NH-])=O)cc2ccc([NH2+]CCCNCCOCCO)cc21

>  <Energy>  (16) 
90.90755869947886

>  <Genealogy>  (16) 
CN(CCC(=O)[O-])C(=O)n1c(C([NH-])=O)cc2ccc([NH2+]CCCNCCOCCO)cc21 (protonated)
CN(CCC(=O)[O-])C(=O)n1c(C([NH-])=O)cc2ccc([NH2+]CCCNCCOCCO)cc21 (3D coordinates assigned)
CN(CCC(=O)[O-])C(=O)n1c(C([NH-])=O)cc2ccc([NH2+]CCCNCCOCCO)cc21 (optimized conformer: 90.90755869947886 kcal/mol)

>  <smiles>  (16) 
CN(CCC(=O)O)C(=O)n1c(C(N)=O)cc2ccc(NCCCNCCOCCO)cc21

>  <score_type>  (16) 
oracle

>  <origin>  (16) 
adg

>  <m_score__min__energy>  (16) 
-10.82

>  <m_primary>  (16) 
energy

$$$$
16:0
     RDKit          3D

 30 31  0  0  0  0  0  0  0  0999 V2000
   -2.7940   20.6950  -32.5410 C   0  0  0  0  0  0  0  0  0  0  0  0
   -3.2820   21.9290  -32.6570 C   0  0  0  0  0  0  0  0  0  0  0  0
   -3.8550   22.6710  -31.5180 C   0  0  0  0  0  0  0  0  0  0  0  0
   -3.0810   23.1080  -30.6250 O   0  0  0  0  0  0  0  0  0  0  0  0
   -5.2680   22.8990  -31.3990 N   0  0  0  0  0  0  0  0  0  0  0  0
   -5.8920   23.9980  -30.8920 C   0  0  0  0  0  0  0  0  0  0  0  0
   -5.2230   25.2380  -30.4480 C   0  0  0  0  0  0  0  0  0  0  0  0
   -3.8830   25.5080  -30.8540 N   0  0  0  0  0  0  0  0  0  0  0  0
   -5.8180   26.0580  -29.6990 O   0  0  0  0  0  0  0  0  0  0  0  0
   -7.2740   23.8120  -30.8800 C   0  0  0  0  0  0  0  0  0  0  0  0
   -7.4760   22.5500  -31.3960 C   0  0  0  0  0  0  0  0  0  0  0  0
   -8.6560   21.8400  -31.5930 C   0  0  0  0  0  0  0  0  0  0  0  0
   -8.5620   20.5380  -32.1140 C   0  0  0  0  0  0  0  0  0  0  0  0
   -7.2990   19.9760  -32.4290 C   0  0  0  0  0  0  0  0  0  0  0  0
   -7.2080   18.5680  -32.9480 C   0  0  0  0  0  0  0  0  0  0  0  0
   -6.0190   18.4270  -33.8430 C   0  0  0  0  0  0  0  0  0  0  0  0
   -6.0370   18.9130  -35.0030 O   0  0  0  0  0  0  0  0  0  0  0  0
   -4.8700   17.8000  -33.3760 O   0  0  0  0  0  0  0  0  0  0  0  0
   -6.1220   20.7230  -32.2030 C   0  0  0  0  0  0  0  0  0  0  0  0
   -6.2490   22.0210  -31.6970 C   0  0  0  0  0  0  0  0  0  0  0  0
   -2.3770   20.1835  -33.4210 H   0  0  0  0  0  0  0  0  0  0  0  0
   -2.8080   20.1875  -31.5652 H   0  0  0  0  0  0  0  0  0  0  0  0
   -3.2567   22.4151  -33.6434 H   0  0  0  0  0  0  0  0  0  0  0  0
   -3.0750   25.2500  -30.2450 H   0  0  0  0  0  0  0  0  0  0  0  0
   -8.0397   24.5213  -30.5327 H   0  0  0  0  0  0  0  0  0  0  0  0
   -9.6324   22.2838  -31.3486 H   0  0  0  0  0  0  0  0  0  0  0  0
   -9.4767   19.9496  -32.2789 H   0  0  0  0  0  0  0  0  0  0  0  0
   -7.1101   17.8734  -32.1007 H   0  0  0  0  0  0  0  0  0  0  0  0
   -8.1187   18.3350  -33.5193 H   0  0  0  0  0  0  0  0  0  0  0  0
   -5.1317   20.2956  -32.4191 H   0  0  0  0  0  0  0  0  0  0  0  0
  1  2  2  0
  2  3  1  0
  3  4  2  0
  3  5  1  0
  5  6  1  0
  6  7  1  0
  7  8  1  0
  7  9  2  0
  6 10  2  0
 10 11  1  0
 11 12  2  0
 12 13  1  0
 13 14  2  0
 14 15  1  0
 15 16  1  0
 16 17  2  0
 16 18  1  0
 14 19  1  0
 19 20  2  0
 20  5  1  0
 20 11  1  0
  1 21  1  0
  1 22  1  0
  2 23  1  0
  8 24  1  0
 10 25  1  0
 12 26  1  0
 13 27  1  0
 15 28  1  0
 15 29  1  0
 19 30  1  0
M  CHG  2   8  -1  18  -1
M  END
>  <UniqueID>  (17) 
17

>  <SMILES>  (17) 
C=CC(=O)n1c(C([NH-])=O)cc2ccc(CC(=O)[O-])cc21

>  <Energy>  (17) 
66.85525153758613

>  <Genealogy>  (17) 
C=CC(=O)n1c(C([NH-])=O)cc2ccc(CC(=O)[O-])cc21 (protonated)
C=CC(=O)n1c(C([NH-])=O)cc2ccc(CC(=O)[O-])cc21 (3D coordinates assigned)
C=CC(=O)n1c(C([NH-])=O)cc2ccc(CC(=O)[O-])cc21 (optimized conformer: 66.85525153758613 kcal/mol)

>  <smiles>  (17) 
C=CC(=O)n1c(C(N)=O)cc2ccc(CC(=O)O)cc21

>  <score_type>  (17) 
oracle

>  <origin>  (17) 
adg

>  <m_score__min__energy>  (17) 
-9.9100000000000001

>  <m_primary>  (17) 
energy

$$$$
17:0
     RDKit          3D

 33 35  0  0  0  0  0  0  0  0999 V2000
   -5.9280   18.9250  -34.3930 C   0  0  0  0  0  0  0  0  0  0  0  0
   -5.9930   19.7970  -33.2180 N   0  0  0  0  0  0  0  0  0  0  0  0
   -4.7800   20.3330  -32.6590 C   0  0  0  0  0  0  0  0  0  0  0  0
   -3.5230   19.8000  -33.0400 C   0  0  0  0  0  0  0  0  0  0  0  0
   -2.3320   20.3120  -32.4980 C   0  0  0  0  0  0  0  0  0  0  0  0
   -2.4270   21.3610  -31.5890 C   0  0  0  0  0  0  0  0  0  0  0  0
   -1.4420   22.0270  -30.8950 C   0  0  0  0  0  0  0  0  0  0  0  0
   -2.1110   22.9710  -30.1170 C   0  0  0  0  0  0  0  0  0  0  0  0
   -1.4300   23.9420  -29.2360 C   0  0  0  0  0  0  0  0  0  0  0  0
   -1.7320   25.3320  -29.3430 N   0  0  0  0  0  0  0  0  0  0  0  0
   -0.5940   23.5570  -28.3760 O   0  0  0  0  0  0  0  0  0  0  0  0
   -3.4550   22.8940  -30.3270 N   0  0  0  0  0  0  0  0  0  0  0  0
   -4.4860   23.6540  -29.6790 C   0  0  0  0  0  0  0  0  0  0  0  0
   -5.0180   23.2120  -28.6260 O   0  0  0  0  0  0  0  0  0  0  0  0
   -4.9250   24.9470  -30.2250 C   0  0  0  0  0  0  0  0  0  0  0  0
   -4.1210   25.6780  -30.8580 O   0  0  0  0  0  0  0  0  0  0  0  0
   -6.2320   25.3770  -30.0260 O   0  0  0  0  0  0  0  0  0  0  0  0
   -3.6330   21.9010  -31.2260 C   0  0  0  0  0  0  0  0  0  0  0  0
   -4.8350   21.4000  -31.7330 C   0  0  0  0  0  0  0  0  0  0  0  0
   -7.2560   20.0220  -32.5600 C   0  0  0  0  0  0  0  0  0  0  0  0
   -7.4090   20.1450  -31.2270 N   0  0  0  0  0  0  0  0  0  0  0  0
   -8.7130   20.3040  -31.0510 N   0  0  0  0  0  0  0  0  0  0  0  0
   -9.3360   20.2750  -32.2210 N   0  0  0  0  0  0  0  0  0  0  0  0
   -8.4450   20.0970  -33.1790 N   0  0  0  0  0  0  0  0  0  0  0  0
   -5.8499   17.8770  -34.0680 H   0  0  0  0  0  0  0  0  0  0  0  0
   -6.8383   19.0548  -34.9967 H   0  0  0  0  0  0  0  0  0  0  0  0
   -5.0470   19.1883  -34.9967 H   0  0  0  0  0  0  0  0  0  0  0  0
   -3.4794   18.9765  -33.7680 H   0  0  0  0  0  0  0  0  0  0  0  0
   -1.3545   19.8962  -32.7836 H   0  0  0  0  0  0  0  0  0  0  0  0
   -0.3572   21.8516  -30.9439 H   0  0  0  0  0  0  0  0  0  0  0  0
   -2.7210   25.6670  -29.3340 H   0  0  0  0  0  0  0  0  0  0  0  0
   -5.7999   21.8252  -31.4195 H   0  0  0  0  0  0  0  0  0  0  0  0
   -8.6610   20.0270  -34.1980 H   0  0  0  0  0  0  0  0  0  0  0  0
  1  2  1  0
  2  3  1  0
  3  4  2  0
  4  5  1  0
  5  6  2  0
  6  7  1  0
  7  8  2  0
  8  9  1  0
  9 10  1  0
  9 11  2  0
  8 12  1  0
 12 13  1  0
 13 14  2  0
 13 15  1  0
 15 16  2  0
 15 17  1  0
 12 18  1  0
 18 19  2  0
  2 20  1  0
 20 21  2  0
 21 22  1  0
 22 23  1  0
 23 24  2  0
 19  3  1  0
 24 20  1  0
 18  6  1  0
  1 25  1  0
  1 26  1  0
  1 27  1  0
  4 28  1  0
  5 29  1  0
  7 30  1  0
 10 31  1  0
 19 32  1  0
 24 33  1  0
M  CHG  4  10  -1  17  -1  22  -1  24   1
M  END
>  <UniqueID>  (18) 
18

>  <SMILES>  (18) 
CN(c1ccc2cc(C([NH-])=O)n(C(=O)C(=O)[O-])c2c1)c1n[n-]n[nH+]1

>  <Energy>  (18) 
119.36462701186802

>  <Genealogy>  (18) 
CN(c1ccc2cc(C([NH-])=O)n(C(=O)C(=O)[O-])c2c1)c1n[n-]n[nH+]1 (protonated)
CN(c1ccc2cc(C([NH-])=O)n(C(=O)C(=O)[O-])c2c1)c1n[n-]n[nH+]1 (3D coordinates assigned)
CN(c1ccc2cc(C([NH-])=O)n(C(=O)C(=O)[O-])c2c1)c1n[n-]n[nH+]1 (optimized conformer: 119.36462701186802 kcal/mol)

>  <smiles>  (18) 
CN(c1ccc2cc(C(N)=O)n(C(=O)C(=O)O)c2c1)c1nn[nH]n1

>  <score_type>  (18) 
oracle

>  <origin>  (18) 
adg

>  <m_score__min__energy>  (18) 
-11.859999999999999

>  <m_primary>  (18) 
energy

$$$$
18:0
     RDKit          3D

 46 48  0  0  0  0  0  0  0  0999 V2000
   -1.9980   25.3220  -27.2210 C   0  0  0  0  0  0  0  0  0  0  0  0
   -2.7380   24.2310  -27.8620 N   0  0  0  0  0  0  0  0  0  0  0  0
   -3.9310   23.6590  -27.2300 C   0  0  0  0  0  0  0  0  0  0  0  0
   -2.2930   23.7080  -29.1250 C   0  0  0  0  0  0  0  0  0  0  0  0
   -1.2620   24.1840  -29.6750 O   0  0  0  0  0  0  0  0  0  0  0  0
   -3.0130   22.6700  -29.7350 O   0  0  0  0  0  0  0  0  0  0  0  0
   -3.5690   22.7170  -31.0200 C   0  0  0  0  0  0  0  0  0  0  0  0
   -2.8370   22.6410  -32.0440 O   0  0  0  0  0  0  0  0  0  0  0  0
   -4.9900   22.8750  -31.1700 N   0  0  0  0  0  0  0  0  0  0  0  0
   -5.7250   24.0080  -30.9850 C   0  0  0  0  0  0  0  0  0  0  0  0
   -5.2260   25.2830  -30.4300 C   0  0  0  0  0  0  0  0  0  0  0  0
   -3.8730   25.6730  -30.6560 N   0  0  0  0  0  0  0  0  0  0  0  0
   -5.9920   26.0530  -29.7920 O   0  0  0  0  0  0  0  0  0  0  0  0
   -7.0590   23.7840  -31.3180 C   0  0  0  0  0  0  0  0  0  0  0  0
   -7.1210   22.4670  -31.7100 C   0  0  0  0  0  0  0  0  0  0  0  0
   -8.2040   21.7190  -32.1630 C   0  0  0  0  0  0  0  0  0  0  0  0
   -7.9730   20.3840  -32.5340 C   0  0  0  0  0  0  0  0  0  0  0  0
   -6.6740   19.8230  -32.4500 C   0  0  0  0  0  0  0  0  0  0  0  0
   -6.4420   18.4590  -32.8580 N   0  0  0  0  0  0  0  0  0  0  0  0
   -6.5870   17.3510  -31.9060 C   0  0  0  0  0  0  0  0  0  0  0  0
   -5.3600   16.4180  -31.9620 C   0  0  0  0  0  0  0  0  0  0  0  0
   -4.6220   16.4970  -33.2370 N   0  0  0  0  0  0  0  0  0  0  0  0
   -5.5160   16.7450  -34.3730 C   0  0  0  0  0  0  0  0  0  0  0  0
   -6.1040   18.1540  -34.2550 C   0  0  0  0  0  0  0  0  0  0  0  0
   -5.5980   20.6190  -31.9930 C   0  0  0  0  0  0  0  0  0  0  0  0
   -5.8600   21.9400  -31.6120 C   0  0  0  0  0  0  0  0  0  0  0  0
   -2.0675   25.2196  -26.1280 H   0  0  0  0  0  0  0  0  0  0  0  0
   -0.9423   25.2784  -27.5270 H   0  0  0  0  0  0  0  0  0  0  0  0
   -2.4289   26.2867  -27.5270 H   0  0  0  0  0  0  0  0  0  0  0  0
   -3.8262   23.7092  -26.1362 H   0  0  0  0  0  0  0  0  0  0  0  0
   -4.8192   24.2292  -27.5399 H   0  0  0  0  0  0  0  0  0  0  0  0
   -4.0426   22.6095  -27.5399 H   0  0  0  0  0  0  0  0  0  0  0  0
   -3.0970   24.9780  -30.5920 H   0  0  0  0  0  0  0  0  0  0  0  0
   -7.8870   24.5069  -31.2763 H   0  0  0  0  0  0  0  0  0  0  0  0
   -9.2097   22.1597  -32.2284 H   0  0  0  0  0  0  0  0  0  0  0  0
   -8.8096   19.7670  -32.8938 H   0  0  0  0  0  0  0  0  0  0  0  0
   -6.6837   17.7593  -30.8892 H   0  0  0  0  0  0  0  0  0  0  0  0
   -7.4834   16.7717  -32.1723 H   0  0  0  0  0  0  0  0  0  0  0  0
   -4.6758   16.6922  -31.1455 H   0  0  0  0  0  0  0  0  0  0  0  0
   -5.7311   15.3871  -31.8648 H   0  0  0  0  0  0  0  0  0  0  0  0
   -4.1400   15.5820  -33.3950 H   0  0  0  0  0  0  0  0  0  0  0  0
   -4.9493   16.6606  -35.3120 H   0  0  0  0  0  0  0  0  0  0  0  0
   -6.3294   16.0045  -34.3707 H   0  0  0  0  0  0  0  0  0  0  0  0
   -5.3656   18.8851  -34.6160 H   0  0  0  0  0  0  0  0  0  0  0  0
   -7.0205   18.2072  -34.8609 H   0  0  0  0  0  0  0  0  0  0  0  0
   -4.5786   20.2093  -31.9383 H   0  0  0  0  0  0  0  0  0  0  0  0
  1  2  1  0
  2  3  1  0
  2  4  1  0
  4  5  2  0
  4  6  1  0
  6  7  1  0
  7  8  2  0
  7  9  1  0
  9 10  1  0
 10 11  1  0
 11 12  1  0
 11 13  2  0
 10 14  2  0
 14 15  1  0
 15 16  2  0
 16 17  1  0
 17 18  2  0
 18 19  1  0
 19 20  1  0
 20 21  1  0
 21 22  1  0
 22 23  1  0
 23 24  1  0
 18 25  1  0
 25 26  2  0
 26  9  1  0
 26 15  1  0
 24 19  1  0
  1 27  1  0
  1 28  1  0
  1 29  1  0
  3 30  1  0
  3 31  1  0
  3 32  1  0
 12 33  1  0
 14 34  1  0
 16 35  1  0
 17 36  1  0
 20 37  1  0
 20 38  1  0
 21 39  1  0
 21 40  1  0
 22 41  1  0
 23 42  1  0
 23 43  1  0
 24 44  1  0
 24 45  1  0
 25 46  1  0
M  CHG  1  12  -1
M  END
>  <UniqueID>  (19) 
19

>  <SMILES>  (19) 
CN(C)C(=O)OC(=O)n1c(C([NH-])=O)cc2ccc(N3CCNCC3)cc21

>  <Energy>  (19) 
90.65788936858725

>  <Genealogy>  (19) 
CN(C)C(=O)OC(=O)n1c(C([NH-])=O)cc2ccc(N3CCNCC3)cc21 (protonated)
CN(C)C(=O)OC(=O)n1c(C([NH-])=O)cc2ccc(N3CCNCC3)cc21 (3D coordinates assigned)
CN(C)C(=O)OC(=O)n1c(C([NH-])=O)cc2ccc(N3CCNCC3)cc21 (nonaromatic ring conformer: 90.65788936858725 kcal/mol)

>  <smiles>  (19) 
CN(C)C(=O)OC(=O)n1c(C(N)=O)cc2ccc(N3CCNCC3)cc21

>  <score_type>  (19) 
oracle

>  <origin>  (19) 
adg

>  <m_score__min__energy>  (19) 
-10.449999999999999

>  <m_primary>  (19) 
energy

$$$$
19:0
     RDKit          3D

 34 36  0  0  0  0  0  0  0  0999 V2000
   -5.2940   26.3600  -30.4860 N   0  0  0  0  0  0  0  0  0  0  0  0
   -6.2340   25.3880  -30.0230 C   0  0  0  0  0  0  0  0  0  0  0  0
   -6.8910   25.6170  -28.9720 O   0  0  0  0  0  0  0  0  0  0  0  0
   -6.4010   24.0950  -30.7150 C   0  0  0  0  0  0  0  0  0  0  0  0
   -7.6400   23.5880  -31.0960 C   0  0  0  0  0  0  0  0  0  0  0  0
   -7.3740   22.3510  -31.6390 C   0  0  0  0  0  0  0  0  0  0  0  0
   -8.2400   21.4150  -32.1930 C   0  0  0  0  0  0  0  0  0  0  0  0
   -7.6870   20.2360  -32.7170 C   0  0  0  0  0  0  0  0  0  0  0  0
   -6.2870   20.0140  -32.6860 C   0  0  0  0  0  0  0  0  0  0  0  0
   -5.7100   18.7750  -33.2620 C   0  0  0  0  0  0  0  0  0  0  0  0
   -6.4660   17.5890  -33.2690 C   0  0  0  0  0  0  0  0  0  0  0  0
   -5.9320   16.4150  -33.8020 C   0  0  0  0  0  0  0  0  0  0  0  0
   -4.6420   16.4080  -34.3360 C   0  0  0  0  0  0  0  0  0  0  0  0
   -3.8760   17.5810  -34.3450 C   0  0  0  0  0  0  0  0  0  0  0  0
   -2.5580   17.5660  -34.9030 N   0  0  0  0  0  0  0  0  0  0  0  0
   -4.4100   18.7660  -33.8080 C   0  0  0  0  0  0  0  0  0  0  0  0
   -3.6800   19.9100  -33.8530 F   0  0  0  0  0  0  0  0  0  0  0  0
   -5.4380   20.9950  -32.1200 C   0  0  0  0  0  0  0  0  0  0  0  0
   -6.0170   22.1530  -31.5860 C   0  0  0  0  0  0  0  0  0  0  0  0
   -5.4040   23.2190  -31.0220 N   0  0  0  0  0  0  0  0  0  0  0  0
   -3.9880   23.4350  -30.8980 C   0  0  0  0  0  0  0  0  0  0  0  0
   -3.1800   22.4800  -31.0510 O   0  0  0  0  0  0  0  0  0  0  0  0
   -3.4930   24.7020  -30.6150 O   0  0  0  0  0  0  0  0  0  0  0  0
   -5.2150   27.2830  -30.0050 H   0  0  0  0  0  0  0  0  0  0  0  0
   -4.6210   26.1350  -31.2510 H   0  0  0  0  0  0  0  0  0  0  0  0
   -8.6217   24.0720  -30.9867 H   0  0  0  0  0  0  0  0  0  0  0  0
   -9.3252   21.5929  -32.2199 H   0  0  0  0  0  0  0  0  0  0  0  0
   -8.3480   19.4749  -33.1571 H   0  0  0  0  0  0  0  0  0  0  0  0
   -7.4839   17.5868  -32.8520 H   0  0  0  0  0  0  0  0  0  0  0  0
   -6.5297   15.4916  -33.8014 H   0  0  0  0  0  0  0  0  0  0  0  0
   -4.2257   15.4783  -34.7511 H   0  0  0  0  0  0  0  0  0  0  0  0
   -2.3750   17.1640  -35.8490 H   0  0  0  0  0  0  0  0  0  0  0  0
   -1.7500   17.9600  -34.3710 H   0  0  0  0  0  0  0  0  0  0  0  0
   -4.3476   20.8510  -32.1000 H   0  0  0  0  0  0  0  0  0  0  0  0
  1  2  1  0
  2  3  2  0
  2  4  1  0
  4  5  2  0
  5  6  1  0
  6  7  2  0
  7  8  1  0
  8  9  2  0
  9 10  1  0
 10 11  2  0
 11 12  1  0
 12 13  2  0
 13 14  1  0
 14 15  1  0
 14 16  2  0
 16 17  1  0
  9 18  1  0
 18 19  2  0
 19 20  1  0
 20 21  1  0
 21 22  2  0
 21 23  1  0
 20  4  1  0
 19  6  1  0
 16 10  1  0
  1 24  1  0
  1 25  1  0
  5 26  1  0
  7 27  1  0
  8 28  1  0
 11 29  1  0
 12 30  1  0
 13 31  1  0
 15 32  1  0
 15 33  1  0
 18 34  1  0
M  CHG  1  23  -1
M  END
>  <UniqueID>  (20) 
20

>  <SMILES>  (20) 
NC(=O)c1cc2ccc(-c3cccc(N)c3F)cc2n1C(=O)[O-]

>  <Energy>  (20) 
82.61734171574213

>  <Genealogy>  (20) 
NC(=O)c1cc2ccc(-c3cccc(N)c3F)cc2n1C(=O)[O-] (protonated)
NC(=O)c1cc2ccc(-c3cccc(N)c3F)cc2n1C(=O)[O-] (3D coordinates assigned)
NC(=O)c1cc2ccc(-c3cccc(N)c3F)cc2n1C(=O)[O-] (optimized conformer: 82.61734171574213 kcal/mol)

>  <smiles>  (20) 
NC(=O)c1cc2ccc(-c3cccc(N)c3F)cc2n1C(=O)O

>  <score_type>  (20) 
oracle

>  <origin>  (20) 
adg

>  <m_score__min__energy>  (20) 
-9.7300000000000004

>  <m_primary>  (20) 
energy

$$$$
20:0
     RDKit          3D

 45 46  0  0  0  0  0  0  0  0999 V2000
   -3.0650   25.2960  -30.2540 H   0  0  0  0  0  0  0  0  0  0  0  0
   -3.8700   25.5730  -30.8590 N   0  0  0  0  0  0  0  0  0  0  0  0
   -5.2140   25.3350  -30.4460 C   0  0  0  0  0  0  0  0  0  0  0  0
   -5.7940   26.1840  -29.7190 O   0  0  0  0  0  0  0  0  0  0  0  0
   -5.8990   24.0910  -30.8510 C   0  0  0  0  0  0  0  0  0  0  0  0
   -7.2860   23.9600  -30.9240 C   0  0  0  0  0  0  0  0  0  0  0  0
   -8.0417   24.7164  -30.6657 H   0  0  0  0  0  0  0  0  0  0  0  0
   -7.5080   22.6830  -31.3880 C   0  0  0  0  0  0  0  0  0  0  0  0
   -8.7040   22.0160  -31.6360 C   0  0  0  0  0  0  0  0  0  0  0  0
   -9.6730   22.5151  -31.4880 H   0  0  0  0  0  0  0  0  0  0  0  0
   -8.6350   20.6860  -32.0810 C   0  0  0  0  0  0  0  0  0  0  0  0
   -9.5624   20.1382  -32.3041 H   0  0  0  0  0  0  0  0  0  0  0  0
   -7.3820   20.0410  -32.2460 C   0  0  0  0  0  0  0  0  0  0  0  0
   -7.3210   18.6090  -32.7160 C   0  0  0  0  0  0  0  0  0  0  0  0
   -7.7438   18.5565  -33.7302 H   0  0  0  0  0  0  0  0  0  0  0  0
   -7.8931   18.0059  -31.9956 H   0  0  0  0  0  0  0  0  0  0  0  0
   -5.8880   18.0370  -32.7530 C   0  0  0  0  0  0  0  0  0  0  0  0
   -5.9361   16.9725  -32.4801 H   0  0  0  0  0  0  0  0  0  0  0  0
   -5.2942   18.6363  -32.0471 H   0  0  0  0  0  0  0  0  0  0  0  0
   -5.1860   18.1520  -34.1250 C   0  0  0  0  0  0  0  0  0  0  0  0
   -4.9938   19.2167  -34.3236 H   0  0  0  0  0  0  0  0  0  0  0  0
   -5.8618   17.6903  -34.8600 H   0  0  0  0  0  0  0  0  0  0  0  0
   -3.8970   17.4230  -34.2240 N   0  0  0  0  0  0  0  0  0  0  0  0
   -3.1040   18.0970  -34.1530 H   0  0  0  0  0  0  0  0  0  0  0  0
   -3.7770   16.6750  -35.4900 C   0  0  0  0  0  0  0  0  0  0  0  0
   -3.6062   15.6104  -35.2721 H   0  0  0  0  0  0  0  0  0  0  0  0
   -4.7045   16.7862  -36.0709 H   0  0  0  0  0  0  0  0  0  0  0  0
   -2.9309   17.0707  -36.0709 H   0  0  0  0  0  0  0  0  0  0  0  0
   -3.7720   16.4910  -33.0900 C   0  0  0  0  0  0  0  0  0  0  0  0
   -3.8470   17.0503  -32.1458 H   0  0  0  0  0  0  0  0  0  0  0  0
   -4.5780   15.7440  -33.1387 H   0  0  0  0  0  0  0  0  0  0  0  0
   -2.7977   15.9828  -33.1387 H   0  0  0  0  0  0  0  0  0  0  0  0
   -6.1900   20.7610  -32.0050 C   0  0  0  0  0  0  0  0  0  0  0  0
   -5.2077   20.2872  -32.1486 H   0  0  0  0  0  0  0  0  0  0  0  0
   -6.2880   22.0890  -31.5800 C   0  0  0  0  0  0  0  0  0  0  0  0
   -5.2910   22.9410  -31.2580 N   0  0  0  0  0  0  0  0  0  0  0  0
   -3.8840   22.6540  -31.2770 C   0  0  0  0  0  0  0  0  0  0  0  0
   -3.1380   23.1400  -30.3840 O   0  0  0  0  0  0  0  0  0  0  0  0
   -3.3190   21.8000  -32.3400 C   0  0  0  0  0  0  0  0  0  0  0  0
   -3.3404   22.1617  -33.3786 H   0  0  0  0  0  0  0  0  0  0  0  0
   -2.7820   20.6020  -32.0850 C   0  0  0  0  0  0  0  0  0  0  0  0
   -2.7569   20.2380  -31.0473 H   0  0  0  0  0  0  0  0  0  0  0  0
   -2.2240   19.7570  -33.1520 C   0  0  0  0  0  0  0  0  0  0  0  0
   -2.3740   20.0940  -34.3550 O   0  0  0  0  0  0  0  0  0  0  0  0
   -1.5310   18.5890  -32.8510 O   0  0  0  0  0  0  0  0  0  0  0  0
  1  2  1  0
  2  3  1  0
  3  4  2  0
  3  5  1  0
  5  6  2  0
  6  7  1  0
  6  8  1  0
  8  9  2  0
  9 10  1  0
  9 11  1  0
 11 12  1  0
 11 13  2  0
 13 14  1  0
 14 15  1  0
 14 16  1  0
 14 17  1  0
 17 18  1  0
 17 19  1  0
 17 20  1  0
 20 21  1  0
 20 22  1  0
 20 23  1  0
 23 24  1  0
 23 25  1  0
 25 26  1  0
 25 27  1  0
 25 28  1  0
 23 29  1  0
 29 30  1  0
 29 31  1  0
 29 32  1  0
 13 33  1  0
 33 34  1  0
 33 35  2  0
 35 36  1  0
 36 37  1  0
 37 38  2  0
 37 39  1  0
 39 40  1  0
 39 41  2  0
 41 42  1  0
 41 43  1  0
 43 44  2  0
 43 45  1  0
 36  5  1  0
 35  8  1  0
M  CHG  3   2  -1  23   1  45  -1
M  END
>  <UniqueID>  (21) 
21

>  <SMILES>  (21) 
C[NH+](C)CCCc1ccc2cc(C([NH-])=O)n(C(=O)/C=C/C(=O)[O-])c2c1

>  <Energy>  (21) 
81.49999958306306

>  <Genealogy>  (21) 
C[NH+](C)CCCc1ccc2cc(C([NH-])=O)n(C(=O)C=CC(=O)[O-])c2c1 (protonated)
C[NH+](C)CCCc1ccc2cc(C([NH-])=O)n(C(=O)/C=C/C(=O)[O-])c2c1 (cis-trans isomerization)
C[NH+](C)CCCc1ccc2cc(C([NH-])=O)n(C(=O)/C=C/C(=O)[O-])c2c1 (3D coordinates assigned)
C[NH+](C)CCCc1ccc2cc(C([NH-])=O)n(C(=O)/C=C/C(=O)[O-])c2c1 (optimized conformer: 81.49999958306306 kcal/mol)

>  <smiles>  (21) 
CN(C)CCCc1ccc2cc(C(N)=O)n(C(=O)C=CC(=O)O)c2c1

>  <score_type>  (21) 
oracle

>  <origin>  (21) 
adg

>  <m_score__min__energy>  (21) 
-9.3599999999999994

>  <m_primary>  (21) 
energy

$$$$
21:0
     RDKit          3D

 36 38  0  0  0  0  0  0  0  0999 V2000
   -0.0720   23.5070  -29.3480 N   0  0  0  0  0  0  0  0  0  0  0  0
   -0.4680   22.1390  -29.4680 C   0  0  0  0  0  0  0  0  0  0  0  0
    0.2760   21.2400  -28.9930 O   0  0  0  0  0  0  0  0  0  0  0  0
   -1.7530   21.7620  -30.0910 C   0  0  0  0  0  0  0  0  0  0  0  0
   -1.8820   20.7570  -31.0460 C   0  0  0  0  0  0  0  0  0  0  0  0
   -3.2220   20.7240  -31.3600 C   0  0  0  0  0  0  0  0  0  0  0  0
   -3.9050   19.9350  -32.2760 C   0  0  0  0  0  0  0  0  0  0  0  0
   -5.2840   20.1520  -32.4370 C   0  0  0  0  0  0  0  0  0  0  0  0
   -5.9570   21.1610  -31.6950 C   0  0  0  0  0  0  0  0  0  0  0  0
   -7.3740   21.3880  -31.8790 N   0  0  0  0  0  0  0  0  0  0  0  0
   -8.0470   22.6380  -31.5540 C   0  0  0  0  0  0  0  0  0  0  0  0
   -9.4750   22.4860  -32.0560 C   0  0  0  0  0  0  0  0  0  0  0  0
   -9.6870   20.9900  -32.2530 C   0  0  0  0  0  0  0  0  0  0  0  0
   -8.2960   20.3910  -32.4020 C   0  0  0  0  0  0  0  0  0  0  0  0
   -5.2160   21.9470  -30.7750 C   0  0  0  0  0  0  0  0  0  0  0  0
   -3.8510   21.6860  -30.6160 C   0  0  0  0  0  0  0  0  0  0  0  0
   -2.9640   22.3280  -29.8240 N   0  0  0  0  0  0  0  0  0  0  0  0
   -3.2220   23.4810  -29.0080 C   0  0  0  0  0  0  0  0  0  0  0  0
   -3.6690   23.3280  -27.8390 O   0  0  0  0  0  0  0  0  0  0  0  0
   -3.0060   24.8400  -29.5260 C   0  0  0  0  0  0  0  0  0  0  0  0
   -3.7110   25.2820  -30.4710 O   0  0  0  0  0  0  0  0  0  0  0  0
   -2.0350   25.6550  -28.9580 O   0  0  0  0  0  0  0  0  0  0  0  0
    0.8660   23.7460  -28.9560 H   0  0  0  0  0  0  0  0  0  0  0  0
   -0.7380   24.2840  -29.5470 H   0  0  0  0  0  0  0  0  0  0  0  0
   -1.0836   20.1244  -31.4610 H   0  0  0  0  0  0  0  0  0  0  0  0
   -3.3818   19.1625  -32.8587 H   0  0  0  0  0  0  0  0  0  0  0  0
   -5.8510   19.5323  -33.1473 H   0  0  0  0  0  0  0  0  0  0  0  0
   -8.0395   22.8051  -30.4668 H   0  0  0  0  0  0  0  0  0  0  0  0
   -7.5452   23.4994  -32.0190 H   0  0  0  0  0  0  0  0  0  0  0  0
  -10.1859   22.8795  -31.3146 H   0  0  0  0  0  0  0  0  0  0  0  0
   -9.6385   23.0451  -32.9891 H   0  0  0  0  0  0  0  0  0  0  0  0
  -10.1991   20.5574  -31.3808 H   0  0  0  0  0  0  0  0  0  0  0  0
  -10.3141   20.7820  -33.1325 H   0  0  0  0  0  0  0  0  0  0  0  0
   -8.2176   19.4576  -31.8253 H   0  0  0  0  0  0  0  0  0  0  0  0
   -8.0725   20.1451  -33.4506 H   0  0  0  0  0  0  0  0  0  0  0  0
   -5.7053   22.7457  -30.1983 H   0  0  0  0  0  0  0  0  0  0  0  0
  1  2  1  0
  2  3  2  0
  2  4  1  0
  4  5  2  0
  5  6  1  0
  6  7  2  0
  7  8  1  0
  8  9  2  0
  9 10  1  0
 10 11  1  0
 11 12  1  0
 12 13  1  0
 13 14  1  0
  9 15  1  0
 15 16  2  0
 16 17  1  0
 17 18  1  0
 18 19  2  0
 18 20  1  0
 20 21  2  0
 20 22  1  0
 17  4  1  0
 16  6  1  0
 14 10  1  0
  1 23  1  0
  1 24  1  0
  5 25  1  0
  7 26  1  0
  8 27  1  0
 11 28  1  0
 11 29  1  0
 12 30  1  0
 12 31  1  0
 13 32  1  0
 13 33  1  0
 14 34  1  0
 14 35  1  0
 15 36  1  0
M  CHG  1  22  -1
M  END
>  <UniqueID>  (22) 
22

>  <SMILES>  (22) 
NC(=O)c1cc2ccc(N3CCCC3)cc2n1C(=O)C(=O)[O-]

>  <Energy>  (22) 
78.62068297580095

>  <Genealogy>  (22) 
NC(=O)c1cc2ccc(N3CCCC3)cc2n1C(=O)C(=O)[O-] (protonated)
NC(=O)c1cc2ccc(N3CCCC3)cc2n1C(=O)C(=O)[O-] (3D coordinates assigned)
NC(=O)c1cc2ccc(N3CCCC3)cc2n1C(=O)C(=O)[O-] (nonaromatic ring conformer: 78.62068297580095 kcal/mol)

>  <smiles>  (22) 
NC(=O)c1cc2ccc(N3CCCC3)cc2n1C(=O)C(=O)O

>  <score_type>  (22) 
oracle

>  <origin>  (22) 
adg

>  <m_score__min__energy>  (22) 
-10.550000000000001

>  <m_primary>  (22) 
energy

$$$$
22:0
     RDKit          3D

 35 37  0  0  0  0  0  0  0  0999 V2000
   -2.7240   25.5020  -26.1270 C   0  0  0  0  0  0  0  0  0  0  0  0
   -2.6150   24.7060  -27.3840 C   0  0  0  0  0  0  0  0  0  0  0  0
   -1.8440   25.0660  -28.4290 N   0  0  0  0  0  0  0  0  0  0  0  0
   -2.0610   24.1550  -29.3280 O   0  0  0  0  0  0  0  0  0  0  0  0
   -2.9250   23.2820  -28.8720 C   0  0  0  0  0  0  0  0  0  0  0  0
   -3.4060   22.0920  -29.6410 C   0  0  0  0  0  0  0  0  0  0  0  0
   -3.9970   22.5040  -30.9580 C   0  0  0  0  0  0  0  0  0  0  0  0
   -3.2440   22.6930  -31.9510 O   0  0  0  0  0  0  0  0  0  0  0  0
   -5.4080   22.7490  -31.0800 N   0  0  0  0  0  0  0  0  0  0  0  0
   -6.0630   23.9330  -30.9170 C   0  0  0  0  0  0  0  0  0  0  0  0
   -5.4580   25.2080  -30.4730 C   0  0  0  0  0  0  0  0  0  0  0  0
   -4.0530   25.4280  -30.5570 N   0  0  0  0  0  0  0  0  0  0  0  0
   -6.1920   26.1080  -29.9840 O   0  0  0  0  0  0  0  0  0  0  0  0
   -7.4240   23.7720  -31.1720 C   0  0  0  0  0  0  0  0  0  0  0  0
   -7.5820   22.4440  -31.4980 C   0  0  0  0  0  0  0  0  0  0  0  0
   -8.7250   21.7410  -31.8660 C   0  0  0  0  0  0  0  0  0  0  0  0
   -8.5860   20.3780  -32.1820 C   0  0  0  0  0  0  0  0  0  0  0  0
   -7.3190   19.7430  -32.1150 C   0  0  0  0  0  0  0  0  0  0  0  0
   -7.1680   18.2940  -32.5050 C   0  0  0  0  0  0  0  0  0  0  0  0
   -6.8110   18.2170  -33.8390 F   0  0  0  0  0  0  0  0  0  0  0  0
   -6.1870   17.6870  -31.7400 F   0  0  0  0  0  0  0  0  0  0  0  0
   -8.3540   17.6080  -32.3140 F   0  0  0  0  0  0  0  0  0  0  0  0
   -6.1780   20.5020  -31.7650 C   0  0  0  0  0  0  0  0  0  0  0  0
   -6.3490   21.8500  -31.4370 C   0  0  0  0  0  0  0  0  0  0  0  0
   -3.3290   23.5870  -27.6220 N   0  0  0  0  0  0  0  0  0  0  0  0
   -2.6322   24.8319  -25.2595 H   0  0  0  0  0  0  0  0  0  0  0  0
   -1.9202   26.2524  -26.0973 H   0  0  0  0  0  0  0  0  0  0  0  0
   -3.6999   26.0087  -26.0973 H   0  0  0  0  0  0  0  0  0  0  0  0
   -2.5583   21.4152  -29.8234 H   0  0  0  0  0  0  0  0  0  0  0  0
   -4.1843   21.5855  -29.0513 H   0  0  0  0  0  0  0  0  0  0  0  0
   -3.4940   25.6650  -29.7080 H   0  0  0  0  0  0  0  0  0  0  0  0
   -8.2066   24.5434  -31.1230 H   0  0  0  0  0  0  0  0  0  0  0  0
   -9.7064   22.2360  -31.9084 H   0  0  0  0  0  0  0  0  0  0  0  0
   -9.4698   19.7973  -32.4847 H   0  0  0  0  0  0  0  0  0  0  0  0
   -5.1789   20.0420  -31.7512 H   0  0  0  0  0  0  0  0  0  0  0  0
  1  2  1  0
  2  3  2  0
  3  4  1  0
  4  5  1  0
  5  6  1  0
  6  7  1  0
  7  8  2  0
  7  9  1  0
  9 10  1  0
 10 11  1  0
 11 12  1  0
 11 13  2  0
 10 14  2  0
 14 15  1  0
 15 16  2  0
 16 17  1  0
 17 18  2  0
 18 19  1  0
 19 20  1  0
 19 21  1  0
 19 22  1  0
 18 23  1  0
 23 24  2  0
  5 25  2  0
 25  2  1  0
 24  9  1  0
 24 15  1  0
  1 26  1  0
  1 27  1  0
  1 28  1  0
  6 29  1  0
  6 30  1  0
 12 31  1  0
 14 32  1  0
 16 33  1  0
 17 34  1  0
 23 35  1  0
M  CHG  1  12  -1
M  END
>  <UniqueID>  (23) 
23

>  <SMILES>  (23) 
Cc1noc(CC(=O)n2c(C([NH-])=O)cc3ccc(C(F)(F)F)cc32)n1

>  <Energy>  (23) 
107.18731144742121

>  <Genealogy>  (23) 
Cc1noc(CC(=O)n2c(C([NH-])=O)cc3ccc(C(F)(F)F)cc32)n1 (protonated)
Cc1noc(CC(=O)n2c(C([NH-])=O)cc3ccc(C(F)(F)F)cc32)n1 (3D coordinates assigned)
Cc1noc(CC(=O)n2c(C([NH-])=O)cc3ccc(C(F)(F)F)cc32)n1 (optimized conformer: 107.18731144742121 kcal/mol)

>  <smiles>  (23) 
Cc1noc(CC(=O)n2c(C(N)=O)cc3ccc(C(F)(F)F)cc32)n1

>  <score_type>  (23) 
oracle

>  <origin>  (23) 
adg

>  <m_score__min__energy>  (23) 
-10.65

>  <m_primary>  (23) 
energy

$$$$
23:0
     RDKit          3D

 38 39  0  0  0  0  0  0  0  0999 V2000
   -7.0180   17.4910  -32.6630 C   0  0  0  0  0  0  0  0  0  0  0  0
   -8.3600   18.2130  -32.5840 C   0  0  0  0  0  0  0  0  0  0  0  0
   -8.1630   19.6670  -32.2520 C   0  0  0  0  0  0  0  0  0  0  0  0
   -9.2650   20.5580  -32.2820 C   0  0  0  0  0  0  0  0  0  0  0  0
   -9.1030   21.9080  -31.9260 C   0  0  0  0  0  0  0  0  0  0  0  0
   -7.8340   22.3370  -31.5520 C   0  0  0  0  0  0  0  0  0  0  0  0
   -7.4090   23.5700  -31.1100 C   0  0  0  0  0  0  0  0  0  0  0  0
   -6.0520   23.4150  -30.8370 C   0  0  0  0  0  0  0  0  0  0  0  0
   -5.1880   24.5040  -30.3370 C   0  0  0  0  0  0  0  0  0  0  0  0
   -5.1500   24.8490  -28.9510 N   0  0  0  0  0  0  0  0  0  0  0  0
   -4.4350   25.1140  -31.1430 O   0  0  0  0  0  0  0  0  0  0  0  0
   -5.6520   22.1400  -31.0980 N   0  0  0  0  0  0  0  0  0  0  0  0
   -4.3720   21.5540  -30.8120 C   0  0  0  0  0  0  0  0  0  0  0  0
   -4.2230   20.3070  -30.9090 O   0  0  0  0  0  0  0  0  0  0  0  0
   -3.2410   22.3850  -30.3750 C   0  0  0  0  0  0  0  0  0  0  0  0
   -2.4040   22.8050  -31.2200 O   0  0  0  0  0  0  0  0  0  0  0  0
   -3.1140   22.7140  -29.0200 O   0  0  0  0  0  0  0  0  0  0  0  0
   -1.8980   23.1750  -28.4360 C   0  0  0  0  0  0  0  0  0  0  0  0
   -1.9430   24.6860  -28.2230 C   0  0  0  0  0  0  0  0  0  0  0  0
   -2.5130   25.2990  -29.3450 O   0  0  0  0  0  0  0  0  0  0  0  0
   -6.7550   21.4890  -31.5290 C   0  0  0  0  0  0  0  0  0  0  0  0
   -6.8930   20.1340  -31.8500 C   0  0  0  0  0  0  0  0  0  0  0  0
   -6.6483   17.2921  -31.6463 H   0  0  0  0  0  0  0  0  0  0  0  0
   -7.1447   16.5393  -33.1998 H   0  0  0  0  0  0  0  0  0  0  0  0
   -6.2936   18.1212  -33.1998 H   0  0  0  0  0  0  0  0  0  0  0  0
   -8.8721   18.1303  -33.5540 H   0  0  0  0  0  0  0  0  0  0  0  0
   -8.9654   17.7483  -31.7918 H   0  0  0  0  0  0  0  0  0  0  0  0
  -10.2557   20.1896  -32.5866 H   0  0  0  0  0  0  0  0  0  0  0  0
   -9.9544   22.6044  -31.9427 H   0  0  0  0  0  0  0  0  0  0  0  0
   -8.0125   24.4827  -30.9967 H   0  0  0  0  0  0  0  0  0  0  0  0
   -5.6040   24.2450  -28.2300 H   0  0  0  0  0  0  0  0  0  0  0  0
   -4.5770   25.6600  -28.6300 H   0  0  0  0  0  0  0  0  0  0  0  0
   -1.7515   22.6774  -27.4660 H   0  0  0  0  0  0  0  0  0  0  0  0
   -1.0660   22.9373  -29.1152 H   0  0  0  0  0  0  0  0  0  0  0  0
   -2.5492   24.9130  -27.3336 H   0  0  0  0  0  0  0  0  0  0  0  0
   -0.9211   25.0662  -28.0772 H   0  0  0  0  0  0  0  0  0  0  0  0
   -2.6560   24.5770  -30.0100 H   0  0  0  0  0  0  0  0  0  0  0  0
   -6.0335   19.4500  -31.7906 H   0  0  0  0  0  0  0  0  0  0  0  0
  1  2  1  0
  2  3  1  0
  3  4  2  0
  4  5  1  0
  5  6  2  0
  6  7  1  0
  7  8  2  0
  8  9  1  0
  9 10  1  0
  9 11  2  0
  8 12  1  0
 12 13  1  0
 13 14  2  0
 13 15  1  0
 15 16  2  0
 15 17  1  0
 17 18  1  0
 18 19  1  0
 19 20  1  0
 12 21  1  0
 21 22  2  0
 22  3  1  0
 21  6  1  0
  1 23  1  0
  1 24  1  0
  1 25  1  0
  2 26  1  0
  2 27  1  0
  4 28  1  0
  5 29  1  0
  7 30  1  0
 10 31  1  0
 10 32  1  0
 18 33  1  0
 18 34  1  0
 19 35  1  0
 19 36  1  0
 20 37  1  0
 22 38  1  0
M  END
>  <UniqueID>  (24) 
24

>  <SMILES>  (24) 
CCc1ccc2cc(C(N)=O)n(C(=O)C(=O)OCCO)c2c1

>  <Energy>  (24) 
70.25804982213751

>  <Genealogy>  (24) 
CCc1ccc2cc(C(N)=O)n(C(=O)C(=O)OCCO)c2c1 (3D coordinates assigned)
CCc1ccc2cc(C(N)=O)n(C(=O)C(=O)OCCO)c2c1 (optimized conformer: 70.25804982213751 kcal/mol)

>  <smiles>  (24) 
CCc1ccc2cc(C(N)=O)n(C(=O)C(=O)OCCO)c2c1

>  <score_type>  (24) 
oracle

>  <origin>  (24) 
adg

>  <m_score__min__energy>  (24) 
-8.3699999999999992

>  <m_primary>  (24) 
energy

$$$$
24:0
     RDKit          3D

 34 36  0  0  0  0  0  0  0  0999 V2000
   -6.0520   24.8810  -29.1740 N   0  0  0  0  0  0  0  0  0  0  0  0
   -6.4590   23.6590  -29.7890 C   0  0  0  0  0  0  0  0  0  0  0  0
   -7.6160   23.2140  -29.5660 O   0  0  0  0  0  0  0  0  0  0  0  0
   -5.5520   22.9380  -30.7100 C   0  0  0  0  0  0  0  0  0  0  0  0
   -5.9110   21.7820  -31.4040 C   0  0  0  0  0  0  0  0  0  0  0  0
   -4.7690   21.3800  -32.0590 C   0  0  0  0  0  0  0  0  0  0  0  0
   -4.5580   20.2930  -32.9010 C   0  0  0  0  0  0  0  0  0  0  0  0
   -3.2790   20.1340  -33.4620 C   0  0  0  0  0  0  0  0  0  0  0  0
   -2.2490   21.0600  -33.1750 C   0  0  0  0  0  0  0  0  0  0  0  0
   -0.9570   20.8940  -33.7610 N   0  0  0  0  0  0  0  0  0  0  0  0
   -0.3990   20.5610  -35.0880 C   0  0  0  0  0  0  0  0  0  0  0  0
    1.0440   20.6370  -34.6700 C   0  0  0  0  0  0  0  0  0  0  0  0
    1.7190   19.3970  -34.7010 O   0  0  0  0  0  0  0  0  0  0  0  0
    1.8280   21.7500  -35.3170 C   0  0  0  0  0  0  0  0  0  0  0  0
    2.9410   21.5090  -35.8550 O   0  0  0  0  0  0  0  0  0  0  0  0
    1.3340   23.0500  -35.3260 O   0  0  0  0  0  0  0  0  0  0  0  0
    0.4530   20.9810  -33.3300 C   0  0  0  0  0  0  0  0  0  0  0  0
   -2.4980   22.1500  -32.3160 C   0  0  0  0  0  0  0  0  0  0  0  0
   -3.7750   22.2770  -31.7580 C   0  0  0  0  0  0  0  0  0  0  0  0
   -4.2410   23.2390  -30.9300 N   0  0  0  0  0  0  0  0  0  0  0  0
   -3.5170   24.3860  -30.4520 C   0  0  0  0  0  0  0  0  0  0  0  0
   -2.5010   24.2390  -29.7210 O   0  0  0  0  0  0  0  0  0  0  0  0
   -3.9180   25.6680  -30.8060 O   0  0  0  0  0  0  0  0  0  0  0  0
   -5.0840   25.2530  -29.2920 H   0  0  0  0  0  0  0  0  0  0  0  0
   -6.7150   25.4020  -28.5570 H   0  0  0  0  0  0  0  0  0  0  0  0
   -6.8972   21.2952  -31.4236 H   0  0  0  0  0  0  0  0  0  0  0  0
   -5.3666   19.5803  -33.1209 H   0  0  0  0  0  0  0  0  0  0  0  0
   -3.0776   19.2830  -34.1293 H   0  0  0  0  0  0  0  0  0  0  0  0
   -0.6901   19.5578  -35.4327 H   0  0  0  0  0  0  0  0  0  0  0  0
   -0.7110   21.1870  -35.9370 H   0  0  0  0  0  0  0  0  0  0  0  0
    2.6080   19.5210  -35.1280 H   0  0  0  0  0  0  0  0  0  0  0  0
    0.7063   20.2461  -32.5517 H   0  0  0  0  0  0  0  0  0  0  0  0
    0.7793   21.9217  -32.8624 H   0  0  0  0  0  0  0  0  0  0  0  0
   -1.7085   22.8819  -32.0902 H   0  0  0  0  0  0  0  0  0  0  0  0
  1  2  1  0
  2  3  2  0
  2  4  1  0
  4  5  2  0
  5  6  1  0
  6  7  2  0
  7  8  1  0
  8  9  2  0
  9 10  1  0
 10 11  1  0
 11 12  1  0
 12 13  1  0
 12 14  1  0
 14 15  2  0
 14 16  1  0
 12 17  1  0
  9 18  1  0
 18 19  2  0
 19 20  1  0
 20 21  1  0
 21 22  2  0
 21 23  1  0
 20  4  1  0
 19  6  1  0
 17 10  1  0
  1 24  1  0
  1 25  1  0
  5 26  1  0
  7 27  1  0
  8 28  1  0
 11 29  1  0
 11 30  1  0
 13 31  1  0
 17 32  1  0
 17 33  1  0
 18 34  1  0
M  CHG  2  16  -1  23  -1
M  END
>  <UniqueID>  (25) 
25

>  <SMILES>  (25) 
NC(=O)c1cc2ccc(N3CC(O)(C(=O)[O-])C3)cc2n1C(=O)[O-]

>  <Energy>  (25) 
123.80232934093837

>  <Genealogy>  (25) 
NC(=O)c1cc2ccc(N3CC(O)(C(=O)[O-])C3)cc2n1C(=O)[O-] (protonated)
NC(=O)c1cc2ccc(N3CC(O)(C(=O)[O-])C3)cc2n1C(=O)[O-] (3D coordinates assigned)
NC(=O)c1cc2ccc(N3CC(O)(C(=O)[O-])C3)cc2n1C(=O)[O-] (nonaromatic ring conformer: 123.80232934093837 kcal/mol)

>  <smiles>  (25) 
NC(=O)c1cc2ccc(N3CC(O)(C(=O)O)C3)cc2n1C(=O)O

>  <score_type>  (25) 
oracle

>  <origin>  (25) 
adg

>  <m_score__min__energy>  (25) 
-8.8599999999999994

>  <m_primary>  (25) 
energy

$$$$
25:0
     RDKit          3D

 53 55  0  0  0  0  0  0  0  0999 V2000
   -2.1150   16.1720  -34.9500 C   0  0  0  0  0  0  0  0  0  0  0  0
   -3.6020   16.4330  -34.6560 C   0  0  2  0  0  0  0  0  0  0  0  0
   -3.7160   17.7080  -33.7940 C   0  0  0  0  0  0  0  0  0  0  0  0
   -5.1060   17.9640  -33.4030 N   0  0  0  0  0  0  0  0  0  0  0  0
   -5.5210   19.2950  -33.0240 C   0  0  0  0  0  0  0  0  0  0  0  0
   -6.7780   19.8030  -33.4490 C   0  0  0  0  0  0  0  0  0  0  0  0
   -7.1870   21.1000  -33.0970 C   0  0  0  0  0  0  0  0  0  0  0  0
   -6.3340   21.8610  -32.3070 C   0  0  0  0  0  0  0  0  0  0  0  0
   -6.4610   23.1590  -31.8630 C   0  0  0  0  0  0  0  0  0  0  0  0
   -5.2970   23.4140  -31.1420 C   0  0  0  0  0  0  0  0  0  0  0  0
   -5.0130   24.7020  -30.4760 C   0  0  0  0  0  0  0  0  0  0  0  0
   -3.6770   25.1030  -30.1720 N   0  0  0  0  0  0  0  0  0  0  0  0
   -5.9720   25.4440  -30.1310 O   0  0  0  0  0  0  0  0  0  0  0  0
   -4.4830   22.3230  -31.1400 N   0  0  0  0  0  0  0  0  0  0  0  0
   -3.1420   22.2410  -30.6340 C   0  0  0  0  0  0  0  0  0  0  0  0
   -2.1700   22.2960  -31.4350 O   0  0  0  0  0  0  0  0  0  0  0  0
   -2.8800   22.1290  -29.1920 C   0  0  0  0  0  0  0  0  0  0  0  0
   -2.7670   20.9920  -28.6580 O   0  0  0  0  0  0  0  0  0  0  0  0
   -2.7760   23.2910  -28.4190 O   0  0  0  0  0  0  0  0  0  0  0  0
   -1.5880   23.6660  -27.7250 C   0  0  0  0  0  0  0  0  0  0  0  0
   -0.7880   24.6300  -28.5420 C   0  0  0  0  0  0  0  0  0  0  0  0
    0.4630   24.5170  -28.6120 O   0  0  0  0  0  0  0  0  0  0  0  0
   -1.4290   25.6460  -29.2380 O   0  0  0  0  0  0  0  0  0  0  0  0
   -5.1290   21.3830  -31.8650 C   0  0  0  0  0  0  0  0  0  0  0  0
   -4.6810   20.1060  -32.2240 C   0  0  0  0  0  0  0  0  0  0  0  0
   -6.0770   16.8680  -33.4690 C   0  0  0  0  0  0  0  0  0  0  0  0
   -5.4020   15.5240  -33.1390 C   0  0  2  0  0  0  0  0  0  0  0  0
   -4.9950   15.4480  -31.6630 C   0  0  0  0  0  0  0  0  0  0  0  0
   -4.2130   15.2420  -33.9960 N   0  0  0  0  0  0  0  0  0  0  0  0
   -4.5330   14.1950  -34.9850 C   0  0  0  0  0  0  0  0  0  0  0  0
   -1.5653   16.0755  -34.0021 H   0  0  0  0  0  0  0  0  0  0  0  0
   -2.0134   15.2423  -35.5291 H   0  0  0  0  0  0  0  0  0  0  0  0
   -1.7029   17.0115  -35.5291 H   0  0  0  0  0  0  0  0  0  0  0  0
   -4.1598   16.5963  -35.5899 H   0  0  0  0  0  0  0  0  0  0  0  0
   -3.1058   17.5833  -32.8873 H   0  0  0  0  0  0  0  0  0  0  0  0
   -3.3595   18.5621  -34.3884 H   0  0  0  0  0  0  0  0  0  0  0  0
   -7.4394   19.1726  -34.0615 H   0  0  0  0  0  0  0  0  0  0  0  0
   -8.1534   21.5011  -33.4365 H   0  0  0  0  0  0  0  0  0  0  0  0
   -7.3013   23.8464  -32.0400 H   0  0  0  0  0  0  0  0  0  0  0  0
   -3.4950   26.0420  -29.7510 H   0  0  0  0  0  0  0  0  0  0  0  0
   -2.8770   24.4390  -30.2640 H   0  0  0  0  0  0  0  0  0  0  0  0
   -1.8604   24.1393  -26.7701 H   0  0  0  0  0  0  0  0  0  0  0  0
   -0.9828   22.7658  -27.5422 H   0  0  0  0  0  0  0  0  0  0  0  0
   -3.6979   19.7411  -31.8917 H   0  0  0  0  0  0  0  0  0  0  0  0
   -6.8830   17.0552  -32.7441 H   0  0  0  0  0  0  0  0  0  0  0  0
   -6.4859   16.8180  -34.4890 H   0  0  0  0  0  0  0  0  0  0  0  0
   -6.1588   14.7543  -33.3505 H   0  0  0  0  0  0  0  0  0  0  0  0
   -5.8792   15.6131  -31.0299 H   0  0  0  0  0  0  0  0  0  0  0  0
   -4.5717   14.4553  -31.4500 H   0  0  0  0  0  0  0  0  0  0  0  0
   -4.2420   16.2211  -31.4500 H   0  0  0  0  0  0  0  0  0  0  0  0
   -4.8157   13.2700  -34.4612 H   0  0  0  0  0  0  0  0  0  0  0  0
   -5.3699   14.5297  -35.6156 H   0  0  0  0  0  0  0  0  0  0  0  0
   -3.6520   14.0047  -35.6156 H   0  0  0  0  0  0  0  0  0  0  0  0
  1  2  1  0
  2  3  1  0
  3  4  1  0
  4  5  1  0
  5  6  2  0
  6  7  1  0
  7  8  2  0
  8  9  1  0
  9 10  2  0
 10 11  1  0
 11 12  1  0
 11 13  2  0
 10 14  1  0
 14 15  1  0
 15 16  2  0
 15 17  1  0
 17 18  2  0
 17 19  1  0
 19 20  1  0
 20 21  1  0
 21 22  2  0
 21 23  1  0
 14 24  1  0
 24 25  2  0
  4 26  1  0
 26 27  1  0
 27 28  1  0
 27 29  1  0
 29 30  1  0
 29  2  1  0
 25  5  1  0
 24  8  1  0
  1 31  1  0
  1 32  1  0
  1 33  1  0
  2 34  1  6
  3 35  1  0
  3 36  1  0
  6 37  1  0
  7 38  1  0
  9 39  1  0
 12 40  1  0
 12 41  1  0
 20 42  1  0
 20 43  1  0
 25 44  1  0
 26 45  1  0
 26 46  1  0
 27 47  1  1
 28 48  1  0
 28 49  1  0
 28 50  1  0
 30 51  1  0
 30 52  1  0
 30 53  1  0
M  CHG  1  23  -1
M  END
>  <UniqueID>  (26) 
26

>  <SMILES>  (26) 
C[C@@H]1CN(c2ccc3cc(C(N)=O)n(C(=O)C(=O)OCC(=O)[O-])c3c2)C[C@H](C)N1C

>  <Energy>  (26) 
99.3761728249717

>  <Genealogy>  (26) 
C[C@@H]1CN(c2ccc3cc(C(N)=O)n(C(=O)C(=O)OCC(=O)[O-])c3c2)C[C@H](C)N1C (protonated)
C[C@@H]1CN(c2ccc3cc(C(N)=O)n(C(=O)C(=O)OCC(=O)[O-])c3c2)C[C@H](C)N1C (3D coordinates assigned)
C[C@@H]1CN(c2ccc3cc(C(N)=O)n(C(=O)C(=O)OCC(=O)[O-])c3c2)C[C@H](C)N1C (nonaromatic ring conformer: 99.3761728249717 kcal/mol)

>  <smiles>  (26) 
C[C@@H]1CN(c2ccc3cc(C(N)=O)n(C(=O)C(=O)OCC(=O)O)c3c2)C[C@H](C)N1C

>  <score_type>  (26) 
oracle

>  <origin>  (26) 
adg

>  <m_score__min__energy>  (26) 
-11.470000000000001

>  <m_primary>  (26) 
energy

$$$$
26:0
     RDKit          3D

 37 38  0  0  0  0  0  0  0  0999 V2000
   -3.6490   19.4580  -33.8640 N   0  0  0  0  0  0  0  0  0  0  0  0
   -4.6840   18.5040  -34.0880 C   0  0  0  0  0  0  0  0  0  0  0  0
   -4.9760   18.1570  -35.2630 O   0  0  0  0  0  0  0  0  0  0  0  0
   -5.4510   17.9450  -32.9280 C   0  0  0  0  0  0  0  0  0  0  0  0
   -6.9320   18.3400  -32.9860 C   0  0  0  0  0  0  0  0  0  0  0  0
   -7.1570   19.7410  -32.4800 C   0  0  0  0  0  0  0  0  0  0  0  0
   -8.4690   20.2720  -32.4090 C   0  0  0  0  0  0  0  0  0  0  0  0
   -8.6880   21.5830  -31.9530 C   0  0  0  0  0  0  0  0  0  0  0  0
   -7.5780   22.3420  -31.5940 C   0  0  0  0  0  0  0  0  0  0  0  0
   -7.5080   23.6230  -31.0960 C   0  0  0  0  0  0  0  0  0  0  0  0
   -6.1500   23.8710  -30.9120 C   0  0  0  0  0  0  0  0  0  0  0  0
   -5.6180   25.1670  -30.4480 C   0  0  0  0  0  0  0  0  0  0  0  0
   -4.2390   25.5020  -30.6130 N   0  0  0  0  0  0  0  0  0  0  0  0
   -6.4040   26.0150  -29.9480 O   0  0  0  0  0  0  0  0  0  0  0  0
   -5.4090   22.7830  -31.2650 N   0  0  0  0  0  0  0  0  0  0  0  0
   -3.9900   22.6080  -31.1270 C   0  0  0  0  0  0  0  0  0  0  0  0
   -3.3290   22.0560  -32.0500 O   0  0  0  0  0  0  0  0  0  0  0  0
   -3.3430   23.0520  -29.9700 O   0  0  0  0  0  0  0  0  0  0  0  0
   -1.9360   22.9550  -29.7870 C   0  0  0  0  0  0  0  0  0  0  0  0
   -1.4110   24.2710  -29.3210 C   0  0  0  0  0  0  0  0  0  0  0  0
   -2.1520   25.2880  -29.3290 O   0  0  0  0  0  0  0  0  0  0  0  0
   -0.0860   24.3880  -28.9230 O   0  0  0  0  0  0  0  0  0  0  0  0
   -6.2990   21.8540  -31.6840 C   0  0  0  0  0  0  0  0  0  0  0  0
   -6.0540   20.5430  -32.1110 C   0  0  0  0  0  0  0  0  0  0  0  0
   -3.8030   20.2780  -33.2390 H   0  0  0  0  0  0  0  0  0  0  0  0
   -5.3735   16.8479  -32.9445 H   0  0  0  0  0  0  0  0  0  0  0  0
   -5.0218   18.3559  -32.0023 H   0  0  0  0  0  0  0  0  0  0  0  0
   -7.2765   18.2784  -34.0288 H   0  0  0  0  0  0  0  0  0  0  0  0
   -7.4959   17.6490  -32.3422 H   0  0  0  0  0  0  0  0  0  0  0  0
   -9.3246   19.6516  -32.7139 H   0  0  0  0  0  0  0  0  0  0  0  0
   -9.7049   21.9964  -31.8820 H   0  0  0  0  0  0  0  0  0  0  0  0
   -8.3455   24.3051  -30.8878 H   0  0  0  0  0  0  0  0  0  0  0  0
   -3.6000   24.8960  -31.1730 H   0  0  0  0  0  0  0  0  0  0  0  0
   -3.8730   26.4090  -30.2460 H   0  0  0  0  0  0  0  0  0  0  0  0
   -1.7150   22.1833  -29.0349 H   0  0  0  0  0  0  0  0  0  0  0  0
   -1.4571   22.6818  -30.7389 H   0  0  0  0  0  0  0  0  0  0  0  0
   -5.0286   20.1476  -32.1579 H   0  0  0  0  0  0  0  0  0  0  0  0
  1  2  1  0
  2  3  2  0
  2  4  1  0
  4  5  1  0
  5  6  1  0
  6  7  2  0
  7  8  1  0
  8  9  2  0
  9 10  1  0
 10 11  2  0
 11 12  1  0
 12 13  1  0
 12 14  2  0
 11 15  1  0
 15 16  1  0
 16 17  2  0
 16 18  1  0
 18 19  1  0
 19 20  1  0
 20 21  2  0
 20 22  1  0
 15 23  1  0
 23 24  2  0
 24  6  1  0
 23  9  1  0
  1 25  1  0
  4 26  1  0
  4 27  1  0
  5 28  1  0
  5 29  1  0
  7 30  1  0
  8 31  1  0
 10 32  1  0
 13 33  1  0
 13 34  1  0
 19 35  1  0
 19 36  1  0
 24 37  1  0
M  CHG  2   1  -1  22  -1
M  END
>  <UniqueID>  (27) 
27

>  <SMILES>  (27) 
[NH-]C(=O)CCc1ccc2cc(C(N)=O)n(C(=O)OCC(=O)[O-])c2c1

>  <Energy>  (27) 
68.86722772876472

>  <Genealogy>  (27) 
[NH-]C(=O)CCc1ccc2cc(C(N)=O)n(C(=O)OCC(=O)[O-])c2c1 (protonated)
[NH-]C(=O)CCc1ccc2cc(C(N)=O)n(C(=O)OCC(=O)[O-])c2c1 (3D coordinates assigned)
[NH-]C(=O)CCc1ccc2cc(C(N)=O)n(C(=O)OCC(=O)[O-])c2c1 (optimized conformer: 68.86722772876472 kcal/mol)

>  <smiles>  (27) 
NC(=O)CCc1ccc2cc(C(N)=O)n(C(=O)OCC(=O)O)c2c1

>  <score_type>  (27) 
oracle

>  <origin>  (27) 
adg

>  <m_score__min__energy>  (27) 
-11.08

>  <m_primary>  (27) 
energy

$$$$
27:0
     RDKit          3D

 30 31  0  0  0  0  0  0  0  0999 V2000
   -3.8870   25.6270  -30.8430 N   0  0  0  0  0  0  0  0  0  0  0  0
   -5.2500   25.3360  -30.5460 C   0  0  0  0  0  0  0  0  0  0  0  0
   -5.9230   26.1600  -29.8700 O   0  0  0  0  0  0  0  0  0  0  0  0
   -5.8650   24.0610  -30.9690 C   0  0  0  0  0  0  0  0  0  0  0  0
   -7.2130   23.9330  -31.2970 C   0  0  0  0  0  0  0  0  0  0  0  0
   -7.4020   22.5930  -31.5440 C   0  0  0  0  0  0  0  0  0  0  0  0
   -8.5550   21.9050  -31.9120 C   0  0  0  0  0  0  0  0  0  0  0  0
   -8.4560   20.5210  -32.1240 C   0  0  0  0  0  0  0  0  0  0  0  0
   -7.2110   19.8530  -31.9930 C   0  0  0  0  0  0  0  0  0  0  0  0
   -7.1260   18.3600  -32.1870 C   0  0  0  0  0  0  0  0  0  0  0  0
   -8.3750   17.8030  -31.9880 F   0  0  0  0  0  0  0  0  0  0  0  0
   -6.2340   17.8000  -31.2890 F   0  0  0  0  0  0  0  0  0  0  0  0
   -6.6950   18.0580  -33.4670 F   0  0  0  0  0  0  0  0  0  0  0  0
   -6.0670   20.5840  -31.5940 C   0  0  0  0  0  0  0  0  0  0  0  0
   -6.1990   21.9600  -31.3710 C   0  0  0  0  0  0  0  0  0  0  0  0
   -5.2430   22.8490  -31.0190 N   0  0  0  0  0  0  0  0  0  0  0  0
   -3.8450   22.5760  -30.8430 C   0  0  0  0  0  0  0  0  0  0  0  0
   -3.0050   23.0340  -31.6660 O   0  0  0  0  0  0  0  0  0  0  0  0
   -3.4170   21.8210  -29.7470 O   0  0  0  0  0  0  0  0  0  0  0  0
   -2.6320   22.3690  -28.6940 C   0  0  0  0  0  0  0  0  0  0  0  0
   -2.5420   23.8110  -28.8620 N   0  0  0  0  0  0  0  0  0  0  0  0
   -3.4030   24.5520  -28.3450 O   0  0  0  0  0  0  0  0  0  0  0  0
   -1.3820   24.3660  -29.3510 O   0  0  0  0  0  0  0  0  0  0  0  0
   -3.1190   25.0070  -30.5020 H   0  0  0  0  0  0  0  0  0  0  0  0
   -7.9660   24.7333  -31.3477 H   0  0  0  0  0  0  0  0  0  0  0  0
   -9.5141   22.4299  -32.0329 H   0  0  0  0  0  0  0  0  0  0  0  0
   -9.3545   19.9472  -32.3950 H   0  0  0  0  0  0  0  0  0  0  0  0
   -5.0967   20.0830  -31.4621 H   0  0  0  0  0  0  0  0  0  0  0  0
   -3.1036   22.1404  -27.7269 H   0  0  0  0  0  0  0  0  0  0  0  0
   -1.6232   21.9312  -28.7202 H   0  0  0  0  0  0  0  0  0  0  0  0
  1  2  1  0
  2  3  2  0
  2  4  1  0
  4  5  2  0
  5  6  1  0
  6  7  2  0
  7  8  1  0
  8  9  2  0
  9 10  1  0
 10 11  1  0
 10 12  1  0
 10 13  1  0
  9 14  1  0
 14 15  2  0
 15 16  1  0
 16 17  1  0
 17 18  2  0
 17 19  1  0
 19 20  1  0
 20 21  1  0
 21 22  2  0
 21 23  1  0
 16  4  1  0
 15  6  1  0
  1 24  1  0
  5 25  1  0
  7 26  1  0
  8 27  1  0
 14 28  1  0
 20 29  1  0
 20 30  1  0
M  CHG  3   1  -1  21   1  23  -1
M  END
>  <UniqueID>  (28) 
28

>  <SMILES>  (28) 
[NH-]C(=O)c1cc2ccc(C(F)(F)F)cc2n1C(=O)OC[N+](=O)[O-]

>  <Energy>  (28) 
67.221432564103

>  <Genealogy>  (28) 
[NH-]C(=O)c1cc2ccc(C(F)(F)F)cc2n1C(=O)OC[N+](=O)[O-] (protonated)
[NH-]C(=O)c1cc2ccc(C(F)(F)F)cc2n1C(=O)OC[N+](=O)[O-] (3D coordinates assigned)
[NH-]C(=O)c1cc2ccc(C(F)(F)F)cc2n1C(=O)OC[N+](=O)[O-] (optimized conformer: 67.221432564103 kcal/mol)

>  <smiles>  (28) 
NC(=O)c1cc2ccc(C(F)(F)F)cc2n1C(=O)OC[N+](=O)[O-]

>  <score_type>  (28) 
oracle

>  <origin>  (28) 
adg

>  <m_score__min__energy>  (28) 
-10.039999999999999

>  <m_primary>  (28) 
energy

$$$$
28:0
     RDKit          3D

 44 46  0  0  0  0  0  0  0  0999 V2000
   -0.3100   21.6050  -30.9120 C   0  0  0  0  0  0  0  0  0  0  0  0
   -0.9280   22.3110  -30.1550 C   0  0  0  0  0  0  0  0  0  0  0  0
   -1.6850   23.1700  -29.2340 C   0  0  2  0  0  0  0  0  0  0  0  0
   -3.0380   23.3860  -29.7510 N   0  0  0  0  0  0  0  0  0  0  0  0
   -3.9400   22.3000  -30.0100 C   0  0  0  0  0  0  0  0  0  0  0  0
   -3.6200   21.1220  -29.6940 O   0  0  0  0  0  0  0  0  0  0  0  0
   -5.2260   22.5540  -30.5950 N   0  0  0  0  0  0  0  0  0  0  0  0
   -5.9630   23.6980  -30.5310 C   0  0  0  0  0  0  0  0  0  0  0  0
   -5.5180   24.9820  -29.9510 C   0  0  0  0  0  0  0  0  0  0  0  0
   -4.3790   25.6490  -30.4910 N   0  0  0  0  0  0  0  0  0  0  0  0
   -6.1150   25.4830  -28.9610 O   0  0  0  0  0  0  0  0  0  0  0  0
   -7.1890   23.5250  -31.1720 C   0  0  0  0  0  0  0  0  0  0  0  0
   -7.1740   22.2310  -31.6430 C   0  0  0  0  0  0  0  0  0  0  0  0
   -8.1420   21.5220  -32.3460 C   0  0  0  0  0  0  0  0  0  0  0  0
   -7.8660   20.1850  -32.6810 C   0  0  0  0  0  0  0  0  0  0  0  0
   -6.6340   19.5840  -32.3140 C   0  0  0  0  0  0  0  0  0  0  0  0
   -6.3700   18.2070  -32.6430 N   0  0  0  0  0  0  0  0  0  0  0  0
   -5.9970   17.2540  -31.5910 C   0  0  0  0  0  0  0  0  0  0  0  0
   -5.3640   15.9940  -32.2000 C   0  0  0  0  0  0  0  0  0  0  0  0
   -4.4790   16.3530  -33.3170 N   0  0  0  0  0  0  0  0  0  0  0  0
   -5.2090   16.9690  -34.4440 C   0  0  0  0  0  0  0  0  0  0  0  0
   -6.4880   17.7210  -34.0240 C   0  0  0  0  0  0  0  0  0  0  0  0
   -5.6800   20.3380  -31.5920 C   0  0  0  0  0  0  0  0  0  0  0  0
   -5.9780   21.6690  -31.2830 C   0  0  0  0  0  0  0  0  0  0  0  0
   -0.9700   24.4800  -29.0700 C   0  0  0  0  0  0  0  0  0  0  0  0
    0.2270   24.5030  -28.6780 O   0  0  0  0  0  0  0  0  0  0  0  0
   -1.6250   25.6760  -29.3430 O   0  0  0  0  0  0  0  0  0  0  0  0
    0.2539   20.9608  -31.6027 H   0  0  0  0  0  0  0  0  0  0  0  0
   -1.7611   22.6791  -28.2525 H   0  0  0  0  0  0  0  0  0  0  0  0
   -3.3830   24.3590  -29.9180 H   0  0  0  0  0  0  0  0  0  0  0  0
   -3.4800   25.6890  -29.9610 H   0  0  0  0  0  0  0  0  0  0  0  0
   -7.9963   24.2645  -31.2788 H   0  0  0  0  0  0  0  0  0  0  0  0
   -9.0943   21.9929  -32.6311 H   0  0  0  0  0  0  0  0  0  0  0  0
   -8.6138   19.5977  -33.2341 H   0  0  0  0  0  0  0  0  0  0  0  0
   -5.2736   17.7298  -30.9126 H   0  0  0  0  0  0  0  0  0  0  0  0
   -6.9032   16.9634  -31.0393 H   0  0  0  0  0  0  0  0  0  0  0  0
   -4.7794   15.4728  -31.4277 H   0  0  0  0  0  0  0  0  0  0  0  0
   -6.1640   15.3390  -32.5754 H   0  0  0  0  0  0  0  0  0  0  0  0
   -3.7620   17.0310  -32.9660 H   0  0  0  0  0  0  0  0  0  0  0  0
   -4.5366   17.6817  -34.9439 H   0  0  0  0  0  0  0  0  0  0  0  0
   -5.5238   16.1492  -35.1065 H   0  0  0  0  0  0  0  0  0  0  0  0
   -6.6417   18.5774  -34.6971 H   0  0  0  0  0  0  0  0  0  0  0  0
   -7.3425   17.0311  -34.0861 H   0  0  0  0  0  0  0  0  0  0  0  0
   -4.7257   19.8880  -31.2807 H   0  0  0  0  0  0  0  0  0  0  0  0
  1  2  3  0
  2  3  1  0
  3  4  1  0
  4  5  1  0
  5  6  2  0
  5  7  1  0
  7  8  1  0
  8  9  1  0
  9 10  1  0
  9 11  2  0
  8 12  2  0
 12 13  1  0
 13 14  2  0
 14 15  1  0
 15 16  2  0
 16 17  1  0
 17 18  1  0
 18 19  1  0
 19 20  1  0
 20 21  1  0
 21 22  1  0
 16 23  1  0
 23 24  2  0
  3 25  1  0
 25 26  2  0
 25 27  1  0
 24  7  1  0
 24 13  1  0
 22 17  1  0
  1 28  1  0
  3 29  1  1
  4 30  1  0
 10 31  1  0
 12 32  1  0
 14 33  1  0
 15 34  1  0
 18 35  1  0
 18 36  1  0
 19 37  1  0
 19 38  1  0
 20 39  1  0
 21 40  1  0
 21 41  1  0
 22 42  1  0
 22 43  1  0
 23 44  1  0
M  CHG  2  10  -1  27  -1
M  END
>  <UniqueID>  (29) 
29

>  <SMILES>  (29) 
C#C[C@H](NC(=O)n1c(C([NH-])=O)cc2ccc(N3CCNCC3)cc21)C(=O)[O-]

>  <Energy>  (29) 
88.20109861137502

>  <Genealogy>  (29) 
C#C[C@H](NC(=O)n1c(C([NH-])=O)cc2ccc(N3CCNCC3)cc21)C(=O)[O-] (protonated)
C#C[C@H](NC(=O)n1c(C([NH-])=O)cc2ccc(N3CCNCC3)cc21)C(=O)[O-] (3D coordinates assigned)
C#C[C@H](NC(=O)n1c(C([NH-])=O)cc2ccc(N3CCNCC3)cc21)C(=O)[O-] (nonaromatic ring conformer: 88.20109861137502 kcal/mol)

>  <smiles>  (29) 
C#C[C@H](NC(=O)n1c(C(N)=O)cc2ccc(N3CCNCC3)cc21)C(=O)O

>  <score_type>  (29) 
oracle

>  <origin>  (29) 
adg

>  <m_score__min__energy>  (29) 
-12.69

>  <m_primary>  (29) 
energy

$$$$
29:0
     RDKit          3D

 36 37  0  0  0  0  0  0  0  0999 V2000
   -0.9270   22.2300  -30.4130 C   0  0  0  0  0  0  0  0  0  0  0  0
   -1.8330   23.1680  -29.5910 C   0  0  0  0  0  0  0  0  0  0  0  0
   -2.3460   22.4630  -28.3220 C   0  0  0  0  0  0  0  0  0  0  0  0
   -2.9330   23.6250  -30.3940 O   0  0  0  0  0  0  0  0  0  0  0  0
   -3.6190   22.8870  -31.3700 C   0  0  0  0  0  0  0  0  0  0  0  0
   -2.9950   22.2760  -32.2800 O   0  0  0  0  0  0  0  0  0  0  0  0
   -5.0540   22.8470  -31.3440 N   0  0  0  0  0  0  0  0  0  0  0  0
   -5.9060   23.8510  -30.9920 C   0  0  0  0  0  0  0  0  0  0  0  0
   -5.5230   25.1430  -30.3880 C   0  0  0  0  0  0  0  0  0  0  0  0
   -4.2400   25.7150  -30.6330 N   0  0  0  0  0  0  0  0  0  0  0  0
   -6.3190   25.7280  -29.6060 O   0  0  0  0  0  0  0  0  0  0  0  0
   -7.2290   23.4670  -31.2040 C   0  0  0  0  0  0  0  0  0  0  0  0
   -7.1600   22.1840  -31.6950 C   0  0  0  0  0  0  0  0  0  0  0  0
   -8.1800   21.3190  -32.0810 C   0  0  0  0  0  0  0  0  0  0  0  0
   -7.8200   20.0560  -32.5780 C   0  0  0  0  0  0  0  0  0  0  0  0
   -6.4540   19.6880  -32.7060 C   0  0  0  0  0  0  0  0  0  0  0  0
   -6.0820   18.3160  -33.2060 C   0  0  0  0  0  0  0  0  0  0  0  0
   -5.5600   18.3860  -34.4850 F   0  0  0  0  0  0  0  0  0  0  0  0
   -7.2100   17.5160  -33.2220 F   0  0  0  0  0  0  0  0  0  0  0  0
   -5.1320   17.7380  -32.3820 F   0  0  0  0  0  0  0  0  0  0  0  0
   -5.4490   20.5880  -32.2800 C   0  0  0  0  0  0  0  0  0  0  0  0
   -5.8380   21.8330  -31.7720 C   0  0  0  0  0  0  0  0  0  0  0  0
   -1.0330   24.3810  -29.1760 C   0  0  0  0  0  0  0  0  0  0  0  0
    0.1120   24.2490  -28.6660 O   0  0  0  0  0  0  0  0  0  0  0  0
   -1.5620   25.6580  -29.3310 O   0  0  0  0  0  0  0  0  0  0  0  0
   -0.3273   21.6091  -29.7312 H   0  0  0  0  0  0  0  0  0  0  0  0
   -1.5496   21.5818  -31.0472 H   0  0  0  0  0  0  0  0  0  0  0  0
   -0.2576   22.8297  -31.0472 H   0  0  0  0  0  0  0  0  0  0  0  0
   -1.9652   22.9863  -27.4325 H   0  0  0  0  0  0  0  0  0  0  0  0
   -3.4459   22.4780  -28.3134 H   0  0  0  0  0  0  0  0  0  0  0  0
   -1.9934   21.4211  -28.3134 H   0  0  0  0  0  0  0  0  0  0  0  0
   -3.4880   25.6800  -29.9100 H   0  0  0  0  0  0  0  0  0  0  0  0
   -8.1349   24.0628  -31.0183 H   0  0  0  0  0  0  0  0  0  0  0  0
   -9.2360   21.6158  -31.9992 H   0  0  0  0  0  0  0  0  0  0  0  0
   -8.6048   19.3434  -32.8716 H   0  0  0  0  0  0  0  0  0  0  0  0
   -4.3854   20.3154  -32.3465 H   0  0  0  0  0  0  0  0  0  0  0  0
  1  2  1  0
  2  3  1  0
  2  4  1  0
  4  5  1  0
  5  6  2  0
  5  7  1  0
  7  8  1  0
  8  9  1  0
  9 10  1  0
  9 11  2  0
  8 12  2  0
 12 13  1  0
 13 14  2  0
 14 15  1  0
 15 16  2  0
 16 17  1  0
 17 18  1  0
 17 19  1  0
 17 20  1  0
 16 21  1  0
 21 22  2  0
  2 23  1  0
 23 24  2  0
 23 25  1  0
 22  7  1  0
 22 13  1  0
  1 26  1  0
  1 27  1  0
  1 28  1  0
  3 29  1  0
  3 30  1  0
  3 31  1  0
 10 32  1  0
 12 33  1  0
 14 34  1  0
 15 35  1  0
 21 36  1  0
M  CHG  2  10  -1  25  -1
M  END
>  <UniqueID>  (30) 
30

>  <SMILES>  (30) 
CC(C)(OC(=O)n1c(C([NH-])=O)cc2ccc(C(F)(F)F)cc21)C(=O)[O-]

>  <Energy>  (30) 
73.82654714740123

>  <Genealogy>  (30) 
CC(C)(OC(=O)n1c(C([NH-])=O)cc2ccc(C(F)(F)F)cc21)C(=O)[O-] (protonated)
CC(C)(OC(=O)n1c(C([NH-])=O)cc2ccc(C(F)(F)F)cc21)C(=O)[O-] (3D coordinates assigned)
CC(C)(OC(=O)n1c(C([NH-])=O)cc2ccc(C(F)(F)F)cc21)C(=O)[O-] (optimized conformer: 73.82654714740123 kcal/mol)

>  <smiles>  (30) 
CC(C)(OC(=O)n1c(C(N)=O)cc2ccc(C(F)(F)F)cc21)C(=O)O

>  <score_type>  (30) 
oracle

>  <origin>  (30) 
adg

>  <m_score__min__energy>  (30) 
-12.51

>  <m_primary>  (30) 
energy

$$$$
30:0
     RDKit          3D

 41 43  0  0  0  0  0  0  0  0999 V2000
   -9.4110   21.3070  -31.1260 C   0  0  0  0  0  0  0  0  0  0  0  0
   -8.3300   20.4620  -31.7150 C   0  0  0  0  0  0  0  0  0  0  0  0
   -8.2320   19.0830  -31.6280 C   0  0  0  0  0  0  0  0  0  0  0  0
   -7.1110   18.7790  -32.3740 C   0  0  0  0  0  0  0  0  0  0  0  0
   -6.5970   17.5390  -32.5640 F   0  0  0  0  0  0  0  0  0  0  0  0
   -6.5960   19.9120  -32.8890 N   0  0  0  0  0  0  0  0  0  0  0  0
   -5.3780   20.0320  -33.6850 C   0  0  0  0  0  0  0  0  0  0  0  0
   -4.2480   20.5080  -32.8170 C   0  0  0  0  0  0  0  0  0  0  0  0
   -3.0640   19.7380  -32.7060 C   0  0  0  0  0  0  0  0  0  0  0  0
   -1.9900   20.1860  -31.9190 C   0  0  0  0  0  0  0  0  0  0  0  0
   -2.1220   21.4130  -31.2740 C   0  0  0  0  0  0  0  0  0  0  0  0
   -1.2510   22.0700  -30.4360 C   0  0  0  0  0  0  0  0  0  0  0  0
   -1.8980   23.2510  -30.0810 C   0  0  0  0  0  0  0  0  0  0  0  0
   -1.2760   24.3020  -29.2510 C   0  0  0  0  0  0  0  0  0  0  0  0
   -1.9640   25.5160  -28.9660 N   0  0  0  0  0  0  0  0  0  0  0  0
   -0.0990   24.1470  -28.8270 O   0  0  0  0  0  0  0  0  0  0  0  0
   -3.1270   23.3180  -30.6680 N   0  0  0  0  0  0  0  0  0  0  0  0
   -4.1350   24.3230  -30.4800 C   0  0  0  0  0  0  0  0  0  0  0  0
   -4.0040   25.4560  -31.0180 O   0  0  0  0  0  0  0  0  0  0  0  0
   -5.2680   24.0330  -29.7140 O   0  0  0  0  0  0  0  0  0  0  0  0
   -6.2630   23.1070  -30.1330 C   0  0  0  0  0  0  0  0  0  0  0  0
   -6.8290   23.5520  -31.4390 C   0  0  0  0  0  0  0  0  0  0  0  0
   -8.0760   23.6290  -31.5950 O   0  0  0  0  0  0  0  0  0  0  0  0
   -5.9840   23.8280  -32.5060 O   0  0  0  0  0  0  0  0  0  0  0  0
   -3.2480   22.1850  -31.3970 C   0  0  0  0  0  0  0  0  0  0  0  0
   -4.3410   21.7540  -32.1580 C   0  0  0  0  0  0  0  0  0  0  0  0
   -7.3320   20.9350  -32.4870 N   0  0  0  0  0  0  0  0  0  0  0  0
   -9.3541   21.2626  -30.0284 H   0  0  0  0  0  0  0  0  0  0  0  0
   -9.2845   22.3481  -31.4579 H   0  0  0  0  0  0  0  0  0  0  0  0
  -10.3907   20.9329  -31.4579 H   0  0  0  0  0  0  0  0  0  0  0  0
   -8.8946   18.3900  -31.0888 H   0  0  0  0  0  0  0  0  0  0  0  0
   -5.1225   19.0509  -34.1118 H   0  0  0  0  0  0  0  0  0  0  0  0
   -5.5437   20.7569  -34.4956 H   0  0  0  0  0  0  0  0  0  0  0  0
   -2.9849   18.7802  -33.2412 H   0  0  0  0  0  0  0  0  0  0  0  0
   -1.0736   19.5864  -31.8156 H   0  0  0  0  0  0  0  0  0  0  0  0
   -0.2543   21.7336  -30.1144 H   0  0  0  0  0  0  0  0  0  0  0  0
   -2.9340   25.6800  -29.3170 H   0  0  0  0  0  0  0  0  0  0  0  0
   -5.8126   22.1101  -30.2479 H   0  0  0  0  0  0  0  0  0  0  0  0
   -7.0638   23.0597  -29.3804 H   0  0  0  0  0  0  0  0  0  0  0  0
   -5.2488   22.3697  -32.2407 H   0  0  0  0  0  0  0  0  0  0  0  0
   -7.1530   21.9350  -32.7330 H   0  0  0  0  0  0  0  0  0  0  0  0
  1  2  1  0
  2  3  1  0
  3  4  2  0
  4  5  1  0
  4  6  1  0
  6  7  1  0
  7  8  1  0
  8  9  2  0
  9 10  1  0
 10 11  2  0
 11 12  1  0
 12 13  2  0
 13 14  1  0
 14 15  1  0
 14 16  2  0
 13 17  1  0
 17 18  1  0
 18 19  2  0
 18 20  1  0
 20 21  1  0
 21 22  1  0
 22 23  2  0
 22 24  1  0
 17 25  1  0
 25 26  2  0
  6 27  1  0
 27  2  2  0
 26  8  1  0
 25 11  1  0
  1 28  1  0
  1 29  1  0
  1 30  1  0
  3 31  1  0
  7 32  1  0
  7 33  1  0
  9 34  1  0
 10 35  1  0
 12 36  1  0
 15 37  1  0
 21 38  1  0
 21 39  1  0
 26 40  1  0
 27 41  1  0
M  CHG  3  15  -1  24  -1  27   1
M  END
>  <UniqueID>  (31) 
31

>  <SMILES>  (31) 
Cc1cc(F)n(Cc2ccc3cc(C([NH-])=O)n(C(=O)OCC(=O)[O-])c3c2)[nH+]1

>  <Energy>  (31) 
107.03029644238433

>  <Genealogy>  (31) 
Cc1cc(F)n(Cc2ccc3cc(C([NH-])=O)n(C(=O)OCC(=O)[O-])c3c2)[nH+]1 (protonated)
Cc1cc(F)n(Cc2ccc3cc(C([NH-])=O)n(C(=O)OCC(=O)[O-])c3c2)[nH+]1 (3D coordinates assigned)
Cc1cc(F)n(Cc2ccc3cc(C([NH-])=O)n(C(=O)OCC(=O)[O-])c3c2)[nH+]1 (optimized conformer: 107.03029644238433 kcal/mol)

>  <smiles>  (31) 
Cc1cc(F)n(Cc2ccc3cc(C(N)=O)n(C(=O)OCC(=O)O)c3c2)n1

>  <score_type>  (31) 
oracle

>  <origin>  (31) 
adg

>  <m_score__min__energy>  (31) 
-12.359999999999999

>  <m_primary>  (31) 
energy

$$$$
31:0
     RDKit          3D

 36 38  0  0  0  0  0  0  0  0999 V2000
   -3.8750   25.6280  -30.8400 N   0  0  0  0  0  0  0  0  0  0  0  0
   -5.2120   25.2980  -30.4690 C   0  0  0  0  0  0  0  0  0  0  0  0
   -5.8760   26.1080  -29.7700 O   0  0  0  0  0  0  0  0  0  0  0  0
   -5.7880   23.9990  -30.8730 C   0  0  0  0  0  0  0  0  0  0  0  0
   -7.1300   23.8200  -31.2010 C   0  0  0  0  0  0  0  0  0  0  0  0
   -7.2370   22.5050  -31.5930 C   0  0  0  0  0  0  0  0  0  0  0  0
   -8.3550   21.7810  -31.9980 C   0  0  0  0  0  0  0  0  0  0  0  0
   -8.1820   20.4210  -32.3030 C   0  0  0  0  0  0  0  0  0  0  0  0
   -6.9030   19.8120  -32.2120 C   0  0  0  0  0  0  0  0  0  0  0  0
   -6.7440   18.3380  -32.4810 C   0  0  0  0  0  0  0  0  0  0  0  0
   -7.9730   17.7160  -32.3580 F   0  0  0  0  0  0  0  0  0  0  0  0
   -6.2560   18.1230  -33.7580 F   0  0  0  0  0  0  0  0  0  0  0  0
   -5.8600   17.7700  -31.5790 F   0  0  0  0  0  0  0  0  0  0  0  0
   -5.7980   20.5780  -31.7730 C   0  0  0  0  0  0  0  0  0  0  0  0
   -5.9960   21.9350  -31.4930 C   0  0  0  0  0  0  0  0  0  0  0  0
   -5.0940   22.8390  -31.0510 N   0  0  0  0  0  0  0  0  0  0  0  0
   -3.7140   22.5840  -30.7500 C   0  0  0  0  0  0  0  0  0  0  0  0
   -2.8130   23.0570  -31.4930 O   0  0  0  0  0  0  0  0  0  0  0  0
   -3.3810   21.7990  -29.6390 O   0  0  0  0  0  0  0  0  0  0  0  0
   -3.8420   22.0550  -28.3120 C   0  0  0  0  0  0  0  0  0  0  0  0
   -2.9740   23.1240  -27.6420 C   0  0  1  0  0  0  0  0  0  0  0  0
   -1.4810   22.7110  -27.4870 C   0  0  0  0  0  0  0  0  0  0  0  0
   -0.7480   23.7500  -28.1200 O   0  0  0  0  0  0  0  0  0  0  0  0
   -1.6320   24.6420  -28.6760 C   0  0  0  0  0  0  0  0  0  0  0  0
   -1.2820   25.6580  -29.3310 O   0  0  0  0  0  0  0  0  0  0  0  0
   -2.9420   24.3010  -28.4410 O   0  0  0  0  0  0  0  0  0  0  0  0
   -3.0660   25.0830  -30.4680 H   0  0  0  0  0  0  0  0  0  0  0  0
   -7.9333   24.5701  -31.1562 H   0  0  0  0  0  0  0  0  0  0  0  0
   -9.3426   22.2590  -32.0766 H   0  0  0  0  0  0  0  0  0  0  0  0
   -9.0485   19.8202  -32.6163 H   0  0  0  0  0  0  0  0  0  0  0  0
   -4.8059   20.1179  -31.6544 H   0  0  0  0  0  0  0  0  0  0  0  0
   -4.8836   22.4065  -28.3517 H   0  0  0  0  0  0  0  0  0  0  0  0
   -3.7786   21.1257  -27.7268 H   0  0  0  0  0  0  0  0  0  0  0  0
   -3.4303   23.2738  -26.6524 H   0  0  0  0  0  0  0  0  0  0  0  0
   -1.2081   22.6368  -26.4240 H   0  0  0  0  0  0  0  0  0  0  0  0
   -1.2746   21.7269  -27.9330 H   0  0  0  0  0  0  0  0  0  0  0  0
  1  2  1  0
  2  3  2  0
  2  4  1  0
  4  5  2  0
  5  6  1  0
  6  7  2  0
  7  8  1  0
  8  9  2  0
  9 10  1  0
 10 11  1  0
 10 12  1  0
 10 13  1  0
  9 14  1  0
 14 15  2  0
 15 16  1  0
 16 17  1  0
 17 18  2  0
 17 19  1  0
 19 20  1  0
 20 21  1  0
 21 22  1  0
 22 23  1  0
 23 24  1  0
 24 25  2  0
 24 26  1  0
 16  4  1  0
 26 21  1  0
 15  6  1  0
  1 27  1  0
  5 28  1  0
  7 29  1  0
  8 30  1  0
 14 31  1  0
 20 32  1  0
 20 33  1  0
 21 34  1  1
 22 35  1  0
 22 36  1  0
M  CHG  1   1  -1
M  END
>  <UniqueID>  (32) 
32

>  <SMILES>  (32) 
[NH-]C(=O)c1cc2ccc(C(F)(F)F)cc2n1C(=O)OC[C@H]1COC(=O)O1

>  <Energy>  (32) 
91.81587780803459

>  <Genealogy>  (32) 
[NH-]C(=O)c1cc2ccc(C(F)(F)F)cc2n1C(=O)OC[C@H]1COC(=O)O1 (protonated)
[NH-]C(=O)c1cc2ccc(C(F)(F)F)cc2n1C(=O)OC[C@H]1COC(=O)O1 (3D coordinates assigned)
[NH-]C(=O)c1cc2ccc(C(F)(F)F)cc2n1C(=O)OC[C@H]1COC(=O)O1 (nonaromatic ring conformer: 91.81587780803459 kcal/mol)

>  <smiles>  (32) 
NC(=O)c1cc2ccc(C(F)(F)F)cc2n1C(=O)OC[C@H]1COC(=O)O1

>  <score_type>  (32) 
oracle

>  <origin>  (32) 
adg

>  <m_score__min__energy>  (32) 
-10.15

>  <m_primary>  (32) 
energy

$$$$
32:0
     RDKit          3D

 41 42  0  0  0  0  0  0  0  0999 V2000
   -2.8590   19.1940  -33.7650 C   0  0  0  0  0  0  0  0  0  0  0  0
   -2.3110   19.5530  -32.3860 C   0  0  0  0  0  0  0  0  0  0  0  0
   -2.0310   21.0550  -32.2390 C   0  0  0  0  0  0  0  0  0  0  0  0
   -3.2640   21.9060  -32.4230 C   0  0  0  0  0  0  0  0  0  0  0  0
   -3.7520   22.0460  -33.5780 O   0  0  0  0  0  0  0  0  0  0  0  0
   -3.8560   22.6540  -31.2960 C   0  0  0  0  0  0  0  0  0  0  0  0
   -3.1160   23.0810  -30.3660 O   0  0  0  0  0  0  0  0  0  0  0  0
   -5.2660   22.9310  -31.2540 N   0  0  0  0  0  0  0  0  0  0  0  0
   -5.8790   24.0650  -30.8070 C   0  0  0  0  0  0  0  0  0  0  0  0
   -5.2040   25.3220  -30.4190 C   0  0  0  0  0  0  0  0  0  0  0  0
   -3.8730   25.6030  -30.8430 N   0  0  0  0  0  0  0  0  0  0  0  0
   -5.8230   26.1720  -29.7260 O   0  0  0  0  0  0  0  0  0  0  0  0
   -7.2640   23.9030  -30.8070 C   0  0  0  0  0  0  0  0  0  0  0  0
   -7.4830   22.6260  -31.2710 C   0  0  0  0  0  0  0  0  0  0  0  0
   -8.6740   21.9310  -31.4530 C   0  0  0  0  0  0  0  0  0  0  0  0
   -8.5990   20.6060  -31.9180 C   0  0  0  0  0  0  0  0  0  0  0  0
   -7.3440   20.0050  -32.1870 C   0  0  0  0  0  0  0  0  0  0  0  0
   -7.2700   18.5940  -32.7020 C   0  0  0  0  0  0  0  0  0  0  0  0
   -6.2480   18.4790  -33.7900 C   0  0  0  0  0  0  0  0  0  0  0  0
   -6.0730   19.4380  -34.5920 O   0  0  0  0  0  0  0  0  0  0  0  0
   -5.5250   17.2910  -33.9290 O   0  0  0  0  0  0  0  0  0  0  0  0
   -6.1360   16.0090  -33.8450 C   0  0  0  0  0  0  0  0  0  0  0  0
   -6.1560   20.7420  -31.9800 C   0  0  0  0  0  0  0  0  0  0  0  0
   -6.2610   22.0620  -31.5330 C   0  0  0  0  0  0  0  0  0  0  0  0
   -3.7742   18.5944  -33.6512 H   0  0  0  0  0  0  0  0  0  0  0  0
   -3.0910   20.1157  -34.3187 H   0  0  0  0  0  0  0  0  0  0  0  0
   -2.1066   18.6132  -34.3187 H   0  0  0  0  0  0  0  0  0  0  0  0
   -3.0473   19.2550  -31.6250 H   0  0  0  0  0  0  0  0  0  0  0  0
   -1.3574   19.0203  -32.2556 H   0  0  0  0  0  0  0  0  0  0  0  0
   -1.6250   21.2390  -31.2333 H   0  0  0  0  0  0  0  0  0  0  0  0
   -1.3173   21.3352  -33.0278 H   0  0  0  0  0  0  0  0  0  0  0  0
   -3.0500   25.2590  -30.2990 H   0  0  0  0  0  0  0  0  0  0  0  0
   -8.0212   24.6399  -30.5009 H   0  0  0  0  0  0  0  0  0  0  0  0
   -9.6444   22.4031  -31.2398 H   0  0  0  0  0  0  0  0  0  0  0  0
   -9.5233   20.0305  -32.0745 H   0  0  0  0  0  0  0  0  0  0  0  0
   -6.9944   17.9223  -31.8756 H   0  0  0  0  0  0  0  0  0  0  0  0
   -8.2528   18.3152  -33.1100 H   0  0  0  0  0  0  0  0  0  0  0  0
   -6.2671   15.7339  -32.7881 H   0  0  0  0  0  0  0  0  0  0  0  0
   -7.1174   16.0374  -34.3410 H   0  0  0  0  0  0  0  0  0  0  0  0
   -5.4959   15.2645  -34.3410 H   0  0  0  0  0  0  0  0  0  0  0  0
   -5.1718   20.2874  -32.1663 H   0  0  0  0  0  0  0  0  0  0  0  0
  1  2  1  0
  2  3  1  0
  3  4  1  0
  4  5  2  0
  4  6  1  0
  6  7  2  0
  6  8  1  0
  8  9  1  0
  9 10  1  0
 10 11  1  0
 10 12  2  0
  9 13  2  0
 13 14  1  0
 14 15  2  0
 15 16  1  0
 16 17  2  0
 17 18  1  0
 18 19  1  0
 19 20  2  0
 19 21  1  0
 21 22  1  0
 17 23  1  0
 23 24  2  0
 24  8  1  0
 24 14  1  0
  1 25  1  0
  1 26  1  0
  1 27  1  0
  2 28  1  0
  2 29  1  0
  3 30  1  0
  3 31  1  0
 11 32  1  0
 13 33  1  0
 15 34  1  0
 16 35  1  0
 18 36  1  0
 18 37  1  0
 22 38  1  0
 22 39  1  0
 22 40  1  0
 23 41  1  0
M  CHG  1  11  -1
M  END
>  <UniqueID>  (33) 
33

>  <SMILES>  (33) 
CCCC(=O)C(=O)n1c(C([NH-])=O)cc2ccc(CC(=O)OC)cc21

>  <Energy>  (33) 
71.46817514954546

>  <Genealogy>  (33) 
CCCC(=O)C(=O)n1c(C([NH-])=O)cc2ccc(CC(=O)OC)cc21 (protonated)
CCCC(=O)C(=O)n1c(C([NH-])=O)cc2ccc(CC(=O)OC)cc21 (3D coordinates assigned)
CCCC(=O)C(=O)n1c(C([NH-])=O)cc2ccc(CC(=O)OC)cc21 (optimized conformer: 71.46817514954546 kcal/mol)

>  <smiles>  (33) 
CCCC(=O)C(=O)n1c(C(N)=O)cc2ccc(CC(=O)OC)cc21

>  <score_type>  (33) 
oracle

>  <origin>  (33) 
adg

>  <m_score__min__energy>  (33) 
-10.06

>  <m_primary>  (33) 
energy

$$$$
33:0
     RDKit          3D

 57 59  0  0  0  0  0  0  0  0999 V2000
   -3.8990   14.4980  -32.5100 C   0  0  0  0  0  0  0  0  0  0  0  0
   -5.3380   14.6320  -32.7490 N   0  0  0  0  0  0  0  0  0  0  0  0
   -5.6120   15.4500  -33.9370 C   0  0  0  0  0  0  0  0  0  0  0  0
   -6.2460   16.7630  -33.5590 C   0  0  0  0  0  0  0  0  0  0  0  0
   -7.1190   16.7600  -32.6470 O   0  0  0  0  0  0  0  0  0  0  0  0
   -5.8820   18.0080  -34.2010 N   0  0  0  0  0  0  0  0  0  0  0  0
   -6.4640   19.2710  -33.7720 C   0  0  0  0  0  0  0  0  0  0  0  0
   -5.5000   20.0050  -32.8310 C   0  0  0  0  0  0  0  0  0  0  0  0
   -4.0550   19.7590  -33.0850 N   0  0  0  0  0  0  0  0  0  0  0  0
   -3.0720   20.4330  -32.2370 C   0  0  0  0  0  0  0  0  0  0  0  0
   -1.7310   19.9530  -32.1290 C   0  0  0  0  0  0  0  0  0  0  0  0
   -0.7770   20.6140  -31.3370 C   0  0  0  0  0  0  0  0  0  0  0  0
   -1.1700   21.7540  -30.6530 C   0  0  0  0  0  0  0  0  0  0  0  0
   -0.4430   22.5990  -29.8450 C   0  0  0  0  0  0  0  0  0  0  0  0
   -1.3370   23.5970  -29.4660 C   0  0  0  0  0  0  0  0  0  0  0  0
   -0.9850   24.6990  -28.5580 C   0  0  0  0  0  0  0  0  0  0  0  0
   -1.9770   25.6230  -28.1120 N   0  0  0  0  0  0  0  0  0  0  0  0
    0.2170   24.8650  -28.2190 O   0  0  0  0  0  0  0  0  0  0  0  0
   -2.5710   23.3650  -29.9900 N   0  0  0  0  0  0  0  0  0  0  0  0
   -3.7870   24.0830  -29.7250 C   0  0  0  0  0  0  0  0  0  0  0  0
   -4.6130   23.6250  -28.8890 O   0  0  0  0  0  0  0  0  0  0  0  0
   -4.0580   25.2790  -30.3970 O   0  0  0  0  0  0  0  0  0  0  0  0
   -5.3620   25.8480  -30.4970 C   0  0  0  0  0  0  0  0  0  0  0  0
   -6.3860   24.7850  -30.8950 C   0  0  0  0  0  0  0  0  0  0  0  0
   -5.8590   23.9770  -31.9260 O   0  0  0  0  0  0  0  0  0  0  0  0
   -6.8130   23.0090  -32.3000 C   0  0  0  0  0  0  0  0  0  0  0  0
   -2.4480   22.2340  -30.7210 C   0  0  0  0  0  0  0  0  0  0  0  0
   -3.4190   21.6060  -31.5070 C   0  0  0  0  0  0  0  0  0  0  0  0
   -3.5720   18.7320  -34.0420 C   0  0  0  0  0  0  0  0  0  0  0  0
   -4.6520   18.1730  -34.9640 C   0  0  0  0  0  0  0  0  0  0  0  0
   -3.7073   14.4801  -31.4270 H   0  0  0  0  0  0  0  0  0  0  0  0
   -3.5378   13.5623  -32.9618 H   0  0  0  0  0  0  0  0  0  0  0  0
   -3.3713   15.3509  -32.9618 H   0  0  0  0  0  0  0  0  0  0  0  0
   -5.7470   15.1280  -31.9220 H   0  0  0  0  0  0  0  0  0  0  0  0
   -4.6663   15.6464  -34.4634 H   0  0  0  0  0  0  0  0  0  0  0  0
   -6.3096   14.9000  -34.5857 H   0  0  0  0  0  0  0  0  0  0  0  0
   -6.6601   19.8990  -34.6536 H   0  0  0  0  0  0  0  0  0  0  0  0
   -7.4044   19.0702  -33.2378 H   0  0  0  0  0  0  0  0  0  0  0  0
   -5.6838   21.0849  -32.9307 H   0  0  0  0  0  0  0  0  0  0  0  0
   -5.7028   19.6154  -31.8225 H   0  0  0  0  0  0  0  0  0  0  0  0
   -1.4387   19.0458  -32.6780 H   0  0  0  0  0  0  0  0  0  0  0  0
    0.2537   20.2372  -31.2617 H   0  0  0  0  0  0  0  0  0  0  0  0
    0.6154   22.5059  -29.5603 H   0  0  0  0  0  0  0  0  0  0  0  0
   -1.7260   26.3840  -27.4430 H   0  0  0  0  0  0  0  0  0  0  0  0
   -2.9440   25.5960  -28.5060 H   0  0  0  0  0  0  0  0  0  0  0  0
   -5.6450   26.2756  -29.5239 H   0  0  0  0  0  0  0  0  0  0  0  0
   -5.3477   26.6319  -31.2686 H   0  0  0  0  0  0  0  0  0  0  0  0
   -6.6194   24.1575  -30.0222 H   0  0  0  0  0  0  0  0  0  0  0  0
   -7.3022   25.2782  -31.2518 H   0  0  0  0  0  0  0  0  0  0  0  0
   -7.2543   22.5612  -31.3974 H   0  0  0  0  0  0  0  0  0  0  0  0
   -7.6043   23.4856  -32.8972 H   0  0  0  0  0  0  0  0  0  0  0  0
   -6.3249   22.2248  -32.8972 H   0  0  0  0  0  0  0  0  0  0  0  0
   -4.4394   22.0132  -31.5611 H   0  0  0  0  0  0  0  0  0  0  0  0
   -2.7874   19.1849  -34.6659 H   0  0  0  0  0  0  0  0  0  0  0  0
   -3.2059   17.8880  -33.4390 H   0  0  0  0  0  0  0  0  0  0  0  0
   -4.8244   18.8707  -35.7968 H   0  0  0  0  0  0  0  0  0  0  0  0
   -4.3310   17.2022  -35.3697 H   0  0  0  0  0  0  0  0  0  0  0  0
  1  2  1  0
  2  3  1  0
  3  4  1  0
  4  5  2  0
  4  6  1  0
  6  7  1  0
  7  8  1  0
  8  9  1  0
  9 10  1  0
 10 11  2  0
 11 12  1  0
 12 13  2  0
 13 14  1  0
 14 15  2  0
 15 16  1  0
 16 17  1  0
 16 18  2  0
 15 19  1  0
 19 20  1  0
 20 21  2  0
 20 22  1  0
 22 23  1  0
 23 24  1  0
 24 25  1  0
 25 26  1  0
 19 27  1  0
 27 28  2  0
  9 29  1  0
 29 30  1  0
 30  6  1  0
 28 10  1  0
 27 13  1  0
  1 31  1  0
  1 32  1  0
  1 33  1  0
  2 34  1  0
  3 35  1  0
  3 36  1  0
  7 37  1  0
  7 38  1  0
  8 39  1  0
  8 40  1  0
 11 41  1  0
 12 42  1  0
 14 43  1  0
 17 44  1  0
 17 45  1  0
 23 46  1  0
 23 47  1  0
 24 48  1  0
 24 49  1  0
 26 50  1  0
 26 51  1  0
 26 52  1  0
 28 53  1  0
 29 54  1  0
 29 55  1  0
 30 56  1  0
 30 57  1  0
M  END
>  <UniqueID>  (34) 
34

>  <SMILES>  (34) 
CNCC(=O)N1CCN(c2ccc3cc(C(N)=O)n(C(=O)OCCOC)c3c2)CC1

>  <Energy>  (34) 
104.86240571565324

>  <Genealogy>  (34) 
CNCC(=O)N1CCN(c2ccc3cc(C(N)=O)n(C(=O)OCCOC)c3c2)CC1 (3D coordinates assigned)
CNCC(=O)N1CCN(c2ccc3cc(C(N)=O)n(C(=O)OCCOC)c3c2)CC1 (nonaromatic ring conformer: 104.86240571565324 kcal/mol)

>  <smiles>  (34) 
CNCC(=O)N1CCN(c2ccc3cc(C(N)=O)n(C(=O)OCCOC)c3c2)CC1

>  <score_type>  (34) 
oracle

>  <origin>  (34) 
adg

>  <m_score__min__energy>  (34) 
-9.4700000000000006

>  <m_primary>  (34) 
energy

$$$$
34:0
     RDKit          3D

 33 35  0  0  0  0  0  0  0  0999 V2000
   -3.9970   25.6640  -30.8500 N   0  0  0  0  0  0  0  0  0  0  0  0
   -5.2210   25.0610  -30.4340 C   0  0  0  0  0  0  0  0  0  0  0  0
   -5.9660   25.6750  -29.6260 O   0  0  0  0  0  0  0  0  0  0  0  0
   -5.6500   23.7580  -30.9820 C   0  0  0  0  0  0  0  0  0  0  0  0
   -6.9780   23.4440  -31.2610 C   0  0  0  0  0  0  0  0  0  0  0  0
   -6.9450   22.1910  -31.8290 C   0  0  0  0  0  0  0  0  0  0  0  0
   -7.9860   21.3890  -32.2870 C   0  0  0  0  0  0  0  0  0  0  0  0
   -7.6640   20.1210  -32.7990 C   0  0  0  0  0  0  0  0  0  0  0  0
   -6.3170   19.6720  -32.8390 C   0  0  0  0  0  0  0  0  0  0  0  0
   -6.0020   18.3280  -33.3710 C   0  0  0  0  0  0  0  0  0  0  0  0
   -4.9340   18.0680  -34.1600 N   0  0  0  0  0  0  0  0  0  0  0  0
   -4.8620   16.7590  -34.5190 C   0  0  0  0  0  0  0  0  0  0  0  0
   -5.8760   15.9520  -34.0180 C   0  0  0  0  0  0  0  0  0  0  0  0
   -6.8920   16.9220  -33.0960 S   0  0  0  0  0  0  0  0  0  0  0  0
   -5.2890   20.5210  -32.3630 C   0  0  0  0  0  0  0  0  0  0  0  0
   -5.6380   21.7860  -31.8770 C   0  0  0  0  0  0  0  0  0  0  0  0
   -4.8290   22.7360  -31.3570 N   0  0  0  0  0  0  0  0  0  0  0  0
   -3.4120   22.6300  -31.1520 C   0  0  0  0  0  0  0  0  0  0  0  0
   -2.7160   21.9160  -31.9240 O   0  0  0  0  0  0  0  0  0  0  0  0
   -2.8130   23.3070  -30.0820 O   0  0  0  0  0  0  0  0  0  0  0  0
   -1.4380   23.1650  -29.7380 C   0  0  0  0  0  0  0  0  0  0  0  0
   -0.9050   24.4490  -29.1860 C   0  0  0  0  0  0  0  0  0  0  0  0
    0.1940   24.4700  -28.5730 O   0  0  0  0  0  0  0  0  0  0  0  0
   -1.6380   25.6200  -29.3260 O   0  0  0  0  0  0  0  0  0  0  0  0
   -3.0780   25.2940  -30.5220 H   0  0  0  0  0  0  0  0  0  0  0  0
   -7.8648   24.0656  -31.0682 H   0  0  0  0  0  0  0  0  0  0  0  0
   -9.0288   21.7372  -32.2493 H   0  0  0  0  0  0  0  0  0  0  0  0
   -8.4654   19.4674  -33.1738 H   0  0  0  0  0  0  0  0  0  0  0  0
   -4.0587   16.3668  -35.1600 H   0  0  0  0  0  0  0  0  0  0  0  0
   -5.9927   14.8724  -34.1934 H   0  0  0  0  0  0  0  0  0  0  0  0
   -4.2390   20.1935  -32.3749 H   0  0  0  0  0  0  0  0  0  0  0  0
   -1.3333   22.3736  -28.9812 H   0  0  0  0  0  0  0  0  0  0  0  0
   -0.8689   22.9007  -30.6415 H   0  0  0  0  0  0  0  0  0  0  0  0
  1  2  1  0
  2  3  2  0
  2  4  1  0
  4  5  2  0
  5  6  1  0
  6  7  2  0
  7  8  1  0
  8  9  2  0
  9 10  1  0
 10 11  2  0
 11 12  1  0
 12 13  2  0
 13 14  1  0
  9 15  1  0
 15 16  2  0
 16 17  1  0
 17 18  1  0
 18 19  2  0
 18 20  1  0
 20 21  1  0
 21 22  1  0
 22 23  2  0
 22 24  1  0
 17  4  1  0
 16  6  1  0
 14 10  1  0
  1 25  1  0
  5 26  1  0
  7 27  1  0
  8 28  1  0
 12 29  1  0
 13 30  1  0
 15 31  1  0
 21 32  1  0
 21 33  1  0
M  CHG  2   1  -1  24  -1
M  END
>  <UniqueID>  (35) 
35

>  <SMILES>  (35) 
[NH-]C(=O)c1cc2ccc(-c3nccs3)cc2n1C(=O)OCC(=O)[O-]

>  <Energy>  (35) 
103.2375875555262

>  <Genealogy>  (35) 
[NH-]C(=O)c1cc2ccc(-c3nccs3)cc2n1C(=O)OCC(=O)[O-] (protonated)
[NH-]C(=O)c1cc2ccc(-c3nccs3)cc2n1C(=O)OCC(=O)[O-] (3D coordinates assigned)
[NH-]C(=O)c1cc2ccc(-c3nccs3)cc2n1C(=O)OCC(=O)[O-] (optimized conformer: 103.2375875555262 kcal/mol)

>  <smiles>  (35) 
NC(=O)c1cc2ccc(-c3nccs3)cc2n1C(=O)OCC(=O)O

>  <score_type>  (35) 
oracle

>  <origin>  (35) 
adg

>  <m_score__min__energy>  (35) 
-12.82

>  <m_primary>  (35) 
energy

$$$$
35:0
     RDKit          3D

 37 38  0  0  0  0  0  0  0  0999 V2000
   -5.7720   18.2930  -34.5940 C   0  0  0  0  0  0  0  0  0  0  0  0
   -6.4290   18.1980  -33.2190 C   0  0  0  0  0  0  0  0  0  0  0  0
   -5.6040   17.4740  -32.3730 F   0  0  0  0  0  0  0  0  0  0  0  0
   -7.6250   17.5090  -33.3360 F   0  0  0  0  0  0  0  0  0  0  0  0
   -6.6720   19.5800  -32.6570 C   0  0  0  0  0  0  0  0  0  0  0  0
   -7.9970   20.0680  -32.5040 C   0  0  0  0  0  0  0  0  0  0  0  0
   -8.2380   21.3350  -31.9470 C   0  0  0  0  0  0  0  0  0  0  0  0
   -7.1400   22.0850  -31.5350 C   0  0  0  0  0  0  0  0  0  0  0  0
   -7.0850   23.3380  -30.9650 C   0  0  0  0  0  0  0  0  0  0  0  0
   -5.7290   23.5840  -30.7450 C   0  0  0  0  0  0  0  0  0  0  0  0
   -5.2000   24.7830  -30.0570 C   0  0  0  0  0  0  0  0  0  0  0  0
   -3.8370   25.1820  -30.2210 N   0  0  0  0  0  0  0  0  0  0  0  0
   -5.9580   25.4800  -29.3320 O   0  0  0  0  0  0  0  0  0  0  0  0
   -4.9820   22.5270  -31.1690 N   0  0  0  0  0  0  0  0  0  0  0  0
   -3.5510   22.3920  -31.1520 C   0  0  0  0  0  0  0  0  0  0  0  0
   -2.9140   22.3720  -32.2390 O   0  0  0  0  0  0  0  0  0  0  0  0
   -2.8140   22.3180  -29.8820 C   0  0  0  0  0  0  0  0  0  0  0  0
   -2.9990   21.3440  -29.1040 O   0  0  0  0  0  0  0  0  0  0  0  0
   -1.9070   23.3320  -29.5560 O   0  0  0  0  0  0  0  0  0  0  0  0
   -0.5410   23.1010  -29.2170 C   0  0  0  0  0  0  0  0  0  0  0  0
    0.0140   24.2630  -28.6040 O   0  0  0  0  0  0  0  0  0  0  0  0
   -0.7460   25.3460  -28.1520 C   0  0  0  0  0  0  0  0  0  0  0  0
   -1.5210   25.9700  -28.9220 O   0  0  0  0  0  0  0  0  0  0  0  0
   -5.8590   21.6180  -31.6450 C   0  0  0  0  0  0  0  0  0  0  0  0
   -5.5860   20.3650  -32.2030 C   0  0  0  0  0  0  0  0  0  0  0  0
   -4.6899   18.4495  -34.4733 H   0  0  0  0  0  0  0  0  0  0  0  0
   -5.9479   17.3601  -35.1497 H   0  0  0  0  0  0  0  0  0  0  0  0
   -6.2049   19.1379  -35.1497 H   0  0  0  0  0  0  0  0  0  0  0  0
   -8.8453   19.4460  -32.8257 H   0  0  0  0  0  0  0  0  0  0  0  0
   -9.2620   21.7222  -31.8398 H   0  0  0  0  0  0  0  0  0  0  0  0
   -7.9299   24.0029  -30.7327 H   0  0  0  0  0  0  0  0  0  0  0  0
   -3.4880   26.0510  -29.7580 H   0  0  0  0  0  0  0  0  0  0  0  0
   -3.1600   24.5990  -30.7600 H   0  0  0  0  0  0  0  0  0  0  0  0
   -0.4777   22.2548  -28.5171 H   0  0  0  0  0  0  0  0  0  0  0  0
    0.0239   22.8718  -30.1326 H   0  0  0  0  0  0  0  0  0  0  0  0
   -0.6646   25.6592  -27.1007 H   0  0  0  0  0  0  0  0  0  0  0  0
   -4.5522   19.9987  -32.2869 H   0  0  0  0  0  0  0  0  0  0  0  0
  1  2  1  0
  2  3  1  0
  2  4  1  0
  2  5  1  0
  5  6  2  0
  6  7  1  0
  7  8  2  0
  8  9  1  0
  9 10  2  0
 10 11  1  0
 11 12  1  0
 11 13  2  0
 10 14  1  0
 14 15  1  0
 15 16  2  0
 15 17  1  0
 17 18  2  0
 17 19  1  0
 19 20  1  0
 20 21  1  0
 21 22  1  0
 22 23  2  0
 14 24  1  0
 24 25  2  0
 25  5  1  0
 24  8  1  0
  1 26  1  0
  1 27  1  0
  1 28  1  0
  6 29  1  0
  7 30  1  0
  9 31  1  0
 12 32  1  0
 12 33  1  0
 20 34  1  0
 20 35  1  0
 22 36  1  0
 25 37  1  0
M  END
>  <UniqueID>  (36) 
36

>  <SMILES>  (36) 
CC(F)(F)c1ccc2cc(C(N)=O)n(C(=O)C(=O)OCOC=O)c2c1

>  <Energy>  (36) 
73.69827456457877

>  <Genealogy>  (36) 
CC(F)(F)c1ccc2cc(C(N)=O)n(C(=O)C(=O)OCOC=O)c2c1 (3D coordinates assigned)
CC(F)(F)c1ccc2cc(C(N)=O)n(C(=O)C(=O)OCOC=O)c2c1 (optimized conformer: 73.69827456457877 kcal/mol)

>  <smiles>  (36) 
CC(F)(F)c1ccc2cc(C(N)=O)n(C(=O)C(=O)OCOC=O)c2c1

>  <score_type>  (36) 
oracle

>  <origin>  (36) 
adg

>  <m_score__min__energy>  (36) 
-7.5099999999999998

>  <m_primary>  (36) 
energy

$$$$
36:0
     RDKit          3D

 29 30  0  0  0  0  0  0  0  0999 V2000
   -4.4420   25.6690  -30.8430 N   0  0  0  0  0  0  0  0  0  0  0  0
   -5.7010   25.0480  -30.6020 C   0  0  0  0  0  0  0  0  0  0  0  0
   -6.5790   25.6740  -29.9510 O   0  0  0  0  0  0  0  0  0  0  0  0
   -5.9830   23.6770  -31.0800 C   0  0  0  0  0  0  0  0  0  0  0  0
   -7.2340   23.2580  -31.5270 C   0  0  0  0  0  0  0  0  0  0  0  0
   -7.0850   21.9240  -31.8340 C   0  0  0  0  0  0  0  0  0  0  0  0
   -8.0080   21.0080  -32.3290 C   0  0  0  0  0  0  0  0  0  0  0  0
   -7.5680   19.6970  -32.5770 C   0  0  0  0  0  0  0  0  0  0  0  0
   -6.2150   19.3310  -32.3540 C   0  0  0  0  0  0  0  0  0  0  0  0
   -5.7620   17.9120  -32.5880 C   0  0  0  0  0  0  0  0  0  0  0  0
   -4.3820   17.8820  -32.6630 F   0  0  0  0  0  0  0  0  0  0  0  0
   -6.1750   17.0900  -31.5530 F   0  0  0  0  0  0  0  0  0  0  0  0
   -6.2890   17.4190  -33.7690 F   0  0  0  0  0  0  0  0  0  0  0  0
   -5.3120   20.2870  -31.8300 C   0  0  0  0  0  0  0  0  0  0  0  0
   -5.7850   21.5780  -31.5750 C   0  0  0  0  0  0  0  0  0  0  0  0
   -5.0980   22.6420  -31.1060 N   0  0  0  0  0  0  0  0  0  0  0  0
   -3.7020   22.6700  -30.7760 C   0  0  0  0  0  0  0  0  0  0  0  0
   -2.8440   22.4120  -31.6640 O   0  0  0  0  0  0  0  0  0  0  0  0
   -3.2520   23.0440  -29.3970 C   0  0  0  0  0  0  0  0  0  0  0  0
   -2.0880   23.9780  -29.4770 C   0  0  0  0  0  0  0  0  0  0  0  0
   -2.2600   25.2180  -29.3450 O   0  0  0  0  0  0  0  0  0  0  0  0
   -0.8180   23.4840  -29.7470 O   0  0  0  0  0  0  0  0  0  0  0  0
   -3.8650   26.0400  -30.0550 H   0  0  0  0  0  0  0  0  0  0  0  0
   -8.1475   23.8644  -31.6159 H   0  0  0  0  0  0  0  0  0  0  0  0
   -9.0507   21.3014  -32.5204 H   0  0  0  0  0  0  0  0  0  0  0  0
   -8.2804   18.9455  -32.9483 H   0  0  0  0  0  0  0  0  0  0  0  0
   -4.2639   20.0208  -31.6284 H   0  0  0  0  0  0  0  0  0  0  0  0
   -4.0790   23.5367  -28.8647 H   0  0  0  0  0  0  0  0  0  0  0  0
   -2.9502   22.1351  -28.8558 H   0  0  0  0  0  0  0  0  0  0  0  0
  1  2  1  0
  2  3  2  0
  2  4  1  0
  4  5  2  0
  5  6  1  0
  6  7  2  0
  7  8  1  0
  8  9  2  0
  9 10  1  0
 10 11  1  0
 10 12  1  0
 10 13  1  0
  9 14  1  0
 14 15  2  0
 15 16  1  0
 16 17  1  0
 17 18  2  0
 17 19  1  0
 19 20  1  0
 20 21  2  0
 20 22  1  0
 16  4  1  0
 15  6  1  0
  1 23  1  0
  5 24  1  0
  7 25  1  0
  8 26  1  0
 14 27  1  0
 19 28  1  0
 19 29  1  0
M  CHG  2   1  -1  22  -1
M  END
>  <UniqueID>  (37) 
37

>  <SMILES>  (37) 
[NH-]C(=O)c1cc2ccc(C(F)(F)F)cc2n1C(=O)CC(=O)[O-]

>  <Energy>  (37) 
67.8830678085805

>  <Genealogy>  (37) 
[NH-]C(=O)c1cc2ccc(C(F)(F)F)cc2n1C(=O)CC(=O)[O-] (protonated)
[NH-]C(=O)c1cc2ccc(C(F)(F)F)cc2n1C(=O)CC(=O)[O-] (3D coordinates assigned)
[NH-]C(=O)c1cc2ccc(C(F)(F)F)cc2n1C(=O)CC(=O)[O-] (optimized conformer: 67.8830678085805 kcal/mol)

>  <smiles>  (37) 
NC(=O)c1cc2ccc(C(F)(F)F)cc2n1C(=O)CC(=O)O

>  <score_type>  (37) 
oracle

>  <origin>  (37) 
adg

>  <m_score__min__energy>  (37) 
-10.970000000000001

>  <m_primary>  (37) 
energy

$$$$
37:0
     RDKit          3D

 54 56  0  0  0  0  0  0  0  0999 V2000
   -2.5720   21.2410  -27.8720 C   0  0  0  0  0  0  0  0  0  0  0  0
   -2.7260   21.5790  -29.2910 N   0  0  0  0  0  0  0  0  0  0  0  0
   -2.5480   20.5610  -30.3290 C   0  0  0  0  0  0  0  0  0  0  0  0
   -3.0570   22.9230  -29.6800 C   0  0  0  0  0  0  0  0  0  0  0  0
   -3.2350   23.8070  -28.7980 O   0  0  0  0  0  0  0  0  0  0  0  0
   -3.1540   23.2420  -31.0430 O   0  0  0  0  0  0  0  0  0  0  0  0
   -4.1790   22.8290  -31.9040 C   0  0  0  0  0  0  0  0  0  0  0  0
   -3.9080   22.2590  -32.9990 O   0  0  0  0  0  0  0  0  0  0  0  0
   -5.5490   23.0850  -31.5510 N   0  0  0  0  0  0  0  0  0  0  0  0
   -6.0600   24.2120  -30.9710 C   0  0  0  0  0  0  0  0  0  0  0  0
   -5.2810   25.3210  -30.3840 C   0  0  0  0  0  0  0  0  0  0  0  0
   -3.9780   25.6380  -30.8690 N   0  0  0  0  0  0  0  0  0  0  0  0
   -5.7440   25.9570  -29.3980 O   0  0  0  0  0  0  0  0  0  0  0  0
   -7.4470   24.1280  -30.8750 C   0  0  0  0  0  0  0  0  0  0  0  0
   -7.7750   22.8990  -31.3970 C   0  0  0  0  0  0  0  0  0  0  0  0
   -9.0200   22.2870  -31.5270 C   0  0  0  0  0  0  0  0  0  0  0  0
   -9.0660   21.0010  -32.0920 C   0  0  0  0  0  0  0  0  0  0  0  0
   -7.8780   20.3560  -32.5230 C   0  0  0  0  0  0  0  0  0  0  0  0
   -7.9320   19.0390  -33.1110 N   0  0  0  0  0  0  0  0  0  0  0  0
   -7.3760   18.0180  -32.2000 C   0  0  0  0  0  0  0  0  0  0  0  0
   -5.9310   17.6420  -32.5690 C   0  0  0  0  0  0  0  0  0  0  0  0
   -5.4360   18.5040  -33.6680 N   0  0  0  0  0  0  0  0  0  0  0  0
   -4.1650   19.1950  -33.3290 C   0  0  0  0  0  0  0  0  0  0  0  0
   -2.9230   18.4310  -33.8310 C   0  0  0  0  0  0  0  0  0  0  0  0
   -3.1850   17.0450  -33.8850 O   0  0  0  0  0  0  0  0  0  0  0  0
   -4.1280   16.7660  -34.9080 C   0  0  0  0  0  0  0  0  0  0  0  0
   -5.3100   17.7650  -34.9400 C   0  0  0  0  0  0  0  0  0  0  0  0
   -6.6350   21.0200  -32.3910 C   0  0  0  0  0  0  0  0  0  0  0  0
   -6.6140   22.2880  -31.7980 C   0  0  0  0  0  0  0  0  0  0  0  0
   -2.9495   22.0695  -27.2547 H   0  0  0  0  0  0  0  0  0  0  0  0
   -3.1428   20.3276  -27.6486 H   0  0  0  0  0  0  0  0  0  0  0  0
   -1.5082   21.0724  -27.6486 H   0  0  0  0  0  0  0  0  0  0  0  0
   -2.3769   19.5822  -29.8571 H   0  0  0  0  0  0  0  0  0  0  0  0
   -3.4515   20.5134  -30.9547 H   0  0  0  0  0  0  0  0  0  0  0  0
   -1.6820   20.8228  -30.9547 H   0  0  0  0  0  0  0  0  0  0  0  0
   -3.1220   25.3030  -30.3690 H   0  0  0  0  0  0  0  0  0  0  0  0
   -8.1342   24.8844  -30.4679 H   0  0  0  0  0  0  0  0  0  0  0  0
   -9.9385   22.7947  -31.1976 H   0  0  0  0  0  0  0  0  0  0  0  0
  -10.0334   20.4890  -32.2013 H   0  0  0  0  0  0  0  0  0  0  0  0
   -8.9320   18.8020  -33.3150 H   0  0  0  0  0  0  0  0  0  0  0  0
   -7.4340   19.0350  -34.0330 H   0  0  0  0  0  0  0  0  0  0  0  0
   -7.3890   18.4131  -31.1735 H   0  0  0  0  0  0  0  0  0  0  0  0
   -7.9951   17.1128  -32.2859 H   0  0  0  0  0  0  0  0  0  0  0  0
   -5.2863   17.7731  -31.6874 H   0  0  0  0  0  0  0  0  0  0  0  0
   -5.9095   16.5936  -32.9014 H   0  0  0  0  0  0  0  0  0  0  0  0
   -4.1737   20.1943  -33.7887 H   0  0  0  0  0  0  0  0  0  0  0  0
   -4.0996   19.2537  -32.2325 H   0  0  0  0  0  0  0  0  0  0  0  0
   -2.6595   18.7893  -34.8371 H   0  0  0  0  0  0  0  0  0  0  0  0
   -2.0898   18.6093  -33.1353 H   0  0  0  0  0  0  0  0  0  0  0  0
   -3.6119   16.8046  -35.8786 H   0  0  0  0  0  0  0  0  0  0  0  0
   -4.5481   15.7706  -34.7013 H   0  0  0  0  0  0  0  0  0  0  0  0
   -5.1463   18.4848  -35.7556 H   0  0  0  0  0  0  0  0  0  0  0  0
   -6.2369   17.1941  -35.0977 H   0  0  0  0  0  0  0  0  0  0  0  0
   -5.7061   20.5501  -32.7465 H   0  0  0  0  0  0  0  0  0  0  0  0
  1  2  1  0
  2  3  1  0
  2  4  1  0
  4  5  2  0
  4  6  1  0
  6  7  1  0
  7  8  2  0
  7  9  1  0
  9 10  1  0
 10 11  1  0
 11 12  1  0
 11 13  2  0
 10 14  2  0
 14 15  1  0
 15 16  2  0
 16 17  1  0
 17 18  2  0
 18 19  1  0
 19 20  1  0
 20 21  1  0
 21 22  1  0
 22 23  1  0
 23 24  1  0
 24 25  1  0
 25 26  1  0
 26 27  1  0
 18 28  1  0
 28 29  2  0
 29  9  1  0
 29 15  1  0
 27 22  1  0
  1 30  1  0
  1 31  1  0
  1 32  1  0
  3 33  1  0
  3 34  1  0
  3 35  1  0
 12 36  1  0
 14 37  1  0
 16 38  1  0
 17 39  1  0
 19 40  1  0
 19 41  1  0
 20 42  1  0
 20 43  1  0
 21 44  1  0
 21 45  1  0
 23 46  1  0
 23 47  1  0
 24 48  1  0
 24 49  1  0
 26 50  1  0
 26 51  1  0
 27 52  1  0
 27 53  1  0
 28 54  1  0
M  CHG  2  12  -1  19   1
M  END
>  <UniqueID>  (38) 
38

>  <SMILES>  (38) 
CN(C)C(=O)OC(=O)n1c(C([NH-])=O)cc2ccc([NH2+]CCN3CCOCC3)cc21

>  <Energy>  (38) 
104.86204447642751

>  <Genealogy>  (38) 
CN(C)C(=O)OC(=O)n1c(C([NH-])=O)cc2ccc([NH2+]CCN3CCOCC3)cc21 (protonated)
CN(C)C(=O)OC(=O)n1c(C([NH-])=O)cc2ccc([NH2+]CCN3CCOCC3)cc21 (3D coordinates assigned)
CN(C)C(=O)OC(=O)n1c(C([NH-])=O)cc2ccc([NH2+]CCN3CCOCC3)cc21 (nonaromatic ring conformer: 104.86204447642751 kcal/mol)

>  <smiles>  (38) 
CN(C)C(=O)OC(=O)n1c(C(N)=O)cc2ccc(NCCN3CCOCC3)cc21

>  <score_type>  (38) 
oracle

>  <origin>  (38) 
adg

>  <m_score__min__energy>  (38) 
-10.960000000000001

>  <m_primary>  (38) 
energy

$$$$
38:0
     RDKit          3D

 40 41  0  0  0  0  0  0  0  0999 V2000
   -2.2030   24.2410  -28.3360 C   0  0  0  0  0  0  0  0  0  0  0  0
   -3.6220   24.1160  -27.9790 N   0  0  0  0  0  0  0  0  0  0  0  0
   -3.9210   24.8220  -26.7280 C   0  0  0  0  0  0  0  0  0  0  0  0
   -4.0930   22.7130  -27.9890 C   0  0  0  0  0  0  0  0  0  0  0  0
   -3.1430   21.7280  -28.7050 C   0  0  0  0  0  0  0  0  0  0  0  0
   -3.5690   21.5230  -30.0520 O   0  0  0  0  0  0  0  0  0  0  0  0
   -4.0520   22.5470  -30.8830 C   0  0  0  0  0  0  0  0  0  0  0  0
   -3.2490   23.2740  -31.5180 O   0  0  0  0  0  0  0  0  0  0  0  0
   -5.4700   22.7650  -31.0160 N   0  0  0  0  0  0  0  0  0  0  0  0
   -6.1440   23.9440  -30.8750 C   0  0  0  0  0  0  0  0  0  0  0  0
   -5.5660   25.2270  -30.4290 C   0  0  0  0  0  0  0  0  0  0  0  0
   -4.2350   25.6040  -30.7950 N   0  0  0  0  0  0  0  0  0  0  0  0
   -6.2400   25.9820  -29.6720 O   0  0  0  0  0  0  0  0  0  0  0  0
   -7.4900   23.7830  -31.1860 C   0  0  0  0  0  0  0  0  0  0  0  0
   -7.6310   22.4540  -31.5150 C   0  0  0  0  0  0  0  0  0  0  0  0
   -8.7640   21.7490  -31.9050 C   0  0  0  0  0  0  0  0  0  0  0  0
   -8.6190   20.3850  -32.2130 C   0  0  0  0  0  0  0  0  0  0  0  0
   -7.3460   19.7600  -32.1590 C   0  0  0  0  0  0  0  0  0  0  0  0
   -7.2060   18.2810  -32.4590 C   0  0  0  0  0  0  0  0  0  0  0  0
   -6.7740   18.1190  -33.7700 F   0  0  0  0  0  0  0  0  0  0  0  0
   -6.2840   17.6900  -31.6070 F   0  0  0  0  0  0  0  0  0  0  0  0
   -8.4220   17.6330  -32.2950 F   0  0  0  0  0  0  0  0  0  0  0  0
   -6.2200   20.5090  -31.7390 C   0  0  0  0  0  0  0  0  0  0  0  0
   -6.3980   21.8600  -31.4100 C   0  0  0  0  0  0  0  0  0  0  0  0
   -1.5976   24.2943  -27.4192 H   0  0  0  0  0  0  0  0  0  0  0  0
   -1.8955   23.3665  -28.9281 H   0  0  0  0  0  0  0  0  0  0  0  0
   -2.0531   25.1558  -28.9281 H   0  0  0  0  0  0  0  0  0  0  0  0
   -3.6509   24.1842  -25.8735 H   0  0  0  0  0  0  0  0  0  0  0  0
   -3.3411   25.7558  -26.6863 H   0  0  0  0  0  0  0  0  0  0  0  0
   -4.9952   25.0553  -26.6863 H   0  0  0  0  0  0  0  0  0  0  0  0
   -4.2107   22.3818  -26.9467 H   0  0  0  0  0  0  0  0  0  0  0  0
   -5.0388   22.7025  -28.5506 H   0  0  0  0  0  0  0  0  0  0  0  0
   -2.1237   22.1416  -28.7053 H   0  0  0  0  0  0  0  0  0  0  0  0
   -3.1575   20.7650  -28.1735 H   0  0  0  0  0  0  0  0  0  0  0  0
   -3.5910   24.9320  -31.2550 H   0  0  0  0  0  0  0  0  0  0  0  0
   -3.8670   26.5460  -30.5450 H   0  0  0  0  0  0  0  0  0  0  0  0
   -8.2748   24.5537  -31.1720 H   0  0  0  0  0  0  0  0  0  0  0  0
   -9.7444   22.2436  -31.9706 H   0  0  0  0  0  0  0  0  0  0  0  0
   -9.5024   19.7954  -32.4992 H   0  0  0  0  0  0  0  0  0  0  0  0
   -5.2269   20.0407  -31.6723 H   0  0  0  0  0  0  0  0  0  0  0  0
  1  2  1  0
  2  3  1  0
  2  4  1  0
  4  5  1  0
  5  6  1  0
  6  7  1  0
  7  8  2  0
  7  9  1  0
  9 10  1  0
 10 11  1  0
 11 12  1  0
 11 13  2  0
 10 14  2  0
 14 15  1  0
 15 16  2  0
 16 17  1  0
 17 18  2  0
 18 19  1  0
 19 20  1  0
 19 21  1  0
 19 22  1  0
 18 23  1  0
 23 24  2  0
 24  9  1  0
 24 15  1  0
  1 25  1  0
  1 26  1  0
  1 27  1  0
  3 28  1  0
  3 29  1  0
  3 30  1  0
  4 31  1  0
  4 32  1  0
  5 33  1  0
  5 34  1  0
 12 35  1  0
 12 36  1  0
 14 37  1  0
 16 38  1  0
 17 39  1  0
 23 40  1  0
M  END
>  <UniqueID>  (39) 
39

>  <SMILES>  (39) 
CN(C)CCOC(=O)n1c(C(N)=O)cc2ccc(C(F)(F)F)cc21

>  <Energy>  (39) 
80.87492586993514

>  <Genealogy>  (39) 
CN(C)CCOC(=O)n1c(C(N)=O)cc2ccc(C(F)(F)F)cc21 (3D coordinates assigned)
CN(C)CCOC(=O)n1c(C(N)=O)cc2ccc(C(F)(F)F)cc21 (optimized conformer: 80.87492586993514 kcal/mol)

>  <smiles>  (39) 
CN(C)CCOC(=O)n1c(C(N)=O)cc2ccc(C(F)(F)F)cc21

>  <score_type>  (39) 
oracle

>  <origin>  (39) 
adg

>  <m_score__min__energy>  (39) 
-8.0700000000000003

>  <m_primary>  (39) 
energy

$$$$
39:0
     RDKit          3D

 29 30  0  0  0  0  0  0  0  0999 V2000
   -9.2020   21.8890  -31.9380 C   0  0  0  0  0  0  0  0  0  0  0  0
   -8.2550   22.8240  -31.9180 C   0  0  0  0  0  0  0  0  0  0  0  0
   -7.1250   22.8000  -30.9710 C   0  0  0  0  0  0  0  0  0  0  0  0
   -7.3490   22.9860  -29.7440 O   0  0  0  0  0  0  0  0  0  0  0  0
   -5.7780   22.5830  -31.4160 N   0  0  0  0  0  0  0  0  0  0  0  0
   -4.6710   23.3030  -31.0890 C   0  0  0  0  0  0  0  0  0  0  0  0
   -4.6560   24.5570  -30.3060 C   0  0  0  0  0  0  0  0  0  0  0  0
   -5.1820   24.6170  -28.9790 N   0  0  0  0  0  0  0  0  0  0  0  0
   -4.2150   25.6100  -30.8400 O   0  0  0  0  0  0  0  0  0  0  0  0
   -3.5220   22.6820  -31.5730 C   0  0  0  0  0  0  0  0  0  0  0  0
   -3.9650   21.5540  -32.2200 C   0  0  0  0  0  0  0  0  0  0  0  0
   -3.2500   20.5600  -32.8800 C   0  0  0  0  0  0  0  0  0  0  0  0
   -3.9680   19.4830  -33.4210 C   0  0  0  0  0  0  0  0  0  0  0  0
   -5.3780   19.4070  -33.2820 C   0  0  0  0  0  0  0  0  0  0  0  0
   -6.1620   18.2570  -33.8520 C   0  0  0  0  0  0  0  0  0  0  0  0
   -7.4780   18.3360  -33.4390 F   0  0  0  0  0  0  0  0  0  0  0  0
   -6.1200   18.3160  -35.2340 F   0  0  0  0  0  0  0  0  0  0  0  0
   -5.6490   17.0410  -33.4410 F   0  0  0  0  0  0  0  0  0  0  0  0
   -6.0670   20.4400  -32.6070 C   0  0  0  0  0  0  0  0  0  0  0  0
   -5.3280   21.5100  -32.0980 C   0  0  0  0  0  0  0  0  0  0  0  0
  -10.0242   21.9544  -32.6658 H   0  0  0  0  0  0  0  0  0  0  0  0
   -9.1625   21.0509  -31.2267 H   0  0  0  0  0  0  0  0  0  0  0  0
   -8.3181   23.6515  -32.6400 H   0  0  0  0  0  0  0  0  0  0  0  0
   -5.7740   23.8500  -28.5930 H   0  0  0  0  0  0  0  0  0  0  0  0
   -5.0360   25.4740  -28.3970 H   0  0  0  0  0  0  0  0  0  0  0  0
   -2.4819   23.0222  -31.4611 H   0  0  0  0  0  0  0  0  0  0  0  0
   -2.1556   20.6166  -32.9748 H   0  0  0  0  0  0  0  0  0  0  0  0
   -3.4314   18.6879  -33.9594 H   0  0  0  0  0  0  0  0  0  0  0  0
   -7.1596   20.4021  -32.4854 H   0  0  0  0  0  0  0  0  0  0  0  0
  1  2  2  0
  2  3  1  0
  3  4  2  0
  3  5  1  0
  5  6  1  0
  6  7  1  0
  7  8  1  0
  7  9  2  0
  6 10  2  0
 10 11  1  0
 11 12  2  0
 12 13  1  0
 13 14  2  0
 14 15  1  0
 15 16  1  0
 15 17  1  0
 15 18  1  0
 14 19  1  0
 19 20  2  0
 20  5  1  0
 20 11  1  0
  1 21  1  0
  1 22  1  0
  2 23  1  0
  8 24  1  0
  8 25  1  0
 10 26  1  0
 12 27  1  0
 13 28  1  0
 19 29  1  0
M  END
>  <UniqueID>  (40) 
40

>  <SMILES>  (40) 
C=CC(=O)n1c(C(N)=O)cc2ccc(C(F)(F)F)cc21

>  <Energy>  (40) 
69.66702865958229

>  <Genealogy>  (40) 
C=CC(=O)n1c(C(N)=O)cc2ccc(C(F)(F)F)cc21 (3D coordinates assigned)
C=CC(=O)n1c(C(N)=O)cc2ccc(C(F)(F)F)cc21 (optimized conformer: 69.66702865958229 kcal/mol)

>  <smiles>  (40) 
C=CC(=O)n1c(C(N)=O)cc2ccc(C(F)(F)F)cc21

>  <score_type>  (40) 
oracle

>  <origin>  (40) 
adg

>  <m_score__min__energy>  (40) 
-7.4199999999999999

>  <m_primary>  (40) 
energy

$$$$
40:0
     RDKit          3D

 31 32  0  0  0  0  0  0  0  0999 V2000
   -1.9260   24.9420  -27.9810 C   0  0  0  0  0  0  0  0  0  0  0  0
   -2.3570   25.2260  -29.3420 N   0  0  0  0  0  0  0  0  0  0  0  0
   -3.4690   24.6200  -30.0170 C   0  0  0  0  0  0  0  0  0  0  0  0
   -4.1230   25.3200  -30.8340 O   0  0  0  0  0  0  0  0  0  0  0  0
   -3.8790   23.2140  -29.7940 C   0  0  0  0  0  0  0  0  0  0  0  0
   -4.2260   22.8200  -28.6510 O   0  0  0  0  0  0  0  0  0  0  0  0
   -3.9420   22.2950  -30.8980 N   0  0  0  0  0  0  0  0  0  0  0  0
   -2.9060   21.7440  -31.5900 C   0  0  0  0  0  0  0  0  0  0  0  0
   -1.4730   21.8980  -31.2480 C   0  0  0  0  0  0  0  0  0  0  0  0
   -1.0660   22.7020  -30.1390 N   0  0  0  0  0  0  0  0  0  0  0  0
   -0.5920   21.3330  -31.9500 O   0  0  0  0  0  0  0  0  0  0  0  0
   -3.3850   20.9330  -32.6190 C   0  0  0  0  0  0  0  0  0  0  0  0
   -4.7580   21.0010  -32.5280 C   0  0  0  0  0  0  0  0  0  0  0  0
   -5.7400   20.4000  -33.3080 C   0  0  0  0  0  0  0  0  0  0  0  0
   -7.0830   20.6660  -32.9960 C   0  0  0  0  0  0  0  0  0  0  0  0
   -7.4240   21.5090  -31.9060 C   0  0  0  0  0  0  0  0  0  0  0  0
   -8.8680   21.8310  -31.6180 C   0  0  0  0  0  0  0  0  0  0  0  0
   -9.7030   20.8750  -32.1700 F   0  0  0  0  0  0  0  0  0  0  0  0
   -9.2090   23.0620  -32.1510 F   0  0  0  0  0  0  0  0  0  0  0  0
   -9.0630   21.8620  -30.2500 F   0  0  0  0  0  0  0  0  0  0  0  0
   -6.3950   22.1190  -31.1510 C   0  0  0  0  0  0  0  0  0  0  0  0
   -5.0670   21.8270  -31.4790 C   0  0  0  0  0  0  0  0  0  0  0  0
   -2.6271   25.4040  -27.2704 H   0  0  0  0  0  0  0  0  0  0  0  0
   -1.9068   23.8537  -27.8220 H   0  0  0  0  0  0  0  0  0  0  0  0
   -0.9184   25.3537  -27.8220 H   0  0  0  0  0  0  0  0  0  0  0  0
   -1.7640   23.1340  -29.4940 H   0  0  0  0  0  0  0  0  0  0  0  0
   -0.0510   22.8300  -29.9320 H   0  0  0  0  0  0  0  0  0  0  0  0
   -2.7924   20.3609  -33.3481 H   0  0  0  0  0  0  0  0  0  0  0  0
   -5.4729   19.7366  -34.1438 H   0  0  0  0  0  0  0  0  0  0  0  0
   -7.8812   20.2153  -33.6041 H   0  0  0  0  0  0  0  0  0  0  0  0
   -6.6334   22.8063  -30.3259 H   0  0  0  0  0  0  0  0  0  0  0  0
  1  2  1  0
  2  3  1  0
  3  4  2  0
  3  5  1  0
  5  6  2  0
  5  7  1  0
  7  8  1  0
  8  9  1  0
  9 10  1  0
  9 11  2  0
  8 12  2  0
 12 13  1  0
 13 14  2  0
 14 15  1  0
 15 16  2  0
 16 17  1  0
 17 18  1  0
 17 19  1  0
 17 20  1  0
 16 21  1  0
 21 22  2  0
 22  7  1  0
 22 13  1  0
  1 23  1  0
  1 24  1  0
  1 25  1  0
 10 26  1  0
 10 27  1  0
 12 28  1  0
 14 29  1  0
 15 30  1  0
 21 31  1  0
M  CHG  1   2  -1
M  END
>  <UniqueID>  (41) 
41

>  <SMILES>  (41) 
C[N-]C(=O)C(=O)n1c(C(N)=O)cc2ccc(C(F)(F)F)cc21

>  <Energy>  (41) 
70.99284879526762

>  <Genealogy>  (41) 
C[N-]C(=O)C(=O)n1c(C(N)=O)cc2ccc(C(F)(F)F)cc21 (protonated)
C[N-]C(=O)C(=O)n1c(C(N)=O)cc2ccc(C(F)(F)F)cc21 (3D coordinates assigned)
C[N-]C(=O)C(=O)n1c(C(N)=O)cc2ccc(C(F)(F)F)cc21 (optimized conformer: 70.99284879526762 kcal/mol)

>  <smiles>  (41) 
CNC(=O)C(=O)n1c(C(N)=O)cc2ccc(C(F)(F)F)cc21

>  <score_type>  (41) 
oracle

>  <origin>  (41) 
adg

>  <m_score__min__energy>  (41) 
-9.1699999999999999

>  <m_primary>  (41) 
energy

$$$$
41:0
     RDKit          3D

 40 42  0  0  0  0  0  0  0  0999 V2000
   -6.8080   15.1120  -34.2660 C   0  0  0  0  0  0  0  0  0  0  0  0
   -5.6030   15.9220  -34.0220 N   0  0  0  0  0  0  0  0  0  0  0  0
   -5.4560   16.2750  -32.5940 C   0  0  0  0  0  0  0  0  0  0  0  0
   -6.4930   17.3150  -32.1260 C   0  0  0  0  0  0  0  0  0  0  0  0
   -6.7970   18.3860  -33.2020 C   0  0  0  0  0  0  0  0  0  0  0  0
   -7.0510   19.7480  -32.5820 C   0  0  0  0  0  0  0  0  0  0  0  0
   -8.3700   20.1730  -32.2730 C   0  0  0  0  0  0  0  0  0  0  0  0
   -8.6040   21.4270  -31.6860 C   0  0  0  0  0  0  0  0  0  0  0  0
   -7.5060   22.2410  -31.4280 C   0  0  0  0  0  0  0  0  0  0  0  0
   -7.4480   23.4860  -30.8470 C   0  0  0  0  0  0  0  0  0  0  0  0
   -6.0960   23.8230  -30.8290 C   0  0  0  0  0  0  0  0  0  0  0  0
   -5.5790   25.1310  -30.3670 C   0  0  0  0  0  0  0  0  0  0  0  0
   -4.2280   25.5150  -30.6280 N   0  0  0  0  0  0  0  0  0  0  0  0
   -6.3190   25.9080  -29.7090 O   0  0  0  0  0  0  0  0  0  0  0  0
   -5.3470   22.8220  -31.3750 N   0  0  0  0  0  0  0  0  0  0  0  0
   -3.9160   22.7600  -31.4880 C   0  0  0  0  0  0  0  0  0  0  0  0
   -3.1840   23.1830  -30.5550 O   0  0  0  0  0  0  0  0  0  0  0  0
   -3.3230   22.2180  -32.6220 O   0  0  0  0  0  0  0  0  0  0  0  0
   -6.2260   21.8610  -31.7370 C   0  0  0  0  0  0  0  0  0  0  0  0
   -5.9620   20.6080  -32.3040 C   0  0  0  0  0  0  0  0  0  0  0  0
   -5.6840   18.4530  -34.2580 C   0  0  0  0  0  0  0  0  0  0  0  0
   -5.5040   17.0850  -34.9440 C   0  0  0  0  0  0  0  0  0  0  0  0
   -7.2507   14.8144  -33.3040 H   0  0  0  0  0  0  0  0  0  0  0  0
   -7.5378   15.7036  -34.8381 H   0  0  0  0  0  0  0  0  0  0  0  0
   -6.5357   14.2128  -34.8381 H   0  0  0  0  0  0  0  0  0  0  0  0
   -5.5772   15.3623  -31.9921 H   0  0  0  0  0  0  0  0  0  0  0  0
   -4.4585   16.7201  -32.4639 H   0  0  0  0  0  0  0  0  0  0  0  0
   -7.4280   16.7916  -31.8772 H   0  0  0  0  0  0  0  0  0  0  0  0
   -6.0707   17.8337  -31.2527 H   0  0  0  0  0  0  0  0  0  0  0  0
   -7.7222   18.0801  -33.7124 H   0  0  0  0  0  0  0  0  0  0  0  0
   -9.2198   19.5112  -32.4964 H   0  0  0  0  0  0  0  0  0  0  0  0
   -9.6241   21.7554  -31.4379 H   0  0  0  0  0  0  0  0  0  0  0  0
   -8.2902   24.0881  -30.4753 H   0  0  0  0  0  0  0  0  0  0  0  0
   -3.8600   26.4220  -30.2640 H   0  0  0  0  0  0  0  0  0  0  0  0
   -3.5990   24.9240  -31.2160 H   0  0  0  0  0  0  0  0  0  0  0  0
   -4.9304   20.2989  -32.5284 H   0  0  0  0  0  0  0  0  0  0  0  0
   -5.9493   19.2052  -35.0156 H   0  0  0  0  0  0  0  0  0  0  0  0
   -4.7412   18.7280  -33.7625 H   0  0  0  0  0  0  0  0  0  0  0  0
   -6.2816   16.9809  -35.7150 H   0  0  0  0  0  0  0  0  0  0  0  0
   -4.4859   17.0721  -35.3604 H   0  0  0  0  0  0  0  0  0  0  0  0
  1  2  1  0
  2  3  1  0
  3  4  1  0
  4  5  1  0
  5  6  1  0
  6  7  2  0
  7  8  1  0
  8  9  2  0
  9 10  1  0
 10 11  2  0
 11 12  1  0
 12 13  1  0
 12 14  2  0
 11 15  1  0
 15 16  1  0
 16 17  2  0
 16 18  1  0
 15 19  1  0
 19 20  2  0
  5 21  1  0
 21 22  1  0
 22  2  1  0
 20  6  1  0
 19  9  1  0
  1 23  1  0
  1 24  1  0
  1 25  1  0
  3 26  1  0
  3 27  1  0
  4 28  1  0
  4 29  1  0
  5 30  1  0
  7 31  1  0
  8 32  1  0
 10 33  1  0
 13 34  1  0
 13 35  1  0
 20 36  1  0
 21 37  1  0
 21 38  1  0
 22 39  1  0
 22 40  1  0
M  CHG  1  18  -1
M  END
>  <UniqueID>  (42) 
42

>  <SMILES>  (42) 
CN1CCC(c2ccc3cc(C(N)=O)n(C(=O)[O-])c3c2)CC1

>  <Energy>  (42) 
89.90627828198438

>  <Genealogy>  (42) 
CN1CCC(c2ccc3cc(C(N)=O)n(C(=O)[O-])c3c2)CC1 (protonated)
CN1CCC(c2ccc3cc(C(N)=O)n(C(=O)[O-])c3c2)CC1 (3D coordinates assigned)
CN1CCC(c2ccc3cc(C(N)=O)n(C(=O)[O-])c3c2)CC1 (nonaromatic ring conformer: 89.90627828198438 kcal/mol)

>  <smiles>  (42) 
CN1CCC(c2ccc3cc(C(N)=O)n(C(=O)O)c3c2)CC1

>  <score_type>  (42) 
oracle

>  <origin>  (42) 
adg

>  <m_score__min__energy>  (42) 
-9.8100000000000005

>  <m_primary>  (42) 
energy

$$$$
42:0
     RDKit          3D

 44 46  0  0  0  0  0  0  0  0999 V2000
   -6.6310   24.0780  -29.9370 C   0  0  0  0  0  0  0  0  0  0  0  0
   -5.4250   24.0410  -29.3750 C   0  0  0  0  0  0  0  0  0  0  0  0
   -4.1800   24.2490  -30.1390 C   0  0  0  0  0  0  0  0  0  0  0  0
   -3.8700   25.4170  -30.4910 O   0  0  0  0  0  0  0  0  0  0  0  0
   -3.3320   23.1520  -30.5120 N   0  0  0  0  0  0  0  0  0  0  0  0
   -2.0510   22.9100  -30.1170 C   0  0  0  0  0  0  0  0  0  0  0  0
   -1.2380   23.8100  -29.2650 C   0  0  0  0  0  0  0  0  0  0  0  0
   -1.4140   25.2280  -29.3190 N   0  0  0  0  0  0  0  0  0  0  0  0
   -0.3870   23.3290  -28.4710 O   0  0  0  0  0  0  0  0  0  0  0  0
   -1.5900   21.7190  -30.6790 C   0  0  0  0  0  0  0  0  0  0  0  0
   -2.6370   21.2440  -31.4370 C   0  0  0  0  0  0  0  0  0  0  0  0
   -2.7360   20.0910  -32.2070 C   0  0  0  0  0  0  0  0  0  0  0  0
   -3.9520   19.8440  -32.8660 C   0  0  0  0  0  0  0  0  0  0  0  0
   -5.0480   20.7420  -32.7550 C   0  0  0  0  0  0  0  0  0  0  0  0
   -6.3550   20.3720  -33.4520 C   0  0  2  0  0  0  0  0  0  0  0  0
   -7.6570   20.8190  -32.7350 C   0  0  0  0  0  0  0  0  0  0  0  0
   -8.4200   19.6590  -32.0730 C   0  0  0  0  0  0  0  0  0  0  0  0
   -7.4770   18.5600  -31.5720 C   0  0  0  0  0  0  0  0  0  0  0  0
   -6.6620   17.9730  -32.6600 N   0  0  0  0  0  0  0  0  0  0  0  0
   -5.4300   17.3660  -32.1330 C   0  0  0  0  0  0  0  0  0  0  0  0
   -6.3970   18.8690  -33.8130 C   0  0  0  0  0  0  0  0  0  0  0  0
   -4.8950   21.9100  -31.9620 C   0  0  0  0  0  0  0  0  0  0  0  0
   -3.6730   22.1290  -31.3220 C   0  0  0  0  0  0  0  0  0  0  0  0
   -7.5292   23.9164  -29.3229 H   0  0  0  0  0  0  0  0  0  0  0  0
   -6.7295   24.2702  -31.0156 H   0  0  0  0  0  0  0  0  0  0  0  0
   -5.3534   23.8470  -28.2946 H   0  0  0  0  0  0  0  0  0  0  0  0
   -0.8570   25.8460  -28.6880 H   0  0  0  0  0  0  0  0  0  0  0  0
   -2.0570   25.6740  -30.0080 H   0  0  0  0  0  0  0  0  0  0  0  0
   -0.6005   21.2575  -30.5450 H   0  0  0  0  0  0  0  0  0  0  0  0
   -1.8895   19.3944  -32.2975 H   0  0  0  0  0  0  0  0  0  0  0  0
   -4.0579   18.9375  -33.4801 H   0  0  0  0  0  0  0  0  0  0  0  0
   -6.3416   20.9680  -34.3764 H   0  0  0  0  0  0  0  0  0  0  0  0
   -7.3930   21.5511  -31.9576 H   0  0  0  0  0  0  0  0  0  0  0  0
   -8.3192   21.2469  -33.5021 H   0  0  0  0  0  0  0  0  0  0  0  0
   -8.9918   20.0520  -31.2194 H   0  0  0  0  0  0  0  0  0  0  0  0
   -9.0850   19.2159  -32.8290 H   0  0  0  0  0  0  0  0  0  0  0  0
   -6.8015   18.9912  -30.8185 H   0  0  0  0  0  0  0  0  0  0  0  0
   -8.0962   17.7562  -31.1472 H   0  0  0  0  0  0  0  0  0  0  0  0
   -5.4562   17.3789  -31.0334 H   0  0  0  0  0  0  0  0  0  0  0  0
   -5.3532   16.3269  -32.4858 H   0  0  0  0  0  0  0  0  0  0  0  0
   -4.5593   17.9383  -32.4858 H   0  0  0  0  0  0  0  0  0  0  0  0
   -5.4259   18.5918  -34.2491 H   0  0  0  0  0  0  0  0  0  0  0  0
   -7.2333   18.7361  -34.5150 H   0  0  0  0  0  0  0  0  0  0  0  0
   -5.7218   22.6275  -31.8540 H   0  0  0  0  0  0  0  0  0  0  0  0
  1  2  2  0
  2  3  1  0
  3  4  2  0
  3  5  1  0
  5  6  1  0
  6  7  1  0
  7  8  1  0
  7  9  2  0
  6 10  2  0
 10 11  1  0
 11 12  2  0
 12 13  1  0
 13 14  2  0
 14 15  1  0
 15 16  1  0
 16 17  1  0
 17 18  1  0
 18 19  1  0
 19 20  1  0
 19 21  1  0
 14 22  1  0
 22 23  2  0
 23  5  1  0
 23 11  1  0
 21 15  1  0
  1 24  1  0
  1 25  1  0
  2 26  1  0
  8 27  1  0
  8 28  1  0
 10 29  1  0
 12 30  1  0
 13 31  1  0
 15 32  1  6
 16 33  1  0
 16 34  1  0
 17 35  1  0
 17 36  1  0
 18 37  1  0
 18 38  1  0
 20 39  1  0
 20 40  1  0
 20 41  1  0
 21 42  1  0
 21 43  1  0
 22 44  1  0
M  END
>  <UniqueID>  (43) 
43

>  <SMILES>  (43) 
C=CC(=O)n1c(C(N)=O)cc2ccc([C@@H]3CCCN(C)C3)cc21

>  <Energy>  (43) 
95.93489034512329

>  <Genealogy>  (43) 
C=CC(=O)n1c(C(N)=O)cc2ccc([C@@H]3CCCN(C)C3)cc21 (3D coordinates assigned)
C=CC(=O)n1c(C(N)=O)cc2ccc([C@@H]3CCCN(C)C3)cc21 (nonaromatic ring conformer: 95.93489034512329 kcal/mol)

>  <smiles>  (43) 
C=CC(=O)n1c(C(N)=O)cc2ccc([C@@H]3CCCN(C)C3)cc21

>  <score_type>  (43) 
oracle

>  <origin>  (43) 
adg

>  <m_score__min__energy>  (43) 
-9.5099999999999998

>  <m_primary>  (43) 
energy

$$$$
43:0
     RDKit          3D

 38 40  0  0  0  0  0  0  0  0999 V2000
   -2.2500   20.8570  -32.3780 C   0  0  0  0  0  0  0  0  0  0  0  0
   -3.0140   21.9270  -32.5960 C   0  0  0  0  0  0  0  0  0  0  0  0
   -3.6900   22.6570  -31.5140 C   0  0  0  0  0  0  0  0  0  0  0  0
   -3.0130   23.2650  -30.6360 O   0  0  0  0  0  0  0  0  0  0  0  0
   -5.1280   22.6850  -31.4610 N   0  0  0  0  0  0  0  0  0  0  0  0
   -5.9320   23.7100  -31.0620 C   0  0  0  0  0  0  0  0  0  0  0  0
   -5.4740   25.0020  -30.4850 C   0  0  0  0  0  0  0  0  0  0  0  0
   -4.1660   25.5080  -30.7650 N   0  0  0  0  0  0  0  0  0  0  0  0
   -6.2380   25.6790  -29.7400 O   0  0  0  0  0  0  0  0  0  0  0  0
   -7.2700   23.3940  -31.3020 C   0  0  0  0  0  0  0  0  0  0  0  0
   -7.2610   22.1360  -31.8590 C   0  0  0  0  0  0  0  0  0  0  0  0
   -8.3120   21.3330  -32.2840 C   0  0  0  0  0  0  0  0  0  0  0  0
   -8.0060   20.0620  -32.7960 C   0  0  0  0  0  0  0  0  0  0  0  0
   -6.6620   19.6080  -32.8620 C   0  0  0  0  0  0  0  0  0  0  0  0
   -6.3560   18.2310  -33.3320 C   0  0  0  0  0  0  0  0  0  0  0  0
   -5.1470   17.9300  -33.9810 C   0  0  0  0  0  0  0  0  0  0  0  0
   -4.8740   16.6550  -34.3570 N   0  0  0  0  0  0  0  0  0  0  0  0
   -5.7550   15.6480  -34.1220 C   0  0  0  0  0  0  0  0  0  0  0  0
   -5.4320   14.3470  -34.5230 O   0  0  0  0  0  0  0  0  0  0  0  0
   -4.1420   13.9870  -35.0110 C   0  0  0  0  0  0  0  0  0  0  0  0
   -6.9300   15.9120  -33.4960 N   0  0  0  0  0  0  0  0  0  0  0  0
   -7.2470   17.1710  -33.1020 C   0  0  0  0  0  0  0  0  0  0  0  0
   -5.6200   20.4640  -32.4320 C   0  0  0  0  0  0  0  0  0  0  0  0
   -5.9560   21.7310  -31.9430 C   0  0  0  0  0  0  0  0  0  0  0  0
   -1.7656   20.3457  -33.2229 H   0  0  0  0  0  0  0  0  0  0  0  0
   -2.1038   20.4851  -31.3531 H   0  0  0  0  0  0  0  0  0  0  0  0
   -3.1443   22.2790  -33.6300 H   0  0  0  0  0  0  0  0  0  0  0  0
   -3.8730   26.4260  -30.3670 H   0  0  0  0  0  0  0  0  0  0  0  0
   -3.4490   24.9270  -31.2550 H   0  0  0  0  0  0  0  0  0  0  0  0
   -8.1490   24.0204  -31.0899 H   0  0  0  0  0  0  0  0  0  0  0  0
   -9.3531   21.6826  -32.2212 H   0  0  0  0  0  0  0  0  0  0  0  0
   -8.8176   19.4096  -33.1505 H   0  0  0  0  0  0  0  0  0  0  0  0
   -4.4198   18.7298  -34.1849 H   0  0  0  0  0  0  0  0  0  0  0  0
   -3.4682   13.7990  -34.1621 H   0  0  0  0  0  0  0  0  0  0  0  0
   -4.2226   13.0770  -35.6237 H   0  0  0  0  0  0  0  0  0  0  0  0
   -3.7397   14.8072  -35.6237 H   0  0  0  0  0  0  0  0  0  0  0  0
   -8.2069   17.3620  -32.5999 H   0  0  0  0  0  0  0  0  0  0  0  0
   -4.5698   20.1404  -32.4812 H   0  0  0  0  0  0  0  0  0  0  0  0
  1  2  2  0
  2  3  1  0
  3  4  2  0
  3  5  1  0
  5  6  1  0
  6  7  1  0
  7  8  1  0
  7  9  2  0
  6 10  2  0
 10 11  1  0
 11 12  2  0
 12 13  1  0
 13 14  2  0
 14 15  1  0
 15 16  2  0
 16 17  1  0
 17 18  2  0
 18 19  1  0
 19 20  1  0
 18 21  1  0
 21 22  2  0
 14 23  1  0
 23 24  2  0
 24  5  1  0
 24 11  1  0
 22 15  1  0
  1 25  1  0
  1 26  1  0
  2 27  1  0
  8 28  1  0
  8 29  1  0
 10 30  1  0
 12 31  1  0
 13 32  1  0
 16 33  1  0
 20 34  1  0
 20 35  1  0
 20 36  1  0
 22 37  1  0
 23 38  1  0
M  END
>  <UniqueID>  (44) 
44

>  <SMILES>  (44) 
C=CC(=O)n1c(C(N)=O)cc2ccc(-c3cnc(OC)nc3)cc21

>  <Energy>  (44) 
84.36599497861384

>  <Genealogy>  (44) 
C=CC(=O)n1c(C(N)=O)cc2ccc(-c3cnc(OC)nc3)cc21 (3D coordinates assigned)
C=CC(=O)n1c(C(N)=O)cc2ccc(-c3cnc(OC)nc3)cc21 (optimized conformer: 84.36599497861384 kcal/mol)

>  <smiles>  (44) 
C=CC(=O)n1c(C(N)=O)cc2ccc(-c3cnc(OC)nc3)cc21

>  <score_type>  (44) 
oracle

>  <origin>  (44) 
adg

>  <m_score__min__energy>  (44) 
-8.8000000000000007

>  <m_primary>  (44) 
energy

$$$$
44:0
     RDKit          3D

 38 39  0  0  0  0  0  0  0  0999 V2000
   -4.2520   25.5810  -30.7470 N   0  0  0  0  0  0  0  0  0  0  0  0
   -5.6110   25.2430  -30.4580 C   0  0  0  0  0  0  0  0  0  0  0  0
   -6.3270   26.0660  -29.8280 O   0  0  0  0  0  0  0  0  0  0  0  0
   -6.1850   23.9610  -30.9220 C   0  0  0  0  0  0  0  0  0  0  0  0
   -7.5350   23.7730  -31.2100 C   0  0  0  0  0  0  0  0  0  0  0  0
   -7.6630   22.4360  -31.5080 C   0  0  0  0  0  0  0  0  0  0  0  0
   -8.7880   21.7070  -31.8810 C   0  0  0  0  0  0  0  0  0  0  0  0
   -8.6240   20.3410  -32.1650 C   0  0  0  0  0  0  0  0  0  0  0  0
   -7.3470   19.7330  -32.0720 C   0  0  0  0  0  0  0  0  0  0  0  0
   -7.1800   18.2760  -32.4170 C   0  0  0  0  0  0  0  0  0  0  0  0
   -5.7340   17.9310  -32.8080 C   0  0  0  0  0  0  0  0  0  0  0  0
   -5.4330   18.1790  -34.2890 C   0  0  0  0  0  0  0  0  0  0  0  0
   -6.1270   19.3080  -34.7440 O   0  0  0  0  0  0  0  0  0  0  0  0
   -6.2280   20.5060  -31.6910 C   0  0  0  0  0  0  0  0  0  0  0  0
   -6.4230   21.8610  -31.3990 C   0  0  0  0  0  0  0  0  0  0  0  0
   -5.5030   22.7850  -31.0420 N   0  0  0  0  0  0  0  0  0  0  0  0
   -4.0900   22.5690  -30.8930 C   0  0  0  0  0  0  0  0  0  0  0  0
   -3.3210   22.7230  -31.8800 O   0  0  0  0  0  0  0  0  0  0  0  0
   -3.5760   22.1680  -29.6560 O   0  0  0  0  0  0  0  0  0  0  0  0
   -3.1170   23.0930  -28.6780 C   0  0  0  0  0  0  0  0  0  0  0  0
   -2.1250   24.0150  -29.3010 C   0  0  0  0  0  0  0  0  0  0  0  0
   -2.3660   25.2490  -29.3770 O   0  0  0  0  0  0  0  0  0  0  0  0
   -0.9050   23.5220  -29.7490 O   0  0  0  0  0  0  0  0  0  0  0  0
   -3.6140   24.9040  -31.2180 H   0  0  0  0  0  0  0  0  0  0  0  0
   -3.8690   26.5050  -30.4500 H   0  0  0  0  0  0  0  0  0  0  0  0
   -8.3304   24.5328  -31.2010 H   0  0  0  0  0  0  0  0  0  0  0  0
   -9.7758   22.1858  -31.9514 H   0  0  0  0  0  0  0  0  0  0  0  0
   -9.4945   19.7378  -32.4622 H   0  0  0  0  0  0  0  0  0  0  0  0
   -7.4642   17.6708  -31.5435 H   0  0  0  0  0  0  0  0  0  0  0  0
   -7.8234   18.0593  -33.2825 H   0  0  0  0  0  0  0  0  0  0  0  0
   -5.0521   18.5483  -32.2047 H   0  0  0  0  0  0  0  0  0  0  0  0
   -5.5930   16.8561  -32.6217 H   0  0  0  0  0  0  0  0  0  0  0  0
   -4.3526   18.3410  -34.4175 H   0  0  0  0  0  0  0  0  0  0  0  0
   -5.7546   17.3028  -34.8710 H   0  0  0  0  0  0  0  0  0  0  0  0
   -6.7660   18.9820  -35.4280 H   0  0  0  0  0  0  0  0  0  0  0  0
   -5.2273   20.0541  -31.6253 H   0  0  0  0  0  0  0  0  0  0  0  0
   -3.9681   23.6741  -28.2935 H   0  0  0  0  0  0  0  0  0  0  0  0
   -2.6437   22.5480  -27.8480 H   0  0  0  0  0  0  0  0  0  0  0  0
  1  2  1  0
  2  3  2  0
  2  4  1  0
  4  5  2  0
  5  6  1  0
  6  7  2  0
  7  8  1  0
  8  9  2  0
  9 10  1  0
 10 11  1  0
 11 12  1  0
 12 13  1  0
  9 14  1  0
 14 15  2  0
 15 16  1  0
 16 17  1  0
 17 18  2  0
 17 19  1  0
 19 20  1  0
 20 21  1  0
 21 22  2  0
 21 23  1  0
 16  4  1  0
 15  6  1  0
  1 24  1  0
  1 25  1  0
  5 26  1  0
  7 27  1  0
  8 28  1  0
 10 29  1  0
 10 30  1  0
 11 31  1  0
 11 32  1  0
 12 33  1  0
 12 34  1  0
 13 35  1  0
 14 36  1  0
 20 37  1  0
 20 38  1  0
M  CHG  1  23  -1
M  END
>  <UniqueID>  (45) 
45

>  <SMILES>  (45) 
NC(=O)c1cc2ccc(CCCO)cc2n1C(=O)OCC(=O)[O-]

>  <Energy>  (45) 
68.7822503348107

>  <Genealogy>  (45) 
NC(=O)c1cc2ccc(CCCO)cc2n1C(=O)OCC(=O)[O-] (protonated)
NC(=O)c1cc2ccc(CCCO)cc2n1C(=O)OCC(=O)[O-] (3D coordinates assigned)
NC(=O)c1cc2ccc(CCCO)cc2n1C(=O)OCC(=O)[O-] (optimized conformer: 68.7822503348107 kcal/mol)

>  <smiles>  (45) 
NC(=O)c1cc2ccc(CCCO)cc2n1C(=O)OCC(=O)O

>  <score_type>  (45) 
oracle

>  <origin>  (45) 
adg

>  <m_score__min__energy>  (45) 
-10.24

>  <m_primary>  (45) 
energy

$$$$
45:0
     RDKit          3D

 44 46  0  0  0  0  0  0  0  0999 V2000
   -2.5030   23.8810  -29.7280 C   0  0  0  0  0  0  0  0  0  0  0  0
   -3.5760   24.4200  -30.4680 O   0  0  0  0  0  0  0  0  0  0  0  0
   -4.8080   23.8620  -30.0390 C   0  0  1  0  0  0  0  0  0  0  0  0
   -5.9930   24.6440  -30.6740 C   0  0  0  0  0  0  0  0  0  0  0  0
   -7.0680   23.7320  -31.2760 C   0  0  0  0  0  0  0  0  0  0  0  0
   -6.4450   22.7960  -32.3200 C   0  0  0  0  0  0  0  0  0  0  0  0
   -5.1880   22.2040  -31.8340 N   0  0  0  0  0  0  0  0  0  0  0  0
   -4.2820   21.5830  -32.7680 C   0  0  0  0  0  0  0  0  0  0  0  0
   -3.4900   22.2870  -33.4490 O   0  0  0  0  0  0  0  0  0  0  0  0
   -4.2980   20.1620  -32.9630 N   0  0  0  0  0  0  0  0  0  0  0  0
   -3.2300   19.3400  -33.1510 C   0  0  0  0  0  0  0  0  0  0  0  0
   -1.8280   19.7710  -33.3280 C   0  0  0  0  0  0  0  0  0  0  0  0
   -1.4840   20.8620  -34.1860 N   0  0  0  0  0  0  0  0  0  0  0  0
   -0.9090   19.1400  -32.7410 O   0  0  0  0  0  0  0  0  0  0  0  0
   -3.6350   18.0060  -33.1460 C   0  0  0  0  0  0  0  0  0  0  0  0
   -4.9980   18.0410  -32.9460 C   0  0  0  0  0  0  0  0  0  0  0  0
   -5.9160   17.0010  -32.8370 C   0  0  0  0  0  0  0  0  0  0  0  0
   -7.2590   17.3320  -32.5880 C   0  0  0  0  0  0  0  0  0  0  0  0
   -7.6550   18.6840  -32.4210 C   0  0  0  0  0  0  0  0  0  0  0  0
   -9.1040   19.0300  -32.1920 C   0  0  0  0  0  0  0  0  0  0  0  0
   -9.1830   20.1200  -31.3480 F   0  0  0  0  0  0  0  0  0  0  0  0
   -9.7760   17.9640  -31.6180 F   0  0  0  0  0  0  0  0  0  0  0  0
   -9.7280   19.3400  -33.3890 F   0  0  0  0  0  0  0  0  0  0  0  0
   -6.6930   19.7120  -32.5560 C   0  0  0  0  0  0  0  0  0  0  0  0
   -5.3700   19.3530  -32.8300 C   0  0  0  0  0  0  0  0  0  0  0  0
   -4.8190   22.3700  -30.4210 C   0  0  0  0  0  0  0  0  0  0  0  0
   -2.7103   23.9851  -28.6527 H   0  0  0  0  0  0  0  0  0  0  0  0
   -2.3841   22.8162  -29.9771 H   0  0  0  0  0  0  0  0  0  0  0  0
   -1.5778   24.4213  -29.9771 H   0  0  0  0  0  0  0  0  0  0  0  0
   -4.9209   23.9447  -28.9479 H   0  0  0  0  0  0  0  0  0  0  0  0
   -6.4586   25.2654  -29.8949 H   0  0  0  0  0  0  0  0  0  0  0  0
   -5.5814   25.2487  -31.4955 H   0  0  0  0  0  0  0  0  0  0  0  0
   -7.5245   23.1311  -30.4757 H   0  0  0  0  0  0  0  0  0  0  0  0
   -7.8342   24.3533  -31.7628 H   0  0  0  0  0  0  0  0  0  0  0  0
   -7.1567   21.9881  -32.5452 H   0  0  0  0  0  0  0  0  0  0  0  0
   -6.2222   23.3853  -33.2217 H   0  0  0  0  0  0  0  0  0  0  0  0
   -2.1800   21.2790  -34.8410 H   0  0  0  0  0  0  0  0  0  0  0  0
   -0.4940   21.1880  -34.2430 H   0  0  0  0  0  0  0  0  0  0  0  0
   -3.0018   17.1157  -33.2743 H   0  0  0  0  0  0  0  0  0  0  0  0
   -5.6004   15.9525  -32.9424 H   0  0  0  0  0  0  0  0  0  0  0  0
   -8.0122   16.5331  -32.5218 H   0  0  0  0  0  0  0  0  0  0  0  0
   -6.9790   20.7687  -32.4480 H   0  0  0  0  0  0  0  0  0  0  0  0
   -5.5491   21.8403  -29.7914 H   0  0  0  0  0  0  0  0  0  0  0  0
   -3.8124   21.9549  -30.2647 H   0  0  0  0  0  0  0  0  0  0  0  0
  1  2  1  0
  2  3  1  0
  3  4  1  0
  4  5  1  0
  5  6  1  0
  6  7  1  0
  7  8  1  0
  8  9  2  0
  8 10  1  0
 10 11  1  0
 11 12  1  0
 12 13  1  0
 12 14  2  0
 11 15  2  0
 15 16  1  0
 16 17  2  0
 17 18  1  0
 18 19  2  0
 19 20  1  0
 20 21  1  0
 20 22  1  0
 20 23  1  0
 19 24  1  0
 24 25  2  0
  7 26  1  0
 26  3  1  0
 25 10  1  0
 25 16  1  0
  1 27  1  0
  1 28  1  0
  1 29  1  0
  3 30  1  1
  4 31  1  0
  4 32  1  0
  5 33  1  0
  5 34  1  0
  6 35  1  0
  6 36  1  0
 13 37  1  0
 13 38  1  0
 15 39  1  0
 17 40  1  0
 18 41  1  0
 24 42  1  0
 26 43  1  0
 26 44  1  0
M  END
>  <UniqueID>  (46) 
46

>  <SMILES>  (46) 
CO[C@H]1CCCN(C(=O)n2c(C(N)=O)cc3ccc(C(F)(F)F)cc32)C1

>  <Energy>  (46) 
89.82006685516913

>  <Genealogy>  (46) 
CO[C@H]1CCCN(C(=O)n2c(C(N)=O)cc3ccc(C(F)(F)F)cc32)C1 (3D coordinates assigned)
CO[C@H]1CCCN(C(=O)n2c(C(N)=O)cc3ccc(C(F)(F)F)cc32)C1 (nonaromatic ring conformer: 89.82006685516913 kcal/mol)

>  <smiles>  (46) 
CO[C@H]1CCCN(C(=O)n2c(C(N)=O)cc3ccc(C(F)(F)F)cc32)C1

>  <score_type>  (46) 
oracle

>  <origin>  (46) 
adg

>  <m_score__min__energy>  (46) 
-8.9900000000000002

>  <m_primary>  (46) 
energy

$$$$
46:0
     RDKit          3D

 36 37  0  0  0  0  0  0  0  0999 V2000
   -3.2620   23.4680  -28.1180 C   0  0  0  0  0  0  0  0  0  0  0  0
   -2.6060   22.9230  -29.3110 N   0  0  0  0  0  0  0  0  0  0  0  0
   -1.1870   23.2310  -29.5650 C   0  0  0  0  0  0  0  0  0  0  0  0
   -0.8150   24.5620  -28.9860 C   0  0  0  0  0  0  0  0  0  0  0  0
    0.1750   24.6630  -28.2150 O   0  0  0  0  0  0  0  0  0  0  0  0
   -1.5810   25.6840  -29.2720 O   0  0  0  0  0  0  0  0  0  0  0  0
   -3.3650   22.0170  -30.1480 C   0  0  0  0  0  0  0  0  0  0  0  0
   -3.4370   20.8000  -29.8240 O   0  0  0  0  0  0  0  0  0  0  0  0
   -4.0710   22.4550  -31.3750 C   0  0  0  0  0  0  0  0  0  0  0  0
   -3.4750   22.5060  -32.4830 O   0  0  0  0  0  0  0  0  0  0  0  0
   -5.4550   22.8200  -31.3140 N   0  0  0  0  0  0  0  0  0  0  0  0
   -5.9940   24.0340  -31.0100 C   0  0  0  0  0  0  0  0  0  0  0  0
   -5.2350   25.2800  -30.7650 C   0  0  0  0  0  0  0  0  0  0  0  0
   -3.8330   25.2500  -30.5180 N   0  0  0  0  0  0  0  0  0  0  0  0
   -5.8310   26.3890  -30.8000 O   0  0  0  0  0  0  0  0  0  0  0  0
   -7.3870   23.9610  -31.0100 C   0  0  0  0  0  0  0  0  0  0  0  0
   -7.6830   22.6550  -31.3340 C   0  0  0  0  0  0  0  0  0  0  0  0
   -8.9140   22.0190  -31.4740 C   0  0  0  0  0  0  0  0  0  0  0  0
   -8.9150   20.6530  -31.8050 C   0  0  0  0  0  0  0  0  0  0  0  0
   -7.6970   19.9520  -31.9880 C   0  0  0  0  0  0  0  0  0  0  0  0
   -7.7200   18.4900  -32.3340 C   0  0  0  0  0  0  0  0  0  0  0  0
   -6.7210   17.8320  -31.6400 F   0  0  0  0  0  0  0  0  0  0  0  0
   -8.9460   17.9500  -31.9930 F   0  0  0  0  0  0  0  0  0  0  0  0
   -6.4670   20.6300  -31.8380 C   0  0  0  0  0  0  0  0  0  0  0  0
   -6.4990   21.9900  -31.5150 C   0  0  0  0  0  0  0  0  0  0  0  0
   -2.7771   23.0651  -27.2166 H   0  0  0  0  0  0  0  0  0  0  0  0
   -3.1765   24.5647  -28.1213 H   0  0  0  0  0  0  0  0  0  0  0  0
   -4.3244   23.1830  -28.1213 H   0  0  0  0  0  0  0  0  0  0  0  0
   -0.5617   22.4513  -29.1055 H   0  0  0  0  0  0  0  0  0  0  0  0
   -1.0245   23.2638  -30.6524 H   0  0  0  0  0  0  0  0  0  0  0  0
   -3.4300   25.6680  -29.6500 H   0  0  0  0  0  0  0  0  0  0  0  0
   -8.0977   24.7731  -30.7968 H   0  0  0  0  0  0  0  0  0  0  0  0
   -9.8560   22.5685  -31.3301 H   0  0  0  0  0  0  0  0  0  0  0  0
   -9.8713   20.1224  -31.9233 H   0  0  0  0  0  0  0  0  0  0  0  0
   -7.5552   18.3723  -33.4152 H   0  0  0  0  0  0  0  0  0  0  0  0
   -5.5108   20.1029  -31.9715 H   0  0  0  0  0  0  0  0  0  0  0  0
  1  2  1  0
  2  3  1  0
  3  4  1  0
  4  5  2  0
  4  6  1  0
  2  7  1  0
  7  8  2  0
  7  9  1  0
  9 10  2  0
  9 11  1  0
 11 12  1  0
 12 13  1  0
 13 14  1  0
 13 15  2  0
 12 16  2  0
 16 17  1  0
 17 18  2  0
 18 19  1  0
 19 20  2  0
 20 21  1  0
 21 22  1  0
 21 23  1  0
 20 24  1  0
 24 25  2  0
 25 11  1  0
 25 17  1  0
  1 26  1  0
  1 27  1  0
  1 28  1  0
  3 29  1  0
  3 30  1  0
 14 31  1  0
 16 32  1  0
 18 33  1  0
 19 34  1  0
 21 35  1  0
 24 36  1  0
M  CHG  2   6  -1  14  -1
M  END
>  <UniqueID>  (47) 
47

>  <SMILES>  (47) 
CN(CC(=O)[O-])C(=O)C(=O)n1c(C([NH-])=O)cc2ccc(C(F)F)cc21

>  <Energy>  (47) 
76.73856273458608

>  <Genealogy>  (47) 
CN(CC(=O)[O-])C(=O)C(=O)n1c(C([NH-])=O)cc2ccc(C(F)F)cc21 (protonated)
CN(CC(=O)[O-])C(=O)C(=O)n1c(C([NH-])=O)cc2ccc(C(F)F)cc21 (3D coordinates assigned)
CN(CC(=O)[O-])C(=O)C(=O)n1c(C([NH-])=O)cc2ccc(C(F)F)cc21 (optimized conformer: 76.73856273458608 kcal/mol)

>  <smiles>  (47) 
CN(CC(=O)O)C(=O)C(=O)n1c(C(N)=O)cc2ccc(C(F)F)cc21

>  <score_type>  (47) 
oracle

>  <origin>  (47) 
adg

>  <m_score__min__energy>  (47) 
-12.300000000000001

>  <m_primary>  (47) 
energy

$$$$
47:0
     RDKit          3D

 32 33  0  0  0  0  0  0  0  0999 V2000
   -3.9230   25.4130  -30.8160 N   0  0  0  0  0  0  0  0  0  0  0  0
   -5.2140   24.9820  -30.3890 C   0  0  0  0  0  0  0  0  0  0  0  0
   -5.8640   25.6930  -29.5790 O   0  0  0  0  0  0  0  0  0  0  0  0
   -5.7890   23.7360  -30.9340 C   0  0  0  0  0  0  0  0  0  0  0  0
   -7.1400   23.5810  -31.2380 C   0  0  0  0  0  0  0  0  0  0  0  0
   -7.2780   22.2700  -31.6300 C   0  0  0  0  0  0  0  0  0  0  0  0
   -8.4060   21.5810  -32.0640 C   0  0  0  0  0  0  0  0  0  0  0  0
   -8.2530   20.2380  -32.4440 C   0  0  0  0  0  0  0  0  0  0  0  0
   -6.9860   19.6040  -32.3750 C   0  0  0  0  0  0  0  0  0  0  0  0
   -6.8220   18.1820  -32.8460 C   0  0  0  0  0  0  0  0  0  0  0  0
   -6.4950   18.1810  -34.1880 F   0  0  0  0  0  0  0  0  0  0  0  0
   -7.9960   17.4700  -32.6670 F   0  0  0  0  0  0  0  0  0  0  0  0
   -5.8190   17.5440  -32.1360 F   0  0  0  0  0  0  0  0  0  0  0  0
   -5.8580   20.3460  -31.9510 C   0  0  0  0  0  0  0  0  0  0  0  0
   -6.0440   21.6780  -31.5600 C   0  0  0  0  0  0  0  0  0  0  0  0
   -5.1170   22.5660  -31.1380 N   0  0  0  0  0  0  0  0  0  0  0  0
   -3.7040   22.3360  -31.0170 C   0  0  0  0  0  0  0  0  0  0  0  0
   -3.0620   21.8340  -31.9800 O   0  0  0  0  0  0  0  0  0  0  0  0
   -3.0420   22.6880  -29.8370 O   0  0  0  0  0  0  0  0  0  0  0  0
   -1.7620   23.3080  -29.8290 C   0  0  0  0  0  0  0  0  0  0  0  0
   -1.7580   24.6530  -28.6130 P   0  0  1  0  0  0  0  0  0  0  0  0
   -0.8160   24.3070  -27.4810 O   0  0  0  0  0  0  0  0  0  0  0  0
   -1.2430   26.0830  -29.3550 O   0  0  0  0  0  0  0  0  0  0  0  0
   -3.3190   24.8650  -27.9970 O   0  0  0  0  0  0  0  0  0  0  0  0
   -3.0880   25.2960  -30.2010 H   0  0  0  0  0  0  0  0  0  0  0  0
   -7.9289   24.3452  -31.1773 H   0  0  0  0  0  0  0  0  0  0  0  0
   -9.3885   22.0737  -32.1081 H   0  0  0  0  0  0  0  0  0  0  0  0
   -9.1259   19.6709  -32.7994 H   0  0  0  0  0  0  0  0  0  0  0  0
   -4.8584   19.8873  -31.9290 H   0  0  0  0  0  0  0  0  0  0  0  0
   -0.9957   22.5663  -29.5596 H   0  0  0  0  0  0  0  0  0  0  0  0
   -1.5412   23.7124  -30.8278 H   0  0  0  0  0  0  0  0  0  0  0  0
   -3.8340   25.2590  -28.7460 H   0  0  0  0  0  0  0  0  0  0  0  0
  1  2  1  0
  2  3  2  0
  2  4  1  0
  4  5  2  0
  5  6  1  0
  6  7  2  0
  7  8  1  0
  8  9  2  0
  9 10  1  0
 10 11  1  0
 10 12  1  0
 10 13  1  0
  9 14  1  0
 14 15  2  0
 15 16  1  0
 16 17  1  0
 17 18  2  0
 17 19  1  0
 19 20  1  0
 20 21  1  0
 21 22  2  0
 21 23  1  6
 21 24  1  0
 16  4  1  0
 15  6  1  0
  1 25  1  0
  5 26  1  0
  7 27  1  0
  8 28  1  0
 14 29  1  0
 20 30  1  0
 20 31  1  0
 24 32  1  0
M  CHG  2   1  -1  23  -1
M  END
>  <UniqueID>  (48) 
48

>  <SMILES>  (48) 
[NH-]C(=O)c1cc2ccc(C(F)(F)F)cc2n1C(=O)OC[P@@](=O)([O-])O

>  <Energy>  (48) 
64.4247809737442

>  <Genealogy>  (48) 
[NH-]C(=O)c1cc2ccc(C(F)(F)F)cc2n1C(=O)OCP(=O)([O-])O (protonated)
[NH-]C(=O)c1cc2ccc(C(F)(F)F)cc2n1C(=O)OC[P@@](=O)([O-])O (chirality)
[NH-]C(=O)c1cc2ccc(C(F)(F)F)cc2n1C(=O)OC[P@@](=O)([O-])O (3D coordinates assigned)
[NH-]C(=O)c1cc2ccc(C(F)(F)F)cc2n1C(=O)OC[P@@](=O)([O-])O (optimized conformer: 64.4247809737442 kcal/mol)

>  <smiles>  (48) 
NC(=O)c1cc2ccc(C(F)(F)F)cc2n1C(=O)OCP(=O)(O)O

>  <score_type>  (48) 
oracle

>  <origin>  (48) 
adg

>  <m_score__min__energy>  (48) 
-11.91

>  <m_primary>  (48) 
energy

$$$$
48:0
     RDKit          3D

 32 33  0  0  0  0  0  0  0  0999 V2000
   -3.8890   25.6720  -30.8420 N   0  0  0  0  0  0  0  0  0  0  0  0
   -5.2510   25.3310  -30.5950 C   0  0  0  0  0  0  0  0  0  0  0  0
   -6.0300   26.2040  -30.1260 O   0  0  0  0  0  0  0  0  0  0  0  0
   -5.7740   23.9900  -30.9310 C   0  0  0  0  0  0  0  0  0  0  0  0
   -7.1090   23.7440  -31.2410 C   0  0  0  0  0  0  0  0  0  0  0  0
   -7.1660   22.4120  -31.5830 C   0  0  0  0  0  0  0  0  0  0  0  0
   -8.2520   21.6320  -31.9680 C   0  0  0  0  0  0  0  0  0  0  0  0
   -8.0250   20.2720  -32.2350 C   0  0  0  0  0  0  0  0  0  0  0  0
   -6.7260   19.7180  -32.1070 C   0  0  0  0  0  0  0  0  0  0  0  0
   -6.4900   18.2590  -32.3750 C   0  0  0  0  0  0  0  0  0  0  0  0
   -6.2080   17.6060  -31.1890 F   0  0  0  0  0  0  0  0  0  0  0  0
   -7.6200   17.7020  -32.9460 F   0  0  0  0  0  0  0  0  0  0  0  0
   -5.6490   20.5410  -31.7100 C   0  0  0  0  0  0  0  0  0  0  0  0
   -5.9010   21.8960  -31.4690 C   0  0  0  0  0  0  0  0  0  0  0  0
   -5.0350   22.8520  -31.0660 N   0  0  0  0  0  0  0  0  0  0  0  0
   -3.6430   22.6640  -30.7670 C   0  0  0  0  0  0  0  0  0  0  0  0
   -2.7790   22.8400  -31.6680 O   0  0  0  0  0  0  0  0  0  0  0  0
   -3.2530   22.3200  -29.4670 O   0  0  0  0  0  0  0  0  0  0  0  0
   -3.4440   23.1650  -28.3340 C   0  0  0  0  0  0  0  0  0  0  0  0
   -2.2520   24.1030  -28.1490 C   0  0  0  0  0  0  0  0  0  0  0  0
   -1.9880   24.7930  -29.3390 O   0  0  0  0  0  0  0  0  0  0  0  0
   -3.1720   24.9320  -31.0090 H   0  0  0  0  0  0  0  0  0  0  0  0
   -7.9418   24.4622  -31.2175 H   0  0  0  0  0  0  0  0  0  0  0  0
   -9.2579   22.0674  -32.0604 H   0  0  0  0  0  0  0  0  0  0  0  0
   -8.8627   19.6306  -32.5463 H   0  0  0  0  0  0  0  0  0  0  0  0
   -5.6389   18.1524  -33.0637 H   0  0  0  0  0  0  0  0  0  0  0  0
   -4.6367   20.1267  -31.5931 H   0  0  0  0  0  0  0  0  0  0  0  0
   -4.3549   23.7641  -28.4805 H   0  0  0  0  0  0  0  0  0  0  0  0
   -3.5396   22.5355  -27.4370 H   0  0  0  0  0  0  0  0  0  0  0  0
   -2.4798   24.8268  -27.3526 H   0  0  0  0  0  0  0  0  0  0  0  0
   -1.3676   23.5087  -27.8759 H   0  0  0  0  0  0  0  0  0  0  0  0
   -2.4380   24.2800  -30.0590 H   0  0  0  0  0  0  0  0  0  0  0  0
  1  2  1  0
  2  3  2  0
  2  4  1  0
  4  5  2  0
  5  6  1  0
  6  7  2  0
  7  8  1  0
  8  9  2  0
  9 10  1  0
 10 11  1  0
 10 12  1  0
  9 13  1  0
 13 14  2  0
 14 15  1  0
 15 16  1  0
 16 17  2  0
 16 18  1  0
 18 19  1  0
 19 20  1  0
 20 21  1  0
 15  4  1  0
 14  6  1  0
  1 22  1  0
  5 23  1  0
  7 24  1  0
  8 25  1  0
 10 26  1  0
 13 27  1  0
 19 28  1  0
 19 29  1  0
 20 30  1  0
 20 31  1  0
 21 32  1  0
M  CHG  1   1  -1
M  END
>  <UniqueID>  (49) 
49

>  <SMILES>  (49) 
[NH-]C(=O)c1cc2ccc(C(F)F)cc2n1C(=O)OCCO

>  <Energy>  (49) 
67.63605556599877

>  <Genealogy>  (49) 
[NH-]C(=O)c1cc2ccc(C(F)F)cc2n1C(=O)OCCO (protonated)
[NH-]C(=O)c1cc2ccc(C(F)F)cc2n1C(=O)OCCO (3D coordinates assigned)
[NH-]C(=O)c1cc2ccc(C(F)F)cc2n1C(=O)OCCO (optimized conformer: 67.63605556599877 kcal/mol)

>  <smiles>  (49) 
NC(=O)c1cc2ccc(C(F)F)cc2n1C(=O)OCCO

>  <score_type>  (49) 
oracle

>  <origin>  (49) 
adg

>  <m_score__min__energy>  (49) 
-9.4800000000000004

>  <m_primary>  (49) 
energy

$$$$
49:0
     RDKit          3D

 37 38  0  0  0  0  0  0  0  0999 V2000
   -8.8930   19.6900  -31.8710 C   0  0  0  0  0  0  0  0  0  0  0  0
   -8.2080   18.7350  -32.6710 O   0  0  0  0  0  0  0  0  0  0  0  0
   -6.9600   18.2140  -32.3170 C   0  0  0  0  0  0  0  0  0  0  0  0
   -6.8620   17.3370  -31.4150 O   0  0  0  0  0  0  0  0  0  0  0  0
   -5.7210   18.7240  -32.9980 C   0  0  2  0  0  0  0  0  0  0  0  0
   -5.6440   20.2600  -32.9070 C   0  0  0  0  0  0  0  0  0  0  0  0
   -4.4140   20.7130  -32.1590 C   0  0  0  0  0  0  0  0  0  0  0  0
   -3.2650   19.8850  -32.1080 C   0  0  0  0  0  0  0  0  0  0  0  0
   -2.1070   20.3080  -31.4350 C   0  0  0  0  0  0  0  0  0  0  0  0
   -2.1240   21.5660  -30.8370 C   0  0  0  0  0  0  0  0  0  0  0  0
   -1.1510   22.2100  -30.1090 C   0  0  0  0  0  0  0  0  0  0  0  0
   -1.7090   23.4360  -29.7520 C   0  0  0  0  0  0  0  0  0  0  0  0
   -0.9620   24.4880  -29.0310 C   0  0  0  0  0  0  0  0  0  0  0  0
   -1.4570   25.8220  -28.9610 N   0  0  0  0  0  0  0  0  0  0  0  0
    0.1540   24.2150  -28.5120 O   0  0  0  0  0  0  0  0  0  0  0  0
   -2.9790   23.5440  -30.2340 N   0  0  0  0  0  0  0  0  0  0  0  0
   -3.9180   24.6070  -30.0070 C   0  0  0  0  0  0  0  0  0  0  0  0
   -3.8760   25.6530  -30.7050 O   0  0  0  0  0  0  0  0  0  0  0  0
   -4.9000   24.4780  -29.0320 O   0  0  0  0  0  0  0  0  0  0  0  0
   -3.2180   22.3910  -30.8990 C   0  0  0  0  0  0  0  0  0  0  0  0
   -4.3910   21.9870  -31.5470 C   0  0  0  0  0  0  0  0  0  0  0  0
   -5.7260   18.3000  -34.4010 N   0  0  0  0  0  0  0  0  0  0  0  0
   -4.5480   17.8150  -35.0580 C   0  0  0  0  0  0  0  0  0  0  0  0
   -3.4510   17.7470  -34.4420 O   0  0  0  0  0  0  0  0  0  0  0  0
   -4.6140   17.4160  -36.3860 O   0  0  0  0  0  0  0  0  0  0  0  0
   -8.7295   19.4621  -30.8074 H   0  0  0  0  0  0  0  0  0  0  0  0
   -8.5099   20.6969  -32.0933 H   0  0  0  0  0  0  0  0  0  0  0  0
   -9.9696   19.6499  -32.0933 H   0  0  0  0  0  0  0  0  0  0  0  0
   -4.8380   18.3058  -32.4927 H   0  0  0  0  0  0  0  0  0  0  0  0
   -5.6162   20.6766  -33.9247 H   0  0  0  0  0  0  0  0  0  0  0  0
   -6.5292   20.6163  -32.3598 H   0  0  0  0  0  0  0  0  0  0  0  0
   -3.2802   18.9014  -32.6003 H   0  0  0  0  0  0  0  0  0  0  0  0
   -1.2151   19.6663  -31.3818 H   0  0  0  0  0  0  0  0  0  0  0  0
   -0.1463   21.8368  -29.8613 H   0  0  0  0  0  0  0  0  0  0  0  0
   -2.4830   26.0140  -28.9490 H   0  0  0  0  0  0  0  0  0  0  0  0
   -5.2725   22.6442  -31.5792 H   0  0  0  0  0  0  0  0  0  0  0  0
   -6.6110   18.3410  -34.9560 H   0  0  0  0  0  0  0  0  0  0  0  0
  1  2  1  0
  2  3  1  0
  3  4  2  0
  3  5  1  0
  5  6  1  0
  6  7  1  0
  7  8  2  0
  8  9  1  0
  9 10  2  0
 10 11  1  0
 11 12  2  0
 12 13  1  0
 13 14  1  0
 13 15  2  0
 12 16  1  0
 16 17  1  0
 17 18  2  0
 17 19  1  0
 16 20  1  0
 20 21  2  0
  5 22  1  0
 22 23  1  0
 23 24  2  0
 23 25  1  0
 21  7  1  0
 20 10  1  0
  1 26  1  0
  1 27  1  0
  1 28  1  0
  5 29  1  1
  6 30  1  0
  6 31  1  0
  8 32  1  0
  9 33  1  0
 11 34  1  0
 14 35  1  0
 21 36  1  0
 22 37  1  0
M  CHG  3  14  -1  19  -1  25  -1
M  END
>  <UniqueID>  (50) 
50

>  <SMILES>  (50) 
COC(=O)[C@H](Cc1ccc2cc(C([NH-])=O)n(C(=O)[O-])c2c1)NC(=O)[O-]

>  <Energy>  (50) 
70.05760109533054

>  <Genealogy>  (50) 
COC(=O)[C@H](Cc1ccc2cc(C([NH-])=O)n(C(=O)[O-])c2c1)NC(=O)[O-] (protonated)
COC(=O)[C@H](Cc1ccc2cc(C([NH-])=O)n(C(=O)[O-])c2c1)NC(=O)[O-] (3D coordinates assigned)
COC(=O)[C@H](Cc1ccc2cc(C([NH-])=O)n(C(=O)[O-])c2c1)NC(=O)[O-] (optimized conformer: 70.05760109533054 kcal/mol)

>  <smiles>  (50) 
COC(=O)[C@H](Cc1ccc2cc(C(N)=O)n(C(=O)O)c2c1)NC(=O)O

>  <score_type>  (50) 
oracle

>  <origin>  (50) 
adg

>  <m_score__min__energy>  (50) 
-11.119999999999999

>  <m_primary>  (50) 
energy

$$$$
50:0
     RDKit          3D

 36 37  0  0  0  0  0  0  0  0999 V2000
   -1.6400   25.6810  -28.9800 N   0  0  0  0  0  0  0  0  0  0  0  0
   -0.8930   24.4680  -28.9470 C   0  0  0  0  0  0  0  0  0  0  0  0
    0.3070   24.4780  -28.5680 O   0  0  0  0  0  0  0  0  0  0  0  0
   -1.5240   23.1860  -29.3910 C   0  0  0  0  0  0  0  0  0  0  0  0
   -2.8630   23.4160  -29.8220 O   0  0  0  0  0  0  0  0  0  0  0  0
   -3.4910   22.6550  -30.8150 C   0  0  0  0  0  0  0  0  0  0  0  0
   -2.8130   21.9080  -31.5710 O   0  0  0  0  0  0  0  0  0  0  0  0
   -4.9130   22.7450  -30.9880 N   0  0  0  0  0  0  0  0  0  0  0  0
   -5.7190   23.8200  -30.7500 C   0  0  0  0  0  0  0  0  0  0  0  0
   -5.2680   25.1860  -30.4120 C   0  0  0  0  0  0  0  0  0  0  0  0
   -3.9990   25.6690  -30.8450 N   0  0  0  0  0  0  0  0  0  0  0  0
   -6.0330   25.9540  -29.7710 O   0  0  0  0  0  0  0  0  0  0  0  0
   -7.0550   23.4830  -30.9550 C   0  0  0  0  0  0  0  0  0  0  0  0
   -7.0430   22.1610  -31.3380 C   0  0  0  0  0  0  0  0  0  0  0  0
   -8.0970   21.3140  -31.6600 C   0  0  0  0  0  0  0  0  0  0  0  0
   -7.7960   19.9820  -31.9960 C   0  0  0  0  0  0  0  0  0  0  0  0
   -6.4510   19.5180  -31.9910 C   0  0  0  0  0  0  0  0  0  0  0  0
   -6.1150   18.1560  -32.3240 N   0  0  0  0  0  0  0  0  0  0  0  0
   -6.4220   17.5080  -33.5990 C   0  0  0  0  0  0  0  0  0  0  0  0
   -5.6870   18.1940  -34.7500 C   0  0  0  0  0  0  0  0  0  0  0  0
   -4.6170   18.9220  -34.2590 F   0  0  0  0  0  0  0  0  0  0  0  0
   -5.4110   20.4150  -31.6620 C   0  0  0  0  0  0  0  0  0  0  0  0
   -5.7390   21.7400  -31.3510 C   0  0  0  0  0  0  0  0  0  0  0  0
   -2.6500   25.6820  -29.2430 H   0  0  0  0  0  0  0  0  0  0  0  0
   -0.9421   22.7648  -30.2241 H   0  0  0  0  0  0  0  0  0  0  0  0
   -1.5365   22.4822  -28.5457 H   0  0  0  0  0  0  0  0  0  0  0  0
   -3.1120   25.2690  -30.4630 H   0  0  0  0  0  0  0  0  0  0  0  0
   -7.9330   24.1349  -30.8361 H   0  0  0  0  0  0  0  0  0  0  0  0
   -9.1361   21.6750  -31.6522 H   0  0  0  0  0  0  0  0  0  0  0  0
   -8.6089   19.2917  -32.2655 H   0  0  0  0  0  0  0  0  0  0  0  0
   -5.6060   17.5840  -31.6130 H   0  0  0  0  0  0  0  0  0  0  0  0
   -6.1119   16.4537  -33.5511 H   0  0  0  0  0  0  0  0  0  0  0  0
   -7.5046   17.5821  -33.7793 H   0  0  0  0  0  0  0  0  0  0  0  0
   -5.3180   17.4322  -35.4526 H   0  0  0  0  0  0  0  0  0  0  0  0
   -6.3798   18.8735  -35.2680 H   0  0  0  0  0  0  0  0  0  0  0  0
   -4.3636   20.0791  -31.6503 H   0  0  0  0  0  0  0  0  0  0  0  0
  1  2  1  0
  2  3  2  0
  2  4  1  0
  4  5  1  0
  5  6  1  0
  6  7  2  0
  6  8  1  0
  8  9  1  0
  9 10  1  0
 10 11  1  0
 10 12  2  0
  9 13  2  0
 13 14  1  0
 14 15  2  0
 15 16  1  0
 16 17  2  0
 17 18  1  0
 18 19  1  0
 19 20  1  0
 20 21  1  0
 17 22  1  0
 22 23  2  0
 23  8  1  0
 23 14  1  0
  1 24  1  0
  4 25  1  0
  4 26  1  0
 11 27  1  0
 13 28  1  0
 15 29  1  0
 16 30  1  0
 18 31  1  0
 19 32  1  0
 19 33  1  0
 20 34  1  0
 20 35  1  0
 22 36  1  0
M  CHG  2   1  -1  11  -1
M  END
>  <UniqueID>  (51) 
51

>  <SMILES>  (51) 
[NH-]C(=O)COC(=O)n1c(C([NH-])=O)cc2ccc(NCCF)cc21

>  <Energy>  (51) 
69.68057750882976

>  <Genealogy>  (51) 
[NH-]C(=O)COC(=O)n1c(C([NH-])=O)cc2ccc(NCCF)cc21 (protonated)
[NH-]C(=O)COC(=O)n1c(C([NH-])=O)cc2ccc(NCCF)cc21 (3D coordinates assigned)
[NH-]C(=O)COC(=O)n1c(C([NH-])=O)cc2ccc(NCCF)cc21 (optimized conformer: 69.68057750882976 kcal/mol)

>  <smiles>  (51) 
NC(=O)COC(=O)n1c(C(N)=O)cc2ccc(NCCF)cc21

>  <score_type>  (51) 
oracle

>  <origin>  (51) 
adg

>  <m_score__min__energy>  (51) 
-11.84

>  <m_primary>  (51) 
energy

$$$$
51:0
     RDKit          3D

 39 40  0  0  0  0  0  0  0  0999 V2000
   -2.5400   20.7810  -32.5960 C   0  0  0  0  0  0  0  0  0  0  0  0
   -3.2350   21.8970  -32.7960 C   0  0  0  0  0  0  0  0  0  0  0  0
   -3.8490   22.6620  -31.6920 C   0  0  0  0  0  0  0  0  0  0  0  0
   -3.1230   23.2780  -30.8640 O   0  0  0  0  0  0  0  0  0  0  0  0
   -5.2790   22.7370  -31.5740 N   0  0  0  0  0  0  0  0  0  0  0  0
   -6.0050   23.6780  -30.9100 C   0  0  0  0  0  0  0  0  0  0  0  0
   -5.4640   24.8950  -30.2700 C   0  0  0  0  0  0  0  0  0  0  0  0
   -5.8870   25.3000  -28.9670 N   0  0  0  0  0  0  0  0  0  0  0  0
   -4.5790   25.5640  -30.8650 O   0  0  0  0  0  0  0  0  0  0  0  0
   -7.3600   23.3580  -30.9310 C   0  0  0  0  0  0  0  0  0  0  0  0
   -7.4440   22.1800  -31.6400 C   0  0  0  0  0  0  0  0  0  0  0  0
   -8.5530   21.4050  -31.9610 C   0  0  0  0  0  0  0  0  0  0  0  0
   -8.3400   20.2160  -32.6780 C   0  0  0  0  0  0  0  0  0  0  0  0
   -7.0320   19.8090  -33.0450 C   0  0  0  0  0  0  0  0  0  0  0  0
   -6.8680   18.5780  -33.7800 N   0  0  0  0  0  0  0  0  0  0  0  0
   -6.8310   17.2380  -33.1920 C   0  0  0  0  0  0  0  0  0  0  0  0
   -5.7950   16.3480  -33.8870 C   0  0  0  0  0  0  0  0  0  0  0  0
   -5.1350   17.0660  -34.9830 N   0  0  0  0  0  0  0  0  0  0  0  0
   -3.9870   17.8220  -34.4830 C   0  0  0  0  0  0  0  0  0  0  0  0
   -5.9270   20.6220  -32.6850 C   0  0  0  0  0  0  0  0  0  0  0  0
   -6.1730   21.8210  -32.0080 C   0  0  0  0  0  0  0  0  0  0  0  0
   -2.1012   20.2457  -33.4509 H   0  0  0  0  0  0  0  0  0  0  0  0
   -2.4039   20.3932  -31.5757 H   0  0  0  0  0  0  0  0  0  0  0  0
   -3.3575   22.2652  -33.8253 H   0  0  0  0  0  0  0  0  0  0  0  0
   -6.4670   24.6740  -28.3660 H   0  0  0  0  0  0  0  0  0  0  0  0
   -5.5320   26.1920  -28.5570 H   0  0  0  0  0  0  0  0  0  0  0  0
   -8.1868   23.9249  -30.4781 H   0  0  0  0  0  0  0  0  0  0  0  0
   -9.5658   21.7135  -31.6627 H   0  0  0  0  0  0  0  0  0  0  0  0
   -9.2006   19.5912  -32.9590 H   0  0  0  0  0  0  0  0  0  0  0  0
   -6.7840   18.6340  -34.8210 H   0  0  0  0  0  0  0  0  0  0  0  0
   -6.5722   17.3224  -32.1262 H   0  0  0  0  0  0  0  0  0  0  0  0
   -7.8220   16.7779  -33.3192 H   0  0  0  0  0  0  0  0  0  0  0  0
   -5.0372   16.0375  -33.1527 H   0  0  0  0  0  0  0  0  0  0  0  0
   -6.3106   15.4702  -34.3037 H   0  0  0  0  0  0  0  0  0  0  0  0
   -4.7630   16.3570  -35.6570 H   0  0  0  0  0  0  0  0  0  0  0  0
   -3.9953   17.8165  -33.3830 H   0  0  0  0  0  0  0  0  0  0  0  0
   -3.0572   17.3589  -34.8450 H   0  0  0  0  0  0  0  0  0  0  0  0
   -4.0451   18.8591  -34.8450 H   0  0  0  0  0  0  0  0  0  0  0  0
   -4.8997   20.3165  -32.9326 H   0  0  0  0  0  0  0  0  0  0  0  0
  1  2  2  0
  2  3  1  0
  3  4  2  0
  3  5  1  0
  5  6  1  0
  6  7  1  0
  7  8  1  0
  7  9  2  0
  6 10  2  0
 10 11  1  0
 11 12  2  0
 12 13  1  0
 13 14  2  0
 14 15  1  0
 15 16  1  0
 16 17  1  0
 17 18  1  0
 18 19  1  0
 14 20  1  0
 20 21  2  0
 21  5  1  0
 21 11  1  0
  1 22  1  0
  1 23  1  0
  2 24  1  0
  8 25  1  0
  8 26  1  0
 10 27  1  0
 12 28  1  0
 13 29  1  0
 15 30  1  0
 16 31  1  0
 16 32  1  0
 17 33  1  0
 17 34  1  0
 18 35  1  0
 19 36  1  0
 19 37  1  0
 19 38  1  0
 20 39  1  0
M  END
>  <UniqueID>  (52) 
52

>  <SMILES>  (52) 
C=CC(=O)n1c(C(N)=O)cc2ccc(NCCNC)cc21

>  <Energy>  (52) 
74.1655054897636

>  <Genealogy>  (52) 
C=CC(=O)n1c(C(N)=O)cc2ccc(NCCNC)cc21 (3D coordinates assigned)
C=CC(=O)n1c(C(N)=O)cc2ccc(NCCNC)cc21 (optimized conformer: 74.1655054897636 kcal/mol)

>  <smiles>  (52) 
C=CC(=O)n1c(C(N)=O)cc2ccc(NCCNC)cc21

>  <score_type>  (52) 
oracle

>  <origin>  (52) 
adg

>  <m_score__min__energy>  (52) 
-8.2400000000000002

>  <m_primary>  (52) 
energy

$$$$
52:0
     RDKit          3D

 40 41  0  0  0  0  0  0  0  0999 V2000
   -4.8690   18.6410  -34.2250 C   0  0  0  0  0  0  0  0  0  0  0  0
   -5.0720   19.8500  -33.4160 N   0  0  0  0  0  0  0  0  0  0  0  0
   -6.4140   20.4510  -33.3850 C   0  0  0  0  0  0  0  0  0  0  0  0
   -6.9160   20.6300  -31.9700 C   0  0  0  0  0  0  0  0  0  0  0  0
   -7.2150   19.6320  -31.3260 O   0  0  0  0  0  0  0  0  0  0  0  0
   -6.9890   21.9410  -31.3510 N   0  0  0  0  0  0  0  0  0  0  0  0
   -8.1280   21.9970  -30.4220 C   0  0  0  0  0  0  0  0  0  0  0  0
   -7.1030   22.9880  -32.3790 C   0  0  0  0  0  0  0  0  0  0  0  0
   -3.9790   20.3960  -32.6340 C   0  0  0  0  0  0  0  0  0  0  0  0
   -2.7520   19.6850  -32.5000 C   0  0  0  0  0  0  0  0  0  0  0  0
   -1.6980   20.1970  -31.7280 C   0  0  0  0  0  0  0  0  0  0  0  0
   -1.8830   21.4230  -31.1020 C   0  0  0  0  0  0  0  0  0  0  0  0
   -1.0390   22.1310  -30.2780 C   0  0  0  0  0  0  0  0  0  0  0  0
   -1.7420   23.2820  -29.9290 C   0  0  0  0  0  0  0  0  0  0  0  0
   -1.1640   24.3690  -29.1130 C   0  0  0  0  0  0  0  0  0  0  0  0
   -1.8500   25.6070  -28.9480 N   0  0  0  0  0  0  0  0  0  0  0  0
   -0.0260   24.2210  -28.5920 O   0  0  0  0  0  0  0  0  0  0  0  0
   -2.9760   23.2810  -30.5080 N   0  0  0  0  0  0  0  0  0  0  0  0
   -4.0330   24.2380  -30.3330 C   0  0  0  0  0  0  0  0  0  0  0  0
   -5.1320   23.8870  -29.8280 O   0  0  0  0  0  0  0  0  0  0  0  0
   -3.8620   25.5550  -30.7410 O   0  0  0  0  0  0  0  0  0  0  0  0
   -3.0450   22.1360  -31.2260 C   0  0  0  0  0  0  0  0  0  0  0  0
   -4.1210   21.6420  -31.9710 C   0  0  0  0  0  0  0  0  0  0  0  0
   -4.7237   17.7759  -33.5613 H   0  0  0  0  0  0  0  0  0  0  0  0
   -5.7514   18.4721  -34.8598 H   0  0  0  0  0  0  0  0  0  0  0  0
   -3.9799   18.7696  -34.8598 H   0  0  0  0  0  0  0  0  0  0  0  0
   -6.3752   21.4345  -33.8762 H   0  0  0  0  0  0  0  0  0  0  0  0
   -7.1042   19.7741  -33.9098 H   0  0  0  0  0  0  0  0  0  0  0  0
   -6.1200   22.1310  -30.8030 H   0  0  0  0  0  0  0  0  0  0  0  0
   -7.7577   21.9788  -29.3864 H   0  0  0  0  0  0  0  0  0  0  0  0
   -8.6949   22.9241  -30.5924 H   0  0  0  0  0  0  0  0  0  0  0  0
   -8.7832   21.1300  -30.5924 H   0  0  0  0  0  0  0  0  0  0  0  0
   -7.2098   23.9690  -31.8930 H   0  0  0  0  0  0  0  0  0  0  0  0
   -6.1993   22.9860  -33.0062 H   0  0  0  0  0  0  0  0  0  0  0  0
   -7.9851   22.7916  -33.0062 H   0  0  0  0  0  0  0  0  0  0  0  0
   -2.6286   18.7183  -33.0103 H   0  0  0  0  0  0  0  0  0  0  0  0
   -0.7532   19.6438  -31.6217 H   0  0  0  0  0  0  0  0  0  0  0  0
   -0.0241   21.8482  -29.9617 H   0  0  0  0  0  0  0  0  0  0  0  0
   -2.8760   25.6810  -29.1240 H   0  0  0  0  0  0  0  0  0  0  0  0
   -5.0606   22.2097  -32.0415 H   0  0  0  0  0  0  0  0  0  0  0  0
  1  2  1  0
  2  3  1  0
  3  4  1  0
  4  5  2  0
  4  6  1  0
  6  7  1  0
  6  8  1  0
  2  9  1  0
  9 10  2  0
 10 11  1  0
 11 12  2  0
 12 13  1  0
 13 14  2  0
 14 15  1  0
 15 16  1  0
 15 17  2  0
 14 18  1  0
 18 19  1  0
 19 20  2  0
 19 21  1  0
 18 22  1  0
 22 23  2  0
 23  9  1  0
 22 12  1  0
  1 24  1  0
  1 25  1  0
  1 26  1  0
  3 27  1  0
  3 28  1  0
  6 29  1  0
  7 30  1  0
  7 31  1  0
  7 32  1  0
  8 33  1  0
  8 34  1  0
  8 35  1  0
 10 36  1  0
 11 37  1  0
 13 38  1  0
 16 39  1  0
 23 40  1  0
M  CHG  3   6   1  16  -1  21  -1
M  END
>  <UniqueID>  (53) 
53

>  <SMILES>  (53) 
CN(CC(=O)[NH+](C)C)c1ccc2cc(C([NH-])=O)n(C(=O)[O-])c2c1

>  <Energy>  (53) 
81.52210665021089

>  <Genealogy>  (53) 
CN(CC(=O)[NH+](C)C)c1ccc2cc(C([NH-])=O)n(C(=O)[O-])c2c1 (protonated)
CN(CC(=O)[NH+](C)C)c1ccc2cc(C([NH-])=O)n(C(=O)[O-])c2c1 (3D coordinates assigned)
CN(CC(=O)[NH+](C)C)c1ccc2cc(C([NH-])=O)n(C(=O)[O-])c2c1 (optimized conformer: 81.52210665021089 kcal/mol)

>  <smiles>  (53) 
CN(C)C(=O)CN(C)c1ccc2cc(C(N)=O)n(C(=O)O)c2c1

>  <score_type>  (53) 
oracle

>  <origin>  (53) 
adg

>  <m_score__min__energy>  (53) 
-10.23

>  <m_primary>  (53) 
energy

$$$$
53:0
     RDKit          3D

 47 49  0  0  0  0  0  0  0  0999 V2000
   -3.3970   17.3520  -33.2900 C   0  0  0  0  0  0  0  0  0  0  0  0
   -4.5510   16.4540  -33.4770 N   0  0  0  0  0  0  0  0  0  0  0  0
   -5.3550   16.8330  -34.6600 C   0  0  0  0  0  0  0  0  0  0  0  0
   -6.0670   18.1830  -34.4600 C   0  0  0  0  0  0  0  0  0  0  0  0
   -6.5350   18.3210  -33.0770 N   0  0  0  0  0  0  0  0  0  0  0  0
   -6.8120   19.6270  -32.5340 C   0  0  0  0  0  0  0  0  0  0  0  0
   -8.1490   20.0930  -32.4430 C   0  0  0  0  0  0  0  0  0  0  0  0
   -8.4310   21.3670  -31.9210 C   0  0  0  0  0  0  0  0  0  0  0  0
   -7.3610   22.1570  -31.5130 C   0  0  0  0  0  0  0  0  0  0  0  0
   -7.3490   23.4170  -30.9580 C   0  0  0  0  0  0  0  0  0  0  0  0
   -6.0040   23.7150  -30.7520 C   0  0  0  0  0  0  0  0  0  0  0  0
   -5.5290   25.0100  -30.2210 C   0  0  0  0  0  0  0  0  0  0  0  0
   -4.2110   25.4900  -30.4970 N   0  0  0  0  0  0  0  0  0  0  0  0
   -6.3160   25.7270  -29.5470 O   0  0  0  0  0  0  0  0  0  0  0  0
   -5.2170   22.6740  -31.1450 N   0  0  0  0  0  0  0  0  0  0  0  0
   -3.7920   22.5410  -31.0160 C   0  0  0  0  0  0  0  0  0  0  0  0
   -3.0340   23.1660  -31.8050 O   0  0  0  0  0  0  0  0  0  0  0  0
   -3.2010   21.6710  -29.9890 C   0  0  0  0  0  0  0  0  0  0  0  0
   -3.6420   20.5010  -29.8220 O   0  0  0  0  0  0  0  0  0  0  0  0
   -2.1410   22.1490  -29.2100 O   0  0  0  0  0  0  0  0  0  0  0  0
   -2.2830   23.2080  -28.2650 C   0  0  0  0  0  0  0  0  0  0  0  0
   -1.5180   24.4100  -28.7150 C   0  0  0  0  0  0  0  0  0  0  0  0
   -2.0960   25.3290  -29.3520 O   0  0  0  0  0  0  0  0  0  0  0  0
   -0.1570   24.5040  -28.4550 O   0  0  0  0  0  0  0  0  0  0  0  0
   -6.0630   21.7310  -31.6150 C   0  0  0  0  0  0  0  0  0  0  0  0
   -5.7520   20.4630  -32.1140 C   0  0  0  0  0  0  0  0  0  0  0  0
   -6.6810   17.1110  -32.2630 C   0  0  0  0  0  0  0  0  0  0  0  0
   -5.3570   16.3240  -32.2340 C   0  0  0  0  0  0  0  0  0  0  0  0
   -3.2138   17.4946  -32.2148 H   0  0  0  0  0  0  0  0  0  0  0  0
   -2.5065   16.9069  -33.7578 H   0  0  0  0  0  0  0  0  0  0  0  0
   -3.6096   18.3246  -33.7578 H   0  0  0  0  0  0  0  0  0  0  0  0
   -4.6901   16.9073  -35.5332 H   0  0  0  0  0  0  0  0  0  0  0  0
   -6.1236   16.0609  -34.8121 H   0  0  0  0  0  0  0  0  0  0  0  0
   -5.3650   18.9989  -34.6870 H   0  0  0  0  0  0  0  0  0  0  0  0
   -6.9352   18.2288  -35.1339 H   0  0  0  0  0  0  0  0  0  0  0  0
   -8.9737   19.4502  -32.7847 H   0  0  0  0  0  0  0  0  0  0  0  0
   -9.4665   21.7286  -31.8375 H   0  0  0  0  0  0  0  0  0  0  0  0
   -8.2164   24.0526  -30.7267 H   0  0  0  0  0  0  0  0  0  0  0  0
   -3.6000   25.0210  -31.2000 H   0  0  0  0  0  0  0  0  0  0  0  0
   -3.8750   26.3760  -30.0590 H   0  0  0  0  0  0  0  0  0  0  0  0
   -3.3472   23.4696  -28.1702 H   0  0  0  0  0  0  0  0  0  0  0  0
   -1.8888   22.8759  -27.2932 H   0  0  0  0  0  0  0  0  0  0  0  0
   -4.7076   20.1237  -32.1784 H   0  0  0  0  0  0  0  0  0  0  0  0
   -6.9570   17.3950  -31.2368 H   0  0  0  0  0  0  0  0  0  0  0  0
   -7.4652   16.4766  -32.7019 H   0  0  0  0  0  0  0  0  0  0  0  0
   -4.7542   16.6914  -31.3904 H   0  0  0  0  0  0  0  0  0  0  0  0
   -5.6200   15.2606  -32.1339 H   0  0  0  0  0  0  0  0  0  0  0  0
  1  2  1  0
  2  3  1  0
  3  4  1  0
  4  5  1  0
  5  6  1  0
  6  7  2  0
  7  8  1  0
  8  9  2  0
  9 10  1  0
 10 11  2  0
 11 12  1  0
 12 13  1  0
 12 14  2  0
 11 15  1  0
 15 16  1  0
 16 17  2  0
 16 18  1  0
 18 19  2  0
 18 20  1  0
 20 21  1  0
 21 22  1  0
 22 23  2  0
 22 24  1  0
 15 25  1  0
 25 26  2  0
  5 27  1  0
 27 28  1  0
 28  2  1  0
 26  6  1  0
 25  9  1  0
  1 29  1  0
  1 30  1  0
  1 31  1  0
  3 32  1  0
  3 33  1  0
  4 34  1  0
  4 35  1  0
  7 36  1  0
  8 37  1  0
 10 38  1  0
 13 39  1  0
 13 40  1  0
 21 41  1  0
 21 42  1  0
 26 43  1  0
 27 44  1  0
 27 45  1  0
 28 46  1  0
 28 47  1  0
M  CHG  1  24  -1
M  END
>  <UniqueID>  (54) 
54

>  <SMILES>  (54) 
CN1CCN(c2ccc3cc(C(N)=O)n(C(=O)C(=O)OCC(=O)[O-])c3c2)CC1

>  <Energy>  (54) 
96.50327880881886

>  <Genealogy>  (54) 
CN1CCN(c2ccc3cc(C(N)=O)n(C(=O)C(=O)OCC(=O)[O-])c3c2)CC1 (protonated)
CN1CCN(c2ccc3cc(C(N)=O)n(C(=O)C(=O)OCC(=O)[O-])c3c2)CC1 (3D coordinates assigned)
CN1CCN(c2ccc3cc(C(N)=O)n(C(=O)C(=O)OCC(=O)[O-])c3c2)CC1 (nonaromatic ring conformer: 96.50327880881886 kcal/mol)

>  <smiles>  (54) 
CN1CCN(c2ccc3cc(C(N)=O)n(C(=O)C(=O)OCC(=O)O)c3c2)CC1

>  <score_type>  (54) 
oracle

>  <origin>  (54) 
adg

>  <m_score__min__energy>  (54) 
-10.94

>  <m_primary>  (54) 
energy

$$$$
54:0
     RDKit          3D

 41 42  0  0  0  0  0  0  0  0999 V2000
   -1.4410   25.6450  -25.7190 C   0  0  0  0  0  0  0  0  0  0  0  0
   -2.7100   25.4930  -26.3460 O   0  0  0  0  0  0  0  0  0  0  0  0
   -2.9470   24.5440  -27.3440 C   0  0  0  0  0  0  0  0  0  0  0  0
   -3.8760   23.6990  -27.2160 O   0  0  0  0  0  0  0  0  0  0  0  0
   -2.1020   24.5330  -28.5480 C   0  0  0  0  0  0  0  0  0  0  0  0
   -1.6110   25.6170  -28.9650 O   0  0  0  0  0  0  0  0  0  0  0  0
   -1.8580   23.2600  -29.3020 C   0  0  0  0  0  0  0  0  0  0  0  0
   -2.5550   23.2760  -30.5440 O   0  0  0  0  0  0  0  0  0  0  0  0
   -3.3910   22.2340  -30.9560 C   0  0  0  0  0  0  0  0  0  0  0  0
   -2.9310   21.0670  -31.0930 O   0  0  0  0  0  0  0  0  0  0  0  0
   -4.7800   22.4930  -31.2080 N   0  0  0  0  0  0  0  0  0  0  0  0
   -5.5040   23.5850  -30.8300 C   0  0  0  0  0  0  0  0  0  0  0  0
   -4.9620   24.8200  -30.2280 C   0  0  0  0  0  0  0  0  0  0  0  0
   -3.8800   25.5190  -30.8380 N   0  0  0  0  0  0  0  0  0  0  0  0
   -5.4910   25.2890  -29.1850 O   0  0  0  0  0  0  0  0  0  0  0  0
   -6.8470   23.4200  -31.1600 C   0  0  0  0  0  0  0  0  0  0  0  0
   -6.9240   22.1870  -31.7670 C   0  0  0  0  0  0  0  0  0  0  0  0
   -8.0240   21.5130  -32.2830 C   0  0  0  0  0  0  0  0  0  0  0  0
   -7.8200   20.2340  -32.8260 C   0  0  0  0  0  0  0  0  0  0  0  0
   -6.5260   19.6390  -32.8400 C   0  0  0  0  0  0  0  0  0  0  0  0
   -6.3280   18.3120  -33.3930 N   0  0  0  0  0  0  0  0  0  0  0  0
   -5.6570   18.1380  -34.6880 C   0  0  0  0  0  0  0  0  0  0  0  0
   -6.7860   17.1240  -32.6640 C   0  0  0  0  0  0  0  0  0  0  0  0
   -5.4350   20.3660  -32.2990 C   0  0  0  0  0  0  0  0  0  0  0  0
   -5.6660   21.6470  -31.7830 C   0  0  0  0  0  0  0  0  0  0  0  0
   -1.5677   25.6298  -24.6264 H   0  0  0  0  0  0  0  0  0  0  0  0
   -0.7806   24.8195  -26.0230 H   0  0  0  0  0  0  0  0  0  0  0  0
   -0.9942   26.6031  -26.0230 H   0  0  0  0  0  0  0  0  0  0  0  0
   -0.7800   23.1530  -29.4929 H   0  0  0  0  0  0  0  0  0  0  0  0
   -2.2216   22.4141  -28.7002 H   0  0  0  0  0  0  0  0  0  0  0  0
   -2.8900   25.2930  -30.5980 H   0  0  0  0  0  0  0  0  0  0  0  0
   -7.6708   24.1250  -30.9749 H   0  0  0  0  0  0  0  0  0  0  0  0
   -9.0254   21.9679  -32.2667 H   0  0  0  0  0  0  0  0  0  0  0  0
   -8.6735   19.6827  -33.2474 H   0  0  0  0  0  0  0  0  0  0  0  0
   -4.6044   17.8651  -34.5218 H   0  0  0  0  0  0  0  0  0  0  0  0
   -6.1575   17.3399  -35.2560 H   0  0  0  0  0  0  0  0  0  0  0  0
   -5.7066   19.0787  -35.2560 H   0  0  0  0  0  0  0  0  0  0  0  0
   -6.7151   17.3079  -31.5818 H   0  0  0  0  0  0  0  0  0  0  0  0
   -7.8312   16.9098  -32.9318 H   0  0  0  0  0  0  0  0  0  0  0  0
   -6.1551   16.2636  -32.9318 H   0  0  0  0  0  0  0  0  0  0  0  0
   -4.4248   19.9310  -32.2850 H   0  0  0  0  0  0  0  0  0  0  0  0
  1  2  1  0
  2  3  1  0
  3  4  2  0
  3  5  1  0
  5  6  2  0
  5  7  1  0
  7  8  1  0
  8  9  1  0
  9 10  2  0
  9 11  1  0
 11 12  1  0
 12 13  1  0
 13 14  1  0
 13 15  2  0
 12 16  2  0
 16 17  1  0
 17 18  2  0
 18 19  1  0
 19 20  2  0
 20 21  1  0
 21 22  1  0
 21 23  1  0
 20 24  1  0
 24 25  2  0
 25 11  1  0
 25 17  1  0
  1 26  1  0
  1 27  1  0
  1 28  1  0
  7 29  1  0
  7 30  1  0
 14 31  1  0
 16 32  1  0
 18 33  1  0
 19 34  1  0
 22 35  1  0
 22 36  1  0
 22 37  1  0
 23 38  1  0
 23 39  1  0
 23 40  1  0
 24 41  1  0
M  CHG  1  14  -1
M  END
>  <UniqueID>  (55) 
55

>  <SMILES>  (55) 
COC(=O)C(=O)COC(=O)n1c(C([NH-])=O)cc2ccc(N(C)C)cc21

>  <Energy>  (55) 
75.93642722813074

>  <Genealogy>  (55) 
COC(=O)C(=O)COC(=O)n1c(C([NH-])=O)cc2ccc(N(C)C)cc21 (protonated)
COC(=O)C(=O)COC(=O)n1c(C([NH-])=O)cc2ccc(N(C)C)cc21 (3D coordinates assigned)
COC(=O)C(=O)COC(=O)n1c(C([NH-])=O)cc2ccc(N(C)C)cc21 (optimized conformer: 75.93642722813074 kcal/mol)

>  <smiles>  (55) 
COC(=O)C(=O)COC(=O)n1c(C(N)=O)cc2ccc(N(C)C)cc21

>  <score_type>  (55) 
oracle

>  <origin>  (55) 
adg

>  <m_score__min__energy>  (55) 
-10.279999999999999

>  <m_primary>  (55) 
energy

$$$$
55:0
     RDKit          3D

 43 45  0  0  0  0  0  0  0  0999 V2000
   -0.8200   26.1870  -27.9400 C   0  0  0  0  0  0  0  0  0  0  0  0
   -1.7950   25.5490  -28.7340 O   0  0  0  0  0  0  0  0  0  0  0  0
   -2.5070   24.5870  -27.9740 C   0  0  0  0  0  0  0  0  0  0  0  0
   -2.5310   23.2540  -28.7220 C   0  0  0  0  0  0  0  0  0  0  0  0
   -2.2970   23.4500  -30.1150 O   0  0  0  0  0  0  0  0  0  0  0  0
   -2.6800   22.5300  -31.0970 C   0  0  0  0  0  0  0  0  0  0  0  0
   -1.8130   21.8450  -31.7050 O   0  0  0  0  0  0  0  0  0  0  0  0
   -4.0660   22.3960  -31.4430 N   0  0  0  0  0  0  0  0  0  0  0  0
   -5.0640   23.3040  -31.2550 C   0  0  0  0  0  0  0  0  0  0  0  0
   -4.9510   24.5700  -30.5020 C   0  0  0  0  0  0  0  0  0  0  0  0
   -3.9120   25.4930  -30.8170 N   0  0  0  0  0  0  0  0  0  0  0  0
   -5.7810   24.8600  -29.6010 O   0  0  0  0  0  0  0  0  0  0  0  0
   -6.2520   22.8460  -31.8240 C   0  0  0  0  0  0  0  0  0  0  0  0
   -5.9450   21.6220  -32.3730 C   0  0  0  0  0  0  0  0  0  0  0  0
   -6.7440   20.7330  -33.0850 C   0  0  0  0  0  0  0  0  0  0  0  0
   -6.1470   19.5590  -33.5760 C   0  0  0  0  0  0  0  0  0  0  0  0
   -4.7710   19.3010  -33.3570 C   0  0  0  0  0  0  0  0  0  0  0  0
   -4.1530   18.0680  -33.8950 C   0  0  0  0  0  0  0  0  0  0  0  0
   -4.7870   16.8600  -34.1110 C   0  0  0  0  0  0  0  0  0  0  0  0
   -6.1540   16.5130  -33.8260 C   0  0  0  0  0  0  0  0  0  0  0  0
   -7.2530   16.2340  -33.5970 N   0  0  0  0  0  0  0  0  0  0  0  0
   -3.8110   16.0140  -34.5960 C   0  0  0  0  0  0  0  0  0  0  0  0
   -2.6470   16.6870  -34.6800 N   0  0  0  0  0  0  0  0  0  0  0  0
   -2.8590   17.9280  -34.2640 N   0  0  0  0  0  0  0  0  0  0  0  0
   -1.8090   18.9420  -34.2290 C   0  0  0  0  0  0  0  0  0  0  0  0
   -3.9960   20.2220  -32.6180 C   0  0  0  0  0  0  0  0  0  0  0  0
   -4.6200   21.3750  -32.1300 C   0  0  0  0  0  0  0  0  0  0  0  0
   -1.0551   26.0331  -26.8765 H   0  0  0  0  0  0  0  0  0  0  0  0
    0.1697   25.7613  -28.1620 H   0  0  0  0  0  0  0  0  0  0  0  0
   -0.8139   27.2643  -28.1620 H   0  0  0  0  0  0  0  0  0  0  0  0
   -2.0127   24.4512  -27.0008 H   0  0  0  0  0  0  0  0  0  0  0  0
   -3.5385   24.9362  -27.8190 H   0  0  0  0  0  0  0  0  0  0  0  0
   -1.7485   22.5974  -28.3139 H   0  0  0  0  0  0  0  0  0  0  0  0
   -3.5223   22.7951  -28.5924 H   0  0  0  0  0  0  0  0  0  0  0  0
   -2.9190   25.2950  -30.5590 H   0  0  0  0  0  0  0  0  0  0  0  0
   -7.2272   23.3549  -31.8322 H   0  0  0  0  0  0  0  0  0  0  0  0
   -7.8099   20.9424  -33.2583 H   0  0  0  0  0  0  0  0  0  0  0  0
   -6.7544   18.8329  -34.1362 H   0  0  0  0  0  0  0  0  0  0  0  0
   -3.9595   14.9591  -34.8701 H   0  0  0  0  0  0  0  0  0  0  0  0
   -1.5632   19.1794  -33.1834 H   0  0  0  0  0  0  0  0  0  0  0  0
   -0.9125   18.5592  -34.7386 H   0  0  0  0  0  0  0  0  0  0  0  0
   -2.1603   19.8513  -34.7386 H   0  0  0  0  0  0  0  0  0  0  0  0
   -2.9279   20.0372  -32.4308 H   0  0  0  0  0  0  0  0  0  0  0  0
  1  2  1  0
  2  3  1  0
  3  4  1  0
  4  5  1  0
  5  6  1  0
  6  7  2  0
  6  8  1  0
  8  9  1  0
  9 10  1  0
 10 11  1  0
 10 12  2  0
  9 13  2  0
 13 14  1  0
 14 15  2  0
 15 16  1  0
 16 17  2  0
 17 18  1  0
 18 19  2  0
 19 20  1  0
 20 21  3  0
 19 22  1  0
 22 23  2  0
 23 24  1  0
 24 25  1  0
 17 26  1  0
 26 27  2  0
 27  8  1  0
 27 14  1  0
 24 18  1  0
  1 28  1  0
  1 29  1  0
  1 30  1  0
  3 31  1  0
  3 32  1  0
  4 33  1  0
  4 34  1  0
 11 35  1  0
 13 36  1  0
 15 37  1  0
 16 38  1  0
 22 39  1  0
 25 40  1  0
 25 41  1  0
 25 42  1  0
 26 43  1  0
M  CHG  1  11  -1
M  END
>  <UniqueID>  (56) 
56

>  <SMILES>  (56) 
COCCOC(=O)n1c(C([NH-])=O)cc2ccc(-c3c(C#N)cnn3C)cc21

>  <Energy>  (56) 
116.10165774687053

>  <Genealogy>  (56) 
COCCOC(=O)n1c(C([NH-])=O)cc2ccc(-c3c(C#N)cnn3C)cc21 (protonated)
COCCOC(=O)n1c(C([NH-])=O)cc2ccc(-c3c(C#N)cnn3C)cc21 (3D coordinates assigned)
COCCOC(=O)n1c(C([NH-])=O)cc2ccc(-c3c(C#N)cnn3C)cc21 (optimized conformer: 116.10165774687053 kcal/mol)

>  <smiles>  (56) 
COCCOC(=O)n1c(C(N)=O)cc2ccc(-c3c(C#N)cnn3C)cc21

>  <score_type>  (56) 
oracle

>  <origin>  (56) 
adg

>  <m_score__min__energy>  (56) 
-10.539999999999999

>  <m_primary>  (56) 
energy

$$$$
56:0
     RDKit          3D

 37 38  0  0  0  0  0  0  0  0999 V2000
   -6.1600   17.2770  -31.4010 C   0  0  0  0  0  0  0  0  0  0  0  0
   -6.4390   18.2350  -32.4780 N   0  0  0  0  0  0  0  0  0  0  0  0
   -6.4730   17.7540  -33.8650 C   0  0  0  0  0  0  0  0  0  0  0  0
   -6.6770   19.6340  -32.1760 C   0  0  0  0  0  0  0  0  0  0  0  0
   -7.9800   20.1920  -32.3010 C   0  0  0  0  0  0  0  0  0  0  0  0
   -8.2250   21.5410  -31.9950 C   0  0  0  0  0  0  0  0  0  0  0  0
   -7.1540   22.3200  -31.5750 C   0  0  0  0  0  0  0  0  0  0  0  0
   -7.1160   23.6410  -31.1920 C   0  0  0  0  0  0  0  0  0  0  0  0
   -5.7860   23.8930  -30.8610 C   0  0  0  0  0  0  0  0  0  0  0  0
   -5.2840   25.2270  -30.4720 C   0  0  0  0  0  0  0  0  0  0  0  0
   -3.9740   25.6520  -30.8370 N   0  0  0  0  0  0  0  0  0  0  0  0
   -6.0380   26.0200  -29.8490 O   0  0  0  0  0  0  0  0  0  0  0  0
   -5.0340   22.7670  -31.0260 N   0  0  0  0  0  0  0  0  0  0  0  0
   -3.6430   22.5820  -30.7270 C   0  0  0  0  0  0  0  0  0  0  0  0
   -2.7670   23.0390  -31.5100 O   0  0  0  0  0  0  0  0  0  0  0  0
   -3.2770   21.9110  -29.5530 O   0  0  0  0  0  0  0  0  0  0  0  0
   -2.1880   22.2460  -28.7380 C   0  0  0  0  0  0  0  0  0  0  0  0
   -1.2330   21.4440  -28.5600 O   0  0  0  0  0  0  0  0  0  0  0  0
   -2.1630   23.5850  -28.0730 C   0  0  0  0  0  0  0  0  0  0  0  0
   -1.1820   24.4810  -28.7580 C   0  0  0  0  0  0  0  0  0  0  0  0
    0.0230   24.1310  -28.8710 O   0  0  0  0  0  0  0  0  0  0  0  0
   -1.6070   25.6810  -29.3130 O   0  0  0  0  0  0  0  0  0  0  0  0
   -5.8870   21.8150  -31.4660 C   0  0  0  0  0  0  0  0  0  0  0  0
   -5.6150   20.4710  -31.7440 C   0  0  0  0  0  0  0  0  0  0  0  0
   -6.3030   17.7682  -30.4272 H   0  0  0  0  0  0  0  0  0  0  0  0
   -6.8463   16.4214  -31.4844 H   0  0  0  0  0  0  0  0  0  0  0  0
   -5.1216   16.9237  -31.4844 H   0  0  0  0  0  0  0  0  0  0  0  0
   -6.5506   16.6568  -33.8708 H   0  0  0  0  0  0  0  0  0  0  0  0
   -7.3429   18.1858  -34.3816 H   0  0  0  0  0  0  0  0  0  0  0  0
   -5.5510   18.0591  -34.3816 H   0  0  0  0  0  0  0  0  0  0  0  0
   -8.8098   19.5561  -32.6431 H   0  0  0  0  0  0  0  0  0  0  0  0
   -9.2348   21.9679  -32.0852 H   0  0  0  0  0  0  0  0  0  0  0  0
   -7.9575   24.3485  -31.1549 H   0  0  0  0  0  0  0  0  0  0  0  0
   -3.1460   25.0320  -30.6900 H   0  0  0  0  0  0  0  0  0  0  0  0
   -3.1651   24.0357  -28.1249 H   0  0  0  0  0  0  0  0  0  0  0  0
   -1.8628   23.4594  -27.0222 H   0  0  0  0  0  0  0  0  0  0  0  0
   -4.5969   20.0703  -31.6299 H   0  0  0  0  0  0  0  0  0  0  0  0
  1  2  1  0
  2  3  1  0
  2  4  1  0
  4  5  2  0
  5  6  1  0
  6  7  2  0
  7  8  1  0
  8  9  2  0
  9 10  1  0
 10 11  1  0
 10 12  2  0
  9 13  1  0
 13 14  1  0
 14 15  2  0
 14 16  1  0
 16 17  1  0
 17 18  2  0
 17 19  1  0
 19 20  1  0
 20 21  2  0
 20 22  1  0
 13 23  1  0
 23 24  2  0
 24  4  1  0
 23  7  1  0
  1 25  1  0
  1 26  1  0
  1 27  1  0
  3 28  1  0
  3 29  1  0
  3 30  1  0
  5 31  1  0
  6 32  1  0
  8 33  1  0
 11 34  1  0
 19 35  1  0
 19 36  1  0
 24 37  1  0
M  CHG  2  11  -1  22  -1
M  END
>  <UniqueID>  (57) 
57

>  <SMILES>  (57) 
CN(C)c1ccc2cc(C([NH-])=O)n(C(=O)OC(=O)CC(=O)[O-])c2c1

>  <Energy>  (57) 
75.65794305414501

>  <Genealogy>  (57) 
CN(C)c1ccc2cc(C([NH-])=O)n(C(=O)OC(=O)CC(=O)[O-])c2c1 (protonated)
CN(C)c1ccc2cc(C([NH-])=O)n(C(=O)OC(=O)CC(=O)[O-])c2c1 (3D coordinates assigned)
CN(C)c1ccc2cc(C([NH-])=O)n(C(=O)OC(=O)CC(=O)[O-])c2c1 (optimized conformer: 75.65794305414501 kcal/mol)

>  <smiles>  (57) 
CN(C)c1ccc2cc(C(N)=O)n(C(=O)OC(=O)CC(=O)O)c2c1

>  <score_type>  (57) 
oracle

>  <origin>  (57) 
adg

>  <m_score__min__energy>  (57) 
-12.470000000000001

>  <m_primary>  (57) 
energy

$$$$
57:0
     RDKit          3D

 43 44  0  0  0  0  0  0  0  0999 V2000
   -3.1190   19.2820  -33.7750 C   0  0  0  0  0  0  0  0  0  0  0  0
   -3.9630   18.2520  -34.2730 O   0  0  0  0  0  0  0  0  0  0  0  0
   -5.3580   18.3430  -34.2440 C   0  0  0  0  0  0  0  0  0  0  0  0
   -6.0120   18.5510  -35.3020 O   0  0  0  0  0  0  0  0  0  0  0  0
   -6.0760   18.2520  -32.9290 C   0  0  0  0  0  0  0  0  0  0  0  0
   -7.4370   18.8060  -33.0160 N   0  0  0  0  0  0  0  0  0  0  0  0
   -7.4840   20.1610  -32.5180 C   0  0  0  0  0  0  0  0  0  0  0  0
   -8.7320   20.7780  -32.2450 C   0  0  0  0  0  0  0  0  0  0  0  0
   -8.7890   22.0840  -31.7320 C   0  0  0  0  0  0  0  0  0  0  0  0
   -7.5880   22.7420  -31.4860 C   0  0  0  0  0  0  0  0  0  0  0  0
   -7.3560   24.0120  -31.0080 C   0  0  0  0  0  0  0  0  0  0  0  0
   -5.9680   24.1410  -30.9640 C   0  0  0  0  0  0  0  0  0  0  0  0
   -5.2790   25.3330  -30.4270 C   0  0  0  0  0  0  0  0  0  0  0  0
   -3.9600   25.6690  -30.8480 N   0  0  0  0  0  0  0  0  0  0  0  0
   -5.8440   26.0370  -29.5470 O   0  0  0  0  0  0  0  0  0  0  0  0
   -5.3670   23.0000  -31.4040 N   0  0  0  0  0  0  0  0  0  0  0  0
   -3.9650   22.7640  -31.5960 C   0  0  0  0  0  0  0  0  0  0  0  0
   -3.5520   22.2810  -32.6860 O   0  0  0  0  0  0  0  0  0  0  0  0
   -3.0610   23.0950  -30.5800 O   0  0  0  0  0  0  0  0  0  0  0  0
   -3.3270   22.8840  -29.1960 C   0  0  0  0  0  0  0  0  0  0  0  0
   -3.0650   24.1350  -28.4210 C   0  0  0  0  0  0  0  0  0  0  0  0
   -3.8150   24.4380  -27.4520 O   0  0  0  0  0  0  0  0  0  0  0  0
   -2.0140   24.9750  -28.8000 O   0  0  0  0  0  0  0  0  0  0  0  0
   -0.6480   24.6210  -28.6200 C   0  0  0  0  0  0  0  0  0  0  0  0
   -6.3730   22.1540  -31.7210 C   0  0  0  0  0  0  0  0  0  0  0  0
   -6.2850   20.8640  -32.2550 C   0  0  0  0  0  0  0  0  0  0  0  0
   -3.1316   19.2667  -32.6752 H   0  0  0  0  0  0  0  0  0  0  0  0
   -2.0915   19.1189  -34.1323 H   0  0  0  0  0  0  0  0  0  0  0  0
   -3.4809   20.2574  -34.1323 H   0  0  0  0  0  0  0  0  0  0  0  0
   -6.1390   17.1956  -32.6289 H   0  0  0  0  0  0  0  0  0  0  0  0
   -5.5125   18.8377  -32.1878 H   0  0  0  0  0  0  0  0  0  0  0  0
   -7.7780   18.7670  -34.0060 H   0  0  0  0  0  0  0  0  0  0  0  0
   -8.0800   18.2090  -32.4450 H   0  0  0  0  0  0  0  0  0  0  0  0
   -9.6648   20.2276  -32.4372 H   0  0  0  0  0  0  0  0  0  0  0  0
   -9.7540   22.5721  -31.5307 H   0  0  0  0  0  0  0  0  0  0  0  0
   -8.1055   24.7645  -30.7218 H   0  0  0  0  0  0  0  0  0  0  0  0
   -3.1250   25.2520  -30.3810 H   0  0  0  0  0  0  0  0  0  0  0  0
   -4.3800   22.5923  -29.0692 H   0  0  0  0  0  0  0  0  0  0  0  0
   -2.6676   22.0868  -28.8223 H   0  0  0  0  0  0  0  0  0  0  0  0
   -0.4229   24.5627  -27.5449 H   0  0  0  0  0  0  0  0  0  0  0  0
   -0.4577   23.6439  -29.0880 H   0  0  0  0  0  0  0  0  0  0  0  0
   -0.0071   25.3827  -29.0880 H   0  0  0  0  0  0  0  0  0  0  0  0
   -5.3067   20.4072  -32.4654 H   0  0  0  0  0  0  0  0  0  0  0  0
  1  2  1  0
  2  3  1  0
  3  4  2  0
  3  5  1  0
  5  6  1  0
  6  7  1  0
  7  8  2  0
  8  9  1  0
  9 10  2  0
 10 11  1  0
 11 12  2  0
 12 13  1  0
 13 14  1  0
 13 15  2  0
 12 16  1  0
 16 17  1  0
 17 18  2  0
 17 19  1  0
 19 20  1  0
 20 21  1  0
 21 22  2  0
 21 23  1  0
 23 24  1  0
 16 25  1  0
 25 26  2  0
 26  7  1  0
 25 10  1  0
  1 27  1  0
  1 28  1  0
  1 29  1  0
  5 30  1  0
  5 31  1  0
  6 32  1  0
  6 33  1  0
  8 34  1  0
  9 35  1  0
 11 36  1  0
 14 37  1  0
 20 38  1  0
 20 39  1  0
 24 40  1  0
 24 41  1  0
 24 42  1  0
 26 43  1  0
M  CHG  2   6   1  14  -1
M  END
>  <UniqueID>  (58) 
58

>  <SMILES>  (58) 
COC(=O)C[NH2+]c1ccc2cc(C([NH-])=O)n(C(=O)OCC(=O)OC)c2c1

>  <Energy>  (58) 
74.19001937862414

>  <Genealogy>  (58) 
COC(=O)C[NH2+]c1ccc2cc(C([NH-])=O)n(C(=O)OCC(=O)OC)c2c1 (protonated)
COC(=O)C[NH2+]c1ccc2cc(C([NH-])=O)n(C(=O)OCC(=O)OC)c2c1 (3D coordinates assigned)
COC(=O)C[NH2+]c1ccc2cc(C([NH-])=O)n(C(=O)OCC(=O)OC)c2c1 (optimized conformer: 74.19001937862414 kcal/mol)

>  <smiles>  (58) 
COC(=O)CNc1ccc2cc(C(N)=O)n(C(=O)OCC(=O)OC)c2c1

>  <score_type>  (58) 
oracle

>  <origin>  (58) 
adg

>  <m_score__min__energy>  (58) 
-9.3100000000000005

>  <m_primary>  (58) 
energy

$$$$
58:0
     RDKit          3D

 44 46  0  0  0  0  0  0  0  0999 V2000
   -3.4090   17.3870  -33.1690 C   0  0  0  0  0  0  0  0  0  0  0  0
   -4.5950   16.5650  -33.4650 N   0  0  0  0  0  0  0  0  0  0  0  0
   -5.2830   17.0130  -34.6950 C   0  0  0  0  0  0  0  0  0  0  0  0
   -5.9300   18.3970  -34.5160 C   0  0  0  0  0  0  0  0  0  0  0  0
   -6.4960   18.5360  -33.1700 N   0  0  0  0  0  0  0  0  0  0  0  0
   -6.7710   19.8430  -32.6300 C   0  0  0  0  0  0  0  0  0  0  0  0
   -8.1090   20.2940  -32.4880 C   0  0  0  0  0  0  0  0  0  0  0  0
   -8.3880   21.5660  -31.9620 C   0  0  0  0  0  0  0  0  0  0  0  0
   -7.3140   22.3590  -31.5700 C   0  0  0  0  0  0  0  0  0  0  0  0
   -7.2960   23.6340  -31.0530 C   0  0  0  0  0  0  0  0  0  0  0  0
   -5.9500   23.9340  -30.8540 C   0  0  0  0  0  0  0  0  0  0  0  0
   -5.4760   25.1920  -30.2390 C   0  0  0  0  0  0  0  0  0  0  0  0
   -4.1720   25.6820  -30.5410 N   0  0  0  0  0  0  0  0  0  0  0  0
   -6.2210   25.8570  -29.4720 O   0  0  0  0  0  0  0  0  0  0  0  0
   -5.1670   22.8860  -31.2370 N   0  0  0  0  0  0  0  0  0  0  0  0
   -3.7320   22.8100  -31.2390 C   0  0  0  0  0  0  0  0  0  0  0  0
   -3.1140   22.6010  -32.3180 O   0  0  0  0  0  0  0  0  0  0  0  0
   -3.0090   22.9540  -30.0120 N   0  0  0  0  0  0  0  0  0  0  0  0
   -1.5560   23.0310  -29.9360 C   0  0  0  0  0  0  0  0  0  0  0  0
   -1.1420   24.3080  -29.2800 C   0  0  0  0  0  0  0  0  0  0  0  0
   -1.9100   25.3060  -29.2990 O   0  0  0  0  0  0  0  0  0  0  0  0
    0.0750   24.3880  -28.6160 O   0  0  0  0  0  0  0  0  0  0  0  0
   -6.0160   21.9310  -31.6720 C   0  0  0  0  0  0  0  0  0  0  0  0
   -5.7090   20.6770  -32.2120 C   0  0  0  0  0  0  0  0  0  0  0  0
   -6.7710   17.3200  -32.3990 C   0  0  0  0  0  0  0  0  0  0  0  0
   -5.5000   16.4570  -32.2900 C   0  0  0  0  0  0  0  0  0  0  0  0
   -3.2851   17.4729  -32.0794 H   0  0  0  0  0  0  0  0  0  0  0  0
   -2.5165   16.9128  -33.6033 H   0  0  0  0  0  0  0  0  0  0  0  0
   -3.5398   18.3891  -33.6033 H   0  0  0  0  0  0  0  0  0  0  0  0
   -4.5502   17.0657  -35.5137 H   0  0  0  0  0  0  0  0  0  0  0  0
   -6.0799   16.2901  -34.9235 H   0  0  0  0  0  0  0  0  0  0  0  0
   -5.1670   19.1745  -34.6686 H   0  0  0  0  0  0  0  0  0  0  0  0
   -6.7397   18.5061  -35.2525 H   0  0  0  0  0  0  0  0  0  0  0  0
   -8.9382   19.6390  -32.7938 H   0  0  0  0  0  0  0  0  0  0  0  0
   -9.4233   21.9242  -31.8630 H   0  0  0  0  0  0  0  0  0  0  0  0
   -8.1611   24.2797  -30.8416 H   0  0  0  0  0  0  0  0  0  0  0  0
   -3.4040   25.0300  -30.8180 H   0  0  0  0  0  0  0  0  0  0  0  0
   -1.1770   22.1813  -29.3492 H   0  0  0  0  0  0  0  0  0  0  0  0
   -1.1405   22.9986  -30.9540 H   0  0  0  0  0  0  0  0  0  0  0  0
   -4.6640   20.3475  -32.3091 H   0  0  0  0  0  0  0  0  0  0  0  0
   -7.1079   17.5988  -31.3897 H   0  0  0  0  0  0  0  0  0  0  0  0
   -7.5536   16.7411  -32.9112 H   0  0  0  0  0  0  0  0  0  0  0  0
   -4.9438   16.7714  -31.3946 H   0  0  0  0  0  0  0  0  0  0  0  0
   -5.8297   15.4089  -32.2365 H   0  0  0  0  0  0  0  0  0  0  0  0
  1  2  1  0
  2  3  1  0
  3  4  1  0
  4  5  1  0
  5  6  1  0
  6  7  2  0
  7  8  1  0
  8  9  2  0
  9 10  1  0
 10 11  2  0
 11 12  1  0
 12 13  1  0
 12 14  2  0
 11 15  1  0
 15 16  1  0
 16 17  2  0
 16 18  1  0
 18 19  1  0
 19 20  1  0
 20 21  2  0
 20 22  1  0
 15 23  1  0
 23 24  2  0
  5 25  1  0
 25 26  1  0
 26  2  1  0
 24  6  1  0
 23  9  1  0
  1 27  1  0
  1 28  1  0
  1 29  1  0
  3 30  1  0
  3 31  1  0
  4 32  1  0
  4 33  1  0
  7 34  1  0
  8 35  1  0
 10 36  1  0
 13 37  1  0
 19 38  1  0
 19 39  1  0
 24 40  1  0
 25 41  1  0
 25 42  1  0
 26 43  1  0
 26 44  1  0
M  CHG  3  13  -1  18  -1  22  -1
M  END
>  <UniqueID>  (59) 
59

>  <SMILES>  (59) 
CN1CCN(c2ccc3cc(C([NH-])=O)n(C(=O)[N-]CC(=O)[O-])c3c2)CC1

>  <Energy>  (59) 
92.27327735891633

>  <Genealogy>  (59) 
CN1CCN(c2ccc3cc(C([NH-])=O)n(C(=O)[N-]CC(=O)[O-])c3c2)CC1 (protonated)
CN1CCN(c2ccc3cc(C([NH-])=O)n(C(=O)[N-]CC(=O)[O-])c3c2)CC1 (3D coordinates assigned)
CN1CCN(c2ccc3cc(C([NH-])=O)n(C(=O)[N-]CC(=O)[O-])c3c2)CC1 (nonaromatic ring conformer: 92.27327735891633 kcal/mol)

>  <smiles>  (59) 
CN1CCN(c2ccc3cc(C(N)=O)n(C(=O)NCC(=O)O)c3c2)CC1

>  <score_type>  (59) 
oracle

>  <origin>  (59) 
adg

>  <m_score__min__energy>  (59) 
-13.800000000000001

>  <m_primary>  (59) 
energy

$$$$
59:0
     RDKit          3D

 39 41  0  0  0  0  0  0  0  0999 V2000
   -1.2280   25.8900  -29.0400 N   0  0  0  0  0  0  0  0  0  0  0  0
   -1.4750   24.5870  -28.5160 C   0  0  0  0  0  0  0  0  0  0  0  0
   -1.3810   24.3930  -27.2760 O   0  0  0  0  0  0  0  0  0  0  0  0
   -1.8790   23.4950  -29.4250 C   0  0  0  0  0  0  0  0  0  0  0  0
   -1.1020   22.3610  -29.6550 C   0  0  0  0  0  0  0  0  0  0  0  0
   -1.7730   21.6470  -30.6200 C   0  0  0  0  0  0  0  0  0  0  0  0
   -1.4560   20.4310  -31.2180 C   0  0  0  0  0  0  0  0  0  0  0  0
   -2.3470   19.9130  -32.1720 C   0  0  0  0  0  0  0  0  0  0  0  0
   -3.5340   20.6120  -32.5060 C   0  0  0  0  0  0  0  0  0  0  0  0
   -4.4770   20.0510  -33.5400 C   0  0  0  0  0  0  0  0  0  0  0  0
   -5.2630   18.8340  -33.0230 C   0  0  0  0  0  0  0  0  0  0  0  0
   -5.9690   19.0690  -31.6750 C   0  0  0  0  0  0  0  0  0  0  0  0
   -7.1630   19.9830  -31.7920 C   0  0  0  0  0  0  0  0  0  0  0  0
   -8.3910   19.4940  -32.2650 C   0  0  0  0  0  0  0  0  0  0  0  0
   -9.4810   20.3600  -32.3730 C   0  0  0  0  0  0  0  0  0  0  0  0
   -9.3560   21.6650  -32.0130 N   0  0  0  0  0  0  0  0  0  0  0  0
   -8.1830   22.1620  -31.5400 C   0  0  0  0  0  0  0  0  0  0  0  0
   -7.0670   21.3320  -31.4170 C   0  0  0  0  0  0  0  0  0  0  0  0
   -3.8290   21.8380  -31.8680 C   0  0  0  0  0  0  0  0  0  0  0  0
   -2.9130   22.3410  -30.9380 C   0  0  0  0  0  0  0  0  0  0  0  0
   -2.9930   23.4770  -30.2100 N   0  0  0  0  0  0  0  0  0  0  0  0
   -4.0750   24.4250  -30.2230 C   0  0  0  0  0  0  0  0  0  0  0  0
   -5.1580   24.1610  -29.6370 O   0  0  0  0  0  0  0  0  0  0  0  0
   -3.9270   25.6510  -30.8590 O   0  0  0  0  0  0  0  0  0  0  0  0
   -1.2000   26.0580  -30.0700 H   0  0  0  0  0  0  0  0  0  0  0  0
   -0.1528   22.0936  -29.1677 H   0  0  0  0  0  0  0  0  0  0  0  0
   -0.5351   19.8917  -30.9514 H   0  0  0  0  0  0  0  0  0  0  0  0
   -2.1216   18.9557  -32.6647 H   0  0  0  0  0  0  0  0  0  0  0  0
   -5.1918   20.8359  -33.8281 H   0  0  0  0  0  0  0  0  0  0  0  0
   -3.8731   19.7188  -34.3973 H   0  0  0  0  0  0  0  0  0  0  0  0
   -6.0254   18.5717  -33.7713 H   0  0  0  0  0  0  0  0  0  0  0  0
   -4.5314   18.0285  -32.8621 H   0  0  0  0  0  0  0  0  0  0  0  0
   -6.3063   18.0989  -31.2811 H   0  0  0  0  0  0  0  0  0  0  0  0
   -5.2458   19.5534  -31.0024 H   0  0  0  0  0  0  0  0  0  0  0  0
   -8.4938   18.4361  -32.5485 H   0  0  0  0  0  0  0  0  0  0  0  0
  -10.4438   19.9852  -32.7505 H   0  0  0  0  0  0  0  0  0  0  0  0
   -8.1125   23.2216  -31.2531 H   0  0  0  0  0  0  0  0  0  0  0  0
   -6.1190   21.7327  -31.0288 H   0  0  0  0  0  0  0  0  0  0  0  0
   -4.7563   22.3835  -32.0971 H   0  0  0  0  0  0  0  0  0  0  0  0
  1  2  1  0
  2  3  2  0
  2  4  1  0
  4  5  2  0
  5  6  1  0
  6  7  2  0
  7  8  1  0
  8  9  2  0
  9 10  1  0
 10 11  1  0
 11 12  1  0
 12 13  1  0
 13 14  2  0
 14 15  1  0
 15 16  2  0
 16 17  1  0
 17 18  2  0
  9 19  1  0
 19 20  2  0
 20 21  1  0
 21 22  1  0
 22 23  2  0
 22 24  1  0
 21  4  1  0
 20  6  1  0
 18 13  1  0
  1 25  1  0
  5 26  1  0
  7 27  1  0
  8 28  1  0
 10 29  1  0
 10 30  1  0
 11 31  1  0
 11 32  1  0
 12 33  1  0
 12 34  1  0
 14 35  1  0
 15 36  1  0
 17 37  1  0
 18 38  1  0
 19 39  1  0
M  CHG  2   1  -1  24  -1
M  END
>  <UniqueID>  (60) 
60

>  <SMILES>  (60) 
[NH-]C(=O)c1cc2ccc(CCCc3ccncc3)cc2n1C(=O)[O-]

>  <Energy>  (60) 
76.76101426434033

>  <Genealogy>  (60) 
[NH-]C(=O)c1cc2ccc(CCCc3ccncc3)cc2n1C(=O)[O-] (protonated)
[NH-]C(=O)c1cc2ccc(CCCc3ccncc3)cc2n1C(=O)[O-] (3D coordinates assigned)
[NH-]C(=O)c1cc2ccc(CCCc3ccncc3)cc2n1C(=O)[O-] (optimized conformer: 76.76101426434033 kcal/mol)

>  <smiles>  (60) 
NC(=O)c1cc2ccc(CCCc3ccncc3)cc2n1C(=O)O

>  <score_type>  (60) 
oracle

>  <origin>  (60) 
adg

>  <m_score__min__energy>  (60) 
-12.24

>  <m_primary>  (60) 
energy

$$$$
60:0
     RDKit          3D

 28 29  0  0  0  0  0  0  0  0999 V2000
   -5.6270   18.1750  -34.7400 N   0  0  0  0  0  0  0  0  0  0  0  0
   -6.3400   18.2760  -33.8340 C   0  0  0  0  0  0  0  0  0  0  0  0
   -7.2420   18.4030  -32.6870 C   0  0  0  0  0  0  0  0  0  0  0  0
   -7.3300   19.8400  -32.2600 C   0  0  0  0  0  0  0  0  0  0  0  0
   -8.5750   20.5170  -32.2880 C   0  0  0  0  0  0  0  0  0  0  0  0
   -8.6670   21.8660  -31.9070 C   0  0  0  0  0  0  0  0  0  0  0  0
   -7.4970   22.5160  -31.5230 C   0  0  0  0  0  0  0  0  0  0  0  0
   -7.3010   23.8060  -31.0840 C   0  0  0  0  0  0  0  0  0  0  0  0
   -5.9350   23.9070  -30.8280 C   0  0  0  0  0  0  0  0  0  0  0  0
   -5.2780   25.1530  -30.3780 C   0  0  0  0  0  0  0  0  0  0  0  0
   -3.8770   25.3490  -30.5440 N   0  0  0  0  0  0  0  0  0  0  0  0
   -5.9710   26.0720  -29.8630 O   0  0  0  0  0  0  0  0  0  0  0  0
   -5.3110   22.7270  -31.1000 N   0  0  0  0  0  0  0  0  0  0  0  0
   -3.9270   22.4000  -30.9070 C   0  0  0  0  0  0  0  0  0  0  0  0
   -3.0830   22.7040  -31.7940 O   0  0  0  0  0  0  0  0  0  0  0  0
   -3.4700   21.7010  -29.6650 C   0  0  0  0  0  0  0  0  0  0  0  0
   -3.5930   22.8980  -28.1490 Br  0  0  0  0  0  0  0  0  0  0  0  0
   -6.2800   21.8840  -31.5190 C   0  0  0  0  0  0  0  0  0  0  0  0
   -6.1630   20.5360  -31.8730 C   0  0  0  0  0  0  0  0  0  0  0  0
   -8.2430   18.0448  -32.9693 H   0  0  0  0  0  0  0  0  0  0  0  0
   -6.8523   17.8014  -31.8526 H   0  0  0  0  0  0  0  0  0  0  0  0
   -9.4790   19.9802  -32.6116 H   0  0  0  0  0  0  0  0  0  0  0  0
   -9.6329   22.3923  -31.9119 H   0  0  0  0  0  0  0  0  0  0  0  0
   -8.0618   24.5910  -30.9613 H   0  0  0  0  0  0  0  0  0  0  0  0
   -3.5090   26.0510  -31.2230 H   0  0  0  0  0  0  0  0  0  0  0  0
   -4.1059   20.8212  -29.4871 H   0  0  0  0  0  0  0  0  0  0  0  0
   -2.4239   21.3854  -29.7922 H   0  0  0  0  0  0  0  0  0  0  0  0
   -5.1865   20.0302  -31.8507 H   0  0  0  0  0  0  0  0  0  0  0  0
  1  2  3  0
  2  3  1  0
  3  4  1  0
  4  5  2  0
  5  6  1  0
  6  7  2  0
  7  8  1  0
  8  9  2  0
  9 10  1  0
 10 11  1  0
 10 12  2  0
  9 13  1  0
 13 14  1  0
 14 15  2  0
 14 16  1  0
 16 17  1  0
 13 18  1  0
 18 19  2  0
 19  4  1  0
 18  7  1  0
  3 20  1  0
  3 21  1  0
  5 22  1  0
  6 23  1  0
  8 24  1  0
 11 25  1  0
 16 26  1  0
 16 27  1  0
 19 28  1  0
M  CHG  1  11  -1
M  END
>  <UniqueID>  (61) 
61

>  <SMILES>  (61) 
N#CCc1ccc2cc(C([NH-])=O)n(C(=O)CBr)c2c1

>  <Energy>  (61) 
64.9080543674162

>  <Genealogy>  (61) 
N#CCc1ccc2cc(C([NH-])=O)n(C(=O)CBr)c2c1 (protonated)
N#CCc1ccc2cc(C([NH-])=O)n(C(=O)CBr)c2c1 (3D coordinates assigned)
N#CCc1ccc2cc(C([NH-])=O)n(C(=O)CBr)c2c1 (optimized conformer: 64.9080543674162 kcal/mol)

>  <smiles>  (61) 
N#CCc1ccc2cc(C(N)=O)n(C(=O)CBr)c2c1

>  <score_type>  (61) 
oracle

>  <origin>  (61) 
adg

>  <m_score__min__energy>  (61) 
-10.539999999999999

>  <m_primary>  (61) 
energy

$$$$
61:0
     RDKit          3D

 42 44  0  0  0  0  0  0  0  0999 V2000
   -6.0950   18.4400  -33.9430 C   0  0  0  0  0  0  0  0  0  0  0  0
   -7.2050   18.5760  -32.9050 C   0  0  0  0  0  0  0  0  0  0  0  0
   -7.2860   19.9890  -32.3950 C   0  0  0  0  0  0  0  0  0  0  0  0
   -8.5440   20.5590  -32.0750 C   0  0  0  0  0  0  0  0  0  0  0  0
   -8.6300   21.8700  -31.5780 C   0  0  0  0  0  0  0  0  0  0  0  0
   -7.4450   22.5780  -31.3970 C   0  0  0  0  0  0  0  0  0  0  0  0
   -7.2410   23.8620  -30.9450 C   0  0  0  0  0  0  0  0  0  0  0  0
   -5.8590   24.0430  -30.9620 C   0  0  0  0  0  0  0  0  0  0  0  0
   -5.1930   25.2630  -30.4580 C   0  0  0  0  0  0  0  0  0  0  0  0
   -3.8630   25.5890  -30.8550 N   0  0  0  0  0  0  0  0  0  0  0  0
   -5.7880   26.0030  -29.6310 O   0  0  0  0  0  0  0  0  0  0  0  0
   -5.2350   22.9190  -31.4170 N   0  0  0  0  0  0  0  0  0  0  0  0
   -3.8320   22.7250  -31.6470 C   0  0  0  0  0  0  0  0  0  0  0  0
   -3.4420   22.1710  -32.7100 O   0  0  0  0  0  0  0  0  0  0  0  0
   -2.9120   23.1180  -30.6700 O   0  0  0  0  0  0  0  0  0  0  0  0
   -2.9550   22.6810  -29.3110 C   0  0  0  0  0  0  0  0  0  0  0  0
   -2.0030   23.5200  -28.4300 C   0  0  0  0  0  0  0  0  0  0  0  0
   -1.4070   22.7510  -27.2400 C   0  0  0  0  0  0  0  0  0  0  0  0
   -0.9670   24.2920  -29.2300 C   0  0  0  0  0  0  0  0  0  0  0  0
   -1.4910   25.5390  -28.8370 O   0  0  0  0  0  0  0  0  0  0  0  0
   -2.5000   24.9120  -28.0800 C   0  0  0  0  0  0  0  0  0  0  0  0
   -6.2190   22.0310  -31.6730 C   0  0  0  0  0  0  0  0  0  0  0  0
   -6.1040   20.7340  -32.1870 C   0  0  0  0  0  0  0  0  0  0  0  0
   -5.1280   18.3215  -33.4323 H   0  0  0  0  0  0  0  0  0  0  0  0
   -6.2876   17.5587  -34.5725 H   0  0  0  0  0  0  0  0  0  0  0  0
   -6.0692   19.3417  -34.5725 H   0  0  0  0  0  0  0  0  0  0  0  0
   -8.1657   18.3028  -33.3658 H   0  0  0  0  0  0  0  0  0  0  0  0
   -6.9830   17.9073  -32.0602 H   0  0  0  0  0  0  0  0  0  0  0  0
   -9.4614   19.9690  -32.2173 H   0  0  0  0  0  0  0  0  0  0  0  0
   -9.6034   22.3232  -31.3392 H   0  0  0  0  0  0  0  0  0  0  0  0
   -8.0056   24.5901  -30.6362 H   0  0  0  0  0  0  0  0  0  0  0  0
   -3.0400   25.2600  -30.3020 H   0  0  0  0  0  0  0  0  0  0  0  0
   -3.9822   22.7857  -28.9317 H   0  0  0  0  0  0  0  0  0  0  0  0
   -2.6349   21.6294  -29.2704 H   0  0  0  0  0  0  0  0  0  0  0  0
   -1.7567   23.2022  -26.2997 H   0  0  0  0  0  0  0  0  0  0  0  0
   -1.7288   21.7001  -27.2843 H   0  0  0  0  0  0  0  0  0  0  0  0
   -0.3090   22.8004  -27.2843 H   0  0  0  0  0  0  0  0  0  0  0  0
    0.0649   24.1233  -28.8883 H   0  0  0  0  0  0  0  0  0  0  0  0
   -0.8558   24.0767  -30.3030 H   0  0  0  0  0  0  0  0  0  0  0  0
   -2.4456   25.1388  -27.0050 H   0  0  0  0  0  0  0  0  0  0  0  0
   -3.5509   25.1669  -28.2814 H   0  0  0  0  0  0  0  0  0  0  0  0
   -5.1185   20.3060  -32.4229 H   0  0  0  0  0  0  0  0  0  0  0  0
  1  2  1  0
  2  3  1  0
  3  4  2  0
  4  5  1  0
  5  6  2  0
  6  7  1  0
  7  8  2  0
  8  9  1  0
  9 10  1  0
  9 11  2  0
  8 12  1  0
 12 13  1  0
 13 14  2  0
 13 15  1  0
 15 16  1  0
 16 17  1  0
 17 18  1  0
 17 19  1  0
 19 20  1  0
 20 21  1  0
 12 22  1  0
 22 23  2  0
 23  3  1  0
 22  6  1  0
 21 17  1  0
  1 24  1  0
  1 25  1  0
  1 26  1  0
  2 27  1  0
  2 28  1  0
  4 29  1  0
  5 30  1  0
  7 31  1  0
 10 32  1  0
 16 33  1  0
 16 34  1  0
 18 35  1  0
 18 36  1  0
 18 37  1  0
 19 38  1  0
 19 39  1  0
 21 40  1  0
 21 41  1  0
 23 42  1  0
M  CHG  1  10  -1
M  END
>  <UniqueID>  (62) 
62

>  <SMILES>  (62) 
CCc1ccc2cc(C([NH-])=O)n(C(=O)OCC3(C)COC3)c2c1

>  <Energy>  (62) 
140.2082078275988

>  <Genealogy>  (62) 
CCc1ccc2cc(C([NH-])=O)n(C(=O)OCC3(C)COC3)c2c1 (protonated)
CCc1ccc2cc(C([NH-])=O)n(C(=O)OCC3(C)COC3)c2c1 (3D coordinates assigned)
CCc1ccc2cc(C([NH-])=O)n(C(=O)OCC3(C)COC3)c2c1 (nonaromatic ring conformer: 140.2082078275988 kcal/mol)

>  <smiles>  (62) 
CCc1ccc2cc(C(N)=O)n(C(=O)OCC3(C)COC3)c2c1

>  <score_type>  (62) 
oracle

>  <origin>  (62) 
adg

>  <m_score__min__energy>  (62) 
-10.800000000000001

>  <m_primary>  (62) 
energy

$$$$
62:0
     RDKit          3D

 34 35  0  0  0  0  0  0  0  0999 V2000
   -3.9980   25.6710  -30.8520 N   0  0  0  0  0  0  0  0  0  0  0  0
   -5.2340   25.0860  -30.4470 C   0  0  0  0  0  0  0  0  0  0  0  0
   -5.9790   25.7120  -29.6480 O   0  0  0  0  0  0  0  0  0  0  0  0
   -5.6450   23.7790  -31.0010 C   0  0  0  0  0  0  0  0  0  0  0  0
   -6.9490   23.4880  -31.3930 C   0  0  0  0  0  0  0  0  0  0  0  0
   -6.9340   22.1610  -31.7570 C   0  0  0  0  0  0  0  0  0  0  0  0
   -7.9610   21.3510  -32.2330 C   0  0  0  0  0  0  0  0  0  0  0  0
   -7.6530   20.0180  -32.5540 C   0  0  0  0  0  0  0  0  0  0  0  0
   -6.3320   19.5280  -32.4120 C   0  0  0  0  0  0  0  0  0  0  0  0
   -6.0220   18.0910  -32.7420 C   0  0  0  0  0  0  0  0  0  0  0  0
   -6.1080   17.8370  -34.2510 C   0  0  0  0  0  0  0  0  0  0  0  0
   -5.9850   19.0350  -34.9690 O   0  0  0  0  0  0  0  0  0  0  0  0
   -5.3170   20.3760  -31.9180 C   0  0  0  0  0  0  0  0  0  0  0  0
   -5.6550   21.6940  -31.5880 C   0  0  0  0  0  0  0  0  0  0  0  0
   -4.8510   22.6770  -31.1240 N   0  0  0  0  0  0  0  0  0  0  0  0
   -3.4350   22.5850  -30.8940 C   0  0  0  0  0  0  0  0  0  0  0  0
   -2.7360   21.7870  -31.5760 O   0  0  0  0  0  0  0  0  0  0  0  0
   -2.8350   23.3980  -29.9270 O   0  0  0  0  0  0  0  0  0  0  0  0
   -1.5090   23.1840  -29.4590 C   0  0  0  0  0  0  0  0  0  0  0  0
   -0.9130   24.4910  -29.0580 C   0  0  0  0  0  0  0  0  0  0  0  0
    0.2410   24.5340  -28.5580 O   0  0  0  0  0  0  0  0  0  0  0  0
   -1.6080   25.6710  -29.2890 O   0  0  0  0  0  0  0  0  0  0  0  0
   -3.0890   25.3060  -30.4950 H   0  0  0  0  0  0  0  0  0  0  0  0
   -7.8090   24.1737  -31.4084 H   0  0  0  0  0  0  0  0  0  0  0  0
   -8.9820   21.7421  -32.3541 H   0  0  0  0  0  0  0  0  0  0  0  0
   -8.4458   19.3486  -32.9192 H   0  0  0  0  0  0  0  0  0  0  0  0
   -5.0049   17.8549  -32.3960 H   0  0  0  0  0  0  0  0  0  0  0  0
   -6.7617   17.4510  -32.2387 H   0  0  0  0  0  0  0  0  0  0  0  0
   -5.2979   17.1547  -34.5479 H   0  0  0  0  0  0  0  0  0  0  0  0
   -7.0882   17.3917  -34.4766 H   0  0  0  0  0  0  0  0  0  0  0  0
   -6.8810   19.2300  -35.3520 H   0  0  0  0  0  0  0  0  0  0  0  0
   -4.2868   20.0105  -31.7955 H   0  0  0  0  0  0  0  0  0  0  0  0
   -1.5297   22.5077  -28.5917 H   0  0  0  0  0  0  0  0  0  0  0  0
   -0.9037   22.7318  -30.2584 H   0  0  0  0  0  0  0  0  0  0  0  0
  1  2  1  0
  2  3  2  0
  2  4  1  0
  4  5  2  0
  5  6  1  0
  6  7  2  0
  7  8  1  0
  8  9  2  0
  9 10  1  0
 10 11  1  0
 11 12  1  0
  9 13  1  0
 13 14  2  0
 14 15  1  0
 15 16  1  0
 16 17  2  0
 16 18  1  0
 18 19  1  0
 19 20  1  0
 20 21  2  0
 20 22  1  0
 15  4  1  0
 14  6  1  0
  1 23  1  0
  5 24  1  0
  7 25  1  0
  8 26  1  0
 10 27  1  0
 10 28  1  0
 11 29  1  0
 11 30  1  0
 12 31  1  0
 13 32  1  0
 19 33  1  0
 19 34  1  0
M  CHG  2   1  -1  22  -1
M  END
>  <UniqueID>  (63) 
63

>  <SMILES>  (63) 
[NH-]C(=O)c1cc2ccc(CCO)cc2n1C(=O)OCC(=O)[O-]

>  <Energy>  (63) 
66.99173058694966

>  <Genealogy>  (63) 
[NH-]C(=O)c1cc2ccc(CCO)cc2n1C(=O)OCC(=O)[O-] (protonated)
[NH-]C(=O)c1cc2ccc(CCO)cc2n1C(=O)OCC(=O)[O-] (3D coordinates assigned)
[NH-]C(=O)c1cc2ccc(CCO)cc2n1C(=O)OCC(=O)[O-] (optimized conformer: 66.99173058694966 kcal/mol)

>  <smiles>  (63) 
NC(=O)c1cc2ccc(CCO)cc2n1C(=O)OCC(=O)O

>  <score_type>  (63) 
oracle

>  <origin>  (63) 
adg

>  <m_score__min__energy>  (63) 
-12.07

>  <m_primary>  (63) 
energy

$$$$
63:0
     RDKit          3D

 40 42  0  0  0  0  0  0  0  0999 V2000
   -0.0020   24.1310  -27.2990 C   0  0  0  0  0  0  0  0  0  0  0  0
   -0.1220   24.4050  -28.6890 O   0  0  0  0  0  0  0  0  0  0  0  0
   -1.3360   24.3020  -29.3750 C   0  0  0  0  0  0  0  0  0  0  0  0
   -2.1790   25.2390  -29.3360 O   0  0  0  0  0  0  0  0  0  0  0  0
   -1.6490   23.0520  -30.1350 C   0  0  0  0  0  0  0  0  0  0  0  0
   -2.9430   23.1400  -30.7270 O   0  0  0  0  0  0  0  0  0  0  0  0
   -4.0270   22.3510  -30.3240 C   0  0  0  0  0  0  0  0  0  0  0  0
   -3.8550   21.4000  -29.5120 O   0  0  0  0  0  0  0  0  0  0  0  0
   -5.3410   22.6290  -30.8310 N   0  0  0  0  0  0  0  0  0  0  0  0
   -6.0490   23.7870  -30.7050 C   0  0  0  0  0  0  0  0  0  0  0  0
   -5.5380   25.0560  -30.1520 C   0  0  0  0  0  0  0  0  0  0  0  0
   -4.2390   25.5420  -30.4910 N   0  0  0  0  0  0  0  0  0  0  0  0
   -6.2830   25.7520  -29.4110 O   0  0  0  0  0  0  0  0  0  0  0  0
   -7.3320   23.6370  -31.2250 C   0  0  0  0  0  0  0  0  0  0  0  0
   -7.3840   22.3430  -31.6940 C   0  0  0  0  0  0  0  0  0  0  0  0
   -8.4290   21.6540  -32.3010 C   0  0  0  0  0  0  0  0  0  0  0  0
   -8.2180   20.3120  -32.6520 C   0  0  0  0  0  0  0  0  0  0  0  0
   -6.9720   19.6760  -32.3830 C   0  0  0  0  0  0  0  0  0  0  0  0
   -6.7200   18.2220  -32.7380 C   0  0  0  0  0  0  0  0  0  0  0  0
   -6.4240   17.3160  -31.5630 C   0  0  0  0  0  0  0  0  0  0  0  0
   -5.1050   17.0740  -31.9940 O   0  0  0  0  0  0  0  0  0  0  0  0
   -5.2950   17.8940  -33.1250 C   0  0  0  0  0  0  0  0  0  0  0  0
   -5.9400   20.4130  -31.7620 C   0  0  0  0  0  0  0  0  0  0  0  0
   -6.1710   21.7550  -31.4440 C   0  0  0  0  0  0  0  0  0  0  0  0
   -0.3778   24.9891  -26.7224 H   0  0  0  0  0  0  0  0  0  0  0  0
   -0.5904   23.2357  -27.0496 H   0  0  0  0  0  0  0  0  0  0  0  0
    1.0550   23.9563  -27.0496 H   0  0  0  0  0  0  0  0  0  0  0  0
   -0.8976   22.9112  -30.9259 H   0  0  0  0  0  0  0  0  0  0  0  0
   -1.6320   22.1990  -29.4406 H   0  0  0  0  0  0  0  0  0  0  0  0
   -3.8760   26.4200  -30.0570 H   0  0  0  0  0  0  0  0  0  0  0  0
   -3.6680   25.0840  -31.2360 H   0  0  0  0  0  0  0  0  0  0  0  0
   -8.1327   24.3907  -31.2548 H   0  0  0  0  0  0  0  0  0  0  0  0
   -9.3922   22.1467  -32.4999 H   0  0  0  0  0  0  0  0  0  0  0  0
   -9.0239   19.7445  -33.1404 H   0  0  0  0  0  0  0  0  0  0  0  0
   -7.5830   18.0956  -33.4083 H   0  0  0  0  0  0  0  0  0  0  0  0
   -6.4803   17.8272  -30.5906 H   0  0  0  0  0  0  0  0  0  0  0  0
   -7.0867   16.4590  -31.3721 H   0  0  0  0  0  0  0  0  0  0  0  0
   -4.6332   18.7724  -33.1455 H   0  0  0  0  0  0  0  0  0  0  0  0
   -5.0974   17.4772  -34.1236 H   0  0  0  0  0  0  0  0  0  0  0  0
   -4.9733   19.9408  -31.5329 H   0  0  0  0  0  0  0  0  0  0  0  0
  1  2  1  0
  2  3  1  0
  3  4  2  0
  3  5  1  0
  5  6  1  0
  6  7  1  0
  7  8  2  0
  7  9  1  0
  9 10  1  0
 10 11  1  0
 11 12  1  0
 11 13  2  0
 10 14  2  0
 14 15  1  0
 15 16  2  0
 16 17  1  0
 17 18  2  0
 18 19  1  0
 19 20  1  0
 20 21  1  0
 21 22  1  0
 18 23  1  0
 23 24  2  0
 24  9  1  0
 24 15  1  0
 22 19  1  0
  1 25  1  0
  1 26  1  0
  1 27  1  0
  5 28  1  0
  5 29  1  0
 12 30  1  0
 12 31  1  0
 14 32  1  0
 16 33  1  0
 17 34  1  0
 19 35  1  0
 20 36  1  0
 20 37  1  0
 22 38  1  0
 22 39  1  0
 23 40  1  0
M  END
>  <UniqueID>  (64) 
64

>  <SMILES>  (64) 
COC(=O)COC(=O)n1c(C(N)=O)cc2ccc(C3COC3)cc21

>  <Energy>  (64) 
140.94212100438628

>  <Genealogy>  (64) 
COC(=O)COC(=O)n1c(C(N)=O)cc2ccc(C3COC3)cc21 (3D coordinates assigned)
COC(=O)COC(=O)n1c(C(N)=O)cc2ccc(C3COC3)cc21 (nonaromatic ring conformer: 140.94212100438628 kcal/mol)

>  <smiles>  (64) 
COC(=O)COC(=O)n1c(C(N)=O)cc2ccc(C3COC3)cc21

>  <score_type>  (64) 
oracle

>  <origin>  (64) 
adg

>  <m_score__min__energy>  (64) 
-9.2599999999999998

>  <m_primary>  (64) 
energy

$$$$
64:0
     RDKit          3D

 36 37  0  0  0  0  0  0  0  0999 V2000
   -5.2030   25.4650  -30.7230 N   0  0  0  0  0  0  0  0  0  0  0  0
   -6.4040   24.7860  -30.3510 C   0  0  0  0  0  0  0  0  0  0  0  0
   -7.1960   25.3400  -29.5430 O   0  0  0  0  0  0  0  0  0  0  0  0
   -6.7080   23.4390  -30.8800 C   0  0  0  0  0  0  0  0  0  0  0  0
   -7.9930   22.9870  -31.1750 C   0  0  0  0  0  0  0  0  0  0  0  0
   -7.8220   21.7380  -31.7300 C   0  0  0  0  0  0  0  0  0  0  0  0
   -8.7640   20.8360  -32.2150 C   0  0  0  0  0  0  0  0  0  0  0  0
   -8.3010   19.6130  -32.7270 C   0  0  0  0  0  0  0  0  0  0  0  0
   -6.9150   19.3030  -32.7270 C   0  0  0  0  0  0  0  0  0  0  0  0
   -6.4290   18.0050  -33.3180 C   0  0  0  0  0  0  0  0  0  0  0  0
   -5.2970   17.5600  -32.6570 F   0  0  0  0  0  0  0  0  0  0  0  0
   -6.1120   18.1660  -34.6570 F   0  0  0  0  0  0  0  0  0  0  0  0
   -7.4210   17.0500  -33.2030 F   0  0  0  0  0  0  0  0  0  0  0  0
   -5.9880   20.2580  -32.2490 C   0  0  0  0  0  0  0  0  0  0  0  0
   -6.4800   21.4720  -31.7560 C   0  0  0  0  0  0  0  0  0  0  0  0
   -5.7820   22.5050  -31.2360 N   0  0  0  0  0  0  0  0  0  0  0  0
   -4.3580   22.5500  -31.0500 C   0  0  0  0  0  0  0  0  0  0  0  0
   -3.6940   23.4870  -31.5690 O   0  0  0  0  0  0  0  0  0  0  0  0
   -3.6450   21.4040  -30.3870 C   0  0  0  0  0  0  0  0  0  0  0  0
   -2.1320   21.9240  -29.5880 S   0  0  0  0  0  0  0  0  0  0  0  0
   -1.5360   20.7640  -28.8400 O   0  0  0  0  0  0  0  0  0  0  0  0
   -1.1490   22.4130  -30.6150 O   0  0  0  0  0  0  0  0  0  0  0  0
   -2.5050   23.2410  -28.4450 C   0  0  0  0  0  0  0  0  0  0  0  0
   -2.1460   24.5610  -29.0430 C   0  0  0  0  0  0  0  0  0  0  0  0
   -0.9660   24.9910  -28.9660 O   0  0  0  0  0  0  0  0  0  0  0  0
   -3.1050   25.2980  -29.7270 O   0  0  0  0  0  0  0  0  0  0  0  0
   -4.9830   26.4010  -30.3140 H   0  0  0  0  0  0  0  0  0  0  0  0
   -4.5510   25.0670  -31.4340 H   0  0  0  0  0  0  0  0  0  0  0  0
   -8.9420   23.5154  -31.0015 H   0  0  0  0  0  0  0  0  0  0  0  0
   -9.8379   21.0735  -32.1979 H   0  0  0  0  0  0  0  0  0  0  0  0
   -9.0204   18.8865  -33.1329 H   0  0  0  0  0  0  0  0  0  0  0  0
   -4.9076   20.0519  -32.2643 H   0  0  0  0  0  0  0  0  0  0  0  0
   -4.3109   20.9614  -29.6316 H   0  0  0  0  0  0  0  0  0  0  0  0
   -3.3825   20.6727  -31.1656 H   0  0  0  0  0  0  0  0  0  0  0  0
   -3.5803   23.2275  -28.2137 H   0  0  0  0  0  0  0  0  0  0  0  0
   -1.9206   23.0934  -27.5248 H   0  0  0  0  0  0  0  0  0  0  0  0
  1  2  1  0
  2  3  2  0
  2  4  1  0
  4  5  2  0
  5  6  1  0
  6  7  2  0
  7  8  1  0
  8  9  2  0
  9 10  1  0
 10 11  1  0
 10 12  1  0
 10 13  1  0
  9 14  1  0
 14 15  2  0
 15 16  1  0
 16 17  1  0
 17 18  2  0
 17 19  1  0
 19 20  1  0
 20 21  2  0
 20 22  2  0
 20 23  1  0
 23 24  1  0
 24 25  2  0
 24 26  1  0
 16  4  1  0
 15  6  1  0
  1 27  1  0
  1 28  1  0
  5 29  1  0
  7 30  1  0
  8 31  1  0
 14 32  1  0
 19 33  1  0
 19 34  1  0
 23 35  1  0
 23 36  1  0
M  CHG  1  26  -1
M  END
>  <UniqueID>  (65) 
65

>  <SMILES>  (65) 
NC(=O)c1cc2ccc(C(F)(F)F)cc2n1C(=O)CS(=O)(=O)CC(=O)[O-]

>  <Energy>  (65) 
68.66622135899044

>  <Genealogy>  (65) 
NC(=O)c1cc2ccc(C(F)(F)F)cc2n1C(=O)CS(=O)(=O)CC(=O)[O-] (protonated)
NC(=O)c1cc2ccc(C(F)(F)F)cc2n1C(=O)CS(=O)(=O)CC(=O)[O-] (3D coordinates assigned)
NC(=O)c1cc2ccc(C(F)(F)F)cc2n1C(=O)CS(=O)(=O)CC(=O)[O-] (optimized conformer: 68.66622135899044 kcal/mol)

>  <smiles>  (65) 
NC(=O)c1cc2ccc(C(F)(F)F)cc2n1C(=O)CS(=O)(=O)CC(=O)O

>  <score_type>  (65) 
oracle

>  <origin>  (65) 
adg

>  <m_score__min__energy>  (65) 
-11.289999999999999

>  <m_primary>  (65) 
energy

$$$$
65:0
     RDKit          3D

 42 44  0  0  0  0  0  0  0  0999 V2000
   -6.5670   18.0330  -32.4660 C   0  0  0  0  0  0  0  0  0  0  0  0
   -6.7840   19.4960  -32.2240 C   0  0  0  0  0  0  0  0  0  0  0  0
   -8.0220   20.0950  -32.5610 C   0  0  0  0  0  0  0  0  0  0  0  0
   -8.2460   21.4600  -32.3150 C   0  0  0  0  0  0  0  0  0  0  0  0
   -7.2230   22.1920  -31.7180 C   0  0  0  0  0  0  0  0  0  0  0  0
   -7.1770   23.5220  -31.3730 C   0  0  0  0  0  0  0  0  0  0  0  0
   -5.9180   23.7100  -30.8150 C   0  0  0  0  0  0  0  0  0  0  0  0
   -5.4710   24.9990  -30.2660 C   0  0  0  0  0  0  0  0  0  0  0  0
   -4.1730   25.5080  -30.5730 N   0  0  0  0  0  0  0  0  0  0  0  0
   -6.2630   25.6850  -29.5670 O   0  0  0  0  0  0  0  0  0  0  0  0
   -5.2130   22.5440  -30.7890 N   0  0  0  0  0  0  0  0  0  0  0  0
   -3.9350   22.3060  -30.1640 C   0  0  0  0  0  0  0  0  0  0  0  0
   -3.7760   21.2970  -29.4250 O   0  0  0  0  0  0  0  0  0  0  0  0
   -2.8520   23.2200  -30.3680 N   0  0  0  0  0  0  0  0  0  0  0  0
   -2.2020   23.9700  -29.3380 C   0  0  0  0  0  0  0  0  0  0  0  0
   -1.6580   23.4320  -28.2290 N   0  0  0  0  0  0  0  0  0  0  0  0
   -1.1930   24.5400  -27.6120 C   0  0  0  0  0  0  0  0  0  0  0  0
   -0.4520   24.5150  -26.3030 C   0  0  0  0  0  0  0  0  0  0  0  0
   -0.3760   25.8360  -25.6410 N   0  0  0  0  0  0  0  0  0  0  0  0
    0.5720   25.8470  -24.5170 C   0  0  0  0  0  0  0  0  0  0  0  0
   -1.6980   26.3260  -25.2180 C   0  0  0  0  0  0  0  0  0  0  0  0
   -1.4390   25.6680  -28.3080 N   0  0  0  0  0  0  0  0  0  0  0  0
   -2.0680   25.2710  -29.3710 O   0  0  0  0  0  0  0  0  0  0  0  0
   -6.0290   21.6210  -31.3550 C   0  0  0  0  0  0  0  0  0  0  0  0
   -5.7750   20.2640  -31.6030 C   0  0  0  0  0  0  0  0  0  0  0  0
   -6.4893   17.5094  -31.5017 H   0  0  0  0  0  0  0  0  0  0  0  0
   -7.4146   17.6261  -33.0369 H   0  0  0  0  0  0  0  0  0  0  0  0
   -5.6378   17.8897  -33.0369 H   0  0  0  0  0  0  0  0  0  0  0  0
   -8.8153   19.4863  -33.0194 H   0  0  0  0  0  0  0  0  0  0  0  0
   -9.2001   21.9358  -32.5857 H   0  0  0  0  0  0  0  0  0  0  0  0
   -7.9668   24.2754  -31.5093 H   0  0  0  0  0  0  0  0  0  0  0  0
   -3.5400   24.9930  -31.2230 H   0  0  0  0  0  0  0  0  0  0  0  0
   -3.8560   26.4180  -30.1710 H   0  0  0  0  0  0  0  0  0  0  0  0
   -0.9648   23.8157  -25.6262 H   0  0  0  0  0  0  0  0  0  0  0  0
    0.5800   24.2037  -26.5220 H   0  0  0  0  0  0  0  0  0  0  0  0
    0.0157   25.8405  -23.5681 H   0  0  0  0  0  0  0  0  0  0  0  0
    1.2152   24.9563  -24.5711 H   0  0  0  0  0  0  0  0  0  0  0  0
    1.1943   26.7524  -24.5711 H   0  0  0  0  0  0  0  0  0  0  0  0
   -1.7479   26.3445  -24.1193 H   0  0  0  0  0  0  0  0  0  0  0  0
   -1.8549   27.3420  -25.6093 H   0  0  0  0  0  0  0  0  0  0  0  0
   -2.4792   25.6577  -25.6093 H   0  0  0  0  0  0  0  0  0  0  0  0
   -4.8138   19.8095  -31.3208 H   0  0  0  0  0  0  0  0  0  0  0  0
  1  2  1  0
  2  3  2  0
  3  4  1  0
  4  5  2  0
  5  6  1  0
  6  7  2  0
  7  8  1  0
  8  9  1  0
  8 10  2  0
  7 11  1  0
 11 12  1  0
 12 13  2  0
 12 14  1  0
 14 15  1  0
 15 16  2  0
 16 17  1  0
 17 18  1  0
 18 19  1  0
 19 20  1  0
 19 21  1  0
 17 22  2  0
 22 23  1  0
 11 24  1  0
 24 25  2  0
 25  2  1  0
 24  5  1  0
 23 15  1  0
  1 26  1  0
  1 27  1  0
  1 28  1  0
  3 29  1  0
  4 30  1  0
  6 31  1  0
  9 32  1  0
  9 33  1  0
 18 34  1  0
 18 35  1  0
 20 36  1  0
 20 37  1  0
 20 38  1  0
 21 39  1  0
 21 40  1  0
 21 41  1  0
 25 42  1  0
M  CHG  1  14  -1
M  END
>  <UniqueID>  (66) 
66

>  <SMILES>  (66) 
Cc1ccc2cc(C(N)=O)n(C(=O)[N-]c3nc(CN(C)C)no3)c2c1

>  <Energy>  (66) 
120.95370063812688

>  <Genealogy>  (66) 
Cc1ccc2cc(C(N)=O)n(C(=O)[N-]c3nc(CN(C)C)no3)c2c1 (protonated)
Cc1ccc2cc(C(N)=O)n(C(=O)[N-]c3nc(CN(C)C)no3)c2c1 (3D coordinates assigned)
Cc1ccc2cc(C(N)=O)n(C(=O)[N-]c3nc(CN(C)C)no3)c2c1 (optimized conformer: 120.95370063812688 kcal/mol)

>  <smiles>  (66) 
Cc1ccc2cc(C(N)=O)n(C(=O)Nc3nc(CN(C)C)no3)c2c1

>  <score_type>  (66) 
oracle

>  <origin>  (66) 
adg

>  <m_score__min__energy>  (66) 
-9.6600000000000001

>  <m_primary>  (66) 
energy

$$$$
66:0
     RDKit          3D

 39 40  0  0  0  0  0  0  0  0999 V2000
   -3.5200   25.6800  -29.9820 H   0  0  0  0  0  0  0  0  0  0  0  0
   -4.2180   25.6540  -30.7580 N   0  0  0  0  0  0  0  0  0  0  0  0
   -5.5760   25.2980  -30.5090 C   0  0  0  0  0  0  0  0  0  0  0  0
   -6.3070   26.0740  -29.8330 O   0  0  0  0  0  0  0  0  0  0  0  0
   -6.1240   24.0100  -30.9870 C   0  0  0  0  0  0  0  0  0  0  0  0
   -7.4730   23.8090  -31.2740 C   0  0  0  0  0  0  0  0  0  0  0  0
   -8.2769   24.5596  -31.2560 H   0  0  0  0  0  0  0  0  0  0  0  0
   -7.5870   22.4720  -31.5850 C   0  0  0  0  0  0  0  0  0  0  0  0
   -8.7060   21.7240  -31.9380 C   0  0  0  0  0  0  0  0  0  0  0  0
   -9.7017   22.1876  -31.9984 H   0  0  0  0  0  0  0  0  0  0  0  0
   -8.5250   20.3580  -32.2150 C   0  0  0  0  0  0  0  0  0  0  0  0
   -9.3935   19.7374  -32.4805 H   0  0  0  0  0  0  0  0  0  0  0  0
   -7.2340   19.7700  -32.1560 C   0  0  0  0  0  0  0  0  0  0  0  0
   -7.0410   18.2980  -32.4140 C   0  0  0  0  0  0  0  0  0  0  0  0
   -8.2670   17.6610  -32.3480 F   0  0  0  0  0  0  0  0  0  0  0  0
   -6.4860   18.0750  -33.6630 F   0  0  0  0  0  0  0  0  0  0  0  0
   -6.1980   17.7550  -31.4600 F   0  0  0  0  0  0  0  0  0  0  0  0
   -6.1260   20.5610  -31.7750 C   0  0  0  0  0  0  0  0  0  0  0  0
   -5.1193   20.1232  -31.7044 H   0  0  0  0  0  0  0  0  0  0  0  0
   -6.3400   21.9130  -31.4900 C   0  0  0  0  0  0  0  0  0  0  0  0
   -5.4290   22.8440  -31.1280 N   0  0  0  0  0  0  0  0  0  0  0  0
   -4.0190   22.6260  -30.9700 C   0  0  0  0  0  0  0  0  0  0  0  0
   -3.2780   22.6540  -31.9910 O   0  0  0  0  0  0  0  0  0  0  0  0
   -3.4500   22.4640  -29.6110 C   0  0  0  0  0  0  0  0  0  0  0  0
   -3.9485   23.0059  -28.7938 H   0  0  0  0  0  0  0  0  0  0  0  0
   -2.3750   21.7120  -29.2820 C   0  0  0  0  0  0  0  0  0  0  0  0
   -1.9070   21.6770  -27.8710 C   0  0  0  0  0  0  0  0  0  0  0  0
   -2.0120   20.6210  -27.1880 O   0  0  0  0  0  0  0  0  0  0  0  0
   -1.3510   22.8250  -27.2920 O   0  0  0  0  0  0  0  0  0  0  0  0
   -1.8410   24.1420  -27.5280 C   0  0  0  0  0  0  0  0  0  0  0  0
   -2.8744   24.0837  -27.9005 H   0  0  0  0  0  0  0  0  0  0  0  0
   -1.8123   24.7094  -26.5861 H   0  0  0  0  0  0  0  0  0  0  0  0
   -0.9890   24.8370  -28.5420 C   0  0  0  0  0  0  0  0  0  0  0  0
   -1.5010   25.6620  -29.3450 O   0  0  0  0  0  0  0  0  0  0  0  0
    0.3680   24.5490  -28.6260 O   0  0  0  0  0  0  0  0  0  0  0  0
   -1.6320   20.8940  -30.3150 C   0  0  0  0  0  0  0  0  0  0  0  0
   -0.9757   20.1715  -29.8078 H   0  0  0  0  0  0  0  0  0  0  0  0
   -2.3548   20.3540  -30.9442 H   0  0  0  0  0  0  0  0  0  0  0  0
   -1.0252   21.5617  -30.9442 H   0  0  0  0  0  0  0  0  0  0  0  0
  1  2  1  0
  2  3  1  0
  3  4  2  0
  3  5  1  0
  5  6  2  0
  6  7  1  0
  6  8  1  0
  8  9  2  0
  9 10  1  0
  9 11  1  0
 11 12  1  0
 11 13  2  0
 13 14  1  0
 14 15  1  0
 14 16  1  0
 14 17  1  0
 13 18  1  0
 18 19  1  0
 18 20  2  0
 20 21  1  0
 21 22  1  0
 22 23  2  0
 22 24  1  0
 24 25  1  0
 24 26  2  0
 26 27  1  0
 27 28  2  0
 27 29  1  0
 29 30  1  0
 30 31  1  0
 30 32  1  0
 30 33  1  0
 33 34  2  0
 33 35  1  0
 26 36  1  0
 36 37  1  0
 36 38  1  0
 36 39  1  0
 21  5  1  0
 20  8  1  0
M  CHG  2   2  -1  35  -1
M  END
>  <UniqueID>  (67) 
67

>  <SMILES>  (67) 
C/C(=C\C(=O)n1c(C([NH-])=O)cc2ccc(C(F)(F)F)cc21)C(=O)OCC(=O)[O-]

>  <Energy>  (67) 
80.6232726018507

>  <Genealogy>  (67) 
CC(=CC(=O)n1c(C([NH-])=O)cc2ccc(C(F)(F)F)cc21)C(=O)OCC(=O)[O-] (protonated)
C/C(=C\C(=O)n1c(C([NH-])=O)cc2ccc(C(F)(F)F)cc21)C(=O)OCC(=O)[O-] (cis-trans isomerization)
C/C(=C\C(=O)n1c(C([NH-])=O)cc2ccc(C(F)(F)F)cc21)C(=O)OCC(=O)[O-] (3D coordinates assigned)
C/C(=C\C(=O)n1c(C([NH-])=O)cc2ccc(C(F)(F)F)cc21)C(=O)OCC(=O)[O-] (optimized conformer: 80.6232726018507 kcal/mol)

>  <smiles>  (67) 
CC(=CC(=O)n1c(C(N)=O)cc2ccc(C(F)(F)F)cc21)C(=O)OCC(=O)O

>  <score_type>  (67) 
oracle

>  <origin>  (67) 
adg

>  <m_score__min__energy>  (67) 
-12.66

>  <m_primary>  (67) 
energy

$$$$
67:0
     RDKit          3D

 53 55  0  0  0  0  0  0  0  0999 V2000
   -6.7900   23.2610  -32.3840 C   0  0  0  0  0  0  0  0  0  0  0  0
   -7.7570   22.6730  -31.4410 N   0  0  0  0  0  0  0  0  0  0  0  0
   -8.1340   21.3190  -31.8950 C   0  0  0  0  0  0  0  0  0  0  0  0
   -7.1790   22.6450  -30.0770 C   0  0  0  0  0  0  0  0  0  0  0  0
   -6.4550   23.9620  -29.7410 C   0  0  0  0  0  0  0  0  0  0  0  0
   -5.0990   23.7250  -29.3690 O   0  0  0  0  0  0  0  0  0  0  0  0
   -3.9920   24.0380  -30.1690 C   0  0  0  0  0  0  0  0  0  0  0  0
   -3.9710   25.1040  -30.8470 O   0  0  0  0  0  0  0  0  0  0  0  0
   -2.8830   23.1230  -30.2160 N   0  0  0  0  0  0  0  0  0  0  0  0
   -1.5970   23.3670  -29.8430 C   0  0  0  0  0  0  0  0  0  0  0  0
   -1.1290   24.5290  -29.0600 C   0  0  0  0  0  0  0  0  0  0  0  0
   -1.9860   25.6440  -28.8290 N   0  0  0  0  0  0  0  0  0  0  0  0
    0.0190   24.5120  -28.5390 O   0  0  0  0  0  0  0  0  0  0  0  0
   -0.7660   22.3100  -30.2100 C   0  0  0  0  0  0  0  0  0  0  0  0
   -1.5960   21.3920  -30.8170 C   0  0  0  0  0  0  0  0  0  0  0  0
   -1.2990   20.1570  -31.3800 C   0  0  0  0  0  0  0  0  0  0  0  0
   -2.3500   19.4240  -31.9550 C   0  0  0  0  0  0  0  0  0  0  0  0
   -3.6750   19.9320  -31.9640 C   0  0  0  0  0  0  0  0  0  0  0  0
   -4.7550   19.1520  -32.5340 N   0  0  0  0  0  0  0  0  0  0  0  0
   -4.7280   18.7860  -33.9560 C   0  0  0  0  0  0  0  0  0  0  0  0
   -6.1410   18.4880  -34.4760 C   0  0  0  0  0  0  0  0  0  0  0  0
   -6.8600   17.4800  -33.6610 N   0  0  0  0  0  0  0  0  0  0  0  0
   -6.7170   16.1250  -34.2210 C   0  0  0  0  0  0  0  0  0  0  0  0
   -6.5290   17.4840  -32.2180 C   0  0  0  0  0  0  0  0  0  0  0  0
   -5.9420   18.8120  -31.7350 C   0  0  0  0  0  0  0  0  0  0  0  0
   -3.9360   21.2020  -31.3840 C   0  0  0  0  0  0  0  0  0  0  0  0
   -2.8700   21.9030  -30.8080 C   0  0  0  0  0  0  0  0  0  0  0  0
   -5.9821   23.7523  -31.8220 H   0  0  0  0  0  0  0  0  0  0  0  0
   -6.3663   22.4675  -33.0171 H   0  0  0  0  0  0  0  0  0  0  0  0
   -7.2996   24.0023  -33.0171 H   0  0  0  0  0  0  0  0  0  0  0  0
   -8.3131   20.6758  -31.0208 H   0  0  0  0  0  0  0  0  0  0  0  0
   -9.0501   21.3773  -32.5011 H   0  0  0  0  0  0  0  0  0  0  0  0
   -7.3196   20.8955  -32.5011 H   0  0  0  0  0  0  0  0  0  0  0  0
   -7.9887   22.4870  -29.3494 H   0  0  0  0  0  0  0  0  0  0  0  0
   -6.4447   21.8273  -30.0312 H   0  0  0  0  0  0  0  0  0  0  0  0
   -6.4754   24.6179  -30.6238 H   0  0  0  0  0  0  0  0  0  0  0  0
   -6.9708   24.4364  -28.8931 H   0  0  0  0  0  0  0  0  0  0  0  0
   -2.9570   25.6620  -29.2240 H   0  0  0  0  0  0  0  0  0  0  0  0
    0.3190   22.2263  -30.0497 H   0  0  0  0  0  0  0  0  0  0  0  0
   -0.2712   19.7650  -31.3755 H   0  0  0  0  0  0  0  0  0  0  0  0
   -2.1431   18.4418  -32.4049 H   0  0  0  0  0  0  0  0  0  0  0  0
   -4.3008   19.6191  -34.5335 H   0  0  0  0  0  0  0  0  0  0  0  0
   -4.1143   17.8806  -34.0725 H   0  0  0  0  0  0  0  0  0  0  0  0
   -6.7211   19.4226  -34.4686 H   0  0  0  0  0  0  0  0  0  0  0  0
   -6.0370   18.0758  -35.4905 H   0  0  0  0  0  0  0  0  0  0  0  0
   -6.6400   15.3957  -33.4012 H   0  0  0  0  0  0  0  0  0  0  0  0
   -7.5953   15.8895  -34.8400 H   0  0  0  0  0  0  0  0  0  0  0  0
   -5.8089   16.0780  -34.8400 H   0  0  0  0  0  0  0  0  0  0  0  0
   -7.4479   17.2808  -31.6485 H   0  0  0  0  0  0  0  0  0  0  0  0
   -5.7624   16.7116  -32.0576 H   0  0  0  0  0  0  0  0  0  0  0  0
   -6.6956   19.6058  -31.8446 H   0  0  0  0  0  0  0  0  0  0  0  0
   -5.6534   18.7184  -30.6777 H   0  0  0  0  0  0  0  0  0  0  0  0
   -4.9516   21.6246  -31.3874 H   0  0  0  0  0  0  0  0  0  0  0  0
  1  2  1  0
  2  3  1  0
  2  4  1  0
  4  5  1  0
  5  6  1  0
  6  7  1  0
  7  8  2  0
  7  9  1  0
  9 10  1  0
 10 11  1  0
 11 12  1  0
 11 13  2  0
 10 14  2  0
 14 15  1  0
 15 16  2  0
 16 17  1  0
 17 18  2  0
 18 19  1  0
 19 20  1  0
 20 21  1  0
 21 22  1  0
 22 23  1  0
 22 24  1  0
 24 25  1  0
 18 26  1  0
 26 27  2  0
 27  9  1  0
 27 15  1  0
 25 19  1  0
  1 28  1  0
  1 29  1  0
  1 30  1  0
  3 31  1  0
  3 32  1  0
  3 33  1  0
  4 34  1  0
  4 35  1  0
  5 36  1  0
  5 37  1  0
 12 38  1  0
 14 39  1  0
 16 40  1  0
 17 41  1  0
 20 42  1  0
 20 43  1  0
 21 44  1  0
 21 45  1  0
 23 46  1  0
 23 47  1  0
 23 48  1  0
 24 49  1  0
 24 50  1  0
 25 51  1  0
 25 52  1  0
 26 53  1  0
M  CHG  1  12  -1
M  END
>  <UniqueID>  (68) 
68

>  <SMILES>  (68) 
CN(C)CCOC(=O)n1c(C([NH-])=O)cc2ccc(N3CCN(C)CC3)cc21

>  <Energy>  (68) 
102.21867006661402

>  <Genealogy>  (68) 
CN(C)CCOC(=O)n1c(C([NH-])=O)cc2ccc(N3CCN(C)CC3)cc21 (protonated)
CN(C)CCOC(=O)n1c(C([NH-])=O)cc2ccc(N3CCN(C)CC3)cc21 (3D coordinates assigned)
CN(C)CCOC(=O)n1c(C([NH-])=O)cc2ccc(N3CCN(C)CC3)cc21 (nonaromatic ring conformer: 102.21867006661402 kcal/mol)

>  <smiles>  (68) 
CN(C)CCOC(=O)n1c(C(N)=O)cc2ccc(N3CCN(C)CC3)cc21

>  <score_type>  (68) 
oracle

>  <origin>  (68) 
adg

>  <m_score__min__energy>  (68) 
-10.630000000000001

>  <m_primary>  (68) 
energy

$$$$
68:0
     RDKit          3D

 32 33  0  0  0  0  0  0  0  0999 V2000
   -4.0370   22.7110  -28.3080 C   0  0  0  0  0  0  0  0  0  0  0  0
   -3.5430   22.0130  -29.5010 N   0  0  0  0  0  0  0  0  0  0  0  0
   -2.3130   21.2290  -29.3760 C   0  0  0  0  0  0  0  0  0  0  0  0
   -4.0230   22.3730  -30.8120 C   0  0  0  0  0  0  0  0  0  0  0  0
   -3.2250   22.3710  -31.7940 O   0  0  0  0  0  0  0  0  0  0  0  0
   -5.3990   22.7370  -31.0160 N   0  0  0  0  0  0  0  0  0  0  0  0
   -5.9810   23.9520  -30.8170 C   0  0  0  0  0  0  0  0  0  0  0  0
   -5.2850   25.1850  -30.4230 C   0  0  0  0  0  0  0  0  0  0  0  0
   -3.8790   25.3160  -30.6160 N   0  0  0  0  0  0  0  0  0  0  0  0
   -5.9430   26.1490  -29.9410 O   0  0  0  0  0  0  0  0  0  0  0  0
   -7.3640   23.8650  -30.9770 C   0  0  0  0  0  0  0  0  0  0  0  0
   -7.6130   22.5500  -31.3060 C   0  0  0  0  0  0  0  0  0  0  0  0
   -8.8170   21.8990  -31.5760 C   0  0  0  0  0  0  0  0  0  0  0  0
   -8.7730   20.5220  -31.8590 C   0  0  0  0  0  0  0  0  0  0  0  0
   -7.5380   19.8270  -31.8770 C   0  0  0  0  0  0  0  0  0  0  0  0
   -7.4860   18.3560  -32.2000 C   0  0  0  0  0  0  0  0  0  0  0  0
   -7.1170   18.1700  -33.5240 F   0  0  0  0  0  0  0  0  0  0  0  0
   -6.5660   17.6980  -31.4000 F   0  0  0  0  0  0  0  0  0  0  0  0
   -8.7370   17.7960  -31.9980 F   0  0  0  0  0  0  0  0  0  0  0  0
   -6.3360   20.5320  -31.6260 C   0  0  0  0  0  0  0  0  0  0  0  0
   -6.4120   21.8930  -31.3250 C   0  0  0  0  0  0  0  0  0  0  0  0
   -3.6735   22.1973  -27.4058 H   0  0  0  0  0  0  0  0  0  0  0  0
   -3.6708   23.7482  -28.3121 H   0  0  0  0  0  0  0  0  0  0  0  0
   -5.1370   22.7105  -28.3121 H   0  0  0  0  0  0  0  0  0  0  0  0
   -2.0796   21.0802  -28.3114 H   0  0  0  0  0  0  0  0  0  0  0  0
   -2.4503   20.2515  -29.8613 H   0  0  0  0  0  0  0  0  0  0  0  0
   -1.4848   21.7662  -29.8613 H   0  0  0  0  0  0  0  0  0  0  0  0
   -3.4850   26.0500  -31.2530 H   0  0  0  0  0  0  0  0  0  0  0  0
   -8.1001   24.6746  -30.8644 H   0  0  0  0  0  0  0  0  0  0  0  0
   -9.7714   22.4459  -31.5678 H   0  0  0  0  0  0  0  0  0  0  0  0
   -9.7065   19.9791  -32.0685 H   0  0  0  0  0  0  0  0  0  0  0  0
   -5.3640   20.0187  -31.6673 H   0  0  0  0  0  0  0  0  0  0  0  0
  1  2  1  0
  2  3  1  0
  2  4  1  0
  4  5  2  0
  4  6  1  0
  6  7  1  0
  7  8  1  0
  8  9  1  0
  8 10  2  0
  7 11  2  0
 11 12  1  0
 12 13  2  0
 13 14  1  0
 14 15  2  0
 15 16  1  0
 16 17  1  0
 16 18  1  0
 16 19  1  0
 15 20  1  0
 20 21  2  0
 21  6  1  0
 21 12  1  0
  1 22  1  0
  1 23  1  0
  1 24  1  0
  3 25  1  0
  3 26  1  0
  3 27  1  0
  9 28  1  0
 11 29  1  0
 13 30  1  0
 14 31  1  0
 20 32  1  0
M  CHG  1   9  -1
M  END
>  <UniqueID>  (69) 
69

>  <SMILES>  (69) 
CN(C)C(=O)n1c(C([NH-])=O)cc2ccc(C(F)(F)F)cc21

>  <Energy>  (69) 
75.20965094420596

>  <Genealogy>  (69) 
CN(C)C(=O)n1c(C([NH-])=O)cc2ccc(C(F)(F)F)cc21 (protonated)
CN(C)C(=O)n1c(C([NH-])=O)cc2ccc(C(F)(F)F)cc21 (3D coordinates assigned)
CN(C)C(=O)n1c(C([NH-])=O)cc2ccc(C(F)(F)F)cc21 (optimized conformer: 75.20965094420596 kcal/mol)

>  <smiles>  (69) 
CN(C)C(=O)n1c(C(N)=O)cc2ccc(C(F)(F)F)cc21

>  <score_type>  (69) 
oracle

>  <origin>  (69) 
adg

>  <m_score__min__energy>  (69) 
-9.8200000000000003

>  <m_primary>  (69) 
energy

$$$$
69:0
     RDKit          3D

 31 33  0  0  0  0  0  0  0  0999 V2000
   -4.2270   25.6740  -30.5390 N   0  0  0  0  0  0  0  0  0  0  0  0
   -5.5790   25.2990  -30.2820 C   0  0  0  0  0  0  0  0  0  0  0  0
   -6.3130   26.0660  -29.6050 O   0  0  0  0  0  0  0  0  0  0  0  0
   -6.1190   24.0130  -30.7740 C   0  0  0  0  0  0  0  0  0  0  0  0
   -7.4490   23.8250  -31.1470 C   0  0  0  0  0  0  0  0  0  0  0  0
   -7.5450   22.4960  -31.4980 C   0  0  0  0  0  0  0  0  0  0  0  0
   -8.6380   21.7640  -31.9490 C   0  0  0  0  0  0  0  0  0  0  0  0
   -8.4420   20.4050  -32.2520 C   0  0  0  0  0  0  0  0  0  0  0  0
   -7.1580   19.8120  -32.1270 C   0  0  0  0  0  0  0  0  0  0  0  0
   -6.9680   18.3440  -32.4140 C   0  0  0  0  0  0  0  0  0  0  0  0
   -8.1860   17.6990  -32.3080 F   0  0  0  0  0  0  0  0  0  0  0  0
   -6.4670   18.1560  -33.6910 F   0  0  0  0  0  0  0  0  0  0  0  0
   -6.0810   17.7810  -31.5140 F   0  0  0  0  0  0  0  0  0  0  0  0
   -6.0770   20.5870  -31.6470 C   0  0  0  0  0  0  0  0  0  0  0  0
   -6.3090   21.9310  -31.3360 C   0  0  0  0  0  0  0  0  0  0  0  0
   -5.4260   22.8470  -30.8860 N   0  0  0  0  0  0  0  0  0  0  0  0
   -4.0260   22.6320  -30.6590 C   0  0  0  0  0  0  0  0  0  0  0  0
   -3.2900   22.2650  -31.6140 O   0  0  0  0  0  0  0  0  0  0  0  0
   -3.4400   22.8410  -29.3250 C   0  0  0  0  0  0  0  0  0  0  0  0
   -3.5470   23.9900  -28.6220 N   0  0  0  0  0  0  0  0  0  0  0  0
   -2.9310   23.9190  -27.4110 C   0  0  0  0  0  0  0  0  0  0  0  0
   -2.9120   25.2700  -26.2940 Cl  0  0  0  0  0  0  0  0  0  0  0  0
   -2.3260   22.7010  -27.1300 C   0  0  0  0  0  0  0  0  0  0  0  0
   -2.5780   21.6880  -28.4500 S   0  0  0  0  0  0  0  0  0  0  0  0
   -3.5150   25.6730  -29.7760 H   0  0  0  0  0  0  0  0  0  0  0  0
   -8.2512   24.5775  -31.1586 H   0  0  0  0  0  0  0  0  0  0  0  0
   -9.6258   22.2338  -32.0652 H   0  0  0  0  0  0  0  0  0  0  0  0
   -9.2926   19.7947  -32.5895 H   0  0  0  0  0  0  0  0  0  0  0  0
   -5.0781   20.1439  -31.5212 H   0  0  0  0  0  0  0  0  0  0  0  0
   -4.0440   24.8430  -28.9650 H   0  0  0  0  0  0  0  0  0  0  0  0
   -1.7802   22.4445  -26.2100 H   0  0  0  0  0  0  0  0  0  0  0  0
  1  2  1  0
  2  3  2  0
  2  4  1  0
  4  5  2  0
  5  6  1  0
  6  7  2  0
  7  8  1  0
  8  9  2  0
  9 10  1  0
 10 11  1  0
 10 12  1  0
 10 13  1  0
  9 14  1  0
 14 15  2  0
 15 16  1  0
 16 17  1  0
 17 18  2  0
 17 19  1  0
 19 20  2  0
 20 21  1  0
 21 22  1  0
 21 23  2  0
 23 24  1  0
 16  4  1  0
 24 19  1  0
 15  6  1  0
  1 25  1  0
  5 26  1  0
  7 27  1  0
  8 28  1  0
 14 29  1  0
 20 30  1  0
 23 31  1  0
M  CHG  2   1  -1  20   1
M  END
>  <UniqueID>  (70) 
70

>  <SMILES>  (70) 
[NH-]C(=O)c1cc2ccc(C(F)(F)F)cc2n1C(=O)c1[nH+]c(Cl)cs1

>  <Energy>  (70) 
102.41325608363198

>  <Genealogy>  (70) 
[NH-]C(=O)c1cc2ccc(C(F)(F)F)cc2n1C(=O)c1[nH+]c(Cl)cs1 (protonated)
[NH-]C(=O)c1cc2ccc(C(F)(F)F)cc2n1C(=O)c1[nH+]c(Cl)cs1 (3D coordinates assigned)
[NH-]C(=O)c1cc2ccc(C(F)(F)F)cc2n1C(=O)c1[nH+]c(Cl)cs1 (optimized conformer: 102.41325608363198 kcal/mol)

>  <smiles>  (70) 
NC(=O)c1cc2ccc(C(F)(F)F)cc2n1C(=O)c1nc(Cl)cs1

>  <score_type>  (70) 
oracle

>  <origin>  (70) 
adg

>  <m_score__min__energy>  (70) 
-9.5700000000000003

>  <m_primary>  (70) 
energy

$$$$
70:0
     RDKit          3D

 36 37  0  0  0  0  0  0  0  0999 V2000
   -4.1290   24.5370  -27.1080 C   0  0  0  0  0  0  0  0  0  0  0  0
   -2.6930   24.0500  -27.2520 C   0  0  0  0  0  0  0  0  0  0  0  0
   -2.1730   24.3460  -28.6210 C   0  0  0  0  0  0  0  0  0  0  0  0
   -1.8270   25.5200  -28.9220 O   0  0  0  0  0  0  0  0  0  0  0  0
   -2.0490   23.3030  -29.5470 O   0  0  0  0  0  0  0  0  0  0  0  0
   -3.0860   22.3590  -29.8090 C   0  0  0  0  0  0  0  0  0  0  0  0
   -3.7840   22.6570  -31.1060 C   0  0  0  0  0  0  0  0  0  0  0  0
   -3.1100   22.6860  -32.1700 O   0  0  0  0  0  0  0  0  0  0  0  0
   -5.2030   22.8890  -31.1560 N   0  0  0  0  0  0  0  0  0  0  0  0
   -5.8570   24.0570  -30.9040 C   0  0  0  0  0  0  0  0  0  0  0  0
   -5.2310   25.3230  -30.4650 C   0  0  0  0  0  0  0  0  0  0  0  0
   -3.8820   25.6100  -30.8270 N   0  0  0  0  0  0  0  0  0  0  0  0
   -5.8790   26.1640  -29.7890 O   0  0  0  0  0  0  0  0  0  0  0  0
   -7.2330   23.8860  -31.0510 C   0  0  0  0  0  0  0  0  0  0  0  0
   -7.4000   22.5660  -31.4040 C   0  0  0  0  0  0  0  0  0  0  0  0
   -8.5630   21.8500  -31.6640 C   0  0  0  0  0  0  0  0  0  0  0  0
   -8.4390   20.4950  -32.0110 C   0  0  0  0  0  0  0  0  0  0  0  0
   -7.1610   19.8870  -32.1190 C   0  0  0  0  0  0  0  0  0  0  0  0
   -7.0410   18.4210  -32.4510 C   0  0  0  0  0  0  0  0  0  0  0  0
   -6.1470   17.8300  -31.5780 F   0  0  0  0  0  0  0  0  0  0  0  0
   -6.5860   18.2500  -33.7470 F   0  0  0  0  0  0  0  0  0  0  0  0
   -8.2680   17.7910  -32.3360 F   0  0  0  0  0  0  0  0  0  0  0  0
   -6.0040   20.6450  -31.8260 C   0  0  0  0  0  0  0  0  0  0  0  0
   -6.1600   21.9880  -31.4640 C   0  0  0  0  0  0  0  0  0  0  0  0
   -4.3818   24.6227  -26.0409 H   0  0  0  0  0  0  0  0  0  0  0  0
   -4.2327   25.5205  -27.5896 H   0  0  0  0  0  0  0  0  0  0  0  0
   -4.8096   23.8194  -27.5896 H   0  0  0  0  0  0  0  0  0  0  0  0
   -2.0623   24.5584  -26.5078 H   0  0  0  0  0  0  0  0  0  0  0  0
   -2.6692   22.9621  -27.0908 H   0  0  0  0  0  0  0  0  0  0  0  0
   -2.6478   21.3514  -29.8617 H   0  0  0  0  0  0  0  0  0  0  0  0
   -3.8245   22.4215  -28.9961 H   0  0  0  0  0  0  0  0  0  0  0  0
   -3.1080   24.9550  -30.5750 H   0  0  0  0  0  0  0  0  0  0  0  0
   -8.0179   24.6444  -30.9141 H   0  0  0  0  0  0  0  0  0  0  0  0
   -9.5505   22.3304  -31.5998 H   0  0  0  0  0  0  0  0  0  0  0  0
   -9.3429   19.8977  -32.2014 H   0  0  0  0  0  0  0  0  0  0  0  0
   -5.0042   20.1897  -31.8813 H   0  0  0  0  0  0  0  0  0  0  0  0
  1  2  1  0
  2  3  1  0
  3  4  2  0
  3  5  1  0
  5  6  1  0
  6  7  1  0
  7  8  2  0
  7  9  1  0
  9 10  1  0
 10 11  1  0
 11 12  1  0
 11 13  2  0
 10 14  2  0
 14 15  1  0
 15 16  2  0
 16 17  1  0
 17 18  2  0
 18 19  1  0
 19 20  1  0
 19 21  1  0
 19 22  1  0
 18 23  1  0
 23 24  2  0
 24  9  1  0
 24 15  1  0
  1 25  1  0
  1 26  1  0
  1 27  1  0
  2 28  1  0
  2 29  1  0
  6 30  1  0
  6 31  1  0
 12 32  1  0
 14 33  1  0
 16 34  1  0
 17 35  1  0
 23 36  1  0
M  CHG  1  12  -1
M  END
>  <UniqueID>  (71) 
71

>  <SMILES>  (71) 
CCC(=O)OCC(=O)n1c(C([NH-])=O)cc2ccc(C(F)(F)F)cc21

>  <Energy>  (71) 
68.87495952163256

>  <Genealogy>  (71) 
CCC(=O)OCC(=O)n1c(C([NH-])=O)cc2ccc(C(F)(F)F)cc21 (protonated)
CCC(=O)OCC(=O)n1c(C([NH-])=O)cc2ccc(C(F)(F)F)cc21 (3D coordinates assigned)
CCC(=O)OCC(=O)n1c(C([NH-])=O)cc2ccc(C(F)(F)F)cc21 (optimized conformer: 68.87495952163256 kcal/mol)

>  <smiles>  (71) 
CCC(=O)OCC(=O)n1c(C(N)=O)cc2ccc(C(F)(F)F)cc21

>  <score_type>  (71) 
oracle

>  <origin>  (71) 
adg

>  <m_score__min__energy>  (71) 
-9.9700000000000006

>  <m_primary>  (71) 
energy

$$$$
71:0
     RDKit          3D

 35 36  0  0  0  0  0  0  0  0999 V2000
   -5.6830   17.9980  -34.8870 C   0  0  0  0  0  0  0  0  0  0  0  0
   -5.6770   18.2090  -33.5660 C   0  0  0  0  0  0  0  0  0  0  0  0
   -6.9530   18.3040  -32.7760 C   0  0  0  0  0  0  0  0  0  0  0  0
   -7.1680   19.7080  -32.2790 C   0  0  0  0  0  0  0  0  0  0  0  0
   -8.4820   20.2280  -32.1710 C   0  0  0  0  0  0  0  0  0  0  0  0
   -8.6970   21.5420  -31.7240 C   0  0  0  0  0  0  0  0  0  0  0  0
   -7.5840   22.3160  -31.4140 C   0  0  0  0  0  0  0  0  0  0  0  0
   -7.5080   23.6040  -30.9370 C   0  0  0  0  0  0  0  0  0  0  0  0
   -6.1470   23.8660  -30.8020 C   0  0  0  0  0  0  0  0  0  0  0  0
   -5.6100   25.1740  -30.3740 C   0  0  0  0  0  0  0  0  0  0  0  0
   -4.2440   25.5250  -30.6060 N   0  0  0  0  0  0  0  0  0  0  0  0
   -6.3820   26.0170  -29.8450 O   0  0  0  0  0  0  0  0  0  0  0  0
   -5.4080   22.7800  -31.1670 N   0  0  0  0  0  0  0  0  0  0  0  0
   -3.9840   22.6200  -31.0720 C   0  0  0  0  0  0  0  0  0  0  0  0
   -3.2580   22.8490  -32.0780 O   0  0  0  0  0  0  0  0  0  0  0  0
   -3.4070   22.2110  -29.8640 O   0  0  0  0  0  0  0  0  0  0  0  0
   -3.0850   23.1090  -28.8060 C   0  0  0  0  0  0  0  0  0  0  0  0
   -2.0050   24.0500  -29.2340 C   0  0  0  0  0  0  0  0  0  0  0  0
   -2.2460   25.2800  -29.3440 O   0  0  0  0  0  0  0  0  0  0  0  0
   -0.7240   23.5750  -29.4830 O   0  0  0  0  0  0  0  0  0  0  0  0
   -6.3030   21.8390  -31.5420 C   0  0  0  0  0  0  0  0  0  0  0  0
   -6.0610   20.5250  -31.9610 C   0  0  0  0  0  0  0  0  0  0  0  0
   -4.7331   17.9332  -35.4379 H   0  0  0  0  0  0  0  0  0  0  0  0
   -6.6378   17.8893  -35.4223 H   0  0  0  0  0  0  0  0  0  0  0  0
   -4.7144   18.3157  -33.0445 H   0  0  0  0  0  0  0  0  0  0  0  0
   -7.7978   18.0151  -33.4186 H   0  0  0  0  0  0  0  0  0  0  0  0
   -6.8837   17.6292  -31.9101 H   0  0  0  0  0  0  0  0  0  0  0  0
   -9.3416   19.5965  -32.4398 H   0  0  0  0  0  0  0  0  0  0  0  0
   -9.7148   21.9466  -31.6222 H   0  0  0  0  0  0  0  0  0  0  0  0
   -8.3439   24.2822  -30.7105 H   0  0  0  0  0  0  0  0  0  0  0  0
   -3.8720   26.4360  -30.2590 H   0  0  0  0  0  0  0  0  0  0  0  0
   -3.6240   24.9240  -31.1940 H   0  0  0  0  0  0  0  0  0  0  0  0
   -3.9815   23.6854  -28.5339 H   0  0  0  0  0  0  0  0  0  0  0  0
   -2.7320   22.5296  -27.9402 H   0  0  0  0  0  0  0  0  0  0  0  0
   -5.0341   20.1388  -32.0405 H   0  0  0  0  0  0  0  0  0  0  0  0
  1  2  2  0
  2  3  1  0
  3  4  1  0
  4  5  2  0
  5  6  1  0
  6  7  2  0
  7  8  1  0
  8  9  2  0
  9 10  1  0
 10 11  1  0
 10 12  2  0
  9 13  1  0
 13 14  1  0
 14 15  2  0
 14 16  1  0
 16 17  1  0
 17 18  1  0
 18 19  2  0
 18 20  1  0
 13 21  1  0
 21 22  2  0
 22  4  1  0
 21  7  1  0
  1 23  1  0
  1 24  1  0
  2 25  1  0
  3 26  1  0
  3 27  1  0
  5 28  1  0
  6 29  1  0
  8 30  1  0
 11 31  1  0
 11 32  1  0
 17 33  1  0
 17 34  1  0
 22 35  1  0
M  CHG  1  20  -1
M  END
>  <UniqueID>  (72) 
72

>  <SMILES>  (72) 
C=CCc1ccc2cc(C(N)=O)n(C(=O)OCC(=O)[O-])c2c1

>  <Energy>  (72) 
68.6922037190081

>  <Genealogy>  (72) 
C=CCc1ccc2cc(C(N)=O)n(C(=O)OCC(=O)[O-])c2c1 (protonated)
C=CCc1ccc2cc(C(N)=O)n(C(=O)OCC(=O)[O-])c2c1 (3D coordinates assigned)
C=CCc1ccc2cc(C(N)=O)n(C(=O)OCC(=O)[O-])c2c1 (optimized conformer: 68.6922037190081 kcal/mol)

>  <smiles>  (72) 
C=CCc1ccc2cc(C(N)=O)n(C(=O)OCC(=O)O)c2c1

>  <score_type>  (72) 
oracle

>  <origin>  (72) 
adg

>  <m_score__min__energy>  (72) 
-10.470000000000001

>  <m_primary>  (72) 
energy

$$$$
72:0
     RDKit          3D

 31 32  0  0  0  0  0  0  0  0999 V2000
   -1.6630   25.6290  -29.0230 N   0  0  0  0  0  0  0  0  0  0  0  0
   -0.8630   24.4500  -28.9710 C   0  0  0  0  0  0  0  0  0  0  0  0
    0.3240   24.5140  -28.5570 O   0  0  0  0  0  0  0  0  0  0  0  0
   -1.4420   23.1330  -29.3810 C   0  0  0  0  0  0  0  0  0  0  0  0
   -2.7800   23.3020  -29.8420 O   0  0  0  0  0  0  0  0  0  0  0  0
   -3.3100   22.6100  -30.9380 C   0  0  0  0  0  0  0  0  0  0  0  0
   -2.5520   21.9500  -31.7000 O   0  0  0  0  0  0  0  0  0  0  0  0
   -4.7250   22.6330  -31.1770 N   0  0  0  0  0  0  0  0  0  0  0  0
   -5.5750   23.6920  -31.0630 C   0  0  0  0  0  0  0  0  0  0  0  0
   -5.2410   25.0210  -30.5080 C   0  0  0  0  0  0  0  0  0  0  0  0
   -4.0240   25.6760  -30.8560 N   0  0  0  0  0  0  0  0  0  0  0  0
   -6.0180   25.5640  -29.6790 O   0  0  0  0  0  0  0  0  0  0  0  0
   -6.8590   23.3330  -31.4710 C   0  0  0  0  0  0  0  0  0  0  0  0
   -6.7700   22.0080  -31.8300 C   0  0  0  0  0  0  0  0  0  0  0  0
   -7.7430   21.1490  -32.3290 C   0  0  0  0  0  0  0  0  0  0  0  0
   -7.3620   19.8360  -32.6510 C   0  0  0  0  0  0  0  0  0  0  0  0
   -6.0250   19.4010  -32.4590 C   0  0  0  0  0  0  0  0  0  0  0  0
   -5.6140   18.0090  -32.8670 C   0  0  0  0  0  0  0  0  0  0  0  0
   -4.2450   17.9410  -33.0610 F   0  0  0  0  0  0  0  0  0  0  0  0
   -6.2360   17.6420  -34.0480 F   0  0  0  0  0  0  0  0  0  0  0  0
   -5.9740   17.1190  -31.8730 F   0  0  0  0  0  0  0  0  0  0  0  0
   -5.0590   20.3130  -31.9720 C   0  0  0  0  0  0  0  0  0  0  0  0
   -5.4720   21.6090  -31.6430 C   0  0  0  0  0  0  0  0  0  0  0  0
   -2.6570   25.5890  -29.3410 H   0  0  0  0  0  0  0  0  0  0  0  0
   -0.8313   22.7041  -30.1892 H   0  0  0  0  0  0  0  0  0  0  0  0
   -1.4458   22.4582  -28.5123 H   0  0  0  0  0  0  0  0  0  0  0  0
   -3.1000   25.2640  -30.5990 H   0  0  0  0  0  0  0  0  0  0  0  0
   -7.7531   23.9732  -31.4997 H   0  0  0  0  0  0  0  0  0  0  0  0
   -8.7803   21.4877  -32.4675 H   0  0  0  0  0  0  0  0  0  0  0  0
   -8.1084   19.1371  -33.0565 H   0  0  0  0  0  0  0  0  0  0  0  0
   -4.0080   20.0104  -31.8547 H   0  0  0  0  0  0  0  0  0  0  0  0
  1  2  1  0
  2  3  2  0
  2  4  1  0
  4  5  1  0
  5  6  1  0
  6  7  2  0
  6  8  1  0
  8  9  1  0
  9 10  1  0
 10 11  1  0
 10 12  2  0
  9 13  2  0
 13 14  1  0
 14 15  2  0
 15 16  1  0
 16 17  2  0
 17 18  1  0
 18 19  1  0
 18 20  1  0
 18 21  1  0
 17 22  1  0
 22 23  2  0
 23  8  1  0
 23 14  1  0
  1 24  1  0
  4 25  1  0
  4 26  1  0
 11 27  1  0
 13 28  1  0
 15 29  1  0
 16 30  1  0
 22 31  1  0
M  CHG  2   1  -1  11  -1
M  END
>  <UniqueID>  (73) 
73

>  <SMILES>  (73) 
[NH-]C(=O)COC(=O)n1c(C([NH-])=O)cc2ccc(C(F)(F)F)cc21

>  <Energy>  (73) 
68.19292771633984

>  <Genealogy>  (73) 
[NH-]C(=O)COC(=O)n1c(C([NH-])=O)cc2ccc(C(F)(F)F)cc21 (protonated)
[NH-]C(=O)COC(=O)n1c(C([NH-])=O)cc2ccc(C(F)(F)F)cc21 (3D coordinates assigned)
[NH-]C(=O)COC(=O)n1c(C([NH-])=O)cc2ccc(C(F)(F)F)cc21 (optimized conformer: 68.19292771633984 kcal/mol)

>  <smiles>  (73) 
NC(=O)COC(=O)n1c(C(N)=O)cc2ccc(C(F)(F)F)cc21

>  <score_type>  (73) 
oracle

>  <origin>  (73) 
adg

>  <m_score__min__energy>  (73) 
-12.1

>  <m_primary>  (73) 
energy

$$$$
73:0
     RDKit          3D

 37 38  0  0  0  0  0  0  0  0999 V2000
   -2.4950   24.9120  -29.1260 C   0  0  0  0  0  0  0  0  0  0  0  0
   -3.4890   25.2680  -30.1270 N   0  0  0  0  0  0  0  0  0  0  0  0
   -4.3320   24.3000  -30.7580 C   0  0  0  0  0  0  0  0  0  0  0  0
   -3.8300   23.3660  -31.4420 O   0  0  0  0  0  0  0  0  0  0  0  0
   -5.8200   24.4140  -30.6330 C   0  0  0  0  0  0  0  0  0  0  0  0
   -6.5340   23.9700  -31.9170 C   0  0  0  0  0  0  0  0  0  0  0  0
   -7.9040   23.3370  -31.6310 C   0  0  0  0  0  0  0  0  0  0  0  0
   -7.8540   21.8510  -31.8560 C   0  0  0  0  0  0  0  0  0  0  0  0
   -9.0190   21.0650  -31.6690 C   0  0  0  0  0  0  0  0  0  0  0  0
   -9.0000   19.6850  -31.9240 C   0  0  0  0  0  0  0  0  0  0  0  0
   -7.8060   19.1200  -32.3640 C   0  0  0  0  0  0  0  0  0  0  0  0
   -7.5250   17.8210  -32.7220 C   0  0  0  0  0  0  0  0  0  0  0  0
   -6.1860   17.8280  -33.1050 C   0  0  0  0  0  0  0  0  0  0  0  0
   -5.4530   16.6140  -33.5100 C   0  0  0  0  0  0  0  0  0  0  0  0
   -4.7890   16.5380  -34.7730 N   0  0  0  0  0  0  0  0  0  0  0  0
   -5.3610   15.6490  -32.7050 O   0  0  0  0  0  0  0  0  0  0  0  0
   -5.6620   19.0820  -33.0030 N   0  0  0  0  0  0  0  0  0  0  0  0
   -4.3570   19.5160  -33.4230 C   0  0  0  0  0  0  0  0  0  0  0  0
   -3.7470   20.4150  -32.7850 O   0  0  0  0  0  0  0  0  0  0  0  0
   -3.7550   18.9510  -34.5410 O   0  0  0  0  0  0  0  0  0  0  0  0
   -6.6670   19.8620  -32.5450 C   0  0  0  0  0  0  0  0  0  0  0  0
   -6.6650   21.2450  -32.3170 C   0  0  0  0  0  0  0  0  0  0  0  0
   -2.9162   25.0629  -28.1211 H   0  0  0  0  0  0  0  0  0  0  0  0
   -2.2114   23.8564  -29.2500 H   0  0  0  0  0  0  0  0  0  0  0  0
   -1.6058   25.5475  -29.2500 H   0  0  0  0  0  0  0  0  0  0  0  0
   -6.1573   23.7795  -29.8001 H   0  0  0  0  0  0  0  0  0  0  0  0
   -6.0685   25.4699  -30.4504 H   0  0  0  0  0  0  0  0  0  0  0  0
   -6.6777   24.8480  -32.5639 H   0  0  0  0  0  0  0  0  0  0  0  0
   -5.9069   23.2101  -32.4061 H   0  0  0  0  0  0  0  0  0  0  0  0
   -8.1837   23.5358  -30.5859 H   0  0  0  0  0  0  0  0  0  0  0  0
   -8.6481   23.7755  -32.3123 H   0  0  0  0  0  0  0  0  0  0  0  0
   -9.9472   21.5416  -31.3205 H   0  0  0  0  0  0  0  0  0  0  0  0
   -9.9001   19.0692  -31.7807 H   0  0  0  0  0  0  0  0  0  0  0  0
   -8.2111   16.9613  -32.7085 H   0  0  0  0  0  0  0  0  0  0  0  0
   -4.3010   15.6600  -35.0560 H   0  0  0  0  0  0  0  0  0  0  0  0
   -4.7090   17.3750  -35.3910 H   0  0  0  0  0  0  0  0  0  0  0  0
   -5.7591   21.8437  -32.4930 H   0  0  0  0  0  0  0  0  0  0  0  0
  1  2  1  0
  2  3  1  0
  3  4  2  0
  3  5  1  0
  5  6  1  0
  6  7  1  0
  7  8  1  0
  8  9  2  0
  9 10  1  0
 10 11  2  0
 11 12  1  0
 12 13  2  0
 13 14  1  0
 14 15  1  0
 14 16  2  0
 13 17  1  0
 17 18  1  0
 18 19  2  0
 18 20  1  0
 17 21  1  0
 21 22  2  0
 22  8  1  0
 21 11  1  0
  1 23  1  0
  1 24  1  0
  1 25  1  0
  5 26  1  0
  5 27  1  0
  6 28  1  0
  6 29  1  0
  7 30  1  0
  7 31  1  0
  9 32  1  0
 10 33  1  0
 12 34  1  0
 15 35  1  0
 15 36  1  0
 22 37  1  0
M  CHG  2   2  -1  20  -1
M  END
>  <UniqueID>  (74) 
74

>  <SMILES>  (74) 
C[N-]C(=O)CCCc1ccc2cc(C(N)=O)n(C(=O)[O-])c2c1

>  <Energy>  (74) 
68.75100748474738

>  <Genealogy>  (74) 
C[N-]C(=O)CCCc1ccc2cc(C(N)=O)n(C(=O)[O-])c2c1 (protonated)
C[N-]C(=O)CCCc1ccc2cc(C(N)=O)n(C(=O)[O-])c2c1 (3D coordinates assigned)
C[N-]C(=O)CCCc1ccc2cc(C(N)=O)n(C(=O)[O-])c2c1 (optimized conformer: 68.75100748474738 kcal/mol)

>  <smiles>  (74) 
CNC(=O)CCCc1ccc2cc(C(N)=O)n(C(=O)O)c2c1

>  <score_type>  (74) 
oracle

>  <origin>  (74) 
adg

>  <m_score__min__energy>  (74) 
-9.4100000000000001

>  <m_primary>  (74) 
energy

$$$$
74:0
     RDKit          3D

 42 44  0  0  0  0  0  0  0  0999 V2000
   -1.7230   21.1990  -31.9250 C   0  0  0  0  0  0  0  0  0  0  0  0
   -2.8330   21.8760  -32.2160 C   0  0  0  0  0  0  0  0  0  0  0  0
   -3.6250   22.5790  -31.1900 C   0  0  0  0  0  0  0  0  0  0  0  0
   -3.0560   23.1120  -30.1990 O   0  0  0  0  0  0  0  0  0  0  0  0
   -5.0580   22.6250  -31.2910 N   0  0  0  0  0  0  0  0  0  0  0  0
   -5.8830   23.6830  -31.0420 C   0  0  0  0  0  0  0  0  0  0  0  0
   -5.4610   24.9780  -30.4630 C   0  0  0  0  0  0  0  0  0  0  0  0
   -4.1500   25.4930  -30.7010 N   0  0  0  0  0  0  0  0  0  0  0  0
   -6.2690   25.6540  -29.7730 O   0  0  0  0  0  0  0  0  0  0  0  0
   -7.2060   23.3410  -31.3160 C   0  0  0  0  0  0  0  0  0  0  0  0
   -7.1660   22.0320  -31.7380 C   0  0  0  0  0  0  0  0  0  0  0  0
   -8.1950   21.1890  -32.1410 C   0  0  0  0  0  0  0  0  0  0  0  0
   -7.8610   19.8840  -32.5410 C   0  0  0  0  0  0  0  0  0  0  0  0
   -6.5100   19.4460  -32.5370 C   0  0  0  0  0  0  0  0  0  0  0  0
   -6.1680   18.0680  -32.9710 C   0  0  0  0  0  0  0  0  0  0  0  0
   -7.1630   17.2010  -33.4480 C   0  0  0  0  0  0  0  0  0  0  0  0
   -6.8420   15.9030  -33.8540 C   0  0  0  0  0  0  0  0  0  0  0  0
   -5.5150   15.4400  -33.7940 C   0  0  0  0  0  0  0  0  0  0  0  0
   -5.2010   14.0580  -34.2330 C   0  0  0  0  0  0  0  0  0  0  0  0
   -5.5770   13.0680  -33.5450 O   0  0  0  0  0  0  0  0  0  0  0  0
   -4.4850   13.8510  -35.4160 O   0  0  0  0  0  0  0  0  0  0  0  0
   -3.0670   13.9510  -35.4850 C   0  0  0  0  0  0  0  0  0  0  0  0
   -4.5140   16.3100  -33.3160 C   0  0  0  0  0  0  0  0  0  0  0  0
   -3.2170   15.9160  -33.2420 F   0  0  0  0  0  0  0  0  0  0  0  0
   -4.8410   17.6080  -32.9090 C   0  0  0  0  0  0  0  0  0  0  0  0
   -5.4930   20.3360  -32.1180 C   0  0  0  0  0  0  0  0  0  0  0  0
   -5.8590   21.6240  -31.7130 C   0  0  0  0  0  0  0  0  0  0  0  0
   -1.1641   20.6896  -32.7238 H   0  0  0  0  0  0  0  0  0  0  0  0
   -1.3654   21.1495  -30.8859 H   0  0  0  0  0  0  0  0  0  0  0  0
   -3.1716   21.9119  -33.2620 H   0  0  0  0  0  0  0  0  0  0  0  0
   -3.4330   24.9380  -31.2160 H   0  0  0  0  0  0  0  0  0  0  0  0
   -3.8770   26.4260  -30.3190 H   0  0  0  0  0  0  0  0  0  0  0  0
   -8.0943   23.9820  -31.2160 H   0  0  0  0  0  0  0  0  0  0  0  0
   -9.2398   21.5332  -32.1466 H   0  0  0  0  0  0  0  0  0  0  0  0
   -8.6553   19.1935  -32.8610 H   0  0  0  0  0  0  0  0  0  0  0  0
   -8.2059   17.5465  -33.5029 H   0  0  0  0  0  0  0  0  0  0  0  0
   -7.6350   15.2366  -34.2242 H   0  0  0  0  0  0  0  0  0  0  0  0
   -2.6515   13.9803  -34.4669 H   0  0  0  0  0  0  0  0  0  0  0  0
   -2.6636   13.0791  -36.0207 H   0  0  0  0  0  0  0  0  0  0  0  0
   -2.7899   14.8709  -36.0207 H   0  0  0  0  0  0  0  0  0  0  0  0
   -4.0508   18.2762  -32.5362 H   0  0  0  0  0  0  0  0  0  0  0  0
   -4.4387   20.0223  -32.1109 H   0  0  0  0  0  0  0  0  0  0  0  0
  1  2  2  0
  2  3  1  0
  3  4  2  0
  3  5  1  0
  5  6  1  0
  6  7  1  0
  7  8  1  0
  7  9  2  0
  6 10  2  0
 10 11  1  0
 11 12  2  0
 12 13  1  0
 13 14  2  0
 14 15  1  0
 15 16  2  0
 16 17  1  0
 17 18  2  0
 18 19  1  0
 19 20  2  0
 19 21  1  0
 21 22  1  0
 18 23  1  0
 23 24  1  0
 23 25  2  0
 14 26  1  0
 26 27  2  0
 27  5  1  0
 27 11  1  0
 25 15  1  0
  1 28  1  0
  1 29  1  0
  2 30  1  0
  8 31  1  0
  8 32  1  0
 10 33  1  0
 12 34  1  0
 13 35  1  0
 16 36  1  0
 17 37  1  0
 22 38  1  0
 22 39  1  0
 22 40  1  0
 25 41  1  0
 26 42  1  0
M  END
>  <UniqueID>  (75) 
75

>  <SMILES>  (75) 
C=CC(=O)n1c(C(N)=O)cc2ccc(-c3ccc(C(=O)OC)c(F)c3)cc21

>  <Energy>  (75) 
87.32467591295338

>  <Genealogy>  (75) 
C=CC(=O)n1c(C(N)=O)cc2ccc(-c3ccc(C(=O)OC)c(F)c3)cc21 (3D coordinates assigned)
C=CC(=O)n1c(C(N)=O)cc2ccc(-c3ccc(C(=O)OC)c(F)c3)cc21 (optimized conformer: 87.32467591295338 kcal/mol)

>  <smiles>  (75) 
C=CC(=O)n1c(C(N)=O)cc2ccc(-c3ccc(C(=O)OC)c(F)c3)cc21

>  <score_type>  (75) 
oracle

>  <origin>  (75) 
adg

>  <m_score__min__energy>  (75) 
-8.75

>  <m_primary>  (75) 
energy

$$$$
75:0
     RDKit          3D

 44 46  0  0  0  0  0  0  0  0999 V2000
   -5.7180   18.3090  -34.6030 C   0  0  0  0  0  0  0  0  0  0  0  0
   -5.8490   17.2460  -33.5170 C   0  0  0  0  0  0  0  0  0  0  0  0
   -6.8680   17.6680  -32.4510 C   0  0  0  0  0  0  0  0  0  0  0  0
   -7.6880   18.7810  -32.9320 N   0  0  0  0  0  0  0  0  0  0  0  0
   -7.6520   20.1130  -32.3790 C   0  0  0  0  0  0  0  0  0  0  0  0
   -8.8730   20.7810  -32.1050 C   0  0  0  0  0  0  0  0  0  0  0  0
   -8.8810   22.0960  -31.6050 C   0  0  0  0  0  0  0  0  0  0  0  0
   -7.6550   22.7140  -31.3770 C   0  0  0  0  0  0  0  0  0  0  0  0
   -7.3640   23.9860  -30.9320 C   0  0  0  0  0  0  0  0  0  0  0  0
   -5.9720   24.0620  -30.9140 C   0  0  0  0  0  0  0  0  0  0  0  0
   -5.2130   25.2480  -30.4660 C   0  0  0  0  0  0  0  0  0  0  0  0
   -3.8730   25.4440  -30.9100 N   0  0  0  0  0  0  0  0  0  0  0  0
   -5.7400   26.0980  -29.7010 O   0  0  0  0  0  0  0  0  0  0  0  0
   -5.4290   22.8840  -31.3260 N   0  0  0  0  0  0  0  0  0  0  0  0
   -4.0420   22.5470  -31.4660 C   0  0  0  0  0  0  0  0  0  0  0  0
   -3.5680   22.3050  -32.6100 O   0  0  0  0  0  0  0  0  0  0  0  0
   -3.1730   22.4800  -30.2790 C   0  0  0  0  0  0  0  0  0  0  0  0
   -3.4150   21.6210  -29.3910 O   0  0  0  0  0  0  0  0  0  0  0  0
   -2.0730   23.3780  -30.0930 N   0  0  0  0  0  0  0  0  0  0  0  0
   -1.8770   24.1920  -28.9330 C   0  0  0  0  0  0  0  0  0  0  0  0
   -1.3080   25.4150  -28.9590 N   0  0  0  0  0  0  0  0  0  0  0  0
   -1.1470   25.9190  -27.7070 C   0  0  0  0  0  0  0  0  0  0  0  0
   -0.5610   27.2700  -27.4710 C   0  0  0  0  0  0  0  0  0  0  0  0
   -1.5970   25.0960  -26.6770 C   0  0  0  0  0  0  0  0  0  0  0  0
   -2.1920   23.6800  -27.3660 S   0  0  0  0  0  0  0  0  0  0  0  0
   -6.4690   22.0750  -31.6100 C   0  0  0  0  0  0  0  0  0  0  0  0
   -6.4290   20.7770  -32.1240 C   0  0  0  0  0  0  0  0  0  0  0  0
   -5.5962   19.2974  -34.1358 H   0  0  0  0  0  0  0  0  0  0  0  0
   -4.8403   18.0883  -35.2282 H   0  0  0  0  0  0  0  0  0  0  0  0
   -6.6231   18.3080  -35.2282 H   0  0  0  0  0  0  0  0  0  0  0  0
   -6.1791   16.3024  -33.9759 H   0  0  0  0  0  0  0  0  0  0  0  0
   -4.8695   17.1187  -33.0329 H   0  0  0  0  0  0  0  0  0  0  0  0
   -7.5202   16.8138  -32.2165 H   0  0  0  0  0  0  0  0  0  0  0  0
   -6.3250   17.9916  -31.5507 H   0  0  0  0  0  0  0  0  0  0  0  0
   -8.2620   18.6150  -33.7890 H   0  0  0  0  0  0  0  0  0  0  0  0
   -9.8268   20.2637  -32.2860 H   0  0  0  0  0  0  0  0  0  0  0  0
   -9.8267   22.6194  -31.4007 H   0  0  0  0  0  0  0  0  0  0  0  0
   -8.0784   24.7737  -30.6508 H   0  0  0  0  0  0  0  0  0  0  0  0
   -3.0670   25.3030  -30.2620 H   0  0  0  0  0  0  0  0  0  0  0  0
   -0.4822   27.4516  -26.3890 H   0  0  0  0  0  0  0  0  0  0  0  0
    0.4397   27.3200  -27.9250 H   0  0  0  0  0  0  0  0  0  0  0  0
   -1.2082   28.0348  -27.9250 H   0  0  0  0  0  0  0  0  0  0  0  0
   -1.5685   25.3302  -25.6026 H   0  0  0  0  0  0  0  0  0  0  0  0
   -5.4678   20.2818  -32.3261 H   0  0  0  0  0  0  0  0  0  0  0  0
  1  2  1  0
  2  3  1  0
  3  4  1  0
  4  5  1  0
  5  6  2  0
  6  7  1  0
  7  8  2  0
  8  9  1  0
  9 10  2  0
 10 11  1  0
 11 12  1  0
 11 13  2  0
 10 14  1  0
 14 15  1  0
 15 16  2  0
 15 17  1  0
 17 18  2  0
 17 19  1  0
 19 20  1  0
 20 21  2  0
 21 22  1  0
 22 23  1  0
 22 24  2  0
 24 25  1  0
 14 26  1  0
 26 27  2  0
 27  5  1  0
 26  8  1  0
 25 20  1  0
  1 28  1  0
  1 29  1  0
  1 30  1  0
  2 31  1  0
  2 32  1  0
  3 33  1  0
  3 34  1  0
  4 35  1  0
  6 36  1  0
  7 37  1  0
  9 38  1  0
 12 39  1  0
 23 40  1  0
 23 41  1  0
 23 42  1  0
 24 43  1  0
 27 44  1  0
M  CHG  2  12  -1  19  -1
M  END
>  <UniqueID>  (76) 
76

>  <SMILES>  (76) 
CCCNc1ccc2cc(C([NH-])=O)n(C(=O)C(=O)[N-]c3nc(C)cs3)c2c1

>  <Energy>  (76) 
109.7917816660978

>  <Genealogy>  (76) 
CCCNc1ccc2cc(C([NH-])=O)n(C(=O)C(=O)[N-]c3nc(C)cs3)c2c1 (protonated)
CCCNc1ccc2cc(C([NH-])=O)n(C(=O)C(=O)[N-]c3nc(C)cs3)c2c1 (3D coordinates assigned)
CCCNc1ccc2cc(C([NH-])=O)n(C(=O)C(=O)[N-]c3nc(C)cs3)c2c1 (optimized conformer: 109.7917816660978 kcal/mol)

>  <smiles>  (76) 
CCCNc1ccc2cc(C(N)=O)n(C(=O)C(=O)Nc3nc(C)cs3)c2c1

>  <score_type>  (76) 
oracle

>  <origin>  (76) 
adg

>  <m_score__min__energy>  (76) 
-12.33

>  <m_primary>  (76) 
energy

$$$$
76:0
     RDKit          3D

 48 50  0  0  0  0  0  0  0  0999 V2000
   -3.4280   17.3050  -33.1710 C   0  0  0  0  0  0  0  0  0  0  0  0
   -4.5590   16.4980  -33.6640 N   0  0  0  0  0  0  0  0  0  0  0  0
   -5.6090   16.3260  -32.6260 C   0  0  0  0  0  0  0  0  0  0  0  0
   -6.8580   17.1990  -32.8480 C   0  0  0  0  0  0  0  0  0  0  0  0
   -6.4870   18.4550  -33.5090 N   0  0  0  0  0  0  0  0  0  0  0  0
   -6.7720   19.7300  -32.9040 C   0  0  0  0  0  0  0  0  0  0  0  0
   -8.1140   20.1410  -32.7080 C   0  0  0  0  0  0  0  0  0  0  0  0
   -8.4050   21.3840  -32.1230 C   0  0  0  0  0  0  0  0  0  0  0  0
   -7.3380   22.2010  -31.7630 C   0  0  0  0  0  0  0  0  0  0  0  0
   -7.3410   23.4350  -31.1550 C   0  0  0  0  0  0  0  0  0  0  0  0
   -5.9990   23.7840  -31.0290 C   0  0  0  0  0  0  0  0  0  0  0  0
   -5.5490   25.0720  -30.4680 C   0  0  0  0  0  0  0  0  0  0  0  0
   -4.1940   25.5010  -30.6000 N   0  0  0  0  0  0  0  0  0  0  0  0
   -6.3870   25.8340  -29.9160 O   0  0  0  0  0  0  0  0  0  0  0  0
   -5.1940   22.8020  -31.5270 N   0  0  0  0  0  0  0  0  0  0  0  0
   -3.7560   22.7380  -31.4770 C   0  0  0  0  0  0  0  0  0  0  0  0
   -3.1160   22.2670  -32.4560 O   0  0  0  0  0  0  0  0  0  0  0  0
   -3.0740   23.2240  -30.3550 O   0  0  0  0  0  0  0  0  0  0  0  0
   -2.7060   22.4180  -29.2340 C   0  0  0  0  0  0  0  0  0  0  0  0
   -2.0020   23.2570  -28.1650 C   0  0  0  0  0  0  0  0  0  0  0  0
   -1.3790   24.4910  -28.7380 C   0  0  0  0  0  0  0  0  0  0  0  0
   -2.0870   25.3360  -29.3460 O   0  0  0  0  0  0  0  0  0  0  0  0
   -0.0160   24.7150  -28.5880 O   0  0  0  0  0  0  0  0  0  0  0  0
   -6.0330   21.8370  -31.9740 C   0  0  0  0  0  0  0  0  0  0  0  0
   -5.7150   20.5920  -32.5310 C   0  0  0  0  0  0  0  0  0  0  0  0
   -5.7580   18.3890  -34.7790 C   0  0  0  0  0  0  0  0  0  0  0  0
   -5.0840   17.0150  -34.9470 C   0  0  0  0  0  0  0  0  0  0  0  0
   -3.4290   17.3043  -32.0710 H   0  0  0  0  0  0  0  0  0  0  0  0
   -2.4839   16.8753  -33.5371 H   0  0  0  0  0  0  0  0  0  0  0  0
   -3.5272   18.3375  -33.5371 H   0  0  0  0  0  0  0  0  0  0  0  0
   -5.9208   15.2711  -32.6208 H   0  0  0  0  0  0  0  0  0  0  0  0
   -5.1660   16.6414  -31.6698 H   0  0  0  0  0  0  0  0  0  0  0  0
   -7.5748   16.6539  -33.4797 H   0  0  0  0  0  0  0  0  0  0  0  0
   -7.3143   17.4273  -31.8735 H   0  0  0  0  0  0  0  0  0  0  0  0
   -8.9365   19.4793  -33.0174 H   0  0  0  0  0  0  0  0  0  0  0  0
   -9.4445   21.7019  -31.9546 H   0  0  0  0  0  0  0  0  0  0  0  0
   -8.2161   24.0205  -30.8366 H   0  0  0  0  0  0  0  0  0  0  0  0
   -3.5230   24.9740  -31.1990 H   0  0  0  0  0  0  0  0  0  0  0  0
   -3.8810   26.3980  -30.1650 H   0  0  0  0  0  0  0  0  0  0  0  0
   -3.6118   21.9690  -28.8005 H   0  0  0  0  0  0  0  0  0  0  0  0
   -2.0146   21.6341  -29.5769 H   0  0  0  0  0  0  0  0  0  0  0  0
   -2.7390   23.5524  -27.4037 H   0  0  0  0  0  0  0  0  0  0  0  0
   -1.1999   22.6444  -27.7274 H   0  0  0  0  0  0  0  0  0  0  0  0
   -4.6667   20.2915  -32.6751 H   0  0  0  0  0  0  0  0  0  0  0  0
   -6.4621   18.5500  -35.6086 H   0  0  0  0  0  0  0  0  0  0  0  0
   -4.9810   19.1676  -34.7824 H   0  0  0  0  0  0  0  0  0  0  0  0
   -5.8229   16.3023  -35.3421 H   0  0  0  0  0  0  0  0  0  0  0  0
   -4.2374   17.1327  -35.6394 H   0  0  0  0  0  0  0  0  0  0  0  0
  1  2  1  0
  2  3  1  0
  3  4  1  0
  4  5  1  0
  5  6  1  0
  6  7  2  0
  7  8  1  0
  8  9  2  0
  9 10  1  0
 10 11  2  0
 11 12  1  0
 12 13  1  0
 12 14  2  0
 11 15  1  0
 15 16  1  0
 16 17  2  0
 16 18  1  0
 18 19  1  0
 19 20  1  0
 20 21  1  0
 21 22  2  0
 21 23  1  0
 15 24  1  0
 24 25  2  0
  5 26  1  0
 26 27  1  0
 27  2  1  0
 25  6  1  0
 24  9  1  0
  1 28  1  0
  1 29  1  0
  1 30  1  0
  3 31  1  0
  3 32  1  0
  4 33  1  0
  4 34  1  0
  7 35  1  0
  8 36  1  0
 10 37  1  0
 13 38  1  0
 13 39  1  0
 19 40  1  0
 19 41  1  0
 20 42  1  0
 20 43  1  0
 25 44  1  0
 26 45  1  0
 26 46  1  0
 27 47  1  0
 27 48  1  0
M  CHG  1  23  -1
M  END
>  <UniqueID>  (77) 
77

>  <SMILES>  (77) 
CN1CCN(c2ccc3cc(C(N)=O)n(C(=O)OCCC(=O)[O-])c3c2)CC1

>  <Energy>  (77) 
96.22936272090513

>  <Genealogy>  (77) 
CN1CCN(c2ccc3cc(C(N)=O)n(C(=O)OCCC(=O)[O-])c3c2)CC1 (protonated)
CN1CCN(c2ccc3cc(C(N)=O)n(C(=O)OCCC(=O)[O-])c3c2)CC1 (3D coordinates assigned)
CN1CCN(c2ccc3cc(C(N)=O)n(C(=O)OCCC(=O)[O-])c3c2)CC1 (nonaromatic ring conformer: 96.22936272090513 kcal/mol)

>  <smiles>  (77) 
CN1CCN(c2ccc3cc(C(N)=O)n(C(=O)OCCC(=O)O)c3c2)CC1

>  <score_type>  (77) 
oracle

>  <origin>  (77) 
adg

>  <m_score__min__energy>  (77) 
-11.640000000000001

>  <m_primary>  (77) 
energy

$$$$
77:0
     RDKit          3D

 35 36  0  0  0  0  0  0  0  0999 V2000
   -7.6560   18.7240  -32.6650 C   0  0  0  0  0  0  0  0  0  0  0  0
   -7.5950   20.1610  -32.2400 C   0  0  0  0  0  0  0  0  0  0  0  0
   -8.7910   20.8760  -31.9840 C   0  0  0  0  0  0  0  0  0  0  0  0
   -8.7470   22.2160  -31.5610 C   0  0  0  0  0  0  0  0  0  0  0  0
   -7.4980   22.8030  -31.3860 C   0  0  0  0  0  0  0  0  0  0  0  0
   -7.1670   24.0830  -31.0060 C   0  0  0  0  0  0  0  0  0  0  0  0
   -5.7750   24.1190  -30.9980 C   0  0  0  0  0  0  0  0  0  0  0  0
   -4.9950   25.2950  -30.5580 C   0  0  0  0  0  0  0  0  0  0  0  0
   -3.5720   25.2870  -30.5910 N   0  0  0  0  0  0  0  0  0  0  0  0
   -5.5950   26.3050  -30.1010 O   0  0  0  0  0  0  0  0  0  0  0  0
   -5.2630   22.9100  -31.3660 N   0  0  0  0  0  0  0  0  0  0  0  0
   -3.8840   22.5560  -31.5590 C   0  0  0  0  0  0  0  0  0  0  0  0
   -3.4600   22.3100  -32.7210 O   0  0  0  0  0  0  0  0  0  0  0  0
   -3.0340   22.4640  -30.4490 O   0  0  0  0  0  0  0  0  0  0  0  0
   -1.6540   22.6950  -30.4710 C   0  0  0  0  0  0  0  0  0  0  0  0
   -0.8950   22.0370  -31.2360 O   0  0  0  0  0  0  0  0  0  0  0  0
   -1.1250   23.6720  -29.6250 O   0  0  0  0  0  0  0  0  0  0  0  0
   -1.4590   23.7560  -28.2430 C   0  0  0  0  0  0  0  0  0  0  0  0
   -1.8710   25.1830  -27.8970 C   0  0  0  0  0  0  0  0  0  0  0  0
   -1.5810   26.0520  -28.9590 O   0  0  0  0  0  0  0  0  0  0  0  0
   -6.3310   22.1150  -31.5970 C   0  0  0  0  0  0  0  0  0  0  0  0
   -6.3460   20.7850  -32.0370 C   0  0  0  0  0  0  0  0  0  0  0  0
   -7.6834   18.0791  -31.7743 H   0  0  0  0  0  0  0  0  0  0  0  0
   -8.5620   18.5576  -33.2662 H   0  0  0  0  0  0  0  0  0  0  0  0
   -6.7673   18.4814  -33.2662 H   0  0  0  0  0  0  0  0  0  0  0  0
   -9.7628   20.3782  -32.1174 H   0  0  0  0  0  0  0  0  0  0  0  0
   -9.6712   22.7825  -31.3743 H   0  0  0  0  0  0  0  0  0  0  0  0
   -7.8562   24.9044  -30.7604 H   0  0  0  0  0  0  0  0  0  0  0  0
   -3.0230   24.6550  -29.9660 H   0  0  0  0  0  0  0  0  0  0  0  0
   -2.2932   23.0724  -28.0267 H   0  0  0  0  0  0  0  0  0  0  0  0
   -0.5832   23.4744  -27.6399 H   0  0  0  0  0  0  0  0  0  0  0  0
   -2.9519   25.2081  -27.6943 H   0  0  0  0  0  0  0  0  0  0  0  0
   -1.3095   25.5087  -27.0089 H   0  0  0  0  0  0  0  0  0  0  0  0
   -2.0200   25.6730  -29.7640 H   0  0  0  0  0  0  0  0  0  0  0  0
   -5.4076   20.2409  -32.2196 H   0  0  0  0  0  0  0  0  0  0  0  0
  1  2  1  0
  2  3  2  0
  3  4  1  0
  4  5  2  0
  5  6  1  0
  6  7  2  0
  7  8  1  0
  8  9  1  0
  8 10  2  0
  7 11  1  0
 11 12  1  0
 12 13  2  0
 12 14  1  0
 14 15  1  0
 15 16  2  0
 15 17  1  0
 17 18  1  0
 18 19  1  0
 19 20  1  0
 11 21  1  0
 21 22  2  0
 22  2  1  0
 21  5  1  0
  1 23  1  0
  1 24  1  0
  1 25  1  0
  3 26  1  0
  4 27  1  0
  6 28  1  0
  9 29  1  0
 18 30  1  0
 18 31  1  0
 19 32  1  0
 19 33  1  0
 20 34  1  0
 22 35  1  0
M  CHG  1   9  -1
M  END
>  <UniqueID>  (78) 
78

>  <SMILES>  (78) 
Cc1ccc2cc(C([NH-])=O)n(C(=O)OC(=O)OCCO)c2c1

>  <Energy>  (78) 
70.44339426397697

>  <Genealogy>  (78) 
Cc1ccc2cc(C([NH-])=O)n(C(=O)OC(=O)OCCO)c2c1 (protonated)
Cc1ccc2cc(C([NH-])=O)n(C(=O)OC(=O)OCCO)c2c1 (3D coordinates assigned)
Cc1ccc2cc(C([NH-])=O)n(C(=O)OC(=O)OCCO)c2c1 (optimized conformer: 70.44339426397697 kcal/mol)

>  <smiles>  (78) 
Cc1ccc2cc(C(N)=O)n(C(=O)OC(=O)OCCO)c2c1

>  <score_type>  (78) 
oracle

>  <origin>  (78) 
adg

>  <m_score__min__energy>  (78) 
-10.050000000000001

>  <m_primary>  (78) 
energy

$$$$
78:0
     RDKit          3D

 54 56  0  0  0  0  0  0  0  0999 V2000
   -3.8190   16.4890  -33.6990 C   0  0  0  0  0  0  0  0  0  0  0  0
   -5.1840   16.1120  -33.2940 N   0  0  0  0  0  0  0  0  0  0  0  0
   -6.1920   16.5820  -34.2690 C   0  0  0  0  0  0  0  0  0  0  0  0
   -6.4760   18.0880  -34.1250 C   0  0  0  0  0  0  0  0  0  0  0  0
   -6.6840   18.4510  -32.7190 N   0  0  0  0  0  0  0  0  0  0  0  0
   -6.8720   19.8300  -32.3450 C   0  0  0  0  0  0  0  0  0  0  0  0
   -8.1740   20.3860  -32.2640 C   0  0  0  0  0  0  0  0  0  0  0  0
   -8.3640   21.7240  -31.8740 C   0  0  0  0  0  0  0  0  0  0  0  0
   -7.2410   22.4730  -31.5480 C   0  0  0  0  0  0  0  0  0  0  0  0
   -7.1370   23.7850  -31.1430 C   0  0  0  0  0  0  0  0  0  0  0  0
   -5.7750   24.0090  -30.9510 C   0  0  0  0  0  0  0  0  0  0  0  0
   -5.2160   25.2790  -30.4550 C   0  0  0  0  0  0  0  0  0  0  0  0
   -3.9010   25.6770  -30.8420 N   0  0  0  0  0  0  0  0  0  0  0  0
   -5.8910   26.0280  -29.7000 O   0  0  0  0  0  0  0  0  0  0  0  0
   -5.0630   22.8770  -31.2240 N   0  0  0  0  0  0  0  0  0  0  0  0
   -3.6330   22.7260  -31.2310 C   0  0  0  0  0  0  0  0  0  0  0  0
   -2.9590   23.1290  -30.2440 O   0  0  0  0  0  0  0  0  0  0  0  0
   -2.9370   22.1270  -32.3820 C   0  0  0  0  0  0  0  0  0  0  0  0
   -3.4930   22.1000  -33.5130 O   0  0  0  0  0  0  0  0  0  0  0  0
   -1.6270   21.5710  -32.1950 N   0  0  0  0  0  0  0  0  0  0  0  0
   -1.1220   20.2890  -32.7040 C   0  0  0  0  0  0  0  0  0  0  0  0
   -2.3000   19.3160  -32.9130 C   0  0  0  0  0  0  0  0  0  0  0  0
   -0.0960   19.6820  -31.7250 C   0  0  0  0  0  0  0  0  0  0  0  0
   -0.4460   20.5630  -34.0620 C   0  0  0  0  0  0  0  0  0  0  0  0
   -0.5550   21.9210  -34.3960 O   0  0  0  0  0  0  0  0  0  0  0  0
   -5.9740   21.9500  -31.5980 C   0  0  0  0  0  0  0  0  0  0  0  0
   -5.7550   20.6390  -32.0350 C   0  0  0  0  0  0  0  0  0  0  0  0
   -6.6990   17.3880  -31.7090 C   0  0  0  0  0  0  0  0  0  0  0  0
   -5.4650   16.4910  -31.8820 C   0  0  0  0  0  0  0  0  0  0  0  0
   -3.2043   16.6588  -32.8027 H   0  0  0  0  0  0  0  0  0  0  0  0
   -3.3775   15.6792  -34.2984 H   0  0  0  0  0  0  0  0  0  0  0  0
   -3.8557   17.4106  -34.2984 H   0  0  0  0  0  0  0  0  0  0  0  0
   -5.8207   16.3864  -35.2858 H   0  0  0  0  0  0  0  0  0  0  0  0
   -7.1295   16.0398  -34.0763 H   0  0  0  0  0  0  0  0  0  0  0  0
   -5.6202   18.6550  -34.5202 H   0  0  0  0  0  0  0  0  0  0  0  0
   -7.3900   18.3280  -34.6881 H   0  0  0  0  0  0  0  0  0  0  0  0
   -9.0467   19.7629  -32.5093 H   0  0  0  0  0  0  0  0  0  0  0  0
   -9.3713   22.1636  -31.8286 H   0  0  0  0  0  0  0  0  0  0  0  0
   -7.9566   24.5048  -31.0009 H   0  0  0  0  0  0  0  0  0  0  0  0
   -3.0590   25.2950  -30.3540 H   0  0  0  0  0  0  0  0  0  0  0  0
   -2.6885   18.9951  -31.9352 H   0  0  0  0  0  0  0  0  0  0  0  0
   -3.0979   19.8219  -33.4765 H   0  0  0  0  0  0  0  0  0  0  0  0
   -1.9539   18.4369  -33.4765 H   0  0  0  0  0  0  0  0  0  0  0  0
   -0.4186   19.8729  -30.6908 H   0  0  0  0  0  0  0  0  0  0  0  0
   -0.0262   18.5972  -31.8930 H   0  0  0  0  0  0  0  0  0  0  0  0
    0.8884   20.1431  -31.8930 H   0  0  0  0  0  0  0  0  0  0  0  0
    0.6175   20.2891  -33.9995 H   0  0  0  0  0  0  0  0  0  0  0  0
   -0.9453   19.9632  -34.8372 H   0  0  0  0  0  0  0  0  0  0  0  0
   -1.5110   22.1610  -34.2790 H   0  0  0  0  0  0  0  0  0  0  0  0
   -4.7328   20.2452  -32.1354 H   0  0  0  0  0  0  0  0  0  0  0  0
   -6.6862   17.8375  -30.7051 H   0  0  0  0  0  0  0  0  0  0  0  0
   -7.6091   16.7824  -31.8316 H   0  0  0  0  0  0  0  0  0  0  0  0
   -4.5896   17.0274  -31.4873 H   0  0  0  0  0  0  0  0  0  0  0  0
   -5.6715   15.5578  -31.3375 H   0  0  0  0  0  0  0  0  0  0  0  0
  1  2  1  0
  2  3  1  0
  3  4  1  0
  4  5  1  0
  5  6  1  0
  6  7  2  0
  7  8  1  0
  8  9  2  0
  9 10  1  0
 10 11  2  0
 11 12  1  0
 12 13  1  0
 12 14  2  0
 11 15  1  0
 15 16  1  0
 16 17  2  0
 16 18  1  0
 18 19  2  0
 18 20  1  0
 20 21  1  0
 21 22  1  0
 21 23  1  0
 21 24  1  0
 24 25  1  0
 15 26  1  0
 26 27  2  0
  5 28  1  0
 28 29  1  0
 29  2  1  0
 27  6  1  0
 26  9  1  0
  1 30  1  0
  1 31  1  0
  1 32  1  0
  3 33  1  0
  3 34  1  0
  4 35  1  0
  4 36  1  0
  7 37  1  0
  8 38  1  0
 10 39  1  0
 13 40  1  0
 22 41  1  0
 22 42  1  0
 22 43  1  0
 23 44  1  0
 23 45  1  0
 23 46  1  0
 24 47  1  0
 24 48  1  0
 25 49  1  0
 27 50  1  0
 28 51  1  0
 28 52  1  0
 29 53  1  0
 29 54  1  0
M  CHG  2  13  -1  20  -1
M  END
>  <UniqueID>  (79) 
79

>  <SMILES>  (79) 
CN1CCN(c2ccc3cc(C([NH-])=O)n(C(=O)C(=O)[N-]C(C)(C)CO)c3c2)CC1

>  <Energy>  (79) 
99.85131710532997

>  <Genealogy>  (79) 
CN1CCN(c2ccc3cc(C([NH-])=O)n(C(=O)C(=O)[N-]C(C)(C)CO)c3c2)CC1 (protonated)
CN1CCN(c2ccc3cc(C([NH-])=O)n(C(=O)C(=O)[N-]C(C)(C)CO)c3c2)CC1 (3D coordinates assigned)
CN1CCN(c2ccc3cc(C([NH-])=O)n(C(=O)C(=O)[N-]C(C)(C)CO)c3c2)CC1 (nonaromatic ring conformer: 99.85131710532997 kcal/mol)

>  <smiles>  (79) 
CN1CCN(c2ccc3cc(C(N)=O)n(C(=O)C(=O)NC(C)(C)CO)c3c2)CC1

>  <score_type>  (79) 
oracle

>  <origin>  (79) 
adg

>  <m_score__min__energy>  (79) 
-12.84

>  <m_primary>  (79) 
energy

$$$$
79:0
     RDKit          3D

 43 44  0  0  0  0  0  0  0  0999 V2000
   -4.1580   18.6230  -34.2400 C   0  0  0  0  0  0  0  0  0  0  0  0
   -4.4830   19.4030  -33.0410 N   0  0  0  0  0  0  0  0  0  0  0  0
   -5.8810   19.4860  -32.5900 C   0  0  0  0  0  0  0  0  0  0  0  0
   -6.5430   20.7970  -33.0380 C   0  0  0  0  0  0  0  0  0  0  0  0
   -7.3250   21.4500  -31.9150 C   0  0  0  0  0  0  0  0  0  0  0  0
   -8.4330   21.0080  -31.6440 O   0  0  0  0  0  0  0  0  0  0  0  0
   -6.7860   22.5430  -31.1260 N   0  0  0  0  0  0  0  0  0  0  0  0
   -7.5770   22.7650  -29.9060 C   0  0  0  0  0  0  0  0  0  0  0  0
   -6.6860   23.7730  -31.9290 C   0  0  0  0  0  0  0  0  0  0  0  0
   -3.4340   20.0990  -32.3350 C   0  0  0  0  0  0  0  0  0  0  0  0
   -2.1210   19.5650  -32.2940 C   0  0  0  0  0  0  0  0  0  0  0  0
   -1.0870   20.2450  -31.6300 C   0  0  0  0  0  0  0  0  0  0  0  0
   -1.3950   21.4470  -31.0020 C   0  0  0  0  0  0  0  0  0  0  0  0
   -0.5810   22.3210  -30.3190 C   0  0  0  0  0  0  0  0  0  0  0  0
   -1.4140   23.3630  -29.9170 C   0  0  0  0  0  0  0  0  0  0  0  0
   -0.9590   24.4890  -29.0780 C   0  0  0  0  0  0  0  0  0  0  0  0
   -1.7440   25.6720  -28.9480 N   0  0  0  0  0  0  0  0  0  0  0  0
    0.1150   24.3870  -28.4260 O   0  0  0  0  0  0  0  0  0  0  0  0
   -2.6920   23.1470  -30.3420 N   0  0  0  0  0  0  0  0  0  0  0  0
   -3.8170   24.0320  -30.2240 C   0  0  0  0  0  0  0  0  0  0  0  0
   -3.8180   25.1440  -30.8130 O   0  0  0  0  0  0  0  0  0  0  0  0
   -4.9090   23.6770  -29.4390 O   0  0  0  0  0  0  0  0  0  0  0  0
   -2.6620   21.9670  -31.0030 C   0  0  0  0  0  0  0  0  0  0  0  0
   -3.7080   21.3180  -31.6710 C   0  0  0  0  0  0  0  0  0  0  0  0
   -3.7507   17.6455  -33.9423 H   0  0  0  0  0  0  0  0  0  0  0  0
   -5.0688   18.4738  -34.8384 H   0  0  0  0  0  0  0  0  0  0  0  0
   -3.4107   19.1647  -34.8384 H   0  0  0  0  0  0  0  0  0  0  0  0
   -6.4430   18.6399  -33.0122 H   0  0  0  0  0  0  0  0  0  0  0  0
   -5.8901   19.4544  -31.4905 H   0  0  0  0  0  0  0  0  0  0  0  0
   -5.7609   21.4921  -33.3773 H   0  0  0  0  0  0  0  0  0  0  0  0
   -7.2462   20.5626  -33.8507 H   0  0  0  0  0  0  0  0  0  0  0  0
   -5.8150   22.2880  -30.8240 H   0  0  0  0  0  0  0  0  0  0  0  0
   -6.9460   22.5879  -29.0226 H   0  0  0  0  0  0  0  0  0  0  0  0
   -7.9456   23.8013  -29.8915 H   0  0  0  0  0  0  0  0  0  0  0  0
   -8.4310   22.0718  -29.8915 H   0  0  0  0  0  0  0  0  0  0  0  0
   -6.6153   24.6431  -31.2597 H   0  0  0  0  0  0  0  0  0  0  0  0
   -5.7888   23.7247  -32.5636 H   0  0  0  0  0  0  0  0  0  0  0  0
   -7.5792   23.8702  -32.5636 H   0  0  0  0  0  0  0  0  0  0  0  0
   -1.9096   18.6056  -32.7888 H   0  0  0  0  0  0  0  0  0  0  0  0
   -0.0648   19.8393  -31.6074 H   0  0  0  0  0  0  0  0  0  0  0  0
    0.4979   22.2188  -30.1304 H   0  0  0  0  0  0  0  0  0  0  0  0
   -2.7440   25.6880  -29.2490 H   0  0  0  0  0  0  0  0  0  0  0  0
   -4.7209   21.7468  -31.6793 H   0  0  0  0  0  0  0  0  0  0  0  0
  1  2  1  0
  2  3  1  0
  3  4  1  0
  4  5  1  0
  5  6  2  0
  5  7  1  0
  7  8  1  0
  7  9  1  0
  2 10  1  0
 10 11  2  0
 11 12  1  0
 12 13  2  0
 13 14  1  0
 14 15  2  0
 15 16  1  0
 16 17  1  0
 16 18  2  0
 15 19  1  0
 19 20  1  0
 20 21  2  0
 20 22  1  0
 19 23  1  0
 23 24  2  0
 24 10  1  0
 23 13  1  0
  1 25  1  0
  1 26  1  0
  1 27  1  0
  3 28  1  0
  3 29  1  0
  4 30  1  0
  4 31  1  0
  7 32  1  0
  8 33  1  0
  8 34  1  0
  8 35  1  0
  9 36  1  0
  9 37  1  0
  9 38  1  0
 11 39  1  0
 12 40  1  0
 14 41  1  0
 17 42  1  0
 24 43  1  0
M  CHG  3   7   1  17  -1  22  -1
M  END
>  <UniqueID>  (80) 
80

>  <SMILES>  (80) 
CN(CCC(=O)[NH+](C)C)c1ccc2cc(C([NH-])=O)n(C(=O)[O-])c2c1

>  <Energy>  (80) 
83.0840989229195

>  <Genealogy>  (80) 
CN(CCC(=O)[NH+](C)C)c1ccc2cc(C([NH-])=O)n(C(=O)[O-])c2c1 (protonated)
CN(CCC(=O)[NH+](C)C)c1ccc2cc(C([NH-])=O)n(C(=O)[O-])c2c1 (3D coordinates assigned)
CN(CCC(=O)[NH+](C)C)c1ccc2cc(C([NH-])=O)n(C(=O)[O-])c2c1 (optimized conformer: 83.0840989229195 kcal/mol)

>  <smiles>  (80) 
CN(C)C(=O)CCN(C)c1ccc2cc(C(N)=O)n(C(=O)O)c2c1

>  <score_type>  (80) 
oracle

>  <origin>  (80) 
adg

>  <m_score__min__energy>  (80) 
-10.210000000000001

>  <m_primary>  (80) 
energy

$$$$
80:0
     RDKit          3D

 39 41  0  0  0  0  0  0  0  0999 V2000
   -5.3590   25.5230  -30.5460 C   0  0  0  0  0  0  0  0  0  0  0  0
   -5.4230   24.9030  -29.3700 C   0  0  0  0  0  0  0  0  0  0  0  0
   -4.3300   24.0510  -28.8620 C   0  0  0  0  0  0  0  0  0  0  0  0
   -4.0990   23.9760  -27.6240 O   0  0  0  0  0  0  0  0  0  0  0  0
   -3.5160   23.3040  -29.7800 N   0  0  0  0  0  0  0  0  0  0  0  0
   -2.1630   23.3550  -29.9260 C   0  0  0  0  0  0  0  0  0  0  0  0
   -1.2520   24.3020  -29.2490 C   0  0  0  0  0  0  0  0  0  0  0  0
   -1.6120   25.6710  -29.0720 N   0  0  0  0  0  0  0  0  0  0  0  0
   -0.1240   23.9070  -28.8500 O   0  0  0  0  0  0  0  0  0  0  0  0
   -1.7380   22.4150  -30.8640 C   0  0  0  0  0  0  0  0  0  0  0  0
   -2.8820   21.7820  -31.2910 C   0  0  0  0  0  0  0  0  0  0  0  0
   -3.0460   20.7490  -32.2110 C   0  0  0  0  0  0  0  0  0  0  0  0
   -4.3470   20.2660  -32.4310 C   0  0  0  0  0  0  0  0  0  0  0  0
   -5.4450   20.8040  -31.7200 C   0  0  0  0  0  0  0  0  0  0  0  0
   -6.8050   20.2820  -31.9480 C   0  0  0  0  0  0  0  0  0  0  0  0
   -6.9590   18.9040  -32.1730 C   0  0  0  0  0  0  0  0  0  0  0  0
   -8.2280   18.3570  -32.3720 C   0  0  0  0  0  0  0  0  0  0  0  0
   -9.3540   19.1780  -32.3520 C   0  0  0  0  0  0  0  0  0  0  0  0
   -9.2150   20.5530  -32.1430 C   0  0  0  0  0  0  0  0  0  0  0  0
   -7.9460   21.1230  -31.9470 C   0  0  0  0  0  0  0  0  0  0  0  0
   -7.8190   22.8790  -31.7460 S   0  0  0  0  0  0  0  0  0  0  0  0
   -6.5020   23.4940  -32.6840 N   0  0  0  0  0  0  0  0  0  0  0  0
   -7.6160   23.2110  -30.2940 O   0  0  0  0  0  0  0  0  0  0  0  0
   -9.0810   23.5410  -32.2220 O   0  0  0  0  0  0  0  0  0  0  0  0
   -5.2450   21.8590  -30.8040 C   0  0  0  0  0  0  0  0  0  0  0  0
   -3.9420   22.3340  -30.6190 C   0  0  0  0  0  0  0  0  0  0  0  0
   -6.1982   26.1485  -30.8844 H   0  0  0  0  0  0  0  0  0  0  0  0
   -4.4669   25.4099  -31.1795 H   0  0  0  0  0  0  0  0  0  0  0  0
   -6.3248   25.0304  -28.7532 H   0  0  0  0  0  0  0  0  0  0  0  0
   -1.2290   26.4120  -29.6990 H   0  0  0  0  0  0  0  0  0  0  0  0
   -0.7064   22.2208  -31.1928 H   0  0  0  0  0  0  0  0  0  0  0  0
   -2.1847   20.3250  -32.7480 H   0  0  0  0  0  0  0  0  0  0  0  0
   -4.5131   19.4619  -33.1630 H   0  0  0  0  0  0  0  0  0  0  0  0
   -6.0737   18.2514  -32.1925 H   0  0  0  0  0  0  0  0  0  0  0  0
   -8.3393   17.2764  -32.5448 H   0  0  0  0  0  0  0  0  0  0  0  0
  -10.3534   18.7433  -32.5009 H   0  0  0  0  0  0  0  0  0  0  0  0
  -10.1080   21.1952  -32.1319 H   0  0  0  0  0  0  0  0  0  0  0  0
   -6.2940   22.7940  -33.4320 H   0  0  0  0  0  0  0  0  0  0  0  0
   -6.0898   22.2955  -30.2511 H   0  0  0  0  0  0  0  0  0  0  0  0
  1  2  2  0
  2  3  1  0
  3  4  2  0
  3  5  1  0
  5  6  1  0
  6  7  1  0
  7  8  1  0
  7  9  2  0
  6 10  2  0
 10 11  1  0
 11 12  2  0
 12 13  1  0
 13 14  2  0
 14 15  1  0
 15 16  2  0
 16 17  1  0
 17 18  2  0
 18 19  1  0
 19 20  2  0
 20 21  1  0
 21 22  1  0
 21 23  2  0
 21 24  2  0
 14 25  1  0
 25 26  2  0
 26  5  1  0
 26 11  1  0
 20 15  1  0
  1 27  1  0
  1 28  1  0
  2 29  1  0
  8 30  1  0
 10 31  1  0
 12 32  1  0
 13 33  1  0
 16 34  1  0
 17 35  1  0
 18 36  1  0
 19 37  1  0
 22 38  1  0
 25 39  1  0
M  CHG  2   8  -1  22  -1
M  END
>  <UniqueID>  (81) 
81

>  <SMILES>  (81) 
C=CC(=O)n1c(C([NH-])=O)cc2ccc(-c3ccccc3S([NH-])(=O)=O)cc21

>  <Energy>  (81) 
88.38555984183064

>  <Genealogy>  (81) 
C=CC(=O)n1c(C([NH-])=O)cc2ccc(-c3ccccc3S([NH-])(=O)=O)cc21 (protonated)
C=CC(=O)n1c(C([NH-])=O)cc2ccc(-c3ccccc3S([NH-])(=O)=O)cc21 (3D coordinates assigned)
C=CC(=O)n1c(C([NH-])=O)cc2ccc(-c3ccccc3S([NH-])(=O)=O)cc21 (optimized conformer: 88.38555984183064 kcal/mol)

>  <smiles>  (81) 
C=CC(=O)n1c(C(N)=O)cc2ccc(-c3ccccc3S(N)(=O)=O)cc21

>  <score_type>  (81) 
oracle

>  <origin>  (81) 
adg

>  <m_score__min__energy>  (81) 
-11.75

>  <m_primary>  (81) 
energy

$$$$
81:0
     RDKit          3D

 47 48  0  0  0  0  0  0  0  0999 V2000
   -2.8250   19.9730  -33.8450 C   0  0  0  0  0  0  0  0  0  0  0  0
   -2.2870   20.9420  -32.7740 C   0  0  0  0  0  0  0  0  0  0  0  0
   -0.7930   21.2360  -33.0090 C   0  0  0  0  0  0  0  0  0  0  0  0
   -2.4550   20.2970  -31.3910 C   0  0  0  0  0  0  0  0  0  0  0  0
   -3.0450   22.1600  -32.7690 O   0  0  0  0  0  0  0  0  0  0  0  0
   -3.6130   22.7820  -31.6460 C   0  0  0  0  0  0  0  0  0  0  0  0
   -2.8910   23.2070  -30.7060 O   0  0  0  0  0  0  0  0  0  0  0  0
   -5.0400   22.9100  -31.5620 N   0  0  0  0  0  0  0  0  0  0  0  0
   -5.7600   23.9150  -30.9870 C   0  0  0  0  0  0  0  0  0  0  0  0
   -5.2140   25.1840  -30.4610 C   0  0  0  0  0  0  0  0  0  0  0  0
   -3.9190   25.6400  -30.8420 N   0  0  0  0  0  0  0  0  0  0  0  0
   -5.9210   25.9000  -29.7010 O   0  0  0  0  0  0  0  0  0  0  0  0
   -7.1220   23.6280  -31.0340 C   0  0  0  0  0  0  0  0  0  0  0  0
   -7.2160   22.4090  -31.6680 C   0  0  0  0  0  0  0  0  0  0  0  0
   -8.3360   21.6450  -31.9760 C   0  0  0  0  0  0  0  0  0  0  0  0
   -8.1360   20.4090  -32.6130 C   0  0  0  0  0  0  0  0  0  0  0  0
   -6.8250   19.9520  -32.9200 C   0  0  0  0  0  0  0  0  0  0  0  0
   -6.5910   18.6840  -33.5660 N   0  0  0  0  0  0  0  0  0  0  0  0
   -7.2240   17.4220  -33.1790 C   0  0  0  0  0  0  0  0  0  0  0  0
   -6.1840   16.2890  -33.1030 C   0  0  2  0  0  0  0  0  0  0  0  0
   -5.3990   16.4100  -31.9420 O   0  0  0  0  0  0  0  0  0  0  0  0
   -5.2950   16.2720  -34.3580 C   0  0  0  0  0  0  0  0  0  0  0  0
   -4.2880   17.2430  -34.2610 O   0  0  0  0  0  0  0  0  0  0  0  0
   -5.7160   20.7640  -32.5940 C   0  0  0  0  0  0  0  0  0  0  0  0
   -5.9460   21.9990  -31.9760 C   0  0  0  0  0  0  0  0  0  0  0  0
   -3.3028   19.1124  -33.3540 H   0  0  0  0  0  0  0  0  0  0  0  0
   -3.5633   20.4935  -34.4727 H   0  0  0  0  0  0  0  0  0  0  0  0
   -1.9928   19.6215  -34.4727 H   0  0  0  0  0  0  0  0  0  0  0  0
   -0.2822   21.3365  -32.0400 H   0  0  0  0  0  0  0  0  0  0  0  0
   -0.3416   20.4095  -33.5774 H   0  0  0  0  0  0  0  0  0  0  0  0
   -0.6885   22.1719  -33.5774 H   0  0  0  0  0  0  0  0  0  0  0  0
   -2.2596   21.0470  -30.6104 H   0  0  0  0  0  0  0  0  0  0  0  0
   -3.4820   19.9173  -31.2858 H   0  0  0  0  0  0  0  0  0  0  0  0
   -1.7437   19.4645  -31.2858 H   0  0  0  0  0  0  0  0  0  0  0  0
   -3.0620   25.2890  -30.3590 H   0  0  0  0  0  0  0  0  0  0  0  0
   -7.9472   24.2439  -30.6470 H   0  0  0  0  0  0  0  0  0  0  0  0
   -9.3481   21.9977  -31.7284 H   0  0  0  0  0  0  0  0  0  0  0  0
   -9.0040   19.7872  -32.8775 H   0  0  0  0  0  0  0  0  0  0  0  0
   -5.9250   18.6540  -34.3710 H   0  0  0  0  0  0  0  0  0  0  0  0
   -7.6976   17.5434  -32.1936 H   0  0  0  0  0  0  0  0  0  0  0  0
   -7.9773   17.1588  -33.9362 H   0  0  0  0  0  0  0  0  0  0  0  0
   -6.7269   15.3335  -33.0559 H   0  0  0  0  0  0  0  0  0  0  0  0
   -4.4540   16.5180  -32.2280 H   0  0  0  0  0  0  0  0  0  0  0  0
   -4.8319   15.2794  -34.4599 H   0  0  0  0  0  0  0  0  0  0  0  0
   -5.9177   16.4926  -35.2375 H   0  0  0  0  0  0  0  0  0  0  0  0
   -4.4010   17.6810  -33.3770 H   0  0  0  0  0  0  0  0  0  0  0  0
   -4.6920   20.4325  -32.8212 H   0  0  0  0  0  0  0  0  0  0  0  0
  1  2  1  0
  2  3  1  0
  2  4  1  0
  2  5  1  0
  5  6  1  0
  6  7  2  0
  6  8  1  0
  8  9  1  0
  9 10  1  0
 10 11  1  0
 10 12  2  0
  9 13  2  0
 13 14  1  0
 14 15  2  0
 15 16  1  0
 16 17  2  0
 17 18  1  0
 18 19  1  0
 19 20  1  0
 20 21  1  0
 20 22  1  0
 22 23  1  0
 17 24  1  0
 24 25  2  0
 25  8  1  0
 25 14  1  0
  1 26  1  0
  1 27  1  0
  1 28  1  0
  3 29  1  0
  3 30  1  0
  3 31  1  0
  4 32  1  0
  4 33  1  0
  4 34  1  0
 11 35  1  0
 13 36  1  0
 15 37  1  0
 16 38  1  0
 18 39  1  0
 19 40  1  0
 19 41  1  0
 20 42  1  1
 21 43  1  0
 22 44  1  0
 22 45  1  0
 23 46  1  0
 24 47  1  0
M  CHG  1  11  -1
M  END
>  <UniqueID>  (82) 
82

>  <SMILES>  (82) 
CC(C)(C)OC(=O)n1c(C([NH-])=O)cc2ccc(NC[C@H](O)CO)cc21

>  <Energy>  (82) 
77.73022154234849

>  <Genealogy>  (82) 
CC(C)(C)OC(=O)n1c(C([NH-])=O)cc2ccc(NCC(O)CO)cc21 (protonated)
CC(C)(C)OC(=O)n1c(C([NH-])=O)cc2ccc(NC[C@H](O)CO)cc21 (chirality)
CC(C)(C)OC(=O)n1c(C([NH-])=O)cc2ccc(NC[C@H](O)CO)cc21 (3D coordinates assigned)
CC(C)(C)OC(=O)n1c(C([NH-])=O)cc2ccc(NC[C@H](O)CO)cc21 (optimized conformer: 77.73022154234849 kcal/mol)

>  <smiles>  (82) 
CC(C)(C)OC(=O)n1c(C(N)=O)cc2ccc(NCC(O)CO)cc21

>  <score_type>  (82) 
oracle

>  <origin>  (82) 
adg

>  <m_score__min__energy>  (82) 
-9.8800000000000008

>  <m_primary>  (82) 
energy

$$$$
82:0
     RDKit          3D

 33 34  0  0  0  0  0  0  0  0999 V2000
   -4.2100   25.5620  -30.6920 N   0  0  0  0  0  0  0  0  0  0  0  0
   -5.5480   25.1550  -30.3970 C   0  0  0  0  0  0  0  0  0  0  0  0
   -6.2860   25.9230  -29.7240 O   0  0  0  0  0  0  0  0  0  0  0  0
   -6.0760   23.8620  -30.8910 C   0  0  0  0  0  0  0  0  0  0  0  0
   -7.4160   23.6260  -31.1990 C   0  0  0  0  0  0  0  0  0  0  0  0
   -7.4790   22.2970  -31.5540 C   0  0  0  0  0  0  0  0  0  0  0  0
   -8.5650   21.5370  -31.9790 C   0  0  0  0  0  0  0  0  0  0  0  0
   -8.3350   20.1940  -32.3180 C   0  0  0  0  0  0  0  0  0  0  0  0
   -7.0350   19.6310  -32.2190 C   0  0  0  0  0  0  0  0  0  0  0  0
   -6.7900   18.2070  -32.6450 C   0  0  0  0  0  0  0  0  0  0  0  0
   -6.4670   18.1830  -33.9890 F   0  0  0  0  0  0  0  0  0  0  0  0
   -7.9180   17.4330  -32.4380 F   0  0  0  0  0  0  0  0  0  0  0  0
   -5.7470   17.6540  -31.9200 F   0  0  0  0  0  0  0  0  0  0  0  0
   -5.9550   20.4460  -31.8070 C   0  0  0  0  0  0  0  0  0  0  0  0
   -6.2170   21.7750  -31.4550 C   0  0  0  0  0  0  0  0  0  0  0  0
   -5.3460   22.7220  -31.0440 N   0  0  0  0  0  0  0  0  0  0  0  0
   -3.9260   22.5730  -30.8740 C   0  0  0  0  0  0  0  0  0  0  0  0
   -3.1430   23.0490  -31.7410 O   0  0  0  0  0  0  0  0  0  0  0  0
   -3.3630   21.9450  -29.6300 C   0  0  0  0  0  0  0  0  0  0  0  0
   -2.9610   23.0040  -28.5980 C   0  0  0  0  0  0  0  0  0  0  0  0
   -1.9650   23.9530  -29.1840 C   0  0  0  0  0  0  0  0  0  0  0  0
   -0.8470   23.5320  -29.5820 O   0  0  0  0  0  0  0  0  0  0  0  0
   -2.2900   25.2950  -29.3370 O   0  0  0  0  0  0  0  0  0  0  0  0
   -3.5450   24.9300  -31.1890 H   0  0  0  0  0  0  0  0  0  0  0  0
   -3.8640   26.4920  -30.3690 H   0  0  0  0  0  0  0  0  0  0  0  0
   -8.2455   24.3477  -31.1654 H   0  0  0  0  0  0  0  0  0  0  0  0
   -9.5718   21.9748  -32.0471 H   0  0  0  0  0  0  0  0  0  0  0  0
   -9.1721   19.5702  -32.6646 H   0  0  0  0  0  0  0  0  0  0  0  0
   -4.9319   20.0443  -31.7642 H   0  0  0  0  0  0  0  0  0  0  0  0
   -4.1236   21.2852  -29.1872 H   0  0  0  0  0  0  0  0  0  0  0  0
   -2.4639   21.3755  -29.9078 H   0  0  0  0  0  0  0  0  0  0  0  0
   -3.8551   23.5640  -28.2865 H   0  0  0  0  0  0  0  0  0  0  0  0
   -2.5074   22.5021  -27.7306 H   0  0  0  0  0  0  0  0  0  0  0  0
  1  2  1  0
  2  3  2  0
  2  4  1  0
  4  5  2  0
  5  6  1  0
  6  7  2  0
  7  8  1  0
  8  9  2  0
  9 10  1  0
 10 11  1  0
 10 12  1  0
 10 13  1  0
  9 14  1  0
 14 15  2  0
 15 16  1  0
 16 17  1  0
 17 18  2  0
 17 19  1  0
 19 20  1  0
 20 21  1  0
 21 22  2  0
 21 23  1  0
 16  4  1  0
 15  6  1  0
  1 24  1  0
  1 25  1  0
  5 26  1  0
  7 27  1  0
  8 28  1  0
 14 29  1  0
 19 30  1  0
 19 31  1  0
 20 32  1  0
 20 33  1  0
M  CHG  1  23  -1
M  END
>  <UniqueID>  (83) 
83

>  <SMILES>  (83) 
NC(=O)c1cc2ccc(C(F)(F)F)cc2n1C(=O)CCC(=O)[O-]

>  <Energy>  (83) 
69.63414758378833

>  <Genealogy>  (83) 
NC(=O)c1cc2ccc(C(F)(F)F)cc2n1C(=O)CCC(=O)[O-] (protonated)
NC(=O)c1cc2ccc(C(F)(F)F)cc2n1C(=O)CCC(=O)[O-] (3D coordinates assigned)
NC(=O)c1cc2ccc(C(F)(F)F)cc2n1C(=O)CCC(=O)[O-] (optimized conformer: 69.63414758378833 kcal/mol)

>  <smiles>  (83) 
NC(=O)c1cc2ccc(C(F)(F)F)cc2n1C(=O)CCC(=O)O

>  <score_type>  (83) 
oracle

>  <origin>  (83) 
adg

>  <m_score__min__energy>  (83) 
-10.26

>  <m_primary>  (83) 
energy

$$$$
83:0
     RDKit          3D

 26 27  0  0  0  0  0  0  0  0999 V2000
   -1.7570   25.3090  -29.3320 N   0  0  0  0  0  0  0  0  0  0  0  0
   -1.4680   23.9160  -29.2280 C   0  0  0  0  0  0  0  0  0  0  0  0
   -0.6470   23.5190  -28.3590 O   0  0  0  0  0  0  0  0  0  0  0  0
   -2.1160   22.9590  -30.1500 C   0  0  0  0  0  0  0  0  0  0  0  0
   -1.4180   22.0250  -30.9140 C   0  0  0  0  0  0  0  0  0  0  0  0
   -2.3820   21.3130  -31.5910 C   0  0  0  0  0  0  0  0  0  0  0  0
   -2.2530   20.2750  -32.5080 C   0  0  0  0  0  0  0  0  0  0  0  0
   -3.4250   19.7480  -33.0770 C   0  0  0  0  0  0  0  0  0  0  0  0
   -4.6950   20.2710  -32.7270 C   0  0  0  0  0  0  0  0  0  0  0  0
   -5.9450   19.7170  -33.3490 C   0  0  0  0  0  0  0  0  0  0  0  0
   -5.6530   19.2040  -34.6010 F   0  0  0  0  0  0  0  0  0  0  0  0
   -6.8880   20.7200  -33.4770 F   0  0  0  0  0  0  0  0  0  0  0  0
   -4.7870   21.3280  -31.7950 C   0  0  0  0  0  0  0  0  0  0  0  0
   -3.6050   21.8180  -31.2310 C   0  0  0  0  0  0  0  0  0  0  0  0
   -3.4580   22.8250  -30.3430 N   0  0  0  0  0  0  0  0  0  0  0  0
   -4.5080   23.6300  -29.7840 C   0  0  0  0  0  0  0  0  0  0  0  0
   -5.1610   23.2030  -28.7950 O   0  0  0  0  0  0  0  0  0  0  0  0
   -4.8370   24.9430  -30.3560 C   0  0  0  0  0  0  0  0  0  0  0  0
   -3.9360   25.6630  -30.8600 O   0  0  0  0  0  0  0  0  0  0  0  0
   -6.1520   25.3910  -30.3580 O   0  0  0  0  0  0  0  0  0  0  0  0
   -2.7430   25.6540  -29.3240 H   0  0  0  0  0  0  0  0  0  0  0  0
   -0.3280   21.8864  -30.9650 H   0  0  0  0  0  0  0  0  0  0  0  0
   -1.2635   19.8786  -32.7796 H   0  0  0  0  0  0  0  0  0  0  0  0
   -3.3561   18.9222  -33.8005 H   0  0  0  0  0  0  0  0  0  0  0  0
   -6.3434   18.9186  -32.7057 H   0  0  0  0  0  0  0  0  0  0  0  0
   -5.7629   21.7547  -31.5199 H   0  0  0  0  0  0  0  0  0  0  0  0
  1  2  1  0
  2  3  2  0
  2  4  1  0
  4  5  2  0
  5  6  1  0
  6  7  2  0
  7  8  1  0
  8  9  2  0
  9 10  1  0
 10 11  1  0
 10 12  1  0
  9 13  1  0
 13 14  2  0
 14 15  1  0
 15 16  1  0
 16 17  2  0
 16 18  1  0
 18 19  2  0
 18 20  1  0
 15  4  1  0
 14  6  1  0
  1 21  1  0
  5 22  1  0
  7 23  1  0
  8 24  1  0
 10 25  1  0
 13 26  1  0
M  CHG  2   1  -1  20  -1
M  END
>  <UniqueID>  (84) 
84

>  <SMILES>  (84) 
[NH-]C(=O)c1cc2ccc(C(F)F)cc2n1C(=O)C(=O)[O-]

>  <Energy>  (84) 
65.23511469171828

>  <Genealogy>  (84) 
[NH-]C(=O)c1cc2ccc(C(F)F)cc2n1C(=O)C(=O)[O-] (protonated)
[NH-]C(=O)c1cc2ccc(C(F)F)cc2n1C(=O)C(=O)[O-] (3D coordinates assigned)
[NH-]C(=O)c1cc2ccc(C(F)F)cc2n1C(=O)C(=O)[O-] (optimized conformer: 65.23511469171828 kcal/mol)

>  <smiles>  (84) 
NC(=O)c1cc2ccc(C(F)F)cc2n1C(=O)C(=O)O

>  <score_type>  (84) 
oracle

>  <origin>  (84) 
adg

>  <m_score__min__energy>  (84) 
-9.4900000000000002

>  <m_primary>  (84) 
energy

$$$$
84:0
     RDKit          3D

 44 45  0  0  0  0  0  0  0  0999 V2000
   -9.4890   21.3140  -31.9330 C   0  0  0  0  0  0  0  0  0  0  0  0
   -8.4590   22.1870  -31.2220 C   0  0  0  0  0  0  0  0  0  0  0  0
   -7.0630   21.8110  -31.6410 C   0  0  0  0  0  0  0  0  0  0  0  0
   -6.8620   20.9350  -32.7360 C   0  0  0  0  0  0  0  0  0  0  0  0
   -5.5630   20.5560  -33.1210 C   0  0  0  0  0  0  0  0  0  0  0  0
   -4.4940   21.0600  -32.3860 C   0  0  0  0  0  0  0  0  0  0  0  0
   -3.1390   20.8610  -32.5390 C   0  0  0  0  0  0  0  0  0  0  0  0
   -2.5390   21.6000  -31.5200 C   0  0  0  0  0  0  0  0  0  0  0  0
   -1.0850   21.6070  -31.2390 C   0  0  0  0  0  0  0  0  0  0  0  0
   -0.5170   22.5640  -30.3420 N   0  0  0  0  0  0  0  0  0  0  0  0
   -0.3280   20.7750  -31.8060 O   0  0  0  0  0  0  0  0  0  0  0  0
   -3.4870   22.2320  -30.7720 N   0  0  0  0  0  0  0  0  0  0  0  0
   -3.2890   23.1140  -29.6550 C   0  0  0  0  0  0  0  0  0  0  0  0
   -3.3060   22.6490  -28.4840 O   0  0  0  0  0  0  0  0  0  0  0  0
   -3.1040   24.5590  -29.8590 C   0  0  0  0  0  0  0  0  0  0  0  0
   -3.9710   25.2180  -30.4920 O   0  0  0  0  0  0  0  0  0  0  0  0
   -1.9410   25.2040  -29.3220 N   0  0  0  0  0  0  0  0  0  0  0  0
   -1.5020   25.2040  -27.9210 C   0  0  0  0  0  0  0  0  0  0  0  0
   -2.7040   24.9340  -26.9940 C   0  0  0  0  0  0  0  0  0  0  0  0
   -0.9410   26.6000  -27.6040 C   0  0  0  0  0  0  0  0  0  0  0  0
   -0.4040   24.1370  -27.6930 C   0  0  0  0  0  0  0  0  0  0  0  0
    0.5510   24.1690  -28.7210 O   0  0  0  0  0  0  0  0  0  0  0  0
   -4.6750   21.8880  -31.3100 C   0  0  0  0  0  0  0  0  0  0  0  0
   -5.9530   22.2900  -30.9100 C   0  0  0  0  0  0  0  0  0  0  0  0
  -10.1051   20.7918  -31.1862 H   0  0  0  0  0  0  0  0  0  0  0  0
  -10.1329   21.9456  -32.5627 H   0  0  0  0  0  0  0  0  0  0  0  0
   -8.9715   20.5753  -32.5627 H   0  0  0  0  0  0  0  0  0  0  0  0
   -8.6411   23.2413  -31.4776 H   0  0  0  0  0  0  0  0  0  0  0  0
   -8.5555   22.0353  -30.1368 H   0  0  0  0  0  0  0  0  0  0  0  0
   -7.7295   20.5476  -33.2903 H   0  0  0  0  0  0  0  0  0  0  0  0
   -5.3976   19.8831  -33.9753 H   0  0  0  0  0  0  0  0  0  0  0  0
   -2.6371   20.2490  -33.3029 H   0  0  0  0  0  0  0  0  0  0  0  0
    0.5150   22.5810  -30.1810 H   0  0  0  0  0  0  0  0  0  0  0  0
   -1.1150   23.2280  -29.8040 H   0  0  0  0  0  0  0  0  0  0  0  0
   -2.3815   25.0065  -25.9448 H   0  0  0  0  0  0  0  0  0  0  0  0
   -3.4909   25.6778  -27.1879 H   0  0  0  0  0  0  0  0  0  0  0  0
   -3.0972   23.9251  -27.1879 H   0  0  0  0  0  0  0  0  0  0  0  0
   -0.8869   26.7345  -26.5136 H   0  0  0  0  0  0  0  0  0  0  0  0
    0.0660   26.6972  -28.0358 H   0  0  0  0  0  0  0  0  0  0  0  0
   -1.6007   27.3670  -28.0358 H   0  0  0  0  0  0  0  0  0  0  0  0
    0.0948   24.3340  -26.7326 H   0  0  0  0  0  0  0  0  0  0  0  0
   -0.8771   23.1440  -27.6856 H   0  0  0  0  0  0  0  0  0  0  0  0
    0.2420   24.8400  -29.3830 H   0  0  0  0  0  0  0  0  0  0  0  0
   -6.0905   22.9611  -30.0494 H   0  0  0  0  0  0  0  0  0  0  0  0
  1  2  1  0
  2  3  1  0
  3  4  2  0
  4  5  1  0
  5  6  2  0
  6  7  1  0
  7  8  2  0
  8  9  1  0
  9 10  1  0
  9 11  2  0
  8 12  1  0
 12 13  1  0
 13 14  2  0
 13 15  1  0
 15 16  2  0
 15 17  1  0
 17 18  1  0
 18 19  1  0
 18 20  1  0
 18 21  1  0
 21 22  1  0
 12 23  1  0
 23 24  2  0
 24  3  1  0
 23  6  1  0
  1 25  1  0
  1 26  1  0
  1 27  1  0
  2 28  1  0
  2 29  1  0
  4 30  1  0
  5 31  1  0
  7 32  1  0
 10 33  1  0
 10 34  1  0
 19 35  1  0
 19 36  1  0
 19 37  1  0
 20 38  1  0
 20 39  1  0
 20 40  1  0
 21 41  1  0
 21 42  1  0
 22 43  1  0
 24 44  1  0
M  CHG  1  17  -1
M  END
>  <UniqueID>  (85) 
85

>  <SMILES>  (85) 
CCc1ccc2cc(C(N)=O)n(C(=O)C(=O)[N-]C(C)(C)CO)c2c1

>  <Energy>  (85) 
74.81810185153874

>  <Genealogy>  (85) 
CCc1ccc2cc(C(N)=O)n(C(=O)C(=O)[N-]C(C)(C)CO)c2c1 (protonated)
CCc1ccc2cc(C(N)=O)n(C(=O)C(=O)[N-]C(C)(C)CO)c2c1 (3D coordinates assigned)
CCc1ccc2cc(C(N)=O)n(C(=O)C(=O)[N-]C(C)(C)CO)c2c1 (optimized conformer: 74.81810185153874 kcal/mol)

>  <smiles>  (85) 
CCc1ccc2cc(C(N)=O)n(C(=O)C(=O)NC(C)(C)CO)c2c1

>  <score_type>  (85) 
oracle

>  <origin>  (85) 
adg

>  <m_score__min__energy>  (85) 
-10.67

>  <m_primary>  (85) 
energy

$$$$
85:0
     RDKit          3D

 35 36  0  0  0  0  0  0  0  0999 V2000
   -3.8580   25.4840  -30.8330 N   0  0  0  0  0  0  0  0  0  0  0  0
   -5.2000   25.1090  -30.5270 C   0  0  0  0  0  0  0  0  0  0  0  0
   -5.8870   25.8450  -29.7690 O   0  0  0  0  0  0  0  0  0  0  0  0
   -5.7770   23.8520  -31.0470 C   0  0  0  0  0  0  0  0  0  0  0  0
   -7.1460   23.6420  -31.2040 C   0  0  0  0  0  0  0  0  0  0  0  0
   -7.2690   22.3400  -31.6320 C   0  0  0  0  0  0  0  0  0  0  0  0
   -8.4070   21.6050  -31.9510 C   0  0  0  0  0  0  0  0  0  0  0  0
   -8.2330   20.2830  -32.3960 C   0  0  0  0  0  0  0  0  0  0  0  0
   -6.9340   19.7310  -32.5400 C   0  0  0  0  0  0  0  0  0  0  0  0
   -6.7600   18.3010  -32.9880 C   0  0  0  0  0  0  0  0  0  0  0  0
   -7.9290   17.6030  -32.7470 F   0  0  0  0  0  0  0  0  0  0  0  0
   -5.7230   17.6960  -32.2970 F   0  0  0  0  0  0  0  0  0  0  0  0
   -6.4700   18.2440  -34.3400 F   0  0  0  0  0  0  0  0  0  0  0  0
   -5.8060   20.5030  -32.1820 C   0  0  0  0  0  0  0  0  0  0  0  0
   -6.0090   21.8090  -31.7230 C   0  0  0  0  0  0  0  0  0  0  0  0
   -5.0820   22.7240  -31.3680 N   0  0  0  0  0  0  0  0  0  0  0  0
   -3.6600   22.5480  -31.4220 C   0  0  0  0  0  0  0  0  0  0  0  0
   -3.1480   21.8440  -32.3350 O   0  0  0  0  0  0  0  0  0  0  0  0
   -2.8500   23.1380  -30.4450 O   0  0  0  0  0  0  0  0  0  0  0  0
   -1.4830   22.7840  -30.2590 C   0  0  0  0  0  0  0  0  0  0  0  0
   -0.8690   23.6820  -29.3370 O   0  0  0  0  0  0  0  0  0  0  0  0
   -1.5800   24.6850  -28.6720 C   0  0  0  0  0  0  0  0  0  0  0  0
   -1.4020   25.9000  -28.9570 O   0  0  0  0  0  0  0  0  0  0  0  0
   -2.6000   24.3070  -27.6470 C   0  0  0  0  0  0  0  0  0  0  0  0
   -3.8870   24.5590  -28.1390 O   0  0  0  0  0  0  0  0  0  0  0  0
   -3.0780   25.2680  -30.1760 H   0  0  0  0  0  0  0  0  0  0  0  0
   -7.9562   24.3639  -31.0240 H   0  0  0  0  0  0  0  0  0  0  0  0
   -9.4110   22.0447  -31.8578 H   0  0  0  0  0  0  0  0  0  0  0  0
   -9.1141   19.6695  -32.6353 H   0  0  0  0  0  0  0  0  0  0  0  0
   -4.7911   20.0866  -32.2624 H   0  0  0  0  0  0  0  0  0  0  0  0
   -1.4223   21.7589  -29.8647 H   0  0  0  0  0  0  0  0  0  0  0  0
   -0.9595   22.8432  -31.2246 H   0  0  0  0  0  0  0  0  0  0  0  0
   -2.5023   23.2367  -27.4127 H   0  0  0  0  0  0  0  0  0  0  0  0
   -2.4371   24.9034  -26.7372 H   0  0  0  0  0  0  0  0  0  0  0  0
   -3.7860   25.2110  -28.8810 H   0  0  0  0  0  0  0  0  0  0  0  0
  1  2  1  0
  2  3  2  0
  2  4  1  0
  4  5  2  0
  5  6  1  0
  6  7  2  0
  7  8  1  0
  8  9  2  0
  9 10  1  0
 10 11  1  0
 10 12  1  0
 10 13  1  0
  9 14  1  0
 14 15  2  0
 15 16  1  0
 16 17  1  0
 17 18  2  0
 17 19  1  0
 19 20  1  0
 20 21  1  0
 21 22  1  0
 22 23  2  0
 22 24  1  0
 24 25  1  0
 16  4  1  0
 15  6  1  0
  1 26  1  0
  5 27  1  0
  7 28  1  0
  8 29  1  0
 14 30  1  0
 20 31  1  0
 20 32  1  0
 24 33  1  0
 24 34  1  0
 25 35  1  0
M  CHG  1   1  -1
M  END
>  <UniqueID>  (86) 
86

>  <SMILES>  (86) 
[NH-]C(=O)c1cc2ccc(C(F)(F)F)cc2n1C(=O)OCOC(=O)CO

>  <Energy>  (86) 
69.5984979840673

>  <Genealogy>  (86) 
[NH-]C(=O)c1cc2ccc(C(F)(F)F)cc2n1C(=O)OCOC(=O)CO (protonated)
[NH-]C(=O)c1cc2ccc(C(F)(F)F)cc2n1C(=O)OCOC(=O)CO (3D coordinates assigned)
[NH-]C(=O)c1cc2ccc(C(F)(F)F)cc2n1C(=O)OCOC(=O)CO (optimized conformer: 69.5984979840673 kcal/mol)

>  <smiles>  (86) 
NC(=O)c1cc2ccc(C(F)(F)F)cc2n1C(=O)OCOC(=O)CO

>  <score_type>  (86) 
oracle

>  <origin>  (86) 
adg

>  <m_score__min__energy>  (86) 
-9.4199999999999999

>  <m_primary>  (86) 
energy

$$$$
86:0
     RDKit          3D

 31 33  0  0  0  0  0  0  0  0999 V2000
   -6.8120   14.9930  -34.2260 C   0  0  0  0  0  0  0  0  0  0  0  0
   -6.4570   16.4040  -34.2030 N   0  0  0  0  0  0  0  0  0  0  0  0
   -6.9790   17.3340  -33.3830 C   0  0  0  0  0  0  0  0  0  0  0  0
   -6.3340   18.5340  -33.6240 C   0  0  0  0  0  0  0  0  0  0  0  0
   -6.5710   19.8420  -32.9600 C   0  0  0  0  0  0  0  0  0  0  0  0
   -7.8950   20.3120  -32.7450 C   0  0  0  0  0  0  0  0  0  0  0  0
   -8.1290   21.5440  -32.1110 C   0  0  0  0  0  0  0  0  0  0  0  0
   -7.0280   22.2900  -31.7060 C   0  0  0  0  0  0  0  0  0  0  0  0
   -6.9680   23.5020  -31.0560 C   0  0  0  0  0  0  0  0  0  0  0  0
   -5.6090   23.7690  -30.8990 C   0  0  0  0  0  0  0  0  0  0  0  0
   -5.0850   25.0250  -30.3270 C   0  0  0  0  0  0  0  0  0  0  0  0
   -3.9000   25.6250  -30.8430 N   0  0  0  0  0  0  0  0  0  0  0  0
   -5.7170   25.6020  -29.4020 O   0  0  0  0  0  0  0  0  0  0  0  0
   -4.8620   22.7560  -31.4210 N   0  0  0  0  0  0  0  0  0  0  0  0
   -3.4370   22.5970  -31.3790 C   0  0  0  0  0  0  0  0  0  0  0  0
   -2.7640   23.1760  -30.4850 O   0  0  0  0  0  0  0  0  0  0  0  0
   -2.5830   21.6430  -32.6490 S   0  0  0  0  0  0  0  0  0  0  0  0
   -5.7450   21.8620  -31.9150 C   0  0  0  0  0  0  0  0  0  0  0  0
   -5.4780   20.6350  -32.5300 C   0  0  0  0  0  0  0  0  0  0  0  0
   -5.4080   18.2400  -34.6160 C   0  0  0  0  0  0  0  0  0  0  0  0
   -5.4980   16.9360  -34.9430 N   0  0  0  0  0  0  0  0  0  0  0  0
   -6.9055   14.6216  -33.1948 H   0  0  0  0  0  0  0  0  0  0  0  0
   -7.7705   14.8645  -34.7503 H   0  0  0  0  0  0  0  0  0  0  0  0
   -6.0285   14.4263  -34.7503 H   0  0  0  0  0  0  0  0  0  0  0  0
   -7.7804   17.1688  -32.6478 H   0  0  0  0  0  0  0  0  0  0  0  0
   -8.7479   19.7032  -33.0794 H   0  0  0  0  0  0  0  0  0  0  0  0
   -9.1531   21.9074  -31.9402 H   0  0  0  0  0  0  0  0  0  0  0  0
   -7.8127   24.1267  -30.7300 H   0  0  0  0  0  0  0  0  0  0  0  0
   -2.9560   25.2910  -30.5480 H   0  0  0  0  0  0  0  0  0  0  0  0
   -4.4429   20.2929  -32.6768 H   0  0  0  0  0  0  0  0  0  0  0  0
   -4.7088   18.9605  -35.0655 H   0  0  0  0  0  0  0  0  0  0  0  0
  1  2  1  0
  2  3  1  0
  3  4  2  0
  4  5  1  0
  5  6  2  0
  6  7  1  0
  7  8  2  0
  8  9  1  0
  9 10  2  0
 10 11  1  0
 11 12  1  0
 11 13  2  0
 10 14  1  0
 14 15  1  0
 15 16  2  0
 15 17  1  0
 14 18  1  0
 18 19  2  0
  4 20  1  0
 20 21  2  0
 21  2  1  0
 19  5  1  0
 18  8  1  0
  1 22  1  0
  1 23  1  0
  1 24  1  0
  3 25  1  0
  6 26  1  0
  7 27  1  0
  9 28  1  0
 12 29  1  0
 19 30  1  0
 20 31  1  0
M  CHG  2  12  -1  17  -1
M  END
>  <UniqueID>  (87) 
87

>  <SMILES>  (87) 
Cn1cc(-c2ccc3cc(C([NH-])=O)n(C(=O)[S-])c3c2)cn1

>  <Energy>  (87) 
105.25769517312327

>  <Genealogy>  (87) 
Cn1cc(-c2ccc3cc(C([NH-])=O)n(C(=O)[S-])c3c2)cn1 (protonated)
Cn1cc(-c2ccc3cc(C([NH-])=O)n(C(=O)[S-])c3c2)cn1 (3D coordinates assigned)
Cn1cc(-c2ccc3cc(C([NH-])=O)n(C(=O)[S-])c3c2)cn1 (optimized conformer: 105.25769517312327 kcal/mol)

>  <smiles>  (87) 
Cn1cc(-c2ccc3cc(C(N)=O)n(C(=O)S)c3c2)cn1

>  <score_type>  (87) 
oracle

>  <origin>  (87) 
adg

>  <m_score__min__energy>  (87) 
-10.779999999999999

>  <m_primary>  (87) 
energy

$$$$
87:0
     RDKit          3D

 39 40  0  0  0  0  0  0  0  0999 V2000
   -3.7690   25.2730  -30.4650 N   0  0  0  0  0  0  0  0  0  0  0  0
   -5.1870   25.2400  -30.6280 C   0  0  0  0  0  0  0  0  0  0  0  0
   -5.8490   26.3020  -30.4870 O   0  0  0  0  0  0  0  0  0  0  0  0
   -5.8630   23.9640  -30.9400 C   0  0  0  0  0  0  0  0  0  0  0  0
   -7.2490   23.8160  -31.0090 C   0  0  0  0  0  0  0  0  0  0  0  0
   -7.4570   22.5030  -31.3690 C   0  0  0  0  0  0  0  0  0  0  0  0
   -8.6460   21.8090  -31.5780 C   0  0  0  0  0  0  0  0  0  0  0  0
   -8.5640   20.4500  -31.9280 C   0  0  0  0  0  0  0  0  0  0  0  0
   -7.3040   19.8020  -32.0330 C   0  0  0  0  0  0  0  0  0  0  0  0
   -7.2260   18.3560  -32.4520 C   0  0  0  0  0  0  0  0  0  0  0  0
   -6.3200   17.6720  -31.6620 F   0  0  0  0  0  0  0  0  0  0  0  0
   -8.4610   17.7370  -32.3280 F   0  0  0  0  0  0  0  0  0  0  0  0
   -6.8190   18.2870  -33.7710 F   0  0  0  0  0  0  0  0  0  0  0  0
   -6.1190   20.5480  -31.8280 C   0  0  0  0  0  0  0  0  0  0  0  0
   -6.2310   21.9040  -31.5050 C   0  0  0  0  0  0  0  0  0  0  0  0
   -5.2420   22.7910  -31.2520 N   0  0  0  0  0  0  0  0  0  0  0  0
   -3.8320   22.5150  -31.2380 C   0  0  0  0  0  0  0  0  0  0  0  0
   -3.1800   22.5640  -32.3160 O   0  0  0  0  0  0  0  0  0  0  0  0
   -3.1420   22.1710  -29.9790 C   0  0  0  0  0  0  0  0  0  0  0  0
   -3.2030   20.9910  -29.5410 O   0  0  0  0  0  0  0  0  0  0  0  0
   -2.4030   23.1650  -29.2580 N   0  0  0  0  0  0  0  0  0  0  0  0
   -1.7800   22.8650  -27.9670 C   0  0  0  0  0  0  0  0  0  0  0  0
   -2.2800   23.8110  -26.8610 C   0  0  0  0  0  0  0  0  0  0  0  0
   -1.7290   25.2420  -26.9890 C   0  0  0  0  0  0  0  0  0  0  0  0
   -0.7910   25.3760  -28.1490 C   0  0  0  0  0  0  0  0  0  0  0  0
    0.3790   24.9090  -28.0810 O   0  0  0  0  0  0  0  0  0  0  0  0
   -1.2210   25.9910  -29.3200 O   0  0  0  0  0  0  0  0  0  0  0  0
   -3.3370   25.6420  -29.5880 H   0  0  0  0  0  0  0  0  0  0  0  0
   -8.0125   24.5842  -30.8168 H   0  0  0  0  0  0  0  0  0  0  0  0
   -9.6200   22.3091  -31.4724 H   0  0  0  0  0  0  0  0  0  0  0  0
   -9.4856   19.8820  -32.1227 H   0  0  0  0  0  0  0  0  0  0  0  0
   -5.1318   20.0718  -31.9207 H   0  0  0  0  0  0  0  0  0  0  0  0
   -2.3130   24.1230  -29.6650 H   0  0  0  0  0  0  0  0  0  0  0  0
   -2.0217   21.8292  -27.6865 H   0  0  0  0  0  0  0  0  0  0  0  0
   -0.6934   23.0017  -28.0702 H   0  0  0  0  0  0  0  0  0  0  0  0
   -3.3781   23.8541  -26.9086 H   0  0  0  0  0  0  0  0  0  0  0  0
   -1.9221   23.4087  -25.9018 H   0  0  0  0  0  0  0  0  0  0  0  0
   -2.5706   25.9362  -27.1298 H   0  0  0  0  0  0  0  0  0  0  0  0
   -1.1717   25.4769  -26.0702 H   0  0  0  0  0  0  0  0  0  0  0  0
  1  2  1  0
  2  3  2  0
  2  4  1  0
  4  5  2  0
  5  6  1  0
  6  7  2  0
  7  8  1  0
  8  9  2  0
  9 10  1  0
 10 11  1  0
 10 12  1  0
 10 13  1  0
  9 14  1  0
 14 15  2  0
 15 16  1  0
 16 17  1  0
 17 18  2  0
 17 19  1  0
 19 20  2  0
 19 21  1  0
 21 22  1  0
 22 23  1  0
 23 24  1  0
 24 25  1  0
 25 26  2  0
 25 27  1  0
 16  4  1  0
 15  6  1  0
  1 28  1  0
  5 29  1  0
  7 30  1  0
  8 31  1  0
 14 32  1  0
 21 33  1  0
 22 34  1  0
 22 35  1  0
 23 36  1  0
 23 37  1  0
 24 38  1  0
 24 39  1  0
M  CHG  2   1  -1  27  -1
M  END
>  <UniqueID>  (88) 
88

>  <SMILES>  (88) 
[NH-]C(=O)c1cc2ccc(C(F)(F)F)cc2n1C(=O)C(=O)NCCCC(=O)[O-]

>  <Energy>  (88) 
72.64872395736191

>  <Genealogy>  (88) 
[NH-]C(=O)c1cc2ccc(C(F)(F)F)cc2n1C(=O)C(=O)NCCCC(=O)[O-] (protonated)
[NH-]C(=O)c1cc2ccc(C(F)(F)F)cc2n1C(=O)C(=O)NCCCC(=O)[O-] (3D coordinates assigned)
[NH-]C(=O)c1cc2ccc(C(F)(F)F)cc2n1C(=O)C(=O)NCCCC(=O)[O-] (optimized conformer: 72.64872395736191 kcal/mol)

>  <smiles>  (88) 
NC(=O)c1cc2ccc(C(F)(F)F)cc2n1C(=O)C(=O)NCCCC(=O)O

>  <score_type>  (88) 
oracle

>  <origin>  (88) 
adg

>  <m_score__min__energy>  (88) 
-12.49

>  <m_primary>  (88) 
energy

$$$$
88:0
     RDKit          3D

 40 42  0  0  0  0  0  0  0  0999 V2000
   -6.7230   15.0610  -34.2160 C   0  0  0  0  0  0  0  0  0  0  0  0
   -6.4260   16.1870  -33.3420 N   0  0  0  0  0  0  0  0  0  0  0  0
   -6.8650   17.4470  -33.5040 C   0  0  0  0  0  0  0  0  0  0  0  0
   -6.4310   18.1990  -32.4260 C   0  0  0  0  0  0  0  0  0  0  0  0
   -6.6740   19.6420  -32.1690 C   0  0  0  0  0  0  0  0  0  0  0  0
   -7.9750   20.1920  -32.3230 C   0  0  0  0  0  0  0  0  0  0  0  0
   -8.2130   21.5560  -32.0930 C   0  0  0  0  0  0  0  0  0  0  0  0
   -7.1410   22.3500  -31.7040 C   0  0  0  0  0  0  0  0  0  0  0  0
   -7.0880   23.7000  -31.4410 C   0  0  0  0  0  0  0  0  0  0  0  0
   -5.7600   23.9600  -31.1040 C   0  0  0  0  0  0  0  0  0  0  0  0
   -5.2780   25.2840  -30.6600 C   0  0  0  0  0  0  0  0  0  0  0  0
   -3.9170   25.6680  -30.8400 N   0  0  0  0  0  0  0  0  0  0  0  0
   -6.0670   26.0690  -30.0710 O   0  0  0  0  0  0  0  0  0  0  0  0
   -5.0210   22.8160  -31.1680 N   0  0  0  0  0  0  0  0  0  0  0  0
   -3.6060   22.6700  -30.9730 C   0  0  0  0  0  0  0  0  0  0  0  0
   -2.8170   22.8440  -31.9410 O   0  0  0  0  0  0  0  0  0  0  0  0
   -3.1130   22.3090  -29.7140 O   0  0  0  0  0  0  0  0  0  0  0  0
   -3.2140   23.1430  -28.5610 C   0  0  0  0  0  0  0  0  0  0  0  0
   -1.8290   23.4100  -27.9710 C   0  0  0  0  0  0  0  0  0  0  0  0
   -1.1310   24.4870  -28.7380 C   0  0  0  0  0  0  0  0  0  0  0  0
   -1.7960   25.3630  -29.3510 O   0  0  0  0  0  0  0  0  0  0  0  0
    0.2570   24.4960  -28.8190 O   0  0  0  0  0  0  0  0  0  0  0  0
   -5.8810   21.8400  -31.5330 C   0  0  0  0  0  0  0  0  0  0  0  0
   -5.6090   20.4880  -31.7730 C   0  0  0  0  0  0  0  0  0  0  0  0
   -5.7310   17.2990  -31.6320 C   0  0  0  0  0  0  0  0  0  0  0  0
   -5.7510   16.0820  -32.2080 N   0  0  0  0  0  0  0  0  0  0  0  0
   -6.9566   14.1755  -33.6066 H   0  0  0  0  0  0  0  0  0  0  0  0
   -7.5869   15.3075  -34.8508 H   0  0  0  0  0  0  0  0  0  0  0  0
   -5.8500   14.8493  -34.8508 H   0  0  0  0  0  0  0  0  0  0  0  0
   -7.4657   17.8169  -34.3480 H   0  0  0  0  0  0  0  0  0  0  0  0
   -8.8072   19.5398  -32.6267 H   0  0  0  0  0  0  0  0  0  0  0  0
   -9.2187   21.9839  -32.2170 H   0  0  0  0  0  0  0  0  0  0  0  0
   -7.9174   24.4211  -31.4869 H   0  0  0  0  0  0  0  0  0  0  0  0
   -3.1700   24.9510  -30.9730 H   0  0  0  0  0  0  0  0  0  0  0  0
   -3.6770   24.0994  -28.8454 H   0  0  0  0  0  0  0  0  0  0  0  0
   -3.8304   22.6333  -27.8059 H   0  0  0  0  0  0  0  0  0  0  0  0
   -1.9368   23.7243  -26.9224 H   0  0  0  0  0  0  0  0  0  0  0  0
   -1.2331   22.4874  -28.0313 H   0  0  0  0  0  0  0  0  0  0  0  0
   -4.5898   20.0909  -31.6566 H   0  0  0  0  0  0  0  0  0  0  0  0
   -5.2368   17.5429  -30.6800 H   0  0  0  0  0  0  0  0  0  0  0  0
  1  2  1  0
  2  3  1  0
  3  4  2  0
  4  5  1  0
  5  6  2  0
  6  7  1  0
  7  8  2  0
  8  9  1  0
  9 10  2  0
 10 11  1  0
 11 12  1  0
 11 13  2  0
 10 14  1  0
 14 15  1  0
 15 16  2  0
 15 17  1  0
 17 18  1  0
 18 19  1  0
 19 20  1  0
 20 21  2  0
 20 22  1  0
 14 23  1  0
 23 24  2  0
  4 25  1  0
 25 26  2  0
 26  2  1  0
 24  5  1  0
 23  8  1  0
  1 27  1  0
  1 28  1  0
  1 29  1  0
  3 30  1  0
  6 31  1  0
  7 32  1  0
  9 33  1  0
 12 34  1  0
 18 35  1  0
 18 36  1  0
 19 37  1  0
 19 38  1  0
 24 39  1  0
 25 40  1  0
M  CHG  2  12  -1  22  -1
M  END
>  <UniqueID>  (89) 
89

>  <SMILES>  (89) 
Cn1cc(-c2ccc3cc(C([NH-])=O)n(C(=O)OCCC(=O)[O-])c3c2)cn1

>  <Energy>  (89) 
107.96326379693485

>  <Genealogy>  (89) 
Cn1cc(-c2ccc3cc(C([NH-])=O)n(C(=O)OCCC(=O)[O-])c3c2)cn1 (protonated)
Cn1cc(-c2ccc3cc(C([NH-])=O)n(C(=O)OCCC(=O)[O-])c3c2)cn1 (3D coordinates assigned)
Cn1cc(-c2ccc3cc(C([NH-])=O)n(C(=O)OCCC(=O)[O-])c3c2)cn1 (optimized conformer: 107.96326379693485 kcal/mol)

>  <smiles>  (89) 
Cn1cc(-c2ccc3cc(C(N)=O)n(C(=O)OCCC(=O)O)c3c2)cn1

>  <score_type>  (89) 
oracle

>  <origin>  (89) 
adg

>  <m_score__min__energy>  (89) 
-13.140000000000001

>  <m_primary>  (89) 
energy

$$$$
89:0
     RDKit          3D

 41 42  0  0  0  0  0  0  0  0999 V2000
   -4.8270   24.7270  -29.1100 N   0  0  0  0  0  0  0  0  0  0  0  0
   -6.0850   24.5930  -29.7750 C   0  0  0  0  0  0  0  0  0  0  0  0
   -6.9350   25.5160  -29.6690 O   0  0  0  0  0  0  0  0  0  0  0  0
   -6.3770   23.4050  -30.6070 C   0  0  0  0  0  0  0  0  0  0  0  0
   -7.6510   22.8600  -30.7630 C   0  0  0  0  0  0  0  0  0  0  0  0
   -7.4710   21.7270  -31.5240 C   0  0  0  0  0  0  0  0  0  0  0  0
   -8.4050   20.8070  -31.9910 C   0  0  0  0  0  0  0  0  0  0  0  0
   -7.9430   19.7440  -32.7850 C   0  0  0  0  0  0  0  0  0  0  0  0
   -6.5670   19.6250  -33.1000 C   0  0  0  0  0  0  0  0  0  0  0  0
   -6.0960   18.4910  -33.9660 C   0  0  0  0  0  0  0  0  0  0  0  0
   -6.1000   18.8840  -35.2920 F   0  0  0  0  0  0  0  0  0  0  0  0
   -4.8120   18.1290  -33.6010 F   0  0  0  0  0  0  0  0  0  0  0  0
   -5.6480   20.5790  -32.6090 C   0  0  0  0  0  0  0  0  0  0  0  0
   -6.1350   21.6170  -31.8050 C   0  0  0  0  0  0  0  0  0  0  0  0
   -5.4490   22.6410  -31.2480 N   0  0  0  0  0  0  0  0  0  0  0  0
   -4.0430   22.9060  -31.3840 C   0  0  0  0  0  0  0  0  0  0  0  0
   -3.6040   24.0770  -31.2160 O   0  0  0  0  0  0  0  0  0  0  0  0
   -3.1650   21.8600  -31.6920 O   0  0  0  0  0  0  0  0  0  0  0  0
   -2.8360   20.8150  -30.7790 C   0  0  0  0  0  0  0  0  0  0  0  0
   -3.1990   21.2130  -29.3520 C   0  0  0  0  0  0  0  0  0  0  0  0
   -2.5950   22.4530  -29.0530 O   0  0  0  0  0  0  0  0  0  0  0  0
   -2.3220   22.5230  -27.6680 C   0  0  0  0  0  0  0  0  0  0  0  0
   -1.9260   23.9510  -27.2960 C   0  0  0  0  0  0  0  0  0  0  0  0
   -1.4940   24.7240  -28.5020 C   0  0  0  0  0  0  0  0  0  0  0  0
   -0.2730   24.8120  -28.7950 O   0  0  0  0  0  0  0  0  0  0  0  0
   -2.4440   25.3090  -29.3310 O   0  0  0  0  0  0  0  0  0  0  0  0
   -4.1180   23.9620  -29.1300 H   0  0  0  0  0  0  0  0  0  0  0  0
   -4.6170   25.5880  -28.5580 H   0  0  0  0  0  0  0  0  0  0  0  0
   -8.5979   23.2518  -30.3632 H   0  0  0  0  0  0  0  0  0  0  0  0
   -9.4725   20.9090  -31.7459 H   0  0  0  0  0  0  0  0  0  0  0  0
   -8.6559   18.9976  -33.1654 H   0  0  0  0  0  0  0  0  0  0  0  0
   -6.7717   17.6329  -33.8351 H   0  0  0  0  0  0  0  0  0  0  0  0
   -4.5775   20.5083  -32.8520 H   0  0  0  0  0  0  0  0  0  0  0  0
   -3.3927   19.9069  -31.0535 H   0  0  0  0  0  0  0  0  0  0  0  0
   -1.7532   20.6282  -30.8299 H   0  0  0  0  0  0  0  0  0  0  0  0
   -4.2915   21.3035  -29.2610 H   0  0  0  0  0  0  0  0  0  0  0  0
   -2.8404   20.4461  -28.6497 H   0  0  0  0  0  0  0  0  0  0  0  0
   -3.2199   22.2329  -27.1026 H   0  0  0  0  0  0  0  0  0  0  0  0
   -1.4961   21.8390  -27.4231 H   0  0  0  0  0  0  0  0  0  0  0  0
   -2.7895   24.4549  -26.8371 H   0  0  0  0  0  0  0  0  0  0  0  0
   -1.0832   23.9063  -26.5905 H   0  0  0  0  0  0  0  0  0  0  0  0
  1  2  1  0
  2  3  2  0
  2  4  1  0
  4  5  2  0
  5  6  1  0
  6  7  2  0
  7  8  1  0
  8  9  2  0
  9 10  1  0
 10 11  1  0
 10 12  1  0
  9 13  1  0
 13 14  2  0
 14 15  1  0
 15 16  1  0
 16 17  2  0
 16 18  1  0
 18 19  1  0
 19 20  1  0
 20 21  1  0
 21 22  1  0
 22 23  1  0
 23 24  1  0
 24 25  2  0
 24 26  1  0
 15  4  1  0
 14  6  1  0
  1 27  1  0
  1 28  1  0
  5 29  1  0
  7 30  1  0
  8 31  1  0
 10 32  1  0
 13 33  1  0
 19 34  1  0
 19 35  1  0
 20 36  1  0
 20 37  1  0
 22 38  1  0
 22 39  1  0
 23 40  1  0
 23 41  1  0
M  CHG  1  26  -1
M  END
>  <UniqueID>  (90) 
90

>  <SMILES>  (90) 
NC(=O)c1cc2ccc(C(F)F)cc2n1C(=O)OCCOCCC(=O)[O-]

>  <Energy>  (90) 
73.37159960739152

>  <Genealogy>  (90) 
NC(=O)c1cc2ccc(C(F)F)cc2n1C(=O)OCCOCCC(=O)[O-] (protonated)
NC(=O)c1cc2ccc(C(F)F)cc2n1C(=O)OCCOCCC(=O)[O-] (3D coordinates assigned)
NC(=O)c1cc2ccc(C(F)F)cc2n1C(=O)OCCOCCC(=O)[O-] (optimized conformer: 73.37159960739152 kcal/mol)

>  <smiles>  (90) 
NC(=O)c1cc2ccc(C(F)F)cc2n1C(=O)OCCOCCC(=O)O

>  <score_type>  (90) 
oracle

>  <origin>  (90) 
adg

>  <m_score__min__energy>  (90) 
-9.8300000000000001

>  <m_primary>  (90) 
energy

$$$$
90:0
     RDKit          3D

 41 43  0  0  0  0  0  0  0  0999 V2000
   -5.3290   24.7110  -28.6710 N   0  0  0  0  0  0  0  0  0  0  0  0
   -6.2460   24.6580  -29.7650 C   0  0  0  0  0  0  0  0  0  0  0  0
   -6.9630   25.6630  -30.0140 O   0  0  0  0  0  0  0  0  0  0  0  0
   -6.4080   23.4330  -30.5740 C   0  0  0  0  0  0  0  0  0  0  0  0
   -7.6400   22.8280  -30.8130 C   0  0  0  0  0  0  0  0  0  0  0  0
   -7.3540   21.6960  -31.5420 C   0  0  0  0  0  0  0  0  0  0  0  0
   -8.2040   20.7240  -32.0580 C   0  0  0  0  0  0  0  0  0  0  0  0
   -7.6330   19.6750  -32.7970 C   0  0  0  0  0  0  0  0  0  0  0  0
   -6.2290   19.6140  -33.0120 C   0  0  0  0  0  0  0  0  0  0  0  0
   -5.6560   18.5430  -33.7900 N   0  0  0  0  0  0  0  0  0  0  0  0
   -6.4860   17.3910  -34.1850 C   0  0  0  0  0  0  0  0  0  0  0  0
   -5.8730   16.0410  -33.7480 C   0  0  0  0  0  0  0  0  0  0  0  0
   -4.9650   16.1170  -32.5020 C   0  0  0  0  0  0  0  0  0  0  0  0
   -3.6300   16.6830  -32.7710 N   0  0  0  0  0  0  0  0  0  0  0  0
   -3.4630   17.3300  -34.0850 C   0  0  0  0  0  0  0  0  0  0  0  0
   -4.2500   18.6470  -34.2260 C   0  0  0  0  0  0  0  0  0  0  0  0
   -5.4020   20.6270  -32.4730 C   0  0  0  0  0  0  0  0  0  0  0  0
   -5.9980   21.6510  -31.7290 C   0  0  0  0  0  0  0  0  0  0  0  0
   -5.4030   22.7150  -31.1490 N   0  0  0  0  0  0  0  0  0  0  0  0
   -4.0050   23.0440  -31.2210 C   0  0  0  0  0  0  0  0  0  0  0  0
   -3.2600   22.4200  -32.0230 O   0  0  0  0  0  0  0  0  0  0  0  0
   -3.4350   24.1210  -30.3990 C   0  0  0  0  0  0  0  0  0  0  0  0
   -3.4830   25.3170  -30.7900 O   0  0  0  0  0  0  0  0  0  0  0  0
   -2.8190   23.8210  -29.1910 O   0  0  0  0  0  0  0  0  0  0  0  0
   -5.1900   25.6030  -28.1470 H   0  0  0  0  0  0  0  0  0  0  0  0
   -4.8560   23.8490  -28.3180 H   0  0  0  0  0  0  0  0  0  0  0  0
   -8.6303   23.1800  -30.4883 H   0  0  0  0  0  0  0  0  0  0  0  0
   -9.2903   20.7751  -31.8925 H   0  0  0  0  0  0  0  0  0  0  0  0
   -8.2807   18.8902  -33.2150 H   0  0  0  0  0  0  0  0  0  0  0  0
   -7.4775   17.4949  -33.7202 H   0  0  0  0  0  0  0  0  0  0  0  0
   -6.5518   17.3879  -35.2830 H   0  0  0  0  0  0  0  0  0  0  0  0
   -6.6968   15.3456  -33.5295 H   0  0  0  0  0  0  0  0  0  0  0  0
   -5.2331   15.7075  -34.5783 H   0  0  0  0  0  0  0  0  0  0  0  0
   -5.4624   16.7452  -31.7484 H   0  0  0  0  0  0  0  0  0  0  0  0
   -4.8109   15.0846  -32.1549 H   0  0  0  0  0  0  0  0  0  0  0  0
   -3.4200   17.3960  -32.0340 H   0  0  0  0  0  0  0  0  0  0  0  0
   -2.3946   17.5452  -34.2339 H   0  0  0  0  0  0  0  0  0  0  0  0
   -3.8577   16.6347  -34.8405 H   0  0  0  0  0  0  0  0  0  0  0  0
   -3.7528   19.4164  -33.6171 H   0  0  0  0  0  0  0  0  0  0  0  0
   -4.2614   18.9038  -35.2956 H   0  0  0  0  0  0  0  0  0  0  0  0
   -4.3142   20.6101  -32.6352 H   0  0  0  0  0  0  0  0  0  0  0  0
  1  2  1  0
  2  3  2  0
  2  4  1  0
  4  5  2  0
  5  6  1  0
  6  7  2  0
  7  8  1  0
  8  9  2  0
  9 10  1  0
 10 11  1  0
 11 12  1  0
 12 13  1  0
 13 14  1  0
 14 15  1  0
 15 16  1  0
  9 17  1  0
 17 18  2  0
 18 19  1  0
 19 20  1  0
 20 21  2  0
 20 22  1  0
 22 23  2  0
 22 24  1  0
 19  4  1  0
 18  6  1  0
 16 10  1  0
  1 25  1  0
  1 26  1  0
  5 27  1  0
  7 28  1  0
  8 29  1  0
 11 30  1  0
 11 31  1  0
 12 32  1  0
 12 33  1  0
 13 34  1  0
 13 35  1  0
 14 36  1  0
 15 37  1  0
 15 38  1  0
 16 39  1  0
 16 40  1  0
 17 41  1  0
M  CHG  1  24  -1
M  END
>  <UniqueID>  (91) 
91

>  <SMILES>  (91) 
NC(=O)c1cc2ccc(N3CCCNCC3)cc2n1C(=O)C(=O)[O-]

>  <Energy>  (91) 
95.39793282229495

>  <Genealogy>  (91) 
NC(=O)c1cc2ccc(N3CCCNCC3)cc2n1C(=O)C(=O)[O-] (protonated)
NC(=O)c1cc2ccc(N3CCCNCC3)cc2n1C(=O)C(=O)[O-] (3D coordinates assigned)
NC(=O)c1cc2ccc(N3CCCNCC3)cc2n1C(=O)C(=O)[O-] (nonaromatic ring conformer: 95.39793282229495 kcal/mol)

>  <smiles>  (91) 
NC(=O)c1cc2ccc(N3CCCNCC3)cc2n1C(=O)C(=O)O

>  <score_type>  (91) 
oracle

>  <origin>  (91) 
adg

>  <m_score__min__energy>  (91) 
-7.7999999999999998

>  <m_primary>  (91) 
energy

$$$$
91:0
     RDKit          3D

 31 33  0  0  0  0  0  0  0  0999 V2000
   -3.8640   25.6650  -30.8420 N   0  0  0  0  0  0  0  0  0  0  0  0
   -5.1470   25.1620  -30.4780 C   0  0  0  0  0  0  0  0  0  0  0  0
   -5.8920   25.8540  -29.7340 O   0  0  0  0  0  0  0  0  0  0  0  0
   -5.6060   23.8620  -31.0100 C   0  0  0  0  0  0  0  0  0  0  0  0
   -6.9440   23.5680  -31.2660 C   0  0  0  0  0  0  0  0  0  0  0  0
   -6.9600   22.2490  -31.6570 C   0  0  0  0  0  0  0  0  0  0  0  0
   -8.0260   21.4440  -32.0440 C   0  0  0  0  0  0  0  0  0  0  0  0
   -7.7470   20.1210  -32.4270 C   0  0  0  0  0  0  0  0  0  0  0  0
   -6.4160   19.6290  -32.4210 C   0  0  0  0  0  0  0  0  0  0  0  0
   -6.1360   18.2360  -32.8470 C   0  0  0  0  0  0  0  0  0  0  0  0
   -6.0490   17.9170  -34.2120 C   0  0  0  0  0  0  0  0  0  0  0  0
   -5.7790   16.6090  -34.6100 C   0  0  0  0  0  0  0  0  0  0  0  0
   -5.6000   15.6210  -33.6430 C   0  0  0  0  0  0  0  0  0  0  0  0
   -5.6930   15.9340  -32.3220 N   0  0  0  0  0  0  0  0  0  0  0  0
   -5.9550   17.2040  -31.9050 C   0  0  0  0  0  0  0  0  0  0  0  0
   -6.0740   17.4530  -30.5760 F   0  0  0  0  0  0  0  0  0  0  0  0
   -5.3600   20.4820  -32.0260 C   0  0  0  0  0  0  0  0  0  0  0  0
   -5.6690   21.7890  -31.6320 C   0  0  0  0  0  0  0  0  0  0  0  0
   -4.8230   22.7700  -31.2410 N   0  0  0  0  0  0  0  0  0  0  0  0
   -3.3910   22.6830  -31.1630 C   0  0  0  0  0  0  0  0  0  0  0  0
   -2.7310   22.1900  -32.1160 O   0  0  0  0  0  0  0  0  0  0  0  0
   -2.7170   23.1650  -30.0480 O   0  0  0  0  0  0  0  0  0  0  0  0
   -2.9950   25.2750  -30.4170 H   0  0  0  0  0  0  0  0  0  0  0  0
   -7.8049   24.2467  -31.1748 H   0  0  0  0  0  0  0  0  0  0  0  0
   -9.0557   21.8309  -32.0501 H   0  0  0  0  0  0  0  0  0  0  0  0
   -8.5699   19.4592  -32.7350 H   0  0  0  0  0  0  0  0  0  0  0  0
   -6.1944   18.7017  -34.9690 H   0  0  0  0  0  0  0  0  0  0  0  0
   -5.7077   16.3582  -35.6787 H   0  0  0  0  0  0  0  0  0  0  0  0
   -5.3832   14.5867  -33.9483 H   0  0  0  0  0  0  0  0  0  0  0  0
   -5.5650   15.1800  -31.6110 H   0  0  0  0  0  0  0  0  0  0  0  0
   -4.3190   20.1265  -32.0283 H   0  0  0  0  0  0  0  0  0  0  0  0
  1  2  1  0
  2  3  2  0
  2  4  1  0
  4  5  2  0
  5  6  1  0
  6  7  2  0
  7  8  1  0
  8  9  2  0
  9 10  1  0
 10 11  2  0
 11 12  1  0
 12 13  2  0
 13 14  1  0
 14 15  2  0
 15 16  1  0
  9 17  1  0
 17 18  2  0
 18 19  1  0
 19 20  1  0
 20 21  2  0
 20 22  1  0
 19  4  1  0
 18  6  1  0
 15 10  1  0
  1 23  1  0
  5 24  1  0
  7 25  1  0
  8 26  1  0
 11 27  1  0
 12 28  1  0
 13 29  1  0
 14 30  1  0
 17 31  1  0
M  CHG  3   1  -1  14   1  22  -1
M  END
>  <UniqueID>  (92) 
92

>  <SMILES>  (92) 
[NH-]C(=O)c1cc2ccc(-c3ccc[nH+]c3F)cc2n1C(=O)[O-]

>  <Energy>  (92) 
79.48625696239303

>  <Genealogy>  (92) 
[NH-]C(=O)c1cc2ccc(-c3ccc[nH+]c3F)cc2n1C(=O)[O-] (protonated)
[NH-]C(=O)c1cc2ccc(-c3ccc[nH+]c3F)cc2n1C(=O)[O-] (3D coordinates assigned)
[NH-]C(=O)c1cc2ccc(-c3ccc[nH+]c3F)cc2n1C(=O)[O-] (optimized conformer: 79.48625696239303 kcal/mol)

>  <smiles>  (92) 
NC(=O)c1cc2ccc(-c3cccnc3F)cc2n1C(=O)O

>  <score_type>  (92) 
oracle

>  <origin>  (92) 
adg

>  <m_score__min__energy>  (92) 
-10.970000000000001

>  <m_primary>  (92) 
energy

$$$$
92:0
     RDKit          3D

 40 42  0  0  0  0  0  0  0  0999 V2000
   -4.4580   15.2880  -33.2680 C   0  0  0  0  0  0  0  0  0  0  0  0
   -5.3040   16.0640  -34.1900 N   0  0  0  0  0  0  0  0  0  0  0  0
   -4.5800   17.2320  -34.7280 C   0  0  0  0  0  0  0  0  0  0  0  0
   -5.3140   18.4960  -34.2950 C   0  0  0  0  0  0  0  0  0  0  0  0
   -6.2190   18.0450  -33.1670 C   0  0  1  0  0  0  0  0  0  0  0  0
   -7.4530   18.8420  -33.1030 N   0  0  0  0  0  0  0  0  0  0  0  0
   -7.5240   20.1720  -32.5530 C   0  0  0  0  0  0  0  0  0  0  0  0
   -8.7670   20.8290  -32.3340 C   0  0  0  0  0  0  0  0  0  0  0  0
   -8.8100   22.1300  -31.8040 C   0  0  0  0  0  0  0  0  0  0  0  0
   -7.6030   22.7530  -31.5030 C   0  0  0  0  0  0  0  0  0  0  0  0
   -7.3540   24.0070  -30.9920 C   0  0  0  0  0  0  0  0  0  0  0  0
   -5.9660   24.0980  -30.8990 C   0  0  0  0  0  0  0  0  0  0  0  0
   -5.2560   25.2560  -30.3170 C   0  0  0  0  0  0  0  0  0  0  0  0
   -3.9940   25.6560  -30.8490 N   0  0  0  0  0  0  0  0  0  0  0  0
   -5.7620   25.9120  -29.3690 O   0  0  0  0  0  0  0  0  0  0  0  0
   -5.3830   22.9500  -31.3470 N   0  0  0  0  0  0  0  0  0  0  0  0
   -3.9840   22.6490  -31.4550 C   0  0  0  0  0  0  0  0  0  0  0  0
   -3.1760   23.1320  -30.6150 O   0  0  0  0  0  0  0  0  0  0  0  0
   -3.4850   21.7460  -32.5010 C   0  0  0  0  0  0  0  0  0  0  0  0
   -2.6860   20.8160  -32.2130 O   0  0  0  0  0  0  0  0  0  0  0  0
   -3.8800   21.9230  -33.8220 O   0  0  0  0  0  0  0  0  0  0  0  0
   -6.3980   22.1350  -31.7050 C   0  0  0  0  0  0  0  0  0  0  0  0
   -6.3220   20.8460  -32.2390 C   0  0  0  0  0  0  0  0  0  0  0  0
   -6.4940   16.5860  -33.5030 C   0  0  0  0  0  0  0  0  0  0  0  0
   -4.7259   15.5337  -32.2298 H   0  0  0  0  0  0  0  0  0  0  0  0
   -4.6151   14.2134  -33.4427 H   0  0  0  0  0  0  0  0  0  0  0  0
   -3.4009   15.5371  -33.4427 H   0  0  0  0  0  0  0  0  0  0  0  0
   -3.5529   17.2458  -34.3344 H   0  0  0  0  0  0  0  0  0  0  0  0
   -4.5381   17.1772  -35.8258 H   0  0  0  0  0  0  0  0  0  0  0  0
   -4.6022   19.2565  -33.9414 H   0  0  0  0  0  0  0  0  0  0  0  0
   -5.8753   18.9563  -35.1215 H   0  0  0  0  0  0  0  0  0  0  0  0
   -5.7638   18.1729  -32.1738 H   0  0  0  0  0  0  0  0  0  0  0  0
   -8.3360   18.4290  -33.4820 H   0  0  0  0  0  0  0  0  0  0  0  0
   -9.7058   20.3123  -32.5825 H   0  0  0  0  0  0  0  0  0  0  0  0
   -9.7692   22.6403  -31.6323 H   0  0  0  0  0  0  0  0  0  0  0  0
   -8.0929   24.7737  -30.7159 H   0  0  0  0  0  0  0  0  0  0  0  0
   -3.1030   25.2890  -30.4480 H   0  0  0  0  0  0  0  0  0  0  0  0
   -5.3474   20.3660  -32.4113 H   0  0  0  0  0  0  0  0  0  0  0  0
   -6.6768   16.0153  -32.5806 H   0  0  0  0  0  0  0  0  0  0  0  0
   -7.3843   16.4947  -34.1425 H   0  0  0  0  0  0  0  0  0  0  0  0
  1  2  1  0
  2  3  1  0
  3  4  1  0
  4  5  1  0
  5  6  1  0
  6  7  1  0
  7  8  2  0
  8  9  1  0
  9 10  2  0
 10 11  1  0
 11 12  2  0
 12 13  1  0
 13 14  1  0
 13 15  2  0
 12 16  1  0
 16 17  1  0
 17 18  2  0
 17 19  1  0
 19 20  2  0
 19 21  1  0
 16 22  1  0
 22 23  2  0
  5 24  1  0
 24  2  1  0
 23  7  1  0
 22 10  1  0
  1 25  1  0
  1 26  1  0
  1 27  1  0
  3 28  1  0
  3 29  1  0
  4 30  1  0
  4 31  1  0
  5 32  1  1
  6 33  1  0
  8 34  1  0
  9 35  1  0
 11 36  1  0
 14 37  1  0
 23 38  1  0
 24 39  1  0
 24 40  1  0
M  CHG  2  14  -1  21  -1
M  END
>  <UniqueID>  (93) 
93

>  <SMILES>  (93) 
CN1CC[C@@H](Nc2ccc3cc(C([NH-])=O)n(C(=O)C(=O)[O-])c3c2)C1

>  <Energy>  (93) 
83.93131182877252

>  <Genealogy>  (93) 
CN1CCC(Nc2ccc3cc(C([NH-])=O)n(C(=O)C(=O)[O-])c3c2)C1 (protonated)
CN1CC[C@@H](Nc2ccc3cc(C([NH-])=O)n(C(=O)C(=O)[O-])c3c2)C1 (chirality)
CN1CC[C@@H](Nc2ccc3cc(C([NH-])=O)n(C(=O)C(=O)[O-])c3c2)C1 (3D coordinates assigned)
CN1CC[C@@H](Nc2ccc3cc(C([NH-])=O)n(C(=O)C(=O)[O-])c3c2)C1 (nonaromatic ring conformer: 83.93131182877252 kcal/mol)

>  <smiles>  (93) 
CN1CCC(Nc2ccc3cc(C(N)=O)n(C(=O)C(=O)O)c3c2)C1

>  <score_type>  (93) 
oracle

>  <origin>  (93) 
adg

>  <m_score__min__energy>  (93) 
-11.85

>  <m_primary>  (93) 
energy

$$$$
93:0
     RDKit          3D

 36 37  0  0  0  0  0  0  0  0999 V2000
   -4.0810   25.6710  -30.8340 N   0  0  0  0  0  0  0  0  0  0  0  0
   -5.2310   25.0290  -30.2900 C   0  0  0  0  0  0  0  0  0  0  0  0
   -5.7490   25.4820  -29.2340 O   0  0  0  0  0  0  0  0  0  0  0  0
   -5.7870   23.8090  -30.9110 C   0  0  0  0  0  0  0  0  0  0  0  0
   -7.1520   23.6020  -31.1010 C   0  0  0  0  0  0  0  0  0  0  0  0
   -7.2620   22.3270  -31.6060 C   0  0  0  0  0  0  0  0  0  0  0  0
   -8.3930   21.6030  -31.9720 C   0  0  0  0  0  0  0  0  0  0  0  0
   -8.2090   20.3050  -32.4800 C   0  0  0  0  0  0  0  0  0  0  0  0
   -6.9060   19.7680  -32.6290 C   0  0  0  0  0  0  0  0  0  0  0  0
   -6.7210   18.3680  -33.1460 C   0  0  0  0  0  0  0  0  0  0  0  0
   -6.1660   17.4840  -32.0580 C   0  0  0  0  0  0  0  0  0  0  0  0
   -6.4620   17.7270  -30.8980 O   0  0  0  0  0  0  0  0  0  0  0  0
   -5.2240   16.3360  -32.3330 C   0  0  0  0  0  0  0  0  0  0  0  0
   -5.1440   15.4460  -31.2520 O   0  0  0  0  0  0  0  0  0  0  0  0
   -5.7830   20.5310  -32.2420 C   0  0  0  0  0  0  0  0  0  0  0  0
   -5.9970   21.8100  -31.7150 C   0  0  0  0  0  0  0  0  0  0  0  0
   -5.0790   22.7090  -31.2940 N   0  0  0  0  0  0  0  0  0  0  0  0
   -3.6530   22.5380  -31.3200 C   0  0  0  0  0  0  0  0  0  0  0  0
   -3.1510   21.5050  -31.8390 O   0  0  0  0  0  0  0  0  0  0  0  0
   -2.8300   23.5070  -30.7390 O   0  0  0  0  0  0  0  0  0  0  0  0
   -2.2330   23.3450  -29.4580 C   0  0  0  0  0  0  0  0  0  0  0  0
   -1.2560   24.4490  -29.2310 C   0  0  0  0  0  0  0  0  0  0  0  0
   -1.6230   25.6500  -29.3200 O   0  0  0  0  0  0  0  0  0  0  0  0
    0.0770   24.1540  -28.9750 O   0  0  0  0  0  0  0  0  0  0  0  0
   -3.1200   25.3250  -30.6170 H   0  0  0  0  0  0  0  0  0  0  0  0
   -7.9687   24.3085  -30.8915 H   0  0  0  0  0  0  0  0  0  0  0  0
   -9.3999   22.0332  -31.8670 H   0  0  0  0  0  0  0  0  0  0  0  0
   -9.0836   19.7013  -32.7641 H   0  0  0  0  0  0  0  0  0  0  0  0
   -7.6919   17.9712  -33.4776 H   0  0  0  0  0  0  0  0  0  0  0  0
   -6.0163   18.3858  -33.9905 H   0  0  0  0  0  0  0  0  0  0  0  0
   -5.5818   15.7882  -33.2172 H   0  0  0  0  0  0  0  0  0  0  0  0
   -4.2208   16.7549  -32.5006 H   0  0  0  0  0  0  0  0  0  0  0  0
   -5.5120   15.9210  -30.4620 H   0  0  0  0  0  0  0  0  0  0  0  0
   -4.7646   20.1301  -32.3519 H   0  0  0  0  0  0  0  0  0  0  0  0
   -3.0119   23.3773  -28.6820 H   0  0  0  0  0  0  0  0  0  0  0  0
   -1.7144   22.3761  -29.4110 H   0  0  0  0  0  0  0  0  0  0  0  0
  1  2  1  0
  2  3  2  0
  2  4  1  0
  4  5  2  0
  5  6  1  0
  6  7  2  0
  7  8  1  0
  8  9  2  0
  9 10  1  0
 10 11  1  0
 11 12  2  0
 11 13  1  0
 13 14  1  0
  9 15  1  0
 15 16  2  0
 16 17  1  0
 17 18  1  0
 18 19  2  0
 18 20  1  0
 20 21  1  0
 21 22  1  0
 22 23  2  0
 22 24  1  0
 17  4  1  0
 16  6  1  0
  1 25  1  0
  5 26  1  0
  7 27  1  0
  8 28  1  0
 10 29  1  0
 10 30  1  0
 13 31  1  0
 13 32  1  0
 14 33  1  0
 15 34  1  0
 21 35  1  0
 21 36  1  0
M  CHG  2   1  -1  24  -1
M  END
>  <UniqueID>  (94) 
94

>  <SMILES>  (94) 
[NH-]C(=O)c1cc2ccc(CC(=O)CO)cc2n1C(=O)OCC(=O)[O-]

>  <Energy>  (94) 
69.45375760081738

>  <Genealogy>  (94) 
[NH-]C(=O)c1cc2ccc(CC(=O)CO)cc2n1C(=O)OCC(=O)[O-] (protonated)
[NH-]C(=O)c1cc2ccc(CC(=O)CO)cc2n1C(=O)OCC(=O)[O-] (3D coordinates assigned)
[NH-]C(=O)c1cc2ccc(CC(=O)CO)cc2n1C(=O)OCC(=O)[O-] (optimized conformer: 69.45375760081738 kcal/mol)

>  <smiles>  (94) 
NC(=O)c1cc2ccc(CC(=O)CO)cc2n1C(=O)OCC(=O)O

>  <score_type>  (94) 
oracle

>  <origin>  (94) 
adg

>  <m_score__min__energy>  (94) 
-12.119999999999999

>  <m_primary>  (94) 
energy

$$$$
94:0
     RDKit          3D

 44 45  0  0  0  0  0  0  0  0999 V2000
   -7.5700   20.1530  -31.3330 C   0  0  0  0  0  0  0  0  0  0  0  0
   -8.1230   20.9810  -32.4170 N   0  0  0  0  0  0  0  0  0  0  0  0
   -9.5920   21.0210  -32.3120 C   0  0  0  0  0  0  0  0  0  0  0  0
   -7.5530   22.3470  -32.3790 C   0  0  0  0  0  0  0  0  0  0  0  0
   -7.9170   23.0500  -31.0660 C   0  0  0  0  0  0  0  0  0  0  0  0
   -7.1650   24.2930  -30.9140 N   0  0  0  0  0  0  0  0  0  0  0  0
   -6.2620   24.5520  -29.8310 C   0  0  0  0  0  0  0  0  0  0  0  0
   -6.4150   25.5700  -29.1060 O   0  0  0  0  0  0  0  0  0  0  0  0
   -5.0930   23.6430  -29.5840 C   0  0  0  0  0  0  0  0  0  0  0  0
   -3.8390   24.1030  -30.2820 C   0  0  0  0  0  0  0  0  0  0  0  0
   -3.8170   25.2320  -30.8450 O   0  0  0  0  0  0  0  0  0  0  0  0
   -2.7410   23.1930  -30.4750 N   0  0  0  0  0  0  0  0  0  0  0  0
   -1.5020   23.2330  -29.9100 C   0  0  0  0  0  0  0  0  0  0  0  0
   -0.9300   24.3650  -29.1540 C   0  0  0  0  0  0  0  0  0  0  0  0
   -1.5780   25.6340  -29.1390 N   0  0  0  0  0  0  0  0  0  0  0  0
    0.1650   24.2240  -28.5500 O   0  0  0  0  0  0  0  0  0  0  0  0
   -0.7790   22.0880  -30.2360 C   0  0  0  0  0  0  0  0  0  0  0  0
   -1.6110   21.3460  -31.0420 C   0  0  0  0  0  0  0  0  0  0  0  0
   -1.4080   20.1090  -31.6450 C   0  0  0  0  0  0  0  0  0  0  0  0
   -2.4520   19.5720  -32.4150 C   0  0  0  0  0  0  0  0  0  0  0  0
   -3.6760   20.2750  -32.5720 C   0  0  0  0  0  0  0  0  0  0  0  0
   -4.7920   19.6510  -33.3670 C   0  0  0  0  0  0  0  0  0  0  0  0
   -4.3060   18.9710  -34.4710 F   0  0  0  0  0  0  0  0  0  0  0  0
   -5.6550   20.6430  -33.7960 F   0  0  0  0  0  0  0  0  0  0  0  0
   -5.4940   18.7560  -32.5790 F   0  0  0  0  0  0  0  0  0  0  0  0
   -3.8530   21.5180  -31.9190 C   0  0  0  0  0  0  0  0  0  0  0  0
   -2.7890   22.0370  -31.1740 C   0  0  0  0  0  0  0  0  0  0  0  0
   -7.8564   20.5819  -30.3614 H   0  0  0  0  0  0  0  0  0  0  0  0
   -7.9670   19.1303  -31.4137 H   0  0  0  0  0  0  0  0  0  0  0  0
   -6.4733   20.1280  -31.4137 H   0  0  0  0  0  0  0  0  0  0  0  0
   -9.8837   21.0289  -31.2514 H   0  0  0  0  0  0  0  0  0  0  0  0
   -9.9701   21.9298  -32.8031 H   0  0  0  0  0  0  0  0  0  0  0  0
  -10.0190   20.1341  -32.8031 H   0  0  0  0  0  0  0  0  0  0  0  0
   -6.4581   22.2838  -32.4632 H   0  0  0  0  0  0  0  0  0  0  0  0
   -7.9675   22.9265  -33.2171 H   0  0  0  0  0  0  0  0  0  0  0  0
   -8.9931   23.2779  -31.0659 H   0  0  0  0  0  0  0  0  0  0  0  0
   -7.6653   22.3825  -30.2287 H   0  0  0  0  0  0  0  0  0  0  0  0
   -4.8994   23.6053  -28.5018 H   0  0  0  0  0  0  0  0  0  0  0  0
   -5.3522   22.6526  -29.9864 H   0  0  0  0  0  0  0  0  0  0  0  0
   -1.2070   26.4260  -29.7090 H   0  0  0  0  0  0  0  0  0  0  0  0
    0.2418   21.8313  -29.9164 H   0  0  0  0  0  0  0  0  0  0  0  0
   -0.4582   19.5679  -31.5223 H   0  0  0  0  0  0  0  0  0  0  0  0
   -2.3203   18.5948  -32.9026 H   0  0  0  0  0  0  0  0  0  0  0  0
   -4.8052   22.0633  -31.9955 H   0  0  0  0  0  0  0  0  0  0  0  0
  1  2  1  0
  2  3  1  0
  2  4  1  0
  4  5  1  0
  5  6  1  0
  6  7  1  0
  7  8  2  0
  7  9  1  0
  9 10  1  0
 10 11  2  0
 10 12  1  0
 12 13  1  0
 13 14  1  0
 14 15  1  0
 14 16  2  0
 13 17  2  0
 17 18  1  0
 18 19  2  0
 19 20  1  0
 20 21  2  0
 21 22  1  0
 22 23  1  0
 22 24  1  0
 22 25  1  0
 21 26  1  0
 26 27  2  0
 27 12  1  0
 27 18  1  0
  1 28  1  0
  1 29  1  0
  1 30  1  0
  3 31  1  0
  3 32  1  0
  3 33  1  0
  4 34  1  0
  4 35  1  0
  5 36  1  0
  5 37  1  0
  9 38  1  0
  9 39  1  0
 15 40  1  0
 17 41  1  0
 19 42  1  0
 20 43  1  0
 26 44  1  0
M  CHG  2   6  -1  15  -1
M  END
>  <UniqueID>  (95) 
95

>  <SMILES>  (95) 
CN(C)CC[N-]C(=O)CC(=O)n1c(C([NH-])=O)cc2ccc(C(F)(F)F)cc21

>  <Energy>  (95) 
81.2396546554657

>  <Genealogy>  (95) 
CN(C)CC[N-]C(=O)CC(=O)n1c(C([NH-])=O)cc2ccc(C(F)(F)F)cc21 (protonated)
CN(C)CC[N-]C(=O)CC(=O)n1c(C([NH-])=O)cc2ccc(C(F)(F)F)cc21 (3D coordinates assigned)
CN(C)CC[N-]C(=O)CC(=O)n1c(C([NH-])=O)cc2ccc(C(F)(F)F)cc21 (optimized conformer: 81.2396546554657 kcal/mol)

>  <smiles>  (95) 
CN(C)CCNC(=O)CC(=O)n1c(C(N)=O)cc2ccc(C(F)(F)F)cc21

>  <score_type>  (95) 
oracle

>  <origin>  (95) 
adg

>  <m_score__min__energy>  (95) 
-11.390000000000001

>  <m_primary>  (95) 
energy

$$$$
95:0
     RDKit          3D

 41 42  0  0  0  0  0  0  0  0999 V2000
   -1.7610   19.5160  -33.1490 C   0  0  0  0  0  0  0  0  0  0  0  0
   -2.8850   19.8980  -32.3070 N   0  0  0  0  0  0  0  0  0  0  0  0
   -3.6310   21.0990  -32.5170 C   0  0  0  0  0  0  0  0  0  0  0  0
   -3.8740   21.4980  -33.6870 O   0  0  0  0  0  0  0  0  0  0  0  0
   -4.1080   21.8750  -31.3610 C   0  0  0  0  0  0  0  0  0  0  0  0
   -3.3050   22.1750  -30.4390 O   0  0  0  0  0  0  0  0  0  0  0  0
   -5.4750   22.3100  -31.2820 N   0  0  0  0  0  0  0  0  0  0  0  0
   -5.9480   23.4410  -30.6920 C   0  0  0  0  0  0  0  0  0  0  0  0
   -5.1230   24.5250  -30.1200 C   0  0  0  0  0  0  0  0  0  0  0  0
   -5.1880   24.8530  -28.7310 N   0  0  0  0  0  0  0  0  0  0  0  0
   -4.3140   25.1440  -30.8610 O   0  0  0  0  0  0  0  0  0  0  0  0
   -7.3410   23.4490  -30.6920 C   0  0  0  0  0  0  0  0  0  0  0  0
   -7.7100   22.2730  -31.3060 C   0  0  0  0  0  0  0  0  0  0  0  0
   -8.9750   21.7460  -31.5430 C   0  0  0  0  0  0  0  0  0  0  0  0
   -9.0570   20.4760  -32.1380 C   0  0  0  0  0  0  0  0  0  0  0  0
   -7.8870   19.7500  -32.4760 C   0  0  0  0  0  0  0  0  0  0  0  0
   -8.0260   18.4380  -33.0560 N   0  0  0  0  0  0  0  0  0  0  0  0
   -7.2150   17.2670  -32.7080 C   0  0  0  0  0  0  0  0  0  0  0  0
   -5.7960   17.3440  -33.3010 C   0  0  2  0  0  0  0  0  0  0  0  0
   -4.8840   17.7950  -32.3340 O   0  0  0  0  0  0  0  0  0  0  0  0
   -5.7370   18.2360  -34.5520 C   0  0  0  0  0  0  0  0  0  0  0  0
   -4.5280   18.9500  -34.5930 O   0  0  0  0  0  0  0  0  0  0  0  0
   -6.6170   20.3200  -32.2070 C   0  0  0  0  0  0  0  0  0  0  0  0
   -6.5670   21.5990  -31.6430 C   0  0  0  0  0  0  0  0  0  0  0  0
   -0.9098   19.2267  -32.5152 H   0  0  0  0  0  0  0  0  0  0  0  0
   -2.0509   18.6659  -33.7841 H   0  0  0  0  0  0  0  0  0  0  0  0
   -1.4729   20.3667  -33.7841 H   0  0  0  0  0  0  0  0  0  0  0  0
   -4.6420   25.6620  -28.3580 H   0  0  0  0  0  0  0  0  0  0  0  0
   -5.6900   24.2400  -28.0530 H   0  0  0  0  0  0  0  0  0  0  0  0
   -8.0043   24.2280  -30.2880 H   0  0  0  0  0  0  0  0  0  0  0  0
   -9.8826   22.3058  -31.2731 H   0  0  0  0  0  0  0  0  0  0  0  0
  -10.0446   20.0379  -32.3449 H   0  0  0  0  0  0  0  0  0  0  0  0
   -8.7630   18.2990  -33.7840 H   0  0  0  0  0  0  0  0  0  0  0  0
   -7.1380   17.2025  -31.6126 H   0  0  0  0  0  0  0  0  0  0  0  0
   -7.7083   16.3781  -33.1281 H   0  0  0  0  0  0  0  0  0  0  0  0
   -5.5171   16.3265  -33.6122 H   0  0  0  0  0  0  0  0  0  0  0  0
   -4.1380   18.2310  -32.8230 H   0  0  0  0  0  0  0  0  0  0  0  0
   -5.8151   17.6053  -35.4498 H   0  0  0  0  0  0  0  0  0  0  0  0
   -6.5711   18.9523  -34.5167 H   0  0  0  0  0  0  0  0  0  0  0  0
   -4.4260   19.4050  -33.7140 H   0  0  0  0  0  0  0  0  0  0  0  0
   -5.6928   19.7694  -32.4364 H   0  0  0  0  0  0  0  0  0  0  0  0
  1  2  1  0
  2  3  1  0
  3  4  2  0
  3  5  1  0
  5  6  2  0
  5  7  1  0
  7  8  1  0
  8  9  1  0
  9 10  1  0
  9 11  2  0
  8 12  2  0
 12 13  1  0
 13 14  2  0
 14 15  1  0
 15 16  2  0
 16 17  1  0
 17 18  1  0
 18 19  1  0
 19 20  1  0
 19 21  1  0
 21 22  1  0
 16 23  1  0
 23 24  2  0
 24  7  1  0
 24 13  1  0
  1 25  1  0
  1 26  1  0
  1 27  1  0
 10 28  1  0
 10 29  1  0
 12 30  1  0
 14 31  1  0
 15 32  1  0
 17 33  1  0
 18 34  1  0
 18 35  1  0
 19 36  1  6
 20 37  1  0
 21 38  1  0
 21 39  1  0
 22 40  1  0
 23 41  1  0
M  CHG  1   2  -1
M  END
>  <UniqueID>  (96) 
96

>  <SMILES>  (96) 
C[N-]C(=O)C(=O)n1c(C(N)=O)cc2ccc(NC[C@H](O)CO)cc21

>  <Energy>  (96) 
76.09452042154584

>  <Genealogy>  (96) 
C[N-]C(=O)C(=O)n1c(C(N)=O)cc2ccc(NC[C@H](O)CO)cc21 (protonated)
C[N-]C(=O)C(=O)n1c(C(N)=O)cc2ccc(NC[C@H](O)CO)cc21 (3D coordinates assigned)
C[N-]C(=O)C(=O)n1c(C(N)=O)cc2ccc(NC[C@H](O)CO)cc21 (optimized conformer: 76.09452042154584 kcal/mol)

>  <smiles>  (96) 
CNC(=O)C(=O)n1c(C(N)=O)cc2ccc(NC[C@H](O)CO)cc21

>  <score_type>  (96) 
oracle

>  <origin>  (96) 
adg

>  <m_score__min__energy>  (96) 
-8.5600000000000005

>  <m_primary>  (96) 
energy

$$$$
96:0
     RDKit          3D

 41 43  0  0  0  0  0  0  0  0999 V2000
    0.2840   20.8030  -36.1470 C   0  0  0  0  0  0  0  0  0  0  0  0
    0.2920   21.8970  -35.1370 C   0  0  0  0  0  0  0  0  0  0  0  0
    0.6520   23.0580  -35.4750 O   0  0  0  0  0  0  0  0  0  0  0  0
   -0.0570   21.6160  -33.8150 O   0  0  0  0  0  0  0  0  0  0  0  0
   -0.4420   20.3170  -33.3770 C   0  0  0  0  0  0  0  0  0  0  0  0
   -1.8350   20.3660  -32.7560 C   0  0  0  0  0  0  0  0  0  0  0  0
   -2.7140   19.3680  -33.3720 N   0  0  0  0  0  0  0  0  0  0  0  0
   -2.2460   18.3360  -34.0570 N   0  0  0  0  0  0  0  0  0  0  0  0
   -3.2960   17.6790  -34.5890 C   0  0  0  0  0  0  0  0  0  0  0  0
   -4.4670   18.3230  -34.2460 C   0  0  0  0  0  0  0  0  0  0  0  0
   -4.0640   19.3900  -33.4670 C   0  0  0  0  0  0  0  0  0  0  0  0
   -4.9730   20.3960  -32.8780 C   0  0  0  0  0  0  0  0  0  0  0  0
   -6.3710   20.3140  -33.0870 C   0  0  0  0  0  0  0  0  0  0  0  0
   -7.2330   21.2900  -32.5620 C   0  0  0  0  0  0  0  0  0  0  0  0
   -6.6690   22.3360  -31.8370 C   0  0  0  0  0  0  0  0  0  0  0  0
   -7.2680   23.4300  -31.2570 C   0  0  0  0  0  0  0  0  0  0  0  0
   -6.2270   24.1590  -30.6900 C   0  0  0  0  0  0  0  0  0  0  0  0
   -6.4350   25.3940  -29.9070 C   0  0  0  0  0  0  0  0  0  0  0  0
   -5.6470   26.5620  -30.1450 N   0  0  0  0  0  0  0  0  0  0  0  0
   -7.2840   25.4010  -28.9770 O   0  0  0  0  0  0  0  0  0  0  0  0
   -5.0290   23.5510  -30.9210 N   0  0  0  0  0  0  0  0  0  0  0  0
   -3.7190   24.0490  -30.5990 C   0  0  0  0  0  0  0  0  0  0  0  0
   -3.5210   25.2870  -30.4820 O   0  0  0  0  0  0  0  0  0  0  0  0
   -2.6570   23.1730  -30.4160 O   0  0  0  0  0  0  0  0  0  0  0  0
   -5.3180   22.4320  -31.6230 C   0  0  0  0  0  0  0  0  0  0  0  0
   -4.4350   21.4830  -32.1560 C   0  0  0  0  0  0  0  0  0  0  0  0
    0.2769   19.8301  -35.6337 H   0  0  0  0  0  0  0  0  0  0  0  0
   -0.6135   20.8919  -36.7767 H   0  0  0  0  0  0  0  0  0  0  0  0
    1.1827   20.8788  -36.7767 H   0  0  0  0  0  0  0  0  0  0  0  0
   -0.4505   19.6306  -34.2365 H   0  0  0  0  0  0  0  0  0  0  0  0
    0.2766   19.9629  -32.6232 H   0  0  0  0  0  0  0  0  0  0  0  0
   -1.7568   20.1616  -31.6780 H   0  0  0  0  0  0  0  0  0  0  0  0
   -2.2622   21.3653  -32.9258 H   0  0  0  0  0  0  0  0  0  0  0  0
   -3.2294   16.7686  -35.2028 H   0  0  0  0  0  0  0  0  0  0  0  0
   -5.4935   18.0478  -34.5299 H   0  0  0  0  0  0  0  0  0  0  0  0
   -6.7862   19.4766  -33.6670 H   0  0  0  0  0  0  0  0  0  0  0  0
   -8.3201   21.2300  -32.7187 H   0  0  0  0  0  0  0  0  0  0  0  0
   -8.3401   23.6759  -31.2441 H   0  0  0  0  0  0  0  0  0  0  0  0
   -5.8340   27.4380  -29.6080 H   0  0  0  0  0  0  0  0  0  0  0  0
   -4.8260   26.5350  -30.7880 H   0  0  0  0  0  0  0  0  0  0  0  0
   -3.3487   21.5829  -32.0150 H   0  0  0  0  0  0  0  0  0  0  0  0
  1  2  1  0
  2  3  2  0
  2  4  1  0
  4  5  1  0
  5  6  1  0
  6  7  1  0
  7  8  1  0
  8  9  2  0
  9 10  1  0
 10 11  2  0
 11 12  1  0
 12 13  2  0
 13 14  1  0
 14 15  2  0
 15 16  1  0
 16 17  2  0
 17 18  1  0
 18 19  1  0
 18 20  2  0
 17 21  1  0
 21 22  1  0
 22 23  2  0
 22 24  1  0
 21 25  1  0
 25 26  2  0
 11  7  1  0
 26 12  1  0
 25 15  1  0
  1 27  1  0
  1 28  1  0
  1 29  1  0
  5 30  1  0
  5 31  1  0
  6 32  1  0
  6 33  1  0
  9 34  1  0
 10 35  1  0
 13 36  1  0
 14 37  1  0
 16 38  1  0
 19 39  1  0
 19 40  1  0
 26 41  1  0
M  CHG  1  24  -1
M  END
>  <UniqueID>  (97) 
97

>  <SMILES>  (97) 
CC(=O)OCCn1nccc1-c1ccc2cc(C(N)=O)n(C(=O)[O-])c2c1

>  <Energy>  (97) 
112.27696193944301

>  <Genealogy>  (97) 
CC(=O)OCCn1nccc1-c1ccc2cc(C(N)=O)n(C(=O)[O-])c2c1 (protonated)
CC(=O)OCCn1nccc1-c1ccc2cc(C(N)=O)n(C(=O)[O-])c2c1 (3D coordinates assigned)
CC(=O)OCCn1nccc1-c1ccc2cc(C(N)=O)n(C(=O)[O-])c2c1 (optimized conformer: 112.27696193944301 kcal/mol)

>  <smiles>  (97) 
CC(=O)OCCn1nccc1-c1ccc2cc(C(N)=O)n(C(=O)O)c2c1

>  <score_type>  (97) 
oracle

>  <origin>  (97) 
adg

>  <m_score__min__energy>  (97) 
-9.6799999999999997

>  <m_primary>  (97) 
energy

$$$$
