1:0
     RDKit          3D

 31 33  0  0  0  0  0  0  0  0999 V2000
   -3.8770   25.4550  -30.8060 N   0  0  0  0  0  0  0  0  0  0  0  0
   -3.7950   24.0340  -30.7450 C   0  0  0  0  0  0  0  0  0  0  0  0
   -2.6880   23.4880  -30.4980 O   0  0  0  0  0  0  0  0  0  0  0  0
   -5.0010   23.2160  -30.9930 C   0  0  0  0  0  0  0  0  0  0  0  0
   -6.2900   23.7400  -31.0800 C   0  0  0  0  0  0  0  0  0  0  0  0
   -7.0990   22.6700  -31.3920 C   0  0  0  0  0  0  0  0  0  0  0  0
   -8.4720   22.6140  -31.6090 C   0  0  0  0  0  0  0  0  0  0  0  0
   -9.0410   21.3660  -31.9150 C   0  0  0  0  0  0  0  0  0  0  0  0
   -8.2370   20.1970  -31.9790 C   0  0  0  0  0  0  0  0  0  0  0  0
   -8.8540   18.8720  -32.3520 C   0  0  0  0  0  0  0  0  0  0  0  0
   -9.2210   18.1680  -31.2180 F   0  0  0  0  0  0  0  0  0  0  0  0
   -7.9340   18.1280  -33.0670 F   0  0  0  0  0  0  0  0  0  0  0  0
   -9.9830   19.0610  -33.1290 F   0  0  0  0  0  0  0  0  0  0  0  0
   -6.8420   20.3010  -31.7770 C   0  0  0  0  0  0  0  0  0  0  0  0
   -6.3040   21.5570  -31.4820 C   0  0  0  0  0  0  0  0  0  0  0  0
   -5.0170   21.8750  -31.2340 N   0  0  0  0  0  0  0  0  0  0  0  0
   -3.9130   20.9580  -31.2100 C   0  0  0  0  0  0  0  0  0  0  0  0
   -3.7190   20.2450  -30.1890 O   0  0  0  0  0  0  0  0  0  0  0  0
   -2.9800   20.8740  -32.3470 C   0  0  0  0  0  0  0  0  0  0  0  0
   -3.1030   20.0520  -33.4510 C   0  0  0  0  0  0  0  0  0  0  0  0
   -2.0650   20.2640  -34.2280 O   0  0  0  0  0  0  0  0  0  0  0  0
   -1.3260   21.1740  -33.6350 C   0  0  0  0  0  0  0  0  0  0  0  0
   -0.2450   21.6110  -34.1100 O   0  0  0  0  0  0  0  0  0  0  0  0
   -1.8440   21.5870  -32.4640 N   0  0  0  0  0  0  0  0  0  0  0  0
   -3.8580   26.0320  -29.9350 H   0  0  0  0  0  0  0  0  0  0  0  0
   -6.5959   24.7860  -30.9311 H   0  0  0  0  0  0  0  0  0  0  0  0
   -9.0935   23.5192  -31.5431 H   0  0  0  0  0  0  0  0  0  0  0  0
  -10.1217   21.2937  -32.1072 H   0  0  0  0  0  0  0  0  0  0  0  0
   -6.1949   19.4145  -31.8502 H   0  0  0  0  0  0  0  0  0  0  0  0
   -3.9239   19.3459  -33.6448 H   0  0  0  0  0  0  0  0  0  0  0  0
   -1.4460   22.2890  -31.8030 H   0  0  0  0  0  0  0  0  0  0  0  0
  1  2  1  0
  2  3  2  0
  2  4  1  0
  4  5  2  0
  5  6  1  0
  6  7  2  0
  7  8  1  0
  8  9  2  0
  9 10  1  0
 10 11  1  0
 10 12  1  0
 10 13  1  0
  9 14  1  0
 14 15  2  0
 15 16  1  0
 16 17  1  0
 17 18  2  0
 17 19  1  0
 19 20  2  0
 20 21  1  0
 21 22  1  0
 22 23  2  0
 22 24  1  0
 16  4  1  0
 24 19  1  0
 15  6  1  0
  1 25  1  0
  5 26  1  0
  7 27  1  0
  8 28  1  0
 14 29  1  0
 20 30  1  0
 24 31  1  0
M  CHG  1   1  -1
M  END
>  <UniqueID>  (1) 
1

>  <SMILES>  (1) 
[NH-]C(=O)c1cc2ccc(C(F)(F)F)cc2n1C(=O)c1coc(=O)[nH]1

>  <Energy>  (1) 
105.31938675238493

>  <Genealogy>  (1) 
[NH-]C(=O)c1cc2ccc(C(F)(F)F)cc2n1C(=O)c1coc(=O)[nH]1 (protonated)
[NH-]C(=O)c1cc2ccc(C(F)(F)F)cc2n1C(=O)c1coc(=O)[nH]1 (3D coordinates assigned)
[NH-]C(=O)c1cc2ccc(C(F)(F)F)cc2n1C(=O)c1coc(=O)[nH]1 (optimized conformer: 105.31938675238493 kcal/mol)

>  <smiles>  (1) 
NC(=O)c1cc2ccc(C(F)(F)F)cc2n1C(=O)c1coc(=O)[nH]1

>  <score_type>  (1) 
oracle

>  <origin>  (1) 
adg

>  <m_score__min__energy>  (1) 
-9.5500000000000007

>  <m_primary>  (1) 
energy

$$$$
2:0
     RDKit          3D

 34 36  0  0  0  0  0  0  0  0999 V2000
   -4.2490   25.6250  -30.7900 N   0  0  0  0  0  0  0  0  0  0  0  0
   -5.5900   25.2590  -30.4570 C   0  0  0  0  0  0  0  0  0  0  0  0
   -6.2840   26.0390  -29.7540 O   0  0  0  0  0  0  0  0  0  0  0  0
   -6.1590   23.9610  -30.8770 C   0  0  0  0  0  0  0  0  0  0  0  0
   -7.5070   23.7700  -31.1640 C   0  0  0  0  0  0  0  0  0  0  0  0
   -7.6220   22.4400  -31.4990 C   0  0  0  0  0  0  0  0  0  0  0  0
   -8.7360   21.7130  -31.9010 C   0  0  0  0  0  0  0  0  0  0  0  0
   -8.5540   20.3620  -32.2400 C   0  0  0  0  0  0  0  0  0  0  0  0
   -7.2710   19.7620  -32.1900 C   0  0  0  0  0  0  0  0  0  0  0  0
   -7.1640   18.3000  -32.5890 C   0  0  0  0  0  0  0  0  0  0  0  0
   -5.8790   17.5700  -32.2220 C   0  0  0  0  0  0  0  0  0  0  0  0
   -6.1550   17.9440  -33.6730 C   0  0  0  0  0  0  0  0  0  0  0  0
   -6.1590   20.5440  -31.7800 C   0  0  0  0  0  0  0  0  0  0  0  0
   -6.3750   21.8780  -31.4190 C   0  0  0  0  0  0  0  0  0  0  0  0
   -5.4650   22.7980  -31.0300 N   0  0  0  0  0  0  0  0  0  0  0  0
   -4.0410   22.6220  -30.9490 C   0  0  0  0  0  0  0  0  0  0  0  0
   -3.3720   22.4860  -32.0090 O   0  0  0  0  0  0  0  0  0  0  0  0
   -3.3270   22.7180  -29.6290 C   0  0  0  0  0  0  0  0  0  0  0  0
   -2.1940   23.6970  -29.6910 C   0  0  0  0  0  0  0  0  0  0  0  0
   -1.0400   23.3090  -30.0090 O   0  0  0  0  0  0  0  0  0  0  0  0
   -2.4110   25.0370  -29.3990 O   0  0  0  0  0  0  0  0  0  0  0  0
   -3.8870   26.5700  -30.5340 H   0  0  0  0  0  0  0  0  0  0  0  0
   -3.5840   24.9320  -31.1970 H   0  0  0  0  0  0  0  0  0  0  0  0
   -8.3095   24.5216  -31.1303 H   0  0  0  0  0  0  0  0  0  0  0  0
   -9.7301   22.1812  -31.9522 H   0  0  0  0  0  0  0  0  0  0  0  0
   -9.4212   19.7601  -32.5492 H   0  0  0  0  0  0  0  0  0  0  0  0
   -8.2369   18.1138  -32.4335 H   0  0  0  0  0  0  0  0  0  0  0  0
   -5.0910   18.0924  -31.6597 H   0  0  0  0  0  0  0  0  0  0  0  0
   -5.6389   16.6368  -31.6914 H   0  0  0  0  0  0  0  0  0  0  0  0
   -5.5664   18.7365  -34.1583 H   0  0  0  0  0  0  0  0  0  0  0  0
   -6.1968   17.3928  -34.6240 H   0  0  0  0  0  0  0  0  0  0  0  0
   -5.1488   20.1098  -31.7470 H   0  0  0  0  0  0  0  0  0  0  0  0
   -4.0410   23.0450  -28.8587 H   0  0  0  0  0  0  0  0  0  0  0  0
   -2.9160   21.7274  -29.3845 H   0  0  0  0  0  0  0  0  0  0  0  0
  1  2  1  0
  2  3  2  0
  2  4  1  0
  4  5  2  0
  5  6  1  0
  6  7  2  0
  7  8  1  0
  8  9  2  0
  9 10  1  0
 10 11  1  0
 11 12  1  0
  9 13  1  0
 13 14  2  0
 14 15  1  0
 15 16  1  0
 16 17  2  0
 16 18  1  0
 18 19  1  0
 19 20  2  0
 19 21  1  0
 15  4  1  0
 14  6  1  0
 12 10  1  0
  1 22  1  0
  1 23  1  0
  5 24  1  0
  7 25  1  0
  8 26  1  0
 10 27  1  0
 11 28  1  0
 11 29  1  0
 12 30  1  0
 12 31  1  0
 13 32  1  0
 18 33  1  0
 18 34  1  0
M  CHG  1  21  -1
M  END
>  <UniqueID>  (2) 
2

>  <SMILES>  (2) 
NC(=O)c1cc2ccc(C3CC3)cc2n1C(=O)CC(=O)[O-]

>  <Energy>  (2) 
341.847324580251

>  <Genealogy>  (2) 
NC(=O)c1cc2ccc(C3CC3)cc2n1C(=O)CC(=O)[O-] (protonated)
NC(=O)c1cc2ccc(C3CC3)cc2n1C(=O)CC(=O)[O-] (3D coordinates assigned)
NC(=O)c1cc2ccc(C3CC3)cc2n1C(=O)CC(=O)[O-] (nonaromatic ring conformer: 341.847324580251 kcal/mol)

>  <smiles>  (2) 
NC(=O)c1cc2ccc(C3CC3)cc2n1C(=O)CC(=O)O

>  <score_type>  (2) 
oracle

>  <origin>  (2) 
adg

>  <m_score__min__energy>  (2) 
-11.02

>  <m_primary>  (2) 
energy

$$$$
3:0
     RDKit          3D

 35 36  0  0  0  0  0  0  0  0999 V2000
   -1.5840   25.0760  -28.5940 C   0  0  0  0  0  0  0  0  0  0  0  0
   -1.8200   23.8540  -29.3640 N   0  0  0  0  0  0  0  0  0  0  0  0
   -2.6990   22.9450  -28.6200 C   0  0  0  0  0  0  0  0  0  0  0  0
   -3.3610   21.9360  -29.5680 C   0  0  0  0  0  0  0  0  0  0  0  0
   -3.8030   22.5560  -30.8670 C   0  0  0  0  0  0  0  0  0  0  0  0
   -2.9710   22.7480  -31.7940 O   0  0  0  0  0  0  0  0  0  0  0  0
   -5.1950   22.8180  -31.1030 N   0  0  0  0  0  0  0  0  0  0  0  0
   -5.8560   23.9960  -30.9330 C   0  0  0  0  0  0  0  0  0  0  0  0
   -5.2410   25.2800  -30.5350 C   0  0  0  0  0  0  0  0  0  0  0  0
   -3.8680   25.5310  -30.8290 N   0  0  0  0  0  0  0  0  0  0  0  0
   -5.9100   26.1540  -29.9220 O   0  0  0  0  0  0  0  0  0  0  0  0
   -7.2080   23.8430  -31.2320 C   0  0  0  0  0  0  0  0  0  0  0  0
   -7.3560   22.5220  -31.5910 C   0  0  0  0  0  0  0  0  0  0  0  0
   -8.4950   21.8140  -31.9590 C   0  0  0  0  0  0  0  0  0  0  0  0
   -8.3570   20.4450  -32.2430 C   0  0  0  0  0  0  0  0  0  0  0  0
   -7.0900   19.8120  -32.1650 C   0  0  0  0  0  0  0  0  0  0  0  0
   -6.9650   18.3290  -32.4120 C   0  0  0  0  0  0  0  0  0  0  0  0
   -8.2020   17.7150  -32.3230 F   0  0  0  0  0  0  0  0  0  0  0  0
   -6.4500   18.0850  -33.6730 F   0  0  0  0  0  0  0  0  0  0  0  0
   -6.1200   17.7810  -31.4660 F   0  0  0  0  0  0  0  0  0  0  0  0
   -5.9610   20.5620  -31.7620 C   0  0  0  0  0  0  0  0  0  0  0  0
   -6.1260   21.9260  -31.5040 C   0  0  0  0  0  0  0  0  0  0  0  0
   -1.6283   24.8464  -27.5191 H   0  0  0  0  0  0  0  0  0  0  0  0
   -0.5913   25.4797  -28.8421 H   0  0  0  0  0  0  0  0  0  0  0  0
   -2.3550   25.8203  -28.8421 H   0  0  0  0  0  0  0  0  0  0  0  0
   -2.3150   24.1330  -30.2440 H   0  0  0  0  0  0  0  0  0  0  0  0
   -2.1053   22.4010  -27.8707 H   0  0  0  0  0  0  0  0  0  0  0  0
   -3.4848   23.5364  -28.1273 H   0  0  0  0  0  0  0  0  0  0  0  0
   -2.6392   21.1358  -29.7886 H   0  0  0  0  0  0  0  0  0  0  0  0
   -4.2591   21.5494  -29.0641 H   0  0  0  0  0  0  0  0  0  0  0  0
   -3.1760   24.7500  -30.8680 H   0  0  0  0  0  0  0  0  0  0  0  0
   -7.9913   24.6141  -31.1902 H   0  0  0  0  0  0  0  0  0  0  0  0
   -9.4742   22.3107  -32.0257 H   0  0  0  0  0  0  0  0  0  0  0  0
   -9.2417   19.8572  -32.5291 H   0  0  0  0  0  0  0  0  0  0  0  0
   -4.9764   20.0836  -31.6541 H   0  0  0  0  0  0  0  0  0  0  0  0
  1  2  1  0
  2  3  1  0
  3  4  1  0
  4  5  1  0
  5  6  2  0
  5  7  1  0
  7  8  1  0
  8  9  1  0
  9 10  1  0
  9 11  2  0
  8 12  2  0
 12 13  1  0
 13 14  2  0
 14 15  1  0
 15 16  2  0
 16 17  1  0
 17 18  1  0
 17 19  1  0
 17 20  1  0
 16 21  1  0
 21 22  2  0
 22  7  1  0
 22 13  1  0
  1 23  1  0
  1 24  1  0
  1 25  1  0
  2 26  1  0
  3 27  1  0
  3 28  1  0
  4 29  1  0
  4 30  1  0
 10 31  1  0
 12 32  1  0
 14 33  1  0
 15 34  1  0
 21 35  1  0
M  CHG  1  10  -1
M  END
>  <UniqueID>  (3) 
3

>  <SMILES>  (3) 
CNCCC(=O)n1c(C([NH-])=O)cc2ccc(C(F)(F)F)cc21

>  <Energy>  (3) 
71.2094723084154

>  <Genealogy>  (3) 
CNCCC(=O)n1c(C([NH-])=O)cc2ccc(C(F)(F)F)cc21 (protonated)
CNCCC(=O)n1c(C([NH-])=O)cc2ccc(C(F)(F)F)cc21 (3D coordinates assigned)
CNCCC(=O)n1c(C([NH-])=O)cc2ccc(C(F)(F)F)cc21 (optimized conformer: 71.2094723084154 kcal/mol)

>  <smiles>  (3) 
CNCCC(=O)n1c(C(N)=O)cc2ccc(C(F)(F)F)cc21

>  <score_type>  (3) 
oracle

>  <origin>  (3) 
adg

>  <m_score__min__energy>  (3) 
-9.5

>  <m_primary>  (3) 
energy

$$$$
4:0
     RDKit          3D

 48 51  0  0  0  0  0  0  0  0999 V2000
   -6.1140   18.4820  -35.1460 N   0  0  0  0  0  0  0  0  0  0  0  0
   -5.1500   17.9990  -34.2080 C   0  0  0  0  0  0  0  0  0  0  0  0
   -5.1070   16.7670  -33.9480 O   0  0  0  0  0  0  0  0  0  0  0  0
   -4.2470   18.9230  -33.4950 C   0  0  0  0  0  0  0  0  0  0  0  0
   -2.8590   18.8480  -33.5710 C   0  0  0  0  0  0  0  0  0  0  0  0
   -2.3960   19.8320  -32.7310 C   0  0  0  0  0  0  0  0  0  0  0  0
   -1.0910   20.2250  -32.4530 C   0  0  0  0  0  0  0  0  0  0  0  0
   -0.9010   21.3120  -31.5860 C   0  0  0  0  0  0  0  0  0  0  0  0
   -2.0090   21.9830  -31.0080 C   0  0  0  0  0  0  0  0  0  0  0  0
   -1.7800   23.1340  -30.1050 C   0  0  0  0  0  0  0  0  0  0  0  0
   -2.7170   24.1720  -29.9820 C   0  0  0  0  0  0  0  0  0  0  0  0
   -2.4650   25.2090  -29.1400 N   0  0  0  0  0  0  0  0  0  0  0  0
   -1.3220   25.2600  -28.4090 C   0  0  0  0  0  0  0  0  0  0  0  0
   -1.1100   26.2330  -27.6390 O   0  0  0  0  0  0  0  0  0  0  0  0
   -0.3930   24.2240  -28.5140 C   0  0  0  0  0  0  0  0  0  0  0  0
   -0.6430   23.1870  -29.3550 N   0  0  0  0  0  0  0  0  0  0  0  0
   -3.3230   21.5600  -31.3260 C   0  0  0  0  0  0  0  0  0  0  0  0
   -3.4830   20.4660  -32.1840 C   0  0  0  0  0  0  0  0  0  0  0  0
   -4.6300   19.9230  -32.6510 N   0  0  0  0  0  0  0  0  0  0  0  0
   -5.9670   20.4060  -32.4310 C   0  0  0  0  0  0  0  0  0  0  0  0
   -6.8670   20.1630  -33.2810 O   0  0  0  0  0  0  0  0  0  0  0  0
   -6.2730   21.1280  -31.2700 O   0  0  0  0  0  0  0  0  0  0  0  0
   -7.3650   22.0510  -31.1860 C   0  0  1  0  0  0  0  0  0  0  0  0
   -7.3430   22.7620  -29.8110 C   0  0  0  0  0  0  0  0  0  0  0  0
   -6.7040   24.1650  -29.8420 C   0  0  0  0  0  0  0  0  0  0  0  0
   -5.5490   24.2280  -30.8500 C   0  0  2  0  0  0  0  0  0  0  0  0
   -4.9400   25.4930  -30.8070 O   0  0  0  0  0  0  0  0  0  0  0  0
   -6.0380   23.9410  -32.2870 C   0  0  0  0  0  0  0  0  0  0  0  0
   -7.3020   23.0610  -32.3440 C   0  0  0  0  0  0  0  0  0  0  0  0
   -6.2890   19.5050  -35.2590 H   0  0  0  0  0  0  0  0  0  0  0  0
   -6.7170   17.8110  -35.6700 H   0  0  0  0  0  0  0  0  0  0  0  0
   -2.2605   18.1499  -34.1747 H   0  0  0  0  0  0  0  0  0  0  0  0
   -0.2338   19.6996  -32.8993 H   0  0  0  0  0  0  0  0  0  0  0  0
    0.1199   21.6479  -31.3517 H   0  0  0  0  0  0  0  0  0  0  0  0
   -3.6502   24.1464  -30.5639 H   0  0  0  0  0  0  0  0  0  0  0  0
    0.5333   24.2469  -27.9211 H   0  0  0  0  0  0  0  0  0  0  0  0
   -4.1978   22.0796  -30.9080 H   0  0  0  0  0  0  0  0  0  0  0  0
   -8.3147   21.5032  -31.2749 H   0  0  0  0  0  0  0  0  0  0  0  0
   -6.7729   22.1375  -29.1075 H   0  0  0  0  0  0  0  0  0  0  0  0
   -8.3909   22.8957  -29.5044 H   0  0  0  0  0  0  0  0  0  0  0  0
   -6.3191   24.4059  -28.8401 H   0  0  0  0  0  0  0  0  0  0  0  0
   -7.4723   24.8904  -30.1478 H   0  0  0  0  0  0  0  0  0  0  0  0
   -4.8187   23.4541  -30.5713 H   0  0  0  0  0  0  0  0  0  0  0  0
   -4.5280   25.5830  -29.9080 H   0  0  0  0  0  0  0  0  0  0  0  0
   -5.2323   23.4282  -32.8327 H   0  0  0  0  0  0  0  0  0  0  0  0
   -6.2984   24.9095  -32.7388 H   0  0  0  0  0  0  0  0  0  0  0  0
   -7.3054   22.5086  -33.2953 H   0  0  0  0  0  0  0  0  0  0  0  0
   -8.1762   23.7233  -32.2597 H   0  0  0  0  0  0  0  0  0  0  0  0
  1  2  1  0
  2  3  2  0
  2  4  1  0
  4  5  2  0
  5  6  1  0
  6  7  2  0
  7  8  1  0
  8  9  2  0
  9 10  1  0
 10 11  2  0
 11 12  1  0
 12 13  1  0
 13 14  2  0
 13 15  1  0
 15 16  2  0
  9 17  1  0
 17 18  2  0
 18 19  1  0
 19 20  1  0
 20 21  2  0
 20 22  1  0
 22 23  1  0
 23 24  1  0
 24 25  1  0
 25 26  1  0
 26 27  1  0
 26 28  1  0
 28 29  1  0
 19  4  1  0
 29 23  1  0
 18  6  1  0
 16 10  1  0
  1 30  1  0
  1 31  1  0
  5 32  1  0
  7 33  1  0
  8 34  1  0
 11 35  1  0
 15 36  1  0
 17 37  1  0
 23 38  1  6
 24 39  1  0
 24 40  1  0
 25 41  1  0
 25 42  1  0
 26 43  1  1
 27 44  1  0
 28 45  1  0
 28 46  1  0
 29 47  1  0
 29 48  1  0
M  CHG  1  12  -1
M  END
>  <UniqueID>  (4) 
4

>  <SMILES>  (4) 
NC(=O)c1cc2ccc(-c3c[n-]c(=O)cn3)cc2n1C(=O)OC1CCC(O)CC1

>  <Energy>  (4) 
96.72953825050617

>  <Genealogy>  (4) 
NC(=O)c1cc2ccc(-c3c[n-]c(=O)cn3)cc2n1C(=O)OC1CCC(O)CC1 (protonated)
NC(=O)c1cc2ccc(-c3c[n-]c(=O)cn3)cc2n1C(=O)OC1CCC(O)CC1 (3D coordinates assigned)
NC(=O)c1cc2ccc(-c3c[n-]c(=O)cn3)cc2n1C(=O)OC1CCC(O)CC1 (nonaromatic ring conformer: 96.72953825050617 kcal/mol)

>  <smiles>  (4) 
NC(=O)c1cc2ccc(-c3c[nH]c(=O)cn3)cc2n1C(=O)OC1CCC(O)CC1

>  <score_type>  (4) 
oracle

>  <origin>  (4) 
adg

>  <m_score__min__energy>  (4) 
-10.27

>  <m_primary>  (4) 
energy

$$$$
5:0
     RDKit          3D

 45 46  0  0  0  0  0  0  0  0999 V2000
   -3.5610   18.5510  -33.8580 C   0  0  0  0  0  0  0  0  0  0  0  0
   -3.9310   17.0840  -34.0330 C   0  0  0  0  0  0  0  0  0  0  0  0
   -4.5730   16.5860  -32.8630 O   0  0  0  0  0  0  0  0  0  0  0  0
   -5.8070   17.0590  -32.4010 C   0  0  0  0  0  0  0  0  0  0  0  0
   -6.0770   17.0680  -31.1700 O   0  0  0  0  0  0  0  0  0  0  0  0
   -6.7840   17.6340  -33.3800 C   0  0  0  0  0  0  0  0  0  0  0  0
   -8.0490   18.1490  -32.6830 C   0  0  0  0  0  0  0  0  0  0  0  0
   -7.9360   19.6060  -32.3120 C   0  0  0  0  0  0  0  0  0  0  0  0
   -9.0900   20.4310  -32.3020 C   0  0  0  0  0  0  0  0  0  0  0  0
   -9.0040   21.7790  -31.9120 C   0  0  0  0  0  0  0  0  0  0  0  0
   -7.7590   22.2660  -31.5240 C   0  0  0  0  0  0  0  0  0  0  0  0
   -7.3900   23.5210  -31.0930 C   0  0  0  0  0  0  0  0  0  0  0  0
   -6.0210   23.4360  -30.8260 C   0  0  0  0  0  0  0  0  0  0  0  0
   -5.1930   24.5420  -30.2890 C   0  0  0  0  0  0  0  0  0  0  0  0
   -5.2470   24.9050  -28.9090 N   0  0  0  0  0  0  0  0  0  0  0  0
   -4.4170   25.1770  -31.0520 O   0  0  0  0  0  0  0  0  0  0  0  0
   -5.5730   22.1760  -31.0790 N   0  0  0  0  0  0  0  0  0  0  0  0
   -4.2390   21.6720  -30.9250 C   0  0  0  0  0  0  0  0  0  0  0  0
   -3.8560   21.2830  -29.7880 O   0  0  0  0  0  0  0  0  0  0  0  0
   -3.3450   21.5990  -32.0530 N   0  0  0  0  0  0  0  0  0  0  0  0
   -1.9390   21.2560  -31.8350 C   0  0  0  0  0  0  0  0  0  0  0  0
   -3.8510   21.8110  -33.4120 C   0  0  0  0  0  0  0  0  0  0  0  0
   -6.6420   21.4760  -31.5110 C   0  0  0  0  0  0  0  0  0  0  0  0
   -6.6900   20.1390  -31.9170 C   0  0  0  0  0  0  0  0  0  0  0  0
   -3.5011   18.7886  -32.7856 H   0  0  0  0  0  0  0  0  0  0  0  0
   -2.5865   18.7423  -34.3310 H   0  0  0  0  0  0  0  0  0  0  0  0
   -4.3282   19.1816  -34.3310 H   0  0  0  0  0  0  0  0  0  0  0  0
   -4.6128   16.9829  -34.8903 H   0  0  0  0  0  0  0  0  0  0  0  0
   -3.0122   16.5048  -34.2072 H   0  0  0  0  0  0  0  0  0  0  0  0
   -6.3054   18.4691  -33.9126 H   0  0  0  0  0  0  0  0  0  0  0  0
   -7.0780   16.8373  -34.0791 H   0  0  0  0  0  0  0  0  0  0  0  0
   -8.9055   18.0206  -33.3612 H   0  0  0  0  0  0  0  0  0  0  0  0
   -8.1852   17.5720  -31.7564 H   0  0  0  0  0  0  0  0  0  0  0  0
  -10.0617   20.0119  -32.6023 H   0  0  0  0  0  0  0  0  0  0  0  0
   -9.8921   22.4281  -31.9134 H   0  0  0  0  0  0  0  0  0  0  0  0
   -8.0366   24.4040  -30.9823 H   0  0  0  0  0  0  0  0  0  0  0  0
   -4.6350   25.6670  -28.5480 H   0  0  0  0  0  0  0  0  0  0  0  0
   -5.9120   24.4480  -28.2470 H   0  0  0  0  0  0  0  0  0  0  0  0
   -1.7368   21.2067  -30.7549 H   0  0  0  0  0  0  0  0  0  0  0  0
   -1.7246   20.2792  -32.2931 H   0  0  0  0  0  0  0  0  0  0  0  0
   -1.2988   22.0243  -32.2931 H   0  0  0  0  0  0  0  0  0  0  0  0
   -4.8646   22.2357  -33.3638 H   0  0  0  0  0  0  0  0  0  0  0  0
   -3.1870   22.5066  -33.9461 H   0  0  0  0  0  0  0  0  0  0  0  0
   -3.8812   20.8499  -33.9461 H   0  0  0  0  0  0  0  0  0  0  0  0
   -5.7813   19.5192  -31.9283 H   0  0  0  0  0  0  0  0  0  0  0  0
  1  2  1  0
  2  3  1  0
  3  4  1  0
  4  5  2  0
  4  6  1  0
  6  7  1  0
  7  8  1  0
  8  9  2  0
  9 10  1  0
 10 11  2  0
 11 12  1  0
 12 13  2  0
 13 14  1  0
 14 15  1  0
 14 16  2  0
 13 17  1  0
 17 18  1  0
 18 19  2  0
 18 20  1  0
 20 21  1  0
 20 22  1  0
 17 23  1  0
 23 24  2  0
 24  8  1  0
 23 11  1  0
  1 25  1  0
  1 26  1  0
  1 27  1  0
  2 28  1  0
  2 29  1  0
  6 30  1  0
  6 31  1  0
  7 32  1  0
  7 33  1  0
  9 34  1  0
 10 35  1  0
 12 36  1  0
 15 37  1  0
 15 38  1  0
 21 39  1  0
 21 40  1  0
 21 41  1  0
 22 42  1  0
 22 43  1  0
 22 44  1  0
 24 45  1  0
M  END
>  <UniqueID>  (5) 
5

>  <SMILES>  (5) 
CCOC(=O)CCc1ccc2cc(C(N)=O)n(C(=O)N(C)C)c2c1

>  <Energy>  (5) 
72.77624272184914

>  <Genealogy>  (5) 
CCOC(=O)CCc1ccc2cc(C(N)=O)n(C(=O)N(C)C)c2c1 (3D coordinates assigned)
CCOC(=O)CCc1ccc2cc(C(N)=O)n(C(=O)N(C)C)c2c1 (optimized conformer: 72.77624272184914 kcal/mol)

>  <smiles>  (5) 
CCOC(=O)CCc1ccc2cc(C(N)=O)n(C(=O)N(C)C)c2c1

>  <score_type>  (5) 
oracle

>  <origin>  (5) 
adg

>  <m_score__min__energy>  (5) 
-8.3399999999999999

>  <m_primary>  (5) 
energy

$$$$
6:0
     RDKit          3D

 46 48  0  0  0  0  0  0  0  0999 V2000
   -3.5300   25.1520  -30.1020 N   0  0  0  0  0  0  0  0  0  0  0  0
   -4.8920   25.2960  -30.4990 C   0  0  0  0  0  0  0  0  0  0  0  0
   -5.4230   26.4380  -30.4750 O   0  0  0  0  0  0  0  0  0  0  0  0
   -5.6990   24.1200  -30.8840 C   0  0  0  0  0  0  0  0  0  0  0  0
   -7.0770   24.1690  -31.0850 C   0  0  0  0  0  0  0  0  0  0  0  0
   -7.4540   22.8710  -31.3400 C   0  0  0  0  0  0  0  0  0  0  0  0
   -8.7090   22.3460  -31.6360 C   0  0  0  0  0  0  0  0  0  0  0  0
   -8.8010   20.9700  -31.8990 C   0  0  0  0  0  0  0  0  0  0  0  0
   -7.6500   20.1420  -31.8510 C   0  0  0  0  0  0  0  0  0  0  0  0
   -7.7510   18.6770  -32.1960 C   0  0  0  0  0  0  0  0  0  0  0  0
   -7.2460   18.4390  -33.4630 F   0  0  0  0  0  0  0  0  0  0  0  0
   -7.0330   17.9110  -31.2940 F   0  0  0  0  0  0  0  0  0  0  0  0
   -9.0780   18.2920  -32.1590 F   0  0  0  0  0  0  0  0  0  0  0  0
   -6.3890   20.7180  -31.5700 C   0  0  0  0  0  0  0  0  0  0  0  0
   -6.3290   22.0900  -31.2940 C   0  0  0  0  0  0  0  0  0  0  0  0
   -5.2420   22.8430  -31.0180 N   0  0  0  0  0  0  0  0  0  0  0  0
   -3.8790   22.3920  -30.9870 C   0  0  0  0  0  0  0  0  0  0  0  0
   -2.9540   23.1630  -31.3610 O   0  0  0  0  0  0  0  0  0  0  0  0
   -3.5840   21.1050  -30.5240 O   0  0  0  0  0  0  0  0  0  0  0  0
   -3.0680   20.8350  -29.2230 C   0  0  0  0  0  0  0  0  0  0  0  0
   -3.5300   21.9230  -28.2290 C   0  0  0  0  0  0  0  0  0  0  0  0
   -2.8100   23.2180  -28.3490 N   0  0  0  0  0  0  0  0  0  0  0  0
   -1.3440   23.0440  -28.4750 C   0  0  0  0  0  0  0  0  0  0  0  0
   -0.6930   24.3470  -28.9490 C   0  0  0  0  0  0  0  0  0  0  0  0
   -1.2300   25.5130  -28.1710 C   0  0  0  0  0  0  0  0  0  0  0  0
   -0.8750   26.6470  -28.4560 O   0  0  0  0  0  0  0  0  0  0  0  0
   -2.1500   25.2850  -27.0030 C   0  0  0  0  0  0  0  0  0  0  0  0
   -3.1910   24.1710  -27.2700 C   0  0  0  0  0  0  0  0  0  0  0  0
   -2.7540   25.2780  -30.7880 H   0  0  0  0  0  0  0  0  0  0  0  0
   -7.7254   25.0568  -31.0477 H   0  0  0  0  0  0  0  0  0  0  0  0
   -9.6008   22.9894  -31.6630 H   0  0  0  0  0  0  0  0  0  0  0  0
   -9.7778   20.5283  -32.1454 H   0  0  0  0  0  0  0  0  0  0  0  0
   -5.4770   20.1030  -31.5683 H   0  0  0  0  0  0  0  0  0  0  0  0
   -3.4331   19.8544  -28.8837 H   0  0  0  0  0  0  0  0  0  0  0  0
   -1.9689   20.8323  -29.2665 H   0  0  0  0  0  0  0  0  0  0  0  0
   -4.6009   22.1091  -28.3977 H   0  0  0  0  0  0  0  0  0  0  0  0
   -3.3119   21.5376  -27.2221 H   0  0  0  0  0  0  0  0  0  0  0  0
   -3.1450   23.6380  -29.2510 H   0  0  0  0  0  0  0  0  0  0  0  0
   -0.9263   22.7646  -27.4965 H   0  0  0  0  0  0  0  0  0  0  0  0
   -1.1395   22.2531  -29.2116 H   0  0  0  0  0  0  0  0  0  0  0  0
    0.3952   24.2831  -28.8016 H   0  0  0  0  0  0  0  0  0  0  0  0
   -0.9219   24.4933  -30.0149 H   0  0  0  0  0  0  0  0  0  0  0  0
   -1.5454   24.9994  -26.1295 H   0  0  0  0  0  0  0  0  0  0  0  0
   -2.7021   26.2201  -26.8280 H   0  0  0  0  0  0  0  0  0  0  0  0
   -3.3299   23.6000  -26.3401 H   0  0  0  0  0  0  0  0  0  0  0  0
   -4.1097   24.6742  -27.6059 H   0  0  0  0  0  0  0  0  0  0  0  0
  1  2  1  0
  2  3  2  0
  2  4  1  0
  4  5  2  0
  5  6  1  0
  6  7  2  0
  7  8  1  0
  8  9  2  0
  9 10  1  0
 10 11  1  0
 10 12  1  0
 10 13  1  0
  9 14  1  0
 14 15  2  0
 15 16  1  0
 16 17  1  0
 17 18  2  0
 17 19  1  0
 19 20  1  0
 20 21  1  0
 21 22  1  0
 22 23  1  0
 23 24  1  0
 24 25  1  0
 25 26  2  0
 25 27  1  0
 27 28  1  0
 16  4  1  0
 28 22  1  0
 15  6  1  0
  1 29  1  0
  5 30  1  0
  7 31  1  0
  8 32  1  0
 14 33  1  0
 20 34  1  0
 20 35  1  0
 21 36  1  0
 21 37  1  0
 22 38  1  0
 23 39  1  0
 23 40  1  0
 24 41  1  0
 24 42  1  0
 27 43  1  0
 27 44  1  0
 28 45  1  0
 28 46  1  0
M  CHG  2   1  -1  22   1
M  END
>  <UniqueID>  (6) 
6

>  <SMILES>  (6) 
[NH-]C(=O)c1cc2ccc(C(F)(F)F)cc2n1C(=O)OCC[NH+]1CCC(=O)CC1

>  <Energy>  (6) 
93.37200649488315

>  <Genealogy>  (6) 
[NH-]C(=O)c1cc2ccc(C(F)(F)F)cc2n1C(=O)OCC[NH+]1CCC(=O)CC1 (protonated)
[NH-]C(=O)c1cc2ccc(C(F)(F)F)cc2n1C(=O)OCC[NH+]1CCC(=O)CC1 (3D coordinates assigned)
[NH-]C(=O)c1cc2ccc(C(F)(F)F)cc2n1C(=O)OCC[NH+]1CCC(=O)CC1 (nonaromatic ring conformer: 93.37200649488315 kcal/mol)

>  <smiles>  (6) 
NC(=O)c1cc2ccc(C(F)(F)F)cc2n1C(=O)OCCN1CCC(=O)CC1

>  <score_type>  (6) 
oracle

>  <origin>  (6) 
adg

>  <m_score__min__energy>  (6) 
-9.3200000000000003

>  <m_primary>  (6) 
energy

$$$$
7:0
     RDKit          3D

 40 42  0  0  0  0  0  0  0  0999 V2000
   -6.8350   17.5640  -32.1600 C   0  0  0  0  0  0  0  0  0  0  0  0
   -7.2820   17.6370  -33.4980 O   0  0  0  0  0  0  0  0  0  0  0  0
   -6.2070   17.9640  -34.3560 C   0  0  0  0  0  0  0  0  0  0  0  0
   -5.1760   18.7040  -33.6190 C   0  0  0  0  0  0  0  0  0  0  0  0
   -4.3330   19.3120  -33.0100 C   0  0  0  0  0  0  0  0  0  0  0  0
   -3.3270   20.0410  -32.2850 C   0  0  0  0  0  0  0  0  0  0  0  0
   -2.0130   19.5260  -32.1880 C   0  0  0  0  0  0  0  0  0  0  0  0
   -1.0240   20.2270  -31.4760 C   0  0  0  0  0  0  0  0  0  0  0  0
   -1.3810   21.4360  -30.8830 C   0  0  0  0  0  0  0  0  0  0  0  0
   -0.6300   22.3150  -30.1360 C   0  0  0  0  0  0  0  0  0  0  0  0
   -1.4970   23.3570  -29.8050 C   0  0  0  0  0  0  0  0  0  0  0  0
   -1.0860   24.5530  -29.0380 C   0  0  0  0  0  0  0  0  0  0  0  0
   -1.9900   25.6310  -28.8100 N   0  0  0  0  0  0  0  0  0  0  0  0
    0.0840   24.6250  -28.5760 O   0  0  0  0  0  0  0  0  0  0  0  0
   -2.7340   23.1260  -30.3280 N   0  0  0  0  0  0  0  0  0  0  0  0
   -3.8850   23.9800  -30.2670 C   0  0  0  0  0  0  0  0  0  0  0  0
   -3.8500   25.1160  -30.8130 O   0  0  0  0  0  0  0  0  0  0  0  0
   -5.1330   23.5220  -29.5720 C   0  0  0  0  0  0  0  0  0  0  0  0
   -6.1460   23.1530  -30.5570 N   0  0  0  0  0  0  0  0  0  0  0  0
   -6.2150   23.5620  -31.8400 C   0  0  0  0  0  0  0  0  0  0  0  0
   -7.2080   22.9540  -32.5220 N   0  0  0  0  0  0  0  0  0  0  0  0
   -7.7680   22.1290  -31.6150 C   0  0  0  0  0  0  0  0  0  0  0  0
   -9.1010   21.0500  -31.9630 Cl  0  0  0  0  0  0  0  0  0  0  0  0
   -7.1190   22.2410  -30.4080 C   0  0  0  0  0  0  0  0  0  0  0  0
   -2.6480   21.9500  -30.9830 C   0  0  0  0  0  0  0  0  0  0  0  0
   -3.6560   21.2670  -31.6730 C   0  0  0  0  0  0  0  0  0  0  0  0
   -7.6885   17.7034  -31.4802 H   0  0  0  0  0  0  0  0  0  0  0  0
   -6.3790   16.5795  -31.9790 H   0  0  0  0  0  0  0  0  0  0  0  0
   -6.0895   18.3523  -31.9790 H   0  0  0  0  0  0  0  0  0  0  0  0
   -5.7707   17.0387  -34.7604 H   0  0  0  0  0  0  0  0  0  0  0  0
   -6.5820   18.5930  -35.1768 H   0  0  0  0  0  0  0  0  0  0  0  0
   -1.7634   18.5707  -32.6729 H   0  0  0  0  0  0  0  0  0  0  0  0
   -0.0005   19.8333  -31.3898 H   0  0  0  0  0  0  0  0  0  0  0  0
    0.4299   22.2168  -29.8585 H   0  0  0  0  0  0  0  0  0  0  0  0
   -2.9000   25.6860  -29.3170 H   0  0  0  0  0  0  0  0  0  0  0  0
   -4.9008   22.6494  -28.9437 H   0  0  0  0  0  0  0  0  0  0  0  0
   -5.5189   24.3401  -28.9461 H   0  0  0  0  0  0  0  0  0  0  0  0
   -5.5376   24.3079  -32.2813 H   0  0  0  0  0  0  0  0  0  0  0  0
   -7.3543   21.6848  -29.4886 H   0  0  0  0  0  0  0  0  0  0  0  0
   -4.6755   21.6753  -31.7358 H   0  0  0  0  0  0  0  0  0  0  0  0
  1  2  1  0
  2  3  1  0
  3  4  1  0
  4  5  3  0
  5  6  1  0
  6  7  2  0
  7  8  1  0
  8  9  2  0
  9 10  1  0
 10 11  2  0
 11 12  1  0
 12 13  1  0
 12 14  2  0
 11 15  1  0
 15 16  1  0
 16 17  2  0
 16 18  1  0
 18 19  1  0
 19 20  1  0
 20 21  2  0
 21 22  1  0
 22 23  1  0
 22 24  2  0
 15 25  1  0
 25 26  2  0
 26  6  1  0
 25  9  1  0
 24 19  1  0
  1 27  1  0
  1 28  1  0
  1 29  1  0
  3 30  1  0
  3 31  1  0
  7 32  1  0
  8 33  1  0
 10 34  1  0
 13 35  1  0
 18 36  1  0
 18 37  1  0
 20 38  1  0
 24 39  1  0
 26 40  1  0
M  CHG  1  13  -1
M  END
>  <UniqueID>  (7) 
7

>  <SMILES>  (7) 
COCC#Cc1ccc2cc(C([NH-])=O)n(C(=O)Cn3cnc(Cl)c3)c2c1

>  <Energy>  (7) 
105.97568655954922

>  <Genealogy>  (7) 
COCC#Cc1ccc2cc(C([NH-])=O)n(C(=O)Cn3cnc(Cl)c3)c2c1 (protonated)
COCC#Cc1ccc2cc(C([NH-])=O)n(C(=O)Cn3cnc(Cl)c3)c2c1 (3D coordinates assigned)
COCC#Cc1ccc2cc(C([NH-])=O)n(C(=O)Cn3cnc(Cl)c3)c2c1 (optimized conformer: 105.97568655954922 kcal/mol)

>  <smiles>  (7) 
COCC#Cc1ccc2cc(C(N)=O)n(C(=O)Cn3cnc(Cl)c3)c2c1

>  <score_type>  (7) 
oracle

>  <origin>  (7) 
adg

>  <m_score__min__energy>  (7) 
-11.31

>  <m_primary>  (7) 
energy

$$$$
8:0
     RDKit          3D

 36 37  0  0  0  0  0  0  0  0999 V2000
   -3.5770   16.2440  -33.2430 C   0  0  0  0  0  0  0  0  0  0  0  0
   -3.8950   16.9550  -34.4320 O   0  0  0  0  0  0  0  0  0  0  0  0
   -5.1790   17.4360  -34.7030 C   0  0  0  0  0  0  0  0  0  0  0  0
   -5.3980   18.1540  -35.7170 O   0  0  0  0  0  0  0  0  0  0  0  0
   -6.3040   17.0780  -33.7840 C   0  0  0  0  0  0  0  0  0  0  0  0
   -6.1690   17.8210  -32.5390 N   0  0  0  0  0  0  0  0  0  0  0  0
   -6.6070   19.1750  -32.3870 C   0  0  0  0  0  0  0  0  0  0  0  0
   -7.5210   19.4630  -31.5670 O   0  0  0  0  0  0  0  0  0  0  0  0
   -5.8940   20.2640  -33.1210 C   0  0  0  0  0  0  0  0  0  0  0  0
   -4.6610   20.6460  -32.3500 C   0  0  0  0  0  0  0  0  0  0  0  0
   -3.5180   19.8070  -32.3720 C   0  0  0  0  0  0  0  0  0  0  0  0
   -2.3330   20.1960  -31.7250 C   0  0  0  0  0  0  0  0  0  0  0  0
   -2.3140   21.4330  -31.0860 C   0  0  0  0  0  0  0  0  0  0  0  0
   -1.3020   22.0550  -30.3940 C   0  0  0  0  0  0  0  0  0  0  0  0
   -1.8310   23.2780  -29.9850 C   0  0  0  0  0  0  0  0  0  0  0  0
   -1.0410   24.3130  -29.2860 C   0  0  0  0  0  0  0  0  0  0  0  0
   -1.5980   25.6080  -29.0730 N   0  0  0  0  0  0  0  0  0  0  0  0
    0.1090   24.0570  -28.8440 O   0  0  0  0  0  0  0  0  0  0  0  0
   -3.1240   23.4030  -30.4000 N   0  0  0  0  0  0  0  0  0  0  0  0
   -4.0330   24.4830  -30.1340 C   0  0  0  0  0  0  0  0  0  0  0  0
   -4.9090   24.3710  -29.2360 O   0  0  0  0  0  0  0  0  0  0  0  0
   -3.9380   25.6730  -30.8470 O   0  0  0  0  0  0  0  0  0  0  0  0
   -3.4040   22.2650  -31.0750 C   0  0  0  0  0  0  0  0  0  0  0  0
   -4.6040   21.8920  -31.6890 C   0  0  0  0  0  0  0  0  0  0  0  0
   -3.8492   16.8525  -32.3680 H   0  0  0  0  0  0  0  0  0  0  0  0
   -4.1377   15.2979  -33.2204 H   0  0  0  0  0  0  0  0  0  0  0  0
   -2.4980   16.0313  -33.2204 H   0  0  0  0  0  0  0  0  0  0  0  0
   -7.2621   17.3325  -34.2608 H   0  0  0  0  0  0  0  0  0  0  0  0
   -6.2751   15.9990  -33.5720 H   0  0  0  0  0  0  0  0  0  0  0  0
   -5.6080   19.9086  -34.1219 H   0  0  0  0  0  0  0  0  0  0  0  0
   -6.5543   21.1377  -33.2240 H   0  0  0  0  0  0  0  0  0  0  0  0
   -3.5595   18.8431  -32.9003 H   0  0  0  0  0  0  0  0  0  0  0  0
   -1.4475   19.5434  -31.7233 H   0  0  0  0  0  0  0  0  0  0  0  0
   -0.2896   21.6694  -30.2035 H   0  0  0  0  0  0  0  0  0  0  0  0
   -2.6300   25.7600  -29.0980 H   0  0  0  0  0  0  0  0  0  0  0  0
   -5.4822   22.5536  -31.6576 H   0  0  0  0  0  0  0  0  0  0  0  0
  1  2  1  0
  2  3  1  0
  3  4  2  0
  3  5  1  0
  5  6  1  0
  6  7  1  0
  7  8  2  0
  7  9  1  0
  9 10  1  0
 10 11  2  0
 11 12  1  0
 12 13  2  0
 13 14  1  0
 14 15  2  0
 15 16  1  0
 16 17  1  0
 16 18  2  0
 15 19  1  0
 19 20  1  0
 20 21  2  0
 20 22  1  0
 19 23  1  0
 23 24  2  0
 24 10  1  0
 23 13  1  0
  1 25  1  0
  1 26  1  0
  1 27  1  0
  5 28  1  0
  5 29  1  0
  9 30  1  0
  9 31  1  0
 11 32  1  0
 12 33  1  0
 14 34  1  0
 17 35  1  0
 24 36  1  0
M  CHG  3   6  -1  17  -1  22  -1
M  END
>  <UniqueID>  (8) 
8

>  <SMILES>  (8) 
COC(=O)C[N-]C(=O)Cc1ccc2cc(C([NH-])=O)n(C(=O)[O-])c2c1

>  <Energy>  (8) 
66.40998018991012

>  <Genealogy>  (8) 
COC(=O)C[N-]C(=O)Cc1ccc2cc(C([NH-])=O)n(C(=O)[O-])c2c1 (protonated)
COC(=O)C[N-]C(=O)Cc1ccc2cc(C([NH-])=O)n(C(=O)[O-])c2c1 (3D coordinates assigned)
COC(=O)C[N-]C(=O)Cc1ccc2cc(C([NH-])=O)n(C(=O)[O-])c2c1 (optimized conformer: 66.40998018991012 kcal/mol)

>  <smiles>  (8) 
COC(=O)CNC(=O)Cc1ccc2cc(C(N)=O)n(C(=O)O)c2c1

>  <score_type>  (8) 
oracle

>  <origin>  (8) 
adg

>  <m_score__min__energy>  (8) 
-10.619999999999999

>  <m_primary>  (8) 
energy

$$$$
9:0
     RDKit          3D

 37 39  0  0  0  0  0  0  0  0999 V2000
   -5.0950   17.8800  -35.0730 N   0  0  0  0  0  0  0  0  0  0  0  0
   -6.2160   17.7570  -34.1940 C   0  0  0  0  0  0  0  0  0  0  0  0
   -6.8650   16.6780  -34.1770 O   0  0  0  0  0  0  0  0  0  0  0  0
   -6.6290   18.8840  -33.3270 C   0  0  0  0  0  0  0  0  0  0  0  0
   -7.9370   19.1110  -32.8970 C   0  0  0  0  0  0  0  0  0  0  0  0
   -7.8600   20.1960  -32.0530 C   0  0  0  0  0  0  0  0  0  0  0  0
   -8.8620   20.8640  -31.3560 C   0  0  0  0  0  0  0  0  0  0  0  0
   -8.4930   21.9740  -30.5760 C   0  0  0  0  0  0  0  0  0  0  0  0
   -7.1380   22.3870  -30.4970 C   0  0  0  0  0  0  0  0  0  0  0  0
   -6.7550   23.5410  -29.7330 N   0  0  0  0  0  0  0  0  0  0  0  0
   -5.5190   24.2470  -29.9090 C   0  0  0  0  0  0  0  0  0  0  0  0
   -4.3800   24.1710  -29.1380 C   0  0  0  0  0  0  0  0  0  0  0  0
   -3.4240   24.9240  -29.7170 N   0  0  0  0  0  0  0  0  0  0  0  0
   -3.9160   25.4580  -30.8270 N   0  0  0  0  0  0  0  0  0  0  0  0
   -5.1920   25.0510  -30.9740 C   0  0  0  0  0  0  0  0  0  0  0  0
   -6.1540   21.6950  -31.2350 C   0  0  0  0  0  0  0  0  0  0  0  0
   -6.5500   20.5880  -31.9930 C   0  0  0  0  0  0  0  0  0  0  0  0
   -5.7830   19.7950  -32.7700 N   0  0  0  0  0  0  0  0  0  0  0  0
   -4.3750   19.9480  -32.9980 C   0  0  0  0  0  0  0  0  0  0  0  0
   -3.6430   18.9260  -33.0870 O   0  0  0  0  0  0  0  0  0  0  0  0
   -3.7490   21.3120  -33.0190 C   0  0  0  0  0  0  0  0  0  0  0  0
   -2.9960   21.5840  -31.7180 C   0  0  0  0  0  0  0  0  0  0  0  0
   -2.7400   22.9560  -31.5890 O   0  0  0  0  0  0  0  0  0  0  0  0
   -4.4920   18.7300  -35.0700 H   0  0  0  0  0  0  0  0  0  0  0  0
   -4.8360   17.0880  -35.7020 H   0  0  0  0  0  0  0  0  0  0  0  0
   -8.8379   18.5437  -33.1736 H   0  0  0  0  0  0  0  0  0  0  0  0
   -9.9098   20.5341  -31.4134 H   0  0  0  0  0  0  0  0  0  0  0  0
   -9.2637   22.5286  -30.0206 H   0  0  0  0  0  0  0  0  0  0  0  0
   -7.4430   23.9320  -29.0490 H   0  0  0  0  0  0  0  0  0  0  0  0
   -4.2696   23.5939  -28.2081 H   0  0  0  0  0  0  0  0  0  0  0  0
   -5.8596   25.3176  -31.8066 H   0  0  0  0  0  0  0  0  0  0  0  0
   -5.1026   22.0178  -31.2147 H   0  0  0  0  0  0  0  0  0  0  0  0
   -3.0453   21.3728  -33.8623 H   0  0  0  0  0  0  0  0  0  0  0  0
   -4.5449   22.0633  -33.1291 H   0  0  0  0  0  0  0  0  0  0  0  0
   -3.6055   21.2458  -30.8670 H   0  0  0  0  0  0  0  0  0  0  0  0
   -2.0407   21.0388  -31.7335 H   0  0  0  0  0  0  0  0  0  0  0  0
   -3.5510   23.3490  -31.1730 H   0  0  0  0  0  0  0  0  0  0  0  0
  1  2  1  0
  2  3  2  0
  2  4  1  0
  4  5  2  0
  5  6  1  0
  6  7  2  0
  7  8  1  0
  8  9  2  0
  9 10  1  0
 10 11  1  0
 11 12  1  0
 12 13  2  0
 13 14  1  0
 14 15  1  0
  9 16  1  0
 16 17  2  0
 17 18  1  0
 18 19  1  0
 19 20  2  0
 19 21  1  0
 21 22  1  0
 22 23  1  0
 18  4  1  0
 17  6  1  0
 15 11  2  0
  1 24  1  0
  1 25  1  0
  5 26  1  0
  7 27  1  0
  8 28  1  0
 10 29  1  0
 12 30  1  0
 15 31  1  0
 16 32  1  0
 21 33  1  0
 21 34  1  0
 22 35  1  0
 22 36  1  0
 23 37  1  0
M  CHG  1  14  -1
M  END
>  <UniqueID>  (9) 
9

>  <SMILES>  (9) 
NC(=O)c1cc2ccc(Nc3cn[n-]c3)cc2n1C(=O)CCO

>  <Energy>  (9) 
109.67866221305046

>  <Genealogy>  (9) 
NC(=O)c1cc2ccc(Nc3cn[n-]c3)cc2n1C(=O)CCO (protonated)
NC(=O)c1cc2ccc(Nc3cn[n-]c3)cc2n1C(=O)CCO (3D coordinates assigned)
NC(=O)c1cc2ccc(Nc3cn[n-]c3)cc2n1C(=O)CCO (optimized conformer: 109.67866221305046 kcal/mol)

>  <smiles>  (9) 
NC(=O)c1cc2ccc(Nc3cn[nH]c3)cc2n1C(=O)CCO

>  <score_type>  (9) 
oracle

>  <origin>  (9) 
adg

>  <m_score__min__energy>  (9) 
-9.4600000000000009

>  <m_primary>  (9) 
energy

$$$$
10:0
     RDKit          3D

 30 31  0  0  0  0  0  0  0  0999 V2000
   -3.9640   25.6710  -30.8570 N   0  0  0  0  0  0  0  0  0  0  0  0
   -5.2710   25.2010  -30.5360 C   0  0  0  0  0  0  0  0  0  0  0  0
   -6.0500   25.9420  -29.8810 O   0  0  0  0  0  0  0  0  0  0  0  0
   -5.6810   23.8380  -30.9360 C   0  0  0  0  0  0  0  0  0  0  0  0
   -6.9280   23.5400  -31.4800 C   0  0  0  0  0  0  0  0  0  0  0  0
   -6.8780   22.2010  -31.7950 C   0  0  0  0  0  0  0  0  0  0  0  0
   -7.8520   21.3730  -32.3430 C   0  0  0  0  0  0  0  0  0  0  0  0
   -7.5350   20.0170  -32.5290 C   0  0  0  0  0  0  0  0  0  0  0  0
   -6.2560   19.5140  -32.1760 C   0  0  0  0  0  0  0  0  0  0  0  0
   -5.9510   18.0450  -32.3220 C   0  0  0  0  0  0  0  0  0  0  0  0
   -6.0920   17.4280  -31.0930 F   0  0  0  0  0  0  0  0  0  0  0  0
   -4.6580   17.8570  -32.7760 F   0  0  0  0  0  0  0  0  0  0  0  0
   -6.8170   17.4550  -33.2250 F   0  0  0  0  0  0  0  0  0  0  0  0
   -5.3020   20.3850  -31.5990 C   0  0  0  0  0  0  0  0  0  0  0  0
   -5.6390   21.7340  -31.4420 C   0  0  0  0  0  0  0  0  0  0  0  0
   -4.8920   22.7270  -30.9080 N   0  0  0  0  0  0  0  0  0  0  0  0
   -3.5720   22.5950  -30.3590 C   0  0  0  0  0  0  0  0  0  0  0  0
   -2.7840   21.7270  -30.8220 O   0  0  0  0  0  0  0  0  0  0  0  0
   -3.1660   23.4270  -29.2670 N   0  0  0  0  0  0  0  0  0  0  0  0
   -1.8650   23.3240  -28.6170 C   0  0  0  0  0  0  0  0  0  0  0  0
   -1.0560   24.5530  -28.8850 C   0  0  0  0  0  0  0  0  0  0  0  0
   -1.6080   25.5880  -29.3440 O   0  0  0  0  0  0  0  0  0  0  0  0
    0.3140   24.5450  -28.6580 O   0  0  0  0  0  0  0  0  0  0  0  0
   -3.1180   25.2590  -30.4030 H   0  0  0  0  0  0  0  0  0  0  0  0
   -7.7733   24.2285  -31.6267 H   0  0  0  0  0  0  0  0  0  0  0  0
   -8.8401   21.7677  -32.6222 H   0  0  0  0  0  0  0  0  0  0  0  0
   -8.2878   19.3366  -32.9537 H   0  0  0  0  0  0  0  0  0  0  0  0
   -4.3179   20.0103  -31.2811 H   0  0  0  0  0  0  0  0  0  0  0  0
   -2.0085   23.2127  -27.5321 H   0  0  0  0  0  0  0  0  0  0  0  0
   -1.3319   22.4487  -29.0167 H   0  0  0  0  0  0  0  0  0  0  0  0
  1  2  1  0
  2  3  2  0
  2  4  1  0
  4  5  2  0
  5  6  1  0
  6  7  2  0
  7  8  1  0
  8  9  2  0
  9 10  1  0
 10 11  1  0
 10 12  1  0
 10 13  1  0
  9 14  1  0
 14 15  2  0
 15 16  1  0
 16 17  1  0
 17 18  2  0
 17 19  1  0
 19 20  1  0
 20 21  1  0
 21 22  2  0
 21 23  1  0
 16  4  1  0
 15  6  1  0
  1 24  1  0
  5 25  1  0
  7 26  1  0
  8 27  1  0
 14 28  1  0
 20 29  1  0
 20 30  1  0
M  CHG  3   1  -1  19  -1  23  -1
M  END
>  <UniqueID>  (10) 
10

>  <SMILES>  (10) 
[NH-]C(=O)c1cc2ccc(C(F)(F)F)cc2n1C(=O)[N-]CC(=O)[O-]

>  <Energy>  (10) 
67.40410603052209

>  <Genealogy>  (10) 
[NH-]C(=O)c1cc2ccc(C(F)(F)F)cc2n1C(=O)[N-]CC(=O)[O-] (protonated)
[NH-]C(=O)c1cc2ccc(C(F)(F)F)cc2n1C(=O)[N-]CC(=O)[O-] (3D coordinates assigned)
[NH-]C(=O)c1cc2ccc(C(F)(F)F)cc2n1C(=O)[N-]CC(=O)[O-] (optimized conformer: 67.40410603052209 kcal/mol)

>  <smiles>  (10) 
NC(=O)c1cc2ccc(C(F)(F)F)cc2n1C(=O)NCC(=O)O

>  <score_type>  (10) 
oracle

>  <origin>  (10) 
adg

>  <m_score__min__energy>  (10) 
-12.27

>  <m_primary>  (10) 
energy

$$$$
11:0
     RDKit          3D

 40 42  0  0  0  0  0  0  0  0999 V2000
   -3.8610   25.6750  -30.8510 N   0  0  0  0  0  0  0  0  0  0  0  0
   -5.2000   25.4240  -30.4290 C   0  0  0  0  0  0  0  0  0  0  0  0
   -5.7900   26.2760  -29.7120 O   0  0  0  0  0  0  0  0  0  0  0  0
   -5.9200   24.2110  -30.8670 C   0  0  0  0  0  0  0  0  0  0  0  0
   -7.3050   24.0780  -30.7990 C   0  0  0  0  0  0  0  0  0  0  0  0
   -7.5830   22.8620  -31.3810 C   0  0  0  0  0  0  0  0  0  0  0  0
   -8.8000   22.2190  -31.5680 C   0  0  0  0  0  0  0  0  0  0  0  0
   -8.7920   20.9510  -32.1720 C   0  0  0  0  0  0  0  0  0  0  0  0
   -7.5710   20.3430  -32.5770 C   0  0  0  0  0  0  0  0  0  0  0  0
   -7.5200   19.0320  -33.1810 N   0  0  0  0  0  0  0  0  0  0  0  0
   -6.3290   18.1910  -33.3810 C   0  0  0  0  0  0  0  0  0  0  0  0
   -5.6780   18.4370  -34.7540 C   0  0  0  0  0  0  0  0  0  0  0  0
   -4.4060   17.5920  -34.8870 C   0  0  0  0  0  0  0  0  0  0  0  0
   -4.6290   16.1940  -34.4870 N   0  0  0  0  0  0  0  0  0  0  0  0
   -3.5390   15.2590  -34.6040 C   0  0  0  0  0  0  0  0  0  0  0  0
   -3.7130   14.0330  -34.3730 O   0  0  0  0  0  0  0  0  0  0  0  0
   -2.2750   15.7020  -34.9760 O   0  0  0  0  0  0  0  0  0  0  0  0
   -5.9760   15.7380  -34.1050 C   0  0  0  0  0  0  0  0  0  0  0  0
   -6.6150   16.6960  -33.0840 C   0  0  0  0  0  0  0  0  0  0  0  0
   -6.3560   21.0320  -32.3560 C   0  0  0  0  0  0  0  0  0  0  0  0
   -6.3970   22.3020  -31.7700 C   0  0  0  0  0  0  0  0  0  0  0  0
   -5.3630   23.1170  -31.4590 N   0  0  0  0  0  0  0  0  0  0  0  0
   -3.9660   22.8270  -31.6290 C   0  0  0  0  0  0  0  0  0  0  0  0
   -3.5580   22.2540  -32.6720 O   0  0  0  0  0  0  0  0  0  0  0  0
   -3.0560   23.1520  -30.6300 O   0  0  0  0  0  0  0  0  0  0  0  0
   -3.0500   25.2990  -30.3130 H   0  0  0  0  0  0  0  0  0  0  0  0
   -8.0236   24.7926  -30.3712 H   0  0  0  0  0  0  0  0  0  0  0  0
   -9.7429   22.6893  -31.2521 H   0  0  0  0  0  0  0  0  0  0  0  0
   -9.7422   20.4210  -32.3341 H   0  0  0  0  0  0  0  0  0  0  0  0
   -8.4340   18.5850  -33.4220 H   0  0  0  0  0  0  0  0  0  0  0  0
   -5.5778   18.4973  -32.6381 H   0  0  0  0  0  0  0  0  0  0  0  0
   -6.3858   18.1582  -35.5485 H   0  0  0  0  0  0  0  0  0  0  0  0
   -5.4168   19.5016  -34.8455 H   0  0  0  0  0  0  0  0  0  0  0  0
   -4.0738   17.6128  -35.9354 H   0  0  0  0  0  0  0  0  0  0  0  0
   -3.6430   18.0189  -34.2194 H   0  0  0  0  0  0  0  0  0  0  0  0
   -6.6094   15.6955  -35.0034 H   0  0  0  0  0  0  0  0  0  0  0  0
   -5.8911   14.7424  -33.6451 H   0  0  0  0  0  0  0  0  0  0  0  0
   -7.7039   16.5405  -33.0937 H   0  0  0  0  0  0  0  0  0  0  0  0
   -6.1718   16.4687  -32.1032 H   0  0  0  0  0  0  0  0  0  0  0  0
   -5.3954   20.5775  -32.6398 H   0  0  0  0  0  0  0  0  0  0  0  0
  1  2  1  0
  2  3  2  0
  2  4  1  0
  4  5  2  0
  5  6  1  0
  6  7  2  0
  7  8  1  0
  8  9  2  0
  9 10  1  0
 10 11  1  0
 11 12  1  0
 12 13  1  0
 13 14  1  0
 14 15  1  0
 15 16  2  0
 15 17  1  0
 14 18  1  0
 18 19  1  0
  9 20  1  0
 20 21  2  0
 21 22  1  0
 22 23  1  0
 23 24  2  0
 23 25  1  0
 22  4  1  0
 21  6  1  0
 19 11  1  0
  1 26  1  0
  5 27  1  0
  7 28  1  0
  8 29  1  0
 10 30  1  0
 11 31  1  0
 12 32  1  0
 12 33  1  0
 13 34  1  0
 13 35  1  0
 18 36  1  0
 18 37  1  0
 19 38  1  0
 19 39  1  0
 20 40  1  0
M  CHG  3   1  -1  17  -1  25  -1
M  END
>  <UniqueID>  (11) 
11

>  <SMILES>  (11) 
[NH-]C(=O)c1cc2ccc(NC3CCN(C(=O)[O-])CC3)cc2n1C(=O)[O-]

>  <Energy>  (11) 
85.86128936861239

>  <Genealogy>  (11) 
[NH-]C(=O)c1cc2ccc(NC3CCN(C(=O)[O-])CC3)cc2n1C(=O)[O-] (protonated)
[NH-]C(=O)c1cc2ccc(NC3CCN(C(=O)[O-])CC3)cc2n1C(=O)[O-] (3D coordinates assigned)
[NH-]C(=O)c1cc2ccc(NC3CCN(C(=O)[O-])CC3)cc2n1C(=O)[O-] (nonaromatic ring conformer: 85.86128936861239 kcal/mol)

>  <smiles>  (11) 
NC(=O)c1cc2ccc(NC3CCN(C(=O)O)CC3)cc2n1C(=O)O

>  <score_type>  (11) 
oracle

>  <origin>  (11) 
adg

>  <m_score__min__energy>  (11) 
-11.5

>  <m_primary>  (11) 
energy

$$$$
12:0
     RDKit          3D

 98105  0  0  0  0  0  0  0  0999 V2000
   -2.8760   21.7770  -33.1520 C   0  0  0  0  0  0  0  0  0  0  0  0
   -2.6120   21.8800  -31.8500 C   0  0  0  0  0  0  0  0  0  0  0  0
   -3.4670   22.6420  -30.9220 C   0  0  0  0  0  0  0  0  0  0  0  0
   -2.9410   23.2110  -29.9300 O   0  0  0  0  0  0  0  0  0  0  0  0
   -4.8860   22.7330  -31.1140 N   0  0  0  0  0  0  0  0  0  0  0  0
   -5.6890   23.8190  -30.9390 C   0  0  0  0  0  0  0  0  0  0  0  0
   -5.2530   25.1360  -30.4300 C   0  0  0  0  0  0  0  0  0  0  0  0
   -3.9950   25.6760  -30.8300 N   0  0  0  0  0  0  0  0  0  0  0  0
   -5.9900   25.7990  -29.6520 O   0  0  0  0  0  0  0  0  0  0  0  0
   -7.0030   23.5100  -31.2860 C   0  0  0  0  0  0  0  0  0  0  0  0
   -6.9760   22.1900  -31.6790 C   0  0  0  0  0  0  0  0  0  0  0  0
   -7.9970   21.3710  -32.1490 C   0  0  0  0  0  0  0  0  0  0  0  0
   -7.6690   20.0570  -32.5220 C   0  0  0  0  0  0  0  0  0  0  0  0
   -6.3360   19.5750  -32.4110 C   0  0  0  0  0  0  0  0  0  0  0  0
   -5.9960   18.1880  -32.8290 C   0  0  0  0  0  0  0  0  0  0  0  0
   -5.6500   17.2150  -31.8730 C   0  0  0  0  0  0  0  0  0  0  0  0
   -5.3640   15.9030  -32.2630 C   0  0  0  0  0  0  0  0  0  0  0  0
   -5.4150   15.5360  -33.6170 C   0  0  0  0  0  0  0  0  0  0  0  0
   -5.1770   14.1680  -34.0210 N   0  0  0  0  0  0  0  0  0  0  0  0
   -3.7440   13.9230  -34.2950 C   0  0  2  0  0  0  0  0  0  0  0  0
   -3.2370   12.6530  -33.5940 C   0  0  0  0  0  0  0  0  0  0  0  0
   -1.8390   12.2940  -34.1050 C   0  0  0  0  0  0  0  0  0  0  0  0
   -0.8440   13.4910  -34.1210 C   0  0  1  0  0  0  0  0  0  0  0  0
   -0.1420   13.6650  -35.4230 N   0  0  0  0  0  0  0  0  0  0  0  0
   -0.8690   14.5290  -36.3900 C   0  0  0  0  0  0  0  0  0  0  0  0
    0.0610   15.4300  -37.2060 C   0  0  0  0  0  0  0  0  0  0  0  0
    1.0000   16.0910  -36.2970 N   0  0  0  0  0  0  0  0  0  0  0  0
    0.9760   17.5230  -36.1100 C   0  0  0  0  0  0  0  0  0  0  0  0
    1.9370   18.3390  -36.7510 C   0  0  0  0  0  0  0  0  0  0  0  0
    1.8840   19.7160  -36.5510 C   0  0  0  0  0  0  0  0  0  0  0  0
    0.9200   20.2920  -35.7610 C   0  0  0  0  0  0  0  0  0  0  0  0
   -0.0430   19.5270  -35.1120 C   0  0  0  0  0  0  0  0  0  0  0  0
   -0.0170   18.1320  -35.2910 C   0  0  0  0  0  0  0  0  0  0  0  0
   -0.9290   17.3800  -34.6300 F   0  0  0  0  0  0  0  0  0  0  0  0
    1.1820   21.7250  -35.7190 C   0  0  0  0  0  0  0  0  0  0  0  0
    0.5300   22.5640  -35.0440 O   0  0  0  0  0  0  0  0  0  0  0  0
    2.3270   22.0490  -36.5160 N   0  0  0  0  0  0  0  0  0  0  0  0
    3.1220   23.2780  -36.3790 C   0  0  2  0  0  0  0  0  0  0  0  0
    3.9370   23.2630  -35.0750 C   0  0  0  0  0  0  0  0  0  0  0  0
    4.7330   24.5600  -34.9240 C   0  0  0  0  0  0  0  0  0  0  0  0
    3.8150   25.7490  -34.9760 C   0  0  0  0  0  0  0  0  0  0  0  0
    4.1100   26.7820  -34.3130 O   0  0  0  0  0  0  0  0  0  0  0  0
    2.6400   25.7300  -35.8120 N   0  0  0  0  0  0  0  0  0  0  0  0
    1.7790   26.9140  -35.8920 C   0  0  0  0  0  0  0  0  0  0  0  0
    2.2400   24.5010  -36.4530 C   0  0  0  0  0  0  0  0  0  0  0  0
    1.1860   24.4630  -37.1490 O   0  0  0  0  0  0  0  0  0  0  0  0
    2.7730   20.7770  -37.0090 C   0  0  0  0  0  0  0  0  0  0  0  0
    3.8200   20.6000  -37.6850 O   0  0  0  0  0  0  0  0  0  0  0  0
    1.8330   15.2480  -35.4310 C   0  0  0  0  0  0  0  0  0  0  0  0
    1.3370   13.7890  -35.4130 C   0  0  0  0  0  0  0  0  0  0  0  0
   -1.4100   14.8290  -33.5660 C   0  0  0  0  0  0  0  0  0  0  0  0
   -2.8980   15.1410  -33.8620 C   0  0  0  0  0  0  0  0  0  0  0  0
   -5.7310   16.5130  -34.5770 C   0  0  0  0  0  0  0  0  0  0  0  0
   -6.0280   17.8200  -34.1870 C   0  0  0  0  0  0  0  0  0  0  0  0
   -5.3300   20.4410  -31.9170 C   0  0  0  0  0  0  0  0  0  0  0  0
   -5.6870   21.7450  -31.5640 C   0  0  0  0  0  0  0  0  0  0  0  0
   -2.2072   21.1966  -33.8046 H   0  0  0  0  0  0  0  0  0  0  0  0
   -3.7627   22.2724  -33.5743 H   0  0  0  0  0  0  0  0  0  0  0  0
   -1.7194   21.3757  -31.4513 H   0  0  0  0  0  0  0  0  0  0  0  0
   -3.1000   25.2660  -30.4820 H   0  0  0  0  0  0  0  0  0  0  0  0
   -7.8761   24.1782  -31.2530 H   0  0  0  0  0  0  0  0  0  0  0  0
   -9.0300   21.7409  -32.2263 H   0  0  0  0  0  0  0  0  0  0  0  0
   -8.4556   19.3907  -32.9059 H   0  0  0  0  0  0  0  0  0  0  0  0
   -5.6041   17.4892  -30.8087 H   0  0  0  0  0  0  0  0  0  0  0  0
   -5.0972   15.1533  -31.5036 H   0  0  0  0  0  0  0  0  0  0  0  0
   -5.4950   13.5460  -33.2410 H   0  0  0  0  0  0  0  0  0  0  0  0
   -5.7510   13.9260  -34.8650 H   0  0  0  0  0  0  0  0  0  0  0  0
   -3.6368   13.7729  -35.3794 H   0  0  0  0  0  0  0  0  0  0  0  0
   -3.1940   12.8286  -32.5090 H   0  0  0  0  0  0  0  0  0  0  0  0
   -3.9246   11.8223  -33.8112 H   0  0  0  0  0  0  0  0  0  0  0  0
   -1.4247   11.5085  -33.4560 H   0  0  0  0  0  0  0  0  0  0  0  0
   -1.9564   11.9638  -35.1477 H   0  0  0  0  0  0  0  0  0  0  0  0
   -0.0780   13.1911  -33.3907 H   0  0  0  0  0  0  0  0  0  0  0  0
   -1.4291   13.8843  -37.0833 H   0  0  0  0  0  0  0  0  0  0  0  0
   -1.5344   15.1844  -35.8089 H   0  0  0  0  0  0  0  0  0  0  0  0
    0.6181   14.8224  -37.9344 H   0  0  0  0  0  0  0  0  0  0  0  0
   -0.5303   16.1853  -37.7444 H   0  0  0  0  0  0  0  0  0  0  0  0
    2.7107   17.8948  -37.3945 H   0  0  0  0  0  0  0  0  0  0  0  0
   -0.8050   20.0003  -34.4754 H   0  0  0  0  0  0  0  0  0  0  0  0
    3.8305   23.3204  -37.2194 H   0  0  0  0  0  0  0  0  0  0  0  0
    3.2515   23.1579  -34.2212 H   0  0  0  0  0  0  0  0  0  0  0  0
    4.6393   22.4169  -35.1049 H   0  0  0  0  0  0  0  0  0  0  0  0
    5.2599   24.5512  -33.9585 H   0  0  0  0  0  0  0  0  0  0  0  0
    5.4563   24.6321  -35.7496 H   0  0  0  0  0  0  0  0  0  0  0  0
    1.5304   27.2559  -34.8765 H   0  0  0  0  0  0  0  0  0  0  0  0
    2.3067   27.7155  -36.4298 H   0  0  0  0  0  0  0  0  0  0  0  0
    0.8539   26.6590  -36.4298 H   0  0  0  0  0  0  0  0  0  0  0  0
    2.8684   15.2685  -35.8018 H   0  0  0  0  0  0  0  0  0  0  0  0
    1.7749   15.6439  -34.4064 H   0  0  0  0  0  0  0  0  0  0  0  0
    1.7352   13.2752  -36.3003 H   0  0  0  0  0  0  0  0  0  0  0  0
    1.6925   13.3385  -34.4746 H   0  0  0  0  0  0  0  0  0  0  0  0
   -1.2854   14.8139  -32.4732 H   0  0  0  0  0  0  0  0  0  0  0  0
   -0.8446   15.6157  -34.0870 H   0  0  0  0  0  0  0  0  0  0  0  0
   -3.3468   15.5621  -32.9503 H   0  0  0  0  0  0  0  0  0  0  0  0
   -2.9038   15.8388  -34.7123 H   0  0  0  0  0  0  0  0  0  0  0  0
   -5.7443   16.2455  -35.6439 H   0  0  0  0  0  0  0  0  0  0  0  0
   -6.2896   18.5695  -34.9484 H   0  0  0  0  0  0  0  0  0  0  0  0
   -4.2910   20.0948  -31.8136 H   0  0  0  0  0  0  0  0  0  0  0  0
  1  2  2  0
  2  3  1  0
  3  4  2  0
  3  5  1  0
  5  6  1  0
  6  7  1  0
  7  8  1  0
  7  9  2  0
  6 10  2  0
 10 11  1  0
 11 12  2  0
 12 13  1  0
 13 14  2  0
 14 15  1  0
 15 16  2  0
 16 17  1  0
 17 18  2  0
 18 19  1  0
 19 20  1  0
 20 21  1  0
 21 22  1  0
 22 23  1  0
 23 24  1  0
 24 25  1  0
 25 26  1  0
 26 27  1  0
 27 28  1  0
 28 29  2  0
 29 30  1  0
 30 31  2  0
 31 32  1  0
 32 33  2  0
 33 34  1  0
 31 35  1  0
 35 36  2  0
 35 37  1  0
 37 38  1  0
 38 39  1  0
 39 40  1  0
 40 41  1  0
 41 42  2  0
 41 43  1  0
 43 44  1  0
 43 45  1  0
 45 46  2  0
 37 47  1  0
 47 48  2  0
 27 49  1  0
 49 50  1  0
 23 51  1  0
 51 52  1  0
 18 53  1  0
 53 54  2  0
 14 55  1  0
 55 56  2  0
 56  5  1  0
 56 11  1  0
 54 15  1  0
 52 20  1  0
 50 24  1  0
 33 28  1  0
 45 38  1  0
 47 30  1  0
  1 57  1  0
  1 58  1  0
  2 59  1  0
  8 60  1  0
 10 61  1  0
 12 62  1  0
 13 63  1  0
 16 64  1  0
 17 65  1  0
 19 66  1  0
 19 67  1  0
 20 68  1  6
 21 69  1  0
 21 70  1  0
 22 71  1  0
 22 72  1  0
 23 73  1  1
 25 74  1  0
 25 75  1  0
 26 76  1  0
 26 77  1  0
 29 78  1  0
 32 79  1  0
 38 80  1  6
 39 81  1  0
 39 82  1  0
 40 83  1  0
 40 84  1  0
 44 85  1  0
 44 86  1  0
 44 87  1  0
 49 88  1  0
 49 89  1  0
 50 90  1  0
 50 91  1  0
 51 92  1  0
 51 93  1  0
 52 94  1  0
 52 95  1  0
 53 96  1  0
 54 97  1  0
 55 98  1  0
M  CHG  2   8  -1  19   1
M  END
>  <UniqueID>  (12) 
12

>  <SMILES>  (12) 
C=CC(=O)n1c(C([NH-])=O)cc2ccc(-c3ccc([NH2+]C4CCC(N5CCN(c6cc7c(cc6F)C(=O)N([C@@H]6CCC(=O)N(C)C6=O)C7=O)CC5)CC4)cc3)cc21

>  <Energy>  (12) 
211.18205725069623

>  <Genealogy>  (12) 
C=CC(=O)n1c(C([NH-])=O)cc2ccc(-c3ccc([NH2+]C4CCC(N5CCN(c6cc7c(cc6F)C(=O)N(C6CCC(=O)N(C)C6=O)C7=O)CC5)CC4)cc3)cc21 (protonated)
C=CC(=O)n1c(C([NH-])=O)cc2ccc(-c3ccc([NH2+]C4CCC(N5CCN(c6cc7c(cc6F)C(=O)N([C@@H]6CCC(=O)N(C)C6=O)C7=O)CC5)CC4)cc3)cc21 (chirality)
C=CC(=O)n1c(C([NH-])=O)cc2ccc(-c3ccc([NH2+]C4CCC(N5CCN(c6cc7c(cc6F)C(=O)N([C@@H]6CCC(=O)N(C)C6=O)C7=O)CC5)CC4)cc3)cc21 (3D coordinates assigned)
C=CC(=O)n1c(C([NH-])=O)cc2ccc(-c3ccc([NH2+]C4CCC(N5CCN(c6cc7c(cc6F)C(=O)N([C@@H]6CCC(=O)N(C)C6=O)C7=O)CC5)CC4)cc3)cc21 (nonaromatic ring conformer: 211.18205725069623 kcal/mol)

>  <smiles>  (12) 
C=CC(=O)n1c(C(N)=O)cc2ccc(-c3ccc(NC4CCC(N5CCN(c6cc7c(cc6F)C(=O)N(C6CCC(=O)N(C)C6=O)C7=O)CC5)CC4)cc3)cc21

>  <score_type>  (12) 
oracle

>  <origin>  (12) 
adg

>  <m_score__min__energy>  (12) 
-14.630000000000001

>  <m_primary>  (12) 
energy

$$$$
13:0
     RDKit          3D

 37 39  0  0  0  0  0  0  0  0999 V2000
   -1.6470   25.6880  -28.9730 N   0  0  0  0  0  0  0  0  0  0  0  0
   -0.9250   24.4590  -29.0330 C   0  0  0  0  0  0  0  0  0  0  0  0
    0.1750   24.3600  -28.4310 O   0  0  0  0  0  0  0  0  0  0  0  0
   -1.4640   23.3260  -29.8160 C   0  0  0  0  0  0  0  0  0  0  0  0
   -0.6660   22.3900  -30.4720 C   0  0  0  0  0  0  0  0  0  0  0  0
   -1.5450   21.4860  -31.0250 C   0  0  0  0  0  0  0  0  0  0  0  0
   -1.2990   20.3570  -31.8000 C   0  0  0  0  0  0  0  0  0  0  0  0
   -2.4030   19.6220  -32.2630 C   0  0  0  0  0  0  0  0  0  0  0  0
   -3.7290   20.0290  -31.9540 C   0  0  0  0  0  0  0  0  0  0  0  0
   -4.8900   19.2510  -32.4580 C   0  0  0  0  0  0  0  0  0  0  0  0
   -4.7340   17.9220  -32.8870 C   0  0  0  0  0  0  0  0  0  0  0  0
   -5.8010   17.2160  -33.3480 N   0  0  0  0  0  0  0  0  0  0  0  0
   -7.0460   17.7630  -33.4080 C   0  0  0  0  0  0  0  0  0  0  0  0
   -7.2570   19.0810  -32.9910 C   0  0  0  0  0  0  0  0  0  0  0  0
   -8.5640   19.6590  -33.0480 N   0  0  0  0  0  0  0  0  0  0  0  0
   -6.1710   19.8250  -32.5160 C   0  0  0  0  0  0  0  0  0  0  0  0
   -3.9340   21.1860  -31.1650 C   0  0  0  0  0  0  0  0  0  0  0  0
   -2.8140   21.8840  -30.7020 C   0  0  0  0  0  0  0  0  0  0  0  0
   -2.7810   23.0110  -29.9580 N   0  0  0  0  0  0  0  0  0  0  0  0
   -3.9140   23.7460  -29.4690 C   0  0  0  0  0  0  0  0  0  0  0  0
   -4.2250   23.6790  -28.2490 O   0  0  0  0  0  0  0  0  0  0  0  0
   -4.7360   24.5930  -30.3940 C   0  0  0  0  0  0  0  0  0  0  0  0
   -3.9770   25.6760  -30.8580 O   0  0  0  0  0  0  0  0  0  0  0  0
   -2.6790   25.7110  -29.1220 H   0  0  0  0  0  0  0  0  0  0  0  0
    0.4321   22.3765  -30.5345 H   0  0  0  0  0  0  0  0  0  0  0  0
   -0.2712   20.0493  -32.0428 H   0  0  0  0  0  0  0  0  0  0  0  0
   -2.2391   18.7207  -32.8720 H   0  0  0  0  0  0  0  0  0  0  0  0
   -3.7415   17.4492  -32.8497 H   0  0  0  0  0  0  0  0  0  0  0  0
   -5.6620   16.2310  -33.6660 H   0  0  0  0  0  0  0  0  0  0  0  0
   -7.8892   17.1661  -33.7859 H   0  0  0  0  0  0  0  0  0  0  0  0
   -8.8720   20.3530  -32.3310 H   0  0  0  0  0  0  0  0  0  0  0  0
   -9.2310   19.3970  -33.8060 H   0  0  0  0  0  0  0  0  0  0  0  0
   -6.3210   20.8637  -32.1866 H   0  0  0  0  0  0  0  0  0  0  0  0
   -4.9507   21.5283  -30.9216 H   0  0  0  0  0  0  0  0  0  0  0  0
   -5.0631   23.9847  -31.2501 H   0  0  0  0  0  0  0  0  0  0  0  0
   -5.6122   24.9746  -29.8494 H   0  0  0  0  0  0  0  0  0  0  0  0
   -3.1270   25.6670  -30.3440 H   0  0  0  0  0  0  0  0  0  0  0  0
  1  2  1  0
  2  3  2  0
  2  4  1  0
  4  5  2  0
  5  6  1  0
  6  7  2  0
  7  8  1  0
  8  9  2  0
  9 10  1  0
 10 11  2  0
 11 12  1  0
 12 13  2  0
 13 14  1  0
 14 15  1  0
 14 16  2  0
  9 17  1  0
 17 18  2  0
 18 19  1  0
 19 20  1  0
 20 21  2  0
 20 22  1  0
 22 23  1  0
 19  4  1  0
 18  6  1  0
 16 10  1  0
  1 24  1  0
  5 25  1  0
  7 26  1  0
  8 27  1  0
 11 28  1  0
 12 29  1  0
 13 30  1  0
 15 31  1  0
 15 32  1  0
 16 33  1  0
 17 34  1  0
 22 35  1  0
 22 36  1  0
 23 37  1  0
M  CHG  2   1  -1  12   1
M  END
>  <UniqueID>  (13) 
13

>  <SMILES>  (13) 
[NH-]C(=O)c1cc2ccc(-c3c[nH+]cc(N)c3)cc2n1C(=O)CO

>  <Energy>  (13) 
82.10450669952247

>  <Genealogy>  (13) 
[NH-]C(=O)c1cc2ccc(-c3c[nH+]cc(N)c3)cc2n1C(=O)CO (protonated)
[NH-]C(=O)c1cc2ccc(-c3c[nH+]cc(N)c3)cc2n1C(=O)CO (3D coordinates assigned)
[NH-]C(=O)c1cc2ccc(-c3c[nH+]cc(N)c3)cc2n1C(=O)CO (optimized conformer: 82.10450669952247 kcal/mol)

>  <smiles>  (13) 
NC(=O)c1cc2ccc(-c3cncc(N)c3)cc2n1C(=O)CO

>  <score_type>  (13) 
oracle

>  <origin>  (13) 
adg

>  <m_score__min__energy>  (13) 
-9.4800000000000004

>  <m_primary>  (13) 
energy

$$$$
14:0
     RDKit          3D

 33 34  0  0  0  0  0  0  0  0999 V2000
   -2.8570   20.7680  -32.8280 C   0  0  0  0  0  0  0  0  0  0  0  0
   -3.4440   21.9610  -32.9000 C   0  0  0  0  0  0  0  0  0  0  0  0
   -3.9330   22.6850  -31.7110 C   0  0  0  0  0  0  0  0  0  0  0  0
   -3.0970   23.1500  -30.8940 O   0  0  0  0  0  0  0  0  0  0  0  0
   -5.3370   22.8770  -31.4700 N   0  0  0  0  0  0  0  0  0  0  0  0
   -5.9410   23.9480  -30.8850 C   0  0  0  0  0  0  0  0  0  0  0  0
   -5.2460   25.1060  -30.2840 C   0  0  0  0  0  0  0  0  0  0  0  0
   -4.0280   25.5780  -30.8560 N   0  0  0  0  0  0  0  0  0  0  0  0
   -5.7250   25.6950  -29.2800 O   0  0  0  0  0  0  0  0  0  0  0  0
   -7.3260   23.7860  -30.8860 C   0  0  0  0  0  0  0  0  0  0  0  0
   -7.5520   22.5750  -31.5010 C   0  0  0  0  0  0  0  0  0  0  0  0
   -8.7460   21.9150  -31.7750 C   0  0  0  0  0  0  0  0  0  0  0  0
   -8.6770   20.6760  -32.4340 C   0  0  0  0  0  0  0  0  0  0  0  0
   -7.4260   20.1280  -32.8200 C   0  0  0  0  0  0  0  0  0  0  0  0
   -7.3660   18.8410  -33.4710 N   0  0  0  0  0  0  0  0  0  0  0  0
   -6.3250   17.9880  -32.8750 C   0  0  0  0  0  0  0  0  0  0  0  0
   -5.2140   17.7060  -33.8450 C   0  0  0  0  0  0  0  0  0  0  0  0
   -5.3290   18.0380  -35.0540 O   0  0  0  0  0  0  0  0  0  0  0  0
   -4.0390   17.1110  -33.4030 O   0  0  0  0  0  0  0  0  0  0  0  0
   -6.2350   20.8310  -32.5250 C   0  0  0  0  0  0  0  0  0  0  0  0
   -6.3350   22.0510  -31.8500 C   0  0  0  0  0  0  0  0  0  0  0  0
   -2.5098   20.2696  -33.7451 H   0  0  0  0  0  0  0  0  0  0  0  0
   -2.7193   20.2808  -31.8514 H   0  0  0  0  0  0  0  0  0  0  0  0
   -3.5698   22.4269  -33.8885 H   0  0  0  0  0  0  0  0  0  0  0  0
   -3.1040   25.2790  -30.4720 H   0  0  0  0  0  0  0  0  0  0  0  0
   -8.0785   24.4788  -30.4813 H   0  0  0  0  0  0  0  0  0  0  0  0
   -9.7138   22.3498  -31.4847 H   0  0  0  0  0  0  0  0  0  0  0  0
   -9.6031   20.1244  -32.6533 H   0  0  0  0  0  0  0  0  0  0  0  0
   -8.2920   18.3610  -33.3680 H   0  0  0  0  0  0  0  0  0  0  0  0
   -7.1920   18.9550  -34.4980 H   0  0  0  0  0  0  0  0  0  0  0  0
   -5.9079   18.4978  -31.9940 H   0  0  0  0  0  0  0  0  0  0  0  0
   -6.7865   17.0296  -32.5948 H   0  0  0  0  0  0  0  0  0  0  0  0
   -5.2547   20.4280  -32.8192 H   0  0  0  0  0  0  0  0  0  0  0  0
  1  2  2  0
  2  3  1  0
  3  4  2  0
  3  5  1  0
  5  6  1  0
  6  7  1  0
  7  8  1  0
  7  9  2  0
  6 10  2  0
 10 11  1  0
 11 12  2  0
 12 13  1  0
 13 14  2  0
 14 15  1  0
 15 16  1  0
 16 17  1  0
 17 18  2  0
 17 19  1  0
 14 20  1  0
 20 21  2  0
 21  5  1  0
 21 11  1  0
  1 22  1  0
  1 23  1  0
  2 24  1  0
  8 25  1  0
 10 26  1  0
 12 27  1  0
 13 28  1  0
 15 29  1  0
 15 30  1  0
 16 31  1  0
 16 32  1  0
 20 33  1  0
M  CHG  3   8  -1  15   1  19  -1
M  END
>  <UniqueID>  (14) 
14

>  <SMILES>  (14) 
C=CC(=O)n1c(C([NH-])=O)cc2ccc([NH2+]CC(=O)[O-])cc21

>  <Energy>  (14) 
71.28771003877537

>  <Genealogy>  (14) 
C=CC(=O)n1c(C([NH-])=O)cc2ccc([NH2+]CC(=O)[O-])cc21 (protonated)
C=CC(=O)n1c(C([NH-])=O)cc2ccc([NH2+]CC(=O)[O-])cc21 (3D coordinates assigned)
C=CC(=O)n1c(C([NH-])=O)cc2ccc([NH2+]CC(=O)[O-])cc21 (optimized conformer: 71.28771003877537 kcal/mol)

>  <smiles>  (14) 
C=CC(=O)n1c(C(N)=O)cc2ccc(NCC(=O)O)cc21

>  <score_type>  (14) 
oracle

>  <origin>  (14) 
adg

>  <m_score__min__energy>  (14) 
-9.3599999999999994

>  <m_primary>  (14) 
energy

$$$$
15:0
     RDKit          3D

 34 35  0  0  0  0  0  0  0  0999 V2000
   -0.9960   20.9480  -33.4140 C   0  0  0  0  0  0  0  0  0  0  0  0
   -1.7610   21.2700  -32.2050 N   0  0  0  0  0  0  0  0  0  0  0  0
   -1.2760   20.8150  -30.8960 C   0  0  0  0  0  0  0  0  0  0  0  0
   -3.0300   21.9490  -32.3430 C   0  0  0  0  0  0  0  0  0  0  0  0
   -3.6100   21.9470  -33.4640 O   0  0  0  0  0  0  0  0  0  0  0  0
   -3.6830   22.6600  -31.2210 C   0  0  0  0  0  0  0  0  0  0  0  0
   -2.9960   23.1400  -30.2810 O   0  0  0  0  0  0  0  0  0  0  0  0
   -5.1010   22.8820  -31.2340 N   0  0  0  0  0  0  0  0  0  0  0  0
   -5.7830   23.9970  -30.8470 C   0  0  0  0  0  0  0  0  0  0  0  0
   -5.1810   25.2810  -30.4300 C   0  0  0  0  0  0  0  0  0  0  0  0
   -3.8690   25.6480  -30.8450 N   0  0  0  0  0  0  0  0  0  0  0  0
   -5.8510   26.0840  -29.7240 O   0  0  0  0  0  0  0  0  0  0  0  0
   -7.1570   23.7890  -30.9600 C   0  0  0  0  0  0  0  0  0  0  0  0
   -7.2950   22.5070  -31.4440 C   0  0  0  0  0  0  0  0  0  0  0  0
   -8.4400   21.7750  -31.7350 C   0  0  0  0  0  0  0  0  0  0  0  0
   -8.2810   20.4590  -32.2020 C   0  0  0  0  0  0  0  0  0  0  0  0
   -6.9870   19.9040  -32.3860 C   0  0  0  0  0  0  0  0  0  0  0  0
   -6.8320   18.4730  -32.8310 C   0  0  0  0  0  0  0  0  0  0  0  0
   -6.4700   18.4110  -34.1650 F   0  0  0  0  0  0  0  0  0  0  0  0
   -5.8510   17.8640  -32.0690 F   0  0  0  0  0  0  0  0  0  0  0  0
   -8.0210   17.7820  -32.6720 F   0  0  0  0  0  0  0  0  0  0  0  0
   -5.8470   20.6750  -32.0580 C   0  0  0  0  0  0  0  0  0  0  0  0
   -6.0380   21.9850  -31.6040 C   0  0  0  0  0  0  0  0  0  0  0  0
   -0.0167   20.5358  -33.1293 H   0  0  0  0  0  0  0  0  0  0  0  0
   -1.5472   20.2055  -34.0098 H   0  0  0  0  0  0  0  0  0  0  0  0
   -0.8503   21.8611  -34.0098 H   0  0  0  0  0  0  0  0  0  0  0  0
   -1.8292   21.3340  -30.0994 H   0  0  0  0  0  0  0  0  0  0  0  0
   -1.4322   19.7300  -30.8040 H   0  0  0  0  0  0  0  0  0  0  0  0
   -0.2032   21.0401  -30.8040 H   0  0  0  0  0  0  0  0  0  0  0  0
   -3.0270   25.2980  -30.3360 H   0  0  0  0  0  0  0  0  0  0  0  0
   -7.9608   24.4987  -30.7145 H   0  0  0  0  0  0  0  0  0  0  0  0
   -9.4407   22.2125  -31.6037 H   0  0  0  0  0  0  0  0  0  0  0  0
   -9.1698   19.8515  -32.4277 H   0  0  0  0  0  0  0  0  0  0  0  0
   -4.8352   20.2551  -32.1574 H   0  0  0  0  0  0  0  0  0  0  0  0
  1  2  1  0
  2  3  1  0
  2  4  1  0
  4  5  2  0
  4  6  1  0
  6  7  2  0
  6  8  1  0
  8  9  1  0
  9 10  1  0
 10 11  1  0
 10 12  2  0
  9 13  2  0
 13 14  1  0
 14 15  2  0
 15 16  1  0
 16 17  2  0
 17 18  1  0
 18 19  1  0
 18 20  1  0
 18 21  1  0
 17 22  1  0
 22 23  2  0
 23  8  1  0
 23 14  1  0
  1 24  1  0
  1 25  1  0
  1 26  1  0
  3 27  1  0
  3 28  1  0
  3 29  1  0
 11 30  1  0
 13 31  1  0
 15 32  1  0
 16 33  1  0
 22 34  1  0
M  CHG  1  11  -1
M  END
>  <UniqueID>  (15) 
15

>  <SMILES>  (15) 
CN(C)C(=O)C(=O)n1c(C([NH-])=O)cc2ccc(C(F)(F)F)cc21

>  <Energy>  (15) 
74.69451596921462

>  <Genealogy>  (15) 
CN(C)C(=O)C(=O)n1c(C([NH-])=O)cc2ccc(C(F)(F)F)cc21 (protonated)
CN(C)C(=O)C(=O)n1c(C([NH-])=O)cc2ccc(C(F)(F)F)cc21 (3D coordinates assigned)
CN(C)C(=O)C(=O)n1c(C([NH-])=O)cc2ccc(C(F)(F)F)cc21 (optimized conformer: 74.69451596921462 kcal/mol)

>  <smiles>  (15) 
CN(C)C(=O)C(=O)n1c(C(N)=O)cc2ccc(C(F)(F)F)cc21

>  <score_type>  (15) 
oracle

>  <origin>  (15) 
adg

>  <m_score__min__energy>  (15) 
-9.6899999999999995

>  <m_primary>  (15) 
energy

$$$$
16:0
     RDKit          3D

 32 34  0  0  0  0  0  0  0  0999 V2000
   -7.1610   18.3540  -32.7200 C   0  0  0  0  0  0  0  0  0  0  0  0
   -7.3320   19.7920  -32.3300 C   0  0  0  0  0  0  0  0  0  0  0  0
   -8.6240   20.3760  -32.3200 C   0  0  0  0  0  0  0  0  0  0  0  0
   -8.8010   21.7150  -31.9290 C   0  0  0  0  0  0  0  0  0  0  0  0
   -7.6750   22.4340  -31.5370 C   0  0  0  0  0  0  0  0  0  0  0  0
   -7.5550   23.7440  -31.1320 C   0  0  0  0  0  0  0  0  0  0  0  0
   -6.1970   23.9290  -30.8700 C   0  0  0  0  0  0  0  0  0  0  0  0
   -5.6020   25.1860  -30.3620 C   0  0  0  0  0  0  0  0  0  0  0  0
   -4.2580   25.5490  -30.6880 N   0  0  0  0  0  0  0  0  0  0  0  0
   -6.2840   25.9620  -29.6420 O   0  0  0  0  0  0  0  0  0  0  0  0
   -5.5120   22.7740  -31.0940 N   0  0  0  0  0  0  0  0  0  0  0  0
   -4.0940   22.5670  -30.9950 C   0  0  0  0  0  0  0  0  0  0  0  0
   -3.4470   23.1310  -30.0710 O   0  0  0  0  0  0  0  0  0  0  0  0
   -3.3900   21.6940  -31.9480 C   0  0  0  0  0  0  0  0  0  0  0  0
   -2.5390   20.6540  -31.6380 C   0  0  0  0  0  0  0  0  0  0  0  0
   -2.1440   20.1240  -32.8480 C   0  0  0  0  0  0  0  0  0  0  0  0
   -2.7130   20.7860  -33.8310 O   0  0  0  0  0  0  0  0  0  0  0  0
   -3.4700   21.7330  -33.3270 C   0  0  0  0  0  0  0  0  0  0  0  0
   -6.4260   21.8710  -31.5100 C   0  0  0  0  0  0  0  0  0  0  0  0
   -6.2160   20.5480  -31.9120 C   0  0  0  0  0  0  0  0  0  0  0  0
   -7.0873   17.7346  -31.8139 H   0  0  0  0  0  0  0  0  0  0  0  0
   -8.0270   18.0303  -33.3161 H   0  0  0  0  0  0  0  0  0  0  0  0
   -6.2433   18.2424  -33.3161 H   0  0  0  0  0  0  0  0  0  0  0  0
   -9.4956   19.7762  -32.6208 H   0  0  0  0  0  0  0  0  0  0  0  0
   -9.7979   22.1799  -31.9327 H   0  0  0  0  0  0  0  0  0  0  0  0
   -8.3596   24.4878  -31.0353 H   0  0  0  0  0  0  0  0  0  0  0  0
   -3.8650   26.4550  -30.3500 H   0  0  0  0  0  0  0  0  0  0  0  0
   -3.6330   24.9080  -31.2240 H   0  0  0  0  0  0  0  0  0  0  0  0
   -2.2382   20.3176  -30.6349 H   0  0  0  0  0  0  0  0  0  0  0  0
   -1.4560   19.2747  -32.9722 H   0  0  0  0  0  0  0  0  0  0  0  0
   -4.0726   22.4449  -33.9102 H   0  0  0  0  0  0  0  0  0  0  0  0
   -5.2077   20.1084  -31.9026 H   0  0  0  0  0  0  0  0  0  0  0  0
  1  2  1  0
  2  3  2  0
  3  4  1  0
  4  5  2  0
  5  6  1  0
  6  7  2  0
  7  8  1  0
  8  9  1  0
  8 10  2  0
  7 11  1  0
 11 12  1  0
 12 13  2  0
 12 14  1  0
 14 15  1  0
 15 16  2  0
 16 17  1  0
 17 18  1  0
 11 19  1  0
 19 20  2  0
 20  2  1  0
 19  5  1  0
 18 14  2  0
  1 21  1  0
  1 22  1  0
  1 23  1  0
  3 24  1  0
  4 25  1  0
  6 26  1  0
  9 27  1  0
  9 28  1  0
 15 29  1  0
 16 30  1  0
 18 31  1  0
 20 32  1  0
M  END
>  <UniqueID>  (16) 
16

>  <SMILES>  (16) 
Cc1ccc2cc(C(N)=O)n(C(=O)c3ccoc3)c2c1

>  <Energy>  (16) 
98.96921649020724

>  <Genealogy>  (16) 
Cc1ccc2cc(C(N)=O)n(C(=O)c3ccoc3)c2c1 (3D coordinates assigned)
Cc1ccc2cc(C(N)=O)n(C(=O)c3ccoc3)c2c1 (optimized conformer: 98.96921649020724 kcal/mol)

>  <smiles>  (16) 
Cc1ccc2cc(C(N)=O)n(C(=O)c3ccoc3)c2c1

>  <score_type>  (16) 
oracle

>  <origin>  (16) 
adg

>  <m_score__min__energy>  (16) 
-8.1999999999999993

>  <m_primary>  (16) 
energy

$$$$
17:0
     RDKit          3D

 35 36  0  0  0  0  0  0  0  0999 V2000
   -9.1290   21.5740  -31.5030 C   0  0  0  0  0  0  0  0  0  0  0  0
   -7.7240   21.2410  -31.9080 C   0  0  0  0  0  0  0  0  0  0  0  0
   -7.4840   20.4460  -33.0560 C   0  0  0  0  0  0  0  0  0  0  0  0
   -6.1720   20.1720  -33.4760 C   0  0  0  0  0  0  0  0  0  0  0  0
   -5.1240   20.7020  -32.7290 C   0  0  0  0  0  0  0  0  0  0  0  0
   -3.7650   20.6410  -32.9410 C   0  0  0  0  0  0  0  0  0  0  0  0
   -3.1970   21.3840  -31.9090 C   0  0  0  0  0  0  0  0  0  0  0  0
   -1.7420   21.5780  -31.7460 C   0  0  0  0  0  0  0  0  0  0  0  0
   -1.2170   22.5000  -30.7880 N   0  0  0  0  0  0  0  0  0  0  0  0
   -0.9450   20.8870  -32.4350 O   0  0  0  0  0  0  0  0  0  0  0  0
   -4.1640   21.8860  -31.0920 N   0  0  0  0  0  0  0  0  0  0  0  0
   -3.9920   22.8120  -30.0070 C   0  0  0  0  0  0  0  0  0  0  0  0
   -4.0230   22.3910  -28.8190 O   0  0  0  0  0  0  0  0  0  0  0  0
   -3.8020   24.2470  -30.2620 C   0  0  0  0  0  0  0  0  0  0  0  0
   -4.6480   24.8830  -30.9460 O   0  0  0  0  0  0  0  0  0  0  0  0
   -2.6640   24.9230  -29.7140 N   0  0  0  0  0  0  0  0  0  0  0  0
   -2.3190   24.9020  -28.2970 C   0  0  0  0  0  0  0  0  0  0  0  0
   -0.9310   24.2990  -28.0910 C   0  0  0  0  0  0  0  0  0  0  0  0
   -0.2370   24.3010  -29.3060 O   0  0  0  0  0  0  0  0  0  0  0  0
   -5.3400   21.4670  -31.6110 C   0  0  0  0  0  0  0  0  0  0  0  0
   -6.6360   21.7800  -31.1860 C   0  0  0  0  0  0  0  0  0  0  0  0
   -9.2000   21.5908  -30.4054 H   0  0  0  0  0  0  0  0  0  0  0  0
   -9.4017   22.5616  -31.9033 H   0  0  0  0  0  0  0  0  0  0  0  0
   -9.8159   20.8138  -31.9033 H   0  0  0  0  0  0  0  0  0  0  0  0
   -8.3337   20.0393  -33.6240 H   0  0  0  0  0  0  0  0  0  0  0  0
   -5.9787   19.5576  -34.3677 H   0  0  0  0  0  0  0  0  0  0  0  0
   -3.2395   20.1169  -33.7529 H   0  0  0  0  0  0  0  0  0  0  0  0
   -1.8310   22.9430  -30.0700 H   0  0  0  0  0  0  0  0  0  0  0  0
   -0.1870   22.6630  -30.7300 H   0  0  0  0  0  0  0  0  0  0  0  0
   -2.3278   25.9307  -27.9074 H   0  0  0  0  0  0  0  0  0  0  0  0
   -3.0565   24.2862  -27.7614 H   0  0  0  0  0  0  0  0  0  0  0  0
   -0.3776   24.8965  -27.3516 H   0  0  0  0  0  0  0  0  0  0  0  0
   -1.0303   23.2657  -27.7269 H   0  0  0  0  0  0  0  0  0  0  0  0
   -0.8660   24.6670  -29.9820 H   0  0  0  0  0  0  0  0  0  0  0  0
   -6.8030   22.4283  -30.3132 H   0  0  0  0  0  0  0  0  0  0  0  0
  1  2  1  0
  2  3  2  0
  3  4  1  0
  4  5  2  0
  5  6  1  0
  6  7  2  0
  7  8  1  0
  8  9  1  0
  8 10  2  0
  7 11  1  0
 11 12  1  0
 12 13  2  0
 12 14  1  0
 14 15  2  0
 14 16  1  0
 16 17  1  0
 17 18  1  0
 18 19  1  0
 11 20  1  0
 20 21  2  0
 21  2  1  0
 20  5  1  0
  1 22  1  0
  1 23  1  0
  1 24  1  0
  3 25  1  0
  4 26  1  0
  6 27  1  0
  9 28  1  0
  9 29  1  0
 17 30  1  0
 17 31  1  0
 18 32  1  0
 18 33  1  0
 19 34  1  0
 21 35  1  0
M  CHG  1  16  -1
M  END
>  <UniqueID>  (17) 
17

>  <SMILES>  (17) 
Cc1ccc2cc(C(N)=O)n(C(=O)C(=O)[N-]CCO)c2c1

>  <Energy>  (17) 
69.40611461208931

>  <Genealogy>  (17) 
Cc1ccc2cc(C(N)=O)n(C(=O)C(=O)[N-]CCO)c2c1 (protonated)
Cc1ccc2cc(C(N)=O)n(C(=O)C(=O)[N-]CCO)c2c1 (3D coordinates assigned)
Cc1ccc2cc(C(N)=O)n(C(=O)C(=O)[N-]CCO)c2c1 (optimized conformer: 69.40611461208931 kcal/mol)

>  <smiles>  (17) 
Cc1ccc2cc(C(N)=O)n(C(=O)C(=O)NCCO)c2c1

>  <score_type>  (17) 
oracle

>  <origin>  (17) 
adg

>  <m_score__min__energy>  (17) 
-8.0700000000000003

>  <m_primary>  (17) 
energy

$$$$
18:0
     RDKit          3D

 50 53  0  0  0  0  0  0  0  0999 V2000
   -3.2790   22.5930  -28.4290 C   0  0  0  0  0  0  0  0  0  0  0  0
   -3.1310   23.3860  -29.4910 C   0  0  0  0  0  0  0  0  0  0  0  0
   -2.1650   24.9030  -29.3130 S   0  0  0  0  0  0  0  0  0  0  0  0
   -3.7580   23.0750  -30.7950 C   0  0  0  0  0  0  0  0  0  0  0  0
   -3.0240   22.8040  -31.7830 O   0  0  0  0  0  0  0  0  0  0  0  0
   -5.1860   23.0560  -30.9560 N   0  0  0  0  0  0  0  0  0  0  0  0
   -6.0560   24.0780  -30.7200 C   0  0  0  0  0  0  0  0  0  0  0  0
   -5.7010   25.3750  -30.1000 C   0  0  0  0  0  0  0  0  0  0  0  0
   -6.4300   25.8810  -28.9780 N   0  0  0  0  0  0  0  0  0  0  0  0
   -4.7330   26.0440  -30.5500 O   0  0  0  0  0  0  0  0  0  0  0  0
   -7.3510   23.7070  -31.0880 C   0  0  0  0  0  0  0  0  0  0  0  0
   -7.2380   22.4250  -31.5750 C   0  0  0  0  0  0  0  0  0  0  0  0
   -8.2080   21.5810  -32.1090 C   0  0  0  0  0  0  0  0  0  0  0  0
   -7.8010   20.3150  -32.5660 C   0  0  0  0  0  0  0  0  0  0  0  0
   -6.4400   19.9300  -32.4970 C   0  0  0  0  0  0  0  0  0  0  0  0
   -6.0350   18.6290  -32.9440 N   0  0  0  0  0  0  0  0  0  0  0  0
   -6.0900   17.5510  -31.9350 C   0  0  0  0  0  0  0  0  0  0  0  0
   -5.2650   16.2930  -32.2640 C   0  0  1  0  0  0  0  0  0  0  0  0
   -6.0360   15.3450  -33.1980 C   0  0  0  0  0  0  0  0  0  0  0  0
   -6.2980   15.9910  -34.5630 C   0  0  0  0  0  0  0  0  0  0  0  0
   -5.2780   17.1030  -34.8760 C   0  0  1  0  0  0  0  0  0  0  0  0
   -5.7790   18.4860  -34.3930 C   0  0  0  0  0  0  0  0  0  0  0  0
   -3.9440   16.7350  -34.3410 N   0  0  0  0  0  0  0  0  0  0  0  0
   -2.8430   17.5430  -34.8860 C   0  0  0  0  0  0  0  0  0  0  0  0
   -3.8940   16.6610  -32.8650 C   0  0  0  0  0  0  0  0  0  0  0  0
   -5.4810   20.8160  -31.9600 C   0  0  0  0  0  0  0  0  0  0  0  0
   -5.9200   22.0580  -31.4920 C   0  0  0  0  0  0  0  0  0  0  0  0
   -3.8626   21.6644  -28.5131 H   0  0  0  0  0  0  0  0  0  0  0  0
   -2.8174   22.8675  -27.4690 H   0  0  0  0  0  0  0  0  0  0  0  0
   -7.2780   25.3960  -28.6090 H   0  0  0  0  0  0  0  0  0  0  0  0
   -6.1410   26.7770  -28.5290 H   0  0  0  0  0  0  0  0  0  0  0  0
   -8.2666   24.3111  -31.0060 H   0  0  0  0  0  0  0  0  0  0  0  0
   -9.2604   21.8949  -32.1715 H   0  0  0  0  0  0  0  0  0  0  0  0
   -8.5451   19.6187  -32.9801 H   0  0  0  0  0  0  0  0  0  0  0  0
   -5.7208   17.9590  -30.9825 H   0  0  0  0  0  0  0  0  0  0  0  0
   -7.1395   17.2234  -31.8996 H   0  0  0  0  0  0  0  0  0  0  0  0
   -5.0866   15.7622  -31.3172 H   0  0  0  0  0  0  0  0  0  0  0  0
   -5.4454   14.4285  -33.3438 H   0  0  0  0  0  0  0  0  0  0  0  0
   -7.0061   15.1160  -32.7328 H   0  0  0  0  0  0  0  0  0  0  0  0
   -6.2310   15.2171  -35.3418 H   0  0  0  0  0  0  0  0  0  0  0  0
   -7.3003   16.4435  -34.5400 H   0  0  0  0  0  0  0  0  0  0  0  0
   -5.1705   17.1981  -35.9666 H   0  0  0  0  0  0  0  0  0  0  0  0
   -5.0206   19.2319  -34.6730 H   0  0  0  0  0  0  0  0  0  0  0  0
   -6.7580   18.6240  -34.8752 H   0  0  0  0  0  0  0  0  0  0  0  0
   -2.2586   17.9719  -34.0587 H   0  0  0  0  0  0  0  0  0  0  0  0
   -2.1920   16.9067  -35.5035 H   0  0  0  0  0  0  0  0  0  0  0  0
   -3.2548   18.3549  -35.5035 H   0  0  0  0  0  0  0  0  0  0  0  0
   -3.1596   15.8965  -32.5714 H   0  0  0  0  0  0  0  0  0  0  0  0
   -3.6075   17.6517  -32.4823 H   0  0  0  0  0  0  0  0  0  0  0  0
   -4.4181   20.5369  -31.9112 H   0  0  0  0  0  0  0  0  0  0  0  0
  1  2  2  0
  2  3  1  0
  2  4  1  0
  4  5  2  0
  4  6  1  0
  6  7  1  0
  7  8  1  0
  8  9  1  0
  8 10  2  0
  7 11  2  0
 11 12  1  0
 12 13  2  0
 13 14  1  0
 14 15  2  0
 15 16  1  0
 16 17  1  0
 17 18  1  0
 18 19  1  0
 19 20  1  0
 20 21  1  0
 21 22  1  0
 21 23  1  0
 23 24  1  0
 23 25  1  0
 15 26  1  0
 26 27  2  0
 27  6  1  0
 27 12  1  0
 22 16  1  0
 25 18  1  0
  1 28  1  0
  1 29  1  0
  9 30  1  0
  9 31  1  0
 11 32  1  0
 13 33  1  0
 14 34  1  0
 17 35  1  0
 17 36  1  0
 18 37  1  1
 19 38  1  0
 19 39  1  0
 20 40  1  0
 20 41  1  0
 21 42  1  6
 22 43  1  0
 22 44  1  0
 24 45  1  0
 24 46  1  0
 24 47  1  0
 25 48  1  0
 25 49  1  0
 26 50  1  0
M  CHG  1   3  -1
M  END
>  <UniqueID>  (18) 
18

>  <SMILES>  (18) 
C=C([S-])C(=O)n1c(C(N)=O)cc2ccc(N3C[C@H]4CC[C@@H](C3)N(C)C4)cc21

>  <Energy>  (18) 
113.29014372999522

>  <Genealogy>  (18) 
C=C([S-])C(=O)n1c(C(N)=O)cc2ccc(N3CC4CCC(C3)N(C)C4)cc21 (protonated)
C=C([S-])C(=O)n1c(C(N)=O)cc2ccc(N3C[C@H]4CC[C@@H](C3)N(C)C4)cc21 (chirality)
C=C([S-])C(=O)n1c(C(N)=O)cc2ccc(N3C[C@H]4CC[C@@H](C3)N(C)C4)cc21 (3D coordinates assigned)
C=C([S-])C(=O)n1c(C(N)=O)cc2ccc(N3C[C@H]4CC[C@@H](C3)N(C)C4)cc21 (nonaromatic ring conformer: 113.29014372999522 kcal/mol)

>  <smiles>  (18) 
C=C(S)C(=O)n1c(C(N)=O)cc2ccc(N3CC4CCC(C3)N(C)C4)cc21

>  <score_type>  (18) 
oracle

>  <origin>  (18) 
adg

>  <m_score__min__energy>  (18) 
-9.8800000000000008

>  <m_primary>  (18) 
energy

$$$$
19:0
     RDKit          3D

 27 28  0  0  0  0  0  0  0  0999 V2000
   -3.8970   25.6670  -30.8430 N   0  0  0  0  0  0  0  0  0  0  0  0
   -5.2210   25.2850  -30.4800 C   0  0  0  0  0  0  0  0  0  0  0  0
   -5.8850   26.0240  -29.7050 O   0  0  0  0  0  0  0  0  0  0  0  0
   -5.8070   24.0190  -30.9690 C   0  0  0  0  0  0  0  0  0  0  0  0
   -7.1760   23.8150  -31.1380 C   0  0  0  0  0  0  0  0  0  0  0  0
   -7.3030   22.5020  -31.5350 C   0  0  0  0  0  0  0  0  0  0  0  0
   -8.4380   21.7680  -31.8640 C   0  0  0  0  0  0  0  0  0  0  0  0
   -8.2660   20.4340  -32.2700 C   0  0  0  0  0  0  0  0  0  0  0  0
   -6.9710   19.8540  -32.3290 C   0  0  0  0  0  0  0  0  0  0  0  0
   -6.7920   18.4420  -32.8260 C   0  0  0  0  0  0  0  0  0  0  0  0
   -5.7830   17.8310  -32.1040 F   0  0  0  0  0  0  0  0  0  0  0  0
   -6.4550   18.4330  -34.1680 F   0  0  0  0  0  0  0  0  0  0  0  0
   -7.9610   17.7180  -32.6680 F   0  0  0  0  0  0  0  0  0  0  0  0
   -5.8410   20.6410  -32.0080 C   0  0  0  0  0  0  0  0  0  0  0  0
   -6.0460   21.9620  -31.5970 C   0  0  0  0  0  0  0  0  0  0  0  0
   -5.1180   22.8810  -31.2590 N   0  0  0  0  0  0  0  0  0  0  0  0
   -3.6980   22.6880  -31.2850 C   0  0  0  0  0  0  0  0  0  0  0  0
   -2.9930   23.1110  -30.3300 O   0  0  0  0  0  0  0  0  0  0  0  0
   -3.0600   21.8920  -32.3790 C   0  0  0  0  0  0  0  0  0  0  0  0
   -1.3730   21.5290  -31.9430 S   0  0  0  0  0  0  0  0  0  0  0  0
   -3.0690   25.2850  -30.3330 H   0  0  0  0  0  0  0  0  0  0  0  0
   -7.9830   24.5469  -30.9865 H   0  0  0  0  0  0  0  0  0  0  0  0
   -9.4400   22.2185  -31.8080 H   0  0  0  0  0  0  0  0  0  0  0  0
   -9.1445   19.8319  -32.5453 H   0  0  0  0  0  0  0  0  0  0  0  0
   -4.8255   20.2244  -32.0798 H   0  0  0  0  0  0  0  0  0  0  0  0
   -3.6131   20.9515  -32.5184 H   0  0  0  0  0  0  0  0  0  0  0  0
   -3.0803   22.4716  -33.3137 H   0  0  0  0  0  0  0  0  0  0  0  0
  1  2  1  0
  2  3  2  0
  2  4  1  0
  4  5  2  0
  5  6  1  0
  6  7  2  0
  7  8  1  0
  8  9  2  0
  9 10  1  0
 10 11  1  0
 10 12  1  0
 10 13  1  0
  9 14  1  0
 14 15  2  0
 15 16  1  0
 16 17  1  0
 17 18  2  0
 17 19  1  0
 19 20  1  0
 16  4  1  0
 15  6  1  0
  1 21  1  0
  5 22  1  0
  7 23  1  0
  8 24  1  0
 14 25  1  0
 19 26  1  0
 19 27  1  0
M  CHG  2   1  -1  20  -1
M  END
>  <UniqueID>  (19) 
19

>  <SMILES>  (19) 
[NH-]C(=O)c1cc2ccc(C(F)(F)F)cc2n1C(=O)C[S-]

>  <Energy>  (19) 
66.63749303458862

>  <Genealogy>  (19) 
[NH-]C(=O)c1cc2ccc(C(F)(F)F)cc2n1C(=O)C[S-] (protonated)
[NH-]C(=O)c1cc2ccc(C(F)(F)F)cc2n1C(=O)C[S-] (3D coordinates assigned)
[NH-]C(=O)c1cc2ccc(C(F)(F)F)cc2n1C(=O)C[S-] (optimized conformer: 66.63749303458862 kcal/mol)

>  <smiles>  (19) 
NC(=O)c1cc2ccc(C(F)(F)F)cc2n1C(=O)CS

>  <score_type>  (19) 
oracle

>  <origin>  (19) 
adg

>  <m_score__min__energy>  (19) 
-9.6999999999999993

>  <m_primary>  (19) 
energy

$$$$
20:0
     RDKit          3D

 40 41  0  0  0  0  0  0  0  0999 V2000
   -2.5950   19.3070  -33.6640 C   0  0  0  0  0  0  0  0  0  0  0  0
   -1.7130   20.4870  -33.6760 N   0  0  0  0  0  0  0  0  0  0  0  0
   -0.8430   20.4380  -34.8620 C   0  0  0  0  0  0  0  0  0  0  0  0
   -0.8930   20.5510  -32.4450 C   0  0  0  0  0  0  0  0  0  0  0  0
   -1.4250   21.6150  -31.4730 C   0  0  0  0  0  0  0  0  0  0  0  0
   -2.8580   21.8290  -31.6600 N   0  0  0  0  0  0  0  0  0  0  0  0
   -3.6410   22.6460  -30.7800 C   0  0  0  0  0  0  0  0  0  0  0  0
   -3.1100   23.1870  -29.7720 O   0  0  0  0  0  0  0  0  0  0  0  0
   -5.0380   22.8490  -31.0400 N   0  0  0  0  0  0  0  0  0  0  0  0
   -5.7590   23.9920  -30.8690 C   0  0  0  0  0  0  0  0  0  0  0  0
   -5.2140   25.3050  -30.4640 C   0  0  0  0  0  0  0  0  0  0  0  0
   -3.8860   25.6680  -30.8370 N   0  0  0  0  0  0  0  0  0  0  0  0
   -5.9000   26.1030  -29.7730 O   0  0  0  0  0  0  0  0  0  0  0  0
   -7.0980   23.7750  -31.1890 C   0  0  0  0  0  0  0  0  0  0  0  0
   -7.1720   22.4530  -31.5690 C   0  0  0  0  0  0  0  0  0  0  0  0
   -8.2690   21.6940  -31.9630 C   0  0  0  0  0  0  0  0  0  0  0  0
   -8.0590   20.3370  -32.2620 C   0  0  0  0  0  0  0  0  0  0  0  0
   -6.7630   19.7660  -32.1710 C   0  0  0  0  0  0  0  0  0  0  0  0
   -6.5630   18.2950  -32.4330 C   0  0  0  0  0  0  0  0  0  0  0  0
   -7.7730   17.6240  -32.3990 F   0  0  0  0  0  0  0  0  0  0  0  0
   -5.9910   18.0930  -33.6780 F   0  0  0  0  0  0  0  0  0  0  0  0
   -5.7290   17.7700  -31.4640 F   0  0  0  0  0  0  0  0  0  0  0  0
   -5.6780   20.5650  -31.7410 C   0  0  0  0  0  0  0  0  0  0  0  0
   -5.9150   21.9170  -31.4690 C   0  0  0  0  0  0  0  0  0  0  0  0
   -2.8095   19.0201  -32.6240 H   0  0  0  0  0  0  0  0  0  0  0  0
   -3.5364   19.5476  -34.1795 H   0  0  0  0  0  0  0  0  0  0  0  0
   -2.0977   18.4722  -34.1795 H   0  0  0  0  0  0  0  0  0  0  0  0
    0.2082   20.3788  -34.5434 H   0  0  0  0  0  0  0  0  0  0  0  0
   -1.0940   19.5526  -35.4645 H   0  0  0  0  0  0  0  0  0  0  0  0
   -0.9930   21.3460  -35.4645 H   0  0  0  0  0  0  0  0  0  0  0  0
   -0.9150   19.5696  -31.9487 H   0  0  0  0  0  0  0  0  0  0  0  0
    0.1350   20.8223  -32.7271 H   0  0  0  0  0  0  0  0  0  0  0  0
   -1.2433   21.2814  -30.4407 H   0  0  0  0  0  0  0  0  0  0  0  0
   -0.9016   22.5620  -31.6712 H   0  0  0  0  0  0  0  0  0  0  0  0
   -3.3260   21.3710  -32.4740 H   0  0  0  0  0  0  0  0  0  0  0  0
   -3.0620   25.2880  -30.3220 H   0  0  0  0  0  0  0  0  0  0  0  0
   -7.9206   24.5041  -31.1471 H   0  0  0  0  0  0  0  0  0  0  0  0
   -9.2706   22.1424  -32.0383 H   0  0  0  0  0  0  0  0  0  0  0  0
   -8.9089   19.7103  -32.5701 H   0  0  0  0  0  0  0  0  0  0  0  0
   -4.6727   20.1342  -31.6233 H   0  0  0  0  0  0  0  0  0  0  0  0
  1  2  1  0
  2  3  1  0
  2  4  1  0
  4  5  1  0
  5  6  1  0
  6  7  1  0
  7  8  2  0
  7  9  1  0
  9 10  1  0
 10 11  1  0
 11 12  1  0
 11 13  2  0
 10 14  2  0
 14 15  1  0
 15 16  2  0
 16 17  1  0
 17 18  2  0
 18 19  1  0
 19 20  1  0
 19 21  1  0
 19 22  1  0
 18 23  1  0
 23 24  2  0
 24  9  1  0
 24 15  1  0
  1 25  1  0
  1 26  1  0
  1 27  1  0
  3 28  1  0
  3 29  1  0
  3 30  1  0
  4 31  1  0
  4 32  1  0
  5 33  1  0
  5 34  1  0
  6 35  1  0
 12 36  1  0
 14 37  1  0
 16 38  1  0
 17 39  1  0
 23 40  1  0
M  CHG  1  12  -1
M  END
>  <UniqueID>  (20) 
20

>  <SMILES>  (20) 
CN(C)CCNC(=O)n1c(C([NH-])=O)cc2ccc(C(F)(F)F)cc21

>  <Energy>  (20) 
75.56918703991634

>  <Genealogy>  (20) 
CN(C)CCNC(=O)n1c(C([NH-])=O)cc2ccc(C(F)(F)F)cc21 (protonated)
CN(C)CCNC(=O)n1c(C([NH-])=O)cc2ccc(C(F)(F)F)cc21 (3D coordinates assigned)
CN(C)CCNC(=O)n1c(C([NH-])=O)cc2ccc(C(F)(F)F)cc21 (optimized conformer: 75.56918703991634 kcal/mol)

>  <smiles>  (20) 
CN(C)CCNC(=O)n1c(C(N)=O)cc2ccc(C(F)(F)F)cc21

>  <score_type>  (20) 
oracle

>  <origin>  (20) 
adg

>  <m_score__min__energy>  (20) 
-9.6799999999999997

>  <m_primary>  (20) 
energy

$$$$
21:0
     RDKit          3D

 40 41  0  0  0  0  0  0  0  0999 V2000
   -4.2530   24.9150  -26.2930 C   0  0  0  0  0  0  0  0  0  0  0  0
   -2.9730   24.8270  -27.0050 N   0  0  0  0  0  0  0  0  0  0  0  0
   -1.8470   25.6700  -26.5870 C   0  0  0  0  0  0  0  0  0  0  0  0
   -2.8140   23.9760  -28.1620 C   0  0  0  0  0  0  0  0  0  0  0  0
   -1.8150   24.1350  -28.9160 O   0  0  0  0  0  0  0  0  0  0  0  0
   -3.7900   22.8780  -28.5070 C   0  0  0  0  0  0  0  0  0  0  0  0
   -3.3050   22.0280  -29.6940 C   0  0  0  0  0  0  0  0  0  0  0  0
   -3.9040   22.4390  -31.0120 C   0  0  0  0  0  0  0  0  0  0  0  0
   -3.2150   22.3720  -32.0670 O   0  0  0  0  0  0  0  0  0  0  0  0
   -5.3010   22.7530  -31.1040 N   0  0  0  0  0  0  0  0  0  0  0  0
   -5.9040   23.9400  -30.8160 C   0  0  0  0  0  0  0  0  0  0  0  0
   -5.2120   25.1860  -30.4260 C   0  0  0  0  0  0  0  0  0  0  0  0
   -3.8680   25.4140  -30.8460 N   0  0  0  0  0  0  0  0  0  0  0  0
   -5.7880   26.0460  -29.7080 O   0  0  0  0  0  0  0  0  0  0  0  0
   -7.2850   23.8380  -30.9800 C   0  0  0  0  0  0  0  0  0  0  0  0
   -7.5090   22.5400  -31.3790 C   0  0  0  0  0  0  0  0  0  0  0  0
   -8.7030   21.8800  -31.6550 C   0  0  0  0  0  0  0  0  0  0  0  0
   -8.6380   20.5210  -32.0100 C   0  0  0  0  0  0  0  0  0  0  0  0
   -7.3890   19.8520  -32.0920 C   0  0  0  0  0  0  0  0  0  0  0  0
   -7.3310   18.3790  -32.4100 C   0  0  0  0  0  0  0  0  0  0  0  0
   -6.4900   17.7520  -31.5100 F   0  0  0  0  0  0  0  0  0  0  0  0
   -8.5900   17.8090  -32.3230 F   0  0  0  0  0  0  0  0  0  0  0  0
   -6.8530   18.1770  -33.6920 F   0  0  0  0  0  0  0  0  0  0  0  0
   -6.2030   20.5540  -31.7780 C   0  0  0  0  0  0  0  0  0  0  0  0
   -6.2960   21.9070  -31.4450 C   0  0  0  0  0  0  0  0  0  0  0  0
   -4.0708   24.9025  -25.2083 H   0  0  0  0  0  0  0  0  0  0  0  0
   -4.7623   25.8503  -26.5685 H   0  0  0  0  0  0  0  0  0  0  0  0
   -4.8855   24.0582  -26.5685 H   0  0  0  0  0  0  0  0  0  0  0  0
   -1.8021   25.7036  -25.4884 H   0  0  0  0  0  0  0  0  0  0  0  0
   -0.9091   25.2502  -26.9796 H   0  0  0  0  0  0  0  0  0  0  0  0
   -1.9857   26.6881  -26.9796 H   0  0  0  0  0  0  0  0  0  0  0  0
   -3.9148   22.2254  -27.6304 H   0  0  0  0  0  0  0  0  0  0  0  0
   -4.7429   23.3476  -28.7922 H   0  0  0  0  0  0  0  0  0  0  0  0
   -2.2112   22.1209  -29.7647 H   0  0  0  0  0  0  0  0  0  0  0  0
   -3.6246   20.9930  -29.5024 H   0  0  0  0  0  0  0  0  0  0  0  0
   -3.0720   25.2970  -30.1810 H   0  0  0  0  0  0  0  0  0  0  0  0
   -8.0355   24.6269  -30.8238 H   0  0  0  0  0  0  0  0  0  0  0  0
   -9.6677   22.4054  -31.5972 H   0  0  0  0  0  0  0  0  0  0  0  0
   -9.5653   19.9704  -32.2265 H   0  0  0  0  0  0  0  0  0  0  0  0
   -5.2278   20.0455  -31.7956 H   0  0  0  0  0  0  0  0  0  0  0  0
  1  2  1  0
  2  3  1  0
  2  4  1  0
  4  5  2  0
  4  6  1  0
  6  7  1  0
  7  8  1  0
  8  9  2  0
  8 10  1  0
 10 11  1  0
 11 12  1  0
 12 13  1  0
 12 14  2  0
 11 15  2  0
 15 16  1  0
 16 17  2  0
 17 18  1  0
 18 19  2  0
 19 20  1  0
 20 21  1  0
 20 22  1  0
 20 23  1  0
 19 24  1  0
 24 25  2  0
 25 10  1  0
 25 16  1  0
  1 26  1  0
  1 27  1  0
  1 28  1  0
  3 29  1  0
  3 30  1  0
  3 31  1  0
  6 32  1  0
  6 33  1  0
  7 34  1  0
  7 35  1  0
 13 36  1  0
 15 37  1  0
 17 38  1  0
 18 39  1  0
 24 40  1  0
M  CHG  1  13  -1
M  END
>  <UniqueID>  (21) 
21

>  <SMILES>  (21) 
CN(C)C(=O)CCC(=O)n1c(C([NH-])=O)cc2ccc(C(F)(F)F)cc21

>  <Energy>  (21) 
75.44713036154872

>  <Genealogy>  (21) 
CN(C)C(=O)CCC(=O)n1c(C([NH-])=O)cc2ccc(C(F)(F)F)cc21 (protonated)
CN(C)C(=O)CCC(=O)n1c(C([NH-])=O)cc2ccc(C(F)(F)F)cc21 (3D coordinates assigned)
CN(C)C(=O)CCC(=O)n1c(C([NH-])=O)cc2ccc(C(F)(F)F)cc21 (optimized conformer: 75.44713036154872 kcal/mol)

>  <smiles>  (21) 
CN(C)C(=O)CCC(=O)n1c(C(N)=O)cc2ccc(C(F)(F)F)cc21

>  <score_type>  (21) 
oracle

>  <origin>  (21) 
adg

>  <m_score__min__energy>  (21) 
-10.119999999999999

>  <m_primary>  (21) 
energy

$$$$
22:0
     RDKit          3D

 39 40  0  0  0  0  0  0  0  0999 V2000
   -3.6090   25.2820  -30.4620 N   0  0  0  0  0  0  0  0  0  0  0  0
   -4.4360   24.1310  -30.6120 C   0  0  0  0  0  0  0  0  0  0  0  0
   -4.3010   23.3870  -31.6200 O   0  0  0  0  0  0  0  0  0  0  0  0
   -5.4460   23.7890  -29.5580 C   0  0  0  0  0  0  0  0  0  0  0  0
   -6.8740   24.1230  -30.0080 C   0  0  0  0  0  0  0  0  0  0  0  0
   -7.0850   23.8690  -31.5060 C   0  0  0  0  0  0  0  0  0  0  0  0
   -7.4020   22.4200  -31.7570 C   0  0  0  0  0  0  0  0  0  0  0  0
   -8.6620   21.8920  -31.3800 C   0  0  0  0  0  0  0  0  0  0  0  0
   -8.9620   20.5350  -31.5880 C   0  0  0  0  0  0  0  0  0  0  0  0
   -7.9800   19.7310  -32.1610 C   0  0  0  0  0  0  0  0  0  0  0  0
   -8.0040   18.3920  -32.4850 C   0  0  0  0  0  0  0  0  0  0  0  0
   -6.7480   18.1200  -33.0270 C   0  0  0  0  0  0  0  0  0  0  0  0
   -6.2910   16.7760  -33.4520 C   0  0  0  0  0  0  0  0  0  0  0  0
   -4.9000   16.4660  -33.5370 N   0  0  0  0  0  0  0  0  0  0  0  0
   -7.1350   15.8920  -33.7580 O   0  0  0  0  0  0  0  0  0  0  0  0
   -5.9840   19.2480  -33.0370 N   0  0  0  0  0  0  0  0  0  0  0  0
   -4.6550   19.4080  -33.5510 C   0  0  0  0  0  0  0  0  0  0  0  0
   -4.3170   18.8110  -34.6090 O   0  0  0  0  0  0  0  0  0  0  0  0
   -3.6340   20.1990  -32.7910 C   0  0  0  0  0  0  0  0  0  0  0  0
   -2.3420   19.4490  -32.7450 C   0  0  0  0  0  0  0  0  0  0  0  0
   -2.3420   18.1910  -32.7260 O   0  0  0  0  0  0  0  0  0  0  0  0
   -1.1360   20.1390  -32.7700 O   0  0  0  0  0  0  0  0  0  0  0  0
   -6.7490   20.2230  -32.5050 C   0  0  0  0  0  0  0  0  0  0  0  0
   -6.4250   21.5700  -32.3210 C   0  0  0  0  0  0  0  0  0  0  0  0
   -3.5400   25.9940  -31.2220 H   0  0  0  0  0  0  0  0  0  0  0  0
   -5.3836   22.7124  -29.3410 H   0  0  0  0  0  0  0  0  0  0  0  0
   -5.2212   24.3864  -28.6622 H   0  0  0  0  0  0  0  0  0  0  0  0
   -7.5793   23.4984  -29.4402 H   0  0  0  0  0  0  0  0  0  0  0  0
   -7.0452   25.1932  -29.8200 H   0  0  0  0  0  0  0  0  0  0  0  0
   -7.9201   24.4892  -31.8639 H   0  0  0  0  0  0  0  0  0  0  0  0
   -6.1611   24.1286  -32.0437 H   0  0  0  0  0  0  0  0  0  0  0  0
   -9.4128   22.5512  -30.9198 H   0  0  0  0  0  0  0  0  0  0  0  0
   -9.9416   20.1210  -31.3071 H   0  0  0  0  0  0  0  0  0  0  0  0
   -8.8369   17.6871  -32.3458 H   0  0  0  0  0  0  0  0  0  0  0  0
   -4.5930   15.5230  -33.8650 H   0  0  0  0  0  0  0  0  0  0  0  0
   -4.1700   17.1480  -33.2330 H   0  0  0  0  0  0  0  0  0  0  0  0
   -3.4767   21.1666  -33.2899 H   0  0  0  0  0  0  0  0  0  0  0  0
   -3.9939   20.3645  -31.7648 H   0  0  0  0  0  0  0  0  0  0  0  0
   -5.4362   21.9576  -32.6075 H   0  0  0  0  0  0  0  0  0  0  0  0
  1  2  1  0
  2  3  2  0
  2  4  1  0
  4  5  1  0
  5  6  1  0
  6  7  1  0
  7  8  2  0
  8  9  1  0
  9 10  2  0
 10 11  1  0
 11 12  2  0
 12 13  1  0
 13 14  1  0
 13 15  2  0
 12 16  1  0
 16 17  1  0
 17 18  2  0
 17 19  1  0
 19 20  1  0
 20 21  2  0
 20 22  1  0
 16 23  1  0
 23 24  2  0
 24  7  1  0
 23 10  1  0
  1 25  1  0
  4 26  1  0
  4 27  1  0
  5 28  1  0
  5 29  1  0
  6 30  1  0
  6 31  1  0
  8 32  1  0
  9 33  1  0
 11 34  1  0
 14 35  1  0
 14 36  1  0
 19 37  1  0
 19 38  1  0
 24 39  1  0
M  CHG  2   1  -1  22  -1
M  END
>  <UniqueID>  (22) 
22

>  <SMILES>  (22) 
[NH-]C(=O)CCCc1ccc2cc(C(N)=O)n(C(=O)CC(=O)[O-])c2c1

>  <Energy>  (22) 
70.3537534319903

>  <Genealogy>  (22) 
[NH-]C(=O)CCCc1ccc2cc(C(N)=O)n(C(=O)CC(=O)[O-])c2c1 (protonated)
[NH-]C(=O)CCCc1ccc2cc(C(N)=O)n(C(=O)CC(=O)[O-])c2c1 (3D coordinates assigned)
[NH-]C(=O)CCCc1ccc2cc(C(N)=O)n(C(=O)CC(=O)[O-])c2c1 (optimized conformer: 70.3537534319903 kcal/mol)

>  <smiles>  (22) 
NC(=O)CCCc1ccc2cc(C(N)=O)n(C(=O)CC(=O)O)c2c1

>  <score_type>  (22) 
oracle

>  <origin>  (22) 
adg

>  <m_score__min__energy>  (22) 
-11.119999999999999

>  <m_primary>  (22) 
energy

$$$$
23:0
     RDKit          3D

 53 55  0  0  0  0  0  0  0  0999 V2000
   -3.8600   22.9210  -27.8570 C   0  0  0  0  0  0  0  0  0  0  0  0
   -3.4900   22.0660  -28.8130 C   0  0  0  0  0  0  0  0  0  0  0  0
   -2.3080   22.3540  -29.6960 C   0  0  0  0  0  0  0  0  0  0  0  0
   -2.6950   23.1670  -30.8010 O   0  0  0  0  0  0  0  0  0  0  0  0
   -3.5210   22.7120  -31.8360 C   0  0  0  0  0  0  0  0  0  0  0  0
   -3.0200   22.2210  -32.8840 O   0  0  0  0  0  0  0  0  0  0  0  0
   -4.9470   22.7810  -31.6910 N   0  0  0  0  0  0  0  0  0  0  0  0
   -5.6680   23.6830  -30.9660 C   0  0  0  0  0  0  0  0  0  0  0  0
   -5.1360   24.9010  -30.3210 C   0  0  0  0  0  0  0  0  0  0  0  0
   -3.9750   25.5520  -30.8290 N   0  0  0  0  0  0  0  0  0  0  0  0
   -5.7420   25.4010  -29.3350 O   0  0  0  0  0  0  0  0  0  0  0  0
   -7.0200   23.3460  -30.9730 C   0  0  0  0  0  0  0  0  0  0  0  0
   -7.1090   22.2040  -31.7360 C   0  0  0  0  0  0  0  0  0  0  0  0
   -8.2150   21.4230  -32.0560 C   0  0  0  0  0  0  0  0  0  0  0  0
   -8.0060   20.2690  -32.8280 C   0  0  0  0  0  0  0  0  0  0  0  0
   -6.7030   19.9110  -33.2610 C   0  0  0  0  0  0  0  0  0  0  0  0
   -6.4990   18.7040  -34.0260 N   0  0  0  0  0  0  0  0  0  0  0  0
   -6.6620   17.4960  -33.1880 C   0  0  2  0  0  0  0  0  0  0  0  0
   -6.2750   17.7550  -31.7230 C   0  0  0  0  0  0  0  0  0  0  0  0
   -5.8230   16.3680  -33.7280 C   0  0  0  0  0  0  0  0  0  0  0  0
   -5.7430   15.2800  -33.0920 O   0  0  0  0  0  0  0  0  0  0  0  0
   -5.1690   16.5260  -34.9550 O   0  0  0  0  0  0  0  0  0  0  0  0
   -3.7550   16.4310  -35.1030 C   0  0  0  0  0  0  0  0  0  0  0  0
   -3.0720   17.3720  -34.1590 C   0  0  0  0  0  0  0  0  0  0  0  0
   -3.6910   18.2690  -33.4300 O   0  0  0  0  0  0  0  0  0  0  0  0
   -2.7550   18.8870  -32.7460 C   0  0  0  0  0  0  0  0  0  0  0  0
   -2.9850   19.8210  -31.9340 O   0  0  0  0  0  0  0  0  0  0  0  0
   -1.5530   18.4230  -33.0020 O   0  0  0  0  0  0  0  0  0  0  0  0
   -1.7180   17.4680  -33.8850 C   0  0  0  0  0  0  0  0  0  0  0  0
   -0.6120   16.6540  -34.4720 C   0  0  0  0  0  0  0  0  0  0  0  0
   -5.6030   20.7320  -32.9140 C   0  0  0  0  0  0  0  0  0  0  0  0
   -5.8430   21.8840  -32.1570 C   0  0  0  0  0  0  0  0  0  0  0  0
   -4.7278   22.6928  -27.2208 H   0  0  0  0  0  0  0  0  0  0  0  0
   -3.2971   23.8538  -27.7054 H   0  0  0  0  0  0  0  0  0  0  0  0
   -4.0592   21.1358  -28.9570 H   0  0  0  0  0  0  0  0  0  0  0  0
   -1.5394   22.8805  -29.1112 H   0  0  0  0  0  0  0  0  0  0  0  0
   -1.9095   21.4024  -30.0776 H   0  0  0  0  0  0  0  0  0  0  0  0
   -3.0230   25.2980  -30.4860 H   0  0  0  0  0  0  0  0  0  0  0  0
   -7.8423   23.8798  -30.4742 H   0  0  0  0  0  0  0  0  0  0  0  0
   -9.2229   21.7012  -31.7144 H   0  0  0  0  0  0  0  0  0  0  0  0
   -8.8626   19.6349  -33.1004 H   0  0  0  0  0  0  0  0  0  0  0  0
   -5.5490   18.7120  -34.4680 H   0  0  0  0  0  0  0  0  0  0  0  0
   -7.2010   18.6870  -34.8040 H   0  0  0  0  0  0  0  0  0  0  0  0
   -7.7269   17.2224  -33.2204 H   0  0  0  0  0  0  0  0  0  0  0  0
   -7.0041   17.2671  -31.0594 H   0  0  0  0  0  0  0  0  0  0  0  0
   -5.2725   17.3452  -31.5306 H   0  0  0  0  0  0  0  0  0  0  0  0
   -6.2715   18.8380  -31.5306 H   0  0  0  0  0  0  0  0  0  0  0  0
   -3.4351   15.4014  -34.8847 H   0  0  0  0  0  0  0  0  0  0  0  0
   -3.4833   16.6977  -36.1350 H   0  0  0  0  0  0  0  0  0  0  0  0
   -0.0122   16.2125  -33.6625 H   0  0  0  0  0  0  0  0  0  0  0  0
   -1.0370   15.8516  -35.0929 H   0  0  0  0  0  0  0  0  0  0  0  0
    0.0278   17.2983  -35.0929 H   0  0  0  0  0  0  0  0  0  0  0  0
   -4.5831   20.4702  -33.2322 H   0  0  0  0  0  0  0  0  0  0  0  0
  1  2  2  0
  2  3  1  0
  3  4  1  0
  4  5  1  0
  5  6  2  0
  5  7  1  0
  7  8  1  0
  8  9  1  0
  9 10  1  0
  9 11  2  0
  8 12  2  0
 12 13  1  0
 13 14  2  0
 14 15  1  0
 15 16  2  0
 16 17  1  0
 17 18  1  0
 18 19  1  0
 18 20  1  0
 20 21  2  0
 20 22  1  0
 22 23  1  0
 23 24  1  0
 24 25  1  0
 25 26  1  0
 26 27  2  0
 26 28  1  0
 28 29  1  0
 29 30  1  0
 16 31  1  0
 31 32  2  0
 32  7  1  0
 32 13  1  0
 29 24  2  0
  1 33  1  0
  1 34  1  0
  2 35  1  0
  3 36  1  0
  3 37  1  0
 10 38  1  0
 12 39  1  0
 14 40  1  0
 15 41  1  0
 17 42  1  0
 17 43  1  0
 18 44  1  1
 19 45  1  0
 19 46  1  0
 19 47  1  0
 23 48  1  0
 23 49  1  0
 30 50  1  0
 30 51  1  0
 30 52  1  0
 31 53  1  0
M  CHG  2  10  -1  17   1
M  END
>  <UniqueID>  (23) 
23

>  <SMILES>  (23) 
C=CCOC(=O)n1c(C([NH-])=O)cc2ccc([NH2+][C@H](C)C(=O)OCc3oc(=O)oc3C)cc21

>  <Energy>  (23) 
118.71481533114641

>  <Genealogy>  (23) 
C=CCOC(=O)n1c(C([NH-])=O)cc2ccc([NH2+]C(C)C(=O)OCc3oc(=O)oc3C)cc21 (protonated)
C=CCOC(=O)n1c(C([NH-])=O)cc2ccc([NH2+][C@H](C)C(=O)OCc3oc(=O)oc3C)cc21 (chirality)
C=CCOC(=O)n1c(C([NH-])=O)cc2ccc([NH2+][C@H](C)C(=O)OCc3oc(=O)oc3C)cc21 (3D coordinates assigned)
C=CCOC(=O)n1c(C([NH-])=O)cc2ccc([NH2+][C@H](C)C(=O)OCc3oc(=O)oc3C)cc21 (optimized conformer: 118.71481533114641 kcal/mol)

>  <smiles>  (23) 
C=CCOC(=O)n1c(C(N)=O)cc2ccc(NC(C)C(=O)OCc3oc(=O)oc3C)cc21

>  <score_type>  (23) 
oracle

>  <origin>  (23) 
adg

>  <m_score__min__energy>  (23) 
-10.33

>  <m_primary>  (23) 
energy

$$$$
24:0
     RDKit          3D

 35 37  0  0  0  0  0  0  0  0999 V2000
   -5.4390   24.7820  -29.1440 N   0  0  0  0  0  0  0  0  0  0  0  0
   -4.7020   24.6450  -30.3580 C   0  0  0  0  0  0  0  0  0  0  0  0
   -4.0970   25.6430  -30.8290 O   0  0  0  0  0  0  0  0  0  0  0  0
   -4.6740   23.3670  -31.0970 C   0  0  0  0  0  0  0  0  0  0  0  0
   -3.5010   22.6780  -31.3900 C   0  0  0  0  0  0  0  0  0  0  0  0
   -3.8980   21.5780  -32.1150 C   0  0  0  0  0  0  0  0  0  0  0  0
   -3.1410   20.5350  -32.6350 C   0  0  0  0  0  0  0  0  0  0  0  0
   -3.8170   19.4930  -33.2890 C   0  0  0  0  0  0  0  0  0  0  0  0
   -5.2300   19.5140  -33.4180 C   0  0  0  0  0  0  0  0  0  0  0  0
   -5.9480   18.3560  -34.0600 C   0  0  0  0  0  0  0  0  0  0  0  0
   -7.1920   18.2110  -33.4750 F   0  0  0  0  0  0  0  0  0  0  0  0
   -6.1110   18.5720  -35.4170 F   0  0  0  0  0  0  0  0  0  0  0  0
   -5.2310   17.1840  -33.8890 F   0  0  0  0  0  0  0  0  0  0  0  0
   -5.9660   20.5830  -32.8550 C   0  0  0  0  0  0  0  0  0  0  0  0
   -5.2640   21.6200  -32.2290 C   0  0  0  0  0  0  0  0  0  0  0  0
   -5.7570   22.7150  -31.6060 N   0  0  0  0  0  0  0  0  0  0  0  0
   -7.1420   23.0560  -31.4240 C   0  0  0  0  0  0  0  0  0  0  0  0
   -7.4960   23.7620  -30.4410 O   0  0  0  0  0  0  0  0  0  0  0  0
   -8.0950   22.6030  -32.3400 O   0  0  0  0  0  0  0  0  0  0  0  0
   -9.1580   21.7280  -31.9750 C   0  0  0  0  0  0  0  0  0  0  0  0
   -8.8070   20.8910  -30.7620 C   0  0  0  0  0  0  0  0  0  0  0  0
   -8.7830   19.6450  -31.5310 N   0  0  0  0  0  0  0  0  0  0  0  0
   -9.1180   20.4130  -32.7300 C   0  0  0  0  0  0  0  0  0  0  0  0
   -5.3940   25.6740  -28.6010 H   0  0  0  0  0  0  0  0  0  0  0  0
   -6.0830   24.0270  -28.8160 H   0  0  0  0  0  0  0  0  0  0  0  0
   -2.4755   22.9538  -31.1033 H   0  0  0  0  0  0  0  0  0  0  0  0
   -2.0454   20.5262  -32.5371 H   0  0  0  0  0  0  0  0  0  0  0  0
   -3.2451   18.6510  -33.7061 H   0  0  0  0  0  0  0  0  0  0  0  0
   -7.0646   20.5990  -32.9079 H   0  0  0  0  0  0  0  0  0  0  0  0
  -10.0157   22.4156  -32.0149 H   0  0  0  0  0  0  0  0  0  0  0  0
   -7.8339   21.1500  -30.3192 H   0  0  0  0  0  0  0  0  0  0  0  0
   -9.4516   20.9516  -29.8728 H   0  0  0  0  0  0  0  0  0  0  0  0
   -9.6170   19.0710  -31.2630 H   0  0  0  0  0  0  0  0  0  0  0  0
   -8.3373   20.3772  -33.5041 H   0  0  0  0  0  0  0  0  0  0  0  0
   -9.9966   20.1151  -33.3210 H   0  0  0  0  0  0  0  0  0  0  0  0
  1  2  1  0
  2  3  2  0
  2  4  1  0
  4  5  2  0
  5  6  1  0
  6  7  2  0
  7  8  1  0
  8  9  2  0
  9 10  1  0
 10 11  1  0
 10 12  1  0
 10 13  1  0
  9 14  1  0
 14 15  2  0
 15 16  1  0
 16 17  1  0
 17 18  2  0
 17 19  1  0
 19 20  1  0
 20 21  1  0
 21 22  1  0
 22 23  1  0
 16  4  1  0
 23 20  1  0
 15  6  1  0
  1 24  1  0
  1 25  1  0
  5 26  1  0
  7 27  1  0
  8 28  1  0
 14 29  1  0
 20 30  1  0
 21 31  1  0
 21 32  1  0
 22 33  1  0
 23 34  1  0
 23 35  1  0
M  END
>  <UniqueID>  (24) 
24

>  <SMILES>  (24) 
NC(=O)c1cc2ccc(C(F)(F)F)cc2n1C(=O)OC1CNC1

>  <Energy>  (24) 
140.65586612027758

>  <Genealogy>  (24) 
NC(=O)c1cc2ccc(C(F)(F)F)cc2n1C(=O)OC1CNC1 (3D coordinates assigned)
NC(=O)c1cc2ccc(C(F)(F)F)cc2n1C(=O)OC1CNC1 (nonaromatic ring conformer: 140.65586612027758 kcal/mol)

>  <smiles>  (24) 
NC(=O)c1cc2ccc(C(F)(F)F)cc2n1C(=O)OC1CNC1

>  <score_type>  (24) 
oracle

>  <origin>  (24) 
adg

>  <m_score__min__energy>  (24) 
-7.6900000000000004

>  <m_primary>  (24) 
energy

$$$$
25:0
     RDKit          3D

 33 34  0  0  0  0  0  0  0  0999 V2000
   -3.1970   22.0390  -28.0580 C   0  0  0  0  0  0  0  0  0  0  0  0
   -3.3130   23.3020  -28.9060 C   0  0  2  0  0  0  0  0  0  0  0  0
   -2.7400   23.0540  -30.2240 N   0  0  0  0  0  0  0  0  0  0  0  0
   -3.5190   22.6960  -31.3710 C   0  0  0  0  0  0  0  0  0  0  0  0
   -2.9500   22.3100  -32.4270 O   0  0  0  0  0  0  0  0  0  0  0  0
   -4.9510   22.7930  -31.3220 N   0  0  0  0  0  0  0  0  0  0  0  0
   -5.7020   23.8090  -30.8110 C   0  0  0  0  0  0  0  0  0  0  0  0
   -5.1900   25.1100  -30.3300 C   0  0  0  0  0  0  0  0  0  0  0  0
   -3.9800   25.6580  -30.8430 N   0  0  0  0  0  0  0  0  0  0  0  0
   -5.8560   25.7680  -29.4860 O   0  0  0  0  0  0  0  0  0  0  0  0
   -7.0570   23.4930  -30.8740 C   0  0  0  0  0  0  0  0  0  0  0  0
   -7.1150   22.2450  -31.4510 C   0  0  0  0  0  0  0  0  0  0  0  0
   -8.2140   21.4500  -31.7560 C   0  0  0  0  0  0  0  0  0  0  0  0
   -7.9790   20.1910  -32.3320 C   0  0  0  0  0  0  0  0  0  0  0  0
   -6.6540   19.7390  -32.5700 C   0  0  0  0  0  0  0  0  0  0  0  0
   -6.4140   18.4020  -33.2250 C   0  0  0  0  0  0  0  0  0  0  0  0
   -6.0740   18.5640  -34.5570 F   0  0  0  0  0  0  0  0  0  0  0  0
   -5.3830   17.7540  -32.5730 F   0  0  0  0  0  0  0  0  0  0  0  0
   -7.5520   17.6160  -33.1620 F   0  0  0  0  0  0  0  0  0  0  0  0
   -5.5640   20.5870  -32.2670 C   0  0  0  0  0  0  0  0  0  0  0  0
   -5.8310   21.8440  -31.7110 C   0  0  0  0  0  0  0  0  0  0  0  0
   -2.5970   24.4400  -28.2370 C   0  0  0  0  0  0  0  0  0  0  0  0
   -2.5530   24.5080  -26.9800 O   0  0  0  0  0  0  0  0  0  0  0  0
   -1.9510   25.4050  -28.9990 O   0  0  0  0  0  0  0  0  0  0  0  0
   -3.2218   22.3095  -26.9921 H   0  0  0  0  0  0  0  0  0  0  0  0
   -4.0371   21.3663  -28.2853 H   0  0  0  0  0  0  0  0  0  0  0  0
   -2.2484   21.5306  -28.2853 H   0  0  0  0  0  0  0  0  0  0  0  0
   -4.3739   23.5713  -29.0155 H   0  0  0  0  0  0  0  0  0  0  0  0
   -3.0540   25.2350  -30.6050 H   0  0  0  0  0  0  0  0  0  0  0  0
   -7.9018   24.1102  -30.5345 H   0  0  0  0  0  0  0  0  0  0  0  0
   -9.2377   21.7970  -31.5521 H   0  0  0  0  0  0  0  0  0  0  0  0
   -8.8301   19.5483  -32.6016 H   0  0  0  0  0  0  0  0  0  0  0  0
   -4.5302   20.2667  -32.4635 H   0  0  0  0  0  0  0  0  0  0  0  0
  1  2  1  0
  2  3  1  0
  3  4  1  0
  4  5  2  0
  4  6  1  0
  6  7  1  0
  7  8  1  0
  8  9  1  0
  8 10  2  0
  7 11  2  0
 11 12  1  0
 12 13  2  0
 13 14  1  0
 14 15  2  0
 15 16  1  0
 16 17  1  0
 16 18  1  0
 16 19  1  0
 15 20  1  0
 20 21  2  0
  2 22  1  0
 22 23  2  0
 22 24  1  0
 21  6  1  0
 21 12  1  0
  1 25  1  0
  1 26  1  0
  1 27  1  0
  2 28  1  6
  9 29  1  0
 11 30  1  0
 13 31  1  0
 14 32  1  0
 20 33  1  0
M  CHG  3   3  -1   9  -1  24  -1
M  END
>  <UniqueID>  (25) 
25

>  <SMILES>  (25) 
C[C@H]([N-]C(=O)n1c(C([NH-])=O)cc2ccc(C(F)(F)F)cc21)C(=O)[O-]

>  <Energy>  (25) 
68.37881927725532

>  <Genealogy>  (25) 
CC([N-]C(=O)n1c(C([NH-])=O)cc2ccc(C(F)(F)F)cc21)C(=O)[O-] (protonated)
C[C@H]([N-]C(=O)n1c(C([NH-])=O)cc2ccc(C(F)(F)F)cc21)C(=O)[O-] (chirality)
C[C@H]([N-]C(=O)n1c(C([NH-])=O)cc2ccc(C(F)(F)F)cc21)C(=O)[O-] (3D coordinates assigned)
C[C@H]([N-]C(=O)n1c(C([NH-])=O)cc2ccc(C(F)(F)F)cc21)C(=O)[O-] (optimized conformer: 68.37881927725532 kcal/mol)

>  <smiles>  (25) 
CC(NC(=O)n1c(C(N)=O)cc2ccc(C(F)(F)F)cc21)C(=O)O

>  <score_type>  (25) 
oracle

>  <origin>  (25) 
adg

>  <m_score__min__energy>  (25) 
-12.58

>  <m_primary>  (25) 
energy

$$$$
26:0
     RDKit          3D

 39 40  0  0  0  0  0  0  0  0999 V2000
   -3.6190   22.0620  -27.8940 C   0  0  0  0  0  0  0  0  0  0  0  0
   -2.7030   22.4020  -28.9840 N   0  0  0  0  0  0  0  0  0  0  0  0
   -1.4250   23.0540  -28.6570 C   0  0  0  0  0  0  0  0  0  0  0  0
   -1.6380   24.5030  -28.2090 C   0  0  0  0  0  0  0  0  0  0  0  0
   -2.0210   25.2970  -29.2960 O   0  0  0  0  0  0  0  0  0  0  0  0
   -3.1900   22.3610  -30.3390 C   0  0  0  0  0  0  0  0  0  0  0  0
   -2.5230   22.9200  -31.2510 O   0  0  0  0  0  0  0  0  0  0  0  0
   -4.4530   21.6780  -30.6860 C   0  0  0  0  0  0  0  0  0  0  0  0
   -4.4700   20.4350  -30.8870 O   0  0  0  0  0  0  0  0  0  0  0  0
   -5.6720   22.4240  -30.8160 N   0  0  0  0  0  0  0  0  0  0  0  0
   -5.8690   23.7550  -30.5950 C   0  0  0  0  0  0  0  0  0  0  0  0
   -4.8530   24.6890  -30.0570 C   0  0  0  0  0  0  0  0  0  0  0  0
   -4.7060   24.8840  -28.6500 N   0  0  0  0  0  0  0  0  0  0  0  0
   -4.0940   25.3150  -30.8440 O   0  0  0  0  0  0  0  0  0  0  0  0
   -7.1930   24.0980  -30.8740 C   0  0  0  0  0  0  0  0  0  0  0  0
   -7.7980   22.9260  -31.2700 C   0  0  0  0  0  0  0  0  0  0  0  0
   -9.1130   22.6780  -31.6550 C   0  0  0  0  0  0  0  0  0  0  0  0
   -9.4580   21.3640  -32.0150 C   0  0  0  0  0  0  0  0  0  0  0  0
   -8.4870   20.3290  -32.0030 C   0  0  0  0  0  0  0  0  0  0  0  0
   -8.8780   18.9150  -32.3500 C   0  0  0  0  0  0  0  0  0  0  0  0
   -9.0880   18.2020  -31.1840 F   0  0  0  0  0  0  0  0  0  0  0  0
  -10.0390   18.9000  -33.1030 F   0  0  0  0  0  0  0  0  0  0  0  0
   -7.8790   18.2980  -33.0820 F   0  0  0  0  0  0  0  0  0  0  0  0
   -7.1690   20.6160  -31.5790 C   0  0  0  0  0  0  0  0  0  0  0  0
   -6.8590   21.9320  -31.2220 C   0  0  0  0  0  0  0  0  0  0  0  0
   -3.1245   22.2456  -26.9287 H   0  0  0  0  0  0  0  0  0  0  0  0
   -4.5230   22.6845  -27.9671 H   0  0  0  0  0  0  0  0  0  0  0  0
   -3.8979   21.0005  -27.9671 H   0  0  0  0  0  0  0  0  0  0  0  0
   -0.9356   22.4962  -27.8450 H   0  0  0  0  0  0  0  0  0  0  0  0
   -0.7966   23.0586  -29.5598 H   0  0  0  0  0  0  0  0  0  0  0  0
   -2.4260   24.5334  -27.4421 H   0  0  0  0  0  0  0  0  0  0  0  0
   -0.6952   24.8920  -27.7968 H   0  0  0  0  0  0  0  0  0  0  0  0
   -2.1900   24.6720  -30.0480 H   0  0  0  0  0  0  0  0  0  0  0  0
   -3.9630   25.5200  -28.2850 H   0  0  0  0  0  0  0  0  0  0  0  0
   -5.3560   24.4390  -27.9650 H   0  0  0  0  0  0  0  0  0  0  0  0
   -7.6550   25.0931  -30.7944 H   0  0  0  0  0  0  0  0  0  0  0  0
   -9.8591   23.4860  -31.6767 H   0  0  0  0  0  0  0  0  0  0  0  0
  -10.4928   21.1351  -32.3095 H   0  0  0  0  0  0  0  0  0  0  0  0
   -6.4069   19.8242  -31.5312 H   0  0  0  0  0  0  0  0  0  0  0  0
  1  2  1  0
  2  3  1  0
  3  4  1  0
  4  5  1  0
  2  6  1  0
  6  7  2  0
  6  8  1  0
  8  9  2  0
  8 10  1  0
 10 11  1  0
 11 12  1  0
 12 13  1  0
 12 14  2  0
 11 15  2  0
 15 16  1  0
 16 17  2  0
 17 18  1  0
 18 19  2  0
 19 20  1  0
 20 21  1  0
 20 22  1  0
 20 23  1  0
 19 24  1  0
 24 25  2  0
 25 10  1  0
 25 16  1  0
  1 26  1  0
  1 27  1  0
  1 28  1  0
  3 29  1  0
  3 30  1  0
  4 31  1  0
  4 32  1  0
  5 33  1  0
 13 34  1  0
 13 35  1  0
 15 36  1  0
 17 37  1  0
 18 38  1  0
 24 39  1  0
M  END
>  <UniqueID>  (26) 
26

>  <SMILES>  (26) 
CN(CCO)C(=O)C(=O)n1c(C(N)=O)cc2ccc(C(F)(F)F)cc21

>  <Energy>  (26) 
78.8813758124888

>  <Genealogy>  (26) 
CN(CCO)C(=O)C(=O)n1c(C(N)=O)cc2ccc(C(F)(F)F)cc21 (3D coordinates assigned)
CN(CCO)C(=O)C(=O)n1c(C(N)=O)cc2ccc(C(F)(F)F)cc21 (optimized conformer: 78.8813758124888 kcal/mol)

>  <smiles>  (26) 
CN(CCO)C(=O)C(=O)n1c(C(N)=O)cc2ccc(C(F)(F)F)cc21

>  <score_type>  (26) 
oracle

>  <origin>  (26) 
adg

>  <m_score__min__energy>  (26) 
-9.1500000000000004

>  <m_primary>  (26) 
energy

$$$$
27:0
     RDKit          3D

 37 38  0  0  0  0  0  0  0  0999 V2000
   -3.4360   23.1840  -27.8890 C   0  0  0  0  0  0  0  0  0  0  0  0
   -2.5340   22.5350  -28.9580 C   0  0  0  0  0  0  0  0  0  0  0  0
   -1.4960   21.6460  -28.2530 C   0  0  0  0  0  0  0  0  0  0  0  0
   -1.8480   23.5430  -29.6620 O   0  0  0  0  0  0  0  0  0  0  0  0
   -3.4070   21.6900  -29.9250 C   0  0  0  0  0  0  0  0  0  0  0  0
   -3.9390   22.4900  -31.0870 C   0  0  0  0  0  0  0  0  0  0  0  0
   -3.1760   22.7630  -32.0520 O   0  0  0  0  0  0  0  0  0  0  0  0
   -5.3170   22.8930  -31.1370 N   0  0  0  0  0  0  0  0  0  0  0  0
   -5.8450   24.1190  -30.8580 C   0  0  0  0  0  0  0  0  0  0  0  0
   -5.0740   25.3530  -30.6030 C   0  0  0  0  0  0  0  0  0  0  0  0
   -3.6560   25.2910  -30.4710 N   0  0  0  0  0  0  0  0  0  0  0  0
   -5.6600   26.4580  -30.4650 O   0  0  0  0  0  0  0  0  0  0  0  0
   -7.2350   24.0850  -30.9550 C   0  0  0  0  0  0  0  0  0  0  0  0
   -7.5430   22.7940  -31.3250 C   0  0  0  0  0  0  0  0  0  0  0  0
   -8.7780   22.2020  -31.5700 C   0  0  0  0  0  0  0  0  0  0  0  0
   -8.7960   20.8440  -31.9300 C   0  0  0  0  0  0  0  0  0  0  0  0
   -7.5890   20.1090  -32.0420 C   0  0  0  0  0  0  0  0  0  0  0  0
   -7.6320   18.6560  -32.4220 C   0  0  0  0  0  0  0  0  0  0  0  0
   -8.8230   18.0970  -31.9950 F   0  0  0  0  0  0  0  0  0  0  0  0
   -6.5760   17.9880  -31.8320 F   0  0  0  0  0  0  0  0  0  0  0  0
   -6.3540   20.7460  -31.7870 C   0  0  0  0  0  0  0  0  0  0  0  0
   -6.3670   22.0980  -31.4340 C   0  0  0  0  0  0  0  0  0  0  0  0
   -3.0669   22.9184  -26.8874 H   0  0  0  0  0  0  0  0  0  0  0  0
   -3.4178   24.2773  -28.0085 H   0  0  0  0  0  0  0  0  0  0  0  0
   -4.4669   22.8193  -28.0085 H   0  0  0  0  0  0  0  0  0  0  0  0
   -1.6096   21.7433  -27.1632 H   0  0  0  0  0  0  0  0  0  0  0  0
   -1.6522   20.5972  -28.5457 H   0  0  0  0  0  0  0  0  0  0  0  0
   -0.4837   21.9615  -28.5457 H   0  0  0  0  0  0  0  0  0  0  0  0
   -2.4650   23.9090  -30.3500 H   0  0  0  0  0  0  0  0  0  0  0  0
   -2.7961   20.8640  -30.3181 H   0  0  0  0  0  0  0  0  0  0  0  0
   -4.2723   21.3235  -29.3532 H   0  0  0  0  0  0  0  0  0  0  0  0
   -3.0810   24.7120  -31.1220 H   0  0  0  0  0  0  0  0  0  0  0  0
   -7.9367   24.9127  -30.7746 H   0  0  0  0  0  0  0  0  0  0  0  0
   -9.7107   22.7788  -31.4846 H   0  0  0  0  0  0  0  0  0  0  0  0
   -9.7568   20.3459  -32.1270 H   0  0  0  0  0  0  0  0  0  0  0  0
   -7.5565   18.5680  -33.5159 H   0  0  0  0  0  0  0  0  0  0  0  0
   -5.4068   20.1921  -31.8643 H   0  0  0  0  0  0  0  0  0  0  0  0
  1  2  1  0
  2  3  1  0
  2  4  1  0
  2  5  1  0
  5  6  1  0
  6  7  2  0
  6  8  1  0
  8  9  1  0
  9 10  1  0
 10 11  1  0
 10 12  2  0
  9 13  2  0
 13 14  1  0
 14 15  2  0
 15 16  1  0
 16 17  2  0
 17 18  1  0
 18 19  1  0
 18 20  1  0
 17 21  1  0
 21 22  2  0
 22  8  1  0
 22 14  1  0
  1 23  1  0
  1 24  1  0
  1 25  1  0
  3 26  1  0
  3 27  1  0
  3 28  1  0
  4 29  1  0
  5 30  1  0
  5 31  1  0
 11 32  1  0
 13 33  1  0
 15 34  1  0
 16 35  1  0
 18 36  1  0
 21 37  1  0
M  CHG  1  11  -1
M  END
>  <UniqueID>  (27) 
27

>  <SMILES>  (27) 
CC(C)(O)CC(=O)n1c(C([NH-])=O)cc2ccc(C(F)F)cc21

>  <Energy>  (27) 
71.6150403263871

>  <Genealogy>  (27) 
CC(C)(O)CC(=O)n1c(C([NH-])=O)cc2ccc(C(F)F)cc21 (protonated)
CC(C)(O)CC(=O)n1c(C([NH-])=O)cc2ccc(C(F)F)cc21 (3D coordinates assigned)
CC(C)(O)CC(=O)n1c(C([NH-])=O)cc2ccc(C(F)F)cc21 (optimized conformer: 71.6150403263871 kcal/mol)

>  <smiles>  (27) 
CC(C)(O)CC(=O)n1c(C(N)=O)cc2ccc(C(F)F)cc21

>  <score_type>  (27) 
oracle

>  <origin>  (27) 
adg

>  <m_score__min__energy>  (27) 
-8.9700000000000006

>  <m_primary>  (27) 
energy

$$$$
28:0
     RDKit          3D

 35 36  0  0  0  0  0  0  0  0999 V2000
   -0.9300   26.1070  -28.0790 C   0  0  0  0  0  0  0  0  0  0  0  0
   -1.9570   25.6350  -28.9420 O   0  0  0  0  0  0  0  0  0  0  0  0
   -2.7640   24.5380  -28.6220 C   0  0  0  0  0  0  0  0  0  0  0  0
   -3.6280   24.6200  -27.7070 O   0  0  0  0  0  0  0  0  0  0  0  0
   -2.6310   23.2720  -29.4040 C   0  0  0  0  0  0  0  0  0  0  0  0
   -2.8430   23.5220  -30.7910 O   0  0  0  0  0  0  0  0  0  0  0  0
   -3.6000   22.6810  -31.6170 C   0  0  0  0  0  0  0  0  0  0  0  0
   -3.0310   21.9540  -32.4760 O   0  0  0  0  0  0  0  0  0  0  0  0
   -5.0310   22.6590  -31.4930 N   0  0  0  0  0  0  0  0  0  0  0  0
   -5.8330   23.6410  -30.9930 C   0  0  0  0  0  0  0  0  0  0  0  0
   -5.3650   24.8750  -30.3240 C   0  0  0  0  0  0  0  0  0  0  0  0
   -5.7520   25.1680  -28.9790 N   0  0  0  0  0  0  0  0  0  0  0  0
   -4.5930   25.6670  -30.9260 O   0  0  0  0  0  0  0  0  0  0  0  0
   -7.1750   23.2830  -31.1150 C   0  0  0  0  0  0  0  0  0  0  0  0
   -7.1690   22.0420  -31.7080 C   0  0  0  0  0  0  0  0  0  0  0  0
   -8.2300   21.2270  -32.0860 C   0  0  0  0  0  0  0  0  0  0  0  0
   -7.9350   20.0070  -32.7170 C   0  0  0  0  0  0  0  0  0  0  0  0
   -6.5890   19.6190  -32.9500 C   0  0  0  0  0  0  0  0  0  0  0  0
   -6.2860   18.3380  -33.6840 C   0  0  0  0  0  0  0  0  0  0  0  0
   -5.1210   17.7630  -33.2040 F   0  0  0  0  0  0  0  0  0  0  0  0
   -7.3160   17.4270  -33.5250 F   0  0  0  0  0  0  0  0  0  0  0  0
   -6.1310   18.6120  -35.0310 F   0  0  0  0  0  0  0  0  0  0  0  0
   -5.5390   20.4870  -32.5710 C   0  0  0  0  0  0  0  0  0  0  0  0
   -5.8630   21.6870  -31.9270 C   0  0  0  0  0  0  0  0  0  0  0  0
   -1.2371   25.9659  -27.0322 H   0  0  0  0  0  0  0  0  0  0  0  0
   -0.0042   25.5440  -28.2686 H   0  0  0  0  0  0  0  0  0  0  0  0
   -0.7543   27.1762  -28.2686 H   0  0  0  0  0  0  0  0  0  0  0  0
   -1.6209   22.8609  -29.2597 H   0  0  0  0  0  0  0  0  0  0  0  0
   -3.3848   22.5529  -29.0510 H   0  0  0  0  0  0  0  0  0  0  0  0
   -5.3850   26.0220  -28.5040 H   0  0  0  0  0  0  0  0  0  0  0  0
   -6.4320   24.5650  -28.4670 H   0  0  0  0  0  0  0  0  0  0  0  0
   -8.0523   23.8687  -30.8032 H   0  0  0  0  0  0  0  0  0  0  0  0
   -9.2707   21.5288  -31.8964 H   0  0  0  0  0  0  0  0  0  0  0  0
   -8.7549   19.3456  -33.0338 H   0  0  0  0  0  0  0  0  0  0  0  0
   -4.4908   20.2251  -32.7776 H   0  0  0  0  0  0  0  0  0  0  0  0
  1  2  1  0
  2  3  1  0
  3  4  2  0
  3  5  1  0
  5  6  1  0
  6  7  1  0
  7  8  2  0
  7  9  1  0
  9 10  1  0
 10 11  1  0
 11 12  1  0
 11 13  2  0
 10 14  2  0
 14 15  1  0
 15 16  2  0
 16 17  1  0
 17 18  2  0
 18 19  1  0
 19 20  1  0
 19 21  1  0
 19 22  1  0
 18 23  1  0
 23 24  2  0
 24  9  1  0
 24 15  1  0
  1 25  1  0
  1 26  1  0
  1 27  1  0
  5 28  1  0
  5 29  1  0
 12 30  1  0
 12 31  1  0
 14 32  1  0
 16 33  1  0
 17 34  1  0
 23 35  1  0
M  END
>  <UniqueID>  (28) 
28

>  <SMILES>  (28) 
COC(=O)COC(=O)n1c(C(N)=O)cc2ccc(C(F)(F)F)cc21

>  <Energy>  (28) 
69.53952068290839

>  <Genealogy>  (28) 
COC(=O)COC(=O)n1c(C(N)=O)cc2ccc(C(F)(F)F)cc21 (3D coordinates assigned)
COC(=O)COC(=O)n1c(C(N)=O)cc2ccc(C(F)(F)F)cc21 (optimized conformer: 69.53952068290839 kcal/mol)

>  <smiles>  (28) 
COC(=O)COC(=O)n1c(C(N)=O)cc2ccc(C(F)(F)F)cc21

>  <score_type>  (28) 
oracle

>  <origin>  (28) 
adg

>  <m_score__min__energy>  (28) 
-8.5299999999999994

>  <m_primary>  (28) 
energy

$$$$
29:0
     RDKit          3D

 48 49  0  0  0  0  0  0  0  0999 V2000
   -3.9510   14.5390  -34.9290 C   0  0  0  0  0  0  0  0  0  0  0  0
   -5.3730   14.3000  -33.7430 Si  0  0  0  0  0  4  0  0  0  0  0  0
   -6.7250   13.3210  -34.5790 C   0  0  0  0  0  0  0  0  0  0  0  0
   -4.7760   13.3770  -32.2330 C   0  0  0  0  0  0  0  0  0  0  0  0
   -6.0210   15.9200  -33.2480 C   0  0  0  0  0  0  0  0  0  0  0  0
   -6.4580   16.9940  -32.9250 C   0  0  0  0  0  0  0  0  0  0  0  0
   -6.9700   18.2820  -32.5370 C   0  0  0  0  0  0  0  0  0  0  0  0
   -8.3590   18.4640  -32.3520 C   0  0  0  0  0  0  0  0  0  0  0  0
   -8.8680   19.7210  -31.9840 C   0  0  0  0  0  0  0  0  0  0  0  0
   -7.9640   20.7630  -31.8010 C   0  0  0  0  0  0  0  0  0  0  0  0
   -8.1920   22.0820  -31.4850 C   0  0  0  0  0  0  0  0  0  0  0  0
   -6.9330   22.6760  -31.4550 C   0  0  0  0  0  0  0  0  0  0  0  0
   -6.7120   24.0890  -31.0930 C   0  0  0  0  0  0  0  0  0  0  0  0
   -5.5440   24.7870  -31.5270 N   0  0  0  0  0  0  0  0  0  0  0  0
   -7.5370   24.6730  -30.3390 O   0  0  0  0  0  0  0  0  0  0  0  0
   -5.9620   21.7670  -31.7560 N   0  0  0  0  0  0  0  0  0  0  0  0
   -4.5630   22.0320  -31.9770 C   0  0  0  0  0  0  0  0  0  0  0  0
   -4.1990   22.6980  -32.9840 O   0  0  0  0  0  0  0  0  0  0  0  0
   -3.5840   21.5180  -31.0720 N   0  0  0  0  0  0  0  0  0  0  0  0
   -2.6610   22.3620  -30.3260 C   0  0  0  0  0  0  0  0  0  0  0  0
   -3.0890   22.4490  -28.8560 C   0  0  0  0  0  0  0  0  0  0  0  0
   -3.4220   23.8800  -28.4010 C   0  0  0  0  0  0  0  0  0  0  0  0
   -2.8260   24.9220  -29.3000 C   0  0  0  0  0  0  0  0  0  0  0  0
   -1.7070   25.4330  -29.0270 O   0  0  0  0  0  0  0  0  0  0  0  0
   -3.4900   25.2980  -30.4630 O   0  0  0  0  0  0  0  0  0  0  0  0
   -6.6080   20.5970  -31.9600 C   0  0  0  0  0  0  0  0  0  0  0  0
   -6.0790   19.3580  -32.3510 C   0  0  0  0  0  0  0  0  0  0  0  0
   -3.0221   14.6951  -34.3610 H   0  0  0  0  0  0  0  0  0  0  0  0
   -3.8477   13.6456  -35.5624 H   0  0  0  0  0  0  0  0  0  0  0  0
   -4.1454   15.4171  -35.5624 H   0  0  0  0  0  0  0  0  0  0  0  0
   -7.3667   12.8563  -33.8159 H   0  0  0  0  0  0  0  0  0  0  0  0
   -7.3292   13.9924  -35.2068 H   0  0  0  0  0  0  0  0  0  0  0  0
   -6.2757   12.5375  -35.2068 H   0  0  0  0  0  0  0  0  0  0  0  0
   -5.1142   13.8998  -31.3262 H   0  0  0  0  0  0  0  0  0  0  0  0
   -5.1853   12.3560  -32.2418 H   0  0  0  0  0  0  0  0  0  0  0  0
   -3.6770   13.3316  -32.2418 H   0  0  0  0  0  0  0  0  0  0  0  0
   -9.0457   17.6170  -32.4969 H   0  0  0  0  0  0  0  0  0  0  0  0
   -9.9480   19.8766  -31.8448 H   0  0  0  0  0  0  0  0  0  0  0  0
   -9.1622   22.5648  -31.2962 H   0  0  0  0  0  0  0  0  0  0  0  0
   -5.4240   25.7990  -31.3010 H   0  0  0  0  0  0  0  0  0  0  0  0
   -4.7550   24.2800  -31.9820 H   0  0  0  0  0  0  0  0  0  0  0  0
   -1.6495   21.9338  -30.3847 H   0  0  0  0  0  0  0  0  0  0  0  0
   -2.6684   23.3722  -30.7612 H   0  0  0  0  0  0  0  0  0  0  0  0
   -3.9814   21.8216  -28.7148 H   0  0  0  0  0  0  0  0  0  0  0  0
   -2.2387   22.1046  -28.2490 H   0  0  0  0  0  0  0  0  0  0  0  0
   -4.5151   24.0028  -28.3949 H   0  0  0  0  0  0  0  0  0  0  0  0
   -2.9936   24.0198  -27.3975 H   0  0  0  0  0  0  0  0  0  0  0  0
   -4.9979   19.2297  -32.5082 H   0  0  0  0  0  0  0  0  0  0  0  0
  1  2  1  0
  2  3  1  0
  2  4  1  0
  2  5  1  0
  5  6  3  0
  6  7  1  0
  7  8  2  0
  8  9  1  0
  9 10  2  0
 10 11  1  0
 11 12  2  0
 12 13  1  0
 13 14  1  0
 13 15  2  0
 12 16  1  0
 16 17  1  0
 17 18  2  0
 17 19  1  0
 19 20  1  0
 20 21  1  0
 21 22  1  0
 22 23  1  0
 23 24  2  0
 23 25  1  0
 16 26  1  0
 26 27  2  0
 27  7  1  0
 26 10  1  0
  1 28  1  0
  1 29  1  0
  1 30  1  0
  3 31  1  0
  3 32  1  0
  3 33  1  0
  4 34  1  0
  4 35  1  0
  4 36  1  0
  8 37  1  0
  9 38  1  0
 11 39  1  0
 14 40  1  0
 14 41  1  0
 20 42  1  0
 20 43  1  0
 21 44  1  0
 21 45  1  0
 22 46  1  0
 22 47  1  0
 27 48  1  0
M  CHG  2  19  -1  25  -1
M  END
>  <UniqueID>  (29) 
29

>  <SMILES>  (29) 
C[Si](C)(C)C#Cc1ccc2cc(C(N)=O)n(C(=O)[N-]CCCC(=O)[O-])c2c1

>  <Energy>  (29) 
64.10554991506129

>  <Genealogy>  (29) 
C[Si](C)(C)C#Cc1ccc2cc(C(N)=O)n(C(=O)[N-]CCCC(=O)[O-])c2c1 (protonated)
C[Si](C)(C)C#Cc1ccc2cc(C(N)=O)n(C(=O)[N-]CCCC(=O)[O-])c2c1 (3D coordinates assigned)
C[Si](C)(C)C#Cc1ccc2cc(C(N)=O)n(C(=O)[N-]CCCC(=O)[O-])c2c1 (optimized conformer: 64.10554991506129 kcal/mol)

>  <smiles>  (29) 
C[Si](C)(C)C#Cc1ccc2cc(C(N)=O)n(C(=O)NCCCC(=O)O)c2c1

>  <score_type>  (29) 
oracle

>  <origin>  (29) 
adg

>  <m_score__min__energy>  (29) 
-12.08

>  <m_primary>  (29) 
energy

$$$$
30:0
     RDKit          3D

 41 42  0  0  0  0  0  0  0  0999 V2000
   -9.0830   22.2680  -31.9620 C   0  0  0  0  0  0  0  0  0  0  0  0
   -9.0770   20.7880  -31.5800 C   0  0  0  0  0  0  0  0  0  0  0  0
   -8.6960   19.8860  -32.7610 C   0  0  0  0  0  0  0  0  0  0  0  0
   -7.5370   18.9880  -32.4240 C   0  0  0  0  0  0  0  0  0  0  0  0
   -7.7450   17.9360  -31.7620 O   0  0  0  0  0  0  0  0  0  0  0  0
   -6.1950   19.3410  -32.7950 N   0  0  0  0  0  0  0  0  0  0  0  0
   -5.4180   18.7550  -33.7510 C   0  0  0  0  0  0  0  0  0  0  0  0
   -5.8010   17.5730  -34.5620 C   0  0  0  0  0  0  0  0  0  0  0  0
   -6.7080   16.5940  -34.0520 N   0  0  0  0  0  0  0  0  0  0  0  0
   -5.3340   17.4240  -35.7220 O   0  0  0  0  0  0  0  0  0  0  0  0
   -4.1840   19.4000  -33.8310 C   0  0  0  0  0  0  0  0  0  0  0  0
   -4.2390   20.4140  -32.9030 C   0  0  0  0  0  0  0  0  0  0  0  0
   -3.2970   21.3860  -32.5830 C   0  0  0  0  0  0  0  0  0  0  0  0
   -3.6400   22.3410  -31.6130 C   0  0  0  0  0  0  0  0  0  0  0  0
   -4.9170   22.3270  -30.9900 C   0  0  0  0  0  0  0  0  0  0  0  0
   -5.2600   23.3260  -29.9970 N   0  0  0  0  0  0  0  0  0  0  0  0
   -6.6460   23.7990  -29.8900 C   0  0  0  0  0  0  0  0  0  0  0  0
   -4.2380   23.8880  -29.0980 C   0  0  0  0  0  0  0  0  0  0  0  0
   -3.4280   24.9280  -29.8080 C   0  0  0  0  0  0  0  0  0  0  0  0
   -3.8740   25.4700  -30.8530 O   0  0  0  0  0  0  0  0  0  0  0  0
   -2.1750   25.2850  -29.3280 O   0  0  0  0  0  0  0  0  0  0  0  0
   -5.8480   21.3230  -31.3540 C   0  0  0  0  0  0  0  0  0  0  0  0
   -5.4650   20.3640  -32.2970 C   0  0  0  0  0  0  0  0  0  0  0  0
   -9.0855   22.8822  -31.0495 H   0  0  0  0  0  0  0  0  0  0  0  0
   -8.1858   22.4971  -32.5557 H   0  0  0  0  0  0  0  0  0  0  0  0
   -9.9821   22.4898  -32.5557 H   0  0  0  0  0  0  0  0  0  0  0  0
   -8.3505   20.6346  -30.7684 H   0  0  0  0  0  0  0  0  0  0  0  0
  -10.0949   20.5171  -31.2629 H   0  0  0  0  0  0  0  0  0  0  0  0
   -9.5629   19.2640  -33.0287 H   0  0  0  0  0  0  0  0  0  0  0  0
   -8.3980   20.5296  -33.6018 H   0  0  0  0  0  0  0  0  0  0  0  0
   -6.9960   15.7880  -34.6510 H   0  0  0  0  0  0  0  0  0  0  0  0
   -7.0660   16.6340  -33.0740 H   0  0  0  0  0  0  0  0  0  0  0  0
   -3.3440   19.1505  -34.4959 H   0  0  0  0  0  0  0  0  0  0  0  0
   -2.3133   21.4058  -33.0750 H   0  0  0  0  0  0  0  0  0  0  0  0
   -2.9085   23.1125  -31.3307 H   0  0  0  0  0  0  0  0  0  0  0  0
   -6.9206   23.8927  -28.8289 H   0  0  0  0  0  0  0  0  0  0  0  0
   -6.7378   24.7793  -30.3804 H   0  0  0  0  0  0  0  0  0  0  0  0
   -7.3179   23.0793  -30.3804 H   0  0  0  0  0  0  0  0  0  0  0  0
   -4.7330   24.3460  -28.2290 H   0  0  0  0  0  0  0  0  0  0  0  0
   -3.5687   23.0786  -28.7710 H   0  0  0  0  0  0  0  0  0  0  0  0
   -6.8515   21.2983  -30.9041 H   0  0  0  0  0  0  0  0  0  0  0  0
  1  2  1  0
  2  3  1  0
  3  4  1  0
  4  5  2  0
  4  6  1  0
  6  7  1  0
  7  8  1  0
  8  9  1  0
  8 10  2  0
  7 11  2  0
 11 12  1  0
 12 13  2  0
 13 14  1  0
 14 15  2  0
 15 16  1  0
 16 17  1  0
 16 18  1  0
 18 19  1  0
 19 20  2  0
 19 21  1  0
 15 22  1  0
 22 23  2  0
 23  6  1  0
 23 12  1  0
  1 24  1  0
  1 25  1  0
  1 26  1  0
  2 27  1  0
  2 28  1  0
  3 29  1  0
  3 30  1  0
  9 31  1  0
  9 32  1  0
 11 33  1  0
 13 34  1  0
 14 35  1  0
 17 36  1  0
 17 37  1  0
 17 38  1  0
 18 39  1  0
 18 40  1  0
 22 41  1  0
M  CHG  1  21  -1
M  END
>  <UniqueID>  (30) 
30

>  <SMILES>  (30) 
CCCC(=O)n1c(C(N)=O)cc2ccc(N(C)CC(=O)[O-])cc21

>  <Energy>  (30) 
76.12407448499991

>  <Genealogy>  (30) 
CCCC(=O)n1c(C(N)=O)cc2ccc(N(C)CC(=O)[O-])cc21 (protonated)
CCCC(=O)n1c(C(N)=O)cc2ccc(N(C)CC(=O)[O-])cc21 (3D coordinates assigned)
CCCC(=O)n1c(C(N)=O)cc2ccc(N(C)CC(=O)[O-])cc21 (optimized conformer: 76.12407448499991 kcal/mol)

>  <smiles>  (30) 
CCCC(=O)n1c(C(N)=O)cc2ccc(N(C)CC(=O)O)cc21

>  <score_type>  (30) 
oracle

>  <origin>  (30) 
adg

>  <m_score__min__energy>  (30) 
-10.220000000000001

>  <m_primary>  (30) 
energy

$$$$
31:0
     RDKit          3D

 33 34  0  0  0  0  0  0  0  0999 V2000
   -0.4860   22.5080  -30.3660 C   0  0  0  0  0  0  0  0  0  0  0  0
   -1.4670   23.1620  -29.3960 C   0  0  2  0  0  0  0  0  0  0  0  0
   -2.7370   23.2970  -30.0340 O   0  0  0  0  0  0  0  0  0  0  0  0
   -3.7690   22.3580  -29.9060 C   0  0  0  0  0  0  0  0  0  0  0  0
   -3.6170   21.3430  -29.1730 O   0  0  0  0  0  0  0  0  0  0  0  0
   -4.9910   22.5360  -30.6400 N   0  0  0  0  0  0  0  0  0  0  0  0
   -5.6080   23.7090  -30.9600 C   0  0  0  0  0  0  0  0  0  0  0  0
   -5.2420   25.0490  -30.4570 C   0  0  0  0  0  0  0  0  0  0  0  0
   -4.0150   25.6630  -30.8380 N   0  0  0  0  0  0  0  0  0  0  0  0
   -5.9980   25.6360  -29.6380 O   0  0  0  0  0  0  0  0  0  0  0  0
   -6.7080   23.4770  -31.7830 C   0  0  0  0  0  0  0  0  0  0  0  0
   -6.7540   22.1130  -31.9550 C   0  0  0  0  0  0  0  0  0  0  0  0
   -7.6380   21.3350  -32.6960 C   0  0  0  0  0  0  0  0  0  0  0  0
   -7.4270   19.9460  -32.7250 C   0  0  0  0  0  0  0  0  0  0  0  0
   -6.3410   19.3660  -32.0240 C   0  0  0  0  0  0  0  0  0  0  0  0
   -6.1080   17.8830  -32.0740 C   0  0  0  0  0  0  0  0  0  0  0  0
   -7.1040   17.2790  -32.8200 F   0  0  0  0  0  0  0  0  0  0  0  0
   -6.1220   17.3660  -30.7920 F   0  0  0  0  0  0  0  0  0  0  0  0
   -5.4620   20.1890  -31.2850 C   0  0  0  0  0  0  0  0  0  0  0  0
   -5.7080   21.5670  -31.2570 C   0  0  0  0  0  0  0  0  0  0  0  0
   -0.9470   24.5010  -28.9590 C   0  0  0  0  0  0  0  0  0  0  0  0
    0.0810   24.5820  -28.2370 O   0  0  0  0  0  0  0  0  0  0  0  0
   -1.6180   25.6590  -29.3290 O   0  0  0  0  0  0  0  0  0  0  0  0
    0.2978   21.9854  -29.7981 H   0  0  0  0  0  0  0  0  0  0  0  0
   -1.0227   21.7864  -30.9994 H   0  0  0  0  0  0  0  0  0  0  0  0
   -0.0263   23.2810  -30.9994 H   0  0  0  0  0  0  0  0  0  0  0  0
   -1.5792   22.5313  -28.5018 H   0  0  0  0  0  0  0  0  0  0  0  0
   -3.1000   25.2980  -30.4900 H   0  0  0  0  0  0  0  0  0  0  0  0
   -7.3941   24.2258  -32.2056 H   0  0  0  0  0  0  0  0  0  0  0  0
   -8.4759   21.7929  -33.2421 H   0  0  0  0  0  0  0  0  0  0  0  0
   -8.1116   19.3029  -33.2975 H   0  0  0  0  0  0  0  0  0  0  0  0
   -5.1305   17.6879  -32.5392 H   0  0  0  0  0  0  0  0  0  0  0  0
   -4.6059   19.7580  -30.7452 H   0  0  0  0  0  0  0  0  0  0  0  0
  1  2  1  0
  2  3  1  0
  3  4  1  0
  4  5  2  0
  4  6  1  0
  6  7  1  0
  7  8  1  0
  8  9  1  0
  8 10  2  0
  7 11  2  0
 11 12  1  0
 12 13  2  0
 13 14  1  0
 14 15  2  0
 15 16  1  0
 16 17  1  0
 16 18  1  0
 15 19  1  0
 19 20  2  0
  2 21  1  0
 21 22  2  0
 21 23  1  0
 20  6  1  0
 20 12  1  0
  1 24  1  0
  1 25  1  0
  1 26  1  0
  2 27  1  1
  9 28  1  0
 11 29  1  0
 13 30  1  0
 14 31  1  0
 16 32  1  0
 19 33  1  0
M  CHG  2   9  -1  23  -1
M  END
>  <UniqueID>  (31) 
31

>  <SMILES>  (31) 
C[C@H](OC(=O)n1c(C([NH-])=O)cc2ccc(C(F)F)cc21)C(=O)[O-]

>  <Energy>  (31) 
67.70396220167468

>  <Genealogy>  (31) 
CC(OC(=O)n1c(C([NH-])=O)cc2ccc(C(F)F)cc21)C(=O)[O-] (protonated)
C[C@H](OC(=O)n1c(C([NH-])=O)cc2ccc(C(F)F)cc21)C(=O)[O-] (chirality)
C[C@H](OC(=O)n1c(C([NH-])=O)cc2ccc(C(F)F)cc21)C(=O)[O-] (3D coordinates assigned)
C[C@H](OC(=O)n1c(C([NH-])=O)cc2ccc(C(F)F)cc21)C(=O)[O-] (optimized conformer: 67.70396220167468 kcal/mol)

>  <smiles>  (31) 
CC(OC(=O)n1c(C(N)=O)cc2ccc(C(F)F)cc21)C(=O)O

>  <score_type>  (31) 
oracle

>  <origin>  (31) 
adg

>  <m_score__min__energy>  (31) 
-11.92

>  <m_primary>  (31) 
energy

$$$$
32:0
     RDKit          3D

 41 42  0  0  0  0  0  0  0  0999 V2000
   -9.1380   23.4120  -32.2310 C   0  0  0  0  0  0  0  0  0  0  0  0
   -8.0790   22.6130  -32.0820 C   0  0  0  0  0  0  0  0  0  0  0  0
   -7.0590   22.8380  -31.0380 C   0  0  0  0  0  0  0  0  0  0  0  0
   -7.3950   23.2860  -29.9050 O   0  0  0  0  0  0  0  0  0  0  0  0
   -5.6770   22.5380  -31.2960 N   0  0  0  0  0  0  0  0  0  0  0  0
   -4.6020   23.3410  -31.0580 C   0  0  0  0  0  0  0  0  0  0  0  0
   -4.6430   24.6240  -30.3170 C   0  0  0  0  0  0  0  0  0  0  0  0
   -5.3360   24.7300  -29.0720 N   0  0  0  0  0  0  0  0  0  0  0  0
   -4.0900   25.6470  -30.7930 O   0  0  0  0  0  0  0  0  0  0  0  0
   -3.4360   22.7500  -31.5460 C   0  0  0  0  0  0  0  0  0  0  0  0
   -3.8370   21.5550  -32.0990 C   0  0  0  0  0  0  0  0  0  0  0  0
   -3.0940   20.5780  -32.7520 C   0  0  0  0  0  0  0  0  0  0  0  0
   -3.7770   19.4580  -33.2540 C   0  0  0  0  0  0  0  0  0  0  0  0
   -5.1850   19.3310  -33.1080 C   0  0  0  0  0  0  0  0  0  0  0  0
   -5.8810   18.1750  -33.6340 N   0  0  0  0  0  0  0  0  0  0  0  0
   -5.2100   17.2840  -34.5900 C   0  0  0  0  0  0  0  0  0  0  0  0
   -7.2400   17.8340  -33.1840 C   0  0  0  0  0  0  0  0  0  0  0  0
   -7.3350   17.8350  -31.6500 C   0  0  0  0  0  0  0  0  0  0  0  0
   -8.2640   18.8130  -31.2190 O   0  0  0  0  0  0  0  0  0  0  0  0
   -9.1080   19.2040  -32.2830 C   0  0  0  0  0  0  0  0  0  0  0  0
   -5.8990   20.3570  -32.4450 C   0  0  0  0  0  0  0  0  0  0  0  0
   -5.1920   21.4500  -31.9350 C   0  0  0  0  0  0  0  0  0  0  0  0
   -9.8741   23.2077  -33.0224 H   0  0  0  0  0  0  0  0  0  0  0  0
   -9.2745   24.2747  -31.5623 H   0  0  0  0  0  0  0  0  0  0  0  0
   -7.9619   21.7559  -32.7615 H   0  0  0  0  0  0  0  0  0  0  0  0
   -5.4450   25.6620  -28.6120 H   0  0  0  0  0  0  0  0  0  0  0  0
   -5.7330   23.8900  -28.5940 H   0  0  0  0  0  0  0  0  0  0  0  0
   -2.4137   23.1533  -31.4988 H   0  0  0  0  0  0  0  0  0  0  0  0
   -2.0052   20.6790  -32.8718 H   0  0  0  0  0  0  0  0  0  0  0  0
   -3.2129   18.6662  -33.7686 H   0  0  0  0  0  0  0  0  0  0  0  0
   -4.6365   16.5225  -34.0412 H   0  0  0  0  0  0  0  0  0  0  0  0
   -5.9630   16.7909  -35.2223 H   0  0  0  0  0  0  0  0  0  0  0  0
   -4.5281   17.8715  -35.2223 H   0  0  0  0  0  0  0  0  0  0  0  0
   -7.9475   18.5732  -33.5876 H   0  0  0  0  0  0  0  0  0  0  0  0
   -7.4838   16.8247  -33.5471 H   0  0  0  0  0  0  0  0  0  0  0  0
   -7.6647   16.8437  -31.3056 H   0  0  0  0  0  0  0  0  0  0  0  0
   -6.3460   18.0686  -31.2289 H   0  0  0  0  0  0  0  0  0  0  0  0
  -10.0354   19.6337  -31.8765 H   0  0  0  0  0  0  0  0  0  0  0  0
   -8.5952   19.9563  -32.9003 H   0  0  0  0  0  0  0  0  0  0  0  0
   -9.3503   18.3264  -32.9003 H   0  0  0  0  0  0  0  0  0  0  0  0
   -6.9915   20.2957  -32.3328 H   0  0  0  0  0  0  0  0  0  0  0  0
  1  2  2  0
  2  3  1  0
  3  4  2  0
  3  5  1  0
  5  6  1  0
  6  7  1  0
  7  8  1  0
  7  9  2  0
  6 10  2  0
 10 11  1  0
 11 12  2  0
 12 13  1  0
 13 14  2  0
 14 15  1  0
 15 16  1  0
 15 17  1  0
 17 18  1  0
 18 19  1  0
 19 20  1  0
 14 21  1  0
 21 22  2  0
 22  5  1  0
 22 11  1  0
  1 23  1  0
  1 24  1  0
  2 25  1  0
  8 26  1  0
  8 27  1  0
 10 28  1  0
 12 29  1  0
 13 30  1  0
 16 31  1  0
 16 32  1  0
 16 33  1  0
 17 34  1  0
 17 35  1  0
 18 36  1  0
 18 37  1  0
 20 38  1  0
 20 39  1  0
 20 40  1  0
 21 41  1  0
M  END
>  <UniqueID>  (32) 
32

>  <SMILES>  (32) 
C=CC(=O)n1c(C(N)=O)cc2ccc(N(C)CCOC)cc21

>  <Energy>  (32) 
81.56699994740583

>  <Genealogy>  (32) 
C=CC(=O)n1c(C(N)=O)cc2ccc(N(C)CCOC)cc21 (3D coordinates assigned)
C=CC(=O)n1c(C(N)=O)cc2ccc(N(C)CCOC)cc21 (optimized conformer: 81.56699994740583 kcal/mol)

>  <smiles>  (32) 
C=CC(=O)n1c(C(N)=O)cc2ccc(N(C)CCOC)cc21

>  <score_type>  (32) 
oracle

>  <origin>  (32) 
adg

>  <m_score__min__energy>  (32) 
-7.7599999999999998

>  <m_primary>  (32) 
energy

$$$$
33:0
     RDKit          3D

 32 33  0  0  0  0  0  0  0  0999 V2000
   -3.5610   25.2220  -30.4630 N   0  0  0  0  0  0  0  0  0  0  0  0
   -4.9740   25.2930  -30.6210 C   0  0  0  0  0  0  0  0  0  0  0  0
   -5.5530   26.4050  -30.4750 O   0  0  0  0  0  0  0  0  0  0  0  0
   -5.7760   24.0900  -30.9340 C   0  0  0  0  0  0  0  0  0  0  0  0
   -7.1630   24.1070  -31.0650 C   0  0  0  0  0  0  0  0  0  0  0  0
   -7.5250   22.8050  -31.3230 C   0  0  0  0  0  0  0  0  0  0  0  0
   -8.7780   22.2560  -31.5670 C   0  0  0  0  0  0  0  0  0  0  0  0
   -8.8520   20.8800  -31.8470 C   0  0  0  0  0  0  0  0  0  0  0  0
   -7.6800   20.0800  -31.8800 C   0  0  0  0  0  0  0  0  0  0  0  0
   -7.7780   18.6210  -32.2510 C   0  0  0  0  0  0  0  0  0  0  0  0
   -7.1720   18.3750  -33.4710 F   0  0  0  0  0  0  0  0  0  0  0  0
   -7.1550   17.8390  -31.2940 F   0  0  0  0  0  0  0  0  0  0  0  0
   -9.1100   18.2570  -32.3290 F   0  0  0  0  0  0  0  0  0  0  0  0
   -6.4210   20.6830  -31.6470 C   0  0  0  0  0  0  0  0  0  0  0  0
   -6.3800   22.0490  -31.3440 C   0  0  0  0  0  0  0  0  0  0  0  0
   -5.2980   22.8200  -31.0990 N   0  0  0  0  0  0  0  0  0  0  0  0
   -3.9340   22.3740  -31.0320 C   0  0  0  0  0  0  0  0  0  0  0  0
   -3.1250   22.6920  -31.9490 O   0  0  0  0  0  0  0  0  0  0  0  0
   -3.4840   21.4710  -29.9130 C   0  0  0  0  0  0  0  0  0  0  0  0
   -2.5550   22.1660  -28.9370 C   0  0  0  0  0  0  0  0  0  0  0  0
   -2.0670   23.4890  -29.2430 N   0  0  0  0  0  0  0  0  0  0  0  0
   -1.9290   21.3940  -27.8890 S   0  0  0  0  0  0  0  0  0  0  0  0
   -2.9680   24.6960  -31.1440 H   0  0  0  0  0  0  0  0  0  0  0  0
   -7.8288   24.9785  -30.9800 H   0  0  0  0  0  0  0  0  0  0  0  0
   -9.6843   22.8788  -31.5419 H   0  0  0  0  0  0  0  0  0  0  0  0
   -9.8307   20.4177  -32.0430 H   0  0  0  0  0  0  0  0  0  0  0  0
   -5.4953   20.0914  -31.7028 H   0  0  0  0  0  0  0  0  0  0  0  0
   -4.3713   21.1205  -29.3653 H   0  0  0  0  0  0  0  0  0  0  0  0
   -2.9276   20.6360  -30.3637 H   0  0  0  0  0  0  0  0  0  0  0  0
   -1.0830   23.6120  -28.9100 H   0  0  0  0  0  0  0  0  0  0  0  0
   -2.1080   23.6410  -30.2770 H   0  0  0  0  0  0  0  0  0  0  0  0
   -2.6580   24.2070  -28.7670 H   0  0  0  0  0  0  0  0  0  0  0  0
  1  2  1  0
  2  3  2  0
  2  4  1  0
  4  5  2  0
  5  6  1  0
  6  7  2  0
  7  8  1  0
  8  9  2  0
  9 10  1  0
 10 11  1  0
 10 12  1  0
 10 13  1  0
  9 14  1  0
 14 15  2  0
 15 16  1  0
 16 17  1  0
 17 18  2  0
 17 19  1  0
 19 20  1  0
 20 21  1  0
 20 22  2  0
 16  4  1  0
 15  6  1  0
  1 23  1  0
  5 24  1  0
  7 25  1  0
  8 26  1  0
 14 27  1  0
 19 28  1  0
 19 29  1  0
 21 30  1  0
 21 31  1  0
 21 32  1  0
M  CHG  2   1  -1  21   1
M  END
>  <UniqueID>  (33) 
33

>  <SMILES>  (33) 
[NH-]C(=O)c1cc2ccc(C(F)(F)F)cc2n1C(=O)CC([NH3+])=S

>  <Energy>  (33) 
73.51320325512297

>  <Genealogy>  (33) 
[NH-]C(=O)c1cc2ccc(C(F)(F)F)cc2n1C(=O)CC([NH3+])=S (protonated)
[NH-]C(=O)c1cc2ccc(C(F)(F)F)cc2n1C(=O)CC([NH3+])=S (3D coordinates assigned)
[NH-]C(=O)c1cc2ccc(C(F)(F)F)cc2n1C(=O)CC([NH3+])=S (optimized conformer: 73.51320325512297 kcal/mol)

>  <smiles>  (33) 
NC(=O)c1cc2ccc(C(F)(F)F)cc2n1C(=O)CC(N)=S

>  <score_type>  (33) 
oracle

>  <origin>  (33) 
adg

>  <m_score__min__energy>  (33) 
-9.5299999999999994

>  <m_primary>  (33) 
energy

$$$$
34:0
     RDKit          3D

 34 35  0  0  0  0  0  0  0  0999 V2000
   -4.0040   25.6660  -30.8180 N   0  0  0  0  0  0  0  0  0  0  0  0
   -5.3240   25.3060  -30.4180 C   0  0  0  0  0  0  0  0  0  0  0  0
   -6.0170   26.1300  -29.7640 O   0  0  0  0  0  0  0  0  0  0  0  0
   -5.9100   24.0060  -30.8090 C   0  0  0  0  0  0  0  0  0  0  0  0
   -7.2410   23.8470  -31.1870 C   0  0  0  0  0  0  0  0  0  0  0  0
   -7.3590   22.5280  -31.5610 C   0  0  0  0  0  0  0  0  0  0  0  0
   -8.4690   21.8220  -32.0190 C   0  0  0  0  0  0  0  0  0  0  0  0
   -8.3070   20.4570  -32.3070 C   0  0  0  0  0  0  0  0  0  0  0  0
   -7.0520   19.8240  -32.1300 C   0  0  0  0  0  0  0  0  0  0  0  0
   -6.9060   18.3590  -32.4290 C   0  0  0  0  0  0  0  0  0  0  0  0
   -8.1210   17.7240  -32.2460 F   0  0  0  0  0  0  0  0  0  0  0  0
   -6.4930   18.1890  -33.7380 F   0  0  0  0  0  0  0  0  0  0  0  0
   -5.9480   20.5730  -31.6630 C   0  0  0  0  0  0  0  0  0  0  0  0
   -6.1330   21.9350  -31.4000 C   0  0  0  0  0  0  0  0  0  0  0  0
   -5.2340   22.8280  -30.9330 N   0  0  0  0  0  0  0  0  0  0  0  0
   -3.8710   22.5530  -30.5760 C   0  0  0  0  0  0  0  0  0  0  0  0
   -2.9320   23.1210  -31.1960 O   0  0  0  0  0  0  0  0  0  0  0  0
   -3.5960   21.6740  -29.5230 O   0  0  0  0  0  0  0  0  0  0  0  0
   -3.3500   22.1020  -28.1850 C   0  0  0  0  0  0  0  0  0  0  0  0
   -4.1600   23.3630  -27.8490 C   0  0  0  0  0  0  0  0  0  0  0  0
   -3.5700   24.5550  -28.4580 N   0  0  0  0  0  0  0  0  0  0  0  0
   -3.1740   25.1450  -30.4590 H   0  0  0  0  0  0  0  0  0  0  0  0
   -8.0303   24.6131  -31.1867 H   0  0  0  0  0  0  0  0  0  0  0  0
   -9.4419   22.3180  -32.1510 H   0  0  0  0  0  0  0  0  0  0  0  0
   -9.1639   19.8730  -32.6740 H   0  0  0  0  0  0  0  0  0  0  0  0
   -6.1580   17.9247  -31.7494 H   0  0  0  0  0  0  0  0  0  0  0  0
   -4.9680   20.0973  -31.5101 H   0  0  0  0  0  0  0  0  0  0  0  0
   -3.6354   21.2967  -27.4922 H   0  0  0  0  0  0  0  0  0  0  0  0
   -2.2802   22.3375  -28.0851 H   0  0  0  0  0  0  0  0  0  0  0  0
   -5.1863   23.2398  -28.2251 H   0  0  0  0  0  0  0  0  0  0  0  0
   -4.1574   23.4951  -26.7570 H   0  0  0  0  0  0  0  0  0  0  0  0
   -3.1280   24.2900  -29.3670 H   0  0  0  0  0  0  0  0  0  0  0  0
   -4.3110   25.2710  -28.6390 H   0  0  0  0  0  0  0  0  0  0  0  0
   -2.8350   24.9540  -27.8310 H   0  0  0  0  0  0  0  0  0  0  0  0
  1  2  1  0
  2  3  2  0
  2  4  1  0
  4  5  2  0
  5  6  1  0
  6  7  2  0
  7  8  1  0
  8  9  2  0
  9 10  1  0
 10 11  1  0
 10 12  1  0
  9 13  1  0
 13 14  2  0
 14 15  1  0
 15 16  1  0
 16 17  2  0
 16 18  1  0
 18 19  1  0
 19 20  1  0
 20 21  1  0
 15  4  1  0
 14  6  1  0
  1 22  1  0
  5 23  1  0
  7 24  1  0
  8 25  1  0
 10 26  1  0
 13 27  1  0
 19 28  1  0
 19 29  1  0
 20 30  1  0
 20 31  1  0
 21 32  1  0
 21 33  1  0
 21 34  1  0
M  CHG  2   1  -1  21   1
M  END
>  <UniqueID>  (34) 
34

>  <SMILES>  (34) 
[NH-]C(=O)c1cc2ccc(C(F)F)cc2n1C(=O)OCC[NH3+]

>  <Energy>  (34) 
68.40564288947341

>  <Genealogy>  (34) 
[NH-]C(=O)c1cc2ccc(C(F)F)cc2n1C(=O)OCC[NH3+] (protonated)
[NH-]C(=O)c1cc2ccc(C(F)F)cc2n1C(=O)OCC[NH3+] (3D coordinates assigned)
[NH-]C(=O)c1cc2ccc(C(F)F)cc2n1C(=O)OCC[NH3+] (optimized conformer: 68.40564288947341 kcal/mol)

>  <smiles>  (34) 
NCCOC(=O)n1c(C(N)=O)cc2ccc(C(F)F)cc21

>  <score_type>  (34) 
oracle

>  <origin>  (34) 
adg

>  <m_score__min__energy>  (34) 
-8.3800000000000008

>  <m_primary>  (34) 
energy

$$$$
35:0
     RDKit          3D

 44 46  0  0  0  0  0  0  0  0999 V2000
   -6.3660   25.8710  -28.9580 N   0  0  0  0  0  0  0  0  0  0  0  0
   -5.6760   25.3110  -30.0750 C   0  0  0  0  0  0  0  0  0  0  0  0
   -4.7190   25.9500  -30.5900 O   0  0  0  0  0  0  0  0  0  0  0  0
   -6.0930   24.0260  -30.6720 C   0  0  0  0  0  0  0  0  0  0  0  0
   -7.4040   23.7440  -31.0480 C   0  0  0  0  0  0  0  0  0  0  0  0
   -7.3690   22.4650  -31.5530 C   0  0  0  0  0  0  0  0  0  0  0  0
   -8.3880   21.6960  -32.1060 C   0  0  0  0  0  0  0  0  0  0  0  0
   -8.0570   20.4270  -32.6100 C   0  0  0  0  0  0  0  0  0  0  0  0
   -6.7180   19.9560  -32.5730 C   0  0  0  0  0  0  0  0  0  0  0  0
   -6.3740   18.6230  -33.1280 C   0  0  0  0  0  0  0  0  0  0  0  0
   -7.2480   17.5330  -32.9750 C   0  0  0  0  0  0  0  0  0  0  0  0
   -6.9250   16.3180  -33.4880 N   0  0  0  0  0  0  0  0  0  0  0  0
   -5.7610   16.1070  -34.1550 C   0  0  0  0  0  0  0  0  0  0  0  0
   -4.8510   17.1500  -34.3360 C   0  0  0  0  0  0  0  0  0  0  0  0
   -3.6590   16.8900  -35.0290 O   0  0  0  0  0  0  0  0  0  0  0  0
   -2.4740   16.3740  -34.4290 C   0  0  0  0  0  0  0  0  0  0  0  0
   -1.6570   17.5230  -33.8460 C   0  0  0  0  0  0  0  0  0  0  0  0
   -2.1370   18.7510  -34.3200 O   0  0  0  0  0  0  0  0  0  0  0  0
   -5.1660   18.4180  -33.8160 C   0  0  0  0  0  0  0  0  0  0  0  0
   -5.7100   20.7740  -32.0070 C   0  0  0  0  0  0  0  0  0  0  0  0
   -6.0740   22.0190  -31.4820 C   0  0  0  0  0  0  0  0  0  0  0  0
   -5.2790   22.9650  -30.9330 N   0  0  0  0  0  0  0  0  0  0  0  0
   -3.8480   22.9170  -30.8030 C   0  0  0  0  0  0  0  0  0  0  0  0
   -3.1340   22.7630  -31.8310 O   0  0  0  0  0  0  0  0  0  0  0  0
   -3.1890   23.0470  -29.4600 C   0  0  0  0  0  0  0  0  0  0  0  0
   -2.1150   24.0870  -29.4980 C   0  0  0  0  0  0  0  0  0  0  0  0
   -2.4020   25.3020  -29.3410 O   0  0  0  0  0  0  0  0  0  0  0  0
   -0.7990   23.7180  -29.7480 O   0  0  0  0  0  0  0  0  0  0  0  0
   -7.2750   25.4770  -28.6320 H   0  0  0  0  0  0  0  0  0  0  0  0
   -6.0180   26.7500  -28.5150 H   0  0  0  0  0  0  0  0  0  0  0  0
   -8.2802   24.4032  -30.9600 H   0  0  0  0  0  0  0  0  0  0  0  0
   -9.4216   22.0702  -32.1474 H   0  0  0  0  0  0  0  0  0  0  0  0
   -8.8450   19.7904  -33.0386 H   0  0  0  0  0  0  0  0  0  0  0  0
   -8.1984   17.6648  -32.4370 H   0  0  0  0  0  0  0  0  0  0  0  0
   -5.5338   15.1079  -34.5552 H   0  0  0  0  0  0  0  0  0  0  0  0
   -2.7451   15.6726  -33.6262 H   0  0  0  0  0  0  0  0  0  0  0  0
   -1.8772   15.8486  -35.1891 H   0  0  0  0  0  0  0  0  0  0  0  0
   -1.7337   17.5026  -32.7489 H   0  0  0  0  0  0  0  0  0  0  0  0
   -0.6070   17.4070  -34.1528 H   0  0  0  0  0  0  0  0  0  0  0  0
   -2.8720   18.5440  -34.9550 H   0  0  0  0  0  0  0  0  0  0  0  0
   -4.4632   19.2537  -33.9485 H   0  0  0  0  0  0  0  0  0  0  0  0
   -4.6630   20.4378  -31.9806 H   0  0  0  0  0  0  0  0  0  0  0  0
   -3.9440   23.3344  -28.7134 H   0  0  0  0  0  0  0  0  0  0  0  0
   -2.7369   22.0806  -29.1923 H   0  0  0  0  0  0  0  0  0  0  0  0
  1  2  1  0
  2  3  2  0
  2  4  1  0
  4  5  2  0
  5  6  1  0
  6  7  2  0
  7  8  1  0
  8  9  2  0
  9 10  1  0
 10 11  2  0
 11 12  1  0
 12 13  2  0
 13 14  1  0
 14 15  1  0
 15 16  1  0
 16 17  1  0
 17 18  1  0
 14 19  2  0
  9 20  1  0
 20 21  2  0
 21 22  1  0
 22 23  1  0
 23 24  2  0
 23 25  1  0
 25 26  1  0
 26 27  2  0
 26 28  1  0
 22  4  1  0
 21  6  1  0
 19 10  1  0
  1 29  1  0
  1 30  1  0
  5 31  1  0
  7 32  1  0
  8 33  1  0
 11 34  1  0
 13 35  1  0
 16 36  1  0
 16 37  1  0
 17 38  1  0
 17 39  1  0
 18 40  1  0
 19 41  1  0
 20 42  1  0
 25 43  1  0
 25 44  1  0
M  CHG  1  28  -1
M  END
>  <UniqueID>  (35) 
35

>  <SMILES>  (35) 
NC(=O)c1cc2ccc(-c3cncc(OCCO)c3)cc2n1C(=O)CC(=O)[O-]

>  <Energy>  (35) 
87.71210385113511

>  <Genealogy>  (35) 
NC(=O)c1cc2ccc(-c3cncc(OCCO)c3)cc2n1C(=O)CC(=O)[O-] (protonated)
NC(=O)c1cc2ccc(-c3cncc(OCCO)c3)cc2n1C(=O)CC(=O)[O-] (3D coordinates assigned)
NC(=O)c1cc2ccc(-c3cncc(OCCO)c3)cc2n1C(=O)CC(=O)[O-] (optimized conformer: 87.71210385113511 kcal/mol)

>  <smiles>  (35) 
NC(=O)c1cc2ccc(-c3cncc(OCCO)c3)cc2n1C(=O)CC(=O)O

>  <score_type>  (35) 
oracle

>  <origin>  (35) 
adg

>  <m_score__min__energy>  (35) 
-11.140000000000001

>  <m_primary>  (35) 
energy

$$$$
36:0
     RDKit          3D

 39 40  0  0  0  0  0  0  0  0999 V2000
   -1.6800   24.6040  -28.1660 C   0  0  0  0  0  0  0  0  0  0  0  0
   -2.6850   23.5770  -28.4830 N   0  0  0  0  0  0  0  0  0  0  0  0
   -3.8490   23.6940  -27.5900 C   0  0  0  0  0  0  0  0  0  0  0  0
   -2.1070   22.2520  -28.3740 C   0  0  0  0  0  0  0  0  0  0  0  0
   -1.4040   21.9620  -27.4140 O   0  0  0  0  0  0  0  0  0  0  0  0
   -2.3510   21.2080  -29.4320 C   0  0  0  0  0  0  0  0  0  0  0  0
   -3.6500   21.3730  -29.9910 O   0  0  0  0  0  0  0  0  0  0  0  0
   -3.9870   22.4260  -30.8490 C   0  0  0  0  0  0  0  0  0  0  0  0
   -3.0960   23.0100  -31.5240 O   0  0  0  0  0  0  0  0  0  0  0  0
   -5.3590   22.8240  -30.9770 N   0  0  0  0  0  0  0  0  0  0  0  0
   -5.8820   24.0810  -30.8920 C   0  0  0  0  0  0  0  0  0  0  0  0
   -5.1500   25.3010  -30.4890 C   0  0  0  0  0  0  0  0  0  0  0  0
   -3.7300   25.3010  -30.3770 N   0  0  0  0  0  0  0  0  0  0  0  0
   -5.7930   26.3440  -30.1940 O   0  0  0  0  0  0  0  0  0  0  0  0
   -7.2480   24.0610  -31.1660 C   0  0  0  0  0  0  0  0  0  0  0  0
   -7.5500   22.7420  -31.4190 C   0  0  0  0  0  0  0  0  0  0  0  0
   -8.7600   22.1530  -31.7710 C   0  0  0  0  0  0  0  0  0  0  0  0
   -8.7730   20.7700  -32.0160 C   0  0  0  0  0  0  0  0  0  0  0  0
   -7.5860   20.0010  -31.8960 C   0  0  0  0  0  0  0  0  0  0  0  0
   -7.5940   18.5300  -32.2290 C   0  0  0  0  0  0  0  0  0  0  0  0
   -7.2110   18.3280  -33.5440 F   0  0  0  0  0  0  0  0  0  0  0  0
   -6.7180   17.8370  -31.4120 F   0  0  0  0  0  0  0  0  0  0  0  0
   -8.8690   18.0300  -32.0480 F   0  0  0  0  0  0  0  0  0  0  0  0
   -6.3730   20.6420  -31.5560 C   0  0  0  0  0  0  0  0  0  0  0  0
   -6.3940   22.0170  -31.2970 C   0  0  0  0  0  0  0  0  0  0  0  0
   -1.5858   24.7002  -27.0743 H   0  0  0  0  0  0  0  0  0  0  0  0
   -0.7095   24.3116  -28.5934 H   0  0  0  0  0  0  0  0  0  0  0  0
   -1.9934   25.5679  -28.5934 H   0  0  0  0  0  0  0  0  0  0  0  0
   -3.0140   23.7420  -29.4640 H   0  0  0  0  0  0  0  0  0  0  0  0
   -3.5129   23.6602  -26.5432 H   0  0  0  0  0  0  0  0  0  0  0  0
   -4.3622   24.6483  -27.7797 H   0  0  0  0  0  0  0  0  0  0  0  0
   -4.5419   22.8610  -27.7797 H   0  0  0  0  0  0  0  0  0  0  0  0
   -1.5971   21.3117  -30.2263 H   0  0  0  0  0  0  0  0  0  0  0  0
   -2.2791   20.2095  -28.9762 H   0  0  0  0  0  0  0  0  0  0  0  0
   -3.1250   25.1680  -31.2170 H   0  0  0  0  0  0  0  0  0  0  0  0
   -7.9384   24.9173  -31.1777 H   0  0  0  0  0  0  0  0  0  0  0  0
   -9.6787   22.7521  -31.8549 H   0  0  0  0  0  0  0  0  0  0  0  0
   -9.7134   20.2774  -32.3040 H   0  0  0  0  0  0  0  0  0  0  0  0
   -5.4336   20.0728  -31.4963 H   0  0  0  0  0  0  0  0  0  0  0  0
  1  2  1  0
  2  3  1  0
  2  4  1  0
  4  5  2  0
  4  6  1  0
  6  7  1  0
  7  8  1  0
  8  9  2  0
  8 10  1  0
 10 11  1  0
 11 12  1  0
 12 13  1  0
 12 14  2  0
 11 15  2  0
 15 16  1  0
 16 17  2  0
 17 18  1  0
 18 19  2  0
 19 20  1  0
 20 21  1  0
 20 22  1  0
 20 23  1  0
 19 24  1  0
 24 25  2  0
 25 10  1  0
 25 16  1  0
  1 26  1  0
  1 27  1  0
  1 28  1  0
  2 29  1  0
  3 30  1  0
  3 31  1  0
  3 32  1  0
  6 33  1  0
  6 34  1  0
 13 35  1  0
 15 36  1  0
 17 37  1  0
 18 38  1  0
 24 39  1  0
M  CHG  2   2   1  13  -1
M  END
>  <UniqueID>  (36) 
36

>  <SMILES>  (36) 
C[NH+](C)C(=O)COC(=O)n1c(C([NH-])=O)cc2ccc(C(F)(F)F)cc21

>  <Energy>  (36) 
75.26786088894188

>  <Genealogy>  (36) 
C[NH+](C)C(=O)COC(=O)n1c(C([NH-])=O)cc2ccc(C(F)(F)F)cc21 (protonated)
C[NH+](C)C(=O)COC(=O)n1c(C([NH-])=O)cc2ccc(C(F)(F)F)cc21 (3D coordinates assigned)
C[NH+](C)C(=O)COC(=O)n1c(C([NH-])=O)cc2ccc(C(F)(F)F)cc21 (optimized conformer: 75.26786088894188 kcal/mol)

>  <smiles>  (36) 
CN(C)C(=O)COC(=O)n1c(C(N)=O)cc2ccc(C(F)(F)F)cc21

>  <score_type>  (36) 
oracle

>  <origin>  (36) 
adg

>  <m_score__min__energy>  (36) 
-9.3900000000000006

>  <m_primary>  (36) 
energy

$$$$
37:0
     RDKit          3D

 33 34  0  0  0  0  0  0  0  0999 V2000
   -6.0650   17.0550  -31.5850 C   0  0  0  0  0  0  0  0  0  0  0  0
   -6.7740   17.6700  -33.1470 S   0  0  0  0  0  0  0  0  0  0  0  0
   -7.8020   18.9850  -32.3950 C   0  0  0  0  0  0  0  0  0  0  0  0
   -7.1560   20.3650  -32.5440 C   0  0  0  0  0  0  0  0  0  0  0  0
   -5.7870   20.2550  -33.0520 N   0  0  0  0  0  0  0  0  0  0  0  0
   -4.5980   20.7430  -32.3970 C   0  0  0  0  0  0  0  0  0  0  0  0
   -3.4300   19.9400  -32.4260 C   0  0  0  0  0  0  0  0  0  0  0  0
   -2.2440   20.3600  -31.8030 C   0  0  0  0  0  0  0  0  0  0  0  0
   -2.2530   21.5840  -31.1460 C   0  0  0  0  0  0  0  0  0  0  0  0
   -1.2440   22.2360  -30.4760 C   0  0  0  0  0  0  0  0  0  0  0  0
   -1.8090   23.4240  -30.0200 C   0  0  0  0  0  0  0  0  0  0  0  0
   -1.0890   24.3930  -29.1680 C   0  0  0  0  0  0  0  0  0  0  0  0
   -1.6290   25.6980  -28.9670 N   0  0  0  0  0  0  0  0  0  0  0  0
    0.0160   24.0960  -28.6440 O   0  0  0  0  0  0  0  0  0  0  0  0
   -3.1160   23.5080  -30.4000 N   0  0  0  0  0  0  0  0  0  0  0  0
   -4.0250   24.6000  -30.1830 C   0  0  0  0  0  0  0  0  0  0  0  0
   -3.8870   25.6780  -30.8200 O   0  0  0  0  0  0  0  0  0  0  0  0
   -5.0500   24.4860  -29.2520 O   0  0  0  0  0  0  0  0  0  0  0  0
   -3.3730   22.3720  -31.0880 C   0  0  0  0  0  0  0  0  0  0  0  0
   -4.5610   21.9900  -31.7210 C   0  0  0  0  0  0  0  0  0  0  0  0
   -6.5939   17.5137  -30.7366 H   0  0  0  0  0  0  0  0  0  0  0  0
   -6.1751   15.9615  -31.5378 H   0  0  0  0  0  0  0  0  0  0  0  0
   -4.9981   17.3185  -31.5378 H   0  0  0  0  0  0  0  0  0  0  0  0
   -8.7843   18.9961  -32.8899 H   0  0  0  0  0  0  0  0  0  0  0  0
   -7.9034   18.7685  -31.3213 H   0  0  0  0  0  0  0  0  0  0  0  0
   -7.7522   20.9667  -33.2458 H   0  0  0  0  0  0  0  0  0  0  0  0
   -7.1236   20.8439  -31.5543 H   0  0  0  0  0  0  0  0  0  0  0  0
   -5.6690   19.7180  -33.9410 H   0  0  0  0  0  0  0  0  0  0  0  0
   -3.4534   18.9708  -32.9458 H   0  0  0  0  0  0  0  0  0  0  0  0
   -1.3363   19.7395  -31.8341 H   0  0  0  0  0  0  0  0  0  0  0  0
   -0.2094   21.8916  -30.3311 H   0  0  0  0  0  0  0  0  0  0  0  0
   -2.6610   25.8600  -28.9870 H   0  0  0  0  0  0  0  0  0  0  0  0
   -5.4466   22.6420  -31.6951 H   0  0  0  0  0  0  0  0  0  0  0  0
  1  2  1  0
  2  3  1  0
  3  4  1  0
  4  5  1  0
  5  6  1  0
  6  7  2  0
  7  8  1  0
  8  9  2  0
  9 10  1  0
 10 11  2  0
 11 12  1  0
 12 13  1  0
 12 14  2  0
 11 15  1  0
 15 16  1  0
 16 17  2  0
 16 18  1  0
 15 19  1  0
 19 20  2  0
 20  6  1  0
 19  9  1  0
  1 21  1  0
  1 22  1  0
  1 23  1  0
  3 24  1  0
  3 25  1  0
  4 26  1  0
  4 27  1  0
  5 28  1  0
  7 29  1  0
  8 30  1  0
 10 31  1  0
 13 32  1  0
 20 33  1  0
M  CHG  2  13  -1  18  -1
M  END
>  <UniqueID>  (37) 
37

>  <SMILES>  (37) 
CSCCNc1ccc2cc(C([NH-])=O)n(C(=O)[O-])c2c1

>  <Energy>  (37) 
68.83056473358035

>  <Genealogy>  (37) 
CSCCNc1ccc2cc(C([NH-])=O)n(C(=O)[O-])c2c1 (protonated)
CSCCNc1ccc2cc(C([NH-])=O)n(C(=O)[O-])c2c1 (3D coordinates assigned)
CSCCNc1ccc2cc(C([NH-])=O)n(C(=O)[O-])c2c1 (optimized conformer: 68.83056473358035 kcal/mol)

>  <smiles>  (37) 
CSCCNc1ccc2cc(C(N)=O)n(C(=O)O)c2c1

>  <score_type>  (37) 
oracle

>  <origin>  (37) 
adg

>  <m_score__min__energy>  (37) 
-10.35

>  <m_primary>  (37) 
energy

$$$$
38:0
     RDKit          3D

 44 47  0  0  0  0  0  0  0  0999 V2000
   -0.6600   23.3800  -28.1670 C   0  0  0  0  0  0  0  0  0  0  0  0
   -2.1040   23.5830  -27.8420 C   0  0  0  0  0  0  0  0  0  0  0  0
   -2.5850   24.6270  -27.2080 O   0  0  0  0  0  0  0  0  0  0  0  0
   -3.8800   24.4270  -27.1200 C   0  0  0  0  0  0  0  0  0  0  0  0
   -4.6740   25.2320  -26.5670 O   0  0  0  0  0  0  0  0  0  0  0  0
   -4.2560   23.2960  -27.6710 O   0  0  0  0  0  0  0  0  0  0  0  0
   -3.1610   22.7400  -28.1340 C   0  0  0  0  0  0  0  0  0  0  0  0
   -3.1170   21.4210  -28.8430 C   0  0  0  0  0  0  0  0  0  0  0  0
   -3.3800   21.5990  -30.2320 O   0  0  0  0  0  0  0  0  0  0  0  0
   -3.9500   22.7630  -30.7620 C   0  0  0  0  0  0  0  0  0  0  0  0
   -3.2460   23.7960  -30.9290 O   0  0  0  0  0  0  0  0  0  0  0  0
   -5.3410   22.7760  -31.1190 N   0  0  0  0  0  0  0  0  0  0  0  0
   -6.2510   23.7550  -30.8570 C   0  0  0  0  0  0  0  0  0  0  0  0
   -5.9510   25.0870  -30.2950 C   0  0  0  0  0  0  0  0  0  0  0  0
   -5.8690   25.2940  -28.8840 N   0  0  0  0  0  0  0  0  0  0  0  0
   -5.7090   26.0470  -31.0740 O   0  0  0  0  0  0  0  0  0  0  0  0
   -7.5300   23.3530  -31.2340 C   0  0  0  0  0  0  0  0  0  0  0  0
   -7.3740   22.0880  -31.7530 C   0  0  0  0  0  0  0  0  0  0  0  0
   -8.3240   21.2060  -32.2570 C   0  0  0  0  0  0  0  0  0  0  0  0
   -7.8890   19.9410  -32.6840 C   0  0  0  0  0  0  0  0  0  0  0  0
   -6.5200   19.5760  -32.5930 C   0  0  0  0  0  0  0  0  0  0  0  0
   -6.0790   18.2270  -33.0250 C   0  0  0  0  0  0  0  0  0  0  0  0
   -5.8580   17.2150  -32.0760 C   0  0  0  0  0  0  0  0  0  0  0  0
   -5.4350   15.9510  -32.4840 C   0  0  0  0  0  0  0  0  0  0  0  0
   -5.2390   15.6990  -33.8420 C   0  0  0  0  0  0  0  0  0  0  0  0
   -5.4640   16.6810  -34.7540 N   0  0  0  0  0  0  0  0  0  0  0  0
   -5.8730   17.9240  -34.3860 C   0  0  0  0  0  0  0  0  0  0  0  0
   -6.1120   18.8500  -35.3490 F   0  0  0  0  0  0  0  0  0  0  0  0
   -5.5860   20.4980  -32.0660 C   0  0  0  0  0  0  0  0  0  0  0  0
   -6.0450   21.7610  -31.6700 C   0  0  0  0  0  0  0  0  0  0  0  0
   -0.0822   23.2988  -27.2345 H   0  0  0  0  0  0  0  0  0  0  0  0
   -0.5423   22.4565  -28.7529 H   0  0  0  0  0  0  0  0  0  0  0  0
   -0.2923   24.2353  -28.7529 H   0  0  0  0  0  0  0  0  0  0  0  0
   -2.1200   20.9738  -28.7165 H   0  0  0  0  0  0  0  0  0  0  0  0
   -3.8835   20.7582  -28.4150 H   0  0  0  0  0  0  0  0  0  0  0  0
   -5.6980   26.2510  -28.5050 H   0  0  0  0  0  0  0  0  0  0  0  0
   -5.8970   24.4900  -28.2190 H   0  0  0  0  0  0  0  0  0  0  0  0
   -8.4650   23.9244  -31.1376 H   0  0  0  0  0  0  0  0  0  0  0  0
   -9.3846   21.4909  -32.3193 H   0  0  0  0  0  0  0  0  0  0  0  0
   -8.6168   19.2250  -33.0935 H   0  0  0  0  0  0  0  0  0  0  0  0
   -6.0193   17.4207  -31.0075 H   0  0  0  0  0  0  0  0  0  0  0  0
   -5.2573   15.1591  -31.7415 H   0  0  0  0  0  0  0  0  0  0  0  0
   -4.9025   14.7059  -34.1744 H   0  0  0  0  0  0  0  0  0  0  0  0
   -4.5236   20.2296  -31.9693 H   0  0  0  0  0  0  0  0  0  0  0  0
  1  2  1  0
  2  3  1  0
  3  4  1  0
  4  5  2  0
  4  6  1  0
  6  7  1  0
  7  8  1  0
  8  9  1  0
  9 10  1  0
 10 11  2  0
 10 12  1  0
 12 13  1  0
 13 14  1  0
 14 15  1  0
 14 16  2  0
 13 17  2  0
 17 18  1  0
 18 19  2  0
 19 20  1  0
 20 21  2  0
 21 22  1  0
 22 23  2  0
 23 24  1  0
 24 25  2  0
 25 26  1  0
 26 27  2  0
 27 28  1  0
 21 29  1  0
 29 30  2  0
  7  2  2  0
 30 12  1  0
 30 18  1  0
 27 22  1  0
  1 31  1  0
  1 32  1  0
  1 33  1  0
  8 34  1  0
  8 35  1  0
 15 36  1  0
 15 37  1  0
 17 38  1  0
 19 39  1  0
 20 40  1  0
 23 41  1  0
 24 42  1  0
 25 43  1  0
 29 44  1  0
M  END
>  <UniqueID>  (38) 
38

>  <SMILES>  (38) 
Cc1oc(=O)oc1COC(=O)n1c(C(N)=O)cc2ccc(-c3cccnc3F)cc21

>  <Energy>  (38) 
124.32384551636393

>  <Genealogy>  (38) 
Cc1oc(=O)oc1COC(=O)n1c(C(N)=O)cc2ccc(-c3cccnc3F)cc21 (3D coordinates assigned)
Cc1oc(=O)oc1COC(=O)n1c(C(N)=O)cc2ccc(-c3cccnc3F)cc21 (optimized conformer: 124.32384551636393 kcal/mol)

>  <smiles>  (38) 
Cc1oc(=O)oc1COC(=O)n1c(C(N)=O)cc2ccc(-c3cccnc3F)cc21

>  <score_type>  (38) 
oracle

>  <origin>  (38) 
adg

>  <m_score__min__energy>  (38) 
-10.24

>  <m_primary>  (38) 
energy

$$$$
39:0
     RDKit          3D

 32 33  0  0  0  0  0  0  0  0999 V2000
   -6.1630   25.6640  -29.0720 N   0  0  0  0  0  0  0  0  0  0  0  0
   -5.5890   25.0190  -30.2100 C   0  0  0  0  0  0  0  0  0  0  0  0
   -4.6380   25.5810  -30.8170 O   0  0  0  0  0  0  0  0  0  0  0  0
   -6.1100   23.7190  -30.6910 C   0  0  0  0  0  0  0  0  0  0  0  0
   -7.4620   23.4240  -30.8610 C   0  0  0  0  0  0  0  0  0  0  0  0
   -7.4950   22.1550  -31.3980 C   0  0  0  0  0  0  0  0  0  0  0  0
   -8.5770   21.3570  -31.7500 C   0  0  0  0  0  0  0  0  0  0  0  0
   -8.3120   20.0730  -32.2590 C   0  0  0  0  0  0  0  0  0  0  0  0
   -6.9780   19.6170  -32.4200 C   0  0  0  0  0  0  0  0  0  0  0  0
   -6.7070   18.2180  -32.9100 C   0  0  0  0  0  0  0  0  0  0  0  0
   -7.8000   17.3990  -32.6770 F   0  0  0  0  0  0  0  0  0  0  0  0
   -5.6140   17.6740  -32.2580 F   0  0  0  0  0  0  0  0  0  0  0  0
   -6.4520   18.2530  -34.2670 F   0  0  0  0  0  0  0  0  0  0  0  0
   -5.9050   20.4520  -32.0280 C   0  0  0  0  0  0  0  0  0  0  0  0
   -6.2010   21.7270  -31.5360 C   0  0  0  0  0  0  0  0  0  0  0  0
   -5.3420   22.6720  -31.1050 N   0  0  0  0  0  0  0  0  0  0  0  0
   -3.9140   22.5490  -31.0470 C   0  0  0  0  0  0  0  0  0  0  0  0
   -3.2290   22.7300  -32.0880 O   0  0  0  0  0  0  0  0  0  0  0  0
   -3.2410   22.0900  -29.7870 C   0  0  0  0  0  0  0  0  0  0  0  0
   -2.2310   23.1360  -29.3150 C   0  0  0  0  0  0  0  0  0  0  0  0
   -2.6410   24.4180  -29.7090 O   0  0  0  0  0  0  0  0  0  0  0  0
   -6.9070   25.2050  -28.5020 H   0  0  0  0  0  0  0  0  0  0  0  0
   -5.8090   26.5970  -28.7660 H   0  0  0  0  0  0  0  0  0  0  0  0
   -8.3204   24.0676  -30.6181 H   0  0  0  0  0  0  0  0  0  0  0  0
   -9.6093   21.7187  -31.6340 H   0  0  0  0  0  0  0  0  0  0  0  0
   -9.1486   19.4145  -32.5355 H   0  0  0  0  0  0  0  0  0  0  0  0
   -4.8637   20.1067  -32.1083 H   0  0  0  0  0  0  0  0  0  0  0  0
   -3.9994   21.9386  -29.0047 H   0  0  0  0  0  0  0  0  0  0  0  0
   -2.7126   21.1461  -29.9865 H   0  0  0  0  0  0  0  0  0  0  0  0
   -2.1561   23.0996  -28.2182 H   0  0  0  0  0  0  0  0  0  0  0  0
   -1.2516   22.9182  -29.7659 H   0  0  0  0  0  0  0  0  0  0  0  0
   -2.8550   24.3630  -30.6770 H   0  0  0  0  0  0  0  0  0  0  0  0
  1  2  1  0
  2  3  2  0
  2  4  1  0
  4  5  2  0
  5  6  1  0
  6  7  2  0
  7  8  1  0
  8  9  2  0
  9 10  1  0
 10 11  1  0
 10 12  1  0
 10 13  1  0
  9 14  1  0
 14 15  2  0
 15 16  1  0
 16 17  1  0
 17 18  2  0
 17 19  1  0
 19 20  1  0
 20 21  1  0
 16  4  1  0
 15  6  1  0
  1 22  1  0
  1 23  1  0
  5 24  1  0
  7 25  1  0
  8 26  1  0
 14 27  1  0
 19 28  1  0
 19 29  1  0
 20 30  1  0
 20 31  1  0
 21 32  1  0
M  END
>  <UniqueID>  (39) 
39

>  <SMILES>  (39) 
NC(=O)c1cc2ccc(C(F)(F)F)cc2n1C(=O)CCO

>  <Energy>  (39) 
68.88707356521293

>  <Genealogy>  (39) 
NC(=O)c1cc2ccc(C(F)(F)F)cc2n1C(=O)CCO (3D coordinates assigned)
NC(=O)c1cc2ccc(C(F)(F)F)cc2n1C(=O)CCO (optimized conformer: 68.88707356521293 kcal/mol)

>  <smiles>  (39) 
NC(=O)c1cc2ccc(C(F)(F)F)cc2n1C(=O)CCO

>  <score_type>  (39) 
oracle

>  <origin>  (39) 
adg

>  <m_score__min__energy>  (39) 
-7.3099999999999996

>  <m_primary>  (39) 
energy

$$$$
40:0
     RDKit          3D

 48 49  0  0  0  0  0  0  0  0999 V2000
   -2.7350   18.5580  -32.9220 C   0  0  0  0  0  0  0  0  0  0  0  0
   -2.5190   19.5840  -33.9580 N   0  0  0  0  0  0  0  0  0  0  0  0
   -1.0790   19.7100  -34.2340 C   0  0  0  0  0  0  0  0  0  0  0  0
   -3.0870   20.8850  -33.5430 C   0  0  0  0  0  0  0  0  0  0  0  0
   -2.2160   21.5480  -32.4690 C   0  0  0  0  0  0  0  0  0  0  0  0
   -2.8520   21.4540  -31.1600 N   0  0  0  0  0  0  0  0  0  0  0  0
   -3.5930   22.5170  -30.5510 C   0  0  0  0  0  0  0  0  0  0  0  0
   -3.0510   23.2520  -29.6810 O   0  0  0  0  0  0  0  0  0  0  0  0
   -4.9610   22.7360  -30.9210 N   0  0  0  0  0  0  0  0  0  0  0  0
   -5.6830   23.8870  -30.8120 C   0  0  0  0  0  0  0  0  0  0  0  0
   -5.1580   25.2100  -30.4140 C   0  0  0  0  0  0  0  0  0  0  0  0
   -3.8650   25.6430  -30.8330 N   0  0  0  0  0  0  0  0  0  0  0  0
   -5.8760   25.9870  -29.7300 O   0  0  0  0  0  0  0  0  0  0  0  0
   -7.0060   23.6700  -31.1970 C   0  0  0  0  0  0  0  0  0  0  0  0
   -7.0690   22.3420  -31.5530 C   0  0  0  0  0  0  0  0  0  0  0  0
   -8.1460   21.5880  -32.0000 C   0  0  0  0  0  0  0  0  0  0  0  0
   -7.9320   20.2240  -32.2630 C   0  0  0  0  0  0  0  0  0  0  0  0
   -6.6540   19.6290  -32.0700 C   0  0  0  0  0  0  0  0  0  0  0  0
   -6.4450   18.2140  -32.3260 N   0  0  0  0  0  0  0  0  0  0  0  0
   -6.1580   17.2980  -31.2150 C   0  0  0  0  0  0  0  0  0  0  0  0
   -6.4960   17.6630  -33.6920 C   0  0  0  0  0  0  0  0  0  0  0  0
   -5.7230   18.5390  -34.6870 C   0  0  0  0  0  0  0  0  0  0  0  0
   -4.6810   17.8220  -35.2910 O   0  0  0  0  0  0  0  0  0  0  0  0
   -5.5870   20.4410  -31.6070 C   0  0  0  0  0  0  0  0  0  0  0  0
   -5.8240   21.8000  -31.3760 C   0  0  0  0  0  0  0  0  0  0  0  0
   -2.6386   19.0161  -31.9266 H   0  0  0  0  0  0  0  0  0  0  0  0
   -3.7427   18.1312  -33.0331 H   0  0  0  0  0  0  0  0  0  0  0  0
   -1.9849   17.7611  -33.0331 H   0  0  0  0  0  0  0  0  0  0  0  0
   -0.5264   19.7583  -33.2841 H   0  0  0  0  0  0  0  0  0  0  0  0
   -0.7388   18.8382  -34.8121 H   0  0  0  0  0  0  0  0  0  0  0  0
   -0.8954   20.6276  -34.8121 H   0  0  0  0  0  0  0  0  0  0  0  0
   -3.1448   21.5480  -34.4189 H   0  0  0  0  0  0  0  0  0  0  0  0
   -4.0891   20.7119  -33.1236 H   0  0  0  0  0  0  0  0  0  0  0  0
   -1.2395   21.0428  -32.4333 H   0  0  0  0  0  0  0  0  0  0  0  0
   -2.0867   22.6101  -32.7242 H   0  0  0  0  0  0  0  0  0  0  0  0
   -3.0030   25.2850  -30.3670 H   0  0  0  0  0  0  0  0  0  0  0  0
   -7.8249   24.4042  -31.2127 H   0  0  0  0  0  0  0  0  0  0  0  0
   -9.1365   22.0443  -32.1439 H   0  0  0  0  0  0  0  0  0  0  0  0
   -8.7670   19.6058  -32.6243 H   0  0  0  0  0  0  0  0  0  0  0  0
   -6.3210   17.8181  -30.2595 H   0  0  0  0  0  0  0  0  0  0  0  0
   -6.8261   16.4263  -31.2766 H   0  0  0  0  0  0  0  0  0  0  0  0
   -5.1120   16.9634  -31.2766 H   0  0  0  0  0  0  0  0  0  0  0  0
   -6.0547   16.6554  -33.6866 H   0  0  0  0  0  0  0  0  0  0  0  0
   -7.5487   17.6308  -34.0095 H   0  0  0  0  0  0  0  0  0  0  0  0
   -6.4143   18.8922  -35.4664 H   0  0  0  0  0  0  0  0  0  0  0  0
   -5.2892   19.3885  -34.1391 H   0  0  0  0  0  0  0  0  0  0  0  0
   -3.8480   18.3390  -35.1330 H   0  0  0  0  0  0  0  0  0  0  0  0
   -4.5904   20.0093  -31.4326 H   0  0  0  0  0  0  0  0  0  0  0  0
  1  2  1  0
  2  3  1  0
  2  4  1  0
  4  5  1  0
  5  6  1  0
  6  7  1  0
  7  8  2  0
  7  9  1  0
  9 10  1  0
 10 11  1  0
 11 12  1  0
 11 13  2  0
 10 14  2  0
 14 15  1  0
 15 16  2  0
 16 17  1  0
 17 18  2  0
 18 19  1  0
 19 20  1  0
 19 21  1  0
 21 22  1  0
 22 23  1  0
 18 24  1  0
 24 25  2  0
 25  9  1  0
 25 15  1  0
  1 26  1  0
  1 27  1  0
  1 28  1  0
  3 29  1  0
  3 30  1  0
  3 31  1  0
  4 32  1  0
  4 33  1  0
  5 34  1  0
  5 35  1  0
 12 36  1  0
 14 37  1  0
 16 38  1  0
 17 39  1  0
 20 40  1  0
 20 41  1  0
 20 42  1  0
 21 43  1  0
 21 44  1  0
 22 45  1  0
 22 46  1  0
 23 47  1  0
 24 48  1  0
M  CHG  2   6  -1  12  -1
M  END
>  <UniqueID>  (40) 
40

>  <SMILES>  (40) 
CN(C)CC[N-]C(=O)n1c(C([NH-])=O)cc2ccc(N(C)CCO)cc21

>  <Energy>  (40) 
83.94887303521429

>  <Genealogy>  (40) 
CN(C)CC[N-]C(=O)n1c(C([NH-])=O)cc2ccc(N(C)CCO)cc21 (protonated)
CN(C)CC[N-]C(=O)n1c(C([NH-])=O)cc2ccc(N(C)CCO)cc21 (3D coordinates assigned)
CN(C)CC[N-]C(=O)n1c(C([NH-])=O)cc2ccc(N(C)CCO)cc21 (optimized conformer: 83.94887303521429 kcal/mol)

>  <smiles>  (40) 
CN(C)CCNC(=O)n1c(C(N)=O)cc2ccc(N(C)CCO)cc21

>  <score_type>  (40) 
oracle

>  <origin>  (40) 
adg

>  <m_score__min__energy>  (40) 
-10.609999999999999

>  <m_primary>  (40) 
energy

$$$$
41:0
     RDKit          3D

 34 36  0  0  0  0  0  0  0  0999 V2000
   -4.2610   13.0490  -34.7380 C   0  0  0  0  0  0  0  0  0  0  0  0
   -5.2480   14.0940  -34.4940 N   0  0  0  0  0  0  0  0  0  0  0  0
   -4.9890   15.3380  -34.0480 C   0  0  0  0  0  0  0  0  0  0  0  0
   -6.1980   15.9780  -33.8680 C   0  0  0  0  0  0  0  0  0  0  0  0
   -6.4040   17.3180  -33.3940 C   0  0  0  0  0  0  0  0  0  0  0  0
   -6.5760   18.4430  -32.9960 C   0  0  0  0  0  0  0  0  0  0  0  0
   -6.7800   19.7860  -32.5190 C   0  0  0  0  0  0  0  0  0  0  0  0
   -8.0900   20.3070  -32.4250 C   0  0  0  0  0  0  0  0  0  0  0  0
   -8.3020   21.6210  -31.9750 C   0  0  0  0  0  0  0  0  0  0  0  0
   -7.1880   22.3770  -31.6220 C   0  0  0  0  0  0  0  0  0  0  0  0
   -7.1040   23.6790  -31.1840 C   0  0  0  0  0  0  0  0  0  0  0  0
   -5.7450   23.9190  -30.9950 C   0  0  0  0  0  0  0  0  0  0  0  0
   -5.2150   25.1840  -30.4430 C   0  0  0  0  0  0  0  0  0  0  0  0
   -3.9290   25.6680  -30.8210 N   0  0  0  0  0  0  0  0  0  0  0  0
   -5.8860   25.8200  -29.5870 O   0  0  0  0  0  0  0  0  0  0  0  0
   -5.0130   22.8120  -31.3140 N   0  0  0  0  0  0  0  0  0  0  0  0
   -3.5840   22.6770  -31.3390 C   0  0  0  0  0  0  0  0  0  0  0  0
   -2.8840   23.1440  -30.4020 O   0  0  0  0  0  0  0  0  0  0  0  0
   -2.9570   22.0520  -32.4090 O   0  0  0  0  0  0  0  0  0  0  0  0
   -5.9120   21.8760  -31.6930 C   0  0  0  0  0  0  0  0  0  0  0  0
   -5.6720   20.5770  -32.1570 C   0  0  0  0  0  0  0  0  0  0  0  0
   -7.1710   15.0600  -34.2080 C   0  0  0  0  0  0  0  0  0  0  0  0
   -6.5580   13.9200  -34.5780 N   0  0  0  0  0  0  0  0  0  0  0  0
   -3.8936   12.6600  -33.7769 H   0  0  0  0  0  0  0  0  0  0  0  0
   -4.7253   12.2326  -35.3106 H   0  0  0  0  0  0  0  0  0  0  0  0
   -3.4194   13.4660  -35.3106 H   0  0  0  0  0  0  0  0  0  0  0  0
   -3.9933   15.7665  -33.8610 H   0  0  0  0  0  0  0  0  0  0  0  0
   -8.9491   19.6800  -32.7058 H   0  0  0  0  0  0  0  0  0  0  0  0
   -9.3169   22.0393  -31.9039 H   0  0  0  0  0  0  0  0  0  0  0  0
   -7.9342   24.3813  -31.0183 H   0  0  0  0  0  0  0  0  0  0  0  0
   -3.0620   25.2950  -30.3750 H   0  0  0  0  0  0  0  0  0  0  0  0
   -4.6472   20.1852  -32.2366 H   0  0  0  0  0  0  0  0  0  0  0  0
   -8.2574   15.2302  -34.1813 H   0  0  0  0  0  0  0  0  0  0  0  0
   -7.0280   13.0340  -34.8720 H   0  0  0  0  0  0  0  0  0  0  0  0
  1  2  1  0
  2  3  1  0
  3  4  2  0
  4  5  1  0
  5  6  3  0
  6  7  1  0
  7  8  2  0
  8  9  1  0
  9 10  2  0
 10 11  1  0
 11 12  2  0
 12 13  1  0
 13 14  1  0
 13 15  2  0
 12 16  1  0
 16 17  1  0
 17 18  2  0
 17 19  1  0
 16 20  1  0
 20 21  2  0
  4 22  1  0
 22 23  2  0
 23  2  1  0
 21  7  1  0
 20 10  1  0
  1 24  1  0
  1 25  1  0
  1 26  1  0
  3 27  1  0
  8 28  1  0
  9 29  1  0
 11 30  1  0
 14 31  1  0
 21 32  1  0
 22 33  1  0
 23 34  1  0
M  CHG  3  14  -1  19  -1  23   1
M  END
>  <UniqueID>  (41) 
41

>  <SMILES>  (41) 
Cn1cc(C#Cc2ccc3cc(C([NH-])=O)n(C(=O)[O-])c3c2)c[nH+]1

>  <Energy>  (41) 
102.4269061078762

>  <Genealogy>  (41) 
Cn1cc(C#Cc2ccc3cc(C([NH-])=O)n(C(=O)[O-])c3c2)c[nH+]1 (protonated)
Cn1cc(C#Cc2ccc3cc(C([NH-])=O)n(C(=O)[O-])c3c2)c[nH+]1 (3D coordinates assigned)
Cn1cc(C#Cc2ccc3cc(C([NH-])=O)n(C(=O)[O-])c3c2)c[nH+]1 (optimized conformer: 102.4269061078762 kcal/mol)

>  <smiles>  (41) 
Cn1cc(C#Cc2ccc3cc(C(N)=O)n(C(=O)O)c3c2)cn1

>  <score_type>  (41) 
oracle

>  <origin>  (41) 
adg

>  <m_score__min__energy>  (41) 
-10.69

>  <m_primary>  (41) 
energy

$$$$
42:0
     RDKit          3D

 47 49  0  0  0  0  0  0  0  0999 V2000
   -6.4910   16.9110  -34.3000 C   0  0  0  0  0  0  0  0  0  0  0  0
   -5.9290   18.2220  -33.8730 C   0  0  0  0  0  0  0  0  0  0  0  0
   -6.4470   19.4180  -34.2160 N   0  0  0  0  0  0  0  0  0  0  0  0
   -5.6750   20.3310  -33.6480 N   0  0  0  0  0  0  0  0  0  0  0  0
   -4.7160   19.6570  -32.9780 C   0  0  0  0  0  0  0  0  0  0  0  0
   -3.6340   20.2940  -32.2030 C   0  0  0  0  0  0  0  0  0  0  0  0
   -2.3780   19.6490  -32.0570 C   0  0  0  0  0  0  0  0  0  0  0  0
   -1.3510   20.2430  -31.3030 C   0  0  0  0  0  0  0  0  0  0  0  0
   -1.6040   21.4770  -30.7120 C   0  0  0  0  0  0  0  0  0  0  0  0
   -0.7990   22.2600  -29.9150 C   0  0  0  0  0  0  0  0  0  0  0  0
   -1.5700   23.3790  -29.5990 C   0  0  0  0  0  0  0  0  0  0  0  0
   -1.0640   24.5510  -28.8540 C   0  0  0  0  0  0  0  0  0  0  0  0
   -1.9570   25.5690  -28.3920 N   0  0  0  0  0  0  0  0  0  0  0  0
    0.1640   24.6490  -28.5910 O   0  0  0  0  0  0  0  0  0  0  0  0
   -2.8040   23.2830  -30.1700 N   0  0  0  0  0  0  0  0  0  0  0  0
   -3.9200   24.1770  -30.0140 C   0  0  0  0  0  0  0  0  0  0  0  0
   -3.8930   25.3130  -30.5620 O   0  0  0  0  0  0  0  0  0  0  0  0
   -5.1500   23.7490  -29.2630 C   0  0  0  0  0  0  0  0  0  0  0  0
   -6.4060   23.7760  -30.1480 C   0  0  0  0  0  0  0  0  0  0  0  0
   -7.0310   22.3860  -30.3780 C   0  0  0  0  0  0  0  0  0  0  0  0
   -7.4860   22.2040  -31.7750 N   0  0  0  0  0  0  0  0  0  0  0  0
   -7.1650   23.4020  -32.5690 C   0  0  0  0  0  0  0  0  0  0  0  0
   -8.9390   21.9550  -31.8340 C   0  0  0  0  0  0  0  0  0  0  0  0
   -2.8060   22.1190  -30.8540 C   0  0  0  0  0  0  0  0  0  0  0  0
   -3.8500   21.5490  -31.5920 C   0  0  0  0  0  0  0  0  0  0  0  0
   -4.8700   18.3610  -33.1130 O   0  0  0  0  0  0  0  0  0  0  0  0
   -6.7466   16.3148  -33.4116 H   0  0  0  0  0  0  0  0  0  0  0  0
   -7.3963   17.0787  -34.9019 H   0  0  0  0  0  0  0  0  0  0  0  0
   -5.7453   16.3710  -34.9019 H   0  0  0  0  0  0  0  0  0  0  0  0
   -2.2067   18.6749  -32.5385 H   0  0  0  0  0  0  0  0  0  0  0  0
   -0.3764   19.7471  -31.1838 H   0  0  0  0  0  0  0  0  0  0  0  0
    0.2321   22.0483  -29.5956 H   0  0  0  0  0  0  0  0  0  0  0  0
   -1.5920   26.3720  -27.8330 H   0  0  0  0  0  0  0  0  0  0  0  0
   -2.9740   25.5450  -28.6250 H   0  0  0  0  0  0  0  0  0  0  0  0
   -5.0001   22.7247  -28.8911 H   0  0  0  0  0  0  0  0  0  0  0  0
   -5.3041   24.4558  -28.4343 H   0  0  0  0  0  0  0  0  0  0  0  0
   -7.1570   24.4191  -29.6659 H   0  0  0  0  0  0  0  0  0  0  0  0
   -6.0976   24.1571  -31.1327 H   0  0  0  0  0  0  0  0  0  0  0  0
   -6.2797   21.6166  -30.1466 H   0  0  0  0  0  0  0  0  0  0  0  0
   -7.9091   22.2967  -29.7215 H   0  0  0  0  0  0  0  0  0  0  0  0
   -6.9404   24.2404  -31.8933 H   0  0  0  0  0  0  0  0  0  0  0  0
   -6.2899   23.1978  -33.2034 H   0  0  0  0  0  0  0  0  0  0  0  0
   -8.0250   23.6627  -33.2034 H   0  0  0  0  0  0  0  0  0  0  0  0
   -9.3410   21.8861  -30.8124 H   0  0  0  0  0  0  0  0  0  0  0  0
   -9.4314   22.7819  -32.3668 H   0  0  0  0  0  0  0  0  0  0  0  0
   -9.1280   21.0114  -32.3668 H   0  0  0  0  0  0  0  0  0  0  0  0
   -4.8155   22.0661  -31.6937 H   0  0  0  0  0  0  0  0  0  0  0  0
  1  2  1  0
  2  3  2  0
  3  4  1  0
  4  5  2  0
  5  6  1  0
  6  7  2  0
  7  8  1  0
  8  9  2  0
  9 10  1  0
 10 11  2  0
 11 12  1  0
 12 13  1  0
 12 14  2  0
 11 15  1  0
 15 16  1  0
 16 17  2  0
 16 18  1  0
 18 19  1  0
 19 20  1  0
 20 21  1  0
 21 22  1  0
 21 23  1  0
 15 24  1  0
 24 25  2  0
  5 26  1  0
 26  2  1  0
 25  6  1  0
 24  9  1  0
  1 27  1  0
  1 28  1  0
  1 29  1  0
  7 30  1  0
  8 31  1  0
 10 32  1  0
 13 33  1  0
 13 34  1  0
 18 35  1  0
 18 36  1  0
 19 37  1  0
 19 38  1  0
 20 39  1  0
 20 40  1  0
 22 41  1  0
 22 42  1  0
 22 43  1  0
 23 44  1  0
 23 45  1  0
 23 46  1  0
 25 47  1  0
M  END
>  <UniqueID>  (42) 
42

>  <SMILES>  (42) 
Cc1nnc(-c2ccc3cc(C(N)=O)n(C(=O)CCCN(C)C)c3c2)o1

>  <Energy>  (42) 
115.34590882635253

>  <Genealogy>  (42) 
Cc1nnc(-c2ccc3cc(C(N)=O)n(C(=O)CCCN(C)C)c3c2)o1 (3D coordinates assigned)
Cc1nnc(-c2ccc3cc(C(N)=O)n(C(=O)CCCN(C)C)c3c2)o1 (optimized conformer: 115.34590882635253 kcal/mol)

>  <smiles>  (42) 
Cc1nnc(-c2ccc3cc(C(N)=O)n(C(=O)CCCN(C)C)c3c2)o1

>  <score_type>  (42) 
oracle

>  <origin>  (42) 
adg

>  <m_score__min__energy>  (42) 
-9.3000000000000007

>  <m_primary>  (42) 
energy

$$$$
43:0
     RDKit          3D

 27 28  0  0  0  0  0  0  0  0999 V2000
   -3.8700   25.6040  -30.8460 N   0  0  0  0  0  0  0  0  0  0  0  0
   -5.2000   25.2800  -30.4490 C   0  0  0  0  0  0  0  0  0  0  0  0
   -5.8320   26.0750  -29.7050 O   0  0  0  0  0  0  0  0  0  0  0  0
   -5.8130   24.0120  -30.8950 C   0  0  0  0  0  0  0  0  0  0  0  0
   -7.1800   23.8440  -31.1120 C   0  0  0  0  0  0  0  0  0  0  0  0
   -7.3230   22.5470  -31.5510 C   0  0  0  0  0  0  0  0  0  0  0  0
   -8.4710   21.8380  -31.8930 C   0  0  0  0  0  0  0  0  0  0  0  0
   -8.3260   20.4950  -32.2790 C   0  0  0  0  0  0  0  0  0  0  0  0
   -7.0440   19.8910  -32.3190 C   0  0  0  0  0  0  0  0  0  0  0  0
   -6.9070   18.4430  -32.6870 C   0  0  0  0  0  0  0  0  0  0  0  0
   -6.0080   18.2950  -34.2170 Cl  0  0  0  0  0  0  0  0  0  0  0  0
   -5.9030   20.6380  -31.9510 C   0  0  0  0  0  0  0  0  0  0  0  0
   -6.0760   21.9770  -31.5870 C   0  0  0  0  0  0  0  0  0  0  0  0
   -5.1390   22.8640  -31.1920 N   0  0  0  0  0  0  0  0  0  0  0  0
   -3.7310   22.6190  -31.0500 C   0  0  0  0  0  0  0  0  0  0  0  0
   -3.1030   23.1410  -30.0900 O   0  0  0  0  0  0  0  0  0  0  0  0
   -2.9900   21.7570  -32.0270 C   0  0  0  0  0  0  0  0  0  0  0  0
   -3.1050   20.4200  -31.6860 F   0  0  0  0  0  0  0  0  0  0  0  0
   -1.6540   22.1110  -32.0380 F   0  0  0  0  0  0  0  0  0  0  0  0
   -3.5160   21.9400  -33.2920 F   0  0  0  0  0  0  0  0  0  0  0  0
   -3.0500   25.2990  -30.2760 H   0  0  0  0  0  0  0  0  0  0  0  0
   -7.9753   24.5894  -30.9639 H   0  0  0  0  0  0  0  0  0  0  0  0
   -9.4618   22.3148  -31.8620 H   0  0  0  0  0  0  0  0  0  0  0  0
   -9.2146   19.9072  -32.5525 H   0  0  0  0  0  0  0  0  0  0  0  0
   -6.3635   17.9132  -31.8908 H   0  0  0  0  0  0  0  0  0  0  0  0
   -7.9073   18.0017  -32.8081 H   0  0  0  0  0  0  0  0  0  0  0  0
   -4.9038   20.1781  -31.9508 H   0  0  0  0  0  0  0  0  0  0  0  0
  1  2  1  0
  2  3  2  0
  2  4  1  0
  4  5  2  0
  5  6  1  0
  6  7  2  0
  7  8  1  0
  8  9  2  0
  9 10  1  0
 10 11  1  0
  9 12  1  0
 12 13  2  0
 13 14  1  0
 14 15  1  0
 15 16  2  0
 15 17  1  0
 17 18  1  0
 17 19  1  0
 17 20  1  0
 14  4  1  0
 13  6  1  0
  1 21  1  0
  5 22  1  0
  7 23  1  0
  8 24  1  0
 10 25  1  0
 10 26  1  0
 12 27  1  0
M  CHG  1   1  -1
M  END
>  <UniqueID>  (43) 
43

>  <SMILES>  (43) 
[NH-]C(=O)c1cc2ccc(CCl)cc2n1C(=O)C(F)(F)F

>  <Energy>  (43) 
65.48004624158739

>  <Genealogy>  (43) 
[NH-]C(=O)c1cc2ccc(CCl)cc2n1C(=O)C(F)(F)F (protonated)
[NH-]C(=O)c1cc2ccc(CCl)cc2n1C(=O)C(F)(F)F (3D coordinates assigned)
[NH-]C(=O)c1cc2ccc(CCl)cc2n1C(=O)C(F)(F)F (optimized conformer: 65.48004624158739 kcal/mol)

>  <smiles>  (43) 
NC(=O)c1cc2ccc(CCl)cc2n1C(=O)C(F)(F)F

>  <score_type>  (43) 
oracle

>  <origin>  (43) 
adg

>  <m_score__min__energy>  (43) 
-9.6099999999999994

>  <m_primary>  (43) 
energy

$$$$
44:0
     RDKit          3D

 36 37  0  0  0  0  0  0  0  0999 V2000
   -3.8630   25.3620  -30.8120 N   0  0  0  0  0  0  0  0  0  0  0  0
   -5.2460   25.1530  -30.5380 C   0  0  0  0  0  0  0  0  0  0  0  0
   -5.9070   26.0640  -29.9720 O   0  0  0  0  0  0  0  0  0  0  0  0
   -5.9260   23.9100  -30.9570 C   0  0  0  0  0  0  0  0  0  0  0  0
   -7.3080   23.8050  -31.1100 C   0  0  0  0  0  0  0  0  0  0  0  0
   -7.5250   22.5350  -31.5940 C   0  0  0  0  0  0  0  0  0  0  0  0
   -8.7160   21.8960  -31.9200 C   0  0  0  0  0  0  0  0  0  0  0  0
   -8.6480   20.5670  -32.3750 C   0  0  0  0  0  0  0  0  0  0  0  0
   -7.3980   19.9010  -32.4860 C   0  0  0  0  0  0  0  0  0  0  0  0
   -7.3050   18.5350  -32.9380 N   0  0  0  0  0  0  0  0  0  0  0  0
   -6.4570   17.5150  -32.3210 C   0  0  0  0  0  0  0  0  0  0  0  0
   -6.1950   16.4010  -33.2850 C   0  0  0  0  0  0  0  0  0  0  0  0
   -5.3720   15.4920  -32.9950 O   0  0  0  0  0  0  0  0  0  0  0  0
   -6.8830   16.3460  -34.4910 O   0  0  0  0  0  0  0  0  0  0  0  0
   -6.2130   20.5900  -32.1470 C   0  0  0  0  0  0  0  0  0  0  0  0
   -6.3090   21.9170  -31.7150 C   0  0  0  0  0  0  0  0  0  0  0  0
   -5.3160   22.7460  -31.3230 N   0  0  0  0  0  0  0  0  0  0  0  0
   -3.9210   22.4180  -31.2410 C   0  0  0  0  0  0  0  0  0  0  0  0
   -3.1640   22.6450  -32.2240 O   0  0  0  0  0  0  0  0  0  0  0  0
   -3.4050   21.8790  -30.0570 O   0  0  0  0  0  0  0  0  0  0  0  0
   -3.5920   22.4660  -28.7700 C   0  0  0  0  0  0  0  0  0  0  0  0
   -2.6510   23.6520  -28.5710 C   0  0  0  0  0  0  0  0  0  0  0  0
   -1.8510   23.8310  -29.7060 O   0  0  0  0  0  0  0  0  0  0  0  0
   -3.2640   24.5860  -31.1710 H   0  0  0  0  0  0  0  0  0  0  0  0
   -8.0638   24.5735  -30.8906 H   0  0  0  0  0  0  0  0  0  0  0  0
   -9.6817   22.4140  -31.8250 H   0  0  0  0  0  0  0  0  0  0  0  0
   -9.5727   20.0374  -32.6479 H   0  0  0  0  0  0  0  0  0  0  0  0
   -7.8780   18.2430  -33.7630 H   0  0  0  0  0  0  0  0  0  0  0  0
   -5.5005   17.9700  -32.0243 H   0  0  0  0  0  0  0  0  0  0  0  0
   -6.9725   17.1089  -31.4382 H   0  0  0  0  0  0  0  0  0  0  0  0
   -5.2343   20.0933  -32.2211 H   0  0  0  0  0  0  0  0  0  0  0  0
   -4.6322   22.8122  -28.6796 H   0  0  0  0  0  0  0  0  0  0  0  0
   -3.3713   21.7093  -28.0028 H   0  0  0  0  0  0  0  0  0  0  0  0
   -3.2447   24.5617  -28.3979 H   0  0  0  0  0  0  0  0  0  0  0  0
   -2.0039   23.4548  -27.7036 H   0  0  0  0  0  0  0  0  0  0  0  0
   -2.4620   23.7680  -30.4860 H   0  0  0  0  0  0  0  0  0  0  0  0
  1  2  1  0
  2  3  2  0
  2  4  1  0
  4  5  2  0
  5  6  1  0
  6  7  2  0
  7  8  1  0
  8  9  2  0
  9 10  1  0
 10 11  1  0
 11 12  1  0
 12 13  2  0
 12 14  1  0
  9 15  1  0
 15 16  2  0
 16 17  1  0
 17 18  1  0
 18 19  2  0
 18 20  1  0
 20 21  1  0
 21 22  1  0
 22 23  1  0
 17  4  1  0
 16  6  1  0
  1 24  1  0
  5 25  1  0
  7 26  1  0
  8 27  1  0
 10 28  1  0
 11 29  1  0
 11 30  1  0
 15 31  1  0
 21 32  1  0
 21 33  1  0
 22 34  1  0
 22 35  1  0
 23 36  1  0
M  CHG  2   1  -1  14  -1
M  END
>  <UniqueID>  (44) 
44

>  <SMILES>  (44) 
[NH-]C(=O)c1cc2ccc(NCC(=O)[O-])cc2n1C(=O)OCCO

>  <Energy>  (44) 
70.92425975254949

>  <Genealogy>  (44) 
[NH-]C(=O)c1cc2ccc(NCC(=O)[O-])cc2n1C(=O)OCCO (protonated)
[NH-]C(=O)c1cc2ccc(NCC(=O)[O-])cc2n1C(=O)OCCO (3D coordinates assigned)
[NH-]C(=O)c1cc2ccc(NCC(=O)[O-])cc2n1C(=O)OCCO (optimized conformer: 70.92425975254949 kcal/mol)

>  <smiles>  (44) 
NC(=O)c1cc2ccc(NCC(=O)O)cc2n1C(=O)OCCO

>  <score_type>  (44) 
oracle

>  <origin>  (44) 
adg

>  <m_score__min__energy>  (44) 
-9.6300000000000008

>  <m_primary>  (44) 
energy

$$$$
45:0
     RDKit          3D

 35 37  0  0  0  0  0  0  0  0999 V2000
   -1.0260   22.4920  -26.3430 C   0  0  0  0  0  0  0  0  0  0  0  0
   -1.9370   22.2410  -27.5010 C   0  0  0  0  0  0  0  0  0  0  0  0
   -2.8300   21.2350  -27.5380 N   0  0  0  0  0  0  0  0  0  0  0  0
   -3.4690   21.3330  -28.6680 O   0  0  0  0  0  0  0  0  0  0  0  0
   -3.0410   22.3520  -29.3780 C   0  0  0  0  0  0  0  0  0  0  0  0
   -3.5590   22.6580  -30.7230 C   0  0  0  0  0  0  0  0  0  0  0  0
   -2.7390   22.9280  -31.6410 O   0  0  0  0  0  0  0  0  0  0  0  0
   -4.9700   22.7370  -30.9930 N   0  0  0  0  0  0  0  0  0  0  0  0
   -5.7900   23.8100  -30.8080 C   0  0  0  0  0  0  0  0  0  0  0  0
   -5.3610   25.1780  -30.4460 C   0  0  0  0  0  0  0  0  0  0  0  0
   -4.0870   25.6760  -30.8420 N   0  0  0  0  0  0  0  0  0  0  0  0
   -6.1470   25.9290  -29.8100 O   0  0  0  0  0  0  0  0  0  0  0  0
   -7.1130   23.4640  -31.0800 C   0  0  0  0  0  0  0  0  0  0  0  0
   -7.0780   22.1360  -31.4350 C   0  0  0  0  0  0  0  0  0  0  0  0
   -8.1140   21.2750  -31.7810 C   0  0  0  0  0  0  0  0  0  0  0  0
   -7.7930   19.9370  -32.0640 C   0  0  0  0  0  0  0  0  0  0  0  0
   -6.4490   19.4850  -32.0030 C   0  0  0  0  0  0  0  0  0  0  0  0
   -6.1210   18.0340  -32.2520 C   0  0  0  0  0  0  0  0  0  0  0  0
   -6.1860   17.3090  -31.0740 F   0  0  0  0  0  0  0  0  0  0  0  0
   -4.8430   17.9380  -32.7690 F   0  0  0  0  0  0  0  0  0  0  0  0
   -7.0150   17.4790  -33.1510 F   0  0  0  0  0  0  0  0  0  0  0  0
   -5.4290   20.3850  -31.6190 C   0  0  0  0  0  0  0  0  0  0  0  0
   -5.7750   21.7170  -31.3670 C   0  0  0  0  0  0  0  0  0  0  0  0
   -2.0430   22.9980  -28.6570 C   0  0  0  0  0  0  0  0  0  0  0  0
   -1.3310   24.2510  -28.9670 C   0  0  0  0  0  0  0  0  0  0  0  0
   -1.9740   25.2760  -29.3150 O   0  0  0  0  0  0  0  0  0  0  0  0
    0.0560   24.3050  -28.9270 O   0  0  0  0  0  0  0  0  0  0  0  0
   -1.5772   22.3401  -25.4032 H   0  0  0  0  0  0  0  0  0  0  0  0
   -0.1766   21.7944  -26.3868 H   0  0  0  0  0  0  0  0  0  0  0  0
   -0.6538   23.5262  -26.3868 H   0  0  0  0  0  0  0  0  0  0  0  0
   -3.2690   25.0370  -30.9440 H   0  0  0  0  0  0  0  0  0  0  0  0
   -7.9975   24.1154  -31.0227 H   0  0  0  0  0  0  0  0  0  0  0  0
   -9.1536   21.6311  -31.8315 H   0  0  0  0  0  0  0  0  0  0  0  0
   -8.5922   19.2318  -32.3359 H   0  0  0  0  0  0  0  0  0  0  0  0
   -4.3872   20.0460  -31.5206 H   0  0  0  0  0  0  0  0  0  0  0  0
  1  2  1  0
  2  3  2  0
  3  4  1  0
  4  5  1  0
  5  6  1  0
  6  7  2  0
  6  8  1  0
  8  9  1  0
  9 10  1  0
 10 11  1  0
 10 12  2  0
  9 13  2  0
 13 14  1  0
 14 15  2  0
 15 16  1  0
 16 17  2  0
 17 18  1  0
 18 19  1  0
 18 20  1  0
 18 21  1  0
 17 22  1  0
 22 23  2  0
  5 24  2  0
 24 25  1  0
 25 26  2  0
 25 27  1  0
 24  2  1  0
 23  8  1  0
 23 14  1  0
  1 28  1  0
  1 29  1  0
  1 30  1  0
 11 31  1  0
 13 32  1  0
 15 33  1  0
 16 34  1  0
 22 35  1  0
M  CHG  2  11  -1  27  -1
M  END
>  <UniqueID>  (45) 
45

>  <SMILES>  (45) 
Cc1noc(C(=O)n2c(C([NH-])=O)cc3ccc(C(F)(F)F)cc32)c1C(=O)[O-]

>  <Energy>  (45) 
110.61412726279357

>  <Genealogy>  (45) 
Cc1noc(C(=O)n2c(C([NH-])=O)cc3ccc(C(F)(F)F)cc32)c1C(=O)[O-] (protonated)
Cc1noc(C(=O)n2c(C([NH-])=O)cc3ccc(C(F)(F)F)cc32)c1C(=O)[O-] (3D coordinates assigned)
Cc1noc(C(=O)n2c(C([NH-])=O)cc3ccc(C(F)(F)F)cc32)c1C(=O)[O-] (optimized conformer: 110.61412726279357 kcal/mol)

>  <smiles>  (45) 
Cc1noc(C(=O)n2c(C(N)=O)cc3ccc(C(F)(F)F)cc32)c1C(=O)O

>  <score_type>  (45) 
oracle

>  <origin>  (45) 
adg

>  <m_score__min__energy>  (45) 
-12.19

>  <m_primary>  (45) 
energy

$$$$
46:0
     RDKit          3D

 40 42  0  0  0  0  0  0  0  0999 V2000
   -5.7540   17.5450  -31.3370 C   0  0  0  0  0  0  0  0  0  0  0  0
   -5.7020   17.4220  -32.8750 C   0  0  1  0  0  0  0  0  0  0  0  0
   -6.6210   18.3880  -33.6400 C   0  0  1  0  0  0  0  0  0  0  0  0
   -6.7910   19.7580  -32.9860 C   0  0  0  0  0  0  0  0  0  0  0  0
   -8.1010   20.1940  -32.6540 C   0  0  0  0  0  0  0  0  0  0  0  0
   -8.3150   21.4210  -32.0060 C   0  0  0  0  0  0  0  0  0  0  0  0
   -7.2040   22.1970  -31.6990 C   0  0  0  0  0  0  0  0  0  0  0  0
   -7.1230   23.4110  -31.0580 C   0  0  0  0  0  0  0  0  0  0  0  0
   -5.7650   23.7170  -31.0170 C   0  0  0  0  0  0  0  0  0  0  0  0
   -5.2420   24.9980  -30.5000 C   0  0  0  0  0  0  0  0  0  0  0  0
   -3.8510   25.3040  -30.5740 N   0  0  0  0  0  0  0  0  0  0  0  0
   -6.0410   25.8580  -30.0430 O   0  0  0  0  0  0  0  0  0  0  0  0
   -5.0320   22.7210  -31.5940 N   0  0  0  0  0  0  0  0  0  0  0  0
   -3.6030   22.5850  -31.6650 C   0  0  0  0  0  0  0  0  0  0  0  0
   -3.0570   21.9730  -32.6200 O   0  0  0  0  0  0  0  0  0  0  0  0
   -5.9310   21.8040  -32.0140 C   0  0  0  0  0  0  0  0  0  0  0  0
   -5.6870   20.5820  -32.6510 C   0  0  0  0  0  0  0  0  0  0  0  0
   -5.9960   18.4390  -35.0280 C   0  0  0  0  0  0  0  0  0  0  0  0
   -4.5240   18.0720  -34.8380 C   0  0  0  0  0  0  0  0  0  0  0  0
   -4.3490   17.4890  -33.4880 N   0  0  1  0  0  0  0  0  0  0  0  0
   -3.3400   18.2360  -32.7110 C   0  0  0  0  0  0  0  0  0  0  0  0
   -5.3640   16.6226  -30.8820 H   0  0  0  0  0  0  0  0  0  0  0  0
   -5.1403   18.3998  -31.0166 H   0  0  0  0  0  0  0  0  0  0  0  0
   -6.7948   17.7003  -31.0166 H   0  0  0  0  0  0  0  0  0  0  0  0
   -6.0812   16.3962  -32.9926 H   0  0  0  0  0  0  0  0  0  0  0  0
   -7.6634   18.0371  -33.6568 H   0  0  0  0  0  0  0  0  0  0  0  0
   -8.9628   19.5596  -32.9088 H   0  0  0  0  0  0  0  0  0  0  0  0
   -9.3304   21.7575  -31.7494 H   0  0  0  0  0  0  0  0  0  0  0  0
   -7.9543   24.0126  -30.6618 H   0  0  0  0  0  0  0  0  0  0  0  0
   -3.5000   26.0450  -31.2210 H   0  0  0  0  0  0  0  0  0  0  0  0
   -2.9771   23.0222  -30.8731 H   0  0  0  0  0  0  0  0  0  0  0  0
   -4.6597   20.2673  -32.8869 H   0  0  0  0  0  0  0  0  0  0  0  0
   -6.4875   17.7162  -35.6958 H   0  0  0  0  0  0  0  0  0  0  0  0
   -6.1088   19.4329  -35.4856 H   0  0  0  0  0  0  0  0  0  0  0  0
   -4.2247   17.3372  -35.5999 H   0  0  0  0  0  0  0  0  0  0  0  0
   -3.8980   18.9705  -34.9416 H   0  0  0  0  0  0  0  0  0  0  0  0
   -3.9850   16.5110  -33.5950 H   0  0  0  0  0  0  0  0  0  0  0  0
   -3.5281   18.0968  -31.6362 H   0  0  0  0  0  0  0  0  0  0  0  0
   -2.3357   17.8620  -32.9590 H   0  0  0  0  0  0  0  0  0  0  0  0
   -3.4045   19.3057  -32.9590 H   0  0  0  0  0  0  0  0  0  0  0  0
  1  2  1  0
  2  3  1  0
  3  4  1  0
  4  5  2  0
  5  6  1  0
  6  7  2  0
  7  8  1  0
  8  9  2  0
  9 10  1  0
 10 11  1  0
 10 12  2  0
  9 13  1  0
 13 14  1  0
 14 15  2  0
 13 16  1  0
 16 17  2  0
  3 18  1  0
 18 19  1  0
 19 20  1  0
 20 21  1  0
 20  2  1  0
 17  4  1  0
 16  7  1  0
  1 22  1  0
  1 23  1  0
  1 24  1  0
  2 25  1  1
  3 26  1  6
  5 27  1  0
  6 28  1  0
  8 29  1  0
 11 30  1  0
 14 31  1  0
 17 32  1  0
 18 33  1  0
 18 34  1  0
 19 35  1  0
 19 36  1  0
 20 37  1  6
 21 38  1  0
 21 39  1  0
 21 40  1  0
M  CHG  2  11  -1  20   1
M  END
>  <UniqueID>  (46) 
46

>  <SMILES>  (46) 
C[C@H]1[C@@H](c2ccc3cc(C([NH-])=O)n(C=O)c3c2)CC[NH+]1C

>  <Energy>  (46) 
92.33917444716904

>  <Genealogy>  (46) 
CC1C(c2ccc3cc(C([NH-])=O)n(C=O)c3c2)CC[NH+]1C (protonated)
C[C@H]1[C@@H](c2ccc3cc(C([NH-])=O)n(C=O)c3c2)CC[NH+]1C (chirality)
C[C@H]1[C@@H](c2ccc3cc(C([NH-])=O)n(C=O)c3c2)CC[NH+]1C (3D coordinates assigned)
C[C@H]1[C@@H](c2ccc3cc(C([NH-])=O)n(C=O)c3c2)CC[NH+]1C (nonaromatic ring conformer: 92.33917444716904 kcal/mol)

>  <smiles>  (46) 
CC1C(c2ccc3cc(C(N)=O)n(C=O)c3c2)CCN1C

>  <score_type>  (46) 
oracle

>  <origin>  (46) 
adg

>  <m_score__min__energy>  (46) 
-10

>  <m_primary>  (46) 
energy

$$$$
47:0
     RDKit          3D

 43 44  0  0  0  0  0  0  0  0999 V2000
   -3.6750   24.0780  -27.6770 C   0  0  0  0  0  0  0  0  0  0  0  0
   -2.5380   23.2980  -28.3550 C   0  0  2  0  0  0  0  0  0  0  0  0
   -1.5000   24.2340  -29.0050 C   0  0  0  0  0  0  0  0  0  0  0  0
   -1.9680   25.5560  -28.9770 O   0  0  0  0  0  0  0  0  0  0  0  0
   -3.0620   22.3120  -29.3330 N   0  0  0  0  0  0  0  0  0  0  0  0
   -3.0070   20.8800  -29.0110 C   0  0  0  0  0  0  0  0  0  0  0  0
   -3.5210   22.7110  -30.6470 C   0  0  0  0  0  0  0  0  0  0  0  0
   -2.7020   22.9090  -31.5820 O   0  0  0  0  0  0  0  0  0  0  0  0
   -4.9210   22.8190  -30.9310 N   0  0  0  0  0  0  0  0  0  0  0  0
   -5.7070   23.9300  -30.8880 C   0  0  0  0  0  0  0  0  0  0  0  0
   -5.2430   25.2920  -30.5470 C   0  0  0  0  0  0  0  0  0  0  0  0
   -3.8920   25.6730  -30.8050 N   0  0  0  0  0  0  0  0  0  0  0  0
   -6.0310   26.1280  -30.0270 O   0  0  0  0  0  0  0  0  0  0  0  0
   -7.0160   23.6130  -31.2580 C   0  0  0  0  0  0  0  0  0  0  0  0
   -6.9960   22.2630  -31.5410 C   0  0  0  0  0  0  0  0  0  0  0  0
   -8.0110   21.4190  -31.9830 C   0  0  0  0  0  0  0  0  0  0  0  0
   -7.6900   20.0690  -32.2130 C   0  0  0  0  0  0  0  0  0  0  0  0
   -6.3740   19.5860  -31.9840 C   0  0  0  0  0  0  0  0  0  0  0  0
   -6.0320   18.1520  -32.2760 C   0  0  0  0  0  0  0  0  0  0  0  0
   -6.3630   17.8250  -33.7000 C   0  0  0  0  0  0  0  0  0  0  0  0
   -6.1620   18.7940  -34.7310 N   0  0  0  0  0  0  0  0  0  0  0  0
   -6.8490   16.6990  -33.9880 O   0  0  0  0  0  0  0  0  0  0  0  0
   -5.3700   20.4750  -31.5430 C   0  0  0  0  0  0  0  0  0  0  0  0
   -5.7180   21.8110  -31.3350 C   0  0  0  0  0  0  0  0  0  0  0  0
   -3.5690   24.0053  -26.5845 H   0  0  0  0  0  0  0  0  0  0  0  0
   -3.6269   25.1342  -27.9805 H   0  0  0  0  0  0  0  0  0  0  0  0
   -4.6431   23.6530  -27.9805 H   0  0  0  0  0  0  0  0  0  0  0  0
   -2.0180   22.7396  -27.5627 H   0  0  0  0  0  0  0  0  0  0  0  0
   -0.5526   24.1703  -28.4496 H   0  0  0  0  0  0  0  0  0  0  0  0
   -1.3391   23.9280  -30.0493 H   0  0  0  0  0  0  0  0  0  0  0  0
   -2.5440   25.6730  -29.7760 H   0  0  0  0  0  0  0  0  0  0  0  0
   -3.0020   20.7497  -27.9188 H   0  0  0  0  0  0  0  0  0  0  0  0
   -3.8864   20.3744  -29.4365 H   0  0  0  0  0  0  0  0  0  0  0  0
   -2.0914   20.4434  -29.4365 H   0  0  0  0  0  0  0  0  0  0  0  0
   -3.1180   24.9770  -30.7580 H   0  0  0  0  0  0  0  0  0  0  0  0
   -7.8782   24.2940  -31.3121 H   0  0  0  0  0  0  0  0  0  0  0  0
   -9.0313   21.7958  -32.1471 H   0  0  0  0  0  0  0  0  0  0  0  0
   -8.4670   19.3794  -32.5744 H   0  0  0  0  0  0  0  0  0  0  0  0
   -4.9570   17.9922  -32.1062 H   0  0  0  0  0  0  0  0  0  0  0  0
   -6.6164   17.4992  -31.6109 H   0  0  0  0  0  0  0  0  0  0  0  0
   -6.4660   18.5860  -35.7120 H   0  0  0  0  0  0  0  0  0  0  0  0
   -5.6720   19.6920  -34.5240 H   0  0  0  0  0  0  0  0  0  0  0  0
   -4.3420   20.1248  -31.3681 H   0  0  0  0  0  0  0  0  0  0  0  0
  1  2  1  0
  2  3  1  0
  3  4  1  0
  2  5  1  0
  5  6  1  0
  5  7  1  0
  7  8  2  0
  7  9  1  0
  9 10  1  0
 10 11  1  0
 11 12  1  0
 11 13  2  0
 10 14  2  0
 14 15  1  0
 15 16  2  0
 16 17  1  0
 17 18  2  0
 18 19  1  0
 19 20  1  0
 20 21  1  0
 20 22  2  0
 18 23  1  0
 23 24  2  0
 24  9  1  0
 24 15  1  0
  1 25  1  0
  1 26  1  0
  1 27  1  0
  2 28  1  1
  3 29  1  0
  3 30  1  0
  4 31  1  0
  6 32  1  0
  6 33  1  0
  6 34  1  0
 12 35  1  0
 14 36  1  0
 16 37  1  0
 17 38  1  0
 19 39  1  0
 19 40  1  0
 21 41  1  0
 21 42  1  0
 23 43  1  0
M  CHG  1  12  -1
M  END
>  <UniqueID>  (47) 
47

>  <SMILES>  (47) 
C[C@H](CO)N(C)C(=O)n1c(C([NH-])=O)cc2ccc(CC(N)=O)cc21

>  <Energy>  (47) 
75.54314699158715

>  <Genealogy>  (47) 
CC(CO)N(C)C(=O)n1c(C([NH-])=O)cc2ccc(CC(N)=O)cc21 (protonated)
C[C@H](CO)N(C)C(=O)n1c(C([NH-])=O)cc2ccc(CC(N)=O)cc21 (chirality)
C[C@H](CO)N(C)C(=O)n1c(C([NH-])=O)cc2ccc(CC(N)=O)cc21 (3D coordinates assigned)
C[C@H](CO)N(C)C(=O)n1c(C([NH-])=O)cc2ccc(CC(N)=O)cc21 (optimized conformer: 75.54314699158715 kcal/mol)

>  <smiles>  (47) 
CC(CO)N(C)C(=O)n1c(C(N)=O)cc2ccc(CC(N)=O)cc21

>  <score_type>  (47) 
oracle

>  <origin>  (47) 
adg

>  <m_score__min__energy>  (47) 
-10.59

>  <m_primary>  (47) 
energy

$$$$
48:0
     RDKit          3D

 45 46  0  0  0  0  0  0  0  0999 V2000
   -0.1190   23.3470  -24.4120 C   0  0  0  0  0  0  0  0  0  0  0  0
    0.6250   22.6980  -25.4160 O   0  0  0  0  0  0  0  0  0  0  0  0
    0.0480   22.9620  -26.6760 C   0  0  0  0  0  0  0  0  0  0  0  0
    0.5420   24.3200  -27.1670 C   0  0  0  0  0  0  0  0  0  0  0  0
    0.1940   24.5090  -28.5260 O   0  0  0  0  0  0  0  0  0  0  0  0
   -0.5870   23.4330  -28.9930 C   0  0  0  0  0  0  0  0  0  0  0  0
   -2.0220   23.8590  -29.0290 C   0  0  0  0  0  0  0  0  0  0  0  0
   -2.3070   24.9920  -29.3880 O   0  0  0  0  0  0  0  0  0  0  0  0
   -3.1090   22.9350  -28.5710 C   0  0  0  0  0  0  0  0  0  0  0  0
   -3.5100   22.1010  -29.6470 O   0  0  0  0  0  0  0  0  0  0  0  0
   -3.9600   22.6050  -30.8700 C   0  0  0  0  0  0  0  0  0  0  0  0
   -3.1370   22.8950  -31.7780 O   0  0  0  0  0  0  0  0  0  0  0  0
   -5.3690   22.7740  -31.0960 N   0  0  0  0  0  0  0  0  0  0  0  0
   -6.1250   23.8690  -30.8030 C   0  0  0  0  0  0  0  0  0  0  0  0
   -5.5980   25.1800  -30.3740 C   0  0  0  0  0  0  0  0  0  0  0  0
   -4.2370   25.5390  -30.6270 N   0  0  0  0  0  0  0  0  0  0  0  0
   -6.3390   25.9790  -29.7400 O   0  0  0  0  0  0  0  0  0  0  0  0
   -7.4700   23.6230  -31.0740 C   0  0  0  0  0  0  0  0  0  0  0  0
   -7.5160   22.3310  -31.5450 C   0  0  0  0  0  0  0  0  0  0  0  0
   -8.6040   21.5650  -31.9540 C   0  0  0  0  0  0  0  0  0  0  0  0
   -8.3620   20.2450  -32.3680 C   0  0  0  0  0  0  0  0  0  0  0  0
   -7.0460   19.7210  -32.3710 C   0  0  0  0  0  0  0  0  0  0  0  0
   -6.8040   18.2990  -32.7800 C   0  0  0  0  0  0  0  0  0  0  0  0
   -5.9680   20.5220  -31.9370 C   0  0  0  0  0  0  0  0  0  0  0  0
   -6.2350   21.8400  -31.5480 C   0  0  0  0  0  0  0  0  0  0  0  0
    0.2445   23.0299  -23.4234 H   0  0  0  0  0  0  0  0  0  0  0  0
   -0.0010   24.4359  -24.5141 H   0  0  0  0  0  0  0  0  0  0  0  0
   -1.1818   23.0822  -24.5141 H   0  0  0  0  0  0  0  0  0  0  0  0
    0.3452   22.1799  -27.3902 H   0  0  0  0  0  0  0  0  0  0  0  0
   -1.0487   22.9711  -26.5909 H   0  0  0  0  0  0  0  0  0  0  0  0
    0.0815   25.1141  -26.5610 H   0  0  0  0  0  0  0  0  0  0  0  0
    1.6371   24.3580  -27.0701 H   0  0  0  0  0  0  0  0  0  0  0  0
   -0.2597   23.1501  -30.0044 H   0  0  0  0  0  0  0  0  0  0  0  0
   -0.4704   22.5680  -28.3236 H   0  0  0  0  0  0  0  0  0  0  0  0
   -2.7360   22.3123  -27.7445 H   0  0  0  0  0  0  0  0  0  0  0  0
   -3.9702   23.5265  -28.2268 H   0  0  0  0  0  0  0  0  0  0  0  0
   -3.6150   24.9240  -31.2000 H   0  0  0  0  0  0  0  0  0  0  0  0
   -3.8580   26.4500  -30.2820 H   0  0  0  0  0  0  0  0  0  0  0  0
   -8.3148   24.3146  -30.9399 H   0  0  0  0  0  0  0  0  0  0  0  0
   -9.6223   21.9809  -31.9530 H   0  0  0  0  0  0  0  0  0  0  0  0
   -9.2015   19.6127  -32.6927 H   0  0  0  0  0  0  0  0  0  0  0  0
   -6.6974   17.6723  -31.8823 H   0  0  0  0  0  0  0  0  0  0  0  0
   -7.6540   17.9400  -33.3789 H   0  0  0  0  0  0  0  0  0  0  0  0
   -5.8831   18.2414  -33.3789 H   0  0  0  0  0  0  0  0  0  0  0  0
   -4.9442   20.1209  -31.9052 H   0  0  0  0  0  0  0  0  0  0  0  0
  1  2  1  0
  2  3  1  0
  3  4  1  0
  4  5  1  0
  5  6  1  0
  6  7  1  0
  7  8  2  0
  7  9  1  0
  9 10  1  0
 10 11  1  0
 11 12  2  0
 11 13  1  0
 13 14  1  0
 14 15  1  0
 15 16  1  0
 15 17  2  0
 14 18  2  0
 18 19  1  0
 19 20  2  0
 20 21  1  0
 21 22  2  0
 22 23  1  0
 22 24  1  0
 24 25  2  0
 25 13  1  0
 25 19  1  0
  1 26  1  0
  1 27  1  0
  1 28  1  0
  3 29  1  0
  3 30  1  0
  4 31  1  0
  4 32  1  0
  6 33  1  0
  6 34  1  0
  9 35  1  0
  9 36  1  0
 16 37  1  0
 16 38  1  0
 18 39  1  0
 20 40  1  0
 21 41  1  0
 23 42  1  0
 23 43  1  0
 23 44  1  0
 24 45  1  0
M  END
>  <UniqueID>  (48) 
48

>  <SMILES>  (48) 
COCCOCC(=O)COC(=O)n1c(C(N)=O)cc2ccc(C)cc21

>  <Energy>  (48) 
78.87437988185805

>  <Genealogy>  (48) 
COCCOCC(=O)COC(=O)n1c(C(N)=O)cc2ccc(C)cc21 (3D coordinates assigned)
COCCOCC(=O)COC(=O)n1c(C(N)=O)cc2ccc(C)cc21 (optimized conformer: 78.87437988185805 kcal/mol)

>  <smiles>  (48) 
COCCOCC(=O)COC(=O)n1c(C(N)=O)cc2ccc(C)cc21

>  <score_type>  (48) 
oracle

>  <origin>  (48) 
adg

>  <m_score__min__energy>  (48) 
-9.0299999999999994

>  <m_primary>  (48) 
energy

$$$$
49:0
     RDKit          3D

 41 44  0  0  0  0  0  0  0  0999 V2000
   -5.3800   17.6020  -35.1320 N   0  0  0  0  0  0  0  0  0  0  0  0
   -6.1440   17.4510  -33.9350 C   0  0  0  0  0  0  0  0  0  0  0  0
   -6.4590   16.2960  -33.5450 O   0  0  0  0  0  0  0  0  0  0  0  0
   -6.6240   18.6270  -33.1850 C   0  0  0  0  0  0  0  0  0  0  0  0
   -7.9240   18.7560  -32.7040 C   0  0  0  0  0  0  0  0  0  0  0  0
   -7.9760   20.0050  -32.1270 C   0  0  0  0  0  0  0  0  0  0  0  0
   -9.0260   20.6540  -31.4840 C   0  0  0  0  0  0  0  0  0  0  0  0
   -8.7830   21.9330  -30.9550 C   0  0  0  0  0  0  0  0  0  0  0  0
   -7.5010   22.5280  -31.0610 C   0  0  0  0  0  0  0  0  0  0  0  0
   -7.2600   23.9070  -30.5150 C   0  0  0  0  0  0  0  0  0  0  0  0
   -5.7920   24.1730  -30.4240 C   0  0  0  0  0  0  0  0  0  0  0  0
   -5.1450   25.3050  -30.8600 C   0  0  0  0  0  0  0  0  0  0  0  0
   -3.8430   25.2100  -30.5430 N   0  0  0  0  0  0  0  0  0  0  0  0
   -3.7420   24.0200  -29.9130 C   0  0  0  0  0  0  0  0  0  0  0  0
   -4.9150   23.3590  -29.8120 N   0  0  0  0  0  0  0  0  0  0  0  0
   -6.4620   21.8410  -31.7280 C   0  0  0  0  0  0  0  0  0  0  0  0
   -6.7390   20.5790  -32.2610 C   0  0  0  0  0  0  0  0  0  0  0  0
   -5.8960   19.7450  -32.9050 N   0  0  0  0  0  0  0  0  0  0  0  0
   -4.4890   19.9600  -33.1030 C   0  0  0  0  0  0  0  0  0  0  0  0
   -3.9630   19.6310  -34.2000 O   0  0  0  0  0  0  0  0  0  0  0  0
   -3.6210   20.5350  -32.0070 C   0  0  0  0  0  0  0  0  0  0  0  0
   -2.2000   19.9690  -31.9890 C   0  0  0  0  0  0  0  0  0  0  0  0
   -1.6410   21.3580  -32.2620 C   0  0  0  0  0  0  0  0  0  0  0  0
   -3.0520   21.9230  -32.3050 C   0  0  0  0  0  0  0  0  0  0  0  0
   -5.0160   16.7590  -35.6310 H   0  0  0  0  0  0  0  0  0  0  0  0
   -5.2330   18.5390  -35.5640 H   0  0  0  0  0  0  0  0  0  0  0  0
   -8.7365   18.0175  -32.7707 H   0  0  0  0  0  0  0  0  0  0  0  0
  -10.0148   20.1807  -31.3928 H   0  0  0  0  0  0  0  0  0  0  0  0
   -9.5962   22.4781  -30.4534 H   0  0  0  0  0  0  0  0  0  0  0  0
   -7.7237   24.6487  -31.1819 H   0  0  0  0  0  0  0  0  0  0  0  0
   -7.7024   23.9794  -29.5105 H   0  0  0  0  0  0  0  0  0  0  0  0
   -5.6163   26.1502  -31.3829 H   0  0  0  0  0  0  0  0  0  0  0  0
   -2.7934   23.6262  -29.5191 H   0  0  0  0  0  0  0  0  0  0  0  0
   -5.4615   22.2876  -31.8252 H   0  0  0  0  0  0  0  0  0  0  0  0
   -4.3022   20.3877  -31.1559 H   0  0  0  0  0  0  0  0  0  0  0  0
   -1.8976   19.5461  -31.0196 H   0  0  0  0  0  0  0  0  0  0  0  0
   -1.9300   19.1234  -32.6387 H   0  0  0  0  0  0  0  0  0  0  0  0
   -1.0217   21.7602  -31.4467 H   0  0  0  0  0  0  0  0  0  0  0  0
   -0.9511   21.5233  -33.1027 H   0  0  0  0  0  0  0  0  0  0  0  0
   -3.2600   22.6700  -31.5248 H   0  0  0  0  0  0  0  0  0  0  0  0
   -3.3975   22.4881  -33.1832 H   0  0  0  0  0  0  0  0  0  0  0  0
  1  2  1  0
  2  3  2  0
  2  4  1  0
  4  5  2  0
  5  6  1  0
  6  7  2  0
  7  8  1  0
  8  9  2  0
  9 10  1  0
 10 11  1  0
 11 12  2  0
 12 13  1  0
 13 14  2  0
 14 15  1  0
  9 16  1  0
 16 17  2  0
 17 18  1  0
 18 19  1  0
 19 20  2  0
 19 21  1  0
 21 22  1  0
 22 23  1  0
 23 24  1  0
 18  4  1  0
 24 21  1  0
 17  6  1  0
 15 11  1  0
  1 25  1  0
  1 26  1  0
  5 27  1  0
  7 28  1  0
  8 29  1  0
 10 30  1  0
 10 31  1  0
 12 32  1  0
 14 33  1  0
 16 34  1  0
 21 35  1  0
 22 36  1  0
 22 37  1  0
 23 38  1  0
 23 39  1  0
 24 40  1  0
 24 41  1  0
M  CHG  1  15  -1
M  END
>  <UniqueID>  (49) 
49

>  <SMILES>  (49) 
NC(=O)c1cc2ccc(Cc3cnc[n-]3)cc2n1C(=O)C1CCC1

>  <Energy>  (49) 
169.54015231499056

>  <Genealogy>  (49) 
NC(=O)c1cc2ccc(Cc3cnc[n-]3)cc2n1C(=O)C1CCC1 (protonated)
NC(=O)c1cc2ccc(Cc3cnc[n-]3)cc2n1C(=O)C1CCC1 (3D coordinates assigned)
NC(=O)c1cc2ccc(Cc3cnc[n-]3)cc2n1C(=O)C1CCC1 (nonaromatic ring conformer: 169.54015231499056 kcal/mol)

>  <smiles>  (49) 
NC(=O)c1cc2ccc(Cc3cnc[nH]3)cc2n1C(=O)C1CCC1

>  <score_type>  (49) 
oracle

>  <origin>  (49) 
adg

>  <m_score__min__energy>  (49) 
-9.7200000000000006

>  <m_primary>  (49) 
energy

$$$$
50:0
     RDKit          3D

 30 32  0  0  0  0  0  0  0  0999 V2000
   -1.3630   25.8640  -28.9890 N   0  0  0  0  0  0  0  0  0  0  0  0
   -0.8580   24.5410  -29.1510 C   0  0  0  0  0  0  0  0  0  0  0  0
    0.2650   24.2450  -28.6640 O   0  0  0  0  0  0  0  0  0  0  0  0
   -1.6580   23.5000  -29.8310 C   0  0  0  0  0  0  0  0  0  0  0  0
   -1.1170   22.3010  -30.2920 C   0  0  0  0  0  0  0  0  0  0  0  0
   -2.1860   21.5800  -30.7720 C   0  0  0  0  0  0  0  0  0  0  0  0
   -2.2230   20.3190  -31.3560 C   0  0  0  0  0  0  0  0  0  0  0  0
   -3.4660   19.8280  -31.7880 C   0  0  0  0  0  0  0  0  0  0  0  0
   -4.6460   20.6040  -31.6400 C   0  0  0  0  0  0  0  0  0  0  0  0
   -5.9520   20.0810  -32.1130 C   0  0  0  0  0  0  0  0  0  0  0  0
   -6.0560   18.7830  -32.6420 C   0  0  0  0  0  0  0  0  0  0  0  0
   -7.2950   18.3110  -33.0800 C   0  0  0  0  0  0  0  0  0  0  0  0
   -8.3960   19.1030  -32.9950 N   0  0  0  0  0  0  0  0  0  0  0  0
   -8.3310   20.3610  -32.4890 C   0  0  0  0  0  0  0  0  0  0  0  0
   -9.4510   21.1210  -32.4260 F   0  0  0  0  0  0  0  0  0  0  0  0
   -7.1110   20.8740  -32.0380 C   0  0  0  0  0  0  0  0  0  0  0  0
   -4.5640   21.8840  -31.0410 C   0  0  0  0  0  0  0  0  0  0  0  0
   -3.3150   22.3390  -30.6020 C   0  0  0  0  0  0  0  0  0  0  0  0
   -3.0070   23.5230  -30.0260 N   0  0  0  0  0  0  0  0  0  0  0  0
   -3.9160   24.6050  -29.7700 C   0  0  0  0  0  0  0  0  0  0  0  0
   -3.8950   25.6390  -30.4870 O   0  0  0  0  0  0  0  0  0  0  0  0
   -4.8460   24.5110  -28.7400 O   0  0  0  0  0  0  0  0  0  0  0  0
   -2.3900   26.0460  -28.9550 H   0  0  0  0  0  0  0  0  0  0  0  0
   -0.0602   21.9961  -30.2756 H   0  0  0  0  0  0  0  0  0  0  0  0
   -1.3060   19.7234  -31.4762 H   0  0  0  0  0  0  0  0  0  0  0  0
   -3.5262   18.8300  -32.2467 H   0  0  0  0  0  0  0  0  0  0  0  0
   -5.1650   18.1416  -32.7107 H   0  0  0  0  0  0  0  0  0  0  0  0
   -7.3800   17.2958  -33.4948 H   0  0  0  0  0  0  0  0  0  0  0  0
   -7.0580   21.8928  -31.6266 H   0  0  0  0  0  0  0  0  0  0  0  0
   -5.4624   22.5077  -30.9230 H   0  0  0  0  0  0  0  0  0  0  0  0
  1  2  1  0
  2  3  2  0
  2  4  1  0
  4  5  2  0
  5  6  1  0
  6  7  2  0
  7  8  1  0
  8  9  2  0
  9 10  1  0
 10 11  2  0
 11 12  1  0
 12 13  2  0
 13 14  1  0
 14 15  1  0
 14 16  2  0
  9 17  1  0
 17 18  2  0
 18 19  1  0
 19 20  1  0
 20 21  2  0
 20 22  1  0
 19  4  1  0
 18  6  1  0
 16 10  1  0
  1 23  1  0
  5 24  1  0
  7 25  1  0
  8 26  1  0
 11 27  1  0
 12 28  1  0
 16 29  1  0
 17 30  1  0
M  CHG  2   1  -1  22  -1
M  END
>  <UniqueID>  (50) 
50

>  <SMILES>  (50) 
[NH-]C(=O)c1cc2ccc(-c3ccnc(F)c3)cc2n1C(=O)[O-]

>  <Energy>  (50) 
79.0930966599541

>  <Genealogy>  (50) 
[NH-]C(=O)c1cc2ccc(-c3ccnc(F)c3)cc2n1C(=O)[O-] (protonated)
[NH-]C(=O)c1cc2ccc(-c3ccnc(F)c3)cc2n1C(=O)[O-] (3D coordinates assigned)
[NH-]C(=O)c1cc2ccc(-c3ccnc(F)c3)cc2n1C(=O)[O-] (optimized conformer: 79.0930966599541 kcal/mol)

>  <smiles>  (50) 
NC(=O)c1cc2ccc(-c3ccnc(F)c3)cc2n1C(=O)O

>  <score_type>  (50) 
oracle

>  <origin>  (50) 
adg

>  <m_score__min__energy>  (50) 
-11.07

>  <m_primary>  (50) 
energy

$$$$
51:0
     RDKit          3D

 41 43  0  0  0  0  0  0  0  0999 V2000
   -4.5940   13.7540  -31.5520 C   0  0  0  0  0  0  0  0  0  0  0  0
   -4.1580   15.0330  -31.9960 O   0  0  0  0  0  0  0  0  0  0  0  0
   -5.0450   16.0490  -32.3620 C   0  0  0  0  0  0  0  0  0  0  0  0
   -5.1460   16.4220  -33.7040 C   0  0  0  0  0  0  0  0  0  0  0  0
   -6.0310   17.4360  -34.0710 C   0  0  0  0  0  0  0  0  0  0  0  0
   -6.8190   18.0710  -33.0980 C   0  0  0  0  0  0  0  0  0  0  0  0
   -7.7120   19.1430  -33.4570 N   0  0  0  0  0  0  0  0  0  0  0  0
   -7.5120   20.2550  -32.5620 C   0  0  0  0  0  0  0  0  0  0  0  0
   -8.6270   20.9110  -31.9770 C   0  0  0  0  0  0  0  0  0  0  0  0
   -8.4460   22.0150  -31.1260 C   0  0  0  0  0  0  0  0  0  0  0  0
   -7.1440   22.4470  -30.8860 C   0  0  0  0  0  0  0  0  0  0  0  0
   -6.6800   23.4790  -30.1010 C   0  0  0  0  0  0  0  0  0  0  0  0
   -5.2930   23.4510  -30.2380 C   0  0  0  0  0  0  0  0  0  0  0  0
   -4.3870   24.4420  -29.6180 C   0  0  0  0  0  0  0  0  0  0  0  0
   -3.5730   25.2930  -30.4200 N   0  0  0  0  0  0  0  0  0  0  0  0
   -4.3570   24.5610  -28.3640 O   0  0  0  0  0  0  0  0  0  0  0  0
   -4.9180   22.4370  -31.0670 N   0  0  0  0  0  0  0  0  0  0  0  0
   -3.5890   22.0250  -31.4170 C   0  0  0  0  0  0  0  0  0  0  0  0
   -3.2730   21.9050  -32.6310 O   0  0  0  0  0  0  0  0  0  0  0  0
   -2.6130   21.6260  -30.3540 C   0  0  0  0  0  0  0  0  0  0  0  0
   -1.8070   22.7870  -29.9660 C   0  0  0  0  0  0  0  0  0  0  0  0
   -1.1710   23.7030  -29.6610 N   0  0  0  0  0  0  0  0  0  0  0  0
   -6.0600   21.8360  -31.4580 C   0  0  0  0  0  0  0  0  0  0  0  0
   -6.2050   20.7290  -32.2970 C   0  0  0  0  0  0  0  0  0  0  0  0
   -6.6790   17.6700  -31.7580 C   0  0  0  0  0  0  0  0  0  0  0  0
   -5.8090   16.6790  -31.4270 N   0  0  0  0  0  0  0  0  0  0  0  0
   -4.6019   13.7307  -30.4523 H   0  0  0  0  0  0  0  0  0  0  0  0
   -5.6087   13.5609  -31.9302 H   0  0  0  0  0  0  0  0  0  0  0  0
   -3.9085   12.9813  -31.9302 H   0  0  0  0  0  0  0  0  0  0  0  0
   -4.5321   15.9198  -34.4662 H   0  0  0  0  0  0  0  0  0  0  0  0
   -6.1116   17.7388  -35.1254 H   0  0  0  0  0  0  0  0  0  0  0  0
   -8.7060   18.8170  -33.4080 H   0  0  0  0  0  0  0  0  0  0  0  0
   -7.5380   19.4390  -34.4460 H   0  0  0  0  0  0  0  0  0  0  0  0
   -9.6440   20.5512  -32.1922 H   0  0  0  0  0  0  0  0  0  0  0  0
   -9.3060   22.5219  -30.6640 H   0  0  0  0  0  0  0  0  0  0  0  0
   -7.2767   24.1767  -29.4950 H   0  0  0  0  0  0  0  0  0  0  0  0
   -2.5340   25.2970  -30.3150 H   0  0  0  0  0  0  0  0  0  0  0  0
   -3.1603   21.2506  -29.4768 H   0  0  0  0  0  0  0  0  0  0  0  0
   -1.9529   20.8361  -30.7419 H   0  0  0  0  0  0  0  0  0  0  0  0
   -5.3261   20.2382  -32.7404 H   0  0  0  0  0  0  0  0  0  0  0  0
   -7.2756   18.1598  -30.9743 H   0  0  0  0  0  0  0  0  0  0  0  0
  1  2  1  0
  2  3  1  0
  3  4  2  0
  4  5  1  0
  5  6  2  0
  6  7  1  0
  7  8  1  0
  8  9  2  0
  9 10  1  0
 10 11  2  0
 11 12  1  0
 12 13  2  0
 13 14  1  0
 14 15  1  0
 14 16  2  0
 13 17  1  0
 17 18  1  0
 18 19  2  0
 18 20  1  0
 20 21  1  0
 21 22  3  0
 17 23  1  0
 23 24  2  0
  6 25  1  0
 25 26  2  0
 26  3  1  0
 24  8  1  0
 23 11  1  0
  1 27  1  0
  1 28  1  0
  1 29  1  0
  4 30  1  0
  5 31  1  0
  7 32  1  0
  7 33  1  0
  9 34  1  0
 10 35  1  0
 12 36  1  0
 15 37  1  0
 20 38  1  0
 20 39  1  0
 24 40  1  0
 25 41  1  0
M  CHG  2   7   1  15  -1
M  END
>  <UniqueID>  (51) 
51

>  <SMILES>  (51) 
COc1ccc([NH2+]c2ccc3cc(C([NH-])=O)n(C(=O)CC#N)c3c2)cn1

>  <Energy>  (51) 
81.3090583439118

>  <Genealogy>  (51) 
COc1ccc([NH2+]c2ccc3cc(C([NH-])=O)n(C(=O)CC#N)c3c2)cn1 (protonated)
COc1ccc([NH2+]c2ccc3cc(C([NH-])=O)n(C(=O)CC#N)c3c2)cn1 (3D coordinates assigned)
COc1ccc([NH2+]c2ccc3cc(C([NH-])=O)n(C(=O)CC#N)c3c2)cn1 (optimized conformer: 81.3090583439118 kcal/mol)

>  <smiles>  (51) 
COc1ccc(Nc2ccc3cc(C(N)=O)n(C(=O)CC#N)c3c2)cn1

>  <score_type>  (51) 
oracle

>  <origin>  (51) 
adg

>  <m_score__min__energy>  (51) 
-10.43

>  <m_primary>  (51) 
energy

$$$$
52:0
     RDKit          3D

 34 35  0  0  0  0  0  0  0  0999 V2000
   -4.2200   25.6000  -30.7540 N   0  0  0  0  0  0  0  0  0  0  0  0
   -5.5650   25.2130  -30.4670 C   0  0  0  0  0  0  0  0  0  0  0  0
   -6.2820   25.9590  -29.7500 O   0  0  0  0  0  0  0  0  0  0  0  0
   -6.1080   23.9240  -30.9420 C   0  0  0  0  0  0  0  0  0  0  0  0
   -7.4520   23.7250  -31.2430 C   0  0  0  0  0  0  0  0  0  0  0  0
   -7.5560   22.3940  -31.5780 C   0  0  0  0  0  0  0  0  0  0  0  0
   -8.6680   21.6550  -31.9700 C   0  0  0  0  0  0  0  0  0  0  0  0
   -8.4800   20.3000  -32.2890 C   0  0  0  0  0  0  0  0  0  0  0  0
   -7.1900   19.7170  -32.2290 C   0  0  0  0  0  0  0  0  0  0  0  0
   -7.0010   18.2600  -32.5600 C   0  0  0  0  0  0  0  0  0  0  0  0
   -6.0750   18.0740  -33.7640 C   0  0  0  0  0  0  0  0  0  0  0  0
   -4.7810   17.8770  -33.3200 F   0  0  0  0  0  0  0  0  0  0  0  0
   -6.4660   16.9710  -34.5030 F   0  0  0  0  0  0  0  0  0  0  0  0
   -6.1050   19.1980  -34.5700 F   0  0  0  0  0  0  0  0  0  0  0  0
   -6.0850   20.4970  -31.8210 C   0  0  0  0  0  0  0  0  0  0  0  0
   -6.3050   21.8390  -31.4860 C   0  0  0  0  0  0  0  0  0  0  0  0
   -5.4030   22.7690  -31.0970 N   0  0  0  0  0  0  0  0  0  0  0  0
   -3.9820   22.5880  -30.9850 C   0  0  0  0  0  0  0  0  0  0  0  0
   -3.2320   22.8640  -31.9620 O   0  0  0  0  0  0  0  0  0  0  0  0
   -3.4330   22.1040  -29.7940 O   0  0  0  0  0  0  0  0  0  0  0  0
   -2.9850   22.9570  -28.7480 C   0  0  0  0  0  0  0  0  0  0  0  0
   -2.0020   23.9320  -29.2990 C   0  0  0  0  0  0  0  0  0  0  0  0
   -0.9050   23.5290  -29.7680 O   0  0  0  0  0  0  0  0  0  0  0  0
   -2.3170   25.2840  -29.3500 O   0  0  0  0  0  0  0  0  0  0  0  0
   -3.8660   26.5320  -30.4450 H   0  0  0  0  0  0  0  0  0  0  0  0
   -3.5500   24.9330  -31.1970 H   0  0  0  0  0  0  0  0  0  0  0  0
   -8.2591   24.4720  -31.2184 H   0  0  0  0  0  0  0  0  0  0  0  0
   -9.6641   22.1179  -32.0283 H   0  0  0  0  0  0  0  0  0  0  0  0
   -9.3422   19.6859  -32.5881 H   0  0  0  0  0  0  0  0  0  0  0  0
   -6.5626   17.7497  -31.6897 H   0  0  0  0  0  0  0  0  0  0  0  0
   -7.9832   17.8328  -32.8107 H   0  0  0  0  0  0  0  0  0  0  0  0
   -5.0765   20.0610  -31.7677 H   0  0  0  0  0  0  0  0  0  0  0  0
   -3.8423   23.4993  -28.3226 H   0  0  0  0  0  0  0  0  0  0  0  0
   -2.5080   22.3563  -27.9596 H   0  0  0  0  0  0  0  0  0  0  0  0
  1  2  1  0
  2  3  2  0
  2  4  1  0
  4  5  2  0
  5  6  1  0
  6  7  2  0
  7  8  1  0
  8  9  2  0
  9 10  1  0
 10 11  1  0
 11 12  1  0
 11 13  1  0
 11 14  1  0
  9 15  1  0
 15 16  2  0
 16 17  1  0
 17 18  1  0
 18 19  2  0
 18 20  1  0
 20 21  1  0
 21 22  1  0
 22 23  2  0
 22 24  1  0
 17  4  1  0
 16  6  1  0
  1 25  1  0
  1 26  1  0
  5 27  1  0
  7 28  1  0
  8 29  1  0
 10 30  1  0
 10 31  1  0
 15 32  1  0
 21 33  1  0
 21 34  1  0
M  CHG  1  24  -1
M  END
>  <UniqueID>  (52) 
52

>  <SMILES>  (52) 
NC(=O)c1cc2ccc(CC(F)(F)F)cc2n1C(=O)OCC(=O)[O-]

>  <Energy>  (52) 
67.66076449270857

>  <Genealogy>  (52) 
NC(=O)c1cc2ccc(CC(F)(F)F)cc2n1C(=O)OCC(=O)[O-] (protonated)
NC(=O)c1cc2ccc(CC(F)(F)F)cc2n1C(=O)OCC(=O)[O-] (3D coordinates assigned)
NC(=O)c1cc2ccc(CC(F)(F)F)cc2n1C(=O)OCC(=O)[O-] (optimized conformer: 67.66076449270857 kcal/mol)

>  <smiles>  (52) 
NC(=O)c1cc2ccc(CC(F)(F)F)cc2n1C(=O)OCC(=O)O

>  <score_type>  (52) 
oracle

>  <origin>  (52) 
adg

>  <m_score__min__energy>  (52) 
-10.029999999999999

>  <m_primary>  (52) 
energy

$$$$
53:0
     RDKit          3D

 41 43  0  0  0  0  0  0  0  0999 V2000
   -3.9530   25.3060  -30.5570 N   0  0  0  0  0  0  0  0  0  0  0  0
   -5.3750   25.2110  -30.5050 C   0  0  0  0  0  0  0  0  0  0  0  0
   -6.0450   26.1960  -30.0960 O   0  0  0  0  0  0  0  0  0  0  0  0
   -6.0430   23.9530  -30.8950 C   0  0  0  0  0  0  0  0  0  0  0  0
   -7.4050   23.8550  -31.1760 C   0  0  0  0  0  0  0  0  0  0  0  0
   -7.6000   22.5550  -31.5860 C   0  0  0  0  0  0  0  0  0  0  0  0
   -8.7640   21.9050  -31.9870 C   0  0  0  0  0  0  0  0  0  0  0  0
   -8.6720   20.5490  -32.3400 C   0  0  0  0  0  0  0  0  0  0  0  0
   -7.4300   19.8680  -32.2750 C   0  0  0  0  0  0  0  0  0  0  0  0
   -7.3390   18.4220  -32.6800 C   0  0  0  0  0  0  0  0  0  0  0  0
   -6.3150   18.2430  -33.8090 C   0  0  0  0  0  0  0  0  0  0  0  0
   -6.1260   19.2990  -34.7100 O   0  0  0  0  0  0  0  0  0  0  0  0
   -5.0260   17.5240  -33.4490 C   0  0  0  0  0  0  0  0  0  0  0  0
   -6.0490   16.8500  -34.3580 C   0  0  0  0  0  0  0  0  0  0  0  0
   -6.2680   20.5640  -31.8740 C   0  0  0  0  0  0  0  0  0  0  0  0
   -6.3890   21.9160  -31.5410 C   0  0  0  0  0  0  0  0  0  0  0  0
   -5.4250   22.7580  -31.1120 N   0  0  0  0  0  0  0  0  0  0  0  0
   -4.0510   22.4150  -30.8790 C   0  0  0  0  0  0  0  0  0  0  0  0
   -3.2280   22.4530  -31.8330 O   0  0  0  0  0  0  0  0  0  0  0  0
   -3.5960   21.9340  -29.5330 C   0  0  0  0  0  0  0  0  0  0  0  0
   -1.8130   22.2660  -29.3070 S   0  0  0  0  0  0  0  0  0  0  0  0
   -1.9940   23.8370  -28.3900 C   0  0  0  0  0  0  0  0  0  0  0  0
   -0.9220   24.8010  -28.7840 C   0  0  0  0  0  0  0  0  0  0  0  0
    0.2900   24.5070  -28.6060 O   0  0  0  0  0  0  0  0  0  0  0  0
   -1.2600   26.0280  -29.3380 O   0  0  0  0  0  0  0  0  0  0  0  0
   -3.4100   25.6670  -29.7410 H   0  0  0  0  0  0  0  0  0  0  0  0
   -8.1627   24.6476  -31.0887 H   0  0  0  0  0  0  0  0  0  0  0  0
   -9.7259   22.4371  -32.0261 H   0  0  0  0  0  0  0  0  0  0  0  0
   -9.5722   20.0098  -32.6702 H   0  0  0  0  0  0  0  0  0  0  0  0
   -7.0291   17.8218  -31.8118 H   0  0  0  0  0  0  0  0  0  0  0  0
   -8.3248   18.0903  -33.0382 H   0  0  0  0  0  0  0  0  0  0  0  0
   -6.9750   19.3730  -35.2190 H   0  0  0  0  0  0  0  0  0  0  0  0
   -4.0679   17.8723  -33.8622 H   0  0  0  0  0  0  0  0  0  0  0  0
   -4.5221   17.2534  -32.5094 H   0  0  0  0  0  0  0  0  0  0  0  0
   -5.8293   16.7123  -35.4270 H   0  0  0  0  0  0  0  0  0  0  0  0
   -6.5895   15.8920  -34.3464 H   0  0  0  0  0  0  0  0  0  0  0  0
   -5.2938   20.0554  -31.8251 H   0  0  0  0  0  0  0  0  0  0  0  0
   -4.1642   22.4574  -28.7500 H   0  0  0  0  0  0  0  0  0  0  0  0
   -3.7685   20.8498  -29.4645 H   0  0  0  0  0  0  0  0  0  0  0  0
   -2.9767   24.2766  -28.6159 H   0  0  0  0  0  0  0  0  0  0  0  0
   -1.9084   23.6314  -27.3128 H   0  0  0  0  0  0  0  0  0  0  0  0
  1  2  1  0
  2  3  2  0
  2  4  1  0
  4  5  2  0
  5  6  1  0
  6  7  2  0
  7  8  1  0
  8  9  2  0
  9 10  1  0
 10 11  1  0
 11 12  1  0
 11 13  1  0
 13 14  1  0
  9 15  1  0
 15 16  2  0
 16 17  1  0
 17 18  1  0
 18 19  2  0
 18 20  1  0
 20 21  1  0
 21 22  1  0
 22 23  1  0
 23 24  2  0
 23 25  1  0
 17  4  1  0
 16  6  1  0
 14 11  1  0
  1 26  1  0
  5 27  1  0
  7 28  1  0
  8 29  1  0
 10 30  1  0
 10 31  1  0
 12 32  1  0
 13 33  1  0
 13 34  1  0
 14 35  1  0
 14 36  1  0
 15 37  1  0
 20 38  1  0
 20 39  1  0
 22 40  1  0
 22 41  1  0
M  CHG  2   1  -1  25  -1
M  END
>  <UniqueID>  (53) 
53

>  <SMILES>  (53) 
[NH-]C(=O)c1cc2ccc(CC3(O)CC3)cc2n1C(=O)CSCC(=O)[O-]

>  <Energy>  (53) 
341.0942226392775

>  <Genealogy>  (53) 
[NH-]C(=O)c1cc2ccc(CC3(O)CC3)cc2n1C(=O)CSCC(=O)[O-] (protonated)
[NH-]C(=O)c1cc2ccc(CC3(O)CC3)cc2n1C(=O)CSCC(=O)[O-] (3D coordinates assigned)
[NH-]C(=O)c1cc2ccc(CC3(O)CC3)cc2n1C(=O)CSCC(=O)[O-] (nonaromatic ring conformer: 341.0942226392775 kcal/mol)

>  <smiles>  (53) 
NC(=O)c1cc2ccc(CC3(O)CC3)cc2n1C(=O)CSCC(=O)O

>  <score_type>  (53) 
oracle

>  <origin>  (53) 
adg

>  <m_score__min__energy>  (53) 
-13.66

>  <m_primary>  (53) 
energy

$$$$
54:0
     RDKit          3D

 39 40  0  0  0  0  0  0  0  0999 V2000
   -3.9090   25.6150  -30.8350 N   0  0  0  0  0  0  0  0  0  0  0  0
   -5.1480   25.0730  -30.3890 C   0  0  0  0  0  0  0  0  0  0  0  0
   -5.8310   25.7100  -29.5440 O   0  0  0  0  0  0  0  0  0  0  0  0
   -5.6710   23.8070  -30.9460 C   0  0  0  0  0  0  0  0  0  0  0  0
   -7.0310   23.5260  -31.0520 C   0  0  0  0  0  0  0  0  0  0  0  0
   -7.1030   22.3130  -31.6970 C   0  0  0  0  0  0  0  0  0  0  0  0
   -8.2150   21.5600  -32.0610 C   0  0  0  0  0  0  0  0  0  0  0  0
   -7.9950   20.3280  -32.7010 C   0  0  0  0  0  0  0  0  0  0  0  0
   -6.6790   19.8680  -32.9470 C   0  0  0  0  0  0  0  0  0  0  0  0
   -6.4550   18.5530  -33.6480 C   0  0  0  0  0  0  0  0  0  0  0  0
   -6.8410   17.3700  -32.7590 C   0  0  0  0  0  0  0  0  0  0  0  0
   -6.8330   16.1960  -33.4930 F   0  0  0  0  0  0  0  0  0  0  0  0
   -5.9540   17.2540  -31.7030 F   0  0  0  0  0  0  0  0  0  0  0  0
   -8.1120   17.5720  -32.2550 F   0  0  0  0  0  0  0  0  0  0  0  0
   -5.5740   20.6630  -32.5670 C   0  0  0  0  0  0  0  0  0  0  0  0
   -5.8230   21.8960  -31.9520 C   0  0  0  0  0  0  0  0  0  0  0  0
   -4.9290   22.8020  -31.4950 N   0  0  0  0  0  0  0  0  0  0  0  0
   -3.4980   22.6720  -31.5230 C   0  0  0  0  0  0  0  0  0  0  0  0
   -2.9460   22.0060  -32.4400 O   0  0  0  0  0  0  0  0  0  0  0  0
   -2.7260   23.3150  -30.5500 O   0  0  0  0  0  0  0  0  0  0  0  0
   -2.5550   22.8280  -29.2190 C   0  0  0  0  0  0  0  0  0  0  0  0
   -2.3510   23.9710  -28.2090 C   0  0  2  0  0  0  0  0  0  0  0  0
   -3.4590   24.8360  -28.1800 O   0  0  0  0  0  0  0  0  0  0  0  0
   -1.0350   24.7400  -28.4330 C   0  0  0  0  0  0  0  0  0  0  0  0
   -1.2240   25.8200  -29.3060 O   0  0  0  0  0  0  0  0  0  0  0  0
   -3.0040   25.3000  -30.4210 H   0  0  0  0  0  0  0  0  0  0  0  0
   -7.8693   24.1428  -30.6958 H   0  0  0  0  0  0  0  0  0  0  0  0
   -9.2345   21.9177  -31.8544 H   0  0  0  0  0  0  0  0  0  0  0  0
   -8.8536   19.7155  -33.0136 H   0  0  0  0  0  0  0  0  0  0  0  0
   -7.0659   18.5270  -34.5624 H   0  0  0  0  0  0  0  0  0  0  0  0
   -5.3850   18.4686  -33.8888 H   0  0  0  0  0  0  0  0  0  0  0  0
   -4.5444   20.3217  -32.7498 H   0  0  0  0  0  0  0  0  0  0  0  0
   -3.4499   22.2562  -28.9323 H   0  0  0  0  0  0  0  0  0  0  0  0
   -1.6558   22.1946  -29.2017 H   0  0  0  0  0  0  0  0  0  0  0  0
   -2.2668   23.4998  -27.2186 H   0  0  0  0  0  0  0  0  0  0  0  0
   -3.5110   25.3000  -29.0540 H   0  0  0  0  0  0  0  0  0  0  0  0
   -0.6712   25.1188  -27.4664 H   0  0  0  0  0  0  0  0  0  0  0  0
   -0.3010   24.0535  -28.8803 H   0  0  0  0  0  0  0  0  0  0  0  0
   -2.1050   25.6740  -29.7380 H   0  0  0  0  0  0  0  0  0  0  0  0
  1  2  1  0
  2  3  2  0
  2  4  1  0
  4  5  2  0
  5  6  1  0
  6  7  2  0
  7  8  1  0
  8  9  2  0
  9 10  1  0
 10 11  1  0
 11 12  1  0
 11 13  1  0
 11 14  1  0
  9 15  1  0
 15 16  2  0
 16 17  1  0
 17 18  1  0
 18 19  2  0
 18 20  1  0
 20 21  1  0
 21 22  1  0
 22 23  1  0
 22 24  1  0
 24 25  1  0
 17  4  1  0
 16  6  1  0
  1 26  1  0
  5 27  1  0
  7 28  1  0
  8 29  1  0
 10 30  1  0
 10 31  1  0
 15 32  1  0
 21 33  1  0
 21 34  1  0
 22 35  1  1
 23 36  1  0
 24 37  1  0
 24 38  1  0
 25 39  1  0
M  CHG  1   1  -1
M  END
>  <UniqueID>  (54) 
54

>  <SMILES>  (54) 
[NH-]C(=O)c1cc2ccc(CC(F)(F)F)cc2n1C(=O)OC[C@H](O)CO

>  <Energy>  (54) 
72.97964345904343

>  <Genealogy>  (54) 
[NH-]C(=O)c1cc2ccc(CC(F)(F)F)cc2n1C(=O)OCC(O)CO (protonated)
[NH-]C(=O)c1cc2ccc(CC(F)(F)F)cc2n1C(=O)OC[C@H](O)CO (chirality)
[NH-]C(=O)c1cc2ccc(CC(F)(F)F)cc2n1C(=O)OC[C@H](O)CO (3D coordinates assigned)
[NH-]C(=O)c1cc2ccc(CC(F)(F)F)cc2n1C(=O)OC[C@H](O)CO (optimized conformer: 72.97964345904343 kcal/mol)

>  <smiles>  (54) 
NC(=O)c1cc2ccc(CC(F)(F)F)cc2n1C(=O)OCC(O)CO

>  <score_type>  (54) 
oracle

>  <origin>  (54) 
adg

>  <m_score__min__energy>  (54) 
-10.1

>  <m_primary>  (54) 
energy

$$$$
55:0
     RDKit          3D

 36 38  0  0  0  0  0  0  0  0999 V2000
   -4.2560   25.7040  -30.6790 N   0  0  0  0  0  0  0  0  0  0  0  0
   -5.5390   25.1180  -30.4790 C   0  0  0  0  0  0  0  0  0  0  0  0
   -6.3900   25.7210  -29.7710 O   0  0  0  0  0  0  0  0  0  0  0  0
   -5.8660   23.7900  -31.0410 C   0  0  0  0  0  0  0  0  0  0  0  0
   -7.1400   23.4370  -31.4780 C   0  0  0  0  0  0  0  0  0  0  0  0
   -7.0500   22.1100  -31.8330 C   0  0  0  0  0  0  0  0  0  0  0  0
   -8.0200   21.2530  -32.3420 C   0  0  0  0  0  0  0  0  0  0  0  0
   -7.6410   19.9360  -32.6470 C   0  0  0  0  0  0  0  0  0  0  0  0
   -6.3040   19.4990  -32.4480 C   0  0  0  0  0  0  0  0  0  0  0  0
   -5.9110   18.1070  -32.7830 C   0  0  0  0  0  0  0  0  0  0  0  0
   -5.8140   17.1200  -31.7900 C   0  0  0  0  0  0  0  0  0  0  0  0
   -5.4500   15.8540  -32.1190 N   0  0  0  0  0  0  0  0  0  0  0  0
   -5.1780   15.5150  -33.4050 C   0  0  0  0  0  0  0  0  0  0  0  0
   -5.2650   16.4480  -34.3880 N   0  0  0  0  0  0  0  0  0  0  0  0
   -5.6230   17.7290  -34.1040 C   0  0  0  0  0  0  0  0  0  0  0  0
   -5.3480   20.4050  -31.9300 C   0  0  0  0  0  0  0  0  0  0  0  0
   -5.7590   21.7060  -31.6170 C   0  0  0  0  0  0  0  0  0  0  0  0
   -5.0170   22.7270  -31.1330 N   0  0  0  0  0  0  0  0  0  0  0  0
   -3.6070   22.6960  -30.8620 C   0  0  0  0  0  0  0  0  0  0  0  0
   -2.7820   22.9270  -31.7900 O   0  0  0  0  0  0  0  0  0  0  0  0
   -3.1550   22.3810  -29.5790 O   0  0  0  0  0  0  0  0  0  0  0  0
   -1.9810   22.9520  -29.0150 C   0  0  0  0  0  0  0  0  0  0  0  0
   -2.2650   24.3580  -28.6050 C   0  0  0  0  0  0  0  0  0  0  0  0
   -1.8970   25.3150  -29.3360 O   0  0  0  0  0  0  0  0  0  0  0  0
   -2.8880   24.6170  -27.3920 O   0  0  0  0  0  0  0  0  0  0  0  0
   -3.4160   25.1100  -30.8530 H   0  0  0  0  0  0  0  0  0  0  0  0
   -8.0298   24.0818  -31.5288 H   0  0  0  0  0  0  0  0  0  0  0  0
   -9.0528   21.5966  -32.5008 H   0  0  0  0  0  0  0  0  0  0  0  0
   -8.3885   19.2339  -33.0449 H   0  0  0  0  0  0  0  0  0  0  0  0
   -6.0335   17.3728  -30.7422 H   0  0  0  0  0  0  0  0  0  0  0  0
   -4.8867   14.4832  -33.6512 H   0  0  0  0  0  0  0  0  0  0  0  0
   -5.0570   16.1780  -35.3750 H   0  0  0  0  0  0  0  0  0  0  0  0
   -5.6871   18.4719  -34.9127 H   0  0  0  0  0  0  0  0  0  0  0  0
   -4.3043   20.0934  -31.7766 H   0  0  0  0  0  0  0  0  0  0  0  0
   -1.6742   22.3674  -28.1351 H   0  0  0  0  0  0  0  0  0  0  0  0
   -1.1716   22.9415  -29.7598 H   0  0  0  0  0  0  0  0  0  0  0  0
  1  2  1  0
  2  3  2  0
  2  4  1  0
  4  5  2  0
  5  6  1  0
  6  7  2  0
  7  8  1  0
  8  9  2  0
  9 10  1  0
 10 11  2  0
 11 12  1  0
 12 13  2  0
 13 14  1  0
 14 15  2  0
  9 16  1  0
 16 17  2  0
 17 18  1  0
 18 19  1  0
 19 20  2  0
 19 21  1  0
 21 22  1  0
 22 23  1  0
 23 24  2  0
 23 25  1  0
 18  4  1  0
 17  6  1  0
 15 10  1  0
  1 26  1  0
  5 27  1  0
  7 28  1  0
  8 29  1  0
 11 30  1  0
 13 31  1  0
 14 32  1  0
 15 33  1  0
 16 34  1  0
 22 35  1  0
 22 36  1  0
M  CHG  3   1  -1  14   1  25  -1
M  END
>  <UniqueID>  (55) 
55

>  <SMILES>  (55) 
[NH-]C(=O)c1cc2ccc(-c3cnc[nH+]c3)cc2n1C(=O)OCC(=O)[O-]

>  <Energy>  (55) 
80.32136085188424

>  <Genealogy>  (55) 
[NH-]C(=O)c1cc2ccc(-c3cnc[nH+]c3)cc2n1C(=O)OCC(=O)[O-] (protonated)
[NH-]C(=O)c1cc2ccc(-c3cnc[nH+]c3)cc2n1C(=O)OCC(=O)[O-] (3D coordinates assigned)
[NH-]C(=O)c1cc2ccc(-c3cnc[nH+]c3)cc2n1C(=O)OCC(=O)[O-] (optimized conformer: 80.32136085188424 kcal/mol)

>  <smiles>  (55) 
NC(=O)c1cc2ccc(-c3cncnc3)cc2n1C(=O)OCC(=O)O

>  <score_type>  (55) 
oracle

>  <origin>  (55) 
adg

>  <m_score__min__energy>  (55) 
-12.470000000000001

>  <m_primary>  (55) 
energy

$$$$
56:0
     RDKit          3D

 38 40  0  0  0  0  0  0  0  0999 V2000
   -3.9600   25.6700  -30.8250 N   0  0  0  0  0  0  0  0  0  0  0  0
   -5.2350   25.1270  -30.4960 C   0  0  0  0  0  0  0  0  0  0  0  0
   -5.9840   25.7480  -29.6960 O   0  0  0  0  0  0  0  0  0  0  0  0
   -5.6670   23.8200  -31.0360 C   0  0  0  0  0  0  0  0  0  0  0  0
   -6.9970   23.5050  -31.3070 C   0  0  0  0  0  0  0  0  0  0  0  0
   -6.9860   22.1850  -31.6970 C   0  0  0  0  0  0  0  0  0  0  0  0
   -8.0350   21.3600  -32.0910 C   0  0  0  0  0  0  0  0  0  0  0  0
   -7.7300   20.0420  -32.4690 C   0  0  0  0  0  0  0  0  0  0  0  0
   -6.3900   19.5720  -32.4570 C   0  0  0  0  0  0  0  0  0  0  0  0
   -6.0790   18.1800  -32.8700 C   0  0  0  0  0  0  0  0  0  0  0  0
   -5.6700   17.2230  -31.9280 C   0  0  0  0  0  0  0  0  0  0  0  0
   -5.3810   15.9170  -32.3290 C   0  0  0  0  0  0  0  0  0  0  0  0
   -5.5050   15.5680  -33.6810 C   0  0  0  0  0  0  0  0  0  0  0  0
   -5.2090   14.2010  -34.1420 C   0  0  0  0  0  0  0  0  0  0  0  0
   -4.0390   13.7430  -34.0500 O   0  0  0  0  0  0  0  0  0  0  0  0
   -6.2110   13.4020  -34.6820 O   0  0  0  0  0  0  0  0  0  0  0  0
   -5.9040   16.5080  -34.5800 N   0  0  0  0  0  0  0  0  0  0  0  0
   -6.1880   17.7860  -34.2140 C   0  0  0  0  0  0  0  0  0  0  0  0
   -5.3520   20.4450  -32.0500 C   0  0  0  0  0  0  0  0  0  0  0  0
   -5.6880   21.7470  -31.6610 C   0  0  0  0  0  0  0  0  0  0  0  0
   -4.8650   22.7400  -31.2600 N   0  0  0  0  0  0  0  0  0  0  0  0
   -3.4330   22.6730  -31.1760 C   0  0  0  0  0  0  0  0  0  0  0  0
   -2.7710   22.1710  -32.1260 O   0  0  0  0  0  0  0  0  0  0  0  0
   -2.7820   23.1430  -30.0300 O   0  0  0  0  0  0  0  0  0  0  0  0
   -1.3640   23.1610  -29.8870 C   0  0  0  0  0  0  0  0  0  0  0  0
   -0.9270   24.4190  -29.2080 C   0  0  0  0  0  0  0  0  0  0  0  0
   -1.6050   25.4740  -29.3240 O   0  0  0  0  0  0  0  0  0  0  0  0
    0.2170   24.4200  -28.4190 O   0  0  0  0  0  0  0  0  0  0  0  0
   -3.0820   25.2400  -30.4580 H   0  0  0  0  0  0  0  0  0  0  0  0
   -7.8698   24.1696  -31.2264 H   0  0  0  0  0  0  0  0  0  0  0  0
   -9.0713   21.7286  -32.1060 H   0  0  0  0  0  0  0  0  0  0  0  0
   -8.5398   19.3649  -32.7784 H   0  0  0  0  0  0  0  0  0  0  0  0
   -5.5767   17.5033  -30.8684 H   0  0  0  0  0  0  0  0  0  0  0  0
   -5.0588   15.1684  -31.5902 H   0  0  0  0  0  0  0  0  0  0  0  0
   -6.5048   18.5153  -34.9741 H   0  0  0  0  0  0  0  0  0  0  0  0
   -4.3051   20.1076  -32.0398 H   0  0  0  0  0  0  0  0  0  0  0  0
   -1.0489   22.2957  -29.2854 H   0  0  0  0  0  0  0  0  0  0  0  0
   -0.9031   23.1142  -30.8847 H   0  0  0  0  0  0  0  0  0  0  0  0
  1  2  1  0
  2  3  2  0
  2  4  1  0
  4  5  2  0
  5  6  1  0
  6  7  2  0
  7  8  1  0
  8  9  2  0
  9 10  1  0
 10 11  2  0
 11 12  1  0
 12 13  2  0
 13 14  1  0
 14 15  2  0
 14 16  1  0
 13 17  1  0
 17 18  2  0
  9 19  1  0
 19 20  2  0
 20 21  1  0
 21 22  1  0
 22 23  2  0
 22 24  1  0
 24 25  1  0
 25 26  1  0
 26 27  2  0
 26 28  1  0
 21  4  1  0
 20  6  1  0
 18 10  1  0
  1 29  1  0
  5 30  1  0
  7 31  1  0
  8 32  1  0
 11 33  1  0
 12 34  1  0
 18 35  1  0
 19 36  1  0
 25 37  1  0
 25 38  1  0
M  CHG  3   1  -1  16  -1  28  -1
M  END
>  <UniqueID>  (56) 
56

>  <SMILES>  (56) 
[NH-]C(=O)c1cc2ccc(-c3ccc(C(=O)[O-])nc3)cc2n1C(=O)OCC(=O)[O-]

>  <Energy>  (56) 
83.43582498013629

>  <Genealogy>  (56) 
[NH-]C(=O)c1cc2ccc(-c3ccc(C(=O)[O-])nc3)cc2n1C(=O)OCC(=O)[O-] (protonated)
[NH-]C(=O)c1cc2ccc(-c3ccc(C(=O)[O-])nc3)cc2n1C(=O)OCC(=O)[O-] (3D coordinates assigned)
[NH-]C(=O)c1cc2ccc(-c3ccc(C(=O)[O-])nc3)cc2n1C(=O)OCC(=O)[O-] (optimized conformer: 83.43582498013629 kcal/mol)

>  <smiles>  (56) 
NC(=O)c1cc2ccc(-c3ccc(C(=O)O)nc3)cc2n1C(=O)OCC(=O)O

>  <score_type>  (56) 
oracle

>  <origin>  (56) 
adg

>  <m_score__min__energy>  (56) 
-12.970000000000001

>  <m_primary>  (56) 
energy

$$$$
57:0
     RDKit          3D

 30 31  0  0  0  0  0  0  0  0999 V2000
   -5.6600   17.8770  -35.0690 N   0  0  0  0  0  0  0  0  0  0  0  0
   -5.9890   17.9660  -33.9630 C   0  0  0  0  0  0  0  0  0  0  0  0
   -6.4040   18.0790  -32.5620 C   0  0  0  0  0  0  0  0  0  0  0  0
   -6.7580   19.5050  -32.2460 C   0  0  0  0  0  0  0  0  0  0  0  0
   -8.1030   19.9420  -32.3360 C   0  0  0  0  0  0  0  0  0  0  0  0
   -8.4470   21.2690  -32.0260 C   0  0  0  0  0  0  0  0  0  0  0  0
   -7.4310   22.1250  -31.6130 C   0  0  0  0  0  0  0  0  0  0  0  0
   -7.4790   23.4580  -31.2720 C   0  0  0  0  0  0  0  0  0  0  0  0
   -6.1680   23.8050  -30.9480 C   0  0  0  0  0  0  0  0  0  0  0  0
   -5.7700   25.1480  -30.4740 C   0  0  0  0  0  0  0  0  0  0  0  0
   -4.4900   25.6900  -30.7900 N   0  0  0  0  0  0  0  0  0  0  0  0
   -6.5610   25.8160  -29.7560 O   0  0  0  0  0  0  0  0  0  0  0  0
   -5.3440   22.7280  -31.0820 N   0  0  0  0  0  0  0  0  0  0  0  0
   -3.9210   22.6850  -30.8990 C   0  0  0  0  0  0  0  0  0  0  0  0
   -3.1700   22.5100  -31.8970 O   0  0  0  0  0  0  0  0  0  0  0  0
   -3.3200   22.9420  -29.5470 C   0  0  0  0  0  0  0  0  0  0  0  0
   -2.1290   23.8430  -29.6460 C   0  0  0  0  0  0  0  0  0  0  0  0
   -1.0170   23.3900  -30.0240 O   0  0  0  0  0  0  0  0  0  0  0  0
   -2.2530   25.1930  -29.3430 O   0  0  0  0  0  0  0  0  0  0  0  0
   -6.1300   21.7100  -31.4920 C   0  0  0  0  0  0  0  0  0  0  0  0
   -5.7560   20.4010  -31.8130 C   0  0  0  0  0  0  0  0  0  0  0  0
   -7.2814   17.4386  -32.3889 H   0  0  0  0  0  0  0  0  0  0  0  0
   -5.5758   17.7593  -31.9124 H   0  0  0  0  0  0  0  0  0  0  0  0
   -8.8853   19.2359  -32.6515 H   0  0  0  0  0  0  0  0  0  0  0  0
   -9.4864   21.6196  -32.1073 H   0  0  0  0  0  0  0  0  0  0  0  0
   -8.3641   24.1110  -31.2581 H   0  0  0  0  0  0  0  0  0  0  0  0
   -3.8580   26.0490  -30.0390 H   0  0  0  0  0  0  0  0  0  0  0  0
   -4.0755   23.4155  -28.9028 H   0  0  0  0  0  0  0  0  0  0  0  0
   -2.9950   21.9808  -29.1221 H   0  0  0  0  0  0  0  0  0  0  0  0
   -4.7079   20.0776  -31.7303 H   0  0  0  0  0  0  0  0  0  0  0  0
  1  2  3  0
  2  3  1  0
  3  4  1  0
  4  5  2  0
  5  6  1  0
  6  7  2  0
  7  8  1  0
  8  9  2  0
  9 10  1  0
 10 11  1  0
 10 12  2  0
  9 13  1  0
 13 14  1  0
 14 15  2  0
 14 16  1  0
 16 17  1  0
 17 18  2  0
 17 19  1  0
 13 20  1  0
 20 21  2  0
 21  4  1  0
 20  7  1  0
  3 22  1  0
  3 23  1  0
  5 24  1  0
  6 25  1  0
  8 26  1  0
 11 27  1  0
 16 28  1  0
 16 29  1  0
 21 30  1  0
M  CHG  2  11  -1  19  -1
M  END
>  <UniqueID>  (57) 
57

>  <SMILES>  (57) 
N#CCc1ccc2cc(C([NH-])=O)n(C(=O)CC(=O)[O-])c2c1

>  <Energy>  (57) 
67.05731567433162

>  <Genealogy>  (57) 
N#CCc1ccc2cc(C([NH-])=O)n(C(=O)CC(=O)[O-])c2c1 (protonated)
N#CCc1ccc2cc(C([NH-])=O)n(C(=O)CC(=O)[O-])c2c1 (3D coordinates assigned)
N#CCc1ccc2cc(C([NH-])=O)n(C(=O)CC(=O)[O-])c2c1 (optimized conformer: 67.05731567433162 kcal/mol)

>  <smiles>  (57) 
N#CCc1ccc2cc(C(N)=O)n(C(=O)CC(=O)O)c2c1

>  <score_type>  (57) 
oracle

>  <origin>  (57) 
adg

>  <m_score__min__energy>  (57) 
-11.68

>  <m_primary>  (57) 
energy

$$$$
58:0
     RDKit          3D

 39 41  0  0  0  0  0  0  0  0999 V2000
   -4.4910   25.6660  -30.8410 N   0  0  0  0  0  0  0  0  0  0  0  0
   -5.7670   25.1410  -30.4850 C   0  0  0  0  0  0  0  0  0  0  0  0
   -6.5820   25.8740  -29.8640 O   0  0  0  0  0  0  0  0  0  0  0  0
   -6.1590   23.7650  -30.8590 C   0  0  0  0  0  0  0  0  0  0  0  0
   -7.4580   23.4010  -31.2140 C   0  0  0  0  0  0  0  0  0  0  0  0
   -7.3890   22.0630  -31.5320 C   0  0  0  0  0  0  0  0  0  0  0  0
   -8.3880   21.1860  -31.9440 C   0  0  0  0  0  0  0  0  0  0  0  0
   -8.0320   19.8490  -32.1810 C   0  0  0  0  0  0  0  0  0  0  0  0
   -6.6960   19.4070  -31.9910 C   0  0  0  0  0  0  0  0  0  0  0  0
   -6.3420   18.0340  -32.2570 N   0  0  0  0  0  0  0  0  0  0  0  0
   -6.4640   17.7440  -33.6970 C   0  0  0  0  0  0  0  0  0  0  0  0
   -5.5050   16.6460  -34.1570 C   0  0  0  0  0  0  0  0  0  0  0  0
   -4.7890   17.6470  -35.0540 C   0  0  0  0  0  0  0  0  0  0  0  0
   -5.7350   18.7470  -34.5950 C   0  0  0  0  0  0  0  0  0  0  0  0
   -5.7110   20.3310  -31.5690 C   0  0  0  0  0  0  0  0  0  0  0  0
   -6.0900   21.6600  -31.3640 C   0  0  0  0  0  0  0  0  0  0  0  0
   -5.3230   22.6930  -30.9570 N   0  0  0  0  0  0  0  0  0  0  0  0
   -3.9240   22.6360  -30.6390 C   0  0  0  0  0  0  0  0  0  0  0  0
   -3.1170   22.1220  -31.4590 O   0  0  0  0  0  0  0  0  0  0  0  0
   -3.4210   23.1490  -29.3240 C   0  0  0  0  0  0  0  0  0  0  0  0
   -2.2050   23.9900  -29.5380 C   0  0  0  0  0  0  0  0  0  0  0  0
   -2.2510   25.2320  -29.3370 O   0  0  0  0  0  0  0  0  0  0  0  0
   -1.0060   23.3960  -29.9110 O   0  0  0  0  0  0  0  0  0  0  0  0
   -3.8470   26.0510  -30.1150 H   0  0  0  0  0  0  0  0  0  0  0  0
   -8.3487   24.0461  -31.2354 H   0  0  0  0  0  0  0  0  0  0  0  0
   -9.4241   21.5297  -32.0797 H   0  0  0  0  0  0  0  0  0  0  0  0
   -8.7976   19.1347  -32.5181 H   0  0  0  0  0  0  0  0  0  0  0  0
   -6.9960   17.4090  -31.7300 H   0  0  0  0  0  0  0  0  0  0  0  0
   -5.3720   17.8340  -31.9140 H   0  0  0  0  0  0  0  0  0  0  0  0
   -7.5540   17.6212  -33.7792 H   0  0  0  0  0  0  0  0  0  0  0  0
   -4.8768   16.2331  -33.3540 H   0  0  0  0  0  0  0  0  0  0  0  0
   -5.8944   15.7050  -34.5728 H   0  0  0  0  0  0  0  0  0  0  0  0
   -3.7369   17.8190  -34.7828 H   0  0  0  0  0  0  0  0  0  0  0  0
   -4.6613   17.4377  -36.1263 H   0  0  0  0  0  0  0  0  0  0  0  0
   -5.2420   19.5641  -34.0480 H   0  0  0  0  0  0  0  0  0  0  0  0
   -6.2934   19.3444  -35.3307 H   0  0  0  0  0  0  0  0  0  0  0  0
   -4.6714   20.0105  -31.4062 H   0  0  0  0  0  0  0  0  0  0  0  0
   -4.2041   23.7552  -28.8453 H   0  0  0  0  0  0  0  0  0  0  0  0
   -3.1631   22.2972  -28.6776 H   0  0  0  0  0  0  0  0  0  0  0  0
  1  2  1  0
  2  3  2  0
  2  4  1  0
  4  5  2  0
  5  6  1  0
  6  7  2  0
  7  8  1  0
  8  9  2  0
  9 10  1  0
 10 11  1  0
 11 12  1  0
 12 13  1  0
 13 14  1  0
  9 15  1  0
 15 16  2  0
 16 17  1  0
 17 18  1  0
 18 19  2  0
 18 20  1  0
 20 21  1  0
 21 22  2  0
 21 23  1  0
 17  4  1  0
 16  6  1  0
 14 11  1  0
  1 24  1  0
  5 25  1  0
  7 26  1  0
  8 27  1  0
 10 28  1  0
 10 29  1  0
 11 30  1  0
 12 31  1  0
 12 32  1  0
 13 33  1  0
 13 34  1  0
 14 35  1  0
 14 36  1  0
 15 37  1  0
 20 38  1  0
 20 39  1  0
M  CHG  3   1  -1  10   1  23  -1
M  END
>  <UniqueID>  (58) 
58

>  <SMILES>  (58) 
[NH-]C(=O)c1cc2ccc([NH2+]C3CCC3)cc2n1C(=O)CC(=O)[O-]

>  <Energy>  (58) 
138.34611144341704

>  <Genealogy>  (58) 
[NH-]C(=O)c1cc2ccc([NH2+]C3CCC3)cc2n1C(=O)CC(=O)[O-] (protonated)
[NH-]C(=O)c1cc2ccc([NH2+]C3CCC3)cc2n1C(=O)CC(=O)[O-] (3D coordinates assigned)
[NH-]C(=O)c1cc2ccc([NH2+]C3CCC3)cc2n1C(=O)CC(=O)[O-] (nonaromatic ring conformer: 138.34611144341704 kcal/mol)

>  <smiles>  (58) 
NC(=O)c1cc2ccc(NC3CCC3)cc2n1C(=O)CC(=O)O

>  <score_type>  (58) 
oracle

>  <origin>  (58) 
adg

>  <m_score__min__energy>  (58) 
-11.449999999999999

>  <m_primary>  (58) 
energy

$$$$
59:0
     RDKit          3D

 35 37  0  0  0  0  0  0  0  0999 V2000
   -3.8640   25.3710  -30.8450 N   0  0  0  0  0  0  0  0  0  0  0  0
   -5.2180   25.1410  -30.4590 C   0  0  0  0  0  0  0  0  0  0  0  0
   -5.8100   25.9920  -29.7440 O   0  0  0  0  0  0  0  0  0  0  0  0
   -5.9060   23.9070  -30.8880 C   0  0  0  0  0  0  0  0  0  0  0  0
   -7.2900   23.7790  -31.0020 C   0  0  0  0  0  0  0  0  0  0  0  0
   -7.5020   22.4850  -31.4270 C   0  0  0  0  0  0  0  0  0  0  0  0
   -8.6890   21.7960  -31.6570 C   0  0  0  0  0  0  0  0  0  0  0  0
   -8.6040   20.4440  -32.0340 C   0  0  0  0  0  0  0  0  0  0  0  0
   -7.3430   19.8110  -32.1920 C   0  0  0  0  0  0  0  0  0  0  0  0
   -7.2660   18.3440  -32.5250 C   0  0  0  0  0  0  0  0  0  0  0  0
   -8.4990   17.7380  -32.3510 F   0  0  0  0  0  0  0  0  0  0  0  0
   -6.3490   17.7030  -31.7100 F   0  0  0  0  0  0  0  0  0  0  0  0
   -6.8760   18.1970  -33.8440 F   0  0  0  0  0  0  0  0  0  0  0  0
   -6.1610   20.5420  -31.9320 C   0  0  0  0  0  0  0  0  0  0  0  0
   -6.2790   21.8840  -31.5610 C   0  0  0  0  0  0  0  0  0  0  0  0
   -5.2940   22.7430  -31.2350 N   0  0  0  0  0  0  0  0  0  0  0  0
   -3.8990   22.4280  -31.1540 C   0  0  0  0  0  0  0  0  0  0  0  0
   -3.1770   22.5130  -32.1830 O   0  0  0  0  0  0  0  0  0  0  0  0
   -3.3240   21.8900  -29.8780 C   0  0  0  0  0  0  0  0  0  0  0  0
   -2.8960   23.0290  -29.0020 C   0  0  0  0  0  0  0  0  0  0  0  0
   -3.6800   23.4270  -27.9120 C   0  0  0  0  0  0  0  0  0  0  0  0
   -3.2770   24.5400  -27.1750 C   0  0  0  0  0  0  0  0  0  0  0  0
   -2.1530   25.2170  -27.5250 N   0  0  0  0  0  0  0  0  0  0  0  0
   -1.4080   24.8240  -28.5920 C   0  0  0  0  0  0  0  0  0  0  0  0
   -1.7840   23.7430  -29.3230 N   0  0  0  0  0  0  0  0  0  0  0  0
   -3.0860   25.2640  -30.1580 H   0  0  0  0  0  0  0  0  0  0  0  0
   -8.0503   24.5469  -30.7966 H   0  0  0  0  0  0  0  0  0  0  0  0
   -9.6638   22.2937  -31.5473 H   0  0  0  0  0  0  0  0  0  0  0  0
   -9.5258   19.8697  -32.2086 H   0  0  0  0  0  0  0  0  0  0  0  0
   -5.1731   20.0661  -32.0196 H   0  0  0  0  0  0  0  0  0  0  0  0
   -4.0859   21.2925  -29.3560 H   0  0  0  0  0  0  0  0  0  0  0  0
   -2.4540   21.2570  -30.1067 H   0  0  0  0  0  0  0  0  0  0  0  0
   -4.5925   22.8745  -27.6435 H   0  0  0  0  0  0  0  0  0  0  0  0
   -3.8701   24.8699  -26.3093 H   0  0  0  0  0  0  0  0  0  0  0  0
   -0.4998   25.3821  -28.8635 H   0  0  0  0  0  0  0  0  0  0  0  0
  1  2  1  0
  2  3  2  0
  2  4  1  0
  4  5  2  0
  5  6  1  0
  6  7  2  0
  7  8  1  0
  8  9  2  0
  9 10  1  0
 10 11  1  0
 10 12  1  0
 10 13  1  0
  9 14  1  0
 14 15  2  0
 15 16  1  0
 16 17  1  0
 17 18  2  0
 17 19  1  0
 19 20  1  0
 20 21  2  0
 21 22  1  0
 22 23  2  0
 23 24  1  0
 24 25  2  0
 16  4  1  0
 25 20  1  0
 15  6  1  0
  1 26  1  0
  5 27  1  0
  7 28  1  0
  8 29  1  0
 14 30  1  0
 19 31  1  0
 19 32  1  0
 21 33  1  0
 22 34  1  0
 24 35  1  0
M  CHG  1   1  -1
M  END
>  <UniqueID>  (59) 
59

>  <SMILES>  (59) 
[NH-]C(=O)c1cc2ccc(C(F)(F)F)cc2n1C(=O)Cc1ccncn1

>  <Energy>  (59) 
76.01939949563334

>  <Genealogy>  (59) 
[NH-]C(=O)c1cc2ccc(C(F)(F)F)cc2n1C(=O)Cc1ccncn1 (protonated)
[NH-]C(=O)c1cc2ccc(C(F)(F)F)cc2n1C(=O)Cc1ccncn1 (3D coordinates assigned)
[NH-]C(=O)c1cc2ccc(C(F)(F)F)cc2n1C(=O)Cc1ccncn1 (optimized conformer: 76.01939949563334 kcal/mol)

>  <smiles>  (59) 
NC(=O)c1cc2ccc(C(F)(F)F)cc2n1C(=O)Cc1ccncn1

>  <score_type>  (59) 
oracle

>  <origin>  (59) 
adg

>  <m_score__min__energy>  (59) 
-10.1

>  <m_primary>  (59) 
energy

$$$$
60:0
     RDKit          3D

 42 44  0  0  0  0  0  0  0  0999 V2000
   -6.1080   25.3670  -29.1150 N   0  0  0  0  0  0  0  0  0  0  0  0
   -5.7110   24.8200  -30.3760 C   0  0  0  0  0  0  0  0  0  0  0  0
   -4.9580   25.4930  -31.1310 O   0  0  0  0  0  0  0  0  0  0  0  0
   -6.1980   23.5010  -30.8400 C   0  0  0  0  0  0  0  0  0  0  0  0
   -7.5170   23.2580  -31.2260 C   0  0  0  0  0  0  0  0  0  0  0  0
   -7.5430   21.9390  -31.6170 C   0  0  0  0  0  0  0  0  0  0  0  0
   -8.5850   21.1930  -32.1550 C   0  0  0  0  0  0  0  0  0  0  0  0
   -8.3110   19.8730  -32.5520 C   0  0  0  0  0  0  0  0  0  0  0  0
   -7.0100   19.3290  -32.4130 C   0  0  0  0  0  0  0  0  0  0  0  0
   -6.7150   17.9380  -32.9140 C   0  0  0  0  0  0  0  0  0  0  0  0
   -5.6260   17.3950  -32.2490 F   0  0  0  0  0  0  0  0  0  0  0  0
   -6.4320   17.9940  -34.2660 F   0  0  0  0  0  0  0  0  0  0  0  0
   -7.8060   17.1080  -32.7120 F   0  0  0  0  0  0  0  0  0  0  0  0
   -5.9710   20.1330  -31.8900 C   0  0  0  0  0  0  0  0  0  0  0  0
   -6.2770   21.4330  -31.4730 C   0  0  0  0  0  0  0  0  0  0  0  0
   -5.4390   22.3790  -30.9910 N   0  0  0  0  0  0  0  0  0  0  0  0
   -4.0140   22.2720  -30.8550 C   0  0  0  0  0  0  0  0  0  0  0  0
   -3.2660   22.7790  -31.7360 O   0  0  0  0  0  0  0  0  0  0  0  0
   -3.4070   21.6810  -29.6120 C   0  0  0  0  0  0  0  0  0  0  0  0
   -3.1910   22.7330  -28.5090 C   0  0  0  0  0  0  0  0  0  0  0  0
   -2.2400   23.8700  -28.9650 C   0  0  0  0  0  0  0  0  0  0  0  0
   -2.8930   24.9340  -29.7360 N   0  0  0  0  0  0  0  0  0  0  0  0
   -0.9260   23.4140  -29.5960 C   0  0  0  0  0  0  0  0  0  0  0  0
   -0.1160   23.9890  -28.5180 N   0  0  0  0  0  0  0  0  0  0  0  0
   -1.3530   24.4350  -27.8600 C   0  0  0  0  0  0  0  0  0  0  0  0
   -6.9050   24.9560  -28.5750 H   0  0  0  0  0  0  0  0  0  0  0  0
   -5.6150   26.2050  -28.7300 H   0  0  0  0  0  0  0  0  0  0  0  0
   -8.3564   23.9689  -31.2191 H   0  0  0  0  0  0  0  0  0  0  0  0
   -9.5918   21.6220  -32.2665 H   0  0  0  0  0  0  0  0  0  0  0  0
   -9.1161   19.2547  -32.9757 H   0  0  0  0  0  0  0  0  0  0  0  0
   -4.9447   19.7449  -31.8127 H   0  0  0  0  0  0  0  0  0  0  0  0
   -4.0785   20.8989  -29.2280 H   0  0  0  0  0  0  0  0  0  0  0  0
   -2.4230   21.2696  -29.8814 H   0  0  0  0  0  0  0  0  0  0  0  0
   -4.1639   23.1706  -28.2409 H   0  0  0  0  0  0  0  0  0  0  0  0
   -2.7284   22.2299  -27.6471 H   0  0  0  0  0  0  0  0  0  0  0  0
   -3.0820   24.5820  -30.7040 H   0  0  0  0  0  0  0  0  0  0  0  0
   -3.8070   25.1800  -29.2860 H   0  0  0  0  0  0  0  0  0  0  0  0
   -0.8356   22.3205  -29.6745 H   0  0  0  0  0  0  0  0  0  0  0  0
   -0.7086   23.7062  -30.6340 H   0  0  0  0  0  0  0  0  0  0  0  0
    0.3830   24.8310  -28.8930 H   0  0  0  0  0  0  0  0  0  0  0  0
   -1.5214   23.9637  -26.8804 H   0  0  0  0  0  0  0  0  0  0  0  0
   -1.4557   25.4962  -27.5891 H   0  0  0  0  0  0  0  0  0  0  0  0
  1  2  1  0
  2  3  2  0
  2  4  1  0
  4  5  2  0
  5  6  1  0
  6  7  2  0
  7  8  1  0
  8  9  2  0
  9 10  1  0
 10 11  1  0
 10 12  1  0
 10 13  1  0
  9 14  1  0
 14 15  2  0
 15 16  1  0
 16 17  1  0
 17 18  2  0
 17 19  1  0
 19 20  1  0
 20 21  1  0
 21 22  1  0
 21 23  1  0
 23 24  1  0
 24 25  1  0
 16  4  1  0
 25 21  1  0
 15  6  1  0
  1 26  1  0
  1 27  1  0
  5 28  1  0
  7 29  1  0
  8 30  1  0
 14 31  1  0
 19 32  1  0
 19 33  1  0
 20 34  1  0
 20 35  1  0
 22 36  1  0
 22 37  1  0
 23 38  1  0
 23 39  1  0
 24 40  1  0
 25 41  1  0
 25 42  1  0
M  END
>  <UniqueID>  (60) 
60

>  <SMILES>  (60) 
NC(=O)c1cc2ccc(C(F)(F)F)cc2n1C(=O)CCC1(N)CNC1

>  <Energy>  (60) 
149.0880311921289

>  <Genealogy>  (60) 
NC(=O)c1cc2ccc(C(F)(F)F)cc2n1C(=O)CCC1(N)CNC1 (3D coordinates assigned)
NC(=O)c1cc2ccc(C(F)(F)F)cc2n1C(=O)CCC1(N)CNC1 (nonaromatic ring conformer: 149.0880311921289 kcal/mol)

>  <smiles>  (60) 
NC(=O)c1cc2ccc(C(F)(F)F)cc2n1C(=O)CCC1(N)CNC1

>  <score_type>  (60) 
oracle

>  <origin>  (60) 
adg

>  <m_score__min__energy>  (60) 
-9.0199999999999996

>  <m_primary>  (60) 
energy

$$$$
61:0
     RDKit          3D

 41 42  0  0  0  0  0  0  0  0999 V2000
   -1.2020   26.5960  -26.4130 C   0  0  0  0  0  0  0  0  0  0  0  0
   -0.7220   26.7840  -27.8440 C   0  0  0  0  0  0  0  0  0  0  0  0
   -1.5070   25.9820  -28.7190 O   0  0  0  0  0  0  0  0  0  0  0  0
   -1.9790   24.7180  -28.3580 C   0  0  0  0  0  0  0  0  0  0  0  0
   -3.1000   24.5860  -27.7970 O   0  0  0  0  0  0  0  0  0  0  0  0
   -1.1400   23.5090  -28.6400 C   0  0  0  0  0  0  0  0  0  0  0  0
   -1.7520   22.6380  -29.7420 C   0  0  0  0  0  0  0  0  0  0  0  0
   -3.1460   23.0060  -29.9820 N   0  0  0  0  0  0  0  0  0  0  0  0
   -3.9130   22.4840  -31.0760 C   0  0  0  0  0  0  0  0  0  0  0  0
   -3.3510   21.8110  -31.9820 O   0  0  0  0  0  0  0  0  0  0  0  0
   -5.3280   22.7210  -31.1410 N   0  0  0  0  0  0  0  0  0  0  0  0
   -5.9840   23.9040  -30.9760 C   0  0  0  0  0  0  0  0  0  0  0  0
   -5.3790   25.1790  -30.5380 C   0  0  0  0  0  0  0  0  0  0  0  0
   -3.9650   25.3620  -30.5430 N   0  0  0  0  0  0  0  0  0  0  0  0
   -6.1170   26.1090  -30.1170 O   0  0  0  0  0  0  0  0  0  0  0  0
   -7.3470   23.7430  -31.2190 C   0  0  0  0  0  0  0  0  0  0  0  0
   -7.5060   22.4130  -31.5380 C   0  0  0  0  0  0  0  0  0  0  0  0
   -8.6510   21.7110  -31.9020 C   0  0  0  0  0  0  0  0  0  0  0  0
   -8.5130   20.3510  -32.2260 C   0  0  0  0  0  0  0  0  0  0  0  0
   -7.2450   19.7150  -32.1720 C   0  0  0  0  0  0  0  0  0  0  0  0
   -7.1000   18.2730  -32.5850 C   0  0  0  0  0  0  0  0  0  0  0  0
   -6.0910   17.6580  -31.8630 F   0  0  0  0  0  0  0  0  0  0  0  0
   -8.2900   17.6110  -32.3520 F   0  0  0  0  0  0  0  0  0  0  0  0
   -6.7870   18.1800  -33.9310 F   0  0  0  0  0  0  0  0  0  0  0  0
   -6.1030   20.4720  -31.8200 C   0  0  0  0  0  0  0  0  0  0  0  0
   -6.2730   21.8200  -31.4860 C   0  0  0  0  0  0  0  0  0  0  0  0
   -0.4092   26.9065  -25.7165 H   0  0  0  0  0  0  0  0  0  0  0  0
   -2.0995   27.2091  -26.2438 H   0  0  0  0  0  0  0  0  0  0  0  0
   -1.4444   25.5365  -26.2438 H   0  0  0  0  0  0  0  0  0  0  0  0
   -0.8223   27.8420  -28.1280 H   0  0  0  0  0  0  0  0  0  0  0  0
    0.3330   26.4817  -27.9186 H   0  0  0  0  0  0  0  0  0  0  0  0
   -0.1394   23.8362  -28.9589 H   0  0  0  0  0  0  0  0  0  0  0  0
   -1.0843   22.9085  -27.7200 H   0  0  0  0  0  0  0  0  0  0  0  0
   -1.1781   22.7753  -30.6703 H   0  0  0  0  0  0  0  0  0  0  0  0
   -1.7158   21.5866  -29.4206 H   0  0  0  0  0  0  0  0  0  0  0  0
   -3.6170   23.6330  -29.2910 H   0  0  0  0  0  0  0  0  0  0  0  0
   -3.4590   25.6690  -29.6830 H   0  0  0  0  0  0  0  0  0  0  0  0
   -8.1294   24.5145  -31.1670 H   0  0  0  0  0  0  0  0  0  0  0  0
   -9.6331   22.2053  -31.9350 H   0  0  0  0  0  0  0  0  0  0  0  0
   -9.3988   19.7715  -32.5254 H   0  0  0  0  0  0  0  0  0  0  0  0
   -5.1042   20.0114  -31.8091 H   0  0  0  0  0  0  0  0  0  0  0  0
  1  2  1  0
  2  3  1  0
  3  4  1  0
  4  5  2  0
  4  6  1  0
  6  7  1  0
  7  8  1  0
  8  9  1  0
  9 10  2  0
  9 11  1  0
 11 12  1  0
 12 13  1  0
 13 14  1  0
 13 15  2  0
 12 16  2  0
 16 17  1  0
 17 18  2  0
 18 19  1  0
 19 20  2  0
 20 21  1  0
 21 22  1  0
 21 23  1  0
 21 24  1  0
 20 25  1  0
 25 26  2  0
 26 11  1  0
 26 17  1  0
  1 27  1  0
  1 28  1  0
  1 29  1  0
  2 30  1  0
  2 31  1  0
  6 32  1  0
  6 33  1  0
  7 34  1  0
  7 35  1  0
  8 36  1  0
 14 37  1  0
 16 38  1  0
 18 39  1  0
 19 40  1  0
 25 41  1  0
M  CHG  1  14  -1
M  END
>  <UniqueID>  (61) 
61

>  <SMILES>  (61) 
CCOC(=O)CCNC(=O)n1c(C([NH-])=O)cc2ccc(C(F)(F)F)cc21

>  <Energy>  (61) 
69.99105335191987

>  <Genealogy>  (61) 
CCOC(=O)CCNC(=O)n1c(C([NH-])=O)cc2ccc(C(F)(F)F)cc21 (protonated)
CCOC(=O)CCNC(=O)n1c(C([NH-])=O)cc2ccc(C(F)(F)F)cc21 (3D coordinates assigned)
CCOC(=O)CCNC(=O)n1c(C([NH-])=O)cc2ccc(C(F)(F)F)cc21 (optimized conformer: 69.99105335191987 kcal/mol)

>  <smiles>  (61) 
CCOC(=O)CCNC(=O)n1c(C(N)=O)cc2ccc(C(F)(F)F)cc21

>  <score_type>  (61) 
oracle

>  <origin>  (61) 
adg

>  <m_score__min__energy>  (61) 
-10.31

>  <m_primary>  (61) 
energy

$$$$
62:0
     RDKit          3D

 37 38  0  0  0  0  0  0  0  0999 V2000
   -3.8750   25.6060  -30.8510 N   0  0  0  0  0  0  0  0  0  0  0  0
   -5.1970   25.2830  -30.4240 C   0  0  0  0  0  0  0  0  0  0  0  0
   -5.8370   26.1080  -29.7210 O   0  0  0  0  0  0  0  0  0  0  0  0
   -5.8420   24.0210  -30.8400 C   0  0  0  0  0  0  0  0  0  0  0  0
   -7.2230   23.8270  -30.8370 C   0  0  0  0  0  0  0  0  0  0  0  0
   -7.4170   22.5780  -31.3790 C   0  0  0  0  0  0  0  0  0  0  0  0
   -8.5970   21.8750  -31.6080 C   0  0  0  0  0  0  0  0  0  0  0  0
   -8.4990   20.5870  -32.1610 C   0  0  0  0  0  0  0  0  0  0  0  0
   -7.2340   20.0270  -32.4680 C   0  0  0  0  0  0  0  0  0  0  0  0
   -7.1520   18.6410  -33.0440 C   0  0  0  0  0  0  0  0  0  0  0  0
   -5.8510   18.1810  -32.9630 F   0  0  0  0  0  0  0  0  0  0  0  0
   -7.9830   17.7920  -32.3350 F   0  0  0  0  0  0  0  0  0  0  0  0
   -6.0580   20.7690  -32.2190 C   0  0  0  0  0  0  0  0  0  0  0  0
   -6.1870   22.0570  -31.6850 C   0  0  0  0  0  0  0  0  0  0  0  0
   -5.2090   22.9280  -31.3540 N   0  0  0  0  0  0  0  0  0  0  0  0
   -3.7970   22.6990  -31.4640 C   0  0  0  0  0  0  0  0  0  0  0  0
   -3.3290   22.1300  -32.4870 O   0  0  0  0  0  0  0  0  0  0  0  0
   -2.9440   23.1310  -30.4410 O   0  0  0  0  0  0  0  0  0  0  0  0
   -2.4380   22.2700  -29.4230 C   0  0  0  0  0  0  0  0  0  0  0  0
   -3.4300   22.1420  -28.2590 C   0  0  0  0  0  0  0  0  0  0  0  0
   -3.5730   23.4430  -27.4660 C   0  0  0  0  0  0  0  0  0  0  0  0
   -3.2080   24.5550  -28.2760 O   0  0  0  0  0  0  0  0  0  0  0  0
   -2.0210   25.2300  -28.0870 N   0  0  0  0  0  0  0  0  0  0  0  0
   -1.2570   25.4120  -29.0550 O   0  0  0  0  0  0  0  0  0  0  0  0
   -1.6690   25.7090  -26.8450 O   0  0  0  0  0  0  0  0  0  0  0  0
   -3.0420   25.2870  -30.3100 H   0  0  0  0  0  0  0  0  0  0  0  0
   -7.9936   24.5248  -30.4775 H   0  0  0  0  0  0  0  0  0  0  0  0
   -9.5754   22.3143  -31.3636 H   0  0  0  0  0  0  0  0  0  0  0  0
   -9.4132   20.0077  -32.3575 H   0  0  0  0  0  0  0  0  0  0  0  0
   -7.4677   18.6679  -34.0974 H   0  0  0  0  0  0  0  0  0  0  0  0
   -5.0667   20.3460  -32.4389 H   0  0  0  0  0  0  0  0  0  0  0  0
   -2.2588   21.2734  -29.8527 H   0  0  0  0  0  0  0  0  0  0  0  0
   -1.5023   22.7005  -29.0368 H   0  0  0  0  0  0  0  0  0  0  0  0
   -4.4148   21.8652  -28.6634 H   0  0  0  0  0  0  0  0  0  0  0  0
   -3.0440   21.3731  -27.5735 H   0  0  0  0  0  0  0  0  0  0  0  0
   -4.6177   23.5575  -27.1410 H   0  0  0  0  0  0  0  0  0  0  0  0
   -2.9092   23.4040  -26.5897 H   0  0  0  0  0  0  0  0  0  0  0  0
  1  2  1  0
  2  3  2  0
  2  4  1  0
  4  5  2  0
  5  6  1  0
  6  7  2  0
  7  8  1  0
  8  9  2  0
  9 10  1  0
 10 11  1  0
 10 12  1  0
  9 13  1  0
 13 14  2  0
 14 15  1  0
 15 16  1  0
 16 17  2  0
 16 18  1  0
 18 19  1  0
 19 20  1  0
 20 21  1  0
 21 22  1  0
 22 23  1  0
 23 24  2  0
 23 25  1  0
 15  4  1  0
 14  6  1  0
  1 26  1  0
  5 27  1  0
  7 28  1  0
  8 29  1  0
 10 30  1  0
 13 31  1  0
 19 32  1  0
 19 33  1  0
 20 34  1  0
 20 35  1  0
 21 36  1  0
 21 37  1  0
M  CHG  3   1  -1  23   1  25  -1
M  END
>  <UniqueID>  (62) 
62

>  <SMILES>  (62) 
[NH-]C(=O)c1cc2ccc(C(F)F)cc2n1C(=O)OCCCO[N+](=O)[O-]

>  <Energy>  (62) 
68.24761473738228

>  <Genealogy>  (62) 
[NH-]C(=O)c1cc2ccc(C(F)F)cc2n1C(=O)OCCCO[N+](=O)[O-] (protonated)
[NH-]C(=O)c1cc2ccc(C(F)F)cc2n1C(=O)OCCCO[N+](=O)[O-] (3D coordinates assigned)
[NH-]C(=O)c1cc2ccc(C(F)F)cc2n1C(=O)OCCCO[N+](=O)[O-] (optimized conformer: 68.24761473738228 kcal/mol)

>  <smiles>  (62) 
NC(=O)c1cc2ccc(C(F)F)cc2n1C(=O)OCCCO[N+](=O)[O-]

>  <score_type>  (62) 
oracle

>  <origin>  (62) 
adg

>  <m_score__min__energy>  (62) 
-10.08

>  <m_primary>  (62) 
energy

$$$$
63:0
     RDKit          3D

 48 50  0  0  0  0  0  0  0  0999 V2000
   -4.2570   24.9150  -26.4180 C   0  0  0  0  0  0  0  0  0  0  0  0
   -3.5090   24.1630  -27.5150 C   0  0  0  0  0  0  0  0  0  0  0  0
   -4.2290   22.8590  -27.8830 C   0  0  0  0  0  0  0  0  0  0  0  0
   -3.3420   21.9060  -28.6910 C   0  0  0  0  0  0  0  0  0  0  0  0
   -3.4670   22.1520  -30.0900 O   0  0  0  0  0  0  0  0  0  0  0  0
   -4.1570   23.2440  -30.6290 C   0  0  0  0  0  0  0  0  0  0  0  0
   -3.5570   24.3350  -30.8420 O   0  0  0  0  0  0  0  0  0  0  0  0
   -5.5610   23.1310  -30.9170 N   0  0  0  0  0  0  0  0  0  0  0  0
   -6.5270   24.0720  -30.7140 C   0  0  0  0  0  0  0  0  0  0  0  0
   -6.3370   25.3610  -30.0140 C   0  0  0  0  0  0  0  0  0  0  0  0
   -5.3510   26.2950  -30.4610 N   0  0  0  0  0  0  0  0  0  0  0  0
   -7.0660   25.6620  -29.0330 O   0  0  0  0  0  0  0  0  0  0  0  0
   -7.7600   23.6120  -31.1760 C   0  0  0  0  0  0  0  0  0  0  0  0
   -7.5160   22.3520  -31.6710 C   0  0  0  0  0  0  0  0  0  0  0  0
   -8.3850   21.4360  -32.2520 C   0  0  0  0  0  0  0  0  0  0  0  0
   -7.8550   20.2130  -32.6970 C   0  0  0  0  0  0  0  0  0  0  0  0
   -6.4670   19.9320  -32.5770 C   0  0  0  0  0  0  0  0  0  0  0  0
   -5.9320   18.6770  -33.0510 N   0  0  0  0  0  0  0  0  0  0  0  0
   -6.6970   17.4340  -32.8780 C   0  0  0  0  0  0  0  0  0  0  0  0
   -6.0910   16.3120  -33.7270 C   0  0  0  0  0  0  0  0  0  0  0  0
   -5.6410   16.8410  -34.9560 O   0  0  0  0  0  0  0  0  0  0  0  0
   -4.4680   17.6150  -34.7590 C   0  0  0  0  0  0  0  0  0  0  0  0
   -4.5530   18.5840  -33.5540 C   0  0  0  0  0  0  0  0  0  0  0  0
   -5.6200   20.8900  -31.9680 C   0  0  0  0  0  0  0  0  0  0  0  0
   -6.1810   22.0860  -31.5060 C   0  0  0  0  0  0  0  0  0  0  0  0
   -3.9109   24.5671  -25.4335 H   0  0  0  0  0  0  0  0  0  0  0  0
   -4.0629   25.9934  -26.5148 H   0  0  0  0  0  0  0  0  0  0  0  0
   -5.3364   24.7266  -26.5148 H   0  0  0  0  0  0  0  0  0  0  0  0
   -3.4445   24.8018  -28.4082 H   0  0  0  0  0  0  0  0  0  0  0  0
   -2.5041   23.9135  -27.1436 H   0  0  0  0  0  0  0  0  0  0  0  0
   -4.5377   22.3530  -26.9563 H   0  0  0  0  0  0  0  0  0  0  0  0
   -5.0948   23.1208  -28.5090 H   0  0  0  0  0  0  0  0  0  0  0  0
   -2.2932   22.0514  -28.3928 H   0  0  0  0  0  0  0  0  0  0  0  0
   -3.6617   20.8734  -28.4874 H   0  0  0  0  0  0  0  0  0  0  0  0
   -5.2330   27.2080  -29.9670 H   0  0  0  0  0  0  0  0  0  0  0  0
   -4.6960   26.0620  -31.2400 H   0  0  0  0  0  0  0  0  0  0  0  0
   -8.7226   24.1436  -31.1501 H   0  0  0  0  0  0  0  0  0  0  0  0
   -9.4561   21.6618  -32.3603 H   0  0  0  0  0  0  0  0  0  0  0  0
   -8.5236   19.4628  -33.1444 H   0  0  0  0  0  0  0  0  0  0  0  0
   -6.6749   17.1392  -31.8185 H   0  0  0  0  0  0  0  0  0  0  0  0
   -7.7345   17.6054  -33.2008 H   0  0  0  0  0  0  0  0  0  0  0  0
   -5.2432   15.8625  -33.1891 H   0  0  0  0  0  0  0  0  0  0  0  0
   -6.8546   15.5433  -33.9169 H   0  0  0  0  0  0  0  0  0  0  0  0
   -3.6239   16.9293  -34.5937 H   0  0  0  0  0  0  0  0  0  0  0  0
   -4.3379   18.2339  -35.6590 H   0  0  0  0  0  0  0  0  0  0  0  0
   -3.9002   18.2156  -32.7490 H   0  0  0  0  0  0  0  0  0  0  0  0
   -4.2311   19.5830  -33.8832 H   0  0  0  0  0  0  0  0  0  0  0  0
   -4.5423   20.6977  -31.8603 H   0  0  0  0  0  0  0  0  0  0  0  0
  1  2  1  0
  2  3  1  0
  3  4  1  0
  4  5  1  0
  5  6  1  0
  6  7  2  0
  6  8  1  0
  8  9  1  0
  9 10  1  0
 10 11  1  0
 10 12  2  0
  9 13  2  0
 13 14  1  0
 14 15  2  0
 15 16  1  0
 16 17  2  0
 17 18  1  0
 18 19  1  0
 19 20  1  0
 20 21  1  0
 21 22  1  0
 22 23  1  0
 17 24  1  0
 24 25  2  0
 25  8  1  0
 25 14  1  0
 23 18  1  0
  1 26  1  0
  1 27  1  0
  1 28  1  0
  2 29  1  0
  2 30  1  0
  3 31  1  0
  3 32  1  0
  4 33  1  0
  4 34  1  0
 11 35  1  0
 11 36  1  0
 13 37  1  0
 15 38  1  0
 16 39  1  0
 19 40  1  0
 19 41  1  0
 20 42  1  0
 20 43  1  0
 22 44  1  0
 22 45  1  0
 23 46  1  0
 23 47  1  0
 24 48  1  0
M  END
>  <UniqueID>  (63) 
63

>  <SMILES>  (63) 
CCCCOC(=O)n1c(C(N)=O)cc2ccc(N3CCOCC3)cc21

>  <Energy>  (63) 
91.04360889198607

>  <Genealogy>  (63) 
CCCCOC(=O)n1c(C(N)=O)cc2ccc(N3CCOCC3)cc21 (3D coordinates assigned)
CCCCOC(=O)n1c(C(N)=O)cc2ccc(N3CCOCC3)cc21 (nonaromatic ring conformer: 91.04360889198607 kcal/mol)

>  <smiles>  (63) 
CCCCOC(=O)n1c(C(N)=O)cc2ccc(N3CCOCC3)cc21

>  <score_type>  (63) 
oracle

>  <origin>  (63) 
adg

>  <m_score__min__energy>  (63) 
-8.4399999999999995

>  <m_primary>  (63) 
energy

$$$$
64:0
     RDKit          3D

 24 25  0  0  0  0  0  0  0  0999 V2000
   -1.6210   25.6950  -28.9660 N   0  0  0  0  0  0  0  0  0  0  0  0
   -1.0840   24.3880  -29.1540 C   0  0  0  0  0  0  0  0  0  0  0  0
    0.0380   24.1050  -28.6580 O   0  0  0  0  0  0  0  0  0  0  0  0
   -1.8250   23.3980  -29.9630 C   0  0  0  0  0  0  0  0  0  0  0  0
   -1.2740   22.1920  -30.3920 C   0  0  0  0  0  0  0  0  0  0  0  0
   -2.2990   21.5280  -31.0250 C   0  0  0  0  0  0  0  0  0  0  0  0
   -2.3030   20.2900  -31.6610 C   0  0  0  0  0  0  0  0  0  0  0  0
   -3.4980   19.8640  -32.2650 C   0  0  0  0  0  0  0  0  0  0  0  0
   -4.6640   20.6700  -32.2160 C   0  0  0  0  0  0  0  0  0  0  0  0
   -5.9220   20.2300  -32.9210 C   0  0  0  0  0  0  0  0  0  0  0  0
   -6.7950   21.2920  -33.0720 F   0  0  0  0  0  0  0  0  0  0  0  0
   -5.5930   19.7350  -34.1700 F   0  0  0  0  0  0  0  0  0  0  0  0
   -6.5660   19.2400  -32.1990 F   0  0  0  0  0  0  0  0  0  0  0  0
   -4.6110   21.9330  -31.5810 C   0  0  0  0  0  0  0  0  0  0  0  0
   -3.4120   22.3250  -30.9720 C   0  0  0  0  0  0  0  0  0  0  0  0
   -3.1370   23.4800  -30.3250 N   0  0  0  0  0  0  0  0  0  0  0  0
   -4.0340   24.5880  -30.1370 C   0  0  0  0  0  0  0  0  0  0  0  0
   -3.8690   25.6570  -30.7810 O   0  0  0  0  0  0  0  0  0  0  0  0
   -5.0760   24.4990  -29.2230 O   0  0  0  0  0  0  0  0  0  0  0  0
   -2.6520   25.8580  -28.9660 H   0  0  0  0  0  0  0  0  0  0  0  0
   -0.2394   21.8449  -30.2538 H   0  0  0  0  0  0  0  0  0  0  0  0
   -1.3987   19.6644  -31.6899 H   0  0  0  0  0  0  0  0  0  0  0  0
   -3.5296   18.8936  -32.7821 H   0  0  0  0  0  0  0  0  0  0  0  0
   -5.4914   22.5923  -31.5658 H   0  0  0  0  0  0  0  0  0  0  0  0
  1  2  1  0
  2  3  2  0
  2  4  1  0
  4  5  2  0
  5  6  1  0
  6  7  2  0
  7  8  1  0
  8  9  2  0
  9 10  1  0
 10 11  1  0
 10 12  1  0
 10 13  1  0
  9 14  1  0
 14 15  2  0
 15 16  1  0
 16 17  1  0
 17 18  2  0
 17 19  1  0
 16  4  1  0
 15  6  1  0
  1 20  1  0
  5 21  1  0
  7 22  1  0
  8 23  1  0
 14 24  1  0
M  CHG  2   1  -1  19  -1
M  END
>  <UniqueID>  (64) 
64

>  <SMILES>  (64) 
[NH-]C(=O)c1cc2ccc(C(F)(F)F)cc2n1C(=O)[O-]

>  <Energy>  (64) 
64.66960724682308

>  <Genealogy>  (64) 
[NH-]C(=O)c1cc2ccc(C(F)(F)F)cc2n1C(=O)[O-] (protonated)
[NH-]C(=O)c1cc2ccc(C(F)(F)F)cc2n1C(=O)[O-] (3D coordinates assigned)
[NH-]C(=O)c1cc2ccc(C(F)(F)F)cc2n1C(=O)[O-] (optimized conformer: 64.66960724682308 kcal/mol)

>  <smiles>  (64) 
NC(=O)c1cc2ccc(C(F)(F)F)cc2n1C(=O)O

>  <score_type>  (64) 
oracle

>  <origin>  (64) 
adg

>  <m_score__min__energy>  (64) 
-9.5299999999999994

>  <m_primary>  (64) 
energy

$$$$
65:0
     RDKit          3D

 33 34  0  0  0  0  0  0  0  0999 V2000
   -5.9130   19.7580  -34.1580 C   0  0  0  0  0  0  0  0  0  0  0  0
   -6.0740   19.9470  -32.6240 C   0  0  0  0  0  0  0  0  0  0  0  0
   -4.7470   20.5020  -32.0350 C   0  0  0  0  0  0  0  0  0  0  0  0
   -3.5820   19.6750  -32.0080 C   0  0  0  0  0  0  0  0  0  0  0  0
   -2.3740   20.1230  -31.4530 C   0  0  0  0  0  0  0  0  0  0  0  0
   -2.3350   21.4020  -30.9180 C   0  0  0  0  0  0  0  0  0  0  0  0
   -1.3040   22.0680  -30.2970 C   0  0  0  0  0  0  0  0  0  0  0  0
   -1.8290   23.3090  -29.9440 C   0  0  0  0  0  0  0  0  0  0  0  0
   -1.0280   24.3820  -29.3180 C   0  0  0  0  0  0  0  0  0  0  0  0
   -1.6130   25.6620  -29.0900 N   0  0  0  0  0  0  0  0  0  0  0  0
    0.1580   24.1730  -28.9500 O   0  0  0  0  0  0  0  0  0  0  0  0
   -3.1330   23.4020  -30.3280 N   0  0  0  0  0  0  0  0  0  0  0  0
   -4.0440   24.4910  -30.1010 C   0  0  0  0  0  0  0  0  0  0  0  0
   -4.9770   24.3760  -29.2640 O   0  0  0  0  0  0  0  0  0  0  0  0
   -3.9160   25.6740  -30.8180 O   0  0  0  0  0  0  0  0  0  0  0  0
   -3.4260   22.2250  -30.9260 C   0  0  0  0  0  0  0  0  0  0  0  0
   -4.6510   21.8000  -31.4530 C   0  0  0  0  0  0  0  0  0  0  0  0
   -7.2920   20.9120  -32.4080 C   0  0  0  0  0  0  0  0  0  0  0  0
   -7.6160   21.0140  -31.0650 F   0  0  0  0  0  0  0  0  0  0  0  0
   -7.0080   22.1910  -32.8570 F   0  0  0  0  0  0  0  0  0  0  0  0
   -8.4100   20.4370  -33.0730 F   0  0  0  0  0  0  0  0  0  0  0  0
   -6.3850   18.5700  -31.9620 C   0  0  0  0  0  0  0  0  0  0  0  0
   -5.9770   17.5360  -32.7870 F   0  0  0  0  0  0  0  0  0  0  0  0
   -5.7310   18.4470  -30.7480 F   0  0  0  0  0  0  0  0  0  0  0  0
   -7.7400   18.4200  -31.7270 F   0  0  0  0  0  0  0  0  0  0  0  0
   -5.2111   18.9341  -34.3543 H   0  0  0  0  0  0  0  0  0  0  0  0
   -6.8907   19.5207  -34.6028 H   0  0  0  0  0  0  0  0  0  0  0  0
   -5.5232   20.6855  -34.6028 H   0  0  0  0  0  0  0  0  0  0  0  0
   -3.6337   18.6617  -32.4330 H   0  0  0  0  0  0  0  0  0  0  0  0
   -1.4829   19.4781  -31.4424 H   0  0  0  0  0  0  0  0  0  0  0  0
   -0.2832   21.6994  -30.1175 H   0  0  0  0  0  0  0  0  0  0  0  0
   -2.6500   25.7820  -29.0680 H   0  0  0  0  0  0  0  0  0  0  0  0
   -5.5301   22.4603  -31.4185 H   0  0  0  0  0  0  0  0  0  0  0  0
  1  2  1  0
  2  3  1  0
  3  4  2  0
  4  5  1  0
  5  6  2  0
  6  7  1  0
  7  8  2  0
  8  9  1  0
  9 10  1  0
  9 11  2  0
  8 12  1  0
 12 13  1  0
 13 14  2  0
 13 15  1  0
 12 16  1  0
 16 17  2  0
  2 18  1  0
 18 19  1  0
 18 20  1  0
 18 21  1  0
  2 22  1  0
 22 23  1  0
 22 24  1  0
 22 25  1  0
 17  3  1  0
 16  6  1  0
  1 26  1  0
  1 27  1  0
  1 28  1  0
  4 29  1  0
  5 30  1  0
  7 31  1  0
 10 32  1  0
 17 33  1  0
M  CHG  2  10  -1  15  -1
M  END
>  <UniqueID>  (65) 
65

>  <SMILES>  (65) 
CC(c1ccc2cc(C([NH-])=O)n(C(=O)[O-])c2c1)(C(F)(F)F)C(F)(F)F

>  <Energy>  (65) 
81.60235297607561

>  <Genealogy>  (65) 
CC(c1ccc2cc(C([NH-])=O)n(C(=O)[O-])c2c1)(C(F)(F)F)C(F)(F)F (protonated)
CC(c1ccc2cc(C([NH-])=O)n(C(=O)[O-])c2c1)(C(F)(F)F)C(F)(F)F (3D coordinates assigned)
CC(c1ccc2cc(C([NH-])=O)n(C(=O)[O-])c2c1)(C(F)(F)F)C(F)(F)F (optimized conformer: 81.60235297607561 kcal/mol)

>  <smiles>  (65) 
CC(c1ccc2cc(C(N)=O)n(C(=O)O)c2c1)(C(F)(F)F)C(F)(F)F

>  <score_type>  (65) 
oracle

>  <origin>  (65) 
adg

>  <m_score__min__energy>  (65) 
-10.51

>  <m_primary>  (65) 
energy

$$$$
66:0
     RDKit          3D

 45 46  0  0  0  0  0  0  0  0999 V2000
   -6.4710   14.6410  -34.2610 C   0  0  0  0  0  0  0  0  0  0  0  0
   -5.7390   15.7490  -33.6290 N   0  0  0  0  0  0  0  0  0  0  0  0
   -4.8680   15.2630  -32.5460 C   0  0  0  0  0  0  0  0  0  0  0  0
   -5.0240   16.5990  -34.6090 C   0  0  0  0  0  0  0  0  0  0  0  0
   -5.3690   18.1000  -34.5160 C   0  0  0  0  0  0  0  0  0  0  0  0
   -6.2350   18.3540  -33.3640 N   0  0  0  0  0  0  0  0  0  0  0  0
   -6.5080   19.6590  -32.8140 C   0  0  0  0  0  0  0  0  0  0  0  0
   -7.8500   20.1140  -32.7690 C   0  0  0  0  0  0  0  0  0  0  0  0
   -8.1640   21.3860  -32.2670 C   0  0  0  0  0  0  0  0  0  0  0  0
   -7.1220   22.1800  -31.8020 C   0  0  0  0  0  0  0  0  0  0  0  0
   -7.1430   23.4530  -31.2800 C   0  0  0  0  0  0  0  0  0  0  0  0
   -5.8160   23.7510  -30.9760 C   0  0  0  0  0  0  0  0  0  0  0  0
   -5.3800   24.9940  -30.3010 C   0  0  0  0  0  0  0  0  0  0  0  0
   -5.9580   25.3870  -29.0540 N   0  0  0  0  0  0  0  0  0  0  0  0
   -4.4720   25.7050  -30.8060 O   0  0  0  0  0  0  0  0  0  0  0  0
   -5.0070   22.7020  -31.3020 N   0  0  0  0  0  0  0  0  0  0  0  0
   -3.5810   22.6120  -31.1530 C   0  0  0  0  0  0  0  0  0  0  0  0
   -2.9480   21.6770  -31.7170 O   0  0  0  0  0  0  0  0  0  0  0  0
   -2.9030   23.5630  -30.3860 O   0  0  0  0  0  0  0  0  0  0  0  0
   -1.6790   23.2800  -29.7160 C   0  0  0  0  0  0  0  0  0  0  0  0
   -1.1540   24.5210  -29.0690 C   0  0  0  0  0  0  0  0  0  0  0  0
   -1.9850   25.6730  -28.9630 N   0  0  0  0  0  0  0  0  0  0  0  0
    0.0050   24.5360  -28.5750 O   0  0  0  0  0  0  0  0  0  0  0  0
   -5.8210   21.7500  -31.8090 C   0  0  0  0  0  0  0  0  0  0  0  0
   -5.4730   20.5000  -32.3320 C   0  0  0  0  0  0  0  0  0  0  0  0
   -6.8992   13.9929  -33.4821 H   0  0  0  0  0  0  0  0  0  0  0  0
   -7.2800   15.0458  -34.8868 H   0  0  0  0  0  0  0  0  0  0  0  0
   -5.7813   14.0556  -34.8868 H   0  0  0  0  0  0  0  0  0  0  0  0
   -5.3173   15.5137  -31.5737 H   0  0  0  0  0  0  0  0  0  0  0  0
   -4.7556   14.1718  -32.6276 H   0  0  0  0  0  0  0  0  0  0  0  0
   -3.8804   15.7404  -32.6276 H   0  0  0  0  0  0  0  0  0  0  0  0
   -3.9429   16.4827  -34.4423 H   0  0  0  0  0  0  0  0  0  0  0  0
   -5.3402   16.2637  -35.6078 H   0  0  0  0  0  0  0  0  0  0  0  0
   -4.4403   18.6792  -34.4060 H   0  0  0  0  0  0  0  0  0  0  0  0
   -5.8967   18.4023  -35.4326 H   0  0  0  0  0  0  0  0  0  0  0  0
   -6.7430   17.5330  -32.9640 H   0  0  0  0  0  0  0  0  0  0  0  0
   -8.6565   19.4605  -33.1328 H   0  0  0  0  0  0  0  0  0  0  0  0
   -9.2037   21.7443  -32.2421 H   0  0  0  0  0  0  0  0  0  0  0  0
   -8.0214   24.0988  -31.1336 H   0  0  0  0  0  0  0  0  0  0  0  0
   -5.6150   26.2450  -28.5660 H   0  0  0  0  0  0  0  0  0  0  0  0
   -6.7510   24.8570  -28.6320 H   0  0  0  0  0  0  0  0  0  0  0  0
   -1.8532   22.5134  -28.9466 H   0  0  0  0  0  0  0  0  0  0  0  0
   -0.9428   22.9134  -30.4465 H   0  0  0  0  0  0  0  0  0  0  0  0
   -2.9600   25.6670  -29.3390 H   0  0  0  0  0  0  0  0  0  0  0  0
   -4.4220   20.1774  -32.3684 H   0  0  0  0  0  0  0  0  0  0  0  0
  1  2  1  0
  2  3  1  0
  2  4  1  0
  4  5  1  0
  5  6  1  0
  6  7  1  0
  7  8  2  0
  8  9  1  0
  9 10  2  0
 10 11  1  0
 11 12  2  0
 12 13  1  0
 13 14  1  0
 13 15  2  0
 12 16  1  0
 16 17  1  0
 17 18  2  0
 17 19  1  0
 19 20  1  0
 20 21  1  0
 21 22  1  0
 21 23  2  0
 16 24  1  0
 24 25  2  0
 25  7  1  0
 24 10  1  0
  1 26  1  0
  1 27  1  0
  1 28  1  0
  3 29  1  0
  3 30  1  0
  3 31  1  0
  4 32  1  0
  4 33  1  0
  5 34  1  0
  5 35  1  0
  6 36  1  0
  8 37  1  0
  9 38  1  0
 11 39  1  0
 14 40  1  0
 14 41  1  0
 20 42  1  0
 20 43  1  0
 22 44  1  0
 25 45  1  0
M  CHG  1  22  -1
M  END
>  <UniqueID>  (66) 
66

>  <SMILES>  (66) 
CN(C)CCNc1ccc2cc(C(N)=O)n(C(=O)OCC([NH-])=O)c2c1

>  <Energy>  (66) 
79.27122776762693

>  <Genealogy>  (66) 
CN(C)CCNc1ccc2cc(C(N)=O)n(C(=O)OCC([NH-])=O)c2c1 (protonated)
CN(C)CCNc1ccc2cc(C(N)=O)n(C(=O)OCC([NH-])=O)c2c1 (3D coordinates assigned)
CN(C)CCNc1ccc2cc(C(N)=O)n(C(=O)OCC([NH-])=O)c2c1 (optimized conformer: 79.27122776762693 kcal/mol)

>  <smiles>  (66) 
CN(C)CCNc1ccc2cc(C(N)=O)n(C(=O)OCC(N)=O)c2c1

>  <score_type>  (66) 
oracle

>  <origin>  (66) 
adg

>  <m_score__min__energy>  (66) 
-11.119999999999999

>  <m_primary>  (66) 
energy

$$$$
67:0
     RDKit          3D

 56 58  0  0  0  0  0  0  0  0999 V2000
   -4.2570   14.3780  -32.2230 C   0  0  0  0  0  0  0  0  0  0  0  0
   -4.0370   15.4840  -33.2030 C   0  0  0  0  0  0  0  0  0  0  0  0
   -2.8650   15.9890  -33.5100 O   0  0  0  0  0  0  0  0  0  0  0  0
   -3.1010   16.9230  -34.4040 C   0  0  0  0  0  0  0  0  0  0  0  0
   -2.2000   17.6280  -34.9300 O   0  0  0  0  0  0  0  0  0  0  0  0
   -4.3780   17.0410  -34.6890 O   0  0  0  0  0  0  0  0  0  0  0  0
   -4.9930   16.1500  -33.9470 C   0  0  0  0  0  0  0  0  0  0  0  0
   -6.4740   15.9240  -33.9410 C   0  0  0  0  0  0  0  0  0  0  0  0
   -7.1780   17.1530  -33.7840 O   0  0  0  0  0  0  0  0  0  0  0  0
   -7.1060   17.9450  -32.6300 C   0  0  0  0  0  0  0  0  0  0  0  0
   -6.5830   17.4830  -31.5780 O   0  0  0  0  0  0  0  0  0  0  0  0
   -7.6580   19.2760  -32.6350 N   0  0  0  0  0  0  0  0  0  0  0  0
   -9.1130   19.4520  -32.6100 C   0  0  0  0  0  0  0  0  0  0  0  0
   -6.7870   20.4460  -32.8090 C   0  0  0  0  0  0  0  0  0  0  0  0
   -5.4540   20.0540  -33.4660 C   0  0  0  0  0  0  0  0  0  0  0  0
   -4.2790   20.4570  -32.6150 C   0  0  0  0  0  0  0  0  0  0  0  0
   -3.0710   19.7180  -32.6740 C   0  0  0  0  0  0  0  0  0  0  0  0
   -1.9330   20.1460  -31.9680 C   0  0  0  0  0  0  0  0  0  0  0  0
   -2.0290   21.3240  -31.2310 C   0  0  0  0  0  0  0  0  0  0  0  0
   -1.0690   22.0070  -30.5170 C   0  0  0  0  0  0  0  0  0  0  0  0
   -1.7010   23.1620  -30.0590 C   0  0  0  0  0  0  0  0  0  0  0  0
   -1.0050   24.2470  -29.3370 C   0  0  0  0  0  0  0  0  0  0  0  0
   -1.5840   25.5450  -29.2290 N   0  0  0  0  0  0  0  0  0  0  0  0
    0.1330   24.0360  -28.8400 O   0  0  0  0  0  0  0  0  0  0  0  0
   -3.0020   23.1820  -30.4620 N   0  0  0  0  0  0  0  0  0  0  0  0
   -3.9940   24.1830  -30.2020 C   0  0  0  0  0  0  0  0  0  0  0  0
   -3.9090   25.3100  -30.7600 O   0  0  0  0  0  0  0  0  0  0  0  0
   -5.1840   23.8680  -29.3450 C   0  0  0  0  0  0  0  0  0  0  0  0
   -6.4480   24.4950  -29.9400 C   0  0  0  0  0  0  0  0  0  0  0  0
   -6.9720   23.6730  -31.1130 C   0  0  0  0  0  0  0  0  0  0  0  0
   -7.4690   22.4670  -30.6510 F   0  0  0  0  0  0  0  0  0  0  0  0
   -3.1860   22.0540  -31.1770 C   0  0  0  0  0  0  0  0  0  0  0  0
   -4.3430   21.6360  -31.8400 C   0  0  0  0  0  0  0  0  0  0  0  0
   -4.1783   14.7738  -31.1997 H   0  0  0  0  0  0  0  0  0  0  0  0
   -5.2582   13.9482  -32.3739 H   0  0  0  0  0  0  0  0  0  0  0  0
   -3.4965   13.5977  -32.3739 H   0  0  0  0  0  0  0  0  0  0  0  0
   -6.7706   15.4587  -34.8926 H   0  0  0  0  0  0  0  0  0  0  0  0
   -6.7245   15.2664  -33.0955 H   0  0  0  0  0  0  0  0  0  0  0  0
   -9.4594   19.4939  -31.5668 H   0  0  0  0  0  0  0  0  0  0  0  0
   -9.3779   20.3887  -33.1222 H   0  0  0  0  0  0  0  0  0  0  0  0
   -9.5936   18.6054  -33.1222 H   0  0  0  0  0  0  0  0  0  0  0  0
   -7.2983   21.1823  -33.4465 H   0  0  0  0  0  0  0  0  0  0  0  0
   -6.5745   20.8724  -31.8175 H   0  0  0  0  0  0  0  0  0  0  0  0
   -5.4336   18.9637  -33.6100 H   0  0  0  0  0  0  0  0  0  0  0  0
   -5.3774   20.5782  -34.4301 H   0  0  0  0  0  0  0  0  0  0  0  0
   -3.0233   18.8001  -33.2784 H   0  0  0  0  0  0  0  0  0  0  0  0
   -0.9969   19.5691  -31.9967 H   0  0  0  0  0  0  0  0  0  0  0  0
   -0.0254   21.7051  -30.3449 H   0  0  0  0  0  0  0  0  0  0  0  0
   -2.6170   25.6790  -29.2930 H   0  0  0  0  0  0  0  0  0  0  0  0
   -5.3121   22.7769  -29.2887 H   0  0  0  0  0  0  0  0  0  0  0  0
   -5.0195   24.2804  -28.3386 H   0  0  0  0  0  0  0  0  0  0  0  0
   -7.2240   24.5451  -29.1620 H   0  0  0  0  0  0  0  0  0  0  0  0
   -6.1985   25.5024  -30.3046 H   0  0  0  0  0  0  0  0  0  0  0  0
   -7.7743   24.2292  -31.6200 H   0  0  0  0  0  0  0  0  0  0  0  0
   -6.1514   23.4824  -31.8203 H   0  0  0  0  0  0  0  0  0  0  0  0
   -5.2782   22.2097  -31.7604 H   0  0  0  0  0  0  0  0  0  0  0  0
  1  2  1  0
  2  3  1  0
  3  4  1  0
  4  5  2  0
  4  6  1  0
  6  7  1  0
  7  8  1  0
  8  9  1  0
  9 10  1  0
 10 11  2  0
 10 12  1  0
 12 13  1  0
 12 14  1  0
 14 15  1  0
 15 16  1  0
 16 17  2  0
 17 18  1  0
 18 19  2  0
 19 20  1  0
 20 21  2  0
 21 22  1  0
 22 23  1  0
 22 24  2  0
 21 25  1  0
 25 26  1  0
 26 27  2  0
 26 28  1  0
 28 29  1  0
 29 30  1  0
 30 31  1  0
 25 32  1  0
 32 33  2  0
  7  2  2  0
 33 16  1  0
 32 19  1  0
  1 34  1  0
  1 35  1  0
  1 36  1  0
  8 37  1  0
  8 38  1  0
 13 39  1  0
 13 40  1  0
 13 41  1  0
 14 42  1  0
 14 43  1  0
 15 44  1  0
 15 45  1  0
 17 46  1  0
 18 47  1  0
 20 48  1  0
 23 49  1  0
 28 50  1  0
 28 51  1  0
 29 52  1  0
 29 53  1  0
 30 54  1  0
 30 55  1  0
 33 56  1  0
M  CHG  1  23  -1
M  END
>  <UniqueID>  (67) 
67

>  <SMILES>  (67) 
Cc1oc(=O)oc1COC(=O)N(C)CCc1ccc2cc(C([NH-])=O)n(C(=O)CCCF)c2c1

>  <Energy>  (67) 
112.2104946515779

>  <Genealogy>  (67) 
Cc1oc(=O)oc1COC(=O)N(C)CCc1ccc2cc(C([NH-])=O)n(C(=O)CCCF)c2c1 (protonated)
Cc1oc(=O)oc1COC(=O)N(C)CCc1ccc2cc(C([NH-])=O)n(C(=O)CCCF)c2c1 (3D coordinates assigned)
Cc1oc(=O)oc1COC(=O)N(C)CCc1ccc2cc(C([NH-])=O)n(C(=O)CCCF)c2c1 (optimized conformer: 112.2104946515779 kcal/mol)

>  <smiles>  (67) 
Cc1oc(=O)oc1COC(=O)N(C)CCc1ccc2cc(C(N)=O)n(C(=O)CCCF)c2c1

>  <score_type>  (67) 
oracle

>  <origin>  (67) 
adg

>  <m_score__min__energy>  (67) 
-11.99

>  <m_primary>  (67) 
energy

$$$$
68:0
     RDKit          3D

 34 35  0  0  0  0  0  0  0  0999 V2000
   -3.8500   23.9040  -27.4960 C   0  0  0  0  0  0  0  0  0  0  0  0
   -2.9970   23.6520  -28.7040 C   0  0  0  0  0  0  0  0  0  0  0  0
   -2.0820   24.4780  -28.9740 O   0  0  0  0  0  0  0  0  0  0  0  0
   -3.1910   22.4940  -29.5470 N   0  0  0  0  0  0  0  0  0  0  0  0
   -2.8410   21.1740  -29.0150 C   0  0  0  0  0  0  0  0  0  0  0  0
   -3.8060   22.6010  -30.8480 C   0  0  0  0  0  0  0  0  0  0  0  0
   -3.0980   22.5310  -31.8870 O   0  0  0  0  0  0  0  0  0  0  0  0
   -5.2170   22.8530  -30.9760 N   0  0  0  0  0  0  0  0  0  0  0  0
   -5.8710   24.0420  -30.8470 C   0  0  0  0  0  0  0  0  0  0  0  0
   -5.2650   25.3210  -30.4260 C   0  0  0  0  0  0  0  0  0  0  0  0
   -3.9450   25.6560  -30.8510 N   0  0  0  0  0  0  0  0  0  0  0  0
   -5.9090   26.1360  -29.7150 O   0  0  0  0  0  0  0  0  0  0  0  0
   -7.2290   23.8820  -31.1160 C   0  0  0  0  0  0  0  0  0  0  0  0
   -7.3880   22.5460  -31.4100 C   0  0  0  0  0  0  0  0  0  0  0  0
   -8.5300   21.8350  -31.7690 C   0  0  0  0  0  0  0  0  0  0  0  0
   -8.3930   20.4650  -32.0470 C   0  0  0  0  0  0  0  0  0  0  0  0
   -7.1270   19.8340  -31.9680 C   0  0  0  0  0  0  0  0  0  0  0  0
   -6.9990   18.3730  -32.2900 C   0  0  0  0  0  0  0  0  0  0  0  0
   -6.1880   17.7570  -31.3510 F   0  0  0  0  0  0  0  0  0  0  0  0
   -8.2490   17.7810  -32.2710 F   0  0  0  0  0  0  0  0  0  0  0  0
   -5.9890   20.5890  -31.6000 C   0  0  0  0  0  0  0  0  0  0  0  0
   -6.1580   21.9470  -31.3150 C   0  0  0  0  0  0  0  0  0  0  0  0
   -3.2576   23.7290  -26.5858 H   0  0  0  0  0  0  0  0  0  0  0  0
   -4.2045   24.9452  -27.5082 H   0  0  0  0  0  0  0  0  0  0  0  0
   -4.7134   23.2226  -27.5082 H   0  0  0  0  0  0  0  0  0  0  0  0
   -2.8499   21.2076  -27.9156 H   0  0  0  0  0  0  0  0  0  0  0  0
   -3.5733   20.4316  -29.3651 H   0  0  0  0  0  0  0  0  0  0  0  0
   -1.8370   20.8920  -29.3651 H   0  0  0  0  0  0  0  0  0  0  0  0
   -3.1100   25.2980  -30.3370 H   0  0  0  0  0  0  0  0  0  0  0  0
   -8.0084   24.6580  -31.0974 H   0  0  0  0  0  0  0  0  0  0  0  0
   -9.5097   22.3311  -31.8330 H   0  0  0  0  0  0  0  0  0  0  0  0
   -9.2780   19.8758  -32.3290 H   0  0  0  0  0  0  0  0  0  0  0  0
   -6.5538   18.2623  -33.2898 H   0  0  0  0  0  0  0  0  0  0  0  0
   -4.9961   20.1194  -31.5396 H   0  0  0  0  0  0  0  0  0  0  0  0
  1  2  1  0
  2  3  2  0
  2  4  1  0
  4  5  1  0
  4  6  1  0
  6  7  2  0
  6  8  1  0
  8  9  1  0
  9 10  1  0
 10 11  1  0
 10 12  2  0
  9 13  2  0
 13 14  1  0
 14 15  2  0
 15 16  1  0
 16 17  2  0
 17 18  1  0
 18 19  1  0
 18 20  1  0
 17 21  1  0
 21 22  2  0
 22  8  1  0
 22 14  1  0
  1 23  1  0
  1 24  1  0
  1 25  1  0
  5 26  1  0
  5 27  1  0
  5 28  1  0
 11 29  1  0
 13 30  1  0
 15 31  1  0
 16 32  1  0
 18 33  1  0
 21 34  1  0
M  CHG  1  11  -1
M  END
>  <UniqueID>  (68) 
68

>  <SMILES>  (68) 
CC(=O)N(C)C(=O)n1c(C([NH-])=O)cc2ccc(C(F)F)cc21

>  <Energy>  (68) 
74.68128259371396

>  <Genealogy>  (68) 
CC(=O)N(C)C(=O)n1c(C([NH-])=O)cc2ccc(C(F)F)cc21 (protonated)
CC(=O)N(C)C(=O)n1c(C([NH-])=O)cc2ccc(C(F)F)cc21 (3D coordinates assigned)
CC(=O)N(C)C(=O)n1c(C([NH-])=O)cc2ccc(C(F)F)cc21 (optimized conformer: 74.68128259371396 kcal/mol)

>  <smiles>  (68) 
CC(=O)N(C)C(=O)n1c(C(N)=O)cc2ccc(C(F)F)cc21

>  <score_type>  (68) 
oracle

>  <origin>  (68) 
adg

>  <m_score__min__energy>  (68) 
-9.6199999999999992

>  <m_primary>  (68) 
energy

$$$$
69:0
     RDKit          3D

 34 35  0  0  0  0  0  0  0  0999 V2000
   -4.2220   25.5100  -30.6170 N   0  0  0  0  0  0  0  0  0  0  0  0
   -5.5730   25.0990  -30.3900 C   0  0  0  0  0  0  0  0  0  0  0  0
   -6.3420   25.8620  -29.7480 O   0  0  0  0  0  0  0  0  0  0  0  0
   -6.0630   23.7900  -30.8790 C   0  0  0  0  0  0  0  0  0  0  0  0
   -7.3800   23.5330  -31.2610 C   0  0  0  0  0  0  0  0  0  0  0  0
   -7.3850   22.2300  -31.7050 C   0  0  0  0  0  0  0  0  0  0  0  0
   -8.4290   21.4560  -32.1980 C   0  0  0  0  0  0  0  0  0  0  0  0
   -8.1500   20.1290  -32.5640 C   0  0  0  0  0  0  0  0  0  0  0  0
   -6.8460   19.5910  -32.4070 C   0  0  0  0  0  0  0  0  0  0  0  0
   -6.5530   18.1760  -32.8400 C   0  0  0  0  0  0  0  0  0  0  0  0
   -6.4860   18.0900  -34.2210 F   0  0  0  0  0  0  0  0  0  0  0  0
   -5.3430   17.7490  -32.3210 F   0  0  0  0  0  0  0  0  0  0  0  0
   -7.5590   17.3450  -32.3860 F   0  0  0  0  0  0  0  0  0  0  0  0
   -5.8050   20.4190  -31.9230 C   0  0  0  0  0  0  0  0  0  0  0  0
   -6.1100   21.7420  -31.5860 C   0  0  0  0  0  0  0  0  0  0  0  0
   -5.2860   22.6900  -31.0890 N   0  0  0  0  0  0  0  0  0  0  0  0
   -3.8900   22.5400  -30.7860 C   0  0  0  0  0  0  0  0  0  0  0  0
   -3.0250   22.9050  -31.6270 O   0  0  0  0  0  0  0  0  0  0  0  0
   -3.4470   21.9340  -29.4910 C   0  0  0  0  0  0  0  0  0  0  0  0
   -3.3140   22.9590  -28.5280 O   0  0  0  0  0  0  0  0  0  0  0  0
   -1.9600   23.1040  -28.1490 C   0  0  0  0  0  0  0  0  0  0  0  0
   -1.3630   24.3050  -28.8120 C   0  0  0  0  0  0  0  0  0  0  0  0
   -0.1130   24.4230  -28.9080 O   0  0  0  0  0  0  0  0  0  0  0  0
   -2.1910   25.2790  -29.3590 O   0  0  0  0  0  0  0  0  0  0  0  0
   -3.8810   26.4190  -30.2360 H   0  0  0  0  0  0  0  0  0  0  0  0
   -3.5690   24.9400  -31.2000 H   0  0  0  0  0  0  0  0  0  0  0  0
   -8.2338   24.2252  -31.2168 H   0  0  0  0  0  0  0  0  0  0  0  0
   -9.4431   21.8702  -32.2985 H   0  0  0  0  0  0  0  0  0  0  0  0
   -8.9516   19.4992  -32.9772 H   0  0  0  0  0  0  0  0  0  0  0  0
   -4.7812   20.0316  -31.8145 H   0  0  0  0  0  0  0  0  0  0  0  0
   -4.1947   21.2024  -29.1508 H   0  0  0  0  0  0  0  0  0  0  0  0
   -2.4819   21.4245  -29.6288 H   0  0  0  0  0  0  0  0  0  0  0  0
   -1.8992   23.2240  -27.0573 H   0  0  0  0  0  0  0  0  0  0  0  0
   -1.4025   22.2083  -28.4603 H   0  0  0  0  0  0  0  0  0  0  0  0
  1  2  1  0
  2  3  2  0
  2  4  1  0
  4  5  2  0
  5  6  1  0
  6  7  2  0
  7  8  1  0
  8  9  2  0
  9 10  1  0
 10 11  1  0
 10 12  1  0
 10 13  1  0
  9 14  1  0
 14 15  2  0
 15 16  1  0
 16 17  1  0
 17 18  2  0
 17 19  1  0
 19 20  1  0
 20 21  1  0
 21 22  1  0
 22 23  2  0
 22 24  1  0
 16  4  1  0
 15  6  1  0
  1 25  1  0
  1 26  1  0
  5 27  1  0
  7 28  1  0
  8 29  1  0
 14 30  1  0
 19 31  1  0
 19 32  1  0
 21 33  1  0
 21 34  1  0
M  CHG  1  24  -1
M  END
>  <UniqueID>  (69) 
69

>  <SMILES>  (69) 
NC(=O)c1cc2ccc(C(F)(F)F)cc2n1C(=O)COCC(=O)[O-]

>  <Energy>  (69) 
74.54475903439908

>  <Genealogy>  (69) 
NC(=O)c1cc2ccc(C(F)(F)F)cc2n1C(=O)COCC(=O)[O-] (protonated)
NC(=O)c1cc2ccc(C(F)(F)F)cc2n1C(=O)COCC(=O)[O-] (3D coordinates assigned)
NC(=O)c1cc2ccc(C(F)(F)F)cc2n1C(=O)COCC(=O)[O-] (optimized conformer: 74.54475903439908 kcal/mol)

>  <smiles>  (69) 
NC(=O)c1cc2ccc(C(F)(F)F)cc2n1C(=O)COCC(=O)O

>  <score_type>  (69) 
oracle

>  <origin>  (69) 
adg

>  <m_score__min__energy>  (69) 
-10.41

>  <m_primary>  (69) 
energy

$$$$
70:0
     RDKit          3D

 41 43  0  0  0  0  0  0  0  0999 V2000
   -3.8670   25.5530  -30.8310 N   0  0  0  0  0  0  0  0  0  0  0  0
   -5.2100   25.2610  -30.4480 C   0  0  0  0  0  0  0  0  0  0  0  0
   -5.8580   26.1080  -29.7780 O   0  0  0  0  0  0  0  0  0  0  0  0
   -5.8310   23.9850  -30.8610 C   0  0  0  0  0  0  0  0  0  0  0  0
   -7.1910   23.8360  -31.1290 C   0  0  0  0  0  0  0  0  0  0  0  0
   -7.3600   22.5030  -31.4260 C   0  0  0  0  0  0  0  0  0  0  0  0
   -8.5100   21.8040  -31.7860 C   0  0  0  0  0  0  0  0  0  0  0  0
   -8.3850   20.4330  -32.0670 C   0  0  0  0  0  0  0  0  0  0  0  0
   -7.1240   19.7920  -31.9890 C   0  0  0  0  0  0  0  0  0  0  0  0
   -6.9910   18.3280  -32.3040 C   0  0  0  0  0  0  0  0  0  0  0  0
   -8.2450   17.7420  -32.3350 F   0  0  0  0  0  0  0  0  0  0  0  0
   -6.2210   17.7120  -31.3340 F   0  0  0  0  0  0  0  0  0  0  0  0
   -5.9800   20.5340  -31.6250 C   0  0  0  0  0  0  0  0  0  0  0  0
   -6.1350   21.8940  -31.3350 C   0  0  0  0  0  0  0  0  0  0  0  0
   -5.1880   22.7910  -30.9860 N   0  0  0  0  0  0  0  0  0  0  0  0
   -3.7800   22.5430  -30.8460 C   0  0  0  0  0  0  0  0  0  0  0  0
   -3.0180   22.7460  -31.8290 O   0  0  0  0  0  0  0  0  0  0  0  0
   -3.2100   22.1550  -29.5010 C   0  0  0  0  0  0  0  0  0  0  0  0
   -2.3910   23.2530  -28.7590 C   0  0  0  0  0  0  0  0  0  0  0  0
   -1.7280   24.0490  -29.7170 O   0  0  0  0  0  0  0  0  0  0  0  0
   -1.3460   22.6700  -27.7760 C   0  0  0  0  0  0  0  0  0  0  0  0
   -1.5910   23.3300  -26.4230 C   0  0  0  0  0  0  0  0  0  0  0  0
   -2.4350   24.5580  -26.7060 C   0  0  0  0  0  0  0  0  0  0  0  0
   -3.2750   24.1890  -27.9130 C   0  0  0  0  0  0  0  0  0  0  0  0
   -3.2110   24.7890  -31.1090 H   0  0  0  0  0  0  0  0  0  0  0  0
   -7.9645   24.6178  -31.1076 H   0  0  0  0  0  0  0  0  0  0  0  0
   -9.4850   22.3094  -31.8483 H   0  0  0  0  0  0  0  0  0  0  0  0
   -9.2749   19.8517  -32.3503 H   0  0  0  0  0  0  0  0  0  0  0  0
   -6.5077   18.2118  -33.2853 H   0  0  0  0  0  0  0  0  0  0  0  0
   -4.9912   20.0551  -31.5706 H   0  0  0  0  0  0  0  0  0  0  0  0
   -4.0493   21.8658  -28.8515 H   0  0  0  0  0  0  0  0  0  0  0  0
   -2.4963   21.3435  -29.7065 H   0  0  0  0  0  0  0  0  0  0  0  0
   -2.3370   24.1640  -30.4930 H   0  0  0  0  0  0  0  0  0  0  0  0
   -1.4717   21.5803  -27.6932 H   0  0  0  0  0  0  0  0  0  0  0  0
   -0.3227   22.8655  -28.1290 H   0  0  0  0  0  0  0  0  0  0  0  0
   -2.1285   22.6423  -25.7536 H   0  0  0  0  0  0  0  0  0  0  0  0
   -0.6461   23.5952  -25.9261 H   0  0  0  0  0  0  0  0  0  0  0  0
   -3.0780   24.7918  -25.8447 H   0  0  0  0  0  0  0  0  0  0  0  0
   -1.8175   25.4496  -26.8900 H   0  0  0  0  0  0  0  0  0  0  0  0
   -4.1929   23.6707  -27.5986 H   0  0  0  0  0  0  0  0  0  0  0  0
   -3.5873   25.0783  -28.4801 H   0  0  0  0  0  0  0  0  0  0  0  0
  1  2  1  0
  2  3  2  0
  2  4  1  0
  4  5  2  0
  5  6  1  0
  6  7  2  0
  7  8  1  0
  8  9  2  0
  9 10  1  0
 10 11  1  0
 10 12  1  0
  9 13  1  0
 13 14  2  0
 14 15  1  0
 15 16  1  0
 16 17  2  0
 16 18  1  0
 18 19  1  0
 19 20  1  0
 19 21  1  0
 21 22  1  0
 22 23  1  0
 23 24  1  0
 15  4  1  0
 24 19  1  0
 14  6  1  0
  1 25  1  0
  5 26  1  0
  7 27  1  0
  8 28  1  0
 10 29  1  0
 13 30  1  0
 18 31  1  0
 18 32  1  0
 20 33  1  0
 21 34  1  0
 21 35  1  0
 22 36  1  0
 22 37  1  0
 23 38  1  0
 23 39  1  0
 24 40  1  0
 24 41  1  0
M  CHG  1   1  -1
M  END
>  <UniqueID>  (70) 
70

>  <SMILES>  (70) 
[NH-]C(=O)c1cc2ccc(C(F)F)cc2n1C(=O)CC1(O)CCCC1

>  <Energy>  (70) 
85.2571418668833

>  <Genealogy>  (70) 
[NH-]C(=O)c1cc2ccc(C(F)F)cc2n1C(=O)CC1(O)CCCC1 (protonated)
[NH-]C(=O)c1cc2ccc(C(F)F)cc2n1C(=O)CC1(O)CCCC1 (3D coordinates assigned)
[NH-]C(=O)c1cc2ccc(C(F)F)cc2n1C(=O)CC1(O)CCCC1 (nonaromatic ring conformer: 85.2571418668833 kcal/mol)

>  <smiles>  (70) 
NC(=O)c1cc2ccc(C(F)F)cc2n1C(=O)CC1(O)CCCC1

>  <score_type>  (70) 
oracle

>  <origin>  (70) 
adg

>  <m_score__min__energy>  (70) 
-10.109999999999999

>  <m_primary>  (70) 
energy

$$$$
71:0
     RDKit          3D

 47 49  0  0  0  0  0  0  0  0999 V2000
   -4.5310   24.5530  -28.7720 N   0  0  0  0  0  0  0  0  0  0  0  0
   -4.8710   24.4990  -30.1590 C   0  0  0  0  0  0  0  0  0  0  0  0
   -4.4440   25.4000  -30.9290 O   0  0  0  0  0  0  0  0  0  0  0  0
   -5.6900   23.3900  -30.6960 C   0  0  0  0  0  0  0  0  0  0  0  0
   -7.0720   23.2890  -30.5420 C   0  0  0  0  0  0  0  0  0  0  0  0
   -7.4140   22.0720  -31.0890 C   0  0  0  0  0  0  0  0  0  0  0  0
   -8.6610   21.4660  -31.2220 C   0  0  0  0  0  0  0  0  0  0  0  0
   -8.7200   20.2150  -31.8580 C   0  0  0  0  0  0  0  0  0  0  0  0
   -7.5410   19.5940  -32.3390 C   0  0  0  0  0  0  0  0  0  0  0  0
   -7.6250   18.2820  -33.0630 C   0  0  0  0  0  0  0  0  0  0  0  0
   -6.9450   17.3150  -32.3450 F   0  0  0  0  0  0  0  0  0  0  0  0
   -6.2960   20.2440  -32.1970 C   0  0  0  0  0  0  0  0  0  0  0  0
   -6.2660   21.4820  -31.5470 C   0  0  0  0  0  0  0  0  0  0  0  0
   -5.2010   22.2780  -31.3130 N   0  0  0  0  0  0  0  0  0  0  0  0
   -3.8440   22.0190  -31.6990 C   0  0  0  0  0  0  0  0  0  0  0  0
   -3.5570   21.8650  -32.9170 O   0  0  0  0  0  0  0  0  0  0  0  0
   -2.8480   21.9420  -30.7190 O   0  0  0  0  0  0  0  0  0  0  0  0
   -2.2550   23.0860  -30.1080 C   0  0  0  0  0  0  0  0  0  0  0  0
   -0.8080   22.8040  -29.7100 C   0  0  0  0  0  0  0  0  0  0  0  0
   -0.1600   24.0420  -29.3030 N   0  0  0  0  0  0  0  0  0  0  0  0
   -0.8220   25.0150  -28.4940 C   0  0  0  0  0  0  0  0  0  0  0  0
   -1.7830   25.6680  -28.9800 O   0  0  0  0  0  0  0  0  0  0  0  0
   -0.4100   25.2260  -27.1730 O   0  0  0  0  0  0  0  0  0  0  0  0
   -1.0210   24.5900  -26.0500 C   0  0  1  0  0  0  0  0  0  0  0  0
   -1.9450   25.5400  -25.3420 C   0  0  0  0  0  0  0  0  0  0  0  0
   -3.2670   25.3290  -26.0550 C   0  0  0  0  0  0  0  0  0  0  0  0
   -3.2490   24.0890  -26.7250 O   0  0  0  0  0  0  0  0  0  0  0  0
   -1.9770   23.5170  -26.5300 C   0  0  0  0  0  0  0  0  0  0  0  0
   -3.8980   25.3040  -28.4180 H   0  0  0  0  0  0  0  0  0  0  0  0
   -4.9370   23.8820  -28.0850 H   0  0  0  0  0  0  0  0  0  0  0  0
   -7.7466   24.0255  -30.0811 H   0  0  0  0  0  0  0  0  0  0  0  0
   -9.5713   21.9519  -30.8409 H   0  0  0  0  0  0  0  0  0  0  0  0
   -9.6906   19.7129  -31.9838 H   0  0  0  0  0  0  0  0  0  0  0  0
   -8.6797   17.9875  -33.1671 H   0  0  0  0  0  0  0  0  0  0  0  0
   -7.1727   18.3840  -34.0605 H   0  0  0  0  0  0  0  0  0  0  0  0
   -5.3738   19.7888  -32.5873 H   0  0  0  0  0  0  0  0  0  0  0  0
   -2.2758   23.9252  -30.8189 H   0  0  0  0  0  0  0  0  0  0  0  0
   -2.8261   23.3354  -29.2016 H   0  0  0  0  0  0  0  0  0  0  0  0
   -0.7916   22.0906  -28.8729 H   0  0  0  0  0  0  0  0  0  0  0  0
   -0.2706   22.3777  -30.5699 H   0  0  0  0  0  0  0  0  0  0  0  0
   -0.2013   24.2198  -25.4167 H   0  0  0  0  0  0  0  0  0  0  0  0
   -2.0276   25.2886  -24.2743 H   0  0  0  0  0  0  0  0  0  0  0  0
   -1.5988   26.5837  -25.3726 H   0  0  0  0  0  0  0  0  0  0  0  0
   -4.0850   25.3362  -25.3196 H   0  0  0  0  0  0  0  0  0  0  0  0
   -3.4219   26.1371  -26.7851 H   0  0  0  0  0  0  0  0  0  0  0  0
   -2.0435   22.7185  -25.7763 H   0  0  0  0  0  0  0  0  0  0  0  0
   -1.6123   23.0912  -27.4764 H   0  0  0  0  0  0  0  0  0  0  0  0
  1  2  1  0
  2  3  2  0
  2  4  1  0
  4  5  2  0
  5  6  1  0
  6  7  2  0
  7  8  1  0
  8  9  2  0
  9 10  1  0
 10 11  1  0
  9 12  1  0
 12 13  2  0
 13 14  1  0
 14 15  1  0
 15 16  2  0
 15 17  1  0
 17 18  1  0
 18 19  1  0
 19 20  1  0
 20 21  1  0
 21 22  2  0
 21 23  1  0
 23 24  1  0
 24 25  1  0
 25 26  1  0
 26 27  1  0
 27 28  1  0
 14  4  1  0
 28 24  1  0
 13  6  1  0
  1 29  1  0
  1 30  1  0
  5 31  1  0
  7 32  1  0
  8 33  1  0
 10 34  1  0
 10 35  1  0
 12 36  1  0
 18 37  1  0
 18 38  1  0
 19 39  1  0
 19 40  1  0
 24 41  1  1
 25 42  1  0
 25 43  1  0
 26 44  1  0
 26 45  1  0
 28 46  1  0
 28 47  1  0
M  CHG  1  20  -1
M  END
>  <UniqueID>  (71) 
71

>  <SMILES>  (71) 
NC(=O)c1cc2ccc(CF)cc2n1C(=O)OCC[N-]C(=O)O[C@H]1CCOC1

>  <Energy>  (71) 
78.36953736064305

>  <Genealogy>  (71) 
NC(=O)c1cc2ccc(CF)cc2n1C(=O)OCC[N-]C(=O)OC1CCOC1 (protonated)
NC(=O)c1cc2ccc(CF)cc2n1C(=O)OCC[N-]C(=O)O[C@H]1CCOC1 (chirality)
NC(=O)c1cc2ccc(CF)cc2n1C(=O)OCC[N-]C(=O)O[C@H]1CCOC1 (3D coordinates assigned)
NC(=O)c1cc2ccc(CF)cc2n1C(=O)OCC[N-]C(=O)O[C@H]1CCOC1 (nonaromatic ring conformer: 78.36953736064305 kcal/mol)

>  <smiles>  (71) 
NC(=O)c1cc2ccc(CF)cc2n1C(=O)OCCNC(=O)OC1CCOC1

>  <score_type>  (71) 
oracle

>  <origin>  (71) 
adg

>  <m_score__min__energy>  (71) 
-8.7100000000000009

>  <m_primary>  (71) 
energy

$$$$
72:0
     RDKit          3D

 42 44  0  0  0  0  0  0  0  0999 V2000
   -5.1990   15.7140  -32.7300 C   0  0  0  0  0  0  0  0  0  0  0  0
   -6.4030   16.1070  -33.3800 O   0  0  0  0  0  0  0  0  0  0  0  0
   -7.0070   17.3500  -33.1630 C   0  0  0  0  0  0  0  0  0  0  0  0
   -7.9810   17.4460  -32.3650 O   0  0  0  0  0  0  0  0  0  0  0  0
   -6.5180   18.5170  -33.8510 N   0  0  0  0  0  0  0  0  0  0  0  0
   -6.9360   19.8590  -33.4750 C   0  0  0  0  0  0  0  0  0  0  0  0
   -5.8820   20.4880  -32.5600 C   0  0  0  0  0  0  0  0  0  0  0  0
   -4.4790   20.0930  -32.8500 N   0  0  0  0  0  0  0  0  0  0  0  0
   -3.4060   20.7080  -32.0640 C   0  0  0  0  0  0  0  0  0  0  0  0
   -2.1110   20.1080  -31.9850 C   0  0  0  0  0  0  0  0  0  0  0  0
   -1.0750   20.6950  -31.2430 C   0  0  0  0  0  0  0  0  0  0  0  0
   -1.3380   21.8830  -30.5770 C   0  0  0  0  0  0  0  0  0  0  0  0
   -0.5060   22.6700  -29.8150 C   0  0  0  0  0  0  0  0  0  0  0  0
   -1.2890   23.7490  -29.4090 C   0  0  0  0  0  0  0  0  0  0  0  0
   -0.8200   24.8100  -28.4900 C   0  0  0  0  0  0  0  0  0  0  0  0
   -1.7310   25.7810  -27.9720 N   0  0  0  0  0  0  0  0  0  0  0  0
    0.3970   24.8840  -28.1790 O   0  0  0  0  0  0  0  0  0  0  0  0
   -2.5550   23.6320  -29.9050 N   0  0  0  0  0  0  0  0  0  0  0  0
   -3.6420   24.5610  -29.7600 C   0  0  0  0  0  0  0  0  0  0  0  0
   -4.3960   24.5050  -28.7540 O   0  0  0  0  0  0  0  0  0  0  0  0
   -3.8670   25.5350  -30.7240 O   0  0  0  0  0  0  0  0  0  0  0  0
   -2.5660   22.4820  -30.6190 C   0  0  0  0  0  0  0  0  0  0  0  0
   -3.6140   21.9330  -31.3670 C   0  0  0  0  0  0  0  0  0  0  0  0
   -4.1320   18.9910  -33.7840 C   0  0  0  0  0  0  0  0  0  0  0  0
   -5.2940   18.4780  -34.6330 C   0  0  0  0  0  0  0  0  0  0  0  0
   -5.3391   15.7597  -31.6399 H   0  0  0  0  0  0  0  0  0  0  0  0
   -4.9425   14.6855  -33.0239 H   0  0  0  0  0  0  0  0  0  0  0  0
   -4.3851   16.3931  -33.0239 H   0  0  0  0  0  0  0  0  0  0  0  0
   -7.0492   20.4741  -34.3799 H   0  0  0  0  0  0  0  0  0  0  0  0
   -7.8972   19.8064  -32.9427 H   0  0  0  0  0  0  0  0  0  0  0  0
   -5.9552   21.5813  -32.6570 H   0  0  0  0  0  0  0  0  0  0  0  0
   -6.0997   20.1227  -31.5455 H   0  0  0  0  0  0  0  0  0  0  0  0
   -1.9224   19.1645  -32.5181 H   0  0  0  0  0  0  0  0  0  0  0  0
   -0.0814   20.2260  -31.1908 H   0  0  0  0  0  0  0  0  0  0  0  0
    0.5521   22.4867  -29.5768 H   0  0  0  0  0  0  0  0  0  0  0  0
   -2.7560   25.7200  -28.1610 H   0  0  0  0  0  0  0  0  0  0  0  0
   -1.3830   26.5490  -27.3550 H   0  0  0  0  0  0  0  0  0  0  0  0
   -4.5879   22.4420  -31.4162 H   0  0  0  0  0  0  0  0  0  0  0  0
   -3.3463   19.3533  -34.4633 H   0  0  0  0  0  0  0  0  0  0  0  0
   -3.8103   18.1456  -33.1580 H   0  0  0  0  0  0  0  0  0  0  0  0
   -5.4069   19.1143  -35.5231 H   0  0  0  0  0  0  0  0  0  0  0  0
   -5.0911   17.4432  -34.9460 H   0  0  0  0  0  0  0  0  0  0  0  0
  1  2  1  0
  2  3  1  0
  3  4  2  0
  3  5  1  0
  5  6  1  0
  6  7  1  0
  7  8  1  0
  8  9  1  0
  9 10  2  0
 10 11  1  0
 11 12  2  0
 12 13  1  0
 13 14  2  0
 14 15  1  0
 15 16  1  0
 15 17  2  0
 14 18  1  0
 18 19  1  0
 19 20  2  0
 19 21  1  0
 18 22  1  0
 22 23  2  0
  8 24  1  0
 24 25  1  0
 25  5  1  0
 23  9  1  0
 22 12  1  0
  1 26  1  0
  1 27  1  0
  1 28  1  0
  6 29  1  0
  6 30  1  0
  7 31  1  0
  7 32  1  0
 10 33  1  0
 11 34  1  0
 13 35  1  0
 16 36  1  0
 16 37  1  0
 23 38  1  0
 24 39  1  0
 24 40  1  0
 25 41  1  0
 25 42  1  0
M  CHG  1  21  -1
M  END
>  <UniqueID>  (72) 
72

>  <SMILES>  (72) 
COC(=O)N1CCN(c2ccc3cc(C(N)=O)n(C(=O)[O-])c3c2)CC1

>  <Energy>  (72) 
89.64145562033889

>  <Genealogy>  (72) 
COC(=O)N1CCN(c2ccc3cc(C(N)=O)n(C(=O)[O-])c3c2)CC1 (protonated)
COC(=O)N1CCN(c2ccc3cc(C(N)=O)n(C(=O)[O-])c3c2)CC1 (3D coordinates assigned)
COC(=O)N1CCN(c2ccc3cc(C(N)=O)n(C(=O)[O-])c3c2)CC1 (nonaromatic ring conformer: 89.64145562033889 kcal/mol)

>  <smiles>  (72) 
COC(=O)N1CCN(c2ccc3cc(C(N)=O)n(C(=O)O)c3c2)CC1

>  <score_type>  (72) 
oracle

>  <origin>  (72) 
adg

>  <m_score__min__energy>  (72) 
-9.2100000000000009

>  <m_primary>  (72) 
energy

$$$$
73:0
     RDKit          3D

 43 44  0  0  0  0  0  0  0  0999 V2000
   -0.2690   20.6020  -35.1670 C   0  0  0  0  0  0  0  0  0  0  0  0
   -1.6090   20.5050  -34.5800 N   0  0  0  0  0  0  0  0  0  0  0  0
   -1.5510   19.9650  -33.2140 C   0  0  0  0  0  0  0  0  0  0  0  0
   -1.0190   20.9880  -32.2380 C   0  0  0  0  0  0  0  0  0  0  0  0
    0.0900   21.5400  -32.4830 O   0  0  0  0  0  0  0  0  0  0  0  0
   -1.7060   21.3000  -31.0030 N   0  0  0  0  0  0  0  0  0  0  0  0
   -1.4240   20.4870  -29.8150 C   0  0  0  0  0  0  0  0  0  0  0  0
   -2.6660   22.4070  -30.8870 C   0  0  0  0  0  0  0  0  0  0  0  0
   -3.7410   22.2870  -31.9260 C   0  0  0  0  0  0  0  0  0  0  0  0
   -3.4340   22.3020  -33.1490 O   0  0  0  0  0  0  0  0  0  0  0  0
   -5.1190   22.2200  -31.5420 N   0  0  0  0  0  0  0  0  0  0  0  0
   -5.8670   23.1900  -30.9490 C   0  0  0  0  0  0  0  0  0  0  0  0
   -5.3670   24.4900  -30.4640 C   0  0  0  0  0  0  0  0  0  0  0  0
   -5.7650   25.0120  -29.1960 N   0  0  0  0  0  0  0  0  0  0  0  0
   -4.6080   25.1750  -31.2000 O   0  0  0  0  0  0  0  0  0  0  0  0
   -7.2100   22.8190  -30.9170 C   0  0  0  0  0  0  0  0  0  0  0  0
   -7.2580   21.5770  -31.5110 C   0  0  0  0  0  0  0  0  0  0  0  0
   -8.3430   20.7480  -31.7740 C   0  0  0  0  0  0  0  0  0  0  0  0
   -8.1000   19.5370  -32.4450 C   0  0  0  0  0  0  0  0  0  0  0  0
   -6.7880   19.1890  -32.8630 C   0  0  0  0  0  0  0  0  0  0  0  0
   -6.5340   17.8700  -33.5470 C   0  0  0  0  0  0  0  0  0  0  0  0
   -6.3660   18.0840  -34.9020 F   0  0  0  0  0  0  0  0  0  0  0  0
   -5.3950   17.2690  -33.0400 F   0  0  0  0  0  0  0  0  0  0  0  0
   -7.6000   17.0080  -33.3560 F   0  0  0  0  0  0  0  0  0  0  0  0
   -5.7090   20.0520  -32.5590 C   0  0  0  0  0  0  0  0  0  0  0  0
   -5.9830   21.2430  -31.8820 C   0  0  0  0  0  0  0  0  0  0  0  0
    0.4803   20.6562  -34.3635 H   0  0  0  0  0  0  0  0  0  0  0  0
   -0.0761   19.7155  -35.7890 H   0  0  0  0  0  0  0  0  0  0  0  0
   -0.2058   21.5071  -35.7890 H   0  0  0  0  0  0  0  0  0  0  0  0
   -1.9930   21.4780  -34.5250 H   0  0  0  0  0  0  0  0  0  0  0  0
   -2.5635   19.6673  -32.9037 H   0  0  0  0  0  0  0  0  0  0  0  0
   -0.8716   19.0999  -33.2127 H   0  0  0  0  0  0  0  0  0  0  0  0
   -1.6288   21.0773  -28.9097 H   0  0  0  0  0  0  0  0  0  0  0  0
   -2.0644   19.5927  -29.8222 H   0  0  0  0  0  0  0  0  0  0  0  0
   -0.3673   20.1814  -29.8222 H   0  0  0  0  0  0  0  0  0  0  0  0
   -3.1253   22.3836  -29.8877 H   0  0  0  0  0  0  0  0  0  0  0  0
   -2.1314   23.3563  -31.0389 H   0  0  0  0  0  0  0  0  0  0  0  0
   -6.5460   24.5820  -28.6560 H   0  0  0  0  0  0  0  0  0  0  0  0
   -5.3480   25.9020  -28.8430 H   0  0  0  0  0  0  0  0  0  0  0  0
   -8.0519   23.3949  -30.5053 H   0  0  0  0  0  0  0  0  0  0  0  0
   -9.3604   21.0313  -31.4663 H   0  0  0  0  0  0  0  0  0  0  0  0
   -8.9355   18.8511  -32.6487 H   0  0  0  0  0  0  0  0  0  0  0  0
   -4.6801   19.7918  -32.8484 H   0  0  0  0  0  0  0  0  0  0  0  0
  1  2  1  0
  2  3  1  0
  3  4  1  0
  4  5  2  0
  4  6  1  0
  6  7  1  0
  6  8  1  0
  8  9  1  0
  9 10  2  0
  9 11  1  0
 11 12  1  0
 12 13  1  0
 13 14  1  0
 13 15  2  0
 12 16  2  0
 16 17  1  0
 17 18  2  0
 18 19  1  0
 19 20  2  0
 20 21  1  0
 21 22  1  0
 21 23  1  0
 21 24  1  0
 20 25  1  0
 25 26  2  0
 26 11  1  0
 26 17  1  0
  1 27  1  0
  1 28  1  0
  1 29  1  0
  2 30  1  0
  3 31  1  0
  3 32  1  0
  7 33  1  0
  7 34  1  0
  7 35  1  0
  8 36  1  0
  8 37  1  0
 14 38  1  0
 14 39  1  0
 16 40  1  0
 18 41  1  0
 19 42  1  0
 25 43  1  0
M  END
>  <UniqueID>  (73) 
73

>  <SMILES>  (73) 
CNCC(=O)N(C)CC(=O)n1c(C(N)=O)cc2ccc(C(F)(F)F)cc21

>  <Energy>  (73) 
79.28877830377424

>  <Genealogy>  (73) 
CNCC(=O)N(C)CC(=O)n1c(C(N)=O)cc2ccc(C(F)(F)F)cc21 (3D coordinates assigned)
CNCC(=O)N(C)CC(=O)n1c(C(N)=O)cc2ccc(C(F)(F)F)cc21 (optimized conformer: 79.28877830377424 kcal/mol)

>  <smiles>  (73) 
CNCC(=O)N(C)CC(=O)n1c(C(N)=O)cc2ccc(C(F)(F)F)cc21

>  <score_type>  (73) 
oracle

>  <origin>  (73) 
adg

>  <m_score__min__energy>  (73) 
-8.6699999999999999

>  <m_primary>  (73) 
energy

$$$$
74:0
     RDKit          3D

 34 36  0  0  0  0  0  0  0  0999 V2000
   -1.6820   25.2570  -29.1560 N   0  0  0  0  0  0  0  0  0  0  0  0
   -1.9210   23.8810  -28.8590 C   0  0  0  0  0  0  0  0  0  0  0  0
   -1.7530   23.4680  -27.6810 O   0  0  0  0  0  0  0  0  0  0  0  0
   -2.4090   22.9440  -29.8910 C   0  0  0  0  0  0  0  0  0  0  0  0
   -1.5870   22.0440  -30.5670 C   0  0  0  0  0  0  0  0  0  0  0  0
   -2.4210   21.3630  -31.4240 C   0  0  0  0  0  0  0  0  0  0  0  0
   -2.1320   20.3640  -32.3490 C   0  0  0  0  0  0  0  0  0  0  0  0
   -3.1880   19.8710  -33.1370 C   0  0  0  0  0  0  0  0  0  0  0  0
   -4.4940   20.4010  -33.0040 C   0  0  0  0  0  0  0  0  0  0  0  0
   -5.6220   19.8460  -33.8280 C   0  0  0  0  0  0  0  0  0  0  0  0
   -6.7790   19.5910  -32.9760 N   0  0  0  0  0  0  0  0  0  0  0  0
   -7.1010   18.4330  -32.3780 C   0  0  0  0  0  0  0  0  0  0  0  0
   -8.3140   18.6080  -31.7480 C   0  0  0  0  0  0  0  0  0  0  0  0
   -8.7580   19.8630  -31.9620 N   0  0  0  0  0  0  0  0  0  0  0  0
   -7.7990   20.4330  -32.7200 C   0  0  0  0  0  0  0  0  0  0  0  0
   -4.7500   21.4100  -32.0510 C   0  0  0  0  0  0  0  0  0  0  0  0
   -3.6890   21.8590  -31.2580 C   0  0  0  0  0  0  0  0  0  0  0  0
   -3.6990   22.8240  -30.3120 N   0  0  0  0  0  0  0  0  0  0  0  0
   -4.8120   23.6590  -29.9550 C   0  0  0  0  0  0  0  0  0  0  0  0
   -5.7540   23.1810  -29.2680 O   0  0  0  0  0  0  0  0  0  0  0  0
   -4.8870   25.0570  -30.4090 C   0  0  0  0  0  0  0  0  0  0  0  0
   -3.8570   25.6480  -30.8280 O   0  0  0  0  0  0  0  0  0  0  0  0
   -6.1030   25.7260  -30.3980 O   0  0  0  0  0  0  0  0  0  0  0  0
   -1.2830   25.8880  -28.4250 H   0  0  0  0  0  0  0  0  0  0  0  0
   -1.9950   25.6790  -30.0580 H   0  0  0  0  0  0  0  0  0  0  0  0
   -0.5027   21.9072  -30.4421 H   0  0  0  0  0  0  0  0  0  0  0  0
   -1.1102   19.9723  -32.4604 H   0  0  0  0  0  0  0  0  0  0  0  0
   -2.9973   19.0667  -33.8628 H   0  0  0  0  0  0  0  0  0  0  0  0
   -5.8959   20.5719  -34.6078 H   0  0  0  0  0  0  0  0  0  0  0  0
   -5.3005   18.9033  -34.2949 H   0  0  0  0  0  0  0  0  0  0  0  0
   -6.5034   17.5096  -32.3890 H   0  0  0  0  0  0  0  0  0  0  0  0
   -8.8397   17.8410  -31.1603 H   0  0  0  0  0  0  0  0  0  0  0  0
   -7.8446   21.4687  -33.0877 H   0  0  0  0  0  0  0  0  0  0  0  0
   -5.7588   21.8328  -31.9348 H   0  0  0  0  0  0  0  0  0  0  0  0
  1  2  1  0
  2  3  2  0
  2  4  1  0
  4  5  2  0
  5  6  1  0
  6  7  2  0
  7  8  1  0
  8  9  2  0
  9 10  1  0
 10 11  1  0
 11 12  1  0
 12 13  2  0
 13 14  1  0
 14 15  2  0
  9 16  1  0
 16 17  2  0
 17 18  1  0
 18 19  1  0
 19 20  2  0
 19 21  1  0
 21 22  2  0
 21 23  1  0
 18  4  1  0
 17  6  1  0
 15 11  1  0
  1 24  1  0
  1 25  1  0
  5 26  1  0
  7 27  1  0
  8 28  1  0
 10 29  1  0
 10 30  1  0
 12 31  1  0
 13 32  1  0
 15 33  1  0
 16 34  1  0
M  CHG  1  23  -1
M  END
>  <UniqueID>  (74) 
74

>  <SMILES>  (74) 
NC(=O)c1cc2ccc(Cn3ccnc3)cc2n1C(=O)C(=O)[O-]

>  <Energy>  (74) 
103.70528570228083

>  <Genealogy>  (74) 
NC(=O)c1cc2ccc(Cn3ccnc3)cc2n1C(=O)C(=O)[O-] (protonated)
NC(=O)c1cc2ccc(Cn3ccnc3)cc2n1C(=O)C(=O)[O-] (3D coordinates assigned)
NC(=O)c1cc2ccc(Cn3ccnc3)cc2n1C(=O)C(=O)[O-] (optimized conformer: 103.70528570228083 kcal/mol)

>  <smiles>  (74) 
NC(=O)c1cc2ccc(Cn3ccnc3)cc2n1C(=O)C(=O)O

>  <score_type>  (74) 
oracle

>  <origin>  (74) 
adg

>  <m_score__min__energy>  (74) 
-9.1600000000000001

>  <m_primary>  (74) 
energy

$$$$
75:0
     RDKit          3D

 34 35  0  0  0  0  0  0  0  0999 V2000
   -3.7847   21.3051  -28.9677 H   0  0  0  0  0  0  0  0  0  0  0  0
   -3.3140   22.1700  -29.4580 C   0  0  0  0  0  0  0  0  0  0  0  0
   -3.8890   22.5810  -30.7630 C   0  0  0  0  0  0  0  0  0  0  0  0
   -3.0920   22.8870  -31.6900 O   0  0  0  0  0  0  0  0  0  0  0  0
   -5.2990   22.7620  -30.9720 N   0  0  0  0  0  0  0  0  0  0  0  0
   -6.0280   23.9030  -30.8180 C   0  0  0  0  0  0  0  0  0  0  0  0
   -5.4880   25.2290  -30.4640 C   0  0  0  0  0  0  0  0  0  0  0  0
   -6.1780   26.0050  -29.7490 O   0  0  0  0  0  0  0  0  0  0  0  0
   -4.1840   25.6370  -30.8750 N   0  0  0  0  0  0  0  0  0  0  0  0
   -3.4820   24.9370  -31.1940 H   0  0  0  0  0  0  0  0  0  0  0  0
   -3.8630   26.6160  -30.7040 H   0  0  0  0  0  0  0  0  0  0  0  0
   -7.3570   23.6830  -31.1750 C   0  0  0  0  0  0  0  0  0  0  0  0
   -8.1757   24.4176  -31.1822 H   0  0  0  0  0  0  0  0  0  0  0  0
   -7.4280   22.3500  -31.5170 C   0  0  0  0  0  0  0  0  0  0  0  0
   -8.5070   21.5900  -31.9540 C   0  0  0  0  0  0  0  0  0  0  0  0
   -9.5065   22.0357  -32.0650 H   0  0  0  0  0  0  0  0  0  0  0  0
   -8.2810   20.2330  -32.2500 C   0  0  0  0  0  0  0  0  0  0  0  0
   -9.1130   19.6095  -32.6091 H   0  0  0  0  0  0  0  0  0  0  0  0
   -6.9930   19.6590  -32.0910 C   0  0  0  0  0  0  0  0  0  0  0  0
   -6.7540   18.2170  -32.4600 C   0  0  0  0  0  0  0  0  0  0  0  0
   -7.9250   17.4830  -32.3520 F   0  0  0  0  0  0  0  0  0  0  0  0
   -5.8060   17.6810  -31.6070 F   0  0  0  0  0  0  0  0  0  0  0  0
   -6.2980   18.1150  -33.7630 F   0  0  0  0  0  0  0  0  0  0  0  0
   -5.9150   20.4750  -31.6720 C   0  0  0  0  0  0  0  0  0  0  0  0
   -4.9002   20.0618  -31.5754 H   0  0  0  0  0  0  0  0  0  0  0  0
   -6.1710   21.8180  -31.3840 C   0  0  0  0  0  0  0  0  0  0  0  0
   -2.2810   22.7370  -28.8070 C   0  0  0  0  0  0  0  0  0  0  0  0
   -1.6640   24.0110  -29.2070 C   0  0  0  0  0  0  0  0  0  0  0  0
   -0.4410   24.0640  -29.5030 O   0  0  0  0  0  0  0  0  0  0  0  0
   -2.4510   25.1510  -29.3370 O   0  0  0  0  0  0  0  0  0  0  0  0
   -1.7850   22.0910  -27.5410 C   0  0  0  0  0  0  0  0  0  0  0  0
   -2.1954   22.6254  -26.6715 H   0  0  0  0  0  0  0  0  0  0  0  0
   -2.1110   21.0408  -27.5132 H   0  0  0  0  0  0  0  0  0  0  0  0
   -0.6862   22.1347  -27.5132 H   0  0  0  0  0  0  0  0  0  0  0  0
  1  2  1  0
  2  3  1  0
  3  4  2  0
  3  5  1  0
  5  6  1  0
  6  7  1  0
  7  8  2  0
  7  9  1  0
  9 10  1  0
  9 11  1  0
  6 12  2  0
 12 13  1  0
 12 14  1  0
 14 15  2  0
 15 16  1  0
 15 17  1  0
 17 18  1  0
 17 19  2  0
 19 20  1  0
 20 21  1  0
 20 22  1  0
 20 23  1  0
 19 24  1  0
 24 25  1  0
 24 26  2  0
  2 27  2  0
 27 28  1  0
 28 29  2  0
 28 30  1  0
 27 31  1  0
 31 32  1  0
 31 33  1  0
 31 34  1  0
 26  5  1  0
 26 14  1  0
M  CHG  1  30  -1
M  END
>  <UniqueID>  (75) 
75

>  <SMILES>  (75) 
C/C(=C/C(=O)n1c(C(N)=O)cc2ccc(C(F)(F)F)cc21)C(=O)[O-]

>  <Energy>  (75) 
85.89019366416697

>  <Genealogy>  (75) 
CC(=CC(=O)n1c(C(N)=O)cc2ccc(C(F)(F)F)cc21)C(=O)[O-] (protonated)
C/C(=C/C(=O)n1c(C(N)=O)cc2ccc(C(F)(F)F)cc21)C(=O)[O-] (cis-trans isomerization)
C/C(=C/C(=O)n1c(C(N)=O)cc2ccc(C(F)(F)F)cc21)C(=O)[O-] (3D coordinates assigned)
C/C(=C/C(=O)n1c(C(N)=O)cc2ccc(C(F)(F)F)cc21)C(=O)[O-] (optimized conformer: 85.89019366416697 kcal/mol)

>  <smiles>  (75) 
CC(=CC(=O)n1c(C(N)=O)cc2ccc(C(F)(F)F)cc21)C(=O)O

>  <score_type>  (75) 
oracle

>  <origin>  (75) 
adg

>  <m_score__min__energy>  (75) 
-10.880000000000001

>  <m_primary>  (75) 
energy

$$$$
76:0
     RDKit          3D

 35 36  0  0  0  0  0  0  0  0999 V2000
   -5.6590   18.1870  -34.9090 C   0  0  0  0  0  0  0  0  0  0  0  0
   -5.7070   18.1890  -33.5740 C   0  0  0  0  0  0  0  0  0  0  0  0
   -7.0030   18.3510  -32.8300 C   0  0  0  0  0  0  0  0  0  0  0  0
   -7.1950   19.7800  -32.4000 C   0  0  0  0  0  0  0  0  0  0  0  0
   -8.4990   20.3300  -32.3360 C   0  0  0  0  0  0  0  0  0  0  0  0
   -8.6960   21.6580  -31.9230 C   0  0  0  0  0  0  0  0  0  0  0  0
   -7.5780   22.4020  -31.5630 C   0  0  0  0  0  0  0  0  0  0  0  0
   -7.4820   23.7130  -31.1560 C   0  0  0  0  0  0  0  0  0  0  0  0
   -6.1250   23.9320  -30.9380 C   0  0  0  0  0  0  0  0  0  0  0  0
   -5.5800   25.2070  -30.4290 C   0  0  0  0  0  0  0  0  0  0  0  0
   -4.2200   25.5760  -30.6620 N   0  0  0  0  0  0  0  0  0  0  0  0
   -6.3120   25.9570  -29.7300 O   0  0  0  0  0  0  0  0  0  0  0  0
   -5.4040   22.8080  -31.2100 N   0  0  0  0  0  0  0  0  0  0  0  0
   -3.9740   22.6740  -31.2220 C   0  0  0  0  0  0  0  0  0  0  0  0
   -3.3770   22.3720  -32.2920 O   0  0  0  0  0  0  0  0  0  0  0  0
   -3.2480   22.8790  -30.0430 O   0  0  0  0  0  0  0  0  0  0  0  0
   -1.8300   23.0230  -30.0110 C   0  0  0  0  0  0  0  0  0  0  0  0
   -1.4520   24.3070  -29.3430 C   0  0  0  0  0  0  0  0  0  0  0  0
   -2.2560   25.2750  -29.3370 O   0  0  0  0  0  0  0  0  0  0  0  0
   -0.2030   24.4430  -28.7510 O   0  0  0  0  0  0  0  0  0  0  0  0
   -6.3100   21.8770  -31.5900 C   0  0  0  0  0  0  0  0  0  0  0  0
   -6.0830   20.5640  -32.0200 C   0  0  0  0  0  0  0  0  0  0  0  0
   -4.6948   18.0664  -35.4245 H   0  0  0  0  0  0  0  0  0  0  0  0
   -6.5837   18.3060  -35.4928 H   0  0  0  0  0  0  0  0  0  0  0  0
   -4.7737   18.0690  -33.0043 H   0  0  0  0  0  0  0  0  0  0  0  0
   -7.8352   18.0566  -33.4863 H   0  0  0  0  0  0  0  0  0  0  0  0
   -6.9786   17.7127  -31.9345 H   0  0  0  0  0  0  0  0  0  0  0  0
   -9.3654   19.7112  -32.6124 H   0  0  0  0  0  0  0  0  0  0  0  0
   -9.7043   22.0961  -31.8855 H   0  0  0  0  0  0  0  0  0  0  0  0
   -8.3029   24.4342  -31.0298 H   0  0  0  0  0  0  0  0  0  0  0  0
   -3.5450   24.9050  -31.0910 H   0  0  0  0  0  0  0  0  0  0  0  0
   -3.8630   26.5000  -30.3300 H   0  0  0  0  0  0  0  0  0  0  0  0
   -1.3926   22.1817  -29.4534 H   0  0  0  0  0  0  0  0  0  0  0  0
   -1.4485   23.0313  -31.0427 H   0  0  0  0  0  0  0  0  0  0  0  0
   -5.0635   20.1529  -32.0609 H   0  0  0  0  0  0  0  0  0  0  0  0
  1  2  2  0
  2  3  1  0
  3  4  1  0
  4  5  2  0
  5  6  1  0
  6  7  2  0
  7  8  1  0
  8  9  2  0
  9 10  1  0
 10 11  1  0
 10 12  2  0
  9 13  1  0
 13 14  1  0
 14 15  2  0
 14 16  1  0
 16 17  1  0
 17 18  1  0
 18 19  2  0
 18 20  1  0
 13 21  1  0
 21 22  2  0
 22  4  1  0
 21  7  1  0
  1 23  1  0
  1 24  1  0
  2 25  1  0
  3 26  1  0
  3 27  1  0
  5 28  1  0
  6 29  1  0
  8 30  1  0
 11 31  1  0
 11 32  1  0
 17 33  1  0
 17 34  1  0
 22 35  1  0
M  CHG  1  20  -1
M  END
>  <UniqueID>  (76) 
76

>  <SMILES>  (76) 
C=CCc1ccc2cc(C(N)=O)n(C(=O)OCC(=O)[O-])c2c1

>  <Energy>  (76) 
68.72358084088224

>  <Genealogy>  (76) 
C=CCc1ccc2cc(C(N)=O)n(C(=O)OCC(=O)[O-])c2c1 (protonated)
C=CCc1ccc2cc(C(N)=O)n(C(=O)OCC(=O)[O-])c2c1 (3D coordinates assigned)
C=CCc1ccc2cc(C(N)=O)n(C(=O)OCC(=O)[O-])c2c1 (optimized conformer: 68.72358084088224 kcal/mol)

>  <smiles>  (76) 
C=CCc1ccc2cc(C(N)=O)n(C(=O)OCC(=O)O)c2c1

>  <score_type>  (76) 
oracle

>  <origin>  (76) 
adg

>  <m_score__min__energy>  (76) 
-10.44

>  <m_primary>  (76) 
energy

$$$$
77:0
     RDKit          3D

 44 46  0  0  0  0  0  0  0  0999 V2000
   -0.4770   23.1770  -29.3170 C   0  0  0  0  0  0  0  0  0  0  0  0
   -1.2040   24.0170  -28.3520 N   0  0  0  0  0  0  0  0  0  0  0  0
   -2.0130   23.2010  -27.4350 C   0  0  0  0  0  0  0  0  0  0  0  0
   -3.3400   23.7100  -28.0000 C   0  0  0  0  0  0  0  0  0  0  0  0
   -4.1330   24.5140  -26.9600 C   0  0  0  0  0  0  0  0  0  0  0  0
   -4.0980   22.6140  -28.5140 O   0  0  0  0  0  0  0  0  0  0  0  0
   -3.5350   21.9400  -29.6260 C   0  0  0  0  0  0  0  0  0  0  0  0
   -4.0470   22.4290  -30.9580 C   0  0  0  0  0  0  0  0  0  0  0  0
   -3.2320   22.6170  -31.9000 O   0  0  0  0  0  0  0  0  0  0  0  0
   -5.4500   22.6900  -31.1620 N   0  0  0  0  0  0  0  0  0  0  0  0
   -6.1620   23.7850  -30.7720 C   0  0  0  0  0  0  0  0  0  0  0  0
   -5.5940   25.0550  -30.2750 C   0  0  0  0  0  0  0  0  0  0  0  0
   -6.1460   25.7150  -29.1350 N   0  0  0  0  0  0  0  0  0  0  0  0
   -4.5740   25.5380  -30.8340 O   0  0  0  0  0  0  0  0  0  0  0  0
   -7.5240   23.5850  -30.9720 C   0  0  0  0  0  0  0  0  0  0  0  0
   -7.6290   22.3290  -31.5220 C   0  0  0  0  0  0  0  0  0  0  0  0
   -8.7590   21.6140  -31.9090 C   0  0  0  0  0  0  0  0  0  0  0  0
   -8.5740   20.3200  -32.4240 C   0  0  0  0  0  0  0  0  0  0  0  0
   -7.2730   19.7720  -32.5500 C   0  0  0  0  0  0  0  0  0  0  0  0
   -7.0980   18.3790  -33.0840 C   0  0  0  0  0  0  0  0  0  0  0  0
   -6.1800   18.3920  -34.1180 F   0  0  0  0  0  0  0  0  0  0  0  0
   -6.6430   17.5430  -32.0800 F   0  0  0  0  0  0  0  0  0  0  0  0
   -6.1510   20.5270  -32.1450 C   0  0  0  0  0  0  0  0  0  0  0  0
   -6.3630   21.8130  -31.6340 C   0  0  0  0  0  0  0  0  0  0  0  0
   -2.4440   24.5510  -28.9310 C   0  0  0  0  0  0  0  0  0  0  0  0
    0.1492   22.4534  -28.7745 H   0  0  0  0  0  0  0  0  0  0  0  0
   -1.1975   22.6371  -29.9489 H   0  0  0  0  0  0  0  0  0  0  0  0
    0.1607   23.8126  -29.9489 H   0  0  0  0  0  0  0  0  0  0  0  0
   -1.8681   22.1193  -27.5726 H   0  0  0  0  0  0  0  0  0  0  0  0
   -1.8335   23.2934  -26.3537 H   0  0  0  0  0  0  0  0  0  0  0  0
   -3.8290   24.2058  -25.9487 H   0  0  0  0  0  0  0  0  0  0  0  0
   -3.9296   25.5868  -27.0930 H   0  0  0  0  0  0  0  0  0  0  0  0
   -5.2085   24.3254  -27.0930 H   0  0  0  0  0  0  0  0  0  0  0  0
   -2.4443   22.0808  -29.6009 H   0  0  0  0  0  0  0  0  0  0  0  0
   -3.8254   20.8825  -29.5400 H   0  0  0  0  0  0  0  0  0  0  0  0
   -6.8850   25.2620  -28.5540 H   0  0  0  0  0  0  0  0  0  0  0  0
   -5.7590   26.6330  -28.8240 H   0  0  0  0  0  0  0  0  0  0  0  0
   -8.3422   24.2825  -30.7398 H   0  0  0  0  0  0  0  0  0  0  0  0
   -9.7651   22.0485  -31.8146 H   0  0  0  0  0  0  0  0  0  0  0  0
   -9.4473   19.7265  -32.7324 H   0  0  0  0  0  0  0  0  0  0  0  0
   -8.0670   18.0113  -33.4527 H   0  0  0  0  0  0  0  0  0  0  0  0
   -5.1346   20.1148  -32.2289 H   0  0  0  0  0  0  0  0  0  0  0  0
   -2.5695   24.3062  -29.9961 H   0  0  0  0  0  0  0  0  0  0  0  0
   -2.5874   25.6412  -28.9597 H   0  0  0  0  0  0  0  0  0  0  0  0
  1  2  1  0
  2  3  1  0
  3  4  1  0
  4  5  1  0
  4  6  1  0
  6  7  1  0
  7  8  1  0
  8  9  2  0
  8 10  1  0
 10 11  1  0
 11 12  1  0
 12 13  1  0
 12 14  2  0
 11 15  2  0
 15 16  1  0
 16 17  2  0
 17 18  1  0
 18 19  2  0
 19 20  1  0
 20 21  1  0
 20 22  1  0
 19 23  1  0
 23 24  2  0
  4 25  1  0
 25  2  1  0
 24 10  1  0
 24 16  1  0
  1 26  1  0
  1 27  1  0
  1 28  1  0
  3 29  1  0
  3 30  1  0
  5 31  1  0
  5 32  1  0
  5 33  1  0
  7 34  1  0
  7 35  1  0
 13 36  1  0
 13 37  1  0
 15 38  1  0
 17 39  1  0
 18 40  1  0
 20 41  1  0
 23 42  1  0
 25 43  1  0
 25 44  1  0
M  END
>  <UniqueID>  (77) 
77

>  <SMILES>  (77) 
CN1CC(C)(OCC(=O)n2c(C(N)=O)cc3ccc(C(F)F)cc32)C1

>  <Energy>  (77) 
163.99423837157397

>  <Genealogy>  (77) 
CN1CC(C)(OCC(=O)n2c(C(N)=O)cc3ccc(C(F)F)cc32)C1 (3D coordinates assigned)
CN1CC(C)(OCC(=O)n2c(C(N)=O)cc3ccc(C(F)F)cc32)C1 (nonaromatic ring conformer: 163.99423837157397 kcal/mol)

>  <smiles>  (77) 
CN1CC(C)(OCC(=O)n2c(C(N)=O)cc3ccc(C(F)F)cc32)C1

>  <score_type>  (77) 
oracle

>  <origin>  (77) 
adg

>  <m_score__min__energy>  (77) 
-8.6400000000000006

>  <m_primary>  (77) 
energy

$$$$
78:0
     RDKit          3D

 28 29  0  0  0  0  0  0  0  0999 V2000
   -3.6350   22.7720  -28.3080 C   0  0  0  0  0  0  0  0  0  0  0  0
   -3.5450   21.9510  -29.3520 C   0  0  0  0  0  0  0  0  0  0  0  0
   -4.0060   22.3280  -30.7010 C   0  0  0  0  0  0  0  0  0  0  0  0
   -3.1960   22.3540  -31.6690 O   0  0  0  0  0  0  0  0  0  0  0  0
   -5.3820   22.6760  -30.9200 N   0  0  0  0  0  0  0  0  0  0  0  0
   -5.9500   23.9130  -30.8390 C   0  0  0  0  0  0  0  0  0  0  0  0
   -5.2690   25.1490  -30.4010 C   0  0  0  0  0  0  0  0  0  0  0  0
   -3.8660   25.2960  -30.6020 N   0  0  0  0  0  0  0  0  0  0  0  0
   -5.9180   26.0880  -29.8690 O   0  0  0  0  0  0  0  0  0  0  0  0
   -7.3010   23.8500  -31.1720 C   0  0  0  0  0  0  0  0  0  0  0  0
   -7.5450   22.5280  -31.4650 C   0  0  0  0  0  0  0  0  0  0  0  0
   -8.7220   21.9000  -31.8620 C   0  0  0  0  0  0  0  0  0  0  0  0
   -8.6770   20.5200  -32.1200 C   0  0  0  0  0  0  0  0  0  0  0  0
   -7.4610   19.7980  -32.0040 C   0  0  0  0  0  0  0  0  0  0  0  0
   -7.4340   18.3100  -32.2470 C   0  0  0  0  0  0  0  0  0  0  0  0
   -7.0750   18.0350  -33.5550 F   0  0  0  0  0  0  0  0  0  0  0  0
   -8.6910   17.7880  -32.0050 F   0  0  0  0  0  0  0  0  0  0  0  0
   -6.5200   17.6940  -31.4100 F   0  0  0  0  0  0  0  0  0  0  0  0
   -6.2920   20.4700  -31.5760 C   0  0  0  0  0  0  0  0  0  0  0  0
   -6.3710   21.8400  -31.3080 C   0  0  0  0  0  0  0  0  0  0  0  0
   -3.2775   22.4465  -27.3199 H   0  0  0  0  0  0  0  0  0  0  0  0
   -4.0668   23.7759  -28.4334 H   0  0  0  0  0  0  0  0  0  0  0  0
   -3.1096   20.9520  -29.2025 H   0  0  0  0  0  0  0  0  0  0  0  0
   -3.4880   26.0430  -31.2250 H   0  0  0  0  0  0  0  0  0  0  0  0
   -8.0208   24.6815  -31.1957 H   0  0  0  0  0  0  0  0  0  0  0  0
   -9.6584   22.4669  -31.9703 H   0  0  0  0  0  0  0  0  0  0  0  0
   -9.5958   19.9924  -32.4156 H   0  0  0  0  0  0  0  0  0  0  0  0
   -5.3427   19.9272  -31.4568 H   0  0  0  0  0  0  0  0  0  0  0  0
  1  2  2  0
  2  3  1  0
  3  4  2  0
  3  5  1  0
  5  6  1  0
  6  7  1  0
  7  8  1  0
  7  9  2  0
  6 10  2  0
 10 11  1  0
 11 12  2  0
 12 13  1  0
 13 14  2  0
 14 15  1  0
 15 16  1  0
 15 17  1  0
 15 18  1  0
 14 19  1  0
 19 20  2  0
 20  5  1  0
 20 11  1  0
  1 21  1  0
  1 22  1  0
  2 23  1  0
  8 24  1  0
 10 25  1  0
 12 26  1  0
 13 27  1  0
 19 28  1  0
M  CHG  1   8  -1
M  END
>  <UniqueID>  (78) 
78

>  <SMILES>  (78) 
C=CC(=O)n1c(C([NH-])=O)cc2ccc(C(F)(F)F)cc21

>  <Energy>  (78) 
67.05698801726797

>  <Genealogy>  (78) 
C=CC(=O)n1c(C([NH-])=O)cc2ccc(C(F)(F)F)cc21 (protonated)
C=CC(=O)n1c(C([NH-])=O)cc2ccc(C(F)(F)F)cc21 (3D coordinates assigned)
C=CC(=O)n1c(C([NH-])=O)cc2ccc(C(F)(F)F)cc21 (optimized conformer: 67.05698801726797 kcal/mol)

>  <smiles>  (78) 
C=CC(=O)n1c(C(N)=O)cc2ccc(C(F)(F)F)cc21

>  <score_type>  (78) 
oracle

>  <origin>  (78) 
adg

>  <m_score__min__energy>  (78) 
-9.6099999999999994

>  <m_primary>  (78) 
energy

$$$$
79:0
     RDKit          3D

 39 40  0  0  0  0  0  0  0  0999 V2000
   -3.8590   25.3380  -30.8720 N   0  0  0  0  0  0  0  0  0  0  0  0
   -5.2160   25.1730  -30.4660 C   0  0  0  0  0  0  0  0  0  0  0  0
   -5.7530   26.0480  -29.7390 O   0  0  0  0  0  0  0  0  0  0  0  0
   -5.9710   23.9730  -30.8840 C   0  0  0  0  0  0  0  0  0  0  0  0
   -7.3610   23.9210  -30.9910 C   0  0  0  0  0  0  0  0  0  0  0  0
   -7.6440   22.6510  -31.4490 C   0  0  0  0  0  0  0  0  0  0  0  0
   -8.8670   22.0470  -31.7240 C   0  0  0  0  0  0  0  0  0  0  0  0
   -8.8570   20.7110  -32.1610 C   0  0  0  0  0  0  0  0  0  0  0  0
   -7.6340   20.0090  -32.3150 C   0  0  0  0  0  0  0  0  0  0  0  0
   -7.6440   18.5620  -32.7220 C   0  0  0  0  0  0  0  0  0  0  0  0
   -6.3570   18.2160  -33.4080 C   0  0  0  0  0  0  0  0  0  0  0  0
   -6.1370   18.5990  -34.7660 N   0  0  0  0  0  0  0  0  0  0  0  0
   -5.4860   17.5390  -32.8010 O   0  0  0  0  0  0  0  0  0  0  0  0
   -6.4130   20.6560  -32.0220 C   0  0  0  0  0  0  0  0  0  0  0  0
   -6.4560   21.9880  -31.6010 C   0  0  0  0  0  0  0  0  0  0  0  0
   -5.4240   22.7850  -31.2590 N   0  0  0  0  0  0  0  0  0  0  0  0
   -4.0370   22.4240  -31.2830 C   0  0  0  0  0  0  0  0  0  0  0  0
   -3.3450   22.6660  -32.3090 O   0  0  0  0  0  0  0  0  0  0  0  0
   -3.4300   21.6800  -30.1350 C   0  0  0  0  0  0  0  0  0  0  0  0
   -2.3400   22.5010  -29.5260 C   0  0  0  0  0  0  0  0  0  0  0  0
   -1.1350   22.1570  -29.6760 O   0  0  0  0  0  0  0  0  0  0  0  0
   -2.6690   23.6730  -28.8370 O   0  0  0  0  0  0  0  0  0  0  0  0
   -1.8460   24.2440  -27.8210 C   0  0  0  0  0  0  0  0  0  0  0  0
   -0.8650   25.2040  -28.4140 C   0  0  0  0  0  0  0  0  0  0  0  0
   -1.2390   26.0380  -29.2800 O   0  0  0  0  0  0  0  0  0  0  0  0
    0.4600   25.1910  -27.9970 O   0  0  0  0  0  0  0  0  0  0  0  0
   -3.0830   25.3070  -30.1730 H   0  0  0  0  0  0  0  0  0  0  0  0
   -8.0784   24.7221  -30.7595 H   0  0  0  0  0  0  0  0  0  0  0  0
   -9.8117   22.5975  -31.6033 H   0  0  0  0  0  0  0  0  0  0  0  0
   -9.8073   20.2047  -32.3859 H   0  0  0  0  0  0  0  0  0  0  0  0
   -7.7613   17.9324  -31.8277 H   0  0  0  0  0  0  0  0  0  0  0  0
   -8.4814   18.3860  -33.4132 H   0  0  0  0  0  0  0  0  0  0  0  0
   -5.2540   18.3270  -35.2520 H   0  0  0  0  0  0  0  0  0  0  0  0
   -6.8470   19.1660  -35.2810 H   0  0  0  0  0  0  0  0  0  0  0  0
   -5.4544   20.1259  -32.1224 H   0  0  0  0  0  0  0  0  0  0  0  0
   -4.2033   21.4794  -29.3788 H   0  0  0  0  0  0  0  0  0  0  0  0
   -3.0125   20.7285  -30.4960 H   0  0  0  0  0  0  0  0  0  0  0  0
   -2.4815   24.7771  -27.0985 H   0  0  0  0  0  0  0  0  0  0  0  0
   -1.2922   23.4370  -27.3189 H   0  0  0  0  0  0  0  0  0  0  0  0
  1  2  1  0
  2  3  2  0
  2  4  1  0
  4  5  2  0
  5  6  1  0
  6  7  2  0
  7  8  1  0
  8  9  2  0
  9 10  1  0
 10 11  1  0
 11 12  1  0
 11 13  2  0
  9 14  1  0
 14 15  2  0
 15 16  1  0
 16 17  1  0
 17 18  2  0
 17 19  1  0
 19 20  1  0
 20 21  2  0
 20 22  1  0
 22 23  1  0
 23 24  1  0
 24 25  2  0
 24 26  1  0
 16  4  1  0
 15  6  1  0
  1 27  1  0
  5 28  1  0
  7 29  1  0
  8 30  1  0
 10 31  1  0
 10 32  1  0
 12 33  1  0
 12 34  1  0
 14 35  1  0
 19 36  1  0
 19 37  1  0
 23 38  1  0
 23 39  1  0
M  CHG  2   1  -1  26  -1
M  END
>  <UniqueID>  (79) 
79

>  <SMILES>  (79) 
[NH-]C(=O)c1cc2ccc(CC(N)=O)cc2n1C(=O)CC(=O)OCC(=O)[O-]

>  <Energy>  (79) 
69.68667694420192

>  <Genealogy>  (79) 
[NH-]C(=O)c1cc2ccc(CC(N)=O)cc2n1C(=O)CC(=O)OCC(=O)[O-] (protonated)
[NH-]C(=O)c1cc2ccc(CC(N)=O)cc2n1C(=O)CC(=O)OCC(=O)[O-] (3D coordinates assigned)
[NH-]C(=O)c1cc2ccc(CC(N)=O)cc2n1C(=O)CC(=O)OCC(=O)[O-] (optimized conformer: 69.68667694420192 kcal/mol)

>  <smiles>  (79) 
NC(=O)Cc1ccc2cc(C(N)=O)n(C(=O)CC(=O)OCC(=O)O)c2c1

>  <score_type>  (79) 
oracle

>  <origin>  (79) 
adg

>  <m_score__min__energy>  (79) 
-12.779999999999999

>  <m_primary>  (79) 
energy

$$$$
80:0
     RDKit          3D

 39 40  0  0  0  0  0  0  0  0999 V2000
   -6.2850   25.6640  -29.3300 C   0  0  0  0  0  0  0  0  0  0  0  0
   -6.5260   24.4270  -30.1890 C   0  0  0  0  0  0  0  0  0  0  0  0
   -5.3550   23.5550  -30.1760 N   0  0  0  0  0  0  0  0  0  0  0  0
   -4.0270   24.0400  -30.4220 C   0  0  0  0  0  0  0  0  0  0  0  0
   -3.8220   25.2740  -30.5790 O   0  0  0  0  0  0  0  0  0  0  0  0
   -2.9190   23.1280  -30.4460 N   0  0  0  0  0  0  0  0  0  0  0  0
   -1.7200   23.2500  -29.8090 C   0  0  0  0  0  0  0  0  0  0  0  0
   -1.3640   24.2980  -28.8300 C   0  0  0  0  0  0  0  0  0  0  0  0
   -1.6480   25.6660  -29.1180 N   0  0  0  0  0  0  0  0  0  0  0  0
   -0.7810   24.0020  -27.7530 O   0  0  0  0  0  0  0  0  0  0  0  0
   -0.8820   22.1870  -30.1390 C   0  0  0  0  0  0  0  0  0  0  0  0
   -1.6130   21.3990  -30.9980 C   0  0  0  0  0  0  0  0  0  0  0  0
   -1.2700   20.2160  -31.6420 C   0  0  0  0  0  0  0  0  0  0  0  0
   -2.2200   19.6250  -32.4930 C   0  0  0  0  0  0  0  0  0  0  0  0
   -3.4940   20.2280  -32.6900 C   0  0  0  0  0  0  0  0  0  0  0  0
   -4.4860   19.6520  -33.5660 N   0  0  0  0  0  0  0  0  0  0  0  0
   -5.6900   18.9420  -33.1150 C   0  0  1  0  0  0  0  0  0  0  0  0
   -6.8280   19.9340  -32.8600 C   0  0  0  0  0  0  0  0  0  0  0  0
   -6.1080   17.9220  -34.1380 C   0  0  0  0  0  0  0  0  0  0  0  0
   -6.9550   17.0350  -33.8490 O   0  0  0  0  0  0  0  0  0  0  0  0
   -5.5660   17.9580  -35.4170 O   0  0  0  0  0  0  0  0  0  0  0  0
   -3.7990   21.4320  -32.0170 C   0  0  0  0  0  0  0  0  0  0  0  0
   -2.8390   21.9880  -31.1650 C   0  0  0  0  0  0  0  0  0  0  0  0
   -6.3388   25.3881  -28.2665 H   0  0  0  0  0  0  0  0  0  0  0  0
   -5.2896   26.0763  -29.5520 H   0  0  0  0  0  0  0  0  0  0  0  0
   -7.0528   26.4198  -29.5520 H   0  0  0  0  0  0  0  0  0  0  0  0
   -7.3916   23.8754  -29.7934 H   0  0  0  0  0  0  0  0  0  0  0  0
   -6.7183   24.7464  -31.2239 H   0  0  0  0  0  0  0  0  0  0  0  0
   -5.4810   22.5540  -29.9060 H   0  0  0  0  0  0  0  0  0  0  0  0
   -2.6000   26.0610  -28.9560 H   0  0  0  0  0  0  0  0  0  0  0  0
    0.1459   22.0143  -29.7874 H   0  0  0  0  0  0  0  0  0  0  0  0
   -0.2828   19.7552  -31.4900 H   0  0  0  0  0  0  0  0  0  0  0  0
   -1.9761   18.6864  -33.0122 H   0  0  0  0  0  0  0  0  0  0  0  0
   -4.3560   19.7920  -34.5950 H   0  0  0  0  0  0  0  0  0  0  0  0
   -5.4589   18.4222  -32.1735 H   0  0  0  0  0  0  0  0  0  0  0  0
   -6.9703   20.0581  -31.7763 H   0  0  0  0  0  0  0  0  0  0  0  0
   -6.5755   20.9053  -33.3102 H   0  0  0  0  0  0  0  0  0  0  0  0
   -7.7558   19.5513  -33.3102 H   0  0  0  0  0  0  0  0  0  0  0  0
   -4.7729   21.9229  -32.1602 H   0  0  0  0  0  0  0  0  0  0  0  0
  1  2  1  0
  2  3  1  0
  3  4  1  0
  4  5  2  0
  4  6  1  0
  6  7  1  0
  7  8  1  0
  8  9  1  0
  8 10  2  0
  7 11  2  0
 11 12  1  0
 12 13  2  0
 13 14  1  0
 14 15  2  0
 15 16  1  0
 16 17  1  0
 17 18  1  0
 17 19  1  0
 19 20  2  0
 19 21  1  0
 15 22  1  0
 22 23  2  0
 23  6  1  0
 23 12  1  0
  1 24  1  0
  1 25  1  0
  1 26  1  0
  2 27  1  0
  2 28  1  0
  3 29  1  0
  9 30  1  0
 11 31  1  0
 13 32  1  0
 14 33  1  0
 16 34  1  0
 17 35  1  1
 18 36  1  0
 18 37  1  0
 18 38  1  0
 22 39  1  0
M  CHG  2   9  -1  21  -1
M  END
>  <UniqueID>  (80) 
80

>  <SMILES>  (80) 
CCNC(=O)n1c(C([NH-])=O)cc2ccc(N[C@@H](C)C(=O)[O-])cc21

>  <Energy>  (80) 
71.5604277303897

>  <Genealogy>  (80) 
CCNC(=O)n1c(C([NH-])=O)cc2ccc(NC(C)C(=O)[O-])cc21 (protonated)
CCNC(=O)n1c(C([NH-])=O)cc2ccc(N[C@@H](C)C(=O)[O-])cc21 (chirality)
CCNC(=O)n1c(C([NH-])=O)cc2ccc(N[C@@H](C)C(=O)[O-])cc21 (3D coordinates assigned)
CCNC(=O)n1c(C([NH-])=O)cc2ccc(N[C@@H](C)C(=O)[O-])cc21 (optimized conformer: 71.5604277303897 kcal/mol)

>  <smiles>  (80) 
CCNC(=O)n1c(C(N)=O)cc2ccc(NC(C)C(=O)O)cc21

>  <score_type>  (80) 
oracle

>  <origin>  (80) 
adg

>  <m_score__min__energy>  (80) 
-10.27

>  <m_primary>  (80) 
energy

$$$$
81:0
     RDKit          3D

 38 39  0  0  0  0  0  0  0  0999 V2000
   -5.0040   18.1440  -34.8410 C   0  0  0  0  0  0  0  0  0  0  0  0
   -6.2160   18.6090  -34.1790 N   0  0  0  0  0  0  0  0  0  0  0  0
   -6.5400   18.2180  -32.8390 C   0  0  0  0  0  0  0  0  0  0  0  0
   -5.7760   17.4450  -32.1990 O   0  0  0  0  0  0  0  0  0  0  0  0
   -7.8150   18.6860  -32.2060 C   0  0  0  0  0  0  0  0  0  0  0  0
   -7.7360   20.1600  -31.9220 C   0  0  0  0  0  0  0  0  0  0  0  0
   -8.9130   20.9470  -31.8900 C   0  0  0  0  0  0  0  0  0  0  0  0
   -8.8490   22.3210  -31.6020 C   0  0  0  0  0  0  0  0  0  0  0  0
   -7.5990   22.8730  -31.3330 C   0  0  0  0  0  0  0  0  0  0  0  0
   -7.2480   24.1710  -31.0430 C   0  0  0  0  0  0  0  0  0  0  0  0
   -5.8650   24.1510  -30.8700 C   0  0  0  0  0  0  0  0  0  0  0  0
   -5.0720   25.3380  -30.4850 C   0  0  0  0  0  0  0  0  0  0  0  0
   -3.6480   25.2980  -30.4690 N   0  0  0  0  0  0  0  0  0  0  0  0
   -5.6610   26.3950  -30.1360 O   0  0  0  0  0  0  0  0  0  0  0  0
   -5.3820   22.8890  -31.0460 N   0  0  0  0  0  0  0  0  0  0  0  0
   -4.0100   22.4650  -31.0130 C   0  0  0  0  0  0  0  0  0  0  0  0
   -3.2590   22.7140  -31.9940 O   0  0  0  0  0  0  0  0  0  0  0  0
   -3.4430   21.8070  -29.7870 C   0  0  0  0  0  0  0  0  0  0  0  0
   -2.6250   22.7910  -28.9450 C   0  0  0  0  0  0  0  0  0  0  0  0
   -1.8020   23.5680  -29.7720 O   0  0  0  0  0  0  0  0  0  0  0  0
   -6.4550   22.1190  -31.3330 C   0  0  0  0  0  0  0  0  0  0  0  0
   -6.4870   20.7550  -31.6370 C   0  0  0  0  0  0  0  0  0  0  0  0
   -4.2591   17.8582  -34.0837 H   0  0  0  0  0  0  0  0  0  0  0  0
   -5.2407   17.2728  -35.4695 H   0  0  0  0  0  0  0  0  0  0  0  0
   -4.5973   18.9499  -35.4695 H   0  0  0  0  0  0  0  0  0  0  0  0
   -6.8660   19.2380  -34.7010 H   0  0  0  0  0  0  0  0  0  0  0  0
   -8.6543   18.4911  -32.8897 H   0  0  0  0  0  0  0  0  0  0  0  0
   -7.9701   18.1437  -31.2616 H   0  0  0  0  0  0  0  0  0  0  0  0
   -9.8872   20.4780  -32.0926 H   0  0  0  0  0  0  0  0  0  0  0  0
   -9.7576   22.9410  -31.5894 H   0  0  0  0  0  0  0  0  0  0  0  0
   -7.9170   25.0406  -30.9643 H   0  0  0  0  0  0  0  0  0  0  0  0
   -3.1190   24.6980  -31.1410 H   0  0  0  0  0  0  0  0  0  0  0  0
   -4.2706   21.4170  -29.1763 H   0  0  0  0  0  0  0  0  0  0  0  0
   -2.7760   20.9943  -30.1105 H   0  0  0  0  0  0  0  0  0  0  0  0
   -3.3088   23.4503  -28.3901 H   0  0  0  0  0  0  0  0  0  0  0  0
   -1.9959   22.2253  -28.2420 H   0  0  0  0  0  0  0  0  0  0  0  0
   -2.3960   23.9800  -30.4550 H   0  0  0  0  0  0  0  0  0  0  0  0
   -5.5622   20.1596  -31.6539 H   0  0  0  0  0  0  0  0  0  0  0  0
  1  2  1  0
  2  3  1  0
  3  4  2  0
  3  5  1  0
  5  6  1  0
  6  7  2  0
  7  8  1  0
  8  9  2  0
  9 10  1  0
 10 11  2  0
 11 12  1  0
 12 13  1  0
 12 14  2  0
 11 15  1  0
 15 16  1  0
 16 17  2  0
 16 18  1  0
 18 19  1  0
 19 20  1  0
 15 21  1  0
 21 22  2  0
 22  6  1  0
 21  9  1  0
  1 23  1  0
  1 24  1  0
  1 25  1  0
  2 26  1  0
  5 27  1  0
  5 28  1  0
  7 29  1  0
  8 30  1  0
 10 31  1  0
 13 32  1  0
 18 33  1  0
 18 34  1  0
 19 35  1  0
 19 36  1  0
 20 37  1  0
 22 38  1  0
M  CHG  1  13  -1
M  END
>  <UniqueID>  (81) 
81

>  <SMILES>  (81) 
CNC(=O)Cc1ccc2cc(C([NH-])=O)n(C(=O)CCO)c2c1

>  <Energy>  (81) 
69.61563209484683

>  <Genealogy>  (81) 
CNC(=O)Cc1ccc2cc(C([NH-])=O)n(C(=O)CCO)c2c1 (protonated)
CNC(=O)Cc1ccc2cc(C([NH-])=O)n(C(=O)CCO)c2c1 (3D coordinates assigned)
CNC(=O)Cc1ccc2cc(C([NH-])=O)n(C(=O)CCO)c2c1 (optimized conformer: 69.61563209484683 kcal/mol)

>  <smiles>  (81) 
CNC(=O)Cc1ccc2cc(C(N)=O)n(C(=O)CCO)c2c1

>  <score_type>  (81) 
oracle

>  <origin>  (81) 
adg

>  <m_score__min__energy>  (81) 
-9.4299999999999997

>  <m_primary>  (81) 
energy

$$$$
82:0
     RDKit          3D

 48 49  0  0  0  0  0  0  0  0999 V2000
   -4.9760   17.7990  -35.2140 C   0  0  0  0  0  0  0  0  0  0  0  0
   -4.8260   18.4220  -33.8900 N   0  0  0  0  0  0  0  0  0  0  0  0
   -3.5590   19.1750  -33.8380 C   0  0  0  0  0  0  0  0  0  0  0  0
   -4.8790   17.3850  -32.8340 C   0  0  0  0  0  0  0  0  0  0  0  0
   -6.1390   17.5220  -31.9640 C   0  0  0  0  0  0  0  0  0  0  0  0
   -7.2990   18.1660  -32.7310 C   0  0  0  0  0  0  0  0  0  0  0  0
   -7.4860   19.5970  -32.3080 C   0  0  0  0  0  0  0  0  0  0  0  0
   -8.7840   20.1620  -32.2700 C   0  0  0  0  0  0  0  0  0  0  0  0
   -8.9720   21.4960  -31.8720 C   0  0  0  0  0  0  0  0  0  0  0  0
   -7.8480   22.2400  -31.5270 C   0  0  0  0  0  0  0  0  0  0  0  0
   -7.7420   23.5370  -31.0780 C   0  0  0  0  0  0  0  0  0  0  0  0
   -6.3780   23.7500  -30.8660 C   0  0  0  0  0  0  0  0  0  0  0  0
   -5.7770   25.0390  -30.4410 C   0  0  0  0  0  0  0  0  0  0  0  0
   -6.1650   25.6680  -29.2210 N   0  0  0  0  0  0  0  0  0  0  0  0
   -4.9180   25.6100  -31.1640 O   0  0  0  0  0  0  0  0  0  0  0  0
   -5.6800   22.6200  -31.1700 N   0  0  0  0  0  0  0  0  0  0  0  0
   -4.2720   22.3930  -31.0550 C   0  0  0  0  0  0  0  0  0  0  0  0
   -3.4950   22.8130  -31.9500 O   0  0  0  0  0  0  0  0  0  0  0  0
   -3.6090   21.4560  -29.6790 S   0  0  0  0  0  0  0  0  0  0  0  0
   -3.5930   22.8620  -28.5120 C   0  0  0  0  0  0  0  0  0  0  0  0
   -2.4460   23.8250  -28.8390 C   0  0  0  0  0  0  0  0  0  0  0  0
   -2.8960   24.9070  -29.7080 N   0  0  0  0  0  0  0  0  0  0  0  0
   -6.5880   21.7130  -31.5820 C   0  0  0  0  0  0  0  0  0  0  0  0
   -6.3670   20.3890  -31.9730 C   0  0  0  0  0  0  0  0  0  0  0  0
   -5.2319   16.7361  -35.0922 H   0  0  0  0  0  0  0  0  0  0  0  0
   -5.7773   18.3077  -35.7699 H   0  0  0  0  0  0  0  0  0  0  0  0
   -4.0309   17.8872  -35.7699 H   0  0  0  0  0  0  0  0  0  0  0  0
   -3.2754   19.3435  -32.7886 H   0  0  0  0  0  0  0  0  0  0  0  0
   -2.7694   18.5995  -34.3433 H   0  0  0  0  0  0  0  0  0  0  0  0
   -3.6871   20.1436  -34.3433 H   0  0  0  0  0  0  0  0  0  0  0  0
   -4.8800   16.3927  -33.3088 H   0  0  0  0  0  0  0  0  0  0  0  0
   -3.9996   17.5113  -32.1854 H   0  0  0  0  0  0  0  0  0  0  0  0
   -6.4482   16.5217  -31.6267 H   0  0  0  0  0  0  0  0  0  0  0  0
   -5.8938   18.1714  -31.1107 H   0  0  0  0  0  0  0  0  0  0  0  0
   -7.0816   18.1335  -33.8088 H   0  0  0  0  0  0  0  0  0  0  0  0
   -8.2214   17.6086  -32.5109 H   0  0  0  0  0  0  0  0  0  0  0  0
   -9.6530   19.5506  -32.5548 H   0  0  0  0  0  0  0  0  0  0  0  0
   -9.9780   21.9393  -31.8342 H   0  0  0  0  0  0  0  0  0  0  0  0
   -8.5600   24.2551  -30.9194 H   0  0  0  0  0  0  0  0  0  0  0  0
   -5.7170   26.5660  -28.9320 H   0  0  0  0  0  0  0  0  0  0  0  0
   -6.9270   25.2880  -28.6210 H   0  0  0  0  0  0  0  0  0  0  0  0
   -4.5489   23.4015  -28.5836 H   0  0  0  0  0  0  0  0  0  0  0  0
   -3.4491   22.4739  -27.4929 H   0  0  0  0  0  0  0  0  0  0  0  0
   -2.0599   24.2541  -27.9026 H   0  0  0  0  0  0  0  0  0  0  0  0
   -1.6584   23.2631  -29.3624 H   0  0  0  0  0  0  0  0  0  0  0  0
   -3.7870   25.2980  -29.3240 H   0  0  0  0  0  0  0  0  0  0  0  0
   -3.1060   24.5180  -30.6550 H   0  0  0  0  0  0  0  0  0  0  0  0
   -5.3485   19.9758  -32.0183 H   0  0  0  0  0  0  0  0  0  0  0  0
  1  2  1  0
  2  3  1  0
  2  4  1  0
  4  5  1  0
  5  6  1  0
  6  7  1  0
  7  8  2  0
  8  9  1  0
  9 10  2  0
 10 11  1  0
 11 12  2  0
 12 13  1  0
 13 14  1  0
 13 15  2  0
 12 16  1  0
 16 17  1  0
 17 18  2  0
 17 19  1  0
 19 20  1  0
 20 21  1  0
 21 22  1  0
 16 23  1  0
 23 24  2  0
 24  7  1  0
 23 10  1  0
  1 25  1  0
  1 26  1  0
  1 27  1  0
  3 28  1  0
  3 29  1  0
  3 30  1  0
  4 31  1  0
  4 32  1  0
  5 33  1  0
  5 34  1  0
  6 35  1  0
  6 36  1  0
  8 37  1  0
  9 38  1  0
 11 39  1  0
 14 40  1  0
 14 41  1  0
 20 42  1  0
 20 43  1  0
 21 44  1  0
 21 45  1  0
 22 46  1  0
 22 47  1  0
 24 48  1  0
M  END
>  <UniqueID>  (82) 
82

>  <SMILES>  (82) 
CN(C)CCCc1ccc2cc(C(N)=O)n(C(=O)SCCN)c2c1

>  <Energy>  (82) 
76.81790176891887

>  <Genealogy>  (82) 
CN(C)CCCc1ccc2cc(C(N)=O)n(C(=O)SCCN)c2c1 (3D coordinates assigned)
CN(C)CCCc1ccc2cc(C(N)=O)n(C(=O)SCCN)c2c1 (optimized conformer: 76.81790176891887 kcal/mol)

>  <smiles>  (82) 
CN(C)CCCc1ccc2cc(C(N)=O)n(C(=O)SCCN)c2c1

>  <score_type>  (82) 
oracle

>  <origin>  (82) 
adg

>  <m_score__min__energy>  (82) 
-8.7200000000000006

>  <m_primary>  (82) 
energy

$$$$
83:0
     RDKit          3D

 35 36  0  0  0  0  0  0  0  0999 V2000
   -4.5950   18.1940  -34.2470 C   0  0  0  0  0  0  0  0  0  0  0  0
   -6.1030   18.3330  -34.4360 C   0  0  0  0  0  0  0  0  0  0  0  0
   -6.7740   18.5710  -33.1480 N   0  0  0  0  0  0  0  0  0  0  0  0
   -7.2490   17.4100  -32.3860 C   0  0  0  0  0  0  0  0  0  0  0  0
   -6.9340   19.9120  -32.6130 C   0  0  0  0  0  0  0  0  0  0  0  0
   -8.2330   20.4630  -32.4250 C   0  0  0  0  0  0  0  0  0  0  0  0
   -8.4050   21.7540  -31.8970 C   0  0  0  0  0  0  0  0  0  0  0  0
   -7.2680   22.4800  -31.5670 C   0  0  0  0  0  0  0  0  0  0  0  0
   -7.1470   23.7390  -31.0240 C   0  0  0  0  0  0  0  0  0  0  0  0
   -5.7750   23.9560  -30.8980 C   0  0  0  0  0  0  0  0  0  0  0  0
   -5.1880   25.2280  -30.4300 C   0  0  0  0  0  0  0  0  0  0  0  0
   -3.8840   25.6300  -30.8430 N   0  0  0  0  0  0  0  0  0  0  0  0
   -5.8610   25.9910  -29.6860 O   0  0  0  0  0  0  0  0  0  0  0  0
   -5.0800   22.8680  -31.3370 N   0  0  0  0  0  0  0  0  0  0  0  0
   -3.6620   22.6520  -31.3090 C   0  0  0  0  0  0  0  0  0  0  0  0
   -2.9760   21.9220  -32.4200 C   0  0  0  0  0  0  0  0  0  0  0  0
   -2.9720   23.1450  -30.3770 O   0  0  0  0  0  0  0  0  0  0  0  0
   -6.0090   21.9780  -31.7480 C   0  0  0  0  0  0  0  0  0  0  0  0
   -5.8040   20.6930  -32.2590 C   0  0  0  0  0  0  0  0  0  0  0  0
   -4.3606   18.1724  -33.1725 H   0  0  0  0  0  0  0  0  0  0  0  0
   -4.2512   17.2604  -34.7161 H   0  0  0  0  0  0  0  0  0  0  0  0
   -4.0863   19.0491  -34.7161 H   0  0  0  0  0  0  0  0  0  0  0  0
   -6.3051   19.1792  -35.1091 H   0  0  0  0  0  0  0  0  0  0  0  0
   -6.4908   17.3981  -34.8668 H   0  0  0  0  0  0  0  0  0  0  0  0
   -7.1638   17.6183  -31.3093 H   0  0  0  0  0  0  0  0  0  0  0  0
   -8.3009   17.2109  -32.6388 H   0  0  0  0  0  0  0  0  0  0  0  0
   -6.6383   16.5307  -32.6388 H   0  0  0  0  0  0  0  0  0  0  0  0
   -9.1172   19.8682  -32.6976 H   0  0  0  0  0  0  0  0  0  0  0  0
   -9.4098   22.1767  -31.7496 H   0  0  0  0  0  0  0  0  0  0  0  0
   -7.9594   24.4274  -30.7482 H   0  0  0  0  0  0  0  0  0  0  0  0
   -3.0330   25.2770  -30.3520 H   0  0  0  0  0  0  0  0  0  0  0  0
   -2.2804   21.1818  -31.9978 H   0  0  0  0  0  0  0  0  0  0  0  0
   -3.7261   21.4087  -33.0396 H   0  0  0  0  0  0  0  0  0  0  0  0
   -2.4171   22.6388  -33.0396 H   0  0  0  0  0  0  0  0  0  0  0  0
   -4.7861   20.2952  -32.3841 H   0  0  0  0  0  0  0  0  0  0  0  0
  1  2  1  0
  2  3  1  0
  3  4  1  0
  3  5  1  0
  5  6  2  0
  6  7  1  0
  7  8  2  0
  8  9  1  0
  9 10  2  0
 10 11  1  0
 11 12  1  0
 11 13  2  0
 10 14  1  0
 14 15  1  0
 15 16  1  0
 15 17  2  0
 14 18  1  0
 18 19  2  0
 19  5  1  0
 18  8  1  0
  1 20  1  0
  1 21  1  0
  1 22  1  0
  2 23  1  0
  2 24  1  0
  4 25  1  0
  4 26  1  0
  4 27  1  0
  6 28  1  0
  7 29  1  0
  9 30  1  0
 12 31  1  0
 16 32  1  0
 16 33  1  0
 16 34  1  0
 19 35  1  0
M  CHG  1  12  -1
M  END
>  <UniqueID>  (83) 
83

>  <SMILES>  (83) 
CCN(C)c1ccc2cc(C([NH-])=O)n(C(C)=O)c2c1

>  <Energy>  (83) 
73.75189606164118

>  <Genealogy>  (83) 
CCN(C)c1ccc2cc(C([NH-])=O)n(C(C)=O)c2c1 (protonated)
CCN(C)c1ccc2cc(C([NH-])=O)n(C(C)=O)c2c1 (3D coordinates assigned)
CCN(C)c1ccc2cc(C([NH-])=O)n(C(C)=O)c2c1 (optimized conformer: 73.75189606164118 kcal/mol)

>  <smiles>  (83) 
CCN(C)c1ccc2cc(C(N)=O)n(C(C)=O)c2c1

>  <score_type>  (83) 
oracle

>  <origin>  (83) 
adg

>  <m_score__min__energy>  (83) 
-9.8499999999999996

>  <m_primary>  (83) 
energy

$$$$
84:0
     RDKit          3D

 28 29  0  0  0  0  0  0  0  0999 V2000
   -6.5220   19.1410  -31.6240 C   0  0  0  0  0  0  0  0  0  0  0  0
   -5.4210   19.4430  -32.5370 N   0  0  0  0  0  0  0  0  0  0  0  0
   -5.6200   18.9600  -34.2060 Cl  0  0  0  0  0  0  0  0  0  0  0  0
   -4.2150   20.1140  -32.0920 C   0  0  0  0  0  0  0  0  0  0  0  0
   -2.9300   19.6510  -32.4970 C   0  0  0  0  0  0  0  0  0  0  0  0
   -1.7590   20.3030  -32.0770 C   0  0  0  0  0  0  0  0  0  0  0  0
   -1.8880   21.4080  -31.2470 C   0  0  0  0  0  0  0  0  0  0  0  0
   -0.9260   22.2400  -30.7180 C   0  0  0  0  0  0  0  0  0  0  0  0
   -1.6260   23.1930  -29.9820 C   0  0  0  0  0  0  0  0  0  0  0  0
   -0.9790   24.2710  -29.2050 C   0  0  0  0  0  0  0  0  0  0  0  0
   -1.6020   25.5490  -29.1060 N   0  0  0  0  0  0  0  0  0  0  0  0
    0.1320   24.0810  -28.6410 O   0  0  0  0  0  0  0  0  0  0  0  0
   -2.9660   22.9570  -30.0500 N   0  0  0  0  0  0  0  0  0  0  0  0
   -4.0230   23.7400  -29.4730 C   0  0  0  0  0  0  0  0  0  0  0  0
   -4.4640   23.4450  -28.3300 O   0  0  0  0  0  0  0  0  0  0  0  0
   -4.6040   24.8770  -30.2010 C   0  0  0  0  0  0  0  0  0  0  0  0
   -3.8650   25.6640  -30.8470 O   0  0  0  0  0  0  0  0  0  0  0  0
   -5.9790   25.0780  -30.1930 O   0  0  0  0  0  0  0  0  0  0  0  0
   -3.1100   21.8650  -30.8310 C   0  0  0  0  0  0  0  0  0  0  0  0
   -4.2960   21.2500  -31.2480 C   0  0  0  0  0  0  0  0  0  0  0  0
   -6.1735   19.2366  -30.5851 H   0  0  0  0  0  0  0  0  0  0  0  0
   -7.3481   19.8457  -31.8000 H   0  0  0  0  0  0  0  0  0  0  0  0
   -6.8729   18.1134  -31.8000 H   0  0  0  0  0  0  0  0  0  0  0  0
   -2.8537   18.7685  -33.1492 H   0  0  0  0  0  0  0  0  0  0  0  0
   -0.7681   19.9481  -32.3967 H   0  0  0  0  0  0  0  0  0  0  0  0
    0.1637   22.1672  -30.8490 H   0  0  0  0  0  0  0  0  0  0  0  0
   -2.6220   25.6660  -29.2980 H   0  0  0  0  0  0  0  0  0  0  0  0
   -5.2728   21.6409  -30.9268 H   0  0  0  0  0  0  0  0  0  0  0  0
  1  2  1  0
  2  3  1  0
  2  4  1  0
  4  5  2  0
  5  6  1  0
  6  7  2  0
  7  8  1  0
  8  9  2  0
  9 10  1  0
 10 11  1  0
 10 12  2  0
  9 13  1  0
 13 14  1  0
 14 15  2  0
 14 16  1  0
 16 17  2  0
 16 18  1  0
 13 19  1  0
 19 20  2  0
 20  4  1  0
 19  7  1  0
  1 21  1  0
  1 22  1  0
  1 23  1  0
  5 24  1  0
  6 25  1  0
  8 26  1  0
 11 27  1  0
 20 28  1  0
M  CHG  2  11  -1  18  -1
M  END
>  <UniqueID>  (84) 
84

>  <SMILES>  (84) 
CN(Cl)c1ccc2cc(C([NH-])=O)n(C(=O)C(=O)[O-])c2c1

>  <Energy>  (84) 
68.83431640763824

>  <Genealogy>  (84) 
CN(Cl)c1ccc2cc(C([NH-])=O)n(C(=O)C(=O)[O-])c2c1 (protonated)
CN(Cl)c1ccc2cc(C([NH-])=O)n(C(=O)C(=O)[O-])c2c1 (3D coordinates assigned)
CN(Cl)c1ccc2cc(C([NH-])=O)n(C(=O)C(=O)[O-])c2c1 (optimized conformer: 68.83431640763824 kcal/mol)

>  <smiles>  (84) 
CN(Cl)c1ccc2cc(C(N)=O)n(C(=O)C(=O)O)c2c1

>  <score_type>  (84) 
oracle

>  <origin>  (84) 
adg

>  <m_score__min__energy>  (84) 
-10.49

>  <m_primary>  (84) 
energy

$$$$
85:0
     RDKit          3D

 48 49  0  0  0  0  0  0  0  0999 V2000
   -6.1080   17.6040  -31.5830 C   0  0  0  0  0  0  0  0  0  0  0  0
   -5.9420   17.4490  -33.1130 C   0  0  0  0  0  0  0  0  0  0  0  0
   -6.8580   16.3110  -33.5990 C   0  0  0  0  0  0  0  0  0  0  0  0
   -4.4720   17.0810  -33.4440 C   0  0  0  0  0  0  0  0  0  0  0  0
   -4.1680   17.1970  -34.9130 C   0  0  0  0  0  0  0  0  0  0  0  0
   -4.9970   17.6560  -35.6830 O   0  0  0  0  0  0  0  0  0  0  0  0
   -6.3080   18.6860  -33.8260 N   0  0  0  0  0  0  0  0  0  0  0  0
   -6.5410   19.9320  -33.1550 C   0  0  0  0  0  0  0  0  0  0  0  0
   -7.8610   20.4120  -32.9810 C   0  0  0  0  0  0  0  0  0  0  0  0
   -8.0990   21.6180  -32.2990 C   0  0  0  0  0  0  0  0  0  0  0  0
   -7.0000   22.3100  -31.7980 C   0  0  0  0  0  0  0  0  0  0  0  0
   -6.9400   23.4840  -31.0790 C   0  0  0  0  0  0  0  0  0  0  0  0
   -5.5850   23.6960  -30.8290 C   0  0  0  0  0  0  0  0  0  0  0  0
   -5.0520   24.8900  -30.1410 C   0  0  0  0  0  0  0  0  0  0  0  0
   -3.9370   25.5880  -30.6900 N   0  0  0  0  0  0  0  0  0  0  0  0
   -5.5580   25.2850  -29.0580 O   0  0  0  0  0  0  0  0  0  0  0  0
   -4.8400   22.6880  -31.3670 N   0  0  0  0  0  0  0  0  0  0  0  0
   -3.4190   22.5010  -31.2900 C   0  0  0  0  0  0  0  0  0  0  0  0
   -2.7480   22.3730  -32.3490 O   0  0  0  0  0  0  0  0  0  0  0  0
   -2.7370   22.3680  -29.9650 C   0  0  0  0  0  0  0  0  0  0  0  0
   -1.9600   23.5230  -29.7350 O   0  0  0  0  0  0  0  0  0  0  0  0
   -1.7710   23.7320  -28.3460 C   0  0  0  0  0  0  0  0  0  0  0  0
   -1.2520   25.1500  -28.1090 C   0  0  0  0  0  0  0  0  0  0  0  0
   -1.2060   25.8660  -29.3140 O   0  0  0  0  0  0  0  0  0  0  0  0
   -5.7180   21.8530  -31.9580 C   0  0  0  0  0  0  0  0  0  0  0  0
   -5.4520   20.6510  -32.6210 C   0  0  0  0  0  0  0  0  0  0  0  0
   -5.3975   16.9406  -31.0680 H   0  0  0  0  0  0  0  0  0  0  0  0
   -5.9093   18.6473  -31.2964 H   0  0  0  0  0  0  0  0  0  0  0  0
   -7.1352   17.3343  -31.2964 H   0  0  0  0  0  0  0  0  0  0  0  0
   -7.2814   15.7849  -32.7307 H   0  0  0  0  0  0  0  0  0  0  0  0
   -7.6732   16.7307  -34.2068 H   0  0  0  0  0  0  0  0  0  0  0  0
   -6.2739   15.6043  -34.2068 H   0  0  0  0  0  0  0  0  0  0  0  0
   -3.8051   17.7587  -32.8908 H   0  0  0  0  0  0  0  0  0  0  0  0
   -4.3149   16.0325  -33.1510 H   0  0  0  0  0  0  0  0  0  0  0  0
   -3.1915   16.8658  -35.2962 H   0  0  0  0  0  0  0  0  0  0  0  0
   -6.8190   18.5680  -34.7300 H   0  0  0  0  0  0  0  0  0  0  0  0
   -8.7079   19.8365  -33.3828 H   0  0  0  0  0  0  0  0  0  0  0  0
   -9.1209   22.0025  -32.1655 H   0  0  0  0  0  0  0  0  0  0  0  0
   -7.7826   24.1192  -30.7682 H   0  0  0  0  0  0  0  0  0  0  0  0
   -2.9590   25.2900  -30.4740 H   0  0  0  0  0  0  0  0  0  0  0  0
   -3.4904   22.2651  -29.1702 H   0  0  0  0  0  0  0  0  0  0  0  0
   -2.0914   21.4774  -29.9650 H   0  0  0  0  0  0  0  0  0  0  0  0
   -2.7290   23.6000  -27.8218 H   0  0  0  0  0  0  0  0  0  0  0  0
   -1.0395   23.0054  -27.9625 H   0  0  0  0  0  0  0  0  0  0  0  0
   -1.9216   25.6674  -27.4062 H   0  0  0  0  0  0  0  0  0  0  0  0
   -0.2357   25.0909  -27.6923 H   0  0  0  0  0  0  0  0  0  0  0  0
   -2.0550   25.6740  -29.7900 H   0  0  0  0  0  0  0  0  0  0  0  0
   -4.4226   20.2770  -32.7231 H   0  0  0  0  0  0  0  0  0  0  0  0
  1  2  1  0
  2  3  1  0
  2  4  1  0
  4  5  1  0
  5  6  2  0
  2  7  1  0
  7  8  1  0
  8  9  2  0
  9 10  1  0
 10 11  2  0
 11 12  1  0
 12 13  2  0
 13 14  1  0
 14 15  1  0
 14 16  2  0
 13 17  1  0
 17 18  1  0
 18 19  2  0
 18 20  1  0
 20 21  1  0
 21 22  1  0
 22 23  1  0
 23 24  1  0
 17 25  1  0
 25 26  2  0
 26  8  1  0
 25 11  1  0
  1 27  1  0
  1 28  1  0
  1 29  1  0
  3 30  1  0
  3 31  1  0
  3 32  1  0
  4 33  1  0
  4 34  1  0
  5 35  1  0
  7 36  1  0
  9 37  1  0
 10 38  1  0
 12 39  1  0
 15 40  1  0
 20 41  1  0
 20 42  1  0
 22 43  1  0
 22 44  1  0
 23 45  1  0
 23 46  1  0
 24 47  1  0
 26 48  1  0
M  CHG  1  15  -1
M  END
>  <UniqueID>  (85) 
85

>  <SMILES>  (85) 
CC(C)(CC=O)Nc1ccc2cc(C([NH-])=O)n(C(=O)COCCO)c2c1

>  <Energy>  (85) 
89.08254983754487

>  <Genealogy>  (85) 
CC(C)(CC=O)Nc1ccc2cc(C([NH-])=O)n(C(=O)COCCO)c2c1 (protonated)
CC(C)(CC=O)Nc1ccc2cc(C([NH-])=O)n(C(=O)COCCO)c2c1 (3D coordinates assigned)
CC(C)(CC=O)Nc1ccc2cc(C([NH-])=O)n(C(=O)COCCO)c2c1 (optimized conformer: 89.08254983754487 kcal/mol)

>  <smiles>  (85) 
CC(C)(CC=O)Nc1ccc2cc(C(N)=O)n(C(=O)COCCO)c2c1

>  <score_type>  (85) 
oracle

>  <origin>  (85) 
adg

>  <m_score__min__energy>  (85) 
-11.029999999999999

>  <m_primary>  (85) 
energy

$$$$
86:0
     RDKit          3D

 43 46  0  0  0  0  0  0  0  0999 V2000
   -1.5830   25.6280  -29.3060 N   0  0  0  0  0  0  0  0  0  0  0  0
   -0.8980   24.3790  -29.2800 C   0  0  0  0  0  0  0  0  0  0  0  0
    0.2420   24.3120  -28.7480 O   0  0  0  0  0  0  0  0  0  0  0  0
   -1.4810   23.1790  -29.9140 C   0  0  0  0  0  0  0  0  0  0  0  0
   -0.7310   22.0560  -30.2580 C   0  0  0  0  0  0  0  0  0  0  0  0
   -1.6100   21.2120  -30.8970 C   0  0  0  0  0  0  0  0  0  0  0  0
   -1.4000   19.9530  -31.4470 C   0  0  0  0  0  0  0  0  0  0  0  0
   -2.4960   19.2940  -32.0260 C   0  0  0  0  0  0  0  0  0  0  0  0
   -3.7860   19.8930  -32.0360 C   0  0  0  0  0  0  0  0  0  0  0  0
   -4.9200   19.2200  -32.6290 N   0  0  0  0  0  0  0  0  0  0  0  0
   -5.2550   19.1520  -34.0290 C   0  0  1  0  0  0  0  0  0  0  0  0
   -5.4680   17.6130  -34.3360 C   0  0  0  0  0  0  0  0  0  0  0  0
   -5.1130   16.7470  -33.2280 O   0  0  0  0  0  0  0  0  0  0  0  0
   -5.7170   17.0850  -31.9550 C   0  0  0  0  0  0  0  0  0  0  0  0
   -5.9880   18.5960  -31.8700 C   0  0  2  0  0  0  0  0  0  0  0  0
   -6.9840   19.7100  -31.5400 C   0  0  0  0  0  0  0  0  0  0  0  0
   -7.2070   20.6010  -32.8470 C   0  0  1  0  0  0  0  0  0  0  0  0
   -6.7630   21.9720  -32.5810 N   0  0  0  0  0  0  0  0  0  0  0  0
   -6.5470   20.0470  -34.2060 C   0  0  0  0  0  0  0  0  0  0  0  0
   -3.9500   21.1820  -31.4740 C   0  0  0  0  0  0  0  0  0  0  0  0
   -2.8350   21.8220  -30.9220 C   0  0  0  0  0  0  0  0  0  0  0  0
   -2.7750   23.0310  -30.3190 N   0  0  0  0  0  0  0  0  0  0  0  0
   -3.8800   23.9200  -30.0840 C   0  0  0  0  0  0  0  0  0  0  0  0
   -4.8890   23.5260  -29.4440 O   0  0  0  0  0  0  0  0  0  0  0  0
   -3.8540   25.2160  -30.5850 O   0  0  0  0  0  0  0  0  0  0  0  0
   -2.6270   25.6690  -29.3150 H   0  0  0  0  0  0  0  0  0  0  0  0
    0.3370   21.8814  -30.0606 H   0  0  0  0  0  0  0  0  0  0  0  0
   -0.4040   19.4865  -31.4291 H   0  0  0  0  0  0  0  0  0  0  0  0
   -2.3552   18.3011  -32.4780 H   0  0  0  0  0  0  0  0  0  0  0  0
   -4.4971   19.5302  -34.7308 H   0  0  0  0  0  0  0  0  0  0  0  0
   -4.8471   17.3417  -35.2026 H   0  0  0  0  0  0  0  0  0  0  0  0
   -6.5410   17.4673  -34.5293 H   0  0  0  0  0  0  0  0  0  0  0  0
   -5.0352   16.7935  -31.1424 H   0  0  0  0  0  0  0  0  0  0  0  0
   -6.6719   16.5472  -31.8611 H   0  0  0  0  0  0  0  0  0  0  0  0
   -6.5868   18.1947  -31.0391 H   0  0  0  0  0  0  0  0  0  0  0  0
   -6.5838   20.3361  -30.7290 H   0  0  0  0  0  0  0  0  0  0  0  0
   -7.9404   19.2739  -31.2159 H   0  0  0  0  0  0  0  0  0  0  0  0
   -8.2884   20.5585  -33.0438 H   0  0  0  0  0  0  0  0  0  0  0  0
   -6.0690   22.2490  -33.3130 H   0  0  0  0  0  0  0  0  0  0  0  0
   -6.2740   22.0000  -31.6590 H   0  0  0  0  0  0  0  0  0  0  0  0
   -6.2749   20.9135  -34.8266 H   0  0  0  0  0  0  0  0  0  0  0  0
   -7.3045   19.3914  -34.6603 H   0  0  0  0  0  0  0  0  0  0  0  0
   -4.9353   21.6711  -31.4714 H   0  0  0  0  0  0  0  0  0  0  0  0
  1  2  1  0
  2  3  2  0
  2  4  1  0
  4  5  2  0
  5  6  1  0
  6  7  2  0
  7  8  1  0
  8  9  2  0
  9 10  1  0
 10 11  1  0
 11 12  1  0
 12 13  1  0
 13 14  1  0
 14 15  1  0
 15 16  1  0
 16 17  1  0
 17 18  1  0
 17 19  1  0
  9 20  1  0
 20 21  2  0
 21 22  1  0
 22 23  1  0
 23 24  2  0
 23 25  1  0
 22  4  1  0
 21  6  1  0
 15 10  1  0
 19 11  1  0
  1 26  1  0
  5 27  1  0
  7 28  1  0
  8 29  1  0
 11 30  1  6
 12 31  1  0
 12 32  1  0
 14 33  1  0
 14 34  1  0
 15 35  1  1
 16 36  1  0
 16 37  1  0
 17 38  1  6
 18 39  1  0
 18 40  1  0
 19 41  1  0
 19 42  1  0
 20 43  1  0
M  CHG  2   1  -1  25  -1
M  END
>  <UniqueID>  (86) 
86

>  <SMILES>  (86) 
[NH-]C(=O)c1cc2ccc(N3[C@H]4COC[C@H]3CC(N)C4)cc2n1C(=O)[O-]

>  <Energy>  (86) 
208.2779932164268

>  <Genealogy>  (86) 
[NH-]C(=O)c1cc2ccc(N3C4COCC3CC(N)C4)cc2n1C(=O)[O-] (protonated)
[NH-]C(=O)c1cc2ccc(N3[C@H]4COC[C@H]3CC(N)C4)cc2n1C(=O)[O-] (chirality)
[NH-]C(=O)c1cc2ccc(N3[C@H]4COC[C@H]3CC(N)C4)cc2n1C(=O)[O-] (3D coordinates assigned)
[NH-]C(=O)c1cc2ccc(N3[C@H]4COC[C@H]3CC(N)C4)cc2n1C(=O)[O-] (nonaromatic ring conformer: 208.2779932164268 kcal/mol)

>  <smiles>  (86) 
NC(=O)c1cc2ccc(N3C4COCC3CC(N)C4)cc2n1C(=O)O

>  <score_type>  (86) 
oracle

>  <origin>  (86) 
adg

>  <m_score__min__energy>  (86) 
-11.51

>  <m_primary>  (86) 
energy

$$$$
87:0
     RDKit          3D

 38 40  0  0  0  0  0  0  0  0999 V2000
   -3.9590   23.0220  -27.8830 C   0  0  0  0  0  0  0  0  0  0  0  0
   -3.2340   22.2890  -28.8630 O   0  0  0  0  0  0  0  0  0  0  0  0
   -2.7390   22.8790  -30.0300 C   0  0  0  0  0  0  0  0  0  0  0  0
   -1.7280   23.6320  -29.9880 O   0  0  0  0  0  0  0  0  0  0  0  0
   -3.4140   22.6270  -31.3120 C   0  0  0  0  0  0  0  0  0  0  0  0
   -2.7290   22.3090  -32.3200 O   0  0  0  0  0  0  0  0  0  0  0  0
   -4.8410   22.7390  -31.4290 N   0  0  0  0  0  0  0  0  0  0  0  0
   -5.6330   23.7550  -30.9850 C   0  0  0  0  0  0  0  0  0  0  0  0
   -5.1590   25.0130  -30.3720 C   0  0  0  0  0  0  0  0  0  0  0  0
   -3.9500   25.6160  -30.8290 N   0  0  0  0  0  0  0  0  0  0  0  0
   -5.8020   25.5560  -29.4340 O   0  0  0  0  0  0  0  0  0  0  0  0
   -6.9740   23.4690  -31.2330 C   0  0  0  0  0  0  0  0  0  0  0  0
   -6.9770   22.2350  -31.8420 C   0  0  0  0  0  0  0  0  0  0  0  0
   -8.0420   21.4580  -32.2880 C   0  0  0  0  0  0  0  0  0  0  0  0
   -7.7520   20.2040  -32.8530 C   0  0  0  0  0  0  0  0  0  0  0  0
   -6.4120   19.7410  -32.9560 C   0  0  0  0  0  0  0  0  0  0  0  0
   -6.1160   18.4120  -33.5460 C   0  0  0  0  0  0  0  0  0  0  0  0
   -5.0020   18.0440  -34.2910 C   0  0  0  0  0  0  0  0  0  0  0  0
   -5.1150   16.7450  -34.6200 N   0  0  0  0  0  0  0  0  0  0  0  0
   -6.2510   16.2790  -34.1290 N   0  0  0  0  0  0  0  0  0  0  0  0
   -6.6750   14.8870  -34.2140 C   0  0  0  0  0  0  0  0  0  0  0  0
   -6.8830   17.2580  -33.4570 C   0  0  0  0  0  0  0  0  0  0  0  0
   -5.3600   20.5640  -32.4840 C   0  0  0  0  0  0  0  0  0  0  0  0
   -5.6790   21.8150  -31.9460 C   0  0  0  0  0  0  0  0  0  0  0  0
   -3.6434   22.7029  -26.8787 H   0  0  0  0  0  0  0  0  0  0  0  0
   -3.7586   24.0965  -28.0062 H   0  0  0  0  0  0  0  0  0  0  0  0
   -5.0357   22.8334  -28.0062 H   0  0  0  0  0  0  0  0  0  0  0  0
   -3.0220   25.2930  -30.4760 H   0  0  0  0  0  0  0  0  0  0  0  0
   -7.8451   24.0963  -30.9930 H   0  0  0  0  0  0  0  0  0  0  0  0
   -9.0791   21.8143  -32.2010 H   0  0  0  0  0  0  0  0  0  0  0  0
   -8.5738   19.5719  -33.2207 H   0  0  0  0  0  0  0  0  0  0  0  0
   -4.1669   18.7052  -34.5658 H   0  0  0  0  0  0  0  0  0  0  0  0
   -4.4220   16.1850  -35.1640 H   0  0  0  0  0  0  0  0  0  0  0  0
   -6.7993   14.4790  -33.2001 H   0  0  0  0  0  0  0  0  0  0  0  0
   -7.6320   14.8275  -34.7530 H   0  0  0  0  0  0  0  0  0  0  0  0
   -5.9137   14.3041  -34.7530 H   0  0  0  0  0  0  0  0  0  0  0  0
   -7.8425   17.1610  -32.9279 H   0  0  0  0  0  0  0  0  0  0  0  0
   -4.3146   20.2264  -32.5394 H   0  0  0  0  0  0  0  0  0  0  0  0
  1  2  1  0
  2  3  1  0
  3  4  2  0
  3  5  1  0
  5  6  2  0
  5  7  1  0
  7  8  1  0
  8  9  1  0
  9 10  1  0
  9 11  2  0
  8 12  2  0
 12 13  1  0
 13 14  2  0
 14 15  1  0
 15 16  2  0
 16 17  1  0
 17 18  1  0
 18 19  2  0
 19 20  1  0
 20 21  1  0
 20 22  1  0
 16 23  1  0
 23 24  2  0
 24  7  1  0
 24 13  1  0
 22 17  2  0
  1 25  1  0
  1 26  1  0
  1 27  1  0
 10 28  1  0
 12 29  1  0
 14 30  1  0
 15 31  1  0
 18 32  1  0
 19 33  1  0
 21 34  1  0
 21 35  1  0
 21 36  1  0
 22 37  1  0
 23 38  1  0
M  CHG  2  10  -1  19   1
M  END
>  <UniqueID>  (87) 
87

>  <SMILES>  (87) 
COC(=O)C(=O)n1c(C([NH-])=O)cc2ccc(-c3c[nH+]n(C)c3)cc21

>  <Energy>  (87) 
108.29253028495772

>  <Genealogy>  (87) 
COC(=O)C(=O)n1c(C([NH-])=O)cc2ccc(-c3c[nH+]n(C)c3)cc21 (protonated)
COC(=O)C(=O)n1c(C([NH-])=O)cc2ccc(-c3c[nH+]n(C)c3)cc21 (3D coordinates assigned)
COC(=O)C(=O)n1c(C([NH-])=O)cc2ccc(-c3c[nH+]n(C)c3)cc21 (optimized conformer: 108.29253028495772 kcal/mol)

>  <smiles>  (87) 
COC(=O)C(=O)n1c(C(N)=O)cc2ccc(-c3cnn(C)c3)cc21

>  <score_type>  (87) 
oracle

>  <origin>  (87) 
adg

>  <m_score__min__energy>  (87) 
-9.6799999999999997

>  <m_primary>  (87) 
energy

$$$$
88:0
     RDKit          3D

 42 44  0  0  0  0  0  0  0  0999 V2000
   -6.7550   18.1620  -32.4300 C   0  0  0  0  0  0  0  0  0  0  0  0
   -7.0040   19.5990  -32.0810 C   0  0  0  0  0  0  0  0  0  0  0  0
   -8.3120   20.1360  -32.1740 C   0  0  0  0  0  0  0  0  0  0  0  0
   -8.5480   21.4920  -31.8910 C   0  0  0  0  0  0  0  0  0  0  0  0
   -7.4630   22.2810  -31.5240 C   0  0  0  0  0  0  0  0  0  0  0  0
   -7.4080   23.6210  -31.2160 C   0  0  0  0  0  0  0  0  0  0  0  0
   -6.0680   23.8810  -30.9320 C   0  0  0  0  0  0  0  0  0  0  0  0
   -5.5530   25.1920  -30.4710 C   0  0  0  0  0  0  0  0  0  0  0  0
   -4.2050   25.5840  -30.7380 N   0  0  0  0  0  0  0  0  0  0  0  0
   -6.3090   25.9870  -29.8520 O   0  0  0  0  0  0  0  0  0  0  0  0
   -5.3250   22.7450  -31.0580 N   0  0  0  0  0  0  0  0  0  0  0  0
   -3.9060   22.6140  -30.8650 C   0  0  0  0  0  0  0  0  0  0  0  0
   -3.1170   23.2740  -31.5930 O   0  0  0  0  0  0  0  0  0  0  0  0
   -3.3350   21.6930  -29.8220 C   0  0  0  0  0  0  0  0  0  0  0  0
   -3.3810   22.3170  -28.4840 N   0  0  0  0  0  0  0  0  0  0  0  0
   -4.5680   23.1480  -28.2510 C   0  0  0  0  0  0  0  0  0  0  0  0
   -4.1890   24.1790  -27.1930 C   0  0  0  0  0  0  0  0  0  0  0  0
   -2.6870   24.0360  -26.9910 C   0  0  0  0  0  0  0  0  0  0  0  0
   -2.2160   23.1460  -28.1370 C   0  0  2  0  0  0  0  0  0  0  0  0
   -1.7030   23.9820  -29.2920 C   0  0  0  0  0  0  0  0  0  0  0  0
   -0.8430   23.5210  -30.0880 O   0  0  0  0  0  0  0  0  0  0  0  0
   -2.1740   25.2770  -29.4680 O   0  0  0  0  0  0  0  0  0  0  0  0
   -6.1920   21.7760  -31.4270 C   0  0  0  0  0  0  0  0  0  0  0  0
   -5.9240   20.4350  -31.7250 C   0  0  0  0  0  0  0  0  0  0  0  0
   -6.6529   17.5728  -31.5067 H   0  0  0  0  0  0  0  0  0  0  0  0
   -7.5997   17.7762  -33.0196 H   0  0  0  0  0  0  0  0  0  0  0  0
   -5.8298   18.0829  -33.0196 H   0  0  0  0  0  0  0  0  0  0  0  0
   -9.1490   19.4865  -32.4700 H   0  0  0  0  0  0  0  0  0  0  0  0
   -9.5605   21.9168  -31.9577 H   0  0  0  0  0  0  0  0  0  0  0  0
   -8.2441   24.3356  -31.1977 H   0  0  0  0  0  0  0  0  0  0  0  0
   -3.5270   24.9330  -31.1890 H   0  0  0  0  0  0  0  0  0  0  0  0
   -3.8670   26.5260  -30.4410 H   0  0  0  0  0  0  0  0  0  0  0  0
   -3.9201   20.7617  -29.8051 H   0  0  0  0  0  0  0  0  0  0  0  0
   -2.2853   21.4835  -30.0756 H   0  0  0  0  0  0  0  0  0  0  0  0
   -4.8642   23.6533  -29.1821 H   0  0  0  0  0  0  0  0  0  0  0  0
   -5.4172   22.5346  -27.9154 H   0  0  0  0  0  0  0  0  0  0  0  0
   -4.4334   25.1931  -27.5420 H   0  0  0  0  0  0  0  0  0  0  0  0
   -4.7401   24.0167  -26.2550 H   0  0  0  0  0  0  0  0  0  0  0  0
   -2.1955   25.0190  -27.0380 H   0  0  0  0  0  0  0  0  0  0  0  0
   -2.4418   23.6073  -26.0081 H   0  0  0  0  0  0  0  0  0  0  0  0
   -1.3642   22.5070  -27.8611 H   0  0  0  0  0  0  0  0  0  0  0  0
   -4.8973   20.0424  -31.6828 H   0  0  0  0  0  0  0  0  0  0  0  0
  1  2  1  0
  2  3  2  0
  3  4  1  0
  4  5  2  0
  5  6  1  0
  6  7  2  0
  7  8  1  0
  8  9  1  0
  8 10  2  0
  7 11  1  0
 11 12  1  0
 12 13  2  0
 12 14  1  0
 14 15  1  0
 15 16  1  0
 16 17  1  0
 17 18  1  0
 18 19  1  0
 19 20  1  0
 20 21  2  0
 20 22  1  0
 11 23  1  0
 23 24  2  0
 24  2  1  0
 23  5  1  0
 19 15  1  0
  1 25  1  0
  1 26  1  0
  1 27  1  0
  3 28  1  0
  4 29  1  0
  6 30  1  0
  9 31  1  0
  9 32  1  0
 14 33  1  0
 14 34  1  0
 16 35  1  0
 16 36  1  0
 17 37  1  0
 17 38  1  0
 18 39  1  0
 18 40  1  0
 19 41  1  1
 24 42  1  0
M  CHG  1  22  -1
M  END
>  <UniqueID>  (88) 
88

>  <SMILES>  (88) 
Cc1ccc2cc(C(N)=O)n(C(=O)CN3CCC[C@@H]3C(=O)[O-])c2c1

>  <Energy>  (88) 
87.02822552404746

>  <Genealogy>  (88) 
Cc1ccc2cc(C(N)=O)n(C(=O)CN3CCCC3C(=O)[O-])c2c1 (protonated)
Cc1ccc2cc(C(N)=O)n(C(=O)CN3CCC[C@@H]3C(=O)[O-])c2c1 (chirality)
Cc1ccc2cc(C(N)=O)n(C(=O)CN3CCC[C@@H]3C(=O)[O-])c2c1 (3D coordinates assigned)
Cc1ccc2cc(C(N)=O)n(C(=O)CN3CCC[C@@H]3C(=O)[O-])c2c1 (nonaromatic ring conformer: 87.02822552404746 kcal/mol)

>  <smiles>  (88) 
Cc1ccc2cc(C(N)=O)n(C(=O)CN3CCCC3C(=O)O)c2c1

>  <score_type>  (88) 
oracle

>  <origin>  (88) 
adg

>  <m_score__min__energy>  (88) 
-11.68

>  <m_primary>  (88) 
energy

$$$$
89:0
     RDKit          3D

 51 54  0  0  0  0  0  0  0  0999 V2000
   -5.7600   26.4920  -30.1400 C   0  0  0  0  0  0  0  0  0  0  0  0
   -5.1020   25.2740  -30.7330 C   0  0  0  0  0  0  0  0  0  0  0  0
   -3.9110   25.3270  -30.9990 O   0  0  0  0  0  0  0  0  0  0  0  0
   -5.8440   23.9850  -31.0200 C   0  0  0  0  0  0  0  0  0  0  0  0
   -6.4880   23.3160  -29.7930 C   0  0  1  0  0  0  0  0  0  0  0  0
   -7.5860   22.3440  -30.2350 C   0  0  0  0  0  0  0  0  0  0  0  0
   -5.4850   22.6100  -29.0600 O   0  0  0  0  0  0  0  0  0  0  0  0
   -4.1480   23.0160  -28.9880 C   0  0  0  0  0  0  0  0  0  0  0  0
   -3.7610   23.7760  -28.0590 O   0  0  0  0  0  0  0  0  0  0  0  0
   -3.2250   22.5970  -30.0030 N   0  0  0  0  0  0  0  0  0  0  0  0
   -1.9210   22.9670  -30.1460 C   0  0  0  0  0  0  0  0  0  0  0  0
   -1.2310   24.0250  -29.3800 C   0  0  0  0  0  0  0  0  0  0  0  0
   -1.8040   25.3220  -29.2410 N   0  0  0  0  0  0  0  0  0  0  0  0
   -0.0970   23.7950  -28.8810 O   0  0  0  0  0  0  0  0  0  0  0  0
   -1.3220   22.2540  -31.1820 C   0  0  0  0  0  0  0  0  0  0  0  0
   -2.3080   21.4320  -31.6780 C   0  0  0  0  0  0  0  0  0  0  0  0
   -2.2590   20.4930  -32.7020 C   0  0  0  0  0  0  0  0  0  0  0  0
   -3.4220   19.7550  -32.9750 C   0  0  0  0  0  0  0  0  0  0  0  0
   -4.6060   19.9570  -32.2200 C   0  0  0  0  0  0  0  0  0  0  0  0
   -5.8430   19.1370  -32.5210 C   0  0  1  0  0  0  0  0  0  0  0  0
   -5.8760   18.0910  -33.6330 C   0  0  0  0  0  0  0  0  0  0  0  0
   -7.2140   17.6240  -33.5050 O   0  0  0  0  0  0  0  0  0  0  0  0
   -7.6330   18.4400  -32.4270 C   0  0  1  0  0  0  0  0  0  0  0  0
   -9.0670   18.2510  -31.9540 C   0  0  0  0  0  0  0  0  0  0  0  0
   -6.5010   18.3330  -31.4160 C   0  0  0  0  0  0  0  0  0  0  0  0
   -7.1590   19.8340  -32.8100 C   0  0  0  0  0  0  0  0  0  0  0  0
   -4.6140   20.9220  -31.1850 C   0  0  0  0  0  0  0  0  0  0  0  0
   -3.4460   21.6570  -30.9480 C   0  0  0  0  0  0  0  0  0  0  0  0
   -5.7261   26.4293  -29.0423 H   0  0  0  0  0  0  0  0  0  0  0  0
   -5.2270   27.3951  -30.4723 H   0  0  0  0  0  0  0  0  0  0  0  0
   -6.8075   26.5413  -30.4723 H   0  0  0  0  0  0  0  0  0  0  0  0
   -6.6408   24.2047  -31.7459 H   0  0  0  0  0  0  0  0  0  0  0  0
   -5.0921   23.2758  -31.3965 H   0  0  0  0  0  0  0  0  0  0  0  0
   -6.9381   24.0900  -29.1539 H   0  0  0  0  0  0  0  0  0  0  0  0
   -8.0730   21.9129  -29.3479 H   0  0  0  0  0  0  0  0  0  0  0  0
   -8.3321   22.8830  -30.8373 H   0  0  0  0  0  0  0  0  0  0  0  0
   -7.1415   21.5380  -30.8373 H   0  0  0  0  0  0  0  0  0  0  0  0
   -2.8340   25.4470  -29.1450 H   0  0  0  0  0  0  0  0  0  0  0  0
   -0.2814   22.3316  -31.5299 H   0  0  0  0  0  0  0  0  0  0  0  0
   -1.3373   20.3330  -33.2807 H   0  0  0  0  0  0  0  0  0  0  0  0
   -3.4149   19.0106  -33.7848 H   0  0  0  0  0  0  0  0  0  0  0  0
   -5.6950   18.5411  -34.6203 H   0  0  0  0  0  0  0  0  0  0  0  0
   -5.1063   17.3093  -33.5520 H   0  0  0  0  0  0  0  0  0  0  0  0
   -9.0929   18.2476  -30.8543 H   0  0  0  0  0  0  0  0  0  0  0  0
   -9.6897   19.0748  -32.3329 H   0  0  0  0  0  0  0  0  0  0  0  0
   -9.4550   17.2940  -32.3329 H   0  0  0  0  0  0  0  0  0  0  0  0
   -6.6496   18.8476  -30.4552 H   0  0  0  0  0  0  0  0  0  0  0  0
   -6.1149   17.4067  -30.9655 H   0  0  0  0  0  0  0  0  0  0  0  0
   -7.3331   20.1438  -33.8510 H   0  0  0  0  0  0  0  0  0  0  0  0
   -7.5038   20.7827  -32.3729 H   0  0  0  0  0  0  0  0  0  0  0  0
   -5.5173   21.0909  -30.5804 H   0  0  0  0  0  0  0  0  0  0  0  0
  1  2  1  0
  2  3  2  0
  2  4  1  0
  4  5  1  0
  5  6  1  0
  5  7  1  0
  7  8  1  0
  8  9  2  0
  8 10  1  0
 10 11  1  0
 11 12  1  0
 12 13  1  0
 12 14  2  0
 11 15  2  0
 15 16  1  0
 16 17  2  0
 17 18  1  0
 18 19  2  0
 20 19  1  1
 20 21  1  0
 21 22  1  0
 22 23  1  0
 23 24  1  1
 23 25  1  0
 23 26  1  0
 19 27  1  0
 27 28  2  0
 28 10  1  0
 28 16  1  0
 25 20  1  0
 26 20  1  0
  1 29  1  0
  1 30  1  0
  1 31  1  0
  4 32  1  0
  4 33  1  0
  5 34  1  1
  6 35  1  0
  6 36  1  0
  6 37  1  0
 13 38  1  0
 15 39  1  0
 17 40  1  0
 18 41  1  0
 21 42  1  0
 21 43  1  0
 24 44  1  0
 24 45  1  0
 24 46  1  0
 25 47  1  0
 25 48  1  0
 26 49  1  0
 26 50  1  0
 27 51  1  0
M  CHG  1  13  -1
M  END
>  <UniqueID>  (89) 
89

>  <SMILES>  (89) 
CC(=O)C[C@@H](C)OC(=O)n1c(C([NH-])=O)cc2ccc(C34COC(C)(C3)C4)cc21

>  <Energy>  (89) 
212.8126443458421

>  <Genealogy>  (89) 
CC(=O)CC(C)OC(=O)n1c(C([NH-])=O)cc2ccc(C34COC(C)(C3)C4)cc21 (protonated)
CC(=O)C[C@@H](C)OC(=O)n1c(C([NH-])=O)cc2ccc(C34COC(C)(C3)C4)cc21 (chirality)
CC(=O)C[C@@H](C)OC(=O)n1c(C([NH-])=O)cc2ccc(C34COC(C)(C3)C4)cc21 (3D coordinates assigned)
CC(=O)C[C@@H](C)OC(=O)n1c(C([NH-])=O)cc2ccc(C34COC(C)(C3)C4)cc21 (nonaromatic ring conformer: 212.8126443458421 kcal/mol)

>  <smiles>  (89) 
CC(=O)CC(C)OC(=O)n1c(C(N)=O)cc2ccc(C34COC(C)(C3)C4)cc21

>  <score_type>  (89) 
oracle

>  <origin>  (89) 
adg

>  <m_score__min__energy>  (89) 
-12.48

>  <m_primary>  (89) 
energy

$$$$
90:0
     RDKit          3D

 39 40  0  0  0  0  0  0  0  0999 V2000
   -2.7250   24.7370  -27.5170 C   0  0  0  0  0  0  0  0  0  0  0  0
   -2.2950   25.1580  -28.7920 O   0  0  0  0  0  0  0  0  0  0  0  0
   -0.9110   24.9030  -28.9620 C   0  0  0  0  0  0  0  0  0  0  0  0
   -0.6470   23.3980  -28.9020 C   0  0  0  0  0  0  0  0  0  0  0  0
   -1.3690   22.6840  -30.0060 C   0  0  0  0  0  0  0  0  0  0  0  0
   -0.7070   22.0020  -30.8350 O   0  0  0  0  0  0  0  0  0  0  0  0
   -2.7920   22.8180  -30.1360 N   0  0  0  0  0  0  0  0  0  0  0  0
   -3.5460   22.3290  -31.2560 C   0  0  0  0  0  0  0  0  0  0  0  0
   -2.9610   21.8140  -32.2470 O   0  0  0  0  0  0  0  0  0  0  0  0
   -4.9770   22.4670  -31.2730 N   0  0  0  0  0  0  0  0  0  0  0  0
   -5.7150   23.5380  -30.8680 C   0  0  0  0  0  0  0  0  0  0  0  0
   -5.1810   24.7360  -30.1810 C   0  0  0  0  0  0  0  0  0  0  0  0
   -5.7830   25.2210  -28.9810 N   0  0  0  0  0  0  0  0  0  0  0  0
   -4.1690   25.3290  -30.6420 O   0  0  0  0  0  0  0  0  0  0  0  0
   -7.0700   23.3120  -31.1090 C   0  0  0  0  0  0  0  0  0  0  0  0
   -7.1350   22.0590  -31.6760 C   0  0  0  0  0  0  0  0  0  0  0  0
   -8.2350   21.3400  -32.1360 C   0  0  0  0  0  0  0  0  0  0  0  0
   -8.0040   20.0790  -32.7090 C   0  0  0  0  0  0  0  0  0  0  0  0
   -6.6890   19.5520  -32.8000 C   0  0  0  0  0  0  0  0  0  0  0  0
   -6.4480   18.2240  -33.4730 C   0  0  0  0  0  0  0  0  0  0  0  0
   -7.6000   17.4630  -33.4020 F   0  0  0  0  0  0  0  0  0  0  0  0
   -5.4180   17.5420  -32.8500 F   0  0  0  0  0  0  0  0  0  0  0  0
   -6.1070   18.4040  -34.8020 F   0  0  0  0  0  0  0  0  0  0  0  0
   -5.5960   20.3240  -32.3410 C   0  0  0  0  0  0  0  0  0  0  0  0
   -5.8590   21.5700  -31.7630 C   0  0  0  0  0  0  0  0  0  0  0  0
   -2.1667   25.2836  -26.7428 H   0  0  0  0  0  0  0  0  0  0  0  0
   -3.8002   24.9412  -27.4067 H   0  0  0  0  0  0  0  0  0  0  0  0
   -2.5436   23.6577  -27.4067 H   0  0  0  0  0  0  0  0  0  0  0  0
   -0.5859   25.2915  -29.9384 H   0  0  0  0  0  0  0  0  0  0  0  0
   -0.3499   25.4011  -28.1576 H   0  0  0  0  0  0  0  0  0  0  0  0
    0.4334   23.2175  -29.0024 H   0  0  0  0  0  0  0  0  0  0  0  0
   -1.0123   23.0151  -27.9377 H   0  0  0  0  0  0  0  0  0  0  0  0
   -3.3070   23.3470  -29.3970 H   0  0  0  0  0  0  0  0  0  0  0  0
   -5.3740   26.0450  -28.4870 H   0  0  0  0  0  0  0  0  0  0  0  0
   -6.6560   24.7950  -28.5990 H   0  0  0  0  0  0  0  0  0  0  0  0
   -7.9083   23.9904  -30.8922 H   0  0  0  0  0  0  0  0  0  0  0  0
   -9.2535   21.7472  -32.0531 H   0  0  0  0  0  0  0  0  0  0  0  0
   -8.8522   19.4925  -33.0919 H   0  0  0  0  0  0  0  0  0  0  0  0
   -4.5647   19.9534  -32.4364 H   0  0  0  0  0  0  0  0  0  0  0  0
  1  2  1  0
  2  3  1  0
  3  4  1  0
  4  5  1  0
  5  6  2  0
  5  7  1  0
  7  8  1  0
  8  9  2  0
  8 10  1  0
 10 11  1  0
 11 12  1  0
 12 13  1  0
 12 14  2  0
 11 15  2  0
 15 16  1  0
 16 17  2  0
 17 18  1  0
 18 19  2  0
 19 20  1  0
 20 21  1  0
 20 22  1  0
 20 23  1  0
 19 24  1  0
 24 25  2  0
 25 10  1  0
 25 16  1  0
  1 26  1  0
  1 27  1  0
  1 28  1  0
  3 29  1  0
  3 30  1  0
  4 31  1  0
  4 32  1  0
  7 33  1  0
 13 34  1  0
 13 35  1  0
 15 36  1  0
 17 37  1  0
 18 38  1  0
 24 39  1  0
M  END
>  <UniqueID>  (90) 
90

>  <SMILES>  (90) 
COCCC(=O)NC(=O)n1c(C(N)=O)cc2ccc(C(F)(F)F)cc21

>  <Energy>  (90) 
76.94423214194597

>  <Genealogy>  (90) 
COCCC(=O)NC(=O)n1c(C(N)=O)cc2ccc(C(F)(F)F)cc21 (3D coordinates assigned)
COCCC(=O)NC(=O)n1c(C(N)=O)cc2ccc(C(F)(F)F)cc21 (optimized conformer: 76.94423214194597 kcal/mol)

>  <smiles>  (90) 
COCCC(=O)NC(=O)n1c(C(N)=O)cc2ccc(C(F)(F)F)cc21

>  <score_type>  (90) 
oracle

>  <origin>  (90) 
adg

>  <m_score__min__energy>  (90) 
-8.5

>  <m_primary>  (90) 
energy

$$$$
91:0
     RDKit          3D

 28 29  0  0  0  0  0  0  0  0999 V2000
   -3.9360   22.5200  -28.7330 C   0  0  0  0  0  0  0  0  0  0  0  0
   -3.3760   22.2190  -29.9040 C   0  0  0  0  0  0  0  0  0  0  0  0
   -4.0720   22.4170  -31.1900 C   0  0  0  0  0  0  0  0  0  0  0  0
   -3.4540   22.2700  -32.2800 O   0  0  0  0  0  0  0  0  0  0  0  0
   -5.4620   22.7750  -31.2070 N   0  0  0  0  0  0  0  0  0  0  0  0
   -6.0210   23.9590  -30.8300 C   0  0  0  0  0  0  0  0  0  0  0  0
   -5.2860   25.1830  -30.4440 C   0  0  0  0  0  0  0  0  0  0  0  0
   -3.8790   25.2860  -30.6370 N   0  0  0  0  0  0  0  0  0  0  0  0
   -5.9160   26.1650  -29.9680 O   0  0  0  0  0  0  0  0  0  0  0  0
   -7.4120   23.8890  -30.9120 C   0  0  0  0  0  0  0  0  0  0  0  0
   -7.6880   22.6150  -31.3540 C   0  0  0  0  0  0  0  0  0  0  0  0
   -8.9110   21.9940  -31.5890 C   0  0  0  0  0  0  0  0  0  0  0  0
   -8.8980   20.6510  -32.0050 C   0  0  0  0  0  0  0  0  0  0  0  0
   -7.6730   19.9620  -32.1800 C   0  0  0  0  0  0  0  0  0  0  0  0
   -7.6750   18.5150  -32.5750 C   0  0  0  0  0  0  0  0  0  0  0  0
   -8.7360   17.8720  -31.9660 F   0  0  0  0  0  0  0  0  0  0  0  0
   -6.4520   20.6200  -31.9170 C   0  0  0  0  0  0  0  0  0  0  0  0
   -6.4950   21.9630  -31.5220 C   0  0  0  0  0  0  0  0  0  0  0  0
   -3.3793   22.3556  -27.7987 H   0  0  0  0  0  0  0  0  0  0  0  0
   -4.9550   22.9329  -28.7006 H   0  0  0  0  0  0  0  0  0  0  0  0
   -2.3560   21.8072  -29.9124 H   0  0  0  0  0  0  0  0  0  0  0  0
   -3.4710   26.0480  -31.2240 H   0  0  0  0  0  0  0  0  0  0  0  0
   -8.1347   24.6833  -30.6740 H   0  0  0  0  0  0  0  0  0  0  0  0
   -9.8581   22.5368  -31.4536 H   0  0  0  0  0  0  0  0  0  0  0  0
   -9.8480   20.1306  -32.1963 H   0  0  0  0  0  0  0  0  0  0  0  0
   -7.7751   18.4334  -33.6674 H   0  0  0  0  0  0  0  0  0  0  0  0
   -6.7317   18.0471  -32.2569 H   0  0  0  0  0  0  0  0  0  0  0  0
   -5.4925   20.0920  -32.0196 H   0  0  0  0  0  0  0  0  0  0  0  0
  1  2  2  0
  2  3  1  0
  3  4  2  0
  3  5  1  0
  5  6  1  0
  6  7  1  0
  7  8  1  0
  7  9  2  0
  6 10  2  0
 10 11  1  0
 11 12  2  0
 12 13  1  0
 13 14  2  0
 14 15  1  0
 15 16  1  0
 14 17  1  0
 17 18  2  0
 18  5  1  0
 18 11  1  0
  1 19  1  0
  1 20  1  0
  2 21  1  0
  8 22  1  0
 10 23  1  0
 12 24  1  0
 13 25  1  0
 15 26  1  0
 15 27  1  0
 17 28  1  0
M  CHG  1   8  -1
M  END
>  <UniqueID>  (91) 
91

>  <SMILES>  (91) 
C=CC(=O)n1c(C([NH-])=O)cc2ccc(CF)cc21

>  <Energy>  (91) 
66.07523969576071

>  <Genealogy>  (91) 
C=CC(=O)n1c(C([NH-])=O)cc2ccc(CF)cc21 (protonated)
C=CC(=O)n1c(C([NH-])=O)cc2ccc(CF)cc21 (3D coordinates assigned)
C=CC(=O)n1c(C([NH-])=O)cc2ccc(CF)cc21 (optimized conformer: 66.07523969576071 kcal/mol)

>  <smiles>  (91) 
C=CC(=O)n1c(C(N)=O)cc2ccc(CF)cc21

>  <score_type>  (91) 
oracle

>  <origin>  (91) 
adg

>  <m_score__min__energy>  (91) 
-9.4700000000000006

>  <m_primary>  (91) 
energy

$$$$
92:0
     RDKit          3D

 43 44  0  0  0  0  0  0  0  0999 V2000
   -1.6070   21.9920  -26.8500 C   0  0  0  0  0  0  0  0  0  0  0  0
   -2.7440   22.5810  -27.5610 N   0  0  0  0  0  0  0  0  0  0  0  0
   -3.6650   21.7090  -28.3040 C   0  0  0  0  0  0  0  0  0  0  0  0
   -3.1930   21.5100  -29.7540 C   0  0  0  0  0  0  0  0  0  0  0  0
   -3.6760   22.6050  -30.6680 C   0  0  0  0  0  0  0  0  0  0  0  0
   -2.8250   23.3470  -31.2280 O   0  0  0  0  0  0  0  0  0  0  0  0
   -5.0780   22.8050  -30.9310 N   0  0  0  0  0  0  0  0  0  0  0  0
   -5.8130   23.9440  -30.7730 C   0  0  0  0  0  0  0  0  0  0  0  0
   -5.2770   25.2900  -30.4860 C   0  0  0  0  0  0  0  0  0  0  0  0
   -3.9420   25.6340  -30.8500 N   0  0  0  0  0  0  0  0  0  0  0  0
   -6.0240   26.1640  -29.9710 O   0  0  0  0  0  0  0  0  0  0  0  0
   -7.1490   23.7160  -31.0900 C   0  0  0  0  0  0  0  0  0  0  0  0
   -7.2080   22.4020  -31.4920 C   0  0  0  0  0  0  0  0  0  0  0  0
   -8.2860   21.6600  -31.9610 C   0  0  0  0  0  0  0  0  0  0  0  0
   -8.0530   20.3290  -32.3430 C   0  0  0  0  0  0  0  0  0  0  0  0
   -6.7550   19.7680  -32.2590 C   0  0  0  0  0  0  0  0  0  0  0  0
   -6.5440   18.3330  -32.6580 C   0  0  0  0  0  0  0  0  0  0  0  0
   -6.2740   18.2610  -34.0110 F   0  0  0  0  0  0  0  0  0  0  0  0
   -7.6620   17.5670  -32.3730 F   0  0  0  0  0  0  0  0  0  0  0  0
   -5.6880   20.5460  -31.7520 C   0  0  0  0  0  0  0  0  0  0  0  0
   -5.9460   21.8750  -31.3920 C   0  0  0  0  0  0  0  0  0  0  0  0
   -2.9470   24.0050  -27.5150 C   0  0  0  0  0  0  0  0  0  0  0  0
   -3.7640   24.5480  -28.3090 O   0  0  0  0  0  0  0  0  0  0  0  0
   -2.2410   24.7860  -26.5940 O   0  0  0  0  0  0  0  0  0  0  0  0
   -1.1710   25.6550  -26.9640 C   0  0  0  0  0  0  0  0  0  0  0  0
   -0.7080   25.4030  -28.3680 C   0  0  0  0  0  0  0  0  0  0  0  0
   -1.2340   26.0110  -29.3380 O   0  0  0  0  0  0  0  0  0  0  0  0
    0.3410   24.5230  -28.5980 O   0  0  0  0  0  0  0  0  0  0  0  0
   -1.7694   22.0761  -25.7653 H   0  0  0  0  0  0  0  0  0  0  0  0
   -1.5120   20.9313  -27.1254 H   0  0  0  0  0  0  0  0  0  0  0  0
   -0.6857   22.5263  -27.1254 H   0  0  0  0  0  0  0  0  0  0  0  0
   -3.7137   20.7300  -27.8048 H   0  0  0  0  0  0  0  0  0  0  0  0
   -4.6568   22.1844  -28.3223 H   0  0  0  0  0  0  0  0  0  0  0  0
   -2.0932   21.4961  -29.7692 H   0  0  0  0  0  0  0  0  0  0  0  0
   -3.6120   20.5598  -30.1167 H   0  0  0  0  0  0  0  0  0  0  0  0
   -3.1280   25.2890  -30.2940 H   0  0  0  0  0  0  0  0  0  0  0  0
   -7.9805   24.4338  -31.0315 H   0  0  0  0  0  0  0  0  0  0  0  0
   -9.2909   22.1021  -32.0307 H   0  0  0  0  0  0  0  0  0  0  0  0
   -8.8879   19.7150  -32.7117 H   0  0  0  0  0  0  0  0  0  0  0  0
   -5.6932   17.9386  -32.0830 H   0  0  0  0  0  0  0  0  0  0  0  0
   -4.6805   20.1180  -31.6431 H   0  0  0  0  0  0  0  0  0  0  0  0
   -1.5148   26.6968  -26.8842 H   0  0  0  0  0  0  0  0  0  0  0  0
   -0.3259   25.4641  -26.2862 H   0  0  0  0  0  0  0  0  0  0  0  0
  1  2  1  0
  2  3  1  0
  3  4  1  0
  4  5  1  0
  5  6  2  0
  5  7  1  0
  7  8  1  0
  8  9  1  0
  9 10  1  0
  9 11  2  0
  8 12  2  0
 12 13  1  0
 13 14  2  0
 14 15  1  0
 15 16  2  0
 16 17  1  0
 17 18  1  0
 17 19  1  0
 16 20  1  0
 20 21  2  0
  2 22  1  0
 22 23  2  0
 22 24  1  0
 24 25  1  0
 25 26  1  0
 26 27  2  0
 26 28  1  0
 21  7  1  0
 21 13  1  0
  1 29  1  0
  1 30  1  0
  1 31  1  0
  3 32  1  0
  3 33  1  0
  4 34  1  0
  4 35  1  0
 10 36  1  0
 12 37  1  0
 14 38  1  0
 15 39  1  0
 17 40  1  0
 20 41  1  0
 25 42  1  0
 25 43  1  0
M  CHG  2  10  -1  28  -1
M  END
>  <UniqueID>  (92) 
92

>  <SMILES>  (92) 
CN(CCC(=O)n1c(C([NH-])=O)cc2ccc(C(F)F)cc21)C(=O)OCC(=O)[O-]

>  <Energy>  (92) 
75.58962322973403

>  <Genealogy>  (92) 
CN(CCC(=O)n1c(C([NH-])=O)cc2ccc(C(F)F)cc21)C(=O)OCC(=O)[O-] (protonated)
CN(CCC(=O)n1c(C([NH-])=O)cc2ccc(C(F)F)cc21)C(=O)OCC(=O)[O-] (3D coordinates assigned)
CN(CCC(=O)n1c(C([NH-])=O)cc2ccc(C(F)F)cc21)C(=O)OCC(=O)[O-] (optimized conformer: 75.58962322973403 kcal/mol)

>  <smiles>  (92) 
CN(CCC(=O)n1c(C(N)=O)cc2ccc(C(F)F)cc21)C(=O)OCC(=O)O

>  <score_type>  (92) 
oracle

>  <origin>  (92) 
adg

>  <m_score__min__energy>  (92) 
-11.9

>  <m_primary>  (92) 
energy

$$$$
93:0
     RDKit          3D

 37 39  0  0  0  0  0  0  0  0999 V2000
   -3.7200   23.5760  -27.9470 C   0  0  0  0  0  0  0  0  0  0  0  0
   -3.0530   22.5570  -28.8640 C   0  0  0  0  0  0  0  0  0  0  0  0
   -2.7840   23.1300  -30.1410 O   0  0  0  0  0  0  0  0  0  0  0  0
   -3.4340   22.7340  -31.3160 C   0  0  0  0  0  0  0  0  0  0  0  0
   -2.7730   22.2640  -32.2840 O   0  0  0  0  0  0  0  0  0  0  0  0
   -4.8620   22.8480  -31.4140 N   0  0  0  0  0  0  0  0  0  0  0  0
   -5.6450   23.8800  -30.9930 C   0  0  0  0  0  0  0  0  0  0  0  0
   -5.1670   25.1880  -30.4980 C   0  0  0  0  0  0  0  0  0  0  0  0
   -3.8740   25.6740  -30.8450 N   0  0  0  0  0  0  0  0  0  0  0  0
   -5.9290   25.9070  -29.7990 O   0  0  0  0  0  0  0  0  0  0  0  0
   -6.9940   23.5720  -31.1650 C   0  0  0  0  0  0  0  0  0  0  0  0
   -7.0120   22.3110  -31.7160 C   0  0  0  0  0  0  0  0  0  0  0  0
   -8.0880   21.5080  -32.0730 C   0  0  0  0  0  0  0  0  0  0  0  0
   -7.8150   20.2290  -32.5870 C   0  0  0  0  0  0  0  0  0  0  0  0
   -6.4780   19.7720  -32.7350 C   0  0  0  0  0  0  0  0  0  0  0  0
   -6.2230   18.4080  -33.2610 C   0  0  0  0  0  0  0  0  0  0  0  0
   -7.1420   17.3580  -33.0750 C   0  0  0  0  0  0  0  0  0  0  0  0
   -6.8530   16.0910  -33.5850 C   0  0  0  0  0  0  0  0  0  0  0  0
   -5.6590   15.8730  -34.2710 C   0  0  0  0  0  0  0  0  0  0  0  0
   -4.7620   16.9290  -34.4320 C   0  0  0  0  0  0  0  0  0  0  0  0
   -5.0600   18.1560  -33.9280 N   0  0  0  0  0  0  0  0  0  0  0  0
   -5.4110   20.6210  -32.3470 C   0  0  0  0  0  0  0  0  0  0  0  0
   -5.7130   21.8960  -31.8580 C   0  0  0  0  0  0  0  0  0  0  0  0
   -3.5388   23.2991  -26.8980 H   0  0  0  0  0  0  0  0  0  0  0  0
   -3.2998   24.5739  -28.1407 H   0  0  0  0  0  0  0  0  0  0  0  0
   -4.8027   23.5902  -28.1407 H   0  0  0  0  0  0  0  0  0  0  0  0
   -2.1072   22.2268  -28.4097 H   0  0  0  0  0  0  0  0  0  0  0  0
   -3.7317   21.7014  -28.9957 H   0  0  0  0  0  0  0  0  0  0  0  0
   -3.0140   25.2690  -30.4140 H   0  0  0  0  0  0  0  0  0  0  0  0
   -7.8595   24.2026  -30.9138 H   0  0  0  0  0  0  0  0  0  0  0  0
   -9.1227   21.8628  -31.9568 H   0  0  0  0  0  0  0  0  0  0  0  0
   -8.6480   19.5726  -32.8788 H   0  0  0  0  0  0  0  0  0  0  0  0
   -8.0818   17.5347  -32.5313 H   0  0  0  0  0  0  0  0  0  0  0  0
   -7.5666   15.2655  -33.4457 H   0  0  0  0  0  0  0  0  0  0  0  0
   -5.4268   14.8790  -34.6809 H   0  0  0  0  0  0  0  0  0  0  0  0
   -3.8140   16.7691  -34.9665 H   0  0  0  0  0  0  0  0  0  0  0  0
   -4.3671   20.2839  -32.4289 H   0  0  0  0  0  0  0  0  0  0  0  0
  1  2  1  0
  2  3  1  0
  3  4  1  0
  4  5  2  0
  4  6  1  0
  6  7  1  0
  7  8  1  0
  8  9  1  0
  8 10  2  0
  7 11  2  0
 11 12  1  0
 12 13  2  0
 13 14  1  0
 14 15  2  0
 15 16  1  0
 16 17  2  0
 17 18  1  0
 18 19  2  0
 19 20  1  0
 20 21  2  0
 15 22  1  0
 22 23  2  0
 23  6  1  0
 23 12  1  0
 21 16  1  0
  1 24  1  0
  1 25  1  0
  1 26  1  0
  2 27  1  0
  2 28  1  0
  9 29  1  0
 11 30  1  0
 13 31  1  0
 14 32  1  0
 17 33  1  0
 18 34  1  0
 19 35  1  0
 20 36  1  0
 22 37  1  0
M  CHG  1   9  -1
M  END
>  <UniqueID>  (93) 
93

>  <SMILES>  (93) 
CCOC(=O)n1c(C([NH-])=O)cc2ccc(-c3ccccn3)cc21

>  <Energy>  (93) 
79.53977328748213

>  <Genealogy>  (93) 
CCOC(=O)n1c(C([NH-])=O)cc2ccc(-c3ccccn3)cc21 (protonated)
CCOC(=O)n1c(C([NH-])=O)cc2ccc(-c3ccccn3)cc21 (3D coordinates assigned)
CCOC(=O)n1c(C([NH-])=O)cc2ccc(-c3ccccn3)cc21 (optimized conformer: 79.53977328748213 kcal/mol)

>  <smiles>  (93) 
CCOC(=O)n1c(C(N)=O)cc2ccc(-c3ccccn3)cc21

>  <score_type>  (93) 
oracle

>  <origin>  (93) 
adg

>  <m_score__min__energy>  (93) 
-10.26

>  <m_primary>  (93) 
energy

$$$$
94:0
     RDKit          3D

 32 33  0  0  0  0  0  0  0  0999 V2000
   -3.9050   25.2440  -30.7300 N   0  0  0  0  0  0  0  0  0  0  0  0
   -5.3070   25.1610  -30.4870 C   0  0  0  0  0  0  0  0  0  0  0  0
   -5.9020   26.1390  -29.9620 O   0  0  0  0  0  0  0  0  0  0  0  0
   -6.0500   23.9420  -30.8710 C   0  0  0  0  0  0  0  0  0  0  0  0
   -7.4420   23.8510  -30.8710 C   0  0  0  0  0  0  0  0  0  0  0  0
   -7.7210   22.5560  -31.2460 C   0  0  0  0  0  0  0  0  0  0  0  0
   -8.9470   21.9220  -31.4370 C   0  0  0  0  0  0  0  0  0  0  0  0
   -8.9370   20.5830  -31.8650 C   0  0  0  0  0  0  0  0  0  0  0  0
   -7.7110   19.9080  -32.0930 C   0  0  0  0  0  0  0  0  0  0  0  0
   -7.7140   18.4910  -32.5970 C   0  0  0  0  0  0  0  0  0  0  0  0
   -6.5090   18.2420  -33.5120 C   0  0  0  0  0  0  0  0  0  0  0  0
   -6.4310   19.2580  -34.5620 N   0  0  0  0  0  0  0  0  0  0  0  0
   -6.4880   20.5890  -31.9020 C   0  0  0  0  0  0  0  0  0  0  0  0
   -6.5290   21.9130  -31.4580 C   0  0  0  0  0  0  0  0  0  0  0  0
   -5.4950   22.7500  -31.2270 N   0  0  0  0  0  0  0  0  0  0  0  0
   -4.1000   22.4510  -31.4000 C   0  0  0  0  0  0  0  0  0  0  0  0
   -3.3110   22.5720  -30.4270 O   0  0  0  0  0  0  0  0  0  0  0  0
   -3.5790   21.9980  -32.6960 C   0  0  0  0  0  0  0  0  0  0  0  0
   -4.2670   21.2500  -33.4390 O   0  0  0  0  0  0  0  0  0  0  0  0
   -3.4990   26.0490  -31.2580 H   0  0  0  0  0  0  0  0  0  0  0  0
   -8.1628   24.6444  -30.6241 H   0  0  0  0  0  0  0  0  0  0  0  0
   -9.8937   22.4530  -31.2584 H   0  0  0  0  0  0  0  0  0  0  0  0
   -9.8884   20.0544  -32.0244 H   0  0  0  0  0  0  0  0  0  0  0  0
   -7.6662   17.8024  -31.7405 H   0  0  0  0  0  0  0  0  0  0  0  0
   -8.6368   18.3203  -33.1709 H   0  0  0  0  0  0  0  0  0  0  0  0
   -5.5881   18.2738  -32.9112 H   0  0  0  0  0  0  0  0  0  0  0  0
   -6.6255   17.2560  -33.9855 H   0  0  0  0  0  0  0  0  0  0  0  0
   -7.2580   19.8930  -34.4840 H   0  0  0  0  0  0  0  0  0  0  0  0
   -6.4400   18.8040  -35.5030 H   0  0  0  0  0  0  0  0  0  0  0  0
   -5.5580   19.8230  -34.4490 H   0  0  0  0  0  0  0  0  0  0  0  0
   -5.5278   20.0894  -32.0979 H   0  0  0  0  0  0  0  0  0  0  0  0
   -2.5772   22.3155  -33.0210 H   0  0  0  0  0  0  0  0  0  0  0  0
  1  2  1  0
  2  3  2  0
  2  4  1  0
  4  5  2  0
  5  6  1  0
  6  7  2  0
  7  8  1  0
  8  9  2  0
  9 10  1  0
 10 11  1  0
 11 12  1  0
  9 13  1  0
 13 14  2  0
 14 15  1  0
 15 16  1  0
 16 17  2  0
 16 18  1  0
 18 19  2  0
 15  4  1  0
 14  6  1  0
  1 20  1  0
  5 21  1  0
  7 22  1  0
  8 23  1  0
 10 24  1  0
 10 25  1  0
 11 26  1  0
 11 27  1  0
 12 28  1  0
 12 29  1  0
 12 30  1  0
 13 31  1  0
 18 32  1  0
M  CHG  2   1  -1  12   1
M  END
>  <UniqueID>  (94) 
94

>  <SMILES>  (94) 
[NH-]C(=O)c1cc2ccc(CC[NH3+])cc2n1C(=O)C=O

>  <Energy>  (94) 
67.02586409932825

>  <Genealogy>  (94) 
[NH-]C(=O)c1cc2ccc(CC[NH3+])cc2n1C(=O)C=O (protonated)
[NH-]C(=O)c1cc2ccc(CC[NH3+])cc2n1C(=O)C=O (3D coordinates assigned)
[NH-]C(=O)c1cc2ccc(CC[NH3+])cc2n1C(=O)C=O (optimized conformer: 67.02586409932825 kcal/mol)

>  <smiles>  (94) 
NCCc1ccc2cc(C(N)=O)n(C(=O)C=O)c2c1

>  <score_type>  (94) 
oracle

>  <origin>  (94) 
adg

>  <m_score__min__energy>  (94) 
-9.1999999999999993

>  <m_primary>  (94) 
energy

$$$$
95:0
     RDKit          3D

 49 51  0  0  0  0  0  0  0  0999 V2000
   -6.4740   17.4600  -30.9580 C   0  0  0  0  0  0  0  0  0  0  0  0
   -6.3970   16.9740  -32.2940 O   0  0  0  0  0  0  0  0  0  0  0  0
   -5.2120   16.8760  -33.0450 C   0  0  0  0  0  0  0  0  0  0  0  0
   -4.6700   15.6290  -33.4040 C   0  0  0  0  0  0  0  0  0  0  0  0
   -3.5010   15.5570  -34.1650 C   0  0  0  0  0  0  0  0  0  0  0  0
   -2.9580   14.2750  -34.5300 C   0  0  0  0  0  0  0  0  0  0  0  0
   -2.5220   13.2440  -34.8230 N   0  0  0  0  0  0  0  0  0  0  0  0
   -2.8570   16.7290  -34.5700 C   0  0  0  0  0  0  0  0  0  0  0  0
   -3.3740   17.9880  -34.2150 C   0  0  0  0  0  0  0  0  0  0  0  0
   -2.7250   19.1820  -34.5800 O   0  0  0  0  0  0  0  0  0  0  0  0
   -1.5260   19.6760  -33.9910 C   0  0  0  0  0  0  0  0  0  0  0  0
   -1.6080   21.0490  -33.8350 F   0  0  0  0  0  0  0  0  0  0  0  0
   -1.3600   19.0940  -32.7490 F   0  0  0  0  0  0  0  0  0  0  0  0
   -4.5620   18.0620  -33.4550 C   0  0  0  0  0  0  0  0  0  0  0  0
   -5.1180   19.3830  -33.0700 C   0  0  0  0  0  0  0  0  0  0  0  0
   -6.4550   19.7250  -33.3990 C   0  0  0  0  0  0  0  0  0  0  0  0
   -6.9830   20.9800  -33.0450 C   0  0  0  0  0  0  0  0  0  0  0  0
   -6.1600   21.8610  -32.3490 C   0  0  0  0  0  0  0  0  0  0  0  0
   -6.4060   23.1370  -31.8930 C   0  0  0  0  0  0  0  0  0  0  0  0
   -5.2280   23.5380  -31.2620 C   0  0  0  0  0  0  0  0  0  0  0  0
   -5.0730   24.8300  -30.5620 C   0  0  0  0  0  0  0  0  0  0  0  0
   -3.9440   25.6550  -30.8380 N   0  0  0  0  0  0  0  0  0  0  0  0
   -5.9390   25.2270  -29.7380 O   0  0  0  0  0  0  0  0  0  0  0  0
   -4.2930   22.5490  -31.3300 N   0  0  0  0  0  0  0  0  0  0  0  0
   -2.9540   22.5580  -30.8120 C   0  0  0  0  0  0  0  0  0  0  0  0
   -2.0900   21.7770  -31.2950 O   0  0  0  0  0  0  0  0  0  0  0  0
   -2.6070   23.4470  -29.7400 N   0  0  0  0  0  0  0  0  0  0  0  0
   -1.3230   23.3840  -29.0470 C   0  0  0  0  0  0  0  0  0  0  0  0
   -0.8810   24.7800  -28.5990 C   0  0  0  0  0  0  0  0  0  0  0  0
   -1.8550   25.7360  -28.9230 O   0  0  0  0  0  0  0  0  0  0  0  0
   -4.8760   21.5340  -32.0000 C   0  0  0  0  0  0  0  0  0  0  0  0
   -4.3150   20.3090  -32.3680 C   0  0  0  0  0  0  0  0  0  0  0  0
   -6.3415   16.6240  -30.2555 H   0  0  0  0  0  0  0  0  0  0  0  0
   -5.6829   18.2063  -30.7931 H   0  0  0  0  0  0  0  0  0  0  0  0
   -7.4571   17.9252  -30.7931 H   0  0  0  0  0  0  0  0  0  0  0  0
   -5.1704   14.7035  -33.0831 H   0  0  0  0  0  0  0  0  0  0  0  0
   -1.9381   16.6665  -35.1714 H   0  0  0  0  0  0  0  0  0  0  0  0
   -0.6745   19.4320  -34.6432 H   0  0  0  0  0  0  0  0  0  0  0  0
   -7.0854   19.0013  -33.9365 H   0  0  0  0  0  0  0  0  0  0  0  0
   -8.0142   21.2566  -33.3099 H   0  0  0  0  0  0  0  0  0  0  0  0
   -7.3342   23.7169  -32.0029 H   0  0  0  0  0  0  0  0  0  0  0  0
   -2.9710   25.2960  -30.7080 H   0  0  0  0  0  0  0  0  0  0  0  0
   -3.2860   24.1930  -29.4660 H   0  0  0  0  0  0  0  0  0  0  0  0
   -1.4207   22.7354  -28.1640 H   0  0  0  0  0  0  0  0  0  0  0  0
   -0.5682   22.9783  -29.7368 H   0  0  0  0  0  0  0  0  0  0  0  0
   -0.7256   24.7775  -27.5100 H   0  0  0  0  0  0  0  0  0  0  0  0
    0.0543   25.0382  -29.1172 H   0  0  0  0  0  0  0  0  0  0  0  0
   -1.9980   25.6760  -29.9030 H   0  0  0  0  0  0  0  0  0  0  0  0
   -3.2710   20.0707  -32.1167 H   0  0  0  0  0  0  0  0  0  0  0  0
  1  2  1  0
  2  3  1  0
  3  4  2  0
  4  5  1  0
  5  6  1  0
  6  7  3  0
  5  8  2  0
  8  9  1  0
  9 10  1  0
 10 11  1  0
 11 12  1  0
 11 13  1  0
  9 14  2  0
 14 15  1  0
 15 16  2  0
 16 17  1  0
 17 18  2  0
 18 19  1  0
 19 20  2  0
 20 21  1  0
 21 22  1  0
 21 23  2  0
 20 24  1  0
 24 25  1  0
 25 26  2  0
 25 27  1  0
 27 28  1  0
 28 29  1  0
 29 30  1  0
 24 31  1  0
 31 32  2  0
 14  3  1  0
 32 15  1  0
 31 18  1  0
  1 33  1  0
  1 34  1  0
  1 35  1  0
  4 36  1  0
  8 37  1  0
 11 38  1  0
 16 39  1  0
 17 40  1  0
 19 41  1  0
 22 42  1  0
 27 43  1  0
 28 44  1  0
 28 45  1  0
 29 46  1  0
 29 47  1  0
 30 48  1  0
 32 49  1  0
M  CHG  1  22  -1
M  END
>  <UniqueID>  (95) 
95

>  <SMILES>  (95) 
COc1cc(C#N)cc(OC(F)F)c1-c1ccc2cc(C([NH-])=O)n(C(=O)NCCO)c2c1

>  <Energy>  (95) 
89.97583906037131

>  <Genealogy>  (95) 
COc1cc(C#N)cc(OC(F)F)c1-c1ccc2cc(C([NH-])=O)n(C(=O)NCCO)c2c1 (protonated)
COc1cc(C#N)cc(OC(F)F)c1-c1ccc2cc(C([NH-])=O)n(C(=O)NCCO)c2c1 (3D coordinates assigned)
COc1cc(C#N)cc(OC(F)F)c1-c1ccc2cc(C([NH-])=O)n(C(=O)NCCO)c2c1 (optimized conformer: 89.97583906037131 kcal/mol)

>  <smiles>  (95) 
COc1cc(C#N)cc(OC(F)F)c1-c1ccc2cc(C(N)=O)n(C(=O)NCCO)c2c1

>  <score_type>  (95) 
oracle

>  <origin>  (95) 
adg

>  <m_score__min__energy>  (95) 
-10.66

>  <m_primary>  (95) 
energy

$$$$
96:0
     RDKit          3D

 37 39  0  0  0  0  0  0  0  0999 V2000
   -9.8590   21.5750  -31.5720 C   0  0  0  0  0  0  0  0  0  0  0  0
   -8.6030   20.8630  -31.9650 C   0  0  0  0  0  0  0  0  0  0  0  0
   -7.4490   21.5810  -32.2980 C   0  0  0  0  0  0  0  0  0  0  0  0
   -6.3270   20.9090  -32.6660 N   0  0  0  0  0  0  0  0  0  0  0  0
   -6.2970   19.5490  -32.7150 C   0  0  0  0  0  0  0  0  0  0  0  0
   -5.0410   18.8450  -33.1420 C   0  0  0  0  0  0  0  0  0  0  0  0
   -4.0250   19.8130  -33.5550 N   0  0  0  0  0  0  0  0  0  0  0  0
   -3.0920   20.4460  -32.6570 C   0  0  0  0  0  0  0  0  0  0  0  0
   -1.7750   19.9440  -32.4710 C   0  0  0  0  0  0  0  0  0  0  0  0
   -0.8800   20.5810  -31.5960 C   0  0  0  0  0  0  0  0  0  0  0  0
   -1.3230   21.7100  -30.9150 C   0  0  0  0  0  0  0  0  0  0  0  0
   -0.6580   22.5290  -30.0330 C   0  0  0  0  0  0  0  0  0  0  0  0
   -1.5790   23.5090  -29.6720 C   0  0  0  0  0  0  0  0  0  0  0  0
   -1.3020   24.5510  -28.6630 C   0  0  0  0  0  0  0  0  0  0  0  0
   -1.6140   25.9200  -28.9160 N   0  0  0  0  0  0  0  0  0  0  0  0
   -0.8290   24.2240  -27.5410 O   0  0  0  0  0  0  0  0  0  0  0  0
   -2.7660   23.3100  -30.3130 N   0  0  0  0  0  0  0  0  0  0  0  0
   -3.9310   24.1510  -30.2850 C   0  0  0  0  0  0  0  0  0  0  0  0
   -5.0180   23.7150  -29.8240 O   0  0  0  0  0  0  0  0  0  0  0  0
   -3.8760   25.4420  -30.7950 O   0  0  0  0  0  0  0  0  0  0  0  0
   -2.5920   22.2020  -31.0690 C   0  0  0  0  0  0  0  0  0  0  0  0
   -3.4990   21.5980  -31.9490 C   0  0  0  0  0  0  0  0  0  0  0  0
   -7.4590   18.8320  -32.4000 C   0  0  0  0  0  0  0  0  0  0  0  0
   -8.5810   19.5050  -32.0330 N   0  0  0  0  0  0  0  0  0  0  0  0
   -9.9298   21.6151  -30.4750 H   0  0  0  0  0  0  0  0  0  0  0  0
   -9.8423   22.5980  -31.9760 H   0  0  0  0  0  0  0  0  0  0  0  0
  -10.7282   21.0353  -31.9760 H   0  0  0  0  0  0  0  0  0  0  0  0
   -7.4503   22.6804  -32.2621 H   0  0  0  0  0  0  0  0  0  0  0  0
   -4.6546   18.2519  -32.3000 H   0  0  0  0  0  0  0  0  0  0  0  0
   -5.2735   18.1888  -33.9936 H   0  0  0  0  0  0  0  0  0  0  0  0
   -3.9980   20.0730  -34.5670 H   0  0  0  0  0  0  0  0  0  0  0  0
   -1.4532   19.0461  -33.0189 H   0  0  0  0  0  0  0  0  0  0  0  0
    0.1414   20.1983  -31.4534 H   0  0  0  0  0  0  0  0  0  0  0  0
    0.3813   22.4308  -29.6861 H   0  0  0  0  0  0  0  0  0  0  0  0
   -1.2160   26.4170  -29.7430 H   0  0  0  0  0  0  0  0  0  0  0  0
   -4.5085   22.0129  -32.0859 H   0  0  0  0  0  0  0  0  0  0  0  0
   -7.4629   17.7331  -32.4494 H   0  0  0  0  0  0  0  0  0  0  0  0
  1  2  1  0
  2  3  2  0
  3  4  1  0
  4  5  2  0
  5  6  1  0
  6  7  1  0
  7  8  1  0
  8  9  2  0
  9 10  1  0
 10 11  2  0
 11 12  1  0
 12 13  2  0
 13 14  1  0
 14 15  1  0
 14 16  2  0
 13 17  1  0
 17 18  1  0
 18 19  2  0
 18 20  1  0
 17 21  1  0
 21 22  2  0
  5 23  1  0
 23 24  2  0
 24  2  1  0
 22  8  1  0
 21 11  1  0
  1 25  1  0
  1 26  1  0
  1 27  1  0
  3 28  1  0
  6 29  1  0
  6 30  1  0
  7 31  1  0
  9 32  1  0
 10 33  1  0
 12 34  1  0
 15 35  1  0
 22 36  1  0
 23 37  1  0
M  CHG  2  15  -1  20  -1
M  END
>  <UniqueID>  (96) 
96

>  <SMILES>  (96) 
Cc1cnc(CNc2ccc3cc(C([NH-])=O)n(C(=O)[O-])c3c2)cn1

>  <Energy>  (96) 
79.16627907196704

>  <Genealogy>  (96) 
Cc1cnc(CNc2ccc3cc(C([NH-])=O)n(C(=O)[O-])c3c2)cn1 (protonated)
Cc1cnc(CNc2ccc3cc(C([NH-])=O)n(C(=O)[O-])c3c2)cn1 (3D coordinates assigned)
Cc1cnc(CNc2ccc3cc(C([NH-])=O)n(C(=O)[O-])c3c2)cn1 (optimized conformer: 79.16627907196704 kcal/mol)

>  <smiles>  (96) 
Cc1cnc(CNc2ccc3cc(C(N)=O)n(C(=O)O)c3c2)cn1

>  <score_type>  (96) 
oracle

>  <origin>  (96) 
adg

>  <m_score__min__energy>  (96) 
-11.550000000000001

>  <m_primary>  (96) 
energy

$$$$
97:0
     RDKit          3D

 34 35  0  0  0  0  0  0  0  0999 V2000
   -3.9490   25.6520  -30.8420 N   0  0  0  0  0  0  0  0  0  0  0  0
   -5.2510   25.2090  -30.4650 C   0  0  0  0  0  0  0  0  0  0  0  0
   -5.9630   25.9430  -29.7300 O   0  0  0  0  0  0  0  0  0  0  0  0
   -5.7630   23.9190  -30.9720 C   0  0  0  0  0  0  0  0  0  0  0  0
   -7.0840   23.7190  -31.3670 C   0  0  0  0  0  0  0  0  0  0  0  0
   -7.1740   22.3820  -31.6800 C   0  0  0  0  0  0  0  0  0  0  0  0
   -8.2580   21.6420  -32.1440 C   0  0  0  0  0  0  0  0  0  0  0  0
   -8.0570   20.2790  -32.4160 C   0  0  0  0  0  0  0  0  0  0  0  0
   -6.7860   19.6830  -32.2190 C   0  0  0  0  0  0  0  0  0  0  0  0
   -6.5700   18.2360  -32.5590 C   0  0  0  0  0  0  0  0  0  0  0  0
   -5.7820   18.1160  -33.8270 C   0  0  0  0  0  0  0  0  0  0  0  0
   -6.1070   18.9230  -34.9590 N   0  0  0  0  0  0  0  0  0  0  0  0
   -4.8020   17.3270  -33.8830 O   0  0  0  0  0  0  0  0  0  0  0  0
   -5.7070   20.4680  -31.7580 C   0  0  0  0  0  0  0  0  0  0  0  0
   -5.9390   21.8200  -31.4780 C   0  0  0  0  0  0  0  0  0  0  0  0
   -5.0610   22.7510  -31.0470 N   0  0  0  0  0  0  0  0  0  0  0  0
   -3.6640   22.5430  -30.7860 C   0  0  0  0  0  0  0  0  0  0  0  0
   -2.9990   21.7500  -31.5070 O   0  0  0  0  0  0  0  0  0  0  0  0
   -3.0520   23.2030  -29.7130 O   0  0  0  0  0  0  0  0  0  0  0  0
   -1.6930   22.9950  -29.3390 C   0  0  0  0  0  0  0  0  0  0  0  0
   -1.0100   24.3030  -29.0870 C   0  0  0  0  0  0  0  0  0  0  0  0
   -1.6540   25.3400  -29.0680 O   0  0  0  0  0  0  0  0  0  0  0  0
   -3.0960   25.2770  -30.3710 H   0  0  0  0  0  0  0  0  0  0  0  0
   -7.8854   24.4707  -31.4179 H   0  0  0  0  0  0  0  0  0  0  0  0
   -9.2420   22.1106  -32.2930 H   0  0  0  0  0  0  0  0  0  0  0  0
   -8.8938   19.6680  -32.7854 H   0  0  0  0  0  0  0  0  0  0  0  0
   -6.0191   17.7486  -31.7411 H   0  0  0  0  0  0  0  0  0  0  0  0
   -7.5469   17.7491  -32.6954 H   0  0  0  0  0  0  0  0  0  0  0  0
   -6.9040   19.5960  -34.9210 H   0  0  0  0  0  0  0  0  0  0  0  0
   -5.5460   18.8500  -35.8370 H   0  0  0  0  0  0  0  0  0  0  0  0
   -4.7080   20.0280  -31.6221 H   0  0  0  0  0  0  0  0  0  0  0  0
   -1.6591   22.3870  -28.4229 H   0  0  0  0  0  0  0  0  0  0  0  0
   -1.1748   22.4764  -30.1591 H   0  0  0  0  0  0  0  0  0  0  0  0
    0.0766   24.3299  -28.9182 H   0  0  0  0  0  0  0  0  0  0  0  0
  1  2  1  0
  2  3  2  0
  2  4  1  0
  4  5  2  0
  5  6  1  0
  6  7  2  0
  7  8  1  0
  8  9  2  0
  9 10  1  0
 10 11  1  0
 11 12  1  0
 11 13  2  0
  9 14  1  0
 14 15  2  0
 15 16  1  0
 16 17  1  0
 17 18  2  0
 17 19  1  0
 19 20  1  0
 20 21  1  0
 21 22  2  0
 16  4  1  0
 15  6  1  0
  1 23  1  0
  5 24  1  0
  7 25  1  0
  8 26  1  0
 10 27  1  0
 10 28  1  0
 12 29  1  0
 12 30  1  0
 14 31  1  0
 20 32  1  0
 20 33  1  0
 21 34  1  0
M  CHG  1   1  -1
M  END
>  <UniqueID>  (97) 
97

>  <SMILES>  (97) 
[NH-]C(=O)c1cc2ccc(CC(N)=O)cc2n1C(=O)OCC=O

>  <Energy>  (97) 
66.69750224401704

>  <Genealogy>  (97) 
[NH-]C(=O)c1cc2ccc(CC(N)=O)cc2n1C(=O)OCC=O (protonated)
[NH-]C(=O)c1cc2ccc(CC(N)=O)cc2n1C(=O)OCC=O (3D coordinates assigned)
[NH-]C(=O)c1cc2ccc(CC(N)=O)cc2n1C(=O)OCC=O (optimized conformer: 66.69750224401704 kcal/mol)

>  <smiles>  (97) 
NC(=O)Cc1ccc2cc(C(N)=O)n(C(=O)OCC=O)c2c1

>  <score_type>  (97) 
oracle

>  <origin>  (97) 
adg

>  <m_score__min__energy>  (97) 
-10.06

>  <m_primary>  (97) 
energy

$$$$
98:0
     RDKit          3D

 47 48  0  0  0  0  0  0  0  0999 V2000
   -6.9190   18.3250  -32.3960 C   0  0  0  0  0  0  0  0  0  0  0  0
   -7.0790   19.7780  -32.0650 C   0  0  0  0  0  0  0  0  0  0  0  0
   -8.3400   20.4080  -32.2090 C   0  0  0  0  0  0  0  0  0  0  0  0
   -8.4880   21.7820  -31.9460 C   0  0  0  0  0  0  0  0  0  0  0  0
   -7.3610   22.4970  -31.5520 C   0  0  0  0  0  0  0  0  0  0  0  0
   -7.2110   23.8340  -31.2500 C   0  0  0  0  0  0  0  0  0  0  0  0
   -5.8600   23.9940  -30.9430 C   0  0  0  0  0  0  0  0  0  0  0  0
   -5.2470   25.2840  -30.5630 C   0  0  0  0  0  0  0  0  0  0  0  0
   -3.8740   25.5540  -30.8400 N   0  0  0  0  0  0  0  0  0  0  0  0
   -5.9380   26.1550  -29.9710 O   0  0  0  0  0  0  0  0  0  0  0  0
   -5.2090   22.8050  -31.0450 N   0  0  0  0  0  0  0  0  0  0  0  0
   -3.8200   22.5400  -30.8290 C   0  0  0  0  0  0  0  0  0  0  0  0
   -3.0040   22.7140  -31.7730 O   0  0  0  0  0  0  0  0  0  0  0  0
   -3.3720   22.0240  -29.4890 C   0  0  0  0  0  0  0  0  0  0  0  0
   -2.6050   23.2770  -28.4670 S   0  0  0  0  0  0  0  0  0  0  0  0
   -1.6460   22.6040  -27.5250 O   0  0  0  0  0  0  0  0  0  0  0  0
   -1.8490   24.2340  -29.3440 O   0  0  0  0  0  0  0  0  0  0  0  0
   -3.8610   24.1590  -27.5390 C   0  0  0  0  0  0  0  0  0  0  0  0
   -3.2940   24.9700  -26.3640 C   0  0  0  0  0  0  0  0  0  0  0  0
   -1.8670   25.4980  -26.6050 C   0  0  0  0  0  0  0  0  0  0  0  0
   -1.6110   26.7380  -25.8390 N   0  0  0  0  0  0  0  0  0  0  0  0
   -1.2360   26.4170  -24.4530 C   0  0  0  0  0  0  0  0  0  0  0  0
   -0.5410   27.5380  -26.4620 C   0  0  0  0  0  0  0  0  0  0  0  0
   -6.1340   21.9010  -31.4200 C   0  0  0  0  0  0  0  0  0  0  0  0
   -5.9540   20.5380  -31.6770 C   0  0  0  0  0  0  0  0  0  0  0  0
   -6.8548   17.7419  -31.4655 H   0  0  0  0  0  0  0  0  0  0  0  0
   -7.7851   17.9851  -32.9827 H   0  0  0  0  0  0  0  0  0  0  0  0
   -5.9996   18.1817  -32.9827 H   0  0  0  0  0  0  0  0  0  0  0  0
   -9.2110   19.8174  -32.5293 H   0  0  0  0  0  0  0  0  0  0  0  0
   -9.4653   22.2764  -32.0487 H   0  0  0  0  0  0  0  0  0  0  0  0
   -7.9911   24.6095  -31.2510 H   0  0  0  0  0  0  0  0  0  0  0  0
   -3.1850   24.7790  -30.9530 H   0  0  0  0  0  0  0  0  0  0  0  0
   -4.2493   21.6282  -28.9564 H   0  0  0  0  0  0  0  0  0  0  0  0
   -2.6149   21.2481  -29.6757 H   0  0  0  0  0  0  0  0  0  0  0  0
   -4.3786   24.8491  -28.2215 H   0  0  0  0  0  0  0  0  0  0  0  0
   -4.5411   23.4054  -27.1154 H   0  0  0  0  0  0  0  0  0  0  0  0
   -3.9563   25.8297  -26.1842 H   0  0  0  0  0  0  0  0  0  0  0  0
   -3.2429   24.2905  -25.5005 H   0  0  0  0  0  0  0  0  0  0  0  0
   -1.1442   24.7296  -26.2933 H   0  0  0  0  0  0  0  0  0  0  0  0
   -1.7594   25.7254  -27.6758 H   0  0  0  0  0  0  0  0  0  0  0  0
   -1.8847   26.9723  -23.7596 H   0  0  0  0  0  0  0  0  0  0  0  0
   -1.3555   25.3370  -24.2816 H   0  0  0  0  0  0  0  0  0  0  0  0
   -0.1874   26.7016  -24.2816 H   0  0  0  0  0  0  0  0  0  0  0  0
    0.0762   27.9994  -25.6770 H   0  0  0  0  0  0  0  0  0  0  0  0
    0.0874   26.8864  -27.0869 H   0  0  0  0  0  0  0  0  0  0  0  0
   -0.9882   28.3251  -27.0869 H   0  0  0  0  0  0  0  0  0  0  0  0
   -4.9629   20.0708  -31.5795 H   0  0  0  0  0  0  0  0  0  0  0  0
  1  2  1  0
  2  3  2  0
  3  4  1  0
  4  5  2  0
  5  6  1  0
  6  7  2  0
  7  8  1  0
  8  9  1  0
  8 10  2  0
  7 11  1  0
 11 12  1  0
 12 13  2  0
 12 14  1  0
 14 15  1  0
 15 16  2  0
 15 17  2  0
 15 18  1  0
 18 19  1  0
 19 20  1  0
 20 21  1  0
 21 22  1  0
 21 23  1  0
 11 24  1  0
 24 25  2  0
 25  2  1  0
 24  5  1  0
  1 26  1  0
  1 27  1  0
  1 28  1  0
  3 29  1  0
  4 30  1  0
  6 31  1  0
  9 32  1  0
 14 33  1  0
 14 34  1  0
 18 35  1  0
 18 36  1  0
 19 37  1  0
 19 38  1  0
 20 39  1  0
 20 40  1  0
 22 41  1  0
 22 42  1  0
 22 43  1  0
 23 44  1  0
 23 45  1  0
 23 46  1  0
 25 47  1  0
M  CHG  1   9  -1
M  END
>  <UniqueID>  (98) 
98

>  <SMILES>  (98) 
Cc1ccc2cc(C([NH-])=O)n(C(=O)CS(=O)(=O)CCCN(C)C)c2c1

>  <Energy>  (98) 
79.00385058427297

>  <Genealogy>  (98) 
Cc1ccc2cc(C([NH-])=O)n(C(=O)CS(=O)(=O)CCCN(C)C)c2c1 (protonated)
Cc1ccc2cc(C([NH-])=O)n(C(=O)CS(=O)(=O)CCCN(C)C)c2c1 (3D coordinates assigned)
Cc1ccc2cc(C([NH-])=O)n(C(=O)CS(=O)(=O)CCCN(C)C)c2c1 (optimized conformer: 79.00385058427297 kcal/mol)

>  <smiles>  (98) 
Cc1ccc2cc(C(N)=O)n(C(=O)CS(=O)(=O)CCCN(C)C)c2c1

>  <score_type>  (98) 
oracle

>  <origin>  (98) 
adg

>  <m_score__min__energy>  (98) 
-11.220000000000001

>  <m_primary>  (98) 
energy

$$$$
