1:0
     RDKit          3D

 39 40  0  0  0  0  0  0  0  0999 V2000
   -2.6260   20.7810  -32.9240 C   0  0  0  0  0  0  0  0  0  0  0  0
   -3.3120   21.9200  -33.0000 C   0  0  0  0  0  0  0  0  0  0  0  0
   -3.7780   22.6520  -31.8080 C   0  0  0  0  0  0  0  0  0  0  0  0
   -2.9250   23.1560  -31.0300 O   0  0  0  0  0  0  0  0  0  0  0  0
   -5.1760   22.7980  -31.5110 N   0  0  0  0  0  0  0  0  0  0  0  0
   -5.7640   23.7470  -30.7310 C   0  0  0  0  0  0  0  0  0  0  0  0
   -5.0770   24.8990  -30.1110 C   0  0  0  0  0  0  0  0  0  0  0  0
   -4.0170   25.5520  -30.8070 N   0  0  0  0  0  0  0  0  0  0  0  0
   -5.4070   25.3050  -28.9660 O   0  0  0  0  0  0  0  0  0  0  0  0
   -7.1340   23.5080  -30.6250 C   0  0  0  0  0  0  0  0  0  0  0  0
   -7.3630   22.3680  -31.3630 C   0  0  0  0  0  0  0  0  0  0  0  0
   -8.5450   21.6710  -31.5920 C   0  0  0  0  0  0  0  0  0  0  0  0
   -8.4800   20.5060  -32.3760 C   0  0  0  0  0  0  0  0  0  0  0  0
   -7.2430   20.0510  -32.9040 C   0  0  0  0  0  0  0  0  0  0  0  0
   -7.1850   18.8440  -33.7010 N   0  0  0  0  0  0  0  0  0  0  0  0
   -6.3000   17.7900  -33.1350 C   0  0  0  0  0  0  0  0  0  0  0  0
   -6.8250   16.3730  -33.4820 C   0  0  0  0  0  0  0  0  0  0  0  0
   -6.3000   17.9180  -31.5950 C   0  0  0  0  0  0  0  0  0  0  0  0
   -4.8690   17.9730  -33.6200 C   0  0  0  0  0  0  0  0  0  0  0  0
   -4.6020   18.7330  -34.5900 O   0  0  0  0  0  0  0  0  0  0  0  0
   -3.8260   17.3350  -32.9570 O   0  0  0  0  0  0  0  0  0  0  0  0
   -6.0660   20.7980  -32.6560 C   0  0  0  0  0  0  0  0  0  0  0  0
   -6.1650   21.9590  -31.8840 C   0  0  0  0  0  0  0  0  0  0  0  0
   -2.3005   20.2726  -33.8435 H   0  0  0  0  0  0  0  0  0  0  0  0
   -2.3849   20.3486  -31.9417 H   0  0  0  0  0  0  0  0  0  0  0  0
   -3.5406   22.3320  -33.9940 H   0  0  0  0  0  0  0  0  0  0  0  0
   -3.0200   25.2980  -30.6270 H   0  0  0  0  0  0  0  0  0  0  0  0
   -7.8740   24.1033  -30.0701 H   0  0  0  0  0  0  0  0  0  0  0  0
   -9.5001   22.0204  -31.1729 H   0  0  0  0  0  0  0  0  0  0  0  0
   -9.3998   19.9393  -32.5832 H   0  0  0  0  0  0  0  0  0  0  0  0
   -8.1580   18.4670  -33.8070 H   0  0  0  0  0  0  0  0  0  0  0  0
   -6.8630   19.0900  -34.6670 H   0  0  0  0  0  0  0  0  0  0  0  0
   -7.0298   15.8202  -32.5533 H   0  0  0  0  0  0  0  0  0  0  0  0
   -7.7510   16.4588  -34.0695 H   0  0  0  0  0  0  0  0  0  0  0  0
   -6.0666   15.8347  -34.0695 H   0  0  0  0  0  0  0  0  0  0  0  0
   -5.2629   17.9484  -31.2296 H   0  0  0  0  0  0  0  0  0  0  0  0
   -6.8185   18.8434  -31.3040 H   0  0  0  0  0  0  0  0  0  0  0  0
   -6.8185   17.0533  -31.1552 H   0  0  0  0  0  0  0  0  0  0  0  0
   -5.0966   20.4723  -33.0613 H   0  0  0  0  0  0  0  0  0  0  0  0
  1  2  2  0
  2  3  1  0
  3  4  2  0
  3  5  1  0
  5  6  1  0
  6  7  1  0
  7  8  1  0
  7  9  2  0
  6 10  2  0
 10 11  1  0
 11 12  2  0
 12 13  1  0
 13 14  2  0
 14 15  1  0
 15 16  1  0
 16 17  1  0
 16 18  1  0
 16 19  1  0
 19 20  2  0
 19 21  1  0
 14 22  1  0
 22 23  2  0
 23  5  1  0
 23 11  1  0
  1 24  1  0
  1 25  1  0
  2 26  1  0
  8 27  1  0
 10 28  1  0
 12 29  1  0
 13 30  1  0
 15 31  1  0
 15 32  1  0
 17 33  1  0
 17 34  1  0
 17 35  1  0
 18 36  1  0
 18 37  1  0
 18 38  1  0
 22 39  1  0
M  CHG  3   8  -1  15   1  21  -1
M  END
>  <UniqueID>  (1) 
1

>  <SMILES>  (1) 
C=CC(=O)n1c(C([NH-])=O)cc2ccc([NH2+]C(C)(C)C(=O)[O-])cc21

>  <Energy>  (1) 
80.31743235966178

>  <Genealogy>  (1) 
C=CC(=O)n1c(C([NH-])=O)cc2ccc([NH2+]C(C)(C)C(=O)[O-])cc21 (protonated)
C=CC(=O)n1c(C([NH-])=O)cc2ccc([NH2+]C(C)(C)C(=O)[O-])cc21 (3D coordinates assigned)
C=CC(=O)n1c(C([NH-])=O)cc2ccc([NH2+]C(C)(C)C(=O)[O-])cc21 (optimized conformer: 80.31743235966178 kcal/mol)

>  <smiles>  (1) 
C=CC(=O)n1c(C(N)=O)cc2ccc(NC(C)(C)C(=O)O)cc21

>  <score_type>  (1) 
oracle

>  <origin>  (1) 
adg

>  <m_score__min__energy>  (1) 
-9.8800000000000008

>  <m_primary>  (1) 
energy

$$$$
2:0
     RDKit          3D

 44 45  0  0  0  0  0  0  0  0999 V2000
   -3.4990   26.0380  -31.2180 H   0  0  0  0  0  0  0  0  0  0  0  0
   -3.8620   25.3320  -30.5390 N   0  0  0  0  0  0  0  0  0  0  0  0
   -5.2630   25.1460  -30.3540 C   0  0  0  0  0  0  0  0  0  0  0  0
   -5.9170   26.0030  -29.7000 O   0  0  0  0  0  0  0  0  0  0  0  0
   -5.9510   23.9510  -30.8860 C   0  0  0  0  0  0  0  0  0  0  0  0
   -7.3360   23.8480  -31.0140 C   0  0  0  0  0  0  0  0  0  0  0  0
   -8.0858   24.6194  -30.7842 H   0  0  0  0  0  0  0  0  0  0  0  0
   -7.5660   22.5760  -31.4890 C   0  0  0  0  0  0  0  0  0  0  0  0
   -8.7610   21.9350  -31.8000 C   0  0  0  0  0  0  0  0  0  0  0  0
   -9.7276   22.4449  -31.6750 H   0  0  0  0  0  0  0  0  0  0  0  0
   -8.6940   20.6150  -32.2790 C   0  0  0  0  0  0  0  0  0  0  0  0
   -9.6230   20.0818  -32.5295 H   0  0  0  0  0  0  0  0  0  0  0  0
   -7.4480   19.9610  -32.4440 C   0  0  0  0  0  0  0  0  0  0  0  0
   -7.4280   18.6020  -32.9230 N   0  0  0  0  0  0  0  0  0  0  0  0
   -8.0180   18.3580  -33.7520 H   0  0  0  0  0  0  0  0  0  0  0  0
   -6.6390   17.5220  -32.3260 C   0  0  0  0  0  0  0  0  0  0  0  0
   -5.7903   17.9562  -31.7772 H   0  0  0  0  0  0  0  0  0  0  0  0
   -7.2841   16.9499  -31.6429 H   0  0  0  0  0  0  0  0  0  0  0  0
   -6.1070   16.5760  -33.4070 C   0  0  0  0  0  0  0  0  0  0  0  0
   -5.0498   16.8075  -33.6038 H   0  0  0  0  0  0  0  0  0  0  0  0
   -6.2058   15.5384  -33.0554 H   0  0  0  0  0  0  0  0  0  0  0  0
   -6.8420   16.7290  -34.5900 O   0  0  0  0  0  0  0  0  0  0  0  0
   -6.8250   17.6960  -34.8130 H   0  0  0  0  0  0  0  0  0  0  0  0
   -6.2540   20.6590  -32.1380 C   0  0  0  0  0  0  0  0  0  0  0  0
   -5.2718   20.1877  -32.2902 H   0  0  0  0  0  0  0  0  0  0  0  0
   -6.3530   21.9610  -31.6380 C   0  0  0  0  0  0  0  0  0  0  0  0
   -5.3510   22.7880  -31.2650 N   0  0  0  0  0  0  0  0  0  0  0  0
   -3.9440   22.5090  -31.3490 C   0  0  0  0  0  0  0  0  0  0  0  0
   -3.4450   22.1680  -32.4550 O   0  0  0  0  0  0  0  0  0  0  0  0
   -3.0680   22.5770  -30.1620 C   0  0  0  0  0  0  0  0  0  0  0  0
   -3.4739   22.2708  -29.1866 H   0  0  0  0  0  0  0  0  0  0  0  0
   -1.7990   22.9970  -30.2280 C   0  0  0  0  0  0  0  0  0  0  0  0
   -1.3789   23.2536  -31.2117 H   0  0  0  0  0  0  0  0  0  0  0  0
   -0.9400   23.1300  -29.0350 C   0  0  0  0  0  0  0  0  0  0  0  0
   -0.1930   24.1410  -28.9440 O   0  0  0  0  0  0  0  0  0  0  0  0
   -0.9400   22.1560  -27.9770 N   0  0  0  0  0  0  0  0  0  0  0  0
   -0.9320   22.6130  -26.5880 C   0  0  0  0  0  0  0  0  0  0  0  0
   -0.9472   21.7426  -25.9155 H   0  0  0  0  0  0  0  0  0  0  0  0
   -0.0234   23.2044  -26.4018 H   0  0  0  0  0  0  0  0  0  0  0  0
   -1.8194   23.2358  -26.4018 H   0  0  0  0  0  0  0  0  0  0  0  0
   -0.8180   20.7250  -28.2640 C   0  0  0  0  0  0  0  0  0  0  0  0
   -0.7702   20.1643  -27.3189 H   0  0  0  0  0  0  0  0  0  0  0  0
   -1.6910   20.3917  -28.8443 H   0  0  0  0  0  0  0  0  0  0  0  0
    0.0988   20.5443  -28.8443 H   0  0  0  0  0  0  0  0  0  0  0  0
  1  2  1  0
  2  3  1  0
  3  4  2  0
  3  5  1  0
  5  6  2  0
  6  7  1  0
  6  8  1  0
  8  9  2  0
  9 10  1  0
  9 11  1  0
 11 12  1  0
 11 13  2  0
 13 14  1  0
 14 15  1  0
 14 16  1  0
 16 17  1  0
 16 18  1  0
 16 19  1  0
 19 20  1  0
 19 21  1  0
 19 22  1  0
 22 23  1  0
 13 24  1  0
 24 25  1  0
 24 26  2  0
 26 27  1  0
 27 28  1  0
 28 29  2  0
 28 30  1  0
 30 31  1  0
 30 32  2  0
 32 33  1  0
 32 34  1  0
 34 35  2  0
 34 36  1  0
 36 37  1  0
 37 38  1  0
 37 39  1  0
 37 40  1  0
 36 41  1  0
 41 42  1  0
 41 43  1  0
 41 44  1  0
 27  5  1  0
 26  8  1  0
M  CHG  1   2  -1
M  END
>  <UniqueID>  (2) 
2

>  <SMILES>  (2) 
CN(C)C(=O)/C=C/C(=O)n1c(C([NH-])=O)cc2ccc(NCCO)cc21

>  <Energy>  (2) 
80.4813897318125

>  <Genealogy>  (2) 
CN(C)C(=O)/C=C/C(=O)n1c(C([NH-])=O)cc2ccc(NCCO)cc21 (protonated)
CN(C)C(=O)/C=C/C(=O)n1c(C([NH-])=O)cc2ccc(NCCO)cc21 (cis-trans isomerization)
CN(C)C(=O)/C=C/C(=O)n1c(C([NH-])=O)cc2ccc(NCCO)cc21 (3D coordinates assigned)
CN(C)C(=O)/C=C/C(=O)n1c(C([NH-])=O)cc2ccc(NCCO)cc21 (optimized conformer: 80.4813897318125 kcal/mol)

>  <smiles>  (2) 
CN(C)C(=O)/C=C/C(=O)n1c(C(N)=O)cc2ccc(NCCO)cc21

>  <score_type>  (2) 
oracle

>  <origin>  (2) 
adg

>  <m_score__min__energy>  (2) 
-10.539999999999999

>  <m_primary>  (2) 
energy

$$$$
3:0
     RDKit          3D

 45 46  0  0  0  0  0  0  0  0999 V2000
   -4.2530   22.4760  -27.7580 C   0  0  0  0  0  0  0  0  0  0  0  0
   -3.4080   21.7490  -28.7610 C   0  0  0  0  0  0  0  0  0  0  0  0
   -3.1690   20.5240  -28.5760 O   0  0  0  0  0  0  0  0  0  0  0  0
   -2.8670   22.4220  -29.9160 N   0  0  0  0  0  0  0  0  0  0  0  0
   -1.5360   23.0450  -29.8410 C   0  0  0  0  0  0  0  0  0  0  0  0
   -1.5340   24.2420  -28.9230 C   0  0  0  0  0  0  0  0  0  0  0  0
   -2.0440   25.3140  -29.3460 O   0  0  0  0  0  0  0  0  0  0  0  0
   -0.9700   24.2010  -27.5910 N   0  0  0  0  0  0  0  0  0  0  0  0
   -0.9780   25.4270  -26.7840 C   0  0  0  0  0  0  0  0  0  0  0  0
   -0.4000   22.9690  -27.0360 C   0  0  0  0  0  0  0  0  0  0  0  0
   -3.5950   22.4390  -31.1640 C   0  0  0  0  0  0  0  0  0  0  0  0
   -2.9720   22.3740  -32.2590 O   0  0  0  0  0  0  0  0  0  0  0  0
   -5.0300   22.5140  -31.1830 N   0  0  0  0  0  0  0  0  0  0  0  0
   -5.8200   23.5550  -30.7970 C   0  0  0  0  0  0  0  0  0  0  0  0
   -5.3530   24.7990  -30.1530 C   0  0  0  0  0  0  0  0  0  0  0  0
   -4.1600   25.4540  -30.5840 N   0  0  0  0  0  0  0  0  0  0  0  0
   -5.9960   25.2690  -29.1760 O   0  0  0  0  0  0  0  0  0  0  0  0
   -7.1580   23.2850  -31.0760 C   0  0  0  0  0  0  0  0  0  0  0  0
   -7.1650   22.0260  -31.6340 C   0  0  0  0  0  0  0  0  0  0  0  0
   -8.2260   21.2620  -32.1090 C   0  0  0  0  0  0  0  0  0  0  0  0
   -7.9350   20.0050  -32.6650 C   0  0  0  0  0  0  0  0  0  0  0  0
   -6.5950   19.5460  -32.7640 C   0  0  0  0  0  0  0  0  0  0  0  0
   -6.2990   18.1810  -33.3310 C   0  0  0  0  0  0  0  0  0  0  0  0
   -7.2510   17.2860  -32.8820 F   0  0  0  0  0  0  0  0  0  0  0  0
   -5.0470   17.7470  -32.9320 F   0  0  0  0  0  0  0  0  0  0  0  0
   -6.3250   18.2120  -34.7150 F   0  0  0  0  0  0  0  0  0  0  0  0
   -5.5470   20.3450  -32.2500 C   0  0  0  0  0  0  0  0  0  0  0  0
   -5.8700   21.5840  -31.6860 C   0  0  0  0  0  0  0  0  0  0  0  0
   -3.9338   22.2013  -26.7418 H   0  0  0  0  0  0  0  0  0  0  0  0
   -4.1368   23.5608  -27.8982 H   0  0  0  0  0  0  0  0  0  0  0  0
   -5.3083   22.1991  -27.8982 H   0  0  0  0  0  0  0  0  0  0  0  0
   -0.8159   22.3042  -29.4632 H   0  0  0  0  0  0  0  0  0  0  0  0
   -1.2578   23.3845  -30.8496 H   0  0  0  0  0  0  0  0  0  0  0  0
   -0.9763   25.1631  -25.7161 H   0  0  0  0  0  0  0  0  0  0  0  0
   -0.0837   26.0242  -27.0155 H   0  0  0  0  0  0  0  0  0  0  0  0
   -1.8800   26.0125  -27.0155 H   0  0  0  0  0  0  0  0  0  0  0  0
   -0.4223   23.0172  -25.9373 H   0  0  0  0  0  0  0  0  0  0  0  0
   -0.9902   22.1057  -27.3772 H   0  0  0  0  0  0  0  0  0  0  0  0
    0.6400   22.8600  -27.3772 H   0  0  0  0  0  0  0  0  0  0  0  0
   -3.5050   24.9950  -31.2530 H   0  0  0  0  0  0  0  0  0  0  0  0
   -3.8810   26.3670  -30.1600 H   0  0  0  0  0  0  0  0  0  0  0  0
   -8.0237   23.9378  -30.8903 H   0  0  0  0  0  0  0  0  0  0  0  0
   -9.2608   21.6306  -32.0511 H   0  0  0  0  0  0  0  0  0  0  0  0
   -8.7554   19.3686  -33.0281 H   0  0  0  0  0  0  0  0  0  0  0  0
   -4.5032   20.0005  -32.2927 H   0  0  0  0  0  0  0  0  0  0  0  0
  1  2  1  0
  2  3  2  0
  2  4  1  0
  4  5  1  0
  5  6  1  0
  6  7  2  0
  6  8  1  0
  8  9  1  0
  8 10  1  0
  4 11  1  0
 11 12  2  0
 11 13  1  0
 13 14  1  0
 14 15  1  0
 15 16  1  0
 15 17  2  0
 14 18  2  0
 18 19  1  0
 19 20  2  0
 20 21  1  0
 21 22  2  0
 22 23  1  0
 23 24  1  0
 23 25  1  0
 23 26  1  0
 22 27  1  0
 27 28  2  0
 28 13  1  0
 28 19  1  0
  1 29  1  0
  1 30  1  0
  1 31  1  0
  5 32  1  0
  5 33  1  0
  9 34  1  0
  9 35  1  0
  9 36  1  0
 10 37  1  0
 10 38  1  0
 10 39  1  0
 16 40  1  0
 16 41  1  0
 18 42  1  0
 20 43  1  0
 21 44  1  0
 27 45  1  0
M  END
>  <UniqueID>  (3) 
3

>  <SMILES>  (3) 
CC(=O)N(CC(=O)N(C)C)C(=O)n1c(C(N)=O)cc2ccc(C(F)(F)F)cc21

>  <Energy>  (3) 
84.16126719597322

>  <Genealogy>  (3) 
CC(=O)N(CC(=O)N(C)C)C(=O)n1c(C(N)=O)cc2ccc(C(F)(F)F)cc21 (3D coordinates assigned)
CC(=O)N(CC(=O)N(C)C)C(=O)n1c(C(N)=O)cc2ccc(C(F)(F)F)cc21 (optimized conformer: 84.16126719597322 kcal/mol)

>  <smiles>  (3) 
CC(=O)N(CC(=O)N(C)C)C(=O)n1c(C(N)=O)cc2ccc(C(F)(F)F)cc21

>  <score_type>  (3) 
oracle

>  <origin>  (3) 
adg

>  <m_score__min__energy>  (3) 
-8.7100000000000009

>  <m_primary>  (3) 
energy

$$$$
4:0
     RDKit          3D

 37 38  0  0  0  0  0  0  0  0999 V2000
   -3.6540   25.2900  -30.7170 N   0  0  0  0  0  0  0  0  0  0  0  0
   -5.0710   25.2590  -30.5640 C   0  0  0  0  0  0  0  0  0  0  0  0
   -5.6630   26.2690  -30.1020 O   0  0  0  0  0  0  0  0  0  0  0  0
   -5.8290   24.0600  -30.9710 C   0  0  0  0  0  0  0  0  0  0  0  0
   -7.2040   24.0530  -31.2020 C   0  0  0  0  0  0  0  0  0  0  0  0
   -7.5230   22.7400  -31.4710 C   0  0  0  0  0  0  0  0  0  0  0  0
   -8.7520   22.1570  -31.7610 C   0  0  0  0  0  0  0  0  0  0  0  0
   -8.7830   20.7720  -31.9980 C   0  0  0  0  0  0  0  0  0  0  0  0
   -7.5910   20.0020  -31.9640 C   0  0  0  0  0  0  0  0  0  0  0  0
   -7.6450   18.5110  -32.1780 C   0  0  0  0  0  0  0  0  0  0  0  0
   -7.2720   18.2240  -33.4780 F   0  0  0  0  0  0  0  0  0  0  0  0
   -8.9250   18.0320  -31.9590 F   0  0  0  0  0  0  0  0  0  0  0  0
   -6.7860   17.8610  -31.3080 F   0  0  0  0  0  0  0  0  0  0  0  0
   -6.3660   20.6300  -31.6420 C   0  0  0  0  0  0  0  0  0  0  0  0
   -6.3680   22.0080  -31.4010 C   0  0  0  0  0  0  0  0  0  0  0  0
   -5.3200   22.8020  -31.1020 N   0  0  0  0  0  0  0  0  0  0  0  0
   -3.9520   22.3800  -30.9880 C   0  0  0  0  0  0  0  0  0  0  0  0
   -3.0630   22.9840  -31.6480 O   0  0  0  0  0  0  0  0  0  0  0  0
   -3.5750   21.2850  -30.0750 C   0  0  0  0  0  0  0  0  0  0  0  0
   -3.6150   20.0950  -30.4890 O   0  0  0  0  0  0  0  0  0  0  0  0
   -3.2310   21.5560  -28.7080 N   0  0  0  0  0  0  0  0  0  0  0  0
   -2.9540   20.5190  -27.8850 F   0  0  0  0  0  0  0  0  0  0  0  0
   -2.9730   22.8820  -28.2260 C   0  0  0  0  0  0  0  0  0  0  0  0
   -3.9090   23.5290  -27.6830 O   0  0  0  0  0  0  0  0  0  0  0  0
   -1.6470   23.5680  -28.4570 C   0  0  1  0  0  0  0  0  0  0  0  0
   -1.2440   23.4770  -29.8590 N   0  0  0  0  0  0  0  0  0  0  0  0
   -1.7310   25.0030  -28.0230 C   0  0  0  0  0  0  0  0  0  0  0  0
   -1.8590   25.3000  -26.8060 O   0  0  0  0  0  0  0  0  0  0  0  0
   -1.6200   26.0180  -28.9660 O   0  0  0  0  0  0  0  0  0  0  0  0
   -3.0390   24.6680  -30.1460 H   0  0  0  0  0  0  0  0  0  0  0  0
   -7.8889   24.9134  -31.1752 H   0  0  0  0  0  0  0  0  0  0  0  0
   -9.6706   22.7607  -31.8035 H   0  0  0  0  0  0  0  0  0  0  0  0
   -9.7426   20.2788  -32.2124 H   0  0  0  0  0  0  0  0  0  0  0  0
   -5.4338   20.0491  -31.5824 H   0  0  0  0  0  0  0  0  0  0  0  0
   -0.8813   23.0567  -27.8550 H   0  0  0  0  0  0  0  0  0  0  0  0
   -1.5880   22.5660  -30.2430 H   0  0  0  0  0  0  0  0  0  0  0  0
   -1.7480   24.2230  -30.3930 H   0  0  0  0  0  0  0  0  0  0  0  0
  1  2  1  0
  2  3  2  0
  2  4  1  0
  4  5  2  0
  5  6  1  0
  6  7  2  0
  7  8  1  0
  8  9  2  0
  9 10  1  0
 10 11  1  0
 10 12  1  0
 10 13  1  0
  9 14  1  0
 14 15  2  0
 15 16  1  0
 16 17  1  0
 17 18  2  0
 17 19  1  0
 19 20  2  0
 19 21  1  0
 21 22  1  0
 21 23  1  0
 23 24  2  0
 23 25  1  0
 25 26  1  0
 25 27  1  0
 27 28  2  0
 27 29  1  0
 16  4  1  0
 15  6  1  0
  1 30  1  0
  5 31  1  0
  7 32  1  0
  8 33  1  0
 14 34  1  0
 25 35  1  1
 26 36  1  0
 26 37  1  0
M  CHG  2   1  -1  29  -1
M  END
>  <UniqueID>  (4) 
4

>  <SMILES>  (4) 
[NH-]C(=O)c1cc2ccc(C(F)(F)F)cc2n1C(=O)C(=O)N(F)C(=O)[C@@H](N)C(=O)[O-]

>  <Energy>  (4) 
82.14437476584128

>  <Genealogy>  (4) 
[NH-]C(=O)c1cc2ccc(C(F)(F)F)cc2n1C(=O)C(=O)N(F)C(=O)C(N)C(=O)[O-] (protonated)
[NH-]C(=O)c1cc2ccc(C(F)(F)F)cc2n1C(=O)C(=O)N(F)C(=O)[C@@H](N)C(=O)[O-] (chirality)
[NH-]C(=O)c1cc2ccc(C(F)(F)F)cc2n1C(=O)C(=O)N(F)C(=O)[C@@H](N)C(=O)[O-] (3D coordinates assigned)
[NH-]C(=O)c1cc2ccc(C(F)(F)F)cc2n1C(=O)C(=O)N(F)C(=O)[C@@H](N)C(=O)[O-] (optimized conformer: 82.14437476584128 kcal/mol)

>  <smiles>  (4) 
NC(=O)c1cc2ccc(C(F)(F)F)cc2n1C(=O)C(=O)N(F)C(=O)C(N)C(=O)O

>  <score_type>  (4) 
oracle

>  <origin>  (4) 
adg

>  <m_score__min__energy>  (4) 
-11.859999999999999

>  <m_primary>  (4) 
energy

$$$$
5:0
     RDKit          3D

 42 43  0  0  0  0  0  0  0  0999 V2000
   -4.6090   22.7460  -28.2270 C   0  0  0  0  0  0  0  0  0  0  0  0
   -3.7560   22.1970  -29.2830 N   0  0  0  0  0  0  0  0  0  0  0  0
   -4.3110   21.9110  -30.5800 C   0  0  0  0  0  0  0  0  0  0  0  0
   -3.7520   21.0760  -31.3410 O   0  0  0  0  0  0  0  0  0  0  0  0
   -5.5320   22.5370  -31.0010 N   0  0  0  0  0  0  0  0  0  0  0  0
   -5.8240   23.8680  -31.0620 C   0  0  0  0  0  0  0  0  0  0  0  0
   -4.9110   24.9760  -30.7040 C   0  0  0  0  0  0  0  0  0  0  0  0
   -3.5010   24.8430  -30.8430 N   0  0  0  0  0  0  0  0  0  0  0  0
   -5.3900   26.0590  -30.2640 O   0  0  0  0  0  0  0  0  0  0  0  0
   -7.1520   24.0530  -31.4430 C   0  0  0  0  0  0  0  0  0  0  0  0
   -7.6660   22.7850  -31.6130 C   0  0  0  0  0  0  0  0  0  0  0  0
   -8.9520   22.3690  -31.9500 C   0  0  0  0  0  0  0  0  0  0  0  0
   -9.2040   20.9850  -32.0100 C   0  0  0  0  0  0  0  0  0  0  0  0
   -8.1680   20.0510  -31.7580 C   0  0  0  0  0  0  0  0  0  0  0  0
   -8.4570   18.5750  -31.7690 C   0  0  0  0  0  0  0  0  0  0  0  0
   -7.2450   17.7320  -32.7700 Cl  0  0  0  0  0  0  0  0  0  0  0  0
   -6.8780   20.5100  -31.4180 C   0  0  0  0  0  0  0  0  0  0  0  0
   -6.6630   21.8900  -31.3460 C   0  0  0  0  0  0  0  0  0  0  0  0
   -2.3410   22.0670  -29.0590 C   0  0  0  0  0  0  0  0  0  0  0  0
   -1.9240   21.2150  -28.2260 O   0  0  0  0  0  0  0  0  0  0  0  0
   -1.4080   22.8970  -29.7940 N   0  0  2  0  0  0  0  0  0  0  0  0
   -0.8620   22.1750  -30.9570 C   0  0  0  0  0  0  0  0  0  0  0  0
   -0.3560   23.4620  -28.9140 C   0  0  0  0  0  0  0  0  0  0  0  0
   -0.5090   24.9390  -28.6470 C   0  0  0  0  0  0  0  0  0  0  0  0
    0.2640   25.5250  -27.8430 O   0  0  0  0  0  0  0  0  0  0  0  0
   -1.4990   25.6640  -29.2980 O   0  0  0  0  0  0  0  0  0  0  0  0
   -4.1937   22.4787  -27.2441 H   0  0  0  0  0  0  0  0  0  0  0  0
   -4.6510   23.8411  -28.3218 H   0  0  0  0  0  0  0  0  0  0  0  0
   -5.6231   22.3306  -28.3218 H   0  0  0  0  0  0  0  0  0  0  0  0
   -2.8510   25.2950  -30.1620 H   0  0  0  0  0  0  0  0  0  0  0  0
   -7.6788   25.0090  -31.5793 H   0  0  0  0  0  0  0  0  0  0  0  0
   -9.7464   23.0995  -32.1628 H   0  0  0  0  0  0  0  0  0  0  0  0
  -10.2143   20.6252  -32.2547 H   0  0  0  0  0  0  0  0  0  0  0  0
   -8.4157   18.1867  -30.7406 H   0  0  0  0  0  0  0  0  0  0  0  0
   -9.4591   18.4033  -32.1889 H   0  0  0  0  0  0  0  0  0  0  0  0
   -6.0622   19.8006  -31.2147 H   0  0  0  0  0  0  0  0  0  0  0  0
   -1.9340   23.7180  -30.1720 H   0  0  0  0  0  0  0  0  0  0  0  0
   -0.2325   21.3426  -30.6093 H   0  0  0  0  0  0  0  0  0  0  0  0
   -1.6893   21.7800  -31.5649 H   0  0  0  0  0  0  0  0  0  0  0  0
   -0.2566   22.8635  -31.5649 H   0  0  0  0  0  0  0  0  0  0  0  0
   -0.3882   22.9311  -27.9512 H   0  0  0  0  0  0  0  0  0  0  0  0
    0.6023   23.3303  -29.4377 H   0  0  0  0  0  0  0  0  0  0  0  0
  1  2  1  0
  2  3  1  0
  3  4  2  0
  3  5  1  0
  5  6  1  0
  6  7  1  0
  7  8  1  0
  7  9  2  0
  6 10  2  0
 10 11  1  0
 11 12  2  0
 12 13  1  0
 13 14  2  0
 14 15  1  0
 15 16  1  0
 14 17  1  0
 17 18  2  0
  2 19  1  0
 19 20  2  0
 19 21  1  0
 21 22  1  0
 21 23  1  0
 23 24  1  0
 24 25  2  0
 24 26  1  0
 18  5  1  0
 18 11  1  0
  1 27  1  0
  1 28  1  0
  1 29  1  0
  8 30  1  0
 10 31  1  0
 12 32  1  0
 13 33  1  0
 15 34  1  0
 15 35  1  0
 17 36  1  0
 21 37  1  6
 22 38  1  0
 22 39  1  0
 22 40  1  0
 23 41  1  0
 23 42  1  0
M  CHG  3   8  -1  21   1  26  -1
M  END
>  <UniqueID>  (5) 
5

>  <SMILES>  (5) 
CN(C(=O)n1c(C([NH-])=O)cc2ccc(CCl)cc21)C(=O)[N@H+](C)CC(=O)[O-]

>  <Energy>  (5) 
89.46735645903271

>  <Genealogy>  (5) 
CN(C(=O)n1c(C([NH-])=O)cc2ccc(CCl)cc21)C(=O)[NH+](C)CC(=O)[O-] (protonated)
CN(C(=O)n1c(C([NH-])=O)cc2ccc(CCl)cc21)C(=O)[N@H+](C)CC(=O)[O-] (chirality)
CN(C(=O)n1c(C([NH-])=O)cc2ccc(CCl)cc21)C(=O)[N@H+](C)CC(=O)[O-] (3D coordinates assigned)
CN(C(=O)n1c(C([NH-])=O)cc2ccc(CCl)cc21)C(=O)[N@H+](C)CC(=O)[O-] (optimized conformer: 89.46735645903271 kcal/mol)

>  <smiles>  (5) 
CN(CC(=O)O)C(=O)N(C)C(=O)n1c(C(N)=O)cc2ccc(CCl)cc21

>  <score_type>  (5) 
oracle

>  <origin>  (5) 
adg

>  <m_score__min__energy>  (5) 
-12.09

>  <m_primary>  (5) 
energy

$$$$
6:0
     RDKit          3D

 44 45  0  0  0  0  0  0  0  0999 V2000
   -2.0600   24.8650  -26.4080 C   0  0  0  0  0  0  0  0  0  0  0  0
   -1.8860   23.8210  -27.4230 N   0  0  0  0  0  0  0  0  0  0  0  0
   -1.9750   22.4060  -27.0440 C   0  0  0  0  0  0  0  0  0  0  0  0
   -1.6260   24.2080  -28.7900 C   0  0  0  0  0  0  0  0  0  0  0  0
   -1.5500   25.4320  -29.0890 O   0  0  0  0  0  0  0  0  0  0  0  0
   -1.4250   23.1930  -29.8820 C   0  0  0  0  0  0  0  0  0  0  0  0
   -2.4790   23.2590  -30.8400 O   0  0  0  0  0  0  0  0  0  0  0  0
   -3.2820   22.1660  -31.1810 C   0  0  0  0  0  0  0  0  0  0  0  0
   -2.7500   21.1040  -31.6020 O   0  0  0  0  0  0  0  0  0  0  0  0
   -4.7170   22.2630  -31.0820 N   0  0  0  0  0  0  0  0  0  0  0  0
   -5.4360   23.2600  -30.4930 C   0  0  0  0  0  0  0  0  0  0  0  0
   -4.8770   24.4010  -29.7510 C   0  0  0  0  0  0  0  0  0  0  0  0
   -3.8760   25.2310  -30.3400 N   0  0  0  0  0  0  0  0  0  0  0  0
   -5.2350   24.6040  -28.5610 O   0  0  0  0  0  0  0  0  0  0  0  0
   -6.7950   23.1040  -30.7360 C   0  0  0  0  0  0  0  0  0  0  0  0
   -6.8980   21.9530  -31.4790 C   0  0  0  0  0  0  0  0  0  0  0  0
   -8.0260   21.3190  -31.9850 C   0  0  0  0  0  0  0  0  0  0  0  0
   -7.8460   20.1310  -32.7110 C   0  0  0  0  0  0  0  0  0  0  0  0
   -6.5490   19.5850  -32.9190 C   0  0  0  0  0  0  0  0  0  0  0  0
   -6.3750   18.3490  -33.6590 N   0  0  0  0  0  0  0  0  0  0  0  0
   -6.8830   17.0810  -33.1220 C   0  0  0  0  0  0  0  0  0  0  0  0
   -5.6910   18.3450  -34.9590 C   0  0  0  0  0  0  0  0  0  0  0  0
   -5.4260   20.2700  -32.3830 C   0  0  0  0  0  0  0  0  0  0  0  0
   -5.6340   21.4620  -31.6760 C   0  0  0  0  0  0  0  0  0  0  0  0
   -1.9855   24.4180  -25.4057 H   0  0  0  0  0  0  0  0  0  0  0  0
   -1.2766   25.6277  -26.5285 H   0  0  0  0  0  0  0  0  0  0  0  0
   -3.0484   25.3324  -26.5285 H   0  0  0  0  0  0  0  0  0  0  0  0
   -1.9804   22.3198  -25.9474 H   0  0  0  0  0  0  0  0  0  0  0  0
   -2.9020   21.9752  -27.4503 H   0  0  0  0  0  0  0  0  0  0  0  0
   -1.1093   21.8624  -27.4503 H   0  0  0  0  0  0  0  0  0  0  0  0
   -0.4676   23.3914  -30.3860 H   0  0  0  0  0  0  0  0  0  0  0  0
   -1.4223   22.1893  -29.4319 H   0  0  0  0  0  0  0  0  0  0  0  0
   -3.4940   26.0490  -29.8160 H   0  0  0  0  0  0  0  0  0  0  0  0
   -3.4790   25.0000  -31.2770 H   0  0  0  0  0  0  0  0  0  0  0  0
   -7.6128   23.7609  -30.4047 H   0  0  0  0  0  0  0  0  0  0  0  0
   -9.0308   21.7358  -31.8215 H   0  0  0  0  0  0  0  0  0  0  0  0
   -8.7232   19.6133  -33.1263 H   0  0  0  0  0  0  0  0  0  0  0  0
   -6.8688   17.1165  -32.0227 H   0  0  0  0  0  0  0  0  0  0  0  0
   -7.9142   16.9221  -33.4704 H   0  0  0  0  0  0  0  0  0  0  0  0
   -6.2467   16.2541  -33.4704 H   0  0  0  0  0  0  0  0  0  0  0  0
   -4.6025   18.3386  -34.8006 H   0  0  0  0  0  0  0  0  0  0  0  0
   -5.9844   17.4486  -35.5249 H   0  0  0  0  0  0  0  0  0  0  0  0
   -5.9739   19.2448  -35.5249 H   0  0  0  0  0  0  0  0  0  0  0  0
   -4.4100   19.8715  -32.5206 H   0  0  0  0  0  0  0  0  0  0  0  0
  1  2  1  0
  2  3  1  0
  2  4  1  0
  4  5  2  0
  4  6  1  0
  6  7  1  0
  7  8  1  0
  8  9  2  0
  8 10  1  0
 10 11  1  0
 11 12  1  0
 12 13  1  0
 12 14  2  0
 11 15  2  0
 15 16  1  0
 16 17  2  0
 17 18  1  0
 18 19  2  0
 19 20  1  0
 20 21  1  0
 20 22  1  0
 19 23  1  0
 23 24  2  0
 24 10  1  0
 24 16  1  0
  1 25  1  0
  1 26  1  0
  1 27  1  0
  3 28  1  0
  3 29  1  0
  3 30  1  0
  6 31  1  0
  6 32  1  0
 13 33  1  0
 13 34  1  0
 15 35  1  0
 17 36  1  0
 18 37  1  0
 21 38  1  0
 21 39  1  0
 21 40  1  0
 22 41  1  0
 22 42  1  0
 22 43  1  0
 23 44  1  0
M  END
>  <UniqueID>  (6) 
6

>  <SMILES>  (6) 
CN(C)C(=O)COC(=O)n1c(C(N)=O)cc2ccc(N(C)C)cc21

>  <Energy>  (6) 
82.30836524367618

>  <Genealogy>  (6) 
CN(C)C(=O)COC(=O)n1c(C(N)=O)cc2ccc(N(C)C)cc21 (3D coordinates assigned)
CN(C)C(=O)COC(=O)n1c(C(N)=O)cc2ccc(N(C)C)cc21 (optimized conformer: 82.30836524367618 kcal/mol)

>  <smiles>  (6) 
CN(C)C(=O)COC(=O)n1c(C(N)=O)cc2ccc(N(C)C)cc21

>  <score_type>  (6) 
oracle

>  <origin>  (6) 
adg

>  <m_score__min__energy>  (6) 
-9.0299999999999994

>  <m_primary>  (6) 
energy

$$$$
7:0
     RDKit          3D

 38 40  0  0  0  0  0  0  0  0999 V2000
   -7.2790   18.4140  -32.7430 C   0  0  0  0  0  0  0  0  0  0  0  0
   -7.4360   19.8320  -32.2800 C   0  0  0  0  0  0  0  0  0  0  0  0
   -8.7130   20.4430  -32.2850 C   0  0  0  0  0  0  0  0  0  0  0  0
   -8.8650   21.7870  -31.9030 C   0  0  0  0  0  0  0  0  0  0  0  0
   -7.7240   22.4910  -31.5280 C   0  0  0  0  0  0  0  0  0  0  0  0
   -7.5820   23.8060  -31.1480 C   0  0  0  0  0  0  0  0  0  0  0  0
   -6.2180   23.9770  -30.9120 C   0  0  0  0  0  0  0  0  0  0  0  0
   -5.6190   25.2300  -30.4010 C   0  0  0  0  0  0  0  0  0  0  0  0
   -4.2650   25.5710  -30.7030 N   0  0  0  0  0  0  0  0  0  0  0  0
   -6.3110   26.0260  -29.7130 O   0  0  0  0  0  0  0  0  0  0  0  0
   -5.5460   22.8130  -31.1360 N   0  0  0  0  0  0  0  0  0  0  0  0
   -4.1280   22.5920  -31.0660 C   0  0  0  0  0  0  0  0  0  0  0  0
   -3.4000   22.8510  -32.0620 O   0  0  0  0  0  0  0  0  0  0  0  0
   -3.5420   22.0950  -29.8580 N   0  0  0  0  0  0  0  0  0  0  0  0
   -2.9010   22.9200  -28.8760 C   0  0  0  0  0  0  0  0  0  0  0  0
   -3.7060   23.6540  -28.0020 C   0  0  0  0  0  0  0  0  0  0  0  0
   -3.1330   24.4650  -27.0270 C   0  0  0  0  0  0  0  0  0  0  0  0
   -1.7460   24.5470  -26.9110 C   0  0  0  0  0  0  0  0  0  0  0  0
   -0.9070   23.8030  -27.7590 C   0  0  0  0  0  0  0  0  0  0  0  0
    0.5620   23.9330  -27.5850 C   0  0  0  0  0  0  0  0  0  0  0  0
    1.2040   24.8680  -28.1300 O   0  0  0  0  0  0  0  0  0  0  0  0
    1.2490   23.0350  -26.7760 O   0  0  0  0  0  0  0  0  0  0  0  0
   -1.4930   22.9590  -28.7400 C   0  0  0  0  0  0  0  0  0  0  0  0
   -0.5060   21.8430  -29.6940 Cl  0  0  0  0  0  0  0  0  0  0  0  0
   -6.4810   21.9130  -31.5140 C   0  0  0  0  0  0  0  0  0  0  0  0
   -6.2980   20.5820  -31.9090 C   0  0  0  0  0  0  0  0  0  0  0  0
   -7.2054   17.7492  -31.8697 H   0  0  0  0  0  0  0  0  0  0  0  0
   -8.1509   18.1276  -33.3494 H   0  0  0  0  0  0  0  0  0  0  0  0
   -6.3655   18.3253  -33.3494 H   0  0  0  0  0  0  0  0  0  0  0  0
   -9.5946   19.8604  -32.5907 H   0  0  0  0  0  0  0  0  0  0  0  0
   -9.8545   22.2676  -31.9004 H   0  0  0  0  0  0  0  0  0  0  0  0
   -8.3755   24.5616  -31.0510 H   0  0  0  0  0  0  0  0  0  0  0  0
   -3.6410   24.9120  -31.2200 H   0  0  0  0  0  0  0  0  0  0  0  0
   -3.8650   26.4760  -30.3700 H   0  0  0  0  0  0  0  0  0  0  0  0
   -4.8010   23.5906  -28.0849 H   0  0  0  0  0  0  0  0  0  0  0  0
   -3.7758   25.0426  -26.3464 H   0  0  0  0  0  0  0  0  0  0  0  0
   -1.3027   25.2020  -26.1465 H   0  0  0  0  0  0  0  0  0  0  0  0
   -5.2943   20.1323  -31.9298 H   0  0  0  0  0  0  0  0  0  0  0  0
  1  2  1  0
  2  3  2  0
  3  4  1  0
  4  5  2  0
  5  6  1  0
  6  7  2  0
  7  8  1  0
  8  9  1  0
  8 10  2  0
  7 11  1  0
 11 12  1  0
 12 13  2  0
 12 14  1  0
 14 15  1  0
 15 16  2  0
 16 17  1  0
 17 18  2  0
 18 19  1  0
 19 20  1  0
 20 21  2  0
 20 22  1  0
 19 23  2  0
 23 24  1  0
 11 25  1  0
 25 26  2  0
 26  2  1  0
 25  5  1  0
 23 15  1  0
  1 27  1  0
  1 28  1  0
  1 29  1  0
  3 30  1  0
  4 31  1  0
  6 32  1  0
  9 33  1  0
  9 34  1  0
 16 35  1  0
 17 36  1  0
 18 37  1  0
 26 38  1  0
M  CHG  2  14  -1  22  -1
M  END
>  <UniqueID>  (7) 
7

>  <SMILES>  (7) 
Cc1ccc2cc(C(N)=O)n(C(=O)[N-]c3cccc(C(=O)[O-])c3Cl)c2c1

>  <Energy>  (7) 
90.47770593269058

>  <Genealogy>  (7) 
Cc1ccc2cc(C(N)=O)n(C(=O)[N-]c3cccc(C(=O)[O-])c3Cl)c2c1 (protonated)
Cc1ccc2cc(C(N)=O)n(C(=O)[N-]c3cccc(C(=O)[O-])c3Cl)c2c1 (3D coordinates assigned)
Cc1ccc2cc(C(N)=O)n(C(=O)[N-]c3cccc(C(=O)[O-])c3Cl)c2c1 (optimized conformer: 90.47770593269058 kcal/mol)

>  <smiles>  (7) 
Cc1ccc2cc(C(N)=O)n(C(=O)Nc3cccc(C(=O)O)c3Cl)c2c1

>  <score_type>  (7) 
oracle

>  <origin>  (7) 
adg

>  <m_score__min__energy>  (7) 
-11.699999999999999

>  <m_primary>  (7) 
energy

$$$$
8:0
     RDKit          3D

 47 48  0  0  0  0  0  0  0  0999 V2000
    0.9000   24.4390  -27.2140 C   0  0  0  0  0  0  0  0  0  0  0  0
   -0.6020   24.7300  -27.2480 C   0  0  2  0  0  0  0  0  0  0  0  0
   -1.3200   23.6530  -27.9340 N   0  0  0  0  0  0  0  0  0  0  0  0
   -1.1000   22.2690  -27.6200 C   0  0  0  0  0  0  0  0  0  0  0  0
   -0.2790   21.9430  -26.7190 O   0  0  0  0  0  0  0  0  0  0  0  0
   -1.8100   21.1960  -28.3870 C   0  0  0  0  0  0  0  0  0  0  0  0
   -2.8750   21.7760  -29.1960 N   0  0  0  0  0  0  0  0  0  0  0  0
   -2.6400   22.5630  -30.3690 C   0  0  0  0  0  0  0  0  0  0  0  0
   -1.7060   23.4090  -30.3910 O   0  0  0  0  0  0  0  0  0  0  0  0
   -3.4840   22.3720  -31.5580 C   0  0  0  0  0  0  0  0  0  0  0  0
   -2.9470   22.1090  -32.6670 O   0  0  0  0  0  0  0  0  0  0  0  0
   -4.9090   22.5340  -31.4810 N   0  0  0  0  0  0  0  0  0  0  0  0
   -5.6090   23.5940  -30.9890 C   0  0  0  0  0  0  0  0  0  0  0  0
   -5.0280   24.7760  -30.3200 C   0  0  0  0  0  0  0  0  0  0  0  0
   -3.8630   25.3980  -30.8600 N   0  0  0  0  0  0  0  0  0  0  0  0
   -5.5620   25.2590  -29.2870 O   0  0  0  0  0  0  0  0  0  0  0  0
   -6.9790   23.3830  -31.1380 C   0  0  0  0  0  0  0  0  0  0  0  0
   -7.0930   22.1460  -31.7330 C   0  0  0  0  0  0  0  0  0  0  0  0
   -8.2250   21.4350  -32.1140 C   0  0  0  0  0  0  0  0  0  0  0  0
   -8.0450   20.1810  -32.7190 C   0  0  0  0  0  0  0  0  0  0  0  0
   -6.7410   19.6500  -32.9410 C   0  0  0  0  0  0  0  0  0  0  0  0
   -6.5660   18.3550  -33.5740 N   0  0  0  0  0  0  0  0  0  0  0  0
   -7.2140   17.1600  -33.0220 C   0  0  0  0  0  0  0  0  0  0  0  0
   -5.7390   18.2200  -34.7800 C   0  0  0  0  0  0  0  0  0  0  0  0
   -5.6160   20.4150  -32.5340 C   0  0  0  0  0  0  0  0  0  0  0  0
   -5.8310   21.6540  -31.9250 C   0  0  0  0  0  0  0  0  0  0  0  0
   -0.8540   26.0380  -27.9410 C   0  0  0  0  0  0  0  0  0  0  0  0
   -1.5850   26.0790  -28.9650 O   0  0  0  0  0  0  0  0  0  0  0  0
   -0.3130   27.2130  -27.4360 O   0  0  0  0  0  0  0  0  0  0  0  0
    1.2373   24.3737  -26.1690 H   0  0  0  0  0  0  0  0  0  0  0  0
    1.1004   23.4853  -27.7243 H   0  0  0  0  0  0  0  0  0  0  0  0
    1.4420   25.2488  -27.7243 H   0  0  0  0  0  0  0  0  0  0  0  0
   -0.9708   24.7918  -26.2135 H   0  0  0  0  0  0  0  0  0  0  0  0
   -2.0110   23.8900  -28.6830 H   0  0  0  0  0  0  0  0  0  0  0  0
   -1.0921   20.6838  -29.0445 H   0  0  0  0  0  0  0  0  0  0  0  0
   -2.2483   20.4782  -27.6780 H   0  0  0  0  0  0  0  0  0  0  0  0
   -2.9260   25.2500  -30.4240 H   0  0  0  0  0  0  0  0  0  0  0  0
   -7.7946   24.0598  -30.8434 H   0  0  0  0  0  0  0  0  0  0  0  0
   -9.2327   21.8431  -31.9463 H   0  0  0  0  0  0  0  0  0  0  0  0
   -8.9256   19.5981  -33.0271 H   0  0  0  0  0  0  0  0  0  0  0  0
   -7.1899   17.2044  -31.9232 H   0  0  0  0  0  0  0  0  0  0  0  0
   -8.2585   17.1180  -33.3645 H   0  0  0  0  0  0  0  0  0  0  0  0
   -6.6794   16.2617  -33.3645 H   0  0  0  0  0  0  0  0  0  0  0  0
   -4.6920   18.0491  -34.4893 H   0  0  0  0  0  0  0  0  0  0  0  0
   -6.0975   17.3685  -35.3770 H   0  0  0  0  0  0  0  0  0  0  0  0
   -5.8081   19.1413  -35.3770 H   0  0  0  0  0  0  0  0  0  0  0  0
   -4.5948   20.0393  -32.6951 H   0  0  0  0  0  0  0  0  0  0  0  0
  1  2  1  0
  2  3  1  0
  3  4  1  0
  4  5  2  0
  4  6  1  0
  6  7  1  0
  7  8  1  0
  8  9  2  0
  8 10  1  0
 10 11  2  0
 10 12  1  0
 12 13  1  0
 13 14  1  0
 14 15  1  0
 14 16  2  0
 13 17  2  0
 17 18  1  0
 18 19  2  0
 19 20  1  0
 20 21  2  0
 21 22  1  0
 22 23  1  0
 22 24  1  0
 21 25  1  0
 25 26  2  0
  2 27  1  0
 27 28  2  0
 27 29  1  0
 26 12  1  0
 26 18  1  0
  1 30  1  0
  1 31  1  0
  1 32  1  0
  2 33  1  1
  3 34  1  0
  6 35  1  0
  6 36  1  0
 15 37  1  0
 17 38  1  0
 19 39  1  0
 20 40  1  0
 23 41  1  0
 23 42  1  0
 23 43  1  0
 24 44  1  0
 24 45  1  0
 24 46  1  0
 25 47  1  0
M  CHG  3   7  -1  15  -1  29  -1
M  END
>  <UniqueID>  (8) 
8

>  <SMILES>  (8) 
C[C@H](NC(=O)C[N-]C(=O)C(=O)n1c(C([NH-])=O)cc2ccc(N(C)C)cc21)C(=O)[O-]

>  <Energy>  (8) 
79.45423561471767

>  <Genealogy>  (8) 
CC(NC(=O)C[N-]C(=O)C(=O)n1c(C([NH-])=O)cc2ccc(N(C)C)cc21)C(=O)[O-] (protonated)
C[C@H](NC(=O)C[N-]C(=O)C(=O)n1c(C([NH-])=O)cc2ccc(N(C)C)cc21)C(=O)[O-] (chirality)
C[C@H](NC(=O)C[N-]C(=O)C(=O)n1c(C([NH-])=O)cc2ccc(N(C)C)cc21)C(=O)[O-] (3D coordinates assigned)
C[C@H](NC(=O)C[N-]C(=O)C(=O)n1c(C([NH-])=O)cc2ccc(N(C)C)cc21)C(=O)[O-] (optimized conformer: 79.45423561471767 kcal/mol)

>  <smiles>  (8) 
CC(NC(=O)CNC(=O)C(=O)n1c(C(N)=O)cc2ccc(N(C)C)cc21)C(=O)O

>  <score_type>  (8) 
oracle

>  <origin>  (8) 
adg

>  <m_score__min__energy>  (8) 
-12.630000000000001

>  <m_primary>  (8) 
energy

$$$$
9:0
     RDKit          3D

 43 45  0  0  0  0  0  0  0  0999 V2000
   -3.8820   25.1740  -30.1950 N   0  0  0  0  0  0  0  0  0  0  0  0
   -5.2990   24.9910  -30.2240 C   0  0  0  0  0  0  0  0  0  0  0  0
   -6.0420   25.9090  -29.7890 O   0  0  0  0  0  0  0  0  0  0  0  0
   -5.8940   23.7350  -30.7380 C   0  0  0  0  0  0  0  0  0  0  0  0
   -7.1590   23.6400  -31.3180 C   0  0  0  0  0  0  0  0  0  0  0  0
   -7.2890   22.3230  -31.6970 C   0  0  0  0  0  0  0  0  0  0  0  0
   -8.3540   21.6660  -32.3050 C   0  0  0  0  0  0  0  0  0  0  0  0
   -8.2260   20.2890  -32.5530 C   0  0  0  0  0  0  0  0  0  0  0  0
   -7.0450   19.5900  -32.1810 C   0  0  0  0  0  0  0  0  0  0  0  0
   -6.8930   18.1750  -32.4140 N   0  0  0  0  0  0  0  0  0  0  0  0
   -6.5130   17.5940  -33.7110 C   0  0  1  0  0  0  0  0  0  0  0  0
   -5.7740   18.5890  -34.5640 C   0  0  0  0  0  0  0  0  0  0  0  0
   -4.3260   18.3530  -34.1870 C   0  0  0  0  0  0  0  0  0  0  0  0
   -4.1810   17.0420  -33.6930 O   0  0  0  0  0  0  0  0  0  0  0  0
   -5.4720   16.4990  -33.5260 C   0  0  0  0  0  0  0  0  0  0  0  0
   -5.9900   20.2970  -31.5620 C   0  0  0  0  0  0  0  0  0  0  0  0
   -6.1370   21.6710  -31.3510 C   0  0  0  0  0  0  0  0  0  0  0  0
   -5.2670   22.5260  -30.7700 N   0  0  0  0  0  0  0  0  0  0  0  0
   -3.9840   22.1950  -30.2170 C   0  0  0  0  0  0  0  0  0  0  0  0
   -3.8990   21.8180  -29.0170 O   0  0  0  0  0  0  0  0  0  0  0  0
   -2.7630   22.2940  -31.0290 C   0  0  0  0  0  0  0  0  0  0  0  0
   -2.6940   21.6950  -32.1370 O   0  0  0  0  0  0  0  0  0  0  0  0
   -1.6880   23.0630  -30.5670 O   0  0  0  0  0  0  0  0  0  0  0  0
   -1.3530   23.1880  -29.1870 C   0  0  0  0  0  0  0  0  0  0  0  0
   -0.8550   24.5680  -28.8960 C   0  0  0  0  0  0  0  0  0  0  0  0
    0.2260   24.7320  -28.2740 O   0  0  0  0  0  0  0  0  0  0  0  0
   -1.5710   25.6750  -29.3370 O   0  0  0  0  0  0  0  0  0  0  0  0
   -3.2320   24.4720  -30.6100 H   0  0  0  0  0  0  0  0  0  0  0  0
   -3.4770   26.0490  -29.7930 H   0  0  0  0  0  0  0  0  0  0  0  0
   -7.8963   24.4463  -31.4455 H   0  0  0  0  0  0  0  0  0  0  0  0
   -9.2694   22.2087  -32.5834 H   0  0  0  0  0  0  0  0  0  0  0  0
   -9.0488   19.7455  -33.0405 H   0  0  0  0  0  0  0  0  0  0  0  0
   -7.0440   17.5330  -31.6020 H   0  0  0  0  0  0  0  0  0  0  0  0
   -7.4557   17.2476  -34.1596 H   0  0  0  0  0  0  0  0  0  0  0  0
   -5.9408   18.3936  -35.6336 H   0  0  0  0  0  0  0  0  0  0  0  0
   -6.1006   19.6266  -34.4007 H   0  0  0  0  0  0  0  0  0  0  0  0
   -3.6893   18.4837  -35.0744 H   0  0  0  0  0  0  0  0  0  0  0  0
   -4.0248   19.0738  -33.4126 H   0  0  0  0  0  0  0  0  0  0  0  0
   -5.6360   15.7078  -34.2724 H   0  0  0  0  0  0  0  0  0  0  0  0
   -5.5626   16.0751  -32.5150 H   0  0  0  0  0  0  0  0  0  0  0  0
   -5.0716   19.7768  -31.2524 H   0  0  0  0  0  0  0  0  0  0  0  0
   -2.2466   22.9887  -28.5773 H   0  0  0  0  0  0  0  0  0  0  0  0
   -0.5616   22.4637  -28.9442 H   0  0  0  0  0  0  0  0  0  0  0  0
  1  2  1  0
  2  3  2  0
  2  4  1  0
  4  5  2  0
  5  6  1  0
  6  7  2  0
  7  8  1  0
  8  9  2  0
  9 10  1  0
 10 11  1  0
 11 12  1  0
 12 13  1  0
 13 14  1  0
 14 15  1  0
  9 16  1  0
 16 17  2  0
 17 18  1  0
 18 19  1  0
 19 20  2  0
 19 21  1  0
 21 22  2  0
 21 23  1  0
 23 24  1  0
 24 25  1  0
 25 26  2  0
 25 27  1  0
 18  4  1  0
 17  6  1  0
 15 11  1  0
  1 28  1  0
  1 29  1  0
  5 30  1  0
  7 31  1  0
  8 32  1  0
 10 33  1  0
 11 34  1  6
 12 35  1  0
 12 36  1  0
 13 37  1  0
 13 38  1  0
 15 39  1  0
 15 40  1  0
 16 41  1  0
 24 42  1  0
 24 43  1  0
M  CHG  1  27  -1
M  END
>  <UniqueID>  (9) 
9

>  <SMILES>  (9) 
NC(=O)c1cc2ccc(N[C@H]3CCOC3)cc2n1C(=O)C(=O)OCC(=O)[O-]

>  <Energy>  (9) 
81.38490967449663

>  <Genealogy>  (9) 
NC(=O)c1cc2ccc(NC3CCOC3)cc2n1C(=O)C(=O)OCC(=O)[O-] (protonated)
NC(=O)c1cc2ccc(N[C@H]3CCOC3)cc2n1C(=O)C(=O)OCC(=O)[O-] (chirality)
NC(=O)c1cc2ccc(N[C@H]3CCOC3)cc2n1C(=O)C(=O)OCC(=O)[O-] (3D coordinates assigned)
NC(=O)c1cc2ccc(N[C@H]3CCOC3)cc2n1C(=O)C(=O)OCC(=O)[O-] (nonaromatic ring conformer: 81.38490967449663 kcal/mol)

>  <smiles>  (9) 
NC(=O)c1cc2ccc(NC3CCOC3)cc2n1C(=O)C(=O)OCC(=O)O

>  <score_type>  (9) 
oracle

>  <origin>  (9) 
adg

>  <m_score__min__energy>  (9) 
-11.25

>  <m_primary>  (9) 
energy

$$$$
10:0
     RDKit          3D

 32 33  0  0  0  0  0  0  0  0999 V2000
   -3.9410   23.7490  -27.7300 C   0  0  0  0  0  0  0  0  0  0  0  0
   -2.9950   23.3990  -28.7940 N   0  0  0  0  0  0  0  0  0  0  0  0
   -1.7450   24.0980  -28.9030 C   0  0  0  0  0  0  0  0  0  0  0  0
   -1.7020   25.2880  -29.3160 O   0  0  0  0  0  0  0  0  0  0  0  0
   -3.2840   22.3390  -29.7280 C   0  0  0  0  0  0  0  0  0  0  0  0
   -3.0640   21.1440  -29.3900 O   0  0  0  0  0  0  0  0  0  0  0  0
   -3.8420   22.6090  -31.0710 C   0  0  0  0  0  0  0  0  0  0  0  0
   -3.0940   22.6050  -32.0850 O   0  0  0  0  0  0  0  0  0  0  0  0
   -5.2370   22.9030  -31.2310 N   0  0  0  0  0  0  0  0  0  0  0  0
   -5.8810   24.0660  -30.9320 C   0  0  0  0  0  0  0  0  0  0  0  0
   -5.2410   25.3150  -30.4690 C   0  0  0  0  0  0  0  0  0  0  0  0
   -3.9020   25.6370  -30.8370 N   0  0  0  0  0  0  0  0  0  0  0  0
   -5.8920   26.1230  -29.7540 O   0  0  0  0  0  0  0  0  0  0  0  0
   -7.2500   23.9330  -31.1580 C   0  0  0  0  0  0  0  0  0  0  0  0
   -7.4250   22.6420  -31.6040 C   0  0  0  0  0  0  0  0  0  0  0  0
   -8.5870   21.9630  -31.9610 C   0  0  0  0  0  0  0  0  0  0  0  0
   -8.4690   20.6190  -32.3540 C   0  0  0  0  0  0  0  0  0  0  0  0
   -7.2050   19.9820  -32.3760 C   0  0  0  0  0  0  0  0  0  0  0  0
   -7.0990   18.6120  -32.7690 N   0  0  0  0  0  0  0  0  0  0  0  0
   -6.0480   20.7000  -32.0060 C   0  0  0  0  0  0  0  0  0  0  0  0
   -6.1930   22.0410  -31.6350 C   0  0  0  0  0  0  0  0  0  0  0  0
   -3.4717   23.5754  -26.7504 H   0  0  0  0  0  0  0  0  0  0  0  0
   -4.2189   24.8095  -27.8207 H   0  0  0  0  0  0  0  0  0  0  0  0
   -4.8422   23.1248  -27.8207 H   0  0  0  0  0  0  0  0  0  0  0  0
   -0.8120   23.5875  -28.6220 H   0  0  0  0  0  0  0  0  0  0  0  0
   -3.1610   24.9030  -30.8660 H   0  0  0  0  0  0  0  0  0  0  0  0
   -8.0267   24.6979  -31.0111 H   0  0  0  0  0  0  0  0  0  0  0  0
   -9.5665   22.4629  -31.9362 H   0  0  0  0  0  0  0  0  0  0  0  0
   -9.3676   20.0564  -32.6474 H   0  0  0  0  0  0  0  0  0  0  0  0
   -6.5870   17.9240  -32.1730 H   0  0  0  0  0  0  0  0  0  0  0  0
   -7.5320   18.2750  -33.6580 H   0  0  0  0  0  0  0  0  0  0  0  0
   -5.0590   20.2184  -32.0092 H   0  0  0  0  0  0  0  0  0  0  0  0
  1  2  1  0
  2  3  1  0
  3  4  2  0
  2  5  1  0
  5  6  2  0
  5  7  1  0
  7  8  2  0
  7  9  1  0
  9 10  1  0
 10 11  1  0
 11 12  1  0
 11 13  2  0
 10 14  2  0
 14 15  1  0
 15 16  2  0
 16 17  1  0
 17 18  2  0
 18 19  1  0
 18 20  1  0
 20 21  2  0
 21  9  1  0
 21 15  1  0
  1 22  1  0
  1 23  1  0
  1 24  1  0
  3 25  1  0
 12 26  1  0
 14 27  1  0
 16 28  1  0
 17 29  1  0
 19 30  1  0
 19 31  1  0
 20 32  1  0
M  CHG  1  12  -1
M  END
>  <UniqueID>  (10) 
10

>  <SMILES>  (10) 
CN(C=O)C(=O)C(=O)n1c(C([NH-])=O)cc2ccc(N)cc21

>  <Energy>  (10) 
73.99599069579743

>  <Genealogy>  (10) 
CN(C=O)C(=O)C(=O)n1c(C([NH-])=O)cc2ccc(N)cc21 (protonated)
CN(C=O)C(=O)C(=O)n1c(C([NH-])=O)cc2ccc(N)cc21 (3D coordinates assigned)
CN(C=O)C(=O)C(=O)n1c(C([NH-])=O)cc2ccc(N)cc21 (optimized conformer: 73.99599069579743 kcal/mol)

>  <smiles>  (10) 
CN(C=O)C(=O)C(=O)n1c(C(N)=O)cc2ccc(N)cc21

>  <score_type>  (10) 
oracle

>  <origin>  (10) 
adg

>  <m_score__min__energy>  (10) 
-9.1300000000000008

>  <m_primary>  (10) 
energy

$$$$
11:0
     RDKit          3D

 41 43  0  0  0  0  0  0  0  0999 V2000
   -3.5100   25.1330  -30.1620 N   0  0  0  0  0  0  0  0  0  0  0  0
   -4.8700   25.2680  -30.5640 C   0  0  0  0  0  0  0  0  0  0  0  0
   -5.4030   26.4100  -30.5640 O   0  0  0  0  0  0  0  0  0  0  0  0
   -5.6750   24.0850  -30.9320 C   0  0  0  0  0  0  0  0  0  0  0  0
   -7.0680   24.0600  -30.8840 C   0  0  0  0  0  0  0  0  0  0  0  0
   -7.4210   22.7700  -31.2140 C   0  0  0  0  0  0  0  0  0  0  0  0
   -8.6780   22.1860  -31.3250 C   0  0  0  0  0  0  0  0  0  0  0  0
   -8.7470   20.8380  -31.7130 C   0  0  0  0  0  0  0  0  0  0  0  0
   -7.5680   20.1050  -32.0060 C   0  0  0  0  0  0  0  0  0  0  0  0
   -7.6550   18.6500  -32.3880 C   0  0  0  0  0  0  0  0  0  0  0  0
   -8.9680   18.2130  -32.3600 F   0  0  0  0  0  0  0  0  0  0  0  0
   -7.1540   18.4840  -33.6650 F   0  0  0  0  0  0  0  0  0  0  0  0
   -6.9220   17.8710  -31.5100 F   0  0  0  0  0  0  0  0  0  0  0  0
   -6.3070   20.7290  -31.8560 C   0  0  0  0  0  0  0  0  0  0  0  0
   -6.2680   22.0680  -31.4510 C   0  0  0  0  0  0  0  0  0  0  0  0
   -5.1880   22.8620  -31.2820 N   0  0  0  0  0  0  0  0  0  0  0  0
   -3.8210   22.5000  -31.5310 C   0  0  0  0  0  0  0  0  0  0  0  0
   -3.4220   22.3340  -32.7160 O   0  0  0  0  0  0  0  0  0  0  0  0
   -2.9330   22.3590  -30.4580 O   0  0  0  0  0  0  0  0  0  0  0  0
   -3.2430   21.6220  -29.2780 C   0  0  0  0  0  0  0  0  0  0  0  0
   -3.4010   22.5520  -28.1140 C   0  0  0  0  0  0  0  0  0  0  0  0
   -4.4660   22.5350  -27.4420 O   0  0  0  0  0  0  0  0  0  0  0  0
   -2.3670   23.4750  -27.7750 N   0  0  0  0  0  0  0  0  0  0  0  0
   -0.9970   23.7980  -28.2170 C   0  0  0  0  0  0  0  0  0  0  0  0
   -0.7780   24.9170  -27.2440 C   0  0  0  0  0  0  0  0  0  0  0  0
   -0.6450   26.2750  -27.8820 C   0  0  0  0  0  0  0  0  0  0  0  0
   -1.2230   26.5420  -28.9700 O   0  0  0  0  0  0  0  0  0  0  0  0
    0.1430   27.2420  -27.2720 O   0  0  0  0  0  0  0  0  0  0  0  0
   -2.1680   24.5670  -26.8050 C   0  0  0  0  0  0  0  0  0  0  0  0
   -3.1350   25.6680  -29.3470 H   0  0  0  0  0  0  0  0  0  0  0  0
   -7.7419   24.8931  -30.6355 H   0  0  0  0  0  0  0  0  0  0  0  0
   -9.5910   22.7625  -31.1152 H   0  0  0  0  0  0  0  0  0  0  0  0
   -9.7270   20.3445  -31.7907 H   0  0  0  0  0  0  0  0  0  0  0  0
   -5.3780   20.1740  -32.0533 H   0  0  0  0  0  0  0  0  0  0  0  0
   -4.1813   21.0687  -29.4311 H   0  0  0  0  0  0  0  0  0  0  0  0
   -2.4231   20.9195  -29.0676 H   0  0  0  0  0  0  0  0  0  0  0  0
   -0.2953   22.9637  -28.0701 H   0  0  0  0  0  0  0  0  0  0  0  0
   -0.8545   24.0255  -29.2837 H   0  0  0  0  0  0  0  0  0  0  0  0
    0.0828   24.9855  -26.5625 H   0  0  0  0  0  0  0  0  0  0  0  0
   -2.2095   24.2211  -25.7616 H   0  0  0  0  0  0  0  0  0  0  0  0
   -2.9120   25.3773  -26.8027 H   0  0  0  0  0  0  0  0  0  0  0  0
  1  2  1  0
  2  3  2  0
  2  4  1  0
  4  5  2  0
  5  6  1  0
  6  7  2  0
  7  8  1  0
  8  9  2  0
  9 10  1  0
 10 11  1  0
 10 12  1  0
 10 13  1  0
  9 14  1  0
 14 15  2  0
 15 16  1  0
 16 17  1  0
 17 18  2  0
 17 19  1  0
 19 20  1  0
 20 21  1  0
 21 22  2  0
 21 23  1  0
 23 24  1  0
 24 25  1  0
 25 26  1  0
 26 27  2  0
 26 28  1  0
 25 29  1  0
 16  4  1  0
 29 23  1  0
 15  6  1  0
  1 30  1  0
  5 31  1  0
  7 32  1  0
  8 33  1  0
 14 34  1  0
 20 35  1  0
 20 36  1  0
 24 37  1  0
 24 38  1  0
 25 39  1  0
 29 40  1  0
 29 41  1  0
M  CHG  2   1  -1  28  -1
M  END
>  <UniqueID>  (11) 
11

>  <SMILES>  (11) 
[NH-]C(=O)c1cc2ccc(C(F)(F)F)cc2n1C(=O)OCC(=O)N1CC(C(=O)[O-])C1

>  <Energy>  (11) 
124.06989730667024

>  <Genealogy>  (11) 
[NH-]C(=O)c1cc2ccc(C(F)(F)F)cc2n1C(=O)OCC(=O)N1CC(C(=O)[O-])C1 (protonated)
[NH-]C(=O)c1cc2ccc(C(F)(F)F)cc2n1C(=O)OCC(=O)N1CC(C(=O)[O-])C1 (3D coordinates assigned)
[NH-]C(=O)c1cc2ccc(C(F)(F)F)cc2n1C(=O)OCC(=O)N1CC(C(=O)[O-])C1 (nonaromatic ring conformer: 124.06989730667024 kcal/mol)

>  <smiles>  (11) 
NC(=O)c1cc2ccc(C(F)(F)F)cc2n1C(=O)OCC(=O)N1CC(C(=O)O)C1

>  <score_type>  (11) 
oracle

>  <origin>  (11) 
adg

>  <m_score__min__energy>  (11) 
-12.09

>  <m_primary>  (11) 
energy

$$$$
12:0
     RDKit          3D

 36 37  0  0  0  0  0  0  0  0999 V2000
   -7.6080   18.4790  -32.7000 C   0  0  0  0  0  0  0  0  0  0  0  0
   -7.6100   19.9200  -32.2880 C   0  0  0  0  0  0  0  0  0  0  0  0
   -8.8350   20.6090  -32.1120 C   0  0  0  0  0  0  0  0  0  0  0  0
   -8.8510   21.9460  -31.6810 C   0  0  0  0  0  0  0  0  0  0  0  0
   -7.6300   22.5640  -31.4280 C   0  0  0  0  0  0  0  0  0  0  0  0
   -7.3520   23.8330  -30.9720 C   0  0  0  0  0  0  0  0  0  0  0  0
   -5.9630   23.8980  -30.8760 C   0  0  0  0  0  0  0  0  0  0  0  0
   -5.2230   25.1040  -30.4470 C   0  0  0  0  0  0  0  0  0  0  0  0
   -3.8790   25.3290  -30.8640 N   0  0  0  0  0  0  0  0  0  0  0  0
   -5.7930   25.9590  -29.7180 O   0  0  0  0  0  0  0  0  0  0  0  0
   -5.4060   22.7170  -31.2640 N   0  0  0  0  0  0  0  0  0  0  0  0
   -4.0170   22.3560  -31.2480 C   0  0  0  0  0  0  0  0  0  0  0  0
   -3.3780   22.3320  -32.3330 O   0  0  0  0  0  0  0  0  0  0  0  0
   -3.3410   22.0450  -29.9690 C   0  0  0  0  0  0  0  0  0  0  0  0
   -3.4090   20.8690  -29.5190 O   0  0  0  0  0  0  0  0  0  0  0  0
   -2.6260   23.0470  -29.2170 N   0  0  0  0  0  0  0  0  0  0  0  0
   -3.2950   23.6750  -28.0740 C   0  0  0  0  0  0  0  0  0  0  0  0
   -1.2000   23.3150  -29.4520 C   0  0  0  0  0  0  0  0  0  0  0  0
   -0.8310   24.6820  -28.9660 C   0  0  0  0  0  0  0  0  0  0  0  0
   -1.5310   25.6800  -29.2820 O   0  0  0  0  0  0  0  0  0  0  0  0
    0.2870   24.8550  -28.1610 O   0  0  0  0  0  0  0  0  0  0  0  0
   -6.4360   21.9100  -31.5930 C   0  0  0  0  0  0  0  0  0  0  0  0
   -6.3900   20.5740  -32.0050 C   0  0  0  0  0  0  0  0  0  0  0  0
   -7.6071   17.8414  -31.8037 H   0  0  0  0  0  0  0  0  0  0  0  0
   -8.5059   18.2678  -33.2994 H   0  0  0  0  0  0  0  0  0  0  0  0
   -6.7096   18.2703  -33.2994 H   0  0  0  0  0  0  0  0  0  0  0  0
   -9.7842   20.0915  -32.3150 H   0  0  0  0  0  0  0  0  0  0  0  0
   -9.7991   22.4876  -31.5476 H   0  0  0  0  0  0  0  0  0  0  0  0
   -8.0739   24.6280  -30.7337 H   0  0  0  0  0  0  0  0  0  0  0  0
   -3.0870   25.2540  -30.1880 H   0  0  0  0  0  0  0  0  0  0  0  0
   -2.8727   23.2786  -27.1388 H   0  0  0  0  0  0  0  0  0  0  0  0
   -3.1425   24.7637  -28.1127 H   0  0  0  0  0  0  0  0  0  0  0  0
   -4.3719   23.4540  -28.1127 H   0  0  0  0  0  0  0  0  0  0  0  0
   -0.5987   22.5665  -28.9152 H   0  0  0  0  0  0  0  0  0  0  0  0
   -1.0032   23.2590  -30.5328 H   0  0  0  0  0  0  0  0  0  0  0  0
   -5.4299   20.0468  -32.1059 H   0  0  0  0  0  0  0  0  0  0  0  0
  1  2  1  0
  2  3  2  0
  3  4  1  0
  4  5  2  0
  5  6  1  0
  6  7  2  0
  7  8  1  0
  8  9  1  0
  8 10  2  0
  7 11  1  0
 11 12  1  0
 12 13  2  0
 12 14  1  0
 14 15  2  0
 14 16  1  0
 16 17  1  0
 16 18  1  0
 18 19  1  0
 19 20  2  0
 19 21  1  0
 11 22  1  0
 22 23  2  0
 23  2  1  0
 22  5  1  0
  1 24  1  0
  1 25  1  0
  1 26  1  0
  3 27  1  0
  4 28  1  0
  6 29  1  0
  9 30  1  0
 17 31  1  0
 17 32  1  0
 17 33  1  0
 18 34  1  0
 18 35  1  0
 23 36  1  0
M  CHG  2   9  -1  21  -1
M  END
>  <UniqueID>  (12) 
12

>  <SMILES>  (12) 
Cc1ccc2cc(C([NH-])=O)n(C(=O)C(=O)N(C)CC(=O)[O-])c2c1

>  <Energy>  (12) 
76.3243778598889

>  <Genealogy>  (12) 
Cc1ccc2cc(C([NH-])=O)n(C(=O)C(=O)N(C)CC(=O)[O-])c2c1 (protonated)
Cc1ccc2cc(C([NH-])=O)n(C(=O)C(=O)N(C)CC(=O)[O-])c2c1 (3D coordinates assigned)
Cc1ccc2cc(C([NH-])=O)n(C(=O)C(=O)N(C)CC(=O)[O-])c2c1 (optimized conformer: 76.3243778598889 kcal/mol)

>  <smiles>  (12) 
Cc1ccc2cc(C(N)=O)n(C(=O)C(=O)N(C)CC(=O)O)c2c1

>  <score_type>  (12) 
oracle

>  <origin>  (12) 
adg

>  <m_score__min__energy>  (12) 
-12.52

>  <m_primary>  (12) 
energy

$$$$
13:0
     RDKit          3D

 53 54  0  0  0  0  0  0  0  0999 V2000
   -8.3370   22.3140  -30.5620 C   0  0  0  0  0  0  0  0  0  0  0  0
   -7.0490   21.8730  -31.1150 N   0  0  0  0  0  0  0  0  0  0  0  0
   -6.9530   20.5530  -31.6930 C   0  0  0  0  0  0  0  0  0  0  0  0
   -8.0640   19.6690  -31.6560 C   0  0  0  0  0  0  0  0  0  0  0  0
   -7.9920   18.3950  -32.2420 C   0  0  0  0  0  0  0  0  0  0  0  0
   -6.7980   18.0220  -32.8510 C   0  0  0  0  0  0  0  0  0  0  0  0
   -6.4600   16.8570  -33.4980 C   0  0  0  0  0  0  0  0  0  0  0  0
   -5.1450   17.0390  -33.9150 C   0  0  0  0  0  0  0  0  0  0  0  0
   -4.3760   16.0040  -34.6270 C   0  0  0  0  0  0  0  0  0  0  0  0
   -3.5390   16.3460  -35.7320 N   0  0  0  0  0  0  0  0  0  0  0  0
   -4.5150   14.7950  -34.3030 O   0  0  0  0  0  0  0  0  0  0  0  0
   -4.6740   18.2560  -33.5220 N   0  0  0  0  0  0  0  0  0  0  0  0
   -3.3170   18.7320  -33.5680 C   0  0  0  0  0  0  0  0  0  0  0  0
   -2.6080   18.5280  -34.5880 O   0  0  0  0  0  0  0  0  0  0  0  0
   -2.7880   19.4020  -32.4540 O   0  0  0  0  0  0  0  0  0  0  0  0
   -2.3510   20.7670  -32.4040 C   0  0  0  0  0  0  0  0  0  0  0  0
   -3.1930   21.5480  -33.4250 C   0  0  0  0  0  0  0  0  0  0  0  0
   -2.5870   21.3670  -31.0040 C   0  0  0  0  0  0  0  0  0  0  0  0
   -0.8660   20.8700  -32.8000 C   0  0  0  0  0  0  0  0  0  0  0  0
   -5.7060   18.8500  -32.8810 C   0  0  0  0  0  0  0  0  0  0  0  0
   -5.7590   20.1340  -32.3270 C   0  0  0  0  0  0  0  0  0  0  0  0
   -5.8870   22.7860  -31.1410 C   0  0  1  0  0  0  0  0  0  0  0  0
   -5.9810   23.7080  -32.3290 C   0  0  0  0  0  0  0  0  0  0  0  0
   -7.0220   23.7990  -32.9620 O   0  0  0  0  0  0  0  0  0  0  0  0
   -5.7860   23.5810  -29.8190 C   0  0  0  0  0  0  0  0  0  0  0  0
   -4.3460   23.7030  -29.2940 C   0  0  0  0  0  0  0  0  0  0  0  0
   -3.6370   24.8850  -29.8820 C   0  0  0  0  0  0  0  0  0  0  0  0
   -4.1320   25.4990  -30.8630 O   0  0  0  0  0  0  0  0  0  0  0  0
   -2.4150   25.2910  -29.3630 O   0  0  0  0  0  0  0  0  0  0  0  0
   -8.2891   22.2976  -29.4632 H   0  0  0  0  0  0  0  0  0  0  0  0
   -8.5521   23.3370  -30.9044 H   0  0  0  0  0  0  0  0  0  0  0  0
   -9.1340   21.6375  -30.9044 H   0  0  0  0  0  0  0  0  0  0  0  0
   -8.9937   19.9868  -31.1614 H   0  0  0  0  0  0  0  0  0  0  0  0
   -8.8541   17.7121  -32.2202 H   0  0  0  0  0  0  0  0  0  0  0  0
   -7.0933   15.9710  -33.6528 H   0  0  0  0  0  0  0  0  0  0  0  0
   -2.9820   15.6080  -36.2180 H   0  0  0  0  0  0  0  0  0  0  0  0
   -3.5380   17.3160  -36.1190 H   0  0  0  0  0  0  0  0  0  0  0  0
   -3.8991   22.2030  -32.8935 H   0  0  0  0  0  0  0  0  0  0  0  0
   -2.5305   22.1585  -34.0562 H   0  0  0  0  0  0  0  0  0  0  0  0
   -3.7521   20.8416  -34.0562 H   0  0  0  0  0  0  0  0  0  0  0  0
   -2.2983   20.6331  -30.2371 H   0  0  0  0  0  0  0  0  0  0  0  0
   -1.9797   22.2768  -30.8879 H   0  0  0  0  0  0  0  0  0  0  0  0
   -3.6514   21.6193  -30.8879 H   0  0  0  0  0  0  0  0  0  0  0  0
   -0.2465   20.9130  -31.8920 H   0  0  0  0  0  0  0  0  0  0  0  0
   -0.5833   19.9893  -33.3954 H   0  0  0  0  0  0  0  0  0  0  0  0
   -0.7076   21.7813  -33.3954 H   0  0  0  0  0  0  0  0  0  0  0  0
   -4.8891   20.8049  -32.3832 H   0  0  0  0  0  0  0  0  0  0  0  0
   -4.9681   22.1895  -31.2399 H   0  0  0  0  0  0  0  0  0  0  0  0
   -5.1060   24.3035  -32.6286 H   0  0  0  0  0  0  0  0  0  0  0  0
   -6.1833   24.5927  -29.9882 H   0  0  0  0  0  0  0  0  0  0  0  0
   -6.3644   23.0312  -29.0620 H   0  0  0  0  0  0  0  0  0  0  0  0
   -4.3741   23.8129  -28.1999 H   0  0  0  0  0  0  0  0  0  0  0  0
   -3.7976   22.7954  -29.5865 H   0  0  0  0  0  0  0  0  0  0  0  0
  1  2  1  0
  2  3  1  0
  3  4  2  0
  4  5  1  0
  5  6  2  0
  6  7  1  0
  7  8  2  0
  8  9  1  0
  9 10  1  0
  9 11  2  0
  8 12  1  0
 12 13  1  0
 13 14  2  0
 13 15  1  0
 15 16  1  0
 16 17  1  0
 16 18  1  0
 16 19  1  0
 12 20  1  0
 20 21  2  0
  2 22  1  0
 22 23  1  0
 23 24  2  0
 22 25  1  0
 25 26  1  0
 26 27  1  0
 27 28  2  0
 27 29  1  0
 21  3  1  0
 20  6  1  0
  1 30  1  0
  1 31  1  0
  1 32  1  0
  4 33  1  0
  5 34  1  0
  7 35  1  0
 10 36  1  0
 10 37  1  0
 17 38  1  0
 17 39  1  0
 17 40  1  0
 18 41  1  0
 18 42  1  0
 18 43  1  0
 19 44  1  0
 19 45  1  0
 19 46  1  0
 21 47  1  0
 22 48  1  6
 23 49  1  0
 25 50  1  0
 25 51  1  0
 26 52  1  0
 26 53  1  0
M  CHG  1  29  -1
M  END
>  <UniqueID>  (13) 
13

>  <SMILES>  (13) 
CN(c1ccc2cc(C(N)=O)n(C(=O)OC(C)(C)C)c2c1)[C@@H](C=O)CCC(=O)[O-]

>  <Energy>  (13) 
88.17310040635505

>  <Genealogy>  (13) 
CN(c1ccc2cc(C(N)=O)n(C(=O)OC(C)(C)C)c2c1)C(C=O)CCC(=O)[O-] (protonated)
CN(c1ccc2cc(C(N)=O)n(C(=O)OC(C)(C)C)c2c1)[C@@H](C=O)CCC(=O)[O-] (chirality)
CN(c1ccc2cc(C(N)=O)n(C(=O)OC(C)(C)C)c2c1)[C@@H](C=O)CCC(=O)[O-] (3D coordinates assigned)
CN(c1ccc2cc(C(N)=O)n(C(=O)OC(C)(C)C)c2c1)[C@@H](C=O)CCC(=O)[O-] (optimized conformer: 88.17310040635505 kcal/mol)

>  <smiles>  (13) 
CN(c1ccc2cc(C(N)=O)n(C(=O)OC(C)(C)C)c2c1)C(C=O)CCC(=O)O

>  <score_type>  (13) 
oracle

>  <origin>  (13) 
adg

>  <m_score__min__energy>  (13) 
-10.380000000000001

>  <m_primary>  (13) 
energy

$$$$
14:0
     RDKit          3D

 49 50  0  0  0  0  0  0  0  0999 V2000
   -1.1130   21.2470  -33.8700 C   0  0  0  0  0  0  0  0  0  0  0  0
   -1.4990   20.8140  -32.6680 C   0  0  0  0  0  0  0  0  0  0  0  0
   -2.6160   21.3930  -31.9770 N   0  0  0  0  0  0  0  0  0  0  0  0
   -3.9160   21.5930  -32.5580 C   0  0  0  0  0  0  0  0  0  0  0  0
   -4.1170   21.3520  -33.7790 O   0  0  0  0  0  0  0  0  0  0  0  0
   -4.9870   22.1120  -31.7570 N   0  0  0  0  0  0  0  0  0  0  0  0
   -4.9330   23.1320  -30.8570 C   0  0  0  0  0  0  0  0  0  0  0  0
   -3.7700   24.0130  -30.6180 C   0  0  0  0  0  0  0  0  0  0  0  0
   -3.8740   25.4250  -30.7750 N   0  0  0  0  0  0  0  0  0  0  0  0
   -2.6750   23.5120  -30.2430 O   0  0  0  0  0  0  0  0  0  0  0  0
   -6.1560   23.2700  -30.2020 C   0  0  0  0  0  0  0  0  0  0  0  0
   -6.9640   22.2870  -30.7310 C   0  0  0  0  0  0  0  0  0  0  0  0
   -8.2770   21.9420  -30.4210 C   0  0  0  0  0  0  0  0  0  0  0  0
   -8.8500   20.8510  -31.0950 C   0  0  0  0  0  0  0  0  0  0  0  0
   -8.1040   20.1290  -32.0590 C   0  0  0  0  0  0  0  0  0  0  0  0
   -8.7060   18.9380  -32.7440 C   0  0  0  0  0  0  0  0  0  0  0  0
   -6.7690   20.4960  -32.3320 C   0  0  0  0  0  0  0  0  0  0  0  0
   -6.2340   21.6020  -31.6640 C   0  0  0  0  0  0  0  0  0  0  0  0
   -0.6400   19.4270  -31.9170 S   0  0  0  0  0  0  0  0  0  0  0  0
   -1.8920   18.1810  -32.3820 C   0  0  0  0  0  0  0  0  0  0  0  0
   -2.3550   18.3810  -33.7900 C   0  0  0  0  0  0  0  0  0  0  0  0
   -1.5270   18.2860  -34.7330 O   0  0  0  0  0  0  0  0  0  0  0  0
   -3.6960   18.7180  -34.0310 O   0  0  0  0  0  0  0  0  0  0  0  0
   -4.8120   17.8150  -34.0470 C   0  0  0  0  0  0  0  0  0  0  0  0
   -4.4090   16.4730  -34.6860 C   0  0  0  0  0  0  0  0  0  0  0  0
   -5.3630   17.5950  -32.6230 C   0  0  0  0  0  0  0  0  0  0  0  0
   -5.9050   18.4660  -34.9050 C   0  0  0  0  0  0  0  0  0  0  0  0
   -0.2524   20.7810  -34.3722 H   0  0  0  0  0  0  0  0  0  0  0  0
   -1.6555   22.0698  -34.3585 H   0  0  0  0  0  0  0  0  0  0  0  0
   -2.4460   21.7710  -31.0190 H   0  0  0  0  0  0  0  0  0  0  0  0
   -3.8620   26.0580  -29.9450 H   0  0  0  0  0  0  0  0  0  0  0  0
   -6.4196   24.0062  -29.4283 H   0  0  0  0  0  0  0  0  0  0  0  0
   -8.8487   22.5073  -29.6703 H   0  0  0  0  0  0  0  0  0  0  0  0
   -9.8858   20.5549  -30.8727 H   0  0  0  0  0  0  0  0  0  0  0  0
   -9.0668   18.2242  -31.9888 H   0  0  0  0  0  0  0  0  0  0  0  0
   -9.5479   19.2634  -33.3728 H   0  0  0  0  0  0  0  0  0  0  0  0
   -7.9448   18.4530  -33.3728 H   0  0  0  0  0  0  0  0  0  0  0  0
   -6.1640   19.9261  -33.0526 H   0  0  0  0  0  0  0  0  0  0  0  0
   -1.4519   17.1773  -32.2879 H   0  0  0  0  0  0  0  0  0  0  0  0
   -2.7573   18.2887  -31.7115 H   0  0  0  0  0  0  0  0  0  0  0  0
   -4.1893   15.7414  -33.8945 H   0  0  0  0  0  0  0  0  0  0  0  0
   -5.2351   16.1012  -35.3099 H   0  0  0  0  0  0  0  0  0  0  0  0
   -3.5147   16.6179  -35.3099 H   0  0  0  0  0  0  0  0  0  0  0  0
   -4.6049   17.8977  -31.8857 H   0  0  0  0  0  0  0  0  0  0  0  0
   -6.2715   18.1993  -32.4840 H   0  0  0  0  0  0  0  0  0  0  0  0
   -5.6055   16.5311  -32.4840 H   0  0  0  0  0  0  0  0  0  0  0  0
   -6.6644   18.9183  -34.2502 H   0  0  0  0  0  0  0  0  0  0  0  0
   -5.4575   19.2448  -35.5399 H   0  0  0  0  0  0  0  0  0  0  0  0
   -6.3767   17.7015  -35.5399 H   0  0  0  0  0  0  0  0  0  0  0  0
  1  2  2  0
  2  3  1  0
  3  4  1  0
  4  5  2  0
  4  6  1  0
  6  7  1  0
  7  8  1  0
  8  9  1  0
  8 10  2  0
  7 11  2  0
 11 12  1  0
 12 13  2  0
 13 14  1  0
 14 15  2  0
 15 16  1  0
 15 17  1  0
 17 18  2  0
  2 19  1  0
 19 20  1  0
 20 21  1  0
 21 22  2  0
 21 23  1  0
 23 24  1  0
 24 25  1  0
 24 26  1  0
 24 27  1  0
 18  6  1  0
 18 12  1  0
  1 28  1  0
  1 29  1  0
  3 30  1  0
  9 31  1  0
 11 32  1  0
 13 33  1  0
 14 34  1  0
 16 35  1  0
 16 36  1  0
 16 37  1  0
 17 38  1  0
 20 39  1  0
 20 40  1  0
 25 41  1  0
 25 42  1  0
 25 43  1  0
 26 44  1  0
 26 45  1  0
 26 46  1  0
 27 47  1  0
 27 48  1  0
 27 49  1  0
M  CHG  1   9  -1
M  END
>  <UniqueID>  (14) 
14

>  <SMILES>  (14) 
C=C(NC(=O)n1c(C([NH-])=O)cc2ccc(C)cc21)SCC(=O)OC(C)(C)C

>  <Energy>  (14) 
79.67733589867441

>  <Genealogy>  (14) 
C=C(NC(=O)n1c(C([NH-])=O)cc2ccc(C)cc21)SCC(=O)OC(C)(C)C (protonated)
C=C(NC(=O)n1c(C([NH-])=O)cc2ccc(C)cc21)SCC(=O)OC(C)(C)C (3D coordinates assigned)
C=C(NC(=O)n1c(C([NH-])=O)cc2ccc(C)cc21)SCC(=O)OC(C)(C)C (optimized conformer: 79.67733589867441 kcal/mol)

>  <smiles>  (14) 
C=C(NC(=O)n1c(C(N)=O)cc2ccc(C)cc21)SCC(=O)OC(C)(C)C

>  <score_type>  (14) 
oracle

>  <origin>  (14) 
adg

>  <m_score__min__energy>  (14) 
-11.109999999999999

>  <m_primary>  (14) 
energy

$$$$
15:0
     RDKit          3D

 24 25  0  0  0  0  0  0  0  0999 V2000
   -3.8630   25.6660  -30.8410 N   0  0  0  0  0  0  0  0  0  0  0  0
   -5.1760   25.2970  -30.4250 C   0  0  0  0  0  0  0  0  0  0  0  0
   -5.8550   26.1030  -29.7360 O   0  0  0  0  0  0  0  0  0  0  0  0
   -5.7660   24.0070  -30.8380 C   0  0  0  0  0  0  0  0  0  0  0  0
   -7.1350   23.8050  -31.0020 C   0  0  0  0  0  0  0  0  0  0  0  0
   -7.2580   22.5210  -31.4850 C   0  0  0  0  0  0  0  0  0  0  0  0
   -8.3950   21.7990  -31.8330 C   0  0  0  0  0  0  0  0  0  0  0  0
   -8.2250   20.4820  -32.2920 C   0  0  0  0  0  0  0  0  0  0  0  0
   -6.9310   19.9030  -32.3740 C   0  0  0  0  0  0  0  0  0  0  0  0
   -6.7590   18.5040  -32.9080 C   0  0  0  0  0  0  0  0  0  0  0  0
   -5.7780   17.8290  -32.2020 F   0  0  0  0  0  0  0  0  0  0  0  0
   -7.9540   17.8200  -32.7850 F   0  0  0  0  0  0  0  0  0  0  0  0
   -6.3910   18.5320  -34.2410 F   0  0  0  0  0  0  0  0  0  0  0  0
   -5.7990   20.6790  -32.0330 C   0  0  0  0  0  0  0  0  0  0  0  0
   -6.0000   21.9920  -31.5930 C   0  0  0  0  0  0  0  0  0  0  0  0
   -5.0730   22.8890  -31.1950 N   0  0  0  0  0  0  0  0  0  0  0  0
   -3.6620   22.6520  -31.0860 C   0  0  0  0  0  0  0  0  0  0  0  0
   -3.0110   23.1480  -30.1300 O   0  0  0  0  0  0  0  0  0  0  0  0
   -2.7900   21.7190  -32.3590 S   0  0  0  0  0  0  0  0  0  0  0  0
   -3.0200   25.2960  -30.3480 H   0  0  0  0  0  0  0  0  0  0  0  0
   -7.9448   24.5188  -30.7907 H   0  0  0  0  0  0  0  0  0  0  0  0
   -9.3969   22.2457  -31.7513 H   0  0  0  0  0  0  0  0  0  0  0  0
   -9.1043   19.8927  -32.5912 H   0  0  0  0  0  0  0  0  0  0  0  0
   -4.7848   20.2605  -32.1118 H   0  0  0  0  0  0  0  0  0  0  0  0
  1  2  1  0
  2  3  2  0
  2  4  1  0
  4  5  2  0
  5  6  1  0
  6  7  2  0
  7  8  1  0
  8  9  2  0
  9 10  1  0
 10 11  1  0
 10 12  1  0
 10 13  1  0
  9 14  1  0
 14 15  2  0
 15 16  1  0
 16 17  1  0
 17 18  2  0
 17 19  1  0
 16  4  1  0
 15  6  1  0
  1 20  1  0
  5 21  1  0
  7 22  1  0
  8 23  1  0
 14 24  1  0
M  CHG  2   1  -1  19  -1
M  END
>  <UniqueID>  (15) 
15

>  <SMILES>  (15) 
[NH-]C(=O)c1cc2ccc(C(F)(F)F)cc2n1C(=O)[S-]

>  <Energy>  (15) 
65.99026480502349

>  <Genealogy>  (15) 
[NH-]C(=O)c1cc2ccc(C(F)(F)F)cc2n1C(=O)[S-] (protonated)
[NH-]C(=O)c1cc2ccc(C(F)(F)F)cc2n1C(=O)[S-] (3D coordinates assigned)
[NH-]C(=O)c1cc2ccc(C(F)(F)F)cc2n1C(=O)[S-] (optimized conformer: 65.99026480502349 kcal/mol)

>  <smiles>  (15) 
NC(=O)c1cc2ccc(C(F)(F)F)cc2n1C(=O)S

>  <score_type>  (15) 
oracle

>  <origin>  (15) 
adg

>  <m_score__min__energy>  (15) 
-9.2200000000000006

>  <m_primary>  (15) 
energy

$$$$
16:0
     RDKit          3D

 36 38  0  0  0  0  0  0  0  0999 V2000
   -6.1160   17.2510  -30.7020 C   0  0  0  0  0  0  0  0  0  0  0  0
   -6.0420   17.2840  -32.1590 N   0  0  0  0  0  0  0  0  0  0  0  0
   -5.7670   16.2130  -32.8870 N   0  0  0  0  0  0  0  0  0  0  0  0
   -5.7390   16.5890  -34.1810 C   0  0  0  0  0  0  0  0  0  0  0  0
   -6.0040   17.9410  -34.2780 C   0  0  0  0  0  0  0  0  0  0  0  0
   -6.2070   18.3520  -32.9750 C   0  0  0  0  0  0  0  0  0  0  0  0
   -6.5300   19.7350  -32.5570 C   0  0  0  0  0  0  0  0  0  0  0  0
   -7.8470   20.2320  -32.7310 C   0  0  0  0  0  0  0  0  0  0  0  0
   -8.1800   21.5390  -32.3340 C   0  0  0  0  0  0  0  0  0  0  0  0
   -7.1830   22.3180  -31.7540 C   0  0  0  0  0  0  0  0  0  0  0  0
   -7.2220   23.6160  -31.2960 C   0  0  0  0  0  0  0  0  0  0  0  0
   -5.9370   23.8790  -30.8220 C   0  0  0  0  0  0  0  0  0  0  0  0
   -5.5380   25.1540  -30.1910 C   0  0  0  0  0  0  0  0  0  0  0  0
   -4.2570   25.7160  -30.4730 N   0  0  0  0  0  0  0  0  0  0  0  0
   -6.3230   25.7640  -29.4190 O   0  0  0  0  0  0  0  0  0  0  0  0
   -5.1410   22.7860  -30.9780 N   0  0  0  0  0  0  0  0  0  0  0  0
   -3.7400   22.6680  -30.6810 C   0  0  0  0  0  0  0  0  0  0  0  0
   -3.0130   21.9510  -31.4200 O   0  0  0  0  0  0  0  0  0  0  0  0
   -3.1720   23.3630  -29.5560 N   0  0  0  0  0  0  0  0  0  0  0  0
   -4.1490   23.5800  -28.0950 S   0  0  0  0  0  0  0  0  0  0  0  0
   -1.8490   23.9250  -29.5910 C   0  0  0  0  0  0  0  0  0  0  0  0
   -0.8480   23.2030  -29.8440 O   0  0  0  0  0  0  0  0  0  0  0  0
   -1.6570   25.2740  -29.3210 O   0  0  0  0  0  0  0  0  0  0  0  0
   -5.9150   21.8420  -31.5550 C   0  0  0  0  0  0  0  0  0  0  0  0
   -5.5500   20.5530  -31.9520 C   0  0  0  0  0  0  0  0  0  0  0  0
   -5.1889   17.6645  -30.2783 H   0  0  0  0  0  0  0  0  0  0  0  0
   -6.9733   17.8521  -30.3647 H   0  0  0  0  0  0  0  0  0  0  0  0
   -6.2416   16.2116  -30.3647 H   0  0  0  0  0  0  0  0  0  0  0  0
   -5.5359   15.9206  -35.0307 H   0  0  0  0  0  0  0  0  0  0  0  0
   -6.0444   18.5543  -35.1903 H   0  0  0  0  0  0  0  0  0  0  0  0
   -8.6164   19.5877  -33.1815 H   0  0  0  0  0  0  0  0  0  0  0  0
   -9.1967   21.9336  -32.4773 H   0  0  0  0  0  0  0  0  0  0  0  0
   -8.0835   24.3000  -31.3026 H   0  0  0  0  0  0  0  0  0  0  0  0
   -3.4860   25.6700  -29.7710 H   0  0  0  0  0  0  0  0  0  0  0  0
   -4.5120   24.8880  -28.4670 H   0  0  0  0  0  0  0  0  0  0  0  0
   -4.5252   20.1844  -31.7973 H   0  0  0  0  0  0  0  0  0  0  0  0
  1  2  1  0
  2  3  1  0
  3  4  2  0
  4  5  1  0
  5  6  2  0
  6  7  1  0
  7  8  2  0
  8  9  1  0
  9 10  2  0
 10 11  1  0
 11 12  2  0
 12 13  1  0
 13 14  1  0
 13 15  2  0
 12 16  1  0
 16 17  1  0
 17 18  2  0
 17 19  1  0
 19 20  1  0
 19 21  1  0
 21 22  2  0
 21 23  1  0
 16 24  1  0
 24 25  2  0
  6  2  1  0
 25  7  1  0
 24 10  1  0
  1 26  1  0
  1 27  1  0
  1 28  1  0
  4 29  1  0
  5 30  1  0
  8 31  1  0
  9 32  1  0
 11 33  1  0
 14 34  1  0
 20 35  1  0
 25 36  1  0
M  CHG  2  14  -1  23  -1
M  END
>  <UniqueID>  (16) 
16

>  <SMILES>  (16) 
Cn1nccc1-c1ccc2cc(C([NH-])=O)n(C(=O)N(S)C(=O)[O-])c2c1

>  <Energy>  (16) 
111.6245301661284

>  <Genealogy>  (16) 
Cn1nccc1-c1ccc2cc(C([NH-])=O)n(C(=O)N(S)C(=O)[O-])c2c1 (protonated)
Cn1nccc1-c1ccc2cc(C([NH-])=O)n(C(=O)N(S)C(=O)[O-])c2c1 (3D coordinates assigned)
Cn1nccc1-c1ccc2cc(C([NH-])=O)n(C(=O)N(S)C(=O)[O-])c2c1 (optimized conformer: 111.6245301661284 kcal/mol)

>  <smiles>  (16) 
Cn1nccc1-c1ccc2cc(C(N)=O)n(C(=O)N(S)C(=O)O)c2c1

>  <score_type>  (16) 
oracle

>  <origin>  (16) 
adg

>  <m_score__min__energy>  (16) 
-12.359999999999999

>  <m_primary>  (16) 
energy

$$$$
17:0
     RDKit          3D

 36 37  0  0  0  0  0  0  0  0999 V2000
   -6.8000   18.3170  -32.8510 C   0  0  0  0  0  0  0  0  0  0  0  0
   -7.0480   19.7170  -32.3770 C   0  0  0  0  0  0  0  0  0  0  0  0
   -8.3620   20.2450  -32.3760 C   0  0  0  0  0  0  0  0  0  0  0  0
   -8.6040   21.5650  -31.9560 C   0  0  0  0  0  0  0  0  0  0  0  0
   -7.5120   22.3330  -31.5640 C   0  0  0  0  0  0  0  0  0  0  0  0
   -7.4600   23.6240  -31.0860 C   0  0  0  0  0  0  0  0  0  0  0  0
   -6.1110   23.8720  -30.8400 C   0  0  0  0  0  0  0  0  0  0  0  0
   -5.5940   25.1680  -30.3550 C   0  0  0  0  0  0  0  0  0  0  0  0
   -4.2290   25.5430  -30.5470 N   0  0  0  0  0  0  0  0  0  0  0  0
   -6.3830   25.9780  -29.7970 O   0  0  0  0  0  0  0  0  0  0  0  0
   -5.3620   22.7760  -31.1440 N   0  0  0  0  0  0  0  0  0  0  0  0
   -3.9600   22.5680  -30.9110 C   0  0  0  0  0  0  0  0  0  0  0  0
   -3.1160   23.3040  -31.4890 O   0  0  0  0  0  0  0  0  0  0  0  0
   -3.4880   21.4130  -30.0840 C   0  0  0  0  0  0  0  0  0  0  0  0
   -1.9100   21.7980  -29.3470 S   0  0  0  0  0  0  0  0  0  0  0  0
   -0.9250   22.1500  -30.4250 O   0  0  0  0  0  0  0  0  0  0  0  0
   -1.4030   20.6040  -28.5850 O   0  0  0  0  0  0  0  0  0  0  0  0
   -2.0780   23.1850  -28.2380 C   0  0  0  0  0  0  0  0  0  0  0  0
   -1.4580   24.4080  -28.8330 C   0  0  0  0  0  0  0  0  0  0  0  0
   -2.1820   25.2940  -29.3580 O   0  0  0  0  0  0  0  0  0  0  0  0
   -0.0760   24.5510  -28.8480 O   0  0  0  0  0  0  0  0  0  0  0  0
   -6.2320   21.8460  -31.5880 C   0  0  0  0  0  0  0  0  0  0  0  0
   -5.9630   20.5320  -31.9850 C   0  0  0  0  0  0  0  0  0  0  0  0
   -6.6821   17.6515  -31.9831 H   0  0  0  0  0  0  0  0  0  0  0  0
   -7.6523   17.9793  -33.4589 H   0  0  0  0  0  0  0  0  0  0  0  0
   -5.8836   18.2926  -33.4589 H   0  0  0  0  0  0  0  0  0  0  0  0
   -9.2017   19.6163  -32.7071 H   0  0  0  0  0  0  0  0  0  0  0  0
   -9.6237   21.9771  -31.9379 H   0  0  0  0  0  0  0  0  0  0  0  0
   -8.3038   24.3125  -30.9314 H   0  0  0  0  0  0  0  0  0  0  0  0
   -3.5940   24.9860  -31.1580 H   0  0  0  0  0  0  0  0  0  0  0  0
   -3.8740   26.4400  -30.1460 H   0  0  0  0  0  0  0  0  0  0  0  0
   -4.2214   21.2093  -29.2898 H   0  0  0  0  0  0  0  0  0  0  0  0
   -3.3805   20.5272  -30.7273 H   0  0  0  0  0  0  0  0  0  0  0  0
   -3.1458   23.3736  -28.0532 H   0  0  0  0  0  0  0  0  0  0  0  0
   -1.5659   22.9497  -27.2933 H   0  0  0  0  0  0  0  0  0  0  0  0
   -4.9338   20.1437  -31.9917 H   0  0  0  0  0  0  0  0  0  0  0  0
  1  2  1  0
  2  3  2  0
  3  4  1  0
  4  5  2  0
  5  6  1  0
  6  7  2  0
  7  8  1  0
  8  9  1  0
  8 10  2  0
  7 11  1  0
 11 12  1  0
 12 13  2  0
 12 14  1  0
 14 15  1  0
 15 16  2  0
 15 17  2  0
 15 18  1  0
 18 19  1  0
 19 20  2  0
 19 21  1  0
 11 22  1  0
 22 23  2  0
 23  2  1  0
 22  5  1  0
  1 24  1  0
  1 25  1  0
  1 26  1  0
  3 27  1  0
  4 28  1  0
  6 29  1  0
  9 30  1  0
  9 31  1  0
 14 32  1  0
 14 33  1  0
 18 34  1  0
 18 35  1  0
 23 36  1  0
M  CHG  1  21  -1
M  END
>  <UniqueID>  (17) 
17

>  <SMILES>  (17) 
Cc1ccc2cc(C(N)=O)n(C(=O)CS(=O)(=O)CC(=O)[O-])c2c1

>  <Energy>  (17) 
65.7517795397339

>  <Genealogy>  (17) 
Cc1ccc2cc(C(N)=O)n(C(=O)CS(=O)(=O)CC(=O)[O-])c2c1 (protonated)
Cc1ccc2cc(C(N)=O)n(C(=O)CS(=O)(=O)CC(=O)[O-])c2c1 (3D coordinates assigned)
Cc1ccc2cc(C(N)=O)n(C(=O)CS(=O)(=O)CC(=O)[O-])c2c1 (optimized conformer: 65.7517795397339 kcal/mol)

>  <smiles>  (17) 
Cc1ccc2cc(C(N)=O)n(C(=O)CS(=O)(=O)CC(=O)O)c2c1

>  <score_type>  (17) 
oracle

>  <origin>  (17) 
adg

>  <m_score__min__energy>  (17) 
-11.41

>  <m_primary>  (17) 
energy

$$$$
18:0
     RDKit          3D

 52 53  0  0  0  0  0  0  0  0999 V2000
   -6.6560   18.2460  -32.2490 C   0  0  0  0  0  0  0  0  0  0  0  0
   -6.8440   19.7190  -32.0310 C   0  0  0  0  0  0  0  0  0  0  0  0
   -8.0810   20.3280  -32.3610 C   0  0  0  0  0  0  0  0  0  0  0  0
   -8.2690   21.7080  -32.1800 C   0  0  0  0  0  0  0  0  0  0  0  0
   -7.2000   22.4530  -31.6890 C   0  0  0  0  0  0  0  0  0  0  0  0
   -7.1180   23.7930  -31.3910 C   0  0  0  0  0  0  0  0  0  0  0  0
   -5.8200   23.9910  -30.9200 C   0  0  0  0  0  0  0  0  0  0  0  0
   -5.2830   25.3160  -30.5460 C   0  0  0  0  0  0  0  0  0  0  0  0
   -3.9340   25.6720  -30.8380 N   0  0  0  0  0  0  0  0  0  0  0  0
   -6.0390   26.1610  -29.9990 O   0  0  0  0  0  0  0  0  0  0  0  0
   -5.1290   22.8150  -30.9230 N   0  0  0  0  0  0  0  0  0  0  0  0
   -3.7970   22.5700  -30.4490 C   0  0  0  0  0  0  0  0  0  0  0  0
   -3.6170   22.0570  -29.3100 O   0  0  0  0  0  0  0  0  0  0  0  0
   -2.7040   22.8830  -31.2660 O   0  0  0  0  0  0  0  0  0  0  0  0
   -2.0670   21.9270  -32.1050 C   0  0  0  0  0  0  0  0  0  0  0  0
   -1.8740   20.7140  -31.3880 O   0  0  0  0  0  0  0  0  0  0  0  0
   -0.6420   20.3490  -30.8380 C   0  0  0  0  0  0  0  0  0  0  0  0
    0.0690   19.4610  -31.3820 O   0  0  0  0  0  0  0  0  0  0  0  0
   -0.1650   21.0200  -29.5900 C   0  0  0  0  0  0  0  0  0  0  0  0
   -0.8910   22.2690  -29.3740 N   0  0  0  0  0  0  0  0  0  0  0  0
   -0.5830   23.1610  -28.2910 C   0  0  0  0  0  0  0  0  0  0  0  0
    0.3480   22.8760  -27.4880 O   0  0  0  0  0  0  0  0  0  0  0  0
   -1.3520   24.4570  -28.1390 C   0  0  1  0  0  0  0  0  0  0  0  0
   -2.1000   24.7840  -29.3570 N   0  0  0  0  0  0  0  0  0  0  0  0
   -2.2850   24.4680  -26.8960 C   0  0  0  0  0  0  0  0  0  0  0  0
   -2.1050   25.7060  -26.0010 C   0  0  0  0  0  0  0  0  0  0  0  0
   -3.7600   24.3210  -27.3010 C   0  0  0  0  0  0  0  0  0  0  0  0
   -5.9860   21.8840  -31.3980 C   0  0  0  0  0  0  0  0  0  0  0  0
   -5.7770   20.5090  -31.5510 C   0  0  0  0  0  0  0  0  0  0  0  0
   -6.5910   17.7367  -31.2762 H   0  0  0  0  0  0  0  0  0  0  0  0
   -7.5105   17.8471  -32.8153 H   0  0  0  0  0  0  0  0  0  0  0  0
   -5.7287   18.0746  -32.8153 H   0  0  0  0  0  0  0  0  0  0  0  0
   -8.9008   19.7142  -32.7624 H   0  0  0  0  0  0  0  0  0  0  0  0
   -9.2308   22.1854  -32.4187 H   0  0  0  0  0  0  0  0  0  0  0  0
   -7.9092   24.5493  -31.5009 H   0  0  0  0  0  0  0  0  0  0  0  0
   -3.1720   24.9560  -30.8160 H   0  0  0  0  0  0  0  0  0  0  0  0
   -2.6979   21.7351  -32.9854 H   0  0  0  0  0  0  0  0  0  0  0  0
   -1.0912   22.3185  -32.4284 H   0  0  0  0  0  0  0  0  0  0  0  0
   -0.3313   20.3512  -28.7327 H   0  0  0  0  0  0  0  0  0  0  0  0
    0.9071   21.2436  -29.6926 H   0  0  0  0  0  0  0  0  0  0  0  0
   -1.6400   22.5300  -30.0550 H   0  0  0  0  0  0  0  0  0  0  0  0
   -0.5974   25.2403  -27.9746 H   0  0  0  0  0  0  0  0  0  0  0  0
   -1.5180   24.5200  -30.1860 H   0  0  0  0  0  0  0  0  0  0  0  0
   -2.9750   24.2150  -29.4100 H   0  0  0  0  0  0  0  0  0  0  0  0
   -1.9836   23.5955  -26.2977 H   0  0  0  0  0  0  0  0  0  0  0  0
   -2.1489   25.4040  -24.9442 H   0  0  0  0  0  0  0  0  0  0  0  0
   -1.1299   26.1705  -26.2094 H   0  0  0  0  0  0  0  0  0  0  0  0
   -2.9075   26.4289  -26.2094 H   0  0  0  0  0  0  0  0  0  0  0  0
   -4.3839   24.2588  -26.3972 H   0  0  0  0  0  0  0  0  0  0  0  0
   -4.0650   25.1932  -27.8979 H   0  0  0  0  0  0  0  0  0  0  0  0
   -3.8869   23.4058  -27.8979 H   0  0  0  0  0  0  0  0  0  0  0  0
   -4.8060   20.0551  -31.3036 H   0  0  0  0  0  0  0  0  0  0  0  0
  1  2  1  0
  2  3  2  0
  3  4  1  0
  4  5  2  0
  5  6  1  0
  6  7  2  0
  7  8  1  0
  8  9  1  0
  8 10  2  0
  7 11  1  0
 11 12  1  0
 12 13  2  0
 12 14  1  0
 14 15  1  0
 15 16  1  0
 16 17  1  0
 17 18  2  0
 17 19  1  0
 19 20  1  0
 20 21  1  0
 21 22  2  0
 21 23  1  0
 23 24  1  0
 23 25  1  0
 25 26  1  0
 25 27  1  0
 11 28  1  0
 28 29  2  0
 29  2  1  0
 28  5  1  0
  1 30  1  0
  1 31  1  0
  1 32  1  0
  3 33  1  0
  4 34  1  0
  6 35  1  0
  9 36  1  0
 15 37  1  0
 15 38  1  0
 19 39  1  0
 19 40  1  0
 20 41  1  0
 23 42  1  1
 24 43  1  0
 24 44  1  0
 25 45  1  0
 26 46  1  0
 26 47  1  0
 26 48  1  0
 27 49  1  0
 27 50  1  0
 27 51  1  0
 29 52  1  0
M  CHG  1   9  -1
M  END
>  <UniqueID>  (18) 
18

>  <SMILES>  (18) 
Cc1ccc2cc(C([NH-])=O)n(C(=O)OCOC(=O)CNC(=O)[C@@H](N)C(C)C)c2c1

>  <Energy>  (18) 
79.4001856586807

>  <Genealogy>  (18) 
Cc1ccc2cc(C([NH-])=O)n(C(=O)OCOC(=O)CNC(=O)[C@@H](N)C(C)C)c2c1 (protonated)
Cc1ccc2cc(C([NH-])=O)n(C(=O)OCOC(=O)CNC(=O)[C@@H](N)C(C)C)c2c1 (3D coordinates assigned)
Cc1ccc2cc(C([NH-])=O)n(C(=O)OCOC(=O)CNC(=O)[C@@H](N)C(C)C)c2c1 (optimized conformer: 79.4001856586807 kcal/mol)

>  <smiles>  (18) 
Cc1ccc2cc(C(N)=O)n(C(=O)OCOC(=O)CNC(=O)[C@@H](N)C(C)C)c2c1

>  <score_type>  (18) 
oracle

>  <origin>  (18) 
adg

>  <m_score__min__energy>  (18) 
-10.35

>  <m_primary>  (18) 
energy

$$$$
19:0
     RDKit          3D

 37 38  0  0  0  0  0  0  0  0999 V2000
   -4.2160   23.8930  -27.5500 C   0  0  0  0  0  0  0  0  0  0  0  0
   -3.2570   23.6130  -28.6360 N   0  0  1  0  0  0  0  0  0  0  0  0
   -1.8570   23.5930  -28.1580 C   0  0  0  0  0  0  0  0  0  0  0  0
   -1.0520   24.7840  -28.6040 C   0  0  0  0  0  0  0  0  0  0  0  0
   -1.5800   25.6740  -29.3220 O   0  0  0  0  0  0  0  0  0  0  0  0
    0.2830   24.9010  -28.2350 O   0  0  0  0  0  0  0  0  0  0  0  0
   -3.5930   22.3920  -29.3430 C   0  0  0  0  0  0  0  0  0  0  0  0
   -3.4230   21.2680  -28.7910 O   0  0  0  0  0  0  0  0  0  0  0  0
   -4.0690   22.4330  -30.7420 C   0  0  0  0  0  0  0  0  0  0  0  0
   -3.2700   22.1880  -31.6860 O   0  0  0  0  0  0  0  0  0  0  0  0
   -5.4400   22.7370  -31.0390 N   0  0  0  0  0  0  0  0  0  0  0  0
   -6.0750   23.9350  -30.8960 C   0  0  0  0  0  0  0  0  0  0  0  0
   -5.4350   25.2070  -30.5020 C   0  0  0  0  0  0  0  0  0  0  0  0
   -4.0140   25.3250  -30.5250 N   0  0  0  0  0  0  0  0  0  0  0  0
   -6.1290   26.1880  -30.1240 O   0  0  0  0  0  0  0  0  0  0  0  0
   -7.4240   23.8130  -31.2270 C   0  0  0  0  0  0  0  0  0  0  0  0
   -7.5950   22.4930  -31.5790 C   0  0  0  0  0  0  0  0  0  0  0  0
   -8.7440   21.8110  -31.9700 C   0  0  0  0  0  0  0  0  0  0  0  0
   -8.6340   20.4360  -32.2390 C   0  0  0  0  0  0  0  0  0  0  0  0
   -7.3850   19.7700  -32.1240 C   0  0  0  0  0  0  0  0  0  0  0  0
   -7.2880   18.2860  -32.3610 C   0  0  0  0  0  0  0  0  0  0  0  0
   -8.5270   17.7080  -32.1520 F   0  0  0  0  0  0  0  0  0  0  0  0
   -6.8830   18.0230  -33.6580 F   0  0  0  0  0  0  0  0  0  0  0  0
   -6.3720   17.7120  -31.4970 F   0  0  0  0  0  0  0  0  0  0  0  0
   -6.2480   20.4950  -31.6970 C   0  0  0  0  0  0  0  0  0  0  0  0
   -6.3840   21.8660  -31.4540 C   0  0  0  0  0  0  0  0  0  0  0  0
   -3.7216   23.7487  -26.5780 H   0  0  0  0  0  0  0  0  0  0  0  0
   -4.5689   24.9317  -27.6312 H   0  0  0  0  0  0  0  0  0  0  0  0
   -5.0723   23.2074  -27.6312 H   0  0  0  0  0  0  0  0  0  0  0  0
   -3.3430   24.4130  -29.3060 H   0  0  0  0  0  0  0  0  0  0  0  0
   -1.8651   23.5706  -27.0583 H   0  0  0  0  0  0  0  0  0  0  0  0
   -1.3807   22.7008  -28.5906 H   0  0  0  0  0  0  0  0  0  0  0  0
   -3.4910   25.6720  -29.6910 H   0  0  0  0  0  0  0  0  0  0  0  0
   -8.1889   24.6033  -31.2104 H   0  0  0  0  0  0  0  0  0  0  0  0
   -9.7080   22.3322  -32.0654 H   0  0  0  0  0  0  0  0  0  0  0  0
   -9.5263   19.8687  -32.5423 H   0  0  0  0  0  0  0  0  0  0  0  0
   -5.2793   19.9925  -31.5592 H   0  0  0  0  0  0  0  0  0  0  0  0
  1  2  1  0
  2  3  1  0
  3  4  1  0
  4  5  2  0
  4  6  1  0
  2  7  1  0
  7  8  2  0
  7  9  1  0
  9 10  2  0
  9 11  1  0
 11 12  1  0
 12 13  1  0
 13 14  1  0
 13 15  2  0
 12 16  2  0
 16 17  1  0
 17 18  2  0
 18 19  1  0
 19 20  2  0
 20 21  1  0
 21 22  1  0
 21 23  1  0
 21 24  1  0
 20 25  1  0
 25 26  2  0
 26 11  1  0
 26 17  1  0
  1 27  1  0
  1 28  1  0
  1 29  1  0
  2 30  1  6
  3 31  1  0
  3 32  1  0
 14 33  1  0
 16 34  1  0
 18 35  1  0
 19 36  1  0
 25 37  1  0
M  CHG  3   2   1   6  -1  14  -1
M  END
>  <UniqueID>  (19) 
19

>  <SMILES>  (19) 
C[N@@H+](CC(=O)[O-])C(=O)C(=O)n1c(C([NH-])=O)cc2ccc(C(F)(F)F)cc21

>  <Energy>  (19) 
80.55371823365539

>  <Genealogy>  (19) 
C[NH+](CC(=O)[O-])C(=O)C(=O)n1c(C([NH-])=O)cc2ccc(C(F)(F)F)cc21 (protonated)
C[N@@H+](CC(=O)[O-])C(=O)C(=O)n1c(C([NH-])=O)cc2ccc(C(F)(F)F)cc21 (chirality)
C[N@@H+](CC(=O)[O-])C(=O)C(=O)n1c(C([NH-])=O)cc2ccc(C(F)(F)F)cc21 (3D coordinates assigned)
C[N@@H+](CC(=O)[O-])C(=O)C(=O)n1c(C([NH-])=O)cc2ccc(C(F)(F)F)cc21 (optimized conformer: 80.55371823365539 kcal/mol)

>  <smiles>  (19) 
CN(CC(=O)O)C(=O)C(=O)n1c(C(N)=O)cc2ccc(C(F)(F)F)cc21

>  <score_type>  (19) 
oracle

>  <origin>  (19) 
adg

>  <m_score__min__energy>  (19) 
-11.31

>  <m_primary>  (19) 
energy

$$$$
20:0
     RDKit          3D

 31 33  0  0  0  0  0  0  0  0999 V2000
   -3.8520   25.4220  -30.4670 N   0  0  0  0  0  0  0  0  0  0  0  0
   -3.7800   24.0040  -30.5950 C   0  0  0  0  0  0  0  0  0  0  0  0
   -2.6750   23.4250  -30.4180 O   0  0  0  0  0  0  0  0  0  0  0  0
   -4.9850   23.2030  -30.9000 C   0  0  0  0  0  0  0  0  0  0  0  0
   -6.2740   23.7320  -30.9480 C   0  0  0  0  0  0  0  0  0  0  0  0
   -7.0880   22.6800  -31.3050 C   0  0  0  0  0  0  0  0  0  0  0  0
   -8.4640   22.6370  -31.5010 C   0  0  0  0  0  0  0  0  0  0  0  0
   -9.0410   21.4030  -31.8500 C   0  0  0  0  0  0  0  0  0  0  0  0
   -8.2430   20.2370  -31.9740 C   0  0  0  0  0  0  0  0  0  0  0  0
   -8.8670   18.9300  -32.3920 C   0  0  0  0  0  0  0  0  0  0  0  0
   -9.9200   19.1840  -33.2520 F   0  0  0  0  0  0  0  0  0  0  0  0
   -7.9400   18.1310  -33.0390 F   0  0  0  0  0  0  0  0  0  0  0  0
   -9.3400   18.2400  -31.2910 F   0  0  0  0  0  0  0  0  0  0  0  0
   -6.8440   20.3290  -31.7880 C   0  0  0  0  0  0  0  0  0  0  0  0
   -6.2970   21.5720  -31.4570 C   0  0  0  0  0  0  0  0  0  0  0  0
   -5.0040   21.8780  -31.2190 N   0  0  0  0  0  0  0  0  0  0  0  0
   -3.9010   20.9600  -31.2160 C   0  0  0  0  0  0  0  0  0  0  0  0
   -3.7370   20.1870  -30.2360 O   0  0  0  0  0  0  0  0  0  0  0  0
   -2.9620   20.9120  -32.3500 C   0  0  0  0  0  0  0  0  0  0  0  0
   -3.0900   20.1390  -33.4900 C   0  0  0  0  0  0  0  0  0  0  0  0
   -2.0450   20.3710  -34.2520 O   0  0  0  0  0  0  0  0  0  0  0  0
   -1.2980   21.2440  -33.6160 C   0  0  0  0  0  0  0  0  0  0  0  0
   -0.2090   21.6890  -34.0660 O   0  0  0  0  0  0  0  0  0  0  0  0
   -1.8160   21.6140  -32.4320 N   0  0  0  0  0  0  0  0  0  0  0  0
   -3.4940   26.0470  -31.2220 H   0  0  0  0  0  0  0  0  0  0  0  0
   -6.5767   24.7697  -30.7440 H   0  0  0  0  0  0  0  0  0  0  0  0
   -9.0818   23.5399  -31.3866 H   0  0  0  0  0  0  0  0  0  0  0  0
  -10.1246   21.3413  -32.0290 H   0  0  0  0  0  0  0  0  0  0  0  0
   -6.2016   19.4433  -31.9011 H   0  0  0  0  0  0  0  0  0  0  0  0
   -3.9188   19.4526  -33.7179 H   0  0  0  0  0  0  0  0  0  0  0  0
   -1.4140   22.2820  -31.7370 H   0  0  0  0  0  0  0  0  0  0  0  0
  1  2  1  0
  2  3  2  0
  2  4  1  0
  4  5  2  0
  5  6  1  0
  6  7  2  0
  7  8  1  0
  8  9  2  0
  9 10  1  0
 10 11  1  0
 10 12  1  0
 10 13  1  0
  9 14  1  0
 14 15  2  0
 15 16  1  0
 16 17  1  0
 17 18  2  0
 17 19  1  0
 19 20  2  0
 20 21  1  0
 21 22  1  0
 22 23  2  0
 22 24  1  0
 16  4  1  0
 24 19  1  0
 15  6  1  0
  1 25  1  0
  5 26  1  0
  7 27  1  0
  8 28  1  0
 14 29  1  0
 20 30  1  0
 24 31  1  0
M  CHG  1   1  -1
M  END
>  <UniqueID>  (20) 
20

>  <SMILES>  (20) 
[NH-]C(=O)c1cc2ccc(C(F)(F)F)cc2n1C(=O)c1coc(=O)[nH]1

>  <Energy>  (20) 
105.37816261250482

>  <Genealogy>  (20) 
[NH-]C(=O)c1cc2ccc(C(F)(F)F)cc2n1C(=O)c1coc(=O)[nH]1 (protonated)
[NH-]C(=O)c1cc2ccc(C(F)(F)F)cc2n1C(=O)c1coc(=O)[nH]1 (3D coordinates assigned)
[NH-]C(=O)c1cc2ccc(C(F)(F)F)cc2n1C(=O)c1coc(=O)[nH]1 (optimized conformer: 105.37816261250482 kcal/mol)

>  <smiles>  (20) 
NC(=O)c1cc2ccc(C(F)(F)F)cc2n1C(=O)c1coc(=O)[nH]1

>  <score_type>  (20) 
oracle

>  <origin>  (20) 
adg

>  <m_score__min__energy>  (20) 
-9.5899999999999999

>  <m_primary>  (20) 
energy

$$$$
21:0
     RDKit          3D

 46 47  0  0  0  0  0  0  0  0999 V2000
   -9.1020   19.4930  -32.0310 C   0  0  0  0  0  0  0  0  0  0  0  0
   -8.5080   20.7110  -32.4290 O   0  0  0  0  0  0  0  0  0  0  0  0
   -9.1420   21.8030  -31.7870 C   0  0  0  0  0  0  0  0  0  0  0  0
   -8.2670   23.0560  -31.8510 C   0  0  0  0  0  0  0  0  0  0  0  0
   -7.2610   22.9970  -30.8550 O   0  0  0  0  0  0  0  0  0  0  0  0
   -6.7780   24.2900  -30.5560 C   0  0  0  0  0  0  0  0  0  0  0  0
   -5.2910   24.2570  -30.4220 C   0  0  0  0  0  0  0  0  0  0  0  0
   -4.5960   25.2220  -30.8440 O   0  0  0  0  0  0  0  0  0  0  0  0
   -4.6780   23.1150  -29.8940 O   0  0  0  0  0  0  0  0  0  0  0  0
   -3.3050   22.8070  -30.1060 C   0  0  0  0  0  0  0  0  0  0  0  0
   -3.0110   22.8760  -31.4970 O   0  0  0  0  0  0  0  0  0  0  0  0
   -3.7560   22.2000  -32.4670 C   0  0  0  0  0  0  0  0  0  0  0  0
   -4.7210   22.7750  -33.0400 O   0  0  0  0  0  0  0  0  0  0  0  0
   -3.4180   20.8440  -32.8050 N   0  0  0  0  0  0  0  0  0  0  0  0
   -4.2110   19.7440  -32.6670 C   0  0  0  0  0  0  0  0  0  0  0  0
   -5.5130   19.7000  -31.9760 C   0  0  0  0  0  0  0  0  0  0  0  0
   -6.0720   20.8720  -31.3810 N   0  0  0  0  0  0  0  0  0  0  0  0
   -6.1220   18.6020  -31.8670 O   0  0  0  0  0  0  0  0  0  0  0  0
   -3.6140   18.6290  -33.2470 C   0  0  0  0  0  0  0  0  0  0  0  0
   -2.4110   19.0780  -33.7430 C   0  0  0  0  0  0  0  0  0  0  0  0
   -1.4300   18.3960  -34.4520 C   0  0  0  0  0  0  0  0  0  0  0  0
   -0.3110   19.1210  -34.8920 C   0  0  0  0  0  0  0  0  0  0  0  0
   -0.1870   20.5060  -34.6130 C   0  0  0  0  0  0  0  0  0  0  0  0
    0.9910   21.2810  -35.1470 C   0  0  0  0  0  0  0  0  0  0  0  0
    0.6560   22.6090  -35.3430 F   0  0  0  0  0  0  0  0  0  0  0  0
    1.3880   20.7330  -36.3540 F   0  0  0  0  0  0  0  0  0  0  0  0
    2.0510   21.2290  -34.2570 F   0  0  0  0  0  0  0  0  0  0  0  0
   -1.2220   21.1690  -33.9130 C   0  0  0  0  0  0  0  0  0  0  0  0
   -2.3170   20.4190  -33.4650 C   0  0  0  0  0  0  0  0  0  0  0  0
   -9.1281   19.4395  -30.9326 H   0  0  0  0  0  0  0  0  0  0  0  0
  -10.1275   19.4391  -32.4252 H   0  0  0  0  0  0  0  0  0  0  0  0
   -8.5130   18.6518  -32.4252 H   0  0  0  0  0  0  0  0  0  0  0  0
  -10.1007   22.0072  -32.2862 H   0  0  0  0  0  0  0  0  0  0  0  0
   -9.3068   21.5427  -30.7310 H   0  0  0  0  0  0  0  0  0  0  0  0
   -7.7946   23.1199  -32.8423 H   0  0  0  0  0  0  0  0  0  0  0  0
   -8.8941   23.9431  -31.6781 H   0  0  0  0  0  0  0  0  0  0  0  0
   -7.0563   24.9800  -31.3662 H   0  0  0  0  0  0  0  0  0  0  0  0
   -7.2201   24.6324  -29.6088 H   0  0  0  0  0  0  0  0  0  0  0  0
   -2.6791   23.5304  -29.5629 H   0  0  0  0  0  0  0  0  0  0  0  0
   -3.0966   21.7916  -29.7378 H   0  0  0  0  0  0  0  0  0  0  0  0
   -5.5300   21.7630  -31.3390 H   0  0  0  0  0  0  0  0  0  0  0  0
   -7.0140   20.8360  -30.9320 H   0  0  0  0  0  0  0  0  0  0  0  0
   -4.0173   17.6069  -33.2982 H   0  0  0  0  0  0  0  0  0  0  0  0
   -1.5270   17.3207  -34.6623 H   0  0  0  0  0  0  0  0  0  0  0  0
    0.4793   18.6085  -35.4601 H   0  0  0  0  0  0  0  0  0  0  0  0
   -1.1681   22.2514  -33.7243 H   0  0  0  0  0  0  0  0  0  0  0  0
  1  2  1  0
  2  3  1  0
  3  4  1  0
  4  5  1  0
  5  6  1  0
  6  7  1  0
  7  8  2  0
  7  9  1  0
  9 10  1  0
 10 11  1  0
 11 12  1  0
 12 13  2  0
 12 14  1  0
 14 15  1  0
 15 16  1  0
 16 17  1  0
 16 18  2  0
 15 19  2  0
 19 20  1  0
 20 21  2  0
 21 22  1  0
 22 23  2  0
 23 24  1  0
 24 25  1  0
 24 26  1  0
 24 27  1  0
 23 28  1  0
 28 29  2  0
 29 14  1  0
 29 20  1  0
  1 30  1  0
  1 31  1  0
  1 32  1  0
  3 33  1  0
  3 34  1  0
  4 35  1  0
  4 36  1  0
  6 37  1  0
  6 38  1  0
 10 39  1  0
 10 40  1  0
 17 41  1  0
 17 42  1  0
 19 43  1  0
 21 44  1  0
 22 45  1  0
 28 46  1  0
M  END
>  <UniqueID>  (21) 
21

>  <SMILES>  (21) 
COCCOCC(=O)OCOC(=O)n1c(C(N)=O)cc2ccc(C(F)(F)F)cc21

>  <Energy>  (21) 
83.7675269880337

>  <Genealogy>  (21) 
COCCOCC(=O)OCOC(=O)n1c(C(N)=O)cc2ccc(C(F)(F)F)cc21 (3D coordinates assigned)
COCCOCC(=O)OCOC(=O)n1c(C(N)=O)cc2ccc(C(F)(F)F)cc21 (optimized conformer: 83.7675269880337 kcal/mol)

>  <smiles>  (21) 
COCCOCC(=O)OCOC(=O)n1c(C(N)=O)cc2ccc(C(F)(F)F)cc21

>  <score_type>  (21) 
oracle

>  <origin>  (21) 
adg

>  <m_score__min__energy>  (21) 
-7.7000000000000002

>  <m_primary>  (21) 
energy

$$$$
22:0
     RDKit          3D

 31 32  0  0  0  0  0  0  0  0999 V2000
   -5.7430   18.3630  -34.6440 C   0  0  0  0  0  0  0  0  0  0  0  0
   -6.3670   18.5040  -33.3250 N   0  0  0  0  0  0  0  0  0  0  0  0
   -6.5980   19.8290  -32.8010 C   0  0  0  0  0  0  0  0  0  0  0  0
   -7.9180   20.3410  -32.7160 C   0  0  0  0  0  0  0  0  0  0  0  0
   -8.1630   21.6210  -32.1920 C   0  0  0  0  0  0  0  0  0  0  0  0
   -7.0710   22.3710  -31.7660 C   0  0  0  0  0  0  0  0  0  0  0  0
   -7.0230   23.6220  -31.1930 C   0  0  0  0  0  0  0  0  0  0  0  0
   -5.6730   23.8640  -30.9480 C   0  0  0  0  0  0  0  0  0  0  0  0
   -5.1530   25.1220  -30.3690 C   0  0  0  0  0  0  0  0  0  0  0  0
   -3.9240   25.6660  -30.8430 N   0  0  0  0  0  0  0  0  0  0  0  0
   -5.7740   25.7130  -29.4480 O   0  0  0  0  0  0  0  0  0  0  0  0
   -4.9170   22.8060  -31.3570 N   0  0  0  0  0  0  0  0  0  0  0  0
   -3.4960   22.6430  -31.2300 C   0  0  0  0  0  0  0  0  0  0  0  0
   -2.8110   22.3210  -32.2370 O   0  0  0  0  0  0  0  0  0  0  0  0
   -2.8250   22.8400  -29.9390 C   0  0  0  0  0  0  0  0  0  0  0  0
   -1.9510   23.7350  -29.7990 O   0  0  0  0  0  0  0  0  0  0  0  0
   -5.7880   21.9000  -31.8510 C   0  0  0  0  0  0  0  0  0  0  0  0
   -5.5160   20.6220  -32.3480 C   0  0  0  0  0  0  0  0  0  0  0  0
   -6.9250   17.3180  -32.6590 C   0  0  0  0  0  0  0  0  0  0  0  0
   -8.1440   17.6350  -32.0880 F   0  0  0  0  0  0  0  0  0  0  0  0
   -7.1090   16.2960  -33.5760 F   0  0  0  0  0  0  0  0  0  0  0  0
   -6.0640   16.8580  -31.6760 F   0  0  0  0  0  0  0  0  0  0  0  0
   -4.6767   18.1221  -34.5213 H   0  0  0  0  0  0  0  0  0  0  0  0
   -6.2400   17.5545  -35.2002 H   0  0  0  0  0  0  0  0  0  0  0  0
   -5.8441   19.3066  -35.2002 H   0  0  0  0  0  0  0  0  0  0  0  0
   -8.7614   19.7273  -33.0652 H   0  0  0  0  0  0  0  0  0  0  0  0
   -9.1863   22.0182  -32.1206 H   0  0  0  0  0  0  0  0  0  0  0  0
   -7.8704   24.2887  -30.9750 H   0  0  0  0  0  0  0  0  0  0  0  0
   -3.0080   25.2970  -30.5040 H   0  0  0  0  0  0  0  0  0  0  0  0
   -3.0888   22.1987  -29.0851 H   0  0  0  0  0  0  0  0  0  0  0  0
   -4.4848   20.2411  -32.3863 H   0  0  0  0  0  0  0  0  0  0  0  0
  1  2  1  0
  2  3  1  0
  3  4  2  0
  4  5  1  0
  5  6  2  0
  6  7  1  0
  7  8  2  0
  8  9  1  0
  9 10  1  0
  9 11  2  0
  8 12  1  0
 12 13  1  0
 13 14  2  0
 13 15  1  0
 15 16  2  0
 12 17  1  0
 17 18  2  0
  2 19  1  0
 19 20  1  0
 19 21  1  0
 19 22  1  0
 18  3  1  0
 17  6  1  0
  1 23  1  0
  1 24  1  0
  1 25  1  0
  4 26  1  0
  5 27  1  0
  7 28  1  0
 10 29  1  0
 15 30  1  0
 18 31  1  0
M  CHG  1  10  -1
M  END
>  <UniqueID>  (22) 
22

>  <SMILES>  (22) 
CN(c1ccc2cc(C([NH-])=O)n(C(=O)C=O)c2c1)C(F)(F)F

>  <Energy>  (22) 
73.67755478564108

>  <Genealogy>  (22) 
CN(c1ccc2cc(C([NH-])=O)n(C(=O)C=O)c2c1)C(F)(F)F (protonated)
CN(c1ccc2cc(C([NH-])=O)n(C(=O)C=O)c2c1)C(F)(F)F (3D coordinates assigned)
CN(c1ccc2cc(C([NH-])=O)n(C(=O)C=O)c2c1)C(F)(F)F (optimized conformer: 73.67755478564108 kcal/mol)

>  <smiles>  (22) 
CN(c1ccc2cc(C(N)=O)n(C(=O)C=O)c2c1)C(F)(F)F

>  <score_type>  (22) 
oracle

>  <origin>  (22) 
adg

>  <m_score__min__energy>  (22) 
-9.2599999999999998

>  <m_primary>  (22) 
energy

$$$$
23:0
     RDKit          3D

 38 40  0  0  0  0  0  0  0  0999 V2000
   -4.2290   25.7380  -30.4980 N   0  0  0  0  0  0  0  0  0  0  0  0
   -5.5330   25.2190  -30.2430 C   0  0  0  0  0  0  0  0  0  0  0  0
   -6.2910   25.8260  -29.4400 O   0  0  0  0  0  0  0  0  0  0  0  0
   -5.9830   23.9550  -30.8620 C   0  0  0  0  0  0  0  0  0  0  0  0
   -7.3240   23.6240  -31.0390 C   0  0  0  0  0  0  0  0  0  0  0  0
   -7.3210   22.3490  -31.5560 C   0  0  0  0  0  0  0  0  0  0  0  0
   -8.3810   21.5330  -31.9340 C   0  0  0  0  0  0  0  0  0  0  0  0
   -8.0820   20.2680  -32.4670 C   0  0  0  0  0  0  0  0  0  0  0  0
   -6.7370   19.8420  -32.6230 C   0  0  0  0  0  0  0  0  0  0  0  0
   -6.4520   18.5070  -33.1990 C   0  0  0  0  0  0  0  0  0  0  0  0
   -6.2600   17.3900  -32.4680 N   0  0  0  0  0  0  0  0  0  0  0  0
   -6.0330   16.4310  -33.3540 N   0  0  0  0  0  0  0  0  0  0  0  0
   -6.0800   16.9280  -34.5800 N   0  0  0  0  0  0  0  0  0  0  0  0
   -6.3410   18.2210  -34.5100 N   0  0  0  0  0  0  0  0  0  0  0  0
   -5.6880   20.7050  -32.2300 C   0  0  0  0  0  0  0  0  0  0  0  0
   -6.0150   21.9520  -31.6820 C   0  0  0  0  0  0  0  0  0  0  0  0
   -5.1800   22.9270  -31.2630 N   0  0  0  0  0  0  0  0  0  0  0  0
   -3.7470   22.8950  -31.3210 C   0  0  0  0  0  0  0  0  0  0  0  0
   -3.1660   22.1050  -32.1150 O   0  0  0  0  0  0  0  0  0  0  0  0
   -3.0030   23.7290  -30.4770 O   0  0  0  0  0  0  0  0  0  0  0  0
   -2.3730   23.2900  -29.2720 C   0  0  0  0  0  0  0  0  0  0  0  0
   -1.2070   24.2300  -28.9550 C   0  0  0  0  0  0  0  0  0  0  0  0
   -1.6360   25.5640  -28.9700 O   0  0  0  0  0  0  0  0  0  0  0  0
   -3.3890   23.2680  -28.1170 C   0  0  0  0  0  0  0  0  0  0  0  0
   -3.9880   24.5250  -27.9520 O   0  0  0  0  0  0  0  0  0  0  0  0
   -3.4790   25.6860  -29.7730 H   0  0  0  0  0  0  0  0  0  0  0  0
   -8.2002   24.2495  -30.8132 H   0  0  0  0  0  0  0  0  0  0  0  0
   -9.4225   21.8677  -31.8192 H   0  0  0  0  0  0  0  0  0  0  0  0
   -8.9014   19.5985  -32.7675 H   0  0  0  0  0  0  0  0  0  0  0  0
   -6.4270   18.8550  -35.3340 H   0  0  0  0  0  0  0  0  0  0  0  0
   -4.6372   20.4034  -32.3521 H   0  0  0  0  0  0  0  0  0  0  0  0
   -1.9899   22.2670  -29.4012 H   0  0  0  0  0  0  0  0  0  0  0  0
   -0.8079   23.9890  -27.9587 H   0  0  0  0  0  0  0  0  0  0  0  0
   -0.4254   24.0983  -29.7178 H   0  0  0  0  0  0  0  0  0  0  0  0
   -2.1760   25.6700  -29.7970 H   0  0  0  0  0  0  0  0  0  0  0  0
   -4.1686   22.5240  -28.3375 H   0  0  0  0  0  0  0  0  0  0  0  0
   -2.8595   23.0070  -27.1888 H   0  0  0  0  0  0  0  0  0  0  0  0
   -3.7780   25.0480  -28.7690 H   0  0  0  0  0  0  0  0  0  0  0  0
  1  2  1  0
  2  3  2  0
  2  4  1  0
  4  5  2  0
  5  6  1  0
  6  7  2  0
  7  8  1  0
  8  9  2  0
  9 10  1  0
 10 11  2  0
 11 12  1  0
 12 13  1  0
 13 14  2  0
  9 15  1  0
 15 16  2  0
 16 17  1  0
 17 18  1  0
 18 19  2  0
 18 20  1  0
 20 21  1  0
 21 22  1  0
 22 23  1  0
 21 24  1  0
 24 25  1  0
 17  4  1  0
 16  6  1  0
 14 10  1  0
  1 26  1  0
  5 27  1  0
  7 28  1  0
  8 29  1  0
 14 30  1  0
 15 31  1  0
 21 32  1  0
 22 33  1  0
 22 34  1  0
 23 35  1  0
 24 36  1  0
 24 37  1  0
 25 38  1  0
M  CHG  3   1  -1  12  -1  14   1
M  END
>  <UniqueID>  (23) 
23

>  <SMILES>  (23) 
[NH-]C(=O)c1cc2ccc(-c3n[n-]n[nH+]3)cc2n1C(=O)OC(CO)CO

>  <Energy>  (23) 
114.98353943609662

>  <Genealogy>  (23) 
[NH-]C(=O)c1cc2ccc(-c3n[n-]n[nH+]3)cc2n1C(=O)OC(CO)CO (protonated)
[NH-]C(=O)c1cc2ccc(-c3n[n-]n[nH+]3)cc2n1C(=O)OC(CO)CO (3D coordinates assigned)
[NH-]C(=O)c1cc2ccc(-c3n[n-]n[nH+]3)cc2n1C(=O)OC(CO)CO (optimized conformer: 114.98353943609662 kcal/mol)

>  <smiles>  (23) 
NC(=O)c1cc2ccc(-c3nn[nH]n3)cc2n1C(=O)OC(CO)CO

>  <score_type>  (23) 
oracle

>  <origin>  (23) 
adg

>  <m_score__min__energy>  (23) 
-11.33

>  <m_primary>  (23) 
energy

$$$$
24:0
     RDKit          3D

 36 37  0  0  0  0  0  0  0  0999 V2000
   -3.8130   24.5290  -27.2410 C   0  0  0  0  0  0  0  0  0  0  0  0
   -3.8400   23.0220  -27.4680 C   0  0  0  0  0  0  0  0  0  0  0  0
   -2.6190   22.5150  -28.6730 S   0  0  0  0  0  0  0  0  0  0  0  0
   -1.9580   23.7400  -29.2400 O   0  0  0  0  0  0  0  0  0  0  0  0
   -1.5770   21.6740  -27.9910 O   0  0  0  0  0  0  0  0  0  0  0  0
   -3.3450   21.5850  -30.0140 C   0  0  0  0  0  0  0  0  0  0  0  0
   -3.8820   22.4990  -31.0800 C   0  0  0  0  0  0  0  0  0  0  0  0
   -3.0910   22.9770  -31.9370 O   0  0  0  0  0  0  0  0  0  0  0  0
   -5.2830   22.8090  -31.1510 N   0  0  0  0  0  0  0  0  0  0  0  0
   -5.8900   24.0020  -30.8830 C   0  0  0  0  0  0  0  0  0  0  0  0
   -5.2200   25.2620  -30.4890 C   0  0  0  0  0  0  0  0  0  0  0  0
   -3.8650   25.5230  -30.8430 N   0  0  0  0  0  0  0  0  0  0  0  0
   -5.8620   26.1320  -29.8420 O   0  0  0  0  0  0  0  0  0  0  0  0
   -7.2690   23.8920  -31.0560 C   0  0  0  0  0  0  0  0  0  0  0  0
   -7.4910   22.5860  -31.4230 C   0  0  0  0  0  0  0  0  0  0  0  0
   -8.6830   21.9250  -31.7020 C   0  0  0  0  0  0  0  0  0  0  0  0
   -8.6210   20.5570  -32.0110 C   0  0  0  0  0  0  0  0  0  0  0  0
   -7.3810   19.8670  -32.0020 C   0  0  0  0  0  0  0  0  0  0  0  0
   -7.3230   18.4040  -32.3610 C   0  0  0  0  0  0  0  0  0  0  0  0
   -6.4970   17.7170  -31.4870 F   0  0  0  0  0  0  0  0  0  0  0  0
   -6.8300   18.2350  -33.6440 F   0  0  0  0  0  0  0  0  0  0  0  0
   -8.5950   17.8680  -32.2930 F   0  0  0  0  0  0  0  0  0  0  0  0
   -6.1900   20.5800  -31.7320 C   0  0  0  0  0  0  0  0  0  0  0  0
   -6.2780   21.9500  -31.4610 C   0  0  0  0  0  0  0  0  0  0  0  0
   -3.8093   24.7371  -26.1609 H   0  0  0  0  0  0  0  0  0  0  0  0
   -2.9071   24.9526  -27.6992 H   0  0  0  0  0  0  0  0  0  0  0  0
   -4.7031   24.9848  -27.6992 H   0  0  0  0  0  0  0  0  0  0  0  0
   -3.6331   22.5137  -26.5147 H   0  0  0  0  0  0  0  0  0  0  0  0
   -4.8346   22.7497  -27.8509 H   0  0  0  0  0  0  0  0  0  0  0  0
   -2.5775   20.9317  -30.4545 H   0  0  0  0  0  0  0  0  0  0  0  0
   -4.1782   20.9886  -29.6138 H   0  0  0  0  0  0  0  0  0  0  0  0
   -3.1290   24.7900  -30.7350 H   0  0  0  0  0  0  0  0  0  0  0  0
   -8.0213   24.6839  -30.9261 H   0  0  0  0  0  0  0  0  0  0  0  0
   -9.6449   22.4582  -31.6811 H   0  0  0  0  0  0  0  0  0  0  0  0
   -9.5438   20.0139  -32.2629 H   0  0  0  0  0  0  0  0  0  0  0  0
   -5.2159   20.0690  -31.7349 H   0  0  0  0  0  0  0  0  0  0  0  0
  1  2  1  0
  2  3  1  0
  3  4  2  0
  3  5  2  0
  3  6  1  0
  6  7  1  0
  7  8  2  0
  7  9  1  0
  9 10  1  0
 10 11  1  0
 11 12  1  0
 11 13  2  0
 10 14  2  0
 14 15  1  0
 15 16  2  0
 16 17  1  0
 17 18  2  0
 18 19  1  0
 19 20  1  0
 19 21  1  0
 19 22  1  0
 18 23  1  0
 23 24  2  0
 24  9  1  0
 24 15  1  0
  1 25  1  0
  1 26  1  0
  1 27  1  0
  2 28  1  0
  2 29  1  0
  6 30  1  0
  6 31  1  0
 12 32  1  0
 14 33  1  0
 16 34  1  0
 17 35  1  0
 23 36  1  0
M  CHG  1  12  -1
M  END
>  <UniqueID>  (24) 
24

>  <SMILES>  (24) 
CCS(=O)(=O)CC(=O)n1c(C([NH-])=O)cc2ccc(C(F)(F)F)cc21

>  <Energy>  (24) 
64.4660384596994

>  <Genealogy>  (24) 
CCS(=O)(=O)CC(=O)n1c(C([NH-])=O)cc2ccc(C(F)(F)F)cc21 (protonated)
CCS(=O)(=O)CC(=O)n1c(C([NH-])=O)cc2ccc(C(F)(F)F)cc21 (3D coordinates assigned)
CCS(=O)(=O)CC(=O)n1c(C([NH-])=O)cc2ccc(C(F)(F)F)cc21 (optimized conformer: 64.4660384596994 kcal/mol)

>  <smiles>  (24) 
CCS(=O)(=O)CC(=O)n1c(C(N)=O)cc2ccc(C(F)(F)F)cc21

>  <score_type>  (24) 
oracle

>  <origin>  (24) 
adg

>  <m_score__min__energy>  (24) 
-9.9499999999999993

>  <m_primary>  (24) 
energy

$$$$
25:0
     RDKit          3D

 35 36  0  0  0  0  0  0  0  0999 V2000
   -4.1260   23.1130  -27.6860 C   0  0  0  0  0  0  0  0  0  0  0  0
   -3.1300   23.3210  -28.7500 N   0  0  0  0  0  0  0  0  0  0  0  0
   -1.7720   23.3770  -28.1900 C   0  0  0  0  0  0  0  0  0  0  0  0
   -3.2120   22.2630  -29.7340 C   0  0  0  0  0  0  0  0  0  0  0  0
   -2.6440   21.1560  -29.5190 O   0  0  0  0  0  0  0  0  0  0  0  0
   -3.9060   22.4680  -31.0240 C   0  0  0  0  0  0  0  0  0  0  0  0
   -3.2840   22.3140  -32.1090 O   0  0  0  0  0  0  0  0  0  0  0  0
   -5.2940   22.8360  -31.0520 N   0  0  0  0  0  0  0  0  0  0  0  0
   -5.8420   24.0430  -30.7390 C   0  0  0  0  0  0  0  0  0  0  0  0
   -5.0940   25.2780  -30.4210 C   0  0  0  0  0  0  0  0  0  0  0  0
   -3.6680   25.2930  -30.4110 N   0  0  0  0  0  0  0  0  0  0  0  0
   -5.7220   26.3440  -30.1810 O   0  0  0  0  0  0  0  0  0  0  0  0
   -7.2330   23.9780  -30.8120 C   0  0  0  0  0  0  0  0  0  0  0  0
   -7.5190   22.6830  -31.1810 C   0  0  0  0  0  0  0  0  0  0  0  0
   -8.7460   22.0620  -31.3970 C   0  0  0  0  0  0  0  0  0  0  0  0
   -8.7420   20.7020  -31.7490 C   0  0  0  0  0  0  0  0  0  0  0  0
   -7.5230   19.9820  -31.8530 C   0  0  0  0  0  0  0  0  0  0  0  0
   -7.5300   18.5330  -32.2700 C   0  0  0  0  0  0  0  0  0  0  0  0
   -8.8230   18.0360  -32.2890 F   0  0  0  0  0  0  0  0  0  0  0  0
   -6.7860   17.7660  -31.3910 F   0  0  0  0  0  0  0  0  0  0  0  0
   -6.9860   18.4220  -33.5360 F   0  0  0  0  0  0  0  0  0  0  0  0
   -6.2970   20.6550  -31.6460 C   0  0  0  0  0  0  0  0  0  0  0  0
   -6.3320   22.0140  -31.3140 C   0  0  0  0  0  0  0  0  0  0  0  0
   -3.6404   23.2144  -26.7042 H   0  0  0  0  0  0  0  0  0  0  0  0
   -4.9245   23.8638  -27.7794 H   0  0  0  0  0  0  0  0  0  0  0  0
   -4.5573   22.1054  -27.7794 H   0  0  0  0  0  0  0  0  0  0  0  0
   -3.3380   24.2460  -29.1960 H   0  0  0  0  0  0  0  0  0  0  0  0
   -1.8280   23.3747  -27.0914 H   0  0  0  0  0  0  0  0  0  0  0  0
   -1.1989   22.5017  -28.5298 H   0  0  0  0  0  0  0  0  0  0  0  0
   -1.2729   24.2965  -28.5298 H   0  0  0  0  0  0  0  0  0  0  0  0
   -3.1300   25.6780  -31.2170 H   0  0  0  0  0  0  0  0  0  0  0  0
   -7.9496   24.7893  -30.6163 H   0  0  0  0  0  0  0  0  0  0  0  0
   -9.6892   22.6188  -31.2952 H   0  0  0  0  0  0  0  0  0  0  0  0
   -9.6948   20.1889  -31.9464 H   0  0  0  0  0  0  0  0  0  0  0  0
   -5.3390   20.1233  -31.7435 H   0  0  0  0  0  0  0  0  0  0  0  0
  1  2  1  0
  2  3  1  0
  2  4  1  0
  4  5  2  0
  4  6  1  0
  6  7  2  0
  6  8  1  0
  8  9  1  0
  9 10  1  0
 10 11  1  0
 10 12  2  0
  9 13  2  0
 13 14  1  0
 14 15  2  0
 15 16  1  0
 16 17  2  0
 17 18  1  0
 18 19  1  0
 18 20  1  0
 18 21  1  0
 17 22  1  0
 22 23  2  0
 23  8  1  0
 23 14  1  0
  1 24  1  0
  1 25  1  0
  1 26  1  0
  2 27  1  0
  3 28  1  0
  3 29  1  0
  3 30  1  0
 11 31  1  0
 13 32  1  0
 15 33  1  0
 16 34  1  0
 22 35  1  0
M  CHG  2   2   1  11  -1
M  END
>  <UniqueID>  (25) 
25

>  <SMILES>  (25) 
C[NH+](C)C(=O)C(=O)n1c(C([NH-])=O)cc2ccc(C(F)(F)F)cc21

>  <Energy>  (25) 
76.09516849848141

>  <Genealogy>  (25) 
C[NH+](C)C(=O)C(=O)n1c(C([NH-])=O)cc2ccc(C(F)(F)F)cc21 (protonated)
C[NH+](C)C(=O)C(=O)n1c(C([NH-])=O)cc2ccc(C(F)(F)F)cc21 (3D coordinates assigned)
C[NH+](C)C(=O)C(=O)n1c(C([NH-])=O)cc2ccc(C(F)(F)F)cc21 (optimized conformer: 76.09516849848141 kcal/mol)

>  <smiles>  (25) 
CN(C)C(=O)C(=O)n1c(C(N)=O)cc2ccc(C(F)(F)F)cc21

>  <score_type>  (25) 
oracle

>  <origin>  (25) 
adg

>  <m_score__min__energy>  (25) 
-8.4000000000000004

>  <m_primary>  (25) 
energy

$$$$
26:0
     RDKit          3D

 44 45  0  0  0  0  0  0  0  0999 V2000
   -1.9600   21.0920  -27.1630 C   0  0  0  0  0  0  0  0  0  0  0  0
   -1.8040   22.3680  -27.8680 N   0  0  0  0  0  0  0  0  0  0  0  0
   -2.2560   23.6060  -27.2160 C   0  0  0  0  0  0  0  0  0  0  0  0
   -3.0300   24.4850  -28.1980 C   0  0  0  0  0  0  0  0  0  0  0  0
   -2.1500   25.0910  -29.0990 O   0  0  0  0  0  0  0  0  0  0  0  0
   -1.3400   22.3500  -29.2350 C   0  0  0  0  0  0  0  0  0  0  0  0
   -0.4760   23.1940  -29.6040 O   0  0  0  0  0  0  0  0  0  0  0  0
   -1.8390   21.3210  -30.2230 C   0  0  0  0  0  0  0  0  0  0  0  0
   -3.3690   21.3030  -30.3690 C   0  0  0  0  0  0  0  0  0  0  0  0
   -3.8750   22.5720  -31.0000 C   0  0  0  0  0  0  0  0  0  0  0  0
   -3.0570   23.3790  -31.5140 O   0  0  0  0  0  0  0  0  0  0  0  0
   -5.2840   22.8420  -31.0720 N   0  0  0  0  0  0  0  0  0  0  0  0
   -5.9280   24.0060  -30.7720 C   0  0  0  0  0  0  0  0  0  0  0  0
   -5.2900   25.2740  -30.3540 C   0  0  0  0  0  0  0  0  0  0  0  0
   -4.0140   25.6640  -30.8570 N   0  0  0  0  0  0  0  0  0  0  0  0
   -5.8940   26.0410  -29.5580 O   0  0  0  0  0  0  0  0  0  0  0  0
   -7.3010   23.8630  -30.9680 C   0  0  0  0  0  0  0  0  0  0  0  0
   -7.4770   22.5660  -31.3970 C   0  0  0  0  0  0  0  0  0  0  0  0
   -8.6430   21.8800  -31.7190 C   0  0  0  0  0  0  0  0  0  0  0  0
   -8.5310   20.5310  -32.0970 C   0  0  0  0  0  0  0  0  0  0  0  0
   -7.2630   19.8950  -32.1530 C   0  0  0  0  0  0  0  0  0  0  0  0
   -7.1770   18.4310  -32.5000 C   0  0  0  0  0  0  0  0  0  0  0  0
   -6.2270   17.8090  -31.7110 F   0  0  0  0  0  0  0  0  0  0  0  0
   -6.8150   18.3010  -33.8260 F   0  0  0  0  0  0  0  0  0  0  0  0
   -8.3900   17.7970  -32.2970 F   0  0  0  0  0  0  0  0  0  0  0  0
   -6.1030   20.6240  -31.7990 C   0  0  0  0  0  0  0  0  0  0  0  0
   -6.2450   21.9710  -31.4460 C   0  0  0  0  0  0  0  0  0  0  0  0
   -1.9385   21.2679  -26.0774 H   0  0  0  0  0  0  0  0  0  0  0  0
   -2.9208   20.6344  -27.4413 H   0  0  0  0  0  0  0  0  0  0  0  0
   -1.1378   20.4164  -27.4413 H   0  0  0  0  0  0  0  0  0  0  0  0
   -2.9094   23.3497  -26.3690 H   0  0  0  0  0  0  0  0  0  0  0  0
   -1.3742   24.1618  -26.8647 H   0  0  0  0  0  0  0  0  0  0  0  0
   -3.7484   23.8641  -28.7533 H   0  0  0  0  0  0  0  0  0  0  0  0
   -3.5643   25.2660  -27.6371 H   0  0  0  0  0  0  0  0  0  0  0  0
   -2.2180   24.5720  -29.9420 H   0  0  0  0  0  0  0  0  0  0  0  0
   -1.3979   21.5401  -31.2066 H   0  0  0  0  0  0  0  0  0  0  0  0
   -1.5386   20.3339  -29.8417 H   0  0  0  0  0  0  0  0  0  0  0  0
   -3.6584   20.4495  -30.9997 H   0  0  0  0  0  0  0  0  0  0  0  0
   -3.8116   21.2146  -29.3659 H   0  0  0  0  0  0  0  0  0  0  0  0
   -3.1360   25.2700  -30.4550 H   0  0  0  0  0  0  0  0  0  0  0  0
   -8.0791   24.6249  -30.8128 H   0  0  0  0  0  0  0  0  0  0  0  0
   -9.6230   22.3780  -31.6791 H   0  0  0  0  0  0  0  0  0  0  0  0
   -9.4366   19.9612  -32.3525 H   0  0  0  0  0  0  0  0  0  0  0  0
   -5.1134   20.1436  -31.8012 H   0  0  0  0  0  0  0  0  0  0  0  0
  1  2  1  0
  2  3  1  0
  3  4  1  0
  4  5  1  0
  2  6  1  0
  6  7  2  0
  6  8  1  0
  8  9  1  0
  9 10  1  0
 10 11  2  0
 10 12  1  0
 12 13  1  0
 13 14  1  0
 14 15  1  0
 14 16  2  0
 13 17  2  0
 17 18  1  0
 18 19  2  0
 19 20  1  0
 20 21  2  0
 21 22  1  0
 22 23  1  0
 22 24  1  0
 22 25  1  0
 21 26  1  0
 26 27  2  0
 27 12  1  0
 27 18  1  0
  1 28  1  0
  1 29  1  0
  1 30  1  0
  3 31  1  0
  3 32  1  0
  4 33  1  0
  4 34  1  0
  5 35  1  0
  8 36  1  0
  8 37  1  0
  9 38  1  0
  9 39  1  0
 15 40  1  0
 17 41  1  0
 19 42  1  0
 20 43  1  0
 26 44  1  0
M  CHG  1  15  -1
M  END
>  <UniqueID>  (26) 
26

>  <SMILES>  (26) 
CN(CCO)C(=O)CCC(=O)n1c(C([NH-])=O)cc2ccc(C(F)(F)F)cc21

>  <Energy>  (26) 
77.45258962419524

>  <Genealogy>  (26) 
CN(CCO)C(=O)CCC(=O)n1c(C([NH-])=O)cc2ccc(C(F)(F)F)cc21 (protonated)
CN(CCO)C(=O)CCC(=O)n1c(C([NH-])=O)cc2ccc(C(F)(F)F)cc21 (3D coordinates assigned)
CN(CCO)C(=O)CCC(=O)n1c(C([NH-])=O)cc2ccc(C(F)(F)F)cc21 (optimized conformer: 77.45258962419524 kcal/mol)

>  <smiles>  (26) 
CN(CCO)C(=O)CCC(=O)n1c(C(N)=O)cc2ccc(C(F)(F)F)cc21

>  <score_type>  (26) 
oracle

>  <origin>  (26) 
adg

>  <m_score__min__energy>  (26) 
-10.23

>  <m_primary>  (26) 
energy

$$$$
27:0
     RDKit          3D

 36 37  0  0  0  0  0  0  0  0999 V2000
   -0.6630   24.8230  -29.3600 H   0  0  0  0  0  0  0  0  0  0  0  0
   -1.2900   24.0690  -29.7160 N   0  0  0  0  0  0  0  0  0  0  0  0
   -2.3740   23.6760  -29.1140 C   0  0  0  0  0  0  0  0  0  0  0  0
   -3.1560   22.6500  -29.6680 O   0  0  0  0  0  0  0  0  0  0  0  0
   -3.6850   22.6220  -30.9670 C   0  0  0  0  0  0  0  0  0  0  0  0
   -2.9430   22.4180  -31.9640 O   0  0  0  0  0  0  0  0  0  0  0  0
   -5.0860   22.8680  -31.1600 N   0  0  0  0  0  0  0  0  0  0  0  0
   -5.7840   24.0080  -30.8880 C   0  0  0  0  0  0  0  0  0  0  0  0
   -5.2070   25.3030  -30.4710 C   0  0  0  0  0  0  0  0  0  0  0  0
   -5.9110   26.1170  -29.8150 O   0  0  0  0  0  0  0  0  0  0  0  0
   -3.8830   25.6720  -30.8460 N   0  0  0  0  0  0  0  0  0  0  0  0
   -3.0550   25.1480  -30.4860 H   0  0  0  0  0  0  0  0  0  0  0  0
   -7.1420   23.8210  -31.1390 C   0  0  0  0  0  0  0  0  0  0  0  0
   -7.9518   24.5533  -31.0050 H   0  0  0  0  0  0  0  0  0  0  0  0
   -7.2550   22.5260  -31.5900 C   0  0  0  0  0  0  0  0  0  0  0  0
   -8.3830   21.8060  -31.9690 C   0  0  0  0  0  0  0  0  0  0  0  0
   -9.3801   22.2704  -31.9620 H   0  0  0  0  0  0  0  0  0  0  0  0
   -8.2110   20.4680  -32.3610 C   0  0  0  0  0  0  0  0  0  0  0  0
   -9.0863   19.8717  -32.6582 H   0  0  0  0  0  0  0  0  0  0  0  0
   -6.9210   19.8770  -32.3780 C   0  0  0  0  0  0  0  0  0  0  0  0
   -6.7530   18.4240  -32.7420 C   0  0  0  0  0  0  0  0  0  0  0  0
   -7.9410   17.7560  -32.5100 F   0  0  0  0  0  0  0  0  0  0  0  0
   -5.7530   17.8440  -31.9800 F   0  0  0  0  0  0  0  0  0  0  0  0
   -6.4130   18.2890  -34.0770 F   0  0  0  0  0  0  0  0  0  0  0  0
   -5.8030   20.6350  -31.9590 C   0  0  0  0  0  0  0  0  0  0  0  0
   -4.8001   20.1847  -31.9214 H   0  0  0  0  0  0  0  0  0  0  0  0
   -6.0020   21.9720  -31.5930 C   0  0  0  0  0  0  0  0  0  0  0  0
   -2.7990   24.2770  -27.8700 N   0  0  0  0  0  0  0  0  0  0  0  0
   -4.0510   23.8140  -27.2630 C   0  0  0  0  0  0  0  0  0  0  0  0
   -3.9614   23.8471  -26.1672 H   0  0  0  0  0  0  0  0  0  0  0  0
   -4.8769   24.4662  -27.5833 H   0  0  0  0  0  0  0  0  0  0  0  0
   -4.2539   22.7814  -27.5833 H   0  0  0  0  0  0  0  0  0  0  0  0
   -2.0100   25.3260  -27.2120 C   0  0  0  0  0  0  0  0  0  0  0  0
   -2.0923   25.2165  -26.1206 H   0  0  0  0  0  0  0  0  0  0  0  0
   -0.9555   25.2338  -27.5112 H   0  0  0  0  0  0  0  0  0  0  0  0
   -2.3911   26.3135  -27.5112 H   0  0  0  0  0  0  0  0  0  0  0  0
  1  2  1  0
  2  3  2  0
  3  4  1  0
  4  5  1  0
  5  6  2  0
  5  7  1  0
  7  8  1  0
  8  9  1  0
  9 10  2  0
  9 11  1  0
 11 12  1  0
  8 13  2  0
 13 14  1  0
 13 15  1  0
 15 16  2  0
 16 17  1  0
 16 18  1  0
 18 19  1  0
 18 20  2  0
 20 21  1  0
 21 22  1  0
 21 23  1  0
 21 24  1  0
 20 25  1  0
 25 26  1  0
 25 27  2  0
  3 28  1  0
 28 29  1  0
 29 30  1  0
 29 31  1  0
 29 32  1  0
 28 33  1  0
 33 34  1  0
 33 35  1  0
 33 36  1  0
 27  7  1  0
 27 15  1  0
M  CHG  1  11  -1
M  END
>  <UniqueID>  (27) 
27

>  <SMILES>  (27) 
[H]/N=C(/OC(=O)n1c(C([NH-])=O)cc2ccc(C(F)(F)F)cc21)N(C)C

>  <Energy>  (27) 
75.18364424747735

>  <Genealogy>  (27) 
CN(C)C(=N)OC(=O)n1c(C([NH-])=O)cc2ccc(C(F)(F)F)cc21 (protonated)
[H]/N=C(/OC(=O)n1c(C([NH-])=O)cc2ccc(C(F)(F)F)cc21)N(C)C (cis-trans isomerization)
[H]/N=C(/OC(=O)n1c(C([NH-])=O)cc2ccc(C(F)(F)F)cc21)N(C)C (3D coordinates assigned)
[H]/N=C(/OC(=O)n1c(C([NH-])=O)cc2ccc(C(F)(F)F)cc21)N(C)C (optimized conformer: 75.18364424747735 kcal/mol)

>  <smiles>  (27) 
CN(C)C(=N)OC(=O)n1c(C(N)=O)cc2ccc(C(F)(F)F)cc21

>  <score_type>  (27) 
oracle

>  <origin>  (27) 
adg

>  <m_score__min__energy>  (27) 
-10.109999999999999

>  <m_primary>  (27) 
energy

$$$$
28:0
     RDKit          3D

 55 56  0  0  0  0  0  0  0  0999 V2000
   -3.1080   21.6320  -27.6510 C   0  0  0  0  0  0  0  0  0  0  0  0
   -2.3660   22.8520  -27.1140 C   0  0  0  0  0  0  0  0  0  0  0  0
   -2.3840   23.9140  -28.0660 O   0  0  0  0  0  0  0  0  0  0  0  0
   -1.2250   24.4590  -28.6310 C   0  0  0  0  0  0  0  0  0  0  0  0
   -1.0450   25.7070  -28.6610 O   0  0  0  0  0  0  0  0  0  0  0  0
   -0.1970   23.5490  -29.2240 C   0  0  0  0  0  0  0  0  0  0  0  0
   -0.8010   22.3360  -29.6690 O   0  0  0  0  0  0  0  0  0  0  0  0
   -1.6430   22.2640  -30.7840 C   0  0  0  0  0  0  0  0  0  0  0  0
   -1.1850   21.9210  -31.9080 O   0  0  0  0  0  0  0  0  0  0  0  0
   -3.0280   22.6030  -30.6300 N   0  0  0  0  0  0  0  0  0  0  0  0
   -3.9880   22.5930  -31.6990 C   0  0  0  0  0  0  0  0  0  0  0  0
   -3.6620   22.1980  -32.8510 O   0  0  0  0  0  0  0  0  0  0  0  0
   -5.3340   23.0300  -31.4550 N   0  0  0  0  0  0  0  0  0  0  0  0
   -5.7500   24.2420  -30.9900 C   0  0  0  0  0  0  0  0  0  0  0  0
   -4.8770   25.3480  -30.5420 C   0  0  0  0  0  0  0  0  0  0  0  0
   -3.5090   25.1190  -30.2150 N   0  0  0  0  0  0  0  0  0  0  0  0
   -5.3550   26.5060  -30.4150 O   0  0  0  0  0  0  0  0  0  0  0  0
   -7.1410   24.2840  -30.9200 C   0  0  0  0  0  0  0  0  0  0  0  0
   -7.5670   23.0480  -31.3520 C   0  0  0  0  0  0  0  0  0  0  0  0
   -8.8540   22.5370  -31.4790 C   0  0  0  0  0  0  0  0  0  0  0  0
   -8.9960   21.2230  -31.9600 C   0  0  0  0  0  0  0  0  0  0  0  0
   -7.8620   20.4530  -32.3200 C   0  0  0  0  0  0  0  0  0  0  0  0
   -8.0530   19.1120  -32.8080 N   0  0  0  0  0  0  0  0  0  0  0  0
   -7.9890   17.9160  -31.9660 C   0  0  0  0  0  0  0  0  0  0  0  0
   -6.6110   17.3070  -31.9990 C   0  0  0  0  0  0  0  0  0  0  0  0
   -6.0770   16.9330  -30.9210 O   0  0  0  0  0  0  0  0  0  0  0  0
   -5.9050   17.0900  -33.2260 N   0  0  0  0  0  0  0  0  0  0  0  0
   -5.1620   18.3370  -34.1750 S   0  0  0  0  0  0  0  0  0  0  0  0
   -6.2150   19.2730  -34.6960 O   0  0  0  0  0  0  0  0  0  0  0  0
   -4.4110   17.7250  -35.3250 O   0  0  0  0  0  0  0  0  0  0  0  0
   -4.0180   19.2570  -33.1620 C   0  0  0  0  0  0  0  0  0  0  0  0
   -2.6370   19.3060  -33.8020 C   0  0  0  0  0  0  0  0  0  0  0  0
   -6.5700   21.0170  -32.1850 C   0  0  0  0  0  0  0  0  0  0  0  0
   -6.4570   22.3130  -31.6740 C   0  0  0  0  0  0  0  0  0  0  0  0
   -3.4760   21.0269  -26.8093 H   0  0  0  0  0  0  0  0  0  0  0  0
   -3.9589   21.9614  -28.2654 H   0  0  0  0  0  0  0  0  0  0  0  0
   -2.4241   21.0280  -28.2654 H   0  0  0  0  0  0  0  0  0  0  0  0
   -2.8515   23.1903  -26.1867 H   0  0  0  0  0  0  0  0  0  0  0  0
   -1.3206   22.5714  -26.9178 H   0  0  0  0  0  0  0  0  0  0  0  0
    0.2805   24.0505  -30.0787 H   0  0  0  0  0  0  0  0  0  0  0  0
    0.5537   23.3117  -28.4558 H   0  0  0  0  0  0  0  0  0  0  0  0
   -3.3380   22.9390  -29.6910 H   0  0  0  0  0  0  0  0  0  0  0  0
   -3.0900   25.5160  -29.3440 H   0  0  0  0  0  0  0  0  0  0  0  0
   -7.7664   25.1264  -30.5895 H   0  0  0  0  0  0  0  0  0  0  0  0
   -9.7333   23.1414  -31.2117 H   0  0  0  0  0  0  0  0  0  0  0  0
  -10.0011   20.7870  -32.0581 H   0  0  0  0  0  0  0  0  0  0  0  0
   -8.2120   18.9690  -33.8310 H   0  0  0  0  0  0  0  0  0  0  0  0
   -8.2361   18.1914  -30.9301 H   0  0  0  0  0  0  0  0  0  0  0  0
   -8.7084   17.1776  -32.3498 H   0  0  0  0  0  0  0  0  0  0  0  0
   -4.3932   20.2836  -33.0378 H   0  0  0  0  0  0  0  0  0  0  0  0
   -3.9337   18.7559  -32.1864 H   0  0  0  0  0  0  0  0  0  0  0  0
   -1.8689   19.3333  -33.0150 H   0  0  0  0  0  0  0  0  0  0  0  0
   -2.4904   18.4125  -34.4266 H   0  0  0  0  0  0  0  0  0  0  0  0
   -2.5541   20.2077  -34.4266 H   0  0  0  0  0  0  0  0  0  0  0  0
   -5.6750   20.4476  -32.4759 H   0  0  0  0  0  0  0  0  0  0  0  0
  1  2  1  0
  2  3  1  0
  3  4  1  0
  4  5  2  0
  4  6  1  0
  6  7  1  0
  7  8  1  0
  8  9  2  0
  8 10  1  0
 10 11  1  0
 11 12  2  0
 11 13  1  0
 13 14  1  0
 14 15  1  0
 15 16  1  0
 15 17  2  0
 14 18  2  0
 18 19  1  0
 19 20  2  0
 20 21  1  0
 21 22  2  0
 22 23  1  0
 23 24  1  0
 24 25  1  0
 25 26  2  0
 25 27  1  0
 27 28  1  0
 28 29  2  0
 28 30  2  0
 28 31  1  0
 31 32  1  0
 22 33  1  0
 33 34  2  0
 34 13  1  0
 34 19  1  0
  1 35  1  0
  1 36  1  0
  1 37  1  0
  2 38  1  0
  2 39  1  0
  6 40  1  0
  6 41  1  0
 10 42  1  0
 16 43  1  0
 18 44  1  0
 20 45  1  0
 21 46  1  0
 23 47  1  0
 24 48  1  0
 24 49  1  0
 31 50  1  0
 31 51  1  0
 32 52  1  0
 32 53  1  0
 32 54  1  0
 33 55  1  0
M  CHG  2  16  -1  27  -1
M  END
>  <UniqueID>  (28) 
28

>  <SMILES>  (28) 
CCOC(=O)COC(=O)NC(=O)n1c(C([NH-])=O)cc2ccc(NCC(=O)[N-]S(=O)(=O)CC)cc21

>  <Energy>  (28) 
79.53732630902972

>  <Genealogy>  (28) 
CCOC(=O)COC(=O)NC(=O)n1c(C([NH-])=O)cc2ccc(NCC(=O)[N-]S(=O)(=O)CC)cc21 (protonated)
CCOC(=O)COC(=O)NC(=O)n1c(C([NH-])=O)cc2ccc(NCC(=O)[N-]S(=O)(=O)CC)cc21 (3D coordinates assigned)
CCOC(=O)COC(=O)NC(=O)n1c(C([NH-])=O)cc2ccc(NCC(=O)[N-]S(=O)(=O)CC)cc21 (optimized conformer: 79.53732630902972 kcal/mol)

>  <smiles>  (28) 
CCOC(=O)COC(=O)NC(=O)n1c(C(N)=O)cc2ccc(NCC(=O)NS(=O)(=O)CC)cc21

>  <score_type>  (28) 
oracle

>  <origin>  (28) 
adg

>  <m_score__min__energy>  (28) 
-11.34

>  <m_primary>  (28) 
energy

$$$$
29:0
     RDKit          3D

 48 49  0  0  0  0  0  0  0  0999 V2000
   -5.7280   18.2190  -35.0130 C   0  0  0  0  0  0  0  0  0  0  0  0
   -5.0850   17.0910  -34.3250 N   0  0  0  0  0  0  0  0  0  0  0  0
   -6.1180   16.1430  -33.8690 C   0  0  0  0  0  0  0  0  0  0  0  0
   -4.2760   17.5880  -33.1890 C   0  0  0  0  0  0  0  0  0  0  0  0
   -3.3890   18.7760  -33.5930 C   0  0  0  0  0  0  0  0  0  0  0  0
   -2.7550   19.4660  -32.3780 C   0  0  0  0  0  0  0  0  0  0  0  0
   -2.4730   20.8760  -32.6850 N   0  0  0  0  0  0  0  0  0  0  0  0
   -1.1520   21.2470  -33.2000 C   0  0  0  0  0  0  0  0  0  0  0  0
   -3.5340   21.8530  -32.5600 C   0  0  0  0  0  0  0  0  0  0  0  0
   -4.0960   22.2890  -33.6010 O   0  0  0  0  0  0  0  0  0  0  0  0
   -3.9750   22.4030  -31.2560 C   0  0  0  0  0  0  0  0  0  0  0  0
   -3.1700   22.5230  -30.2940 O   0  0  0  0  0  0  0  0  0  0  0  0
   -5.3410   22.8080  -31.0790 N   0  0  0  0  0  0  0  0  0  0  0  0
   -5.8030   24.0620  -30.8150 C   0  0  0  0  0  0  0  0  0  0  0  0
   -4.9600   25.2660  -30.6330 C   0  0  0  0  0  0  0  0  0  0  0  0
   -3.5500   25.1290  -30.4730 N   0  0  0  0  0  0  0  0  0  0  0  0
   -5.4770   26.4170  -30.6070 O   0  0  0  0  0  0  0  0  0  0  0  0
   -7.1970   24.0770  -30.8200 C   0  0  0  0  0  0  0  0  0  0  0  0
   -7.5740   22.7790  -31.0930 C   0  0  0  0  0  0  0  0  0  0  0  0
   -8.8440   22.2210  -31.2300 C   0  0  0  0  0  0  0  0  0  0  0  0
   -8.9300   20.8510  -31.5350 C   0  0  0  0  0  0  0  0  0  0  0  0
   -7.7580   20.0690  -31.7140 C   0  0  0  0  0  0  0  0  0  0  0  0
   -7.8750   18.5930  -32.0000 C   0  0  0  0  0  0  0  0  0  0  0  0
   -9.0500   18.0920  -31.4680 F   0  0  0  0  0  0  0  0  0  0  0  0
   -6.8030   17.9330  -31.4300 F   0  0  0  0  0  0  0  0  0  0  0  0
   -7.8810   18.3530  -33.3630 F   0  0  0  0  0  0  0  0  0  0  0  0
   -6.4890   20.6700  -31.5420 C   0  0  0  0  0  0  0  0  0  0  0  0
   -6.4350   22.0350  -31.2450 C   0  0  0  0  0  0  0  0  0  0  0  0
   -6.1289   18.9223  -34.2683 H   0  0  0  0  0  0  0  0  0  0  0  0
   -4.9879   18.7343  -35.6429 H   0  0  0  0  0  0  0  0  0  0  0  0
   -6.5485   17.8448  -35.6429 H   0  0  0  0  0  0  0  0  0  0  0  0
   -6.1386   16.1241  -32.7694 H   0  0  0  0  0  0  0  0  0  0  0  0
   -7.1003   16.4605  -34.2487 H   0  0  0  0  0  0  0  0  0  0  0  0
   -5.8858   15.1371  -34.2487 H   0  0  0  0  0  0  0  0  0  0  0  0
   -4.9532   17.9077  -32.3833 H   0  0  0  0  0  0  0  0  0  0  0  0
   -3.6197   16.7709  -32.8549 H   0  0  0  0  0  0  0  0  0  0  0  0
   -2.5870   18.4113  -34.2517 H   0  0  0  0  0  0  0  0  0  0  0  0
   -4.0247   19.5128  -34.1060 H   0  0  0  0  0  0  0  0  0  0  0  0
   -3.4487   19.4113  -31.5260 H   0  0  0  0  0  0  0  0  0  0  0  0
   -1.8122   18.9575  -32.1278 H   0  0  0  0  0  0  0  0  0  0  0  0
   -0.4707   21.4384  -32.3579 H   0  0  0  0  0  0  0  0  0  0  0  0
   -0.7541   20.4259  -33.8143 H   0  0  0  0  0  0  0  0  0  0  0  0
   -1.2398   22.1552  -33.8143 H   0  0  0  0  0  0  0  0  0  0  0  0
   -2.9920   24.5410  -31.1300 H   0  0  0  0  0  0  0  0  0  0  0  0
   -7.8557   24.9402  -30.6438 H   0  0  0  0  0  0  0  0  0  0  0  0
   -9.7496   22.8325  -31.1036 H   0  0  0  0  0  0  0  0  0  0  0  0
   -9.9182   20.3786  -31.6363 H   0  0  0  0  0  0  0  0  0  0  0  0
   -5.5672   20.0777  -31.6396 H   0  0  0  0  0  0  0  0  0  0  0  0
  1  2  1  0
  2  3  1  0
  2  4  1  0
  4  5  1  0
  5  6  1  0
  6  7  1  0
  7  8  1  0
  7  9  1  0
  9 10  2  0
  9 11  1  0
 11 12  2  0
 11 13  1  0
 13 14  1  0
 14 15  1  0
 15 16  1  0
 15 17  2  0
 14 18  2  0
 18 19  1  0
 19 20  2  0
 20 21  1  0
 21 22  2  0
 22 23  1  0
 23 24  1  0
 23 25  1  0
 23 26  1  0
 22 27  1  0
 27 28  2  0
 28 13  1  0
 28 19  1  0
  1 29  1  0
  1 30  1  0
  1 31  1  0
  3 32  1  0
  3 33  1  0
  3 34  1  0
  4 35  1  0
  4 36  1  0
  5 37  1  0
  5 38  1  0
  6 39  1  0
  6 40  1  0
  8 41  1  0
  8 42  1  0
  8 43  1  0
 16 44  1  0
 18 45  1  0
 20 46  1  0
 21 47  1  0
 27 48  1  0
M  CHG  1  16  -1
M  END
>  <UniqueID>  (29) 
29

>  <SMILES>  (29) 
CN(C)CCCN(C)C(=O)C(=O)n1c(C([NH-])=O)cc2ccc(C(F)(F)F)cc21

>  <Energy>  (29) 
86.41354798237039

>  <Genealogy>  (29) 
CN(C)CCCN(C)C(=O)C(=O)n1c(C([NH-])=O)cc2ccc(C(F)(F)F)cc21 (protonated)
CN(C)CCCN(C)C(=O)C(=O)n1c(C([NH-])=O)cc2ccc(C(F)(F)F)cc21 (3D coordinates assigned)
CN(C)CCCN(C)C(=O)C(=O)n1c(C([NH-])=O)cc2ccc(C(F)(F)F)cc21 (optimized conformer: 86.41354798237039 kcal/mol)

>  <smiles>  (29) 
CN(C)CCCN(C)C(=O)C(=O)n1c(C(N)=O)cc2ccc(C(F)(F)F)cc21

>  <score_type>  (29) 
oracle

>  <origin>  (29) 
adg

>  <m_score__min__energy>  (29) 
-10.17

>  <m_primary>  (29) 
energy

$$$$
30:0
     RDKit          3D

 32 33  0  0  0  0  0  0  0  0999 V2000
   -3.9120   25.6250  -30.8440 N   0  0  0  0  0  0  0  0  0  0  0  0
   -5.2670   25.3020  -30.5420 C   0  0  0  0  0  0  0  0  0  0  0  0
   -5.9820   26.1480  -29.9410 O   0  0  0  0  0  0  0  0  0  0  0  0
   -5.8520   24.0070  -30.9480 C   0  0  0  0  0  0  0  0  0  0  0  0
   -7.2110   23.8170  -31.1960 C   0  0  0  0  0  0  0  0  0  0  0  0
   -7.3310   22.5030  -31.5910 C   0  0  0  0  0  0  0  0  0  0  0  0
   -8.4580   21.7750  -31.9540 C   0  0  0  0  0  0  0  0  0  0  0  0
   -8.2880   20.4230  -32.2940 C   0  0  0  0  0  0  0  0  0  0  0  0
   -7.0060   19.8160  -32.2400 C   0  0  0  0  0  0  0  0  0  0  0  0
   -6.8290   18.3740  -32.6460 C   0  0  0  0  0  0  0  0  0  0  0  0
   -5.8130   17.7820  -31.9160 F   0  0  0  0  0  0  0  0  0  0  0  0
   -7.9940   17.6590  -32.4260 F   0  0  0  0  0  0  0  0  0  0  0  0
   -6.5120   18.3170  -33.9900 F   0  0  0  0  0  0  0  0  0  0  0  0
   -5.8820   20.5960  -31.8850 C   0  0  0  0  0  0  0  0  0  0  0  0
   -6.0800   21.9450  -31.5710 C   0  0  0  0  0  0  0  0  0  0  0  0
   -5.1610   22.8570  -31.1850 N   0  0  0  0  0  0  0  0  0  0  0  0
   -3.7610   22.6160  -30.9820 C   0  0  0  0  0  0  0  0  0  0  0  0
   -2.9880   22.5520  -31.9750 O   0  0  0  0  0  0  0  0  0  0  0  0
   -3.2130   22.4490  -29.6280 C   0  0  0  0  0  0  0  0  0  0  0  0
   -2.8770   21.3020  -29.2240 O   0  0  0  0  0  0  0  0  0  0  0  0
   -3.0600   23.5680  -28.8020 O   0  0  0  0  0  0  0  0  0  0  0  0
   -1.9140   23.7820  -27.9820 C   0  0  0  0  0  0  0  0  0  0  0  0
   -0.9600   24.7170  -28.6550 C   0  0  0  0  0  0  0  0  0  0  0  0
   -1.3910   25.7060  -29.3030 O   0  0  0  0  0  0  0  0  0  0  0  0
    0.4060   24.4750  -28.5950 O   0  0  0  0  0  0  0  0  0  0  0  0
   -3.1240   25.1160  -30.3860 H   0  0  0  0  0  0  0  0  0  0  0  0
   -8.0167   24.5594  -31.0971 H   0  0  0  0  0  0  0  0  0  0  0  0
   -9.4530   22.2436  -31.9744 H   0  0  0  0  0  0  0  0  0  0  0  0
   -9.1586   19.8274  -32.6058 H   0  0  0  0  0  0  0  0  0  0  0  0
   -4.8756   20.1530  -31.8563 H   0  0  0  0  0  0  0  0  0  0  0  0
   -2.2308   24.2160  -27.0221 H   0  0  0  0  0  0  0  0  0  0  0  0
   -1.4107   22.8186  -27.8129 H   0  0  0  0  0  0  0  0  0  0  0  0
  1  2  1  0
  2  3  2  0
  2  4  1  0
  4  5  2  0
  5  6  1  0
  6  7  2  0
  7  8  1  0
  8  9  2  0
  9 10  1  0
 10 11  1  0
 10 12  1  0
 10 13  1  0
  9 14  1  0
 14 15  2  0
 15 16  1  0
 16 17  1  0
 17 18  2  0
 17 19  1  0
 19 20  2  0
 19 21  1  0
 21 22  1  0
 22 23  1  0
 23 24  2  0
 23 25  1  0
 16  4  1  0
 15  6  1  0
  1 26  1  0
  5 27  1  0
  7 28  1  0
  8 29  1  0
 14 30  1  0
 22 31  1  0
 22 32  1  0
M  CHG  2   1  -1  25  -1
M  END
>  <UniqueID>  (30) 
30

>  <SMILES>  (30) 
[NH-]C(=O)c1cc2ccc(C(F)(F)F)cc2n1C(=O)C(=O)OCC(=O)[O-]

>  <Energy>  (30) 
69.78950860475956

>  <Genealogy>  (30) 
[NH-]C(=O)c1cc2ccc(C(F)(F)F)cc2n1C(=O)C(=O)OCC(=O)[O-] (protonated)
[NH-]C(=O)c1cc2ccc(C(F)(F)F)cc2n1C(=O)C(=O)OCC(=O)[O-] (3D coordinates assigned)
[NH-]C(=O)c1cc2ccc(C(F)(F)F)cc2n1C(=O)C(=O)OCC(=O)[O-] (optimized conformer: 69.78950860475956 kcal/mol)

>  <smiles>  (30) 
NC(=O)c1cc2ccc(C(F)(F)F)cc2n1C(=O)C(=O)OCC(=O)O

>  <score_type>  (30) 
oracle

>  <origin>  (30) 
adg

>  <m_score__min__energy>  (30) 
-11.800000000000001

>  <m_primary>  (30) 
energy

$$$$
31:0
     RDKit          3D

 38 39  0  0  0  0  0  0  0  0999 V2000
   -1.1560   26.4750  -28.5270 C   0  0  0  0  0  0  0  0  0  0  0  0
   -1.7070   25.3060  -29.1990 N   0  0  0  0  0  0  0  0  0  0  0  0
   -1.2290   23.9690  -29.0100 C   0  0  0  0  0  0  0  0  0  0  0  0
   -0.0010   23.7320  -29.1630 O   0  0  0  0  0  0  0  0  0  0  0  0
   -2.1450   22.8550  -28.6020 C   0  0  0  0  0  0  0  0  0  0  0  0
   -2.1130   21.8490  -29.5920 O   0  0  0  0  0  0  0  0  0  0  0  0
   -3.4240   21.5110  -30.0040 C   0  0  0  0  0  0  0  0  0  0  0  0
   -3.9380   22.5540  -30.9510 C   0  0  0  0  0  0  0  0  0  0  0  0
   -3.1190   23.2290  -31.6310 O   0  0  0  0  0  0  0  0  0  0  0  0
   -5.3480   22.7470  -31.1410 N   0  0  0  0  0  0  0  0  0  0  0  0
   -6.1010   23.8330  -30.8120 C   0  0  0  0  0  0  0  0  0  0  0  0
   -5.5880   25.1280  -30.3190 C   0  0  0  0  0  0  0  0  0  0  0  0
   -4.2400   25.5320  -30.5590 N   0  0  0  0  0  0  0  0  0  0  0  0
   -6.3650   25.9100  -29.7100 O   0  0  0  0  0  0  0  0  0  0  0  0
   -7.4520   23.5810  -31.0440 C   0  0  0  0  0  0  0  0  0  0  0  0
   -7.5010   22.3000  -31.5480 C   0  0  0  0  0  0  0  0  0  0  0  0
   -8.5930   21.5300  -31.9330 C   0  0  0  0  0  0  0  0  0  0  0  0
   -8.3510   20.2200  -32.3800 C   0  0  0  0  0  0  0  0  0  0  0  0
   -7.0290   19.7080  -32.4460 C   0  0  0  0  0  0  0  0  0  0  0  0
   -6.7890   18.2790  -32.8650 C   0  0  0  0  0  0  0  0  0  0  0  0
   -6.4780   18.2110  -34.2120 F   0  0  0  0  0  0  0  0  0  0  0  0
   -7.9170   17.5100  -32.6410 F   0  0  0  0  0  0  0  0  0  0  0  0
   -5.7360   17.7620  -32.1330 F   0  0  0  0  0  0  0  0  0  0  0  0
   -5.9480   20.5160  -32.0220 C   0  0  0  0  0  0  0  0  0  0  0  0
   -6.2190   21.8200  -31.5970 C   0  0  0  0  0  0  0  0  0  0  0  0
   -1.2213   26.3365  -27.4377 H   0  0  0  0  0  0  0  0  0  0  0  0
   -0.1029   26.6027  -28.8179 H   0  0  0  0  0  0  0  0  0  0  0  0
   -1.7277   27.3686  -28.8179 H   0  0  0  0  0  0  0  0  0  0  0  0
   -1.8122   22.4371  -27.6404 H   0  0  0  0  0  0  0  0  0  0  0  0
   -3.1706   23.2375  -28.4933 H   0  0  0  0  0  0  0  0  0  0  0  0
   -3.4086   20.5338  -30.5088 H   0  0  0  0  0  0  0  0  0  0  0  0
   -4.0820   21.4604  -29.1239 H   0  0  0  0  0  0  0  0  0  0  0  0
   -3.6210   24.9980  -31.2080 H   0  0  0  0  0  0  0  0  0  0  0  0
   -3.8790   26.4230  -30.1480 H   0  0  0  0  0  0  0  0  0  0  0  0
   -8.2983   24.2600  -30.8632 H   0  0  0  0  0  0  0  0  0  0  0  0
   -9.6151   21.9341  -31.8890 H   0  0  0  0  0  0  0  0  0  0  0  0
   -9.1960   19.5839  -32.6823 H   0  0  0  0  0  0  0  0  0  0  0  0
   -4.9189   20.1276  -32.0266 H   0  0  0  0  0  0  0  0  0  0  0  0
  1  2  1  0
  2  3  1  0
  3  4  2  0
  3  5  1  0
  5  6  1  0
  6  7  1  0
  7  8  1  0
  8  9  2  0
  8 10  1  0
 10 11  1  0
 11 12  1  0
 12 13  1  0
 12 14  2  0
 11 15  2  0
 15 16  1  0
 16 17  2  0
 17 18  1  0
 18 19  2  0
 19 20  1  0
 20 21  1  0
 20 22  1  0
 20 23  1  0
 19 24  1  0
 24 25  2  0
 25 10  1  0
 25 16  1  0
  1 26  1  0
  1 27  1  0
  1 28  1  0
  5 29  1  0
  5 30  1  0
  7 31  1  0
  7 32  1  0
 13 33  1  0
 13 34  1  0
 15 35  1  0
 17 36  1  0
 18 37  1  0
 24 38  1  0
M  CHG  1   2  -1
M  END
>  <UniqueID>  (31) 
31

>  <SMILES>  (31) 
C[N-]C(=O)COCC(=O)n1c(C(N)=O)cc2ccc(C(F)(F)F)cc21

>  <Energy>  (31) 
77.4821599157618

>  <Genealogy>  (31) 
C[N-]C(=O)COCC(=O)n1c(C(N)=O)cc2ccc(C(F)(F)F)cc21 (protonated)
C[N-]C(=O)COCC(=O)n1c(C(N)=O)cc2ccc(C(F)(F)F)cc21 (3D coordinates assigned)
C[N-]C(=O)COCC(=O)n1c(C(N)=O)cc2ccc(C(F)(F)F)cc21 (optimized conformer: 77.4821599157618 kcal/mol)

>  <smiles>  (31) 
CNC(=O)COCC(=O)n1c(C(N)=O)cc2ccc(C(F)(F)F)cc21

>  <score_type>  (31) 
oracle

>  <origin>  (31) 
adg

>  <m_score__min__energy>  (31) 
-9.2100000000000009

>  <m_primary>  (31) 
energy

$$$$
32:0
     RDKit          3D

 43 44  0  0  0  0  0  0  0  0999 V2000
   -3.9260   25.2950  -30.6000 N   0  0  0  0  0  0  0  0  0  0  0  0
   -5.1050   24.7750  -29.9890 C   0  0  0  0  0  0  0  0  0  0  0  0
   -5.5360   25.3030  -28.9300 O   0  0  0  0  0  0  0  0  0  0  0  0
   -5.8290   23.6530  -30.6240 C   0  0  0  0  0  0  0  0  0  0  0  0
   -7.2180   23.5900  -30.7200 C   0  0  0  0  0  0  0  0  0  0  0  0
   -7.4900   22.3610  -31.2760 C   0  0  0  0  0  0  0  0  0  0  0  0
   -8.7110   21.7740  -31.5940 C   0  0  0  0  0  0  0  0  0  0  0  0
   -8.6940   20.4960  -32.1770 C   0  0  0  0  0  0  0  0  0  0  0  0
   -7.4670   19.8370  -32.4390 C   0  0  0  0  0  0  0  0  0  0  0  0
   -7.4720   18.4710  -33.0630 C   0  0  0  0  0  0  0  0  0  0  0  0
   -7.4130   17.5050  -32.0750 F   0  0  0  0  0  0  0  0  0  0  0  0
   -6.3780   18.3380  -33.8980 F   0  0  0  0  0  0  0  0  0  0  0  0
   -6.2460   20.4630  -32.0980 C   0  0  0  0  0  0  0  0  0  0  0  0
   -6.2940   21.7280  -31.5020 C   0  0  0  0  0  0  0  0  0  0  0  0
   -5.2640   22.5110  -31.1100 N   0  0  0  0  0  0  0  0  0  0  0  0
   -3.8690   22.1990  -31.2300 C   0  0  0  0  0  0  0  0  0  0  0  0
   -3.0720   23.0470  -31.7190 O   0  0  0  0  0  0  0  0  0  0  0  0
   -3.3990   20.9480  -30.8120 O   0  0  0  0  0  0  0  0  0  0  0  0
   -2.7540   20.7320  -29.5590 C   0  0  0  0  0  0  0  0  0  0  0  0
   -2.9710   21.8960  -28.6440 C   0  0  0  0  0  0  0  0  0  0  0  0
   -3.4380   21.7010  -27.4880 O   0  0  0  0  0  0  0  0  0  0  0  0
   -2.7000   23.1920  -29.0960 O   0  0  0  0  0  0  0  0  0  0  0  0
   -1.3770   23.6810  -29.2990 C   0  0  0  0  0  0  0  0  0  0  0  0
   -1.3270   25.0870  -29.0720 O   0  0  0  0  0  0  0  0  0  0  0  0
   -1.2150   25.6460  -27.7950 C   0  0  0  0  0  0  0  0  0  0  0  0
   -0.2280   26.3730  -27.4930 O   0  0  0  0  0  0  0  0  0  0  0  0
   -2.3060   25.4190  -26.7960 C   0  0  0  0  0  0  0  0  0  0  0  0
   -3.4980   24.8860  -27.4520 N   0  0  0  0  0  0  0  0  0  0  0  0
   -2.9980   24.8430  -30.4430 H   0  0  0  0  0  0  0  0  0  0  0  0
   -7.9429   24.3594  -30.4159 H   0  0  0  0  0  0  0  0  0  0  0  0
   -9.6595   22.2943  -31.3951 H   0  0  0  0  0  0  0  0  0  0  0  0
   -9.6428   20.0017  -32.4328 H   0  0  0  0  0  0  0  0  0  0  0  0
   -8.3972   18.3440  -33.6443 H   0  0  0  0  0  0  0  0  0  0  0  0
   -5.2836   19.9685  -32.2961 H   0  0  0  0  0  0  0  0  0  0  0  0
   -3.1657   19.8247  -29.0928 H   0  0  0  0  0  0  0  0  0  0  0  0
   -1.6741   20.6158  -29.7329 H   0  0  0  0  0  0  0  0  0  0  0  0
   -0.6930   23.1765  -28.6007 H   0  0  0  0  0  0  0  0  0  0  0  0
   -1.0761   23.4761  -30.3370 H   0  0  0  0  0  0  0  0  0  0  0  0
   -1.9589   24.7018  -26.0377 H   0  0  0  0  0  0  0  0  0  0  0  0
   -2.5598   26.3788  -26.3222 H   0  0  0  0  0  0  0  0  0  0  0  0
   -3.4290   25.0170  -28.4880 H   0  0  0  0  0  0  0  0  0  0  0  0
   -3.5750   23.8640  -27.2430 H   0  0  0  0  0  0  0  0  0  0  0  0
   -4.3520   25.3720  -27.0910 H   0  0  0  0  0  0  0  0  0  0  0  0
  1  2  1  0
  2  3  2  0
  2  4  1  0
  4  5  2  0
  5  6  1  0
  6  7  2  0
  7  8  1  0
  8  9  2  0
  9 10  1  0
 10 11  1  0
 10 12  1  0
  9 13  1  0
 13 14  2  0
 14 15  1  0
 15 16  1  0
 16 17  2  0
 16 18  1  0
 18 19  1  0
 19 20  1  0
 20 21  2  0
 20 22  1  0
 22 23  1  0
 23 24  1  0
 24 25  1  0
 25 26  2  0
 25 27  1  0
 27 28  1  0
 15  4  1  0
 14  6  1  0
  1 29  1  0
  5 30  1  0
  7 31  1  0
  8 32  1  0
 10 33  1  0
 13 34  1  0
 19 35  1  0
 19 36  1  0
 23 37  1  0
 23 38  1  0
 27 39  1  0
 27 40  1  0
 28 41  1  0
 28 42  1  0
 28 43  1  0
M  CHG  2   1  -1  28   1
M  END
>  <UniqueID>  (32) 
32

>  <SMILES>  (32) 
[NH-]C(=O)c1cc2ccc(C(F)F)cc2n1C(=O)OCC(=O)OCOC(=O)C[NH3+]

>  <Energy>  (32) 
72.70147459221273

>  <Genealogy>  (32) 
[NH-]C(=O)c1cc2ccc(C(F)F)cc2n1C(=O)OCC(=O)OCOC(=O)C[NH3+] (protonated)
[NH-]C(=O)c1cc2ccc(C(F)F)cc2n1C(=O)OCC(=O)OCOC(=O)C[NH3+] (3D coordinates assigned)
[NH-]C(=O)c1cc2ccc(C(F)F)cc2n1C(=O)OCC(=O)OCOC(=O)C[NH3+] (optimized conformer: 72.70147459221273 kcal/mol)

>  <smiles>  (32) 
NCC(=O)OCOC(=O)COC(=O)n1c(C(N)=O)cc2ccc(C(F)F)cc21

>  <score_type>  (32) 
oracle

>  <origin>  (32) 
adg

>  <m_score__min__energy>  (32) 
-8.7899999999999991

>  <m_primary>  (32) 
energy

$$$$
33:0
     RDKit          3D

 49 51  0  0  0  0  0  0  0  0999 V2000
   -3.7900   23.0860  -27.6150 C   0  0  0  0  0  0  0  0  0  0  0  0
   -2.4040   22.6910  -27.3630 N   0  0  0  0  0  0  0  0  0  0  0  0
   -2.0630   21.3040  -27.5500 C   0  0  0  0  0  0  0  0  0  0  0  0
   -1.9220   20.5620  -26.5420 O   0  0  0  0  0  0  0  0  0  0  0  0
   -1.8110   20.7360  -28.9160 C   0  0  0  0  0  0  0  0  0  0  0  0
   -2.8910   21.0780  -29.8370 N   0  0  0  0  0  0  0  0  0  0  0  0
   -2.7730   22.1210  -30.8170 C   0  0  0  0  0  0  0  0  0  0  0  0
   -1.7460   22.8520  -30.8410 O   0  0  0  0  0  0  0  0  0  0  0  0
   -3.8580   22.3620  -31.7850 C   0  0  0  0  0  0  0  0  0  0  0  0
   -3.6300   22.2660  -33.0210 O   0  0  0  0  0  0  0  0  0  0  0  0
   -5.1790   22.7060  -31.3380 N   0  0  0  0  0  0  0  0  0  0  0  0
   -5.5810   23.8670  -30.7490 C   0  0  0  0  0  0  0  0  0  0  0  0
   -4.7390   25.0630  -30.5370 C   0  0  0  0  0  0  0  0  0  0  0  0
   -3.4390   24.9260  -29.9670 N   0  0  0  0  0  0  0  0  0  0  0  0
   -5.1580   26.2090  -30.8430 O   0  0  0  0  0  0  0  0  0  0  0  0
   -6.9330   23.8020  -30.4180 C   0  0  0  0  0  0  0  0  0  0  0  0
   -7.3460   22.5500  -30.8160 C   0  0  0  0  0  0  0  0  0  0  0  0
   -8.5940   21.9450  -30.7210 C   0  0  0  0  0  0  0  0  0  0  0  0
   -8.7260   20.6280  -31.1960 C   0  0  0  0  0  0  0  0  0  0  0  0
   -7.6110   19.9340  -31.7300 C   0  0  0  0  0  0  0  0  0  0  0  0
   -7.7790   18.5390  -32.2760 C   0  0  0  0  0  0  0  0  0  0  0  0
   -7.2440   18.4800  -33.5470 F   0  0  0  0  0  0  0  0  0  0  0  0
   -7.1320   17.6190  -31.4730 F   0  0  0  0  0  0  0  0  0  0  0  0
   -9.1160   18.1990  -32.3340 F   0  0  0  0  0  0  0  0  0  0  0  0
   -6.3640   20.5930  -31.8270 C   0  0  0  0  0  0  0  0  0  0  0  0
   -6.2670   21.9080  -31.3640 C   0  0  0  0  0  0  0  0  0  0  0  0
   -1.3830   23.7570  -27.2700 C   0  0  2  0  0  0  0  0  0  0  0  0
   -1.9460   25.0950  -26.8380 C   0  0  0  0  0  0  0  0  0  0  0  0
   -1.2850   26.0700  -27.7880 C   0  0  0  0  0  0  0  0  0  0  0  0
   -0.9300   25.3860  -28.9640 O   0  0  0  0  0  0  0  0  0  0  0  0
   -0.7010   24.0450  -28.6030 C   0  0  0  0  0  0  0  0  0  0  0  0
   -4.3091   23.2340  -26.6566 H   0  0  0  0  0  0  0  0  0  0  0  0
   -3.8053   24.0243  -28.1890 H   0  0  0  0  0  0  0  0  0  0  0  0
   -4.2976   22.2968  -28.1890 H   0  0  0  0  0  0  0  0  0  0  0  0
   -0.8656   21.1423  -29.3048 H   0  0  0  0  0  0  0  0  0  0  0  0
   -1.7572   19.6404  -28.8334 H   0  0  0  0  0  0  0  0  0  0  0  0
   -3.8110   20.6030  -29.7100 H   0  0  0  0  0  0  0  0  0  0  0  0
   -2.5940   25.2830  -30.4650 H   0  0  0  0  0  0  0  0  0  0  0  0
   -7.5411   24.5844  -29.9404 H   0  0  0  0  0  0  0  0  0  0  0  0
   -9.4519   22.4800  -30.2876 H   0  0  0  0  0  0  0  0  0  0  0  0
   -9.7060   20.1303  -31.1527 H   0  0  0  0  0  0  0  0  0  0  0  0
   -5.4899   20.0822  -32.2572 H   0  0  0  0  0  0  0  0  0  0  0  0
   -0.6804   23.3552  -26.5250 H   0  0  0  0  0  0  0  0  0  0  0  0
   -3.0402   25.1169  -26.9483 H   0  0  0  0  0  0  0  0  0  0  0  0
   -1.7515   25.3240  -25.7798 H   0  0  0  0  0  0  0  0  0  0  0  0
   -1.9854   26.8829  -28.0301 H   0  0  0  0  0  0  0  0  0  0  0  0
   -0.3870   26.4985  -27.3191 H   0  0  0  0  0  0  0  0  0  0  0  0
   -1.1128   23.3809  -29.3772 H   0  0  0  0  0  0  0  0  0  0  0  0
    0.3807   23.8690  -28.5084 H   0  0  0  0  0  0  0  0  0  0  0  0
  1  2  1  0
  2  3  1  0
  3  4  2  0
  3  5  1  0
  5  6  1  0
  6  7  1  0
  7  8  2  0
  7  9  1  0
  9 10  2  0
  9 11  1  0
 11 12  1  0
 12 13  1  0
 13 14  1  0
 13 15  2  0
 12 16  2  0
 16 17  1  0
 17 18  2  0
 18 19  1  0
 19 20  2  0
 20 21  1  0
 21 22  1  0
 21 23  1  0
 21 24  1  0
 20 25  1  0
 25 26  2  0
  2 27  1  0
 27 28  1  0
 28 29  1  0
 29 30  1  0
 30 31  1  0
 26 11  1  0
 31 27  1  0
 26 17  1  0
  1 32  1  0
  1 33  1  0
  1 34  1  0
  5 35  1  0
  5 36  1  0
  6 37  1  0
 14 38  1  0
 16 39  1  0
 18 40  1  0
 19 41  1  0
 25 42  1  0
 27 43  1  1
 28 44  1  0
 28 45  1  0
 29 46  1  0
 29 47  1  0
 31 48  1  0
 31 49  1  0
M  CHG  1  14  -1
M  END
>  <UniqueID>  (33) 
33

>  <SMILES>  (33) 
CN(C(=O)CNC(=O)C(=O)n1c(C([NH-])=O)cc2ccc(C(F)(F)F)cc21)[C@@H]1CCOC1

>  <Energy>  (33) 
91.41136427967699

>  <Genealogy>  (33) 
CN(C(=O)CNC(=O)C(=O)n1c(C([NH-])=O)cc2ccc(C(F)(F)F)cc21)C1CCOC1 (protonated)
CN(C(=O)CNC(=O)C(=O)n1c(C([NH-])=O)cc2ccc(C(F)(F)F)cc21)[C@@H]1CCOC1 (chirality)
CN(C(=O)CNC(=O)C(=O)n1c(C([NH-])=O)cc2ccc(C(F)(F)F)cc21)[C@@H]1CCOC1 (3D coordinates assigned)
CN(C(=O)CNC(=O)C(=O)n1c(C([NH-])=O)cc2ccc(C(F)(F)F)cc21)[C@@H]1CCOC1 (nonaromatic ring conformer: 91.41136427967699 kcal/mol)

>  <smiles>  (33) 
CN(C(=O)CNC(=O)C(=O)n1c(C(N)=O)cc2ccc(C(F)(F)F)cc21)C1CCOC1

>  <score_type>  (33) 
oracle

>  <origin>  (33) 
adg

>  <m_score__min__energy>  (33) 
-11.52

>  <m_primary>  (33) 
energy

$$$$
34:0
     RDKit          3D

 44 45  0  0  0  0  0  0  0  0999 V2000
   -2.9060   19.3090  -33.8210 C   0  0  0  0  0  0  0  0  0  0  0  0
   -4.3190   19.4390  -33.8980 O   0  0  0  0  0  0  0  0  0  0  0  0
   -5.1590   18.3670  -34.2200 C   0  0  0  0  0  0  0  0  0  0  0  0
   -5.7150   18.3160  -35.3530 O   0  0  0  0  0  0  0  0  0  0  0  0
   -5.4160   17.3450  -33.2340 N   0  0  2  0  0  0  0  0  0  0  0  0
   -6.0740   16.1850  -33.8660 C   0  0  0  0  0  0  0  0  0  0  0  0
   -6.2240   17.9220  -32.1360 C   0  0  0  0  0  0  0  0  0  0  0  0
   -7.4660   18.6740  -32.6520 C   0  0  0  0  0  0  0  0  0  0  0  0
   -7.4970   20.0960  -32.1560 C   0  0  0  0  0  0  0  0  0  0  0  0
   -8.7370   20.7530  -31.9480 C   0  0  0  0  0  0  0  0  0  0  0  0
   -8.7780   22.0980  -31.5410 C   0  0  0  0  0  0  0  0  0  0  0  0
   -7.5650   22.7550  -31.3410 C   0  0  0  0  0  0  0  0  0  0  0  0
   -7.3100   24.0600  -30.9800 C   0  0  0  0  0  0  0  0  0  0  0  0
   -5.9200   24.1660  -30.9360 C   0  0  0  0  0  0  0  0  0  0  0  0
   -5.2040   25.3880  -30.5150 C   0  0  0  0  0  0  0  0  0  0  0  0
   -3.8740   25.6450  -30.9520 N   0  0  0  0  0  0  0  0  0  0  0  0
   -5.7650   26.2000  -29.7340 O   0  0  0  0  0  0  0  0  0  0  0  0
   -5.3430   22.9750  -31.2570 N   0  0  0  0  0  0  0  0  0  0  0  0
   -3.9460   22.6750  -31.3660 C   0  0  0  0  0  0  0  0  0  0  0  0
   -3.5250   22.0220  -32.3600 O   0  0  0  0  0  0  0  0  0  0  0  0
   -3.0580   23.1220  -30.3790 O   0  0  0  0  0  0  0  0  0  0  0  0
   -3.3800   23.1420  -28.9900 C   0  0  0  0  0  0  0  0  0  0  0  0
   -2.4720   24.5240  -28.1310 P   0  0  0  0  0  0  0  0  0  0  0  0
   -1.7350   25.6040  -28.9650 O   0  0  0  0  0  0  0  0  0  0  0  0
   -6.3600   22.1250  -31.5090 C   0  0  0  0  0  0  0  0  0  0  0  0
   -6.2880   20.7960  -31.9370 C   0  0  0  0  0  0  0  0  0  0  0  0
   -2.5974   19.2806  -32.7656 H   0  0  0  0  0  0  0  0  0  0  0  0
   -2.5957   18.3785  -34.3189 H   0  0  0  0  0  0  0  0  0  0  0  0
   -2.4311   20.1673  -34.3189 H   0  0  0  0  0  0  0  0  0  0  0  0
   -4.4950   17.0280  -32.8510 H   0  0  0  0  0  0  0  0  0  0  0  0
   -6.4566   15.5105  -33.0858 H   0  0  0  0  0  0  0  0  0  0  0  0
   -6.9091   16.5331  -34.4916 H   0  0  0  0  0  0  0  0  0  0  0  0
   -5.3467   15.6468  -34.4916 H   0  0  0  0  0  0  0  0  0  0  0  0
   -6.5540   17.1073  -31.4747 H   0  0  0  0  0  0  0  0  0  0  0  0
   -5.5926   18.6460  -31.6002 H   0  0  0  0  0  0  0  0  0  0  0  0
   -7.4490   18.6795  -33.7519 H   0  0  0  0  0  0  0  0  0  0  0  0
   -8.3621   18.1582  -32.2764 H   0  0  0  0  0  0  0  0  0  0  0  0
   -9.6768   20.2039  -32.1069 H   0  0  0  0  0  0  0  0  0  0  0  0
   -9.7363   22.6152  -31.3854 H   0  0  0  0  0  0  0  0  0  0  0  0
   -8.0461   24.8502  -30.7710 H   0  0  0  0  0  0  0  0  0  0  0  0
   -3.0520   25.2930  -30.4120 H   0  0  0  0  0  0  0  0  0  0  0  0
   -4.4633   23.2916  -28.8714 H   0  0  0  0  0  0  0  0  0  0  0  0
   -3.0787   22.1843  -28.5406 H   0  0  0  0  0  0  0  0  0  0  0  0
   -5.3159   20.3074  -32.0992 H   0  0  0  0  0  0  0  0  0  0  0  0
  1  2  1  0
  2  3  1  0
  3  4  2  0
  3  5  1  0
  5  6  1  0
  5  7  1  0
  7  8  1  0
  8  9  1  0
  9 10  2  0
 10 11  1  0
 11 12  2  0
 12 13  1  0
 13 14  2  0
 14 15  1  0
 15 16  1  0
 15 17  2  0
 14 18  1  0
 18 19  1  0
 19 20  2  0
 19 21  1  0
 21 22  1  0
 22 23  1  0
 23 24  2  0
 18 25  1  0
 25 26  2  0
 26  9  1  0
 25 12  1  0
  1 27  1  0
  1 28  1  0
  1 29  1  0
  5 30  1  1
  6 31  1  0
  6 32  1  0
  6 33  1  0
  7 34  1  0
  7 35  1  0
  8 36  1  0
  8 37  1  0
 10 38  1  0
 11 39  1  0
 13 40  1  0
 16 41  1  0
 22 42  1  0
 22 43  1  0
 26 44  1  0
M  CHG  2   5   1  16  -1
M  END
>  <UniqueID>  (34) 
34

>  <SMILES>  (34) 
COC(=O)[N@H+](C)CCc1ccc2cc(C([NH-])=O)n(C(=O)OCP=O)c2c1

>  <Energy>  (34) 
79.49957571360508

>  <Genealogy>  (34) 
COC(=O)[NH+](C)CCc1ccc2cc(C([NH-])=O)n(C(=O)OCP=O)c2c1 (protonated)
COC(=O)[N@H+](C)CCc1ccc2cc(C([NH-])=O)n(C(=O)OCP=O)c2c1 (chirality)
COC(=O)[N@H+](C)CCc1ccc2cc(C([NH-])=O)n(C(=O)OCP=O)c2c1 (3D coordinates assigned)
COC(=O)[N@H+](C)CCc1ccc2cc(C([NH-])=O)n(C(=O)OCP=O)c2c1 (optimized conformer: 79.49957571360508 kcal/mol)

>  <smiles>  (34) 
COC(=O)N(C)CCc1ccc2cc(C(N)=O)n(C(=O)OCP=O)c2c1

>  <score_type>  (34) 
oracle

>  <origin>  (34) 
adg

>  <m_score__min__energy>  (34) 
-9.8900000000000006

>  <m_primary>  (34) 
energy

$$$$
35:0
     RDKit          3D

 31 32  0  0  0  0  0  0  0  0999 V2000
   -4.1630   25.5060  -30.6040 N   0  0  0  0  0  0  0  0  0  0  0  0
   -5.4930   25.0270  -30.3940 C   0  0  0  0  0  0  0  0  0  0  0  0
   -6.2840   25.7050  -29.6860 O   0  0  0  0  0  0  0  0  0  0  0  0
   -5.9520   23.7720  -31.0280 C   0  0  0  0  0  0  0  0  0  0  0  0
   -7.2880   23.4810  -31.2960 C   0  0  0  0  0  0  0  0  0  0  0  0
   -7.2890   22.1960  -31.7880 C   0  0  0  0  0  0  0  0  0  0  0  0
   -8.3480   21.4120  -32.2350 C   0  0  0  0  0  0  0  0  0  0  0  0
   -8.0580   20.1280  -32.7240 C   0  0  0  0  0  0  0  0  0  0  0  0
   -6.7240   19.6460  -32.7470 C   0  0  0  0  0  0  0  0  0  0  0  0
   -6.4170   18.2900  -33.3320 C   0  0  0  0  0  0  0  0  0  0  0  0
   -7.5200   17.4700  -33.1840 F   0  0  0  0  0  0  0  0  0  0  0  0
   -5.3350   17.7130  -32.6900 F   0  0  0  0  0  0  0  0  0  0  0  0
   -6.1120   18.3970  -34.6790 F   0  0  0  0  0  0  0  0  0  0  0  0
   -5.6720   20.4820  -32.3050 C   0  0  0  0  0  0  0  0  0  0  0  0
   -5.9930   21.7510  -31.8060 C   0  0  0  0  0  0  0  0  0  0  0  0
   -5.1590   22.7080  -31.3420 N   0  0  0  0  0  0  0  0  0  0  0  0
   -3.7250   22.6390  -31.2770 C   0  0  0  0  0  0  0  0  0  0  0  0
   -3.0680   22.2250  -32.2710 O   0  0  0  0  0  0  0  0  0  0  0  0
   -3.0620   23.0500  -30.1140 O   0  0  0  0  0  0  0  0  0  0  0  0
   -1.6420   23.1240  -30.0050 C   0  0  0  0  0  0  0  0  0  0  0  0
   -1.2390   24.3860  -29.3110 C   0  0  0  0  0  0  0  0  0  0  0  0
   -2.0050   25.3860  -29.3160 O   0  0  0  0  0  0  0  0  0  0  0  0
   -0.0010   24.4700  -28.6870 O   0  0  0  0  0  0  0  0  0  0  0  0
   -3.4640   24.9470  -31.1400 H   0  0  0  0  0  0  0  0  0  0  0  0
   -3.8600   26.4120  -30.1830 H   0  0  0  0  0  0  0  0  0  0  0  0
   -8.1570   24.1386  -31.1461 H   0  0  0  0  0  0  0  0  0  0  0  0
   -9.3817   21.7869  -32.2062 H   0  0  0  0  0  0  0  0  0  0  0  0
   -8.8739   19.4892  -33.0931 H   0  0  0  0  0  0  0  0  0  0  0  0
   -4.6264   20.1436  -32.3520 H   0  0  0  0  0  0  0  0  0  0  0  0
   -1.2769   22.2608  -29.4291 H   0  0  0  0  0  0  0  0  0  0  0  0
   -1.2051   23.1160  -31.0145 H   0  0  0  0  0  0  0  0  0  0  0  0
  1  2  1  0
  2  3  2  0
  2  4  1  0
  4  5  2  0
  5  6  1  0
  6  7  2  0
  7  8  1  0
  8  9  2  0
  9 10  1  0
 10 11  1  0
 10 12  1  0
 10 13  1  0
  9 14  1  0
 14 15  2  0
 15 16  1  0
 16 17  1  0
 17 18  2  0
 17 19  1  0
 19 20  1  0
 20 21  1  0
 21 22  2  0
 21 23  1  0
 16  4  1  0
 15  6  1  0
  1 24  1  0
  1 25  1  0
  5 26  1  0
  7 27  1  0
  8 28  1  0
 14 29  1  0
 20 30  1  0
 20 31  1  0
M  CHG  1  23  -1
M  END
>  <UniqueID>  (35) 
35

>  <SMILES>  (35) 
NC(=O)c1cc2ccc(C(F)(F)F)cc2n1C(=O)OCC(=O)[O-]

>  <Energy>  (35) 
68.25078366858222

>  <Genealogy>  (35) 
NC(=O)c1cc2ccc(C(F)(F)F)cc2n1C(=O)OCC(=O)[O-] (protonated)
NC(=O)c1cc2ccc(C(F)(F)F)cc2n1C(=O)OCC(=O)[O-] (3D coordinates assigned)
NC(=O)c1cc2ccc(C(F)(F)F)cc2n1C(=O)OCC(=O)[O-] (optimized conformer: 68.25078366858222 kcal/mol)

>  <smiles>  (35) 
NC(=O)c1cc2ccc(C(F)(F)F)cc2n1C(=O)OCC(=O)O

>  <score_type>  (35) 
oracle

>  <origin>  (35) 
adg

>  <m_score__min__energy>  (35) 
-9.9100000000000001

>  <m_primary>  (35) 
energy

$$$$
36:0
     RDKit          3D

 34 35  0  0  0  0  0  0  0  0999 V2000
   -1.4760   25.6860  -29.1190 N   0  0  0  0  0  0  0  0  0  0  0  0
   -0.6690   24.6060  -28.6600 C   0  0  0  0  0  0  0  0  0  0  0  0
    0.3470   24.8370  -27.9520 O   0  0  0  0  0  0  0  0  0  0  0  0
   -1.0590   23.1950  -28.9740 C   0  0  0  0  0  0  0  0  0  0  0  0
   -2.1230   23.1650  -29.9750 N   0  0  0  0  0  0  0  0  0  0  0  0
   -2.7960   21.9430  -30.3110 C   0  0  0  0  0  0  0  0  0  0  0  0
   -2.4640   20.8650  -29.7450 O   0  0  0  0  0  0  0  0  0  0  0  0
   -3.8710   21.9300  -31.3200 C   0  0  0  0  0  0  0  0  0  0  0  0
   -3.6330   21.5220  -32.4890 O   0  0  0  0  0  0  0  0  0  0  0  0
   -5.1970   22.3690  -30.9830 N   0  0  0  0  0  0  0  0  0  0  0  0
   -5.5490   23.4900  -30.2940 C   0  0  0  0  0  0  0  0  0  0  0  0
   -4.6250   24.5530  -29.8460 C   0  0  0  0  0  0  0  0  0  0  0  0
   -3.8750   25.2940  -30.8060 N   0  0  0  0  0  0  0  0  0  0  0  0
   -4.4770   24.8030  -28.6210 O   0  0  0  0  0  0  0  0  0  0  0  0
   -6.9300   23.5330  -30.1060 C   0  0  0  0  0  0  0  0  0  0  0  0
   -7.4130   22.3880  -30.6990 C   0  0  0  0  0  0  0  0  0  0  0  0
   -8.7170   21.9130  -30.8030 C   0  0  0  0  0  0  0  0  0  0  0  0
   -8.9210   20.6830  -31.4500 C   0  0  0  0  0  0  0  0  0  0  0  0
   -7.8250   19.9380  -31.9560 C   0  0  0  0  0  0  0  0  0  0  0  0
   -8.0680   18.6370  -32.6780 C   0  0  0  0  0  0  0  0  0  0  0  0
   -9.3750   18.5570  -33.1270 F   0  0  0  0  0  0  0  0  0  0  0  0
   -7.2270   18.5290  -33.7730 F   0  0  0  0  0  0  0  0  0  0  0  0
   -7.8220   17.5860  -31.8170 F   0  0  0  0  0  0  0  0  0  0  0  0
   -6.5160   20.4650  -31.8500 C   0  0  0  0  0  0  0  0  0  0  0  0
   -6.3460   21.7010  -31.2170 C   0  0  0  0  0  0  0  0  0  0  0  0
   -2.5140   25.5870  -29.1900 H   0  0  0  0  0  0  0  0  0  0  0  0
   -0.1824   22.6557  -29.3622 H   0  0  0  0  0  0  0  0  0  0  0  0
   -1.4247   22.7156  -28.0540 H   0  0  0  0  0  0  0  0  0  0  0  0
   -2.4090   24.0500  -30.4520 H   0  0  0  0  0  0  0  0  0  0  0  0
   -2.8320   25.2980  -30.7860 H   0  0  0  0  0  0  0  0  0  0  0  0
   -7.5098   24.3147  -29.5934 H   0  0  0  0  0  0  0  0  0  0  0  0
   -9.5624   22.4835  -30.3910 H   0  0  0  0  0  0  0  0  0  0  0  0
   -9.9429   20.2928  -31.5657 H   0  0  0  0  0  0  0  0  0  0  0  0
   -5.6532   19.9162  -32.2554 H   0  0  0  0  0  0  0  0  0  0  0  0
  1  2  1  0
  2  3  2  0
  2  4  1  0
  4  5  1  0
  5  6  1  0
  6  7  2  0
  6  8  1  0
  8  9  2  0
  8 10  1  0
 10 11  1  0
 11 12  1  0
 12 13  1  0
 12 14  2  0
 11 15  2  0
 15 16  1  0
 16 17  2  0
 17 18  1  0
 18 19  2  0
 19 20  1  0
 20 21  1  0
 20 22  1  0
 20 23  1  0
 19 24  1  0
 24 25  2  0
 25 10  1  0
 25 16  1  0
  1 26  1  0
  4 27  1  0
  4 28  1  0
  5 29  1  0
 13 30  1  0
 15 31  1  0
 17 32  1  0
 18 33  1  0
 24 34  1  0
M  CHG  2   1  -1  13  -1
M  END
>  <UniqueID>  (36) 
36

>  <SMILES>  (36) 
[NH-]C(=O)CNC(=O)C(=O)n1c(C([NH-])=O)cc2ccc(C(F)(F)F)cc21

>  <Energy>  (36) 
70.46843288215032

>  <Genealogy>  (36) 
[NH-]C(=O)CNC(=O)C(=O)n1c(C([NH-])=O)cc2ccc(C(F)(F)F)cc21 (protonated)
[NH-]C(=O)CNC(=O)C(=O)n1c(C([NH-])=O)cc2ccc(C(F)(F)F)cc21 (3D coordinates assigned)
[NH-]C(=O)CNC(=O)C(=O)n1c(C([NH-])=O)cc2ccc(C(F)(F)F)cc21 (optimized conformer: 70.46843288215032 kcal/mol)

>  <smiles>  (36) 
NC(=O)CNC(=O)C(=O)n1c(C(N)=O)cc2ccc(C(F)(F)F)cc21

>  <score_type>  (36) 
oracle

>  <origin>  (36) 
adg

>  <m_score__min__energy>  (36) 
-12.58

>  <m_primary>  (36) 
energy

$$$$
37:0
     RDKit          3D

 71 73  0  0  0  0  0  0  0  0999 V2000
   -3.4160   18.9220  -26.4680 C   0  0  0  0  0  0  0  0  0  0  0  0
   -2.1010   18.8180  -26.6730 C   0  0  0  0  0  0  0  0  0  0  0  0
   -1.2630   20.0160  -27.0140 C   0  0  0  0  0  0  0  0  0  0  0  0
    0.0350   19.6170  -27.4510 O   0  0  0  0  0  0  0  0  0  0  0  0
    0.2710   18.4650  -28.2100 C   0  0  0  0  0  0  0  0  0  0  0  0
    0.2870   17.3290  -27.6620 O   0  0  0  0  0  0  0  0  0  0  0  0
    0.5030   18.5810  -29.6210 N   0  0  0  0  0  0  0  0  0  0  0  0
    1.3590   17.8530  -30.3920 C   0  0  0  0  0  0  0  0  0  0  0  0
    2.1470   16.6840  -29.9280 C   0  0  0  0  0  0  0  0  0  0  0  0
    1.5320   15.6300  -29.1810 N   0  0  0  0  0  0  0  0  0  0  0  0
    3.3820   16.6150  -30.1720 O   0  0  0  0  0  0  0  0  0  0  0  0
    1.3260   18.3090  -31.7100 C   0  0  0  0  0  0  0  0  0  0  0  0
    0.4180   19.3440  -31.7180 C   0  0  0  0  0  0  0  0  0  0  0  0
    0.0170   20.1770  -32.7580 C   0  0  0  0  0  0  0  0  0  0  0  0
   -0.9080   21.1930  -32.4690 C   0  0  0  0  0  0  0  0  0  0  0  0
   -1.4230   21.3560  -31.1550 C   0  0  0  0  0  0  0  0  0  0  0  0
   -2.3760   22.4890  -30.8290 C   0  0  2  0  0  0  0  0  0  0  0  0
   -2.4720   22.7380  -29.3450 C   0  0  0  0  0  0  0  0  0  0  0  0
   -3.4170   23.5500  -28.8670 C   0  0  0  0  0  0  0  0  0  0  0  0
   -3.4550   23.7940  -27.4870 O   0  0  0  0  0  0  0  0  0  0  0  0
   -4.2870   24.7670  -26.8680 C   0  0  0  0  0  0  0  0  0  0  0  0
   -4.3790   24.2040  -29.8410 C   0  0  1  0  0  0  0  0  0  0  0  0
   -3.7220   25.2790  -30.4650 O   0  0  0  0  0  0  0  0  0  0  0  0
   -4.8810   23.1870  -30.9040 C   0  0  2  0  0  0  0  0  0  0  0  0
   -5.9200   22.4160  -30.3240 O   0  0  0  0  0  0  0  0  0  0  0  0
   -7.2070   22.0700  -31.4420 Si  0  0  0  0  0  4  0  0  0  0  0  0
   -7.3800   23.4840  -32.6620 C   0  0  0  0  0  0  0  0  0  0  0  0
   -8.8300   21.8560  -30.5270 C   0  0  0  0  0  0  0  0  0  0  0  0
   -6.7530   20.4670  -32.3550 C   0  0  0  0  0  0  0  0  0  0  0  0
   -6.2060   19.4460  -31.3420 C   0  0  0  0  0  0  0  0  0  0  0  0
   -5.6850   20.7510  -33.4260 C   0  0  0  0  0  0  0  0  0  0  0  0
   -8.0150   19.8950  -33.0260 C   0  0  0  0  0  0  0  0  0  0  0  0
   -3.7770   22.2120  -31.4120 C   0  0  0  0  0  0  0  0  0  0  0  0
   -0.9840   20.4920  -30.1240 C   0  0  0  0  0  0  0  0  0  0  0  0
   -0.0680   19.4850  -30.4450 C   0  0  0  0  0  0  0  0  0  0  0  0
   -4.0063   18.0277  -26.2194 H   0  0  0  0  0  0  0  0  0  0  0  0
   -3.9093   19.9020  -26.5477 H   0  0  0  0  0  0  0  0  0  0  0  0
   -1.6205   17.8320  -26.5902 H   0  0  0  0  0  0  0  0  0  0  0  0
   -1.7554   20.5840  -27.8171 H   0  0  0  0  0  0  0  0  0  0  0  0
   -1.1564   20.6400  -26.1144 H   0  0  0  0  0  0  0  0  0  0  0  0
    0.5070   15.6210  -28.9820 H   0  0  0  0  0  0  0  0  0  0  0  0
    2.1080   14.8270  -28.8450 H   0  0  0  0  0  0  0  0  0  0  0  0
    1.9036   17.9231  -32.5629 H   0  0  0  0  0  0  0  0  0  0  0  0
    0.4127   20.0436  -33.7757 H   0  0  0  0  0  0  0  0  0  0  0  0
   -1.2380   21.8711  -33.2698 H   0  0  0  0  0  0  0  0  0  0  0  0
   -1.9667   23.3973  -31.2954 H   0  0  0  0  0  0  0  0  0  0  0  0
   -1.7644   22.2513  -28.6577 H   0  0  0  0  0  0  0  0  0  0  0  0
   -4.2081   24.6748  -25.7747 H   0  0  0  0  0  0  0  0  0  0  0  0
   -3.9656   25.7731  -27.1752 H   0  0  0  0  0  0  0  0  0  0  0  0
   -5.3308   24.6057  -27.1752 H   0  0  0  0  0  0  0  0  0  0  0  0
   -5.2600   24.5670  -29.2913 H   0  0  0  0  0  0  0  0  0  0  0  0
   -3.1140   25.6790  -29.7860 H   0  0  0  0  0  0  0  0  0  0  0  0
   -5.2194   23.7708  -31.7727 H   0  0  0  0  0  0  0  0  0  0  0  0
   -7.4957   24.4300  -32.1128 H   0  0  0  0  0  0  0  0  0  0  0  0
   -6.4814   23.5347  -33.2944 H   0  0  0  0  0  0  0  0  0  0  0  0
   -8.2644   23.3166  -33.2944 H   0  0  0  0  0  0  0  0  0  0  0  0
   -8.6457   21.8803  -29.4428 H   0  0  0  0  0  0  0  0  0  0  0  0
   -9.5156   22.6715  -30.8007 H   0  0  0  0  0  0  0  0  0  0  0  0
   -9.2807   20.8907  -30.8007 H   0  0  0  0  0  0  0  0  0  0  0  0
   -6.3981   19.8045  -30.3200 H   0  0  0  0  0  0  0  0  0  0  0  0
   -6.7061   18.4777  -31.4909 H   0  0  0  0  0  0  0  0  0  0  0  0
   -5.1228   19.3259  -31.4909 H   0  0  0  0  0  0  0  0  0  0  0  0
   -4.7330   21.0041  -32.9364 H   0  0  0  0  0  0  0  0  0  0  0  0
   -5.5485   19.8579  -34.0535 H   0  0  0  0  0  0  0  0  0  0  0  0
   -6.0101   21.5939  -34.0535 H   0  0  0  0  0  0  0  0  0  0  0  0
   -8.7273   19.5722  -32.2524 H   0  0  0  0  0  0  0  0  0  0  0  0
   -8.4805   20.6701  -33.6525 H   0  0  0  0  0  0  0  0  0  0  0  0
   -7.7389   19.0340  -33.6525 H   0  0  0  0  0  0  0  0  0  0  0  0
   -4.0686   21.1872  -31.1386 H   0  0  0  0  0  0  0  0  0  0  0  0
   -3.7023   22.3562  -32.4999 H   0  0  0  0  0  0  0  0  0  0  0  0
   -1.3542   20.6095  -29.0949 H   0  0  0  0  0  0  0  0  0  0  0  0
  1  2  2  0
  2  3  1  0
  3  4  1  0
  4  5  1  0
  5  6  2  0
  5  7  1  0
  7  8  1  0
  8  9  1  0
  9 10  1  0
  9 11  2  0
  8 12  2  0
 12 13  1  0
 13 14  2  0
 14 15  1  0
 15 16  2  0
 16 17  1  0
 17 18  1  0
 18 19  2  0
 19 20  1  0
 20 21  1  0
 19 22  1  0
 22 23  1  0
 22 24  1  0
 24 25  1  0
 25 26  1  0
 26 27  1  0
 26 28  1  0
 26 29  1  0
 29 30  1  0
 29 31  1  0
 29 32  1  0
 24 33  1  0
 16 34  1  0
 34 35  2  0
 35  7  1  0
 35 13  1  0
 33 17  1  0
  1 36  1  0
  1 37  1  0
  2 38  1  0
  3 39  1  0
  3 40  1  0
 10 41  1  0
 10 42  1  0
 12 43  1  0
 14 44  1  0
 15 45  1  0
 17 46  1  6
 18 47  1  0
 21 48  1  0
 21 49  1  0
 21 50  1  0
 22 51  1  1
 23 52  1  0
 24 53  1  6
 27 54  1  0
 27 55  1  0
 27 56  1  0
 28 57  1  0
 28 58  1  0
 28 59  1  0
 30 60  1  0
 30 61  1  0
 30 62  1  0
 31 63  1  0
 31 64  1  0
 31 65  1  0
 32 66  1  0
 32 67  1  0
 32 68  1  0
 33 69  1  0
 33 70  1  0
 34 71  1  0
M  END
>  <UniqueID>  (37) 
37

>  <SMILES>  (37) 
C=CCOC(=O)n1c(C(N)=O)cc2ccc([C@@H]3C=C(OC)[C@@H](O)[C@H](O[Si](C)(C)C(C)(C)C)C3)cc21

>  <Energy>  (37) 
94.48018182539155

>  <Genealogy>  (37) 
C=CCOC(=O)n1c(C(N)=O)cc2ccc([C@@H]3C=C(OC)[C@@H](O)[C@H](O[Si](C)(C)C(C)(C)C)C3)cc21 (chirality)
C=CCOC(=O)n1c(C(N)=O)cc2ccc([C@@H]3C=C(OC)[C@@H](O)[C@H](O[Si](C)(C)C(C)(C)C)C3)cc21 (3D coordinates assigned)
C=CCOC(=O)n1c(C(N)=O)cc2ccc([C@@H]3C=C(OC)[C@@H](O)[C@H](O[Si](C)(C)C(C)(C)C)C3)cc21 (nonaromatic ring conformer: 94.48018182539155 kcal/mol)

>  <smiles>  (37) 
C=CCOC(=O)n1c(C(N)=O)cc2ccc([C@@H]3C=C(OC)[C@@H](O)C(O[Si](C)(C)C(C)(C)C)C3)cc21

>  <score_type>  (37) 
oracle

>  <origin>  (37) 
adg

>  <m_score__min__energy>  (37) 
-9.3200000000000003

>  <m_primary>  (37) 
energy

$$$$
38:0
     RDKit          3D

 38 40  0  0  0  0  0  0  0  0999 V2000
   -3.8480   22.5240  -28.2060 C   0  0  0  0  0  0  0  0  0  0  0  0
   -3.7830   23.1640  -29.5240 N   0  0  0  0  0  0  0  0  0  0  0  0
   -3.0690   24.4080  -29.6710 C   0  0  0  0  0  0  0  0  0  0  0  0
   -3.4740   25.2820  -30.4830 O   0  0  0  0  0  0  0  0  0  0  0  0
   -1.9400   24.6720  -28.9050 O   0  0  0  0  0  0  0  0  0  0  0  0
   -4.3740   22.5170  -30.6670 C   0  0  0  0  0  0  0  0  0  0  0  0
   -3.6530   21.8550  -31.4620 O   0  0  0  0  0  0  0  0  0  0  0  0
   -5.7860   22.6210  -30.9190 N   0  0  0  0  0  0  0  0  0  0  0  0
   -6.5660   23.7360  -30.8390 C   0  0  0  0  0  0  0  0  0  0  0  0
   -6.1130   25.0630  -30.3610 C   0  0  0  0  0  0  0  0  0  0  0  0
   -6.0450   25.3540  -28.9640 N   0  0  0  0  0  0  0  0  0  0  0  0
   -5.7630   25.9460  -31.1870 O   0  0  0  0  0  0  0  0  0  0  0  0
   -7.8810   23.4330  -31.1970 C   0  0  0  0  0  0  0  0  0  0  0  0
   -7.8750   22.0910  -31.5060 C   0  0  0  0  0  0  0  0  0  0  0  0
   -8.9140   21.2600  -31.9170 C   0  0  0  0  0  0  0  0  0  0  0  0
   -8.6160   19.9100  -32.1710 C   0  0  0  0  0  0  0  0  0  0  0  0
   -7.2900   19.4260  -32.0330 C   0  0  0  0  0  0  0  0  0  0  0  0
   -6.9830   17.9730  -32.2630 C   0  0  0  0  0  0  0  0  0  0  0  0
   -6.0490   17.8390  -33.3750 N   0  0  0  0  0  0  0  0  0  0  0  0
   -5.9980   18.5990  -34.4800 C   0  0  0  0  0  0  0  0  0  0  0  0
   -5.0700   18.1400  -35.3420 N   0  0  0  0  0  0  0  0  0  0  0  0
   -4.5770   17.0600  -34.6930 C   0  0  0  0  0  0  0  0  0  0  0  0
   -5.1710   16.8610  -33.5000 N   0  0  0  0  0  0  0  0  0  0  0  0
   -6.2650   20.2980  -31.6100 C   0  0  0  0  0  0  0  0  0  0  0  0
   -6.5980   21.6280  -31.3370 C   0  0  0  0  0  0  0  0  0  0  0  0
   -3.7701   23.2912  -27.4216 H   0  0  0  0  0  0  0  0  0  0  0  0
   -4.8049   21.9911  -28.1039 H   0  0  0  0  0  0  0  0  0  0  0  0
   -3.0178   21.8096  -28.1039 H   0  0  0  0  0  0  0  0  0  0  0  0
   -6.3870   24.6770  -28.2470 H   0  0  0  0  0  0  0  0  0  0  0  0
   -5.6880   26.2810  -28.6400 H   0  0  0  0  0  0  0  0  0  0  0  0
   -8.7394   24.1202  -31.2261 H   0  0  0  0  0  0  0  0  0  0  0  0
   -9.9361   21.6479  -32.0391 H   0  0  0  0  0  0  0  0  0  0  0  0
   -9.4180   19.2231  -32.4794 H   0  0  0  0  0  0  0  0  0  0  0  0
   -6.5337   17.5457  -31.3544 H   0  0  0  0  0  0  0  0  0  0  0  0
   -7.9135   17.4370  -32.5016 H   0  0  0  0  0  0  0  0  0  0  0  0
   -6.6308   19.4809  -34.6584 H   0  0  0  0  0  0  0  0  0  0  0  0
   -3.7804   16.4164  -35.0944 H   0  0  0  0  0  0  0  0  0  0  0  0
   -5.2307   19.9408  -31.4979 H   0  0  0  0  0  0  0  0  0  0  0  0
  1  2  1  0
  2  3  1  0
  3  4  2  0
  3  5  1  0
  2  6  1  0
  6  7  2  0
  6  8  1  0
  8  9  1  0
  9 10  1  0
 10 11  1  0
 10 12  2  0
  9 13  2  0
 13 14  1  0
 14 15  2  0
 15 16  1  0
 16 17  2  0
 17 18  1  0
 18 19  1  0
 19 20  1  0
 20 21  2  0
 21 22  1  0
 22 23  2  0
 17 24  1  0
 24 25  2  0
 25  8  1  0
 25 14  1  0
 23 19  1  0
  1 26  1  0
  1 27  1  0
  1 28  1  0
 11 29  1  0
 11 30  1  0
 13 31  1  0
 15 32  1  0
 16 33  1  0
 18 34  1  0
 18 35  1  0
 20 36  1  0
 22 37  1  0
 24 38  1  0
M  CHG  1   5  -1
M  END
>  <UniqueID>  (38) 
38

>  <SMILES>  (38) 
CN(C(=O)[O-])C(=O)n1c(C(N)=O)cc2ccc(Cn3cncn3)cc21

>  <Energy>  (38) 
111.19515627786593

>  <Genealogy>  (38) 
CN(C(=O)[O-])C(=O)n1c(C(N)=O)cc2ccc(Cn3cncn3)cc21 (protonated)
CN(C(=O)[O-])C(=O)n1c(C(N)=O)cc2ccc(Cn3cncn3)cc21 (3D coordinates assigned)
CN(C(=O)[O-])C(=O)n1c(C(N)=O)cc2ccc(Cn3cncn3)cc21 (optimized conformer: 111.19515627786593 kcal/mol)

>  <smiles>  (38) 
CN(C(=O)O)C(=O)n1c(C(N)=O)cc2ccc(Cn3cncn3)cc21

>  <score_type>  (38) 
oracle

>  <origin>  (38) 
adg

>  <m_score__min__energy>  (38) 
-10.91

>  <m_primary>  (38) 
energy

$$$$
39:0
     RDKit          3D

 45 46  0  0  0  0  0  0  0  0999 V2000
   -7.4160   23.3940  -32.2630 C   0  0  0  0  0  0  0  0  0  0  0  0
   -7.6660   22.1610  -31.5000 N   0  0  0  0  0  0  0  0  0  0  0  0
   -7.5930   22.4120  -30.0510 C   0  0  0  0  0  0  0  0  0  0  0  0
   -8.9270   21.4960  -31.8970 C   0  0  0  0  0  0  0  0  0  0  0  0
   -8.7620   20.0390  -32.2460 C   0  0  0  0  0  0  0  0  0  0  0  0
   -9.7090   19.4270  -32.8110 O   0  0  0  0  0  0  0  0  0  0  0  0
   -7.5320   19.3610  -31.9500 N   0  0  0  0  0  0  0  0  0  0  0  0
   -7.3010   17.9480  -32.2450 C   0  0  0  0  0  0  0  0  0  0  0  0
   -5.9500   17.7690  -32.7640 N   0  0  0  0  0  0  0  0  0  0  0  0
   -5.2920   18.6640  -33.6700 C   0  0  0  0  0  0  0  0  0  0  0  0
   -4.7260   18.1820  -34.6860 O   0  0  0  0  0  0  0  0  0  0  0  0
   -5.3400   20.1570  -33.4640 C   0  0  0  0  0  0  0  0  0  0  0  0
   -4.1430   20.6770  -32.7100 C   0  0  0  0  0  0  0  0  0  0  0  0
   -2.9190   19.9630  -32.7450 C   0  0  0  0  0  0  0  0  0  0  0  0
   -1.7950   20.4340  -32.0450 C   0  0  0  0  0  0  0  0  0  0  0  0
   -1.9290   21.6110  -31.3130 C   0  0  0  0  0  0  0  0  0  0  0  0
   -0.9990   22.3020  -30.5710 C   0  0  0  0  0  0  0  0  0  0  0  0
   -1.6760   23.4110  -30.0690 C   0  0  0  0  0  0  0  0  0  0  0  0
   -1.0640   24.3890  -29.1460 C   0  0  0  0  0  0  0  0  0  0  0  0
   -1.6750   25.6620  -28.9550 N   0  0  0  0  0  0  0  0  0  0  0  0
    0.0130   24.1260  -28.5480 O   0  0  0  0  0  0  0  0  0  0  0  0
   -2.9750   23.4090  -30.4890 N   0  0  0  0  0  0  0  0  0  0  0  0
   -3.9850   24.4020  -30.2450 C   0  0  0  0  0  0  0  0  0  0  0  0
   -4.9480   24.1540  -29.4730 O   0  0  0  0  0  0  0  0  0  0  0  0
   -3.8950   25.6520  -30.8410 O   0  0  0  0  0  0  0  0  0  0  0  0
   -3.1140   22.2980  -31.2470 C   0  0  0  0  0  0  0  0  0  0  0  0
   -4.2440   21.8590  -31.9440 C   0  0  0  0  0  0  0  0  0  0  0  0
   -7.2468   24.2283  -31.5664 H   0  0  0  0  0  0  0  0  0  0  0  0
   -6.5269   23.2593  -32.8965 H   0  0  0  0  0  0  0  0  0  0  0  0
   -8.2874   23.6162  -32.8965 H   0  0  0  0  0  0  0  0  0  0  0  0
   -7.8598   21.4945  -29.5060 H   0  0  0  0  0  0  0  0  0  0  0  0
   -6.5699   22.7137  -29.7822 H   0  0  0  0  0  0  0  0  0  0  0  0
   -8.2947   23.2153  -29.7822 H   0  0  0  0  0  0  0  0  0  0  0  0
   -9.6384   21.5742  -31.0616 H   0  0  0  0  0  0  0  0  0  0  0  0
   -9.2858   22.0043  -32.8041 H   0  0  0  0  0  0  0  0  0  0  0  0
   -6.7810   19.8810  -31.4420 H   0  0  0  0  0  0  0  0  0  0  0  0
   -7.4202   17.3580  -31.3243 H   0  0  0  0  0  0  0  0  0  0  0  0
   -8.0283   17.6092  -32.9975 H   0  0  0  0  0  0  0  0  0  0  0  0
   -5.3768   20.6474  -34.4480 H   0  0  0  0  0  0  0  0  0  0  0  0
   -6.2346   20.3820  -32.8648 H   0  0  0  0  0  0  0  0  0  0  0  0
   -2.8482   19.0314  -33.3256 H   0  0  0  0  0  0  0  0  0  0  0  0
   -0.8394   19.8900  -32.0744 H   0  0  0  0  0  0  0  0  0  0  0  0
    0.0557   22.0352  -30.4086 H   0  0  0  0  0  0  0  0  0  0  0  0
   -2.7100   25.7790  -29.0330 H   0  0  0  0  0  0  0  0  0  0  0  0
   -5.1886   22.4207  -31.8967 H   0  0  0  0  0  0  0  0  0  0  0  0
  1  2  1  0
  2  3  1  0
  2  4  1  0
  4  5  1  0
  5  6  2  0
  5  7  1  0
  7  8  1  0
  8  9  1  0
  9 10  1  0
 10 11  2  0
 10 12  1  0
 12 13  1  0
 13 14  2  0
 14 15  1  0
 15 16  2  0
 16 17  1  0
 17 18  2  0
 18 19  1  0
 19 20  1  0
 19 21  2  0
 18 22  1  0
 22 23  1  0
 23 24  2  0
 23 25  1  0
 22 26  1  0
 26 27  2  0
 27 13  1  0
 26 16  1  0
  1 28  1  0
  1 29  1  0
  1 30  1  0
  3 31  1  0
  3 32  1  0
  3 33  1  0
  4 34  1  0
  4 35  1  0
  7 36  1  0
  8 37  1  0
  8 38  1  0
 12 39  1  0
 12 40  1  0
 14 41  1  0
 15 42  1  0
 17 43  1  0
 20 44  1  0
 27 45  1  0
M  CHG  3   9  -1  20  -1  25  -1
M  END
>  <UniqueID>  (39) 
39

>  <SMILES>  (39) 
CN(C)CC(=O)NC[N-]C(=O)Cc1ccc2cc(C([NH-])=O)n(C(=O)[O-])c2c1

>  <Energy>  (39) 
79.88487053632173

>  <Genealogy>  (39) 
CN(C)CC(=O)NC[N-]C(=O)Cc1ccc2cc(C([NH-])=O)n(C(=O)[O-])c2c1 (protonated)
CN(C)CC(=O)NC[N-]C(=O)Cc1ccc2cc(C([NH-])=O)n(C(=O)[O-])c2c1 (3D coordinates assigned)
CN(C)CC(=O)NC[N-]C(=O)Cc1ccc2cc(C([NH-])=O)n(C(=O)[O-])c2c1 (optimized conformer: 79.88487053632173 kcal/mol)

>  <smiles>  (39) 
CN(C)CC(=O)NCNC(=O)Cc1ccc2cc(C(N)=O)n(C(=O)O)c2c1

>  <score_type>  (39) 
oracle

>  <origin>  (39) 
adg

>  <m_score__min__energy>  (39) 
-11.699999999999999

>  <m_primary>  (39) 
energy

$$$$
40:0
     RDKit          3D

 49 51  0  0  0  0  0  0  0  0999 V2000
   -6.0870   18.1590  -34.0690 C   0  0  0  0  0  0  0  0  0  0  0  0
   -6.4680   18.3170  -32.6640 N   0  0  0  0  0  0  0  0  0  0  0  0
   -6.6980   19.7080  -32.3660 C   0  0  0  0  0  0  0  0  0  0  0  0
   -7.9800   20.2810  -32.5760 C   0  0  0  0  0  0  0  0  0  0  0  0
   -8.2080   21.6450  -32.3200 C   0  0  0  0  0  0  0  0  0  0  0  0
   -7.1390   22.4100  -31.8640 C   0  0  0  0  0  0  0  0  0  0  0  0
   -7.0730   23.7510  -31.5540 C   0  0  0  0  0  0  0  0  0  0  0  0
   -5.7540   23.9740  -31.1600 C   0  0  0  0  0  0  0  0  0  0  0  0
   -5.2510   25.2750  -30.6720 C   0  0  0  0  0  0  0  0  0  0  0  0
   -3.8840   25.6440  -30.8390 N   0  0  0  0  0  0  0  0  0  0  0  0
   -6.0320   26.0620  -30.0740 O   0  0  0  0  0  0  0  0  0  0  0  0
   -5.0350   22.8180  -31.2340 N   0  0  0  0  0  0  0  0  0  0  0  0
   -3.6400   22.6220  -30.9720 C   0  0  0  0  0  0  0  0  0  0  0  0
   -2.8970   22.1780  -31.8860 O   0  0  0  0  0  0  0  0  0  0  0  0
   -3.0690   22.9650  -29.6550 C   0  0  0  0  0  0  0  0  0  0  0  0
   -3.7600   23.6330  -28.8380 O   0  0  0  0  0  0  0  0  0  0  0  0
   -1.7420   22.5470  -29.2850 N   0  0  0  0  0  0  0  0  0  0  0  0
   -1.5830   21.2290  -28.6600 C   0  0  0  0  0  0  0  0  0  0  0  0
   -0.7070   23.5810  -29.0960 C   0  0  0  0  0  0  0  0  0  0  0  0
   -1.1710   24.7840  -28.2200 C   0  0  1  0  0  0  0  0  0  0  0  0
   -1.9760   25.6720  -28.9570 O   0  0  0  0  0  0  0  0  0  0  0  0
   -1.8870   24.3420  -26.9630 C   0  0  0  0  0  0  0  0  0  0  0  0
   -0.7840   24.2770  -25.9180 C   0  0  0  0  0  0  0  0  0  0  0  0
    0.3700   24.9240  -26.4030 O   0  0  0  0  0  0  0  0  0  0  0  0
    0.0310   25.5210  -27.6310 C   0  0  0  0  0  0  0  0  0  0  0  0
   -5.8970   21.8720  -31.6570 C   0  0  0  0  0  0  0  0  0  0  0  0
   -5.6360   20.5220  -31.9090 C   0  0  0  0  0  0  0  0  0  0  0  0
   -5.0724   17.7383  -34.1287 H   0  0  0  0  0  0  0  0  0  0  0  0
   -6.7952   17.4804  -34.5669 H   0  0  0  0  0  0  0  0  0  0  0  0
   -6.1071   19.1397  -34.5669 H   0  0  0  0  0  0  0  0  0  0  0  0
   -7.3340   17.7600  -32.4770 H   0  0  0  0  0  0  0  0  0  0  0  0
   -5.7040   17.9400  -32.0560 H   0  0  0  0  0  0  0  0  0  0  0  0
   -8.8039   19.6512  -32.9429 H   0  0  0  0  0  0  0  0  0  0  0  0
   -9.2005   22.0931  -32.4754 H   0  0  0  0  0  0  0  0  0  0  0  0
   -7.8874   24.4886  -31.6062 H   0  0  0  0  0  0  0  0  0  0  0  0
   -3.1430   25.2570  -30.2140 H   0  0  0  0  0  0  0  0  0  0  0  0
   -1.5962   21.3382  -27.5655 H   0  0  0  0  0  0  0  0  0  0  0  0
   -2.4085   20.5728  -28.9730 H   0  0  0  0  0  0  0  0  0  0  0  0
   -0.6251   20.7879  -28.9730 H   0  0  0  0  0  0  0  0  0  0  0  0
    0.1640   23.1152  -28.6119 H   0  0  0  0  0  0  0  0  0  0  0  0
   -0.4705   23.9830  -30.0922 H   0  0  0  0  0  0  0  0  0  0  0  0
   -2.9120   25.3460  -28.8960 H   0  0  0  0  0  0  0  0  0  0  0  0
   -2.6574   25.0720  -26.6741 H   0  0  0  0  0  0  0  0  0  0  0  0
   -2.4105   23.3826  -27.0878 H   0  0  0  0  0  0  0  0  0  0  0  0
   -1.1227   24.7752  -24.9977 H   0  0  0  0  0  0  0  0  0  0  0  0
   -0.5478   23.2243  -25.7034 H   0  0  0  0  0  0  0  0  0  0  0  0
   -0.2260   26.5784  -27.4699 H   0  0  0  0  0  0  0  0  0  0  0  0
    0.8831   25.4613  -28.3241 H   0  0  0  0  0  0  0  0  0  0  0  0
   -4.6303   20.1037  -31.7557 H   0  0  0  0  0  0  0  0  0  0  0  0
  1  2  1  0
  2  3  1  0
  3  4  2  0
  4  5  1  0
  5  6  2  0
  6  7  1  0
  7  8  2  0
  8  9  1  0
  9 10  1  0
  9 11  2  0
  8 12  1  0
 12 13  1  0
 13 14  2  0
 13 15  1  0
 15 16  2  0
 15 17  1  0
 17 18  1  0
 17 19  1  0
 19 20  1  0
 20 21  1  6
 20 22  1  0
 22 23  1  0
 23 24  1  0
 24 25  1  0
 12 26  1  0
 26 27  2  0
 27  3  1  0
 26  6  1  0
 25 20  1  0
  1 28  1  0
  1 29  1  0
  1 30  1  0
  2 31  1  0
  2 32  1  0
  4 33  1  0
  5 34  1  0
  7 35  1  0
 10 36  1  0
 18 37  1  0
 18 38  1  0
 18 39  1  0
 19 40  1  0
 19 41  1  0
 21 42  1  0
 22 43  1  0
 22 44  1  0
 23 45  1  0
 23 46  1  0
 25 47  1  0
 25 48  1  0
 27 49  1  0
M  CHG  2   2   1  10  -1
M  END
>  <UniqueID>  (40) 
40

>  <SMILES>  (40) 
C[NH2+]c1ccc2cc(C([NH-])=O)n(C(=O)C(=O)N(C)C[C@@]3(O)CCOC3)c2c1

>  <Energy>  (40) 
95.7732674613942

>  <Genealogy>  (40) 
C[NH2+]c1ccc2cc(C([NH-])=O)n(C(=O)C(=O)N(C)C[C@@]3(O)CCOC3)c2c1 (protonated)
C[NH2+]c1ccc2cc(C([NH-])=O)n(C(=O)C(=O)N(C)C[C@@]3(O)CCOC3)c2c1 (3D coordinates assigned)
C[NH2+]c1ccc2cc(C([NH-])=O)n(C(=O)C(=O)N(C)C[C@@]3(O)CCOC3)c2c1 (nonaromatic ring conformer: 95.7732674613942 kcal/mol)

>  <smiles>  (40) 
CNc1ccc2cc(C(N)=O)n(C(=O)C(=O)N(C)C[C@@]3(O)CCOC3)c2c1

>  <score_type>  (40) 
oracle

>  <origin>  (40) 
adg

>  <m_score__min__energy>  (40) 
-9.7100000000000009

>  <m_primary>  (40) 
energy

$$$$
41:0
     RDKit          3D

 48 49  0  0  0  0  0  0  0  0999 V2000
   -6.8060   17.2480  -33.9000 C   0  0  0  0  0  0  0  0  0  0  0  0
   -6.8490   18.3040  -33.3200 C   0  0  0  0  0  0  0  0  0  0  0  0
   -6.8980   19.5630  -32.6270 C   0  0  0  0  0  0  0  0  0  0  0  0
   -8.1490   20.1430  -32.3060 C   0  0  0  0  0  0  0  0  0  0  0  0
   -8.2090   21.3810  -31.6420 C   0  0  0  0  0  0  0  0  0  0  0  0
   -7.0080   22.0020  -31.3080 C   0  0  0  0  0  0  0  0  0  0  0  0
   -6.7760   23.2100  -30.6900 C   0  0  0  0  0  0  0  0  0  0  0  0
   -5.3880   23.3340  -30.6300 C   0  0  0  0  0  0  0  0  0  0  0  0
   -4.6900   24.4740  -30.0010 C   0  0  0  0  0  0  0  0  0  0  0  0
   -3.8330   25.3010  -30.7840 N   0  0  0  0  0  0  0  0  0  0  0  0
   -4.8560   24.7380  -28.7810 O   0  0  0  0  0  0  0  0  0  0  0  0
   -4.7890   22.2430  -31.1850 N   0  0  0  0  0  0  0  0  0  0  0  0
   -3.3830   22.0100  -31.3610 C   0  0  0  0  0  0  0  0  0  0  0  0
   -2.9060   21.9440  -32.5260 O   0  0  0  0  0  0  0  0  0  0  0  0
   -2.4980   21.8480  -30.1940 C   0  0  0  0  0  0  0  0  0  0  0  0
   -1.9410   20.7350  -29.9890 O   0  0  0  0  0  0  0  0  0  0  0  0
   -2.2770   22.9400  -29.2860 N   0  0  0  0  0  0  0  0  0  0  0  0
   -1.3480   22.8460  -28.1620 C   0  0  0  0  0  0  0  0  0  0  0  0
   -0.2640   23.9200  -28.2730 C   0  0  0  0  0  0  0  0  0  0  0  0
   -0.8620   25.2800  -28.1190 C   0  0  0  0  0  0  0  0  0  0  0  0
   -1.7170   25.6820  -28.9540 O   0  0  0  0  0  0  0  0  0  0  0  0
   -0.4920   26.0650  -27.0160 O   0  0  0  0  0  0  0  0  0  0  0  0
   -1.2050   26.1780  -25.7760 C   0  0  0  0  0  0  0  0  0  0  0  0
   -0.4600   25.3180  -24.7430 C   0  0  0  0  0  0  0  0  0  0  0  0
   -2.6420   25.6400  -25.9270 C   0  0  0  0  0  0  0  0  0  0  0  0
   -1.2220   27.6400  -25.2900 C   0  0  0  0  0  0  0  0  0  0  0  0
   -5.7930   21.4400  -31.5990 C   0  0  0  0  0  0  0  0  0  0  0  0
   -5.7010   20.2180  -32.2770 C   0  0  0  0  0  0  0  0  0  0  0  0
   -6.7668   16.2845  -34.4292 H   0  0  0  0  0  0  0  0  0  0  0  0
   -9.0791   19.6223  -32.5775 H   0  0  0  0  0  0  0  0  0  0  0  0
   -9.1751   21.8449  -31.3939 H   0  0  0  0  0  0  0  0  0  0  0  0
   -7.5259   23.9255  -30.3217 H   0  0  0  0  0  0  0  0  0  0  0  0
   -2.8010   25.3110  -30.6220 H   0  0  0  0  0  0  0  0  0  0  0  0
   -2.8180   23.8250  -29.4050 H   0  0  0  0  0  0  0  0  0  0  0  0
   -1.9016   22.9860  -27.2218 H   0  0  0  0  0  0  0  0  0  0  0  0
   -0.8705   21.8551  -28.1764 H   0  0  0  0  0  0  0  0  0  0  0  0
    0.4853   23.7618  -27.4834 H   0  0  0  0  0  0  0  0  0  0  0  0
    0.2099   23.8482  -29.2631 H   0  0  0  0  0  0  0  0  0  0  0  0
   -0.7387   25.6397  -23.7287 H   0  0  0  0  0  0  0  0  0  0  0  0
   -0.7329   24.2613  -24.8805 H   0  0  0  0  0  0  0  0  0  0  0  0
    0.6248   25.4374  -24.8805 H   0  0  0  0  0  0  0  0  0  0  0  0
   -3.0789   25.4764  -24.9308 H   0  0  0  0  0  0  0  0  0  0  0  0
   -3.2511   26.3710  -26.4790 H   0  0  0  0  0  0  0  0  0  0  0  0
   -2.6213   24.6887  -26.4790 H   0  0  0  0  0  0  0  0  0  0  0  0
   -1.2222   27.6608  -24.1902 H   0  0  0  0  0  0  0  0  0  0  0  0
   -0.3299   28.1619  -25.6664 H   0  0  0  0  0  0  0  0  0  0  0  0
   -2.1260   28.1410  -25.6664 H   0  0  0  0  0  0  0  0  0  0  0  0
   -4.7228   19.7825  -32.5288 H   0  0  0  0  0  0  0  0  0  0  0  0
  1  2  3  0
  2  3  1  0
  3  4  2  0
  4  5  1  0
  5  6  2  0
  6  7  1  0
  7  8  2  0
  8  9  1  0
  9 10  1  0
  9 11  2  0
  8 12  1  0
 12 13  1  0
 13 14  2  0
 13 15  1  0
 15 16  2  0
 15 17  1  0
 17 18  1  0
 18 19  1  0
 19 20  1  0
 20 21  2  0
 20 22  1  0
 22 23  1  0
 23 24  1  0
 23 25  1  0
 23 26  1  0
 12 27  1  0
 27 28  2  0
 28  3  1  0
 27  6  1  0
  1 29  1  0
  4 30  1  0
  5 31  1  0
  7 32  1  0
 10 33  1  0
 17 34  1  0
 18 35  1  0
 18 36  1  0
 19 37  1  0
 19 38  1  0
 24 39  1  0
 24 40  1  0
 24 41  1  0
 25 42  1  0
 25 43  1  0
 25 44  1  0
 26 45  1  0
 26 46  1  0
 26 47  1  0
 28 48  1  0
M  CHG  1  10  -1
M  END
>  <UniqueID>  (41) 
41

>  <SMILES>  (41) 
C#Cc1ccc2cc(C([NH-])=O)n(C(=O)C(=O)NCCC(=O)OC(C)(C)C)c2c1

>  <Energy>  (41) 
74.47612570172174

>  <Genealogy>  (41) 
C#Cc1ccc2cc(C([NH-])=O)n(C(=O)C(=O)NCCC(=O)OC(C)(C)C)c2c1 (protonated)
C#Cc1ccc2cc(C([NH-])=O)n(C(=O)C(=O)NCCC(=O)OC(C)(C)C)c2c1 (3D coordinates assigned)
C#Cc1ccc2cc(C([NH-])=O)n(C(=O)C(=O)NCCC(=O)OC(C)(C)C)c2c1 (optimized conformer: 74.47612570172174 kcal/mol)

>  <smiles>  (41) 
C#Cc1ccc2cc(C(N)=O)n(C(=O)C(=O)NCCC(=O)OC(C)(C)C)c2c1

>  <score_type>  (41) 
oracle

>  <origin>  (41) 
adg

>  <m_score__min__energy>  (41) 
-11.380000000000001

>  <m_primary>  (41) 
energy

$$$$
42:0
     RDKit          3D

 42 43  0  0  0  0  0  0  0  0999 V2000
   -7.0380   18.3440  -32.7650 C   0  0  0  0  0  0  0  0  0  0  0  0
   -7.2430   19.7550  -32.3010 C   0  0  0  0  0  0  0  0  0  0  0  0
   -8.5320   20.3410  -32.3560 C   0  0  0  0  0  0  0  0  0  0  0  0
   -8.7280   21.6780  -31.9710 C   0  0  0  0  0  0  0  0  0  0  0  0
   -7.6190   22.4020  -31.5410 C   0  0  0  0  0  0  0  0  0  0  0  0
   -7.5160   23.7170  -31.1460 C   0  0  0  0  0  0  0  0  0  0  0  0
   -6.1640   23.9120  -30.8550 C   0  0  0  0  0  0  0  0  0  0  0  0
   -5.5830   25.1800  -30.3540 C   0  0  0  0  0  0  0  0  0  0  0  0
   -4.2480   25.5620  -30.6910 N   0  0  0  0  0  0  0  0  0  0  0  0
   -6.2730   25.9470  -29.6300 O   0  0  0  0  0  0  0  0  0  0  0  0
   -5.4690   22.7580  -31.0520 N   0  0  0  0  0  0  0  0  0  0  0  0
   -4.0530   22.5610  -30.9250 C   0  0  0  0  0  0  0  0  0  0  0  0
   -3.2710   23.2900  -31.5900 O   0  0  0  0  0  0  0  0  0  0  0  0
   -3.5230   21.5020  -30.0380 C   0  0  0  0  0  0  0  0  0  0  0  0
   -3.2910   20.3630  -30.5260 O   0  0  0  0  0  0  0  0  0  0  0  0
   -3.2340   21.7420  -28.6430 N   0  0  0  0  0  0  0  0  0  0  0  0
   -3.0250   20.5920  -27.7520 C   0  0  0  0  0  0  0  0  0  0  0  0
   -1.5660   20.2600  -27.6630 C   0  0  0  0  0  0  0  0  0  0  0  0
   -1.1770   19.3770  -26.9170 O   0  0  0  0  0  0  0  0  0  0  0  0
   -3.3210   23.0920  -28.0690 C   0  0  0  0  0  0  0  0  0  0  0  0
   -1.9400   23.5820  -27.6190 C   0  0  0  0  0  0  0  0  0  0  0  0
   -1.4030   24.5930  -28.5810 C   0  0  0  0  0  0  0  0  0  0  0  0
   -0.1690   24.8400  -28.6190 O   0  0  0  0  0  0  0  0  0  0  0  0
   -2.2720   25.2990  -29.4040 O   0  0  0  0  0  0  0  0  0  0  0  0
   -6.3680   21.8470  -31.4800 C   0  0  0  0  0  0  0  0  0  0  0  0
   -6.1390   20.5250  -31.8760 C   0  0  0  0  0  0  0  0  0  0  0  0
   -6.9417   17.6814  -31.8923 H   0  0  0  0  0  0  0  0  0  0  0  0
   -7.8998   18.0286  -33.3716 H   0  0  0  0  0  0  0  0  0  0  0  0
   -6.1221   18.2869  -33.3716 H   0  0  0  0  0  0  0  0  0  0  0  0
   -9.3876   19.7433  -32.7035 H   0  0  0  0  0  0  0  0  0  0  0  0
   -9.7263   22.1384  -32.0081 H   0  0  0  0  0  0  0  0  0  0  0  0
   -8.3267   24.4571  -31.0747 H   0  0  0  0  0  0  0  0  0  0  0  0
   -3.6180   24.9310  -31.2310 H   0  0  0  0  0  0  0  0  0  0  0  0
   -3.8670   26.4760  -30.3570 H   0  0  0  0  0  0  0  0  0  0  0  0
   -3.4030   20.8372  -26.7485 H   0  0  0  0  0  0  0  0  0  0  0  0
   -3.5651   19.7234  -28.1568 H   0  0  0  0  0  0  0  0  0  0  0  0
   -0.8410   20.8167  -28.2749 H   0  0  0  0  0  0  0  0  0  0  0  0
   -3.7187   23.7817  -28.8280 H   0  0  0  0  0  0  0  0  0  0  0  0
   -3.9866   23.0609  -27.1938 H   0  0  0  0  0  0  0  0  0  0  0  0
   -2.0256   24.0403  -26.6227 H   0  0  0  0  0  0  0  0  0  0  0  0
   -1.2524   22.7241  -27.5844 H   0  0  0  0  0  0  0  0  0  0  0  0
   -5.1258   20.0971  -31.8567 H   0  0  0  0  0  0  0  0  0  0  0  0
  1  2  1  0
  2  3  2  0
  3  4  1  0
  4  5  2  0
  5  6  1  0
  6  7  2  0
  7  8  1  0
  8  9  1  0
  8 10  2  0
  7 11  1  0
 11 12  1  0
 12 13  2  0
 12 14  1  0
 14 15  2  0
 14 16  1  0
 16 17  1  0
 17 18  1  0
 18 19  2  0
 16 20  1  0
 20 21  1  0
 21 22  1  0
 22 23  2  0
 22 24  1  0
 11 25  1  0
 25 26  2  0
 26  2  1  0
 25  5  1  0
  1 27  1  0
  1 28  1  0
  1 29  1  0
  3 30  1  0
  4 31  1  0
  6 32  1  0
  9 33  1  0
  9 34  1  0
 17 35  1  0
 17 36  1  0
 18 37  1  0
 20 38  1  0
 20 39  1  0
 21 40  1  0
 21 41  1  0
 26 42  1  0
M  CHG  1  24  -1
M  END
>  <UniqueID>  (42) 
42

>  <SMILES>  (42) 
Cc1ccc2cc(C(N)=O)n(C(=O)C(=O)N(CC=O)CCC(=O)[O-])c2c1

>  <Energy>  (42) 
77.80237551390293

>  <Genealogy>  (42) 
Cc1ccc2cc(C(N)=O)n(C(=O)C(=O)N(CC=O)CCC(=O)[O-])c2c1 (protonated)
Cc1ccc2cc(C(N)=O)n(C(=O)C(=O)N(CC=O)CCC(=O)[O-])c2c1 (3D coordinates assigned)
Cc1ccc2cc(C(N)=O)n(C(=O)C(=O)N(CC=O)CCC(=O)[O-])c2c1 (optimized conformer: 77.80237551390293 kcal/mol)

>  <smiles>  (42) 
Cc1ccc2cc(C(N)=O)n(C(=O)C(=O)N(CC=O)CCC(=O)O)c2c1

>  <score_type>  (42) 
oracle

>  <origin>  (42) 
adg

>  <m_score__min__energy>  (42) 
-11

>  <m_primary>  (42) 
energy

$$$$
43:0
     RDKit          3D

 48 49  0  0  0  0  0  0  0  0999 V2000
   -0.8170   26.3860  -36.7790 C   0  0  0  0  0  0  0  0  0  0  0  0
    0.5160   26.2920  -36.6950 C   0  0  0  0  0  0  0  0  0  0  0  0
    1.2740   27.1520  -35.7230 C   0  0  0  0  0  0  0  0  0  0  0  0
    1.2640   25.3290  -37.5310 C   0  0  0  0  0  0  0  0  0  0  0  0
    1.1240   25.3260  -38.7850 O   0  0  0  0  0  0  0  0  0  0  0  0
    2.1400   24.4270  -36.9150 O   0  0  0  0  0  0  0  0  0  0  0  0
    1.8410   23.7240  -35.7080 C   0  0  0  0  0  0  0  0  0  0  0  0
    0.5820   22.8730  -35.8780 C   0  0  0  0  0  0  0  0  0  0  0  0
    0.2040   22.2690  -34.6070 N   0  0  0  0  0  0  0  0  0  0  0  0
   -0.4490   21.0020  -34.5150 C   0  0  0  0  0  0  0  0  0  0  0  0
    0.1190   19.9620  -34.9470 O   0  0  0  0  0  0  0  0  0  0  0  0
   -1.7210   20.9300  -33.9360 O   0  0  0  0  0  0  0  0  0  0  0  0
   -1.9820   21.3780  -32.6110 C   0  0  0  0  0  0  0  0  0  0  0  0
   -3.2550   22.0130  -32.5760 O   0  0  0  0  0  0  0  0  0  0  0  0
   -3.7490   22.6840  -31.4550 C   0  0  0  0  0  0  0  0  0  0  0  0
   -2.9530   23.1550  -30.5970 O   0  0  0  0  0  0  0  0  0  0  0  0
   -5.1680   22.8720  -31.3020 N   0  0  0  0  0  0  0  0  0  0  0  0
   -5.8260   24.0160  -30.9540 C   0  0  0  0  0  0  0  0  0  0  0  0
   -5.2040   25.2670  -30.4710 C   0  0  0  0  0  0  0  0  0  0  0  0
   -3.8750   25.6190  -30.8480 N   0  0  0  0  0  0  0  0  0  0  0  0
   -5.8350   26.0050  -29.6680 O   0  0  0  0  0  0  0  0  0  0  0  0
   -7.2040   23.8250  -31.0100 C   0  0  0  0  0  0  0  0  0  0  0  0
   -7.3770   22.5140  -31.3880 C   0  0  0  0  0  0  0  0  0  0  0  0
   -8.5480   21.7880  -31.5760 C   0  0  0  0  0  0  0  0  0  0  0  0
   -8.4340   20.4420  -31.9620 C   0  0  0  0  0  0  0  0  0  0  0  0
   -7.1610   19.8530  -32.1710 C   0  0  0  0  0  0  0  0  0  0  0  0
   -7.0740   18.3900  -32.5270 C   0  0  0  0  0  0  0  0  0  0  0  0
   -6.1340   17.7340  -31.7510 F   0  0  0  0  0  0  0  0  0  0  0  0
   -6.7170   18.2470  -33.8560 F   0  0  0  0  0  0  0  0  0  0  0  0
   -8.3080   17.8020  -32.3270 F   0  0  0  0  0  0  0  0  0  0  0  0
   -5.9930   20.6250  -31.9660 C   0  0  0  0  0  0  0  0  0  0  0  0
   -6.1340   21.9590  -31.5600 C   0  0  0  0  0  0  0  0  0  0  0  0
   -1.3690   25.7553  -37.4913 H   0  0  0  0  0  0  0  0  0  0  0  0
   -1.3601   27.0939  -36.1357 H   0  0  0  0  0  0  0  0  0  0  0  0
    1.0154   26.8586  -34.6949 H   0  0  0  0  0  0  0  0  0  0  0  0
    2.3544   27.0195  -35.8814 H   0  0  0  0  0  0  0  0  0  0  0  0
    1.0069   28.2073  -35.8814 H   0  0  0  0  0  0  0  0  0  0  0  0
    2.6874   23.0699  -35.4515 H   0  0  0  0  0  0  0  0  0  0  0  0
    1.6684   24.4558  -34.9051 H   0  0  0  0  0  0  0  0  0  0  0  0
   -0.2406   23.5095  -36.2361 H   0  0  0  0  0  0  0  0  0  0  0  0
    0.7857   22.0747  -36.6068 H   0  0  0  0  0  0  0  0  0  0  0  0
   -1.9802   20.5185  -31.9246 H   0  0  0  0  0  0  0  0  0  0  0  0
   -1.2038   22.0910  -32.3010 H   0  0  0  0  0  0  0  0  0  0  0  0
   -3.0540   25.2870  -30.2960 H   0  0  0  0  0  0  0  0  0  0  0  0
   -7.9885   24.5660  -30.7969 H   0  0  0  0  0  0  0  0  0  0  0  0
   -9.5335   22.2534  -31.4270 H   0  0  0  0  0  0  0  0  0  0  0  0
   -9.3424   19.8381  -32.1037 H   0  0  0  0  0  0  0  0  0  0  0  0
   -4.9958   20.1876  -32.1219 H   0  0  0  0  0  0  0  0  0  0  0  0
  1  2  2  0
  2  3  1  0
  2  4  1  0
  4  5  2  0
  4  6  1  0
  6  7  1  0
  7  8  1  0
  8  9  1  0
  9 10  1  0
 10 11  2  0
 10 12  1  0
 12 13  1  0
 13 14  1  0
 14 15  1  0
 15 16  2  0
 15 17  1  0
 17 18  1  0
 18 19  1  0
 19 20  1  0
 19 21  2  0
 18 22  2  0
 22 23  1  0
 23 24  2  0
 24 25  1  0
 25 26  2  0
 26 27  1  0
 27 28  1  0
 27 29  1  0
 27 30  1  0
 26 31  1  0
 31 32  2  0
 32 17  1  0
 32 23  1  0
  1 33  1  0
  1 34  1  0
  3 35  1  0
  3 36  1  0
  3 37  1  0
  7 38  1  0
  7 39  1  0
  8 40  1  0
  8 41  1  0
 13 42  1  0
 13 43  1  0
 20 44  1  0
 22 45  1  0
 24 46  1  0
 25 47  1  0
 31 48  1  0
M  CHG  2   9  -1  20  -1
M  END
>  <UniqueID>  (43) 
43

>  <SMILES>  (43) 
C=C(C)C(=O)OCC[N-]C(=O)OCOC(=O)n1c(C([NH-])=O)cc2ccc(C(F)(F)F)cc21

>  <Energy>  (43) 
76.38815128071509

>  <Genealogy>  (43) 
C=C(C)C(=O)OCC[N-]C(=O)OCOC(=O)n1c(C([NH-])=O)cc2ccc(C(F)(F)F)cc21 (protonated)
C=C(C)C(=O)OCC[N-]C(=O)OCOC(=O)n1c(C([NH-])=O)cc2ccc(C(F)(F)F)cc21 (3D coordinates assigned)
C=C(C)C(=O)OCC[N-]C(=O)OCOC(=O)n1c(C([NH-])=O)cc2ccc(C(F)(F)F)cc21 (optimized conformer: 76.38815128071509 kcal/mol)

>  <smiles>  (43) 
C=C(C)C(=O)OCCNC(=O)OCOC(=O)n1c(C(N)=O)cc2ccc(C(F)(F)F)cc21

>  <score_type>  (43) 
oracle

>  <origin>  (43) 
adg

>  <m_score__min__energy>  (43) 
-11.44

>  <m_primary>  (43) 
energy

$$$$
44:0
     RDKit          3D

 57 58  0  0  0  0  0  0  0  0999 V2000
   -6.0660   15.9360  -34.1750 C   0  0  0  0  0  0  0  0  0  0  0  0
   -5.3920   17.2320  -34.2740 N   0  0  0  0  0  0  0  0  0  0  0  0
   -6.0510   18.4370  -33.7490 C   0  0  0  0  0  0  0  0  0  0  0  0
   -6.0250   18.4520  -32.2150 C   0  0  0  0  0  0  0  0  0  0  0  0
   -5.9740   19.8300  -31.6900 N   0  0  0  0  0  0  0  0  0  0  0  0
   -7.2400   20.5100  -31.3800 C   0  0  0  0  0  0  0  0  0  0  0  0
   -4.7110   20.5230  -31.4820 C   0  0  0  0  0  0  0  0  0  0  0  0
   -3.5390   20.1130  -32.1810 C   0  0  0  0  0  0  0  0  0  0  0  0
   -2.3080   20.7510  -31.9710 C   0  0  0  0  0  0  0  0  0  0  0  0
   -2.2620   21.8030  -31.0660 C   0  0  0  0  0  0  0  0  0  0  0  0
   -1.1970   22.5660  -30.6510 C   0  0  0  0  0  0  0  0  0  0  0  0
   -1.7210   23.4520  -29.7130 C   0  0  0  0  0  0  0  0  0  0  0  0
   -0.9270   24.5160  -29.0660 C   0  0  0  0  0  0  0  0  0  0  0  0
   -1.4330   25.8430  -28.9550 N   0  0  0  0  0  0  0  0  0  0  0  0
    0.2360   24.2620  -28.6540 O   0  0  0  0  0  0  0  0  0  0  0  0
   -3.0570   23.2430  -29.5520 N   0  0  0  0  0  0  0  0  0  0  0  0
   -3.9240   23.8570  -28.5860 C   0  0  0  0  0  0  0  0  0  0  0  0
   -3.4330   24.4170  -27.5700 O   0  0  0  0  0  0  0  0  0  0  0  0
   -5.3120   23.8400  -28.7990 O   0  0  0  0  0  0  0  0  0  0  0  0
   -6.0320   24.5490  -29.8190 C   0  0  0  0  0  0  0  0  0  0  0  0
   -7.2100   23.7070  -30.3430 C   0  0  0  0  0  0  0  0  0  0  0  0
   -6.5270   25.9020  -29.2680 C   0  0  0  0  0  0  0  0  0  0  0  0
   -5.0860   24.8050  -30.9680 C   0  0  0  0  0  0  0  0  0  0  0  0
   -5.2840   24.2680  -32.0930 O   0  0  0  0  0  0  0  0  0  0  0  0
   -4.0060   25.6660  -30.8110 O   0  0  0  0  0  0  0  0  0  0  0  0
   -3.3740   22.2310  -30.3910 C   0  0  0  0  0  0  0  0  0  0  0  0
   -4.6130   21.6070  -30.5690 C   0  0  0  0  0  0  0  0  0  0  0  0
   -4.1300   17.3090  -34.9630 C   0  0  0  0  0  0  0  0  0  0  0  0
   -3.8430   16.4660  -35.8570 O   0  0  0  0  0  0  0  0  0  0  0  0
   -3.2290   18.3350  -34.6400 O   0  0  0  0  0  0  0  0  0  0  0  0
   -1.9110   18.1410  -34.2030 C   0  0  0  0  0  0  0  0  0  0  0  0
   -1.0200   19.0050  -34.4210 O   0  0  0  0  0  0  0  0  0  0  0  0
   -1.5420   16.8560  -33.5320 C   0  0  0  0  0  0  0  0  0  0  0  0
   -2.5700   16.4360  -32.7090 F   0  0  0  0  0  0  0  0  0  0  0  0
   -1.3080   15.8900  -34.4930 F   0  0  0  0  0  0  0  0  0  0  0  0
   -0.4000   17.0320  -32.7710 F   0  0  0  0  0  0  0  0  0  0  0  0
   -6.2024   15.6737  -33.1155 H   0  0  0  0  0  0  0  0  0  0  0  0
   -7.0478   15.9947  -34.6676 H   0  0  0  0  0  0  0  0  0  0  0  0
   -5.4541   15.1659  -34.6676 H   0  0  0  0  0  0  0  0  0  0  0  0
   -5.5270   19.3274  -34.1266 H   0  0  0  0  0  0  0  0  0  0  0  0
   -7.0993   18.4374  -34.0824 H   0  0  0  0  0  0  0  0  0  0  0  0
   -6.9325   17.9585  -31.8370 H   0  0  0  0  0  0  0  0  0  0  0  0
   -5.1224   17.9204  -31.8792 H   0  0  0  0  0  0  0  0  0  0  0  0
   -7.3631   20.5761  -30.2889 H   0  0  0  0  0  0  0  0  0  0  0  0
   -7.2271   21.5226  -31.8096 H   0  0  0  0  0  0  0  0  0  0  0  0
   -8.0771   19.9401  -31.8096 H   0  0  0  0  0  0  0  0  0  0  0  0
   -3.6009   19.2812  -32.8981 H   0  0  0  0  0  0  0  0  0  0  0  0
   -1.4043   20.4272  -32.5081 H   0  0  0  0  0  0  0  0  0  0  0  0
   -0.1525   22.4925  -30.9881 H   0  0  0  0  0  0  0  0  0  0  0  0
   -2.4600   26.0320  -28.9780 H   0  0  0  0  0  0  0  0  0  0  0  0
   -7.7776   23.3013  -29.4926 H   0  0  0  0  0  0  0  0  0  0  0  0
   -7.8692   24.3398  -30.9554 H   0  0  0  0  0  0  0  0  0  0  0  0
   -6.8247   22.8784  -30.9554 H   0  0  0  0  0  0  0  0  0  0  0  0
   -6.5174   25.8757  -28.1684 H   0  0  0  0  0  0  0  0  0  0  0  0
   -5.8648   26.7062  -29.6214 H   0  0  0  0  0  0  0  0  0  0  0  0
   -7.5518   26.0890  -29.6214 H   0  0  0  0  0  0  0  0  0  0  0  0
   -5.4970   21.9499  -30.0113 H   0  0  0  0  0  0  0  0  0  0  0  0
  1  2  1  0
  2  3  1  0
  3  4  1  0
  4  5  1  0
  5  6  1  0
  5  7  1  0
  7  8  2  0
  8  9  1  0
  9 10  2  0
 10 11  1  0
 11 12  2  0
 12 13  1  0
 13 14  1  0
 13 15  2  0
 12 16  1  0
 16 17  1  0
 17 18  2  0
 17 19  1  0
 19 20  1  0
 20 21  1  0
 20 22  1  0
 20 23  1  0
 23 24  2  0
 23 25  1  0
 16 26  1  0
 26 27  2  0
  2 28  1  0
 28 29  2  0
 28 30  1  0
 30 31  1  0
 31 32  2  0
 31 33  1  0
 33 34  1  0
 33 35  1  0
 33 36  1  0
 27  7  1  0
 26 10  1  0
  1 37  1  0
  1 38  1  0
  1 39  1  0
  3 40  1  0
  3 41  1  0
  4 42  1  0
  4 43  1  0
  6 44  1  0
  6 45  1  0
  6 46  1  0
  8 47  1  0
  9 48  1  0
 11 49  1  0
 14 50  1  0
 21 51  1  0
 21 52  1  0
 21 53  1  0
 22 54  1  0
 22 55  1  0
 22 56  1  0
 27 57  1  0
M  CHG  2  14  -1  25  -1
M  END
>  <UniqueID>  (44) 
44

>  <SMILES>  (44) 
CN(CCN(C)c1ccc2cc(C([NH-])=O)n(C(=O)OC(C)(C)C(=O)[O-])c2c1)C(=O)OC(=O)C(F)(F)F

>  <Energy>  (44) 
89.23294728285427

>  <Genealogy>  (44) 
CN(CCN(C)c1ccc2cc(C([NH-])=O)n(C(=O)OC(C)(C)C(=O)[O-])c2c1)C(=O)OC(=O)C(F)(F)F (protonated)
CN(CCN(C)c1ccc2cc(C([NH-])=O)n(C(=O)OC(C)(C)C(=O)[O-])c2c1)C(=O)OC(=O)C(F)(F)F (3D coordinates assigned)
CN(CCN(C)c1ccc2cc(C([NH-])=O)n(C(=O)OC(C)(C)C(=O)[O-])c2c1)C(=O)OC(=O)C(F)(F)F (optimized conformer: 89.23294728285427 kcal/mol)

>  <smiles>  (44) 
CN(CCN(C)c1ccc2cc(C(N)=O)n(C(=O)OC(C)(C)C(=O)O)c2c1)C(=O)OC(=O)C(F)(F)F

>  <score_type>  (44) 
oracle

>  <origin>  (44) 
adg

>  <m_score__min__energy>  (44) 
-12.73

>  <m_primary>  (44) 
energy

$$$$
45:0
     RDKit          3D

 41 42  0  0  0  0  0  0  0  0999 V2000
   -2.5960   22.3720  -27.4200 C   0  0  0  0  0  0  0  0  0  0  0  0
   -2.7290   23.7890  -27.7790 N   0  0  0  0  0  0  0  0  0  0  0  0
   -3.9150   24.5430  -27.3620 C   0  0  0  0  0  0  0  0  0  0  0  0
   -1.7060   24.4600  -28.5480 C   0  0  0  0  0  0  0  0  0  0  0  0
   -1.8590   25.6700  -28.8710 O   0  0  0  0  0  0  0  0  0  0  0  0
   -0.4410   23.7630  -28.9680 C   0  0  0  0  0  0  0  0  0  0  0  0
   -0.7320   22.4800  -29.5180 O   0  0  0  0  0  0  0  0  0  0  0  0
   -1.5640   22.2870  -30.6240 C   0  0  0  0  0  0  0  0  0  0  0  0
   -1.1180   21.7340  -31.6690 O   0  0  0  0  0  0  0  0  0  0  0  0
   -2.8970   22.7020  -30.5400 O   0  0  0  0  0  0  0  0  0  0  0  0
   -3.8480   22.5730  -31.5610 C   0  0  0  0  0  0  0  0  0  0  0  0
   -3.4950   22.3320  -32.7470 O   0  0  0  0  0  0  0  0  0  0  0  0
   -5.2420   22.7360  -31.2510 N   0  0  0  0  0  0  0  0  0  0  0  0
   -5.8770   23.8780  -30.8620 C   0  0  0  0  0  0  0  0  0  0  0  0
   -5.2270   25.1580  -30.5090 C   0  0  0  0  0  0  0  0  0  0  0  0
   -3.8720   25.4150  -30.8660 N   0  0  0  0  0  0  0  0  0  0  0  0
   -5.8630   26.0170  -29.8420 O   0  0  0  0  0  0  0  0  0  0  0  0
   -7.2500   23.6630  -30.7590 C   0  0  0  0  0  0  0  0  0  0  0  0
   -7.4360   22.3400  -31.0910 C   0  0  0  0  0  0  0  0  0  0  0  0
   -8.6090   21.5980  -31.1770 C   0  0  0  0  0  0  0  0  0  0  0  0
   -8.5120   20.2570  -31.5850 C   0  0  0  0  0  0  0  0  0  0  0  0
   -7.2520   19.6800  -31.8870 C   0  0  0  0  0  0  0  0  0  0  0  0
   -7.1700   18.2590  -32.3840 C   0  0  0  0  0  0  0  0  0  0  0  0
   -6.8430   18.2300  -33.7290 F   0  0  0  0  0  0  0  0  0  0  0  0
   -6.1980   17.5830  -31.6700 F   0  0  0  0  0  0  0  0  0  0  0  0
   -8.3820   17.6120  -32.2200 F   0  0  0  0  0  0  0  0  0  0  0  0
   -6.0860   20.4760  -31.8110 C   0  0  0  0  0  0  0  0  0  0  0  0
   -6.2100   21.8030  -31.3830 C   0  0  0  0  0  0  0  0  0  0  0  0
   -2.5865   22.2706  -26.3247 H   0  0  0  0  0  0  0  0  0  0  0  0
   -3.4451   21.8078  -27.8331 H   0  0  0  0  0  0  0  0  0  0  0  0
   -1.6567   21.9757  -27.8331 H   0  0  0  0  0  0  0  0  0  0  0  0
   -3.9627   24.5733  -26.2635 H   0  0  0  0  0  0  0  0  0  0  0  0
   -3.8543   25.5687  -27.7548 H   0  0  0  0  0  0  0  0  0  0  0  0
   -4.8180   24.0528  -27.7548 H   0  0  0  0  0  0  0  0  0  0  0  0
    0.0729   24.3727  -29.7257 H   0  0  0  0  0  0  0  0  0  0  0  0
    0.2010   23.6320  -28.0845 H   0  0  0  0  0  0  0  0  0  0  0  0
   -3.0910   24.8660  -30.4440 H   0  0  0  0  0  0  0  0  0  0  0  0
   -8.0206   24.3942  -30.4734 H   0  0  0  0  0  0  0  0  0  0  0  0
   -9.5830   22.0472  -30.9331 H   0  0  0  0  0  0  0  0  0  0  0  0
   -9.4237   19.6476  -31.6712 H   0  0  0  0  0  0  0  0  0  0  0  0
   -5.1036   20.0619  -32.0821 H   0  0  0  0  0  0  0  0  0  0  0  0
  1  2  1  0
  2  3  1  0
  2  4  1  0
  4  5  2  0
  4  6  1  0
  6  7  1  0
  7  8  1  0
  8  9  2  0
  8 10  1  0
 10 11  1  0
 11 12  2  0
 11 13  1  0
 13 14  1  0
 14 15  1  0
 15 16  1  0
 15 17  2  0
 14 18  2  0
 18 19  1  0
 19 20  2  0
 20 21  1  0
 21 22  2  0
 22 23  1  0
 23 24  1  0
 23 25  1  0
 23 26  1  0
 22 27  1  0
 27 28  2  0
 28 13  1  0
 28 19  1  0
  1 29  1  0
  1 30  1  0
  1 31  1  0
  3 32  1  0
  3 33  1  0
  3 34  1  0
  6 35  1  0
  6 36  1  0
 16 37  1  0
 18 38  1  0
 20 39  1  0
 21 40  1  0
 27 41  1  0
M  CHG  1  16  -1
M  END
>  <UniqueID>  (45) 
45

>  <SMILES>  (45) 
CN(C)C(=O)COC(=O)OC(=O)n1c(C([NH-])=O)cc2ccc(C(F)(F)F)cc21

>  <Energy>  (45) 
77.17311216048203

>  <Genealogy>  (45) 
CN(C)C(=O)COC(=O)OC(=O)n1c(C([NH-])=O)cc2ccc(C(F)(F)F)cc21 (protonated)
CN(C)C(=O)COC(=O)OC(=O)n1c(C([NH-])=O)cc2ccc(C(F)(F)F)cc21 (3D coordinates assigned)
CN(C)C(=O)COC(=O)OC(=O)n1c(C([NH-])=O)cc2ccc(C(F)(F)F)cc21 (optimized conformer: 77.17311216048203 kcal/mol)

>  <smiles>  (45) 
CN(C)C(=O)COC(=O)OC(=O)n1c(C(N)=O)cc2ccc(C(F)(F)F)cc21

>  <score_type>  (45) 
oracle

>  <origin>  (45) 
adg

>  <m_score__min__energy>  (45) 
-10.029999999999999

>  <m_primary>  (45) 
energy

$$$$
46:0
     RDKit          3D

 42 43  0  0  0  0  0  0  0  0999 V2000
    0.9310   25.2830  -26.8070 C   0  0  0  0  0  0  0  0  0  0  0  0
    0.5620   24.9330  -28.1350 O   0  0  0  0  0  0  0  0  0  0  0  0
   -0.7700   24.7440  -28.5230 C   0  0  0  0  0  0  0  0  0  0  0  0
   -1.4420   25.7150  -28.9700 O   0  0  0  0  0  0  0  0  0  0  0  0
   -1.3730   23.3560  -28.4920 C   0  0  0  0  0  0  0  0  0  0  0  0
   -1.5540   22.8680  -27.0420 C   0  0  0  0  0  0  0  0  0  0  0  0
   -0.4280   22.4020  -29.2330 C   0  0  0  0  0  0  0  0  0  0  0  0
   -2.6690   23.3420  -29.1800 N   0  0  0  0  0  0  0  0  0  0  0  0
   -3.1830   22.2640  -29.9730 C   0  0  0  0  0  0  0  0  0  0  0  0
   -3.0460   21.0690  -29.5970 O   0  0  0  0  0  0  0  0  0  0  0  0
   -3.9060   22.5610  -31.2180 C   0  0  0  0  0  0  0  0  0  0  0  0
   -3.2830   22.5710  -32.3130 O   0  0  0  0  0  0  0  0  0  0  0  0
   -5.3100   22.8550  -31.1980 N   0  0  0  0  0  0  0  0  0  0  0  0
   -5.9160   24.0110  -30.8070 C   0  0  0  0  0  0  0  0  0  0  0  0
   -5.2320   25.2770  -30.4670 C   0  0  0  0  0  0  0  0  0  0  0  0
   -3.8760   25.5040  -30.8410 N   0  0  0  0  0  0  0  0  0  0  0  0
   -5.8670   26.1860  -29.8670 O   0  0  0  0  0  0  0  0  0  0  0  0
   -7.3040   23.8710  -30.8440 C   0  0  0  0  0  0  0  0  0  0  0  0
   -7.5280   22.5810  -31.2710 C   0  0  0  0  0  0  0  0  0  0  0  0
   -8.7240   21.8960  -31.4680 C   0  0  0  0  0  0  0  0  0  0  0  0
   -8.6560   20.5540  -31.8790 C   0  0  0  0  0  0  0  0  0  0  0  0
   -7.4030   19.9270  -32.1020 C   0  0  0  0  0  0  0  0  0  0  0  0
   -7.3410   18.4700  -32.4840 C   0  0  0  0  0  0  0  0  0  0  0  0
   -8.5980   17.9110  -32.3470 F   0  0  0  0  0  0  0  0  0  0  0  0
   -6.9210   18.3260  -33.7960 F   0  0  0  0  0  0  0  0  0  0  0  0
   -6.4530   17.7870  -31.6670 F   0  0  0  0  0  0  0  0  0  0  0  0
   -6.2100   20.6500  -31.8710 C   0  0  0  0  0  0  0  0  0  0  0  0
   -6.3100   21.9890  -31.4760 C   0  0  0  0  0  0  0  0  0  0  0  0
    0.3235   24.7067  -26.0937 H   0  0  0  0  0  0  0  0  0  0  0  0
    1.9956   25.0549  -26.6500 H   0  0  0  0  0  0  0  0  0  0  0  0
    0.7594   26.3581  -26.6500 H   0  0  0  0  0  0  0  0  0  0  0  0
   -1.2576   23.6670  -26.3465 H   0  0  0  0  0  0  0  0  0  0  0  0
   -2.6089   22.6066  -26.8721 H   0  0  0  0  0  0  0  0  0  0  0  0
   -0.9247   21.9819  -26.8721 H   0  0  0  0  0  0  0  0  0  0  0  0
    0.1505   21.8179  -28.5021 H   0  0  0  0  0  0  0  0  0  0  0  0
   -1.0165   21.7198  -29.8642 H   0  0  0  0  0  0  0  0  0  0  0  0
    0.2597   22.9840  -29.8642 H   0  0  0  0  0  0  0  0  0  0  0  0
   -3.0940   25.2480  -30.1990 H   0  0  0  0  0  0  0  0  0  0  0  0
   -8.0583   24.6293  -30.5869 H   0  0  0  0  0  0  0  0  0  0  0  0
   -9.6932   22.3906  -31.3067 H   0  0  0  0  0  0  0  0  0  0  0  0
   -9.5843   19.9834  -32.0295 H   0  0  0  0  0  0  0  0  0  0  0  0
   -5.2276   20.1719  -31.9986 H   0  0  0  0  0  0  0  0  0  0  0  0
  1  2  1  0
  2  3  1  0
  3  4  2  0
  3  5  1  0
  5  6  1  0
  5  7  1  0
  5  8  1  0
  8  9  1  0
  9 10  2  0
  9 11  1  0
 11 12  2  0
 11 13  1  0
 13 14  1  0
 14 15  1  0
 15 16  1  0
 15 17  2  0
 14 18  2  0
 18 19  1  0
 19 20  2  0
 20 21  1  0
 21 22  2  0
 22 23  1  0
 23 24  1  0
 23 25  1  0
 23 26  1  0
 22 27  1  0
 27 28  2  0
 28 13  1  0
 28 19  1  0
  1 29  1  0
  1 30  1  0
  1 31  1  0
  6 32  1  0
  6 33  1  0
  6 34  1  0
  7 35  1  0
  7 36  1  0
  7 37  1  0
 16 38  1  0
 18 39  1  0
 20 40  1  0
 21 41  1  0
 27 42  1  0
M  CHG  2   8  -1  16  -1
M  END
>  <UniqueID>  (46) 
46

>  <SMILES>  (46) 
COC(=O)C(C)(C)[N-]C(=O)C(=O)n1c(C([NH-])=O)cc2ccc(C(F)(F)F)cc21

>  <Energy>  (46) 
75.43626632064665

>  <Genealogy>  (46) 
COC(=O)C(C)(C)[N-]C(=O)C(=O)n1c(C([NH-])=O)cc2ccc(C(F)(F)F)cc21 (protonated)
COC(=O)C(C)(C)[N-]C(=O)C(=O)n1c(C([NH-])=O)cc2ccc(C(F)(F)F)cc21 (3D coordinates assigned)
COC(=O)C(C)(C)[N-]C(=O)C(=O)n1c(C([NH-])=O)cc2ccc(C(F)(F)F)cc21 (optimized conformer: 75.43626632064665 kcal/mol)

>  <smiles>  (46) 
COC(=O)C(C)(C)NC(=O)C(=O)n1c(C(N)=O)cc2ccc(C(F)(F)F)cc21

>  <score_type>  (46) 
oracle

>  <origin>  (46) 
adg

>  <m_score__min__energy>  (46) 
-11.52

>  <m_primary>  (46) 
energy

$$$$
47:0
     RDKit          3D

 51 53  0  0  0  0  0  0  0  0999 V2000
   -2.4760   25.1900  -27.2570 C   0  0  0  0  0  0  0  0  0  0  0  0
   -1.2280   24.9450  -28.1270 C   0  0  0  0  0  0  0  0  0  0  0  0
    0.0400   25.1300  -27.2700 C   0  0  0  0  0  0  0  0  0  0  0  0
   -1.2160   25.8520  -29.2030 O   0  0  0  0  0  0  0  0  0  0  0  0
   -1.2890   23.5120  -28.7000 C   0  0  0  0  0  0  0  0  0  0  0  0
   -1.3800   23.5240  -30.1270 O   0  0  0  0  0  0  0  0  0  0  0  0
   -2.1730   22.6390  -30.8680 C   0  0  0  0  0  0  0  0  0  0  0  0
   -1.8600   22.3290  -32.0500 O   0  0  0  0  0  0  0  0  0  0  0  0
   -3.3650   22.0460  -30.2470 C   0  0  0  0  0  0  0  0  0  0  0  0
   -3.2320   21.2660  -29.2660 O   0  0  0  0  0  0  0  0  0  0  0  0
   -4.6740   22.2920  -30.7830 N   0  0  0  0  0  0  0  0  0  0  0  0
   -5.3750   23.4600  -30.7870 C   0  0  0  0  0  0  0  0  0  0  0  0
   -4.9820   24.7050  -30.0960 C   0  0  0  0  0  0  0  0  0  0  0  0
   -3.8580   25.4620  -30.5360 N   0  0  0  0  0  0  0  0  0  0  0  0
   -5.6240   25.0870  -29.0810 O   0  0  0  0  0  0  0  0  0  0  0  0
   -6.5740   23.3050  -31.4830 C   0  0  0  0  0  0  0  0  0  0  0  0
   -6.5860   21.9920  -31.8980 C   0  0  0  0  0  0  0  0  0  0  0  0
   -7.5370   21.2920  -32.6340 C   0  0  0  0  0  0  0  0  0  0  0  0
   -7.2770   19.9420  -32.9320 C   0  0  0  0  0  0  0  0  0  0  0  0
   -6.0790   19.3210  -32.4930 C   0  0  0  0  0  0  0  0  0  0  0  0
   -5.8250   17.9420  -32.8160 N   0  0  0  0  0  0  0  0  0  0  0  0
   -6.0660   16.8990  -31.8070 C   0  0  0  0  0  0  0  0  0  0  0  0
   -5.0100   15.7960  -31.9270 C   0  0  0  0  0  0  0  0  0  0  0  0
   -4.9830   15.2130  -33.3420 C   0  0  0  0  0  0  0  0  0  0  0  0
   -4.8500   16.3130  -34.3560 C   0  0  0  0  0  0  0  0  0  0  0  0
   -4.1260   16.1660  -35.3280 O   0  0  0  0  0  0  0  0  0  0  0  0
   -5.6990   17.5480  -34.2270 C   0  0  0  0  0  0  0  0  0  0  0  0
   -5.1370   20.0680  -31.7490 C   0  0  0  0  0  0  0  0  0  0  0  0
   -5.4290   21.4040  -31.4600 C   0  0  0  0  0  0  0  0  0  0  0  0
   -2.1984   25.1355  -26.1940 H   0  0  0  0  0  0  0  0  0  0  0  0
   -2.8872   26.1860  -27.4780 H   0  0  0  0  0  0  0  0  0  0  0  0
   -3.2333   24.4234  -27.4780 H   0  0  0  0  0  0  0  0  0  0  0  0
   -0.2289   25.0908  -26.2041 H   0  0  0  0  0  0  0  0  0  0  0  0
    0.7565   24.3269  -27.4972 H   0  0  0  0  0  0  0  0  0  0  0  0
    0.4972   26.1044  -27.4972 H   0  0  0  0  0  0  0  0  0  0  0  0
   -2.0000   25.6530  -29.7800 H   0  0  0  0  0  0  0  0  0  0  0  0
   -0.3792   22.9692  -28.4040 H   0  0  0  0  0  0  0  0  0  0  0  0
   -2.1864   23.0172  -28.3001 H   0  0  0  0  0  0  0  0  0  0  0  0
   -2.8870   25.1030  -30.4100 H   0  0  0  0  0  0  0  0  0  0  0  0
   -7.3452   24.0686  -31.6621 H   0  0  0  0  0  0  0  0  0  0  0  0
   -8.4634   21.7791  -32.9723 H   0  0  0  0  0  0  0  0  0  0  0  0
   -8.0101   19.3616  -33.5114 H   0  0  0  0  0  0  0  0  0  0  0  0
   -6.0135   17.3452  -30.8029 H   0  0  0  0  0  0  0  0  0  0  0  0
   -7.0623   16.4627  -31.9713 H   0  0  0  0  0  0  0  0  0  0  0  0
   -4.0214   16.2177  -31.6929 H   0  0  0  0  0  0  0  0  0  0  0  0
   -5.2629   14.9909  -31.2214 H   0  0  0  0  0  0  0  0  0  0  0  0
   -4.1279   14.5275  -33.4359 H   0  0  0  0  0  0  0  0  0  0  0  0
   -5.9224   14.6703  -33.5236 H   0  0  0  0  0  0  0  0  0  0  0  0
   -5.2322   18.3686  -34.7916 H   0  0  0  0  0  0  0  0  0  0  0  0
   -6.7010   17.3339  -34.6271 H   0  0  0  0  0  0  0  0  0  0  0  0
   -4.1978   19.6093  -31.4062 H   0  0  0  0  0  0  0  0  0  0  0  0
  1  2  1  0
  2  3  1  0
  2  4  1  0
  2  5  1  0
  5  6  1  0
  6  7  1  0
  7  8  2  0
  7  9  1  0
  9 10  2  0
  9 11  1  0
 11 12  1  0
 12 13  1  0
 13 14  1  0
 13 15  2  0
 12 16  2  0
 16 17  1  0
 17 18  2  0
 18 19  1  0
 19 20  2  0
 20 21  1  0
 21 22  1  0
 22 23  1  0
 23 24  1  0
 24 25  1  0
 25 26  2  0
 25 27  1  0
 20 28  1  0
 28 29  2  0
 29 11  1  0
 29 17  1  0
 27 21  1  0
  1 30  1  0
  1 31  1  0
  1 32  1  0
  3 33  1  0
  3 34  1  0
  3 35  1  0
  4 36  1  0
  5 37  1  0
  5 38  1  0
 14 39  1  0
 16 40  1  0
 18 41  1  0
 19 42  1  0
 22 43  1  0
 22 44  1  0
 23 45  1  0
 23 46  1  0
 24 47  1  0
 24 48  1  0
 27 49  1  0
 27 50  1  0
 28 51  1  0
M  CHG  1  14  -1
M  END
>  <UniqueID>  (47) 
47

>  <SMILES>  (47) 
CC(C)(O)COC(=O)C(=O)n1c(C([NH-])=O)cc2ccc(N3CCCC(=O)C3)cc21

>  <Energy>  (47) 
89.61039799588909

>  <Genealogy>  (47) 
CC(C)(O)COC(=O)C(=O)n1c(C([NH-])=O)cc2ccc(N3CCCC(=O)C3)cc21 (protonated)
CC(C)(O)COC(=O)C(=O)n1c(C([NH-])=O)cc2ccc(N3CCCC(=O)C3)cc21 (3D coordinates assigned)
CC(C)(O)COC(=O)C(=O)n1c(C([NH-])=O)cc2ccc(N3CCCC(=O)C3)cc21 (nonaromatic ring conformer: 89.61039799588909 kcal/mol)

>  <smiles>  (47) 
CC(C)(O)COC(=O)C(=O)n1c(C(N)=O)cc2ccc(N3CCCC(=O)C3)cc21

>  <score_type>  (47) 
oracle

>  <origin>  (47) 
adg

>  <m_score__min__energy>  (47) 
-12.199999999999999

>  <m_primary>  (47) 
energy

$$$$
48:0
     RDKit          3D

 46 48  0  0  0  0  0  0  0  0999 V2000
   -2.6360   20.8490  -30.1100 C   0  0  0  0  0  0  0  0  0  0  0  0
   -3.5180   22.0080  -29.9140 N   0  0  1  0  0  0  0  0  0  0  0  0
   -2.8130   23.0780  -29.2510 C   0  0  0  0  0  0  0  0  0  0  0  0
   -3.3380   23.6810  -28.2710 O   0  0  0  0  0  0  0  0  0  0  0  0
   -1.5500   23.4630  -29.7190 O   0  0  0  0  0  0  0  0  0  0  0  0
   -0.4810   23.8690  -28.8690 C   0  0  0  0  0  0  0  0  0  0  0  0
   -0.7370   25.2660  -28.2990 C   0  0  0  0  0  0  0  0  0  0  0  0
   -1.2300   26.1290  -29.2870 O   0  0  0  0  0  0  0  0  0  0  0  0
   -4.0540   22.4420  -31.1840 C   0  0  0  0  0  0  0  0  0  0  0  0
   -3.3820   22.3070  -32.2450 O   0  0  0  0  0  0  0  0  0  0  0  0
   -5.4140   22.8930  -31.2730 N   0  0  0  0  0  0  0  0  0  0  0  0
   -5.9120   24.1230  -30.9700 C   0  0  0  0  0  0  0  0  0  0  0  0
   -5.1110   25.3100  -30.6130 C   0  0  0  0  0  0  0  0  0  0  0  0
   -3.6920   25.2820  -30.7610 N   0  0  0  0  0  0  0  0  0  0  0  0
   -5.6630   26.3410  -30.1500 O   0  0  0  0  0  0  0  0  0  0  0  0
   -7.2990   24.1330  -31.1060 C   0  0  0  0  0  0  0  0  0  0  0  0
   -7.6350   22.8590  -31.5090 C   0  0  0  0  0  0  0  0  0  0  0  0
   -8.8790   22.3020  -31.7850 C   0  0  0  0  0  0  0  0  0  0  0  0
   -8.9270   20.9500  -32.1610 C   0  0  0  0  0  0  0  0  0  0  0  0
   -7.7360   20.1760  -32.2510 C   0  0  0  0  0  0  0  0  0  0  0  0
   -7.7590   18.7100  -32.6460 C   0  0  0  0  0  0  0  0  0  0  0  0
   -7.1530   17.7590  -31.6250 C   0  0  0  0  0  0  0  0  0  0  0  0
   -6.0600   17.3710  -32.5170 N   0  0  0  0  0  0  0  0  0  0  0  0
   -6.6080   18.2670  -33.5370 C   0  0  0  0  0  0  0  0  0  0  0  0
   -6.4930   20.7820  -31.9630 C   0  0  0  0  0  0  0  0  0  0  0  0
   -6.4780   22.1330  -31.6030 C   0  0  0  0  0  0  0  0  0  0  0  0
   -2.3322   20.4498  -29.1311 H   0  0  0  0  0  0  0  0  0  0  0  0
   -3.1725   20.0710  -30.6728 H   0  0  0  0  0  0  0  0  0  0  0  0
   -1.7431   21.1588  -30.6728 H   0  0  0  0  0  0  0  0  0  0  0  0
   -4.3100   21.7050  -29.2990 H   0  0  0  0  0  0  0  0  0  0  0  0
   -0.3888   23.1528  -28.0392 H   0  0  0  0  0  0  0  0  0  0  0  0
    0.4469   23.8948  -29.4592 H   0  0  0  0  0  0  0  0  0  0  0  0
   -1.4734   25.1930  -27.4851 H   0  0  0  0  0  0  0  0  0  0  0  0
    0.2142   25.6708  -27.9230 H   0  0  0  0  0  0  0  0  0  0  0  0
   -1.9650   25.6440  -29.7460 H   0  0  0  0  0  0  0  0  0  0  0  0
   -3.0710   25.1190  -29.9380 H   0  0  0  0  0  0  0  0  0  0  0  0
   -7.9805   24.9782  -30.9292 H   0  0  0  0  0  0  0  0  0  0  0  0
   -9.7977   22.9025  -31.7110 H   0  0  0  0  0  0  0  0  0  0  0  0
   -9.8968   20.4834  -32.3887 H   0  0  0  0  0  0  0  0  0  0  0  0
   -8.8131   18.6657  -32.9574 H   0  0  0  0  0  0  0  0  0  0  0  0
   -6.8111   18.2622  -30.7085 H   0  0  0  0  0  0  0  0  0  0  0  0
   -7.7884   16.9714  -31.1937 H   0  0  0  0  0  0  0  0  0  0  0  0
   -5.1700   17.7880  -32.1530 H   0  0  0  0  0  0  0  0  0  0  0  0
   -5.9268   19.0863  -33.8105 H   0  0  0  0  0  0  0  0  0  0  0  0
   -6.8363   17.8587  -34.5326 H   0  0  0  0  0  0  0  0  0  0  0  0
   -5.5586   20.2045  -32.0206 H   0  0  0  0  0  0  0  0  0  0  0  0
  1  2  1  0
  2  3  1  0
  3  4  2  0
  3  5  1  0
  5  6  1  0
  6  7  1  0
  7  8  1  0
  2  9  1  0
  9 10  2  0
  9 11  1  0
 11 12  1  0
 12 13  1  0
 13 14  1  0
 13 15  2  0
 12 16  2  0
 16 17  1  0
 17 18  2  0
 18 19  1  0
 19 20  2  0
 20 21  1  0
 21 22  1  0
 22 23  1  0
 23 24  1  0
 20 25  1  0
 25 26  2  0
 26 11  1  0
 26 17  1  0
 24 21  1  0
  1 27  1  0
  1 28  1  0
  1 29  1  0
  2 30  1  1
  6 31  1  0
  6 32  1  0
  7 33  1  0
  7 34  1  0
  8 35  1  0
 14 36  1  0
 16 37  1  0
 18 38  1  0
 19 39  1  0
 21 40  1  0
 22 41  1  0
 22 42  1  0
 23 43  1  0
 24 44  1  0
 24 45  1  0
 25 46  1  0
M  CHG  2   2   1  14  -1
M  END
>  <UniqueID>  (48) 
48

>  <SMILES>  (48) 
C[NH+](C(=O)OCCO)C(=O)n1c(C([NH-])=O)cc2ccc(C3CNC3)cc21

>  <Energy>  (48) 
153.76889838139263

>  <Genealogy>  (48) 
C[NH+](C(=O)OCCO)C(=O)n1c(C([NH-])=O)cc2ccc(C3CNC3)cc21 (protonated)
C[NH+](C(=O)OCCO)C(=O)n1c(C([NH-])=O)cc2ccc(C3CNC3)cc21 (3D coordinates assigned)
C[NH+](C(=O)OCCO)C(=O)n1c(C([NH-])=O)cc2ccc(C3CNC3)cc21 (nonaromatic ring conformer: 153.76889838139263 kcal/mol)

>  <smiles>  (48) 
CN(C(=O)OCCO)C(=O)n1c(C(N)=O)cc2ccc(C3CNC3)cc21

>  <score_type>  (48) 
oracle

>  <origin>  (48) 
adg

>  <m_score__min__energy>  (48) 
-10.550000000000001

>  <m_primary>  (48) 
energy

$$$$
49:0
     RDKit          3D

 35 36  0  0  0  0  0  0  0  0999 V2000
   -1.2120   21.0860  -31.3850 C   0  0  0  0  0  0  0  0  0  0  0  0
   -2.1710   21.0040  -32.4930 N   0  0  0  0  0  0  0  0  0  0  0  0
   -1.9490   20.0310  -33.5690 C   0  0  0  0  0  0  0  0  0  0  0  0
   -3.2870   21.9160  -32.6040 C   0  0  0  0  0  0  0  0  0  0  0  0
   -3.8380   22.0740  -33.7280 O   0  0  0  0  0  0  0  0  0  0  0  0
   -3.8230   22.6850  -31.4540 C   0  0  0  0  0  0  0  0  0  0  0  0
   -3.0610   23.1290  -30.5570 O   0  0  0  0  0  0  0  0  0  0  0  0
   -5.2350   22.9160  -31.3390 N   0  0  0  0  0  0  0  0  0  0  0  0
   -5.8590   24.0240  -30.8500 C   0  0  0  0  0  0  0  0  0  0  0  0
   -5.1930   25.2770  -30.4310 C   0  0  0  0  0  0  0  0  0  0  0  0
   -3.8650   25.5800  -30.8500 N   0  0  0  0  0  0  0  0  0  0  0  0
   -5.8150   26.1030  -29.7100 O   0  0  0  0  0  0  0  0  0  0  0  0
   -7.2400   23.8350  -30.8300 C   0  0  0  0  0  0  0  0  0  0  0  0
   -7.4420   22.5650  -31.3220 C   0  0  0  0  0  0  0  0  0  0  0  0
   -8.6220   21.8480  -31.5000 C   0  0  0  0  0  0  0  0  0  0  0  0
   -8.5270   20.5350  -31.9940 C   0  0  0  0  0  0  0  0  0  0  0  0
   -7.2640   19.9690  -32.3010 C   0  0  0  0  0  0  0  0  0  0  0  0
   -7.1720   18.5520  -32.7920 C   0  0  0  0  0  0  0  0  0  0  0  0
   -6.1500   18.4510  -33.8380 C   0  0  0  0  0  0  0  0  0  0  0  0
   -5.3430   18.3700  -34.6640 N   0  0  0  0  0  0  0  0  0  0  0  0
   -6.0870   20.7240  -32.0960 C   0  0  0  0  0  0  0  0  0  0  0  0
   -6.2150   22.0310  -31.6190 C   0  0  0  0  0  0  0  0  0  0  0  0
   -1.7525   21.0398  -30.4281 H   0  0  0  0  0  0  0  0  0  0  0  0
   -0.5059   20.2450  -31.4483 H   0  0  0  0  0  0  0  0  0  0  0  0
   -0.6589   22.0347  -31.4483 H   0  0  0  0  0  0  0  0  0  0  0  0
   -1.7244   19.0466  -33.1326 H   0  0  0  0  0  0  0  0  0  0  0  0
   -2.8537   19.9588  -34.1905 H   0  0  0  0  0  0  0  0  0  0  0  0
   -1.1025   20.3583  -34.1905 H   0  0  0  0  0  0  0  0  0  0  0  0
   -3.0420   25.2840  -30.2790 H   0  0  0  0  0  0  0  0  0  0  0  0
   -8.0058   24.5490  -30.4927 H   0  0  0  0  0  0  0  0  0  0  0  0
   -9.5985   22.2948  -31.2616 H   0  0  0  0  0  0  0  0  0  0  0  0
   -9.4410   19.9416  -32.1436 H   0  0  0  0  0  0  0  0  0  0  0  0
   -6.9024   17.8925  -31.9539 H   0  0  0  0  0  0  0  0  0  0  0  0
   -8.1449   18.2487  -33.2062 H   0  0  0  0  0  0  0  0  0  0  0  0
   -5.0966   20.2941  -32.3064 H   0  0  0  0  0  0  0  0  0  0  0  0
  1  2  1  0
  2  3  1  0
  2  4  1  0
  4  5  2  0
  4  6  1  0
  6  7  2  0
  6  8  1  0
  8  9  1  0
  9 10  1  0
 10 11  1  0
 10 12  2  0
  9 13  2  0
 13 14  1  0
 14 15  2  0
 15 16  1  0
 16 17  2  0
 17 18  1  0
 18 19  1  0
 19 20  3  0
 17 21  1  0
 21 22  2  0
 22  8  1  0
 22 14  1  0
  1 23  1  0
  1 24  1  0
  1 25  1  0
  3 26  1  0
  3 27  1  0
  3 28  1  0
 11 29  1  0
 13 30  1  0
 15 31  1  0
 16 32  1  0
 18 33  1  0
 18 34  1  0
 21 35  1  0
M  CHG  1  11  -1
M  END
>  <UniqueID>  (49) 
49

>  <SMILES>  (49) 
CN(C)C(=O)C(=O)n1c(C([NH-])=O)cc2ccc(CC#N)cc21

>  <Energy>  (49) 
73.39864486286424

>  <Genealogy>  (49) 
CN(C)C(=O)C(=O)n1c(C([NH-])=O)cc2ccc(CC#N)cc21 (protonated)
CN(C)C(=O)C(=O)n1c(C([NH-])=O)cc2ccc(CC#N)cc21 (3D coordinates assigned)
CN(C)C(=O)C(=O)n1c(C([NH-])=O)cc2ccc(CC#N)cc21 (optimized conformer: 73.39864486286424 kcal/mol)

>  <smiles>  (49) 
CN(C)C(=O)C(=O)n1c(C(N)=O)cc2ccc(CC#N)cc21

>  <score_type>  (49) 
oracle

>  <origin>  (49) 
adg

>  <m_score__min__energy>  (49) 
-10.390000000000001

>  <m_primary>  (49) 
energy

$$$$
50:0
     RDKit          3D

 50 51  0  0  0  0  0  0  0  0999 V2000
   -7.3100   17.5540  -32.3590 C   0  0  0  0  0  0  0  0  0  0  0  0
   -8.2070   18.6300  -32.7710 N   0  0  0  0  0  0  0  0  0  0  0  0
   -8.0790   19.9900  -32.3190 C   0  0  0  0  0  0  0  0  0  0  0  0
   -9.2210   20.7910  -32.0380 C   0  0  0  0  0  0  0  0  0  0  0  0
   -9.0750   22.1110  -31.5840 C   0  0  0  0  0  0  0  0  0  0  0  0
   -7.7860   22.6080  -31.4190 C   0  0  0  0  0  0  0  0  0  0  0  0
   -7.3620   23.8360  -30.9670 C   0  0  0  0  0  0  0  0  0  0  0  0
   -5.9720   23.7720  -30.9730 C   0  0  0  0  0  0  0  0  0  0  0  0
   -5.1130   24.9040  -30.5710 C   0  0  0  0  0  0  0  0  0  0  0  0
   -3.7020   24.8460  -30.7860 N   0  0  0  0  0  0  0  0  0  0  0  0
   -5.6230   25.9530  -30.0990 O   0  0  0  0  0  0  0  0  0  0  0  0
   -5.5480   22.5580  -31.4290 N   0  0  0  0  0  0  0  0  0  0  0  0
   -4.2040   22.1390  -31.7280 C   0  0  0  0  0  0  0  0  0  0  0  0
   -3.6370   22.5680  -32.7700 O   0  0  0  0  0  0  0  0  0  0  0  0
   -3.5200   21.2230  -30.8640 N   0  0  0  0  0  0  0  0  0  0  0  0
   -2.2260   21.4320  -30.2070 C   0  0  2  0  0  0  0  0  0  0  0  0
   -2.1670   22.7870  -29.5110 C   0  0  0  0  0  0  0  0  0  0  0  0
   -1.4470   23.7020  -29.9960 O   0  0  0  0  0  0  0  0  0  0  0  0
   -2.9590   23.0700  -28.3340 N   0  0  0  0  0  0  0  0  0  0  0  0
   -2.8650   24.3990  -27.7190 C   0  0  0  0  0  0  0  0  0  0  0  0
   -3.8550   22.0620  -27.7570 C   0  0  0  0  0  0  0  0  0  0  0  0
   -1.0460   21.0970  -31.1720 C   0  0  0  0  0  0  0  0  0  0  0  0
   -1.5320   20.4140  -32.4610 C   0  0  0  0  0  0  0  0  0  0  0  0
    0.1030   20.3000  -30.5320 C   0  0  0  0  0  0  0  0  0  0  0  0
   -6.6750   21.8580  -31.6950 C   0  0  0  0  0  0  0  0  0  0  0  0
   -6.7890   20.5350  -32.1420 C   0  0  0  0  0  0  0  0  0  0  0  0
   -7.2721   17.5086  -31.2606 H   0  0  0  0  0  0  0  0  0  0  0  0
   -7.6809   16.5963  -32.7530 H   0  0  0  0  0  0  0  0  0  0  0  0
   -6.3012   17.7465  -32.7530 H   0  0  0  0  0  0  0  0  0  0  0  0
   -8.9790   18.3880  -33.4330 H   0  0  0  0  0  0  0  0  0  0  0  0
  -10.2282   20.3715  -32.1780 H   0  0  0  0  0  0  0  0  0  0  0  0
   -9.9543   22.7346  -31.3650 H   0  0  0  0  0  0  0  0  0  0  0  0
   -7.9888   24.6879  -30.6649 H   0  0  0  0  0  0  0  0  0  0  0  0
   -3.1010   25.6680  -30.5500 H   0  0  0  0  0  0  0  0  0  0  0  0
   -3.2510   23.9800  -31.1580 H   0  0  0  0  0  0  0  0  0  0  0  0
   -2.1073   20.7134  -29.3827 H   0  0  0  0  0  0  0  0  0  0  0  0
   -2.8722   24.2975  -26.6237 H   0  0  0  0  0  0  0  0  0  0  0  0
   -1.9303   24.8845  -28.0361 H   0  0  0  0  0  0  0  0  0  0  0  0
   -3.7221   25.0112  -28.0361 H   0  0  0  0  0  0  0  0  0  0  0  0
   -3.8079   22.1149  -26.6593 H   0  0  0  0  0  0  0  0  0  0  0  0
   -4.8858   22.2543  -28.0895 H   0  0  0  0  0  0  0  0  0  0  0  0
   -3.5432   21.0609  -28.0895 H   0  0  0  0  0  0  0  0  0  0  0  0
   -0.6197   22.0779  -31.4293 H   0  0  0  0  0  0  0  0  0  0  0  0
   -2.1520   19.5427  -32.2030 H   0  0  0  0  0  0  0  0  0  0  0  0
   -2.1277   21.1260  -33.0511 H   0  0  0  0  0  0  0  0  0  0  0  0
   -0.6641   20.0846  -33.0511 H   0  0  0  0  0  0  0  0  0  0  0  0
    0.0223   20.3560  -29.4364 H   0  0  0  0  0  0  0  0  0  0  0  0
    0.0424   19.2490  -30.8509 H   0  0  0  0  0  0  0  0  0  0  0  0
    1.0662   20.7250  -30.8509 H   0  0  0  0  0  0  0  0  0  0  0  0
   -5.8919   19.9336  -32.3506 H   0  0  0  0  0  0  0  0  0  0  0  0
  1  2  1  0
  2  3  1  0
  3  4  2  0
  4  5  1  0
  5  6  2  0
  6  7  1  0
  7  8  2  0
  8  9  1  0
  9 10  1  0
  9 11  2  0
  8 12  1  0
 12 13  1  0
 13 14  2  0
 13 15  1  0
 15 16  1  0
 16 17  1  0
 17 18  2  0
 17 19  1  0
 19 20  1  0
 19 21  1  0
 16 22  1  0
 22 23  1  0
 22 24  1  0
 12 25  1  0
 25 26  2  0
 26  3  1  0
 25  6  1  0
  1 27  1  0
  1 28  1  0
  1 29  1  0
  2 30  1  0
  4 31  1  0
  5 32  1  0
  7 33  1  0
 10 34  1  0
 10 35  1  0
 16 36  1  1
 20 37  1  0
 20 38  1  0
 20 39  1  0
 21 40  1  0
 21 41  1  0
 21 42  1  0
 22 43  1  0
 23 44  1  0
 23 45  1  0
 23 46  1  0
 24 47  1  0
 24 48  1  0
 24 49  1  0
 26 50  1  0
M  CHG  1  15  -1
M  END
>  <UniqueID>  (50) 
50

>  <SMILES>  (50) 
CNc1ccc2cc(C(N)=O)n(C(=O)[N-][C@H](C(=O)N(C)C)C(C)C)c2c1

>  <Energy>  (50) 
87.29691302651095

>  <Genealogy>  (50) 
CNc1ccc2cc(C(N)=O)n(C(=O)[N-][C@H](C(=O)N(C)C)C(C)C)c2c1 (protonated)
CNc1ccc2cc(C(N)=O)n(C(=O)[N-][C@H](C(=O)N(C)C)C(C)C)c2c1 (3D coordinates assigned)
CNc1ccc2cc(C(N)=O)n(C(=O)[N-][C@H](C(=O)N(C)C)C(C)C)c2c1 (optimized conformer: 87.29691302651095 kcal/mol)

>  <smiles>  (50) 
CNc1ccc2cc(C(N)=O)n(C(=O)N[C@H](C(=O)N(C)C)C(C)C)c2c1

>  <score_type>  (50) 
oracle

>  <origin>  (50) 
adg

>  <m_score__min__energy>  (50) 
-10.08

>  <m_primary>  (50) 
energy

$$$$
51:0
     RDKit          3D

 45 46  0  0  0  0  0  0  0  0999 V2000
   -3.4860   21.6610  -28.9510 C   0  0  0  0  0  0  0  0  0  0  0  0
   -2.8970   22.3390  -30.1080 N   0  0  0  0  0  0  0  0  0  0  0  0
   -1.6390   23.0220  -29.9530 C   0  0  0  0  0  0  0  0  0  0  0  0
   -0.5710   22.4810  -30.3490 O   0  0  0  0  0  0  0  0  0  0  0  0
   -1.6170   24.3050  -29.3800 O   0  0  0  0  0  0  0  0  0  0  0  0
   -1.4940   24.6140  -27.9840 C   0  0  0  0  0  0  0  0  0  0  0  0
   -0.9450   26.0410  -27.7920 C   0  0  0  0  0  0  0  0  0  0  0  0
   -0.5930   23.5840  -27.2770 C   0  0  0  0  0  0  0  0  0  0  0  0
   -2.9030   24.5400  -27.3780 C   0  0  0  0  0  0  0  0  0  0  0  0
   -3.6180   22.3840  -31.3550 C   0  0  0  0  0  0  0  0  0  0  0  0
   -2.9970   22.2970  -32.4480 O   0  0  0  0  0  0  0  0  0  0  0  0
   -5.0490   22.5270  -31.3670 N   0  0  0  0  0  0  0  0  0  0  0  0
   -5.7880   23.5420  -30.8390 C   0  0  0  0  0  0  0  0  0  0  0  0
   -5.2350   24.7810  -30.2440 C   0  0  0  0  0  0  0  0  0  0  0  0
   -5.7530   25.2980  -29.0150 N   0  0  0  0  0  0  0  0  0  0  0  0
   -4.3100   25.4040  -30.8280 O   0  0  0  0  0  0  0  0  0  0  0  0
   -7.1490   23.2840  -31.0020 C   0  0  0  0  0  0  0  0  0  0  0  0
   -7.2170   22.0690  -31.6470 C   0  0  0  0  0  0  0  0  0  0  0  0
   -8.3250   21.3220  -32.0400 C   0  0  0  0  0  0  0  0  0  0  0  0
   -8.0960   20.0810  -32.6570 C   0  0  0  0  0  0  0  0  0  0  0  0
   -6.7740   19.6130  -32.8700 C   0  0  0  0  0  0  0  0  0  0  0  0
   -6.5420   18.2660  -33.4870 C   0  0  0  0  0  0  0  0  0  0  0  0
   -6.1290   17.0860  -32.2200 Cl  0  0  0  0  0  0  0  0  0  0  0  0
   -5.6770   20.3920  -32.4440 C   0  0  0  0  0  0  0  0  0  0  0  0
   -5.9350   21.6320  -31.8510 C   0  0  0  0  0  0  0  0  0  0  0  0
   -3.0962   22.1097  -28.0254 H   0  0  0  0  0  0  0  0  0  0  0  0
   -4.5801   21.7711  -28.9793 H   0  0  0  0  0  0  0  0  0  0  0  0
   -3.2241   20.5930  -28.9793 H   0  0  0  0  0  0  0  0  0  0  0  0
   -0.8608   26.2599  -26.7173 H   0  0  0  0  0  0  0  0  0  0  0  0
    0.0471   26.1184  -28.2608 H   0  0  0  0  0  0  0  0  0  0  0  0
   -1.6294   26.7633  -28.2608 H   0  0  0  0  0  0  0  0  0  0  0  0
   -0.6919   23.6971  -26.1873 H   0  0  0  0  0  0  0  0  0  0  0  0
   -0.8978   22.5683  -27.5694 H   0  0  0  0  0  0  0  0  0  0  0  0
    0.4542   23.7510  -27.5694 H   0  0  0  0  0  0  0  0  0  0  0  0
   -2.8307   24.5438  -26.2804 H   0  0  0  0  0  0  0  0  0  0  0  0
   -3.4909   25.4085  -27.7098 H   0  0  0  0  0  0  0  0  0  0  0  0
   -3.3967   23.6147  -27.7098 H   0  0  0  0  0  0  0  0  0  0  0  0
   -5.3780   26.1910  -28.6270 H   0  0  0  0  0  0  0  0  0  0  0  0
   -6.4710   24.7800  -28.4640 H   0  0  0  0  0  0  0  0  0  0  0  0
   -7.9901   23.9170  -30.6829 H   0  0  0  0  0  0  0  0  0  0  0  0
   -9.3472   21.6922  -31.8725 H   0  0  0  0  0  0  0  0  0  0  0  0
   -8.9499   19.4663  -32.9780 H   0  0  0  0  0  0  0  0  0  0  0  0
   -7.4553   17.9399  -34.0062 H   0  0  0  0  0  0  0  0  0  0  0  0
   -5.7116   18.3335  -34.2053 H   0  0  0  0  0  0  0  0  0  0  0  0
   -4.6455   20.0331  -32.5750 H   0  0  0  0  0  0  0  0  0  0  0  0
  1  2  1  0
  2  3  1  0
  3  4  2  0
  3  5  1  0
  5  6  1  0
  6  7  1  0
  6  8  1  0
  6  9  1  0
  2 10  1  0
 10 11  2  0
 10 12  1  0
 12 13  1  0
 13 14  1  0
 14 15  1  0
 14 16  2  0
 13 17  2  0
 17 18  1  0
 18 19  2  0
 19 20  1  0
 20 21  2  0
 21 22  1  0
 22 23  1  0
 21 24  1  0
 24 25  2  0
 25 12  1  0
 25 18  1  0
  1 26  1  0
  1 27  1  0
  1 28  1  0
  7 29  1  0
  7 30  1  0
  7 31  1  0
  8 32  1  0
  8 33  1  0
  8 34  1  0
  9 35  1  0
  9 36  1  0
  9 37  1  0
 15 38  1  0
 15 39  1  0
 17 40  1  0
 19 41  1  0
 20 42  1  0
 22 43  1  0
 22 44  1  0
 24 45  1  0
M  END
>  <UniqueID>  (51) 
51

>  <SMILES>  (51) 
CN(C(=O)OC(C)(C)C)C(=O)n1c(C(N)=O)cc2ccc(CCl)cc21

>  <Energy>  (51) 
79.03374966893372

>  <Genealogy>  (51) 
CN(C(=O)OC(C)(C)C)C(=O)n1c(C(N)=O)cc2ccc(CCl)cc21 (3D coordinates assigned)
CN(C(=O)OC(C)(C)C)C(=O)n1c(C(N)=O)cc2ccc(CCl)cc21 (optimized conformer: 79.03374966893372 kcal/mol)

>  <smiles>  (51) 
CN(C(=O)OC(C)(C)C)C(=O)n1c(C(N)=O)cc2ccc(CCl)cc21

>  <score_type>  (51) 
oracle

>  <origin>  (51) 
adg

>  <m_score__min__energy>  (51) 
-9.5

>  <m_primary>  (51) 
energy

$$$$
52:0
     RDKit          3D

 36 37  0  0  0  0  0  0  0  0999 V2000
   -1.1620   19.6960  -34.1990 C   0  0  0  0  0  0  0  0  0  0  0  0
   -1.0670   21.0550  -33.5740 C   0  0  0  0  0  0  0  0  0  0  0  0
   -0.3340   21.9220  -34.1220 O   0  0  0  0  0  0  0  0  0  0  0  0
   -1.8130   21.3880  -32.3830 N   0  0  0  0  0  0  0  0  0  0  0  0
   -1.3600   20.9170  -31.0710 C   0  0  0  0  0  0  0  0  0  0  0  0
   -3.1170   21.9900  -32.4850 C   0  0  0  0  0  0  0  0  0  0  0  0
   -3.7650   21.8860  -33.5620 O   0  0  0  0  0  0  0  0  0  0  0  0
   -3.7220   22.7010  -31.3400 C   0  0  0  0  0  0  0  0  0  0  0  0
   -2.9950   23.1140  -30.3970 O   0  0  0  0  0  0  0  0  0  0  0  0
   -5.1420   22.9020  -31.2750 N   0  0  0  0  0  0  0  0  0  0  0  0
   -5.8070   24.0060  -30.8340 C   0  0  0  0  0  0  0  0  0  0  0  0
   -5.1910   25.2870  -30.4280 C   0  0  0  0  0  0  0  0  0  0  0  0
   -3.8720   25.6330  -30.8440 N   0  0  0  0  0  0  0  0  0  0  0  0
   -5.8450   26.0980  -29.7210 O   0  0  0  0  0  0  0  0  0  0  0  0
   -7.1840   23.7830  -30.8560 C   0  0  0  0  0  0  0  0  0  0  0  0
   -7.3390   22.4970  -31.3210 C   0  0  0  0  0  0  0  0  0  0  0  0
   -8.4950   21.7530  -31.5340 C   0  0  0  0  0  0  0  0  0  0  0  0
   -8.3530   20.4340  -31.9980 C   0  0  0  0  0  0  0  0  0  0  0  0
   -7.0660   19.8730  -32.2130 C   0  0  0  0  0  0  0  0  0  0  0  0
   -6.9290   18.4710  -32.7480 C   0  0  0  0  0  0  0  0  0  0  0  0
   -6.4790   18.5240  -34.0540 F   0  0  0  0  0  0  0  0  0  0  0  0
   -6.0270   17.7450  -31.9900 F   0  0  0  0  0  0  0  0  0  0  0  0
   -8.1470   17.8150  -32.7170 F   0  0  0  0  0  0  0  0  0  0  0  0
   -5.9170   20.6710  -32.0050 C   0  0  0  0  0  0  0  0  0  0  0  0
   -6.0910   21.9860  -31.5610 C   0  0  0  0  0  0  0  0  0  0  0  0
   -1.2154   18.9321  -33.4093 H   0  0  0  0  0  0  0  0  0  0  0  0
   -2.0661   19.6419  -34.8232 H   0  0  0  0  0  0  0  0  0  0  0  0
   -0.2742   19.5166  -34.8232 H   0  0  0  0  0  0  0  0  0  0  0  0
   -1.8902   21.4683  -30.2804 H   0  0  0  0  0  0  0  0  0  0  0  0
   -1.5723   19.8420  -30.9740 H   0  0  0  0  0  0  0  0  0  0  0  0
   -0.2776   21.0872  -30.9740 H   0  0  0  0  0  0  0  0  0  0  0  0
   -3.0350   25.2770  -30.3300 H   0  0  0  0  0  0  0  0  0  0  0  0
   -7.9778   24.4862  -30.5636 H   0  0  0  0  0  0  0  0  0  0  0  0
   -9.4894   22.1837  -31.3451 H   0  0  0  0  0  0  0  0  0  0  0  0
   -9.2496   19.8287  -32.1971 H   0  0  0  0  0  0  0  0  0  0  0  0
   -4.9103   20.2671  -32.1881 H   0  0  0  0  0  0  0  0  0  0  0  0
  1  2  1  0
  2  3  2  0
  2  4  1  0
  4  5  1  0
  4  6  1  0
  6  7  2  0
  6  8  1  0
  8  9  2  0
  8 10  1  0
 10 11  1  0
 11 12  1  0
 12 13  1  0
 12 14  2  0
 11 15  2  0
 15 16  1  0
 16 17  2  0
 17 18  1  0
 18 19  2  0
 19 20  1  0
 20 21  1  0
 20 22  1  0
 20 23  1  0
 19 24  1  0
 24 25  2  0
 25 10  1  0
 25 16  1  0
  1 26  1  0
  1 27  1  0
  1 28  1  0
  5 29  1  0
  5 30  1  0
  5 31  1  0
 13 32  1  0
 15 33  1  0
 17 34  1  0
 18 35  1  0
 24 36  1  0
M  CHG  1  13  -1
M  END
>  <UniqueID>  (52) 
52

>  <SMILES>  (52) 
CC(=O)N(C)C(=O)C(=O)n1c(C([NH-])=O)cc2ccc(C(F)(F)F)cc21

>  <Energy>  (52) 
80.04837082837894

>  <Genealogy>  (52) 
CC(=O)N(C)C(=O)C(=O)n1c(C([NH-])=O)cc2ccc(C(F)(F)F)cc21 (protonated)
CC(=O)N(C)C(=O)C(=O)n1c(C([NH-])=O)cc2ccc(C(F)(F)F)cc21 (3D coordinates assigned)
CC(=O)N(C)C(=O)C(=O)n1c(C([NH-])=O)cc2ccc(C(F)(F)F)cc21 (optimized conformer: 80.04837082837894 kcal/mol)

>  <smiles>  (52) 
CC(=O)N(C)C(=O)C(=O)n1c(C(N)=O)cc2ccc(C(F)(F)F)cc21

>  <score_type>  (52) 
oracle

>  <origin>  (52) 
adg

>  <m_score__min__energy>  (52) 
-10.58

>  <m_primary>  (52) 
energy

$$$$
53:0
     RDKit          3D

 32 33  0  0  0  0  0  0  0  0999 V2000
   -2.2150   25.2350  -29.3390 N   0  0  0  0  0  0  0  0  0  0  0  0
   -2.7750   24.1630  -28.5850 C   0  0  0  0  0  0  0  0  0  0  0  0
   -3.5760   24.4070  -27.6440 O   0  0  0  0  0  0  0  0  0  0  0  0
   -2.4260   22.7490  -28.9270 C   0  0  0  0  0  0  0  0  0  0  0  0
   -3.4750   22.1480  -29.6810 O   0  0  0  0  0  0  0  0  0  0  0  0
   -3.9220   22.6490  -30.9100 C   0  0  0  0  0  0  0  0  0  0  0  0
   -3.0930   22.9570  -31.8100 O   0  0  0  0  0  0  0  0  0  0  0  0
   -5.3290   22.8080  -31.1480 N   0  0  0  0  0  0  0  0  0  0  0  0
   -6.0910   23.9110  -30.9060 C   0  0  0  0  0  0  0  0  0  0  0  0
   -5.5870   25.2350  -30.4900 C   0  0  0  0  0  0  0  0  0  0  0  0
   -4.2180   25.5980  -30.6740 N   0  0  0  0  0  0  0  0  0  0  0  0
   -6.3910   26.0810  -30.0140 O   0  0  0  0  0  0  0  0  0  0  0  0
   -7.4350   23.6450  -31.1530 C   0  0  0  0  0  0  0  0  0  0  0  0
   -7.4730   22.3350  -31.5740 C   0  0  0  0  0  0  0  0  0  0  0  0
   -8.5600   21.5440  -31.9300 C   0  0  0  0  0  0  0  0  0  0  0  0
   -8.3140   20.2060  -32.2820 C   0  0  0  0  0  0  0  0  0  0  0  0
   -6.9940   19.6850  -32.2800 C   0  0  0  0  0  0  0  0  0  0  0  0
   -6.7500   18.2330  -32.5970 C   0  0  0  0  0  0  0  0  0  0  0  0
   -6.3880   18.1120  -33.9250 F   0  0  0  0  0  0  0  0  0  0  0  0
   -5.7360   17.7220  -31.8050 F   0  0  0  0  0  0  0  0  0  0  0  0
   -7.8930   17.4850  -32.3710 F   0  0  0  0  0  0  0  0  0  0  0  0
   -5.9190   20.5170  -31.8860 C   0  0  0  0  0  0  0  0  0  0  0  0
   -6.1900   21.8510  -31.5630 C   0  0  0  0  0  0  0  0  0  0  0  0
   -2.3570   25.2940  -30.3720 H   0  0  0  0  0  0  0  0  0  0  0  0
   -1.5001   22.7375  -29.5207 H   0  0  0  0  0  0  0  0  0  0  0  0
   -2.2844   22.1807  -27.9959 H   0  0  0  0  0  0  0  0  0  0  0  0
   -3.5670   24.9910  -31.2190 H   0  0  0  0  0  0  0  0  0  0  0  0
   -3.8710   26.5230  -30.3350 H   0  0  0  0  0  0  0  0  0  0  0  0
   -8.2845   24.3340  -31.0367 H   0  0  0  0  0  0  0  0  0  0  0  0
   -9.5811   21.9532  -31.9359 H   0  0  0  0  0  0  0  0  0  0  0  0
   -9.1548   19.5546  -32.5625 H   0  0  0  0  0  0  0  0  0  0  0  0
   -4.8931   20.1235  -31.8349 H   0  0  0  0  0  0  0  0  0  0  0  0
  1  2  1  0
  2  3  2  0
  2  4  1  0
  4  5  1  0
  5  6  1  0
  6  7  2  0
  6  8  1  0
  8  9  1  0
  9 10  1  0
 10 11  1  0
 10 12  2  0
  9 13  2  0
 13 14  1  0
 14 15  2  0
 15 16  1  0
 16 17  2  0
 17 18  1  0
 18 19  1  0
 18 20  1  0
 18 21  1  0
 17 22  1  0
 22 23  2  0
 23  8  1  0
 23 14  1  0
  1 24  1  0
  4 25  1  0
  4 26  1  0
 11 27  1  0
 11 28  1  0
 13 29  1  0
 15 30  1  0
 16 31  1  0
 22 32  1  0
M  CHG  1   1  -1
M  END
>  <UniqueID>  (53) 
53

>  <SMILES>  (53) 
[NH-]C(=O)COC(=O)n1c(C(N)=O)cc2ccc(C(F)(F)F)cc21

>  <Energy>  (53) 
69.20460444325778

>  <Genealogy>  (53) 
[NH-]C(=O)COC(=O)n1c(C(N)=O)cc2ccc(C(F)(F)F)cc21 (protonated)
[NH-]C(=O)COC(=O)n1c(C(N)=O)cc2ccc(C(F)(F)F)cc21 (3D coordinates assigned)
[NH-]C(=O)COC(=O)n1c(C(N)=O)cc2ccc(C(F)(F)F)cc21 (optimized conformer: 69.20460444325778 kcal/mol)

>  <smiles>  (53) 
NC(=O)COC(=O)n1c(C(N)=O)cc2ccc(C(F)(F)F)cc21

>  <score_type>  (53) 
oracle

>  <origin>  (53) 
adg

>  <m_score__min__energy>  (53) 
-10.949999999999999

>  <m_primary>  (53) 
energy

$$$$
54:0
     RDKit          3D

 43 44  0  0  0  0  0  0  0  0999 V2000
   -3.1690   15.6300  -35.7560 C   0  0  0  0  0  0  0  0  0  0  0  0
   -3.3720   16.8910  -34.8930 C   0  0  2  0  0  0  0  0  0  0  0  0
   -2.1160   17.2230  -34.1210 C   0  0  0  0  0  0  0  0  0  0  0  0
   -2.0810   17.0550  -32.8710 O   0  0  0  0  0  0  0  0  0  0  0  0
   -0.9820   17.6770  -34.7720 O   0  0  0  0  0  0  0  0  0  0  0  0
   -4.5570   16.8270  -33.9900 N   0  0  2  0  0  0  0  0  0  0  0  0
   -5.3020   15.5550  -34.0560 C   0  0  0  0  0  0  0  0  0  0  0  0
   -5.4420   17.9580  -34.2130 C   0  0  0  0  0  0  0  0  0  0  0  0
   -5.9130   18.1700  -35.3240 O   0  0  0  0  0  0  0  0  0  0  0  0
   -5.8040   18.8820  -33.0750 C   0  0  0  0  0  0  0  0  0  0  0  0
   -5.4190   20.3330  -33.3830 C   0  0  0  0  0  0  0  0  0  0  0  0
   -4.2650   20.7630  -32.5180 C   0  0  0  0  0  0  0  0  0  0  0  0
   -3.1090   19.9490  -32.4270 C   0  0  0  0  0  0  0  0  0  0  0  0
   -2.0000   20.3630  -31.6720 C   0  0  0  0  0  0  0  0  0  0  0  0
   -2.0710   21.5970  -31.0300 C   0  0  0  0  0  0  0  0  0  0  0  0
   -1.1460   22.2370  -30.2380 C   0  0  0  0  0  0  0  0  0  0  0  0
   -1.7440   23.4390  -29.8660 C   0  0  0  0  0  0  0  0  0  0  0  0
   -1.0430   24.4890  -29.0970 C   0  0  0  0  0  0  0  0  0  0  0  0
   -1.5980   25.7990  -28.9590 N   0  0  0  0  0  0  0  0  0  0  0  0
    0.0920   24.2430  -28.6040 O   0  0  0  0  0  0  0  0  0  0  0  0
   -2.9960   23.5370  -30.3980 N   0  0  0  0  0  0  0  0  0  0  0  0
   -3.9740   24.5650  -30.1590 C   0  0  0  0  0  0  0  0  0  0  0  0
   -3.8890   25.6760  -30.7470 O   0  0  0  0  0  0  0  0  0  0  0  0
   -5.0470   24.3290  -29.3040 O   0  0  0  0  0  0  0  0  0  0  0  0
   -3.1770   22.4030  -31.1150 C   0  0  0  0  0  0  0  0  0  0  0  0
   -4.3020   22.0090  -31.8490 C   0  0  0  0  0  0  0  0  0  0  0  0
   -3.0284   14.7568  -35.1020 H   0  0  0  0  0  0  0  0  0  0  0  0
   -4.0536   15.4739  -36.3909 H   0  0  0  0  0  0  0  0  0  0  0  0
   -2.2801   15.7594  -36.3909 H   0  0  0  0  0  0  0  0  0  0  0  0
   -3.5857   17.7059  -35.6003 H   0  0  0  0  0  0  0  0  0  0  0  0
   -4.2040   16.8980  -33.0050 H   0  0  0  0  0  0  0  0  0  0  0  0
   -5.5106   15.1989  -33.0363 H   0  0  0  0  0  0  0  0  0  0  0  0
   -6.2504   15.7128  -34.5904 H   0  0  0  0  0  0  0  0  0  0  0  0
   -4.7004   14.8050  -34.5904 H   0  0  0  0  0  0  0  0  0  0  0  0
   -6.8893   18.8292  -32.9036 H   0  0  0  0  0  0  0  0  0  0  0  0
   -5.2493   18.5609  -32.1810 H   0  0  0  0  0  0  0  0  0  0  0  0
   -5.1294   20.4146  -34.4410 H   0  0  0  0  0  0  0  0  0  0  0  0
   -6.2820   20.9832  -33.1768 H   0  0  0  0  0  0  0  0  0  0  0  0
   -3.0800   18.9833  -32.9529 H   0  0  0  0  0  0  0  0  0  0  0  0
   -1.1026   19.7321  -31.5900 H   0  0  0  0  0  0  0  0  0  0  0  0
   -0.1455   21.8759  -29.9577 H   0  0  0  0  0  0  0  0  0  0  0  0
   -2.6290   25.9470  -28.9680 H   0  0  0  0  0  0  0  0  0  0  0  0
   -5.1926   22.6522  -31.9042 H   0  0  0  0  0  0  0  0  0  0  0  0
  1  2  1  0
  2  3  1  0
  3  4  2  0
  3  5  1  0
  2  6  1  0
  6  7  1  0
  6  8  1  0
  8  9  2  0
  8 10  1  0
 10 11  1  0
 11 12  1  0
 12 13  2  0
 13 14  1  0
 14 15  2  0
 15 16  1  0
 16 17  2  0
 17 18  1  0
 18 19  1  0
 18 20  2  0
 17 21  1  0
 21 22  1  0
 22 23  2  0
 22 24  1  0
 21 25  1  0
 25 26  2  0
 26 12  1  0
 25 15  1  0
  1 27  1  0
  1 28  1  0
  1 29  1  0
  2 30  1  6
  6 31  1  1
  7 32  1  0
  7 33  1  0
  7 34  1  0
 10 35  1  0
 10 36  1  0
 11 37  1  0
 11 38  1  0
 13 39  1  0
 14 40  1  0
 16 41  1  0
 19 42  1  0
 26 43  1  0
M  CHG  4   5  -1   6   1  19  -1  24  -1
M  END
>  <UniqueID>  (54) 
54

>  <SMILES>  (54) 
C[C@H](C(=O)[O-])[N@H+](C)C(=O)CCc1ccc2cc(C([NH-])=O)n(C(=O)[O-])c2c1

>  <Energy>  (54) 
84.46790196830402

>  <Genealogy>  (54) 
CC(C(=O)[O-])[NH+](C)C(=O)CCc1ccc2cc(C([NH-])=O)n(C(=O)[O-])c2c1 (protonated)
C[C@H](C(=O)[O-])[N@H+](C)C(=O)CCc1ccc2cc(C([NH-])=O)n(C(=O)[O-])c2c1 (chirality)
C[C@H](C(=O)[O-])[N@H+](C)C(=O)CCc1ccc2cc(C([NH-])=O)n(C(=O)[O-])c2c1 (3D coordinates assigned)
C[C@H](C(=O)[O-])[N@H+](C)C(=O)CCc1ccc2cc(C([NH-])=O)n(C(=O)[O-])c2c1 (optimized conformer: 84.46790196830402 kcal/mol)

>  <smiles>  (54) 
CC(C(=O)O)N(C)C(=O)CCc1ccc2cc(C(N)=O)n(C(=O)O)c2c1

>  <score_type>  (54) 
oracle

>  <origin>  (54) 
adg

>  <m_score__min__energy>  (54) 
-11.09

>  <m_primary>  (54) 
energy

$$$$
55:0
     RDKit          3D

 37 38  0  0  0  0  0  0  0  0999 V2000
   -6.8310   17.2930  -33.3020 C   0  0  0  0  0  0  0  0  0  0  0  0
   -6.9970   18.4200  -32.9100 C   0  0  0  0  0  0  0  0  0  0  0  0
   -7.1960   19.7670  -32.4400 C   0  0  0  0  0  0  0  0  0  0  0  0
   -8.5080   20.2840  -32.3210 C   0  0  0  0  0  0  0  0  0  0  0  0
   -8.7140   21.6000  -31.8740 C   0  0  0  0  0  0  0  0  0  0  0  0
   -7.5950   22.3620  -31.5520 C   0  0  0  0  0  0  0  0  0  0  0  0
   -7.5100   23.6610  -31.1060 C   0  0  0  0  0  0  0  0  0  0  0  0
   -6.1480   23.9110  -30.9610 C   0  0  0  0  0  0  0  0  0  0  0  0
   -5.6170   25.1880  -30.4580 C   0  0  0  0  0  0  0  0  0  0  0  0
   -4.2400   25.5210  -30.6120 N   0  0  0  0  0  0  0  0  0  0  0  0
   -6.4100   26.0370  -29.9670 O   0  0  0  0  0  0  0  0  0  0  0  0
   -5.4130   22.8050  -31.2800 N   0  0  0  0  0  0  0  0  0  0  0  0
   -4.0040   22.6010  -31.0660 C   0  0  0  0  0  0  0  0  0  0  0  0
   -3.1790   22.8270  -31.9910 O   0  0  0  0  0  0  0  0  0  0  0  0
   -3.5280   22.1670  -29.7860 N   0  0  0  0  0  0  0  0  0  0  0  0
   -3.0670   23.0750  -28.7420 C   0  0  0  0  0  0  0  0  0  0  0  0
   -1.9990   23.9870  -29.2660 C   0  0  0  0  0  0  0  0  0  0  0  0
   -2.2190   25.2270  -29.3280 O   0  0  0  0  0  0  0  0  0  0  0  0
   -0.7870   23.4490  -29.7190 O   0  0  0  0  0  0  0  0  0  0  0  0
   -0.3440   22.1300  -29.4010 C   0  0  0  0  0  0  0  0  0  0  0  0
   -0.5200   21.2010  -30.5990 C   0  0  0  0  0  0  0  0  0  0  0  0
   -6.3160   21.8680  -31.6500 C   0  0  0  0  0  0  0  0  0  0  0  0
   -6.0840   20.5630  -32.1040 C   0  0  0  0  0  0  0  0  0  0  0  0
   -6.6794   16.2640  -33.6599 H   0  0  0  0  0  0  0  0  0  0  0  0
   -9.3707   19.6525  -32.5797 H   0  0  0  0  0  0  0  0  0  0  0  0
   -9.7284   22.0151  -31.7814 H   0  0  0  0  0  0  0  0  0  0  0  0
   -8.3407   24.3539  -30.9066 H   0  0  0  0  0  0  0  0  0  0  0  0
   -3.8650   26.4090  -30.2090 H   0  0  0  0  0  0  0  0  0  0  0  0
   -3.6100   24.9280  -31.1960 H   0  0  0  0  0  0  0  0  0  0  0  0
   -3.9156   23.6788  -28.3881 H   0  0  0  0  0  0  0  0  0  0  0  0
   -2.6501   22.4808  -27.9155 H   0  0  0  0  0  0  0  0  0  0  0  0
    0.7196   22.1632  -29.1224 H   0  0  0  0  0  0  0  0  0  0  0  0
   -0.9449   21.7463  -28.5633 H   0  0  0  0  0  0  0  0  0  0  0  0
   -0.7138   20.1780  -30.2443 H   0  0  0  0  0  0  0  0  0  0  0  0
   -1.3690   21.5449  -31.2081 H   0  0  0  0  0  0  0  0  0  0  0  0
    0.3959   21.2106  -31.2081 H   0  0  0  0  0  0  0  0  0  0  0  0
   -5.0604   20.1706  -32.1956 H   0  0  0  0  0  0  0  0  0  0  0  0
  1  2  3  0
  2  3  1  0
  3  4  2  0
  4  5  1  0
  5  6  2  0
  6  7  1  0
  7  8  2  0
  8  9  1  0
  9 10  1  0
  9 11  2  0
  8 12  1  0
 12 13  1  0
 13 14  2  0
 13 15  1  0
 15 16  1  0
 16 17  1  0
 17 18  2  0
 17 19  1  0
 19 20  1  0
 20 21  1  0
 12 22  1  0
 22 23  2  0
 23  3  1  0
 22  6  1  0
  1 24  1  0
  4 25  1  0
  5 26  1  0
  7 27  1  0
 10 28  1  0
 10 29  1  0
 16 30  1  0
 16 31  1  0
 20 32  1  0
 20 33  1  0
 21 34  1  0
 21 35  1  0
 21 36  1  0
 23 37  1  0
M  CHG  1  15  -1
M  END
>  <UniqueID>  (55) 
55

>  <SMILES>  (55) 
C#Cc1ccc2cc(C(N)=O)n(C(=O)[N-]CC(=O)OCC)c2c1

>  <Energy>  (55) 
70.6719273978571

>  <Genealogy>  (55) 
C#Cc1ccc2cc(C(N)=O)n(C(=O)[N-]CC(=O)OCC)c2c1 (protonated)
C#Cc1ccc2cc(C(N)=O)n(C(=O)[N-]CC(=O)OCC)c2c1 (3D coordinates assigned)
C#Cc1ccc2cc(C(N)=O)n(C(=O)[N-]CC(=O)OCC)c2c1 (optimized conformer: 70.6719273978571 kcal/mol)

>  <smiles>  (55) 
C#Cc1ccc2cc(C(N)=O)n(C(=O)NCC(=O)OCC)c2c1

>  <score_type>  (55) 
oracle

>  <origin>  (55) 
adg

>  <m_score__min__energy>  (55) 
-9.9299999999999997

>  <m_primary>  (55) 
energy

$$$$
56:0
     RDKit          3D

 41 42  0  0  0  0  0  0  0  0999 V2000
   -3.9980   23.3630  -27.6040 C   0  0  0  0  0  0  0  0  0  0  0  0
   -3.3310   24.6710  -27.6980 N   0  0  0  0  0  0  0  0  0  0  0  0
   -3.2260   25.3010  -26.3700 C   0  0  0  0  0  0  0  0  0  0  0  0
   -2.0420   24.5370  -28.3570 C   0  0  0  0  0  0  0  0  0  0  0  0
   -1.4000   25.5450  -28.6180 O   0  0  0  0  0  0  0  0  0  0  0  0
   -1.4790   23.2010  -28.7820 C   0  0  0  0  0  0  0  0  0  0  0  0
   -1.8940   22.9010  -30.1090 O   0  0  0  0  0  0  0  0  0  0  0  0
   -3.0280   22.1360  -30.3920 C   0  0  0  0  0  0  0  0  0  0  0  0
   -3.2710   21.0840  -29.7380 O   0  0  0  0  0  0  0  0  0  0  0  0
   -3.9410   22.5650  -31.4590 C   0  0  0  0  0  0  0  0  0  0  0  0
   -3.5190   22.6400  -32.6440 O   0  0  0  0  0  0  0  0  0  0  0  0
   -5.3170   22.8630  -31.1760 N   0  0  0  0  0  0  0  0  0  0  0  0
   -5.8380   24.0090  -30.6540 C   0  0  0  0  0  0  0  0  0  0  0  0
   -5.0930   25.2570  -30.3840 C   0  0  0  0  0  0  0  0  0  0  0  0
   -3.6710   25.2950  -30.4670 N   0  0  0  0  0  0  0  0  0  0  0  0
   -5.7240   26.3130  -30.1090 O   0  0  0  0  0  0  0  0  0  0  0  0
   -7.2130   23.8750  -30.4670 C   0  0  0  0  0  0  0  0  0  0  0  0
   -7.5200   22.6060  -30.9080 C   0  0  0  0  0  0  0  0  0  0  0  0
   -8.7390   21.9380  -30.9420 C   0  0  0  0  0  0  0  0  0  0  0  0
   -8.7540   20.6190  -31.4300 C   0  0  0  0  0  0  0  0  0  0  0  0
   -7.5610   20.0000  -31.8870 C   0  0  0  0  0  0  0  0  0  0  0  0
   -7.5820   18.5670  -32.3540 C   0  0  0  0  0  0  0  0  0  0  0  0
   -7.0440   17.7310  -31.3910 F   0  0  0  0  0  0  0  0  0  0  0  0
   -8.8880   18.1890  -32.6030 F   0  0  0  0  0  0  0  0  0  0  0  0
   -6.8410   18.4220  -33.5160 F   0  0  0  0  0  0  0  0  0  0  0  0
   -6.3380   20.7070  -31.8140 C   0  0  0  0  0  0  0  0  0  0  0  0
   -6.3570   22.0200  -31.3330 C   0  0  0  0  0  0  0  0  0  0  0  0
   -4.1341   23.0961  -26.5456 H   0  0  0  0  0  0  0  0  0  0  0  0
   -4.9794   23.4155  -28.0981 H   0  0  0  0  0  0  0  0  0  0  0  0
   -3.3792   22.5995  -28.0981 H   0  0  0  0  0  0  0  0  0  0  0  0
   -3.9350   25.2940  -28.2860 H   0  0  0  0  0  0  0  0  0  0  0  0
   -3.3535   24.5359  -25.5901 H   0  0  0  0  0  0  0  0  0  0  0  0
   -2.2371   25.7711  -26.2643 H   0  0  0  0  0  0  0  0  0  0  0  0
   -4.0090   26.0664  -26.2643 H   0  0  0  0  0  0  0  0  0  0  0  0
   -0.3803   23.2392  -28.7432 H   0  0  0  0  0  0  0  0  0  0  0  0
   -1.8481   22.4194  -28.1016 H   0  0  0  0  0  0  0  0  0  0  0  0
   -3.1380   24.5170  -30.9140 H   0  0  0  0  0  0  0  0  0  0  0  0
   -7.9059   24.6234  -30.0549 H   0  0  0  0  0  0  0  0  0  0  0  0
   -9.6629   22.4259  -30.5979 H   0  0  0  0  0  0  0  0  0  0  0  0
   -9.7013   20.0605  -31.4579 H   0  0  0  0  0  0  0  0  0  0  0  0
   -5.3950   20.2355  -32.1279 H   0  0  0  0  0  0  0  0  0  0  0  0
  1  2  1  0
  2  3  1  0
  2  4  1  0
  4  5  2  0
  4  6  1  0
  6  7  1  0
  7  8  1  0
  8  9  2  0
  8 10  1  0
 10 11  2  0
 10 12  1  0
 12 13  1  0
 13 14  1  0
 14 15  1  0
 14 16  2  0
 13 17  2  0
 17 18  1  0
 18 19  2  0
 19 20  1  0
 20 21  2  0
 21 22  1  0
 22 23  1  0
 22 24  1  0
 22 25  1  0
 21 26  1  0
 26 27  2  0
 27 12  1  0
 27 18  1  0
  1 28  1  0
  1 29  1  0
  1 30  1  0
  2 31  1  0
  3 32  1  0
  3 33  1  0
  3 34  1  0
  6 35  1  0
  6 36  1  0
 15 37  1  0
 17 38  1  0
 19 39  1  0
 20 40  1  0
 26 41  1  0
M  CHG  2   2   1  15  -1
M  END
>  <UniqueID>  (56) 
56

>  <SMILES>  (56) 
C[NH+](C)C(=O)COC(=O)C(=O)n1c(C([NH-])=O)cc2ccc(C(F)(F)F)cc21

>  <Energy>  (56) 
80.18738696752047

>  <Genealogy>  (56) 
C[NH+](C)C(=O)COC(=O)C(=O)n1c(C([NH-])=O)cc2ccc(C(F)(F)F)cc21 (protonated)
C[NH+](C)C(=O)COC(=O)C(=O)n1c(C([NH-])=O)cc2ccc(C(F)(F)F)cc21 (3D coordinates assigned)
C[NH+](C)C(=O)COC(=O)C(=O)n1c(C([NH-])=O)cc2ccc(C(F)(F)F)cc21 (optimized conformer: 80.18738696752047 kcal/mol)

>  <smiles>  (56) 
CN(C)C(=O)COC(=O)C(=O)n1c(C(N)=O)cc2ccc(C(F)(F)F)cc21

>  <score_type>  (56) 
oracle

>  <origin>  (56) 
adg

>  <m_score__min__energy>  (56) 
-9.2599999999999998

>  <m_primary>  (56) 
energy

$$$$
57:0
     RDKit          3D

 57 59  0  0  0  0  0  0  0  0999 V2000
    0.9670   21.1040  -27.8640 C   0  0  0  0  0  0  0  0  0  0  0  0
   -0.0910   22.0170  -28.3150 N   0  0  0  0  0  0  0  0  0  0  0  0
   -0.0880   23.3750  -27.8270 C   0  0  0  0  0  0  0  0  0  0  0  0
    0.7830   24.1860  -28.2410 O   0  0  0  0  0  0  0  0  0  0  0  0
   -1.0600   23.7860  -26.9000 O   0  0  0  0  0  0  0  0  0  0  0  0
   -1.8630   24.9730  -26.9710 C   0  0  0  0  0  0  0  0  0  0  0  0
   -1.7030   25.8110  -25.6880 C   0  0  0  0  0  0  0  0  0  0  0  0
   -3.3290   24.5220  -27.0900 C   0  0  0  0  0  0  0  0  0  0  0  0
   -1.4950   25.8040  -28.2160 C   0  0  0  0  0  0  0  0  0  0  0  0
   -1.1310   21.5610  -29.2590 C   0  0  1  0  0  0  0  0  0  0  0  0
   -2.3490   20.9750  -28.5260 C   0  0  0  0  0  0  0  0  0  0  0  0
   -3.5750   21.7330  -29.0270 C   0  0  0  0  0  0  0  0  0  0  0  0
   -3.0850   22.7260  -29.9660 N   0  0  0  0  0  0  0  0  0  0  0  0
   -3.9310   23.7330  -30.5460 C   0  0  0  0  0  0  0  0  0  0  0  0
   -3.5000   24.9080  -30.6910 O   0  0  0  0  0  0  0  0  0  0  0  0
   -5.2560   23.4090  -30.9850 N   0  0  0  0  0  0  0  0  0  0  0  0
   -6.4130   24.0540  -30.6750 C   0  0  0  0  0  0  0  0  0  0  0  0
   -6.5200   25.3090  -29.9040 C   0  0  0  0  0  0  0  0  0  0  0  0
   -5.6180   26.3960  -30.1140 N   0  0  0  0  0  0  0  0  0  0  0  0
   -7.4490   25.4370  -29.0610 O   0  0  0  0  0  0  0  0  0  0  0  0
   -7.5090   23.3580  -31.1820 C   0  0  0  0  0  0  0  0  0  0  0  0
   -6.9790   22.2560  -31.8160 C   0  0  0  0  0  0  0  0  0  0  0  0
   -7.6120   21.2130  -32.4850 C   0  0  0  0  0  0  0  0  0  0  0  0
   -6.8110   20.1850  -33.0100 C   0  0  0  0  0  0  0  0  0  0  0  0
   -5.4030   20.1990  -32.8340 C   0  0  0  0  0  0  0  0  0  0  0  0
   -4.5580   19.1070  -33.4370 C   0  0  0  0  0  0  0  0  0  0  0  0
   -5.1030   18.6820  -34.6360 F   0  0  0  0  0  0  0  0  0  0  0  0
   -3.2850   19.5930  -33.6680 F   0  0  0  0  0  0  0  0  0  0  0  0
   -4.4760   18.0170  -32.5870 F   0  0  0  0  0  0  0  0  0  0  0  0
   -4.7980   21.2840  -32.1600 C   0  0  0  0  0  0  0  0  0  0  0  0
   -5.6180   22.3060  -31.6730 C   0  0  0  0  0  0  0  0  0  0  0  0
   -1.6440   22.7060  -30.1370 C   0  0  0  0  0  0  0  0  0  0  0  0
    0.9900   21.0841  -26.7644 H   0  0  0  0  0  0  0  0  0  0  0  0
    0.7650   20.0920  -28.2449 H   0  0  0  0  0  0  0  0  0  0  0  0
    1.9385   21.4519  -28.2449 H   0  0  0  0  0  0  0  0  0  0  0  0
   -1.8269   25.1622  -24.8084 H   0  0  0  0  0  0  0  0  0  0  0  0
   -0.7017   26.2661  -25.6698 H   0  0  0  0  0  0  0  0  0  0  0  0
   -2.4662   26.6030  -25.6698 H   0  0  0  0  0  0  0  0  0  0  0  0
   -3.7551   24.3909  -26.0844 H   0  0  0  0  0  0  0  0  0  0  0  0
   -3.9042   25.2847  -27.6354 H   0  0  0  0  0  0  0  0  0  0  0  0
   -3.3760   23.5679  -27.6354 H   0  0  0  0  0  0  0  0  0  0  0  0
   -1.0683   26.7676  -27.9007 H   0  0  0  0  0  0  0  0  0  0  0  0
   -0.7558   25.2551  -28.8179 H   0  0  0  0  0  0  0  0  0  0  0  0
   -2.3983   25.9824  -28.8179 H   0  0  0  0  0  0  0  0  0  0  0  0
   -0.6485   20.7904  -29.8782 H   0  0  0  0  0  0  0  0  0  0  0  0
   -2.4478   19.9033  -28.7535 H   0  0  0  0  0  0  0  0  0  0  0  0
   -2.2401   21.0788  -27.4363 H   0  0  0  0  0  0  0  0  0  0  0  0
   -4.2697   21.0439  -29.5295 H   0  0  0  0  0  0  0  0  0  0  0  0
   -4.1209   22.2038  -28.1961 H   0  0  0  0  0  0  0  0  0  0  0  0
   -5.6530   27.2320  -29.4890 H   0  0  0  0  0  0  0  0  0  0  0  0
   -4.9870   26.4270  -30.9450 H   0  0  0  0  0  0  0  0  0  0  0  0
   -8.5711   23.6307  -31.0945 H   0  0  0  0  0  0  0  0  0  0  0  0
   -8.7059   21.1939  -32.5993 H   0  0  0  0  0  0  0  0  0  0  0  0
   -7.2811   19.3592  -33.5642 H   0  0  0  0  0  0  0  0  0  0  0  0
   -3.7074   21.3233  -32.0219 H   0  0  0  0  0  0  0  0  0  0  0  0
   -1.3866   22.5244  -31.1909 H   0  0  0  0  0  0  0  0  0  0  0  0
   -1.1909   23.6669  -29.8517 H   0  0  0  0  0  0  0  0  0  0  0  0
  1  2  1  0
  2  3  1  0
  3  4  2  0
  3  5  1  0
  5  6  1  0
  6  7  1  0
  6  8  1  0
  6  9  1  0
  2 10  1  0
 10 11  1  0
 11 12  1  0
 12 13  1  0
 13 14  1  0
 14 15  2  0
 14 16  1  0
 16 17  1  0
 17 18  1  0
 18 19  1  0
 18 20  2  0
 17 21  2  0
 21 22  1  0
 22 23  2  0
 23 24  1  0
 24 25  2  0
 25 26  1  0
 26 27  1  0
 26 28  1  0
 26 29  1  0
 25 30  1  0
 30 31  2  0
 13 32  1  0
 32 10  1  0
 31 16  1  0
 31 22  1  0
  1 33  1  0
  1 34  1  0
  1 35  1  0
  7 36  1  0
  7 37  1  0
  7 38  1  0
  8 39  1  0
  8 40  1  0
  8 41  1  0
  9 42  1  0
  9 43  1  0
  9 44  1  0
 10 45  1  6
 11 46  1  0
 11 47  1  0
 12 48  1  0
 12 49  1  0
 19 50  1  0
 19 51  1  0
 21 52  1  0
 23 53  1  0
 24 54  1  0
 30 55  1  0
 32 56  1  0
 32 57  1  0
M  END
>  <UniqueID>  (57) 
57

>  <SMILES>  (57) 
CN(C(=O)OC(C)(C)C)[C@H]1CCN(C(=O)n2c(C(N)=O)cc3ccc(C(F)(F)F)cc32)C1

>  <Energy>  (57) 
93.256400034458

>  <Genealogy>  (57) 
CN(C(=O)OC(C)(C)C)[C@H]1CCN(C(=O)n2c(C(N)=O)cc3ccc(C(F)(F)F)cc32)C1 (3D coordinates assigned)
CN(C(=O)OC(C)(C)C)[C@H]1CCN(C(=O)n2c(C(N)=O)cc3ccc(C(F)(F)F)cc32)C1 (nonaromatic ring conformer: 93.256400034458 kcal/mol)

>  <smiles>  (57) 
CN(C(=O)OC(C)(C)C)[C@H]1CCN(C(=O)n2c(C(N)=O)cc3ccc(C(F)(F)F)cc32)C1

>  <score_type>  (57) 
oracle

>  <origin>  (57) 
adg

>  <m_score__min__energy>  (57) 
-10.25

>  <m_primary>  (57) 
energy

$$$$
58:0
     RDKit          3D

 50 51  0  0  0  0  0  0  0  0999 V2000
   -3.4770   21.9130  -33.4670 C   0  0  0  0  0  0  0  0  0  0  0  0
   -2.9870   22.0350  -32.2340 C   0  0  0  0  0  0  0  0  0  0  0  0
   -3.7520   22.6340  -31.1240 C   0  0  0  0  0  0  0  0  0  0  0  0
   -3.1540   22.9410  -30.0580 O   0  0  0  0  0  0  0  0  0  0  0  0
   -5.1630   22.8740  -31.2320 N   0  0  0  0  0  0  0  0  0  0  0  0
   -5.8370   24.0260  -30.9610 C   0  0  0  0  0  0  0  0  0  0  0  0
   -5.2300   25.3030  -30.5270 C   0  0  0  0  0  0  0  0  0  0  0  0
   -3.8790   25.6240  -30.8500 N   0  0  0  0  0  0  0  0  0  0  0  0
   -5.9150   26.1250  -29.8630 O   0  0  0  0  0  0  0  0  0  0  0  0
   -7.2020   23.8510  -31.1830 C   0  0  0  0  0  0  0  0  0  0  0  0
   -7.3410   22.5440  -31.5960 C   0  0  0  0  0  0  0  0  0  0  0  0
   -8.4800   21.8290  -31.9550 C   0  0  0  0  0  0  0  0  0  0  0  0
   -8.3200   20.4880  -32.3430 C   0  0  0  0  0  0  0  0  0  0  0  0
   -7.0350   19.8880  -32.3640 C   0  0  0  0  0  0  0  0  0  0  0  0
   -6.8840   18.4490  -32.7790 C   0  0  0  0  0  0  0  0  0  0  0  0
   -5.6820   18.2230  -33.7140 C   0  0  0  0  0  0  0  0  0  0  0  0
   -4.6870   17.1560  -33.2110 C   0  0  0  0  0  0  0  0  0  0  0  0
   -3.3550   17.1170  -33.9800 C   0  0  0  0  0  0  0  0  0  0  0  0
   -2.5070   18.2830  -33.6790 N   0  0  0  0  0  0  0  0  0  0  0  0
   -2.6300   18.9750  -32.3930 C   0  0  0  0  0  0  0  0  0  0  0  0
   -1.4830   18.7090  -34.6000 C   0  0  0  0  0  0  0  0  0  0  0  0
   -0.8240   17.8560  -35.2580 O   0  0  0  0  0  0  0  0  0  0  0  0
   -1.2160   20.0770  -34.7590 O   0  0  0  0  0  0  0  0  0  0  0  0
    0.0150   20.6850  -34.3740 C   0  0  0  0  0  0  0  0  0  0  0  0
    0.5340   21.5560  -35.4740 C   0  0  0  0  0  0  0  0  0  0  0  0
    1.0440   22.6760  -35.2090 O   0  0  0  0  0  0  0  0  0  0  0  0
    0.4050   21.1520  -36.7970 O   0  0  0  0  0  0  0  0  0  0  0  0
   -5.9050   20.6420  -31.9790 C   0  0  0  0  0  0  0  0  0  0  0  0
   -6.0940   21.9760  -31.6130 C   0  0  0  0  0  0  0  0  0  0  0  0
   -2.8646   21.4584  -34.2597 H   0  0  0  0  0  0  0  0  0  0  0  0
   -4.4939   22.2668  -33.6922 H   0  0  0  0  0  0  0  0  0  0  0  0
   -1.9674   21.6732  -32.0351 H   0  0  0  0  0  0  0  0  0  0  0  0
   -3.0850   25.0950  -30.4270 H   0  0  0  0  0  0  0  0  0  0  0  0
   -7.9992   24.5981  -31.0555 H   0  0  0  0  0  0  0  0  0  0  0  0
   -9.4743   22.2991  -31.9356 H   0  0  0  0  0  0  0  0  0  0  0  0
   -9.2011   19.8970  -32.6337 H   0  0  0  0  0  0  0  0  0  0  0  0
   -6.7481   17.8349  -31.8765 H   0  0  0  0  0  0  0  0  0  0  0  0
   -7.7922   18.1655  -33.3311 H   0  0  0  0  0  0  0  0  0  0  0  0
   -6.0626   17.9053  -34.6960 H   0  0  0  0  0  0  0  0  0  0  0  0
   -5.1317   19.1744  -33.7603 H   0  0  0  0  0  0  0  0  0  0  0  0
   -4.4676   17.3617  -32.1529 H   0  0  0  0  0  0  0  0  0  0  0  0
   -5.1684   16.1793  -33.3669 H   0  0  0  0  0  0  0  0  0  0  0  0
   -2.8115   16.2020  -33.7019 H   0  0  0  0  0  0  0  0  0  0  0  0
   -3.5843   17.1337  -35.0557 H   0  0  0  0  0  0  0  0  0  0  0  0
   -2.5015   18.2521  -31.5739 H   0  0  0  0  0  0  0  0  0  0  0  0
   -1.8561   19.7533  -32.3199 H   0  0  0  0  0  0  0  0  0  0  0  0
   -3.6247   19.4390  -32.3199 H   0  0  0  0  0  0  0  0  0  0  0  0
   -0.1487   21.2965  -33.4744 H   0  0  0  0  0  0  0  0  0  0  0  0
    0.7526   19.8959  -34.1661 H   0  0  0  0  0  0  0  0  0  0  0  0
   -4.9021   20.1902  -31.9677 H   0  0  0  0  0  0  0  0  0  0  0  0
  1  2  2  0
  2  3  1  0
  3  4  2  0
  3  5  1  0
  5  6  1  0
  6  7  1  0
  7  8  1  0
  7  9  2  0
  6 10  2  0
 10 11  1  0
 11 12  2  0
 12 13  1  0
 13 14  2  0
 14 15  1  0
 15 16  1  0
 16 17  1  0
 17 18  1  0
 18 19  1  0
 19 20  1  0
 19 21  1  0
 21 22  2  0
 21 23  1  0
 23 24  1  0
 24 25  1  0
 25 26  2  0
 25 27  1  0
 14 28  1  0
 28 29  2  0
 29  5  1  0
 29 11  1  0
  1 30  1  0
  1 31  1  0
  2 32  1  0
  8 33  1  0
 10 34  1  0
 12 35  1  0
 13 36  1  0
 15 37  1  0
 15 38  1  0
 16 39  1  0
 16 40  1  0
 17 41  1  0
 17 42  1  0
 18 43  1  0
 18 44  1  0
 20 45  1  0
 20 46  1  0
 20 47  1  0
 24 48  1  0
 24 49  1  0
 28 50  1  0
M  CHG  2   8  -1  27  -1
M  END
>  <UniqueID>  (58) 
58

>  <SMILES>  (58) 
C=CC(=O)n1c(C([NH-])=O)cc2ccc(CCCCN(C)C(=O)OCC(=O)[O-])cc21

>  <Energy>  (58) 
77.23086133427363

>  <Genealogy>  (58) 
C=CC(=O)n1c(C([NH-])=O)cc2ccc(CCCCN(C)C(=O)OCC(=O)[O-])cc21 (protonated)
C=CC(=O)n1c(C([NH-])=O)cc2ccc(CCCCN(C)C(=O)OCC(=O)[O-])cc21 (3D coordinates assigned)
C=CC(=O)n1c(C([NH-])=O)cc2ccc(CCCCN(C)C(=O)OCC(=O)[O-])cc21 (optimized conformer: 77.23086133427363 kcal/mol)

>  <smiles>  (58) 
C=CC(=O)n1c(C(N)=O)cc2ccc(CCCCN(C)C(=O)OCC(=O)O)cc21

>  <score_type>  (58) 
oracle

>  <origin>  (58) 
adg

>  <m_score__min__energy>  (58) 
-11.41

>  <m_primary>  (58) 
energy

$$$$
59:0
     RDKit          3D

 44 45  0  0  0  0  0  0  0  0999 V2000
   -0.0790   19.4010  -35.3010 C   0  0  0  0  0  0  0  0  0  0  0  0
   -0.9820   19.7400  -34.1960 N   0  0  0  0  0  0  0  0  0  0  0  0
   -2.0130   18.7890  -33.7690 C   0  0  0  0  0  0  0  0  0  0  0  0
   -0.8550   21.0300  -33.5580 C   0  0  0  0  0  0  0  0  0  0  0  0
   -0.1340   21.9190  -34.0900 O   0  0  0  0  0  0  0  0  0  0  0  0
   -1.5120   21.3400  -32.2390 C   0  0  0  0  0  0  0  0  0  0  0  0
   -2.8690   21.9510  -32.4560 C   0  0  0  0  0  0  0  0  0  0  0  0
   -3.4170   21.8530  -33.5870 O   0  0  0  0  0  0  0  0  0  0  0  0
   -3.5710   22.6660  -31.3710 C   0  0  0  0  0  0  0  0  0  0  0  0
   -2.9150   23.1380  -30.4040 O   0  0  0  0  0  0  0  0  0  0  0  0
   -4.9960   22.8340  -31.4060 N   0  0  0  0  0  0  0  0  0  0  0  0
   -5.7200   23.8890  -30.9390 C   0  0  0  0  0  0  0  0  0  0  0  0
   -5.1660   25.1570  -30.4220 C   0  0  0  0  0  0  0  0  0  0  0  0
   -3.8880   25.6260  -30.8440 N   0  0  0  0  0  0  0  0  0  0  0  0
   -5.8400   25.8500  -29.6140 O   0  0  0  0  0  0  0  0  0  0  0  0
   -7.0850   23.6360  -31.0620 C   0  0  0  0  0  0  0  0  0  0  0  0
   -7.1730   22.3830  -31.6260 C   0  0  0  0  0  0  0  0  0  0  0  0
   -8.2910   21.6300  -31.9590 C   0  0  0  0  0  0  0  0  0  0  0  0
   -8.0880   20.3530  -32.5070 C   0  0  0  0  0  0  0  0  0  0  0  0
   -6.7760   19.8360  -32.7060 C   0  0  0  0  0  0  0  0  0  0  0  0
   -6.5760   18.5180  -33.2840 N   0  0  0  0  0  0  0  0  0  0  0  0
   -7.2300   17.3380  -32.7020 C   0  0  0  0  0  0  0  0  0  0  0  0
   -5.7370   18.3460  -34.4750 C   0  0  0  0  0  0  0  0  0  0  0  0
   -5.6660   20.6400  -32.3350 C   0  0  0  0  0  0  0  0  0  0  0  0
   -5.9010   21.9180  -31.8170 C   0  0  0  0  0  0  0  0  0  0  0  0
    0.8782   19.0417  -34.8952 H   0  0  0  0  0  0  0  0  0  0  0  0
   -0.5347   18.6127  -35.9182 H   0  0  0  0  0  0  0  0  0  0  0  0
    0.0967   20.2944  -35.9182 H   0  0  0  0  0  0  0  0  0  0  0  0
   -2.0488   18.7560  -32.6701 H   0  0  0  0  0  0  0  0  0  0  0  0
   -2.9908   19.1090  -34.1583 H   0  0  0  0  0  0  0  0  0  0  0  0
   -1.7729   17.7886  -34.1583 H   0  0  0  0  0  0  0  0  0  0  0  0
   -1.6221   20.4099  -31.6622 H   0  0  0  0  0  0  0  0  0  0  0  0
   -0.8838   22.0560  -31.6888 H   0  0  0  0  0  0  0  0  0  0  0  0
   -3.0130   25.2970  -30.3820 H   0  0  0  0  0  0  0  0  0  0  0  0
   -7.9150   24.2965  -30.7707 H   0  0  0  0  0  0  0  0  0  0  0  0
   -9.3061   22.0222  -31.7983 H   0  0  0  0  0  0  0  0  0  0  0  0
   -8.9580   19.7411  -32.7876 H   0  0  0  0  0  0  0  0  0  0  0  0
   -7.1941   17.4028  -31.6045 H   0  0  0  0  0  0  0  0  0  0  0  0
   -8.2783   17.2993  -33.0329 H   0  0  0  0  0  0  0  0  0  0  0  0
   -6.7072   16.4285  -33.0329 H   0  0  0  0  0  0  0  0  0  0  0  0
   -4.7025   18.1339  -34.1672 H   0  0  0  0  0  0  0  0  0  0  0  0
   -6.1201   17.5077  -35.0754 H   0  0  0  0  0  0  0  0  0  0  0  0
   -5.7593   19.2674  -35.0754 H   0  0  0  0  0  0  0  0  0  0  0  0
   -4.6389   20.2643  -32.4529 H   0  0  0  0  0  0  0  0  0  0  0  0
  1  2  1  0
  2  3  1  0
  2  4  1  0
  4  5  2  0
  4  6  1  0
  6  7  1  0
  7  8  2  0
  7  9  1  0
  9 10  2  0
  9 11  1  0
 11 12  1  0
 12 13  1  0
 13 14  1  0
 13 15  2  0
 12 16  2  0
 16 17  1  0
 17 18  2  0
 18 19  1  0
 19 20  2  0
 20 21  1  0
 21 22  1  0
 21 23  1  0
 20 24  1  0
 24 25  2  0
 25 11  1  0
 25 17  1  0
  1 26  1  0
  1 27  1  0
  1 28  1  0
  3 29  1  0
  3 30  1  0
  3 31  1  0
  6 32  1  0
  6 33  1  0
 14 34  1  0
 16 35  1  0
 18 36  1  0
 19 37  1  0
 22 38  1  0
 22 39  1  0
 22 40  1  0
 23 41  1  0
 23 42  1  0
 23 43  1  0
 24 44  1  0
M  CHG  1  14  -1
M  END
>  <UniqueID>  (59) 
59

>  <SMILES>  (59) 
CN(C)C(=O)CC(=O)C(=O)n1c(C([NH-])=O)cc2ccc(N(C)C)cc21

>  <Energy>  (59) 
78.38979789290076

>  <Genealogy>  (59) 
CN(C)C(=O)CC(=O)C(=O)n1c(C([NH-])=O)cc2ccc(N(C)C)cc21 (protonated)
CN(C)C(=O)CC(=O)C(=O)n1c(C([NH-])=O)cc2ccc(N(C)C)cc21 (3D coordinates assigned)
CN(C)C(=O)CC(=O)C(=O)n1c(C([NH-])=O)cc2ccc(N(C)C)cc21 (optimized conformer: 78.38979789290076 kcal/mol)

>  <smiles>  (59) 
CN(C)C(=O)CC(=O)C(=O)n1c(C(N)=O)cc2ccc(N(C)C)cc21

>  <score_type>  (59) 
oracle

>  <origin>  (59) 
adg

>  <m_score__min__energy>  (59) 
-10.57

>  <m_primary>  (59) 
energy

$$$$
60:0
     RDKit          3D

 38 39  0  0  0  0  0  0  0  0999 V2000
   -6.5070   24.1560  -32.3670 C   0  0  0  0  0  0  0  0  0  0  0  0
   -6.5540   23.9850  -30.9110 N   0  0  0  0  0  0  0  0  0  0  0  0
   -6.7390   25.1550  -30.0480 C   0  0  0  0  0  0  0  0  0  0  0  0
   -6.3190   22.6960  -30.2980 C   0  0  0  0  0  0  0  0  0  0  0  0
   -6.0120   22.6420  -29.0750 O   0  0  0  0  0  0  0  0  0  0  0  0
   -6.4280   21.4250  -31.0470 C   0  0  0  0  0  0  0  0  0  0  0  0
   -7.4750   20.7300  -30.9770 O   0  0  0  0  0  0  0  0  0  0  0  0
   -5.3180   20.9490  -31.8270 N   0  0  0  0  0  0  0  0  0  0  0  0
   -5.3590   20.1200  -32.9090 C   0  0  0  0  0  0  0  0  0  0  0  0
   -6.5730   19.4440  -33.4210 C   0  0  0  0  0  0  0  0  0  0  0  0
   -7.8310   20.1220  -33.4590 N   0  0  0  0  0  0  0  0  0  0  0  0
   -6.5040   18.2620  -33.8500 O   0  0  0  0  0  0  0  0  0  0  0  0
   -4.0770   19.9360  -33.4270 C   0  0  0  0  0  0  0  0  0  0  0  0
   -3.2480   20.6900  -32.6270 C   0  0  0  0  0  0  0  0  0  0  0  0
   -1.8700   20.8770  -32.6900 C   0  0  0  0  0  0  0  0  0  0  0  0
   -1.2780   21.7290  -31.7420 C   0  0  0  0  0  0  0  0  0  0  0  0
   -2.0700   22.3910  -30.7690 C   0  0  0  0  0  0  0  0  0  0  0  0
   -1.4300   23.2800  -29.7350 C   0  0  2  0  0  0  0  0  0  0  0  0
   -1.1610   22.5690  -28.5790 F   0  0  0  0  0  0  0  0  0  0  0  0
   -2.5260   24.6780  -29.3440 P   0  0  0  0  0  0  0  0  0  0  0  0
   -3.3890   24.3310  -28.1520 O   0  0  0  0  0  0  0  0  0  0  0  0
   -1.6010   26.0480  -28.9880 O   0  0  0  0  0  0  0  0  0  0  0  0
   -3.5160   25.0020  -30.6760 O   0  0  0  0  0  0  0  0  0  0  0  0
   -3.4650   22.1660  -30.7320 C   0  0  0  0  0  0  0  0  0  0  0  0
   -4.0220   21.2940  -31.6730 C   0  0  0  0  0  0  0  0  0  0  0  0
   -6.2224   25.1914  -32.6056 H   0  0  0  0  0  0  0  0  0  0  0  0
   -5.7656   23.4644  -32.7937 H   0  0  0  0  0  0  0  0  0  0  0  0
   -7.4977   23.9404  -32.7937 H   0  0  0  0  0  0  0  0  0  0  0  0
   -6.6899   24.8445  -28.9939 H   0  0  0  0  0  0  0  0  0  0  0  0
   -5.9458   25.8896  -30.2512 H   0  0  0  0  0  0  0  0  0  0  0  0
   -7.7201   25.6090  -30.2512 H   0  0  0  0  0  0  0  0  0  0  0  0
   -8.6690   19.6460  -33.8570 H   0  0  0  0  0  0  0  0  0  0  0  0
   -7.9480   21.0770  -33.0540 H   0  0  0  0  0  0  0  0  0  0  0  0
   -3.7893   19.3193  -34.2913 H   0  0  0  0  0  0  0  0  0  0  0  0
   -1.2636   20.3738  -33.4575 H   0  0  0  0  0  0  0  0  0  0  0  0
   -0.1891   21.8841  -31.7546 H   0  0  0  0  0  0  0  0  0  0  0  0
   -0.4844   23.6608  -30.1483 H   0  0  0  0  0  0  0  0  0  0  0  0
   -4.0967   22.6643  -29.9819 H   0  0  0  0  0  0  0  0  0  0  0  0
  1  2  1  0
  2  3  1  0
  2  4  1  0
  4  5  2  0
  4  6  1  0
  6  7  2  0
  6  8  1  0
  8  9  1  0
  9 10  1  0
 10 11  1  0
 10 12  2  0
  9 13  2  0
 13 14  1  0
 14 15  2  0
 15 16  1  0
 16 17  2  0
 17 18  1  0
 18 19  1  0
 18 20  1  0
 20 21  2  0
 20 22  1  0
 20 23  1  0
 17 24  1  0
 24 25  2  0
 25  8  1  0
 25 14  1  0
  1 26  1  0
  1 27  1  0
  1 28  1  0
  3 29  1  0
  3 30  1  0
  3 31  1  0
 11 32  1  0
 11 33  1  0
 13 34  1  0
 15 35  1  0
 16 36  1  0
 18 37  1  6
 24 38  1  0
M  CHG  2  22  -1  23  -1
M  END
>  <UniqueID>  (60) 
60

>  <SMILES>  (60) 
CN(C)C(=O)C(=O)n1c(C(N)=O)cc2ccc([C@H](F)P(=O)([O-])[O-])cc21

>  <Energy>  (60) 
72.85292484486963

>  <Genealogy>  (60) 
CN(C)C(=O)C(=O)n1c(C(N)=O)cc2ccc(C(F)P(=O)([O-])[O-])cc21 (protonated)
CN(C)C(=O)C(=O)n1c(C(N)=O)cc2ccc([C@H](F)P(=O)([O-])[O-])cc21 (chirality)
CN(C)C(=O)C(=O)n1c(C(N)=O)cc2ccc([C@H](F)P(=O)([O-])[O-])cc21 (3D coordinates assigned)
CN(C)C(=O)C(=O)n1c(C(N)=O)cc2ccc([C@H](F)P(=O)([O-])[O-])cc21 (optimized conformer: 72.85292484486963 kcal/mol)

>  <smiles>  (60) 
CN(C)C(=O)C(=O)n1c(C(N)=O)cc2ccc(C(F)P(=O)(O)O)cc21

>  <score_type>  (60) 
oracle

>  <origin>  (60) 
adg

>  <m_score__min__energy>  (60) 
-11.84

>  <m_primary>  (60) 
energy

$$$$
61:0
     RDKit          3D

 39 40  0  0  0  0  0  0  0  0999 V2000
   -2.7430   24.9300  -26.1740 C   0  0  0  0  0  0  0  0  0  0  0  0
   -2.1520   25.1240  -27.5030 N   0  0  0  0  0  0  0  0  0  0  0  0
   -1.1950   26.2110  -27.7310 C   0  0  0  0  0  0  0  0  0  0  0  0
   -2.4960   24.2510  -28.6020 C   0  0  0  0  0  0  0  0  0  0  0  0
   -1.9450   24.4120  -29.7260 O   0  0  0  0  0  0  0  0  0  0  0  0
   -3.5170   23.1560  -28.4570 C   0  0  0  0  0  0  0  0  0  0  0  0
   -3.4730   22.2770  -29.5770 O   0  0  0  0  0  0  0  0  0  0  0  0
   -3.9990   22.6010  -30.8340 C   0  0  0  0  0  0  0  0  0  0  0  0
   -3.2330   22.7430  -31.8250 O   0  0  0  0  0  0  0  0  0  0  0  0
   -5.4160   22.7740  -30.9880 N   0  0  0  0  0  0  0  0  0  0  0  0
   -6.1150   23.9430  -30.9270 C   0  0  0  0  0  0  0  0  0  0  0  0
   -5.5740   25.2530  -30.5100 C   0  0  0  0  0  0  0  0  0  0  0  0
   -4.2230   25.6200  -30.7930 N   0  0  0  0  0  0  0  0  0  0  0  0
   -6.3000   26.0380  -29.8450 O   0  0  0  0  0  0  0  0  0  0  0  0
   -7.4480   23.7400  -31.2690 C   0  0  0  0  0  0  0  0  0  0  0  0
   -7.5530   22.3940  -31.5360 C   0  0  0  0  0  0  0  0  0  0  0  0
   -8.6560   21.6460  -31.9380 C   0  0  0  0  0  0  0  0  0  0  0  0
   -8.4680   20.2750  -32.1820 C   0  0  0  0  0  0  0  0  0  0  0  0
   -7.1880   19.6860  -32.0420 C   0  0  0  0  0  0  0  0  0  0  0  0
   -7.0050   18.2170  -32.2870 C   0  0  0  0  0  0  0  0  0  0  0  0
   -6.1220   17.9670  -33.8120 Cl  0  0  0  0  0  0  0  0  0  0  0  0
   -6.0930   20.4740  -31.6210 C   0  0  0  0  0  0  0  0  0  0  0  0
   -6.3120   21.8330  -31.3630 C   0  0  0  0  0  0  0  0  0  0  0  0
   -1.9982   25.1745  -25.4023 H   0  0  0  0  0  0  0  0  0  0  0  0
   -3.6170   25.5884  -26.0617 H   0  0  0  0  0  0  0  0  0  0  0  0
   -3.0568   23.8817  -26.0617 H   0  0  0  0  0  0  0  0  0  0  0  0
   -0.8491   26.6039  -26.7635 H   0  0  0  0  0  0  0  0  0  0  0  0
   -0.3348   25.8288  -28.3003 H   0  0  0  0  0  0  0  0  0  0  0  0
   -1.6831   27.0158  -28.3003 H   0  0  0  0  0  0  0  0  0  0  0  0
   -3.3066   22.5847  -27.5408 H   0  0  0  0  0  0  0  0  0  0  0  0
   -4.5176   23.6096  -28.4017 H   0  0  0  0  0  0  0  0  0  0  0  0
   -3.5490   24.9310  -31.1940 H   0  0  0  0  0  0  0  0  0  0  0  0
   -3.8710   26.5660  -30.5280 H   0  0  0  0  0  0  0  0  0  0  0  0
   -8.2474   24.4942  -31.3160 H   0  0  0  0  0  0  0  0  0  0  0  0
   -9.6441   22.1136  -32.0608 H   0  0  0  0  0  0  0  0  0  0  0  0
   -9.3235   19.6533  -32.4847 H   0  0  0  0  0  0  0  0  0  0  0  0
   -6.4329   17.7766  -31.4571 H   0  0  0  0  0  0  0  0  0  0  0  0
   -7.9909   17.7339  -32.3542 H   0  0  0  0  0  0  0  0  0  0  0  0
   -5.0936   20.0310  -31.4990 H   0  0  0  0  0  0  0  0  0  0  0  0
  1  2  1  0
  2  3  1  0
  2  4  1  0
  4  5  2  0
  4  6  1  0
  6  7  1  0
  7  8  1  0
  8  9  2  0
  8 10  1  0
 10 11  1  0
 11 12  1  0
 12 13  1  0
 12 14  2  0
 11 15  2  0
 15 16  1  0
 16 17  2  0
 17 18  1  0
 18 19  2  0
 19 20  1  0
 20 21  1  0
 19 22  1  0
 22 23  2  0
 23 10  1  0
 23 16  1  0
  1 24  1  0
  1 25  1  0
  1 26  1  0
  3 27  1  0
  3 28  1  0
  3 29  1  0
  6 30  1  0
  6 31  1  0
 13 32  1  0
 13 33  1  0
 15 34  1  0
 17 35  1  0
 18 36  1  0
 20 37  1  0
 20 38  1  0
 22 39  1  0
M  END
>  <UniqueID>  (61) 
61

>  <SMILES>  (61) 
CN(C)C(=O)COC(=O)n1c(C(N)=O)cc2ccc(CCl)cc21

>  <Energy>  (61) 
72.18461674912504

>  <Genealogy>  (61) 
CN(C)C(=O)COC(=O)n1c(C(N)=O)cc2ccc(CCl)cc21 (3D coordinates assigned)
CN(C)C(=O)COC(=O)n1c(C(N)=O)cc2ccc(CCl)cc21 (optimized conformer: 72.18461674912504 kcal/mol)

>  <smiles>  (61) 
CN(C)C(=O)COC(=O)n1c(C(N)=O)cc2ccc(CCl)cc21

>  <score_type>  (61) 
oracle

>  <origin>  (61) 
adg

>  <m_score__min__energy>  (61) 
-9.2300000000000004

>  <m_primary>  (61) 
energy

$$$$
62:0
     RDKit          3D

 37 38  0  0  0  0  0  0  0  0999 V2000
   -8.0180   18.5230  -32.1870 C   0  0  0  0  0  0  0  0  0  0  0  0
   -7.9220   20.0050  -31.9730 C   0  0  0  0  0  0  0  0  0  0  0  0
   -9.0850   20.8110  -32.0470 C   0  0  0  0  0  0  0  0  0  0  0  0
   -9.0100   22.1960  -31.8210 C   0  0  0  0  0  0  0  0  0  0  0  0
   -7.7690   22.7390  -31.5020 C   0  0  0  0  0  0  0  0  0  0  0  0
   -7.4130   24.0440  -31.2500 C   0  0  0  0  0  0  0  0  0  0  0  0
   -6.0450   24.0090  -30.9820 C   0  0  0  0  0  0  0  0  0  0  0  0
   -5.2700   25.1970  -30.5650 C   0  0  0  0  0  0  0  0  0  0  0  0
   -3.8700   25.2820  -30.8120 N   0  0  0  0  0  0  0  0  0  0  0  0
   -5.8450   26.1260  -29.9370 O   0  0  0  0  0  0  0  0  0  0  0  0
   -5.5720   22.7330  -31.0760 N   0  0  0  0  0  0  0  0  0  0  0  0
   -4.2140   22.2820  -30.9510 C   0  0  0  0  0  0  0  0  0  0  0  0
   -3.8200   21.7550  -29.8750 O   0  0  0  0  0  0  0  0  0  0  0  0
   -3.3250   22.4640  -32.0130 O   0  0  0  0  0  0  0  0  0  0  0  0
   -2.1130   21.7320  -32.1460 C   0  0  0  0  0  0  0  0  0  0  0  0
   -1.2420   22.0190  -30.9670 C   0  0  0  0  0  0  0  0  0  0  0  0
   -0.2120   21.3220  -30.7640 O   0  0  0  0  0  0  0  0  0  0  0  0
   -1.5720   23.0990  -30.0840 N   0  0  0  0  0  0  0  0  0  0  0  0
   -0.6950   23.4780  -28.9770 C   0  0  0  0  0  0  0  0  0  0  0  0
   -0.7480   24.9560  -28.7480 C   0  0  0  0  0  0  0  0  0  0  0  0
   -1.6290   25.6530  -29.3180 O   0  0  0  0  0  0  0  0  0  0  0  0
    0.1380   25.5550  -27.8630 O   0  0  0  0  0  0  0  0  0  0  0  0
   -6.6400   21.9680  -31.3920 C   0  0  0  0  0  0  0  0  0  0  0  0
   -6.6830   20.5880  -31.6340 C   0  0  0  0  0  0  0  0  0  0  0  0
   -8.0510   18.0132  -31.2128 H   0  0  0  0  0  0  0  0  0  0  0  0
   -8.9329   18.2927  -32.7525 H   0  0  0  0  0  0  0  0  0  0  0  0
   -7.1404   18.1766  -32.7525 H   0  0  0  0  0  0  0  0  0  0  0  0
  -10.0548   20.3487  -32.2833 H   0  0  0  0  0  0  0  0  0  0  0  0
   -9.9049   22.8315  -31.8940 H   0  0  0  0  0  0  0  0  0  0  0  0
   -8.0684   24.9274  -31.2582 H   0  0  0  0  0  0  0  0  0  0  0  0
   -3.3120   24.4300  -31.0410 H   0  0  0  0  0  0  0  0  0  0  0  0
   -2.3347   20.6554  -32.1878 H   0  0  0  0  0  0  0  0  0  0  0  0
   -1.5976   22.0297  -33.0711 H   0  0  0  0  0  0  0  0  0  0  0  0
   -2.4550   23.6330  -30.2570 H   0  0  0  0  0  0  0  0  0  0  0  0
   -1.0200   22.9584  -28.0636 H   0  0  0  0  0  0  0  0  0  0  0  0
    0.3376   23.1939  -29.2282 H   0  0  0  0  0  0  0  0  0  0  0  0
   -5.7728   19.9746  -31.5613 H   0  0  0  0  0  0  0  0  0  0  0  0
  1  2  1  0
  2  3  2  0
  3  4  1  0
  4  5  2  0
  5  6  1  0
  6  7  2  0
  7  8  1  0
  8  9  1  0
  8 10  2  0
  7 11  1  0
 11 12  1  0
 12 13  2  0
 12 14  1  0
 14 15  1  0
 15 16  1  0
 16 17  2  0
 16 18  1  0
 18 19  1  0
 19 20  1  0
 20 21  2  0
 20 22  1  0
 11 23  1  0
 23 24  2  0
 24  2  1  0
 23  5  1  0
  1 25  1  0
  1 26  1  0
  1 27  1  0
  3 28  1  0
  4 29  1  0
  6 30  1  0
  9 31  1  0
 15 32  1  0
 15 33  1  0
 18 34  1  0
 19 35  1  0
 19 36  1  0
 24 37  1  0
M  CHG  2   9  -1  22  -1
M  END
>  <UniqueID>  (62) 
62

>  <SMILES>  (62) 
Cc1ccc2cc(C([NH-])=O)n(C(=O)OCC(=O)NCC(=O)[O-])c2c1

>  <Energy>  (62) 
68.53004553386704

>  <Genealogy>  (62) 
Cc1ccc2cc(C([NH-])=O)n(C(=O)OCC(=O)NCC(=O)[O-])c2c1 (protonated)
Cc1ccc2cc(C([NH-])=O)n(C(=O)OCC(=O)NCC(=O)[O-])c2c1 (3D coordinates assigned)
Cc1ccc2cc(C([NH-])=O)n(C(=O)OCC(=O)NCC(=O)[O-])c2c1 (optimized conformer: 68.53004553386704 kcal/mol)

>  <smiles>  (62) 
Cc1ccc2cc(C(N)=O)n(C(=O)OCC(=O)NCC(=O)O)c2c1

>  <score_type>  (62) 
oracle

>  <origin>  (62) 
adg

>  <m_score__min__energy>  (62) 
-12.08

>  <m_primary>  (62) 
energy

$$$$
63:0
     RDKit          3D

 35 36  0  0  0  0  0  0  0  0999 V2000
   -6.8140   17.2850  -32.8930 C   0  0  0  0  0  0  0  0  0  0  0  0
   -6.9580   18.4460  -32.6020 C   0  0  0  0  0  0  0  0  0  0  0  0
   -7.1290   19.8330  -32.2540 C   0  0  0  0  0  0  0  0  0  0  0  0
   -8.4190   20.4120  -32.2770 C   0  0  0  0  0  0  0  0  0  0  0  0
   -8.6000   21.7620  -31.9300 C   0  0  0  0  0  0  0  0  0  0  0  0
   -7.4730   22.5010  -31.5750 C   0  0  0  0  0  0  0  0  0  0  0  0
   -7.3620   23.8120  -31.1700 C   0  0  0  0  0  0  0  0  0  0  0  0
   -6.0030   24.0090  -30.9230 C   0  0  0  0  0  0  0  0  0  0  0  0
   -5.4250   25.3010  -30.4950 C   0  0  0  0  0  0  0  0  0  0  0  0
   -4.0920   25.6610  -30.8470 N   0  0  0  0  0  0  0  0  0  0  0  0
   -6.1250   26.1070  -29.8270 O   0  0  0  0  0  0  0  0  0  0  0  0
   -5.3050   22.8660  -31.1720 N   0  0  0  0  0  0  0  0  0  0  0  0
   -3.9030   22.6320  -30.9720 C   0  0  0  0  0  0  0  0  0  0  0  0
   -3.1090   22.8700  -31.9200 O   0  0  0  0  0  0  0  0  0  0  0  0
   -3.4130   22.1430  -29.6600 C   0  0  0  0  0  0  0  0  0  0  0  0
   -3.3110   20.8960  -29.5010 O   0  0  0  0  0  0  0  0  0  0  0  0
   -3.0590   23.0190  -28.5610 N   0  0  0  0  0  0  0  0  0  0  0  0
   -4.1500   23.6330  -27.7950 C   0  0  0  0  0  0  0  0  0  0  0  0
   -1.6660   23.2530  -28.1400 C   0  0  0  0  0  0  0  0  0  0  0  0
   -1.1360   24.5250  -28.7290 C   0  0  0  0  0  0  0  0  0  0  0  0
   -1.9080   25.3110  -29.3360 O   0  0  0  0  0  0  0  0  0  0  0  0
    0.1990   24.8700  -28.5560 O   0  0  0  0  0  0  0  0  0  0  0  0
   -6.2170   21.9510  -31.5630 C   0  0  0  0  0  0  0  0  0  0  0  0
   -6.0090   20.6060  -31.8870 C   0  0  0  0  0  0  0  0  0  0  0  0
   -6.6826   16.2256  -33.1585 H   0  0  0  0  0  0  0  0  0  0  0  0
   -9.2866   19.8018  -32.5684 H   0  0  0  0  0  0  0  0  0  0  0  0
   -9.5997   22.2208  -31.9384 H   0  0  0  0  0  0  0  0  0  0  0  0
   -8.1726   24.5480  -31.0637 H   0  0  0  0  0  0  0  0  0  0  0  0
   -3.3390   24.9410  -30.9060 H   0  0  0  0  0  0  0  0  0  0  0  0
   -3.9509   23.5209  -26.7190 H   0  0  0  0  0  0  0  0  0  0  0  0
   -4.2179   24.7018  -28.0459 H   0  0  0  0  0  0  0  0  0  0  0  0
   -5.0989   23.1364  -28.0459 H   0  0  0  0  0  0  0  0  0  0  0  0
   -1.6279   23.3209  -27.0428 H   0  0  0  0  0  0  0  0  0  0  0  0
   -1.0463   22.4163  -28.4948 H   0  0  0  0  0  0  0  0  0  0  0  0
   -5.0017   20.1650  -31.8563 H   0  0  0  0  0  0  0  0  0  0  0  0
  1  2  3  0
  2  3  1  0
  3  4  2  0
  4  5  1  0
  5  6  2  0
  6  7  1  0
  7  8  2  0
  8  9  1  0
  9 10  1  0
  9 11  2  0
  8 12  1  0
 12 13  1  0
 13 14  2  0
 13 15  1  0
 15 16  2  0
 15 17  1  0
 17 18  1  0
 17 19  1  0
 19 20  1  0
 20 21  2  0
 20 22  1  0
 12 23  1  0
 23 24  2  0
 24  3  1  0
 23  6  1  0
  1 25  1  0
  4 26  1  0
  5 27  1  0
  7 28  1  0
 10 29  1  0
 18 30  1  0
 18 31  1  0
 18 32  1  0
 19 33  1  0
 19 34  1  0
 24 35  1  0
M  CHG  2  10  -1  22  -1
M  END
>  <UniqueID>  (63) 
63

>  <SMILES>  (63) 
C#Cc1ccc2cc(C([NH-])=O)n(C(=O)C(=O)N(C)CC(=O)[O-])c2c1

>  <Energy>  (63) 
74.36944074920315

>  <Genealogy>  (63) 
C#Cc1ccc2cc(C([NH-])=O)n(C(=O)C(=O)N(C)CC(=O)[O-])c2c1 (protonated)
C#Cc1ccc2cc(C([NH-])=O)n(C(=O)C(=O)N(C)CC(=O)[O-])c2c1 (3D coordinates assigned)
C#Cc1ccc2cc(C([NH-])=O)n(C(=O)C(=O)N(C)CC(=O)[O-])c2c1 (optimized conformer: 74.36944074920315 kcal/mol)

>  <smiles>  (63) 
C#Cc1ccc2cc(C(N)=O)n(C(=O)C(=O)N(C)CC(=O)O)c2c1

>  <score_type>  (63) 
oracle

>  <origin>  (63) 
adg

>  <m_score__min__energy>  (63) 
-13.130000000000001

>  <m_primary>  (63) 
energy

$$$$
64:0
     RDKit          3D

 40 41  0  0  0  0  0  0  0  0999 V2000
   -0.8520   26.4350  -28.0400 C   0  0  0  0  0  0  0  0  0  0  0  0
   -1.6570   25.6760  -28.9850 N   0  0  0  0  0  0  0  0  0  0  0  0
   -1.7400   24.2490  -28.9600 C   0  0  0  0  0  0  0  0  0  0  0  0
   -0.9120   23.5510  -29.6060 O   0  0  0  0  0  0  0  0  0  0  0  0
   -2.8410   23.5810  -28.1980 C   0  0  0  0  0  0  0  0  0  0  0  0
   -2.8530   22.1400  -28.4790 N   0  0  0  0  0  0  0  0  0  0  0  0
   -2.1470   21.2400  -27.5600 C   0  0  0  0  0  0  0  0  0  0  0  0
   -3.4160   21.6620  -29.7250 C   0  0  0  0  0  0  0  0  0  0  0  0
   -3.5430   20.4200  -29.9040 O   0  0  0  0  0  0  0  0  0  0  0  0
   -3.8550   22.5670  -30.8140 C   0  0  0  0  0  0  0  0  0  0  0  0
   -3.0220   23.0970  -31.5950 O   0  0  0  0  0  0  0  0  0  0  0  0
   -5.2520   22.8430  -30.9990 N   0  0  0  0  0  0  0  0  0  0  0  0
   -5.8820   24.0460  -30.8960 C   0  0  0  0  0  0  0  0  0  0  0  0
   -5.2600   25.3140  -30.4610 C   0  0  0  0  0  0  0  0  0  0  0  0
   -3.9290   25.6500  -30.8440 N   0  0  0  0  0  0  0  0  0  0  0  0
   -5.9050   26.1040  -29.7210 O   0  0  0  0  0  0  0  0  0  0  0  0
   -7.2320   23.9150  -31.2200 C   0  0  0  0  0  0  0  0  0  0  0  0
   -7.4060   22.5840  -31.5310 C   0  0  0  0  0  0  0  0  0  0  0  0
   -8.5490   21.8960  -31.9270 C   0  0  0  0  0  0  0  0  0  0  0  0
   -8.4290   20.5230  -32.2010 C   0  0  0  0  0  0  0  0  0  0  0  0
   -7.1730   19.8690  -32.1010 C   0  0  0  0  0  0  0  0  0  0  0  0
   -7.0660   18.3870  -32.3560 C   0  0  0  0  0  0  0  0  0  0  0  0
   -8.3070   17.7830  -32.2510 F   0  0  0  0  0  0  0  0  0  0  0  0
   -6.5720   18.1800  -33.6300 F   0  0  0  0  0  0  0  0  0  0  0  0
   -6.2170   17.7930  -31.4400 F   0  0  0  0  0  0  0  0  0  0  0  0
   -6.0400   20.6000  -31.6760 C   0  0  0  0  0  0  0  0  0  0  0  0
   -6.1940   21.9620  -31.3940 C   0  0  0  0  0  0  0  0  0  0  0  0
   -1.1392   26.1642  -27.0133 H   0  0  0  0  0  0  0  0  0  0  0  0
    0.2120   26.2038  -28.1962 H   0  0  0  0  0  0  0  0  0  0  0  0
   -1.0202   27.5108  -28.1962 H   0  0  0  0  0  0  0  0  0  0  0  0
   -2.6849   23.7394  -27.1207 H   0  0  0  0  0  0  0  0  0  0  0  0
   -3.8039   24.0140  -28.5066 H   0  0  0  0  0  0  0  0  0  0  0  0
   -2.3715   21.5262  -26.5219 H   0  0  0  0  0  0  0  0  0  0  0  0
   -2.4768   20.2052  -27.7346 H   0  0  0  0  0  0  0  0  0  0  0  0
   -1.0635   21.3139  -27.7346 H   0  0  0  0  0  0  0  0  0  0  0  0
   -3.1180   25.0650  -30.5430 H   0  0  0  0  0  0  0  0  0  0  0  0
   -7.9960   24.7064  -31.2260 H   0  0  0  0  0  0  0  0  0  0  0  0
   -9.5163   22.4109  -32.0226 H   0  0  0  0  0  0  0  0  0  0  0  0
   -9.3190   19.9481  -32.4965 H   0  0  0  0  0  0  0  0  0  0  0  0
   -5.0610   20.1100  -31.5696 H   0  0  0  0  0  0  0  0  0  0  0  0
  1  2  1  0
  2  3  1  0
  3  4  2  0
  3  5  1  0
  5  6  1  0
  6  7  1  0
  6  8  1  0
  8  9  2  0
  8 10  1  0
 10 11  2  0
 10 12  1  0
 12 13  1  0
 13 14  1  0
 14 15  1  0
 14 16  2  0
 13 17  2  0
 17 18  1  0
 18 19  2  0
 19 20  1  0
 20 21  2  0
 21 22  1  0
 22 23  1  0
 22 24  1  0
 22 25  1  0
 21 26  1  0
 26 27  2  0
 27 12  1  0
 27 18  1  0
  1 28  1  0
  1 29  1  0
  1 30  1  0
  5 31  1  0
  5 32  1  0
  7 33  1  0
  7 34  1  0
  7 35  1  0
 15 36  1  0
 17 37  1  0
 19 38  1  0
 20 39  1  0
 26 40  1  0
M  CHG  2   2  -1  15  -1
M  END
>  <UniqueID>  (64) 
64

>  <SMILES>  (64) 
C[N-]C(=O)CN(C)C(=O)C(=O)n1c(C([NH-])=O)cc2ccc(C(F)(F)F)cc21

>  <Energy>  (64) 
77.51473528488334

>  <Genealogy>  (64) 
C[N-]C(=O)CN(C)C(=O)C(=O)n1c(C([NH-])=O)cc2ccc(C(F)(F)F)cc21 (protonated)
C[N-]C(=O)CN(C)C(=O)C(=O)n1c(C([NH-])=O)cc2ccc(C(F)(F)F)cc21 (3D coordinates assigned)
C[N-]C(=O)CN(C)C(=O)C(=O)n1c(C([NH-])=O)cc2ccc(C(F)(F)F)cc21 (optimized conformer: 77.51473528488334 kcal/mol)

>  <smiles>  (64) 
CNC(=O)CN(C)C(=O)C(=O)n1c(C(N)=O)cc2ccc(C(F)(F)F)cc21

>  <score_type>  (64) 
oracle

>  <origin>  (64) 
adg

>  <m_score__min__energy>  (64) 
-11.449999999999999

>  <m_primary>  (64) 
energy

$$$$
65:0
     RDKit          3D

 56 57  0  0  0  0  0  0  0  0999 V2000
   -4.8850   22.6830  -29.3520 C   0  0  0  0  0  0  0  0  0  0  0  0
   -3.9620   23.1550  -30.4910 C   0  0  2  0  0  0  0  0  0  0  0  0
   -3.5700   24.6020  -30.2830 C   0  0  0  0  0  0  0  0  0  0  0  0
   -4.1580   25.5120  -30.9250 O   0  0  0  0  0  0  0  0  0  0  0  0
   -2.5730   24.9450  -29.3770 O   0  0  0  0  0  0  0  0  0  0  0  0
   -4.5500   22.8880  -31.8360 N   0  0  1  0  0  0  0  0  0  0  0  0
   -3.7340   21.9910  -32.6910 C   0  0  0  0  0  0  0  0  0  0  0  0
   -3.0270   20.8950  -31.8640 C   0  0  0  0  0  0  0  0  0  0  0  0
   -1.5830   21.2750  -31.5070 C   0  0  0  0  0  0  0  0  0  0  0  0
   -0.5980   20.7190  -32.5030 C   0  0  0  0  0  0  0  0  0  0  0  0
   -0.0770   19.4130  -32.3280 C   0  0  0  0  0  0  0  0  0  0  0  0
    0.8670   18.8930  -33.2280 C   0  0  0  0  0  0  0  0  0  0  0  0
    1.2800   19.7040  -34.2810 C   0  0  0  0  0  0  0  0  0  0  0  0
    2.1700   19.4470  -35.2980 C   0  0  0  0  0  0  0  0  0  0  0  0
    2.2040   20.6120  -36.0630 C   0  0  0  0  0  0  0  0  0  0  0  0
    3.1090   20.8000  -37.2160 C   0  0  0  0  0  0  0  0  0  0  0  0
    4.0430   21.8780  -37.2150 N   0  0  0  0  0  0  0  0  0  0  0  0
    3.0440   20.0430  -38.2200 O   0  0  0  0  0  0  0  0  0  0  0  0
    1.3600   21.5490  -35.5420 N   0  0  0  0  0  0  0  0  0  0  0  0
    1.0720   22.8600  -36.0550 C   0  0  0  0  0  0  0  0  0  0  0  0
    1.8840   23.4370  -36.8240 O   0  0  0  0  0  0  0  0  0  0  0  0
   -0.1170   23.4970  -35.7210 O   0  0  0  0  0  0  0  0  0  0  0  0
    0.8040   20.9770  -34.4520 C   0  0  0  0  0  0  0  0  0  0  0  0
   -0.1540   21.5130  -33.5830 C   0  0  0  0  0  0  0  0  0  0  0  0
   -5.8950   22.3710  -31.7030 C   0  0  0  0  0  0  0  0  0  0  0  0
   -6.8830   23.1570  -31.7230 O   0  0  0  0  0  0  0  0  0  0  0  0
   -6.0810   20.9900  -31.5300 O   0  0  0  0  0  0  0  0  0  0  0  0
   -6.9520   20.1490  -32.3000 C   0  0  0  0  0  0  0  0  0  0  0  0
   -8.3880   20.7080  -32.2910 C   0  0  0  0  0  0  0  0  0  0  0  0
   -6.4310   20.0050  -33.7440 C   0  0  0  0  0  0  0  0  0  0  0  0
   -6.9530   18.7660  -31.6310 C   0  0  0  0  0  0  0  0  0  0  0  0
   -4.4219   22.9198  -28.3828 H   0  0  0  0  0  0  0  0  0  0  0  0
   -5.8551   23.1957  -29.4299 H   0  0  0  0  0  0  0  0  0  0  0  0
   -5.0373   21.5964  -29.4299 H   0  0  0  0  0  0  0  0  0  0  0  0
   -3.0362   22.5617  -30.4601 H   0  0  0  0  0  0  0  0  0  0  0  0
   -4.6300   23.8100  -32.3290 H   0  0  0  0  0  0  0  0  0  0  0  0
   -4.3908   21.5103  -33.4310 H   0  0  0  0  0  0  0  0  0  0  0  0
   -2.9609   22.5991  -33.1835 H   0  0  0  0  0  0  0  0  0  0  0  0
   -3.5911   20.7349  -30.9333 H   0  0  0  0  0  0  0  0  0  0  0  0
   -2.9932   19.9812  -32.4754 H   0  0  0  0  0  0  0  0  0  0  0  0
   -1.4959   22.3715  -31.4934 H   0  0  0  0  0  0  0  0  0  0  0  0
   -1.3502   20.8489  -30.5200 H   0  0  0  0  0  0  0  0  0  0  0  0
   -0.4153   18.8007  -31.4791 H   0  0  0  0  0  0  0  0  0  0  0  0
    1.2678   17.8761  -33.1046 H   0  0  0  0  0  0  0  0  0  0  0  0
    2.7350   18.5191  -35.4709 H   0  0  0  0  0  0  0  0  0  0  0  0
    3.7860   22.8100  -37.6110 H   0  0  0  0  0  0  0  0  0  0  0  0
   -0.5508   22.5272  -33.7377 H   0  0  0  0  0  0  0  0  0  0  0  0
   -8.7240   20.8388  -31.2518 H   0  0  0  0  0  0  0  0  0  0  0  0
   -8.4067   21.6791  -32.8074 H   0  0  0  0  0  0  0  0  0  0  0  0
   -9.0583   20.0051  -32.8074 H   0  0  0  0  0  0  0  0  0  0  0  0
   -5.3709   19.7120  -33.7238 H   0  0  0  0  0  0  0  0  0  0  0  0
   -7.0145   19.2344  -34.2692 H   0  0  0  0  0  0  0  0  0  0  0  0
   -6.5359   20.9658  -34.2692 H   0  0  0  0  0  0  0  0  0  0  0  0
   -6.9529   18.8875  -30.5377 H   0  0  0  0  0  0  0  0  0  0  0  0
   -7.8515   18.2108  -31.9381 H   0  0  0  0  0  0  0  0  0  0  0  0
   -6.0553   18.2095  -31.9381 H   0  0  0  0  0  0  0  0  0  0  0  0
  1  2  1  0
  2  3  1  0
  3  4  2  0
  3  5  1  0
  2  6  1  0
  6  7  1  0
  7  8  1  0
  8  9  1  0
  9 10  1  0
 10 11  2  0
 11 12  1  0
 12 13  2  0
 13 14  1  0
 14 15  2  0
 15 16  1  0
 16 17  1  0
 16 18  2  0
 15 19  1  0
 19 20  1  0
 20 21  2  0
 20 22  1  0
 19 23  1  0
 23 24  2  0
  6 25  1  0
 25 26  2  0
 25 27  1  0
 27 28  1  0
 28 29  1  0
 28 30  1  0
 28 31  1  0
 24 10  1  0
 23 13  1  0
  1 32  1  0
  1 33  1  0
  1 34  1  0
  2 35  1  6
  6 36  1  6
  7 37  1  0
  7 38  1  0
  8 39  1  0
  8 40  1  0
  9 41  1  0
  9 42  1  0
 11 43  1  0
 12 44  1  0
 14 45  1  0
 17 46  1  0
 24 47  1  0
 29 48  1  0
 29 49  1  0
 29 50  1  0
 30 51  1  0
 30 52  1  0
 30 53  1  0
 31 54  1  0
 31 55  1  0
 31 56  1  0
M  CHG  4   5  -1   6   1  17  -1  22  -1
M  END
>  <UniqueID>  (65) 
65

>  <SMILES>  (65) 
C[C@H](C(=O)[O-])[N@@H+](CCCc1ccc2cc(C([NH-])=O)n(C(=O)[O-])c2c1)C(=O)OC(C)(C)C

>  <Energy>  (65) 
91.00567674828396

>  <Genealogy>  (65) 
CC(C(=O)[O-])[NH+](CCCc1ccc2cc(C([NH-])=O)n(C(=O)[O-])c2c1)C(=O)OC(C)(C)C (protonated)
C[C@H](C(=O)[O-])[N@@H+](CCCc1ccc2cc(C([NH-])=O)n(C(=O)[O-])c2c1)C(=O)OC(C)(C)C (chirality)
C[C@H](C(=O)[O-])[N@@H+](CCCc1ccc2cc(C([NH-])=O)n(C(=O)[O-])c2c1)C(=O)OC(C)(C)C (3D coordinates assigned)
C[C@H](C(=O)[O-])[N@@H+](CCCc1ccc2cc(C([NH-])=O)n(C(=O)[O-])c2c1)C(=O)OC(C)(C)C (optimized conformer: 91.00567674828396 kcal/mol)

>  <smiles>  (65) 
CC(C(=O)O)N(CCCc1ccc2cc(C(N)=O)n(C(=O)O)c2c1)C(=O)OC(C)(C)C

>  <score_type>  (65) 
oracle

>  <origin>  (65) 
adg

>  <m_score__min__energy>  (65) 
-11.66

>  <m_primary>  (65) 
energy

$$$$
66:0
     RDKit          3D

 38 39  0  0  0  0  0  0  0  0999 V2000
   -1.2220   22.9540  -26.8020 C   0  0  0  0  0  0  0  0  0  0  0  0
   -1.0500   24.2910  -27.3810 N   0  0  0  0  0  0  0  0  0  0  0  0
   -0.6150   25.4080  -26.5360 C   0  0  0  0  0  0  0  0  0  0  0  0
   -1.3200   24.5320  -28.7790 C   0  0  0  0  0  0  0  0  0  0  0  0
   -1.2470   25.7070  -29.2350 O   0  0  0  0  0  0  0  0  0  0  0  0
   -1.7450   23.4170  -29.7010 C   0  0  0  0  0  0  0  0  0  0  0  0
   -3.1590   23.2240  -29.6610 O   0  0  0  0  0  0  0  0  0  0  0  0
   -3.8560   22.4620  -30.6050 C   0  0  0  0  0  0  0  0  0  0  0  0
   -3.2950   21.4850  -31.1750 O   0  0  0  0  0  0  0  0  0  0  0  0
   -5.2220   22.7810  -30.9100 N   0  0  0  0  0  0  0  0  0  0  0  0
   -5.8200   24.0070  -30.8910 C   0  0  0  0  0  0  0  0  0  0  0  0
   -5.2060   25.2650  -30.4140 C   0  0  0  0  0  0  0  0  0  0  0  0
   -3.8920   25.6180  -30.8410 N   0  0  0  0  0  0  0  0  0  0  0  0
   -5.8410   26.0490  -29.6620 O   0  0  0  0  0  0  0  0  0  0  0  0
   -7.1460   23.9110  -31.3070 C   0  0  0  0  0  0  0  0  0  0  0  0
   -7.3470   22.5760  -31.5780 C   0  0  0  0  0  0  0  0  0  0  0  0
   -8.4870   21.9150  -32.0230 C   0  0  0  0  0  0  0  0  0  0  0  0
   -8.4050   20.5290  -32.2340 C   0  0  0  0  0  0  0  0  0  0  0  0
   -7.1850   19.8330  -32.0240 C   0  0  0  0  0  0  0  0  0  0  0  0
   -7.1200   18.3400  -32.2180 C   0  0  0  0  0  0  0  0  0  0  0  0
   -6.2090   17.7720  -31.3450 F   0  0  0  0  0  0  0  0  0  0  0  0
   -6.7300   18.0320  -33.5100 F   0  0  0  0  0  0  0  0  0  0  0  0
   -8.3690   17.7960  -31.9830 F   0  0  0  0  0  0  0  0  0  0  0  0
   -6.0540   20.5390  -31.5480 C   0  0  0  0  0  0  0  0  0  0  0  0
   -6.1710   21.9160  -31.3290 C   0  0  0  0  0  0  0  0  0  0  0  0
   -1.2128   23.0258  -25.7044 H   0  0  0  0  0  0  0  0  0  0  0  0
   -2.1819   22.5315  -27.1337 H   0  0  0  0  0  0  0  0  0  0  0  0
   -0.4003   22.3023  -27.1337 H   0  0  0  0  0  0  0  0  0  0  0  0
   -0.7231   25.1305  -25.4771 H   0  0  0  0  0  0  0  0  0  0  0  0
    0.4391   25.6397  -26.7486 H   0  0  0  0  0  0  0  0  0  0  0  0
   -1.2347   26.2916  -26.7486 H   0  0  0  0  0  0  0  0  0  0  0  0
   -1.4462   23.6684  -30.7294 H   0  0  0  0  0  0  0  0  0  0  0  0
   -1.2574   22.4877  -29.3713 H   0  0  0  0  0  0  0  0  0  0  0  0
   -3.0520   25.2960  -30.3120 H   0  0  0  0  0  0  0  0  0  0  0  0
   -7.8769   24.7278  -31.3993 H   0  0  0  0  0  0  0  0  0  0  0  0
   -9.4244   22.4613  -32.2042 H   0  0  0  0  0  0  0  0  0  0  0  0
   -9.2961   19.9760  -32.5658 H   0  0  0  0  0  0  0  0  0  0  0  0
   -5.1052   20.0171  -31.3548 H   0  0  0  0  0  0  0  0  0  0  0  0
  1  2  1  0
  2  3  1  0
  2  4  1  0
  4  5  2  0
  4  6  1  0
  6  7  1  0
  7  8  1  0
  8  9  2  0
  8 10  1  0
 10 11  1  0
 11 12  1  0
 12 13  1  0
 12 14  2  0
 11 15  2  0
 15 16  1  0
 16 17  2  0
 17 18  1  0
 18 19  2  0
 19 20  1  0
 20 21  1  0
 20 22  1  0
 20 23  1  0
 19 24  1  0
 24 25  2  0
 25 10  1  0
 25 16  1  0
  1 26  1  0
  1 27  1  0
  1 28  1  0
  3 29  1  0
  3 30  1  0
  3 31  1  0
  6 32  1  0
  6 33  1  0
 13 34  1  0
 15 35  1  0
 17 36  1  0
 18 37  1  0
 24 38  1  0
M  CHG  1  13  -1
M  END
>  <UniqueID>  (66) 
66

>  <SMILES>  (66) 
CN(C)C(=O)COC(=O)n1c(C([NH-])=O)cc2ccc(C(F)(F)F)cc21

>  <Energy>  (66) 
73.48885504805244

>  <Genealogy>  (66) 
CN(C)C(=O)COC(=O)n1c(C([NH-])=O)cc2ccc(C(F)(F)F)cc21 (protonated)
CN(C)C(=O)COC(=O)n1c(C([NH-])=O)cc2ccc(C(F)(F)F)cc21 (3D coordinates assigned)
CN(C)C(=O)COC(=O)n1c(C([NH-])=O)cc2ccc(C(F)(F)F)cc21 (optimized conformer: 73.48885504805244 kcal/mol)

>  <smiles>  (66) 
CN(C)C(=O)COC(=O)n1c(C(N)=O)cc2ccc(C(F)(F)F)cc21

>  <score_type>  (66) 
oracle

>  <origin>  (66) 
adg

>  <m_score__min__energy>  (66) 
-9.7699999999999996

>  <m_primary>  (66) 
energy

$$$$
67:0
     RDKit          3D

 45 47  0  0  0  0  0  0  0  0999 V2000
   -5.3340   27.1888  -30.3132 H   0  0  0  0  0  0  0  0  0  0  0  0
   -5.4260   26.0930  -30.2870 C   0  0  0  0  0  0  0  0  0  0  0  0
   -4.5990   25.2500  -30.8620 O   0  0  0  0  0  0  0  0  0  0  0  0
   -5.0140   24.0260  -30.6280 C   0  0  0  0  0  0  0  0  0  0  0  0
   -4.3560   22.7980  -31.1170 C   0  0  0  0  0  0  0  0  0  0  0  0
   -3.2350   22.3760  -30.6090 N   0  0  0  0  0  0  0  0  0  0  0  0
   -2.5830   23.0300  -29.5870 O   0  0  0  0  0  0  0  0  0  0  0  0
   -1.1930   23.1460  -29.5800 C   0  0  0  0  0  0  0  0  0  0  0  0
   -0.4860   22.2180  -30.0560 O   0  0  0  0  0  0  0  0  0  0  0  0
   -0.5780   24.3620  -29.0100 C   0  0  0  0  0  0  0  0  0  0  0  0
    0.5830   24.2770  -28.5330 O   0  0  0  0  0  0  0  0  0  0  0  0
   -1.2350   25.6380  -28.9790 N   0  0  0  0  0  0  0  0  0  0  0  0
   -0.8750   26.7700  -28.1380 C   0  0  0  0  0  0  0  0  0  0  0  0
   -0.9659   26.4841  -27.0797 H   0  0  0  0  0  0  0  0  0  0  0  0
    0.1624   27.0685  -28.3493 H   0  0  0  0  0  0  0  0  0  0  0  0
   -1.5494   27.6129  -28.3493 H   0  0  0  0  0  0  0  0  0  0  0  0
   -4.9820   22.0880  -32.1530 O   0  0  0  0  0  0  0  0  0  0  0  0
   -6.3450   22.1370  -32.4770 C   0  0  0  0  0  0  0  0  0  0  0  0
   -6.8980   23.2290  -32.7780 O   0  0  0  0  0  0  0  0  0  0  0  0
   -7.1190   20.9260  -32.4520 N   0  0  0  0  0  0  0  0  0  0  0  0
   -8.3450   20.7440  -31.8860 C   0  0  0  0  0  0  0  0  0  0  0  0
   -9.2070   21.8050  -31.3280 C   0  0  0  0  0  0  0  0  0  0  0  0
   -9.8190   21.6010  -30.2460 O   0  0  0  0  0  0  0  0  0  0  0  0
   -9.4060   23.0390  -32.0210 N   0  0  0  0  0  0  0  0  0  0  0  0
   -9.0410   23.1780  -32.9890 H   0  0  0  0  0  0  0  0  0  0  0  0
   -9.9860   23.7940  -31.5930 H   0  0  0  0  0  0  0  0  0  0  0  0
   -8.7180   19.4050  -31.9350 C   0  0  0  0  0  0  0  0  0  0  0  0
   -9.6457   18.9560  -31.5505 H   0  0  0  0  0  0  0  0  0  0  0  0
   -7.6790   18.7620  -32.5670 C   0  0  0  0  0  0  0  0  0  0  0  0
   -7.5130   17.4130  -32.8650 C   0  0  0  0  0  0  0  0  0  0  0  0
   -8.2953   16.6787  -32.6225 H   0  0  0  0  0  0  0  0  0  0  0  0
   -6.3160   17.0170  -33.4850 C   0  0  0  0  0  0  0  0  0  0  0  0
   -6.1592   15.9588  -33.7414 H   0  0  0  0  0  0  0  0  0  0  0  0
   -5.3090   17.9680  -33.7830 C   0  0  0  0  0  0  0  0  0  0  0  0
   -4.0200   17.5370  -34.4200 C   0  0  0  0  0  0  0  0  0  0  0  0
   -3.5715   16.7333  -33.8176 H   0  0  0  0  0  0  0  0  0  0  0  0
   -3.1510   18.6100  -34.4810 F   0  0  0  0  0  0  0  0  0  0  0  0
   -4.2630   17.0720  -35.6990 F   0  0  0  0  0  0  0  0  0  0  0  0
   -5.5110   19.3290  -33.4610 C   0  0  0  0  0  0  0  0  0  0  0  0
   -4.7350   20.0791  -33.6733 H   0  0  0  0  0  0  0  0  0  0  0  0
   -6.7230   19.7000  -32.8650 C   0  0  0  0  0  0  0  0  0  0  0  0
   -6.1640   24.0600  -29.8630 C   0  0  0  0  0  0  0  0  0  0  0  0
   -6.7477   23.2000  -29.5028 H   0  0  0  0  0  0  0  0  0  0  0  0
   -6.4280   25.3940  -29.6450 C   0  0  0  0  0  0  0  0  0  0  0  0
   -7.2679   25.8170  -29.0744 H   0  0  0  0  0  0  0  0  0  0  0  0
  1  2  1  0
  2  3  1  0
  3  4  1  0
  4  5  1  0
  5  6  2  0
  6  7  1  0
  7  8  1  0
  8  9  2  0
  8 10  1  0
 10 11  2  0
 10 12  1  0
 12 13  1  0
 13 14  1  0
 13 15  1  0
 13 16  1  0
  5 17  1  0
 17 18  1  0
 18 19  2  0
 18 20  1  0
 20 21  1  0
 21 22  1  0
 22 23  2  0
 22 24  1  0
 24 25  1  0
 24 26  1  0
 21 27  2  0
 27 28  1  0
 27 29  1  0
 29 30  2  0
 30 31  1  0
 30 32  1  0
 32 33  1  0
 32 34  2  0
 34 35  1  0
 35 36  1  0
 35 37  1  0
 35 38  1  0
 34 39  1  0
 39 40  1  0
 39 41  2  0
  4 42  2  0
 42 43  1  0
 42 44  1  0
 44 45  1  0
 44  2  2  0
 41 20  1  0
 41 29  1  0
M  CHG  1  12  -1
M  END
>  <UniqueID>  (67) 
67

>  <SMILES>  (67) 
C[N-]C(=O)C(=O)O/N=C(/OC(=O)n1c(C(N)=O)cc2ccc(C(F)F)cc21)c1ccco1

>  <Energy>  (67) 
109.70492059145484

>  <Genealogy>  (67) 
C[N-]C(=O)C(=O)O/N=C(/OC(=O)n1c(C(N)=O)cc2ccc(C(F)F)cc21)c1ccco1 (protonated)
C[N-]C(=O)C(=O)O/N=C(/OC(=O)n1c(C(N)=O)cc2ccc(C(F)F)cc21)c1ccco1 (cis-trans isomerization)
C[N-]C(=O)C(=O)O/N=C(/OC(=O)n1c(C(N)=O)cc2ccc(C(F)F)cc21)c1ccco1 (3D coordinates assigned)
C[N-]C(=O)C(=O)O/N=C(/OC(=O)n1c(C(N)=O)cc2ccc(C(F)F)cc21)c1ccco1 (optimized conformer: 109.70492059145484 kcal/mol)

>  <smiles>  (67) 
CNC(=O)C(=O)O/N=C(/OC(=O)n1c(C(N)=O)cc2ccc(C(F)F)cc21)c1ccco1

>  <score_type>  (67) 
oracle

>  <origin>  (67) 
adg

>  <m_score__min__energy>  (67) 
-10.4

>  <m_primary>  (67) 
energy

$$$$
68:0
     RDKit          3D

 31 32  0  0  0  0  0  0  0  0999 V2000
   -3.5140   22.1820  -28.5290 C   0  0  0  0  0  0  0  0  0  0  0  0
   -3.1380   22.8860  -29.6050 C   0  0  0  0  0  0  0  0  0  0  0  0
   -2.0770   23.9180  -29.4840 C   0  0  0  0  0  0  0  0  0  0  0  0
   -2.3740   25.1350  -29.3520 O   0  0  0  0  0  0  0  0  0  0  0  0
   -0.7360   23.5550  -29.5010 O   0  0  0  0  0  0  0  0  0  0  0  0
   -3.7980   22.6430  -30.9130 C   0  0  0  0  0  0  0  0  0  0  0  0
   -3.1010   22.3640  -31.9250 O   0  0  0  0  0  0  0  0  0  0  0  0
   -5.2270   22.7340  -31.0530 N   0  0  0  0  0  0  0  0  0  0  0  0
   -6.0000   23.8500  -30.9330 C   0  0  0  0  0  0  0  0  0  0  0  0
   -5.5160   25.1810  -30.5020 C   0  0  0  0  0  0  0  0  0  0  0  0
   -4.1810   25.6040  -30.7850 N   0  0  0  0  0  0  0  0  0  0  0  0
   -6.2880   25.9650  -29.8890 O   0  0  0  0  0  0  0  0  0  0  0  0
   -7.3340   23.5450  -31.2090 C   0  0  0  0  0  0  0  0  0  0  0  0
   -7.3480   22.2030  -31.5140 C   0  0  0  0  0  0  0  0  0  0  0  0
   -8.4070   21.3750  -31.8670 C   0  0  0  0  0  0  0  0  0  0  0  0
   -8.1260   20.0260  -32.1460 C   0  0  0  0  0  0  0  0  0  0  0  0
   -6.7940   19.5370  -32.0920 C   0  0  0  0  0  0  0  0  0  0  0  0
   -6.5100   18.0800  -32.3530 C   0  0  0  0  0  0  0  0  0  0  0  0
   -7.6430   17.4810  -32.8710 F   0  0  0  0  0  0  0  0  0  0  0  0
   -5.4710   17.9370  -33.2570 F   0  0  0  0  0  0  0  0  0  0  0  0
   -6.1560   17.4340  -31.1810 F   0  0  0  0  0  0  0  0  0  0  0  0
   -5.7490   20.4060  -31.7070 C   0  0  0  0  0  0  0  0  0  0  0  0
   -6.0630   21.7390  -31.4180 C   0  0  0  0  0  0  0  0  0  0  0  0
   -4.2999   21.4177  -28.6189 H   0  0  0  0  0  0  0  0  0  0  0  0
   -3.0368   22.3683  -27.5556 H   0  0  0  0  0  0  0  0  0  0  0  0
   -3.8660   26.5600  -30.5060 H   0  0  0  0  0  0  0  0  0  0  0  0
   -3.4880   24.9640  -31.2310 H   0  0  0  0  0  0  0  0  0  0  0  0
   -8.1927   24.2322  -31.1873 H   0  0  0  0  0  0  0  0  0  0  0  0
   -9.4344   21.7636  -31.9263 H   0  0  0  0  0  0  0  0  0  0  0  0
   -8.9466   19.3422  -32.4089 H   0  0  0  0  0  0  0  0  0  0  0  0
   -4.7128   20.0436  -31.6360 H   0  0  0  0  0  0  0  0  0  0  0  0
  1  2  2  0
  2  3  1  0
  3  4  2  0
  3  5  1  0
  2  6  1  0
  6  7  2  0
  6  8  1  0
  8  9  1  0
  9 10  1  0
 10 11  1  0
 10 12  2  0
  9 13  2  0
 13 14  1  0
 14 15  2  0
 15 16  1  0
 16 17  2  0
 17 18  1  0
 18 19  1  0
 18 20  1  0
 18 21  1  0
 17 22  1  0
 22 23  2  0
 23  8  1  0
 23 14  1  0
  1 24  1  0
  1 25  1  0
 11 26  1  0
 11 27  1  0
 13 28  1  0
 15 29  1  0
 16 30  1  0
 22 31  1  0
M  CHG  1   5  -1
M  END
>  <UniqueID>  (68) 
68

>  <SMILES>  (68) 
C=C(C(=O)[O-])C(=O)n1c(C(N)=O)cc2ccc(C(F)(F)F)cc21

>  <Energy>  (68) 
72.86651602299352

>  <Genealogy>  (68) 
C=C(C(=O)[O-])C(=O)n1c(C(N)=O)cc2ccc(C(F)(F)F)cc21 (protonated)
C=C(C(=O)[O-])C(=O)n1c(C(N)=O)cc2ccc(C(F)(F)F)cc21 (3D coordinates assigned)
C=C(C(=O)[O-])C(=O)n1c(C(N)=O)cc2ccc(C(F)(F)F)cc21 (optimized conformer: 72.86651602299352 kcal/mol)

>  <smiles>  (68) 
C=C(C(=O)O)C(=O)n1c(C(N)=O)cc2ccc(C(F)(F)F)cc21

>  <score_type>  (68) 
oracle

>  <origin>  (68) 
adg

>  <m_score__min__energy>  (68) 
-10.51

>  <m_primary>  (68) 
energy

$$$$
69:0
     RDKit          3D

 46 48  0  0  0  0  0  0  0  0999 V2000
   -3.8620   14.2710  -34.6540 C   0  0  0  0  0  0  0  0  0  0  0  0
   -4.7920   14.1710  -33.5120 N   0  0  1  0  0  0  0  0  0  0  0  0
   -4.2040   13.3960  -32.4400 C   0  0  0  0  0  0  0  0  0  0  0  0
   -3.0060   13.0050  -32.5020 O   0  0  0  0  0  0  0  0  0  0  0  0
   -4.9610   13.0760  -31.3190 O   0  0  0  0  0  0  0  0  0  0  0  0
   -5.2970   15.5030  -33.0660 C   0  0  0  0  0  0  0  0  0  0  0  0
   -4.1780   16.5870  -33.1230 C   0  0  0  0  0  0  0  0  0  0  0  0
   -4.6640   17.9720  -33.5830 C   0  0  0  0  0  0  0  0  0  0  0  0
   -6.0030   18.2730  -33.0560 N   0  0  0  0  0  0  0  0  0  0  0  0
   -6.3260   19.6100  -32.6270 C   0  0  0  0  0  0  0  0  0  0  0  0
   -7.6630   20.0830  -32.7010 C   0  0  0  0  0  0  0  0  0  0  0  0
   -7.9880   21.3880  -32.2940 C   0  0  0  0  0  0  0  0  0  0  0  0
   -6.9630   22.1950  -31.8090 C   0  0  0  0  0  0  0  0  0  0  0  0
   -6.9920   23.5020  -31.3780 C   0  0  0  0  0  0  0  0  0  0  0  0
   -5.6750   23.8070  -31.0380 C   0  0  0  0  0  0  0  0  0  0  0  0
   -5.2500   25.1120  -30.4890 C   0  0  0  0  0  0  0  0  0  0  0  0
   -3.9950   25.6710  -30.8710 N   0  0  0  0  0  0  0  0  0  0  0  0
   -5.9930   25.7500  -29.6980 O   0  0  0  0  0  0  0  0  0  0  0  0
   -4.8680   22.7290  -31.2440 N   0  0  0  0  0  0  0  0  0  0  0  0
   -3.4430   22.6580  -31.0800 C   0  0  0  0  0  0  0  0  0  0  0  0
   -2.7200   22.3250  -32.0570 O   0  0  0  0  0  0  0  0  0  0  0  0
   -2.8150   22.9740  -29.7900 C   0  0  0  0  0  0  0  0  0  0  0  0
   -3.1240   22.3260  -28.7550 O   0  0  0  0  0  0  0  0  0  0  0  0
   -1.8900   24.0080  -29.6990 O   0  0  0  0  0  0  0  0  0  0  0  0
   -5.6700   21.7530  -31.7200 C   0  0  0  0  0  0  0  0  0  0  0  0
   -5.3130   20.4660  -32.1350 C   0  0  0  0  0  0  0  0  0  0  0  0
   -7.0830   17.2790  -33.1780 C   0  0  0  0  0  0  0  0  0  0  0  0
   -6.5800   15.9710  -33.7990 C   0  0  0  0  0  0  0  0  0  0  0  0
   -2.8333   14.3816  -34.2805 H   0  0  0  0  0  0  0  0  0  0  0  0
   -3.9338   13.3600  -35.2662 H   0  0  0  0  0  0  0  0  0  0  0  0
   -4.1259   15.1459  -35.2662 H   0  0  0  0  0  0  0  0  0  0  0  0
   -5.6140   13.6280  -33.8700 H   0  0  0  0  0  0  0  0  0  0  0  0
   -5.5937   15.3666  -32.0156 H   0  0  0  0  0  0  0  0  0  0  0  0
   -3.7459   16.6898  -32.1167 H   0  0  0  0  0  0  0  0  0  0  0  0
   -3.4452   16.2456  -33.8689 H   0  0  0  0  0  0  0  0  0  0  0  0
   -3.9584   18.7360  -33.2248 H   0  0  0  0  0  0  0  0  0  0  0  0
   -4.7161   17.9732  -34.6818 H   0  0  0  0  0  0  0  0  0  0  0  0
   -8.4537   19.4197  -33.0815 H   0  0  0  0  0  0  0  0  0  0  0  0
   -9.0211   21.7605  -32.3568 H   0  0  0  0  0  0  0  0  0  0  0  0
   -7.8678   24.1646  -31.3153 H   0  0  0  0  0  0  0  0  0  0  0  0
   -3.0990   25.2970  -30.4860 H   0  0  0  0  0  0  0  0  0  0  0  0
   -4.2680   20.1270  -32.0800 H   0  0  0  0  0  0  0  0  0  0  0  0
   -7.4871   17.0666  -32.1772 H   0  0  0  0  0  0  0  0  0  0  0  0
   -7.8602   17.6951  -33.8359 H   0  0  0  0  0  0  0  0  0  0  0  0
   -7.3575   15.1987  -33.7041 H   0  0  0  0  0  0  0  0  0  0  0  0
   -6.3516   16.1372  -34.8621 H   0  0  0  0  0  0  0  0  0  0  0  0
  1  2  1  0
  2  3  1  0
  3  4  2  0
  3  5  1  0
  2  6  1  0
  6  7  1  0
  7  8  1  0
  8  9  1  0
  9 10  1  0
 10 11  2  0
 11 12  1  0
 12 13  2  0
 13 14  1  0
 14 15  2  0
 15 16  1  0
 16 17  1  0
 16 18  2  0
 15 19  1  0
 19 20  1  0
 20 21  2  0
 20 22  1  0
 22 23  2  0
 22 24  1  0
 19 25  1  0
 25 26  2  0
  9 27  1  0
 27 28  1  0
 28  6  1  0
 26 10  1  0
 25 13  1  0
  1 29  1  0
  1 30  1  0
  1 31  1  0
  2 32  1  6
  6 33  1  0
  7 34  1  0
  7 35  1  0
  8 36  1  0
  8 37  1  0
 11 38  1  0
 12 39  1  0
 14 40  1  0
 17 41  1  0
 26 42  1  0
 27 43  1  0
 27 44  1  0
 28 45  1  0
 28 46  1  0
M  CHG  4   2   1   5  -1  17  -1  24  -1
M  END
>  <UniqueID>  (69) 
69

>  <SMILES>  (69) 
C[N@@H+](C(=O)[O-])C1CCN(c2ccc3cc(C([NH-])=O)n(C(=O)C(=O)[O-])c3c2)CC1

>  <Energy>  (69) 
99.8244490291281

>  <Genealogy>  (69) 
C[NH+](C(=O)[O-])C1CCN(c2ccc3cc(C([NH-])=O)n(C(=O)C(=O)[O-])c3c2)CC1 (protonated)
C[N@@H+](C(=O)[O-])C1CCN(c2ccc3cc(C([NH-])=O)n(C(=O)C(=O)[O-])c3c2)CC1 (chirality)
C[N@@H+](C(=O)[O-])C1CCN(c2ccc3cc(C([NH-])=O)n(C(=O)C(=O)[O-])c3c2)CC1 (3D coordinates assigned)
C[N@@H+](C(=O)[O-])C1CCN(c2ccc3cc(C([NH-])=O)n(C(=O)C(=O)[O-])c3c2)CC1 (nonaromatic ring conformer: 99.8244490291281 kcal/mol)

>  <smiles>  (69) 
CN(C(=O)O)C1CCN(c2ccc3cc(C(N)=O)n(C(=O)C(=O)O)c3c2)CC1

>  <score_type>  (69) 
oracle

>  <origin>  (69) 
adg

>  <m_score__min__energy>  (69) 
-10.51

>  <m_primary>  (69) 
energy

$$$$
70:0
     RDKit          3D

 35 37  0  0  0  0  0  0  0  0999 V2000
   -5.9710   26.0010  -29.4460 N   0  0  0  0  0  0  0  0  0  0  0  0
   -5.3580   25.1680  -30.4580 C   0  0  0  0  0  0  0  0  0  0  0  0
   -4.2800   25.5800  -30.8990 O   0  0  0  0  0  0  0  0  0  0  0  0
   -6.0480   23.9550  -30.8530 C   0  0  0  0  0  0  0  0  0  0  0  0
   -7.4280   23.7850  -30.7280 C   0  0  0  0  0  0  0  0  0  0  0  0
   -7.7860   22.5400  -31.1810 C   0  0  0  0  0  0  0  0  0  0  0  0
   -9.0130   21.9180  -31.2610 C   0  0  0  0  0  0  0  0  0  0  0  0
   -9.1100   20.6400  -31.7650 C   0  0  0  0  0  0  0  0  0  0  0  0
   -7.9540   20.0150  -32.1810 C   0  0  0  0  0  0  0  0  0  0  0  0
   -8.0560   18.6440  -32.7220 C   0  0  0  0  0  0  0  0  0  0  0  0
   -6.8570   17.7780  -32.3740 C   0  0  0  0  0  0  0  0  0  0  0  0
   -5.8460   17.8000  -33.4670 C   0  0  0  0  0  0  0  0  0  0  0  0
   -5.7620   17.0350  -34.5700 N   0  0  0  0  0  0  0  0  0  0  0  0
   -4.6600   17.4370  -35.2620 C   0  0  0  0  0  0  0  0  0  0  0  0
   -4.0770   18.4570  -34.5670 N   0  0  0  0  0  0  0  0  0  0  0  0
   -4.8080   18.6670  -33.4780 N   0  0  0  0  0  0  0  0  0  0  0  0
   -6.7170   20.6640  -32.0920 C   0  0  0  0  0  0  0  0  0  0  0  0
   -6.6050   21.9460  -31.5890 C   0  0  0  0  0  0  0  0  0  0  0  0
   -5.5790   22.8120  -31.3820 N   0  0  0  0  0  0  0  0  0  0  0  0
   -4.2330   22.5060  -31.6950 C   0  0  0  0  0  0  0  0  0  0  0  0
   -4.0180   21.4140  -32.3290 O   0  0  0  0  0  0  0  0  0  0  0  0
   -3.1330   23.2480  -31.3950 O   0  0  0  0  0  0  0  0  0  0  0  0
   -5.5500   26.1130  -28.5000 H   0  0  0  0  0  0  0  0  0  0  0  0
   -6.8740   26.5070  -29.6920 H   0  0  0  0  0  0  0  0  0  0  0  0
   -8.1240   24.5363  -30.3266 H   0  0  0  0  0  0  0  0  0  0  0  0
   -9.9176   22.4437  -30.9213 H   0  0  0  0  0  0  0  0  0  0  0  0
  -10.0832   20.1320  -31.8337 H   0  0  0  0  0  0  0  0  0  0  0  0
   -8.9606   18.1716  -32.3116 H   0  0  0  0  0  0  0  0  0  0  0  0
   -8.0965   18.7249  -33.8183 H   0  0  0  0  0  0  0  0  0  0  0  0
   -6.3958   18.1571  -31.4501 H   0  0  0  0  0  0  0  0  0  0  0  0
   -7.2014   16.7424  -32.2368 H   0  0  0  0  0  0  0  0  0  0  0  0
   -4.3029   17.0145  -36.2128 H   0  0  0  0  0  0  0  0  0  0  0  0
   -4.5970   19.3920  -32.7590 H   0  0  0  0  0  0  0  0  0  0  0  0
   -5.8111   20.1401  -32.4311 H   0  0  0  0  0  0  0  0  0  0  0  0
   -3.1110   24.2550  -31.5910 H   0  0  0  0  0  0  0  0  0  0  0  0
  1  2  1  0
  2  3  2  0
  2  4  1  0
  4  5  2  0
  5  6  1  0
  6  7  2  0
  7  8  1  0
  8  9  2  0
  9 10  1  0
 10 11  1  0
 11 12  1  0
 12 13  2  0
 13 14  1  0
 14 15  2  0
 15 16  1  0
  9 17  1  0
 17 18  2  0
 18 19  1  0
 19 20  1  0
 20 21  2  0
 20 22  1  0
 19  4  1  0
 18  6  1  0
 16 12  1  0
  1 23  1  0
  1 24  1  0
  5 25  1  0
  7 26  1  0
  8 27  1  0
 10 28  1  0
 10 29  1  0
 11 30  1  0
 11 31  1  0
 14 32  1  0
 16 33  1  0
 17 34  1  0
 22 35  1  0
M  END
>  <smiles>  (70) 
NC(=O)c1cc2ccc(CCc3ncn[nH]3)cc2n1C(=O)O

>  <score_type>  (70) 
oracle

>  <origin>  (70) 
adg

>  <m_score__min__energy>  (70) 
-8.5299999999999994

>  <m_primary>  (70) 
energy

$$$$
71:0
     RDKit          3D

 34 36  0  0  0  0  0  0  0  0999 V2000
   -3.8800   25.6660  -30.8520 N   0  0  0  0  0  0  0  0  0  0  0  0
   -5.1280   25.0520  -30.5360 C   0  0  0  0  0  0  0  0  0  0  0  0
   -5.9320   25.6470  -29.7710 O   0  0  0  0  0  0  0  0  0  0  0  0
   -5.4440   23.7110  -31.0690 C   0  0  0  0  0  0  0  0  0  0  0  0
   -6.7330   23.3040  -31.4080 C   0  0  0  0  0  0  0  0  0  0  0  0
   -6.5880   22.0440  -31.9420 C   0  0  0  0  0  0  0  0  0  0  0  0
   -7.5510   21.1580  -32.4090 C   0  0  0  0  0  0  0  0  0  0  0  0
   -7.1250   19.9000  -32.8630 C   0  0  0  0  0  0  0  0  0  0  0  0
   -5.7430   19.5470  -32.8740 C   0  0  0  0  0  0  0  0  0  0  0  0
   -5.3050   18.1340  -33.2810 C   0  0  1  0  0  0  0  0  0  0  0  0
   -5.6840   17.1070  -32.2260 C   0  0  0  0  0  0  0  0  0  0  0  0
   -6.1440   17.4600  -31.1500 O   0  0  0  0  0  0  0  0  0  0  0  0
   -5.9970   17.6620  -34.5490 C   0  0  0  0  0  0  0  0  0  0  0  0
   -5.7270   18.1850  -35.6650 O   0  0  0  0  0  0  0  0  0  0  0  0
   -6.8430   16.5590  -34.5130 O   0  0  0  0  0  0  0  0  0  0  0  0
   -3.7920   18.1820  -33.4640 C   0  0  0  0  0  0  0  0  0  0  0  0
   -3.1460   19.1360  -34.2560 C   0  0  0  0  0  0  0  0  0  0  0  0
   -1.4910   18.9210  -34.0770 S   0  0  0  0  0  0  0  0  0  0  0  0
   -1.6470   17.6500  -32.9940 C   0  0  0  0  0  0  0  0  0  0  0  0
   -2.9480   17.3800  -32.7520 N   0  0  0  0  0  0  0  0  0  0  0  0
   -4.8050   20.4720  -32.3410 C   0  0  0  0  0  0  0  0  0  0  0  0
   -5.2580   21.7250  -31.9120 C   0  0  0  0  0  0  0  0  0  0  0  0
   -4.5400   22.7370  -31.3750 N   0  0  0  0  0  0  0  0  0  0  0  0
   -3.1260   22.7370  -31.1140 C   0  0  0  0  0  0  0  0  0  0  0  0
   -2.3240   22.2660  -31.9610 O   0  0  0  0  0  0  0  0  0  0  0  0
   -2.6330   23.2320  -29.9130 O   0  0  0  0  0  0  0  0  0  0  0  0
   -2.9850   25.2890  -30.4690 H   0  0  0  0  0  0  0  0  0  0  0  0
   -7.6673   23.8695  -31.2767 H   0  0  0  0  0  0  0  0  0  0  0  0
   -8.6157   21.4342  -32.4225 H   0  0  0  0  0  0  0  0  0  0  0  0
   -7.8707   19.1729  -33.2169 H   0  0  0  0  0  0  0  0  0  0  0  0
   -5.5429   16.0359  -32.4330 H   0  0  0  0  0  0  0  0  0  0  0  0
   -3.6358   19.8937  -34.8853 H   0  0  0  0  0  0  0  0  0  0  0  0
   -0.8030   17.1089  -32.5415 H   0  0  0  0  0  0  0  0  0  0  0  0
   -3.7399   20.2075  -32.2667 H   0  0  0  0  0  0  0  0  0  0  0  0
  1  2  1  0
  2  3  2  0
  2  4  1  0
  4  5  2  0
  5  6  1  0
  6  7  2  0
  7  8  1  0
  8  9  2  0
  9 10  1  0
 10 11  1  1
 11 12  2  0
 10 13  1  0
 13 14  2  0
 13 15  1  0
 10 16  1  0
 16 17  2  0
 17 18  1  0
 18 19  1  0
 19 20  2  0
  9 21  1  0
 21 22  2  0
 22 23  1  0
 23 24  1  0
 24 25  2  0
 24 26  1  0
 23  4  1  0
 22  6  1  0
 20 16  1  0
  1 27  1  0
  5 28  1  0
  7 29  1  0
  8 30  1  0
 11 31  1  0
 17 32  1  0
 19 33  1  0
 21 34  1  0
M  CHG  3   1  -1  15  -1  26  -1
M  END
>  <UniqueID>  (71) 
70

>  <SMILES>  (71) 
[NH-]C(=O)c1cc2ccc([C@@](C=O)(C(=O)[O-])c3cscn3)cc2n1C(=O)[O-]

>  <Energy>  (71) 
113.90435419163789

>  <Genealogy>  (71) 
[NH-]C(=O)c1cc2ccc(C(C=O)(C(=O)[O-])c3cscn3)cc2n1C(=O)[O-] (protonated)
[NH-]C(=O)c1cc2ccc([C@@](C=O)(C(=O)[O-])c3cscn3)cc2n1C(=O)[O-] (chirality)
[NH-]C(=O)c1cc2ccc([C@@](C=O)(C(=O)[O-])c3cscn3)cc2n1C(=O)[O-] (3D coordinates assigned)
[NH-]C(=O)c1cc2ccc([C@@](C=O)(C(=O)[O-])c3cscn3)cc2n1C(=O)[O-] (optimized conformer: 113.90435419163789 kcal/mol)

>  <smiles>  (71) 
NC(=O)c1cc2ccc(C(C=O)(C(=O)O)c3cscn3)cc2n1C(=O)O

>  <score_type>  (71) 
oracle

>  <origin>  (71) 
adg

>  <m_score__min__energy>  (71) 
-11.84

>  <m_primary>  (71) 
energy

$$$$
72:0
     RDKit          3D

 44 46  0  0  0  0  0  0  0  0999 V2000
   -1.8700   16.8240  -33.7710 C   0  0  0  0  0  0  0  0  0  0  0  0
   -2.6900   17.7790  -33.1090 O   0  0  0  0  0  0  0  0  0  0  0  0
   -2.5490   19.1550  -33.3000 C   0  0  0  0  0  0  0  0  0  0  0  0
   -3.0180   19.7090  -34.3330 O   0  0  0  0  0  0  0  0  0  0  0  0
   -1.8810   19.9090  -32.3320 O   0  0  0  0  0  0  0  0  0  0  0  0
   -1.5810   21.2920  -32.4970 C   0  0  1  0  0  0  0  0  0  0  0  0
   -0.7560   21.4700  -33.7690 C   0  0  0  0  0  0  0  0  0  0  0  0
   -2.8000   22.0290  -32.5990 O   0  0  0  0  0  0  0  0  0  0  0  0
   -3.4270   22.6420  -31.5090 C   0  0  0  0  0  0  0  0  0  0  0  0
   -2.7430   23.1210  -30.5640 O   0  0  0  0  0  0  0  0  0  0  0  0
   -4.8590   22.7430  -31.4800 N   0  0  0  0  0  0  0  0  0  0  0  0
   -5.6180   23.8040  -31.0830 C   0  0  0  0  0  0  0  0  0  0  0  0
   -5.1210   25.0380  -30.4400 C   0  0  0  0  0  0  0  0  0  0  0  0
   -3.8920   25.6340  -30.8490 N   0  0  0  0  0  0  0  0  0  0  0  0
   -5.7660   25.5470  -29.4850 O   0  0  0  0  0  0  0  0  0  0  0  0
   -6.9710   23.5390  -31.2900 C   0  0  0  0  0  0  0  0  0  0  0  0
   -7.0170   22.2700  -31.8200 C   0  0  0  0  0  0  0  0  0  0  0  0
   -8.1080   21.5080  -32.2250 C   0  0  0  0  0  0  0  0  0  0  0  0
   -7.8600   20.2350  -32.7660 C   0  0  0  0  0  0  0  0  0  0  0  0
   -6.5330   19.7500  -32.9020 C   0  0  0  0  0  0  0  0  0  0  0  0
   -6.2540   18.4160  -33.4810 C   0  0  0  0  0  0  0  0  0  0  0  0
   -5.1290   18.0550  -34.1300 N   0  0  0  0  0  0  0  0  0  0  0  0
   -5.2630   16.7900  -34.4890 N   0  0  0  0  0  0  0  0  0  0  0  0
   -6.4790   16.4180  -34.0460 C   0  0  0  0  0  0  0  0  0  0  0  0
   -7.0450   15.0490  -34.2090 C   0  0  0  0  0  0  0  0  0  0  0  0
   -7.0890   17.4030  -33.4260 O   0  0  0  0  0  0  0  0  0  0  0  0
   -5.4530   20.5570  -32.4790 C   0  0  0  0  0  0  0  0  0  0  0  0
   -5.7310   21.8120  -31.9250 C   0  0  0  0  0  0  0  0  0  0  0  0
   -1.3441   16.2115  -33.0238 H   0  0  0  0  0  0  0  0  0  0  0  0
   -2.4972   16.1758  -34.4006 H   0  0  0  0  0  0  0  0  0  0  0  0
   -1.1344   17.3460  -34.4006 H   0  0  0  0  0  0  0  0  0  0  0  0
   -1.0080   21.6618  -31.6339 H   0  0  0  0  0  0  0  0  0  0  0  0
    0.2869   21.6950  -33.5011 H   0  0  0  0  0  0  0  0  0  0  0  0
   -0.7908   20.5437  -34.3612 H   0  0  0  0  0  0  0  0  0  0  0  0
   -1.1696   22.2996  -34.3612 H   0  0  0  0  0  0  0  0  0  0  0  0
   -2.9780   25.2810  -30.4870 H   0  0  0  0  0  0  0  0  0  0  0  0
   -7.8211   24.2032  -31.0753 H   0  0  0  0  0  0  0  0  0  0  0  0
   -9.1344   21.8906  -32.1248 H   0  0  0  0  0  0  0  0  0  0  0  0
   -8.7040   19.6072  -33.0878 H   0  0  0  0  0  0  0  0  0  0  0  0
   -4.2850   18.6330  -34.3320 H   0  0  0  0  0  0  0  0  0  0  0  0
   -7.2276   14.6074  -33.2182 H   0  0  0  0  0  0  0  0  0  0  0  0
   -7.9926   15.1078  -34.7645 H   0  0  0  0  0  0  0  0  0  0  0  0
   -6.3326   14.4214  -34.7645 H   0  0  0  0  0  0  0  0  0  0  0  0
   -4.4156   20.2063  -32.5829 H   0  0  0  0  0  0  0  0  0  0  0  0
  1  2  1  0
  2  3  1  0
  3  4  2  0
  3  5  1  0
  5  6  1  0
  6  7  1  0
  6  8  1  0
  8  9  1  0
  9 10  2  0
  9 11  1  0
 11 12  1  0
 12 13  1  0
 13 14  1  0
 13 15  2  0
 12 16  2  0
 16 17  1  0
 17 18  2  0
 18 19  1  0
 19 20  2  0
 20 21  1  0
 21 22  2  0
 22 23  1  0
 23 24  2  0
 24 25  1  0
 24 26  1  0
 20 27  1  0
 27 28  2  0
 28 11  1  0
 28 17  1  0
 26 21  1  0
  1 29  1  0
  1 30  1  0
  1 31  1  0
  6 32  1  1
  7 33  1  0
  7 34  1  0
  7 35  1  0
 14 36  1  0
 16 37  1  0
 18 38  1  0
 19 39  1  0
 22 40  1  0
 25 41  1  0
 25 42  1  0
 25 43  1  0
 27 44  1  0
M  CHG  2  14  -1  22   1
M  END
>  <UniqueID>  (72) 
71

>  <SMILES>  (72) 
COC(=O)O[C@@H](C)OC(=O)n1c(C([NH-])=O)cc2ccc(-c3[nH+]nc(C)o3)cc21

>  <Energy>  (72) 
112.10700654927568

>  <Genealogy>  (72) 
COC(=O)OC(C)OC(=O)n1c(C([NH-])=O)cc2ccc(-c3[nH+]nc(C)o3)cc21 (protonated)
COC(=O)O[C@@H](C)OC(=O)n1c(C([NH-])=O)cc2ccc(-c3[nH+]nc(C)o3)cc21 (chirality)
COC(=O)O[C@@H](C)OC(=O)n1c(C([NH-])=O)cc2ccc(-c3[nH+]nc(C)o3)cc21 (3D coordinates assigned)
COC(=O)O[C@@H](C)OC(=O)n1c(C([NH-])=O)cc2ccc(-c3[nH+]nc(C)o3)cc21 (optimized conformer: 112.10700654927568 kcal/mol)

>  <smiles>  (72) 
COC(=O)OC(C)OC(=O)n1c(C(N)=O)cc2ccc(-c3nnc(C)o3)cc21

>  <score_type>  (72) 
oracle

>  <origin>  (72) 
adg

>  <m_score__min__energy>  (72) 
-10.9

>  <m_primary>  (72) 
energy

$$$$
73:0
     RDKit          3D

 39 40  0  0  0  0  0  0  0  0999 V2000
   -5.8140   25.3190  -29.0040 N   0  0  0  0  0  0  0  0  0  0  0  0
   -5.3370   24.7940  -30.2430 C   0  0  0  0  0  0  0  0  0  0  0  0
   -4.4710   25.4410  -30.8930 O   0  0  0  0  0  0  0  0  0  0  0  0
   -5.8740   23.5360  -30.8020 C   0  0  0  0  0  0  0  0  0  0  0  0
   -7.1520   23.4200  -31.3450 C   0  0  0  0  0  0  0  0  0  0  0  0
   -7.2740   22.0980  -31.7060 C   0  0  0  0  0  0  0  0  0  0  0  0
   -8.3320   21.4310  -32.3210 C   0  0  0  0  0  0  0  0  0  0  0  0
   -8.1700   20.0680  -32.6140 C   0  0  0  0  0  0  0  0  0  0  0  0
   -6.9640   19.3980  -32.2900 C   0  0  0  0  0  0  0  0  0  0  0  0
   -6.7820   17.9520  -32.6660 C   0  0  0  0  0  0  0  0  0  0  0  0
   -5.9380   17.8370  -33.8940 C   0  0  0  0  0  0  0  0  0  0  0  0
   -5.9500   16.7650  -34.5630 O   0  0  0  0  0  0  0  0  0  0  0  0
   -5.1420   18.9190  -34.2900 O   0  0  0  0  0  0  0  0  0  0  0  0
   -3.7960   19.0830  -33.8540 C   0  0  0  0  0  0  0  0  0  0  0  0
   -3.5470   20.4450  -33.6040 O   0  0  0  0  0  0  0  0  0  0  0  0
   -1.8420   20.6050  -33.2730 P   0  0  0  0  0  0  0  0  0  0  0  0
   -1.3060   21.9010  -32.5990 O   0  0  0  0  0  0  0  0  0  0  0  0
   -5.9090   20.1090  -31.6740 C   0  0  0  0  0  0  0  0  0  0  0  0
   -6.1030   21.4630  -31.3840 C   0  0  0  0  0  0  0  0  0  0  0  0
   -5.2270   22.3350  -30.8380 N   0  0  0  0  0  0  0  0  0  0  0  0
   -3.8570   22.0620  -30.5000 C   0  0  0  0  0  0  0  0  0  0  0  0
   -3.4910   20.8710  -30.3010 O   0  0  0  0  0  0  0  0  0  0  0  0
   -2.8860   23.1700  -30.3970 C   0  0  0  0  0  0  0  0  0  0  0  0
   -2.1500   23.3730  -29.2980 C   0  0  0  0  0  0  0  0  0  0  0  0
   -1.1960   24.4890  -29.1970 C   0  0  0  0  0  0  0  0  0  0  0  0
   -1.6060   25.6720  -29.3310 O   0  0  0  0  0  0  0  0  0  0  0  0
    0.1530   24.2600  -28.9490 O   0  0  0  0  0  0  0  0  0  0  0  0
   -5.3640   26.1630  -28.5840 H   0  0  0  0  0  0  0  0  0  0  0  0
   -6.6640   24.9290  -28.5420 H   0  0  0  0  0  0  0  0  0  0  0  0
   -7.9029   24.2155  -31.4604 H   0  0  0  0  0  0  0  0  0  0  0  0
   -9.2657   21.9569  -32.5692 H   0  0  0  0  0  0  0  0  0  0  0  0
   -8.9870   19.5145  -33.0998 H   0  0  0  0  0  0  0  0  0  0  0  0
   -6.2910   17.4207  -31.8373 H   0  0  0  0  0  0  0  0  0  0  0  0
   -7.7681   17.5080  -32.8670 H   0  0  0  0  0  0  0  0  0  0  0  0
   -3.6364   18.5056  -32.9314 H   0  0  0  0  0  0  0  0  0  0  0  0
   -3.1108   18.7222  -34.6352 H   0  0  0  0  0  0  0  0  0  0  0  0
   -4.9598   19.6099  -31.4291 H   0  0  0  0  0  0  0  0  0  0  0  0
   -2.7637   23.8510  -31.2521 H   0  0  0  0  0  0  0  0  0  0  0  0
   -2.2612   22.6862  -28.4459 H   0  0  0  0  0  0  0  0  0  0  0  0
  1  2  1  0
  2  3  2  0
  2  4  1  0
  4  5  2  0
  5  6  1  0
  6  7  2  0
  7  8  1  0
  8  9  2  0
  9 10  1  0
 10 11  1  0
 11 12  2  0
 11 13  1  0
 13 14  1  0
 14 15  1  0
 15 16  1  0
 16 17  2  0
  9 18  1  0
 18 19  2  0
 19 20  1  0
 20 21  1  0
 21 22  2  0
 21 23  1  0
 23 24  2  3
 24 25  1  0
 25 26  2  0
 25 27  1  0
 20  4  1  0
 19  6  1  0
  1 28  1  0
  1 29  1  0
  5 30  1  0
  7 31  1  0
  8 32  1  0
 10 33  1  0
 10 34  1  0
 14 35  1  0
 14 36  1  0
 18 37  1  0
 23 38  1  0
 24 39  1  0
M  CHG  1  27  -1
M  END
>  <UniqueID>  (73) 
72

>  <SMILES>  (73) 
NC(=O)c1cc2ccc(CC(=O)OCOP=O)cc2n1C(=O)C=CC(=O)[O-]

>  <Energy>  (73) 
74.06735868444245

>  <Genealogy>  (73) 
NC(=O)c1cc2ccc(CC(=O)OCOP=O)cc2n1C(=O)C=CC(=O)[O-] (protonated)
NC(=O)c1cc2ccc(CC(=O)OCOP=O)cc2n1C(=O)C=CC(=O)[O-] (3D coordinates assigned)
NC(=O)c1cc2ccc(CC(=O)OCOP=O)cc2n1C(=O)C=CC(=O)[O-] (optimized conformer: 74.06735868444245 kcal/mol)

>  <smiles>  (73) 
NC(=O)c1cc2ccc(CC(=O)OCOP=O)cc2n1C(=O)C=CC(=O)O

>  <score_type>  (73) 
oracle

>  <origin>  (73) 
adg

>  <m_score__min__energy>  (73) 
-10.710000000000001

>  <m_primary>  (73) 
energy

$$$$
74:0
     RDKit          3D

 39 41  0  0  0  0  0  0  0  0999 V2000
   -6.2480   17.1130  -31.7490 C   0  0  0  0  0  0  0  0  0  0  0  0
   -6.3240   18.1650  -32.7700 N   0  0  0  0  0  0  0  0  0  0  0  0
   -6.1280   17.8040  -34.1790 C   0  0  0  0  0  0  0  0  0  0  0  0
   -6.5860   19.5410  -32.3910 C   0  0  0  0  0  0  0  0  0  0  0  0
   -7.8990   20.0860  -32.4870 C   0  0  0  0  0  0  0  0  0  0  0  0
   -8.1600   21.4180  -32.1250 C   0  0  0  0  0  0  0  0  0  0  0  0
   -7.0990   22.1940  -31.6770 C   0  0  0  0  0  0  0  0  0  0  0  0
   -7.0730   23.5010  -31.2480 C   0  0  0  0  0  0  0  0  0  0  0  0
   -5.7460   23.7520  -30.9030 C   0  0  0  0  0  0  0  0  0  0  0  0
   -5.2600   25.0570  -30.4070 C   0  0  0  0  0  0  0  0  0  0  0  0
   -3.8780   25.4030  -30.4750 N   0  0  0  0  0  0  0  0  0  0  0  0
   -6.0790   25.8910  -29.9370 O   0  0  0  0  0  0  0  0  0  0  0  0
   -4.9820   22.6460  -31.1260 N   0  0  0  0  0  0  0  0  0  0  0  0
   -3.5980   22.4550  -30.8010 C   0  0  0  0  0  0  0  0  0  0  0  0
   -2.7150   22.8880  -31.5900 O   0  0  0  0  0  0  0  0  0  0  0  0
   -3.1820   21.8160  -29.5360 C   0  0  0  0  0  0  0  0  0  0  0  0
   -2.4990   20.6200  -29.4410 C   0  0  0  0  0  0  0  0  0  0  0  0
   -2.3210   20.3860  -28.0940 C   0  0  0  0  0  0  0  0  0  0  0  0
   -2.8680   21.3570  -27.3990 O   0  0  0  0  0  0  0  0  0  0  0  0
   -3.3970   22.2320  -28.2250 C   0  0  0  0  0  0  0  0  0  0  0  0
   -4.1510   23.4340  -27.7500 C   0  0  0  0  0  0  0  0  0  0  0  0
   -3.0380   24.5950  -26.9860 Cl  0  0  0  0  0  0  0  0  0  0  0  0
   -5.8280   21.6980  -31.5830 C   0  0  0  0  0  0  0  0  0  0  0  0
   -5.5370   20.3720  -31.9190 C   0  0  0  0  0  0  0  0  0  0  0  0
   -6.2810   17.5697  -30.7488 H   0  0  0  0  0  0  0  0  0  0  0  0
   -7.0988   16.4258  -31.8666 H   0  0  0  0  0  0  0  0  0  0  0  0
   -5.3072   16.5552  -31.8666 H   0  0  0  0  0  0  0  0  0  0  0  0
   -5.6040   16.8388  -34.2407 H   0  0  0  0  0  0  0  0  0  0  0  0
   -7.1059   17.7228  -34.6761 H   0  0  0  0  0  0  0  0  0  0  0  0
   -5.5273   18.5799  -34.6761 H   0  0  0  0  0  0  0  0  0  0  0  0
   -8.7220   19.4532  -32.8506 H   0  0  0  0  0  0  0  0  0  0  0  0
   -9.1757   21.8345  -32.1944 H   0  0  0  0  0  0  0  0  0  0  0  0
   -7.9203   24.2001  -31.1896 H   0  0  0  0  0  0  0  0  0  0  0  0
   -3.5220   26.0500  -31.2130 H   0  0  0  0  0  0  0  0  0  0  0  0
   -2.1643   19.9823  -30.2724 H   0  0  0  0  0  0  0  0  0  0  0  0
   -1.7995   19.5172  -27.6660 H   0  0  0  0  0  0  0  0  0  0  0  0
   -4.6457   23.9147  -28.6068 H   0  0  0  0  0  0  0  0  0  0  0  0
   -4.9026   23.1178  -27.0116 H   0  0  0  0  0  0  0  0  0  0  0  0
   -4.5139   19.9804  -31.8193 H   0  0  0  0  0  0  0  0  0  0  0  0
  1  2  1  0
  2  3  1  0
  2  4  1  0
  4  5  2  0
  5  6  1  0
  6  7  2  0
  7  8  1  0
  8  9  2  0
  9 10  1  0
 10 11  1  0
 10 12  2  0
  9 13  1  0
 13 14  1  0
 14 15  2  0
 14 16  1  0
 16 17  1  0
 17 18  2  0
 18 19  1  0
 19 20  1  0
 20 21  1  0
 21 22  1  0
 13 23  1  0
 23 24  2  0
 24  4  1  0
 23  7  1  0
 20 16  2  0
  1 25  1  0
  1 26  1  0
  1 27  1  0
  3 28  1  0
  3 29  1  0
  3 30  1  0
  5 31  1  0
  6 32  1  0
  8 33  1  0
 11 34  1  0
 17 35  1  0
 18 36  1  0
 21 37  1  0
 21 38  1  0
 24 39  1  0
M  CHG  1  11  -1
M  END
>  <UniqueID>  (74) 
73

>  <SMILES>  (74) 
CN(C)c1ccc2cc(C([NH-])=O)n(C(=O)c3ccoc3CCl)c2c1

>  <Energy>  (74) 
107.49316932026706

>  <Genealogy>  (74) 
CN(C)c1ccc2cc(C([NH-])=O)n(C(=O)c3ccoc3CCl)c2c1 (protonated)
CN(C)c1ccc2cc(C([NH-])=O)n(C(=O)c3ccoc3CCl)c2c1 (3D coordinates assigned)
CN(C)c1ccc2cc(C([NH-])=O)n(C(=O)c3ccoc3CCl)c2c1 (optimized conformer: 107.49316932026706 kcal/mol)

>  <smiles>  (74) 
CN(C)c1ccc2cc(C(N)=O)n(C(=O)c3ccoc3CCl)c2c1

>  <score_type>  (74) 
oracle

>  <origin>  (74) 
adg

>  <m_score__min__energy>  (74) 
-10.27

>  <m_primary>  (74) 
energy

$$$$
75:0
     RDKit          3D

 32 33  0  0  0  0  0  0  0  0999 V2000
   -5.5710   24.3890  -29.0700 N   0  0  0  0  0  0  0  0  0  0  0  0
   -6.6010   24.1910  -30.0390 C   0  0  0  0  0  0  0  0  0  0  0  0
   -7.3700   25.1480  -30.3210 O   0  0  0  0  0  0  0  0  0  0  0  0
   -6.7920   22.8700  -30.6810 C   0  0  0  0  0  0  0  0  0  0  0  0
   -8.0300   22.2480  -30.8280 C   0  0  0  0  0  0  0  0  0  0  0  0
   -7.7800   21.1050  -31.5530 C   0  0  0  0  0  0  0  0  0  0  0  0
   -8.6550   20.1160  -31.9900 C   0  0  0  0  0  0  0  0  0  0  0  0
   -8.1200   19.0350  -32.7100 C   0  0  0  0  0  0  0  0  0  0  0  0
   -6.7260   18.9470  -32.9590 C   0  0  0  0  0  0  0  0  0  0  0  0
   -6.1680   17.8020  -33.7650 C   0  0  0  0  0  0  0  0  0  0  0  0
   -4.9790   17.3530  -33.2180 F   0  0  0  0  0  0  0  0  0  0  0  0
   -5.9360   18.2270  -35.0600 F   0  0  0  0  0  0  0  0  0  0  0  0
   -7.0600   16.7420  -33.7910 F   0  0  0  0  0  0  0  0  0  0  0  0
   -5.8730   19.9880  -32.5190 C   0  0  0  0  0  0  0  0  0  0  0  0
   -6.4380   21.0620  -31.8200 C   0  0  0  0  0  0  0  0  0  0  0  0
   -5.8150   22.1390  -31.2910 N   0  0  0  0  0  0  0  0  0  0  0  0
   -4.4050   22.4130  -31.3230 C   0  0  0  0  0  0  0  0  0  0  0  0
   -3.8400   22.6730  -32.4210 O   0  0  0  0  0  0  0  0  0  0  0  0
   -3.6700   22.4090  -30.1340 O   0  0  0  0  0  0  0  0  0  0  0  0
   -2.4530   23.1310  -29.9580 C   0  0  0  0  0  0  0  0  0  0  0  0
   -2.7970   24.8180  -29.3690 P   0  0  0  0  0  0  0  0  0  0  0  0
   -3.3910   24.7720  -27.9800 O   0  0  0  0  0  0  0  0  0  0  0  0
   -3.8860   25.5690  -30.4220 O   0  0  0  0  0  0  0  0  0  0  0  0
   -1.3550   25.7000  -29.3310 O   0  0  0  0  0  0  0  0  0  0  0  0
   -4.8800   23.6380  -28.8510 H   0  0  0  0  0  0  0  0  0  0  0  0
   -5.4700   25.3130  -28.5950 H   0  0  0  0  0  0  0  0  0  0  0  0
   -9.0009   22.5963  -30.4459 H   0  0  0  0  0  0  0  0  0  0  0  0
   -9.7326   20.1785  -31.7783 H   0  0  0  0  0  0  0  0  0  0  0  0
   -8.7898   18.2473  -33.0853 H   0  0  0  0  0  0  0  0  0  0  0  0
   -4.7923   19.9540  -32.7214 H   0  0  0  0  0  0  0  0  0  0  0  0
   -1.8258   22.6100  -29.2196 H   0  0  0  0  0  0  0  0  0  0  0  0
   -1.9296   23.1896  -30.9237 H   0  0  0  0  0  0  0  0  0  0  0  0
  1  2  1  0
  2  3  2  0
  2  4  1  0
  4  5  2  0
  5  6  1  0
  6  7  2  0
  7  8  1  0
  8  9  2  0
  9 10  1  0
 10 11  1  0
 10 12  1  0
 10 13  1  0
  9 14  1  0
 14 15  2  0
 15 16  1  0
 16 17  1  0
 17 18  2  0
 17 19  1  0
 19 20  1  0
 20 21  1  0
 21 22  2  0
 21 23  1  0
 21 24  1  0
 16  4  1  0
 15  6  1  0
  1 25  1  0
  1 26  1  0
  5 27  1  0
  7 28  1  0
  8 29  1  0
 14 30  1  0
 20 31  1  0
 20 32  1  0
M  CHG  2  23  -1  24  -1
M  END
>  <UniqueID>  (75) 
74

>  <SMILES>  (75) 
NC(=O)c1cc2ccc(C(F)(F)F)cc2n1C(=O)OCP(=O)([O-])[O-]

>  <Energy>  (75) 
66.64362039351934

>  <Genealogy>  (75) 
NC(=O)c1cc2ccc(C(F)(F)F)cc2n1C(=O)OCP(=O)([O-])[O-] (protonated)
NC(=O)c1cc2ccc(C(F)(F)F)cc2n1C(=O)OCP(=O)([O-])[O-] (3D coordinates assigned)
NC(=O)c1cc2ccc(C(F)(F)F)cc2n1C(=O)OCP(=O)([O-])[O-] (optimized conformer: 66.64362039351934 kcal/mol)

>  <smiles>  (75) 
NC(=O)c1cc2ccc(C(F)(F)F)cc2n1C(=O)OCP(=O)(O)O

>  <score_type>  (75) 
oracle

>  <origin>  (75) 
adg

>  <m_score__min__energy>  (75) 
-11.82

>  <m_primary>  (75) 
energy

$$$$
76:0
     RDKit          3D

 42 43  0  0  0  0  0  0  0  0999 V2000
   -4.6290   14.7880  -32.3310 C   0  0  0  0  0  0  0  0  0  0  0  0
   -4.9620   15.4050  -33.5680 O   0  0  0  0  0  0  0  0  0  0  0  0
   -5.9820   16.3560  -33.6860 C   0  0  0  0  0  0  0  0  0  0  0  0
   -7.1370   16.0060  -34.0540 O   0  0  0  0  0  0  0  0  0  0  0  0
   -5.7220   17.7970  -33.3380 C   0  0  1  0  0  0  0  0  0  0  0  0
   -4.6420   18.4510  -34.2090 C   0  0  0  0  0  0  0  0  0  0  0  0
   -6.9640   18.5830  -33.3580 N   0  0  0  0  0  0  0  0  0  0  0  0
   -7.1680   19.8890  -32.7740 C   0  0  0  0  0  0  0  0  0  0  0  0
   -8.4640   20.4360  -32.5630 C   0  0  0  0  0  0  0  0  0  0  0  0
   -8.6220   21.7110  -31.9930 C   0  0  0  0  0  0  0  0  0  0  0  0
   -7.4780   22.4120  -31.6310 C   0  0  0  0  0  0  0  0  0  0  0  0
   -7.3460   23.6670  -31.0820 C   0  0  0  0  0  0  0  0  0  0  0  0
   -5.9750   23.8630  -30.9340 C   0  0  0  0  0  0  0  0  0  0  0  0
   -5.3880   25.0590  -30.2940 C   0  0  0  0  0  0  0  0  0  0  0  0
   -4.2230   25.6610  -30.8530 N   0  0  0  0  0  0  0  0  0  0  0  0
   -5.9230   25.5780  -29.2790 O   0  0  0  0  0  0  0  0  0  0  0  0
   -5.2860   22.7750  -31.3810 N   0  0  0  0  0  0  0  0  0  0  0  0
   -3.8630   22.5980  -31.4530 C   0  0  0  0  0  0  0  0  0  0  0  0
   -3.3760   21.7160  -32.2130 O   0  0  0  0  0  0  0  0  0  0  0  0
   -3.0250   23.3860  -30.6560 O   0  0  0  0  0  0  0  0  0  0  0  0
   -1.7620   22.9460  -30.1650 C   0  0  0  0  0  0  0  0  0  0  0  0
   -1.1130   24.1220  -28.9390 P   0  0  0  0  0  0  0  0  0  0  0  0
   -1.6290   23.7560  -27.5660 O   0  0  0  0  0  0  0  0  0  0  0  0
   -1.6050   25.6940  -29.3220 O   0  0  0  0  0  0  0  0  0  0  0  0
    0.5770   24.0520  -28.9390 O   0  0  0  0  0  0  0  0  0  0  0  0
   -6.2220   21.8940  -31.8020 C   0  0  0  0  0  0  0  0  0  0  0  0
   -6.0330   20.6360  -32.3830 C   0  0  0  0  0  0  0  0  0  0  0  0
   -4.9716   15.4229  -31.5006 H   0  0  0  0  0  0  0  0  0  0  0  0
   -5.1192   13.8053  -32.2677 H   0  0  0  0  0  0  0  0  0  0  0  0
   -3.5385   14.6585  -32.2677 H   0  0  0  0  0  0  0  0  0  0  0  0
   -5.3260   17.7924  -32.3118 H   0  0  0  0  0  0  0  0  0  0  0  0
   -3.8801   18.9124  -33.5635 H   0  0  0  0  0  0  0  0  0  0  0  0
   -4.1705   17.6866  -34.8440 H   0  0  0  0  0  0  0  0  0  0  0  0
   -5.1009   19.2231  -34.8440 H   0  0  0  0  0  0  0  0  0  0  0  0
   -7.7930   18.1170  -33.7930 H   0  0  0  0  0  0  0  0  0  0  0  0
   -9.3528   19.8545  -32.8492 H   0  0  0  0  0  0  0  0  0  0  0  0
   -9.6223   22.1415  -31.8379 H   0  0  0  0  0  0  0  0  0  0  0  0
   -8.1521   24.3668  -30.8164 H   0  0  0  0  0  0  0  0  0  0  0  0
   -3.2700   25.2960  -30.6290 H   0  0  0  0  0  0  0  0  0  0  0  0
   -1.8804   21.9593  -29.6934 H   0  0  0  0  0  0  0  0  0  0  0  0
   -1.0556   22.8811  -31.0057 H   0  0  0  0  0  0  0  0  0  0  0  0
   -5.0198   20.2350  -32.5331 H   0  0  0  0  0  0  0  0  0  0  0  0
  1  2  1  0
  2  3  1  0
  3  4  2  0
  3  5  1  0
  5  6  1  0
  5  7  1  0
  7  8  1  0
  8  9  2  0
  9 10  1  0
 10 11  2  0
 11 12  1  0
 12 13  2  0
 13 14  1  0
 14 15  1  0
 14 16  2  0
 13 17  1  0
 17 18  1  0
 18 19  2  0
 18 20  1  0
 20 21  1  0
 21 22  1  0
 22 23  2  0
 22 24  1  0
 22 25  1  0
 17 26  1  0
 26 27  2  0
 27  8  1  0
 26 11  1  0
  1 28  1  0
  1 29  1  0
  1 30  1  0
  5 31  1  1
  6 32  1  0
  6 33  1  0
  6 34  1  0
  7 35  1  0
  9 36  1  0
 10 37  1  0
 12 38  1  0
 15 39  1  0
 21 40  1  0
 21 41  1  0
 27 42  1  0
M  CHG  3  15  -1  24  -1  25  -1
M  END
>  <UniqueID>  (76) 
75

>  <SMILES>  (76) 
COC(=O)[C@@H](C)Nc1ccc2cc(C([NH-])=O)n(C(=O)OCP(=O)([O-])[O-])c2c1

>  <Energy>  (76) 
73.99163717299291

>  <Genealogy>  (76) 
COC(=O)C(C)Nc1ccc2cc(C([NH-])=O)n(C(=O)OCP(=O)([O-])[O-])c2c1 (protonated)
COC(=O)[C@@H](C)Nc1ccc2cc(C([NH-])=O)n(C(=O)OCP(=O)([O-])[O-])c2c1 (chirality)
COC(=O)[C@@H](C)Nc1ccc2cc(C([NH-])=O)n(C(=O)OCP(=O)([O-])[O-])c2c1 (3D coordinates assigned)
COC(=O)[C@@H](C)Nc1ccc2cc(C([NH-])=O)n(C(=O)OCP(=O)([O-])[O-])c2c1 (optimized conformer: 73.99163717299291 kcal/mol)

>  <smiles>  (76) 
COC(=O)C(C)Nc1ccc2cc(C(N)=O)n(C(=O)OCP(=O)(O)O)c2c1

>  <score_type>  (76) 
oracle

>  <origin>  (76) 
adg

>  <m_score__min__energy>  (76) 
-13.99

>  <m_primary>  (76) 
energy

$$$$
77:0
     RDKit          3D

 30 31  0  0  0  0  0  0  0  0999 V2000
   -3.9170   25.6610  -30.8450 N   0  0  0  0  0  0  0  0  0  0  0  0
   -5.1550   25.0990  -30.4180 C   0  0  0  0  0  0  0  0  0  0  0  0
   -5.8520   25.7130  -29.5670 O   0  0  0  0  0  0  0  0  0  0  0  0
   -5.6030   23.7820  -30.9180 C   0  0  0  0  0  0  0  0  0  0  0  0
   -6.9290   23.4960  -31.2380 C   0  0  0  0  0  0  0  0  0  0  0  0
   -6.9430   22.1610  -31.5710 C   0  0  0  0  0  0  0  0  0  0  0  0
   -7.9990   21.3530  -31.9830 C   0  0  0  0  0  0  0  0  0  0  0  0
   -7.7210   20.0120  -32.2950 C   0  0  0  0  0  0  0  0  0  0  0  0
   -6.4000   19.5070  -32.1940 C   0  0  0  0  0  0  0  0  0  0  0  0
   -6.1020   18.0770  -32.5430 C   0  0  0  0  0  0  0  0  0  0  0  0
   -6.1900   17.2930  -31.4070 F   0  0  0  0  0  0  0  0  0  0  0  0
   -7.0130   17.6250  -33.4800 F   0  0  0  0  0  0  0  0  0  0  0  0
   -5.3530   20.3580  -31.7740 C   0  0  0  0  0  0  0  0  0  0  0  0
   -5.6630   21.6850  -31.4530 C   0  0  0  0  0  0  0  0  0  0  0  0
   -4.8270   22.6700  -31.0550 N   0  0  0  0  0  0  0  0  0  0  0  0
   -3.4010   22.5750  -30.9160 C   0  0  0  0  0  0  0  0  0  0  0  0
   -2.7310   21.8960  -31.7410 O   0  0  0  0  0  0  0  0  0  0  0  0
   -2.7580   23.2530  -29.8760 O   0  0  0  0  0  0  0  0  0  0  0  0
   -1.3480   23.2250  -29.6940 C   0  0  0  0  0  0  0  0  0  0  0  0
   -0.9090   24.5030  -29.0620 C   0  0  0  0  0  0  0  0  0  0  0  0
    0.1300   24.5340  -28.3520 O   0  0  0  0  0  0  0  0  0  0  0  0
   -1.6140   25.6740  -29.3030 O   0  0  0  0  0  0  0  0  0  0  0  0
   -3.0080   25.2980  -30.4790 H   0  0  0  0  0  0  0  0  0  0  0  0
   -7.7826   24.1898  -31.2267 H   0  0  0  0  0  0  0  0  0  0  0  0
   -9.0207   21.7528  -32.0619 H   0  0  0  0  0  0  0  0  0  0  0  0
   -8.5352   19.3478  -32.6205 H   0  0  0  0  0  0  0  0  0  0  0  0
   -5.0854   18.0125  -32.9582 H   0  0  0  0  0  0  0  0  0  0  0  0
   -4.3200   19.9870  -31.7011 H   0  0  0  0  0  0  0  0  0  0  0  0
   -1.0779   22.3808  -29.0426 H   0  0  0  0  0  0  0  0  0  0  0  0
   -0.8521   23.1055  -30.6686 H   0  0  0  0  0  0  0  0  0  0  0  0
  1  2  1  0
  2  3  2  0
  2  4  1  0
  4  5  2  0
  5  6  1  0
  6  7  2  0
  7  8  1  0
  8  9  2  0
  9 10  1  0
 10 11  1  0
 10 12  1  0
  9 13  1  0
 13 14  2  0
 14 15  1  0
 15 16  1  0
 16 17  2  0
 16 18  1  0
 18 19  1  0
 19 20  1  0
 20 21  2  0
 20 22  1  0
 15  4  1  0
 14  6  1  0
  1 23  1  0
  5 24  1  0
  7 25  1  0
  8 26  1  0
 10 27  1  0
 13 28  1  0
 19 29  1  0
 19 30  1  0
M  CHG  2   1  -1  22  -1
M  END
>  <UniqueID>  (77) 
76

>  <SMILES>  (77) 
[NH-]C(=O)c1cc2ccc(C(F)F)cc2n1C(=O)OCC(=O)[O-]

>  <Energy>  (77) 
66.04224945445127

>  <Genealogy>  (77) 
[NH-]C(=O)c1cc2ccc(C(F)F)cc2n1C(=O)OCC(=O)[O-] (protonated)
[NH-]C(=O)c1cc2ccc(C(F)F)cc2n1C(=O)OCC(=O)[O-] (3D coordinates assigned)
[NH-]C(=O)c1cc2ccc(C(F)F)cc2n1C(=O)OCC(=O)[O-] (optimized conformer: 66.04224945445127 kcal/mol)

>  <smiles>  (77) 
NC(=O)c1cc2ccc(C(F)F)cc2n1C(=O)OCC(=O)O

>  <score_type>  (77) 
oracle

>  <origin>  (77) 
adg

>  <m_score__min__energy>  (77) 
-11.460000000000001

>  <m_primary>  (77) 
energy

$$$$
78:0
     RDKit          3D

 36 37  0  0  0  0  0  0  0  0999 V2000
   -4.2120   25.5050  -30.5730 N   0  0  0  0  0  0  0  0  0  0  0  0
   -5.5480   25.0880  -30.2860 C   0  0  0  0  0  0  0  0  0  0  0  0
   -6.3310   25.8850  -29.7060 O   0  0  0  0  0  0  0  0  0  0  0  0
   -6.0440   23.7640  -30.7140 C   0  0  0  0  0  0  0  0  0  0  0  0
   -7.3950   23.4660  -30.8630 C   0  0  0  0  0  0  0  0  0  0  0  0
   -7.4320   22.1720  -31.3260 C   0  0  0  0  0  0  0  0  0  0  0  0
   -8.5230   21.3660  -31.6400 C   0  0  0  0  0  0  0  0  0  0  0  0
   -8.2720   20.0520  -32.0650 C   0  0  0  0  0  0  0  0  0  0  0  0
   -6.9460   19.5560  -32.1420 C   0  0  0  0  0  0  0  0  0  0  0  0
   -6.6860   18.1540  -32.6330 C   0  0  0  0  0  0  0  0  0  0  0  0
   -6.2420   18.2050  -33.9410 F   0  0  0  0  0  0  0  0  0  0  0  0
   -5.7230   17.5340  -31.8540 F   0  0  0  0  0  0  0  0  0  0  0  0
   -7.8420   17.3940  -32.5770 F   0  0  0  0  0  0  0  0  0  0  0  0
   -5.8620   20.4130  -31.8350 C   0  0  0  0  0  0  0  0  0  0  0  0
   -6.1410   21.7260  -31.4340 C   0  0  0  0  0  0  0  0  0  0  0  0
   -5.2730   22.6950  -31.0590 N   0  0  0  0  0  0  0  0  0  0  0  0
   -3.8480   22.5710  -30.9180 C   0  0  0  0  0  0  0  0  0  0  0  0
   -3.0790   23.3090  -31.5930 O   0  0  0  0  0  0  0  0  0  0  0  0
   -3.3200   21.6280  -30.0320 O   0  0  0  0  0  0  0  0  0  0  0  0
   -3.5090   21.7040  -28.6230 C   0  0  0  0  0  0  0  0  0  0  0  0
   -3.5060   23.0680  -28.2110 O   0  0  0  0  0  0  0  0  0  0  0  0
   -2.4190   23.6620  -27.5640 C   0  0  0  0  0  0  0  0  0  0  0  0
   -1.8270   23.0700  -26.6210 O   0  0  0  0  0  0  0  0  0  0  0  0
   -1.9200   24.9890  -28.0350 C   0  0  0  0  0  0  0  0  0  0  0  0
   -2.2100   25.1540  -29.3950 O   0  0  0  0  0  0  0  0  0  0  0  0
   -3.5930   24.9420  -31.1980 H   0  0  0  0  0  0  0  0  0  0  0  0
   -3.8630   26.4220  -30.2190 H   0  0  0  0  0  0  0  0  0  0  0  0
   -8.2507   24.1251  -30.6548 H   0  0  0  0  0  0  0  0  0  0  0  0
   -9.5513   21.7477  -31.5574 H   0  0  0  0  0  0  0  0  0  0  0  0
   -9.1135   19.3997  -32.3414 H   0  0  0  0  0  0  0  0  0  0  0  0
   -4.8242   20.0561  -31.9096 H   0  0  0  0  0  0  0  0  0  0  0  0
   -4.4725   21.2441  -28.3580 H   0  0  0  0  0  0  0  0  0  0  0  0
   -2.6924   21.1686  -28.1165 H   0  0  0  0  0  0  0  0  0  0  0  0
   -2.4094   25.7878  -27.4585 H   0  0  0  0  0  0  0  0  0  0  0  0
   -0.8308   25.0378  -27.8893 H   0  0  0  0  0  0  0  0  0  0  0  0
   -2.5210   24.2710  -29.7270 H   0  0  0  0  0  0  0  0  0  0  0  0
  1  2  1  0
  2  3  2  0
  2  4  1  0
  4  5  2  0
  5  6  1  0
  6  7  2  0
  7  8  1  0
  8  9  2  0
  9 10  1  0
 10 11  1  0
 10 12  1  0
 10 13  1  0
  9 14  1  0
 14 15  2  0
 15 16  1  0
 16 17  1  0
 17 18  2  0
 17 19  1  0
 19 20  1  0
 20 21  1  0
 21 22  1  0
 22 23  2  0
 22 24  1  0
 24 25  1  0
 16  4  1  0
 15  6  1  0
  1 26  1  0
  1 27  1  0
  5 28  1  0
  7 29  1  0
  8 30  1  0
 14 31  1  0
 20 32  1  0
 20 33  1  0
 24 34  1  0
 24 35  1  0
 25 36  1  0
M  END
>  <UniqueID>  (78) 
77

>  <SMILES>  (78) 
NC(=O)c1cc2ccc(C(F)(F)F)cc2n1C(=O)OCOC(=O)CO

>  <Energy>  (78) 
71.07205897097933

>  <Genealogy>  (78) 
NC(=O)c1cc2ccc(C(F)(F)F)cc2n1C(=O)OCOC(=O)CO (3D coordinates assigned)
NC(=O)c1cc2ccc(C(F)(F)F)cc2n1C(=O)OCOC(=O)CO (optimized conformer: 71.07205897097933 kcal/mol)

>  <smiles>  (78) 
NC(=O)c1cc2ccc(C(F)(F)F)cc2n1C(=O)OCOC(=O)CO

>  <score_type>  (78) 
oracle

>  <origin>  (78) 
adg

>  <m_score__min__energy>  (78) 
-7.4400000000000004

>  <m_primary>  (78) 
energy

$$$$
79:0
     RDKit          3D

 43 45  0  0  0  0  0  0  0  0999 V2000
   -1.1930   26.0290  -29.3380 N   0  0  0  0  0  0  0  0  0  0  0  0
   -1.3680   25.7860  -27.9450 C   0  0  0  0  0  0  0  0  0  0  0  0
   -1.4180   26.7630  -27.1510 O   0  0  0  0  0  0  0  0  0  0  0  0
   -1.4620   24.4080  -27.4160 C   0  0  0  0  0  0  0  0  0  0  0  0
   -0.9050   24.0050  -26.2020 C   0  0  0  0  0  0  0  0  0  0  0  0
   -1.1740   22.6570  -26.1080 C   0  0  0  0  0  0  0  0  0  0  0  0
   -0.8680   21.7490  -25.0990 C   0  0  0  0  0  0  0  0  0  0  0  0
   -1.2980   20.4200  -25.2550 C   0  0  0  0  0  0  0  0  0  0  0  0
   -2.0270   20.0270  -26.4060 C   0  0  0  0  0  0  0  0  0  0  0  0
   -2.4890   18.6050  -26.5490 C   0  0  0  0  0  0  0  0  0  0  0  0
   -2.6960   18.0530  -25.2990 F   0  0  0  0  0  0  0  0  0  0  0  0
   -3.6710   18.5700  -27.2650 F   0  0  0  0  0  0  0  0  0  0  0  0
   -2.3240   20.9790  -27.4060 C   0  0  0  0  0  0  0  0  0  0  0  0
   -1.8660   22.2890  -27.2320 C   0  0  0  0  0  0  0  0  0  0  0  0
   -2.0460   23.3510  -28.0450 N   0  0  0  0  0  0  0  0  0  0  0  0
   -2.7820   23.3610  -29.2770 C   0  0  0  0  0  0  0  0  0  0  0  0
   -2.2130   23.7410  -30.3340 O   0  0  0  0  0  0  0  0  0  0  0  0
   -4.1980   22.9490  -29.3060 C   0  0  0  0  0  0  0  0  0  0  0  0
   -4.7800   22.6570  -28.2270 O   0  0  0  0  0  0  0  0  0  0  0  0
   -4.9150   22.8520  -30.5510 N   0  0  0  0  0  0  0  0  0  0  0  0
   -5.2430   21.5090  -31.0620 C   0  0  0  0  0  0  0  0  0  0  0  0
   -6.5420   21.5150  -31.8870 C   0  0  0  0  0  0  0  0  0  0  0  0
   -7.6070   22.4000  -31.2200 C   0  0  0  0  0  0  0  0  0  0  0  0
   -7.1290   23.8540  -30.9820 C   0  0  0  0  0  0  0  0  0  0  0  0
   -5.6030   24.0110  -31.1520 C   0  0  1  0  0  0  0  0  0  0  0  0
   -5.0800   25.3390  -30.6530 C   0  0  0  0  0  0  0  0  0  0  0  0
   -3.8630   25.6460  -30.7690 O   0  0  0  0  0  0  0  0  0  0  0  0
   -5.9630   26.2590  -30.1030 O   0  0  0  0  0  0  0  0  0  0  0  0
   -1.7520   25.5080  -30.0490 H   0  0  0  0  0  0  0  0  0  0  0  0
   -0.3660   24.6302  -25.4749 H   0  0  0  0  0  0  0  0  0  0  0  0
   -0.3066   22.0618  -24.2063 H   0  0  0  0  0  0  0  0  0  0  0  0
   -1.0668   19.6777  -24.4768 H   0  0  0  0  0  0  0  0  0  0  0  0
   -1.7185   18.0281  -27.0814 H   0  0  0  0  0  0  0  0  0  0  0  0
   -2.9010   20.6973  -28.2992 H   0  0  0  0  0  0  0  0  0  0  0  0
   -4.4177   21.1588  -31.6993 H   0  0  0  0  0  0  0  0  0  0  0  0
   -5.3872   20.8404  -30.2005 H   0  0  0  0  0  0  0  0  0  0  0  0
   -6.3284   21.9040  -32.8935 H   0  0  0  0  0  0  0  0  0  0  0  0
   -6.9260   20.4860  -31.9482 H   0  0  0  0  0  0  0  0  0  0  0  0
   -8.4960   22.4256  -31.8674 H   0  0  0  0  0  0  0  0  0  0  0  0
   -7.8262   21.9622  -30.2350 H   0  0  0  0  0  0  0  0  0  0  0  0
   -7.6338   24.5136  -31.7032 H   0  0  0  0  0  0  0  0  0  0  0  0
   -7.3786   24.1218  -29.9447 H   0  0  0  0  0  0  0  0  0  0  0  0
   -5.3786   24.0221  -32.2288 H   0  0  0  0  0  0  0  0  0  0  0  0
  1  2  1  0
  2  3  2  0
  2  4  1  0
  4  5  2  0
  5  6  1  0
  6  7  2  0
  7  8  1  0
  8  9  2  0
  9 10  1  0
 10 11  1  0
 10 12  1  0
  9 13  1  0
 13 14  2  0
 14 15  1  0
 15 16  1  0
 16 17  2  0
 16 18  1  0
 18 19  2  0
 18 20  1  0
 20 21  1  0
 21 22  1  0
 22 23  1  0
 23 24  1  0
 24 25  1  0
 25 26  1  0
 26 27  2  0
 26 28  1  0
 15  4  1  0
 25 20  1  0
 14  6  1  0
  1 29  1  0
  5 30  1  0
  7 31  1  0
  8 32  1  0
 10 33  1  0
 13 34  1  0
 21 35  1  0
 21 36  1  0
 22 37  1  0
 22 38  1  0
 23 39  1  0
 23 40  1  0
 24 41  1  0
 24 42  1  0
 25 43  1  6
M  CHG  2   1  -1  28  -1
M  END
>  <UniqueID>  (79) 
78

>  <SMILES>  (79) 
[NH-]C(=O)c1cc2ccc(C(F)F)cc2n1C(=O)C(=O)N1CCCC[C@H]1C(=O)[O-]

>  <Energy>  (79) 
92.52585553924548

>  <Genealogy>  (79) 
[NH-]C(=O)c1cc2ccc(C(F)F)cc2n1C(=O)C(=O)N1CCCCC1C(=O)[O-] (protonated)
[NH-]C(=O)c1cc2ccc(C(F)F)cc2n1C(=O)C(=O)N1CCCC[C@H]1C(=O)[O-] (chirality)
[NH-]C(=O)c1cc2ccc(C(F)F)cc2n1C(=O)C(=O)N1CCCC[C@H]1C(=O)[O-] (3D coordinates assigned)
[NH-]C(=O)c1cc2ccc(C(F)F)cc2n1C(=O)C(=O)N1CCCC[C@H]1C(=O)[O-] (nonaromatic ring conformer: 92.52585553924548 kcal/mol)

>  <smiles>  (79) 
NC(=O)c1cc2ccc(C(F)F)cc2n1C(=O)C(=O)N1CCCCC1C(=O)O

>  <score_type>  (79) 
oracle

>  <origin>  (79) 
adg

>  <m_score__min__energy>  (79) 
-12.69

>  <m_primary>  (79) 
energy

$$$$
80:0
     RDKit          3D

 47 49  0  0  0  0  0  0  0  0999 V2000
    1.2500   26.0920  -35.8050 C   0  0  0  0  0  0  0  0  0  0  0  0
    1.1720   24.7780  -36.5240 C   0  0  0  0  0  0  0  0  0  0  0  0
    1.8600   24.6000  -37.5180 O   0  0  0  0  0  0  0  0  0  0  0  0
    0.2620   23.6770  -36.0570 C   0  0  0  0  0  0  0  0  0  0  0  0
    1.0230   22.4940  -35.8470 O   0  0  0  0  0  0  0  0  0  0  0  0
    0.4360   21.2550  -35.5660 C   0  0  0  0  0  0  0  0  0  0  0  0
    0.4990   20.3200  -36.4120 O   0  0  0  0  0  0  0  0  0  0  0  0
   -0.2460   21.0390  -34.2720 C   0  0  0  0  0  0  0  0  0  0  0  0
    0.4490   21.1520  -33.0590 C   0  0  0  0  0  0  0  0  0  0  0  0
   -0.2170   20.9610  -31.8460 C   0  0  0  0  0  0  0  0  0  0  0  0
   -1.5800   20.6580  -31.8490 C   0  0  0  0  0  0  0  0  0  0  0  0
   -2.2610   20.4720  -30.6020 N   0  0  0  0  0  0  0  0  0  0  0  0
   -3.1550   21.4100  -29.9880 C   0  0  0  0  0  0  0  0  0  0  0  0
   -3.5040   21.2760  -28.7850 O   0  0  0  0  0  0  0  0  0  0  0  0
   -3.6620   22.5460  -30.7740 C   0  0  0  0  0  0  0  0  0  0  0  0
   -2.8500   23.3650  -31.2810 O   0  0  0  0  0  0  0  0  0  0  0  0
   -5.0720   22.7320  -30.9680 N   0  0  0  0  0  0  0  0  0  0  0  0
   -5.7800   23.8910  -30.8600 C   0  0  0  0  0  0  0  0  0  0  0  0
   -5.2510   25.1880  -30.3880 C   0  0  0  0  0  0  0  0  0  0  0  0
   -3.9890   25.6740  -30.8390 N   0  0  0  0  0  0  0  0  0  0  0  0
   -5.9090   25.8650  -29.5530 O   0  0  0  0  0  0  0  0  0  0  0  0
   -7.1110   23.6840  -31.2180 C   0  0  0  0  0  0  0  0  0  0  0  0
   -7.1950   22.3510  -31.5570 C   0  0  0  0  0  0  0  0  0  0  0  0
   -8.2810   21.6040  -31.9990 C   0  0  0  0  0  0  0  0  0  0  0  0
   -8.0680   20.2500  -32.3080 C   0  0  0  0  0  0  0  0  0  0  0  0
   -6.7750   19.6740  -32.1960 C   0  0  0  0  0  0  0  0  0  0  0  0
   -6.5590   18.2140  -32.5000 C   0  0  0  0  0  0  0  0  0  0  0  0
   -5.9170   18.0920  -33.7170 F   0  0  0  0  0  0  0  0  0  0  0  0
   -7.7700   17.5470  -32.5590 F   0  0  0  0  0  0  0  0  0  0  0  0
   -5.7840   17.6160  -31.5200 F   0  0  0  0  0  0  0  0  0  0  0  0
   -5.7020   20.4630  -31.7200 C   0  0  0  0  0  0  0  0  0  0  0  0
   -5.9490   21.8020  -31.4010 C   0  0  0  0  0  0  0  0  0  0  0  0
   -2.2410   20.5500  -33.0350 N   0  0  0  0  0  0  0  0  0  0  0  0
   -1.6160   20.7310  -34.2280 C   0  0  0  0  0  0  0  0  0  0  0  0
    1.2396   25.9169  -34.7191 H   0  0  0  0  0  0  0  0  0  0  0  0
    2.1804   26.6081  -36.0843 H   0  0  0  0  0  0  0  0  0  0  0  0
    0.3872   26.7146  -36.0843 H   0  0  0  0  0  0  0  0  0  0  0  0
   -0.2213   23.9748  -35.1148 H   0  0  0  0  0  0  0  0  0  0  0  0
   -0.5086   23.4884  -36.8190 H   0  0  0  0  0  0  0  0  0  0  0  0
    1.5225   21.3919  -33.0628 H   0  0  0  0  0  0  0  0  0  0  0  0
    0.3287   21.0487  -30.8949 H   0  0  0  0  0  0  0  0  0  0  0  0
   -3.0980   25.2990  -30.4440 H   0  0  0  0  0  0  0  0  0  0  0  0
   -7.9221   24.4269  -31.2278 H   0  0  0  0  0  0  0  0  0  0  0  0
   -9.2769   22.0592  -32.1036 H   0  0  0  0  0  0  0  0  0  0  0  0
   -8.9128   19.6289  -32.6406 H   0  0  0  0  0  0  0  0  0  0  0  0
   -4.6962   20.0332  -31.6034 H   0  0  0  0  0  0  0  0  0  0  0  0
   -2.1857   20.6359  -35.1641 H   0  0  0  0  0  0  0  0  0  0  0  0
  1  2  1  0
  2  3  2  0
  2  4  1  0
  4  5  1  0
  5  6  1  0
  6  7  2  0
  6  8  1  0
  8  9  2  0
  9 10  1  0
 10 11  2  0
 11 12  1  0
 12 13  1  0
 13 14  2  0
 13 15  1  0
 15 16  2  0
 15 17  1  0
 17 18  1  0
 18 19  1  0
 19 20  1  0
 19 21  2  0
 18 22  2  0
 22 23  1  0
 23 24  2  0
 24 25  1  0
 25 26  2  0
 26 27  1  0
 27 28  1  0
 27 29  1  0
 27 30  1  0
 26 31  1  0
 31 32  2  0
 11 33  1  0
 33 34  2  0
 34  8  1  0
 32 17  1  0
 32 23  1  0
  1 35  1  0
  1 36  1  0
  1 37  1  0
  4 38  1  0
  4 39  1  0
  9 40  1  0
 10 41  1  0
 20 42  1  0
 22 43  1  0
 24 44  1  0
 25 45  1  0
 31 46  1  0
 34 47  1  0
M  CHG  2  12  -1  20  -1
M  END
>  <UniqueID>  (80) 
79

>  <SMILES>  (80) 
CC(=O)COC(=O)c1ccc([N-]C(=O)C(=O)n2c(C([NH-])=O)cc3ccc(C(F)(F)F)cc32)nc1

>  <Energy>  (80) 
85.38019300542156

>  <Genealogy>  (80) 
CC(=O)COC(=O)c1ccc([N-]C(=O)C(=O)n2c(C([NH-])=O)cc3ccc(C(F)(F)F)cc32)nc1 (protonated)
CC(=O)COC(=O)c1ccc([N-]C(=O)C(=O)n2c(C([NH-])=O)cc3ccc(C(F)(F)F)cc32)nc1 (3D coordinates assigned)
CC(=O)COC(=O)c1ccc([N-]C(=O)C(=O)n2c(C([NH-])=O)cc3ccc(C(F)(F)F)cc32)nc1 (optimized conformer: 85.38019300542156 kcal/mol)

>  <smiles>  (80) 
CC(=O)COC(=O)c1ccc(NC(=O)C(=O)n2c(C(N)=O)cc3ccc(C(F)(F)F)cc32)nc1

>  <score_type>  (80) 
oracle

>  <origin>  (80) 
adg

>  <m_score__min__energy>  (80) 
-12.24

>  <m_primary>  (80) 
energy

$$$$
81:0
     RDKit          3D

 41 42  0  0  0  0  0  0  0  0999 V2000
   -6.1160   17.9000  -33.9130 C   0  0  0  0  0  0  0  0  0  0  0  0
   -6.8740   18.3150  -32.7370 N   0  0  0  0  0  0  0  0  0  0  0  0
   -7.0540   19.6910  -32.3530 C   0  0  0  0  0  0  0  0  0  0  0  0
   -8.3480   20.2630  -32.4190 C   0  0  0  0  0  0  0  0  0  0  0  0
   -8.5670   21.5970  -32.0330 C   0  0  0  0  0  0  0  0  0  0  0  0
   -7.4730   22.3400  -31.6020 C   0  0  0  0  0  0  0  0  0  0  0  0
   -7.4120   23.6320  -31.1310 C   0  0  0  0  0  0  0  0  0  0  0  0
   -6.0730   23.8450  -30.8150 C   0  0  0  0  0  0  0  0  0  0  0  0
   -5.5510   25.1270  -30.2990 C   0  0  0  0  0  0  0  0  0  0  0  0
   -6.1470   25.7730  -29.1730 N   0  0  0  0  0  0  0  0  0  0  0  0
   -4.5330   25.6400  -30.8340 O   0  0  0  0  0  0  0  0  0  0  0  0
   -5.3360   22.7280  -31.0730 N   0  0  0  0  0  0  0  0  0  0  0  0
   -3.9490   22.5090  -30.7690 C   0  0  0  0  0  0  0  0  0  0  0  0
   -3.3610   21.5000  -31.2450 O   0  0  0  0  0  0  0  0  0  0  0  0
   -3.2490   23.4200  -29.9050 N   0  0  0  0  0  0  0  0  0  0  0  0
   -1.8210   23.4330  -29.7420 C   0  0  0  0  0  0  0  0  0  0  0  0
   -1.1130   22.5660  -30.3200 O   0  0  0  0  0  0  0  0  0  0  0  0
   -1.1860   24.4550  -28.8730 C   0  0  0  0  0  0  0  0  0  0  0  0
   -1.5110   25.6630  -29.0380 O   0  0  0  0  0  0  0  0  0  0  0  0
   -0.2160   24.1210  -27.8520 N   0  0  0  0  0  0  0  0  0  0  0  0
    0.4850   22.8320  -27.8470 C   0  0  0  0  0  0  0  0  0  0  0  0
    0.1350   25.1370  -26.8550 C   0  0  0  0  0  0  0  0  0  0  0  0
   -6.2090   21.8140  -31.5520 C   0  0  0  0  0  0  0  0  0  0  0  0
   -5.9670   20.4790  -31.8990 C   0  0  0  0  0  0  0  0  0  0  0  0
   -5.1925   17.3944  -33.5943 H   0  0  0  0  0  0  0  0  0  0  0  0
   -6.7234   17.2086  -34.5155 H   0  0  0  0  0  0  0  0  0  0  0  0
   -5.8608   18.7842  -34.5155 H   0  0  0  0  0  0  0  0  0  0  0  0
   -7.3190   17.5670  -32.1550 H   0  0  0  0  0  0  0  0  0  0  0  0
   -9.1925   19.6557  -32.7769 H   0  0  0  0  0  0  0  0  0  0  0  0
   -9.5732   22.0398  -32.0707 H   0  0  0  0  0  0  0  0  0  0  0  0
   -8.2438   24.3442  -31.0266 H   0  0  0  0  0  0  0  0  0  0  0  0
   -6.8680   25.2910  -28.5930 H   0  0  0  0  0  0  0  0  0  0  0  0
   -5.7860   26.6970  -28.8490 H   0  0  0  0  0  0  0  0  0  0  0  0
   -3.8190   24.1300  -29.3950 H   0  0  0  0  0  0  0  0  0  0  0  0
    0.6585   22.5130  -26.8087 H   0  0  0  0  0  0  0  0  0  0  0  0
   -0.1280   22.0792  -28.3643 H   0  0  0  0  0  0  0  0  0  0  0  0
    1.4500   22.9374  -28.3643 H   0  0  0  0  0  0  0  0  0  0  0  0
   -0.0075   24.7245  -25.8453 H   0  0  0  0  0  0  0  0  0  0  0  0
    1.1868   25.4311  -26.9858 H   0  0  0  0  0  0  0  0  0  0  0  0
   -0.5110   26.0177  -26.9858 H   0  0  0  0  0  0  0  0  0  0  0  0
   -4.9564   20.0518  -31.8210 H   0  0  0  0  0  0  0  0  0  0  0  0
  1  2  1  0
  2  3  1  0
  3  4  2  0
  4  5  1  0
  5  6  2  0
  6  7  1  0
  7  8  2  0
  8  9  1  0
  9 10  1  0
  9 11  2  0
  8 12  1  0
 12 13  1  0
 13 14  2  0
 13 15  1  0
 15 16  1  0
 16 17  2  0
 16 18  1  0
 18 19  2  0
 18 20  1  0
 20 21  1  0
 20 22  1  0
 12 23  1  0
 23 24  2  0
 24  3  1  0
 23  6  1  0
  1 25  1  0
  1 26  1  0
  1 27  1  0
  2 28  1  0
  4 29  1  0
  5 30  1  0
  7 31  1  0
 10 32  1  0
 10 33  1  0
 15 34  1  0
 21 35  1  0
 21 36  1  0
 21 37  1  0
 22 38  1  0
 22 39  1  0
 22 40  1  0
 24 41  1  0
M  END
>  <UniqueID>  (81) 
80

>  <SMILES>  (81) 
CNc1ccc2cc(C(N)=O)n(C(=O)NC(=O)C(=O)N(C)C)c2c1

>  <Energy>  (81) 
79.57744663117124

>  <Genealogy>  (81) 
CNc1ccc2cc(C(N)=O)n(C(=O)NC(=O)C(=O)N(C)C)c2c1 (3D coordinates assigned)
CNc1ccc2cc(C(N)=O)n(C(=O)NC(=O)C(=O)N(C)C)c2c1 (optimized conformer: 79.57744663117124 kcal/mol)

>  <smiles>  (81) 
CNc1ccc2cc(C(N)=O)n(C(=O)NC(=O)C(=O)N(C)C)c2c1

>  <score_type>  (81) 
oracle

>  <origin>  (81) 
adg

>  <m_score__min__energy>  (81) 
-9.3300000000000001

>  <m_primary>  (81) 
energy

$$$$
82:0
     RDKit          3D

 39 40  0  0  0  0  0  0  0  0999 V2000
   -2.5910   20.5340  -29.8370 C   0  0  0  0  0  0  0  0  0  0  0  0
   -3.3110   21.7930  -29.6210 N   0  0  0  0  0  0  0  0  0  0  0  0
   -3.5600   22.2780  -28.2560 C   0  0  0  0  0  0  0  0  0  0  0  0
   -2.4300   23.2180  -27.8160 C   0  0  0  0  0  0  0  0  0  0  0  0
   -2.7560   24.6840  -28.1180 C   0  0  0  0  0  0  0  0  0  0  0  0
   -1.8950   25.1990  -29.0970 O   0  0  0  0  0  0  0  0  0  0  0  0
   -3.7420   22.5720  -30.7560 C   0  0  0  0  0  0  0  0  0  0  0  0
   -2.8920   23.0560  -31.5520 O   0  0  0  0  0  0  0  0  0  0  0  0
   -5.1370   22.8070  -30.9950 N   0  0  0  0  0  0  0  0  0  0  0  0
   -5.8320   23.9600  -30.7960 C   0  0  0  0  0  0  0  0  0  0  0  0
   -5.2510   25.2500  -30.3720 C   0  0  0  0  0  0  0  0  0  0  0  0
   -3.9660   25.6430  -30.8480 N   0  0  0  0  0  0  0  0  0  0  0  0
   -5.8760   26.0050  -29.5810 O   0  0  0  0  0  0  0  0  0  0  0  0
   -7.1840   23.7650  -31.0740 C   0  0  0  0  0  0  0  0  0  0  0  0
   -7.2940   22.4420  -31.4450 C   0  0  0  0  0  0  0  0  0  0  0  0
   -8.4160   21.6960  -31.7890 C   0  0  0  0  0  0  0  0  0  0  0  0
   -8.2370   20.3310  -32.0780 C   0  0  0  0  0  0  0  0  0  0  0  0
   -6.9460   19.7420  -32.0280 C   0  0  0  0  0  0  0  0  0  0  0  0
   -6.7680   18.2650  -32.2700 C   0  0  0  0  0  0  0  0  0  0  0  0
   -8.0120   17.6630  -32.3310 F   0  0  0  0  0  0  0  0  0  0  0  0
   -6.0370   17.6890  -31.2440 F   0  0  0  0  0  0  0  0  0  0  0  0
   -6.0990   18.0370  -33.4600 F   0  0  0  0  0  0  0  0  0  0  0  0
   -5.8350   20.5300  -31.6480 C   0  0  0  0  0  0  0  0  0  0  0  0
   -6.0440   21.8870  -31.3840 C   0  0  0  0  0  0  0  0  0  0  0  0
   -2.3351   20.0866  -28.8652 H   0  0  0  0  0  0  0  0  0  0  0  0
   -3.2285   19.8396  -30.4039 H   0  0  0  0  0  0  0  0  0  0  0  0
   -1.6692   20.7314  -30.4039 H   0  0  0  0  0  0  0  0  0  0  0  0
   -4.5158   22.8219  -28.2319 H   0  0  0  0  0  0  0  0  0  0  0  0
   -3.6009   21.4187  -27.5705 H   0  0  0  0  0  0  0  0  0  0  0  0
   -2.2742   23.1042  -26.7331 H   0  0  0  0  0  0  0  0  0  0  0  0
   -1.5237   22.9477  -28.3777 H   0  0  0  0  0  0  0  0  0  0  0  0
   -3.7931   24.7551  -28.4777 H   0  0  0  0  0  0  0  0  0  0  0  0
   -2.6270   25.2688  -27.1953 H   0  0  0  0  0  0  0  0  0  0  0  0
   -2.4660   25.6660  -29.7620 H   0  0  0  0  0  0  0  0  0  0  0  0
   -3.1310   25.0330  -30.7040 H   0  0  0  0  0  0  0  0  0  0  0  0
   -7.9917   24.5090  -31.0107 H   0  0  0  0  0  0  0  0  0  0  0  0
   -9.4128   22.1590  -31.8337 H   0  0  0  0  0  0  0  0  0  0  0  0
   -9.1068   19.7131  -32.3457 H   0  0  0  0  0  0  0  0  0  0  0  0
   -4.8319   20.0867  -31.5623 H   0  0  0  0  0  0  0  0  0  0  0  0
  1  2  1  0
  2  3  1  0
  3  4  1  0
  4  5  1  0
  5  6  1  0
  2  7  1  0
  7  8  2  0
  7  9  1  0
  9 10  1  0
 10 11  1  0
 11 12  1  0
 11 13  2  0
 10 14  2  0
 14 15  1  0
 15 16  2  0
 16 17  1  0
 17 18  2  0
 18 19  1  0
 19 20  1  0
 19 21  1  0
 19 22  1  0
 18 23  1  0
 23 24  2  0
 24  9  1  0
 24 15  1  0
  1 25  1  0
  1 26  1  0
  1 27  1  0
  3 28  1  0
  3 29  1  0
  4 30  1  0
  4 31  1  0
  5 32  1  0
  5 33  1  0
  6 34  1  0
 12 35  1  0
 14 36  1  0
 16 37  1  0
 17 38  1  0
 23 39  1  0
M  CHG  1  12  -1
M  END
>  <UniqueID>  (82) 
81

>  <SMILES>  (82) 
CN(CCCO)C(=O)n1c(C([NH-])=O)cc2ccc(C(F)(F)F)cc21

>  <Energy>  (82) 
72.376187970262

>  <Genealogy>  (82) 
CN(CCCO)C(=O)n1c(C([NH-])=O)cc2ccc(C(F)(F)F)cc21 (protonated)
CN(CCCO)C(=O)n1c(C([NH-])=O)cc2ccc(C(F)(F)F)cc21 (3D coordinates assigned)
CN(CCCO)C(=O)n1c(C([NH-])=O)cc2ccc(C(F)(F)F)cc21 (optimized conformer: 72.376187970262 kcal/mol)

>  <smiles>  (82) 
CN(CCCO)C(=O)n1c(C(N)=O)cc2ccc(C(F)(F)F)cc21

>  <score_type>  (82) 
oracle

>  <origin>  (82) 
adg

>  <m_score__min__energy>  (82) 
-10.35

>  <m_primary>  (82) 
energy

$$$$
83:0
     RDKit          3D

 31 32  0  0  0  0  0  0  0  0999 V2000
   -5.9250   19.2880  -34.0000 C   0  0  0  0  0  0  0  0  0  0  0  0
   -5.9700   20.2120  -32.8590 N   0  0  0  0  0  0  0  0  0  0  0  0
   -7.2780   20.6530  -32.3450 C   0  0  0  0  0  0  0  0  0  0  0  0
   -8.2490   19.5140  -32.3340 C   0  0  0  0  0  0  0  0  0  0  0  0
   -9.4260   19.6780  -32.7520 O   0  0  0  0  0  0  0  0  0  0  0  0
   -7.8590   18.2750  -31.8430 O   0  0  0  0  0  0  0  0  0  0  0  0
   -4.7330   20.6670  -32.2540 C   0  0  0  0  0  0  0  0  0  0  0  0
   -3.5690   19.8520  -32.2980 C   0  0  0  0  0  0  0  0  0  0  0  0
   -2.3630   20.2820  -31.7220 C   0  0  0  0  0  0  0  0  0  0  0  0
   -2.3430   21.5240  -31.0990 C   0  0  0  0  0  0  0  0  0  0  0  0
   -1.3070   22.1890  -30.4850 C   0  0  0  0  0  0  0  0  0  0  0  0
   -1.8500   23.3950  -30.0490 C   0  0  0  0  0  0  0  0  0  0  0  0
   -1.0920   24.3860  -29.2550 C   0  0  0  0  0  0  0  0  0  0  0  0
   -1.6310   25.6770  -28.9830 N   0  0  0  0  0  0  0  0  0  0  0  0
    0.0280   24.0720  -28.7700 O   0  0  0  0  0  0  0  0  0  0  0  0
   -3.1690   23.4760  -30.3860 N   0  0  0  0  0  0  0  0  0  0  0  0
   -4.0630   24.5830  -30.1910 C   0  0  0  0  0  0  0  0  0  0  0  0
   -3.8800   25.6670  -30.8050 O   0  0  0  0  0  0  0  0  0  0  0  0
   -5.1550   24.4610  -29.3400 O   0  0  0  0  0  0  0  0  0  0  0  0
   -3.4550   22.3200  -31.0260 C   0  0  0  0  0  0  0  0  0  0  0  0
   -4.6640   21.9290  -31.6110 C   0  0  0  0  0  0  0  0  0  0  0  0
   -5.8746   18.2527  -33.6317 H   0  0  0  0  0  0  0  0  0  0  0  0
   -6.8304   19.4160  -34.6114 H   0  0  0  0  0  0  0  0  0  0  0  0
   -5.0363   19.5034  -34.6114 H   0  0  0  0  0  0  0  0  0  0  0  0
   -7.1546   21.0331  -31.3202 H   0  0  0  0  0  0  0  0  0  0  0  0
   -7.6681   21.4462  -32.9998 H   0  0  0  0  0  0  0  0  0  0  0  0
   -3.6139   18.8696  -32.7908 H   0  0  0  0  0  0  0  0  0  0  0  0
   -1.4606   19.6543  -31.7627 H   0  0  0  0  0  0  0  0  0  0  0  0
   -0.2702   21.8419  -30.3641 H   0  0  0  0  0  0  0  0  0  0  0  0
   -2.6620   25.8430  -29.0010 H   0  0  0  0  0  0  0  0  0  0  0  0
   -5.5441   22.5877  -31.5730 H   0  0  0  0  0  0  0  0  0  0  0  0
  1  2  1  0
  2  3  1  0
  3  4  1  0
  4  5  2  0
  4  6  1  0
  2  7  1  0
  7  8  2  0
  8  9  1  0
  9 10  2  0
 10 11  1  0
 11 12  2  0
 12 13  1  0
 13 14  1  0
 13 15  2  0
 12 16  1  0
 16 17  1  0
 17 18  2  0
 17 19  1  0
 16 20  1  0
 20 21  2  0
 21  7  1  0
 20 10  1  0
  1 22  1  0
  1 23  1  0
  1 24  1  0
  3 25  1  0
  3 26  1  0
  8 27  1  0
  9 28  1  0
 11 29  1  0
 14 30  1  0
 21 31  1  0
M  CHG  3   6  -1  14  -1  19  -1
M  END
>  <UniqueID>  (83) 
82

>  <SMILES>  (83) 
CN(CC(=O)[O-])c1ccc2cc(C([NH-])=O)n(C(=O)[O-])c2c1

>  <Energy>  (83) 
72.94275723976162

>  <Genealogy>  (83) 
CN(CC(=O)[O-])c1ccc2cc(C([NH-])=O)n(C(=O)[O-])c2c1 (protonated)
CN(CC(=O)[O-])c1ccc2cc(C([NH-])=O)n(C(=O)[O-])c2c1 (3D coordinates assigned)
CN(CC(=O)[O-])c1ccc2cc(C([NH-])=O)n(C(=O)[O-])c2c1 (optimized conformer: 72.94275723976162 kcal/mol)

>  <smiles>  (83) 
CN(CC(=O)O)c1ccc2cc(C(N)=O)n(C(=O)O)c2c1

>  <score_type>  (83) 
oracle

>  <origin>  (83) 
adg

>  <m_score__min__energy>  (83) 
-10.25

>  <m_primary>  (83) 
energy

$$$$
84:0
     RDKit          3D

 48 49  0  0  0  0  0  0  0  0999 V2000
   -2.7070   25.5960  -26.1760 C   0  0  0  0  0  0  0  0  0  0  0  0
   -1.4270   24.9760  -26.5450 N   0  0  0  0  0  0  0  0  0  0  0  0
   -0.6140   24.2870  -25.5430 C   0  0  0  0  0  0  0  0  0  0  0  0
   -0.9480   25.0690  -27.8980 C   0  0  0  0  0  0  0  0  0  0  0  0
   -1.6030   25.7210  -28.7610 O   0  0  0  0  0  0  0  0  0  0  0  0
    0.2590   24.4470  -28.2500 O   0  0  0  0  0  0  0  0  0  0  0  0
    0.4650   23.0360  -28.2020 C   0  0  0  0  0  0  0  0  0  0  0  0
   -0.4870   22.3140  -29.1040 C   0  0  0  0  0  0  0  0  0  0  0  0
   -1.4010   21.6070  -28.5950 O   0  0  0  0  0  0  0  0  0  0  0  0
   -0.3870   22.4600  -30.4940 O   0  0  0  0  0  0  0  0  0  0  0  0
   -0.6870   21.4240  -31.4260 C   0  0  0  0  0  0  0  0  0  0  0  0
   -1.7510   21.8300  -32.2830 O   0  0  0  0  0  0  0  0  0  0  0  0
   -2.9800   21.1650  -32.3690 C   0  0  0  0  0  0  0  0  0  0  0  0
   -3.3190   20.5740  -33.4280 O   0  0  0  0  0  0  0  0  0  0  0  0
   -3.8870   21.1690  -31.2140 C   0  0  0  0  0  0  0  0  0  0  0  0
   -3.6470   20.4180  -30.2300 O   0  0  0  0  0  0  0  0  0  0  0  0
   -5.0250   22.0430  -31.1780 N   0  0  0  0  0  0  0  0  0  0  0  0
   -5.0420   23.3640  -30.8450 C   0  0  0  0  0  0  0  0  0  0  0  0
   -3.8420   24.1850  -30.5510 C   0  0  0  0  0  0  0  0  0  0  0  0
   -2.5860   23.5740  -30.2500 N   0  0  0  0  0  0  0  0  0  0  0  0
   -3.9240   25.4440  -30.5470 O   0  0  0  0  0  0  0  0  0  0  0  0
   -6.3480   23.8550  -30.8810 C   0  0  0  0  0  0  0  0  0  0  0  0
   -7.1330   22.7810  -31.2400 C   0  0  0  0  0  0  0  0  0  0  0  0
   -8.5090   22.6980  -31.4200 C   0  0  0  0  0  0  0  0  0  0  0  0
   -9.0520   21.4510  -31.7740 C   0  0  0  0  0  0  0  0  0  0  0  0
   -8.2210   20.3100  -31.9140 C   0  0  0  0  0  0  0  0  0  0  0  0
   -8.8100   18.9900  -32.3350 C   0  0  0  0  0  0  0  0  0  0  0  0
   -9.9170   19.2190  -33.1260 F   0  0  0  0  0  0  0  0  0  0  0  0
   -9.1910   18.2520  -31.2280 F   0  0  0  0  0  0  0  0  0  0  0  0
   -7.8870   18.2470  -33.0540 F   0  0  0  0  0  0  0  0  0  0  0  0
   -6.8220   20.4420  -31.7430 C   0  0  0  0  0  0  0  0  0  0  0  0
   -6.3110   21.6990  -31.4090 C   0  0  0  0  0  0  0  0  0  0  0  0
   -2.7920   25.6372  -25.0801 H   0  0  0  0  0  0  0  0  0  0  0  0
   -2.7521   26.6158  -26.5858 H   0  0  0  0  0  0  0  0  0  0  0  0
   -3.5351   24.9992  -26.5858 H   0  0  0  0  0  0  0  0  0  0  0  0
   -0.9522   24.5736  -24.5363 H   0  0  0  0  0  0  0  0  0  0  0  0
   -0.7199   23.1995  -25.6696 H   0  0  0  0  0  0  0  0  0  0  0  0
    0.4415   24.5698  -25.6696 H   0  0  0  0  0  0  0  0  0  0  0  0
    1.4951   22.8138  -28.5174 H   0  0  0  0  0  0  0  0  0  0  0  0
    0.2905   22.6955  -27.1707 H   0  0  0  0  0  0  0  0  0  0  0  0
    0.2060   21.2091  -32.0313 H   0  0  0  0  0  0  0  0  0  0  0  0
   -0.9919   20.5216  -30.8758 H   0  0  0  0  0  0  0  0  0  0  0  0
   -1.7590   24.1700  -30.0210 H   0  0  0  0  0  0  0  0  0  0  0  0
   -2.4570   22.5380  -30.2830 H   0  0  0  0  0  0  0  0  0  0  0  0
   -6.6802   24.8818  -30.6679 H   0  0  0  0  0  0  0  0  0  0  0  0
   -9.1525   23.5805  -31.2895 H   0  0  0  0  0  0  0  0  0  0  0  0
  -10.1348   21.3587  -31.9446 H   0  0  0  0  0  0  0  0  0  0  0  0
   -6.1542   19.5772  -31.8698 H   0  0  0  0  0  0  0  0  0  0  0  0
  1  2  1  0
  2  3  1  0
  2  4  1  0
  4  5  2  0
  4  6  1  0
  6  7  1  0
  7  8  1  0
  8  9  2  0
  8 10  1  0
 10 11  1  0
 11 12  1  0
 12 13  1  0
 13 14  2  0
 13 15  1  0
 15 16  2  0
 15 17  1  0
 17 18  1  0
 18 19  1  0
 19 20  1  0
 19 21  2  0
 18 22  2  0
 22 23  1  0
 23 24  2  0
 24 25  1  0
 25 26  2  0
 26 27  1  0
 27 28  1  0
 27 29  1  0
 27 30  1  0
 26 31  1  0
 31 32  2  0
 32 17  1  0
 32 23  1  0
  1 33  1  0
  1 34  1  0
  1 35  1  0
  3 36  1  0
  3 37  1  0
  3 38  1  0
  7 39  1  0
  7 40  1  0
 11 41  1  0
 11 42  1  0
 20 43  1  0
 20 44  1  0
 22 45  1  0
 24 46  1  0
 25 47  1  0
 31 48  1  0
M  END
>  <UniqueID>  (84) 
83

>  <SMILES>  (84) 
CN(C)C(=O)OCC(=O)OCOC(=O)C(=O)n1c(C(N)=O)cc2ccc(C(F)(F)F)cc21

>  <Energy>  (84) 
80.1725908368208

>  <Genealogy>  (84) 
CN(C)C(=O)OCC(=O)OCOC(=O)C(=O)n1c(C(N)=O)cc2ccc(C(F)(F)F)cc21 (3D coordinates assigned)
CN(C)C(=O)OCC(=O)OCOC(=O)C(=O)n1c(C(N)=O)cc2ccc(C(F)(F)F)cc21 (optimized conformer: 80.1725908368208 kcal/mol)

>  <smiles>  (84) 
CN(C)C(=O)OCC(=O)OCOC(=O)C(=O)n1c(C(N)=O)cc2ccc(C(F)(F)F)cc21

>  <score_type>  (84) 
oracle

>  <origin>  (84) 
adg

>  <m_score__min__energy>  (84) 
-7.9100000000000001

>  <m_primary>  (84) 
energy

$$$$
85:0
     RDKit          3D

 47 48  0  0  0  0  0  0  0  0999 V2000
   -1.5370   22.9830  -26.5040 C   0  0  0  0  0  0  0  0  0  0  0  0
   -2.7400   22.9510  -27.4550 C   0  0  0  0  0  0  0  0  0  0  0  0
   -3.6190   24.1980  -27.2960 C   0  0  0  0  0  0  0  0  0  0  0  0
   -2.3040   22.7880  -28.8560 N   0  0  0  0  0  0  0  0  0  0  0  0
   -1.0040   23.2980  -29.3310 C   0  0  0  0  0  0  0  0  0  0  0  0
   -0.8220   24.7340  -28.9330 C   0  0  0  0  0  0  0  0  0  0  0  0
   -1.6540   25.6040  -29.3090 O   0  0  0  0  0  0  0  0  0  0  0  0
    0.2660   25.1130  -28.1530 O   0  0  0  0  0  0  0  0  0  0  0  0
   -3.1460   22.0490  -29.7560 C   0  0  0  0  0  0  0  0  0  0  0  0
   -3.4340   20.8510  -29.4860 O   0  0  0  0  0  0  0  0  0  0  0  0
   -3.6870   22.6720  -30.9800 C   0  0  0  0  0  0  0  0  0  0  0  0
   -2.9080   23.0510  -31.8940 O   0  0  0  0  0  0  0  0  0  0  0  0
   -5.1020   22.8660  -31.1340 N   0  0  0  0  0  0  0  0  0  0  0  0
   -5.8140   24.0000  -30.8870 C   0  0  0  0  0  0  0  0  0  0  0  0
   -5.2490   25.2910  -30.4380 C   0  0  0  0  0  0  0  0  0  0  0  0
   -3.9270   25.6620  -30.8430 N   0  0  0  0  0  0  0  0  0  0  0  0
   -5.9170   26.0700  -29.6920 O   0  0  0  0  0  0  0  0  0  0  0  0
   -7.1650   23.7930  -31.1690 C   0  0  0  0  0  0  0  0  0  0  0  0
   -7.2540   22.4850  -31.5920 C   0  0  0  0  0  0  0  0  0  0  0  0
   -8.3620   21.7420  -31.9890 C   0  0  0  0  0  0  0  0  0  0  0  0
   -8.1620   20.3990  -32.3520 C   0  0  0  0  0  0  0  0  0  0  0  0
   -6.8610   19.8150  -32.3150 C   0  0  0  0  0  0  0  0  0  0  0  0
   -6.6640   18.4270  -32.6890 N   0  0  0  0  0  0  0  0  0  0  0  0
   -6.2290   18.0730  -34.0500 C   0  0  0  0  0  0  0  0  0  0  0  0
   -6.8390   17.3570  -31.7020 C   0  0  0  0  0  0  0  0  0  0  0  0
   -5.7630   20.6140  -31.9030 C   0  0  0  0  0  0  0  0  0  0  0  0
   -5.9950   21.9480  -31.5600 C   0  0  0  0  0  0  0  0  0  0  0  0
   -1.8922   22.9736  -25.4630 H   0  0  0  0  0  0  0  0  0  0  0  0
   -0.9041   22.1014  -26.6835 H   0  0  0  0  0  0  0  0  0  0  0  0
   -0.9519   23.8970  -26.6835 H   0  0  0  0  0  0  0  0  0  0  0  0
   -3.3514   22.0779  -27.1831 H   0  0  0  0  0  0  0  0  0  0  0  0
   -3.7672   24.4082  -26.2265 H   0  0  0  0  0  0  0  0  0  0  0  0
   -3.1260   25.0575  -27.7737 H   0  0  0  0  0  0  0  0  0  0  0  0
   -4.5942   24.0226  -27.7737 H   0  0  0  0  0  0  0  0  0  0  0  0
   -0.1963   22.6955  -28.8898 H   0  0  0  0  0  0  0  0  0  0  0  0
   -0.9753   23.2280  -30.4284 H   0  0  0  0  0  0  0  0  0  0  0  0
   -3.1420   24.9760  -30.7900 H   0  0  0  0  0  0  0  0  0  0  0  0
   -7.9849   24.5201  -31.0737 H   0  0  0  0  0  0  0  0  0  0  0  0
   -9.3650   22.1928  -32.0178 H   0  0  0  0  0  0  0  0  0  0  0  0
   -9.0210   19.7895  -32.6692 H   0  0  0  0  0  0  0  0  0  0  0  0
   -5.3769   17.3796  -33.9939 H   0  0  0  0  0  0  0  0  0  0  0  0
   -7.0594   17.5908  -34.5866 H   0  0  0  0  0  0  0  0  0  0  0  0
   -5.9256   18.9841  -34.5866 H   0  0  0  0  0  0  0  0  0  0  0  0
   -6.7701   17.7784  -30.6883 H   0  0  0  0  0  0  0  0  0  0  0  0
   -7.8255   16.8899  -31.8386 H   0  0  0  0  0  0  0  0  0  0  0  0
   -6.0527   16.5999  -31.8386 H   0  0  0  0  0  0  0  0  0  0  0  0
   -4.7487   20.1910  -31.8547 H   0  0  0  0  0  0  0  0  0  0  0  0
  1  2  1  0
  2  3  1  0
  2  4  1  0
  4  5  1  0
  5  6  1  0
  6  7  2  0
  6  8  1  0
  4  9  1  0
  9 10  2  0
  9 11  1  0
 11 12  2  0
 11 13  1  0
 13 14  1  0
 14 15  1  0
 15 16  1  0
 15 17  2  0
 14 18  2  0
 18 19  1  0
 19 20  2  0
 20 21  1  0
 21 22  2  0
 22 23  1  0
 23 24  1  0
 23 25  1  0
 22 26  1  0
 26 27  2  0
 27 13  1  0
 27 19  1  0
  1 28  1  0
  1 29  1  0
  1 30  1  0
  2 31  1  0
  3 32  1  0
  3 33  1  0
  3 34  1  0
  5 35  1  0
  5 36  1  0
 16 37  1  0
 18 38  1  0
 20 39  1  0
 21 40  1  0
 24 41  1  0
 24 42  1  0
 24 43  1  0
 25 44  1  0
 25 45  1  0
 25 46  1  0
 26 47  1  0
M  CHG  2   8  -1  16  -1
M  END
>  <UniqueID>  (85) 
84

>  <SMILES>  (85) 
CC(C)N(CC(=O)[O-])C(=O)C(=O)n1c(C([NH-])=O)cc2ccc(N(C)C)cc21

>  <Energy>  (85) 
86.60568854065991

>  <Genealogy>  (85) 
CC(C)N(CC(=O)[O-])C(=O)C(=O)n1c(C([NH-])=O)cc2ccc(N(C)C)cc21 (protonated)
CC(C)N(CC(=O)[O-])C(=O)C(=O)n1c(C([NH-])=O)cc2ccc(N(C)C)cc21 (3D coordinates assigned)
CC(C)N(CC(=O)[O-])C(=O)C(=O)n1c(C([NH-])=O)cc2ccc(N(C)C)cc21 (optimized conformer: 86.60568854065991 kcal/mol)

>  <smiles>  (85) 
CC(C)N(CC(=O)O)C(=O)C(=O)n1c(C(N)=O)cc2ccc(N(C)C)cc21

>  <score_type>  (85) 
oracle

>  <origin>  (85) 
adg

>  <m_score__min__energy>  (85) 
-12.42

>  <m_primary>  (85) 
energy

$$$$
86:0
     RDKit          3D

 39 41  0  0  0  0  0  0  0  0999 V2000
   -3.8920   25.5800  -30.9920 N   0  0  0  0  0  0  0  0  0  0  0  0
   -5.1980   25.2720  -30.5100 C   0  0  0  0  0  0  0  0  0  0  0  0
   -5.7490   26.0490  -29.6850 O   0  0  0  0  0  0  0  0  0  0  0  0
   -5.8870   24.0320  -30.9200 C   0  0  0  0  0  0  0  0  0  0  0  0
   -7.2660   23.8570  -30.8310 C   0  0  0  0  0  0  0  0  0  0  0  0
   -7.4940   22.5560  -31.2170 C   0  0  0  0  0  0  0  0  0  0  0  0
   -8.6890   21.8500  -31.3190 C   0  0  0  0  0  0  0  0  0  0  0  0
   -8.6310   20.5200  -31.7690 C   0  0  0  0  0  0  0  0  0  0  0  0
   -7.3930   19.9330  -32.1250 C   0  0  0  0  0  0  0  0  0  0  0  0
   -7.3380   18.5000  -32.5730 C   0  0  0  0  0  0  0  0  0  0  0  0
   -6.1110   18.2630  -33.3230 N   0  0  0  0  0  0  0  0  0  0  0  0
   -6.0180   18.0980  -34.6570 C   0  0  0  0  0  0  0  0  0  0  0  0
   -4.7050   17.8200  -34.9720 C   0  0  0  0  0  0  0  0  0  0  0  0
   -4.0520   17.8220  -33.7520 C   0  0  0  0  0  0  0  0  0  0  0  0
   -2.6250   17.5650  -33.5330 C   0  0  0  0  0  0  0  0  0  0  0  0
   -2.2160   16.3950  -33.3090 O   0  0  0  0  0  0  0  0  0  0  0  0
   -1.7160   18.6150  -33.5710 O   0  0  0  0  0  0  0  0  0  0  0  0
   -4.9260   18.0870  -32.7610 N   0  0  0  0  0  0  0  0  0  0  0  0
   -6.1990   20.6760  -31.9980 C   0  0  0  0  0  0  0  0  0  0  0  0
   -6.2840   21.9920  -31.5280 C   0  0  0  0  0  0  0  0  0  0  0  0
   -5.2850   22.8870  -31.3520 N   0  0  0  0  0  0  0  0  0  0  0  0
   -3.8970   22.6890  -31.6610 C   0  0  0  0  0  0  0  0  0  0  0  0
   -3.5720   22.0420  -32.6940 O   0  0  0  0  0  0  0  0  0  0  0  0
   -2.9190   23.2400  -30.8210 O   0  0  0  0  0  0  0  0  0  0  0  0
   -2.9810   23.2600  -29.4200 C   0  0  0  0  0  0  0  0  0  0  0  0
   -2.4630   24.2010  -28.7580 O   0  0  0  0  0  0  0  0  0  0  0  0
   -3.6110   22.1120  -28.7000 C   0  0  0  0  0  0  0  0  0  0  0  0
   -3.4880   20.9690  -29.4660 F   0  0  0  0  0  0  0  0  0  0  0  0
   -4.9510   22.3720  -28.4810 F   0  0  0  0  0  0  0  0  0  0  0  0
   -2.9860   21.9170  -27.4820 F   0  0  0  0  0  0  0  0  0  0  0  0
   -3.0400   25.2790  -30.4660 H   0  0  0  0  0  0  0  0  0  0  0  0
   -8.0138   24.6007  -30.5186 H   0  0  0  0  0  0  0  0  0  0  0  0
   -9.6488   22.3184  -31.0556 H   0  0  0  0  0  0  0  0  0  0  0  0
   -9.5560   19.9297  -31.8453 H   0  0  0  0  0  0  0  0  0  0  0  0
   -7.3606   17.8412  -31.6924 H   0  0  0  0  0  0  0  0  0  0  0  0
   -8.2038   18.2879  -33.2175 H   0  0  0  0  0  0  0  0  0  0  0  0
   -6.8492   18.1725  -35.3736 H   0  0  0  0  0  0  0  0  0  0  0  0
   -4.2741   17.6379  -35.9676 H   0  0  0  0  0  0  0  0  0  0  0  0
   -5.2275   20.2324  -32.2615 H   0  0  0  0  0  0  0  0  0  0  0  0
  1  2  1  0
  2  3  2  0
  2  4  1  0
  4  5  2  0
  5  6  1  0
  6  7  2  0
  7  8  1  0
  8  9  2  0
  9 10  1  0
 10 11  1  0
 11 12  1  0
 12 13  2  0
 13 14  1  0
 14 15  1  0
 15 16  2  0
 15 17  1  0
 14 18  2  0
  9 19  1  0
 19 20  2  0
 20 21  1  0
 21 22  1  0
 22 23  2  0
 22 24  1  0
 24 25  1  0
 25 26  2  0
 25 27  1  0
 27 28  1  0
 27 29  1  0
 27 30  1  0
 21  4  1  0
 20  6  1  0
 18 11  1  0
  1 31  1  0
  5 32  1  0
  7 33  1  0
  8 34  1  0
 10 35  1  0
 10 36  1  0
 12 37  1  0
 13 38  1  0
 19 39  1  0
M  CHG  2   1  -1  17  -1
M  END
>  <UniqueID>  (86) 
85

>  <SMILES>  (86) 
[NH-]C(=O)c1cc2ccc(Cn3ccc(C(=O)[O-])n3)cc2n1C(=O)OC(=O)C(F)(F)F

>  <Energy>  (86) 
107.03766112213475

>  <Genealogy>  (86) 
[NH-]C(=O)c1cc2ccc(Cn3ccc(C(=O)[O-])n3)cc2n1C(=O)OC(=O)C(F)(F)F (protonated)
[NH-]C(=O)c1cc2ccc(Cn3ccc(C(=O)[O-])n3)cc2n1C(=O)OC(=O)C(F)(F)F (3D coordinates assigned)
[NH-]C(=O)c1cc2ccc(Cn3ccc(C(=O)[O-])n3)cc2n1C(=O)OC(=O)C(F)(F)F (optimized conformer: 107.03766112213475 kcal/mol)

>  <smiles>  (86) 
NC(=O)c1cc2ccc(Cn3ccc(C(=O)O)n3)cc2n1C(=O)OC(=O)C(F)(F)F

>  <score_type>  (86) 
oracle

>  <origin>  (86) 
adg

>  <m_score__min__energy>  (86) 
-10.33

>  <m_primary>  (86) 
energy

$$$$
87:0
     RDKit          3D

 43 45  0  0  0  0  0  0  0  0999 V2000
   -3.8870   22.6640  -28.1190 C   0  0  0  0  0  0  0  0  0  0  0  0
   -3.0120   23.1200  -29.2010 N   0  0  0  0  0  0  0  0  0  0  0  0
   -1.5530   23.1040  -29.0240 C   0  0  0  0  0  0  0  0  0  0  0  0
   -1.1270   23.9610  -27.8260 C   0  0  0  0  0  0  0  0  0  0  0  0
   -0.8020   25.3610  -28.2420 C   0  0  0  0  0  0  0  0  0  0  0  0
   -1.6040   26.0100  -28.9640 O   0  0  0  0  0  0  0  0  0  0  0  0
    0.3670   25.9660  -27.7990 O   0  0  0  0  0  0  0  0  0  0  0  0
   -3.6100   23.7260  -30.3600 C   0  0  0  0  0  0  0  0  0  0  0  0
   -3.5080   24.9700  -30.5300 O   0  0  0  0  0  0  0  0  0  0  0  0
   -4.3630   22.9210  -31.3430 C   0  0  0  0  0  0  0  0  0  0  0  0
   -3.7500   22.2810  -32.2390 O   0  0  0  0  0  0  0  0  0  0  0  0
   -5.7960   22.8540  -31.2900 N   0  0  0  0  0  0  0  0  0  0  0  0
   -6.6560   23.8580  -30.9660 C   0  0  0  0  0  0  0  0  0  0  0  0
   -6.2710   25.1910  -30.4590 C   0  0  0  0  0  0  0  0  0  0  0  0
   -6.5810   25.5980  -29.1250 N   0  0  0  0  0  0  0  0  0  0  0  0
   -5.6930   26.0030  -31.2300 O   0  0  0  0  0  0  0  0  0  0  0  0
   -7.9740   23.4650  -31.1860 C   0  0  0  0  0  0  0  0  0  0  0  0
   -7.8930   22.1740  -31.6600 C   0  0  0  0  0  0  0  0  0  0  0  0
   -8.8980   21.3070  -32.0740 C   0  0  0  0  0  0  0  0  0  0  0  0
   -8.5210   20.0500  -32.5750 C   0  0  0  0  0  0  0  0  0  0  0  0
   -7.1510   19.6850  -32.6700 C   0  0  0  0  0  0  0  0  0  0  0  0
   -6.7450   18.3660  -33.2140 C   0  0  0  0  0  0  0  0  0  0  0  0
   -5.7900   18.1200  -34.1840 C   0  0  0  0  0  0  0  0  0  0  0  0
   -5.8010   16.7500  -34.3240 C   0  0  0  0  0  0  0  0  0  0  0  0
   -6.6940   16.2540  -33.4990 O   0  0  0  0  0  0  0  0  0  0  0  0
   -7.2800   17.1950  -32.8160 N   0  0  0  0  0  0  0  0  0  0  0  0
   -6.1600   20.6000  -32.2430 C   0  0  0  0  0  0  0  0  0  0  0  0
   -6.5680   21.8320  -31.7220 C   0  0  0  0  0  0  0  0  0  0  0  0
   -3.4265   22.9040  -27.1493 H   0  0  0  0  0  0  0  0  0  0  0  0
   -4.8610   23.1692  -28.1975 H   0  0  0  0  0  0  0  0  0  0  0  0
   -4.0308   21.5763  -28.1975 H   0  0  0  0  0  0  0  0  0  0  0  0
   -1.2236   22.0676  -28.8582 H   0  0  0  0  0  0  0  0  0  0  0  0
   -1.0890   23.5199  -29.9305 H   0  0  0  0  0  0  0  0  0  0  0  0
   -1.9484   23.9868  -27.0948 H   0  0  0  0  0  0  0  0  0  0  0  0
   -0.2242   23.5134  -27.3848 H   0  0  0  0  0  0  0  0  0  0  0  0
   -6.2440   26.5180  -28.7660 H   0  0  0  0  0  0  0  0  0  0  0  0
   -7.2330   25.0430  -28.5290 H   0  0  0  0  0  0  0  0  0  0  0  0
   -8.8847   24.0585  -31.0174 H   0  0  0  0  0  0  0  0  0  0  0  0
   -9.9572   21.5969  -32.0111 H   0  0  0  0  0  0  0  0  0  0  0  0
   -9.2960   19.3393  -32.8978 H   0  0  0  0  0  0  0  0  0  0  0  0
   -5.1658   18.8502  -34.7199 H   0  0  0  0  0  0  0  0  0  0  0  0
   -5.1683   16.1691  -35.0112 H   0  0  0  0  0  0  0  0  0  0  0  0
   -5.0920   20.3479  -32.3191 H   0  0  0  0  0  0  0  0  0  0  0  0
  1  2  1  0
  2  3  1  0
  3  4  1  0
  4  5  1  0
  5  6  2  0
  5  7  1  0
  2  8  1  0
  8  9  2  0
  8 10  1  0
 10 11  2  0
 10 12  1  0
 12 13  1  0
 13 14  1  0
 14 15  1  0
 14 16  2  0
 13 17  2  0
 17 18  1  0
 18 19  2  0
 19 20  1  0
 20 21  2  0
 21 22  1  0
 22 23  1  0
 23 24  2  0
 24 25  1  0
 25 26  1  0
 21 27  1  0
 27 28  2  0
 28 12  1  0
 28 18  1  0
 26 22  2  0
  1 29  1  0
  1 30  1  0
  1 31  1  0
  3 32  1  0
  3 33  1  0
  4 34  1  0
  4 35  1  0
 15 36  1  0
 15 37  1  0
 17 38  1  0
 19 39  1  0
 20 40  1  0
 23 41  1  0
 24 42  1  0
 27 43  1  0
M  CHG  1   7  -1
M  END
>  <UniqueID>  (87) 
86

>  <SMILES>  (87) 
CN(CCC(=O)[O-])C(=O)C(=O)n1c(C(N)=O)cc2ccc(-c3ccon3)cc21

>  <Energy>  (87) 
115.58615836948715

>  <Genealogy>  (87) 
CN(CCC(=O)[O-])C(=O)C(=O)n1c(C(N)=O)cc2ccc(-c3ccon3)cc21 (protonated)
CN(CCC(=O)[O-])C(=O)C(=O)n1c(C(N)=O)cc2ccc(-c3ccon3)cc21 (3D coordinates assigned)
CN(CCC(=O)[O-])C(=O)C(=O)n1c(C(N)=O)cc2ccc(-c3ccon3)cc21 (optimized conformer: 115.58615836948715 kcal/mol)

>  <smiles>  (87) 
CN(CCC(=O)O)C(=O)C(=O)n1c(C(N)=O)cc2ccc(-c3ccon3)cc21

>  <score_type>  (87) 
oracle

>  <origin>  (87) 
adg

>  <m_score__min__energy>  (87) 
-12.42

>  <m_primary>  (87) 
energy

$$$$
88:0
     RDKit          3D

 32 33  0  0  0  0  0  0  0  0999 V2000
   -6.8450   18.2610  -32.4740 C   0  0  0  0  0  0  0  0  0  0  0  0
   -7.0730   19.6990  -32.1160 C   0  0  0  0  0  0  0  0  0  0  0  0
   -8.3600   20.2720  -32.2680 C   0  0  0  0  0  0  0  0  0  0  0  0
   -8.5760   21.6320  -31.9820 C   0  0  0  0  0  0  0  0  0  0  0  0
   -7.4890   22.3880  -31.5510 C   0  0  0  0  0  0  0  0  0  0  0  0
   -7.4090   23.7260  -31.2410 C   0  0  0  0  0  0  0  0  0  0  0  0
   -6.0760   23.9470  -30.8960 C   0  0  0  0  0  0  0  0  0  0  0  0
   -5.5580   25.2500  -30.4300 C   0  0  0  0  0  0  0  0  0  0  0  0
   -4.2220   25.6560  -30.7160 N   0  0  0  0  0  0  0  0  0  0  0  0
   -6.2940   26.0010  -29.7350 O   0  0  0  0  0  0  0  0  0  0  0  0
   -5.3620   22.7900  -30.9930 N   0  0  0  0  0  0  0  0  0  0  0  0
   -3.9510   22.6070  -30.8000 C   0  0  0  0  0  0  0  0  0  0  0  0
   -3.3720   21.6260  -31.3400 O   0  0  0  0  0  0  0  0  0  0  0  0
   -3.2140   23.5380  -29.9910 N   0  0  0  0  0  0  0  0  0  0  0  0
   -1.8280   23.3830  -29.6470 C   0  0  0  0  0  0  0  0  0  0  0  0
   -1.1660   22.3920  -30.0590 O   0  0  0  0  0  0  0  0  0  0  0  0
   -1.1470   24.4250  -28.8150 C   0  0  0  0  0  0  0  0  0  0  0  0
   -1.7870   25.6620  -28.9760 O   0  0  0  0  0  0  0  0  0  0  0  0
   -6.2400   21.8460  -31.3950 C   0  0  0  0  0  0  0  0  0  0  0  0
   -5.9920   20.5010  -31.6930 C   0  0  0  0  0  0  0  0  0  0  0  0
   -6.7505   17.6648  -31.5545 H   0  0  0  0  0  0  0  0  0  0  0  0
   -7.6957   17.8910  -33.0651 H   0  0  0  0  0  0  0  0  0  0  0  0
   -5.9216   18.1723  -33.0651 H   0  0  0  0  0  0  0  0  0  0  0  0
   -9.1975   19.6477  -32.6127 H   0  0  0  0  0  0  0  0  0  0  0  0
   -9.5723   22.0842  -32.0952 H   0  0  0  0  0  0  0  0  0  0  0  0
   -8.2237   24.4648  -31.2610 H   0  0  0  0  0  0  0  0  0  0  0  0
   -3.4930   25.6700  -29.9700 H   0  0  0  0  0  0  0  0  0  0  0  0
   -3.7160   24.3840  -29.6400 H   0  0  0  0  0  0  0  0  0  0  0  0
   -1.1874   24.1292  -27.7563 H   0  0  0  0  0  0  0  0  0  0  0  0
   -0.0993   24.5162  -29.1376 H   0  0  0  0  0  0  0  0  0  0  0  0
   -2.1750   25.6630  -29.8900 H   0  0  0  0  0  0  0  0  0  0  0  0
   -4.9800   20.0800  -31.5998 H   0  0  0  0  0  0  0  0  0  0  0  0
  1  2  1  0
  2  3  2  0
  3  4  1  0
  4  5  2  0
  5  6  1  0
  6  7  2  0
  7  8  1  0
  8  9  1  0
  8 10  2  0
  7 11  1  0
 11 12  1  0
 12 13  2  0
 12 14  1  0
 14 15  1  0
 15 16  2  0
 15 17  1  0
 17 18  1  0
 11 19  1  0
 19 20  2  0
 20  2  1  0
 19  5  1  0
  1 21  1  0
  1 22  1  0
  1 23  1  0
  3 24  1  0
  4 25  1  0
  6 26  1  0
  9 27  1  0
 14 28  1  0
 17 29  1  0
 17 30  1  0
 18 31  1  0
 20 32  1  0
M  CHG  1   9  -1
M  END
>  <UniqueID>  (88) 
87

>  <SMILES>  (88) 
Cc1ccc2cc(C([NH-])=O)n(C(=O)NC(=O)CO)c2c1

>  <Energy>  (88) 
69.52213148352173

>  <Genealogy>  (88) 
Cc1ccc2cc(C([NH-])=O)n(C(=O)NC(=O)CO)c2c1 (protonated)
Cc1ccc2cc(C([NH-])=O)n(C(=O)NC(=O)CO)c2c1 (3D coordinates assigned)
Cc1ccc2cc(C([NH-])=O)n(C(=O)NC(=O)CO)c2c1 (optimized conformer: 69.52213148352173 kcal/mol)

>  <smiles>  (88) 
Cc1ccc2cc(C(N)=O)n(C(=O)NC(=O)CO)c2c1

>  <score_type>  (88) 
oracle

>  <origin>  (88) 
adg

>  <m_score__min__energy>  (88) 
-10.33

>  <m_primary>  (88) 
energy

$$$$
89:0
     RDKit          3D

 41 43  0  0  0  0  0  0  0  0999 V2000
    1.9610   19.6800  -35.7980 C   0  0  0  0  0  0  0  0  0  0  0  0
    0.6320   19.7820  -35.2080 N   0  0  0  0  0  0  0  0  0  0  0  0
    0.1730   20.9880  -34.5880 C   0  0  0  0  0  0  0  0  0  0  0  0
    0.9220   22.0000  -34.5300 O   0  0  0  0  0  0  0  0  0  0  0  0
   -1.1870   21.0400  -33.9700 C   0  0  0  0  0  0  0  0  0  0  0  0
   -2.0190   20.0710  -34.5950 O   0  0  0  0  0  0  0  0  0  0  0  0
   -2.2360   18.7990  -34.0570 C   0  0  0  0  0  0  0  0  0  0  0  0
   -1.2590   18.0850  -33.6990 O   0  0  0  0  0  0  0  0  0  0  0  0
   -3.5770   18.2950  -33.9370 N   0  0  0  0  0  0  0  0  0  0  0  0
   -4.0600   17.0870  -34.3470 C   0  0  0  0  0  0  0  0  0  0  0  0
   -3.2600   15.9690  -34.8880 C   0  0  0  0  0  0  0  0  0  0  0  0
   -2.2450   15.3690  -34.0870 N   0  0  0  0  0  0  0  0  0  0  0  0
   -3.4360   15.5610  -36.0670 O   0  0  0  0  0  0  0  0  0  0  0  0
   -5.4290   17.0030  -34.1060 C   0  0  0  0  0  0  0  0  0  0  0  0
   -5.7720   18.2010  -33.5220 C   0  0  0  0  0  0  0  0  0  0  0  0
   -7.0100   18.6590  -33.0820 C   0  0  0  0  0  0  0  0  0  0  0  0
   -7.0790   19.9540  -32.5390 C   0  0  0  0  0  0  0  0  0  0  0  0
   -5.9190   20.7670  -32.4530 C   0  0  0  0  0  0  0  0  0  0  0  0
   -5.9780   22.1380  -31.8930 C   0  0  0  0  0  0  0  0  0  0  0  0
   -4.9050   22.9580  -31.5780 C   0  0  0  0  0  0  0  0  0  0  0  0
   -5.4650   24.1220  -31.0950 C   0  0  0  0  0  0  0  0  0  0  0  0
   -4.7410   25.3100  -30.6250 C   0  0  0  0  0  0  0  0  0  0  0  0
   -3.4920   25.2730  -30.4690 O   0  0  0  0  0  0  0  0  0  0  0  0
   -5.4300   26.4850  -30.3500 O   0  0  0  0  0  0  0  0  0  0  0  0
   -6.8330   23.9520  -31.1410 C   0  0  0  0  0  0  0  0  0  0  0  0
   -7.1040   22.7610  -31.6200 O   0  0  0  0  0  0  0  0  0  0  0  0
   -4.6810   20.2630  -32.9130 C   0  0  0  0  0  0  0  0  0  0  0  0
   -4.6380   18.9630  -33.4310 C   0  0  0  0  0  0  0  0  0  0  0  0
    2.7138   19.6222  -34.9981 H   0  0  0  0  0  0  0  0  0  0  0  0
    2.0173   18.7749  -36.4206 H   0  0  0  0  0  0  0  0  0  0  0  0
    2.1548   20.5659  -36.4206 H   0  0  0  0  0  0  0  0  0  0  0  0
    0.0030   18.9480  -35.2320 H   0  0  0  0  0  0  0  0  0  0  0  0
   -1.1115   20.8221  -32.8945 H   0  0  0  0  0  0  0  0  0  0  0  0
   -1.6183   22.0426  -34.1068 H   0  0  0  0  0  0  0  0  0  0  0  0
   -1.4610   15.9400  -33.6980 H   0  0  0  0  0  0  0  0  0  0  0  0
   -6.0952   16.1579  -34.3341 H   0  0  0  0  0  0  0  0  0  0  0  0
   -7.9073   18.0272  -33.1567 H   0  0  0  0  0  0  0  0  0  0  0  0
   -8.0428   20.3413  -32.1768 H   0  0  0  0  0  0  0  0  0  0  0  0
   -3.8350   22.7288  -31.6896 H   0  0  0  0  0  0  0  0  0  0  0  0
   -7.5786   24.6969  -30.8260 H   0  0  0  0  0  0  0  0  0  0  0  0
   -3.7709   20.8790  -32.8650 H   0  0  0  0  0  0  0  0  0  0  0  0
  1  2  1  0
  2  3  1  0
  3  4  2  0
  3  5  1  0
  5  6  1  0
  6  7  1  0
  7  8  2  0
  7  9  1  0
  9 10  1  0
 10 11  1  0
 11 12  1  0
 11 13  2  0
 10 14  2  0
 14 15  1  0
 15 16  2  0
 16 17  1  0
 17 18  2  0
 18 19  1  0
 19 20  2  0
 20 21  1  0
 21 22  1  0
 22 23  2  0
 22 24  1  0
 21 25  2  0
 25 26  1  0
 18 27  1  0
 27 28  2  0
 28  9  1  0
 28 15  1  0
 26 19  1  0
  1 29  1  0
  1 30  1  0
  1 31  1  0
  2 32  1  0
  5 33  1  0
  5 34  1  0
 12 35  1  0
 14 36  1  0
 16 37  1  0
 17 38  1  0
 20 39  1  0
 25 40  1  0
 27 41  1  0
M  CHG  2  12  -1  24  -1
M  END
>  <UniqueID>  (89) 
88

>  <SMILES>  (89) 
CNC(=O)COC(=O)n1c(C([NH-])=O)cc2ccc(-c3cc(C(=O)[O-])co3)cc21

>  <Energy>  (89) 
102.28315399485157

>  <Genealogy>  (89) 
CNC(=O)COC(=O)n1c(C([NH-])=O)cc2ccc(-c3cc(C(=O)[O-])co3)cc21 (protonated)
CNC(=O)COC(=O)n1c(C([NH-])=O)cc2ccc(-c3cc(C(=O)[O-])co3)cc21 (3D coordinates assigned)
CNC(=O)COC(=O)n1c(C([NH-])=O)cc2ccc(-c3cc(C(=O)[O-])co3)cc21 (optimized conformer: 102.28315399485157 kcal/mol)

>  <smiles>  (89) 
CNC(=O)COC(=O)n1c(C(N)=O)cc2ccc(-c3cc(C(=O)O)co3)cc21

>  <score_type>  (89) 
oracle

>  <origin>  (89) 
adg

>  <m_score__min__energy>  (89) 
-10.789999999999999

>  <m_primary>  (89) 
energy

$$$$
90:0
     RDKit          3D

 32 33  0  0  0  0  0  0  0  0999 V2000
   -5.3560   17.1190  -35.2470 N   0  0  0  0  0  0  0  0  0  0  0  0
   -6.1140   17.5980  -34.1400 C   0  0  0  0  0  0  0  0  0  0  0  0
   -7.1420   16.9660  -33.7770 O   0  0  0  0  0  0  0  0  0  0  0  0
   -5.7480   18.8540  -33.4540 C   0  0  0  0  0  0  0  0  0  0  0  0
   -4.4640   19.3930  -33.4780 C   0  0  0  0  0  0  0  0  0  0  0  0
   -4.5140   20.4940  -32.6540 C   0  0  0  0  0  0  0  0  0  0  0  0
   -3.5180   21.4060  -32.3180 C   0  0  0  0  0  0  0  0  0  0  0  0
   -3.8580   22.4660  -31.4620 C   0  0  0  0  0  0  0  0  0  0  0  0
   -5.1820   22.6050  -30.9740 C   0  0  0  0  0  0  0  0  0  0  0  0
   -5.5270   23.7340  -30.0410 C   0  0  0  0  0  0  0  0  0  0  0  0
   -4.6970   24.9510  -30.3530 C   0  0  0  0  0  0  0  0  0  0  0  0
   -5.0360   25.6860  -31.3190 O   0  0  0  0  0  0  0  0  0  0  0  0
   -3.5110   25.2900  -29.6200 N   0  0  0  0  0  0  0  0  0  0  0  0
   -2.3720   24.4130  -29.3670 C   0  0  0  0  0  0  0  0  0  0  0  0
   -1.1790   25.2060  -28.9380 C   0  0  0  0  0  0  0  0  0  0  0  0
   -1.2110   26.4660  -28.9630 O   0  0  0  0  0  0  0  0  0  0  0  0
   -0.0150   24.5560  -28.5490 O   0  0  0  0  0  0  0  0  0  0  0  0
   -6.1640   21.6550  -31.3320 C   0  0  0  0  0  0  0  0  0  0  0  0
   -5.7940   20.5970  -32.1710 C   0  0  0  0  0  0  0  0  0  0  0  0
   -6.5650   19.5980  -32.6550 N   0  0  0  0  0  0  0  0  0  0  0  0
   -7.9760   19.4300  -32.4430 C   0  0  0  0  0  0  0  0  0  0  0  0
   -8.7990   20.2070  -32.9950 O   0  0  0  0  0  0  0  0  0  0  0  0
   -8.4470   18.3910  -31.6500 O   0  0  0  0  0  0  0  0  0  0  0  0
   -5.2620   17.6840  -36.1200 H   0  0  0  0  0  0  0  0  0  0  0  0
   -3.5941   19.0180  -34.0372 H   0  0  0  0  0  0  0  0  0  0  0  0
   -2.4960   21.2998  -32.7108 H   0  0  0  0  0  0  0  0  0  0  0  0
   -3.0895   23.1957  -31.1671 H   0  0  0  0  0  0  0  0  0  0  0  0
   -6.5922   23.9840  -30.1542 H   0  0  0  0  0  0  0  0  0  0  0  0
   -5.3184   23.4174  -29.0084 H   0  0  0  0  0  0  0  0  0  0  0  0
   -2.6355   23.6990  -28.5728 H   0  0  0  0  0  0  0  0  0  0  0  0
   -2.1252   23.8773  -30.2955 H   0  0  0  0  0  0  0  0  0  0  0  0
   -7.1954   21.7443  -30.9603 H   0  0  0  0  0  0  0  0  0  0  0  0
  1  2  1  0
  2  3  2  0
  2  4  1  0
  4  5  2  0
  5  6  1  0
  6  7  2  0
  7  8  1  0
  8  9  2  0
  9 10  1  0
 10 11  1  0
 11 12  2  0
 11 13  1  0
 13 14  1  0
 14 15  1  0
 15 16  2  0
 15 17  1  0
  9 18  1  0
 18 19  2  0
 19 20  1  0
 20 21  1  0
 21 22  2  0
 21 23  1  0
 20  4  1  0
 19  6  1  0
  1 24  1  0
  5 25  1  0
  7 26  1  0
  8 27  1  0
 10 28  1  0
 10 29  1  0
 14 30  1  0
 14 31  1  0
 18 32  1  0
M  CHG  4   1  -1  13  -1  17  -1  23  -1
M  END
>  <UniqueID>  (90) 
89

>  <SMILES>  (90) 
[NH-]C(=O)c1cc2ccc(CC(=O)[N-]CC(=O)[O-])cc2n1C(=O)[O-]

>  <Energy>  (90) 
69.34647261762653

>  <Genealogy>  (90) 
[NH-]C(=O)c1cc2ccc(CC(=O)[N-]CC(=O)[O-])cc2n1C(=O)[O-] (protonated)
[NH-]C(=O)c1cc2ccc(CC(=O)[N-]CC(=O)[O-])cc2n1C(=O)[O-] (3D coordinates assigned)
[NH-]C(=O)c1cc2ccc(CC(=O)[N-]CC(=O)[O-])cc2n1C(=O)[O-] (optimized conformer: 69.34647261762653 kcal/mol)

>  <smiles>  (90) 
NC(=O)c1cc2ccc(CC(=O)NCC(=O)O)cc2n1C(=O)O

>  <score_type>  (90) 
oracle

>  <origin>  (90) 
adg

>  <m_score__min__energy>  (90) 
-10.779999999999999

>  <m_primary>  (90) 
energy

$$$$
91:0
     RDKit          3D

 30 31  0  0  0  0  0  0  0  0999 V2000
   -6.1010   18.0820  -32.2900 C   0  0  0  0  0  0  0  0  0  0  0  0
   -6.4320   19.5210  -32.0290 C   0  0  0  0  0  0  0  0  0  0  0  0
   -7.7420   20.0030  -32.2680 C   0  0  0  0  0  0  0  0  0  0  0  0
   -8.0590   21.3530  -32.0480 C   0  0  0  0  0  0  0  0  0  0  0  0
   -7.0410   22.1990  -31.6130 C   0  0  0  0  0  0  0  0  0  0  0  0
   -7.0810   23.5370  -31.2970 C   0  0  0  0  0  0  0  0  0  0  0  0
   -5.7830   23.8620  -30.9080 C   0  0  0  0  0  0  0  0  0  0  0  0
   -5.3600   25.2290  -30.5370 C   0  0  0  0  0  0  0  0  0  0  0  0
   -4.0360   25.6680  -30.8340 N   0  0  0  0  0  0  0  0  0  0  0  0
   -6.1460   26.0070  -29.9340 O   0  0  0  0  0  0  0  0  0  0  0  0
   -4.9700   22.7700  -30.9900 N   0  0  0  0  0  0  0  0  0  0  0  0
   -3.5850   22.6810  -30.6050 C   0  0  0  0  0  0  0  0  0  0  0  0
   -2.6910   22.9170  -31.4610 O   0  0  0  0  0  0  0  0  0  0  0  0
   -3.1690   22.4250  -29.2100 C   0  0  0  0  0  0  0  0  0  0  0  0
   -2.1620   23.0310  -28.5630 C   0  0  0  0  0  0  0  0  0  0  0  0
   -1.4150   24.2080  -29.0410 C   0  0  0  0  0  0  0  0  0  0  0  0
   -2.0010   25.2870  -29.3150 O   0  0  0  0  0  0  0  0  0  0  0  0
   -0.0300   24.1530  -29.1030 O   0  0  0  0  0  0  0  0  0  0  0  0
   -5.7600   21.7570  -31.4130 C   0  0  0  0  0  0  0  0  0  0  0  0
   -5.4230   20.4100  -31.6000 C   0  0  0  0  0  0  0  0  0  0  0  0
   -5.9796   17.5542  -31.3326 H   0  0  0  0  0  0  0  0  0  0  0  0
   -6.9156   17.6167  -32.8645 H   0  0  0  0  0  0  0  0  0  0  0  0
   -5.1650   18.0194  -32.8645 H   0  0  0  0  0  0  0  0  0  0  0  0
   -8.5187   19.3131  -32.6295 H   0  0  0  0  0  0  0  0  0  0  0  0
   -9.0787   21.7307  -32.2138 H   0  0  0  0  0  0  0  0  0  0  0  0
   -7.9519   24.2075  -31.3418 H   0  0  0  0  0  0  0  0  0  0  0  0
   -3.2500   24.9840  -30.9180 H   0  0  0  0  0  0  0  0  0  0  0  0
   -3.7376   21.6676  -28.6506 H   0  0  0  0  0  0  0  0  0  0  0  0
   -1.8678   22.6122  -27.5893 H   0  0  0  0  0  0  0  0  0  0  0  0
   -4.3983   20.0543  -31.4172 H   0  0  0  0  0  0  0  0  0  0  0  0
  1  2  1  0
  2  3  2  0
  3  4  1  0
  4  5  2  0
  5  6  1  0
  6  7  2  0
  7  8  1  0
  8  9  1  0
  8 10  2  0
  7 11  1  0
 11 12  1  0
 12 13  2  0
 12 14  1  0
 14 15  2  3
 15 16  1  0
 16 17  2  0
 16 18  1  0
 11 19  1  0
 19 20  2  0
 20  2  1  0
 19  5  1  0
  1 21  1  0
  1 22  1  0
  1 23  1  0
  3 24  1  0
  4 25  1  0
  6 26  1  0
  9 27  1  0
 14 28  1  0
 15 29  1  0
 20 30  1  0
M  CHG  2   9  -1  18  -1
M  END
>  <UniqueID>  (91) 
90

>  <SMILES>  (91) 
Cc1ccc2cc(C([NH-])=O)n(C(=O)C=CC(=O)[O-])c2c1

>  <Energy>  (91) 
74.19428252634741

>  <Genealogy>  (91) 
Cc1ccc2cc(C([NH-])=O)n(C(=O)C=CC(=O)[O-])c2c1 (protonated)
Cc1ccc2cc(C([NH-])=O)n(C(=O)C=CC(=O)[O-])c2c1 (3D coordinates assigned)
Cc1ccc2cc(C([NH-])=O)n(C(=O)C=CC(=O)[O-])c2c1 (optimized conformer: 74.19428252634741 kcal/mol)

>  <smiles>  (91) 
Cc1ccc2cc(C(N)=O)n(C(=O)C=CC(=O)O)c2c1

>  <score_type>  (91) 
oracle

>  <origin>  (91) 
adg

>  <m_score__min__energy>  (91) 
-11.779999999999999

>  <m_primary>  (91) 
energy

$$$$
92:0
     RDKit          3D

 44 46  0  0  0  0  0  0  0  0999 V2000
   -5.8280   15.1070  -33.4760 C   0  0  0  0  0  0  0  0  0  0  0  0
   -5.3630   16.2010  -32.6930 O   0  0  0  0  0  0  0  0  0  0  0  0
   -4.4760   17.1460  -33.2130 C   0  0  0  0  0  0  0  0  0  0  0  0
   -3.0930   16.9000  -33.2440 C   0  0  0  0  0  0  0  0  0  0  0  0
   -2.5500   15.6630  -32.7780 N   0  0  0  0  0  0  0  0  0  0  0  0
   -2.2570   17.8450  -33.7510 N   0  0  0  0  0  0  0  0  0  0  0  0
   -2.7330   19.0170  -34.2400 C   0  0  0  0  0  0  0  0  0  0  0  0
   -4.0670   19.2650  -34.2370 N   0  0  0  0  0  0  0  0  0  0  0  0
   -4.9540   18.3630  -33.7320 C   0  0  0  0  0  0  0  0  0  0  0  0
   -6.3630   18.6540  -33.7850 N   0  0  0  0  0  0  0  0  0  0  0  0
   -6.6290   19.8880  -33.0910 C   0  0  0  0  0  0  0  0  0  0  0  0
   -7.9510   20.3950  -33.0070 C   0  0  0  0  0  0  0  0  0  0  0  0
   -8.2160   21.6050  -32.3460 C   0  0  0  0  0  0  0  0  0  0  0  0
   -7.1410   22.2940  -31.7900 C   0  0  0  0  0  0  0  0  0  0  0  0
   -7.1150   23.4760  -31.0860 C   0  0  0  0  0  0  0  0  0  0  0  0
   -5.7730   23.6920  -30.7760 C   0  0  0  0  0  0  0  0  0  0  0  0
   -5.2840   24.9100  -30.0980 C   0  0  0  0  0  0  0  0  0  0  0  0
   -4.2360   25.6940  -30.6620 N   0  0  0  0  0  0  0  0  0  0  0  0
   -5.8310   25.2910  -29.0280 O   0  0  0  0  0  0  0  0  0  0  0  0
   -5.0020   22.6780  -31.2600 N   0  0  0  0  0  0  0  0  0  0  0  0
   -3.5880   22.4890  -31.0970 C   0  0  0  0  0  0  0  0  0  0  0  0
   -2.8200   22.5940  -32.0920 O   0  0  0  0  0  0  0  0  0  0  0  0
   -3.0670   22.2120  -29.8280 O   0  0  0  0  0  0  0  0  0  0  0  0
   -2.8100   23.2170  -28.8490 C   0  0  0  0  0  0  0  0  0  0  0  0
   -1.7200   24.1280  -29.3150 C   0  0  0  0  0  0  0  0  0  0  0  0
   -1.9010   25.3730  -29.3420 O   0  0  0  0  0  0  0  0  0  0  0  0
   -0.5100   23.5980  -29.7430 O   0  0  0  0  0  0  0  0  0  0  0  0
   -5.8540   21.8320  -31.8800 C   0  0  0  0  0  0  0  0  0  0  0  0
   -5.5640   20.6180  -32.5130 C   0  0  0  0  0  0  0  0  0  0  0  0
   -6.1709   14.3002  -32.8116 H   0  0  0  0  0  0  0  0  0  0  0  0
   -6.6628   15.4390  -34.1107 H   0  0  0  0  0  0  0  0  0  0  0  0
   -5.0096   14.7364  -34.1107 H   0  0  0  0  0  0  0  0  0  0  0  0
   -3.1820   14.9340  -32.3790 H   0  0  0  0  0  0  0  0  0  0  0  0
   -1.5220   15.4810  -32.7780 H   0  0  0  0  0  0  0  0  0  0  0  0
   -2.0361   19.7682  -34.6399 H   0  0  0  0  0  0  0  0  0  0  0  0
   -6.6880   18.7040  -34.7790 H   0  0  0  0  0  0  0  0  0  0  0  0
   -6.8980   17.8780  -33.3290 H   0  0  0  0  0  0  0  0  0  0  0  0
   -8.7785   19.8335  -33.4652 H   0  0  0  0  0  0  0  0  0  0  0  0
   -9.2411   21.9967  -32.2696 H   0  0  0  0  0  0  0  0  0  0  0  0
   -7.9712   24.1148  -30.8236 H   0  0  0  0  0  0  0  0  0  0  0  0
   -3.3220   25.2620  -30.9220 H   0  0  0  0  0  0  0  0  0  0  0  0
   -3.7258   23.8029  -28.6812 H   0  0  0  0  0  0  0  0  0  0  0  0
   -2.4959   22.7327  -27.9126 H   0  0  0  0  0  0  0  0  0  0  0  0
   -4.5320   20.2402  -32.5600 H   0  0  0  0  0  0  0  0  0  0  0  0
  1  2  1  0
  2  3  1  0
  3  4  2  0
  4  5  1  0
  4  6  1  0
  6  7  2  0
  7  8  1  0
  8  9  2  0
  9 10  1  0
 10 11  1  0
 11 12  2  0
 12 13  1  0
 13 14  2  0
 14 15  1  0
 15 16  2  0
 16 17  1  0
 17 18  1  0
 17 19  2  0
 16 20  1  0
 20 21  1  0
 21 22  2  0
 21 23  1  0
 23 24  1  0
 24 25  1  0
 25 26  2  0
 25 27  1  0
 20 28  1  0
 28 29  2  0
  9  3  1  0
 29 11  1  0
 28 14  1  0
  1 30  1  0
  1 31  1  0
  1 32  1  0
  5 33  1  0
  5 34  1  0
  7 35  1  0
 10 36  1  0
 10 37  1  0
 12 38  1  0
 13 39  1  0
 15 40  1  0
 18 41  1  0
 24 42  1  0
 24 43  1  0
 29 44  1  0
M  CHG  3  10   1  18  -1  27  -1
M  END
>  <UniqueID>  (92) 
91

>  <SMILES>  (92) 
COc1c(N)ncnc1[NH2+]c1ccc2cc(C([NH-])=O)n(C(=O)OCC(=O)[O-])c2c1

>  <Energy>  (92) 
91.4392690800155

>  <Genealogy>  (92) 
COc1c(N)ncnc1[NH2+]c1ccc2cc(C([NH-])=O)n(C(=O)OCC(=O)[O-])c2c1 (protonated)
COc1c(N)ncnc1[NH2+]c1ccc2cc(C([NH-])=O)n(C(=O)OCC(=O)[O-])c2c1 (3D coordinates assigned)
COc1c(N)ncnc1[NH2+]c1ccc2cc(C([NH-])=O)n(C(=O)OCC(=O)[O-])c2c1 (optimized conformer: 91.4392690800155 kcal/mol)

>  <smiles>  (92) 
COc1c(N)ncnc1Nc1ccc2cc(C(N)=O)n(C(=O)OCC(=O)O)c2c1

>  <score_type>  (92) 
oracle

>  <origin>  (92) 
adg

>  <m_score__min__energy>  (92) 
-11.25

>  <m_primary>  (92) 
energy

$$$$
93:0
     RDKit          3D

 38 40  0  0  0  0  0  0  0  0999 V2000
   -3.9520   25.5610  -30.9530 N   0  0  0  0  0  0  0  0  0  0  0  0
   -5.2610   25.2420  -30.4890 C   0  0  0  0  0  0  0  0  0  0  0  0
   -5.8650   26.0580  -29.7430 O   0  0  0  0  0  0  0  0  0  0  0  0
   -5.8940   23.9500  -30.8230 C   0  0  0  0  0  0  0  0  0  0  0  0
   -7.2590   23.7050  -30.6890 C   0  0  0  0  0  0  0  0  0  0  0  0
   -7.4240   22.3760  -31.0050 C   0  0  0  0  0  0  0  0  0  0  0  0
   -8.5810   21.6040  -31.0510 C   0  0  0  0  0  0  0  0  0  0  0  0
   -8.4620   20.2600  -31.4430 C   0  0  0  0  0  0  0  0  0  0  0  0
   -7.1970   19.7160  -31.7770 C   0  0  0  0  0  0  0  0  0  0  0  0
   -7.0880   18.2910  -32.2400 C   0  0  0  0  0  0  0  0  0  0  0  0
   -6.0330   18.1870  -33.7180 P   0  0  2  0  0  0  0  0  0  0  0  0
   -6.4910   17.0400  -34.5910 O   0  0  0  0  0  0  0  0  0  0  0  0
   -4.4260   17.9320  -33.2540 O   0  0  0  0  0  0  0  0  0  0  0  0
   -6.1430   19.6320  -34.5920 O   0  0  0  0  0  0  0  0  0  0  0  0
   -6.0450   20.5330  -31.7280 C   0  0  0  0  0  0  0  0  0  0  0  0
   -6.1920   21.8640  -31.3190 C   0  0  0  0  0  0  0  0  0  0  0  0
   -5.2430   22.8180  -31.2180 N   0  0  0  0  0  0  0  0  0  0  0  0
   -3.8530   22.6690  -31.5420 C   0  0  0  0  0  0  0  0  0  0  0  0
   -3.5150   22.0450  -32.5860 O   0  0  0  0  0  0  0  0  0  0  0  0
   -2.8800   23.1990  -30.6880 O   0  0  0  0  0  0  0  0  0  0  0  0
   -2.6760   22.7390  -29.3550 C   0  0  0  0  0  0  0  0  0  0  0  0
   -1.3750   23.2540  -28.8250 C   0  0  0  0  0  0  0  0  0  0  0  0
   -0.4570   22.5150  -28.2450 O   0  0  0  0  0  0  0  0  0  0  0  0
    0.5100   23.3430  -27.9080 C   0  0  0  0  0  0  0  0  0  0  0  0
    1.5650   22.9810  -27.3250 O   0  0  0  0  0  0  0  0  0  0  0  0
    0.2530   24.5880  -28.2430 O   0  0  0  0  0  0  0  0  0  0  0  0
   -0.9230   24.5550  -28.8180 C   0  0  0  0  0  0  0  0  0  0  0  0
   -1.5860   25.6650  -29.3250 O   0  0  0  0  0  0  0  0  0  0  0  0
   -3.1040   25.2660  -30.4200 H   0  0  0  0  0  0  0  0  0  0  0  0
   -8.0392   24.4219  -30.3933 H   0  0  0  0  0  0  0  0  0  0  0  0
   -9.5592   22.0331  -30.7884 H   0  0  0  0  0  0  0  0  0  0  0  0
   -9.3586   19.6246  -31.4910 H   0  0  0  0  0  0  0  0  0  0  0  0
   -6.6488   17.6810  -31.4369 H   0  0  0  0  0  0  0  0  0  0  0  0
   -8.0922   17.9180  -32.4900 H   0  0  0  0  0  0  0  0  0  0  0  0
   -6.9550   19.5280  -35.1480 H   0  0  0  0  0  0  0  0  0  0  0  0
   -5.0580   20.1335  -32.0041 H   0  0  0  0  0  0  0  0  0  0  0  0
   -3.4965   23.0988  -28.7167 H   0  0  0  0  0  0  0  0  0  0  0  0
   -2.6544   21.6392  -29.3538 H   0  0  0  0  0  0  0  0  0  0  0  0
  1  2  1  0
  2  3  2  0
  2  4  1  0
  4  5  2  0
  5  6  1  0
  6  7  2  0
  7  8  1  0
  8  9  2  0
  9 10  1  0
 10 11  1  0
 11 12  2  0
 11 13  1  1
 11 14  1  0
  9 15  1  0
 15 16  2  0
 16 17  1  0
 17 18  1  0
 18 19  2  0
 18 20  1  0
 20 21  1  0
 21 22  1  0
 22 23  1  0
 23 24  1  0
 24 25  2  0
 24 26  1  0
 26 27  1  0
 27 28  1  0
 17  4  1  0
 27 22  2  0
 16  6  1  0
  1 29  1  0
  5 30  1  0
  7 31  1  0
  8 32  1  0
 10 33  1  0
 10 34  1  0
 14 35  1  0
 15 36  1  0
 21 37  1  0
 21 38  1  0
M  CHG  3   1  -1  13  -1  28  -1
M  END
>  <UniqueID>  (93) 
92

>  <SMILES>  (93) 
[NH-]C(=O)c1cc2ccc(C[P@](=O)([O-])O)cc2n1C(=O)OCc1oc(=O)oc1[O-]

>  <Energy>  (93) 
105.85397660207593

>  <Genealogy>  (93) 
[NH-]C(=O)c1cc2ccc(CP(=O)([O-])O)cc2n1C(=O)OCc1oc(=O)oc1[O-] (protonated)
[NH-]C(=O)c1cc2ccc(C[P@](=O)([O-])O)cc2n1C(=O)OCc1oc(=O)oc1[O-] (chirality)
[NH-]C(=O)c1cc2ccc(C[P@](=O)([O-])O)cc2n1C(=O)OCc1oc(=O)oc1[O-] (3D coordinates assigned)
[NH-]C(=O)c1cc2ccc(C[P@](=O)([O-])O)cc2n1C(=O)OCc1oc(=O)oc1[O-] (optimized conformer: 105.85397660207593 kcal/mol)

>  <smiles>  (93) 
NC(=O)c1cc2ccc(CP(=O)(O)O)cc2n1C(=O)OCc1oc(=O)oc1O

>  <score_type>  (93) 
oracle

>  <origin>  (93) 
adg

>  <m_score__min__energy>  (93) 
-12.880000000000001

>  <m_primary>  (93) 
energy

$$$$
94:0
     RDKit          3D

 38 39  0  0  0  0  0  0  0  0999 V2000
   -4.1000   19.5540  -33.4570 C   0  0  0  0  0  0  0  0  0  0  0  0
   -3.4170   20.5910  -32.6790 N   0  0  0  0  0  0  0  0  0  0  0  0
   -2.1070   21.0400  -33.0830 C   0  0  0  0  0  0  0  0  0  0  0  0
   -1.6080   20.6290  -34.1660 O   0  0  0  0  0  0  0  0  0  0  0  0
   -1.3920   21.9220  -32.2610 O   0  0  0  0  0  0  0  0  0  0  0  0
   -0.5610   21.5470  -31.1980 C   0  0  0  0  0  0  0  0  0  0  0  0
   -0.3950   22.3020  -30.2020 O   0  0  0  0  0  0  0  0  0  0  0  0
    0.0730   20.1950  -31.2170 C   0  0  0  0  0  0  0  0  0  0  0  0
    0.9300   20.0530  -30.1410 F   0  0  0  0  0  0  0  0  0  0  0  0
    0.7890   20.0290  -32.3890 F   0  0  0  0  0  0  0  0  0  0  0  0
   -0.9130   19.2290  -31.1480 F   0  0  0  0  0  0  0  0  0  0  0  0
   -3.9810   21.0180  -31.4210 C   0  0  0  0  0  0  0  0  0  0  0  0
   -3.4870   20.5990  -30.3390 O   0  0  0  0  0  0  0  0  0  0  0  0
   -5.1050   21.9130  -31.3810 N   0  0  0  0  0  0  0  0  0  0  0  0
   -5.1030   23.2270  -31.0230 C   0  0  0  0  0  0  0  0  0  0  0  0
   -3.9070   24.0380  -30.7250 C   0  0  0  0  0  0  0  0  0  0  0  0
   -2.6630   23.4280  -30.3760 N   0  0  0  0  0  0  0  0  0  0  0  0
   -3.9700   25.2930  -30.8270 O   0  0  0  0  0  0  0  0  0  0  0  0
   -6.3990   23.7360  -31.0190 C   0  0  0  0  0  0  0  0  0  0  0  0
   -7.2030   22.6850  -31.3990 C   0  0  0  0  0  0  0  0  0  0  0  0
   -8.5840   22.6260  -31.5640 C   0  0  0  0  0  0  0  0  0  0  0  0
   -9.1500   21.3980  -31.9450 C   0  0  0  0  0  0  0  0  0  0  0  0
   -8.3340   20.2570  -32.1430 C   0  0  0  0  0  0  0  0  0  0  0  0
   -8.9600   18.9500  -32.5410 C   0  0  0  0  0  0  0  0  0  0  0  0
   -8.0050   18.1330  -33.1170 F   0  0  0  0  0  0  0  0  0  0  0  0
   -9.4820   18.3250  -31.4240 F   0  0  0  0  0  0  0  0  0  0  0  0
   -6.9350   20.3530  -31.9620 C   0  0  0  0  0  0  0  0  0  0  0  0
   -6.3980   21.5950  -31.6040 C   0  0  0  0  0  0  0  0  0  0  0  0
   -4.5738   18.8347  -32.7728 H   0  0  0  0  0  0  0  0  0  0  0  0
   -4.8695   20.0185  -34.0911 H   0  0  0  0  0  0  0  0  0  0  0  0
   -3.3694   19.0304  -34.0911 H   0  0  0  0  0  0  0  0  0  0  0  0
   -1.8440   24.0220  -30.1180 H   0  0  0  0  0  0  0  0  0  0  0  0
   -2.5210   22.3990  -30.4700 H   0  0  0  0  0  0  0  0  0  0  0  0
   -6.7134   24.7594  -30.7662 H   0  0  0  0  0  0  0  0  0  0  0  0
   -9.2128   23.5137  -31.4010 H   0  0  0  0  0  0  0  0  0  0  0  0
  -10.2376   21.3216  -32.0910 H   0  0  0  0  0  0  0  0  0  0  0  0
   -9.7654   19.1414  -33.2653 H   0  0  0  0  0  0  0  0  0  0  0  0
   -6.2862   19.4753  -32.0988 H   0  0  0  0  0  0  0  0  0  0  0  0
  1  2  1  0
  2  3  1  0
  3  4  2  0
  3  5  1  0
  5  6  1  0
  6  7  2  0
  6  8  1  0
  8  9  1  0
  8 10  1  0
  8 11  1  0
  2 12  1  0
 12 13  2  0
 12 14  1  0
 14 15  1  0
 15 16  1  0
 16 17  1  0
 16 18  2  0
 15 19  2  0
 19 20  1  0
 20 21  2  0
 21 22  1  0
 22 23  2  0
 23 24  1  0
 24 25  1  0
 24 26  1  0
 23 27  1  0
 27 28  2  0
 28 14  1  0
 28 20  1  0
  1 29  1  0
  1 30  1  0
  1 31  1  0
 17 32  1  0
 17 33  1  0
 19 34  1  0
 21 35  1  0
 22 36  1  0
 24 37  1  0
 27 38  1  0
M  END
>  <UniqueID>  (94) 
93

>  <SMILES>  (94) 
CN(C(=O)OC(=O)C(F)(F)F)C(=O)n1c(C(N)=O)cc2ccc(C(F)F)cc21

>  <Energy>  (94) 
76.49464629226709

>  <Genealogy>  (94) 
CN(C(=O)OC(=O)C(F)(F)F)C(=O)n1c(C(N)=O)cc2ccc(C(F)F)cc21 (3D coordinates assigned)
CN(C(=O)OC(=O)C(F)(F)F)C(=O)n1c(C(N)=O)cc2ccc(C(F)F)cc21 (optimized conformer: 76.49464629226709 kcal/mol)

>  <smiles>  (94) 
CN(C(=O)OC(=O)C(F)(F)F)C(=O)n1c(C(N)=O)cc2ccc(C(F)F)cc21

>  <score_type>  (94) 
oracle

>  <origin>  (94) 
adg

>  <m_score__min__energy>  (94) 
-7.6200000000000001

>  <m_primary>  (94) 
energy

$$$$
95:0
     RDKit          3D

 60 63  0  0  0  0  0  0  0  0999 V2000
   -5.7710   16.5470  -32.6790 C   0  0  0  0  0  0  0  0  0  0  0  0
   -5.7370   18.0330  -33.1020 C   0  0  2  0  0  0  0  0  0  0  0  0
   -7.1030   18.6370  -33.1940 N   0  0  0  0  0  0  0  0  0  0  0  0
   -7.2340   19.9460  -32.5810 C   0  0  0  0  0  0  0  0  0  0  0  0
   -8.5120   20.4650  -32.2350 C   0  0  0  0  0  0  0  0  0  0  0  0
   -8.6350   21.7060  -31.5880 C   0  0  0  0  0  0  0  0  0  0  0  0
   -7.4720   22.4140  -31.3120 C   0  0  0  0  0  0  0  0  0  0  0  0
   -7.3090   23.6570  -30.7450 C   0  0  0  0  0  0  0  0  0  0  0  0
   -5.9340   23.8930  -30.7580 C   0  0  0  0  0  0  0  0  0  0  0  0
   -5.3110   25.1000  -30.1720 C   0  0  0  0  0  0  0  0  0  0  0  0
   -4.1740   25.6840  -30.8040 N   0  0  0  0  0  0  0  0  0  0  0  0
   -5.7900   25.6390  -29.1390 O   0  0  0  0  0  0  0  0  0  0  0  0
   -5.2710   22.8380  -31.3140 N   0  0  0  0  0  0  0  0  0  0  0  0
   -3.8650   22.7510  -31.6180 C   0  0  0  0  0  0  0  0  0  0  0  0
   -3.4860   22.3150  -32.7420 O   0  0  0  0  0  0  0  0  0  0  0  0
   -2.9260   23.1800  -30.6710 O   0  0  0  0  0  0  0  0  0  0  0  0
   -2.9950   22.8650  -29.2790 C   0  0  0  0  0  0  0  0  0  0  0  0
   -2.6610   24.0820  -28.4230 C   0  0  0  0  0  0  0  0  0  0  0  0
   -2.0300   25.0420  -29.1970 F   0  0  0  0  0  0  0  0  0  0  0  0
   -6.2270   21.9400  -31.6450 C   0  0  0  0  0  0  0  0  0  0  0  0
   -6.0750   20.7110  -32.2960 C   0  0  0  0  0  0  0  0  0  0  0  0
   -4.9090   18.2360  -34.3720 C   0  0  0  0  0  0  0  0  0  0  0  0
   -5.4820   18.2220  -35.4950 O   0  0  0  0  0  0  0  0  0  0  0  0
   -3.4830   18.4910  -34.3310 N   0  0  0  0  0  0  0  0  0  0  0  0
   -2.5080   17.4380  -34.6750 C   0  0  0  0  0  0  0  0  0  0  0  0
   -1.1280   17.7510  -34.0750 C   0  0  1  0  0  0  0  0  0  0  0  0
   -0.6500   19.1350  -34.5740 C   0  0  0  0  0  0  0  0  0  0  0  0
   -1.7180   20.2400  -34.3820 C   0  0  0  0  0  0  0  0  0  0  0  0
   -2.9970   19.7250  -33.6780 C   0  0  2  0  0  0  0  0  0  0  0  0
   -2.7820   19.4810  -32.1610 C   0  0  0  0  0  0  0  0  0  0  0  0
   -1.4750   18.8940  -31.8180 N   0  0  0  0  0  0  0  0  0  0  0  0
   -1.1660   17.6360  -32.5210 C   0  0  0  0  0  0  0  0  0  0  0  0
   -5.7726   16.4782  -31.5812 H   0  0  0  0  0  0  0  0  0  0  0  0
   -6.6802   16.0731  -33.0774 H   0  0  0  0  0  0  0  0  0  0  0  0
   -4.8844   16.0320  -33.0774 H   0  0  0  0  0  0  0  0  0  0  0  0
   -5.2260   18.5851  -32.2995 H   0  0  0  0  0  0  0  0  0  0  0  0
   -7.3560   18.7120  -34.2070 H   0  0  0  0  0  0  0  0  0  0  0  0
   -7.8320   17.9990  -32.7950 H   0  0  0  0  0  0  0  0  0  0  0  0
   -9.4162   19.8872  -32.4771 H   0  0  0  0  0  0  0  0  0  0  0  0
   -9.6214   22.1046  -31.3087 H   0  0  0  0  0  0  0  0  0  0  0  0
   -8.0961   24.3235  -30.3625 H   0  0  0  0  0  0  0  0  0  0  0  0
   -3.2140   25.3030  -30.6470 H   0  0  0  0  0  0  0  0  0  0  0  0
   -4.0128   22.5246  -29.0378 H   0  0  0  0  0  0  0  0  0  0  0  0
   -2.2613   22.0743  -29.0632 H   0  0  0  0  0  0  0  0  0  0  0  0
   -3.5888   24.5010  -28.0064 H   0  0  0  0  0  0  0  0  0  0  0  0
   -1.9914   23.7776  -27.6051 H   0  0  0  0  0  0  0  0  0  0  0  0
   -5.0772   20.3460  -32.5807 H   0  0  0  0  0  0  0  0  0  0  0  0
   -2.8630   16.4752  -34.2788 H   0  0  0  0  0  0  0  0  0  0  0  0
   -2.4128   17.3914  -35.7699 H   0  0  0  0  0  0  0  0  0  0  0  0
   -0.3910   17.0092  -34.4164 H   0  0  0  0  0  0  0  0  0  0  0  0
    0.2539   19.4180  -34.0147 H   0  0  0  0  0  0  0  0  0  0  0  0
   -0.4503   19.0491  -35.6523 H   0  0  0  0  0  0  0  0  0  0  0  0
   -1.2831   21.0468  -33.7737 H   0  0  0  0  0  0  0  0  0  0  0  0
   -2.0108   20.5937  -35.3816 H   0  0  0  0  0  0  0  0  0  0  0  0
   -3.7577   20.5136  -33.7753 H   0  0  0  0  0  0  0  0  0  0  0  0
   -2.8727   20.4461  -31.6411 H   0  0  0  0  0  0  0  0  0  0  0  0
   -3.5448   18.7524  -31.8491 H   0  0  0  0  0  0  0  0  0  0  0  0
   -0.7090   19.5950  -31.9430 H   0  0  0  0  0  0  0  0  0  0  0  0
   -0.1810   17.2854  -32.1791 H   0  0  0  0  0  0  0  0  0  0  0  0
   -1.9811   16.9375  -32.2809 H   0  0  0  0  0  0  0  0  0  0  0  0
  1  2  1  0
  2  3  1  0
  3  4  1  0
  4  5  2  0
  5  6  1  0
  6  7  2  0
  7  8  1  0
  8  9  2  0
  9 10  1  0
 10 11  1  0
 10 12  2  0
  9 13  1  0
 13 14  1  0
 14 15  2  0
 14 16  1  0
 16 17  1  0
 17 18  1  0
 18 19  1  0
 13 20  1  0
 20 21  2  0
  2 22  1  0
 22 23  2  0
 22 24  1  0
 24 25  1  0
 25 26  1  0
 26 27  1  0
 27 28  1  0
 28 29  1  0
 29 30  1  0
 30 31  1  0
 31 32  1  0
 21  4  1  0
 29 24  1  0
 20  7  1  0
 32 26  1  0
  1 33  1  0
  1 34  1  0
  1 35  1  0
  2 36  1  1
  3 37  1  0
  3 38  1  0
  5 39  1  0
  6 40  1  0
  8 41  1  0
 11 42  1  0
 17 43  1  0
 17 44  1  0
 18 45  1  0
 18 46  1  0
 21 47  1  0
 25 48  1  0
 25 49  1  0
 26 50  1  6
 27 51  1  0
 27 52  1  0
 28 53  1  0
 28 54  1  0
 29 55  1  1
 30 56  1  0
 30 57  1  0
 31 58  1  0
 32 59  1  0
 32 60  1  0
M  CHG  2   3   1  11  -1
M  END
>  <UniqueID>  (95) 
94

>  <SMILES>  (95) 
C[C@H]([NH2+]c1ccc2cc(C([NH-])=O)n(C(=O)OCCF)c2c1)C(=O)N1C[C@H]2CCC1CNC2

>  <Energy>  (95) 
119.39166383710983

>  <Genealogy>  (95) 
CC([NH2+]c1ccc2cc(C([NH-])=O)n(C(=O)OCCF)c2c1)C(=O)N1CC2CCC1CNC2 (protonated)
C[C@H]([NH2+]c1ccc2cc(C([NH-])=O)n(C(=O)OCCF)c2c1)C(=O)N1C[C@H]2CCC1CNC2 (chirality)
C[C@H]([NH2+]c1ccc2cc(C([NH-])=O)n(C(=O)OCCF)c2c1)C(=O)N1C[C@H]2CCC1CNC2 (3D coordinates assigned)
C[C@H]([NH2+]c1ccc2cc(C([NH-])=O)n(C(=O)OCCF)c2c1)C(=O)N1C[C@H]2CCC1CNC2 (nonaromatic ring conformer: 119.39166383710983 kcal/mol)

>  <smiles>  (95) 
CC(Nc1ccc2cc(C(N)=O)n(C(=O)OCCF)c2c1)C(=O)N1CC2CCC1CNC2

>  <score_type>  (95) 
oracle

>  <origin>  (95) 
adg

>  <m_score__min__energy>  (95) 
-9.5500000000000007

>  <m_primary>  (95) 
energy

$$$$
96:0
     RDKit          3D

 44 46  0  0  0  0  0  0  0  0999 V2000
   -3.7530   24.9340  -26.4280 C   0  0  0  0  0  0  0  0  0  0  0  0
   -2.3600   25.3380  -26.7180 N   0  0  0  0  0  0  0  0  0  0  0  0
   -1.6210   25.5260  -25.4610 C   0  0  0  0  0  0  0  0  0  0  0  0
   -1.5850   24.4570  -27.6360 C   0  0  0  0  0  0  0  0  0  0  0  0
   -2.1660   24.3540  -29.0130 C   0  0  0  0  0  0  0  0  0  0  0  0
   -2.4760   22.9120  -28.9420 N   0  0  0  0  0  0  0  0  0  0  0  0
   -3.0830   21.9100  -29.7580 C   0  0  0  0  0  0  0  0  0  0  0  0
   -3.1840   20.7340  -29.3180 O   0  0  0  0  0  0  0  0  0  0  0  0
   -3.5800   22.2330  -31.1070 C   0  0  0  0  0  0  0  0  0  0  0  0
   -2.7740   22.2980  -32.0740 O   0  0  0  0  0  0  0  0  0  0  0  0
   -4.9810   22.4480  -31.3400 N   0  0  0  0  0  0  0  0  0  0  0  0
   -5.7300   23.5110  -30.9360 C   0  0  0  0  0  0  0  0  0  0  0  0
   -5.2120   24.7400  -30.2980 C   0  0  0  0  0  0  0  0  0  0  0  0
   -5.7380   25.2130  -29.0580 N   0  0  0  0  0  0  0  0  0  0  0  0
   -4.2570   25.3600  -30.8380 O   0  0  0  0  0  0  0  0  0  0  0  0
   -7.0780   23.2920  -31.2070 C   0  0  0  0  0  0  0  0  0  0  0  0
   -7.1330   22.0490  -31.7970 C   0  0  0  0  0  0  0  0  0  0  0  0
   -8.2300   21.3110  -32.2280 C   0  0  0  0  0  0  0  0  0  0  0  0
   -7.9990   20.0220  -32.7370 C   0  0  0  0  0  0  0  0  0  0  0  0
   -6.6820   19.4950  -32.8100 C   0  0  0  0  0  0  0  0  0  0  0  0
   -6.4550   18.0860  -33.2940 C   0  0  0  0  0  0  0  0  0  0  0  0
   -6.1350   18.1120  -34.6370 F   0  0  0  0  0  0  0  0  0  0  0  0
   -5.4210   17.4910  -32.5940 F   0  0  0  0  0  0  0  0  0  0  0  0
   -7.5940   17.3200  -33.1160 F   0  0  0  0  0  0  0  0  0  0  0  0
   -5.5970   20.2670  -32.3340 C   0  0  0  0  0  0  0  0  0  0  0  0
   -5.8550   21.5580  -31.8580 C   0  0  0  0  0  0  0  0  0  0  0  0
   -1.8750   22.9820  -27.5970 C   0  0  0  0  0  0  0  0  0  0  0  0
   -3.9030   24.8905  -25.3391 H   0  0  0  0  0  0  0  0  0  0  0  0
   -4.4461   25.6681  -26.8646 H   0  0  0  0  0  0  0  0  0  0  0  0
   -3.9458   23.9429  -26.8646 H   0  0  0  0  0  0  0  0  0  0  0  0
   -2.2960   25.3543  -24.6096 H   0  0  0  0  0  0  0  0  0  0  0  0
   -0.7856   24.8118  -25.4165 H   0  0  0  0  0  0  0  0  0  0  0  0
   -1.2285   26.5526  -25.4165 H   0  0  0  0  0  0  0  0  0  0  0  0
   -0.5958   24.8688  -27.3871 H   0  0  0  0  0  0  0  0  0  0  0  0
   -3.0640   24.9759  -29.1430 H   0  0  0  0  0  0  0  0  0  0  0  0
   -1.5368   24.6915  -29.8498 H   0  0  0  0  0  0  0  0  0  0  0  0
   -5.3970   26.1130  -28.6550 H   0  0  0  0  0  0  0  0  0  0  0  0
   -6.3870   24.6290  -28.4860 H   0  0  0  0  0  0  0  0  0  0  0  0
   -7.9196   23.9678  -30.9950 H   0  0  0  0  0  0  0  0  0  0  0  0
   -9.2480   21.7240  -32.1721 H   0  0  0  0  0  0  0  0  0  0  0  0
   -8.8478   19.4139  -33.0830 H   0  0  0  0  0  0  0  0  0  0  0  0
   -4.5741   19.8625  -32.3377 H   0  0  0  0  0  0  0  0  0  0  0  0
   -2.5820   22.7081  -26.8001 H   0  0  0  0  0  0  0  0  0  0  0  0
   -1.0311   22.3084  -27.3870 H   0  0  0  0  0  0  0  0  0  0  0  0
  1  2  1  0
  2  3  1  0
  2  4  1  0
  4  5  1  0
  5  6  1  0
  6  7  1  0
  7  8  2  0
  7  9  1  0
  9 10  2  0
  9 11  1  0
 11 12  1  0
 12 13  1  0
 13 14  1  0
 13 15  2  0
 12 16  2  0
 16 17  1  0
 17 18  2  0
 18 19  1  0
 19 20  2  0
 20 21  1  0
 21 22  1  0
 21 23  1  0
 21 24  1  0
 20 25  1  0
 25 26  2  0
  6 27  1  0
 27  4  1  0
 26 11  1  0
 26 17  1  0
  1 28  1  0
  1 29  1  0
  1 30  1  0
  3 31  1  0
  3 32  1  0
  3 33  1  0
  4 34  1  0
  5 35  1  0
  5 36  1  0
 14 37  1  0
 14 38  1  0
 16 39  1  0
 18 40  1  0
 19 41  1  0
 25 42  1  0
 27 43  1  0
 27 44  1  0
M  END
>  <UniqueID>  (96) 
95

>  <SMILES>  (96) 
CN(C)C1CN(C(=O)C(=O)n2c(C(N)=O)cc3ccc(C(F)(F)F)cc32)C1

>  <Energy>  (96) 
138.05581980499474

>  <Genealogy>  (96) 
CN(C)C1CN(C(=O)C(=O)n2c(C(N)=O)cc3ccc(C(F)(F)F)cc32)C1 (3D coordinates assigned)
CN(C)C1CN(C(=O)C(=O)n2c(C(N)=O)cc3ccc(C(F)(F)F)cc32)C1 (nonaromatic ring conformer: 138.05581980499474 kcal/mol)

>  <smiles>  (96) 
CN(C)C1CN(C(=O)C(=O)n2c(C(N)=O)cc3ccc(C(F)(F)F)cc32)C1

>  <score_type>  (96) 
oracle

>  <origin>  (96) 
adg

>  <m_score__min__energy>  (96) 
-9.1899999999999995

>  <m_primary>  (96) 
energy

$$$$
97:0
     RDKit          3D

 44 46  0  0  0  0  0  0  0  0999 V2000
   -5.3683   24.3157  -32.1081 H   0  0  0  0  0  0  0  0  0  0  0  0
   -5.0050   23.6480  -31.3130 C   0  0  0  0  0  0  0  0  0  0  0  0
   -4.0170   24.1610  -30.3510 C   0  0  0  0  0  0  0  0  0  0  0  0
   -3.4990   25.3010  -30.4950 O   0  0  0  0  0  0  0  0  0  0  0  0
   -3.6500   23.3780  -29.2650 O   0  0  0  0  0  0  0  0  0  0  0  0
   -5.4770   22.3970  -31.2540 C   0  0  0  0  0  0  0  0  0  0  0  0
   -5.1176   21.7317  -30.4551 H   0  0  0  0  0  0  0  0  0  0  0  0
   -6.4630   21.8780  -32.2230 C   0  0  0  0  0  0  0  0  0  0  0  0
   -7.3320   22.6450  -32.7220 O   0  0  0  0  0  0  0  0  0  0  0  0
   -6.4500   20.4890  -32.5910 N   0  0  0  0  0  0  0  0  0  0  0  0
   -7.5190   19.6500  -32.6850 C   0  0  0  0  0  0  0  0  0  0  0  0
   -8.9100   19.9900  -32.3070 C   0  0  0  0  0  0  0  0  0  0  0  0
   -9.8660   19.2740  -32.7060 O   0  0  0  0  0  0  0  0  0  0  0  0
   -9.1930   21.1380  -31.5050 N   0  0  0  0  0  0  0  0  0  0  0  0
   -8.4290   21.7210  -31.0980 H   0  0  0  0  0  0  0  0  0  0  0  0
  -10.1810   21.3870  -31.2770 H   0  0  0  0  0  0  0  0  0  0  0  0
   -7.1080   18.3910  -33.1230 C   0  0  0  0  0  0  0  0  0  0  0  0
   -7.7378   17.5050  -33.2912 H   0  0  0  0  0  0  0  0  0  0  0  0
   -5.7470   18.4930  -33.3000 C   0  0  0  0  0  0  0  0  0  0  0  0
   -4.8300   17.5460  -33.7290 C   0  0  0  0  0  0  0  0  0  0  0  0
   -5.1479   16.5213  -33.9719 H   0  0  0  0  0  0  0  0  0  0  0  0
   -3.4850   17.9300  -33.8450 C   0  0  0  0  0  0  0  0  0  0  0  0
   -2.7410   17.1894  -34.1734 H   0  0  0  0  0  0  0  0  0  0  0  0
   -3.0600   19.2620  -33.5460 C   0  0  0  0  0  0  0  0  0  0  0  0
   -1.6560   19.6580  -33.6760 N   0  0  0  0  0  0  0  0  0  0  0  0
   -0.7890   18.8950  -34.6120 C   0  0  0  0  0  0  0  0  0  0  0  0
   -0.8287   17.8338  -34.3252 H   0  0  0  0  0  0  0  0  0  0  0  0
   -1.1805   19.0905  -35.6212 H   0  0  0  0  0  0  0  0  0  0  0  0
    0.6790   19.3260  -34.6330 C   0  0  0  0  0  0  0  0  0  0  0  0
    1.2255   18.8038  -33.8338 H   0  0  0  0  0  0  0  0  0  0  0  0
    1.1209   19.0715  -35.6077 H   0  0  0  0  0  0  0  0  0  0  0  0
    0.7680   20.7620  -34.4220 N   0  0  0  0  0  0  0  0  0  0  0  0
    0.9150   21.6770  -35.5230 C   0  0  0  0  0  0  0  0  0  0  0  0
    0.8230   22.9200  -35.3390 O   0  0  0  0  0  0  0  0  0  0  0  0
    1.1660   21.2030  -36.8050 O   0  0  0  0  0  0  0  0  0  0  0  0
    0.2900   21.1990  -33.1190 C   0  0  0  0  0  0  0  0  0  0  0  0
    0.8358   20.6617  -32.3294 H   0  0  0  0  0  0  0  0  0  0  0  0
    0.4584   22.2807  -33.0112 H   0  0  0  0  0  0  0  0  0  0  0  0
   -1.2060   20.9020  -32.9970 C   0  0  0  0  0  0  0  0  0  0  0  0
   -1.4508   20.8153  -31.9281 H   0  0  0  0  0  0  0  0  0  0  0  0
   -1.7265   21.7317  -33.4977 H   0  0  0  0  0  0  0  0  0  0  0  0
   -4.0470   20.1910  -33.1050 C   0  0  0  0  0  0  0  0  0  0  0  0
   -3.7687   21.2285  -32.8682 H   0  0  0  0  0  0  0  0  0  0  0  0
   -5.3740   19.7670  -32.9770 C   0  0  0  0  0  0  0  0  0  0  0  0
  1  2  1  0
  2  3  1  0
  3  4  2  0
  3  5  1  0
  2  6  2  0
  6  7  1  0
  6  8  1  0
  8  9  2  0
  8 10  1  0
 10 11  1  0
 11 12  1  0
 12 13  2  0
 12 14  1  0
 14 15  1  0
 14 16  1  0
 11 17  2  0
 17 18  1  0
 17 19  1  0
 19 20  2  0
 20 21  1  0
 20 22  1  0
 22 23  1  0
 22 24  2  0
 24 25  1  0
 25 26  1  0
 26 27  1  0
 26 28  1  0
 26 29  1  0
 29 30  1  0
 29 31  1  0
 29 32  1  0
 32 33  1  0
 33 34  2  0
 33 35  1  0
 32 36  1  0
 36 37  1  0
 36 38  1  0
 36 39  1  0
 39 40  1  0
 39 41  1  0
 24 42  1  0
 42 43  1  0
 42 44  2  0
 44 10  1  0
 44 19  1  0
 39 25  1  0
M  CHG  2   5  -1  35  -1
M  END
>  <UniqueID>  (97) 
96

>  <SMILES>  (97) 
NC(=O)c1cc2ccc(N3CCN(C(=O)[O-])CC3)cc2n1C(=O)/C=C/C(=O)[O-]

>  <Energy>  (97) 
92.3428431056047

>  <Genealogy>  (97) 
NC(=O)c1cc2ccc(N3CCN(C(=O)[O-])CC3)cc2n1C(=O)/C=C/C(=O)[O-] (protonated)
NC(=O)c1cc2ccc(N3CCN(C(=O)[O-])CC3)cc2n1C(=O)/C=C/C(=O)[O-] (cis-trans isomerization)
NC(=O)c1cc2ccc(N3CCN(C(=O)[O-])CC3)cc2n1C(=O)/C=C/C(=O)[O-] (3D coordinates assigned)
NC(=O)c1cc2ccc(N3CCN(C(=O)[O-])CC3)cc2n1C(=O)/C=C/C(=O)[O-] (nonaromatic ring conformer: 92.3428431056047 kcal/mol)

>  <smiles>  (97) 
NC(=O)c1cc2ccc(N3CCN(C(=O)O)CC3)cc2n1C(=O)/C=C/C(=O)O

>  <score_type>  (97) 
oracle

>  <origin>  (97) 
adg

>  <m_score__min__energy>  (97) 
-11.52

>  <m_primary>  (97) 
energy

$$$$
