0:0
     RDKit          3D

 38 40  0  0  0  0  0  0  0  0999 V2000
   -5.8690   25.3190  -28.9920 N   0  0  0  0  0  0  0  0  0  0  0  0
   -5.3950   24.8480  -30.2540 C   0  0  0  0  0  0  0  0  0  0  0  0
   -4.5040   25.5010  -30.8600 O   0  0  0  0  0  0  0  0  0  0  0  0
   -5.8890   23.5840  -30.8380 C   0  0  0  0  0  0  0  0  0  0  0  0
   -7.2290   23.3450  -31.1330 C   0  0  0  0  0  0  0  0  0  0  0  0
   -7.2610   22.0790  -31.6710 C   0  0  0  0  0  0  0  0  0  0  0  0
   -8.3450   21.3230  -32.1050 C   0  0  0  0  0  0  0  0  0  0  0  0
   -8.0970   20.0180  -32.5630 C   0  0  0  0  0  0  0  0  0  0  0  0
   -6.7780   19.4950  -32.5820 C   0  0  0  0  0  0  0  0  0  0  0  0
   -6.5330   18.0710  -33.0120 C   0  0  0  0  0  0  0  0  0  0  0  0
   -7.6320   17.2800  -32.7280 F   0  0  0  0  0  0  0  0  0  0  0  0
   -5.4380   17.5420  -32.3510 F   0  0  0  0  0  0  0  0  0  0  0  0
   -6.2960   18.0410  -34.3730 F   0  0  0  0  0  0  0  0  0  0  0  0
   -5.7090   20.2860  -32.1050 C   0  0  0  0  0  0  0  0  0  0  0  0
   -5.9790   21.5930  -31.6810 C   0  0  0  0  0  0  0  0  0  0  0  0
   -5.1220   22.5090  -31.1740 N   0  0  0  0  0  0  0  0  0  0  0  0
   -3.7210   22.3280  -30.9040 C   0  0  0  0  0  0  0  0  0  0  0  0
   -2.8780   22.6060  -31.7990 O   0  0  0  0  0  0  0  0  0  0  0  0
   -3.2600   21.7040  -29.6140 C   0  0  0  0  0  0  0  0  0  0  0  0
   -2.3030   22.6250  -28.8280 C   0  0  1  0  0  0  0  0  0  0  0  0
   -0.9420   22.7900  -29.5430 C   0  0  0  0  0  0  0  0  0  0  0  0
   -0.5410   24.1690  -29.3420 N   0  0  0  0  0  0  0  0  0  0  0  0
   -1.6520   24.8880  -28.8510 C   0  0  0  0  0  0  0  0  0  0  0  0
   -1.6130   26.1280  -28.6330 O   0  0  0  0  0  0  0  0  0  0  0  0
   -2.8510   24.0540  -28.6350 C   0  0  0  0  0  0  0  0  0  0  0  0
   -5.5460   26.2410  -28.6240 H   0  0  0  0  0  0  0  0  0  0  0  0
   -6.4570   24.7170  -28.3750 H   0  0  0  0  0  0  0  0  0  0  0  0
   -8.0797   24.0232  -30.9706 H   0  0  0  0  0  0  0  0  0  0  0  0
   -9.3651   21.7342  -32.0901 H   0  0  0  0  0  0  0  0  0  0  0  0
   -8.9343   19.3951  -32.9106 H   0  0  0  0  0  0  0  0  0  0  0  0
   -4.6859   19.8836  -32.0675 H   0  0  0  0  0  0  0  0  0  0  0  0
   -4.1401   21.4921  -28.9890 H   0  0  0  0  0  0  0  0  0  0  0  0
   -2.7128   20.7826  -29.8621 H   0  0  0  0  0  0  0  0  0  0  0  0
   -2.1937   22.1236  -27.8551 H   0  0  0  0  0  0  0  0  0  0  0  0
   -0.1970   22.1091  -29.1056 H   0  0  0  0  0  0  0  0  0  0  0  0
   -1.0209   22.5486  -30.6133 H   0  0  0  0  0  0  0  0  0  0  0  0
   -3.2535   24.1917  -27.6206 H   0  0  0  0  0  0  0  0  0  0  0  0
   -3.6834   24.2994  -29.3109 H   0  0  0  0  0  0  0  0  0  0  0  0
  1  2  1  0
  2  3  2  0
  2  4  1  0
  4  5  2  0
  5  6  1  0
  6  7  2  0
  7  8  1  0
  8  9  2  0
  9 10  1  0
 10 11  1  0
 10 12  1  0
 10 13  1  0
  9 14  1  0
 14 15  2  0
 15 16  1  0
 16 17  1  0
 17 18  2  0
 17 19  1  0
 19 20  1  0
 20 21  1  0
 21 22  1  0
 22 23  1  0
 23 24  2  0
 23 25  1  0
 16  4  1  0
 25 20  1  0
 15  6  1  0
  1 26  1  0
  1 27  1  0
  5 28  1  0
  7 29  1  0
  8 30  1  0
 14 31  1  0
 19 32  1  0
 19 33  1  0
 20 34  1  1
 21 35  1  0
 21 36  1  0
 25 37  1  0
 25 38  1  0
M  CHG  1  22  -1
M  END
>  <UniqueID>  (1) 
1

>  <SMILES>  (1) 
NC(=O)c1cc2ccc(C(F)(F)F)cc2n1C(=O)C[C@H]1C[N-]C(=O)C1

>  <Energy>  (1) 
87.03914052591388

>  <Genealogy>  (1) 
NC(=O)c1cc2ccc(C(F)(F)F)cc2n1C(=O)C[C@H]1C[N-]C(=O)C1 (protonated)
NC(=O)c1cc2ccc(C(F)(F)F)cc2n1C(=O)C[C@H]1C[N-]C(=O)C1 (3D coordinates assigned)
NC(=O)c1cc2ccc(C(F)(F)F)cc2n1C(=O)C[C@H]1C[N-]C(=O)C1 (nonaromatic ring conformer: 87.03914052591388 kcal/mol)

>  <smiles>  (1) 
NC(=O)c1cc2ccc(C(F)(F)F)cc2n1C(=O)C[C@H]1CNC(=O)C1

>  <score_type>  (1) 
oracle

>  <origin>  (1) 
adg

>  <m_score__min__energy>  (1) 
-10.51

>  <m_primary>  (1) 
energy

$$$$
1:0
     RDKit          3D

 51 53  0  0  0  0  0  0  0  0999 V2000
   -3.2460   21.6840  -28.3990 C   0  0  0  0  0  0  0  0  0  0  0  0
   -2.1960   21.8750  -29.4090 N   0  0  0  0  0  0  0  0  0  0  0  0
   -0.7790   21.8830  -29.0270 C   0  0  0  0  0  0  0  0  0  0  0  0
   -0.4190   23.1880  -28.3600 C   0  0  0  0  0  0  0  0  0  0  0  0
    0.0490   24.1270  -29.0620 O   0  0  0  0  0  0  0  0  0  0  0  0
   -0.6440   23.4050  -26.9540 N   0  0  0  0  0  0  0  0  0  0  0  0
   -0.3270   22.4180  -25.9360 C   0  0  0  0  0  0  0  0  0  0  0  0
   -0.1370   23.2110  -24.6460 C   0  0  1  0  0  0  0  0  0  0  0  0
    1.2310   23.4300  -24.3830 O   0  0  0  0  0  0  0  0  0  0  0  0
   -0.8700   24.5380  -24.8710 C   0  0  0  0  0  0  0  0  0  0  0  0
   -0.8930   24.7290  -26.3890 C   0  0  2  0  0  0  0  0  0  0  0  0
   -2.2400   25.2950  -26.8740 C   0  0  0  0  0  0  0  0  0  0  0  0
   -2.2460   25.4210  -28.2720 O   0  0  0  0  0  0  0  0  0  0  0  0
   -2.5770   22.0880  -30.7780 C   0  0  0  0  0  0  0  0  0  0  0  0
   -1.6990   22.1040  -31.6850 O   0  0  0  0  0  0  0  0  0  0  0  0
   -3.9620   22.1780  -31.1360 N   0  0  0  0  0  0  0  0  0  0  0  0
   -4.8590   23.1550  -30.8200 C   0  0  0  0  0  0  0  0  0  0  0  0
   -4.5680   24.3640  -30.0210 C   0  0  0  0  0  0  0  0  0  0  0  0
   -3.5930   25.2980  -30.4760 N   0  0  0  0  0  0  0  0  0  0  0  0
   -5.1640   24.5740  -28.9340 O   0  0  0  0  0  0  0  0  0  0  0  0
   -6.1110   22.8560  -31.3660 C   0  0  0  0  0  0  0  0  0  0  0  0
   -5.9390   21.6670  -32.0430 C   0  0  0  0  0  0  0  0  0  0  0  0
   -6.8310   20.9430  -32.8360 C   0  0  0  0  0  0  0  0  0  0  0  0
   -6.3590   19.7760  -33.4640 C   0  0  0  0  0  0  0  0  0  0  0  0
   -5.0080   19.3630  -33.3000 C   0  0  0  0  0  0  0  0  0  0  0  0
   -4.5140   18.0980  -33.9390 C   0  0  0  0  0  0  0  0  0  0  0  0
   -3.1640   18.2290  -34.2310 F   0  0  0  0  0  0  0  0  0  0  0  0
   -5.2150   17.8490  -35.1090 F   0  0  0  0  0  0  0  0  0  0  0  0
   -4.1290   20.1390  -32.5100 C   0  0  0  0  0  0  0  0  0  0  0  0
   -4.6340   21.2830  -31.8860 C   0  0  0  0  0  0  0  0  0  0  0  0
   -2.8067   21.7639  -27.3937 H   0  0  0  0  0  0  0  0  0  0  0  0
   -4.0194   22.4562  -28.5236 H   0  0  0  0  0  0  0  0  0  0  0  0
   -3.6980   20.6889  -28.5236 H   0  0  0  0  0  0  0  0  0  0  0  0
   -0.5875   21.0547  -28.3289 H   0  0  0  0  0  0  0  0  0  0  0  0
   -0.1657   21.7651  -29.9325 H   0  0  0  0  0  0  0  0  0  0  0  0
   -1.1522   21.6988  -25.8274 H   0  0  0  0  0  0  0  0  0  0  0  0
    0.5710   21.8379  -26.1950 H   0  0  0  0  0  0  0  0  0  0  0  0
   -0.5341   22.6688  -23.7752 H   0  0  0  0  0  0  0  0  0  0  0  0
    1.2970   23.9590  -23.5410 H   0  0  0  0  0  0  0  0  0  0  0  0
   -1.8941   24.4857  -24.4729 H   0  0  0  0  0  0  0  0  0  0  0  0
   -0.3736   25.3749  -24.3580 H   0  0  0  0  0  0  0  0  0  0  0  0
   -0.1345   25.4589  -26.7083 H   0  0  0  0  0  0  0  0  0  0  0  0
   -3.0492   24.6155  -26.5684 H   0  0  0  0  0  0  0  0  0  0  0  0
   -2.3898   26.2887  -26.4268 H   0  0  0  0  0  0  0  0  0  0  0  0
   -3.2080   25.3550  -28.5550 H   0  0  0  0  0  0  0  0  0  0  0  0
   -3.8520   26.0650  -31.1390 H   0  0  0  0  0  0  0  0  0  0  0  0
   -7.0362   23.4440  -31.2749 H   0  0  0  0  0  0  0  0  0  0  0  0
   -7.8716   21.2750  -32.9659 H   0  0  0  0  0  0  0  0  0  0  0  0
   -7.0404   19.1780  -34.0870 H   0  0  0  0  0  0  0  0  0  0  0  0
   -4.6670   17.2596  -33.2435 H   0  0  0  0  0  0  0  0  0  0  0  0
   -3.0746   19.8497  -32.3896 H   0  0  0  0  0  0  0  0  0  0  0  0
  1  2  1  0
  2  3  1  0
  3  4  1  0
  4  5  2  0
  4  6  1  0
  6  7  1  0
  7  8  1  0
  8  9  1  0
  8 10  1  0
 10 11  1  0
 11 12  1  0
 12 13  1  0
  2 14  1  0
 14 15  2  0
 14 16  1  0
 16 17  1  0
 17 18  1  0
 18 19  1  0
 18 20  2  0
 17 21  2  0
 21 22  1  0
 22 23  2  0
 23 24  1  0
 24 25  2  0
 25 26  1  0
 26 27  1  0
 26 28  1  0
 25 29  1  0
 29 30  2  0
 11  6  1  0
 30 16  1  0
 30 22  1  0
  1 31  1  0
  1 32  1  0
  1 33  1  0
  3 34  1  0
  3 35  1  0
  7 36  1  0
  7 37  1  0
  8 38  1  1
  9 39  1  0
 10 40  1  0
 10 41  1  0
 11 42  1  1
 12 43  1  0
 12 44  1  0
 13 45  1  0
 19 46  1  0
 21 47  1  0
 23 48  1  0
 24 49  1  0
 26 50  1  0
 29 51  1  0
M  CHG  1  19  -1
M  END
>  <UniqueID>  (2) 
2

>  <SMILES>  (2) 
CN(CC(=O)N1C[C@@H](O)C[C@@H]1CO)C(=O)n1c(C([NH-])=O)cc2ccc(C(F)F)cc21

>  <Energy>  (2) 
93.96867661162705

>  <Genealogy>  (2) 
CN(CC(=O)N1CC(O)CC1CO)C(=O)n1c(C([NH-])=O)cc2ccc(C(F)F)cc21 (protonated)
CN(CC(=O)N1C[C@@H](O)C[C@@H]1CO)C(=O)n1c(C([NH-])=O)cc2ccc(C(F)F)cc21 (chirality)
CN(CC(=O)N1C[C@@H](O)C[C@@H]1CO)C(=O)n1c(C([NH-])=O)cc2ccc(C(F)F)cc21 (3D coordinates assigned)
CN(CC(=O)N1C[C@@H](O)C[C@@H]1CO)C(=O)n1c(C([NH-])=O)cc2ccc(C(F)F)cc21 (nonaromatic ring conformer: 93.96867661162705 kcal/mol)

>  <smiles>  (2) 
CN(CC(=O)N1CC(O)CC1CO)C(=O)n1c(C(N)=O)cc2ccc(C(F)F)cc21

>  <score_type>  (2) 
oracle

>  <origin>  (2) 
adg

>  <m_score__min__energy>  (2) 
-10.380000000000001

>  <m_primary>  (2) 
energy

$$$$
2:0
     RDKit          3D

 30 31  0  0  0  0  0  0  0  0999 V2000
   -1.6070   26.0170  -28.9560 N   0  0  0  0  0  0  0  0  0  0  0  0
   -0.9100   24.7780  -28.8510 C   0  0  0  0  0  0  0  0  0  0  0  0
    0.1120   24.7040  -28.1180 O   0  0  0  0  0  0  0  0  0  0  0  0
   -1.3490   23.5930  -29.6180 C   0  0  0  0  0  0  0  0  0  0  0  0
   -0.5070   22.5330  -29.9520 C   0  0  0  0  0  0  0  0  0  0  0  0
   -1.2740   21.6850  -30.7220 C   0  0  0  0  0  0  0  0  0  0  0  0
   -0.9480   20.4710  -31.3190 C   0  0  0  0  0  0  0  0  0  0  0  0
   -1.9530   19.8030  -32.0420 C   0  0  0  0  0  0  0  0  0  0  0  0
   -3.2500   20.3580  -32.1480 C   0  0  0  0  0  0  0  0  0  0  0  0
   -4.2710   19.6610  -32.8830 C   0  0  0  0  0  0  0  0  0  0  0  0
   -5.1270   19.0790  -33.5000 C   0  0  0  0  0  0  0  0  0  0  0  0
   -6.1660   18.3710  -34.2480 C   0  0  0  0  0  0  0  0  0  0  0  0
   -7.3300   18.3080  -33.4750 O   0  0  0  0  0  0  0  0  0  0  0  0
   -3.5470   21.5910  -31.5320 C   0  0  0  0  0  0  0  0  0  0  0  0
   -2.5250   22.2360  -30.8280 C   0  0  0  0  0  0  0  0  0  0  0  0
   -2.5880   23.4020  -30.1530 N   0  0  0  0  0  0  0  0  0  0  0  0
   -3.7570   24.2150  -29.9870 C   0  0  0  0  0  0  0  0  0  0  0  0
   -3.8550   25.3050  -30.6110 O   0  0  0  0  0  0  0  0  0  0  0  0
   -4.9130   23.7260  -29.1720 C   0  0  0  0  0  0  0  0  0  0  0  0
   -6.4720   23.5500  -30.3060 Br  0  0  0  0  0  0  0  0  0  0  0  0
   -2.6500   26.0470  -28.9750 H   0  0  0  0  0  0  0  0  0  0  0  0
    0.5460   22.4013  -29.6625 H   0  0  0  0  0  0  0  0  0  0  0  0
    0.0631   20.0473  -31.2285 H   0  0  0  0  0  0  0  0  0  0  0  0
   -1.7288   18.8422  -32.5284 H   0  0  0  0  0  0  0  0  0  0  0  0
   -6.3755   18.9085  -35.1846 H   0  0  0  0  0  0  0  0  0  0  0  0
   -5.8229   17.3523  -34.4814 H   0  0  0  0  0  0  0  0  0  0  0  0
   -7.9500   18.9820  -33.8570 H   0  0  0  0  0  0  0  0  0  0  0  0
   -4.5521   22.0323  -31.6030 H   0  0  0  0  0  0  0  0  0  0  0  0
   -4.6655   22.7477  -28.7343 H   0  0  0  0  0  0  0  0  0  0  0  0
   -5.1243   24.4447  -28.3665 H   0  0  0  0  0  0  0  0  0  0  0  0
  1  2  1  0
  2  3  2  0
  2  4  1  0
  4  5  2  0
  5  6  1  0
  6  7  2  0
  7  8  1  0
  8  9  2  0
  9 10  1  0
 10 11  3  0
 11 12  1  0
 12 13  1  0
  9 14  1  0
 14 15  2  0
 15 16  1  0
 16 17  1  0
 17 18  2  0
 17 19  1  0
 19 20  1  0
 16  4  1  0
 15  6  1  0
  1 21  1  0
  5 22  1  0
  7 23  1  0
  8 24  1  0
 12 25  1  0
 12 26  1  0
 13 27  1  0
 14 28  1  0
 19 29  1  0
 19 30  1  0
M  CHG  1   1  -1
M  END
>  <UniqueID>  (3) 
3

>  <SMILES>  (3) 
[NH-]C(=O)c1cc2ccc(C#CCO)cc2n1C(=O)CBr

>  <Energy>  (3) 
63.51835774101348

>  <Genealogy>  (3) 
[NH-]C(=O)c1cc2ccc(C#CCO)cc2n1C(=O)CBr (protonated)
[NH-]C(=O)c1cc2ccc(C#CCO)cc2n1C(=O)CBr (3D coordinates assigned)
[NH-]C(=O)c1cc2ccc(C#CCO)cc2n1C(=O)CBr (optimized conformer: 63.51835774101348 kcal/mol)

>  <smiles>  (3) 
NC(=O)c1cc2ccc(C#CCO)cc2n1C(=O)CBr

>  <score_type>  (3) 
oracle

>  <origin>  (3) 
adg

>  <m_score__min__energy>  (3) 
-10.029999999999999

>  <m_primary>  (3) 
energy

$$$$
3:0
     RDKit          3D

 50 51  0  0  0  0  0  0  0  0999 V2000
    0.6280   22.2240  -36.0320 C   0  0  0  0  0  0  0  0  0  0  0  0
    1.0140   22.2800  -34.6800 O   0  0  0  0  0  0  0  0  0  0  0  0
    0.4610   21.1810  -33.9840 C   0  0  0  0  0  0  0  0  0  0  0  0
   -0.5660   20.4760  -34.8720 C   0  0  0  0  0  0  0  0  0  0  0  0
   -1.5650   19.7680  -34.0590 N   0  0  0  0  0  0  0  0  0  0  0  0
   -1.4450   18.3100  -33.8890 C   0  0  0  0  0  0  0  0  0  0  0  0
   -2.6690   20.5030  -33.4760 C   0  0  0  0  0  0  0  0  0  0  0  0
   -3.8540   20.2300  -33.8290 O   0  0  0  0  0  0  0  0  0  0  0  0
   -2.4310   21.6600  -32.5170 C   0  0  0  0  0  0  0  0  0  0  0  0
   -2.3760   21.2340  -31.1070 N   0  0  0  0  0  0  0  0  0  0  0  0
   -1.5880   20.0690  -30.6910 C   0  0  0  0  0  0  0  0  0  0  0  0
   -3.4500   21.6070  -30.2270 C   0  0  0  0  0  0  0  0  0  0  0  0
   -3.3030   21.4730  -28.9820 O   0  0  0  0  0  0  0  0  0  0  0  0
   -4.6790   22.1510  -30.7450 N   0  0  0  0  0  0  0  0  0  0  0  0
   -5.1050   23.4420  -30.6410 C   0  0  0  0  0  0  0  0  0  0  0  0
   -4.2790   24.5840  -30.1830 C   0  0  0  0  0  0  0  0  0  0  0  0
   -3.5660   24.5090  -28.9510 N   0  0  0  0  0  0  0  0  0  0  0  0
   -4.2580   25.6610  -30.8400 O   0  0  0  0  0  0  0  0  0  0  0  0
   -6.3970   23.5750  -31.1430 C   0  0  0  0  0  0  0  0  0  0  0  0
   -6.7490   22.3170  -31.5740 C   0  0  0  0  0  0  0  0  0  0  0  0
   -7.9380   21.8710  -32.1380 C   0  0  0  0  0  0  0  0  0  0  0  0
   -8.0460   20.5050  -32.4530 C   0  0  0  0  0  0  0  0  0  0  0  0
   -6.9580   19.6190  -32.2260 C   0  0  0  0  0  0  0  0  0  0  0  0
   -7.0500   18.1470  -32.5450 C   0  0  0  0  0  0  0  0  0  0  0  0
   -5.7810   17.5050  -34.1620 I   0  0  0  0  0  0  0  0  0  0  0  0
   -5.7840   20.1070  -31.6120 C   0  0  0  0  0  0  0  0  0  0  0  0
   -5.6960   21.4730  -31.3200 C   0  0  0  0  0  0  0  0  0  0  0  0
   -0.4587   22.0663  -36.0968 H   0  0  0  0  0  0  0  0  0  0  0  0
    0.8915   23.1698  -36.5280 H   0  0  0  0  0  0  0  0  0  0  0  0
    1.1494   21.3921  -36.5280 H   0  0  0  0  0  0  0  0  0  0  0  0
    1.2618   20.4750  -33.7188 H   0  0  0  0  0  0  0  0  0  0  0  0
   -0.0321   21.5390  -33.0682 H   0  0  0  0  0  0  0  0  0  0  0  0
   -1.0753   21.2241  -35.4972 H   0  0  0  0  0  0  0  0  0  0  0  0
   -0.0412   19.7421  -35.5013 H   0  0  0  0  0  0  0  0  0  0  0  0
   -1.4249   18.0663  -32.8165 H   0  0  0  0  0  0  0  0  0  0  0  0
   -2.3053   17.8137  -34.3618 H   0  0  0  0  0  0  0  0  0  0  0  0
   -0.5151   17.9610  -34.3618 H   0  0  0  0  0  0  0  0  0  0  0  0
   -1.4758   22.1400  -32.7762 H   0  0  0  0  0  0  0  0  0  0  0  0
   -3.2786   22.3536  -32.6196 H   0  0  0  0  0  0  0  0  0  0  0  0
   -1.5558   20.0214  -29.5925 H   0  0  0  0  0  0  0  0  0  0  0  0
   -2.0525   19.1527  -31.0843 H   0  0  0  0  0  0  0  0  0  0  0  0
   -0.5647   20.1591  -31.0843 H   0  0  0  0  0  0  0  0  0  0  0  0
   -3.4030   23.5920  -28.4740 H   0  0  0  0  0  0  0  0  0  0  0  0
   -3.3630   25.3970  -28.4290 H   0  0  0  0  0  0  0  0  0  0  0  0
   -7.0058   24.4901  -31.1858 H   0  0  0  0  0  0  0  0  0  0  0  0
   -8.7690   22.5651  -32.3320 H   0  0  0  0  0  0  0  0  0  0  0  0
   -8.9829   20.1177  -32.8799 H   0  0  0  0  0  0  0  0  0  0  0  0
   -6.7709   17.5817  -31.6436 H   0  0  0  0  0  0  0  0  0  0  0  0
   -8.0854   17.9598  -32.8657 H   0  0  0  0  0  0  0  0  0  0  0  0
   -4.9546   19.4269  -31.3679 H   0  0  0  0  0  0  0  0  0  0  0  0
  1  2  1  0
  2  3  1  0
  3  4  1  0
  4  5  1  0
  5  6  1  0
  5  7  1  0
  7  8  2  0
  7  9  1  0
  9 10  1  0
 10 11  1  0
 10 12  1  0
 12 13  2  0
 12 14  1  0
 14 15  1  0
 15 16  1  0
 16 17  1  0
 16 18  2  0
 15 19  2  0
 19 20  1  0
 20 21  2  0
 21 22  1  0
 22 23  2  0
 23 24  1  0
 24 25  1  0
 23 26  1  0
 26 27  2  0
 27 14  1  0
 27 20  1  0
  1 28  1  0
  1 29  1  0
  1 30  1  0
  3 31  1  0
  3 32  1  0
  4 33  1  0
  4 34  1  0
  6 35  1  0
  6 36  1  0
  6 37  1  0
  9 38  1  0
  9 39  1  0
 11 40  1  0
 11 41  1  0
 11 42  1  0
 17 43  1  0
 17 44  1  0
 19 45  1  0
 21 46  1  0
 22 47  1  0
 24 48  1  0
 24 49  1  0
 26 50  1  0
M  END
>  <UniqueID>  (4) 
4

>  <SMILES>  (4) 
COCCN(C)C(=O)CN(C)C(=O)n1c(C(N)=O)cc2ccc(CI)cc21

>  <Energy>  (4) 
93.82334647042968

>  <Genealogy>  (4) 
COCCN(C)C(=O)CN(C)C(=O)n1c(C(N)=O)cc2ccc(CI)cc21 (3D coordinates assigned)
COCCN(C)C(=O)CN(C)C(=O)n1c(C(N)=O)cc2ccc(CI)cc21 (optimized conformer: 93.82334647042968 kcal/mol)

>  <smiles>  (4) 
COCCN(C)C(=O)CN(C)C(=O)n1c(C(N)=O)cc2ccc(CI)cc21

>  <score_type>  (4) 
oracle

>  <origin>  (4) 
adg

>  <m_score__min__energy>  (4) 
-9.6400000000000006

>  <m_primary>  (4) 
energy

$$$$
4:0
     RDKit          3D

 41 42  0  0  0  0  0  0  0  0999 V2000
   -4.2590   24.0400  -27.6630 C   0  0  0  0  0  0  0  0  0  0  0  0
   -3.0730   23.3690  -28.2020 N   0  0  0  0  0  0  0  0  0  0  0  0
   -1.7450   23.7390  -27.6930 C   0  0  0  0  0  0  0  0  0  0  0  0
   -0.9970   24.5620  -28.6980 C   0  0  0  0  0  0  0  0  0  0  0  0
    0.1970   24.2790  -28.9780 O   0  0  0  0  0  0  0  0  0  0  0  0
   -1.5930   25.6750  -29.2790 O   0  0  0  0  0  0  0  0  0  0  0  0
   -3.2580   22.2840  -29.1390 C   0  0  0  0  0  0  0  0  0  0  0  0
   -3.1470   21.0970  -28.7290 O   0  0  0  0  0  0  0  0  0  0  0  0
   -3.5850   22.5090  -30.5650 C   0  0  0  0  0  0  0  0  0  0  0  0
   -2.6790   22.5350  -31.4380 O   0  0  0  0  0  0  0  0  0  0  0  0
   -4.9480   22.6880  -30.9720 N   0  0  0  0  0  0  0  0  0  0  0  0
   -5.7140   23.8110  -30.8810 C   0  0  0  0  0  0  0  0  0  0  0  0
   -5.2520   25.1380  -30.4200 C   0  0  0  0  0  0  0  0  0  0  0  0
   -3.9950   25.6630  -30.8340 N   0  0  0  0  0  0  0  0  0  0  0  0
   -5.9920   25.8290  -29.6690 O   0  0  0  0  0  0  0  0  0  0  0  0
   -7.0040   23.5550  -31.3430 C   0  0  0  0  0  0  0  0  0  0  0  0
   -6.9960   22.2330  -31.7310 C   0  0  0  0  0  0  0  0  0  0  0  0
   -8.0110   21.4490  -32.2670 C   0  0  0  0  0  0  0  0  0  0  0  0
   -7.7200   20.1070  -32.5650 C   0  0  0  0  0  0  0  0  0  0  0  0
   -6.4250   19.5620  -32.3250 C   0  0  0  0  0  0  0  0  0  0  0  0
   -6.1360   18.1730  -32.6330 N   0  0  0  0  0  0  0  0  0  0  0  0
   -5.8190   17.7610  -34.0060 C   0  0  0  0  0  0  0  0  0  0  0  0
   -6.1550   17.1550  -31.5740 C   0  0  0  0  0  0  0  0  0  0  0  0
   -5.4230   20.4050  -31.7770 C   0  0  0  0  0  0  0  0  0  0  0  0
   -5.7440   21.7360  -31.4990 C   0  0  0  0  0  0  0  0  0  0  0  0
   -4.2237   24.0201  -26.5637 H   0  0  0  0  0  0  0  0  0  0  0  0
   -4.2795   25.0835  -28.0103 H   0  0  0  0  0  0  0  0  0  0  0  0
   -5.1640   23.5201  -28.0103 H   0  0  0  0  0  0  0  0  0  0  0  0
   -1.8635   24.3213  -26.7673 H   0  0  0  0  0  0  0  0  0  0  0  0
   -1.1746   22.8189  -27.4979 H   0  0  0  0  0  0  0  0  0  0  0  0
   -3.1000   25.2780  -30.4560 H   0  0  0  0  0  0  0  0  0  0  0  0
   -7.8484   24.2585  -31.3882 H   0  0  0  0  0  0  0  0  0  0  0  0
   -9.0117   21.8665  -32.4523 H   0  0  0  0  0  0  0  0  0  0  0  0
   -8.5056   19.4656  -32.9911 H   0  0  0  0  0  0  0  0  0  0  0  0
   -5.1484   16.8894  -33.9817 H   0  0  0  0  0  0  0  0  0  0  0  0
   -6.7474   17.4948  -34.5325 H   0  0  0  0  0  0  0  0  0  0  0  0
   -5.3237   18.5901  -34.5325 H   0  0  0  0  0  0  0  0  0  0  0  0
   -6.1458   17.6484  -30.5909 H   0  0  0  0  0  0  0  0  0  0  0  0
   -7.0647   16.5439  -31.6691 H   0  0  0  0  0  0  0  0  0  0  0  0
   -5.2687   16.5104  -31.6691 H   0  0  0  0  0  0  0  0  0  0  0  0
   -4.4134   20.0178  -31.5751 H   0  0  0  0  0  0  0  0  0  0  0  0
  1  2  1  0
  2  3  1  0
  3  4  1  0
  4  5  2  0
  4  6  1  0
  2  7  1  0
  7  8  2  0
  7  9  1  0
  9 10  2  0
  9 11  1  0
 11 12  1  0
 12 13  1  0
 13 14  1  0
 13 15  2  0
 12 16  2  0
 16 17  1  0
 17 18  2  0
 18 19  1  0
 19 20  2  0
 20 21  1  0
 21 22  1  0
 21 23  1  0
 20 24  1  0
 24 25  2  0
 25 11  1  0
 25 17  1  0
  1 26  1  0
  1 27  1  0
  1 28  1  0
  3 29  1  0
  3 30  1  0
 14 31  1  0
 16 32  1  0
 18 33  1  0
 19 34  1  0
 22 35  1  0
 22 36  1  0
 22 37  1  0
 23 38  1  0
 23 39  1  0
 23 40  1  0
 24 41  1  0
M  CHG  2   6  -1  14  -1
M  END
>  <UniqueID>  (5) 
5

>  <SMILES>  (5) 
CN(CC(=O)[O-])C(=O)C(=O)n1c(C([NH-])=O)cc2ccc(N(C)C)cc21

>  <Energy>  (5) 
83.108696634611

>  <Genealogy>  (5) 
CN(CC(=O)[O-])C(=O)C(=O)n1c(C([NH-])=O)cc2ccc(N(C)C)cc21 (protonated)
CN(CC(=O)[O-])C(=O)C(=O)n1c(C([NH-])=O)cc2ccc(N(C)C)cc21 (3D coordinates assigned)
CN(CC(=O)[O-])C(=O)C(=O)n1c(C([NH-])=O)cc2ccc(N(C)C)cc21 (optimized conformer: 83.108696634611 kcal/mol)

>  <smiles>  (5) 
CN(CC(=O)O)C(=O)C(=O)n1c(C(N)=O)cc2ccc(N(C)C)cc21

>  <score_type>  (5) 
oracle

>  <origin>  (5) 
adg

>  <m_score__min__energy>  (5) 
-12.25

>  <m_primary>  (5) 
energy

$$$$
5:0
     RDKit          3D

 39 42  0  0  0  0  0  0  0  0999 V2000
   -4.1770   25.5130  -30.6330 N   0  0  0  0  0  0  0  0  0  0  0  0
   -5.5360   25.0980  -30.4890 C   0  0  0  0  0  0  0  0  0  0  0  0
   -6.3720   25.8970  -29.9870 O   0  0  0  0  0  0  0  0  0  0  0  0
   -5.9920   23.7710  -30.9520 C   0  0  0  0  0  0  0  0  0  0  0  0
   -7.3260   23.4660  -31.2130 C   0  0  0  0  0  0  0  0  0  0  0  0
   -7.3180   22.1740  -31.6880 C   0  0  0  0  0  0  0  0  0  0  0  0
   -8.3710   21.3600  -32.0920 C   0  0  0  0  0  0  0  0  0  0  0  0
   -8.0700   20.0520  -32.5080 C   0  0  0  0  0  0  0  0  0  0  0  0
   -6.7310   19.5840  -32.5250 C   0  0  0  0  0  0  0  0  0  0  0  0
   -6.4350   18.1600  -32.9200 C   0  0  0  0  0  0  0  0  0  0  0  0
   -5.3670   17.6590  -32.1960 F   0  0  0  0  0  0  0  0  0  0  0  0
   -6.1190   18.0860  -34.2650 F   0  0  0  0  0  0  0  0  0  0  0  0
   -7.5500   17.3800  -32.6740 F   0  0  0  0  0  0  0  0  0  0  0  0
   -5.6910   20.4370  -32.0850 C   0  0  0  0  0  0  0  0  0  0  0  0
   -6.0190   21.7380  -31.6920 C   0  0  0  0  0  0  0  0  0  0  0  0
   -5.1940   22.7040  -31.2350 N   0  0  0  0  0  0  0  0  0  0  0  0
   -3.7820   22.5800  -31.0210 C   0  0  0  0  0  0  0  0  0  0  0  0
   -3.2420   23.1500  -30.0360 O   0  0  0  0  0  0  0  0  0  0  0  0
   -2.9720   21.8360  -31.9320 N   0  0  0  0  0  0  0  0  0  0  0  0
   -3.0970   21.2640  -33.2960 C   0  0  0  0  0  0  0  0  0  0  0  0
   -1.6850   20.8200  -33.3630 C   0  0  0  0  0  0  0  0  0  0  0  0
   -0.7730   21.1960  -34.4880 C   0  0  0  0  0  0  0  0  0  0  0  0
   -0.4560   19.8350  -34.7240 O   0  0  0  0  0  0  0  0  0  0  0  0
   -1.3040   19.4050  -33.6720 C   0  0  0  0  0  0  0  0  0  0  0  0
   -1.5560   21.4000  -32.0050 C   0  0  0  0  0  0  0  0  0  0  0  0
   -3.8630   26.4230  -30.2290 H   0  0  0  0  0  0  0  0  0  0  0  0
   -3.5020   24.9690  -31.2140 H   0  0  0  0  0  0  0  0  0  0  0  0
   -8.1998   24.1187  -31.0700 H   0  0  0  0  0  0  0  0  0  0  0  0
   -9.4073   21.7288  -32.0860 H   0  0  0  0  0  0  0  0  0  0  0  0
   -8.8832   19.3823  -32.8246 H   0  0  0  0  0  0  0  0  0  0  0  0
   -4.6494   20.0848  -32.0530 H   0  0  0  0  0  0  0  0  0  0  0  0
   -3.8141   20.4317  -33.3508 H   0  0  0  0  0  0  0  0  0  0  0  0
   -3.4720   21.9170  -34.0978 H   0  0  0  0  0  0  0  0  0  0  0  0
   -1.2842   21.6858  -35.3299 H   0  0  0  0  0  0  0  0  0  0  0  0
    0.0343   21.9234  -34.3172 H   0  0  0  0  0  0  0  0  0  0  0  0
   -2.1457   18.7805  -34.0061 H   0  0  0  0  0  0  0  0  0  0  0  0
   -0.9042   18.7597  -32.8759 H   0  0  0  0  0  0  0  0  0  0  0  0
   -1.2943   20.6539  -31.2403 H   0  0  0  0  0  0  0  0  0  0  0  0
   -0.7737   22.1550  -31.8379 H   0  0  0  0  0  0  0  0  0  0  0  0
  1  2  1  0
  2  3  2  0
  2  4  1  0
  4  5  2  0
  5  6  1  0
  6  7  2  0
  7  8  1  0
  8  9  2  0
  9 10  1  0
 10 11  1  0
 10 12  1  0
 10 13  1  0
  9 14  1  0
 14 15  2  0
 15 16  1  0
 16 17  1  0
 17 18  2  0
 17 19  1  0
 19 20  1  0
 20 21  1  0
 21 22  1  0
 22 23  1  0
 23 24  1  0
 21 25  1  0
 16  4  1  0
 25 19  1  0
 15  6  1  0
 24 21  1  0
  1 26  1  0
  1 27  1  0
  5 28  1  0
  7 29  1  0
  8 30  1  0
 14 31  1  0
 20 32  1  0
 20 33  1  0
 22 34  1  0
 22 35  1  0
 24 36  1  0
 24 37  1  0
 25 38  1  0
 25 39  1  0
M  END
>  <UniqueID>  (6) 
6

>  <SMILES>  (6) 
NC(=O)c1cc2ccc(C(F)(F)F)cc2n1C(=O)N1CC2(COC2)C1

>  <Energy>  (6) 
205.76759504925874

>  <Genealogy>  (6) 
NC(=O)c1cc2ccc(C(F)(F)F)cc2n1C(=O)N1CC2(COC2)C1 (3D coordinates assigned)
NC(=O)c1cc2ccc(C(F)(F)F)cc2n1C(=O)N1CC2(COC2)C1 (nonaromatic ring conformer: 205.76759504925874 kcal/mol)

>  <smiles>  (6) 
NC(=O)c1cc2ccc(C(F)(F)F)cc2n1C(=O)N1CC2(COC2)C1

>  <score_type>  (6) 
oracle

>  <origin>  (6) 
adg

>  <m_score__min__energy>  (6) 
-8.9800000000000004

>  <m_primary>  (6) 
energy

$$$$
6:0
     RDKit          3D

 43 44  0  0  0  0  0  0  0  0999 V2000
   -6.0300   17.2750  -31.2350 C   0  0  0  0  0  0  0  0  0  0  0  0
   -5.9960   17.5270  -32.7540 C   0  0  0  0  0  0  0  0  0  0  0  0
   -4.6230   18.1140  -33.1610 C   0  0  0  0  0  0  0  0  0  0  0  0
   -6.1880   16.1660  -33.4730 C   0  0  0  0  0  0  0  0  0  0  0  0
   -7.0130   16.3040  -34.6020 O   0  0  0  0  0  0  0  0  0  0  0  0
   -7.1080   18.4280  -33.1290 N   0  0  0  0  0  0  0  0  0  0  0  0
   -7.3550   19.7400  -32.5900 C   0  0  0  0  0  0  0  0  0  0  0  0
   -8.6630   20.2860  -32.5170 C   0  0  0  0  0  0  0  0  0  0  0  0
   -8.8760   21.5780  -32.0120 C   0  0  0  0  0  0  0  0  0  0  0  0
   -7.7670   22.3070  -31.5960 C   0  0  0  0  0  0  0  0  0  0  0  0
   -7.6810   23.5880  -31.0970 C   0  0  0  0  0  0  0  0  0  0  0  0
   -6.3210   23.8100  -30.8800 C   0  0  0  0  0  0  0  0  0  0  0  0
   -5.7750   25.0590  -30.3040 C   0  0  0  0  0  0  0  0  0  0  0  0
   -4.5960   25.6590  -30.8330 N   0  0  0  0  0  0  0  0  0  0  0  0
   -6.3450   25.5910  -29.3140 O   0  0  0  0  0  0  0  0  0  0  0  0
   -5.5990   22.7080  -31.2280 N   0  0  0  0  0  0  0  0  0  0  0  0
   -4.1730   22.5540  -31.2110 C   0  0  0  0  0  0  0  0  0  0  0  0
   -3.5330   22.5990  -32.2970 O   0  0  0  0  0  0  0  0  0  0  0  0
   -3.4410   22.4620  -29.9020 C   0  0  0  0  0  0  0  0  0  0  0  0
   -2.3260   23.4620  -29.8130 C   0  0  0  0  0  0  0  0  0  0  0  0
   -1.1440   23.1000  -30.0610 O   0  0  0  0  0  0  0  0  0  0  0  0
   -2.5900   24.8100  -29.4160 N   0  0  0  0  0  0  0  0  0  0  0  0
   -1.5750   25.6970  -29.2850 O   0  0  0  0  0  0  0  0  0  0  0  0
   -6.4960   21.8000  -31.6660 C   0  0  0  0  0  0  0  0  0  0  0  0
   -6.2540   20.5220  -32.1790 C   0  0  0  0  0  0  0  0  0  0  0  0
   -5.9013   18.2287  -30.7021 H   0  0  0  0  0  0  0  0  0  0  0  0
   -6.9966   16.8283  -30.9590 H   0  0  0  0  0  0  0  0  0  0  0  0
   -5.2164   16.5881  -30.9590 H   0  0  0  0  0  0  0  0  0  0  0  0
   -4.0470   18.3603  -32.2568 H   0  0  0  0  0  0  0  0  0  0  0  0
   -4.0700   17.3736  -33.7577 H   0  0  0  0  0  0  0  0  0  0  0  0
   -4.7762   19.0253  -33.7577 H   0  0  0  0  0  0  0  0  0  0  0  0
   -5.2059   15.7850  -33.7897 H   0  0  0  0  0  0  0  0  0  0  0  0
   -6.6665   15.4649  -32.7734 H   0  0  0  0  0  0  0  0  0  0  0  0
   -7.1520   15.3950  -34.9740 H   0  0  0  0  0  0  0  0  0  0  0  0
   -7.6440   18.1910  -33.9970 H   0  0  0  0  0  0  0  0  0  0  0  0
   -9.5206   19.6890  -32.8606 H   0  0  0  0  0  0  0  0  0  0  0  0
   -9.8893   22.0012  -31.9472 H   0  0  0  0  0  0  0  0  0  0  0  0
   -8.5090   24.2875  -30.9094 H   0  0  0  0  0  0  0  0  0  0  0  0
   -3.8650   26.0540  -30.2010 H   0  0  0  0  0  0  0  0  0  0  0  0
   -4.1517   22.6480  -29.0833 H   0  0  0  0  0  0  0  0  0  0  0  0
   -3.0033   21.4557  -29.8262 H   0  0  0  0  0  0  0  0  0  0  0  0
   -3.5670   25.1220  -29.2170 H   0  0  0  0  0  0  0  0  0  0  0  0
   -5.2278   20.1343  -32.2606 H   0  0  0  0  0  0  0  0  0  0  0  0
  1  2  1  0
  2  3  1  0
  2  4  1  0
  4  5  1  0
  2  6  1  0
  6  7  1  0
  7  8  2  0
  8  9  1  0
  9 10  2  0
 10 11  1  0
 11 12  2  0
 12 13  1  0
 13 14  1  0
 13 15  2  0
 12 16  1  0
 16 17  1  0
 17 18  2  0
 17 19  1  0
 19 20  1  0
 20 21  2  0
 20 22  1  0
 22 23  1  0
 16 24  1  0
 24 25  2  0
 25  7  1  0
 24 10  1  0
  1 26  1  0
  1 27  1  0
  1 28  1  0
  3 29  1  0
  3 30  1  0
  3 31  1  0
  4 32  1  0
  4 33  1  0
  5 34  1  0
  6 35  1  0
  8 36  1  0
  9 37  1  0
 11 38  1  0
 14 39  1  0
 19 40  1  0
 19 41  1  0
 22 42  1  0
 25 43  1  0
M  CHG  2  14  -1  23  -1
M  END
>  <UniqueID>  (7) 
7

>  <SMILES>  (7) 
CC(C)(CO)Nc1ccc2cc(C([NH-])=O)n(C(=O)CC(=O)N[O-])c2c1

>  <Energy>  (7) 
83.67148416078865

>  <Genealogy>  (7) 
CC(C)(CO)Nc1ccc2cc(C([NH-])=O)n(C(=O)CC(=O)N[O-])c2c1 (protonated)
CC(C)(CO)Nc1ccc2cc(C([NH-])=O)n(C(=O)CC(=O)N[O-])c2c1 (3D coordinates assigned)
CC(C)(CO)Nc1ccc2cc(C([NH-])=O)n(C(=O)CC(=O)N[O-])c2c1 (optimized conformer: 83.67148416078865 kcal/mol)

>  <smiles>  (7) 
CC(C)(CO)Nc1ccc2cc(C(N)=O)n(C(=O)CC(=O)NO)c2c1

>  <score_type>  (7) 
oracle

>  <origin>  (7) 
adg

>  <m_score__min__energy>  (7) 
-13.890000000000001

>  <m_primary>  (7) 
energy

$$$$
7:0
     RDKit          3D

 36 37  0  0  0  0  0  0  0  0999 V2000
   -6.2720   17.6890  -31.2980 C   0  0  0  0  0  0  0  0  0  0  0  0
   -7.1840   18.3720  -32.3130 C   0  0  0  0  0  0  0  0  0  0  0  0
   -6.6760   18.1690  -33.5870 F   0  0  0  0  0  0  0  0  0  0  0  0
   -8.4390   17.7890  -32.2600 F   0  0  0  0  0  0  0  0  0  0  0  0
   -7.2830   19.8520  -32.0170 C   0  0  0  0  0  0  0  0  0  0  0  0
   -8.5120   20.5370  -32.2010 C   0  0  0  0  0  0  0  0  0  0  0  0
   -8.6070   21.9170  -31.9650 C   0  0  0  0  0  0  0  0  0  0  0  0
   -7.4610   22.5890  -31.5510 C   0  0  0  0  0  0  0  0  0  0  0  0
   -7.2730   23.9240  -31.2860 C   0  0  0  0  0  0  0  0  0  0  0  0
   -5.9310   24.0430  -30.9400 C   0  0  0  0  0  0  0  0  0  0  0  0
   -5.3360   25.3110  -30.4830 C   0  0  0  0  0  0  0  0  0  0  0  0
   -4.0110   25.6660  -30.8590 N   0  0  0  0  0  0  0  0  0  0  0  0
   -5.9780   26.0510  -29.6920 O   0  0  0  0  0  0  0  0  0  0  0  0
   -5.3030   22.8320  -30.9950 N   0  0  0  0  0  0  0  0  0  0  0  0
   -3.8960   22.5470  -30.8710 C   0  0  0  0  0  0  0  0  0  0  0  0
   -3.0720   23.0900  -31.6550 O   0  0  0  0  0  0  0  0  0  0  0  0
   -3.2660   21.5570  -29.5060 S   0  0  0  0  0  0  0  0  0  0  0  0
   -1.6520   22.4090  -29.3750 C   0  0  0  0  0  0  0  0  0  0  0  0
   -1.6910   23.4190  -28.2290 C   0  0  0  0  0  0  0  0  0  0  0  0
   -0.9610   24.6700  -28.6050 C   0  0  0  0  0  0  0  0  0  0  0  0
    0.2260   24.8480  -28.2250 O   0  0  0  0  0  0  0  0  0  0  0  0
   -1.6080   25.6600  -29.3310 O   0  0  0  0  0  0  0  0  0  0  0  0
   -6.2610   21.9510  -31.3710 C   0  0  0  0  0  0  0  0  0  0  0  0
   -6.1340   20.5790  -31.6250 C   0  0  0  0  0  0  0  0  0  0  0  0
   -6.6050   17.9384  -30.2797 H   0  0  0  0  0  0  0  0  0  0  0  0
   -6.3152   16.5992  -31.4413 H   0  0  0  0  0  0  0  0  0  0  0  0
   -5.2384   18.0370  -31.4413 H   0  0  0  0  0  0  0  0  0  0  0  0
   -9.4006   19.9798  -32.5325 H   0  0  0  0  0  0  0  0  0  0  0  0
   -9.5585   22.4513  -32.1031 H   0  0  0  0  0  0  0  0  0  0  0  0
   -8.0232   24.7269  -31.3366 H   0  0  0  0  0  0  0  0  0  0  0  0
   -3.2080   25.0290  -30.6550 H   0  0  0  0  0  0  0  0  0  0  0  0
   -0.8625   21.6678  -29.1818 H   0  0  0  0  0  0  0  0  0  0  0  0
   -1.4426   22.9368  -30.3171 H   0  0  0  0  0  0  0  0  0  0  0  0
   -2.7382   23.6663  -28.0004 H   0  0  0  0  0  0  0  0  0  0  0  0
   -1.2040   22.9752  -27.3482 H   0  0  0  0  0  0  0  0  0  0  0  0
   -5.1607   20.0770  -31.5218 H   0  0  0  0  0  0  0  0  0  0  0  0
  1  2  1  0
  2  3  1  0
  2  4  1  0
  2  5  1  0
  5  6  2  0
  6  7  1  0
  7  8  2  0
  8  9  1  0
  9 10  2  0
 10 11  1  0
 11 12  1  0
 11 13  2  0
 10 14  1  0
 14 15  1  0
 15 16  2  0
 15 17  1  0
 17 18  1  0
 18 19  1  0
 19 20  1  0
 20 21  2  0
 20 22  1  0
 14 23  1  0
 23 24  2  0
 24  5  1  0
 23  8  1  0
  1 25  1  0
  1 26  1  0
  1 27  1  0
  6 28  1  0
  7 29  1  0
  9 30  1  0
 12 31  1  0
 18 32  1  0
 18 33  1  0
 19 34  1  0
 19 35  1  0
 24 36  1  0
M  CHG  2  12  -1  22  -1
M  END
>  <UniqueID>  (8) 
8

>  <SMILES>  (8) 
CC(F)(F)c1ccc2cc(C([NH-])=O)n(C(=O)SCCC(=O)[O-])c2c1

>  <Energy>  (8) 
73.175721568672

>  <Genealogy>  (8) 
CC(F)(F)c1ccc2cc(C([NH-])=O)n(C(=O)SCCC(=O)[O-])c2c1 (protonated)
CC(F)(F)c1ccc2cc(C([NH-])=O)n(C(=O)SCCC(=O)[O-])c2c1 (3D coordinates assigned)
CC(F)(F)c1ccc2cc(C([NH-])=O)n(C(=O)SCCC(=O)[O-])c2c1 (optimized conformer: 73.175721568672 kcal/mol)

>  <smiles>  (8) 
CC(F)(F)c1ccc2cc(C(N)=O)n(C(=O)SCCC(=O)O)c2c1

>  <score_type>  (8) 
oracle

>  <origin>  (8) 
adg

>  <m_score__min__energy>  (8) 
-12.789999999999999

>  <m_primary>  (8) 
energy

$$$$
8:0
     RDKit          3D

 42 43  0  0  0  0  0  0  0  0999 V2000
   -0.0510   21.7240  -27.7270 C   0  0  0  0  0  0  0  0  0  0  0  0
   -1.2830   22.4040  -28.1310 N   0  0  0  0  0  0  0  0  0  0  0  0
   -1.5860   23.7110  -27.5320 C   0  0  0  0  0  0  0  0  0  0  0  0
   -1.2790   24.8110  -28.4960 C   0  0  0  0  0  0  0  0  0  0  0  0
   -0.1290   25.3180  -28.5290 O   0  0  0  0  0  0  0  0  0  0  0  0
   -2.2730   25.2980  -29.3350 O   0  0  0  0  0  0  0  0  0  0  0  0
   -2.0900   21.9030  -29.2190 C   0  0  0  0  0  0  0  0  0  0  0  0
   -1.6600   20.9500  -29.9250 O   0  0  0  0  0  0  0  0  0  0  0  0
   -3.3900   22.4540  -29.5030 N   0  0  0  0  0  0  0  0  0  0  0  0
   -4.3220   22.6760  -28.3960 C   0  0  0  0  0  0  0  0  0  0  0  0
   -3.8600   22.5920  -30.8600 C   0  0  0  0  0  0  0  0  0  0  0  0
   -3.0300   22.6330  -31.8090 O   0  0  0  0  0  0  0  0  0  0  0  0
   -5.2620   22.7280  -31.1500 N   0  0  0  0  0  0  0  0  0  0  0  0
   -6.0440   23.8340  -30.9940 C   0  0  0  0  0  0  0  0  0  0  0  0
   -5.5660   25.1740  -30.5720 C   0  0  0  0  0  0  0  0  0  0  0  0
   -4.1940   25.5470  -30.7230 N   0  0  0  0  0  0  0  0  0  0  0  0
   -6.3670   26.0020  -30.0650 O   0  0  0  0  0  0  0  0  0  0  0  0
   -7.3700   23.5360  -31.3160 C   0  0  0  0  0  0  0  0  0  0  0  0
   -7.3750   22.2010  -31.6480 C   0  0  0  0  0  0  0  0  0  0  0  0
   -8.4290   21.3790  -32.0350 C   0  0  0  0  0  0  0  0  0  0  0  0
   -8.1510   20.0250  -32.2870 C   0  0  0  0  0  0  0  0  0  0  0  0
   -6.8380   19.5110  -32.1180 C   0  0  0  0  0  0  0  0  0  0  0  0
   -6.5370   18.0670  -32.4250 C   0  0  0  0  0  0  0  0  0  0  0  0
   -6.2680   17.3620  -31.2640 F   0  0  0  0  0  0  0  0  0  0  0  0
   -7.6290   17.4980  -33.0530 F   0  0  0  0  0  0  0  0  0  0  0  0
   -5.4350   17.9670  -33.2560 F   0  0  0  0  0  0  0  0  0  0  0  0
   -5.7920   20.3850  -31.7410 C   0  0  0  0  0  0  0  0  0  0  0  0
   -6.0950   21.7340  -31.5300 C   0  0  0  0  0  0  0  0  0  0  0  0
    0.0070   21.6920  -26.6290 H   0  0  0  0  0  0  0  0  0  0  0  0
   -0.0512   20.6982  -28.1242 H   0  0  0  0  0  0  0  0  0  0  0  0
    0.8168   22.2709  -28.1242 H   0  0  0  0  0  0  0  0  0  0  0  0
   -2.6528   23.7492  -27.2666 H   0  0  0  0  0  0  0  0  0  0  0  0
   -0.9670   23.8427  -26.6323 H   0  0  0  0  0  0  0  0  0  0  0  0
   -3.7926   22.5499  -27.4401 H   0  0  0  0  0  0  0  0  0  0  0  0
   -4.7287   23.6962  -28.4581 H   0  0  0  0  0  0  0  0  0  0  0  0
   -5.1450   21.9488  -28.4581 H   0  0  0  0  0  0  0  0  0  0  0  0
   -3.8680   26.4810  -30.3880 H   0  0  0  0  0  0  0  0  0  0  0  0
   -3.5040   24.9290  -31.2030 H   0  0  0  0  0  0  0  0  0  0  0  0
   -8.2287   24.2234  -31.3062 H   0  0  0  0  0  0  0  0  0  0  0  0
   -9.4490   21.7772  -32.1404 H   0  0  0  0  0  0  0  0  0  0  0  0
   -8.9588   19.3561  -32.6187 H   0  0  0  0  0  0  0  0  0  0  0  0
   -4.7644   20.0126  -31.6167 H   0  0  0  0  0  0  0  0  0  0  0  0
  1  2  1  0
  2  3  1  0
  3  4  1  0
  4  5  2  0
  4  6  1  0
  2  7  1  0
  7  8  2  0
  7  9  1  0
  9 10  1  0
  9 11  1  0
 11 12  2  0
 11 13  1  0
 13 14  1  0
 14 15  1  0
 15 16  1  0
 15 17  2  0
 14 18  2  0
 18 19  1  0
 19 20  2  0
 20 21  1  0
 21 22  2  0
 22 23  1  0
 23 24  1  0
 23 25  1  0
 23 26  1  0
 22 27  1  0
 27 28  2  0
 28 13  1  0
 28 19  1  0
  1 29  1  0
  1 30  1  0
  1 31  1  0
  3 32  1  0
  3 33  1  0
 10 34  1  0
 10 35  1  0
 10 36  1  0
 16 37  1  0
 16 38  1  0
 18 39  1  0
 20 40  1  0
 21 41  1  0
 27 42  1  0
M  CHG  1   6  -1
M  END
>  <UniqueID>  (9) 
9

>  <SMILES>  (9) 
CN(CC(=O)[O-])C(=O)N(C)C(=O)n1c(C(N)=O)cc2ccc(C(F)(F)F)cc21

>  <Energy>  (9) 
80.68144132881547

>  <Genealogy>  (9) 
CN(CC(=O)[O-])C(=O)N(C)C(=O)n1c(C(N)=O)cc2ccc(C(F)(F)F)cc21 (protonated)
CN(CC(=O)[O-])C(=O)N(C)C(=O)n1c(C(N)=O)cc2ccc(C(F)(F)F)cc21 (3D coordinates assigned)
CN(CC(=O)[O-])C(=O)N(C)C(=O)n1c(C(N)=O)cc2ccc(C(F)(F)F)cc21 (optimized conformer: 80.68144132881547 kcal/mol)

>  <smiles>  (9) 
CN(CC(=O)O)C(=O)N(C)C(=O)n1c(C(N)=O)cc2ccc(C(F)(F)F)cc21

>  <score_type>  (9) 
oracle

>  <origin>  (9) 
adg

>  <m_score__min__energy>  (9) 
-11.289999999999999

>  <m_primary>  (9) 
energy

$$$$
9:0
     RDKit          3D

 41 42  0  0  0  0  0  0  0  0999 V2000
   -0.1110   21.0630  -28.9680 C   0  0  0  0  0  0  0  0  0  0  0  0
   -0.4110   22.3240  -29.7960 C   0  0  1  0  0  0  0  0  0  0  0  0
   -0.8410   21.9500  -31.0800 O   0  0  0  0  0  0  0  0  0  0  0  0
   -1.4770   23.2420  -29.1490 C   0  0  2  0  0  0  0  0  0  0  0  0
   -2.7110   23.2700  -29.9450 N   0  0  0  0  0  0  0  0  0  0  0  0
   -3.5610   22.1220  -30.0860 C   0  0  0  0  0  0  0  0  0  0  0  0
   -3.2250   21.0180  -29.5770 O   0  0  0  0  0  0  0  0  0  0  0  0
   -4.8020   22.2300  -30.7980 N   0  0  0  0  0  0  0  0  0  0  0  0
   -5.5490   23.3510  -31.0120 C   0  0  0  0  0  0  0  0  0  0  0  0
   -5.3020   24.6830  -30.4230 C   0  0  0  0  0  0  0  0  0  0  0  0
   -4.0560   25.3490  -30.6050 N   0  0  0  0  0  0  0  0  0  0  0  0
   -6.1920   25.2260  -29.7130 O   0  0  0  0  0  0  0  0  0  0  0  0
   -6.6440   23.0580  -31.8230 C   0  0  0  0  0  0  0  0  0  0  0  0
   -6.5470   21.7130  -32.0970 C   0  0  0  0  0  0  0  0  0  0  0  0
   -7.3670   20.8940  -32.8720 C   0  0  0  0  0  0  0  0  0  0  0  0
   -7.0060   19.5420  -33.0070 C   0  0  0  0  0  0  0  0  0  0  0  0
   -5.8410   19.0460  -32.3790 C   0  0  0  0  0  0  0  0  0  0  0  0
   -5.4750   17.6630  -32.5330 C   0  0  0  0  0  0  0  0  0  0  0  0
   -5.1680   16.5040  -32.6620 C   0  0  0  0  0  0  0  0  0  0  0  0
   -4.7950   15.0950  -32.8220 C   0  0  0  0  0  0  0  0  0  0  0  0
   -4.9570   14.4170  -31.6070 O   0  0  0  0  0  0  0  0  0  0  0  0
   -5.0310   19.9010  -31.6050 C   0  0  0  0  0  0  0  0  0  0  0  0
   -5.4250   21.2370  -31.4700 C   0  0  0  0  0  0  0  0  0  0  0  0
   -0.9540   24.6390  -28.9340 C   0  0  0  0  0  0  0  0  0  0  0  0
   -1.6130   25.6280  -29.3460 O   0  0  0  0  0  0  0  0  0  0  0  0
    0.2340   24.8480  -28.2420 O   0  0  0  0  0  0  0  0  0  0  0  0
   -0.1687   21.3055  -27.8966 H   0  0  0  0  0  0  0  0  0  0  0  0
   -0.8486   20.2829  -29.2076 H   0  0  0  0  0  0  0  0  0  0  0  0
    0.8989   20.6987  -29.2076 H   0  0  0  0  0  0  0  0  0  0  0  0
    0.5242   22.9010  -29.8453 H   0  0  0  0  0  0  0  0  0  0  0  0
   -1.5970   21.3160  -30.9590 H   0  0  0  0  0  0  0  0  0  0  0  0
   -1.7127   22.8157  -28.1627 H   0  0  0  0  0  0  0  0  0  0  0  0
   -2.9510   24.1180  -30.5060 H   0  0  0  0  0  0  0  0  0  0  0  0
   -3.4960   25.6750  -29.7870 H   0  0  0  0  0  0  0  0  0  0  0  0
   -7.4212   23.7545  -32.1705 H   0  0  0  0  0  0  0  0  0  0  0  0
   -8.2674   21.2928  -33.3621 H   0  0  0  0  0  0  0  0  0  0  0  0
   -7.6343   18.8658  -33.6053 H   0  0  0  0  0  0  0  0  0  0  0  0
   -5.4371   14.6324  -33.5860 H   0  0  0  0  0  0  0  0  0  0  0  0
   -3.7418   15.0327  -33.1333 H   0  0  0  0  0  0  0  0  0  0  0  0
   -4.8070   13.4540  -31.7950 H   0  0  0  0  0  0  0  0  0  0  0  0
   -4.1158   19.5291  -31.1211 H   0  0  0  0  0  0  0  0  0  0  0  0
  1  2  1  0
  2  3  1  0
  2  4  1  0
  4  5  1  0
  5  6  1  0
  6  7  2  0
  6  8  1  0
  8  9  1  0
  9 10  1  0
 10 11  1  0
 10 12  2  0
  9 13  2  0
 13 14  1  0
 14 15  2  0
 15 16  1  0
 16 17  2  0
 17 18  1  0
 18 19  3  0
 19 20  1  0
 20 21  1  0
 17 22  1  0
 22 23  2  0
  4 24  1  0
 24 25  2  0
 24 26  1  0
 23  8  1  0
 23 14  1  0
  1 27  1  0
  1 28  1  0
  1 29  1  0
  2 30  1  6
  3 31  1  0
  4 32  1  1
  5 33  1  0
 11 34  1  0
 13 35  1  0
 15 36  1  0
 16 37  1  0
 20 38  1  0
 20 39  1  0
 21 40  1  0
 22 41  1  0
M  CHG  2  11  -1  26  -1
M  END
>  <UniqueID>  (10) 
10

>  <SMILES>  (10) 
C[C@@H](O)[C@H](NC(=O)n1c(C([NH-])=O)cc2ccc(C#CCO)cc21)C(=O)[O-]

>  <Energy>  (10) 
71.93115436229604

>  <Genealogy>  (10) 
CC(O)[C@H](NC(=O)n1c(C([NH-])=O)cc2ccc(C#CCO)cc21)C(=O)[O-] (protonated)
C[C@@H](O)[C@H](NC(=O)n1c(C([NH-])=O)cc2ccc(C#CCO)cc21)C(=O)[O-] (chirality)
C[C@@H](O)[C@H](NC(=O)n1c(C([NH-])=O)cc2ccc(C#CCO)cc21)C(=O)[O-] (3D coordinates assigned)
C[C@@H](O)[C@H](NC(=O)n1c(C([NH-])=O)cc2ccc(C#CCO)cc21)C(=O)[O-] (optimized conformer: 71.93115436229604 kcal/mol)

>  <smiles>  (10) 
CC(O)[C@H](NC(=O)n1c(C(N)=O)cc2ccc(C#CCO)cc21)C(=O)O

>  <score_type>  (10) 
oracle

>  <origin>  (10) 
adg

>  <m_score__min__energy>  (10) 
-11.630000000000001

>  <m_primary>  (10) 
energy

$$$$
10:0
     RDKit          3D

 33 34  0  0  0  0  0  0  0  0999 V2000
   -3.5650   25.0510  -30.1570 N   0  0  0  0  0  0  0  0  0  0  0  0
   -4.9100   25.2350  -30.5920 C   0  0  0  0  0  0  0  0  0  0  0  0
   -5.3650   26.4050  -30.7020 O   0  0  0  0  0  0  0  0  0  0  0  0
   -5.7620   24.0810  -30.9490 C   0  0  0  0  0  0  0  0  0  0  0  0
   -7.1200   24.0020  -30.6450 C   0  0  0  0  0  0  0  0  0  0  0  0
   -7.5510   22.8170  -31.1960 C   0  0  0  0  0  0  0  0  0  0  0  0
   -8.8150   22.2360  -31.1950 C   0  0  0  0  0  0  0  0  0  0  0  0
   -8.9680   20.9930  -31.8320 C   0  0  0  0  0  0  0  0  0  0  0  0
   -7.8580   20.3460  -32.4360 C   0  0  0  0  0  0  0  0  0  0  0  0
   -8.0310   19.0790  -33.1060 N   0  0  0  0  0  0  0  0  0  0  0  0
   -7.6550   17.9570  -32.2320 C   0  0  0  0  0  0  0  0  0  0  0  0
   -6.2700   17.4590  -32.5290 C   0  0  0  0  0  0  0  0  0  0  0  0
   -5.7380   16.5960  -31.7810 O   0  0  0  0  0  0  0  0  0  0  0  0
   -5.5440   17.9960  -33.6370 N   0  0  0  0  0  0  0  0  0  0  0  0
   -6.1040   18.2020  -34.7320 O   0  0  0  0  0  0  0  0  0  0  0  0
   -6.5910   20.9720  -32.4150 C   0  0  0  0  0  0  0  0  0  0  0  0
   -6.4750   22.2200  -31.7980 C   0  0  0  0  0  0  0  0  0  0  0  0
   -5.3700   22.9850  -31.6590 N   0  0  0  0  0  0  0  0  0  0  0  0
   -4.0490   22.6690  -32.1250 C   0  0  0  0  0  0  0  0  0  0  0  0
   -3.0450   23.0690  -31.4760 O   0  0  0  0  0  0  0  0  0  0  0  0
   -3.8500   21.9130  -33.4020 C   0  0  0  0  0  0  0  0  0  0  0  0
   -3.2360   20.2750  -33.0680 Cl  0  0  0  0  0  0  0  0  0  0  0  0
   -2.7640   25.1960  -30.8110 H   0  0  0  0  0  0  0  0  0  0  0  0
   -7.7204   24.7327  -30.0832 H   0  0  0  0  0  0  0  0  0  0  0  0
   -9.6679   22.7341  -30.7107 H   0  0  0  0  0  0  0  0  0  0  0  0
   -9.9587   20.5160  -31.8630 H   0  0  0  0  0  0  0  0  0  0  0  0
   -7.4260   19.0570  -33.9600 H   0  0  0  0  0  0  0  0  0  0  0  0
   -9.0210   18.9680  -33.4300 H   0  0  0  0  0  0  0  0  0  0  0  0
   -7.6961   18.2919  -31.1850 H   0  0  0  0  0  0  0  0  0  0  0  0
   -8.3607   17.1325  -32.4112 H   0  0  0  0  0  0  0  0  0  0  0  0
   -5.7164   20.4877  -32.8739 H   0  0  0  0  0  0  0  0  0  0  0  0
   -4.8110   21.8383  -33.9319 H   0  0  0  0  0  0  0  0  0  0  0  0
   -3.1158   22.4486  -34.0218 H   0  0  0  0  0  0  0  0  0  0  0  0
  1  2  1  0
  2  3  2  0
  2  4  1  0
  4  5  2  0
  5  6  1  0
  6  7  2  0
  7  8  1  0
  8  9  2  0
  9 10  1  0
 10 11  1  0
 11 12  1  0
 12 13  2  0
 12 14  1  0
 14 15  2  0
  9 16  1  0
 16 17  2  0
 17 18  1  0
 18 19  1  0
 19 20  2  0
 19 21  1  0
 21 22  1  0
 18  4  1  0
 17  6  1  0
  1 23  1  0
  5 24  1  0
  7 25  1  0
  8 26  1  0
 10 27  1  0
 10 28  1  0
 11 29  1  0
 11 30  1  0
 16 31  1  0
 21 32  1  0
 21 33  1  0
M  CHG  2   1  -1  10   1
M  END
>  <UniqueID>  (11) 
11

>  <SMILES>  (11) 
[NH-]C(=O)c1cc2ccc([NH2+]CC(=O)N=O)cc2n1C(=O)CCl

>  <Energy>  (11) 
71.28030233545765

>  <Genealogy>  (11) 
[NH-]C(=O)c1cc2ccc([NH2+]CC(=O)N=O)cc2n1C(=O)CCl (protonated)
[NH-]C(=O)c1cc2ccc([NH2+]CC(=O)N=O)cc2n1C(=O)CCl (3D coordinates assigned)
[NH-]C(=O)c1cc2ccc([NH2+]CC(=O)N=O)cc2n1C(=O)CCl (optimized conformer: 71.28030233545765 kcal/mol)

>  <smiles>  (11) 
NC(=O)c1cc2ccc(NCC(=O)N=O)cc2n1C(=O)CCl

>  <score_type>  (11) 
oracle

>  <origin>  (11) 
adg

>  <m_score__min__energy>  (11) 
-10.119999999999999

>  <m_primary>  (11) 
energy

$$$$
11:0
     RDKit          3D

 45 46  0  0  0  0  0  0  0  0999 V2000
   -7.2000   17.2380  -32.9840 C   0  0  0  0  0  0  0  0  0  0  0  0
   -7.2630   18.4010  -32.6740 C   0  0  0  0  0  0  0  0  0  0  0  0
   -7.3380   19.7890  -32.3040 C   0  0  0  0  0  0  0  0  0  0  0  0
   -8.5900   20.4420  -32.2740 C   0  0  0  0  0  0  0  0  0  0  0  0
   -8.6750   21.8010  -31.9260 C   0  0  0  0  0  0  0  0  0  0  0  0
   -7.4960   22.4680  -31.6060 C   0  0  0  0  0  0  0  0  0  0  0  0
   -7.2900   23.7820  -31.2590 C   0  0  0  0  0  0  0  0  0  0  0  0
   -5.9170   23.9000  -31.0560 C   0  0  0  0  0  0  0  0  0  0  0  0
   -5.2690   25.1450  -30.5910 C   0  0  0  0  0  0  0  0  0  0  0  0
   -3.8550   25.3020  -30.6600 N   0  0  0  0  0  0  0  0  0  0  0  0
   -5.9680   26.0610  -30.0790 O   0  0  0  0  0  0  0  0  0  0  0  0
   -5.2950   22.7080  -31.2770 N   0  0  0  0  0  0  0  0  0  0  0  0
   -3.8820   22.4460  -31.2760 C   0  0  0  0  0  0  0  0  0  0  0  0
   -3.2010   22.6750  -32.3130 O   0  0  0  0  0  0  0  0  0  0  0  0
   -3.2750   21.9520  -30.1140 O   0  0  0  0  0  0  0  0  0  0  0  0
   -2.1140   22.4700  -29.5210 C   0  0  0  0  0  0  0  0  0  0  0  0
   -1.7710   23.6690  -29.7210 O   0  0  0  0  0  0  0  0  0  0  0  0
   -1.3060   21.6230  -28.6820 N   0  0  0  0  0  0  0  0  0  0  0  0
   -1.5580   21.5780  -27.2410 C   0  0  0  0  0  0  0  0  0  0  0  0
   -0.2020   20.8480  -29.2640 C   0  0  0  0  0  0  0  0  0  0  0  0
   -0.5680   20.3610  -30.6710 C   0  0  0  0  0  0  0  0  0  0  0  0
   -0.5890   21.4890  -31.6130 N   0  0  0  0  0  0  0  0  0  0  0  0
   -0.7700   21.0550  -33.0110 C   0  0  0  0  0  0  0  0  0  0  0  0
   -1.9300   20.0690  -33.0860 C   0  0  0  0  0  0  0  0  0  0  0  0
   -6.2770   21.8410  -31.6120 C   0  0  0  0  0  0  0  0  0  0  0  0
   -6.1610   20.4930  -31.9740 C   0  0  0  0  0  0  0  0  0  0  0  0
   -7.1425   16.1766  -33.2669 H   0  0  0  0  0  0  0  0  0  0  0  0
   -9.5040   19.8836  -32.5245 H   0  0  0  0  0  0  0  0  0  0  0  0
   -9.6438   22.3217  -31.9071 H   0  0  0  0  0  0  0  0  0  0  0  0
   -8.0486   24.5727  -31.1622 H   0  0  0  0  0  0  0  0  0  0  0  0
   -3.2500   24.5470  -31.0520 H   0  0  0  0  0  0  0  0  0  0  0  0
   -0.6159   21.7462  -26.6986 H   0  0  0  0  0  0  0  0  0  0  0  0
   -2.2816   22.3611  -26.9707 H   0  0  0  0  0  0  0  0  0  0  0  0
   -1.9658   20.5928  -26.9707 H   0  0  0  0  0  0  0  0  0  0  0  0
    0.6940   21.4833  -29.3230 H   0  0  0  0  0  0  0  0  0  0  0  0
   -0.0070   19.9737  -28.6255 H   0  0  0  0  0  0  0  0  0  0  0  0
    0.1769   19.6236  -31.0047 H   0  0  0  0  0  0  0  0  0  0  0  0
   -1.5670   19.9015  -30.6415 H   0  0  0  0  0  0  0  0  0  0  0  0
   -1.3930   22.1140  -31.3550 H   0  0  0  0  0  0  0  0  0  0  0  0
   -0.9894   21.9291  -33.6417 H   0  0  0  0  0  0  0  0  0  0  0  0
    0.1501   20.5695  -33.3683 H   0  0  0  0  0  0  0  0  0  0  0  0
   -2.2479   19.7988  -32.0682 H   0  0  0  0  0  0  0  0  0  0  0  0
   -2.7713   20.5327  -33.6220 H   0  0  0  0  0  0  0  0  0  0  0  0
   -1.6079   19.1640  -33.6220 H   0  0  0  0  0  0  0  0  0  0  0  0
   -5.1795   19.9971  -32.0002 H   0  0  0  0  0  0  0  0  0  0  0  0
  1  2  3  0
  2  3  1  0
  3  4  2  0
  4  5  1  0
  5  6  2  0
  6  7  1  0
  7  8  2  0
  8  9  1  0
  9 10  1  0
  9 11  2  0
  8 12  1  0
 12 13  1  0
 13 14  2  0
 13 15  1  0
 15 16  1  0
 16 17  2  0
 16 18  1  0
 18 19  1  0
 18 20  1  0
 20 21  1  0
 21 22  1  0
 22 23  1  0
 23 24  1  0
 12 25  1  0
 25 26  2  0
 26  3  1  0
 25  6  1  0
  1 27  1  0
  4 28  1  0
  5 29  1  0
  7 30  1  0
 10 31  1  0
 19 32  1  0
 19 33  1  0
 19 34  1  0
 20 35  1  0
 20 36  1  0
 21 37  1  0
 21 38  1  0
 22 39  1  0
 23 40  1  0
 23 41  1  0
 24 42  1  0
 24 43  1  0
 24 44  1  0
 26 45  1  0
M  CHG  1  10  -1
M  END
>  <UniqueID>  (12) 
12

>  <SMILES>  (12) 
C#Cc1ccc2cc(C([NH-])=O)n(C(=O)OC(=O)N(C)CCNCC)c2c1

>  <Energy>  (12) 
76.05240731400295

>  <Genealogy>  (12) 
C#Cc1ccc2cc(C([NH-])=O)n(C(=O)OC(=O)N(C)CCNCC)c2c1 (protonated)
C#Cc1ccc2cc(C([NH-])=O)n(C(=O)OC(=O)N(C)CCNCC)c2c1 (3D coordinates assigned)
C#Cc1ccc2cc(C([NH-])=O)n(C(=O)OC(=O)N(C)CCNCC)c2c1 (optimized conformer: 76.05240731400295 kcal/mol)

>  <smiles>  (12) 
C#Cc1ccc2cc(C(N)=O)n(C(=O)OC(=O)N(C)CCNCC)c2c1

>  <score_type>  (12) 
oracle

>  <origin>  (12) 
adg

>  <m_score__min__energy>  (12) 
-10.529999999999999

>  <m_primary>  (12) 
energy

$$$$
12:0
     RDKit          3D

 42 43  0  0  0  0  0  0  0  0999 V2000
   -6.6670   17.2440  -33.1900 C   0  0  0  0  0  0  0  0  0  0  0  0
   -6.8400   18.5550  -33.8090 N   0  0  0  0  0  0  0  0  0  0  0  0
   -6.9080   19.7830  -33.0610 C   0  0  0  0  0  0  0  0  0  0  0  0
   -8.1770   20.3100  -32.7160 C   0  0  0  0  0  0  0  0  0  0  0  0
   -8.2870   21.5020  -31.9790 C   0  0  0  0  0  0  0  0  0  0  0  0
   -7.1140   22.1510  -31.6090 C   0  0  0  0  0  0  0  0  0  0  0  0
   -6.9290   23.3010  -30.8760 C   0  0  0  0  0  0  0  0  0  0  0  0
   -5.5470   23.4690  -30.7970 C   0  0  0  0  0  0  0  0  0  0  0  0
   -4.8950   24.6140  -30.1260 C   0  0  0  0  0  0  0  0  0  0  0  0
   -3.8690   25.3410  -30.7970 N   0  0  0  0  0  0  0  0  0  0  0  0
   -5.2240   24.9490  -28.9570 O   0  0  0  0  0  0  0  0  0  0  0  0
   -4.9070   22.4670  -31.4600 N   0  0  0  0  0  0  0  0  0  0  0  0
   -3.4900   22.2520  -31.5660 C   0  0  0  0  0  0  0  0  0  0  0  0
   -3.0010   21.8820  -32.6680 O   0  0  0  0  0  0  0  0  0  0  0  0
   -2.6100   22.4540  -30.4010 C   0  0  0  0  0  0  0  0  0  0  0  0
   -1.7700   23.3960  -30.4170 O   0  0  0  0  0  0  0  0  0  0  0  0
   -2.7070   21.5970  -29.2530 N   0  0  0  0  0  0  0  0  0  0  0  0
   -1.8770   21.7920  -28.0610 C   0  0  1  0  0  0  0  0  0  0  0  0
   -2.2400   23.1120  -27.3770 C   0  0  0  0  0  0  0  0  0  0  0  0
   -2.0590   20.6430  -27.1100 C   0  0  0  0  0  0  0  0  0  0  0  0
   -1.3220   20.5530  -26.0900 O   0  0  0  0  0  0  0  0  0  0  0  0
   -3.0350   19.6750  -27.3680 O   0  0  0  0  0  0  0  0  0  0  0  0
   -3.5620   18.8280  -26.3560 C   0  0  0  0  0  0  0  0  0  0  0  0
   -5.8780   21.6660  -31.9470 C   0  0  0  0  0  0  0  0  0  0  0  0
   -5.7370   20.4710  -32.6620 C   0  0  0  0  0  0  0  0  0  0  0  0
   -6.6811   17.3507  -32.0953 H   0  0  0  0  0  0  0  0  0  0  0  0
   -7.4852   16.5793  -33.5042 H   0  0  0  0  0  0  0  0  0  0  0  0
   -5.7044   16.8143  -33.5042 H   0  0  0  0  0  0  0  0  0  0  0  0
   -6.9090   18.5940  -34.8510 H   0  0  0  0  0  0  0  0  0  0  0  0
   -9.0883   19.7794  -33.0290 H   0  0  0  0  0  0  0  0  0  0  0  0
   -9.2710   21.9091  -31.7033 H   0  0  0  0  0  0  0  0  0  0  0  0
   -7.7057   23.9494  -30.4444 H   0  0  0  0  0  0  0  0  0  0  0  0
   -2.8740   25.2740  -30.4870 H   0  0  0  0  0  0  0  0  0  0  0  0
   -3.4240   20.8350  -29.2530 H   0  0  0  0  0  0  0  0  0  0  0  0
   -0.8207   21.8322  -28.3654 H   0  0  0  0  0  0  0  0  0  0  0  0
   -2.2041   22.9813  -26.2854 H   0  0  0  0  0  0  0  0  0  0  0  0
   -1.5224   23.8899  -27.6770 H   0  0  0  0  0  0  0  0  0  0  0  0
   -3.2544   23.4136  -27.6770 H   0  0  0  0  0  0  0  0  0  0  0  0
   -3.3078   19.2366  -25.3668 H   0  0  0  0  0  0  0  0  0  0  0  0
   -4.6557   18.7704  -26.4589 H   0  0  0  0  0  0  0  0  0  0  0  0
   -3.1305   17.8214  -26.4589 H   0  0  0  0  0  0  0  0  0  0  0  0
   -4.7403   20.0760  -32.9079 H   0  0  0  0  0  0  0  0  0  0  0  0
  1  2  1  0
  2  3  1  0
  3  4  2  0
  4  5  1  0
  5  6  2  0
  6  7  1  0
  7  8  2  0
  8  9  1  0
  9 10  1  0
  9 11  2  0
  8 12  1  0
 12 13  1  0
 13 14  2  0
 13 15  1  0
 15 16  2  0
 15 17  1  0
 17 18  1  0
 18 19  1  0
 18 20  1  0
 20 21  2  0
 20 22  1  0
 22 23  1  0
 12 24  1  0
 24 25  2  0
 25  3  1  0
 24  6  1  0
  1 26  1  0
  1 27  1  0
  1 28  1  0
  2 29  1  0
  4 30  1  0
  5 31  1  0
  7 32  1  0
 10 33  1  0
 17 34  1  0
 18 35  1  6
 19 36  1  0
 19 37  1  0
 19 38  1  0
 23 39  1  0
 23 40  1  0
 23 41  1  0
 25 42  1  0
M  CHG  1  10  -1
M  END
>  <UniqueID>  (13) 
13

>  <SMILES>  (13) 
CNc1ccc2cc(C([NH-])=O)n(C(=O)C(=O)N[C@@H](C)C(=O)OC)c2c1

>  <Energy>  (13) 
73.00609598555825

>  <Genealogy>  (13) 
CNc1ccc2cc(C([NH-])=O)n(C(=O)C(=O)NC(C)C(=O)OC)c2c1 (protonated)
CNc1ccc2cc(C([NH-])=O)n(C(=O)C(=O)N[C@@H](C)C(=O)OC)c2c1 (chirality)
CNc1ccc2cc(C([NH-])=O)n(C(=O)C(=O)N[C@@H](C)C(=O)OC)c2c1 (3D coordinates assigned)
CNc1ccc2cc(C([NH-])=O)n(C(=O)C(=O)N[C@@H](C)C(=O)OC)c2c1 (optimized conformer: 73.00609598555825 kcal/mol)

>  <smiles>  (13) 
CNc1ccc2cc(C(N)=O)n(C(=O)C(=O)NC(C)C(=O)OC)c2c1

>  <score_type>  (13) 
oracle

>  <origin>  (13) 
adg

>  <m_score__min__energy>  (13) 
-11.130000000000001

>  <m_primary>  (13) 
energy

$$$$
13:0
     RDKit          3D

 44 45  0  0  0  0  0  0  0  0999 V2000
   -6.9370   17.8930  -31.9470 C   0  0  0  0  0  0  0  0  0  0  0  0
   -7.9290   18.7750  -32.6990 C   0  0  0  0  0  0  0  0  0  0  0  0
   -7.8280   20.2030  -32.2370 C   0  0  0  0  0  0  0  0  0  0  0  0
   -8.9990   20.9270  -31.9010 C   0  0  0  0  0  0  0  0  0  0  0  0
   -8.9150   22.2490  -31.4300 C   0  0  0  0  0  0  0  0  0  0  0  0
   -7.6500   22.8150  -31.2990 C   0  0  0  0  0  0  0  0  0  0  0  0
   -7.2740   24.0590  -30.8440 C   0  0  0  0  0  0  0  0  0  0  0  0
   -5.8810   24.0720  -30.9090 C   0  0  0  0  0  0  0  0  0  0  0  0
   -5.0550   25.2500  -30.5750 C   0  0  0  0  0  0  0  0  0  0  0  0
   -3.6530   25.2600  -30.8380 N   0  0  0  0  0  0  0  0  0  0  0  0
   -5.5970   26.2740  -30.0810 O   0  0  0  0  0  0  0  0  0  0  0  0
   -5.4180   22.8810  -31.3800 N   0  0  0  0  0  0  0  0  0  0  0  0
   -4.0560   22.4500  -31.5110 C   0  0  0  0  0  0  0  0  0  0  0  0
   -3.4310   22.6760  -32.5820 O   0  0  0  0  0  0  0  0  0  0  0  0
   -3.4090   21.6370  -30.4290 C   0  0  0  0  0  0  0  0  0  0  0  0
   -2.5850   22.5260  -29.5360 C   0  0  0  0  0  0  0  0  0  0  0  0
   -1.8110   23.3660  -30.0670 O   0  0  0  0  0  0  0  0  0  0  0  0
   -2.6160   22.4350  -28.1040 N   0  0  0  0  0  0  0  0  0  0  0  0
   -1.8140   23.2110  -27.1630 C   0  0  0  0  0  0  0  0  0  0  0  0
   -2.1010   24.7160  -27.3050 C   0  0  2  0  0  0  0  0  0  0  0  0
   -3.3010   24.9270  -28.0100 O   0  0  0  0  0  0  0  0  0  0  0  0
   -0.9320   25.4380  -27.9960 C   0  0  0  0  0  0  0  0  0  0  0  0
   -1.2470   25.7110  -29.3350 O   0  0  0  0  0  0  0  0  0  0  0  0
   -6.5100   22.1260  -31.6190 C   0  0  0  0  0  0  0  0  0  0  0  0
   -6.5610   20.8080  -32.0810 C   0  0  0  0  0  0  0  0  0  0  0  0
   -7.0806   18.0207  -30.8639 H   0  0  0  0  0  0  0  0  0  0  0  0
   -7.1043   16.8400  -32.2174 H   0  0  0  0  0  0  0  0  0  0  0  0
   -5.9108   18.1824  -32.2174 H   0  0  0  0  0  0  0  0  0  0  0  0
   -7.7099   18.7276  -33.7759 H   0  0  0  0  0  0  0  0  0  0  0  0
   -8.9476   18.4104  -32.5001 H   0  0  0  0  0  0  0  0  0  0  0  0
   -9.9840   20.4496  -32.0099 H   0  0  0  0  0  0  0  0  0  0  0  0
   -9.8205   22.8182  -31.1731 H   0  0  0  0  0  0  0  0  0  0  0  0
   -7.9328   24.8707  -30.5017 H   0  0  0  0  0  0  0  0  0  0  0  0
   -2.9610   25.2850  -30.0580 H   0  0  0  0  0  0  0  0  0  0  0  0
   -4.1881   21.1421  -29.8307 H   0  0  0  0  0  0  0  0  0  0  0  0
   -2.7540   20.8823  -30.8888 H   0  0  0  0  0  0  0  0  0  0  0  0
   -2.0552   22.8939  -26.1377 H   0  0  0  0  0  0  0  0  0  0  0  0
   -0.7502   23.0348  -27.3804 H   0  0  0  0  0  0  0  0  0  0  0  0
   -2.2118   25.1383  -26.2953 H   0  0  0  0  0  0  0  0  0  0  0  0
   -3.1920   24.5360  -28.9160 H   0  0  0  0  0  0  0  0  0  0  0  0
   -0.7295   26.3835  -27.4716 H   0  0  0  0  0  0  0  0  0  0  0  0
   -0.0441   24.7895  -27.9641 H   0  0  0  0  0  0  0  0  0  0  0  0
   -1.8120   24.9580  -29.6540 H   0  0  0  0  0  0  0  0  0  0  0  0
   -5.6390   20.2563  -32.3169 H   0  0  0  0  0  0  0  0  0  0  0  0
  1  2  1  0
  2  3  1  0
  3  4  2  0
  4  5  1  0
  5  6  2  0
  6  7  1  0
  7  8  2  0
  8  9  1  0
  9 10  1  0
  9 11  2  0
  8 12  1  0
 12 13  1  0
 13 14  2  0
 13 15  1  0
 15 16  1  0
 16 17  2  0
 16 18  1  0
 18 19  1  0
 19 20  1  0
 20 21  1  0
 20 22  1  0
 22 23  1  0
 12 24  1  0
 24 25  2  0
 25  3  1  0
 24  6  1  0
  1 26  1  0
  1 27  1  0
  1 28  1  0
  2 29  1  0
  2 30  1  0
  4 31  1  0
  5 32  1  0
  7 33  1  0
 10 34  1  0
 15 35  1  0
 15 36  1  0
 19 37  1  0
 19 38  1  0
 20 39  1  1
 21 40  1  0
 22 41  1  0
 22 42  1  0
 23 43  1  0
 25 44  1  0
M  CHG  2  10  -1  18  -1
M  END
>  <UniqueID>  (14) 
14

>  <SMILES>  (14) 
CCc1ccc2cc(C([NH-])=O)n(C(=O)CC(=O)[N-]C[C@H](O)CO)c2c1

>  <Energy>  (14) 
75.01936313996188

>  <Genealogy>  (14) 
CCc1ccc2cc(C([NH-])=O)n(C(=O)CC(=O)[N-]CC(O)CO)c2c1 (protonated)
CCc1ccc2cc(C([NH-])=O)n(C(=O)CC(=O)[N-]C[C@H](O)CO)c2c1 (chirality)
CCc1ccc2cc(C([NH-])=O)n(C(=O)CC(=O)[N-]C[C@H](O)CO)c2c1 (3D coordinates assigned)
CCc1ccc2cc(C([NH-])=O)n(C(=O)CC(=O)[N-]C[C@H](O)CO)c2c1 (optimized conformer: 75.01936313996188 kcal/mol)

>  <smiles>  (14) 
CCc1ccc2cc(C(N)=O)n(C(=O)CC(=O)NCC(O)CO)c2c1

>  <score_type>  (14) 
oracle

>  <origin>  (14) 
adg

>  <m_score__min__energy>  (14) 
-11.24

>  <m_primary>  (14) 
energy

$$$$
14:0
     RDKit          3D

 48 49  0  0  0  0  0  0  0  0999 V2000
   -4.1600   16.5620  -33.0990 C   0  0  0  0  0  0  0  0  0  0  0  0
   -4.5390   17.9660  -33.2920 N   0  0  0  0  0  0  0  0  0  0  0  0
   -3.5690   19.0170  -32.9510 C   0  0  0  0  0  0  0  0  0  0  0  0
   -2.9930   19.6470  -34.2210 C   0  0  0  0  0  0  0  0  0  0  0  0
   -2.2020   20.7570  -33.8980 O   0  0  0  0  0  0  0  0  0  0  0  0
   -5.8390   18.2660  -33.8510 C   0  0  0  0  0  0  0  0  0  0  0  0
   -5.9680   18.3420  -35.1050 O   0  0  0  0  0  0  0  0  0  0  0  0
   -7.0640   18.4190  -32.9790 C   0  0  0  0  0  0  0  0  0  0  0  0
   -7.2570   19.8430  -32.5280 C   0  0  0  0  0  0  0  0  0  0  0  0
   -8.5620   20.3900  -32.4370 C   0  0  0  0  0  0  0  0  0  0  0  0
   -8.7590   21.7070  -31.9860 C   0  0  0  0  0  0  0  0  0  0  0  0
   -7.6360   22.4430  -31.6170 C   0  0  0  0  0  0  0  0  0  0  0  0
   -7.5310   23.7370  -31.1540 C   0  0  0  0  0  0  0  0  0  0  0  0
   -6.1680   23.9460  -30.9480 C   0  0  0  0  0  0  0  0  0  0  0  0
   -5.5910   25.2000  -30.4200 C   0  0  0  0  0  0  0  0  0  0  0  0
   -4.3180   25.6450  -30.8790 N   0  0  0  0  0  0  0  0  0  0  0  0
   -6.2190   25.8910  -29.5750 O   0  0  0  0  0  0  0  0  0  0  0  0
   -5.4640   22.8240  -31.2620 N   0  0  0  0  0  0  0  0  0  0  0  0
   -4.0420   22.6390  -31.2280 C   0  0  0  0  0  0  0  0  0  0  0  0
   -3.4510   22.2270  -32.2640 O   0  0  0  0  0  0  0  0  0  0  0  0
   -3.2940   22.9090  -30.0260 N   0  0  0  0  0  0  0  0  0  0  0  0
   -4.0050   23.1060  -28.7600 C   0  0  0  0  0  0  0  0  0  0  0  0
   -1.8310   23.0300  -30.0820 C   0  0  0  0  0  0  0  0  0  0  0  0
   -1.3940   24.2690  -29.3680 C   0  0  0  0  0  0  0  0  0  0  0  0
   -2.1540   25.2720  -29.3210 O   0  0  0  0  0  0  0  0  0  0  0  0
   -0.1690   24.3020  -28.7150 O   0  0  0  0  0  0  0  0  0  0  0  0
   -6.3720   21.9180  -31.6770 C   0  0  0  0  0  0  0  0  0  0  0  0
   -6.1440   20.6190  -32.1380 C   0  0  0  0  0  0  0  0  0  0  0  0
   -4.1008   16.3428  -32.0227 H   0  0  0  0  0  0  0  0  0  0  0  0
   -4.9146   15.9111  -33.5648 H   0  0  0  0  0  0  0  0  0  0  0  0
   -3.1804   16.3793  -33.5648 H   0  0  0  0  0  0  0  0  0  0  0  0
   -4.0716   19.7946  -32.3570 H   0  0  0  0  0  0  0  0  0  0  0  0
   -2.7479   18.5691  -32.3721 H   0  0  0  0  0  0  0  0  0  0  0  0
   -2.3768   18.9033  -34.7475 H   0  0  0  0  0  0  0  0  0  0  0  0
   -3.8221   19.9742  -34.8656 H   0  0  0  0  0  0  0  0  0  0  0  0
   -2.6920   21.5580  -34.2190 H   0  0  0  0  0  0  0  0  0  0  0  0
   -7.9493   18.1038  -33.5507 H   0  0  0  0  0  0  0  0  0  0  0  0
   -6.9266   17.7934  -32.0847 H   0  0  0  0  0  0  0  0  0  0  0  0
   -9.4298   19.7772  -32.7224 H   0  0  0  0  0  0  0  0  0  0  0  0
   -9.7676   22.1419  -31.9266 H   0  0  0  0  0  0  0  0  0  0  0  0
   -8.3487   24.4527  -30.9833 H   0  0  0  0  0  0  0  0  0  0  0  0
   -3.4930   25.6640  -30.2390 H   0  0  0  0  0  0  0  0  0  0  0  0
   -3.3194   22.9160  -27.9210 H   0  0  0  0  0  0  0  0  0  0  0  0
   -4.3749   24.1405  -28.7043 H   0  0  0  0  0  0  0  0  0  0  0  0
   -4.8545   22.4094  -28.7043 H   0  0  0  0  0  0  0  0  0  0  0  0
   -1.3740   22.1522  -29.6018 H   0  0  0  0  0  0  0  0  0  0  0  0
   -1.5128   23.0872  -31.1334 H   0  0  0  0  0  0  0  0  0  0  0  0
   -5.1239   20.2115  -32.1956 H   0  0  0  0  0  0  0  0  0  0  0  0
  1  2  1  0
  2  3  1  0
  3  4  1  0
  4  5  1  0
  2  6  1  0
  6  7  2  0
  6  8  1  0
  8  9  1  0
  9 10  2  0
 10 11  1  0
 11 12  2  0
 12 13  1  0
 13 14  2  0
 14 15  1  0
 15 16  1  0
 15 17  2  0
 14 18  1  0
 18 19  1  0
 19 20  2  0
 19 21  1  0
 21 22  1  0
 21 23  1  0
 23 24  1  0
 24 25  2  0
 24 26  1  0
 18 27  1  0
 27 28  2  0
 28  9  1  0
 27 12  1  0
  1 29  1  0
  1 30  1  0
  1 31  1  0
  3 32  1  0
  3 33  1  0
  4 34  1  0
  4 35  1  0
  5 36  1  0
  8 37  1  0
  8 38  1  0
 10 39  1  0
 11 40  1  0
 13 41  1  0
 16 42  1  0
 22 43  1  0
 22 44  1  0
 22 45  1  0
 23 46  1  0
 23 47  1  0
 28 48  1  0
M  CHG  2  16  -1  26  -1
M  END
>  <UniqueID>  (15) 
15

>  <SMILES>  (15) 
CN(CCO)C(=O)Cc1ccc2cc(C([NH-])=O)n(C(=O)N(C)CC(=O)[O-])c2c1

>  <Energy>  (15) 
79.7318585286411

>  <Genealogy>  (15) 
CN(CCO)C(=O)Cc1ccc2cc(C([NH-])=O)n(C(=O)N(C)CC(=O)[O-])c2c1 (protonated)
CN(CCO)C(=O)Cc1ccc2cc(C([NH-])=O)n(C(=O)N(C)CC(=O)[O-])c2c1 (3D coordinates assigned)
CN(CCO)C(=O)Cc1ccc2cc(C([NH-])=O)n(C(=O)N(C)CC(=O)[O-])c2c1 (optimized conformer: 79.7318585286411 kcal/mol)

>  <smiles>  (15) 
CN(CCO)C(=O)Cc1ccc2cc(C(N)=O)n(C(=O)N(C)CC(=O)O)c2c1

>  <score_type>  (15) 
oracle

>  <origin>  (15) 
adg

>  <m_score__min__energy>  (15) 
-12.609999999999999

>  <m_primary>  (15) 
energy

$$$$
15:0
     RDKit          3D

 38 39  0  0  0  0  0  0  0  0999 V2000
   -6.9010   17.2630  -33.3290 C   0  0  0  0  0  0  0  0  0  0  0  0
   -6.9990   18.3950  -32.9290 C   0  0  0  0  0  0  0  0  0  0  0  0
   -7.1180   19.7480  -32.4580 C   0  0  0  0  0  0  0  0  0  0  0  0
   -8.3840   20.3800  -32.4350 C   0  0  0  0  0  0  0  0  0  0  0  0
   -8.5110   21.7070  -31.9840 C   0  0  0  0  0  0  0  0  0  0  0  0
   -7.3590   22.3630  -31.5600 C   0  0  0  0  0  0  0  0  0  0  0  0
   -7.1880   23.6490  -31.0970 C   0  0  0  0  0  0  0  0  0  0  0  0
   -5.8200   23.7770  -30.8480 C   0  0  0  0  0  0  0  0  0  0  0  0
   -5.2010   25.0020  -30.2910 C   0  0  0  0  0  0  0  0  0  0  0  0
   -3.9960   25.5360  -30.8340 N   0  0  0  0  0  0  0  0  0  0  0  0
   -5.7400   25.5810  -29.3080 O   0  0  0  0  0  0  0  0  0  0  0  0
   -5.1770   22.6110  -31.1420 N   0  0  0  0  0  0  0  0  0  0  0  0
   -3.7730   22.3330  -31.0780 C   0  0  0  0  0  0  0  0  0  0  0  0
   -2.9430   23.2740  -31.2180 O   0  0  0  0  0  0  0  0  0  0  0  0
   -3.3350   21.0280  -30.8270 O   0  0  0  0  0  0  0  0  0  0  0  0
   -2.2680   20.7300  -29.9320 C   0  0  0  0  0  0  0  0  0  0  0  0
   -1.2340   21.6960  -30.0790 O   0  0  0  0  0  0  0  0  0  0  0  0
   -1.0710   22.7690  -29.1970 C   0  0  0  0  0  0  0  0  0  0  0  0
   -0.2980   23.7240  -29.4860 O   0  0  0  0  0  0  0  0  0  0  0  0
   -1.8600   22.8020  -27.9210 C   0  0  0  0  0  0  0  0  0  0  0  0
   -2.6390   24.1160  -27.7620 C   0  0  0  0  0  0  0  0  0  0  0  0
   -1.7260   25.3040  -27.8000 C   0  0  0  0  0  0  0  0  0  0  0  0
   -1.0370   25.6040  -26.7900 O   0  0  0  0  0  0  0  0  0  0  0  0
   -1.6150   26.0580  -28.9590 O   0  0  0  0  0  0  0  0  0  0  0  0
   -6.1300   21.7580  -31.5730 C   0  0  0  0  0  0  0  0  0  0  0  0
   -5.9710   20.4430  -32.0300 C   0  0  0  0  0  0  0  0  0  0  0  0
   -6.8115   16.2293  -33.6943 H   0  0  0  0  0  0  0  0  0  0  0  0
   -9.2751   19.8301  -32.7720 H   0  0  0  0  0  0  0  0  0  0  0  0
   -9.4893   22.2096  -31.9671 H   0  0  0  0  0  0  0  0  0  0  0  0
   -7.9653   24.4140  -30.9536 H   0  0  0  0  0  0  0  0  0  0  0  0
   -3.0700   25.2880  -30.4200 H   0  0  0  0  0  0  0  0  0  0  0  0
   -2.6422   20.7496  -28.8978 H   0  0  0  0  0  0  0  0  0  0  0  0
   -1.8684   19.7312  -30.1618 H   0  0  0  0  0  0  0  0  0  0  0  0
   -2.5727   21.9641  -27.9220 H   0  0  0  0  0  0  0  0  0  0  0  0
   -1.1536   22.7213  -27.0817 H   0  0  0  0  0  0  0  0  0  0  0  0
   -3.3691   24.2000  -28.5805 H   0  0  0  0  0  0  0  0  0  0  0  0
   -3.1453   24.1010  -26.7856 H   0  0  0  0  0  0  0  0  0  0  0  0
   -4.9792   19.9678  -32.0536 H   0  0  0  0  0  0  0  0  0  0  0  0
  1  2  3  0
  2  3  1  0
  3  4  2  0
  4  5  1  0
  5  6  2  0
  6  7  1  0
  7  8  2  0
  8  9  1  0
  9 10  1  0
  9 11  2  0
  8 12  1  0
 12 13  1  0
 13 14  2  0
 13 15  1  0
 15 16  1  0
 16 17  1  0
 17 18  1  0
 18 19  2  0
 18 20  1  0
 20 21  1  0
 21 22  1  0
 22 23  2  0
 22 24  1  0
 12 25  1  0
 25 26  2  0
 26  3  1  0
 25  6  1  0
  1 27  1  0
  4 28  1  0
  5 29  1  0
  7 30  1  0
 10 31  1  0
 16 32  1  0
 16 33  1  0
 20 34  1  0
 20 35  1  0
 21 36  1  0
 21 37  1  0
 26 38  1  0
M  CHG  2  10  -1  24  -1
M  END
>  <UniqueID>  (16) 
16

>  <SMILES>  (16) 
C#Cc1ccc2cc(C([NH-])=O)n(C(=O)OCOC(=O)CCC(=O)[O-])c2c1

>  <Energy>  (16) 
69.63359016503286

>  <Genealogy>  (16) 
C#Cc1ccc2cc(C([NH-])=O)n(C(=O)OCOC(=O)CCC(=O)[O-])c2c1 (protonated)
C#Cc1ccc2cc(C([NH-])=O)n(C(=O)OCOC(=O)CCC(=O)[O-])c2c1 (3D coordinates assigned)
C#Cc1ccc2cc(C([NH-])=O)n(C(=O)OCOC(=O)CCC(=O)[O-])c2c1 (optimized conformer: 69.63359016503286 kcal/mol)

>  <smiles>  (16) 
C#Cc1ccc2cc(C(N)=O)n(C(=O)OCOC(=O)CCC(=O)O)c2c1

>  <score_type>  (16) 
oracle

>  <origin>  (16) 
adg

>  <m_score__min__energy>  (16) 
-12.35

>  <m_primary>  (16) 
energy

$$$$
16:0
     RDKit          3D

 34 35  0  0  0  0  0  0  0  0999 V2000
   -2.6250   22.5200  -28.1430 C   0  0  0  0  0  0  0  0  0  0  0  0
   -2.1940   23.3550  -29.3250 C   0  0  0  0  0  0  0  0  0  0  0  0
   -2.6280   23.0910  -30.5780 C   0  0  0  0  0  0  0  0  0  0  0  0
   -3.5180   21.9750  -30.9790 C   0  0  0  0  0  0  0  0  0  0  0  0
   -3.0560   20.8340  -31.2450 O   0  0  0  0  0  0  0  0  0  0  0  0
   -4.9300   22.2090  -31.1190 N   0  0  0  0  0  0  0  0  0  0  0  0
   -5.6110   23.3540  -30.8330 C   0  0  0  0  0  0  0  0  0  0  0  0
   -5.0320   24.5570  -30.1920 C   0  0  0  0  0  0  0  0  0  0  0  0
   -5.2580   24.8310  -28.8070 N   0  0  0  0  0  0  0  0  0  0  0  0
   -4.3120   25.3450  -30.8610 O   0  0  0  0  0  0  0  0  0  0  0  0
   -6.9610   23.2100  -31.1580 C   0  0  0  0  0  0  0  0  0  0  0  0
   -7.0800   21.9340  -31.6600 C   0  0  0  0  0  0  0  0  0  0  0  0
   -8.2010   21.2630  -32.1400 C   0  0  0  0  0  0  0  0  0  0  0  0
   -8.0300   19.9540  -32.6190 C   0  0  0  0  0  0  0  0  0  0  0  0
   -6.7450   19.3500  -32.6380 C   0  0  0  0  0  0  0  0  0  0  0  0
   -6.5800   17.9320  -33.1200 C   0  0  0  0  0  0  0  0  0  0  0  0
   -5.4270   17.3970  -32.5760 F   0  0  0  0  0  0  0  0  0  0  0  0
   -6.4870   17.8930  -34.5010 F   0  0  0  0  0  0  0  0  0  0  0  0
   -7.6600   17.1550  -32.7390 F   0  0  0  0  0  0  0  0  0  0  0  0
   -5.6360   20.0580  -32.1190 C   0  0  0  0  0  0  0  0  0  0  0  0
   -5.8410   21.3530  -31.6300 C   0  0  0  0  0  0  0  0  0  0  0  0
   -1.2610   24.4890  -29.0950 C   0  0  0  0  0  0  0  0  0  0  0  0
   -1.6200   25.6770  -29.3170 O   0  0  0  0  0  0  0  0  0  0  0  0
    0.0290   24.2590  -28.6340 O   0  0  0  0  0  0  0  0  0  0  0  0
   -2.3573   23.0386  -27.2106 H   0  0  0  0  0  0  0  0  0  0  0  0
   -3.7139   22.3685  -28.1787 H   0  0  0  0  0  0  0  0  0  0  0  0
   -2.1177   21.5446  -28.1787 H   0  0  0  0  0  0  0  0  0  0  0  0
   -2.2886   23.7684  -31.3755 H   0  0  0  0  0  0  0  0  0  0  0  0
   -5.8990   24.2410  -28.2330 H   0  0  0  0  0  0  0  0  0  0  0  0
   -4.8120   25.6620  -28.3600 H   0  0  0  0  0  0  0  0  0  0  0  0
   -7.7595   23.9571  -31.0384 H   0  0  0  0  0  0  0  0  0  0  0  0
   -9.1906   21.7433  -32.1440 H   0  0  0  0  0  0  0  0  0  0  0  0
   -8.9013   19.3902  -32.9836 H   0  0  0  0  0  0  0  0  0  0  0  0
   -4.6355   19.6012  -32.1002 H   0  0  0  0  0  0  0  0  0  0  0  0
  1  2  1  0
  2  3  2  3
  3  4  1  0
  4  5  2  0
  4  6  1  0
  6  7  1  0
  7  8  1  0
  8  9  1  0
  8 10  2  0
  7 11  2  0
 11 12  1  0
 12 13  2  0
 13 14  1  0
 14 15  2  0
 15 16  1  0
 16 17  1  0
 16 18  1  0
 16 19  1  0
 15 20  1  0
 20 21  2  0
  2 22  1  0
 22 23  2  0
 22 24  1  0
 21  6  1  0
 21 12  1  0
  1 25  1  0
  1 26  1  0
  1 27  1  0
  3 28  1  0
  9 29  1  0
  9 30  1  0
 11 31  1  0
 13 32  1  0
 14 33  1  0
 20 34  1  0
M  CHG  1  24  -1
M  END
>  <UniqueID>  (17) 
17

>  <SMILES>  (17) 
CC(=CC(=O)n1c(C(N)=O)cc2ccc(C(F)(F)F)cc21)C(=O)[O-]

>  <Energy>  (17) 
77.376828119979

>  <Genealogy>  (17) 
CC(=CC(=O)n1c(C(N)=O)cc2ccc(C(F)(F)F)cc21)C(=O)[O-] (protonated)
CC(=CC(=O)n1c(C(N)=O)cc2ccc(C(F)(F)F)cc21)C(=O)[O-] (3D coordinates assigned)
CC(=CC(=O)n1c(C(N)=O)cc2ccc(C(F)(F)F)cc21)C(=O)[O-] (optimized conformer: 77.376828119979 kcal/mol)

>  <smiles>  (17) 
CC(=CC(=O)n1c(C(N)=O)cc2ccc(C(F)(F)F)cc21)C(=O)O

>  <score_type>  (17) 
oracle

>  <origin>  (17) 
adg

>  <m_score__min__energy>  (17) 
-11.06

>  <m_primary>  (17) 
energy

$$$$
17:0
     RDKit          3D

 44 45  0  0  0  0  0  0  0  0999 V2000
   -2.8950   24.9340  -26.6760 C   0  0  0  0  0  0  0  0  0  0  0  0
   -2.9920   24.5290  -28.1440 C   0  0  0  0  0  0  0  0  0  0  0  0
   -1.8450   24.9750  -28.8640 O   0  0  0  0  0  0  0  0  0  0  0  0
   -0.5470   24.5140  -28.6090 C   0  0  0  0  0  0  0  0  0  0  0  0
    0.3030   25.2590  -28.0470 O   0  0  0  0  0  0  0  0  0  0  0  0
   -0.1450   23.1440  -29.0590 C   0  0  0  0  0  0  0  0  0  0  0  0
   -1.2620   22.4740  -29.7200 N   0  0  0  0  0  0  0  0  0  0  0  0
   -1.0910   21.2870  -30.5060 C   0  0  0  0  0  0  0  0  0  0  0  0
    0.0600   20.8070  -30.6940 O   0  0  0  0  0  0  0  0  0  0  0  0
   -2.2760   20.6300  -31.1350 C   0  0  0  0  0  0  0  0  0  0  0  0
   -3.4660   21.2440  -30.6530 O   0  0  0  0  0  0  0  0  0  0  0  0
   -3.9300   22.4720  -31.1340 C   0  0  0  0  0  0  0  0  0  0  0  0
   -3.1130   23.3570  -31.5140 O   0  0  0  0  0  0  0  0  0  0  0  0
   -5.3400   22.7380  -31.1680 N   0  0  0  0  0  0  0  0  0  0  0  0
   -5.9720   23.9140  -30.8940 C   0  0  0  0  0  0  0  0  0  0  0  0
   -5.3430   25.1300  -30.3350 C   0  0  0  0  0  0  0  0  0  0  0  0
   -4.1150   25.6290  -30.8590 N   0  0  0  0  0  0  0  0  0  0  0  0
   -5.8720   25.7080  -29.3470 O   0  0  0  0  0  0  0  0  0  0  0  0
   -7.3410   23.8000  -31.1300 C   0  0  0  0  0  0  0  0  0  0  0  0
   -7.5320   22.5060  -31.5550 C   0  0  0  0  0  0  0  0  0  0  0  0
   -8.7000   21.8490  -31.9300 C   0  0  0  0  0  0  0  0  0  0  0  0
   -8.6000   20.5120  -32.3500 C   0  0  0  0  0  0  0  0  0  0  0  0
   -7.3380   19.8690  -32.4090 C   0  0  0  0  0  0  0  0  0  0  0  0
   -7.2450   18.4340  -32.8360 C   0  0  0  0  0  0  0  0  0  0  0  0
   -6.1750   20.5610  -32.0050 C   0  0  0  0  0  0  0  0  0  0  0  0
   -6.3080   21.8860  -31.5720 C   0  0  0  0  0  0  0  0  0  0  0  0
   -3.1041   24.0610  -26.0402 H   0  0  0  0  0  0  0  0  0  0  0  0
   -1.8821   25.3073  -26.4648 H   0  0  0  0  0  0  0  0  0  0  0  0
   -3.6289   25.7257  -26.4648 H   0  0  0  0  0  0  0  0  0  0  0  0
   -3.0588   23.4332  -28.2131 H   0  0  0  0  0  0  0  0  0  0  0  0
   -3.8882   24.9930  -28.5816 H   0  0  0  0  0  0  0  0  0  0  0  0
    0.6957   23.2266  -29.7636 H   0  0  0  0  0  0  0  0  0  0  0  0
    0.1535   22.5542  -28.1798 H   0  0  0  0  0  0  0  0  0  0  0  0
   -2.2180   22.8860  -29.6240 H   0  0  0  0  0  0  0  0  0  0  0  0
   -2.2213   20.7425  -32.2279 H   0  0  0  0  0  0  0  0  0  0  0  0
   -2.2835   19.5604  -30.8782 H   0  0  0  0  0  0  0  0  0  0  0  0
   -3.1990   25.2690  -30.5120 H   0  0  0  0  0  0  0  0  0  0  0  0
   -8.1064   24.5798  -31.0032 H   0  0  0  0  0  0  0  0  0  0  0  0
   -9.6729   22.3613  -31.8985 H   0  0  0  0  0  0  0  0  0  0  0  0
   -9.5078   19.9600  -32.6352 H   0  0  0  0  0  0  0  0  0  0  0  0
   -7.2032   17.7886  -31.9462 H   0  0  0  0  0  0  0  0  0  0  0  0
   -8.1281   18.1724  -33.4375 H   0  0  0  0  0  0  0  0  0  0  0  0
   -6.3355   18.2886  -33.4375 H   0  0  0  0  0  0  0  0  0  0  0  0
   -5.1901   20.0717  -32.0298 H   0  0  0  0  0  0  0  0  0  0  0  0
  1  2  1  0
  2  3  1  0
  3  4  1  0
  4  5  2  0
  4  6  1  0
  6  7  1  0
  7  8  1  0
  8  9  2  0
  8 10  1  0
 10 11  1  0
 11 12  1  0
 12 13  2  0
 12 14  1  0
 14 15  1  0
 15 16  1  0
 16 17  1  0
 16 18  2  0
 15 19  2  0
 19 20  1  0
 20 21  2  0
 21 22  1  0
 22 23  2  0
 23 24  1  0
 23 25  1  0
 25 26  2  0
 26 14  1  0
 26 20  1  0
  1 27  1  0
  1 28  1  0
  1 29  1  0
  2 30  1  0
  2 31  1  0
  6 32  1  0
  6 33  1  0
  7 34  1  0
 10 35  1  0
 10 36  1  0
 17 37  1  0
 19 38  1  0
 21 39  1  0
 22 40  1  0
 24 41  1  0
 24 42  1  0
 24 43  1  0
 25 44  1  0
M  CHG  1  17  -1
M  END
>  <UniqueID>  (18) 
18

>  <SMILES>  (18) 
CCOC(=O)CNC(=O)COC(=O)n1c(C([NH-])=O)cc2ccc(C)cc21

>  <Energy>  (18) 
71.22546155026801

>  <Genealogy>  (18) 
CCOC(=O)CNC(=O)COC(=O)n1c(C([NH-])=O)cc2ccc(C)cc21 (protonated)
CCOC(=O)CNC(=O)COC(=O)n1c(C([NH-])=O)cc2ccc(C)cc21 (3D coordinates assigned)
CCOC(=O)CNC(=O)COC(=O)n1c(C([NH-])=O)cc2ccc(C)cc21 (optimized conformer: 71.22546155026801 kcal/mol)

>  <smiles>  (18) 
CCOC(=O)CNC(=O)COC(=O)n1c(C(N)=O)cc2ccc(C)cc21

>  <score_type>  (18) 
oracle

>  <origin>  (18) 
adg

>  <m_score__min__energy>  (18) 
-10

>  <m_primary>  (18) 
energy

$$$$
18:0
     RDKit          3D

 55 56  0  0  0  0  0  0  0  0999 V2000
   -6.8780   17.8860  -32.3200 C   0  0  0  0  0  0  0  0  0  0  0  0
   -8.1390   18.6940  -32.6040 C   0  0  1  0  0  0  0  0  0  0  0  0
   -9.2180   18.1080  -31.9680 F   0  0  0  0  0  0  0  0  0  0  0  0
   -7.9810   20.1190  -32.1390 C   0  0  0  0  0  0  0  0  0  0  0  0
   -9.1220   20.9470  -31.9800 C   0  0  0  0  0  0  0  0  0  0  0  0
   -8.9850   22.2850  -31.5710 C   0  0  0  0  0  0  0  0  0  0  0  0
   -7.7030   22.7650  -31.3310 C   0  0  0  0  0  0  0  0  0  0  0  0
   -7.2820   24.0230  -30.9620 C   0  0  0  0  0  0  0  0  0  0  0  0
   -5.8940   23.9430  -30.8960 C   0  0  0  0  0  0  0  0  0  0  0  0
   -5.0310   25.0690  -30.4820 C   0  0  0  0  0  0  0  0  0  0  0  0
   -3.6840   24.8570  -30.0640 N   0  0  0  0  0  0  0  0  0  0  0  0
   -5.5110   26.2330  -30.4470 O   0  0  0  0  0  0  0  0  0  0  0  0
   -5.4710   22.6890  -31.2230 N   0  0  0  0  0  0  0  0  0  0  0  0
   -4.1220   22.2310  -31.4170 C   0  0  0  0  0  0  0  0  0  0  0  0
   -3.2580   23.0110  -31.9000 O   0  0  0  0  0  0  0  0  0  0  0  0
   -3.7050   20.8650  -30.9650 C   0  0  0  0  0  0  0  0  0  0  0  0
   -2.3340   20.6750  -31.2450 O   0  0  0  0  0  0  0  0  0  0  0  0
   -1.5390   21.4640  -30.3810 C   0  0  0  0  0  0  0  0  0  0  0  0
   -1.2160   20.6910  -29.0980 C   0  0  0  0  0  0  0  0  0  0  0  0
   -2.1280   21.0840  -28.0110 N   0  0  0  0  0  0  0  0  0  0  0  0
   -2.6710   20.0770  -27.0900 C   0  0  0  0  0  0  0  0  0  0  0  0
   -2.3560   22.4810  -27.7460 C   0  0  0  0  0  0  0  0  0  0  0  0
   -3.4790   22.9950  -28.0040 O   0  0  0  0  0  0  0  0  0  0  0  0
   -1.3240   23.2970  -27.1770 N   0  0  0  0  0  0  0  0  0  0  0  0
   -0.0740   22.6630  -26.7510 C   0  0  0  0  0  0  0  0  0  0  0  0
   -1.4220   24.7560  -27.2630 C   0  0  0  0  0  0  0  0  0  0  0  0
   -1.2840   25.2100  -28.6860 C   0  0  0  0  0  0  0  0  0  0  0  0
   -1.2630   26.4360  -28.9670 O   0  0  0  0  0  0  0  0  0  0  0  0
   -1.2150   24.2670  -29.7070 O   0  0  0  0  0  0  0  0  0  0  0  0
   -6.5900   21.9790  -31.4780 C   0  0  0  0  0  0  0  0  0  0  0  0
   -6.6930   20.6480  -31.8970 C   0  0  0  0  0  0  0  0  0  0  0  0
   -6.7374   17.7959  -31.2328 H   0  0  0  0  0  0  0  0  0  0  0  0
   -6.9779   16.8833  -32.7612 H   0  0  0  0  0  0  0  0  0  0  0  0
   -6.0088   18.3957  -32.7612 H   0  0  0  0  0  0  0  0  0  0  0  0
   -8.3117   18.7036  -33.6903 H   0  0  0  0  0  0  0  0  0  0  0  0
  -10.1236   20.5381  -32.1787 H   0  0  0  0  0  0  0  0  0  0  0  0
   -9.8655   22.9322  -31.4448 H   0  0  0  0  0  0  0  0  0  0  0  0
   -7.9094   24.9041  -30.7619 H   0  0  0  0  0  0  0  0  0  0  0  0
   -3.0790   25.6720  -29.8170 H   0  0  0  0  0  0  0  0  0  0  0  0
   -3.3080   23.8920  -29.9190 H   0  0  0  0  0  0  0  0  0  0  0  0
   -3.8749   20.7692  -29.8824 H   0  0  0  0  0  0  0  0  0  0  0  0
   -4.2968   20.1059  -31.4975 H   0  0  0  0  0  0  0  0  0  0  0  0
   -0.6008   21.7275  -30.8914 H   0  0  0  0  0  0  0  0  0  0  0  0
   -2.0950   22.3759  -30.1178 H   0  0  0  0  0  0  0  0  0  0  0  0
   -1.3246   19.6131  -29.2887 H   0  0  0  0  0  0  0  0  0  0  0  0
   -0.1841   20.9226  -28.7955 H   0  0  0  0  0  0  0  0  0  0  0  0
   -2.4979   20.3980  -26.0522 H   0  0  0  0  0  0  0  0  0  0  0  0
   -3.7514   19.9657  -27.2640 H   0  0  0  0  0  0  0  0  0  0  0  0
   -2.1704   19.1131  -27.2640 H   0  0  0  0  0  0  0  0  0  0  0  0
   -0.0301   22.6407  -25.6521 H   0  0  0  0  0  0  0  0  0  0  0  0
   -0.0329   21.6351  -27.1405 H   0  0  0  0  0  0  0  0  0  0  0  0
    0.7796   23.2371  -27.1405 H   0  0  0  0  0  0  0  0  0  0  0  0
   -2.3998   25.0765  -26.8742 H   0  0  0  0  0  0  0  0  0  0  0  0
   -0.6118   25.2022  -26.6676 H   0  0  0  0  0  0  0  0  0  0  0  0
   -5.7942   20.0290  -32.0346 H   0  0  0  0  0  0  0  0  0  0  0  0
  1  2  1  0
  2  3  1  0
  2  4  1  0
  4  5  2  0
  5  6  1  0
  6  7  2  0
  7  8  1  0
  8  9  2  0
  9 10  1  0
 10 11  1  0
 10 12  2  0
  9 13  1  0
 13 14  1  0
 14 15  2  0
 14 16  1  0
 16 17  1  0
 17 18  1  0
 18 19  1  0
 19 20  1  0
 20 21  1  0
 20 22  1  0
 22 23  2  0
 22 24  1  0
 24 25  1  0
 24 26  1  0
 26 27  1  0
 27 28  2  0
 27 29  1  0
 13 30  1  0
 30 31  2  0
 31  4  1  0
 30  7  1  0
  1 32  1  0
  1 33  1  0
  1 34  1  0
  2 35  1  6
  5 36  1  0
  6 37  1  0
  8 38  1  0
 11 39  1  0
 11 40  1  0
 16 41  1  0
 16 42  1  0
 18 43  1  0
 18 44  1  0
 19 45  1  0
 19 46  1  0
 21 47  1  0
 21 48  1  0
 21 49  1  0
 25 50  1  0
 25 51  1  0
 25 52  1  0
 26 53  1  0
 26 54  1  0
 31 55  1  0
M  CHG  1  29  -1
M  END
>  <UniqueID>  (19) 
19

>  <SMILES>  (19) 
C[C@@H](F)c1ccc2cc(C(N)=O)n(C(=O)COCCN(C)C(=O)N(C)CC(=O)[O-])c2c1

>  <Energy>  (19) 
90.94425486001184

>  <Genealogy>  (19) 
CC(F)c1ccc2cc(C(N)=O)n(C(=O)COCCN(C)C(=O)N(C)CC(=O)[O-])c2c1 (protonated)
C[C@@H](F)c1ccc2cc(C(N)=O)n(C(=O)COCCN(C)C(=O)N(C)CC(=O)[O-])c2c1 (chirality)
C[C@@H](F)c1ccc2cc(C(N)=O)n(C(=O)COCCN(C)C(=O)N(C)CC(=O)[O-])c2c1 (3D coordinates assigned)
C[C@@H](F)c1ccc2cc(C(N)=O)n(C(=O)COCCN(C)C(=O)N(C)CC(=O)[O-])c2c1 (optimized conformer: 90.94425486001184 kcal/mol)

>  <smiles>  (19) 
CC(F)c1ccc2cc(C(N)=O)n(C(=O)COCCN(C)C(=O)N(C)CC(=O)O)c2c1

>  <score_type>  (19) 
oracle

>  <origin>  (19) 
adg

>  <m_score__min__energy>  (19) 
-10.91

>  <m_primary>  (19) 
energy

$$$$
19:0
     RDKit          3D

 40 41  0  0  0  0  0  0  0  0999 V2000
   -0.2740   22.1720  -26.7440 C   0  0  0  0  0  0  0  0  0  0  0  0
   -0.3550   23.4340  -27.4850 N   0  0  0  0  0  0  0  0  0  0  0  0
    0.4160   24.6050  -27.0600 C   0  0  0  0  0  0  0  0  0  0  0  0
   -1.1950   23.5140  -28.6480 C   0  0  0  0  0  0  0  0  0  0  0  0
   -1.2620   24.5890  -29.3080 O   0  0  0  0  0  0  0  0  0  0  0  0
   -1.9390   22.3980  -29.0490 O   0  0  0  0  0  0  0  0  0  0  0  0
   -1.9780   21.9330  -30.3960 C   0  0  0  0  0  0  0  0  0  0  0  0
   -2.7610   22.8160  -31.1970 O   0  0  0  0  0  0  0  0  0  0  0  0
   -3.8200   22.3790  -31.9990 C   0  0  0  0  0  0  0  0  0  0  0  0
   -3.5770   21.7450  -33.0610 O   0  0  0  0  0  0  0  0  0  0  0  0
   -5.1810   22.6220  -31.5900 N   0  0  0  0  0  0  0  0  0  0  0  0
   -5.6960   23.7700  -31.0590 C   0  0  0  0  0  0  0  0  0  0  0  0
   -4.9260   24.9620  -30.6650 C   0  0  0  0  0  0  0  0  0  0  0  0
   -3.6560   24.8320  -30.0270 N   0  0  0  0  0  0  0  0  0  0  0  0
   -5.4280   26.1050  -30.8280 O   0  0  0  0  0  0  0  0  0  0  0  0
   -7.0800   23.6970  -30.9580 C   0  0  0  0  0  0  0  0  0  0  0  0
   -7.4100   22.4460  -31.4210 C   0  0  0  0  0  0  0  0  0  0  0  0
   -8.6560   21.8340  -31.5210 C   0  0  0  0  0  0  0  0  0  0  0  0
   -8.7080   20.5210  -32.0150 C   0  0  0  0  0  0  0  0  0  0  0  0
   -7.5220   19.8440  -32.3900 C   0  0  0  0  0  0  0  0  0  0  0  0
   -7.5960   18.4300  -32.8910 C   0  0  0  0  0  0  0  0  0  0  0  0
   -7.4000   17.5520  -31.8390 F   0  0  0  0  0  0  0  0  0  0  0  0
   -6.6190   18.2230  -33.8470 F   0  0  0  0  0  0  0  0  0  0  0  0
   -6.2740   20.4960  -32.2720 C   0  0  0  0  0  0  0  0  0  0  0  0
   -6.2500   21.8140  -31.7940 C   0  0  0  0  0  0  0  0  0  0  0  0
   -0.2873   22.3795  -25.6638 H   0  0  0  0  0  0  0  0  0  0  0  0
   -1.1332   21.5371  -27.0060 H   0  0  0  0  0  0  0  0  0  0  0  0
    0.6594   21.6522  -27.0060 H   0  0  0  0  0  0  0  0  0  0  0  0
    0.4435   24.6468  -25.9611 H   0  0  0  0  0  0  0  0  0  0  0  0
    1.4418   24.5298  -27.4499 H   0  0  0  0  0  0  0  0  0  0  0  0
   -0.0585   25.5176  -27.4499 H   0  0  0  0  0  0  0  0  0  0  0  0
   -0.9542   21.8904  -30.7960 H   0  0  0  0  0  0  0  0  0  0  0  0
   -2.4304   20.9306  -30.4178 H   0  0  0  0  0  0  0  0  0  0  0  0
   -3.1130   25.6810  -29.7590 H   0  0  0  0  0  0  0  0  0  0  0  0
   -3.2820   23.8900  -29.7710 H   0  0  0  0  0  0  0  0  0  0  0  0
   -7.7646   24.4740  -30.5870 H   0  0  0  0  0  0  0  0  0  0  0  0
   -9.5727   22.3633  -31.2219 H   0  0  0  0  0  0  0  0  0  0  0  0
   -9.6790   20.0133  -32.1117 H   0  0  0  0  0  0  0  0  0  0  0  0
   -8.5873   18.2562  -33.3350 H   0  0  0  0  0  0  0  0  0  0  0  0
   -5.3422   19.9812  -32.5489 H   0  0  0  0  0  0  0  0  0  0  0  0
  1  2  1  0
  2  3  1  0
  2  4  1  0
  4  5  2  0
  4  6  1  0
  6  7  1  0
  7  8  1  0
  8  9  1  0
  9 10  2  0
  9 11  1  0
 11 12  1  0
 12 13  1  0
 13 14  1  0
 13 15  2  0
 12 16  2  0
 16 17  1  0
 17 18  2  0
 18 19  1  0
 19 20  2  0
 20 21  1  0
 21 22  1  0
 21 23  1  0
 20 24  1  0
 24 25  2  0
 25 11  1  0
 25 17  1  0
  1 26  1  0
  1 27  1  0
  1 28  1  0
  3 29  1  0
  3 30  1  0
  3 31  1  0
  7 32  1  0
  7 33  1  0
 14 34  1  0
 14 35  1  0
 16 36  1  0
 18 37  1  0
 19 38  1  0
 21 39  1  0
 24 40  1  0
M  END
>  <UniqueID>  (20) 
20

>  <SMILES>  (20) 
CN(C)C(=O)OCOC(=O)n1c(C(N)=O)cc2ccc(C(F)F)cc21

>  <Energy>  (20) 
74.26594631013289

>  <Genealogy>  (20) 
CN(C)C(=O)OCOC(=O)n1c(C(N)=O)cc2ccc(C(F)F)cc21 (3D coordinates assigned)
CN(C)C(=O)OCOC(=O)n1c(C(N)=O)cc2ccc(C(F)F)cc21 (optimized conformer: 74.26594631013289 kcal/mol)

>  <smiles>  (20) 
CN(C)C(=O)OCOC(=O)n1c(C(N)=O)cc2ccc(C(F)F)cc21

>  <score_type>  (20) 
oracle

>  <origin>  (20) 
adg

>  <m_score__min__energy>  (20) 
-8.2400000000000002

>  <m_primary>  (20) 
energy

$$$$
20:0
     RDKit          3D

 36 37  0  0  0  0  0  0  0  0999 V2000
   -5.5730   13.9380  -34.1860 C   0  0  0  0  0  0  0  0  0  0  0  0
   -5.3780   15.1780  -33.4470 N   0  0  0  0  0  0  0  0  0  0  0  0
   -6.2150   16.3230  -33.6600 C   0  0  0  0  0  0  0  0  0  0  0  0
   -7.1370   16.2770  -34.5210 O   0  0  0  0  0  0  0  0  0  0  0  0
   -5.9820   17.5940  -32.8800 C   0  0  2  0  0  0  0  0  0  0  0  0
   -6.1270   17.3320  -31.3780 C   0  0  0  0  0  0  0  0  0  0  0  0
   -6.9310   18.6290  -33.3100 N   0  0  0  0  0  0  0  0  0  0  0  0
   -7.0250   19.9500  -32.7360 C   0  0  0  0  0  0  0  0  0  0  0  0
   -8.3100   20.5010  -32.4980 C   0  0  0  0  0  0  0  0  0  0  0  0
   -8.4570   21.7840  -31.9500 C   0  0  0  0  0  0  0  0  0  0  0  0
   -7.3040   22.4990  -31.6440 C   0  0  0  0  0  0  0  0  0  0  0  0
   -7.1570   23.7620  -31.1190 C   0  0  0  0  0  0  0  0  0  0  0  0
   -5.7830   23.9650  -31.0210 C   0  0  0  0  0  0  0  0  0  0  0  0
   -5.1870   25.1650  -30.4040 C   0  0  0  0  0  0  0  0  0  0  0  0
   -3.9280   25.6670  -30.8440 N   0  0  0  0  0  0  0  0  0  0  0  0
   -5.7670   25.7200  -29.4330 O   0  0  0  0  0  0  0  0  0  0  0  0
   -5.1040   22.8750  -31.4860 N   0  0  0  0  0  0  0  0  0  0  0  0
   -3.6870   22.7080  -31.6590 C   0  0  0  0  0  0  0  0  0  0  0  0
   -2.8730   23.1780  -30.8220 O   0  0  0  0  0  0  0  0  0  0  0  0
   -6.0510   21.9840  -31.8540 C   0  0  0  0  0  0  0  0  0  0  0  0
   -5.8750   20.7130  -32.4120 C   0  0  0  0  0  0  0  0  0  0  0  0
   -5.7038   13.1061  -33.4783 H   0  0  0  0  0  0  0  0  0  0  0  0
   -6.4685   14.0253  -34.8189 H   0  0  0  0  0  0  0  0  0  0  0  0
   -4.6940   13.7462  -34.8189 H   0  0  0  0  0  0  0  0  0  0  0  0
   -4.6030   15.2260  -32.7460 H   0  0  0  0  0  0  0  0  0  0  0  0
   -4.9586   17.9466  -33.0756 H   0  0  0  0  0  0  0  0  0  0  0  0
   -5.6692   18.1592  -30.8156 H   0  0  0  0  0  0  0  0  0  0  0  0
   -7.1938   17.2592  -31.1198 H   0  0  0  0  0  0  0  0  0  0  0  0
   -5.6221   16.3894  -31.1198 H   0  0  0  0  0  0  0  0  0  0  0  0
   -7.6170   18.3820  -34.0610 H   0  0  0  0  0  0  0  0  0  0  0  0
   -9.2056   19.9130  -32.7471 H   0  0  0  0  0  0  0  0  0  0  0  0
   -9.4540   22.2116  -31.7678 H   0  0  0  0  0  0  0  0  0  0  0  0
   -7.9560   24.4633  -30.8364 H   0  0  0  0  0  0  0  0  0  0  0  0
   -3.0350   25.3000  -30.4470 H   0  0  0  0  0  0  0  0  0  0  0  0
   -3.3085   22.1616  -32.5355 H   0  0  0  0  0  0  0  0  0  0  0  0
   -4.8662   20.3145  -32.5953 H   0  0  0  0  0  0  0  0  0  0  0  0
  1  2  1  0
  2  3  1  0
  3  4  2  0
  3  5  1  0
  5  6  1  0
  5  7  1  0
  7  8  1  0
  8  9  2  0
  9 10  1  0
 10 11  2  0
 11 12  1  0
 12 13  2  0
 13 14  1  0
 14 15  1  0
 14 16  2  0
 13 17  1  0
 17 18  1  0
 18 19  2  0
 17 20  1  0
 20 21  2  0
 21  8  1  0
 20 11  1  0
  1 22  1  0
  1 23  1  0
  1 24  1  0
  2 25  1  0
  5 26  1  1
  6 27  1  0
  6 28  1  0
  6 29  1  0
  7 30  1  0
  9 31  1  0
 10 32  1  0
 12 33  1  0
 15 34  1  0
 18 35  1  0
 21 36  1  0
M  CHG  1  15  -1
M  END
>  <UniqueID>  (21) 
21

>  <SMILES>  (21) 
CNC(=O)[C@H](C)Nc1ccc2cc(C([NH-])=O)n(C=O)c2c1

>  <Energy>  (21) 
70.19209222882971

>  <Genealogy>  (21) 
CNC(=O)[C@H](C)Nc1ccc2cc(C([NH-])=O)n(C=O)c2c1 (protonated)
CNC(=O)[C@H](C)Nc1ccc2cc(C([NH-])=O)n(C=O)c2c1 (3D coordinates assigned)
CNC(=O)[C@H](C)Nc1ccc2cc(C([NH-])=O)n(C=O)c2c1 (optimized conformer: 70.19209222882971 kcal/mol)

>  <smiles>  (21) 
CNC(=O)[C@H](C)Nc1ccc2cc(C(N)=O)n(C=O)c2c1

>  <score_type>  (21) 
oracle

>  <origin>  (21) 
adg

>  <m_score__min__energy>  (21) 
-9.9600000000000009

>  <m_primary>  (21) 
energy

$$$$
21:0
     RDKit          3D

 41 42  0  0  0  0  0  0  0  0999 V2000
   -2.4220   19.2220  -33.3820 C   0  0  0  0  0  0  0  0  0  0  0  0
   -3.4070   19.8740  -32.7590 C   0  0  0  0  0  0  0  0  0  0  0  0
   -3.8940   21.2120  -33.2320 C   0  0  0  0  0  0  0  0  0  0  0  0
   -3.0680   22.2460  -32.6980 O   0  0  0  0  0  0  0  0  0  0  0  0
   -2.9550   22.5330  -31.3280 C   0  0  0  0  0  0  0  0  0  0  0  0
   -1.8620   22.9240  -30.8370 O   0  0  0  0  0  0  0  0  0  0  0  0
   -4.1310   22.3670  -30.4610 C   0  0  0  0  0  0  0  0  0  0  0  0
   -3.9990   21.8090  -29.3380 O   0  0  0  0  0  0  0  0  0  0  0  0
   -5.4200   22.8500  -30.8690 N   0  0  0  0  0  0  0  0  0  0  0  0
   -5.8830   24.1300  -30.8200 C   0  0  0  0  0  0  0  0  0  0  0  0
   -5.0890   25.3220  -30.4680 C   0  0  0  0  0  0  0  0  0  0  0  0
   -3.6640   25.2820  -30.4710 N   0  0  0  0  0  0  0  0  0  0  0  0
   -5.6730   26.4040  -30.1890 O   0  0  0  0  0  0  0  0  0  0  0  0
   -7.2270   24.1770  -31.1930 C   0  0  0  0  0  0  0  0  0  0  0  0
   -7.5740   22.8730  -31.4710 C   0  0  0  0  0  0  0  0  0  0  0  0
   -8.7950   22.3350  -31.8680 C   0  0  0  0  0  0  0  0  0  0  0  0
   -8.8740   20.9420  -32.0410 C   0  0  0  0  0  0  0  0  0  0  0  0
   -7.7460   20.1180  -31.7980 C   0  0  0  0  0  0  0  0  0  0  0  0
   -7.8440   18.6300  -31.9960 C   0  0  0  0  0  0  0  0  0  0  0  0
   -6.6680   18.1320  -32.7820 C   0  0  0  0  0  0  0  0  0  0  0  0
   -5.8430   17.3510  -32.2360 O   0  0  0  0  0  0  0  0  0  0  0  0
   -6.4760   18.5540  -34.1400 N   0  0  0  0  0  0  0  0  0  0  0  0
   -5.3560   18.0750  -34.9400 C   0  0  0  0  0  0  0  0  0  0  0  0
   -6.5210   20.7020  -31.4080 C   0  0  0  0  0  0  0  0  0  0  0  0
   -6.4660   22.0930  -31.2630 C   0  0  0  0  0  0  0  0  0  0  0  0
   -2.0888   18.2423  -33.0089 H   0  0  0  0  0  0  0  0  0  0  0  0
   -1.9438   19.6647  -34.2682 H   0  0  0  0  0  0  0  0  0  0  0  0
   -3.8744   19.4173  -31.8742 H   0  0  0  0  0  0  0  0  0  0  0  0
   -3.8566   21.2462  -34.3308 H   0  0  0  0  0  0  0  0  0  0  0  0
   -4.9287   21.3623  -32.8904 H   0  0  0  0  0  0  0  0  0  0  0  0
   -3.1450   24.6910  -31.1570 H   0  0  0  0  0  0  0  0  0  0  0  0
   -7.8720   25.0660  -31.2524 H   0  0  0  0  0  0  0  0  0  0  0  0
   -9.6698   22.9790  -32.0408 H   0  0  0  0  0  0  0  0  0  0  0  0
   -9.8204   20.4868  -32.3682 H   0  0  0  0  0  0  0  0  0  0  0  0
   -7.8613   18.1335  -31.0146 H   0  0  0  0  0  0  0  0  0  0  0  0
   -8.7671   18.4022  -32.5493 H   0  0  0  0  0  0  0  0  0  0  0  0
   -7.1680   19.2010  -34.5820 H   0  0  0  0  0  0  0  0  0  0  0  0
   -4.5508   17.7306  -34.2744 H   0  0  0  0  0  0  0  0  0  0  0  0
   -5.6891   17.2406  -35.5747 H   0  0  0  0  0  0  0  0  0  0  0  0
   -4.9828   18.8922  -35.5747 H   0  0  0  0  0  0  0  0  0  0  0  0
   -5.6329   20.0798  -31.2229 H   0  0  0  0  0  0  0  0  0  0  0  0
  1  2  2  0
  2  3  1  0
  3  4  1  0
  4  5  1  0
  5  6  2  0
  5  7  1  0
  7  8  2  0
  7  9  1  0
  9 10  1  0
 10 11  1  0
 11 12  1  0
 11 13  2  0
 10 14  2  0
 14 15  1  0
 15 16  2  0
 16 17  1  0
 17 18  2  0
 18 19  1  0
 19 20  1  0
 20 21  2  0
 20 22  1  0
 22 23  1  0
 18 24  1  0
 24 25  2  0
 25  9  1  0
 25 15  1  0
  1 26  1  0
  1 27  1  0
  2 28  1  0
  3 29  1  0
  3 30  1  0
 12 31  1  0
 14 32  1  0
 16 33  1  0
 17 34  1  0
 19 35  1  0
 19 36  1  0
 22 37  1  0
 23 38  1  0
 23 39  1  0
 23 40  1  0
 24 41  1  0
M  CHG  1  12  -1
M  END
>  <UniqueID>  (22) 
22

>  <SMILES>  (22) 
C=CCOC(=O)C(=O)n1c(C([NH-])=O)cc2ccc(CC(=O)NC)cc21

>  <Energy>  (22) 
72.62808405153562

>  <Genealogy>  (22) 
C=CCOC(=O)C(=O)n1c(C([NH-])=O)cc2ccc(CC(=O)NC)cc21 (protonated)
C=CCOC(=O)C(=O)n1c(C([NH-])=O)cc2ccc(CC(=O)NC)cc21 (3D coordinates assigned)
C=CCOC(=O)C(=O)n1c(C([NH-])=O)cc2ccc(CC(=O)NC)cc21 (optimized conformer: 72.62808405153562 kcal/mol)

>  <smiles>  (22) 
C=CCOC(=O)C(=O)n1c(C(N)=O)cc2ccc(CC(=O)NC)cc21

>  <score_type>  (22) 
oracle

>  <origin>  (22) 
adg

>  <m_score__min__energy>  (22) 
-10.42

>  <m_primary>  (22) 
energy

$$$$
22:0
     RDKit          3D

 44 45  0  0  0  0  0  0  0  0999 V2000
   -4.0060   25.6460  -30.8400 N   0  0  0  0  0  0  0  0  0  0  0  0
   -5.3120   25.2090  -30.4750 C   0  0  0  0  0  0  0  0  0  0  0  0
   -6.0070   25.9220  -29.7020 O   0  0  0  0  0  0  0  0  0  0  0  0
   -5.8400   23.9150  -30.9530 C   0  0  0  0  0  0  0  0  0  0  0  0
   -7.1560   23.7300  -31.3760 C   0  0  0  0  0  0  0  0  0  0  0  0
   -7.2630   22.3860  -31.6560 C   0  0  0  0  0  0  0  0  0  0  0  0
   -8.3510   21.6480  -32.1100 C   0  0  0  0  0  0  0  0  0  0  0  0
   -8.1700   20.2720  -32.3270 C   0  0  0  0  0  0  0  0  0  0  0  0
   -6.9070   19.6620  -32.1090 C   0  0  0  0  0  0  0  0  0  0  0  0
   -6.7370   18.1780  -32.3040 C   0  0  0  0  0  0  0  0  0  0  0  0
   -5.4600   17.8850  -32.7530 F   0  0  0  0  0  0  0  0  0  0  0  0
   -6.9510   17.5330  -31.1000 F   0  0  0  0  0  0  0  0  0  0  0  0
   -7.6430   17.7020  -33.2370 F   0  0  0  0  0  0  0  0  0  0  0  0
   -5.8320   20.4440  -31.6240 C   0  0  0  0  0  0  0  0  0  0  0  0
   -6.0460   21.8090  -31.4060 C   0  0  0  0  0  0  0  0  0  0  0  0
   -5.1620   22.7340  -30.9780 N   0  0  0  0  0  0  0  0  0  0  0  0
   -3.7710   22.5010  -30.7050 C   0  0  0  0  0  0  0  0  0  0  0  0
   -2.9020   23.2430  -31.2380 O   0  0  0  0  0  0  0  0  0  0  0  0
   -3.3630   21.4930  -29.6660 C   0  0  0  0  0  0  0  0  0  0  0  0
   -1.8400   21.3310  -29.5870 C   0  0  0  0  0  0  0  0  0  0  0  0
   -1.2220   22.5330  -28.9470 C   0  0  0  0  0  0  0  0  0  0  0  0
   -0.4200   23.2510  -29.6040 O   0  0  0  0  0  0  0  0  0  0  0  0
   -1.5970   22.8920  -27.6140 N   0  0  0  0  0  0  0  0  0  0  0  0
   -1.8350   24.2640  -27.1690 C   0  0  0  0  0  0  0  0  0  0  0  0
   -3.3460   24.5470  -27.1080 C   0  0  0  0  0  0  0  0  0  0  0  0
   -3.9370   24.3900  -28.3690 O   0  0  0  0  0  0  0  0  0  0  0  0
   -1.1510   25.2320  -28.1440 C   0  0  0  0  0  0  0  0  0  0  0  0
   -1.8970   25.3480  -29.3250 O   0  0  0  0  0  0  0  0  0  0  0  0
   -3.1570   25.2400  -30.3880 H   0  0  0  0  0  0  0  0  0  0  0  0
   -7.9413   24.4949  -31.4667 H   0  0  0  0  0  0  0  0  0  0  0  0
   -9.3239   22.1274  -32.2936 H   0  0  0  0  0  0  0  0  0  0  0  0
   -9.0172   19.6599  -32.6700 H   0  0  0  0  0  0  0  0  0  0  0  0
   -4.8509   19.9890  -31.4231 H   0  0  0  0  0  0  0  0  0  0  0  0
   -3.7360   21.8234  -28.6853 H   0  0  0  0  0  0  0  0  0  0  0  0
   -3.7930   20.5210  -29.9494 H   0  0  0  0  0  0  0  0  0  0  0  0
   -1.6006   20.4387  -28.9899 H   0  0  0  0  0  0  0  0  0  0  0  0
   -1.4387   21.2222  -30.6054 H   0  0  0  0  0  0  0  0  0  0  0  0
   -1.4166   24.4027  -26.1612 H   0  0  0  0  0  0  0  0  0  0  0  0
   -3.8150   23.8468  -26.4011 H   0  0  0  0  0  0  0  0  0  0  0  0
   -3.4953   25.5855  -26.7775 H   0  0  0  0  0  0  0  0  0  0  0  0
   -4.0230   25.2990  -28.7580 H   0  0  0  0  0  0  0  0  0  0  0  0
   -1.0654   26.2215  -27.6713 H   0  0  0  0  0  0  0  0  0  0  0  0
   -0.1525   24.8419  -28.3908 H   0  0  0  0  0  0  0  0  0  0  0  0
   -2.2290   24.4380  -29.5440 H   0  0  0  0  0  0  0  0  0  0  0  0
  1  2  1  0
  2  3  2  0
  2  4  1  0
  4  5  2  0
  5  6  1  0
  6  7  2  0
  7  8  1  0
  8  9  2  0
  9 10  1  0
 10 11  1  0
 10 12  1  0
 10 13  1  0
  9 14  1  0
 14 15  2  0
 15 16  1  0
 16 17  1  0
 17 18  2  0
 17 19  1  0
 19 20  1  0
 20 21  1  0
 21 22  2  0
 21 23  1  0
 23 24  1  0
 24 25  1  0
 25 26  1  0
 24 27  1  0
 27 28  1  0
 16  4  1  0
 15  6  1  0
  1 29  1  0
  5 30  1  0
  7 31  1  0
  8 32  1  0
 14 33  1  0
 19 34  1  0
 19 35  1  0
 20 36  1  0
 20 37  1  0
 24 38  1  0
 25 39  1  0
 25 40  1  0
 26 41  1  0
 27 42  1  0
 27 43  1  0
 28 44  1  0
M  CHG  2   1  -1  23  -1
M  END
>  <UniqueID>  (23) 
23

>  <SMILES>  (23) 
[NH-]C(=O)c1cc2ccc(C(F)(F)F)cc2n1C(=O)CCC(=O)[N-]C(CO)CO

>  <Energy>  (23) 
76.14876699767075

>  <Genealogy>  (23) 
[NH-]C(=O)c1cc2ccc(C(F)(F)F)cc2n1C(=O)CCC(=O)[N-]C(CO)CO (protonated)
[NH-]C(=O)c1cc2ccc(C(F)(F)F)cc2n1C(=O)CCC(=O)[N-]C(CO)CO (3D coordinates assigned)
[NH-]C(=O)c1cc2ccc(C(F)(F)F)cc2n1C(=O)CCC(=O)[N-]C(CO)CO (optimized conformer: 76.14876699767075 kcal/mol)

>  <smiles>  (23) 
NC(=O)c1cc2ccc(C(F)(F)F)cc2n1C(=O)CCC(=O)NC(CO)CO

>  <score_type>  (23) 
oracle

>  <origin>  (23) 
adg

>  <m_score__min__energy>  (23) 
-10.74

>  <m_primary>  (23) 
energy

$$$$
23:0
     RDKit          3D

 42 43  0  0  0  0  0  0  0  0999 V2000
   -4.1330   25.6570  -30.8250 N   0  0  0  0  0  0  0  0  0  0  0  0
   -5.3490   25.1270  -30.3030 C   0  0  0  0  0  0  0  0  0  0  0  0
   -5.8800   25.6700  -29.2960 O   0  0  0  0  0  0  0  0  0  0  0  0
   -5.9560   23.9120  -30.8870 C   0  0  0  0  0  0  0  0  0  0  0  0
   -7.2990   23.8230  -31.2480 C   0  0  0  0  0  0  0  0  0  0  0  0
   -7.4970   22.5040  -31.5890 C   0  0  0  0  0  0  0  0  0  0  0  0
   -8.6560   21.8470  -31.9920 C   0  0  0  0  0  0  0  0  0  0  0  0
   -8.5760   20.4670  -32.2430 C   0  0  0  0  0  0  0  0  0  0  0  0
   -7.3500   19.7730  -32.0860 C   0  0  0  0  0  0  0  0  0  0  0  0
   -7.2930   18.2900  -32.3290 C   0  0  0  0  0  0  0  0  0  0  0  0
   -6.1280   17.9020  -33.6730 P   0  0  1  0  0  0  0  0  0  0  0  0
   -4.7360   17.7670  -33.0980 O   0  0  0  0  0  0  0  0  0  0  0  0
   -6.5670   16.4450  -34.4110 O   0  0  0  0  0  0  0  0  0  0  0  0
   -6.1460   19.1430  -34.8220 O   0  0  0  0  0  0  0  0  0  0  0  0
   -6.1890   20.4780  -31.6940 C   0  0  0  0  0  0  0  0  0  0  0  0
   -6.3030   21.8490  -31.4390 C   0  0  0  0  0  0  0  0  0  0  0  0
   -5.3450   22.7030  -31.0230 N   0  0  0  0  0  0  0  0  0  0  0  0
   -3.9560   22.3900  -30.8440 C   0  0  0  0  0  0  0  0  0  0  0  0
   -3.0800   23.1100  -31.3940 O   0  0  0  0  0  0  0  0  0  0  0  0
   -3.5300   21.2860  -29.9130 C   0  0  0  0  0  0  0  0  0  0  0  0
   -3.4100   21.7790  -28.4660 C   0  0  0  0  0  0  0  0  0  0  0  0
   -2.0470   21.5220  -27.9010 C   0  0  0  0  0  0  0  0  0  0  0  0
   -1.8790   20.5790  -27.0820 O   0  0  0  0  0  0  0  0  0  0  0  0
   -0.9730   22.3340  -28.2860 O   0  0  0  0  0  0  0  0  0  0  0  0
   -1.0380   23.2340  -29.3890 C   0  0  0  0  0  0  0  0  0  0  0  0
   -0.7720   24.6330  -28.9330 C   0  0  0  0  0  0  0  0  0  0  0  0
    0.2350   24.8820  -28.2190 O   0  0  0  0  0  0  0  0  0  0  0  0
   -1.6230   25.6640  -29.3080 O   0  0  0  0  0  0  0  0  0  0  0  0
   -3.2220   25.1780  -30.6520 H   0  0  0  0  0  0  0  0  0  0  0  0
   -8.0424   24.6337  -31.2583 H   0  0  0  0  0  0  0  0  0  0  0  0
   -9.6047   22.3911  -32.1102 H   0  0  0  0  0  0  0  0  0  0  0  0
   -9.4741   19.9194  -32.5647 H   0  0  0  0  0  0  0  0  0  0  0  0
   -6.9633   17.7858  -31.4086 H   0  0  0  0  0  0  0  0  0  0  0  0
   -8.2951   17.9404  -32.6179 H   0  0  0  0  0  0  0  0  0  0  0  0
   -7.1060   19.3350  -34.9710 H   0  0  0  0  0  0  0  0  0  0  0  0
   -5.2225   19.9628  -31.5923 H   0  0  0  0  0  0  0  0  0  0  0  0
   -4.2753   20.4780  -29.9536 H   0  0  0  0  0  0  0  0  0  0  0  0
   -2.5416   20.9273  -30.2361 H   0  0  0  0  0  0  0  0  0  0  0  0
   -3.6073   22.8609  -28.4411 H   0  0  0  0  0  0  0  0  0  0  0  0
   -4.1417   21.2290  -27.8561 H   0  0  0  0  0  0  0  0  0  0  0  0
   -0.2844   22.9465  -30.1369 H   0  0  0  0  0  0  0  0  0  0  0  0
   -2.0442   23.1867  -29.8309 H   0  0  0  0  0  0  0  0  0  0  0  0
  1  2  1  0
  2  3  2  0
  2  4  1  0
  4  5  2  0
  5  6  1  0
  6  7  2  0
  7  8  1  0
  8  9  2  0
  9 10  1  0
 10 11  1  0
 11 12  2  0
 11 13  1  6
 11 14  1  0
  9 15  1  0
 15 16  2  0
 16 17  1  0
 17 18  1  0
 18 19  2  0
 18 20  1  0
 20 21  1  0
 21 22  1  0
 22 23  2  0
 22 24  1  0
 24 25  1  0
 25 26  1  0
 26 27  2  0
 26 28  1  0
 17  4  1  0
 16  6  1  0
  1 29  1  0
  5 30  1  0
  7 31  1  0
  8 32  1  0
 10 33  1  0
 10 34  1  0
 14 35  1  0
 15 36  1  0
 20 37  1  0
 20 38  1  0
 21 39  1  0
 21 40  1  0
 25 41  1  0
 25 42  1  0
M  CHG  3   1  -1  13  -1  28  -1
M  END
>  <UniqueID>  (24) 
24

>  <SMILES>  (24) 
[NH-]C(=O)c1cc2ccc(C[P@@](=O)([O-])O)cc2n1C(=O)CCC(=O)OCC(=O)[O-]

>  <Energy>  (24) 
68.56987744741991

>  <Genealogy>  (24) 
[NH-]C(=O)c1cc2ccc(CP(=O)([O-])O)cc2n1C(=O)CCC(=O)OCC(=O)[O-] (protonated)
[NH-]C(=O)c1cc2ccc(C[P@@](=O)([O-])O)cc2n1C(=O)CCC(=O)OCC(=O)[O-] (chirality)
[NH-]C(=O)c1cc2ccc(C[P@@](=O)([O-])O)cc2n1C(=O)CCC(=O)OCC(=O)[O-] (3D coordinates assigned)
[NH-]C(=O)c1cc2ccc(C[P@@](=O)([O-])O)cc2n1C(=O)CCC(=O)OCC(=O)[O-] (optimized conformer: 68.56987744741991 kcal/mol)

>  <smiles>  (24) 
NC(=O)c1cc2ccc(CP(=O)(O)O)cc2n1C(=O)CCC(=O)OCC(=O)O

>  <score_type>  (24) 
oracle

>  <origin>  (24) 
adg

>  <m_score__min__energy>  (24) 
-12.869999999999999

>  <m_primary>  (24) 
energy

$$$$
24:0
     RDKit          3D

 45 46  0  0  0  0  0  0  0  0999 V2000
   -6.4810   17.6750  -31.2860 C   0  0  0  0  0  0  0  0  0  0  0  0
   -6.5710   17.5340  -32.8100 C   0  0  2  0  0  0  0  0  0  0  0  0
   -5.2780   16.9890  -33.4610 C   0  0  0  0  0  0  0  0  0  0  0  0
   -4.7450   17.8240  -34.5900 C   0  0  0  0  0  0  0  0  0  0  0  0
   -5.4150   17.9690  -35.6450 O   0  0  0  0  0  0  0  0  0  0  0  0
   -3.4910   18.4140  -34.4900 O   0  0  0  0  0  0  0  0  0  0  0  0
   -7.0470   18.7670  -33.4580 N   0  0  0  0  0  0  0  0  0  0  0  0
   -7.1740   20.0360  -32.8000 C   0  0  0  0  0  0  0  0  0  0  0  0
   -8.4480   20.5890  -32.5230 C   0  0  0  0  0  0  0  0  0  0  0  0
   -8.5620   21.8440  -31.9020 C   0  0  0  0  0  0  0  0  0  0  0  0
   -7.3900   22.5240  -31.5820 C   0  0  0  0  0  0  0  0  0  0  0  0
   -7.2140   23.7600  -31.0060 C   0  0  0  0  0  0  0  0  0  0  0  0
   -5.8330   23.9460  -30.9470 C   0  0  0  0  0  0  0  0  0  0  0  0
   -5.1980   25.1220  -30.3160 C   0  0  0  0  0  0  0  0  0  0  0  0
   -3.9740   25.6320  -30.8390 N   0  0  0  0  0  0  0  0  0  0  0  0
   -5.7440   25.7070  -29.3450 O   0  0  0  0  0  0  0  0  0  0  0  0
   -5.1820   22.8700  -31.4740 N   0  0  0  0  0  0  0  0  0  0  0  0
   -3.7680   22.7100  -31.6680 C   0  0  0  0  0  0  0  0  0  0  0  0
   -3.3310   22.1930  -32.7320 O   0  0  0  0  0  0  0  0  0  0  0  0
   -2.8790   23.1480  -30.6820 O   0  0  0  0  0  0  0  0  0  0  0  0
   -2.9880   22.7570  -29.3170 C   0  0  0  0  0  0  0  0  0  0  0  0
   -1.8770   23.4130  -28.4960 C   0  0  0  0  0  0  0  0  0  0  0  0
   -2.2270   24.8560  -28.1190 C   0  0  0  0  0  0  0  0  0  0  0  0
   -1.5810   25.7510  -28.9810 O   0  0  0  0  0  0  0  0  0  0  0  0
   -6.1500   22.0070  -31.8570 C   0  0  0  0  0  0  0  0  0  0  0  0
   -6.0090   20.7690  -32.4950 C   0  0  0  0  0  0  0  0  0  0  0  0
   -7.0141   16.8398  -30.8084 H   0  0  0  0  0  0  0  0  0  0  0  0
   -5.4251   17.6600  -30.9781 H   0  0  0  0  0  0  0  0  0  0  0  0
   -6.9392   18.6264  -30.9781 H   0  0  0  0  0  0  0  0  0  0  0  0
   -7.3346   16.7624  -32.9877 H   0  0  0  0  0  0  0  0  0  0  0  0
   -4.5021   16.9281  -32.6836 H   0  0  0  0  0  0  0  0  0  0  0  0
   -5.5354   16.0104  -33.8923 H   0  0  0  0  0  0  0  0  0  0  0  0
   -7.0590   18.7770  -34.5030 H   0  0  0  0  0  0  0  0  0  0  0  0
   -9.3558   20.0312  -32.7964 H   0  0  0  0  0  0  0  0  0  0  0  0
   -9.5477   22.2764  -31.6754 H   0  0  0  0  0  0  0  0  0  0  0  0
   -7.9959   24.4543  -30.6645 H   0  0  0  0  0  0  0  0  0  0  0  0
   -3.0550   25.2870  -30.4850 H   0  0  0  0  0  0  0  0  0  0  0  0
   -3.9660   23.0724  -28.9245 H   0  0  0  0  0  0  0  0  0  0  0  0
   -2.8930   21.6635  -29.2454 H   0  0  0  0  0  0  0  0  0  0  0  0
   -1.7235   22.8313  -27.5751 H   0  0  0  0  0  0  0  0  0  0  0  0
   -0.9633   23.4308  -29.1083 H   0  0  0  0  0  0  0  0  0  0  0  0
   -3.3150   24.9981  -28.1964 H   0  0  0  0  0  0  0  0  0  0  0  0
   -1.8957   25.0482  -27.0878 H   0  0  0  0  0  0  0  0  0  0  0  0
   -2.0340   25.6750  -29.8610 H   0  0  0  0  0  0  0  0  0  0  0  0
   -5.0136   20.3777  -32.7521 H   0  0  0  0  0  0  0  0  0  0  0  0
  1  2  1  0
  2  3  1  0
  3  4  1  0
  4  5  2  0
  4  6  1  0
  2  7  1  0
  7  8  1  0
  8  9  2  0
  9 10  1  0
 10 11  2  0
 11 12  1  0
 12 13  2  0
 13 14  1  0
 14 15  1  0
 14 16  2  0
 13 17  1  0
 17 18  1  0
 18 19  2  0
 18 20  1  0
 20 21  1  0
 21 22  1  0
 22 23  1  0
 23 24  1  0
 17 25  1  0
 25 26  2  0
 26  8  1  0
 25 11  1  0
  1 27  1  0
  1 28  1  0
  1 29  1  0
  2 30  1  1
  3 31  1  0
  3 32  1  0
  7 33  1  0
  9 34  1  0
 10 35  1  0
 12 36  1  0
 15 37  1  0
 21 38  1  0
 21 39  1  0
 22 40  1  0
 22 41  1  0
 23 42  1  0
 23 43  1  0
 24 44  1  0
 26 45  1  0
M  CHG  2   6  -1  15  -1
M  END
>  <UniqueID>  (25) 
25

>  <SMILES>  (25) 
C[C@H](CC(=O)[O-])Nc1ccc2cc(C([NH-])=O)n(C(=O)OCCCO)c2c1

>  <Energy>  (25) 
80.2982579756012

>  <Genealogy>  (25) 
CC(CC(=O)[O-])Nc1ccc2cc(C([NH-])=O)n(C(=O)OCCCO)c2c1 (protonated)
C[C@H](CC(=O)[O-])Nc1ccc2cc(C([NH-])=O)n(C(=O)OCCCO)c2c1 (chirality)
C[C@H](CC(=O)[O-])Nc1ccc2cc(C([NH-])=O)n(C(=O)OCCCO)c2c1 (3D coordinates assigned)
C[C@H](CC(=O)[O-])Nc1ccc2cc(C([NH-])=O)n(C(=O)OCCCO)c2c1 (optimized conformer: 80.2982579756012 kcal/mol)

>  <smiles>  (25) 
CC(CC(=O)O)Nc1ccc2cc(C(N)=O)n(C(=O)OCCCO)c2c1

>  <score_type>  (25) 
oracle

>  <origin>  (25) 
adg

>  <m_score__min__energy>  (25) 
-11.19

>  <m_primary>  (25) 
energy

$$$$
25:0
     RDKit          3D

 38 39  0  0  0  0  0  0  0  0999 V2000
   -4.0870   25.5890  -30.8240 N   0  0  0  0  0  0  0  0  0  0  0  0
   -5.1180   24.8780  -30.1420 C   0  0  0  0  0  0  0  0  0  0  0  0
   -5.5050   25.2840  -29.0160 O   0  0  0  0  0  0  0  0  0  0  0  0
   -5.7420   23.6980  -30.7740 C   0  0  0  0  0  0  0  0  0  0  0  0
   -7.1060   23.5960  -31.0410 C   0  0  0  0  0  0  0  0  0  0  0  0
   -7.2860   22.3270  -31.5430 C   0  0  0  0  0  0  0  0  0  0  0  0
   -8.4430   21.6900  -31.9820 C   0  0  0  0  0  0  0  0  0  0  0  0
   -8.3270   20.3760  -32.4690 C   0  0  0  0  0  0  0  0  0  0  0  0
   -7.0660   19.7370  -32.5130 C   0  0  0  0  0  0  0  0  0  0  0  0
   -6.9590   18.3950  -33.0210 C   0  0  0  0  0  0  0  0  0  0  0  0
   -6.8690   17.2720  -33.4480 C   0  0  0  0  0  0  0  0  0  0  0  0
   -6.7600   15.9080  -33.9660 C   0  0  0  0  0  0  0  0  0  0  0  0
   -5.4100   15.5680  -34.0940 O   0  0  0  0  0  0  0  0  0  0  0  0
   -5.9130   20.4100  -32.0620 C   0  0  0  0  0  0  0  0  0  0  0  0
   -6.0610   21.7110  -31.5710 C   0  0  0  0  0  0  0  0  0  0  0  0
   -5.1030   22.5410  -31.1060 N   0  0  0  0  0  0  0  0  0  0  0  0
   -3.6970   22.2540  -31.0500 C   0  0  0  0  0  0  0  0  0  0  0  0
   -2.8820   23.0420  -31.6010 O   0  0  0  0  0  0  0  0  0  0  0  0
   -3.1880   21.1170  -30.2080 C   0  0  0  0  0  0  0  0  0  0  0  0
   -2.1970   21.5950  -29.1400 C   0  0  0  0  0  0  0  0  0  0  0  0
   -2.5480   22.9780  -28.6830 C   0  0  0  0  0  0  0  0  0  0  0  0
   -3.2600   23.1350  -27.6560 O   0  0  0  0  0  0  0  0  0  0  0  0
   -2.0380   24.1170  -29.3810 N   0  0  0  0  0  0  0  0  0  0  0  0
   -2.3430   25.3710  -28.9680 O   0  0  0  0  0  0  0  0  0  0  0  0
   -3.1420   25.1670  -30.9580 H   0  0  0  0  0  0  0  0  0  0  0  0
   -7.8755   24.3662  -30.8839 H   0  0  0  0  0  0  0  0  0  0  0  0
   -9.4178   22.1986  -31.9490 H   0  0  0  0  0  0  0  0  0  0  0  0
   -9.2228   19.8416  -32.8180 H   0  0  0  0  0  0  0  0  0  0  0  0
   -7.2500   15.2107  -33.2705 H   0  0  0  0  0  0  0  0  0  0  0  0
   -7.2497   15.8474  -34.9491 H   0  0  0  0  0  0  0  0  0  0  0  0
   -5.1240   15.9040  -34.9820 H   0  0  0  0  0  0  0  0  0  0  0  0
   -4.9256   19.9262  -32.0952 H   0  0  0  0  0  0  0  0  0  0  0  0
   -4.0414   20.6334  -29.7102 H   0  0  0  0  0  0  0  0  0  0  0  0
   -2.6628   20.4119  -30.8691 H   0  0  0  0  0  0  0  0  0  0  0  0
   -2.2320   20.9095  -28.2804 H   0  0  0  0  0  0  0  0  0  0  0  0
   -1.1856   21.6081  -29.5723 H   0  0  0  0  0  0  0  0  0  0  0  0
   -1.4400   23.9890  -30.2270 H   0  0  0  0  0  0  0  0  0  0  0  0
   -3.3160   25.3470  -28.7810 H   0  0  0  0  0  0  0  0  0  0  0  0
  1  2  1  0
  2  3  2  0
  2  4  1  0
  4  5  2  0
  5  6  1  0
  6  7  2  0
  7  8  1  0
  8  9  2  0
  9 10  1  0
 10 11  3  0
 11 12  1  0
 12 13  1  0
  9 14  1  0
 14 15  2  0
 15 16  1  0
 16 17  1  0
 17 18  2  0
 17 19  1  0
 19 20  1  0
 20 21  1  0
 21 22  2  0
 21 23  1  0
 23 24  1  0
 16  4  1  0
 15  6  1  0
  1 25  1  0
  5 26  1  0
  7 27  1  0
  8 28  1  0
 12 29  1  0
 12 30  1  0
 13 31  1  0
 14 32  1  0
 19 33  1  0
 19 34  1  0
 20 35  1  0
 20 36  1  0
 23 37  1  0
 24 38  1  0
M  CHG  1   1  -1
M  END
>  <UniqueID>  (26) 
26

>  <SMILES>  (26) 
[NH-]C(=O)c1cc2ccc(C#CCO)cc2n1C(=O)CCC(=O)NO

>  <Energy>  (26) 
66.99189766532423

>  <Genealogy>  (26) 
[NH-]C(=O)c1cc2ccc(C#CCO)cc2n1C(=O)CCC(=O)NO (protonated)
[NH-]C(=O)c1cc2ccc(C#CCO)cc2n1C(=O)CCC(=O)NO (3D coordinates assigned)
[NH-]C(=O)c1cc2ccc(C#CCO)cc2n1C(=O)CCC(=O)NO (optimized conformer: 66.99189766532423 kcal/mol)

>  <smiles>  (26) 
NC(=O)c1cc2ccc(C#CCO)cc2n1C(=O)CCC(=O)NO

>  <score_type>  (26) 
oracle

>  <origin>  (26) 
adg

>  <m_score__min__energy>  (26) 
-10.4

>  <m_primary>  (26) 
energy

$$$$
26:0
     RDKit          3D

 35 36  0  0  0  0  0  0  0  0999 V2000
   -2.9970   25.3040  -30.3190 H   0  0  0  0  0  0  0  0  0  0  0  0
   -3.8650   25.5440  -30.8480 N   0  0  0  0  0  0  0  0  0  0  0  0
   -5.1240   24.9800  -30.4850 C   0  0  0  0  0  0  0  0  0  0  0  0
   -5.9210   25.6570  -29.7810 O   0  0  0  0  0  0  0  0  0  0  0  0
   -5.5180   23.6330  -30.9480 C   0  0  0  0  0  0  0  0  0  0  0  0
   -6.6330   23.3850  -31.7490 C   0  0  0  0  0  0  0  0  0  0  0  0
   -7.3725   24.1166  -32.1067 H   0  0  0  0  0  0  0  0  0  0  0  0
   -6.6120   22.0310  -31.9970 C   0  0  0  0  0  0  0  0  0  0  0  0
   -7.4900   21.2380  -32.7290 C   0  0  0  0  0  0  0  0  0  0  0  0
   -8.3585   21.6778  -33.2412 H   0  0  0  0  0  0  0  0  0  0  0  0
   -7.2330   19.8570  -32.7940 C   0  0  0  0  0  0  0  0  0  0  0  0
   -7.9063   19.2042  -33.3689 H   0  0  0  0  0  0  0  0  0  0  0  0
   -6.1150   19.2980  -32.1260 C   0  0  0  0  0  0  0  0  0  0  0  0
   -5.8570   17.8190  -32.1780 C   0  0  0  0  0  0  0  0  0  0  0  0
   -4.7716   17.6430  -32.1470 H   0  0  0  0  0  0  0  0  0  0  0  0
   -6.3800   17.2980  -33.3470 F   0  0  0  0  0  0  0  0  0  0  0  0
   -6.4530   17.1990  -31.0960 F   0  0  0  0  0  0  0  0  0  0  0  0
   -5.2510   20.1340  -31.3860 C   0  0  0  0  0  0  0  0  0  0  0  0
   -4.3879   19.7167  -30.8466 H   0  0  0  0  0  0  0  0  0  0  0  0
   -5.5200   21.5060  -31.3560 C   0  0  0  0  0  0  0  0  0  0  0  0
   -4.8370   22.4760  -30.7110 N   0  0  0  0  0  0  0  0  0  0  0  0
   -3.6670   22.2910  -29.9000 C   0  0  0  0  0  0  0  0  0  0  0  0
   -3.8020   21.9800  -28.6840 O   0  0  0  0  0  0  0  0  0  0  0  0
   -2.3210   22.4590  -30.4910 C   0  0  0  0  0  0  0  0  0  0  0  0
   -1.5750   23.6280  -30.1150 N   0  0  0  0  0  0  0  0  0  0  0  0
   -1.8230   24.5810  -28.6880 S   0  0  0  0  0  0  0  0  0  0  0  0
   -3.2680   24.5240  -28.2790 O   0  0  0  0  0  0  0  0  0  0  0  0
   -1.4210   26.0060  -28.9460 O   0  0  0  0  0  0  0  0  0  0  0  0
   -0.8260   23.9140  -27.3730 C   0  0  0  0  0  0  0  0  0  0  0  0
    0.0480   22.9740  -27.8840 F   0  0  0  0  0  0  0  0  0  0  0  0
   -0.1050   24.9320  -26.7780 F   0  0  0  0  0  0  0  0  0  0  0  0
   -1.6400   23.3170  -26.4310 F   0  0  0  0  0  0  0  0  0  0  0  0
   -1.8170   21.5180  -31.3050 C   0  0  0  0  0  0  0  0  0  0  0  0
   -2.4483   20.6620  -31.5854 H   0  0  0  0  0  0  0  0  0  0  0  0
   -0.5230   21.5920  -31.8040 O   0  0  0  0  0  0  0  0  0  0  0  0
  1  2  1  0
  2  3  1  0
  3  4  2  0
  3  5  1  0
  5  6  2  0
  6  7  1  0
  6  8  1  0
  8  9  2  0
  9 10  1  0
  9 11  1  0
 11 12  1  0
 11 13  2  0
 13 14  1  0
 14 15  1  0
 14 16  1  0
 14 17  1  0
 13 18  1  0
 18 19  1  0
 18 20  2  0
 20 21  1  0
 21 22  1  0
 22 23  2  0
 22 24  1  0
 24 25  1  0
 25 26  1  0
 26 27  2  0
 26 28  2  0
 26 29  1  0
 29 30  1  0
 29 31  1  0
 29 32  1  0
 24 33  2  0
 33 34  1  0
 33 35  1  0
 21  5  1  0
 20  8  1  0
M  CHG  3   2  -1  25  -1  35  -1
M  END
>  <UniqueID>  (27) 
27

>  <SMILES>  (27) 
[NH-]C(=O)c1cc2ccc(C(F)F)cc2n1C(=O)/C(=C/[O-])[N-]S(=O)(=O)C(F)(F)F

>  <Energy>  (27) 
75.68914864040143

>  <Genealogy>  (27) 
[NH-]C(=O)c1cc2ccc(C(F)F)cc2n1C(=O)/C(=C/[O-])[N-]S(=O)(=O)C(F)(F)F (protonated)
[NH-]C(=O)c1cc2ccc(C(F)F)cc2n1C(=O)/C(=C/[O-])[N-]S(=O)(=O)C(F)(F)F (cis-trans isomerization)
[NH-]C(=O)c1cc2ccc(C(F)F)cc2n1C(=O)/C(=C/[O-])[N-]S(=O)(=O)C(F)(F)F (3D coordinates assigned)
[NH-]C(=O)c1cc2ccc(C(F)F)cc2n1C(=O)/C(=C/[O-])[N-]S(=O)(=O)C(F)(F)F (optimized conformer: 75.68914864040143 kcal/mol)

>  <smiles>  (27) 
NC(=O)c1cc2ccc(C(F)F)cc2n1C(=O)/C(=C/O)NS(=O)(=O)C(F)(F)F

>  <score_type>  (27) 
oracle

>  <origin>  (27) 
adg

>  <m_score__min__energy>  (27) 
-11.34

>  <m_primary>  (27) 
energy

$$$$
27:0
     RDKit          3D

 43 44  0  0  0  0  0  0  0  0999 V2000
   -7.2410   17.9900  -32.4780 C   0  0  0  0  0  0  0  0  0  0  0  0
   -7.3650   19.4570  -32.1960 C   0  0  0  0  0  0  0  0  0  0  0  0
   -8.5870   20.1280  -32.4530 C   0  0  0  0  0  0  0  0  0  0  0  0
   -8.7300   21.4950  -32.1530 C   0  0  0  0  0  0  0  0  0  0  0  0
   -7.6400   22.1570  -31.5960 C   0  0  0  0  0  0  0  0  0  0  0  0
   -7.5120   23.4640  -31.1790 C   0  0  0  0  0  0  0  0  0  0  0  0
   -6.2160   23.5660  -30.6670 C   0  0  0  0  0  0  0  0  0  0  0  0
   -5.6240   24.7980  -30.0880 C   0  0  0  0  0  0  0  0  0  0  0  0
   -4.5190   24.7360  -29.1830 N   0  0  0  0  0  0  0  0  0  0  0  0
   -6.0990   25.9260  -30.3860 O   0  0  0  0  0  0  0  0  0  0  0  0
   -5.5720   22.3720  -30.7860 N   0  0  0  0  0  0  0  0  0  0  0  0
   -4.2490   22.0440  -30.3360 C   0  0  0  0  0  0  0  0  0  0  0  0
   -4.0970   21.5990  -29.1650 O   0  0  0  0  0  0  0  0  0  0  0  0
   -3.1040   22.2180  -31.1970 N   0  0  0  0  0  0  0  0  0  0  0  0
   -3.2210   21.8630  -32.6140 C   0  0  0  0  0  0  0  0  0  0  0  0
   -1.8180   22.6900  -30.6640 C   0  0  0  0  0  0  0  0  0  0  0  0
   -2.0170   23.4080  -29.3660 C   0  0  0  0  0  0  0  0  0  0  0  0
   -2.1860   22.7490  -28.3050 O   0  0  0  0  0  0  0  0  0  0  0  0
   -2.0580   24.8380  -29.3490 N   0  0  0  0  0  0  0  0  0  0  0  0
   -1.4050   25.6690  -28.3410 C   0  0  0  0  0  0  0  0  0  0  0  0
   -1.9810   25.4080  -26.9480 C   0  0  0  0  0  0  0  0  0  0  0  0
   -3.2110   24.7420  -27.0290 O   0  0  0  0  0  0  0  0  0  0  0  0
   -6.4570   21.5190  -31.3400 C   0  0  0  0  0  0  0  0  0  0  0  0
   -6.2880   20.1590  -31.6130 C   0  0  0  0  0  0  0  0  0  0  0  0
   -7.1942   17.4368  -31.5284 H   0  0  0  0  0  0  0  0  0  0  0  0
   -8.1138   17.6527  -33.0563 H   0  0  0  0  0  0  0  0  0  0  0  0
   -6.3239   17.8040  -33.0563 H   0  0  0  0  0  0  0  0  0  0  0  0
   -9.4310   19.5749  -32.8909 H   0  0  0  0  0  0  0  0  0  0  0  0
   -9.6737   22.0239  -32.3524 H   0  0  0  0  0  0  0  0  0  0  0  0
   -8.2699   24.2591  -31.2369 H   0  0  0  0  0  0  0  0  0  0  0  0
   -4.0760   23.8340  -28.9070 H   0  0  0  0  0  0  0  0  0  0  0  0
   -4.1290   25.6160  -28.7790 H   0  0  0  0  0  0  0  0  0  0  0  0
   -3.5642   20.8218  -32.7040 H   0  0  0  0  0  0  0  0  0  0  0  0
   -3.9463   22.5315  -33.1008 H   0  0  0  0  0  0  0  0  0  0  0  0
   -2.2403   21.9692  -33.1008 H   0  0  0  0  0  0  0  0  0  0  0  0
   -1.1554   21.8271  -30.5018 H   0  0  0  0  0  0  0  0  0  0  0  0
   -1.3678   23.3850  -31.3881 H   0  0  0  0  0  0  0  0  0  0  0  0
   -0.3287   25.4422  -28.3320 H   0  0  0  0  0  0  0  0  0  0  0  0
   -1.5779   26.7249  -28.5962 H   0  0  0  0  0  0  0  0  0  0  0  0
   -1.2738   24.7887  -26.3767 H   0  0  0  0  0  0  0  0  0  0  0  0
   -2.1387   26.3748  -26.4477 H   0  0  0  0  0  0  0  0  0  0  0  0
   -3.0790   23.9700  -27.6370 H   0  0  0  0  0  0  0  0  0  0  0  0
   -5.3415   19.6493  -31.3799 H   0  0  0  0  0  0  0  0  0  0  0  0
  1  2  1  0
  2  3  2  0
  3  4  1  0
  4  5  2  0
  5  6  1  0
  6  7  2  0
  7  8  1  0
  8  9  1  0
  8 10  2  0
  7 11  1  0
 11 12  1  0
 12 13  2  0
 12 14  1  0
 14 15  1  0
 14 16  1  0
 16 17  1  0
 17 18  2  0
 17 19  1  0
 19 20  1  0
 20 21  1  0
 21 22  1  0
 11 23  1  0
 23 24  2  0
 24  2  1  0
 23  5  1  0
  1 25  1  0
  1 26  1  0
  1 27  1  0
  3 28  1  0
  4 29  1  0
  6 30  1  0
  9 31  1  0
  9 32  1  0
 15 33  1  0
 15 34  1  0
 15 35  1  0
 16 36  1  0
 16 37  1  0
 20 38  1  0
 20 39  1  0
 21 40  1  0
 21 41  1  0
 22 42  1  0
 24 43  1  0
M  CHG  1  19  -1
M  END
>  <UniqueID>  (28) 
28

>  <SMILES>  (28) 
Cc1ccc2cc(C(N)=O)n(C(=O)N(C)CC(=O)[N-]CCO)c2c1

>  <Energy>  (28) 
73.34856657292458

>  <Genealogy>  (28) 
Cc1ccc2cc(C(N)=O)n(C(=O)N(C)CC(=O)[N-]CCO)c2c1 (protonated)
Cc1ccc2cc(C(N)=O)n(C(=O)N(C)CC(=O)[N-]CCO)c2c1 (3D coordinates assigned)
Cc1ccc2cc(C(N)=O)n(C(=O)N(C)CC(=O)[N-]CCO)c2c1 (optimized conformer: 73.34856657292458 kcal/mol)

>  <smiles>  (28) 
Cc1ccc2cc(C(N)=O)n(C(=O)N(C)CC(=O)NCCO)c2c1

>  <score_type>  (28) 
oracle

>  <origin>  (28) 
adg

>  <m_score__min__energy>  (28) 
-10.31

>  <m_primary>  (28) 
energy

$$$$
28:0
     RDKit          3D

 43 44  0  0  0  0  0  0  0  0999 V2000
   -0.5130   21.9690  -27.0140 C   0  0  0  0  0  0  0  0  0  0  0  0
   -0.9080   23.0560  -27.9170 N   0  0  0  0  0  0  0  0  0  0  0  0
   -0.3280   24.3970  -27.7330 C   0  0  0  0  0  0  0  0  0  0  0  0
   -1.3810   25.4820  -27.9710 C   0  0  0  0  0  0  0  0  0  0  0  0
   -1.2640   26.0110  -29.2640 O   0  0  0  0  0  0  0  0  0  0  0  0
   -1.9030   22.7900  -28.9300 C   0  0  0  0  0  0  0  0  0  0  0  0
   -1.9080   23.4780  -29.9890 O   0  0  0  0  0  0  0  0  0  0  0  0
   -2.9300   21.6980  -28.7590 C   0  0  0  0  0  0  0  0  0  0  0  0
   -2.7840   20.6620  -29.7790 N   0  0  0  0  0  0  0  0  0  0  0  0
   -3.4070   20.7320  -31.0660 C   0  0  0  0  0  0  0  0  0  0  0  0
   -3.4710   19.7060  -31.7960 O   0  0  0  0  0  0  0  0  0  0  0  0
   -3.9890   22.0010  -31.5280 C   0  0  0  0  0  0  0  0  0  0  0  0
   -3.3370   22.7300  -32.3230 O   0  0  0  0  0  0  0  0  0  0  0  0
   -5.2860   22.4220  -31.0800 N   0  0  0  0  0  0  0  0  0  0  0  0
   -5.5930   23.5310  -30.3510 C   0  0  0  0  0  0  0  0  0  0  0  0
   -4.6190   24.4870  -29.7830 C   0  0  0  0  0  0  0  0  0  0  0  0
   -3.8710   25.3380  -30.6470 N   0  0  0  0  0  0  0  0  0  0  0  0
   -4.4540   24.5740  -28.5380 O   0  0  0  0  0  0  0  0  0  0  0  0
   -6.9720   23.6250  -30.1650 C   0  0  0  0  0  0  0  0  0  0  0  0
   -7.5020   22.5310  -30.8110 C   0  0  0  0  0  0  0  0  0  0  0  0
   -8.8290   22.1330  -30.9620 C   0  0  0  0  0  0  0  0  0  0  0  0
   -9.0860   20.9720  -31.7110 C   0  0  0  0  0  0  0  0  0  0  0  0
   -8.0230   20.2410  -32.2960 C   0  0  0  0  0  0  0  0  0  0  0  0
   -8.2990   19.0670  -33.0630 N   0  0  0  0  0  0  0  0  0  0  0  0
   -6.6920   20.6740  -32.1220 C   0  0  0  0  0  0  0  0  0  0  0  0
   -6.4640   21.8230  -31.3580 C   0  0  0  0  0  0  0  0  0  0  0  0
   -0.6323   22.2972  -25.9709 H   0  0  0  0  0  0  0  0  0  0  0  0
   -1.1494   21.0907  -27.1971 H   0  0  0  0  0  0  0  0  0  0  0  0
    0.5388   21.7042  -27.1971 H   0  0  0  0  0  0  0  0  0  0  0  0
    0.0558   24.4861  -26.7060 H   0  0  0  0  0  0  0  0  0  0  0  0
    0.4870   24.5313  -28.4594 H   0  0  0  0  0  0  0  0  0  0  0  0
   -2.3833   25.0455  -27.8488 H   0  0  0  0  0  0  0  0  0  0  0  0
   -1.2258   26.2913  -27.2424 H   0  0  0  0  0  0  0  0  0  0  0  0
   -2.0370   25.6680  -29.7830 H   0  0  0  0  0  0  0  0  0  0  0  0
   -2.8051   21.2420  -27.7658 H   0  0  0  0  0  0  0  0  0  0  0  0
   -3.9298   22.1450  -28.8613 H   0  0  0  0  0  0  0  0  0  0  0  0
   -2.8270   25.3080  -30.6590 H   0  0  0  0  0  0  0  0  0  0  0  0
   -7.5196   24.4069  -29.6184 H   0  0  0  0  0  0  0  0  0  0  0  0
   -9.6493   22.7093  -30.5093 H   0  0  0  0  0  0  0  0  0  0  0  0
  -10.1222   20.6277  -31.8442 H   0  0  0  0  0  0  0  0  0  0  0  0
   -9.0460   19.0690  -33.7940 H   0  0  0  0  0  0  0  0  0  0  0  0
   -7.7590   18.1870  -32.9070 H   0  0  0  0  0  0  0  0  0  0  0  0
   -5.8552   20.1224  -32.5753 H   0  0  0  0  0  0  0  0  0  0  0  0
  1  2  1  0
  2  3  1  0
  3  4  1  0
  4  5  1  0
  2  6  1  0
  6  7  2  0
  6  8  1  0
  8  9  1  0
  9 10  1  0
 10 11  2  0
 10 12  1  0
 12 13  2  0
 12 14  1  0
 14 15  1  0
 15 16  1  0
 16 17  1  0
 16 18  2  0
 15 19  2  0
 19 20  1  0
 20 21  2  0
 21 22  1  0
 22 23  2  0
 23 24  1  0
 23 25  1  0
 25 26  2  0
 26 14  1  0
 26 20  1  0
  1 27  1  0
  1 28  1  0
  1 29  1  0
  3 30  1  0
  3 31  1  0
  4 32  1  0
  4 33  1  0
  5 34  1  0
  8 35  1  0
  8 36  1  0
 17 37  1  0
 19 38  1  0
 21 39  1  0
 22 40  1  0
 24 41  1  0
 24 42  1  0
 25 43  1  0
M  CHG  2   9  -1  17  -1
M  END
>  <UniqueID>  (29) 
29

>  <SMILES>  (29) 
CN(CCO)C(=O)C[N-]C(=O)C(=O)n1c(C([NH-])=O)cc2ccc(N)cc21

>  <Energy>  (29) 
75.86447747108188

>  <Genealogy>  (29) 
CN(CCO)C(=O)C[N-]C(=O)C(=O)n1c(C([NH-])=O)cc2ccc(N)cc21 (protonated)
CN(CCO)C(=O)C[N-]C(=O)C(=O)n1c(C([NH-])=O)cc2ccc(N)cc21 (3D coordinates assigned)
CN(CCO)C(=O)C[N-]C(=O)C(=O)n1c(C([NH-])=O)cc2ccc(N)cc21 (optimized conformer: 75.86447747108188 kcal/mol)

>  <smiles>  (29) 
CN(CCO)C(=O)CNC(=O)C(=O)n1c(C(N)=O)cc2ccc(N)cc21

>  <score_type>  (29) 
oracle

>  <origin>  (29) 
adg

>  <m_score__min__energy>  (29) 
-10.130000000000001

>  <m_primary>  (29) 
energy

$$$$
29:0
     RDKit          3D

 33 34  0  0  0  0  0  0  0  0999 V2000
   -4.2050   25.5830  -30.6720 N   0  0  0  0  0  0  0  0  0  0  0  0
   -5.5340   25.0790  -30.5380 C   0  0  0  0  0  0  0  0  0  0  0  0
   -6.4360   25.8320  -30.0850 O   0  0  0  0  0  0  0  0  0  0  0  0
   -5.8820   23.7070  -30.9660 C   0  0  0  0  0  0  0  0  0  0  0  0
   -7.1770   23.3060  -31.2810 C   0  0  0  0  0  0  0  0  0  0  0  0
   -7.0650   21.9940  -31.6820 C   0  0  0  0  0  0  0  0  0  0  0  0
   -8.0450   21.0880  -32.0670 C   0  0  0  0  0  0  0  0  0  0  0  0
   -7.6470   19.7760  -32.3750 C   0  0  0  0  0  0  0  0  0  0  0  0
   -6.2780   19.3900  -32.3170 C   0  0  0  0  0  0  0  0  0  0  0  0
   -5.8800   17.9430  -32.5720 C   0  0  0  0  0  0  0  0  0  0  0  0
   -6.1060   17.0110  -31.0720 Cl  0  0  0  0  0  0  0  0  0  0  0  0
   -6.8680   17.1950  -33.8600 Cl  0  0  0  0  0  0  0  0  0  0  0  0
   -4.1760   17.7720  -33.0900 Cl  0  0  0  0  0  0  0  0  0  0  0  0
   -5.3200   20.3410  -31.8790 C   0  0  0  0  0  0  0  0  0  0  0  0
   -5.7450   21.6420  -31.5950 C   0  0  0  0  0  0  0  0  0  0  0  0
   -5.0070   22.6800  -31.1480 N   0  0  0  0  0  0  0  0  0  0  0  0
   -3.6090   22.6350  -30.8150 C   0  0  0  0  0  0  0  0  0  0  0  0
   -2.7560   23.0300  -31.6540 O   0  0  0  0  0  0  0  0  0  0  0  0
   -3.1450   22.0230  -29.5230 C   0  0  0  0  0  0  0  0  0  0  0  0
   -2.7990   23.0990  -28.4870 C   0  0  0  0  0  0  0  0  0  0  0  0
   -1.8790   24.1430  -29.0480 C   0  0  0  0  0  0  0  0  0  0  0  0
   -2.3180   25.2860  -29.3360 O   0  0  0  0  0  0  0  0  0  0  0  0
   -0.5390   23.8480  -29.2600 O   0  0  0  0  0  0  0  0  0  0  0  0
   -3.4750   25.0560  -31.2000 H   0  0  0  0  0  0  0  0  0  0  0  0
   -3.9690   26.5360  -30.3160 H   0  0  0  0  0  0  0  0  0  0  0  0
   -8.0949   23.9093  -31.2220 H   0  0  0  0  0  0  0  0  0  0  0  0
   -9.1013   21.3887  -32.1289 H   0  0  0  0  0  0  0  0  0  0  0  0
   -8.4060   19.0348  -32.6658 H   0  0  0  0  0  0  0  0  0  0  0  0
   -4.2627   20.0596  -31.7651 H   0  0  0  0  0  0  0  0  0  0  0  0
   -3.9455   21.3841  -29.1218 H   0  0  0  0  0  0  0  0  0  0  0  0
   -2.2390   21.4328  -29.7251 H   0  0  0  0  0  0  0  0  0  0  0  0
   -3.7284   23.5854  -28.1559 H   0  0  0  0  0  0  0  0  0  0  0  0
   -2.2854   22.6093  -27.6465 H   0  0  0  0  0  0  0  0  0  0  0  0
  1  2  1  0
  2  3  2  0
  2  4  1  0
  4  5  2  0
  5  6  1  0
  6  7  2  0
  7  8  1  0
  8  9  2  0
  9 10  1  0
 10 11  1  0
 10 12  1  0
 10 13  1  0
  9 14  1  0
 14 15  2  0
 15 16  1  0
 16 17  1  0
 17 18  2  0
 17 19  1  0
 19 20  1  0
 20 21  1  0
 21 22  2  0
 21 23  1  0
 16  4  1  0
 15  6  1  0
  1 24  1  0
  1 25  1  0
  5 26  1  0
  7 27  1  0
  8 28  1  0
 14 29  1  0
 19 30  1  0
 19 31  1  0
 20 32  1  0
 20 33  1  0
M  CHG  1  23  -1
M  END
>  <UniqueID>  (30) 
30

>  <SMILES>  (30) 
NC(=O)c1cc2ccc(C(Cl)(Cl)Cl)cc2n1C(=O)CCC(=O)[O-]

>  <Energy>  (30) 
72.42925793917026

>  <Genealogy>  (30) 
NC(=O)c1cc2ccc(C(Cl)(Cl)Cl)cc2n1C(=O)CCC(=O)[O-] (protonated)
NC(=O)c1cc2ccc(C(Cl)(Cl)Cl)cc2n1C(=O)CCC(=O)[O-] (3D coordinates assigned)
NC(=O)c1cc2ccc(C(Cl)(Cl)Cl)cc2n1C(=O)CCC(=O)[O-] (optimized conformer: 72.42925793917026 kcal/mol)

>  <smiles>  (30) 
NC(=O)c1cc2ccc(C(Cl)(Cl)Cl)cc2n1C(=O)CCC(=O)O

>  <score_type>  (30) 
oracle

>  <origin>  (30) 
adg

>  <m_score__min__energy>  (30) 
-11.630000000000001

>  <m_primary>  (30) 
energy

$$$$
30:0
     RDKit          3D

 39 40  0  0  0  0  0  0  0  0999 V2000
   -3.7740   22.6640  -28.6300 C   0  0  0  0  0  0  0  0  0  0  0  0
   -3.1150   23.1230  -29.8660 N   0  0  1  0  0  0  0  0  0  0  0  0
   -1.6810   22.7390  -29.9020 C   0  0  0  0  0  0  0  0  0  0  0  0
   -0.8810   23.2430  -28.6850 C   0  0  0  0  0  0  0  0  0  0  0  0
   -0.6880   24.7280  -28.7150 C   0  0  0  0  0  0  0  0  0  0  0  0
    0.3210   25.2480  -28.1690 O   0  0  0  0  0  0  0  0  0  0  0  0
   -1.6370   25.5400  -29.3240 O   0  0  0  0  0  0  0  0  0  0  0  0
   -3.8260   22.5620  -30.9960 C   0  0  0  0  0  0  0  0  0  0  0  0
   -3.2700   21.7060  -31.7400 O   0  0  0  0  0  0  0  0  0  0  0  0
   -5.2220   22.8440  -31.1800 N   0  0  0  0  0  0  0  0  0  0  0  0
   -5.8970   23.9880  -30.8810 C   0  0  0  0  0  0  0  0  0  0  0  0
   -5.2890   25.2650  -30.4550 C   0  0  0  0  0  0  0  0  0  0  0  0
   -3.9830   25.6310  -30.8870 N   0  0  0  0  0  0  0  0  0  0  0  0
   -5.9470   26.0620  -29.7340 O   0  0  0  0  0  0  0  0  0  0  0  0
   -7.2630   23.8200  -31.1000 C   0  0  0  0  0  0  0  0  0  0  0  0
   -7.4030   22.5260  -31.5530 C   0  0  0  0  0  0  0  0  0  0  0  0
   -8.5450   21.8220  -31.9200 C   0  0  0  0  0  0  0  0  0  0  0  0
   -8.3920   20.4860  -32.3280 C   0  0  0  0  0  0  0  0  0  0  0  0
   -7.1100   19.8790  -32.3490 C   0  0  0  0  0  0  0  0  0  0  0  0
   -6.9560   18.4570  -32.8070 C   0  0  0  0  0  0  0  0  0  0  0  0
   -6.1350   18.4080  -34.0220 C   0  0  0  0  0  0  0  0  0  0  0  0
   -5.4880   18.3710  -34.9800 N   0  0  0  0  0  0  0  0  0  0  0  0
   -5.9720   20.6310  -31.9800 C   0  0  0  0  0  0  0  0  0  0  0  0
   -6.1560   21.9620  -31.5910 C   0  0  0  0  0  0  0  0  0  0  0  0
   -3.2243   23.0469  -27.7575 H   0  0  0  0  0  0  0  0  0  0  0  0
   -4.8081   23.0383  -28.6051 H   0  0  0  0  0  0  0  0  0  0  0  0
   -3.7814   21.5643  -28.6051 H   0  0  0  0  0  0  0  0  0  0  0  0
   -3.2040   24.1630  -29.9130 H   0  0  0  0  0  0  0  0  0  0  0  0
   -1.6147   21.6414  -29.9324 H   0  0  0  0  0  0  0  0  0  0  0  0
   -1.2421   23.2073  -30.7953 H   0  0  0  0  0  0  0  0  0  0  0  0
   -1.4243   22.9742  -27.7671 H   0  0  0  0  0  0  0  0  0  0  0  0
    0.1123   22.7711  -28.7128 H   0  0  0  0  0  0  0  0  0  0  0  0
   -3.1340   25.2860  -30.3850 H   0  0  0  0  0  0  0  0  0  0  0  0
   -8.0598   24.5622  -30.9444 H   0  0  0  0  0  0  0  0  0  0  0  0
   -9.5371   22.2963  -31.8918 H   0  0  0  0  0  0  0  0  0  0  0  0
   -9.2747   19.9054  -32.6340 H   0  0  0  0  0  0  0  0  0  0  0  0
   -6.4694   17.8696  -32.0145 H   0  0  0  0  0  0  0  0  0  0  0  0
   -7.9494   18.0379  -33.0250 H   0  0  0  0  0  0  0  0  0  0  0  0
   -4.9681   20.1817  -31.9982 H   0  0  0  0  0  0  0  0  0  0  0  0
  1  2  1  0
  2  3  1  0
  3  4  1  0
  4  5  1  0
  5  6  2  0
  5  7  1  0
  2  8  1  0
  8  9  2  0
  8 10  1  0
 10 11  1  0
 11 12  1  0
 12 13  1  0
 12 14  2  0
 11 15  2  0
 15 16  1  0
 16 17  2  0
 17 18  1  0
 18 19  2  0
 19 20  1  0
 20 21  1  0
 21 22  3  0
 19 23  1  0
 23 24  2  0
 24 10  1  0
 24 16  1  0
  1 25  1  0
  1 26  1  0
  1 27  1  0
  2 28  1  6
  3 29  1  0
  3 30  1  0
  4 31  1  0
  4 32  1  0
 13 33  1  0
 15 34  1  0
 17 35  1  0
 18 36  1  0
 20 37  1  0
 20 38  1  0
 23 39  1  0
M  CHG  3   2   1   7  -1  13  -1
M  END
>  <UniqueID>  (31) 
31

>  <SMILES>  (31) 
C[N@@H+](CCC(=O)[O-])C(=O)n1c(C([NH-])=O)cc2ccc(CC#N)cc21

>  <Energy>  (31) 
77.54581363195562

>  <Genealogy>  (31) 
C[NH+](CCC(=O)[O-])C(=O)n1c(C([NH-])=O)cc2ccc(CC#N)cc21 (protonated)
C[N@@H+](CCC(=O)[O-])C(=O)n1c(C([NH-])=O)cc2ccc(CC#N)cc21 (chirality)
C[N@@H+](CCC(=O)[O-])C(=O)n1c(C([NH-])=O)cc2ccc(CC#N)cc21 (3D coordinates assigned)
C[N@@H+](CCC(=O)[O-])C(=O)n1c(C([NH-])=O)cc2ccc(CC#N)cc21 (optimized conformer: 77.54581363195562 kcal/mol)

>  <smiles>  (31) 
CN(CCC(=O)O)C(=O)n1c(C(N)=O)cc2ccc(CC#N)cc21

>  <score_type>  (31) 
oracle

>  <origin>  (31) 
adg

>  <m_score__min__energy>  (31) 
-11.44

>  <m_primary>  (31) 
energy

$$$$
31:0
     RDKit          3D

 41 42  0  0  0  0  0  0  0  0999 V2000
   -7.7220   18.4480  -32.6650 C   0  0  0  0  0  0  0  0  0  0  0  0
   -7.6460   19.8840  -32.2370 C   0  0  0  0  0  0  0  0  0  0  0  0
   -8.7840   20.7180  -32.3570 C   0  0  0  0  0  0  0  0  0  0  0  0
   -8.7370   22.0580  -31.9320 C   0  0  0  0  0  0  0  0  0  0  0  0
   -7.5470   22.5260  -31.3810 C   0  0  0  0  0  0  0  0  0  0  0  0
   -7.2230   23.7740  -30.8990 C   0  0  0  0  0  0  0  0  0  0  0  0
   -5.9020   23.6720  -30.4650 C   0  0  0  0  0  0  0  0  0  0  0  0
   -5.1630   24.7600  -29.7870 C   0  0  0  0  0  0  0  0  0  0  0  0
   -4.3780   25.6900  -30.5360 N   0  0  0  0  0  0  0  0  0  0  0  0
   -5.2350   24.8890  -28.5350 O   0  0  0  0  0  0  0  0  0  0  0  0
   -5.4290   22.4110  -30.6750 N   0  0  0  0  0  0  0  0  0  0  0  0
   -4.1090   21.9100  -30.4060 C   0  0  0  0  0  0  0  0  0  0  0  0
   -3.9720   20.7350  -29.9700 O   0  0  0  0  0  0  0  0  0  0  0  0
   -2.9230   22.7470  -30.6950 C   0  0  0  0  0  0  0  0  0  0  0  0
   -3.0950   23.7940  -31.3770 O   0  0  0  0  0  0  0  0  0  0  0  0
   -1.5960   22.4210  -30.2120 N   0  0  0  0  0  0  0  0  0  0  0  0
   -1.0030   21.1000  -30.4480 C   0  0  0  0  0  0  0  0  0  0  0  0
   -0.9090   23.3450  -29.2980 C   0  0  0  0  0  0  0  0  0  0  0  0
   -1.9090   24.2530  -28.6340 C   0  0  0  0  0  0  0  0  0  0  0  0
   -2.2300   25.2970  -29.1790 O   0  0  0  0  0  0  0  0  0  0  0  0
   -2.5480   23.8800  -27.3260 C   0  0  0  0  0  0  0  0  0  0  0  0
   -3.2870   24.9600  -26.8230 O   0  0  0  0  0  0  0  0  0  0  0  0
   -6.4470   21.7210  -31.2320 C   0  0  0  0  0  0  0  0  0  0  0  0
   -6.4620   20.3880  -31.6550 C   0  0  0  0  0  0  0  0  0  0  0  0
   -7.7562   17.8016  -31.7756 H   0  0  0  0  0  0  0  0  0  0  0  0
   -8.6296   18.2922  -33.2666 H   0  0  0  0  0  0  0  0  0  0  0  0
   -6.8359   18.1973  -33.2666 H   0  0  0  0  0  0  0  0  0  0  0  0
   -9.7129   20.3144  -32.7863 H   0  0  0  0  0  0  0  0  0  0  0  0
   -9.6130   22.7157  -32.0318 H   0  0  0  0  0  0  0  0  0  0  0  0
   -7.8694   24.6634  -30.8637 H   0  0  0  0  0  0  0  0  0  0  0  0
   -3.8710   26.4610  -30.0480 H   0  0  0  0  0  0  0  0  0  0  0  0
   -4.2640   25.5950  -31.5700 H   0  0  0  0  0  0  0  0  0  0  0  0
   -0.7865   20.6177  -29.4834 H   0  0  0  0  0  0  0  0  0  0  0  0
   -1.7083   20.4781  -31.0188 H   0  0  0  0  0  0  0  0  0  0  0  0
   -0.0696   21.2138  -31.0188 H   0  0  0  0  0  0  0  0  0  0  0  0
   -0.3755   22.7669  -28.5291 H   0  0  0  0  0  0  0  0  0  0  0  0
   -0.1942   23.9538  -29.8710 H   0  0  0  0  0  0  0  0  0  0  0  0
   -3.2183   23.0217  -27.4807 H   0  0  0  0  0  0  0  0  0  0  0  0
   -1.7609   23.6164  -26.6042 H   0  0  0  0  0  0  0  0  0  0  0  0
   -3.7030   25.4060  -27.6060 H   0  0  0  0  0  0  0  0  0  0  0  0
   -5.5746   19.7487  -31.5374 H   0  0  0  0  0  0  0  0  0  0  0  0
  1  2  1  0
  2  3  2  0
  3  4  1  0
  4  5  2  0
  5  6  1  0
  6  7  2  0
  7  8  1  0
  8  9  1  0
  8 10  2  0
  7 11  1  0
 11 12  1  0
 12 13  2  0
 12 14  1  0
 14 15  2  0
 14 16  1  0
 16 17  1  0
 16 18  1  0
 18 19  1  0
 19 20  2  0
 19 21  1  0
 21 22  1  0
 11 23  1  0
 23 24  2  0
 24  2  1  0
 23  5  1  0
  1 25  1  0
  1 26  1  0
  1 27  1  0
  3 28  1  0
  4 29  1  0
  6 30  1  0
  9 31  1  0
  9 32  1  0
 17 33  1  0
 17 34  1  0
 17 35  1  0
 18 36  1  0
 18 37  1  0
 21 38  1  0
 21 39  1  0
 22 40  1  0
 24 41  1  0
M  END
>  <UniqueID>  (32) 
32

>  <SMILES>  (32) 
Cc1ccc2cc(C(N)=O)n(C(=O)C(=O)N(C)CC(=O)CO)c2c1

>  <Energy>  (32) 
76.55324659365724

>  <Genealogy>  (32) 
Cc1ccc2cc(C(N)=O)n(C(=O)C(=O)N(C)CC(=O)CO)c2c1 (3D coordinates assigned)
Cc1ccc2cc(C(N)=O)n(C(=O)C(=O)N(C)CC(=O)CO)c2c1 (optimized conformer: 76.55324659365724 kcal/mol)

>  <smiles>  (32) 
Cc1ccc2cc(C(N)=O)n(C(=O)C(=O)N(C)CC(=O)CO)c2c1

>  <score_type>  (32) 
oracle

>  <origin>  (32) 
adg

>  <m_score__min__energy>  (32) 
-8.5700000000000003

>  <m_primary>  (32) 
energy

$$$$
32:0
     RDKit          3D

 44 45  0  0  0  0  0  0  0  0999 V2000
   -0.1560   23.5420  -25.3930 C   0  0  0  0  0  0  0  0  0  0  0  0
   -0.2010   23.5640  -26.8590 N   0  0  0  0  0  0  0  0  0  0  0  0
   -0.4670   22.3090  -27.5780 C   0  0  0  0  0  0  0  0  0  0  0  0
   -1.5590   22.5040  -28.5820 C   0  0  0  0  0  0  0  0  0  0  0  0
   -2.7460   22.1980  -28.2820 O   0  0  0  0  0  0  0  0  0  0  0  0
   -1.2500   23.0190  -29.8460 O   0  0  0  0  0  0  0  0  0  0  0  0
   -1.5780   22.3420  -31.0540 C   0  0  0  0  0  0  0  0  0  0  0  0
   -2.9200   22.6470  -31.4230 O   0  0  0  0  0  0  0  0  0  0  0  0
   -4.0180   21.9260  -30.9470 C   0  0  0  0  0  0  0  0  0  0  0  0
   -3.8470   20.8140  -30.3770 O   0  0  0  0  0  0  0  0  0  0  0  0
   -5.3480   22.4480  -31.1180 N   0  0  0  0  0  0  0  0  0  0  0  0
   -5.7660   23.7300  -30.9260 C   0  0  0  0  0  0  0  0  0  0  0  0
   -4.8970   24.8930  -30.6580 C   0  0  0  0  0  0  0  0  0  0  0  0
   -3.6750   24.7510  -29.9320 N   0  0  0  0  0  0  0  0  0  0  0  0
   -5.2090   26.0210  -31.1250 O   0  0  0  0  0  0  0  0  0  0  0  0
   -7.1480   23.8240  -31.0670 C   0  0  0  0  0  0  0  0  0  0  0  0
   -7.5690   22.5510  -31.3710 C   0  0  0  0  0  0  0  0  0  0  0  0
   -8.8530   22.0640  -31.5920 C   0  0  0  0  0  0  0  0  0  0  0  0
   -9.0040   20.6900  -31.8460 C   0  0  0  0  0  0  0  0  0  0  0  0
   -7.8750   19.8310  -31.8820 C   0  0  0  0  0  0  0  0  0  0  0  0
   -8.0610   18.3500  -32.0930 C   0  0  0  0  0  0  0  0  0  0  0  0
   -9.3850   17.9890  -31.9160 F   0  0  0  0  0  0  0  0  0  0  0  0
   -7.6740   18.0220  -33.3780 F   0  0  0  0  0  0  0  0  0  0  0  0
   -7.2930   17.6320  -31.1930 F   0  0  0  0  0  0  0  0  0  0  0  0
   -6.5900   20.3600  -31.6230 C   0  0  0  0  0  0  0  0  0  0  0  0
   -6.4650   21.7370  -31.3960 C   0  0  0  0  0  0  0  0  0  0  0  0
   -0.1350   24.8060  -27.5990 C   0  0  0  0  0  0  0  0  0  0  0  0
    0.9870   25.3480  -27.7980 O   0  0  0  0  0  0  0  0  0  0  0  0
   -1.3300   25.4860  -28.1410 C   0  0  0  0  0  0  0  0  0  0  0  0
   -1.2330   26.4030  -28.9960 O   0  0  0  0  0  0  0  0  0  0  0  0
   -2.5940   25.0820  -27.7280 O   0  0  0  0  0  0  0  0  0  0  0  0
   -1.0759   23.9917  -24.9911 H   0  0  0  0  0  0  0  0  0  0  0  0
   -0.0736   22.5020  -25.0443 H   0  0  0  0  0  0  0  0  0  0  0  0
    0.7153   24.1158  -25.0443 H   0  0  0  0  0  0  0  0  0  0  0  0
    0.4484   21.9872  -28.0961 H   0  0  0  0  0  0  0  0  0  0  0  0
   -0.7810   21.5428  -26.8539 H   0  0  0  0  0  0  0  0  0  0  0  0
   -0.8956   22.6674  -31.8530 H   0  0  0  0  0  0  0  0  0  0  0  0
   -1.4778   21.2569  -30.9037 H   0  0  0  0  0  0  0  0  0  0  0  0
   -3.3020   23.8070  -29.6860 H   0  0  0  0  0  0  0  0  0  0  0  0
   -3.0950   25.5910  -29.7130 H   0  0  0  0  0  0  0  0  0  0  0  0
   -7.7702   24.7246  -30.9584 H   0  0  0  0  0  0  0  0  0  0  0  0
   -9.7247   22.7346  -31.5687 H   0  0  0  0  0  0  0  0  0  0  0  0
  -10.0083   20.2759  -32.0188 H   0  0  0  0  0  0  0  0  0  0  0  0
   -5.7069   19.7045  -31.6001 H   0  0  0  0  0  0  0  0  0  0  0  0
  1  2  1  0
  2  3  1  0
  3  4  1  0
  4  5  2  0
  4  6  1  0
  6  7  1  0
  7  8  1  0
  8  9  1  0
  9 10  2  0
  9 11  1  0
 11 12  1  0
 12 13  1  0
 13 14  1  0
 13 15  2  0
 12 16  2  0
 16 17  1  0
 17 18  2  0
 18 19  1  0
 19 20  2  0
 20 21  1  0
 21 22  1  0
 21 23  1  0
 21 24  1  0
 20 25  1  0
 25 26  2  0
  2 27  1  0
 27 28  2  0
 27 29  1  0
 29 30  2  0
 29 31  1  0
 26 11  1  0
 26 17  1  0
  1 32  1  0
  1 33  1  0
  1 34  1  0
  3 35  1  0
  3 36  1  0
  7 37  1  0
  7 38  1  0
 14 39  1  0
 14 40  1  0
 16 41  1  0
 18 42  1  0
 19 43  1  0
 25 44  1  0
M  CHG  1  31  -1
M  END
>  <UniqueID>  (33) 
33

>  <SMILES>  (33) 
CN(CC(=O)OCOC(=O)n1c(C(N)=O)cc2ccc(C(F)(F)F)cc21)C(=O)C(=O)[O-]

>  <Energy>  (33) 
79.11699662237123

>  <Genealogy>  (33) 
CN(CC(=O)OCOC(=O)n1c(C(N)=O)cc2ccc(C(F)(F)F)cc21)C(=O)C(=O)[O-] (protonated)
CN(CC(=O)OCOC(=O)n1c(C(N)=O)cc2ccc(C(F)(F)F)cc21)C(=O)C(=O)[O-] (3D coordinates assigned)
CN(CC(=O)OCOC(=O)n1c(C(N)=O)cc2ccc(C(F)(F)F)cc21)C(=O)C(=O)[O-] (optimized conformer: 79.11699662237123 kcal/mol)

>  <smiles>  (33) 
CN(CC(=O)OCOC(=O)n1c(C(N)=O)cc2ccc(C(F)(F)F)cc21)C(=O)C(=O)O

>  <score_type>  (33) 
oracle

>  <origin>  (33) 
adg

>  <m_score__min__energy>  (33) 
-10

>  <m_primary>  (33) 
energy

$$$$
33:0
     RDKit          3D

 31 32  0  0  0  0  0  0  0  0999 V2000
   -1.6130   25.6930  -28.9500 N   0  0  0  0  0  0  0  0  0  0  0  0
   -1.0580   24.4010  -29.1890 C   0  0  0  0  0  0  0  0  0  0  0  0
    0.1040   24.1440  -28.7780 O   0  0  0  0  0  0  0  0  0  0  0  0
   -1.8040   23.3830  -29.9580 C   0  0  0  0  0  0  0  0  0  0  0  0
   -1.2480   22.1710  -30.3610 C   0  0  0  0  0  0  0  0  0  0  0  0
   -2.2180   21.5580  -31.1190 C   0  0  0  0  0  0  0  0  0  0  0  0
   -2.2030   20.3260  -31.7650 C   0  0  0  0  0  0  0  0  0  0  0  0
   -3.3590   19.9310  -32.4580 C   0  0  0  0  0  0  0  0  0  0  0  0
   -4.5060   20.7620  -32.4800 C   0  0  0  0  0  0  0  0  0  0  0  0
   -5.7350   20.3390  -33.2450 C   0  0  0  0  0  0  0  0  0  0  0  0
   -5.5830   18.9240  -33.8340 C   0  0  2  0  0  0  0  0  0  0  0  0
   -6.1150   18.8910  -35.1970 N   0  0  0  0  0  0  0  0  0  0  0  0
   -6.3040   17.9120  -32.9840 C   0  0  0  0  0  0  0  0  0  0  0  0
   -6.0850   17.8480  -31.7450 O   0  0  0  0  0  0  0  0  0  0  0  0
   -7.1900   17.0180  -33.5720 O   0  0  0  0  0  0  0  0  0  0  0  0
   -4.4820   22.0090  -31.8180 C   0  0  0  0  0  0  0  0  0  0  0  0
   -3.3100   22.3860  -31.1520 C   0  0  0  0  0  0  0  0  0  0  0  0
   -3.0730   23.5110  -30.4410 N   0  0  0  0  0  0  0  0  0  0  0  0
   -4.0120   24.5690  -30.1860 C   0  0  0  0  0  0  0  0  0  0  0  0
   -3.9040   25.6730  -30.7810 O   0  0  0  0  0  0  0  0  0  0  0  0
   -5.0330   24.3930  -29.2600 O   0  0  0  0  0  0  0  0  0  0  0  0
   -2.6430   25.8510  -29.0020 H   0  0  0  0  0  0  0  0  0  0  0  0
   -0.2454   21.7858  -30.1233 H   0  0  0  0  0  0  0  0  0  0  0  0
   -1.3127   19.6807  -31.7340 H   0  0  0  0  0  0  0  0  0  0  0  0
   -3.3738   18.9675  -32.9885 H   0  0  0  0  0  0  0  0  0  0  0  0
   -6.5994   20.3506  -32.5648 H   0  0  0  0  0  0  0  0  0  0  0  0
   -5.8783   21.0427  -34.0782 H   0  0  0  0  0  0  0  0  0  0  0  0
   -4.5130   18.6694  -33.8518 H   0  0  0  0  0  0  0  0  0  0  0  0
   -6.8620   19.6200  -35.2760 H   0  0  0  0  0  0  0  0  0  0  0  0
   -6.5950   17.9730  -35.3430 H   0  0  0  0  0  0  0  0  0  0  0  0
   -5.3627   22.6680  -31.8255 H   0  0  0  0  0  0  0  0  0  0  0  0
  1  2  1  0
  2  3  2  0
  2  4  1  0
  4  5  2  0
  5  6  1  0
  6  7  2  0
  7  8  1  0
  8  9  2  0
  9 10  1  0
 10 11  1  0
 11 12  1  0
 11 13  1  0
 13 14  2  0
 13 15  1  0
  9 16  1  0
 16 17  2  0
 17 18  1  0
 18 19  1  0
 19 20  2  0
 19 21  1  0
 18  4  1  0
 17  6  1  0
  1 22  1  0
  5 23  1  0
  7 24  1  0
  8 25  1  0
 10 26  1  0
 10 27  1  0
 11 28  1  6
 12 29  1  0
 12 30  1  0
 16 31  1  0
M  CHG  3   1  -1  15  -1  21  -1
M  END
>  <UniqueID>  (34) 
34

>  <SMILES>  (34) 
[NH-]C(=O)c1cc2ccc(C[C@H](N)C(=O)[O-])cc2n1C(=O)[O-]

>  <Energy>  (34) 
68.06986445535097

>  <Genealogy>  (34) 
[NH-]C(=O)c1cc2ccc(C[C@H](N)C(=O)[O-])cc2n1C(=O)[O-] (protonated)
[NH-]C(=O)c1cc2ccc(C[C@H](N)C(=O)[O-])cc2n1C(=O)[O-] (3D coordinates assigned)
[NH-]C(=O)c1cc2ccc(C[C@H](N)C(=O)[O-])cc2n1C(=O)[O-] (optimized conformer: 68.06986445535097 kcal/mol)

>  <smiles>  (34) 
NC(=O)c1cc2ccc(C[C@H](N)C(=O)O)cc2n1C(=O)O

>  <score_type>  (34) 
oracle

>  <origin>  (34) 
adg

>  <m_score__min__energy>  (34) 
-10.77

>  <m_primary>  (34) 
energy

$$$$
34:0
     RDKit          3D

 42 43  0  0  0  0  0  0  0  0999 V2000
   -0.8680   26.1300  -27.8350 C   0  0  0  0  0  0  0  0  0  0  0  0
   -1.9540   25.1710  -27.6150 N   0  0  0  0  0  0  0  0  0  0  0  0
   -2.7360   25.2250  -26.3750 C   0  0  0  0  0  0  0  0  0  0  0  0
   -2.2190   24.1710  -28.6250 C   0  0  0  0  0  0  0  0  0  0  0  0
   -1.5320   24.1590  -29.6830 O   0  0  0  0  0  0  0  0  0  0  0  0
   -3.2710   23.1050  -28.4480 C   0  0  0  0  0  0  0  0  0  0  0  0
   -3.2470   22.1630  -29.5750 N   0  0  0  0  0  0  0  0  0  0  0  0
   -2.8380   20.7690  -29.3730 C   0  0  0  0  0  0  0  0  0  0  0  0
   -3.7490   22.5630  -30.8650 C   0  0  0  0  0  0  0  0  0  0  0  0
   -2.9630   22.6800  -31.8420 O   0  0  0  0  0  0  0  0  0  0  0  0
   -5.1480   22.8120  -31.0550 N   0  0  0  0  0  0  0  0  0  0  0  0
   -5.8120   23.9970  -30.9600 C   0  0  0  0  0  0  0  0  0  0  0  0
   -5.2220   25.2890  -30.5490 C   0  0  0  0  0  0  0  0  0  0  0  0
   -3.8630   25.6040  -30.8420 N   0  0  0  0  0  0  0  0  0  0  0  0
   -5.9220   26.1210  -29.9130 O   0  0  0  0  0  0  0  0  0  0  0  0
   -7.1640   23.8180  -31.2540 C   0  0  0  0  0  0  0  0  0  0  0  0
   -7.3030   22.4750  -31.5350 C   0  0  0  0  0  0  0  0  0  0  0  0
   -8.4290   21.7410  -31.8950 C   0  0  0  0  0  0  0  0  0  0  0  0
   -8.2700   20.3640  -32.1310 C   0  0  0  0  0  0  0  0  0  0  0  0
   -6.9960   19.7530  -32.0160 C   0  0  0  0  0  0  0  0  0  0  0  0
   -6.8420   18.2830  -32.2790 C   0  0  0  0  0  0  0  0  0  0  0  0
   -6.1060   17.7020  -31.2620 F   0  0  0  0  0  0  0  0  0  0  0  0
   -8.0890   17.6860  -32.3390 F   0  0  0  0  0  0  0  0  0  0  0  0
   -5.8760   20.5320  -31.6540 C   0  0  0  0  0  0  0  0  0  0  0  0
   -6.0690   21.8950  -31.4070 C   0  0  0  0  0  0  0  0  0  0  0  0
   -0.4796   26.4730  -26.8647 H   0  0  0  0  0  0  0  0  0  0  0  0
   -0.0601   25.6452  -28.4027 H   0  0  0  0  0  0  0  0  0  0  0  0
   -1.2491   26.9917  -28.4027 H   0  0  0  0  0  0  0  0  0  0  0  0
   -2.0569   25.1781  -25.5109 H   0  0  0  0  0  0  0  0  0  0  0  0
   -3.3069   26.1647  -26.3421 H   0  0  0  0  0  0  0  0  0  0  0  0
   -3.4306   24.3727  -26.3421 H   0  0  0  0  0  0  0  0  0  0  0  0
   -3.0767   22.5568  -27.5144 H   0  0  0  0  0  0  0  0  0  0  0  0
   -4.2597   23.5855  -28.4083 H   0  0  0  0  0  0  0  0  0  0  0  0
   -2.7760   20.5576  -28.2953 H   0  0  0  0  0  0  0  0  0  0  0  0
   -3.5775   20.0991  -29.8361 H   0  0  0  0  0  0  0  0  0  0  0  0
   -1.8538   20.6048  -29.8361 H   0  0  0  0  0  0  0  0  0  0  0  0
   -3.1460   24.8500  -30.9340 H   0  0  0  0  0  0  0  0  0  0  0  0
   -7.9521   24.5854  -31.2603 H   0  0  0  0  0  0  0  0  0  0  0  0
   -9.4130   22.2230  -31.9920 H   0  0  0  0  0  0  0  0  0  0  0  0
   -9.1430   19.7547  -32.4077 H   0  0  0  0  0  0  0  0  0  0  0  0
   -6.3207   18.1418  -33.2373 H   0  0  0  0  0  0  0  0  0  0  0  0
   -4.8773   20.0789  -31.5684 H   0  0  0  0  0  0  0  0  0  0  0  0
  1  2  1  0
  2  3  1  0
  2  4  1  0
  4  5  2  0
  4  6  1  0
  6  7  1  0
  7  8  1  0
  7  9  1  0
  9 10  2  0
  9 11  1  0
 11 12  1  0
 12 13  1  0
 13 14  1  0
 13 15  2  0
 12 16  2  0
 16 17  1  0
 17 18  2  0
 18 19  1  0
 19 20  2  0
 20 21  1  0
 21 22  1  0
 21 23  1  0
 20 24  1  0
 24 25  2  0
 25 11  1  0
 25 17  1  0
  1 26  1  0
  1 27  1  0
  1 28  1  0
  3 29  1  0
  3 30  1  0
  3 31  1  0
  6 32  1  0
  6 33  1  0
  8 34  1  0
  8 35  1  0
  8 36  1  0
 14 37  1  0
 16 38  1  0
 18 39  1  0
 19 40  1  0
 21 41  1  0
 24 42  1  0
M  CHG  1  14  -1
M  END
>  <UniqueID>  (35) 
35

>  <SMILES>  (35) 
CN(C)C(=O)CN(C)C(=O)n1c(C([NH-])=O)cc2ccc(C(F)F)cc21

>  <Energy>  (35) 
74.18895286094937

>  <Genealogy>  (35) 
CN(C)C(=O)CN(C)C(=O)n1c(C([NH-])=O)cc2ccc(C(F)F)cc21 (protonated)
CN(C)C(=O)CN(C)C(=O)n1c(C([NH-])=O)cc2ccc(C(F)F)cc21 (3D coordinates assigned)
CN(C)C(=O)CN(C)C(=O)n1c(C([NH-])=O)cc2ccc(C(F)F)cc21 (optimized conformer: 74.18895286094937 kcal/mol)

>  <smiles>  (35) 
CN(C)C(=O)CN(C)C(=O)n1c(C(N)=O)cc2ccc(C(F)F)cc21

>  <score_type>  (35) 
oracle

>  <origin>  (35) 
adg

>  <m_score__min__energy>  (35) 
-10.210000000000001

>  <m_primary>  (35) 
energy

$$$$
35:0
     RDKit          3D

 38 40  0  0  0  0  0  0  0  0999 V2000
   -1.4260   25.8960  -28.9380 N   0  0  0  0  0  0  0  0  0  0  0  0
   -0.8550   24.5940  -29.0380 C   0  0  0  0  0  0  0  0  0  0  0  0
    0.1870   24.3260  -28.3800 O   0  0  0  0  0  0  0  0  0  0  0  0
   -1.4980   23.5400  -29.8490 C   0  0  0  0  0  0  0  0  0  0  0  0
   -0.8300   22.4000  -30.2910 C   0  0  0  0  0  0  0  0  0  0  0  0
   -1.7880   21.6360  -30.9180 C   0  0  0  0  0  0  0  0  0  0  0  0
   -1.6730   20.4070  -31.5560 C   0  0  0  0  0  0  0  0  0  0  0  0
   -2.8270   19.8580  -32.1390 C   0  0  0  0  0  0  0  0  0  0  0  0
   -4.0740   20.5360  -32.0690 C   0  0  0  0  0  0  0  0  0  0  0  0
   -5.2620   19.9450  -32.6570 N   0  0  0  0  0  0  0  0  0  0  0  0
   -5.8270   18.7950  -31.9020 C   0  0  1  0  0  0  0  0  0  0  0  0
   -7.3550   18.6650  -32.0340 C   0  0  0  0  0  0  0  0  0  0  0  0
   -7.5860   17.5990  -33.1030 C   0  0  0  0  0  0  0  0  0  0  0  0
   -6.3280   16.8830  -33.2110 N   0  0  0  0  0  0  0  0  0  0  0  0
   -6.1380   15.7530  -34.0720 C   0  0  0  0  0  0  0  0  0  0  0  0
   -5.0390   15.5790  -34.6620 O   0  0  0  0  0  0  0  0  0  0  0  0
   -7.1690   14.8410  -34.2660 O   0  0  0  0  0  0  0  0  0  0  0  0
   -5.2810   17.4420  -32.3730 C   0  0  0  0  0  0  0  0  0  0  0  0
   -4.1340   21.8070  -31.4460 C   0  0  0  0  0  0  0  0  0  0  0  0
   -2.9760   22.3150  -30.8490 C   0  0  0  0  0  0  0  0  0  0  0  0
   -2.8140   23.4890  -30.1980 N   0  0  0  0  0  0  0  0  0  0  0  0
   -3.8170   24.4990  -29.9990 C   0  0  0  0  0  0  0  0  0  0  0  0
   -4.6670   24.3780  -29.0780 O   0  0  0  0  0  0  0  0  0  0  0  0
   -3.8760   25.6050  -30.8380 O   0  0  0  0  0  0  0  0  0  0  0  0
   -2.4600   26.0340  -28.9800 H   0  0  0  0  0  0  0  0  0  0  0  0
    0.2364   22.1612  -30.1655 H   0  0  0  0  0  0  0  0  0  0  0  0
   -0.7084   19.8804  -31.6030 H   0  0  0  0  0  0  0  0  0  0  0  0
   -2.7646   18.8896  -32.6570 H   0  0  0  0  0  0  0  0  0  0  0  0
   -5.9980   20.6820  -32.7590 H   0  0  0  0  0  0  0  0  0  0  0  0
   -5.0410   19.6240  -33.6280 H   0  0  0  0  0  0  0  0  0  0  0  0
   -5.5317   19.0178  -30.8661 H   0  0  0  0  0  0  0  0  0  0  0  0
   -7.7977   18.3514  -31.0771 H   0  0  0  0  0  0  0  0  0  0  0  0
   -7.8228   19.6226  -32.3065 H   0  0  0  0  0  0  0  0  0  0  0  0
   -8.3926   16.9162  -32.7977 H   0  0  0  0  0  0  0  0  0  0  0  0
   -7.8888   18.0415  -34.0635 H   0  0  0  0  0  0  0  0  0  0  0  0
   -5.0824   16.7852  -31.5133 H   0  0  0  0  0  0  0  0  0  0  0  0
   -4.3303   17.5474  -32.9162 H   0  0  0  0  0  0  0  0  0  0  0  0
   -5.0716   22.3820  -31.4322 H   0  0  0  0  0  0  0  0  0  0  0  0
  1  2  1  0
  2  3  2  0
  2  4  1  0
  4  5  2  0
  5  6  1  0
  6  7  2  0
  7  8  1  0
  8  9  2  0
  9 10  1  0
 10 11  1  0
 11 12  1  0
 12 13  1  0
 13 14  1  0
 14 15  1  0
 15 16  2  0
 15 17  1  0
 14 18  1  0
  9 19  1  0
 19 20  2  0
 20 21  1  0
 21 22  1  0
 22 23  2  0
 22 24  1  0
 21  4  1  0
 20  6  1  0
 18 11  1  0
  1 25  1  0
  5 26  1  0
  7 27  1  0
  8 28  1  0
 10 29  1  0
 10 30  1  0
 11 31  1  1
 12 32  1  0
 12 33  1  0
 13 34  1  0
 13 35  1  0
 18 36  1  0
 18 37  1  0
 19 38  1  0
M  CHG  4   1  -1  10   1  17  -1  24  -1
M  END
>  <UniqueID>  (36) 
36

>  <SMILES>  (36) 
[NH-]C(=O)c1cc2ccc([NH2+][C@H]3CCN(C(=O)[O-])C3)cc2n1C(=O)[O-]

>  <Energy>  (36) 
83.61798714211977

>  <Genealogy>  (36) 
[NH-]C(=O)c1cc2ccc([NH2+][C@H]3CCN(C(=O)[O-])C3)cc2n1C(=O)[O-] (protonated)
[NH-]C(=O)c1cc2ccc([NH2+][C@H]3CCN(C(=O)[O-])C3)cc2n1C(=O)[O-] (3D coordinates assigned)
[NH-]C(=O)c1cc2ccc([NH2+][C@H]3CCN(C(=O)[O-])C3)cc2n1C(=O)[O-] (nonaromatic ring conformer: 83.61798714211977 kcal/mol)

>  <smiles>  (36) 
NC(=O)c1cc2ccc(N[C@H]3CCN(C(=O)O)C3)cc2n1C(=O)O

>  <score_type>  (36) 
oracle

>  <origin>  (36) 
adg

>  <m_score__min__energy>  (36) 
-10.24

>  <m_primary>  (36) 
energy

$$$$
36:0
     RDKit          3D

 33 34  0  0  0  0  0  0  0  0999 V2000
   -6.6090   17.1270  -32.6060 C   0  0  0  0  0  0  0  0  0  0  0  0
   -6.7860   18.3030  -32.4110 C   0  0  0  0  0  0  0  0  0  0  0  0
   -6.9960   19.7080  -32.1790 C   0  0  0  0  0  0  0  0  0  0  0  0
   -8.2400   20.2980  -32.5020 C   0  0  0  0  0  0  0  0  0  0  0  0
   -8.4630   21.6660  -32.2680 C   0  0  0  0  0  0  0  0  0  0  0  0
   -7.4220   22.4110  -31.7190 C   0  0  0  0  0  0  0  0  0  0  0  0
   -7.3740   23.7410  -31.3700 C   0  0  0  0  0  0  0  0  0  0  0  0
   -6.0940   23.9430  -30.8590 C   0  0  0  0  0  0  0  0  0  0  0  0
   -5.5830   25.2650  -30.4460 C   0  0  0  0  0  0  0  0  0  0  0  0
   -4.2720   25.6730  -30.8320 N   0  0  0  0  0  0  0  0  0  0  0  0
   -6.2760   26.0250  -29.7210 O   0  0  0  0  0  0  0  0  0  0  0  0
   -5.3790   22.7820  -30.8850 N   0  0  0  0  0  0  0  0  0  0  0  0
   -4.0550   22.5500  -30.3770 C   0  0  0  0  0  0  0  0  0  0  0  0
   -3.5030   21.4290  -30.5500 O   0  0  0  0  0  0  0  0  0  0  0  0
   -3.3830   23.5740  -29.6340 N   0  0  0  0  0  0  0  0  0  0  0  0
   -2.7670   23.3540  -28.3300 C   0  0  0  0  0  0  0  0  0  0  0  0
   -1.2320   23.3980  -28.4340 C   0  0  1  0  0  0  0  0  0  0  0  0
   -0.7720   22.6110  -29.5050 O   0  0  0  0  0  0  0  0  0  0  0  0
   -0.7520   24.8150  -28.5830 C   0  0  0  0  0  0  0  0  0  0  0  0
   -1.5060   25.6890  -29.0840 O   0  0  0  0  0  0  0  0  0  0  0  0
    0.5350   25.1630  -28.1910 O   0  0  0  0  0  0  0  0  0  0  0  0
   -6.2060   21.8540  -31.4160 C   0  0  0  0  0  0  0  0  0  0  0  0
   -5.9630   20.4900  -31.6230 C   0  0  0  0  0  0  0  0  0  0  0  0
   -6.4474   16.0536  -32.7840 H   0  0  0  0  0  0  0  0  0  0  0  0
   -9.0392   19.6817  -32.9397 H   0  0  0  0  0  0  0  0  0  0  0  0
   -9.4288   22.1333  -32.5107 H   0  0  0  0  0  0  0  0  0  0  0  0
   -8.1762   24.4866  -31.4727 H   0  0  0  0  0  0  0  0  0  0  0  0
   -3.4860   25.6710  -30.1470 H   0  0  0  0  0  0  0  0  0  0  0  0
   -3.1037   24.1379  -27.6357 H   0  0  0  0  0  0  0  0  0  0  0  0
   -3.0663   22.3613  -27.9626 H   0  0  0  0  0  0  0  0  0  0  0  0
   -0.8199   22.9820  -27.5028 H   0  0  0  0  0  0  0  0  0  0  0  0
   -1.5560   22.3640  -30.0620 H   0  0  0  0  0  0  0  0  0  0  0  0
   -4.9937   20.0418  -31.3592 H   0  0  0  0  0  0  0  0  0  0  0  0
  1  2  3  0
  2  3  1  0
  3  4  2  0
  4  5  1  0
  5  6  2  0
  6  7  1  0
  7  8  2  0
  8  9  1  0
  9 10  1  0
  9 11  2  0
  8 12  1  0
 12 13  1  0
 13 14  2  0
 13 15  1  0
 15 16  1  0
 16 17  1  0
 17 18  1  0
 17 19  1  0
 19 20  2  0
 19 21  1  0
 12 22  1  0
 22 23  2  0
 23  3  1  0
 22  6  1  0
  1 24  1  0
  4 25  1  0
  5 26  1  0
  7 27  1  0
 10 28  1  0
 16 29  1  0
 16 30  1  0
 17 31  1  1
 18 32  1  0
 23 33  1  0
M  CHG  3  10  -1  15  -1  21  -1
M  END
>  <UniqueID>  (37) 
37

>  <SMILES>  (37) 
C#Cc1ccc2cc(C([NH-])=O)n(C(=O)[N-]C[C@@H](O)C(=O)[O-])c2c1

>  <Energy>  (37) 
67.70528667861208

>  <Genealogy>  (37) 
C#Cc1ccc2cc(C([NH-])=O)n(C(=O)[N-]CC(O)C(=O)[O-])c2c1 (protonated)
C#Cc1ccc2cc(C([NH-])=O)n(C(=O)[N-]C[C@@H](O)C(=O)[O-])c2c1 (chirality)
C#Cc1ccc2cc(C([NH-])=O)n(C(=O)[N-]C[C@@H](O)C(=O)[O-])c2c1 (3D coordinates assigned)
C#Cc1ccc2cc(C([NH-])=O)n(C(=O)[N-]C[C@@H](O)C(=O)[O-])c2c1 (optimized conformer: 67.70528667861208 kcal/mol)

>  <smiles>  (37) 
C#Cc1ccc2cc(C(N)=O)n(C(=O)NCC(O)C(=O)O)c2c1

>  <score_type>  (37) 
oracle

>  <origin>  (37) 
adg

>  <m_score__min__energy>  (37) 
-13.17

>  <m_primary>  (37) 
energy

$$$$
37:0
     RDKit          3D

 43 44  0  0  0  0  0  0  0  0999 V2000
   -1.2800   21.9550  -30.8530 C   0  0  0  0  0  0  0  0  0  0  0  0
   -2.6820   21.5300  -30.7560 N   0  0  0  0  0  0  0  0  0  0  0  0
   -3.3020   21.3860  -29.4260 C   0  0  0  0  0  0  0  0  0  0  0  0
   -3.1930   22.6710  -28.5870 C   0  0  0  0  0  0  0  0  0  0  0  0
   -4.1250   23.7960  -29.0670 C   0  0  0  0  0  0  0  0  0  0  0  0
   -3.3890   24.8910  -29.7790 C   0  0  0  0  0  0  0  0  0  0  0  0
   -3.8740   25.4140  -30.8170 O   0  0  0  0  0  0  0  0  0  0  0  0
   -2.1430   25.3000  -29.3240 O   0  0  0  0  0  0  0  0  0  0  0  0
   -3.3920   21.2820  -31.9940 C   0  0  0  0  0  0  0  0  0  0  0  0
   -2.9170   20.4450  -32.8090 O   0  0  0  0  0  0  0  0  0  0  0  0
   -4.6400   21.9880  -32.3800 C   0  0  0  0  0  0  0  0  0  0  0  0
   -4.6080   23.0310  -33.0840 O   0  0  0  0  0  0  0  0  0  0  0  0
   -5.9130   21.4890  -31.9400 N   0  0  0  0  0  0  0  0  0  0  0  0
   -6.8960   22.1840  -31.3050 C   0  0  0  0  0  0  0  0  0  0  0  0
   -6.7750   23.5600  -30.7850 C   0  0  0  0  0  0  0  0  0  0  0  0
   -6.0370   24.5570  -31.4930 N   0  0  0  0  0  0  0  0  0  0  0  0
   -7.2950   23.8500  -29.6750 O   0  0  0  0  0  0  0  0  0  0  0  0
   -8.0500   21.4120  -31.1930 C   0  0  0  0  0  0  0  0  0  0  0  0
   -7.7400   20.2090  -31.7880 C   0  0  0  0  0  0  0  0  0  0  0  0
   -8.5250   19.0750  -31.9780 C   0  0  0  0  0  0  0  0  0  0  0  0
   -7.9590   17.9910  -32.6690 C   0  0  0  0  0  0  0  0  0  0  0  0
   -6.6380   18.0680  -33.1840 C   0  0  0  0  0  0  0  0  0  0  0  0
   -6.0300   16.8850  -33.8940 C   0  0  0  0  0  0  0  0  0  0  0  0
   -5.4130   17.3190  -35.0530 F   0  0  0  0  0  0  0  0  0  0  0  0
   -7.0040   15.9570  -34.2220 F   0  0  0  0  0  0  0  0  0  0  0  0
   -5.0910   16.2610  -33.0900 F   0  0  0  0  0  0  0  0  0  0  0  0
   -5.8680   19.2320  -32.9540 C   0  0  0  0  0  0  0  0  0  0  0  0
   -6.4480   20.2850  -32.2390 C   0  0  0  0  0  0  0  0  0  0  0  0
   -0.8643   22.0810  -29.8424 H   0  0  0  0  0  0  0  0  0  0  0  0
   -0.7021   21.1917  -31.3946 H   0  0  0  0  0  0  0  0  0  0  0  0
   -1.2232   22.9107  -31.3946 H   0  0  0  0  0  0  0  0  0  0  0  0
   -4.3658   21.1385  -29.5569 H   0  0  0  0  0  0  0  0  0  0  0  0
   -2.7661   20.5886  -28.8902 H   0  0  0  0  0  0  0  0  0  0  0  0
   -3.4470   22.4291  -27.5444 H   0  0  0  0  0  0  0  0  0  0  0  0
   -2.1614   23.0387  -28.6896 H   0  0  0  0  0  0  0  0  0  0  0  0
   -4.8695   23.3674  -29.7541 H   0  0  0  0  0  0  0  0  0  0  0  0
   -4.5994   24.2372  -28.1780 H   0  0  0  0  0  0  0  0  0  0  0  0
   -6.0170   25.5410  -31.1450 H   0  0  0  0  0  0  0  0  0  0  0  0
   -5.4240   24.3010  -32.2970 H   0  0  0  0  0  0  0  0  0  0  0  0
   -9.0044   21.7011  -30.7288 H   0  0  0  0  0  0  0  0  0  0  0  0
   -9.5565   19.0294  -31.5987 H   0  0  0  0  0  0  0  0  0  0  0  0
   -8.5459   17.0718  -32.8128 H   0  0  0  0  0  0  0  0  0  0  0  0
   -4.8366   19.3074  -33.3289 H   0  0  0  0  0  0  0  0  0  0  0  0
  1  2  1  0
  2  3  1  0
  3  4  1  0
  4  5  1  0
  5  6  1  0
  6  7  2  0
  6  8  1  0
  2  9  1  0
  9 10  2  0
  9 11  1  0
 11 12  2  0
 11 13  1  0
 13 14  1  0
 14 15  1  0
 15 16  1  0
 15 17  2  0
 14 18  2  0
 18 19  1  0
 19 20  2  0
 20 21  1  0
 21 22  2  0
 22 23  1  0
 23 24  1  0
 23 25  1  0
 23 26  1  0
 22 27  1  0
 27 28  2  0
 28 13  1  0
 28 19  1  0
  1 29  1  0
  1 30  1  0
  1 31  1  0
  3 32  1  0
  3 33  1  0
  4 34  1  0
  4 35  1  0
  5 36  1  0
  5 37  1  0
 16 38  1  0
 16 39  1  0
 18 40  1  0
 20 41  1  0
 21 42  1  0
 27 43  1  0
M  CHG  1   8  -1
M  END
>  <UniqueID>  (38) 
38

>  <SMILES>  (38) 
CN(CCCC(=O)[O-])C(=O)C(=O)n1c(C(N)=O)cc2ccc(C(F)(F)F)cc21

>  <Energy>  (38) 
81.82892769352556

>  <Genealogy>  (38) 
CN(CCCC(=O)[O-])C(=O)C(=O)n1c(C(N)=O)cc2ccc(C(F)(F)F)cc21 (protonated)
CN(CCCC(=O)[O-])C(=O)C(=O)n1c(C(N)=O)cc2ccc(C(F)(F)F)cc21 (3D coordinates assigned)
CN(CCCC(=O)[O-])C(=O)C(=O)n1c(C(N)=O)cc2ccc(C(F)(F)F)cc21 (optimized conformer: 81.82892769352556 kcal/mol)

>  <smiles>  (38) 
CN(CCCC(=O)O)C(=O)C(=O)n1c(C(N)=O)cc2ccc(C(F)(F)F)cc21

>  <score_type>  (38) 
oracle

>  <origin>  (38) 
adg

>  <m_score__min__energy>  (38) 
-10.74

>  <m_primary>  (38) 
energy

$$$$
38:0
     RDKit          3D

 45 47  0  0  0  0  0  0  0  0999 V2000
   -0.0800   18.5190  -34.4600 C   0  0  0  0  0  0  0  0  0  0  0  0
    0.1580   19.7830  -35.1630 N   0  0  0  0  0  0  0  0  0  0  0  0
    0.7640   19.7560  -36.4950 C   0  0  0  0  0  0  0  0  0  0  0  0
    0.0980   21.0280  -34.4400 C   0  0  0  0  0  0  0  0  0  0  0  0
    0.9520   21.9260  -34.6770 O   0  0  0  0  0  0  0  0  0  0  0  0
   -0.9390   21.2780  -33.4150 C   0  0  0  0  0  0  0  0  0  0  0  0
   -0.5810   21.5480  -32.0850 C   0  0  0  0  0  0  0  0  0  0  0  0
   -1.5660   21.7750  -31.1190 C   0  0  0  0  0  0  0  0  0  0  0  0
   -2.9270   21.7310  -31.4650 C   0  0  0  0  0  0  0  0  0  0  0  0
   -3.9690   21.9830  -30.4400 C   0  0  0  0  0  0  0  0  0  0  0  0
   -3.6680   21.9400  -29.2170 O   0  0  0  0  0  0  0  0  0  0  0  0
   -5.3230   22.2830  -30.8180 N   0  0  0  0  0  0  0  0  0  0  0  0
   -5.9400   23.4980  -30.7960 C   0  0  0  0  0  0  0  0  0  0  0  0
   -5.3510   24.7410  -30.2490 C   0  0  0  0  0  0  0  0  0  0  0  0
   -5.8240   25.2990  -29.0210 N   0  0  0  0  0  0  0  0  0  0  0  0
   -4.4080   25.3140  -30.8560 O   0  0  0  0  0  0  0  0  0  0  0  0
   -7.2330   23.3930  -31.3080 C   0  0  0  0  0  0  0  0  0  0  0  0
   -7.3830   22.0680  -31.6540 C   0  0  0  0  0  0  0  0  0  0  0  0
   -8.4640   21.4090  -32.2320 C   0  0  0  0  0  0  0  0  0  0  0  0
   -8.3280   20.0380  -32.5080 C   0  0  0  0  0  0  0  0  0  0  0  0
   -7.1270   19.3490  -32.1960 C   0  0  0  0  0  0  0  0  0  0  0  0
   -6.9720   17.8920  -32.5500 C   0  0  0  0  0  0  0  0  0  0  0  0
   -6.0020   17.3280  -31.7430 F   0  0  0  0  0  0  0  0  0  0  0  0
   -6.5970   17.7480  -33.8740 F   0  0  0  0  0  0  0  0  0  0  0  0
   -8.1660   17.2160  -32.3620 F   0  0  0  0  0  0  0  0  0  0  0  0
   -6.0430   20.0620  -31.6340 C   0  0  0  0  0  0  0  0  0  0  0  0
   -6.2150   21.4210  -31.3530 C   0  0  0  0  0  0  0  0  0  0  0  0
   -3.2830   21.4280  -32.7910 C   0  0  0  0  0  0  0  0  0  0  0  0
   -2.2980   21.2010  -33.7550 C   0  0  0  0  0  0  0  0  0  0  0  0
   -0.0475   18.6916  -33.3741 H   0  0  0  0  0  0  0  0  0  0  0  0
   -1.0682   18.1246  -34.7392 H   0  0  0  0  0  0  0  0  0  0  0  0
    0.6971   17.7922  -34.7392 H   0  0  0  0  0  0  0  0  0  0  0  0
    1.8587   19.7072  -36.3989 H   0  0  0  0  0  0  0  0  0  0  0  0
    0.4044   18.8730  -37.0436 H   0  0  0  0  0  0  0  0  0  0  0  0
    0.4843   20.6675  -37.0436 H   0  0  0  0  0  0  0  0  0  0  0  0
    0.4811   21.5812  -31.8009 H   0  0  0  0  0  0  0  0  0  0  0  0
   -1.2733   21.9896  -30.0806 H   0  0  0  0  0  0  0  0  0  0  0  0
   -6.6460   24.8990  -28.5190 H   0  0  0  0  0  0  0  0  0  0  0  0
   -5.3730   26.1570  -28.6300 H   0  0  0  0  0  0  0  0  0  0  0  0
   -7.9756   24.1976  -31.4133 H   0  0  0  0  0  0  0  0  0  0  0  0
   -9.3959   21.9448  -32.4655 H   0  0  0  0  0  0  0  0  0  0  0  0
   -9.1627   19.4919  -32.9717 H   0  0  0  0  0  0  0  0  0  0  0  0
   -5.0874   19.5597  -31.4229 H   0  0  0  0  0  0  0  0  0  0  0  0
   -4.3451   21.3693  -33.0713 H   0  0  0  0  0  0  0  0  0  0  0  0
   -2.5898   20.9602  -34.7879 H   0  0  0  0  0  0  0  0  0  0  0  0
  1  2  1  0
  2  3  1  0
  2  4  1  0
  4  5  2  0
  4  6  1  0
  6  7  2  0
  7  8  1  0
  8  9  2  0
  9 10  1  0
 10 11  2  0
 10 12  1  0
 12 13  1  0
 13 14  1  0
 14 15  1  0
 14 16  2  0
 13 17  2  0
 17 18  1  0
 18 19  2  0
 19 20  1  0
 20 21  2  0
 21 22  1  0
 22 23  1  0
 22 24  1  0
 22 25  1  0
 21 26  1  0
 26 27  2  0
  9 28  1  0
 28 29  2  0
 29  6  1  0
 27 12  1  0
 27 18  1  0
  1 30  1  0
  1 31  1  0
  1 32  1  0
  3 33  1  0
  3 34  1  0
  3 35  1  0
  7 36  1  0
  8 37  1  0
 15 38  1  0
 15 39  1  0
 17 40  1  0
 19 41  1  0
 20 42  1  0
 26 43  1  0
 28 44  1  0
 29 45  1  0
M  END
>  <UniqueID>  (39) 
39

>  <SMILES>  (39) 
CN(C)C(=O)c1ccc(C(=O)n2c(C(N)=O)cc3ccc(C(F)(F)F)cc32)cc1

>  <Energy>  (39) 
91.47063733757284

>  <Genealogy>  (39) 
CN(C)C(=O)c1ccc(C(=O)n2c(C(N)=O)cc3ccc(C(F)(F)F)cc32)cc1 (3D coordinates assigned)
CN(C)C(=O)c1ccc(C(=O)n2c(C(N)=O)cc3ccc(C(F)(F)F)cc32)cc1 (optimized conformer: 91.47063733757284 kcal/mol)

>  <smiles>  (39) 
CN(C)C(=O)c1ccc(C(=O)n2c(C(N)=O)cc3ccc(C(F)(F)F)cc32)cc1

>  <score_type>  (39) 
oracle

>  <origin>  (39) 
adg

>  <m_score__min__energy>  (39) 
-9.5800000000000001

>  <m_primary>  (39) 
energy

$$$$
39:0
     RDKit          3D

 42 45  0  0  0  0  0  0  0  0999 V2000
   -4.2370   25.9070  -30.4940 N   0  0  0  0  0  0  0  0  0  0  0  0
   -5.5300   25.3950  -30.1830 C   0  0  0  0  0  0  0  0  0  0  0  0
   -6.2970   26.0650  -29.4410 O   0  0  0  0  0  0  0  0  0  0  0  0
   -5.9680   24.1040  -30.7530 C   0  0  0  0  0  0  0  0  0  0  0  0
   -7.2800   23.8330  -31.1380 C   0  0  0  0  0  0  0  0  0  0  0  0
   -7.2750   22.5220  -31.5570 C   0  0  0  0  0  0  0  0  0  0  0  0
   -8.3100   21.7360  -32.0600 C   0  0  0  0  0  0  0  0  0  0  0  0
   -8.0080   20.4180  -32.4410 C   0  0  0  0  0  0  0  0  0  0  0  0
   -6.6900   19.9200  -32.3220 C   0  0  0  0  0  0  0  0  0  0  0  0
   -6.3920   18.5810  -32.7220 N   0  0  0  0  0  0  0  0  0  0  0  0
   -5.6310   17.9090  -33.8050 C   0  0  0  0  0  0  0  0  0  0  0  0
   -5.9410   16.5400  -33.3310 C   0  0  0  0  0  0  0  0  0  0  0  0
   -4.8780   15.5240  -33.0540 C   0  0  0  0  0  0  0  0  0  0  0  0
   -5.5110   14.5880  -33.9110 O   0  0  0  0  0  0  0  0  0  0  0  0
   -6.5510   15.5000  -34.2170 C   0  0  0  0  0  0  0  0  0  0  0  0
   -6.7020   17.2100  -32.2480 C   0  0  0  0  0  0  0  0  0  0  0  0
   -5.6670   20.7420  -31.8100 C   0  0  0  0  0  0  0  0  0  0  0  0
   -5.9960   22.0440  -31.4210 C   0  0  0  0  0  0  0  0  0  0  0  0
   -5.1820   23.0020  -30.9280 N   0  0  0  0  0  0  0  0  0  0  0  0
   -3.7680   22.8950  -30.7010 C   0  0  0  0  0  0  0  0  0  0  0  0
   -2.9700   23.0740  -31.6610 O   0  0  0  0  0  0  0  0  0  0  0  0
   -3.2310   22.6830  -29.3140 C   0  0  0  0  0  0  0  0  0  0  0  0
   -1.7060   23.6410  -29.0300 P   0  0  2  0  0  0  0  0  0  0  0  0
   -1.2660   23.4810  -27.5930 O   0  0  0  0  0  0  0  0  0  0  0  0
   -1.9780   25.2790  -29.3500 O   0  0  0  0  0  0  0  0  0  0  0  0
   -0.4880   23.0690  -30.0560 O   0  0  0  0  0  0  0  0  0  0  0  0
   -3.4900   25.2840  -30.8740 H   0  0  0  0  0  0  0  0  0  0  0  0
   -8.1377   24.5212  -31.1124 H   0  0  0  0  0  0  0  0  0  0  0  0
   -9.3307   22.1348  -32.1556 H   0  0  0  0  0  0  0  0  0  0  0  0
   -8.8033   19.7682  -32.8351 H   0  0  0  0  0  0  0  0  0  0  0  0
   -6.0312   18.1192  -34.8078 H   0  0  0  0  0  0  0  0  0  0  0  0
   -4.5739   18.1819  -33.9392 H   0  0  0  0  0  0  0  0  0  0  0  0
   -3.8751   15.8268  -33.3895 H   0  0  0  0  0  0  0  0  0  0  0  0
   -4.6455   15.2448  -32.0157 H   0  0  0  0  0  0  0  0  0  0  0  0
   -6.5917   15.7881  -35.2778 H   0  0  0  0  0  0  0  0  0  0  0  0
   -7.5996   15.2027  -34.0687 H   0  0  0  0  0  0  0  0  0  0  0  0
   -7.7772   16.9789  -32.2695 H   0  0  0  0  0  0  0  0  0  0  0  0
   -6.4533   16.9545  -31.2074 H   0  0  0  0  0  0  0  0  0  0  0  0
   -4.6361   20.3692  -31.7186 H   0  0  0  0  0  0  0  0  0  0  0  0
   -3.9917   22.9986  -28.5848 H   0  0  0  0  0  0  0  0  0  0  0  0
   -2.9931   21.6154  -29.1970 H   0  0  0  0  0  0  0  0  0  0  0  0
   -0.9470   22.8780  -30.9130 H   0  0  0  0  0  0  0  0  0  0  0  0
  1  2  1  0
  2  3  2  0
  2  4  1  0
  4  5  2  0
  5  6  1  0
  6  7  2  0
  7  8  1  0
  8  9  2  0
  9 10  1  0
 10 11  1  0
 11 12  1  0
 12 13  1  0
 13 14  1  0
 14 15  1  0
 12 16  1  0
  9 17  1  0
 17 18  2  0
 18 19  1  0
 19 20  1  0
 20 21  2  0
 20 22  1  0
 22 23  1  0
 23 24  2  0
 23 25  1  6
 23 26  1  0
 19  4  1  0
 18  6  1  0
 16 10  1  0
 15 12  1  0
  1 27  1  0
  5 28  1  0
  7 29  1  0
  8 30  1  0
 11 31  1  0
 11 32  1  0
 13 33  1  0
 13 34  1  0
 15 35  1  0
 15 36  1  0
 16 37  1  0
 16 38  1  0
 17 39  1  0
 22 40  1  0
 22 41  1  0
 26 42  1  0
M  CHG  2   1  -1  25  -1
M  END
>  <UniqueID>  (40) 
40

>  <SMILES>  (40) 
[NH-]C(=O)c1cc2ccc(N3CC4(COC4)C3)cc2n1C(=O)C[P@](=O)([O-])O

>  <Energy>  (40) 
202.25191618496282

>  <Genealogy>  (40) 
[NH-]C(=O)c1cc2ccc(N3CC4(COC4)C3)cc2n1C(=O)CP(=O)([O-])O (protonated)
[NH-]C(=O)c1cc2ccc(N3CC4(COC4)C3)cc2n1C(=O)C[P@](=O)([O-])O (chirality)
[NH-]C(=O)c1cc2ccc(N3CC4(COC4)C3)cc2n1C(=O)C[P@](=O)([O-])O (3D coordinates assigned)
[NH-]C(=O)c1cc2ccc(N3CC4(COC4)C3)cc2n1C(=O)C[P@](=O)([O-])O (nonaromatic ring conformer: 202.25191618496282 kcal/mol)

>  <smiles>  (40) 
NC(=O)c1cc2ccc(N3CC4(COC4)C3)cc2n1C(=O)CP(=O)(O)O

>  <score_type>  (40) 
oracle

>  <origin>  (40) 
adg

>  <m_score__min__energy>  (40) 
-12.56

>  <m_primary>  (40) 
energy

$$$$
40:0
     RDKit          3D

 51 53  0  0  0  0  0  0  0  0999 V2000
    0.4670   24.7550  -26.9620 C   0  0  0  0  0  0  0  0  0  0  0  0
   -0.0060   24.5450  -28.3430 N   0  0  0  0  0  0  0  0  0  0  0  0
   -1.2290   25.3320  -28.5620 C   0  0  0  0  0  0  0  0  0  0  0  0
   -0.2750   23.1120  -28.6000 C   0  0  0  0  0  0  0  0  0  0  0  0
   -1.2360   22.5170  -27.5490 C   0  0  2  0  0  0  0  0  0  0  0  0
   -0.6070   21.3240  -26.8150 C   0  0  0  0  0  0  0  0  0  0  0  0
   -1.6820   20.2430  -26.7680 C   0  0  0  0  0  0  0  0  0  0  0  0
   -2.6610   20.5830  -27.8800 C   0  0  0  0  0  0  0  0  0  0  0  0
   -2.4370   21.9850  -28.1840 N   0  0  0  0  0  0  0  0  0  0  0  0
   -3.4290   22.8020  -28.8310 C   0  0  0  0  0  0  0  0  0  0  0  0
   -4.3540   23.3190  -28.1470 O   0  0  0  0  0  0  0  0  0  0  0  0
   -3.3630   23.0170  -30.2120 O   0  0  0  0  0  0  0  0  0  0  0  0
   -4.0850   22.2950  -31.1730 C   0  0  0  0  0  0  0  0  0  0  0  0
   -3.5130   21.4350  -31.8970 O   0  0  0  0  0  0  0  0  0  0  0  0
   -5.4950   22.5150  -31.3120 N   0  0  0  0  0  0  0  0  0  0  0  0
   -6.2080   23.6140  -30.9350 C   0  0  0  0  0  0  0  0  0  0  0  0
   -5.6400   24.8800  -30.4320 C   0  0  0  0  0  0  0  0  0  0  0  0
   -5.7560   25.2480  -29.0560 N   0  0  0  0  0  0  0  0  0  0  0  0
   -4.9960   25.6260  -31.2170 O   0  0  0  0  0  0  0  0  0  0  0  0
   -7.5700   23.4090  -31.1340 C   0  0  0  0  0  0  0  0  0  0  0  0
   -7.6730   22.1420  -31.6630 C   0  0  0  0  0  0  0  0  0  0  0  0
   -8.8000   21.4150  -32.0350 C   0  0  0  0  0  0  0  0  0  0  0  0
   -8.6130   20.1060  -32.5110 C   0  0  0  0  0  0  0  0  0  0  0  0
   -7.3140   19.5440  -32.5840 C   0  0  0  0  0  0  0  0  0  0  0  0
   -7.1390   18.1380  -33.0770 C   0  0  0  0  0  0  0  0  0  0  0  0
   -6.3460   18.1350  -34.2100 F   0  0  0  0  0  0  0  0  0  0  0  0
   -6.1940   20.3080  -32.1870 C   0  0  0  0  0  0  0  0  0  0  0  0
   -6.4070   21.6210  -31.7530 C   0  0  0  0  0  0  0  0  0  0  0  0
   -0.3030   24.4131  -26.2547 H   0  0  0  0  0  0  0  0  0  0  0  0
    1.3928   24.1834  -26.8006 H   0  0  0  0  0  0  0  0  0  0  0  0
    0.6639   25.8251  -26.8006 H   0  0  0  0  0  0  0  0  0  0  0  0
   -1.6638   25.6118  -27.5911 H   0  0  0  0  0  0  0  0  0  0  0  0
   -0.9830   26.2417  -29.1294 H   0  0  0  0  0  0  0  0  0  0  0  0
   -1.9550   24.7311  -29.1294 H   0  0  0  0  0  0  0  0  0  0  0  0
   -0.7272   23.0069  -29.5972 H   0  0  0  0  0  0  0  0  0  0  0  0
    0.6787   22.5670  -28.5418 H   0  0  0  0  0  0  0  0  0  0  0  0
   -1.4635   23.3394  -26.8548 H   0  0  0  0  0  0  0  0  0  0  0  0
    0.2757   20.9613  -27.3620 H   0  0  0  0  0  0  0  0  0  0  0  0
   -0.2733   21.6037  -25.8048 H   0  0  0  0  0  0  0  0  0  0  0  0
   -1.2364   19.2521  -26.9398 H   0  0  0  0  0  0  0  0  0  0  0  0
   -2.1793   20.2093  -25.7874 H   0  0  0  0  0  0  0  0  0  0  0  0
   -2.4654   19.9621  -28.7667 H   0  0  0  0  0  0  0  0  0  0  0  0
   -3.7015   20.3939  -27.5774 H   0  0  0  0  0  0  0  0  0  0  0  0
   -5.3650   26.1570  -28.7230 H   0  0  0  0  0  0  0  0  0  0  0  0
   -6.1450   24.5850  -28.3500 H   0  0  0  0  0  0  0  0  0  0  0  0
   -8.3893   24.1096  -30.9154 H   0  0  0  0  0  0  0  0  0  0  0  0
   -9.8067   21.8518  -31.9587 H   0  0  0  0  0  0  0  0  0  0  0  0
   -9.4825   19.5124  -32.8297 H   0  0  0  0  0  0  0  0  0  0  0  0
   -6.6590   17.5332  -32.2935 H   0  0  0  0  0  0  0  0  0  0  0  0
   -8.1238   17.7132  -33.3214 H   0  0  0  0  0  0  0  0  0  0  0  0
   -5.1805   19.8816  -32.2183 H   0  0  0  0  0  0  0  0  0  0  0  0
  1  2  1  0
  2  3  1  0
  2  4  1  0
  4  5  1  0
  5  6  1  0
  6  7  1  0
  7  8  1  0
  8  9  1  0
  9 10  1  0
 10 11  2  0
 10 12  1  0
 12 13  1  0
 13 14  2  0
 13 15  1  0
 15 16  1  0
 16 17  1  0
 17 18  1  0
 17 19  2  0
 16 20  2  0
 20 21  1  0
 21 22  2  0
 22 23  1  0
 23 24  2  0
 24 25  1  0
 25 26  1  0
 24 27  1  0
 27 28  2  0
  9  5  1  0
 28 15  1  0
 28 21  1  0
  1 29  1  0
  1 30  1  0
  1 31  1  0
  3 32  1  0
  3 33  1  0
  3 34  1  0
  4 35  1  0
  4 36  1  0
  5 37  1  1
  6 38  1  0
  6 39  1  0
  7 40  1  0
  7 41  1  0
  8 42  1  0
  8 43  1  0
 18 44  1  0
 18 45  1  0
 20 46  1  0
 22 47  1  0
 23 48  1  0
 25 49  1  0
 25 50  1  0
 27 51  1  0
M  END
>  <UniqueID>  (41) 
41

>  <SMILES>  (41) 
CN(C)C[C@@H]1CCCN1C(=O)OC(=O)n1c(C(N)=O)cc2ccc(CF)cc21

>  <Energy>  (41) 
89.11648245183787

>  <Genealogy>  (41) 
CN(C)C[C@@H]1CCCN1C(=O)OC(=O)n1c(C(N)=O)cc2ccc(CF)cc21 (chirality)
CN(C)C[C@@H]1CCCN1C(=O)OC(=O)n1c(C(N)=O)cc2ccc(CF)cc21 (3D coordinates assigned)
CN(C)C[C@@H]1CCCN1C(=O)OC(=O)n1c(C(N)=O)cc2ccc(CF)cc21 (nonaromatic ring conformer: 89.11648245183787 kcal/mol)

>  <smiles>  (41) 
CN(C)CC1CCCN1C(=O)OC(=O)n1c(C(N)=O)cc2ccc(CF)cc21

>  <score_type>  (41) 
oracle

>  <origin>  (41) 
adg

>  <m_score__min__energy>  (41) 
-9.4900000000000002

>  <m_primary>  (41) 
energy

$$$$
41:0
     RDKit          3D

 47 49  0  0  0  0  0  0  0  0999 V2000
   -4.7510   14.2940  -34.5980 C   0  0  0  0  0  0  0  0  0  0  0  0
   -4.8190   15.2700  -33.4990 N   0  0  0  0  0  0  0  0  0  0  0  0
   -4.6130   14.6010  -32.2030 C   0  0  0  0  0  0  0  0  0  0  0  0
   -6.0970   15.9540  -33.5260 C   0  0  0  0  0  0  0  0  0  0  0  0
   -7.0990   15.3840  -34.0430 O   0  0  0  0  0  0  0  0  0  0  0  0
   -6.2570   17.3310  -32.9870 C   0  0  0  0  0  0  0  0  0  0  0  0
   -7.5290   17.9010  -32.7930 C   0  0  0  0  0  0  0  0  0  0  0  0
   -7.6540   19.1910  -32.2760 C   0  0  0  0  0  0  0  0  0  0  0  0
   -6.5190   19.9290  -31.9400 C   0  0  0  0  0  0  0  0  0  0  0  0
   -5.2370   19.3800  -32.1150 C   0  0  0  0  0  0  0  0  0  0  0  0
   -4.0280   20.1630  -31.7530 C   0  0  0  0  0  0  0  0  0  0  0  0
   -2.7590   19.8140  -32.2890 C   0  0  0  0  0  0  0  0  0  0  0  0
   -1.6060   20.5420  -31.9450 C   0  0  0  0  0  0  0  0  0  0  0  0
   -1.7500   21.6130  -31.0700 C   0  0  0  0  0  0  0  0  0  0  0  0
   -0.8050   22.4730  -30.5540 C   0  0  0  0  0  0  0  0  0  0  0  0
   -1.5110   23.3410  -29.7210 C   0  0  0  0  0  0  0  0  0  0  0  0
   -0.8980   24.4760  -29.0020 C   0  0  0  0  0  0  0  0  0  0  0  0
   -1.5870   25.7210  -28.9200 N   0  0  0  0  0  0  0  0  0  0  0  0
    0.2220   24.3520  -28.4410 O   0  0  0  0  0  0  0  0  0  0  0  0
   -2.8350   23.0250  -29.7220 N   0  0  0  0  0  0  0  0  0  0  0  0
   -3.8880   23.6310  -28.9620 C   0  0  0  0  0  0  0  0  0  0  0  0
   -3.6700   23.9990  -27.7770 O   0  0  0  0  0  0  0  0  0  0  0  0
   -5.2060   23.9390  -29.6040 C   0  0  0  0  0  0  0  0  0  0  0  0
   -4.9990   24.8580  -30.7630 C   0  0  0  0  0  0  0  0  0  0  0  0
   -5.8690   24.9390  -31.6700 O   0  0  0  0  0  0  0  0  0  0  0  0
   -3.8710   25.6650  -30.8170 O   0  0  0  0  0  0  0  0  0  0  0  0
   -2.9660   21.9710  -30.5530 C   0  0  0  0  0  0  0  0  0  0  0  0
   -4.1280   21.2610  -30.8680 C   0  0  0  0  0  0  0  0  0  0  0  0
   -5.1170   18.0790  -32.6350 C   0  0  0  0  0  0  0  0  0  0  0  0
   -4.6802   13.2780  -34.1823 H   0  0  0  0  0  0  0  0  0  0  0  0
   -5.6569   14.3747  -35.2167 H   0  0  0  0  0  0  0  0  0  0  0  0
   -3.8650   14.4996  -35.2167 H   0  0  0  0  0  0  0  0  0  0  0  0
   -4.0390   15.9570  -33.6100 H   0  0  0  0  0  0  0  0  0  0  0  0
   -4.8303   15.3066  -31.3875 H   0  0  0  0  0  0  0  0  0  0  0  0
   -5.2858   13.7341  -32.1268 H   0  0  0  0  0  0  0  0  0  0  0  0
   -3.5691   14.2627  -32.1268 H   0  0  0  0  0  0  0  0  0  0  0  0
   -8.4306   17.3258  -33.0506 H   0  0  0  0  0  0  0  0  0  0  0  0
   -8.6531   19.6284  -32.1326 H   0  0  0  0  0  0  0  0  0  0  0  0
   -6.6279   20.9463  -31.5358 H   0  0  0  0  0  0  0  0  0  0  0  0
   -2.6775   18.9635  -32.9819 H   0  0  0  0  0  0  0  0  0  0  0  0
   -0.6215   20.2727  -32.3551 H   0  0  0  0  0  0  0  0  0  0  0  0
    0.2763   22.4747  -30.7560 H   0  0  0  0  0  0  0  0  0  0  0  0
   -2.6260   25.7660  -29.0140 H   0  0  0  0  0  0  0  0  0  0  0  0
   -5.6684   23.0050  -29.9560 H   0  0  0  0  0  0  0  0  0  0  0  0
   -5.8651   24.4232  -28.8684 H   0  0  0  0  0  0  0  0  0  0  0  0
   -5.0980   21.5499  -30.4372 H   0  0  0  0  0  0  0  0  0  0  0  0
   -4.1177   17.6390  -32.7688 H   0  0  0  0  0  0  0  0  0  0  0  0
  1  2  1  0
  2  3  1  0
  2  4  1  0
  4  5  2  0
  4  6  1  0
  6  7  2  0
  7  8  1  0
  8  9  2  0
  9 10  1  0
 10 11  1  0
 11 12  2  0
 12 13  1  0
 13 14  2  0
 14 15  1  0
 15 16  2  0
 16 17  1  0
 17 18  1  0
 17 19  2  0
 16 20  1  0
 20 21  1  0
 21 22  2  0
 21 23  1  0
 23 24  1  0
 24 25  2  0
 24 26  1  0
 20 27  1  0
 27 28  2  0
 10 29  2  0
 29  6  1  0
 28 11  1  0
 27 14  1  0
  1 30  1  0
  1 31  1  0
  1 32  1  0
  2 33  1  0
  3 34  1  0
  3 35  1  0
  3 36  1  0
  7 37  1  0
  8 38  1  0
  9 39  1  0
 12 40  1  0
 13 41  1  0
 15 42  1  0
 18 43  1  0
 23 44  1  0
 23 45  1  0
 28 46  1  0
 29 47  1  0
M  CHG  3   2   1  18  -1  26  -1
M  END
>  <UniqueID>  (42) 
42

>  <SMILES>  (42) 
C[NH+](C)C(=O)c1cccc(-c2ccc3cc(C([NH-])=O)n(C(=O)CC(=O)[O-])c3c2)c1

>  <Energy>  (42) 
95.64419342220906

>  <Genealogy>  (42) 
C[NH+](C)C(=O)c1cccc(-c2ccc3cc(C([NH-])=O)n(C(=O)CC(=O)[O-])c3c2)c1 (protonated)
C[NH+](C)C(=O)c1cccc(-c2ccc3cc(C([NH-])=O)n(C(=O)CC(=O)[O-])c3c2)c1 (3D coordinates assigned)
C[NH+](C)C(=O)c1cccc(-c2ccc3cc(C([NH-])=O)n(C(=O)CC(=O)[O-])c3c2)c1 (optimized conformer: 95.64419342220906 kcal/mol)

>  <smiles>  (42) 
CN(C)C(=O)c1cccc(-c2ccc3cc(C(N)=O)n(C(=O)CC(=O)O)c3c2)c1

>  <score_type>  (42) 
oracle

>  <origin>  (42) 
adg

>  <m_score__min__energy>  (42) 
-12.52

>  <m_primary>  (42) 
energy

$$$$
42:0
     RDKit          3D

 49 50  0  0  0  0  0  0  0  0999 V2000
   -1.7050   22.2960  -26.7700 C   0  0  0  0  0  0  0  0  0  0  0  0
   -2.0440   23.4710  -27.5910 N   0  0  2  0  0  0  0  0  0  0  0  0
   -1.9350   24.7130  -26.7930 C   0  0  0  0  0  0  0  0  0  0  0  0
   -1.3900   25.8920  -27.6120 C   0  0  0  0  0  0  0  0  0  0  0  0
   -1.5580   25.6480  -28.9810 O   0  0  0  0  0  0  0  0  0  0  0  0
   -3.3750   23.3110  -28.1440 C   0  0  0  0  0  0  0  0  0  0  0  0
   -4.1700   24.2440  -28.1240 O   0  0  0  0  0  0  0  0  0  0  0  0
   -3.8000   21.9970  -28.7430 C   0  0  0  0  0  0  0  0  0  0  0  0
   -3.3110   21.8830  -30.1260 N   0  0  0  0  0  0  0  0  0  0  0  0
   -1.9930   21.2750  -30.3570 C   0  0  0  0  0  0  0  0  0  0  0  0
   -0.9140   22.1710  -29.8380 C   0  0  0  0  0  0  0  0  0  0  0  0
   -0.9880   23.4190  -30.0030 O   0  0  0  0  0  0  0  0  0  0  0  0
    0.1700   21.6310  -29.1590 O   0  0  0  0  0  0  0  0  0  0  0  0
   -4.0350   22.4640  -31.2340 C   0  0  0  0  0  0  0  0  0  0  0  0
   -3.4490   22.6590  -32.3330 O   0  0  0  0  0  0  0  0  0  0  0  0
   -5.4330   22.7790  -31.1270 N   0  0  0  0  0  0  0  0  0  0  0  0
   -6.0070   23.9890  -30.8650 C   0  0  0  0  0  0  0  0  0  0  0  0
   -5.2930   25.2460  -30.5470 C   0  0  0  0  0  0  0  0  0  0  0  0
   -3.8710   25.2940  -30.4680 N   0  0  0  0  0  0  0  0  0  0  0  0
   -5.9540   26.2970  -30.3290 O   0  0  0  0  0  0  0  0  0  0  0  0
   -7.3960   23.8790  -30.8840 C   0  0  0  0  0  0  0  0  0  0  0  0
   -7.6560   22.5600  -31.1840 C   0  0  0  0  0  0  0  0  0  0  0  0
   -8.8700   21.8970  -31.3400 C   0  0  0  0  0  0  0  0  0  0  0  0
   -8.8370   20.5280  -31.6610 C   0  0  0  0  0  0  0  0  0  0  0  0
   -7.6000   19.8550  -31.8420 C   0  0  0  0  0  0  0  0  0  0  0  0
   -7.5800   18.3740  -32.1230 C   0  0  0  0  0  0  0  0  0  0  0  0
   -6.7200   17.7260  -31.2530 F   0  0  0  0  0  0  0  0  0  0  0  0
   -7.1510   18.1680  -33.4200 F   0  0  0  0  0  0  0  0  0  0  0  0
   -8.8440   17.8280  -31.9730 F   0  0  0  0  0  0  0  0  0  0  0  0
   -6.3890   20.5640  -31.6560 C   0  0  0  0  0  0  0  0  0  0  0  0
   -6.4550   21.9220  -31.3320 C   0  0  0  0  0  0  0  0  0  0  0  0
   -1.7809   22.5589  -25.7046 H   0  0  0  0  0  0  0  0  0  0  0  0
   -2.4034   21.4768  -26.9962 H   0  0  0  0  0  0  0  0  0  0  0  0
   -0.6775   21.9748  -26.9962 H   0  0  0  0  0  0  0  0  0  0  0  0
   -1.3490   23.5140  -28.3690 H   0  0  0  0  0  0  0  0  0  0  0  0
   -2.9333   24.9779  -26.4145 H   0  0  0  0  0  0  0  0  0  0  0  0
   -1.2288   24.5217  -25.9716 H   0  0  0  0  0  0  0  0  0  0  0  0
   -1.9335   26.8079  -27.3367 H   0  0  0  0  0  0  0  0  0  0  0  0
   -0.3179   26.0131  -27.3977 H   0  0  0  0  0  0  0  0  0  0  0  0
   -2.2680   24.9580  -29.0540 H   0  0  0  0  0  0  0  0  0  0  0  0
   -3.3853   21.1738  -28.1427 H   0  0  0  0  0  0  0  0  0  0  0  0
   -4.8988   21.9449  -28.7471 H   0  0  0  0  0  0  0  0  0  0  0  0
   -1.9431   20.3069  -29.8371 H   0  0  0  0  0  0  0  0  0  0  0  0
   -1.8494   21.1282  -31.4377 H   0  0  0  0  0  0  0  0  0  0  0  0
   -3.3930   25.6300  -29.6030 H   0  0  0  0  0  0  0  0  0  0  0  0
   -8.1300   24.6771  -30.6986 H   0  0  0  0  0  0  0  0  0  0  0  0
   -9.8257   22.4274  -31.2161 H   0  0  0  0  0  0  0  0  0  0  0  0
   -9.7799   19.9727  -31.7730 H   0  0  0  0  0  0  0  0  0  0  0  0
   -5.4184   20.0578  -31.7640 H   0  0  0  0  0  0  0  0  0  0  0  0
  1  2  1  0
  2  3  1  0
  3  4  1  0
  4  5  1  0
  2  6  1  0
  6  7  2  0
  6  8  1  0
  8  9  1  0
  9 10  1  0
 10 11  1  0
 11 12  2  0
 11 13  1  0
  9 14  1  0
 14 15  2  0
 14 16  1  0
 16 17  1  0
 17 18  1  0
 18 19  1  0
 18 20  2  0
 17 21  2  0
 21 22  1  0
 22 23  2  0
 23 24  1  0
 24 25  2  0
 25 26  1  0
 26 27  1  0
 26 28  1  0
 26 29  1  0
 25 30  1  0
 30 31  2  0
 31 16  1  0
 31 22  1  0
  1 32  1  0
  1 33  1  0
  1 34  1  0
  2 35  1  6
  3 36  1  0
  3 37  1  0
  4 38  1  0
  4 39  1  0
  5 40  1  0
  8 41  1  0
  8 42  1  0
 10 43  1  0
 10 44  1  0
 19 45  1  0
 21 46  1  0
 23 47  1  0
 24 48  1  0
 30 49  1  0
M  CHG  3   2   1  13  -1  19  -1
M  END
>  <UniqueID>  (43) 
43

>  <SMILES>  (43) 
C[N@H+](CCO)C(=O)CN(CC(=O)[O-])C(=O)n1c(C([NH-])=O)cc2ccc(C(F)(F)F)cc21

>  <Energy>  (43) 
81.43694055443875

>  <Genealogy>  (43) 
C[NH+](CCO)C(=O)CN(CC(=O)[O-])C(=O)n1c(C([NH-])=O)cc2ccc(C(F)(F)F)cc21 (protonated)
C[N@H+](CCO)C(=O)CN(CC(=O)[O-])C(=O)n1c(C([NH-])=O)cc2ccc(C(F)(F)F)cc21 (chirality)
C[N@H+](CCO)C(=O)CN(CC(=O)[O-])C(=O)n1c(C([NH-])=O)cc2ccc(C(F)(F)F)cc21 (3D coordinates assigned)
C[N@H+](CCO)C(=O)CN(CC(=O)[O-])C(=O)n1c(C([NH-])=O)cc2ccc(C(F)(F)F)cc21 (optimized conformer: 81.43694055443875 kcal/mol)

>  <smiles>  (43) 
CN(CCO)C(=O)CN(CC(=O)O)C(=O)n1c(C(N)=O)cc2ccc(C(F)(F)F)cc21

>  <score_type>  (43) 
oracle

>  <origin>  (43) 
adg

>  <m_score__min__energy>  (43) 
-10.65

>  <m_primary>  (43) 
energy

$$$$
43:0
     RDKit          3D

 48 49  0  0  0  0  0  0  0  0999 V2000
   -5.8980   18.5170  -34.6000 C   0  0  0  0  0  0  0  0  0  0  0  0
   -6.3680   18.2250  -33.1730 C   0  0  0  0  0  0  0  0  0  0  0  0
   -7.7270   18.7340  -32.9170 N   0  0  0  0  0  0  0  0  0  0  0  0
   -7.7000   20.0690  -32.3690 C   0  0  0  0  0  0  0  0  0  0  0  0
   -8.9000   20.6920  -31.9390 C   0  0  0  0  0  0  0  0  0  0  0  0
   -8.8810   21.9900  -31.4010 C   0  0  0  0  0  0  0  0  0  0  0  0
   -7.6530   22.6360  -31.2960 C   0  0  0  0  0  0  0  0  0  0  0  0
   -7.3550   23.9000  -30.8430 C   0  0  0  0  0  0  0  0  0  0  0  0
   -5.9730   24.0240  -30.9770 C   0  0  0  0  0  0  0  0  0  0  0  0
   -5.2150   25.2110  -30.5310 C   0  0  0  0  0  0  0  0  0  0  0  0
   -3.8610   25.4090  -30.9290 N   0  0  0  0  0  0  0  0  0  0  0  0
   -5.7550   26.0400  -29.7500 O   0  0  0  0  0  0  0  0  0  0  0  0
   -5.4400   22.8820  -31.4950 N   0  0  0  0  0  0  0  0  0  0  0  0
   -4.0770   22.6470  -31.8800 C   0  0  0  0  0  0  0  0  0  0  0  0
   -3.8180   22.1800  -33.0230 O   0  0  0  0  0  0  0  0  0  0  0  0
   -3.0420   22.9630  -30.9920 O   0  0  0  0  0  0  0  0  0  0  0  0
   -2.6250   22.1030  -29.9350 C   0  0  0  0  0  0  0  0  0  0  0  0
   -1.3440   22.6030  -29.3240 C   0  0  0  0  0  0  0  0  0  0  0  0
   -0.3910   22.9000  -30.0970 O   0  0  0  0  0  0  0  0  0  0  0  0
   -1.1930   22.7910  -27.8980 N   0  0  0  0  0  0  0  0  0  0  0  0
   -0.9260   21.6210  -27.0550 C   0  0  0  0  0  0  0  0  0  0  0  0
   -1.3730   24.1050  -27.2620 C   0  0  0  0  0  0  0  0  0  0  0  0
   -2.3200   24.9720  -28.0930 C   0  0  0  0  0  0  0  0  0  0  0  0
   -1.7280   25.2990  -29.3210 O   0  0  0  0  0  0  0  0  0  0  0  0
   -6.4810   22.0430  -31.6850 C   0  0  0  0  0  0  0  0  0  0  0  0
   -6.4710   20.7590  -32.2430 C   0  0  0  0  0  0  0  0  0  0  0  0
   -4.9641   19.0972  -34.5669 H   0  0  0  0  0  0  0  0  0  0  0  0
   -5.7221   17.5689  -35.1293 H   0  0  0  0  0  0  0  0  0  0  0  0
   -6.6700   19.0947  -35.1293 H   0  0  0  0  0  0  0  0  0  0  0  0
   -6.3621   17.1365  -33.0143 H   0  0  0  0  0  0  0  0  0  0  0  0
   -5.6815   18.7353  -32.4814 H   0  0  0  0  0  0  0  0  0  0  0  0
   -8.2390   18.0810  -32.2770 H   0  0  0  0  0  0  0  0  0  0  0  0
   -8.2530   18.7510  -33.8220 H   0  0  0  0  0  0  0  0  0  0  0  0
   -9.8550   20.1534  -32.0277 H   0  0  0  0  0  0  0  0  0  0  0  0
   -9.8091   22.4807  -31.0727 H   0  0  0  0  0  0  0  0  0  0  0  0
   -8.0578   24.6530  -30.4570 H   0  0  0  0  0  0  0  0  0  0  0  0
   -3.0720   25.0470  -30.3500 H   0  0  0  0  0  0  0  0  0  0  0  0
   -3.4073   22.0733  -29.1623 H   0  0  0  0  0  0  0  0  0  0  0  0
   -2.4558   21.0951  -30.3418 H   0  0  0  0  0  0  0  0  0  0  0  0
   -0.9919   21.9097  -25.9956 H   0  0  0  0  0  0  0  0  0  0  0  0
   -1.6686   20.8381  -27.2686 H   0  0  0  0  0  0  0  0  0  0  0  0
    0.0827   21.2377  -27.2686 H   0  0  0  0  0  0  0  0  0  0  0  0
   -1.7965   23.9663  -26.2563 H   0  0  0  0  0  0  0  0  0  0  0  0
   -0.3962   24.6062  -27.1939 H   0  0  0  0  0  0  0  0  0  0  0  0
   -3.2528   24.4183  -28.2757 H   0  0  0  0  0  0  0  0  0  0  0  0
   -2.5343   25.8989  -27.5407 H   0  0  0  0  0  0  0  0  0  0  0  0
   -1.9860   24.5830  -29.9590 H   0  0  0  0  0  0  0  0  0  0  0  0
   -5.5297   20.2973  -32.5757 H   0  0  0  0  0  0  0  0  0  0  0  0
  1  2  1  0
  2  3  1  0
  3  4  1  0
  4  5  2  0
  5  6  1  0
  6  7  2  0
  7  8  1  0
  8  9  2  0
  9 10  1  0
 10 11  1  0
 10 12  2  0
  9 13  1  0
 13 14  1  0
 14 15  2  0
 14 16  1  0
 16 17  1  0
 17 18  1  0
 18 19  2  0
 18 20  1  0
 20 21  1  0
 20 22  1  0
 22 23  1  0
 23 24  1  0
 13 25  1  0
 25 26  2  0
 26  4  1  0
 25  7  1  0
  1 27  1  0
  1 28  1  0
  1 29  1  0
  2 30  1  0
  2 31  1  0
  3 32  1  0
  3 33  1  0
  5 34  1  0
  6 35  1  0
  8 36  1  0
 11 37  1  0
 17 38  1  0
 17 39  1  0
 21 40  1  0
 21 41  1  0
 21 42  1  0
 22 43  1  0
 22 44  1  0
 23 45  1  0
 23 46  1  0
 24 47  1  0
 26 48  1  0
M  CHG  2   3   1  11  -1
M  END
>  <UniqueID>  (44) 
44

>  <SMILES>  (44) 
CC[NH2+]c1ccc2cc(C([NH-])=O)n(C(=O)OCC(=O)N(C)CCO)c2c1

>  <Energy>  (44) 
79.49390640034339

>  <Genealogy>  (44) 
CC[NH2+]c1ccc2cc(C([NH-])=O)n(C(=O)OCC(=O)N(C)CCO)c2c1 (protonated)
CC[NH2+]c1ccc2cc(C([NH-])=O)n(C(=O)OCC(=O)N(C)CCO)c2c1 (3D coordinates assigned)
CC[NH2+]c1ccc2cc(C([NH-])=O)n(C(=O)OCC(=O)N(C)CCO)c2c1 (optimized conformer: 79.49390640034339 kcal/mol)

>  <smiles>  (44) 
CCNc1ccc2cc(C(N)=O)n(C(=O)OCC(=O)N(C)CCO)c2c1

>  <score_type>  (44) 
oracle

>  <origin>  (44) 
adg

>  <m_score__min__energy>  (44) 
-9.8000000000000007

>  <m_primary>  (44) 
energy

$$$$
44:0
     RDKit          3D

 46 50  0  0  0  0  0  0  0  0999 V2000
   -3.8380   25.2970  -30.5590 N   0  0  0  0  0  0  0  0  0  0  0  0
   -5.2320   25.1210  -30.3290 C   0  0  0  0  0  0  0  0  0  0  0  0
   -5.8670   26.0070  -29.6980 O   0  0  0  0  0  0  0  0  0  0  0  0
   -5.9350   23.9020  -30.7830 C   0  0  0  0  0  0  0  0  0  0  0  0
   -7.2300   23.9060  -31.2990 C   0  0  0  0  0  0  0  0  0  0  0  0
   -7.5290   22.5860  -31.5440 C   0  0  0  0  0  0  0  0  0  0  0  0
   -8.6770   22.0120  -32.0810 C   0  0  0  0  0  0  0  0  0  0  0  0
   -8.7000   20.6170  -32.2480 C   0  0  0  0  0  0  0  0  0  0  0  0
   -7.5860   19.8220  -31.8710 C   0  0  0  0  0  0  0  0  0  0  0  0
   -7.6040   18.3330  -32.0950 C   0  0  0  0  0  0  0  0  0  0  0  0
   -8.8840   17.8290  -31.9450 F   0  0  0  0  0  0  0  0  0  0  0  0
   -6.7790   17.6950  -31.1830 F   0  0  0  0  0  0  0  0  0  0  0  0
   -7.1590   18.0570  -33.3740 F   0  0  0  0  0  0  0  0  0  0  0  0
   -6.4240   20.4490  -31.3660 C   0  0  0  0  0  0  0  0  0  0  0  0
   -6.4400   21.8360  -31.1870 C   0  0  0  0  0  0  0  0  0  0  0  0
   -5.4540   22.6280  -30.7120 N   0  0  0  0  0  0  0  0  0  0  0  0
   -4.1370   22.2060  -30.3210 C   0  0  0  0  0  0  0  0  0  0  0  0
   -3.8540   22.1230  -29.0940 O   0  0  0  0  0  0  0  0  0  0  0  0
   -3.1090   21.8740  -31.3340 C   0  0  0  0  0  0  0  0  0  0  0  0
   -1.7630   21.7320  -30.9770 C   0  0  0  0  0  0  0  0  0  0  0  0
   -0.8330   21.4500  -31.9220 N   0  0  0  0  0  0  0  0  0  0  0  0
   -1.1750   21.2870  -33.2290 C   0  0  0  0  0  0  0  0  0  0  0  0
   -0.1530   20.9950  -34.2020 N   0  0  0  0  0  0  0  0  0  0  0  0
    0.5910   19.7460  -34.2110 C   0  0  0  0  0  0  0  0  0  0  0  0
    1.5730   19.8430  -35.3720 C   0  0  1  0  0  0  0  0  0  0  0  0
    0.9620   19.9200  -36.7640 C   0  0  0  0  0  0  0  0  0  0  0  0
    1.3570   21.1940  -36.0330 C   0  0  1  0  0  0  0  0  0  0  0  0
    0.2520   21.9040  -35.2630 C   0  0  0  0  0  0  0  0  0  0  0  0
   -2.4840   21.4050  -33.5990 N   0  0  0  0  0  0  0  0  0  0  0  0
   -3.4460   21.6890  -32.6820 C   0  0  0  0  0  0  0  0  0  0  0  0
   -3.4900   26.0310  -31.2170 H   0  0  0  0  0  0  0  0  0  0  0  0
   -7.8756   24.7794  -31.4732 H   0  0  0  0  0  0  0  0  0  0  0  0
   -9.5402   22.6313  -32.3661 H   0  0  0  0  0  0  0  0  0  0  0  0
   -9.5916   20.1354  -32.6759 H   0  0  0  0  0  0  0  0  0  0  0  0
   -5.5283   19.8599  -31.1196 H   0  0  0  0  0  0  0  0  0  0  0  0
   -1.4590   21.8496  -29.9264 H   0  0  0  0  0  0  0  0  0  0  0  0
    1.1335   19.6187  -33.2626 H   0  0  0  0  0  0  0  0  0  0  0  0
   -0.0795   18.8815  -34.3250 H   0  0  0  0  0  0  0  0  0  0  0  0
    2.3956   19.2365  -34.9652 H   0  0  0  0  0  0  0  0  0  0  0  0
    1.5401   19.5853  -37.6380 H   0  0  0  0  0  0  0  0  0  0  0  0
    0.0394   19.5447  -37.2309 H   0  0  0  0  0  0  0  0  0  0  0  0
    1.9423   22.0688  -36.3524 H   0  0  0  0  0  0  0  0  0  0  0  0
    0.6291   22.8448  -34.8356 H   0  0  0  0  0  0  0  0  0  0  0  0
   -0.5943   22.1567  -35.9186 H   0  0  0  0  0  0  0  0  0  0  0  0
   -2.7750   21.2760  -34.5920 H   0  0  0  0  0  0  0  0  0  0  0  0
   -4.4957   21.7742  -32.9996 H   0  0  0  0  0  0  0  0  0  0  0  0
  1  2  1  0
  2  3  2  0
  2  4  1  0
  4  5  2  0
  5  6  1  0
  6  7  2  0
  7  8  1  0
  8  9  2  0
  9 10  1  0
 10 11  1  0
 10 12  1  0
 10 13  1  0
  9 14  1  0
 14 15  2  0
 15 16  1  0
 16 17  1  0
 17 18  2  0
 17 19  1  0
 19 20  2  0
 20 21  1  0
 21 22  2  0
 22 23  1  0
 23 24  1  0
 24 25  1  0
 25 26  1  0
 26 27  1  0
 27 28  1  0
 22 29  1  0
 29 30  2  0
 16  4  1  0
 30 19  1  0
 15  6  1  0
 28 23  1  0
 27 25  1  0
  1 31  1  0
  5 32  1  0
  7 33  1  0
  8 34  1  0
 14 35  1  0
 20 36  1  0
 24 37  1  0
 24 38  1  0
 25 39  1  6
 26 40  1  0
 26 41  1  0
 27 42  1  6
 28 43  1  0
 28 44  1  0
 29 45  1  0
 30 46  1  0
M  CHG  2   1  -1  29   1
M  END
>  <UniqueID>  (45) 
45

>  <SMILES>  (45) 
[NH-]C(=O)c1cc2ccc(C(F)(F)F)cc2n1C(=O)c1cnc(N2C[C@H]3C[C@H]3C2)[nH+]c1

>  <Energy>  (45) 
357.4349197727488

>  <Genealogy>  (45) 
[NH-]C(=O)c1cc2ccc(C(F)(F)F)cc2n1C(=O)c1cnc(N2CC3CC3C2)[nH+]c1 (protonated)
[NH-]C(=O)c1cc2ccc(C(F)(F)F)cc2n1C(=O)c1cnc(N2C[C@H]3C[C@H]3C2)[nH+]c1 (chirality)
[NH-]C(=O)c1cc2ccc(C(F)(F)F)cc2n1C(=O)c1cnc(N2C[C@H]3C[C@H]3C2)[nH+]c1 (3D coordinates assigned)
[NH-]C(=O)c1cc2ccc(C(F)(F)F)cc2n1C(=O)c1cnc(N2C[C@H]3C[C@H]3C2)[nH+]c1 (nonaromatic ring conformer: 357.4349197727488 kcal/mol)

>  <smiles>  (45) 
NC(=O)c1cc2ccc(C(F)(F)F)cc2n1C(=O)c1cnc(N2CC3CC3C2)nc1

>  <score_type>  (45) 
oracle

>  <origin>  (45) 
adg

>  <m_score__min__energy>  (45) 
-11.15

>  <m_primary>  (45) 
energy

$$$$
45:0
     RDKit          3D

 52 54  0  0  0  0  0  0  0  0999 V2000
   -8.1300   18.6820  -32.5660 C   0  0  0  0  0  0  0  0  0  0  0  0
   -7.9690   20.1250  -32.1930 C   0  0  0  0  0  0  0  0  0  0  0  0
   -9.1070   20.9600  -32.0730 C   0  0  0  0  0  0  0  0  0  0  0  0
   -8.9720   22.3020  -31.6760 C   0  0  0  0  0  0  0  0  0  0  0  0
   -7.6920   22.7750  -31.4050 C   0  0  0  0  0  0  0  0  0  0  0  0
   -7.2800   24.0180  -30.9800 C   0  0  0  0  0  0  0  0  0  0  0  0
   -5.8940   23.9250  -30.8550 C   0  0  0  0  0  0  0  0  0  0  0  0
   -5.0200   25.0680  -30.5060 C   0  0  0  0  0  0  0  0  0  0  0  0
   -3.7000   24.8520  -30.0060 N   0  0  0  0  0  0  0  0  0  0  0  0
   -5.4470   26.2480  -30.6190 O   0  0  0  0  0  0  0  0  0  0  0  0
   -5.4680   22.6740  -31.1870 N   0  0  0  0  0  0  0  0  0  0  0  0
   -4.1270   22.1600  -31.1460 C   0  0  0  0  0  0  0  0  0  0  0  0
   -3.4640   22.0400  -32.2120 O   0  0  0  0  0  0  0  0  0  0  0  0
   -3.5580   21.8080  -29.9170 O   0  0  0  0  0  0  0  0  0  0  0  0
   -2.1670   21.5260  -29.7420 C   0  0  1  0  0  0  0  0  0  0  0  0
   -1.4210   22.7560  -29.3150 C   0  0  0  0  0  0  0  0  0  0  0  0
   -0.3620   23.0960  -29.9100 O   0  0  0  0  0  0  0  0  0  0  0  0
   -1.9530   23.5520  -28.2980 O   0  0  0  0  0  0  0  0  0  0  0  0
   -1.2550   23.8270  -27.0890 C   0  0  0  0  0  0  0  0  0  0  0  0
   -0.3000   25.0040  -27.2910 C   0  0  0  0  0  0  0  0  0  0  0  0
   -0.9860   26.2110  -27.9460 C   0  0  0  0  0  0  0  0  0  0  0  0
   -1.2140   25.9850  -29.3110 O   0  0  0  0  0  0  0  0  0  0  0  0
   -1.9880   20.4500  -28.7010 C   0  0  0  0  0  0  0  0  0  0  0  0
   -2.9490   20.2600  -27.6900 C   0  0  0  0  0  0  0  0  0  0  0  0
   -2.7550   19.2880  -26.7050 C   0  0  0  0  0  0  0  0  0  0  0  0
   -1.5960   18.5070  -26.7100 C   0  0  0  0  0  0  0  0  0  0  0  0
   -0.6280   18.7000  -27.6980 C   0  0  0  0  0  0  0  0  0  0  0  0
   -0.8180   19.6710  -28.6860 C   0  0  0  0  0  0  0  0  0  0  0  0
   -6.5800   21.9820  -31.5210 C   0  0  0  0  0  0  0  0  0  0  0  0
   -6.6880   20.6360  -31.8930 C   0  0  0  0  0  0  0  0  0  0  0  0
   -8.1980   18.0726  -31.6528 H   0  0  0  0  0  0  0  0  0  0  0  0
   -9.0477   18.5569  -33.1595 H   0  0  0  0  0  0  0  0  0  0  0  0
   -7.2625   18.3577  -33.1595 H   0  0  0  0  0  0  0  0  0  0  0  0
  -10.1057   20.5546  -32.2925 H   0  0  0  0  0  0  0  0  0  0  0  0
   -9.8506   22.9572  -31.5826 H   0  0  0  0  0  0  0  0  0  0  0  0
   -7.9100   24.8975  -30.7813 H   0  0  0  0  0  0  0  0  0  0  0  0
   -3.1060   25.6640  -29.7270 H   0  0  0  0  0  0  0  0  0  0  0  0
   -3.2910   23.8930  -29.9490 H   0  0  0  0  0  0  0  0  0  0  0  0
   -1.7635   21.1831  -30.7061 H   0  0  0  0  0  0  0  0  0  0  0  0
   -1.9790   24.0770  -26.2995 H   0  0  0  0  0  0  0  0  0  0  0  0
   -0.6756   22.9387  -26.7972 H   0  0  0  0  0  0  0  0  0  0  0  0
    0.0940   25.3110  -26.3109 H   0  0  0  0  0  0  0  0  0  0  0  0
    0.5042   24.6707  -27.9634 H   0  0  0  0  0  0  0  0  0  0  0  0
   -1.9492   26.3912  -27.4463 H   0  0  0  0  0  0  0  0  0  0  0  0
   -0.3263   27.0852  -27.8429 H   0  0  0  0  0  0  0  0  0  0  0  0
   -0.9370   25.0490  -29.4950 H   0  0  0  0  0  0  0  0  0  0  0  0
   -3.8575   20.8800  -27.6753 H   0  0  0  0  0  0  0  0  0  0  0  0
   -3.5155   19.1373  -25.9247 H   0  0  0  0  0  0  0  0  0  0  0  0
   -1.4462   17.7402  -25.9357 H   0  0  0  0  0  0  0  0  0  0  0  0
    0.2854   18.0871  -27.6989 H   0  0  0  0  0  0  0  0  0  0  0  0
   -0.0477   19.8261  -29.4558 H   0  0  0  0  0  0  0  0  0  0  0  0
   -5.7970   19.9934  -31.9499 H   0  0  0  0  0  0  0  0  0  0  0  0
  1  2  1  0
  2  3  2  0
  3  4  1  0
  4  5  2  0
  5  6  1  0
  6  7  2  0
  7  8  1  0
  8  9  1  0
  8 10  2  0
  7 11  1  0
 11 12  1  0
 12 13  2  0
 12 14  1  0
 14 15  1  0
 15 16  1  0
 16 17  2  0
 16 18  1  0
 18 19  1  0
 19 20  1  0
 20 21  1  0
 21 22  1  0
 15 23  1  0
 23 24  2  0
 24 25  1  0
 25 26  2  0
 26 27  1  0
 27 28  2  0
 11 29  1  0
 29 30  2  0
 30  2  1  0
 29  5  1  0
 28 23  1  0
  1 31  1  0
  1 32  1  0
  1 33  1  0
  3 34  1  0
  4 35  1  0
  6 36  1  0
  9 37  1  0
  9 38  1  0
 15 39  1  6
 19 40  1  0
 19 41  1  0
 20 42  1  0
 20 43  1  0
 21 44  1  0
 21 45  1  0
 22 46  1  0
 24 47  1  0
 25 48  1  0
 26 49  1  0
 27 50  1  0
 28 51  1  0
 30 52  1  0
M  END
>  <UniqueID>  (46) 
46

>  <SMILES>  (46) 
Cc1ccc2cc(C(N)=O)n(C(=O)O[C@@H](C(=O)OCCCO)c3ccccc3)c2c1

>  <Energy>  (46) 
82.60474882026836

>  <Genealogy>  (46) 
Cc1ccc2cc(C(N)=O)n(C(=O)O[C@@H](C(=O)OCCCO)c3ccccc3)c2c1 (chirality)
Cc1ccc2cc(C(N)=O)n(C(=O)O[C@@H](C(=O)OCCCO)c3ccccc3)c2c1 (3D coordinates assigned)
Cc1ccc2cc(C(N)=O)n(C(=O)O[C@@H](C(=O)OCCCO)c3ccccc3)c2c1 (optimized conformer: 82.60474882026836 kcal/mol)

>  <smiles>  (46) 
Cc1ccc2cc(C(N)=O)n(C(=O)OC(C(=O)OCCCO)c3ccccc3)c2c1

>  <score_type>  (46) 
oracle

>  <origin>  (46) 
adg

>  <m_score__min__energy>  (46) 
-9.9199999999999999

>  <m_primary>  (46) 
energy

$$$$
46:0
     RDKit          3D

 40 41  0  0  0  0  0  0  0  0999 V2000
   -3.4930   24.4360  -29.2050 N   0  0  0  0  0  0  0  0  0  0  0  0
   -4.4430   24.6820  -30.2420 C   0  0  0  0  0  0  0  0  0  0  0  0
   -4.4040   25.7740  -30.8690 O   0  0  0  0  0  0  0  0  0  0  0  0
   -5.4270   23.6550  -30.6370 C   0  0  0  0  0  0  0  0  0  0  0  0
   -6.7720   23.9330  -30.8670 C   0  0  0  0  0  0  0  0  0  0  0  0
   -7.3240   22.7400  -31.2700 C   0  0  0  0  0  0  0  0  0  0  0  0
   -8.6350   22.4390  -31.6230 C   0  0  0  0  0  0  0  0  0  0  0  0
   -8.9370   21.1130  -31.9710 C   0  0  0  0  0  0  0  0  0  0  0  0
   -7.9360   20.1090  -31.9360 C   0  0  0  0  0  0  0  0  0  0  0  0
   -8.2650   18.6950  -32.3460 C   0  0  0  0  0  0  0  0  0  0  0  0
   -8.0160   17.8140  -31.3090 F   0  0  0  0  0  0  0  0  0  0  0  0
   -9.6010   18.5850  -32.6940 F   0  0  0  0  0  0  0  0  0  0  0  0
   -7.4860   18.3440  -33.4330 F   0  0  0  0  0  0  0  0  0  0  0  0
   -6.6090   20.4600  -31.5950 C   0  0  0  0  0  0  0  0  0  0  0  0
   -6.3320   21.7930  -31.2680 C   0  0  0  0  0  0  0  0  0  0  0  0
   -5.1570   22.3400  -30.8750 N   0  0  0  0  0  0  0  0  0  0  0  0
   -3.9260   21.6470  -30.6090 C   0  0  0  0  0  0  0  0  0  0  0  0
   -3.2290   21.2090  -31.5630 O   0  0  0  0  0  0  0  0  0  0  0  0
   -3.5150   21.4520  -29.2840 O   0  0  0  0  0  0  0  0  0  0  0  0
   -2.2260   20.9590  -28.9130 C   0  0  0  0  0  0  0  0  0  0  0  0
   -1.1780   22.0810  -28.9140 C   0  0  1  0  0  0  0  0  0  0  0  0
   -1.5220   23.0420  -29.8780 O   0  0  0  0  0  0  0  0  0  0  0  0
   -1.0180   22.7400  -27.5330 C   0  0  0  0  0  0  0  0  0  0  0  0
   -1.6750   23.9880  -27.5140 O   0  0  0  0  0  0  0  0  0  0  0  0
   -0.5820   25.1810  -28.0530 P   0  0  0  0  0  0  0  0  0  0  0  0
   -0.2510   26.1290  -26.9220 O   0  0  0  0  0  0  0  0  0  0  0  0
    0.8400   24.4280  -28.5730 O   0  0  0  0  0  0  0  0  0  0  0  0
   -1.2490   26.0510  -29.3420 O   0  0  0  0  0  0  0  0  0  0  0  0
   -3.3950   23.4890  -28.7770 H   0  0  0  0  0  0  0  0  0  0  0  0
   -2.8280   25.1860  -28.9130 H   0  0  0  0  0  0  0  0  0  0  0  0
   -7.2833   24.9000  -30.7511 H   0  0  0  0  0  0  0  0  0  0  0  0
   -9.4125   23.2171  -31.6293 H   0  0  0  0  0  0  0  0  0  0  0  0
   -9.9611   20.8498  -32.2741 H   0  0  0  0  0  0  0  0  0  0  0  0
   -5.8118   19.7021  -31.5869 H   0  0  0  0  0  0  0  0  0  0  0  0
   -2.2852   20.5249  -27.9040 H   0  0  0  0  0  0  0  0  0  0  0  0
   -1.9209   20.1983  -29.6467 H   0  0  0  0  0  0  0  0  0  0  0  0
   -0.2062   21.6302  -29.1637 H   0  0  0  0  0  0  0  0  0  0  0  0
   -1.0590   23.8830  -29.6240 H   0  0  0  0  0  0  0  0  0  0  0  0
   -1.4562   22.0861  -26.7646 H   0  0  0  0  0  0  0  0  0  0  0  0
    0.0519   22.8925  -27.3279 H   0  0  0  0  0  0  0  0  0  0  0  0
  1  2  1  0
  2  3  2  0
  2  4  1  0
  4  5  2  0
  5  6  1  0
  6  7  2  0
  7  8  1  0
  8  9  2  0
  9 10  1  0
 10 11  1  0
 10 12  1  0
 10 13  1  0
  9 14  1  0
 14 15  2  0
 15 16  1  0
 16 17  1  0
 17 18  2  0
 17 19  1  0
 19 20  1  0
 20 21  1  0
 21 22  1  0
 21 23  1  0
 23 24  1  0
 24 25  1  0
 25 26  2  0
 25 27  1  0
 25 28  1  0
 16  4  1  0
 15  6  1  0
  1 29  1  0
  1 30  1  0
  5 31  1  0
  7 32  1  0
  8 33  1  0
 14 34  1  0
 20 35  1  0
 20 36  1  0
 21 37  1  6
 22 38  1  0
 23 39  1  0
 23 40  1  0
M  CHG  2  27  -1  28  -1
M  END
>  <UniqueID>  (47) 
47

>  <SMILES>  (47) 
NC(=O)c1cc2ccc(C(F)(F)F)cc2n1C(=O)OC[C@@H](O)COP(=O)([O-])[O-]

>  <Energy>  (47) 
73.68404053015767

>  <Genealogy>  (47) 
NC(=O)c1cc2ccc(C(F)(F)F)cc2n1C(=O)OCC(O)COP(=O)([O-])[O-] (protonated)
NC(=O)c1cc2ccc(C(F)(F)F)cc2n1C(=O)OC[C@@H](O)COP(=O)([O-])[O-] (chirality)
NC(=O)c1cc2ccc(C(F)(F)F)cc2n1C(=O)OC[C@@H](O)COP(=O)([O-])[O-] (3D coordinates assigned)
NC(=O)c1cc2ccc(C(F)(F)F)cc2n1C(=O)OC[C@@H](O)COP(=O)([O-])[O-] (optimized conformer: 73.68404053015767 kcal/mol)

>  <smiles>  (47) 
NC(=O)c1cc2ccc(C(F)(F)F)cc2n1C(=O)OCC(O)COP(=O)(O)O

>  <score_type>  (47) 
oracle

>  <origin>  (47) 
adg

>  <m_score__min__energy>  (47) 
-11.44

>  <m_primary>  (47) 
energy

$$$$
47:0
     RDKit          3D

 37 38  0  0  0  0  0  0  0  0999 V2000
   -3.8870   25.2700  -30.8830 N   0  0  0  0  0  0  0  0  0  0  0  0
   -5.1810   24.9730  -30.3670 C   0  0  0  0  0  0  0  0  0  0  0  0
   -5.7180   25.7750  -29.5580 O   0  0  0  0  0  0  0  0  0  0  0  0
   -5.9140   23.7610  -30.7910 C   0  0  0  0  0  0  0  0  0  0  0  0
   -7.2960   23.6170  -30.6840 C   0  0  0  0  0  0  0  0  0  0  0  0
   -7.5790   22.3860  -31.2330 C   0  0  0  0  0  0  0  0  0  0  0  0
   -8.7980   21.7300  -31.3870 C   0  0  0  0  0  0  0  0  0  0  0  0
   -8.7880   20.4540  -31.9750 C   0  0  0  0  0  0  0  0  0  0  0  0
   -7.5690   19.8520  -32.3760 C   0  0  0  0  0  0  0  0  0  0  0  0
   -7.5700   18.4980  -33.0290 C   0  0  0  0  0  0  0  0  0  0  0  0
   -6.2650   18.2590  -33.7160 C   0  0  0  0  0  0  0  0  0  0  0  0
   -5.3690   17.5730  -33.1560 O   0  0  0  0  0  0  0  0  0  0  0  0
   -6.0160   18.8360  -34.9550 O   0  0  0  0  0  0  0  0  0  0  0  0
   -6.3530   20.5510  -32.2090 C   0  0  0  0  0  0  0  0  0  0  0  0
   -6.3960   21.8300  -31.6430 C   0  0  0  0  0  0  0  0  0  0  0  0
   -5.3660   22.6630  -31.3840 N   0  0  0  0  0  0  0  0  0  0  0  0
   -3.9760   22.3940  -31.6250 C   0  0  0  0  0  0  0  0  0  0  0  0
   -3.5190   22.4730  -32.7970 O   0  0  0  0  0  0  0  0  0  0  0  0
   -3.0760   22.0400  -30.5200 C   0  0  0  0  0  0  0  0  0  0  0  0
   -3.0940   20.8720  -30.0450 O   0  0  0  0  0  0  0  0  0  0  0  0
   -2.1990   23.0030  -30.0070 O   0  0  0  0  0  0  0  0  0  0  0  0
   -1.4440   22.8160  -28.8120 C   0  0  0  0  0  0  0  0  0  0  0  0
   -1.7190   23.9500  -27.8230 C   0  0  0  0  0  0  0  0  0  0  0  0
   -1.0090   25.1980  -28.2420 C   0  0  0  0  0  0  0  0  0  0  0  0
   -1.5950   26.0490  -28.9610 O   0  0  0  0  0  0  0  0  0  0  0  0
    0.3170   25.3970  -27.8820 O   0  0  0  0  0  0  0  0  0  0  0  0
   -3.0290   25.1030  -30.3120 H   0  0  0  0  0  0  0  0  0  0  0  0
   -8.0095   24.3344  -30.2525 H   0  0  0  0  0  0  0  0  0  0  0  0
   -9.7387   22.1961  -31.0587 H   0  0  0  0  0  0  0  0  0  0  0  0
   -9.7359   19.9166  -32.1257 H   0  0  0  0  0  0  0  0  0  0  0  0
   -7.7248   17.7244  -32.2625 H   0  0  0  0  0  0  0  0  0  0  0  0
   -8.3808   18.4566  -33.7712 H   0  0  0  0  0  0  0  0  0  0  0  0
   -5.3970   20.1016  -32.5159 H   0  0  0  0  0  0  0  0  0  0  0  0
   -1.7260   21.8576  -28.3517 H   0  0  0  0  0  0  0  0  0  0  0  0
   -0.3732   22.8146  -29.0637 H   0  0  0  0  0  0  0  0  0  0  0  0
   -2.8011   24.1443  -27.7876 H   0  0  0  0  0  0  0  0  0  0  0  0
   -1.3534   23.6506  -26.8297 H   0  0  0  0  0  0  0  0  0  0  0  0
  1  2  1  0
  2  3  2  0
  2  4  1  0
  4  5  2  0
  5  6  1  0
  6  7  2  0
  7  8  1  0
  8  9  2  0
  9 10  1  0
 10 11  1  0
 11 12  2  0
 11 13  1  0
  9 14  1  0
 14 15  2  0
 15 16  1  0
 16 17  1  0
 17 18  2  0
 17 19  1  0
 19 20  2  0
 19 21  1  0
 21 22  1  0
 22 23  1  0
 23 24  1  0
 24 25  2  0
 24 26  1  0
 16  4  1  0
 15  6  1  0
  1 27  1  0
  5 28  1  0
  7 29  1  0
  8 30  1  0
 10 31  1  0
 10 32  1  0
 14 33  1  0
 22 34  1  0
 22 35  1  0
 23 36  1  0
 23 37  1  0
M  CHG  3   1  -1  13  -1  26  -1
M  END
>  <UniqueID>  (48) 
48

>  <SMILES>  (48) 
[NH-]C(=O)c1cc2ccc(CC(=O)[O-])cc2n1C(=O)C(=O)OCCC(=O)[O-]

>  <Energy>  (48) 
69.83237979078208

>  <Genealogy>  (48) 
[NH-]C(=O)c1cc2ccc(CC(=O)[O-])cc2n1C(=O)C(=O)OCCC(=O)[O-] (protonated)
[NH-]C(=O)c1cc2ccc(CC(=O)[O-])cc2n1C(=O)C(=O)OCCC(=O)[O-] (3D coordinates assigned)
[NH-]C(=O)c1cc2ccc(CC(=O)[O-])cc2n1C(=O)C(=O)OCCC(=O)[O-] (optimized conformer: 69.83237979078208 kcal/mol)

>  <smiles>  (48) 
NC(=O)c1cc2ccc(CC(=O)O)cc2n1C(=O)C(=O)OCCC(=O)O

>  <score_type>  (48) 
oracle

>  <origin>  (48) 
adg

>  <m_score__min__energy>  (48) 
-12.33

>  <m_primary>  (48) 
energy

$$$$
48:0
     RDKit          3D

 43 44  0  0  0  0  0  0  0  0999 V2000
   -0.7440   25.2910  -29.7040 H   0  0  0  0  0  0  0  0  0  0  0  0
   -1.2210   26.0700  -29.3170 O   0  0  0  0  0  0  0  0  0  0  0  0
   -0.8620   26.1310  -27.9640 C   0  0  0  0  0  0  0  0  0  0  0  0
   -1.5427   26.8186  -27.4406 H   0  0  0  0  0  0  0  0  0  0  0  0
    0.1752   26.4898  -27.8895 H   0  0  0  0  0  0  0  0  0  0  0  0
   -0.9510   24.7470  -27.3170 C   0  0  0  0  0  0  0  0  0  0  0  0
   -1.2460   24.8593  -26.2633 H   0  0  0  0  0  0  0  0  0  0  0  0
    0.0325   24.2594  -27.3881 H   0  0  0  0  0  0  0  0  0  0  0  0
   -1.9440   23.9120  -28.0100 N   0  0  0  0  0  0  0  0  0  0  0  0
   -1.5790   23.1730  -29.1880 C   0  0  0  0  0  0  0  0  0  0  0  0
   -0.3740   23.1450  -29.5540 O   0  0  0  0  0  0  0  0  0  0  0  0
   -2.5770   22.4470  -29.9950 C   0  0  0  0  0  0  0  0  0  0  0  0
   -2.8199   21.4072  -29.7308 H   0  0  0  0  0  0  0  0  0  0  0  0
   -3.1970   23.0110  -31.0380 C   0  0  0  0  0  0  0  0  0  0  0  0
   -2.9470   24.0486  -31.3045 H   0  0  0  0  0  0  0  0  0  0  0  0
   -4.2030   22.2940  -31.8440 C   0  0  0  0  0  0  0  0  0  0  0  0
   -3.8150   21.5840  -32.8100 O   0  0  0  0  0  0  0  0  0  0  0  0
   -5.6070   22.3750  -31.5490 N   0  0  0  0  0  0  0  0  0  0  0  0
   -6.2480   23.3570  -30.8580 C   0  0  0  0  0  0  0  0  0  0  0  0
   -5.6450   24.6290  -30.4070 C   0  0  0  0  0  0  0  0  0  0  0  0
   -4.9730   25.3160  -31.2210 O   0  0  0  0  0  0  0  0  0  0  0  0
   -5.7670   25.0710  -29.0540 N   0  0  0  0  0  0  0  0  0  0  0  0
   -5.3840   26.0010  -28.7730 H   0  0  0  0  0  0  0  0  0  0  0  0
   -6.1390   24.4420  -28.3090 H   0  0  0  0  0  0  0  0  0  0  0  0
   -7.5750   23.0060  -30.6260 C   0  0  0  0  0  0  0  0  0  0  0  0
   -8.3376   23.5949  -30.0953 H   0  0  0  0  0  0  0  0  0  0  0  0
   -7.7300   21.7650  -31.2020 C   0  0  0  0  0  0  0  0  0  0  0  0
   -8.8420   20.9300  -31.2510 C   0  0  0  0  0  0  0  0  0  0  0  0
   -9.8030   21.2398  -30.8145 H   0  0  0  0  0  0  0  0  0  0  0  0
   -8.7000   19.6790  -31.8750 C   0  0  0  0  0  0  0  0  0  0  0  0
   -9.5626   18.9990  -31.9351 H   0  0  0  0  0  0  0  0  0  0  0  0
   -7.4550   19.2850  -32.4280 C   0  0  0  0  0  0  0  0  0  0  0  0
   -7.3020   17.9390  -33.0780 C   0  0  0  0  0  0  0  0  0  0  0  0
   -8.2943   17.5641  -33.3693 H   0  0  0  0  0  0  0  0  0  0  0  0
   -6.5040   18.0510  -34.2020 F   0  0  0  0  0  0  0  0  0  0  0  0
   -6.7170   17.0580  -32.1880 F   0  0  0  0  0  0  0  0  0  0  0  0
   -6.3460   20.1550  -32.3510 C   0  0  0  0  0  0  0  0  0  0  0  0
   -5.3672   19.8595  -32.7567 H   0  0  0  0  0  0  0  0  0  0  0  0
   -6.5250   21.4030  -31.7450 C   0  0  0  0  0  0  0  0  0  0  0  0
   -3.2690   23.6960  -27.4280 C   0  0  0  0  0  0  0  0  0  0  0  0
   -3.1939   23.7082  -26.3306 H   0  0  0  0  0  0  0  0  0  0  0  0
   -3.9491   24.4951  -27.7579 H   0  0  0  0  0  0  0  0  0  0  0  0
   -3.6601   22.7222  -27.7579 H   0  0  0  0  0  0  0  0  0  0  0  0
  1  2  1  0
  2  3  1  0
  3  4  1  0
  3  5  1  0
  3  6  1  0
  6  7  1  0
  6  8  1  0
  6  9  1  0
  9 10  1  0
 10 11  2  0
 10 12  1  0
 12 13  1  0
 12 14  2  0
 14 15  1  0
 14 16  1  0
 16 17  2  0
 16 18  1  0
 18 19  1  0
 19 20  1  0
 20 21  2  0
 20 22  1  0
 22 23  1  0
 22 24  1  0
 19 25  2  0
 25 26  1  0
 25 27  1  0
 27 28  2  0
 28 29  1  0
 28 30  1  0
 30 31  1  0
 30 32  2  0
 32 33  1  0
 33 34  1  0
 33 35  1  0
 33 36  1  0
 32 37  1  0
 37 38  1  0
 37 39  2  0
  9 40  1  0
 40 41  1  0
 40 42  1  0
 40 43  1  0
 39 18  1  0
 39 27  1  0
M  END
>  <UniqueID>  (49) 
49

>  <SMILES>  (49) 
CN(CCO)C(=O)/C=C/C(=O)n1c(C(N)=O)cc2ccc(C(F)F)cc21

>  <Energy>  (49) 
81.94971486807653

>  <Genealogy>  (49) 
CN(CCO)C(=O)/C=C/C(=O)n1c(C(N)=O)cc2ccc(C(F)F)cc21 (cis-trans isomerization)
CN(CCO)C(=O)/C=C/C(=O)n1c(C(N)=O)cc2ccc(C(F)F)cc21 (3D coordinates assigned)
CN(CCO)C(=O)/C=C/C(=O)n1c(C(N)=O)cc2ccc(C(F)F)cc21 (optimized conformer: 81.94971486807653 kcal/mol)

>  <smiles>  (49) 
CN(CCO)C(=O)C=CC(=O)n1c(C(N)=O)cc2ccc(C(F)F)cc21

>  <score_type>  (49) 
oracle

>  <origin>  (49) 
adg

>  <m_score__min__energy>  (49) 
-9.2200000000000006

>  <m_primary>  (49) 
energy

$$$$
49:0
     RDKit          3D

 55 58  0  0  0  0  0  0  0  0999 V2000
   -2.0770   16.5810  -33.8220 C   0  0  0  0  0  0  0  0  0  0  0  0
   -3.0310   15.9030  -34.7150 N   0  0  0  0  0  0  0  0  0  0  0  0
   -3.7830   14.8520  -33.9990 C   0  0  0  0  0  0  0  0  0  0  0  0
   -4.6790   15.4200  -33.0410 O   0  0  0  0  0  0  0  0  0  0  0  0
   -5.3660   16.6040  -33.3100 C   0  0  0  0  0  0  0  0  0  0  0  0
   -6.3450   17.0320  -32.4730 N   0  0  0  0  0  0  0  0  0  0  0  0
   -7.0260   18.1850  -32.7270 C   0  0  0  0  0  0  0  0  0  0  0  0
   -8.0410   18.6350  -31.8190 N   0  0  0  0  0  0  0  0  0  0  0  0
   -7.9390   20.0620  -31.6580 C   0  0  0  0  0  0  0  0  0  0  0  0
   -9.0770   20.8860  -31.8580 C   0  0  0  0  0  0  0  0  0  0  0  0
   -8.9900   22.2800  -31.7070 C   0  0  0  0  0  0  0  0  0  0  0  0
   -7.7530   22.8230  -31.3710 C   0  0  0  0  0  0  0  0  0  0  0  0
   -7.3980   24.1300  -31.1230 C   0  0  0  0  0  0  0  0  0  0  0  0
   -6.0410   24.0910  -30.8080 C   0  0  0  0  0  0  0  0  0  0  0  0
   -5.2320   25.2970  -30.5410 C   0  0  0  0  0  0  0  0  0  0  0  0
   -3.8390   25.3240  -30.8410 N   0  0  0  0  0  0  0  0  0  0  0  0
   -5.7860   26.3320  -30.0830 O   0  0  0  0  0  0  0  0  0  0  0  0
   -5.5770   22.8110  -30.8570 N   0  0  0  0  0  0  0  0  0  0  0  0
   -4.2720   22.3400  -30.4880 C   0  0  0  0  0  0  0  0  0  0  0  0
   -3.5670   23.0160  -29.6900 O   0  0  0  0  0  0  0  0  0  0  0  0
   -3.7890   21.1450  -31.0430 O   0  0  0  0  0  0  0  0  0  0  0  0
   -3.1230   21.0000  -32.3060 C   0  0  0  0  0  0  0  0  0  0  0  0
   -1.6800   21.5330  -32.2240 C   0  0  0  0  0  0  0  0  0  0  0  0
   -3.9050   21.8390  -33.3280 C   0  0  0  0  0  0  0  0  0  0  0  0
   -3.1330   19.5290  -32.7600 C   0  0  0  0  0  0  0  0  0  0  0  0
   -6.6360   22.0460  -31.2030 C   0  0  0  0  0  0  0  0  0  0  0  0
   -6.6970   20.6550  -31.3310 C   0  0  0  0  0  0  0  0  0  0  0  0
   -6.7150   18.9270  -33.8260 N   0  0  0  0  0  0  0  0  0  0  0  0
   -5.7380   18.5350  -34.6850 C   0  0  0  0  0  0  0  0  0  0  0  0
   -5.0250   17.3600  -34.4340 C   0  0  0  0  0  0  0  0  0  0  0  0
   -3.9490   16.8660  -35.3680 C   0  0  0  0  0  0  0  0  0  0  0  0
   -2.3522   16.3854  -32.7751 H   0  0  0  0  0  0  0  0  0  0  0  0
   -1.0627   16.2000  -34.0118 H   0  0  0  0  0  0  0  0  0  0  0  0
   -2.1033   17.6642  -34.0118 H   0  0  0  0  0  0  0  0  0  0  0  0
   -4.3615   14.2650  -34.7276 H   0  0  0  0  0  0  0  0  0  0  0  0
   -3.0649   14.2105  -33.4672 H   0  0  0  0  0  0  0  0  0  0  0  0
   -7.9230   18.1540  -30.8970 H   0  0  0  0  0  0  0  0  0  0  0  0
   -8.9870   18.3820  -32.1900 H   0  0  0  0  0  0  0  0  0  0  0  0
  -10.0381   20.4280  -32.1344 H   0  0  0  0  0  0  0  0  0  0  0  0
   -9.8716   22.9222  -31.8498 H   0  0  0  0  0  0  0  0  0  0  0  0
   -8.0476   25.0167  -31.1647 H   0  0  0  0  0  0  0  0  0  0  0  0
   -3.1260   25.1560  -30.0970 H   0  0  0  0  0  0  0  0  0  0  0  0
   -1.3883   21.6407  -31.1689 H   0  0  0  0  0  0  0  0  0  0  0  0
   -0.9994   20.8269  -32.7223 H   0  0  0  0  0  0  0  0  0  0  0  0
   -1.6218   22.5119  -32.7223 H   0  0  0  0  0  0  0  0  0  0  0  0
   -4.5621   22.5440  -32.7976 H   0  0  0  0  0  0  0  0  0  0  0  0
   -3.1994   22.3993  -33.9591 H   0  0  0  0  0  0  0  0  0  0  0  0
   -4.5135   21.1745  -33.9591 H   0  0  0  0  0  0  0  0  0  0  0  0
   -3.1375   18.8728  -31.8772 H   0  0  0  0  0  0  0  0  0  0  0  0
   -4.0325   19.3377  -33.3636 H   0  0  0  0  0  0  0  0  0  0  0  0
   -2.2362   19.3255  -33.3636 H   0  0  0  0  0  0  0  0  0  0  0  0
   -5.8001   20.0362  -31.1809 H   0  0  0  0  0  0  0  0  0  0  0  0
   -5.5093   19.1403  -35.5745 H   0  0  0  0  0  0  0  0  0  0  0  0
   -4.4266   16.3717  -36.2268 H   0  0  0  0  0  0  0  0  0  0  0  0
   -3.3535   17.7357  -35.6827 H   0  0  0  0  0  0  0  0  0  0  0  0
  1  2  1  0
  2  3  1  0
  3  4  1  0
  4  5  1  0
  5  6  2  0
  6  7  1  0
  7  8  1  0
  8  9  1  0
  9 10  2  0
 10 11  1  0
 11 12  2  0
 12 13  1  0
 13 14  2  0
 14 15  1  0
 15 16  1  0
 15 17  2  0
 14 18  1  0
 18 19  1  0
 19 20  2  0
 19 21  1  0
 21 22  1  0
 22 23  1  0
 22 24  1  0
 22 25  1  0
 18 26  1  0
 26 27  2  0
  7 28  2  0
 28 29  1  0
 29 30  2  0
 30 31  1  0
 31  2  1  0
 30  5  1  0
 27  9  1  0
 26 12  1  0
  1 32  1  0
  1 33  1  0
  1 34  1  0
  3 35  1  0
  3 36  1  0
  8 37  1  0
  8 38  1  0
 10 39  1  0
 11 40  1  0
 13 41  1  0
 16 42  1  0
 23 43  1  0
 23 44  1  0
 23 45  1  0
 24 46  1  0
 24 47  1  0
 24 48  1  0
 25 49  1  0
 25 50  1  0
 25 51  1  0
 27 52  1  0
 29 53  1  0
 31 54  1  0
 31 55  1  0
M  CHG  2   8   1  16  -1
M  END
>  <UniqueID>  (50) 
50

>  <SMILES>  (50) 
CN1COc2nc([NH2+]c3ccc4cc(C([NH-])=O)n(C(=O)OC(C)(C)C)c4c3)ncc2C1

>  <Energy>  (50) 
98.99385866277916

>  <Genealogy>  (50) 
CN1COc2nc([NH2+]c3ccc4cc(C([NH-])=O)n(C(=O)OC(C)(C)C)c4c3)ncc2C1 (protonated)
CN1COc2nc([NH2+]c3ccc4cc(C([NH-])=O)n(C(=O)OC(C)(C)C)c4c3)ncc2C1 (3D coordinates assigned)
CN1COc2nc([NH2+]c3ccc4cc(C([NH-])=O)n(C(=O)OC(C)(C)C)c4c3)ncc2C1 (nonaromatic ring conformer: 98.99385866277916 kcal/mol)

>  <smiles>  (50) 
CN1COc2nc(Nc3ccc4cc(C(N)=O)n(C(=O)OC(C)(C)C)c4c3)ncc2C1

>  <score_type>  (50) 
oracle

>  <origin>  (50) 
adg

>  <m_score__min__energy>  (50) 
-10.99

>  <m_primary>  (50) 
energy

$$$$
50:0
     RDKit          3D

 38 39  0  0  0  0  0  0  0  0999 V2000
   -9.7520   21.6420  -31.1960 C   0  0  0  0  0  0  0  0  0  0  0  0
   -8.6720   20.7560  -31.7400 C   0  0  0  0  0  0  0  0  0  0  0  0
   -8.9770   19.4380  -32.1610 C   0  0  0  0  0  0  0  0  0  0  0  0
   -7.9800   18.6130  -32.7110 C   0  0  0  0  0  0  0  0  0  0  0  0
   -6.6960   19.1350  -32.8310 C   0  0  0  0  0  0  0  0  0  0  0  0
   -5.5480   18.5690  -33.3430 C   0  0  0  0  0  0  0  0  0  0  0  0
   -4.5650   19.5530  -33.2250 C   0  0  0  0  0  0  0  0  0  0  0  0
   -3.1430   19.3800  -33.6100 C   0  0  0  0  0  0  0  0  0  0  0  0
   -2.4090   20.4440  -34.2160 N   0  0  0  0  0  0  0  0  0  0  0  0
   -2.5670   18.2770  -33.4110 O   0  0  0  0  0  0  0  0  0  0  0  0
   -5.0880   20.6730  -32.6550 N   0  0  0  0  0  0  0  0  0  0  0  0
   -4.4190   21.9120  -32.3830 C   0  0  0  0  0  0  0  0  0  0  0  0
   -4.1170   22.6670  -33.3470 O   0  0  0  0  0  0  0  0  0  0  0  0
   -4.1000   22.3040  -31.0300 N   0  0  0  0  0  0  0  0  0  0  0  0
   -3.2170   21.4310  -30.2460 C   0  0  0  0  0  0  0  0  0  0  0  0
   -4.7560   23.4720  -30.4100 C   0  0  2  0  0  0  0  0  0  0  0  0
   -5.9910   23.9170  -31.2080 C   0  0  0  0  0  0  0  0  0  0  0  0
   -3.7650   24.5910  -30.2260 C   0  0  0  0  0  0  0  0  0  0  0  0
   -3.8890   25.6760  -30.8520 O   0  0  0  0  0  0  0  0  0  0  0  0
   -2.6660   24.4030  -29.3970 O   0  0  0  0  0  0  0  0  0  0  0  0
   -6.3890   20.4070  -32.4270 C   0  0  0  0  0  0  0  0  0  0  0  0
   -7.3620   21.2570  -31.8950 C   0  0  0  0  0  0  0  0  0  0  0  0
   -9.7252   21.6200  -30.0965 H   0  0  0  0  0  0  0  0  0  0  0  0
   -9.5920   22.6724  -31.5461 H   0  0  0  0  0  0  0  0  0  0  0  0
  -10.7313   21.2837  -31.5461 H   0  0  0  0  0  0  0  0  0  0  0  0
  -10.0034   19.0565  -32.0566 H   0  0  0  0  0  0  0  0  0  0  0  0
   -8.2081   17.5872  -33.0361 H   0  0  0  0  0  0  0  0  0  0  0  0
   -5.4313   17.5565  -33.7568 H   0  0  0  0  0  0  0  0  0  0  0  0
   -2.8210   21.3940  -34.3420 H   0  0  0  0  0  0  0  0  0  0  0  0
   -1.4190   20.2940  -34.5100 H   0  0  0  0  0  0  0  0  0  0  0  0
   -3.3903   21.6023  -29.1733 H   0  0  0  0  0  0  0  0  0  0  0  0
   -3.4311   20.3797  -30.4887 H   0  0  0  0  0  0  0  0  0  0  0  0
   -2.1682   21.6571  -30.4887 H   0  0  0  0  0  0  0  0  0  0  0  0
   -5.1197   23.1779  -29.4144 H   0  0  0  0  0  0  0  0  0  0  0  0
   -6.7926   24.2058  -30.5123 H   0  0  0  0  0  0  0  0  0  0  0  0
   -5.7279   24.7769  -31.8416 H   0  0  0  0  0  0  0  0  0  0  0  0
   -6.3368   23.0869  -31.8416 H   0  0  0  0  0  0  0  0  0  0  0  0
   -7.1136   22.2886  -31.6049 H   0  0  0  0  0  0  0  0  0  0  0  0
  1  2  1  0
  2  3  2  0
  3  4  1  0
  4  5  2  0
  5  6  1  0
  6  7  2  0
  7  8  1  0
  8  9  1  0
  8 10  2  0
  7 11  1  0
 11 12  1  0
 12 13  2  0
 12 14  1  0
 14 15  1  0
 14 16  1  0
 16 17  1  0
 16 18  1  0
 18 19  2  0
 18 20  1  0
 11 21  1  0
 21 22  2  0
 22  2  1  0
 21  5  1  0
  1 23  1  0
  1 24  1  0
  1 25  1  0
  3 26  1  0
  4 27  1  0
  6 28  1  0
  9 29  1  0
  9 30  1  0
 15 31  1  0
 15 32  1  0
 15 33  1  0
 16 34  1  1
 17 35  1  0
 17 36  1  0
 17 37  1  0
 22 38  1  0
M  CHG  1  20  -1
M  END
>  <UniqueID>  (51) 
51

>  <SMILES>  (51) 
Cc1ccc2cc(C(N)=O)n(C(=O)N(C)[C@H](C)C(=O)[O-])c2c1

>  <Energy>  (51) 
74.2957652752472

>  <Genealogy>  (51) 
Cc1ccc2cc(C(N)=O)n(C(=O)N(C)C(C)C(=O)[O-])c2c1 (protonated)
Cc1ccc2cc(C(N)=O)n(C(=O)N(C)[C@H](C)C(=O)[O-])c2c1 (chirality)
Cc1ccc2cc(C(N)=O)n(C(=O)N(C)[C@H](C)C(=O)[O-])c2c1 (3D coordinates assigned)
Cc1ccc2cc(C(N)=O)n(C(=O)N(C)[C@H](C)C(=O)[O-])c2c1 (optimized conformer: 74.2957652752472 kcal/mol)

>  <smiles>  (51) 
Cc1ccc2cc(C(N)=O)n(C(=O)N(C)C(C)C(=O)O)c2c1

>  <score_type>  (51) 
oracle

>  <origin>  (51) 
adg

>  <m_score__min__energy>  (51) 
-10.98

>  <m_primary>  (51) 
energy

$$$$
51:0
     RDKit          3D

 50 51  0  0  0  0  0  0  0  0999 V2000
   -1.6250   27.5340  -38.0850 C   0  0  0  0  0  0  0  0  0  0  0  0
   -1.2180   26.4220  -37.3190 O   0  0  0  0  0  0  0  0  0  0  0  0
    0.1740   26.4750  -37.0610 C   0  0  0  0  0  0  0  0  0  0  0  0
    0.6140   25.2200  -36.3140 C   0  0  0  0  0  0  0  0  0  0  0  0
    1.3880   24.4100  -37.1740 O   0  0  0  0  0  0  0  0  0  0  0  0
    2.5520   23.9510  -36.5130 C   0  0  0  0  0  0  0  0  0  0  0  0
    2.1800   23.2640  -35.2030 C   0  0  0  0  0  0  0  0  0  0  0  0
    1.0090   22.4760  -35.3930 O   0  0  0  0  0  0  0  0  0  0  0  0
    0.5500   21.5710  -34.4340 C   0  0  0  0  0  0  0  0  0  0  0  0
    1.3660   20.9440  -33.7040 O   0  0  0  0  0  0  0  0  0  0  0  0
   -0.8260   21.3700  -34.2950 O   0  0  0  0  0  0  0  0  0  0  0  0
   -1.4490   21.1610  -33.0310 C   0  0  0  0  0  0  0  0  0  0  0  0
   -2.6760   21.8840  -32.9710 O   0  0  0  0  0  0  0  0  0  0  0  0
   -3.2160   22.3600  -31.7700 C   0  0  0  0  0  0  0  0  0  0  0  0
   -2.4590   22.7670  -30.8470 O   0  0  0  0  0  0  0  0  0  0  0  0
   -4.6400   22.3910  -31.5910 N   0  0  0  0  0  0  0  0  0  0  0  0
   -5.3830   23.3760  -31.0130 C   0  0  0  0  0  0  0  0  0  0  0  0
   -4.8520   24.5460  -30.2870 C   0  0  0  0  0  0  0  0  0  0  0  0
   -5.3210   24.8830  -28.9800 N   0  0  0  0  0  0  0  0  0  0  0  0
   -4.0090   25.2940  -30.8510 O   0  0  0  0  0  0  0  0  0  0  0  0
   -6.7440   23.1190  -31.1660 C   0  0  0  0  0  0  0  0  0  0  0  0
   -6.8130   21.9300  -31.8540 C   0  0  0  0  0  0  0  0  0  0  0  0
   -7.9230   21.2210  -32.3070 C   0  0  0  0  0  0  0  0  0  0  0  0
   -7.6990   20.0460  -33.0430 C   0  0  0  0  0  0  0  0  0  0  0  0
   -6.3790   19.6050  -33.3120 C   0  0  0  0  0  0  0  0  0  0  0  0
   -6.1490   18.3740  -34.1410 C   0  0  0  0  0  0  0  0  0  0  0  0
   -6.3080   16.9210  -33.1220 Cl  0  0  0  0  0  0  0  0  0  0  0  0
   -5.2790   20.3580  -32.8500 C   0  0  0  0  0  0  0  0  0  0  0  0
   -5.5310   21.5120  -32.1000 C   0  0  0  0  0  0  0  0  0  0  0  0
   -1.9244   28.3521  -37.4134 H   0  0  0  0  0  0  0  0  0  0  0  0
   -0.7906   27.8673  -38.7195 H   0  0  0  0  0  0  0  0  0  0  0  0
   -2.4774   27.2499  -38.7195 H   0  0  0  0  0  0  0  0  0  0  0  0
    0.7189   26.5415  -38.0142 H   0  0  0  0  0  0  0  0  0  0  0  0
    0.3935   27.3585  -36.4435 H   0  0  0  0  0  0  0  0  0  0  0  0
    1.2158   25.5058  -35.4387 H   0  0  0  0  0  0  0  0  0  0  0  0
   -0.2726   24.6604  -35.9811 H   0  0  0  0  0  0  0  0  0  0  0  0
    3.0792   23.2355  -37.1612 H   0  0  0  0  0  0  0  0  0  0  0  0
    3.2022   24.8109  -36.2943 H   0  0  0  0  0  0  0  0  0  0  0  0
    3.0088   22.6165  -34.8809 H   0  0  0  0  0  0  0  0  0  0  0  0
    1.9872   24.0254  -34.4329 H   0  0  0  0  0  0  0  0  0  0  0  0
   -1.6506   20.0880  -32.8964 H   0  0  0  0  0  0  0  0  0  0  0  0
   -0.7795   21.5157  -32.2335 H   0  0  0  0  0  0  0  0  0  0  0  0
   -6.1550   24.4120  -28.5680 H   0  0  0  0  0  0  0  0  0  0  0  0
   -4.8830   25.6730  -28.4550 H   0  0  0  0  0  0  0  0  0  0  0  0
   -7.5837   23.7353  -30.8122 H   0  0  0  0  0  0  0  0  0  0  0  0
   -8.9441   21.5707  -32.0947 H   0  0  0  0  0  0  0  0  0  0  0  0
   -8.5550   19.4631  -33.4138 H   0  0  0  0  0  0  0  0  0  0  0  0
   -6.8924   18.3351  -34.9509 H   0  0  0  0  0  0  0  0  0  0  0  0
   -5.1361   18.4084  -34.5686 H   0  0  0  0  0  0  0  0  0  0  0  0
   -4.2484   20.0455  -33.0740 H   0  0  0  0  0  0  0  0  0  0  0  0
  1  2  1  0
  2  3  1  0
  3  4  1  0
  4  5  1  0
  5  6  1  0
  6  7  1  0
  7  8  1  0
  8  9  1  0
  9 10  2  0
  9 11  1  0
 11 12  1  0
 12 13  1  0
 13 14  1  0
 14 15  2  0
 14 16  1  0
 16 17  1  0
 17 18  1  0
 18 19  1  0
 18 20  2  0
 17 21  2  0
 21 22  1  0
 22 23  2  0
 23 24  1  0
 24 25  2  0
 25 26  1  0
 26 27  1  0
 25 28  1  0
 28 29  2  0
 29 16  1  0
 29 22  1  0
  1 30  1  0
  1 31  1  0
  1 32  1  0
  3 33  1  0
  3 34  1  0
  4 35  1  0
  4 36  1  0
  6 37  1  0
  6 38  1  0
  7 39  1  0
  7 40  1  0
 12 41  1  0
 12 42  1  0
 19 43  1  0
 19 44  1  0
 21 45  1  0
 23 46  1  0
 24 47  1  0
 26 48  1  0
 26 49  1  0
 28 50  1  0
M  END
>  <UniqueID>  (52) 
52

>  <SMILES>  (52) 
COCCOCCOC(=O)OCOC(=O)n1c(C(N)=O)cc2ccc(CCl)cc21

>  <Energy>  (52) 
82.08552337680258

>  <Genealogy>  (52) 
COCCOCCOC(=O)OCOC(=O)n1c(C(N)=O)cc2ccc(CCl)cc21 (3D coordinates assigned)
COCCOCCOC(=O)OCOC(=O)n1c(C(N)=O)cc2ccc(CCl)cc21 (optimized conformer: 82.08552337680258 kcal/mol)

>  <smiles>  (52) 
COCCOCCOC(=O)OCOC(=O)n1c(C(N)=O)cc2ccc(CCl)cc21

>  <score_type>  (52) 
oracle

>  <origin>  (52) 
adg

>  <m_score__min__energy>  (52) 
-8.5199999999999996

>  <m_primary>  (52) 
energy

$$$$
52:0
     RDKit          3D

 36 37  0  0  0  0  0  0  0  0999 V2000
   -3.1910   25.0340  -30.9700 H   0  0  0  0  0  0  0  0  0  0  0  0
   -4.0230   25.6530  -30.8520 N   0  0  0  0  0  0  0  0  0  0  0  0
   -5.3150   25.1070  -30.6030 C   0  0  0  0  0  0  0  0  0  0  0  0
   -6.2140   25.8450  -30.1190 O   0  0  0  0  0  0  0  0  0  0  0  0
   -5.6310   23.7090  -30.9590 C   0  0  0  0  0  0  0  0  0  0  0  0
   -6.8830   23.3000  -31.4140 C   0  0  0  0  0  0  0  0  0  0  0  0
   -7.7952   23.9095  -31.4938 H   0  0  0  0  0  0  0  0  0  0  0  0
   -6.7360   21.9730  -31.7420 C   0  0  0  0  0  0  0  0  0  0  0  0
   -7.6630   21.0680  -32.2520 C   0  0  0  0  0  0  0  0  0  0  0  0
   -8.6973   21.3755  -32.4660 H   0  0  0  0  0  0  0  0  0  0  0  0
   -7.2360   19.7490  -32.4850 C   0  0  0  0  0  0  0  0  0  0  0  0
   -7.9414   19.0128  -32.8978 H   0  0  0  0  0  0  0  0  0  0  0  0
   -5.9050   19.3590  -32.1930 C   0  0  0  0  0  0  0  0  0  0  0  0
   -5.4540   17.9530  -32.4690 C   0  0  0  0  0  0  0  0  0  0  0  0
   -4.3964   17.8482  -32.1854 H   0  0  0  0  0  0  0  0  0  0  0  0
   -6.0705   17.2561  -31.8822 H   0  0  0  0  0  0  0  0  0  0  0  0
   -5.6430   17.5700  -34.2360 P   0  0  0  0  0  0  0  0  0  0  0  0
   -6.0270   18.8260  -34.9830 O   0  0  0  0  0  0  0  0  0  0  0  0
   -4.1820   16.9770  -34.8480 O   0  0  0  0  0  0  0  0  0  0  0  0
   -6.8520   16.4050  -34.4410 O   0  0  0  0  0  0  0  0  0  0  0  0
   -4.9900   20.3080  -31.6870 C   0  0  0  0  0  0  0  0  0  0  0  0
   -3.9511   20.0255  -31.4614 H   0  0  0  0  0  0  0  0  0  0  0  0
   -5.4390   21.6170  -31.4800 C   0  0  0  0  0  0  0  0  0  0  0  0
   -4.7490   22.6680  -30.9830 N   0  0  0  0  0  0  0  0  0  0  0  0
   -3.3770   22.6500  -30.5460 C   0  0  0  0  0  0  0  0  0  0  0  0
   -2.4660   22.9510  -31.3620 O   0  0  0  0  0  0  0  0  0  0  0  0
   -2.9970   22.3510  -29.1480 C   0  0  0  0  0  0  0  0  0  0  0  0
   -3.5708   21.5707  -28.6265 H   0  0  0  0  0  0  0  0  0  0  0  0
   -2.0080   22.9530  -28.4590 C   0  0  0  0  0  0  0  0  0  0  0  0
   -1.2970   24.1530  -28.9490 C   0  0  0  0  0  0  0  0  0  0  0  0
   -0.0380   24.1740  -28.9760 O   0  0  0  0  0  0  0  0  0  0  0  0
   -2.0030   25.2920  -29.3160 O   0  0  0  0  0  0  0  0  0  0  0  0
   -1.6040   22.3750  -27.1300 C   0  0  0  0  0  0  0  0  0  0  0  0
   -2.0304   22.9850  -26.3200 H   0  0  0  0  0  0  0  0  0  0  0  0
   -1.9793   21.3442  -27.0492 H   0  0  0  0  0  0  0  0  0  0  0  0
   -0.5070   22.3732  -27.0492 H   0  0  0  0  0  0  0  0  0  0  0  0
  1  2  1  0
  2  3  1  0
  3  4  2  0
  3  5  1  0
  5  6  2  0
  6  7  1  0
  6  8  1  0
  8  9  2  0
  9 10  1  0
  9 11  1  0
 11 12  1  0
 11 13  2  0
 13 14  1  0
 14 15  1  0
 14 16  1  0
 14 17  1  0
 17 18  2  0
 17 19  1  0
 17 20  1  0
 13 21  1  0
 21 22  1  0
 21 23  2  0
 23 24  1  0
 24 25  1  0
 25 26  2  0
 25 27  1  0
 27 28  1  0
 27 29  2  0
 29 30  1  0
 30 31  2  0
 30 32  1  0
 29 33  1  0
 33 34  1  0
 33 35  1  0
 33 36  1  0
 24  5  1  0
 23  8  1  0
M  CHG  4   2  -1  19  -1  20  -1  32  -1
M  END
>  <UniqueID>  (53) 
53

>  <SMILES>  (53) 
C/C(=C/C(=O)n1c(C([NH-])=O)cc2ccc(CP(=O)([O-])[O-])cc21)C(=O)[O-]

>  <Energy>  (53) 
77.05110328672139

>  <Genealogy>  (53) 
CC(=CC(=O)n1c(C([NH-])=O)cc2ccc(CP(=O)([O-])[O-])cc21)C(=O)[O-] (protonated)
C/C(=C/C(=O)n1c(C([NH-])=O)cc2ccc(CP(=O)([O-])[O-])cc21)C(=O)[O-] (cis-trans isomerization)
C/C(=C/C(=O)n1c(C([NH-])=O)cc2ccc(CP(=O)([O-])[O-])cc21)C(=O)[O-] (3D coordinates assigned)
C/C(=C/C(=O)n1c(C([NH-])=O)cc2ccc(CP(=O)([O-])[O-])cc21)C(=O)[O-] (optimized conformer: 77.05110328672139 kcal/mol)

>  <smiles>  (53) 
CC(=CC(=O)n1c(C(N)=O)cc2ccc(CP(=O)(O)O)cc21)C(=O)O

>  <score_type>  (53) 
oracle

>  <origin>  (53) 
adg

>  <m_score__min__energy>  (53) 
-12.369999999999999

>  <m_primary>  (53) 
energy

$$$$
53:0
     RDKit          3D

 40 41  0  0  0  0  0  0  0  0999 V2000
   -4.0200   23.7340  -27.5080 C   0  0  0  0  0  0  0  0  0  0  0  0
   -2.9270   23.1850  -28.3150 N   0  0  0  0  0  0  0  0  0  0  0  0
   -3.2760   22.2180  -29.3260 C   0  0  0  0  0  0  0  0  0  0  0  0
   -3.3110   20.9960  -29.0140 O   0  0  0  0  0  0  0  0  0  0  0  0
   -3.6550   22.6090  -30.7020 C   0  0  0  0  0  0  0  0  0  0  0  0
   -2.7720   22.8070  -31.5770 O   0  0  0  0  0  0  0  0  0  0  0  0
   -5.0360   22.8080  -31.0440 N   0  0  0  0  0  0  0  0  0  0  0  0
   -5.7680   23.9510  -30.9380 C   0  0  0  0  0  0  0  0  0  0  0  0
   -5.2530   25.2820  -30.5500 C   0  0  0  0  0  0  0  0  0  0  0  0
   -3.9070   25.6580  -30.8240 N   0  0  0  0  0  0  0  0  0  0  0  0
   -6.0220   26.1100  -29.9900 O   0  0  0  0  0  0  0  0  0  0  0  0
   -7.0970   23.7120  -31.2880 C   0  0  0  0  0  0  0  0  0  0  0  0
   -7.1560   22.3750  -31.6070 C   0  0  0  0  0  0  0  0  0  0  0  0
   -8.2410   21.5940  -31.9980 C   0  0  0  0  0  0  0  0  0  0  0  0
   -8.0190   20.2250  -32.2220 C   0  0  0  0  0  0  0  0  0  0  0  0
   -6.7290   19.6630  -32.0440 C   0  0  0  0  0  0  0  0  0  0  0  0
   -6.5000   18.1940  -32.2610 C   0  0  0  0  0  0  0  0  0  0  0  0
   -5.2520   17.9970  -32.8230 F   0  0  0  0  0  0  0  0  0  0  0  0
   -7.4680   17.6910  -33.1100 F   0  0  0  0  0  0  0  0  0  0  0  0
   -5.6550   20.4860  -31.6400 C   0  0  0  0  0  0  0  0  0  0  0  0
   -5.9010   21.8500  -31.4460 C   0  0  0  0  0  0  0  0  0  0  0  0
   -1.5300   23.5350  -27.9770 C   0  0  1  0  0  0  0  0  0  0  0  0
   -0.5130   22.6840  -28.7670 C   0  0  0  0  0  0  0  0  0  0  0  0
   -0.5200   23.0360  -30.1250 O   0  0  0  0  0  0  0  0  0  0  0  0
   -1.2980   25.0160  -28.1320 C   0  0  0  0  0  0  0  0  0  0  0  0
   -0.9060   25.7130  -27.1570 O   0  0  0  0  0  0  0  0  0  0  0  0
   -1.5980   25.6410  -29.3360 O   0  0  0  0  0  0  0  0  0  0  0  0
   -3.7831   23.6150  -26.4404 H   0  0  0  0  0  0  0  0  0  0  0  0
   -4.1456   24.8021  -27.7389 H   0  0  0  0  0  0  0  0  0  0  0  0
   -4.9518   23.1970  -27.7389 H   0  0  0  0  0  0  0  0  0  0  0  0
   -3.1300   24.9630  -30.7520 H   0  0  0  0  0  0  0  0  0  0  0  0
   -7.9228   24.4385  -31.3053 H   0  0  0  0  0  0  0  0  0  0  0  0
   -9.2403   22.0353  -32.1273 H   0  0  0  0  0  0  0  0  0  0  0  0
   -8.8539   19.5826  -32.5386 H   0  0  0  0  0  0  0  0  0  0  0  0
   -6.5550   17.6735  -31.2935 H   0  0  0  0  0  0  0  0  0  0  0  0
   -4.6508   20.0658  -31.4818 H   0  0  0  0  0  0  0  0  0  0  0  0
   -1.3647   23.2902  -26.9174 H   0  0  0  0  0  0  0  0  0  0  0  0
    0.4936   22.8507  -28.3560 H   0  0  0  0  0  0  0  0  0  0  0  0
   -0.7922   21.6240  -28.6752 H   0  0  0  0  0  0  0  0  0  0  0  0
   -1.2590   23.6890  -30.2450 H   0  0  0  0  0  0  0  0  0  0  0  0
  1  2  1  0
  2  3  1  0
  3  4  2  0
  3  5  1  0
  5  6  2  0
  5  7  1  0
  7  8  1  0
  8  9  1  0
  9 10  1  0
  9 11  2  0
  8 12  2  0
 12 13  1  0
 13 14  2  0
 14 15  1  0
 15 16  2  0
 16 17  1  0
 17 18  1  0
 17 19  1  0
 16 20  1  0
 20 21  2  0
  2 22  1  0
 22 23  1  0
 23 24  1  0
 22 25  1  0
 25 26  2  0
 25 27  1  0
 21  7  1  0
 21 13  1  0
  1 28  1  0
  1 29  1  0
  1 30  1  0
 10 31  1  0
 12 32  1  0
 14 33  1  0
 15 34  1  0
 17 35  1  0
 20 36  1  0
 22 37  1  1
 23 38  1  0
 23 39  1  0
 24 40  1  0
M  CHG  2  10  -1  27  -1
M  END
>  <UniqueID>  (54) 
54

>  <SMILES>  (54) 
CN(C(=O)C(=O)n1c(C([NH-])=O)cc2ccc(C(F)F)cc21)[C@@H](CO)C(=O)[O-]

>  <Energy>  (54) 
83.72588137938693

>  <Genealogy>  (54) 
CN(C(=O)C(=O)n1c(C([NH-])=O)cc2ccc(C(F)F)cc21)C(CO)C(=O)[O-] (protonated)
CN(C(=O)C(=O)n1c(C([NH-])=O)cc2ccc(C(F)F)cc21)[C@@H](CO)C(=O)[O-] (chirality)
CN(C(=O)C(=O)n1c(C([NH-])=O)cc2ccc(C(F)F)cc21)[C@@H](CO)C(=O)[O-] (3D coordinates assigned)
CN(C(=O)C(=O)n1c(C([NH-])=O)cc2ccc(C(F)F)cc21)[C@@H](CO)C(=O)[O-] (optimized conformer: 83.72588137938693 kcal/mol)

>  <smiles>  (54) 
CN(C(=O)C(=O)n1c(C(N)=O)cc2ccc(C(F)F)cc21)C(CO)C(=O)O

>  <score_type>  (54) 
oracle

>  <origin>  (54) 
adg

>  <m_score__min__energy>  (54) 
-11.92

>  <m_primary>  (54) 
energy

$$$$
54:0
     RDKit          3D

 42 44  0  0  0  0  0  0  0  0999 V2000
   -1.1530   21.5980  -32.0750 C   0  0  0  0  0  0  0  0  0  0  0  0
   -1.6430   22.0780  -30.6960 C   0  0  0  0  0  0  0  0  0  0  0  0
   -2.8420   22.9760  -30.6670 N   0  0  2  0  0  0  0  0  0  0  0  0
   -3.3600   23.1860  -29.2880 C   0  0  0  0  0  0  0  0  0  0  0  0
   -2.7530   24.3710  -28.5810 C   0  0  0  0  0  0  0  0  0  0  0  0
   -2.9040   24.5190  -27.3390 O   0  0  0  0  0  0  0  0  0  0  0  0
   -1.9990   25.2960  -29.2910 O   0  0  0  0  0  0  0  0  0  0  0  0
   -3.9310   22.6600  -31.5890 C   0  0  0  0  0  0  0  0  0  0  0  0
   -3.6850   22.1290  -32.7070 O   0  0  0  0  0  0  0  0  0  0  0  0
   -5.3070   22.9060  -31.2250 N   0  0  0  0  0  0  0  0  0  0  0  0
   -5.8770   24.0830  -30.8200 C   0  0  0  0  0  0  0  0  0  0  0  0
   -5.2050   25.3950  -30.6510 C   0  0  0  0  0  0  0  0  0  0  0  0
   -3.8770   25.6250  -31.1100 N   0  0  0  0  0  0  0  0  0  0  0  0
   -5.8230   26.3380  -30.0880 O   0  0  0  0  0  0  0  0  0  0  0  0
   -7.2350   23.9050  -30.5660 C   0  0  0  0  0  0  0  0  0  0  0  0
   -7.4960   22.5890  -30.8570 C   0  0  0  0  0  0  0  0  0  0  0  0
   -8.6990   21.8920  -30.8170 C   0  0  0  0  0  0  0  0  0  0  0  0
   -8.6990   20.5530  -31.2350 C   0  0  0  0  0  0  0  0  0  0  0  0
   -7.5120   19.9470  -31.7210 C   0  0  0  0  0  0  0  0  0  0  0  0
   -7.5150   18.5010  -32.1490 C   0  0  0  0  0  0  0  0  0  0  0  0
   -6.6260   17.7630  -31.3880 F   0  0  0  0  0  0  0  0  0  0  0  0
   -7.1460   18.4200  -33.4780 F   0  0  0  0  0  0  0  0  0  0  0  0
   -8.7750   17.9490  -31.9960 F   0  0  0  0  0  0  0  0  0  0  0  0
   -6.3060   20.6860  -31.7290 C   0  0  0  0  0  0  0  0  0  0  0  0
   -6.3240   22.0100  -31.2670 C   0  0  0  0  0  0  0  0  0  0  0  0
   -1.5700   20.9930  -29.6190 C   0  0  0  0  0  0  0  0  0  0  0  0
   -0.6090   22.1800  -29.5780 C   0  0  0  0  0  0  0  0  0  0  0  0
   -0.3730   20.8339  -31.9414 H   0  0  0  0  0  0  0  0  0  0  0  0
   -1.9965   21.1670  -32.6342 H   0  0  0  0  0  0  0  0  0  0  0  0
   -0.7395   22.4502  -32.6342 H   0  0  0  0  0  0  0  0  0  0  0  0
   -2.4620   23.9010  -30.9680 H   0  0  0  0  0  0  0  0  0  0  0  0
   -4.4480   23.3374  -29.3461 H   0  0  0  0  0  0  0  0  0  0  0  0
   -3.0882   22.2933  -28.7056 H   0  0  0  0  0  0  0  0  0  0  0  0
   -3.0530   25.2970  -30.5600 H   0  0  0  0  0  0  0  0  0  0  0  0
   -7.9490   24.6609  -30.2072 H   0  0  0  0  0  0  0  0  0  0  0  0
   -9.6229   22.3764  -30.4680 H   0  0  0  0  0  0  0  0  0  0  0  0
   -9.6286   19.9671  -31.1854 H   0  0  0  0  0  0  0  0  0  0  0  0
   -5.3721   20.2310  -32.0906 H   0  0  0  0  0  0  0  0  0  0  0  0
   -2.3705   20.9068  -28.8695 H   0  0  0  0  0  0  0  0  0  0  0  0
   -1.4562   19.8989  -29.6225 H   0  0  0  0  0  0  0  0  0  0  0  0
   -0.7171   22.9479  -28.7978 H   0  0  0  0  0  0  0  0  0  0  0  0
    0.4844   22.2934  -29.5390 H   0  0  0  0  0  0  0  0  0  0  0  0
  1  2  1  0
  2  3  1  0
  3  4  1  0
  4  5  1  0
  5  6  2  0
  5  7  1  0
  3  8  1  0
  8  9  2  0
  8 10  1  0
 10 11  1  0
 11 12  1  0
 12 13  1  0
 12 14  2  0
 11 15  2  0
 15 16  1  0
 16 17  2  0
 17 18  1  0
 18 19  2  0
 19 20  1  0
 20 21  1  0
 20 22  1  0
 20 23  1  0
 19 24  1  0
 24 25  2  0
  2 26  1  0
 26 27  1  0
 27  2  1  0
 25 10  1  0
 25 16  1  0
  1 28  1  0
  1 29  1  0
  1 30  1  0
  3 31  1  6
  4 32  1  0
  4 33  1  0
 13 34  1  0
 15 35  1  0
 17 36  1  0
 18 37  1  0
 24 38  1  0
 26 39  1  0
 26 40  1  0
 27 41  1  0
 27 42  1  0
M  CHG  3   3   1   7  -1  13  -1
M  END
>  <UniqueID>  (55) 
55

>  <SMILES>  (55) 
CC1([N@H+](CC(=O)[O-])C(=O)n2c(C([NH-])=O)cc3ccc(C(F)(F)F)cc32)CC1

>  <Energy>  (55) 
366.5146023641417

>  <Genealogy>  (55) 
CC1([NH+](CC(=O)[O-])C(=O)n2c(C([NH-])=O)cc3ccc(C(F)(F)F)cc32)CC1 (protonated)
CC1([N@H+](CC(=O)[O-])C(=O)n2c(C([NH-])=O)cc3ccc(C(F)(F)F)cc32)CC1 (chirality)
CC1([N@H+](CC(=O)[O-])C(=O)n2c(C([NH-])=O)cc3ccc(C(F)(F)F)cc32)CC1 (3D coordinates assigned)
CC1([N@H+](CC(=O)[O-])C(=O)n2c(C([NH-])=O)cc3ccc(C(F)(F)F)cc32)CC1 (nonaromatic ring conformer: 366.5146023641417 kcal/mol)

>  <smiles>  (55) 
CC1(N(CC(=O)O)C(=O)n2c(C(N)=O)cc3ccc(C(F)(F)F)cc32)CC1

>  <score_type>  (55) 
oracle

>  <origin>  (55) 
adg

>  <m_score__min__energy>  (55) 
-10.68

>  <m_primary>  (55) 
energy

$$$$
55:0
     RDKit          3D

 42 43  0  0  0  0  0  0  0  0999 V2000
   -6.8270   18.3280  -32.3940 C   0  0  0  0  0  0  0  0  0  0  0  0
   -6.9990   19.7950  -32.1360 C   0  0  0  0  0  0  0  0  0  0  0  0
   -8.2800   20.3910  -32.2510 C   0  0  0  0  0  0  0  0  0  0  0  0
   -8.4630   21.7540  -31.9650 C   0  0  0  0  0  0  0  0  0  0  0  0
   -7.3520   22.4910  -31.5630 C   0  0  0  0  0  0  0  0  0  0  0  0
   -7.2500   23.8150  -31.1950 C   0  0  0  0  0  0  0  0  0  0  0  0
   -5.9100   24.0030  -30.8620 C   0  0  0  0  0  0  0  0  0  0  0  0
   -5.3400   25.3040  -30.4510 C   0  0  0  0  0  0  0  0  0  0  0  0
   -4.0160   25.6550  -30.8450 N   0  0  0  0  0  0  0  0  0  0  0  0
   -6.0020   26.1010  -29.7370 O   0  0  0  0  0  0  0  0  0  0  0  0
   -5.2120   22.8450  -31.0230 N   0  0  0  0  0  0  0  0  0  0  0  0
   -3.8250   22.6080  -30.7320 C   0  0  0  0  0  0  0  0  0  0  0  0
   -2.9460   23.1110  -31.4800 O   0  0  0  0  0  0  0  0  0  0  0  0
   -3.4390   21.7570  -29.5840 C   0  0  0  0  0  0  0  0  0  0  0  0
   -3.2940   20.5190  -29.7790 O   0  0  0  0  0  0  0  0  0  0  0  0
   -3.1950   22.3020  -28.2690 N   0  0  0  0  0  0  0  0  0  0  0  0
   -4.2400   23.0960  -27.6200 C   0  0  0  0  0  0  0  0  0  0  0  0
   -1.8710   22.3170  -27.7110 C   0  0  0  0  0  0  0  0  0  0  0  0
   -1.0520   21.4170  -28.0340 O   0  0  0  0  0  0  0  0  0  0  0  0
   -1.4610   23.3320  -26.7870 N   0  0  0  0  0  0  0  0  0  0  0  0
   -1.4080   24.7660  -27.0710 C   0  0  1  0  0  0  0  0  0  0  0  0
   -0.4600   25.4730  -26.1000 C   0  0  0  0  0  0  0  0  0  0  0  0
   -0.9340   24.9630  -28.4790 C   0  0  0  0  0  0  0  0  0  0  0  0
   -1.5890   25.6920  -29.2700 O   0  0  0  0  0  0  0  0  0  0  0  0
    0.2460   24.3700  -28.9110 O   0  0  0  0  0  0  0  0  0  0  0  0
   -6.1090   21.9280  -31.4480 C   0  0  0  0  0  0  0  0  0  0  0  0
   -5.9000   20.5700  -31.7090 C   0  0  0  0  0  0  0  0  0  0  0  0
   -6.7642   17.7920  -31.4355 H   0  0  0  0  0  0  0  0  0  0  0  0
   -7.6874   17.9533  -32.9679 H   0  0  0  0  0  0  0  0  0  0  0  0
   -5.9033   18.1625  -32.9679 H   0  0  0  0  0  0  0  0  0  0  0  0
   -9.1387   19.7805  -32.5671 H   0  0  0  0  0  0  0  0  0  0  0  0
   -9.4531   22.2246  -32.0558 H   0  0  0  0  0  0  0  0  0  0  0  0
   -8.0551   24.5641  -31.1695 H   0  0  0  0  0  0  0  0  0  0  0  0
   -3.1960   25.0810  -30.5470 H   0  0  0  0  0  0  0  0  0  0  0  0
   -4.1357   23.0167  -26.5278 H   0  0  0  0  0  0  0  0  0  0  0  0
   -4.1414   24.1490  -27.9223 H   0  0  0  0  0  0  0  0  0  0  0  0
   -5.2281   22.7188  -27.9223 H   0  0  0  0  0  0  0  0  0  0  0  0
   -2.4121   25.1978  -26.9473 H   0  0  0  0  0  0  0  0  0  0  0  0
   -0.7604   25.2490  -25.0658 H   0  0  0  0  0  0  0  0  0  0  0  0
    0.5679   25.1192  -26.2681 H   0  0  0  0  0  0  0  0  0  0  0  0
   -0.5060   26.5591  -26.2681 H   0  0  0  0  0  0  0  0  0  0  0  0
   -4.9049   20.1180  -31.5846 H   0  0  0  0  0  0  0  0  0  0  0  0
  1  2  1  0
  2  3  2  0
  3  4  1  0
  4  5  2  0
  5  6  1  0
  6  7  2  0
  7  8  1  0
  8  9  1  0
  8 10  2  0
  7 11  1  0
 11 12  1  0
 12 13  2  0
 12 14  1  0
 14 15  2  0
 14 16  1  0
 16 17  1  0
 16 18  1  0
 18 19  2  0
 18 20  1  0
 20 21  1  0
 21 22  1  0
 21 23  1  0
 23 24  2  0
 23 25  1  0
 11 26  1  0
 26 27  2  0
 27  2  1  0
 26  5  1  0
  1 28  1  0
  1 29  1  0
  1 30  1  0
  3 31  1  0
  4 32  1  0
  6 33  1  0
  9 34  1  0
 17 35  1  0
 17 36  1  0
 17 37  1  0
 21 38  1  6
 22 39  1  0
 22 40  1  0
 22 41  1  0
 27 42  1  0
M  CHG  3   9  -1  20  -1  25  -1
M  END
>  <UniqueID>  (56) 
56

>  <SMILES>  (56) 
Cc1ccc2cc(C([NH-])=O)n(C(=O)C(=O)N(C)C(=O)[N-][C@@H](C)C(=O)[O-])c2c1

>  <Energy>  (56) 
82.54987911542803

>  <Genealogy>  (56) 
Cc1ccc2cc(C([NH-])=O)n(C(=O)C(=O)N(C)C(=O)[N-][C@@H](C)C(=O)[O-])c2c1 (protonated)
Cc1ccc2cc(C([NH-])=O)n(C(=O)C(=O)N(C)C(=O)[N-][C@@H](C)C(=O)[O-])c2c1 (3D coordinates assigned)
Cc1ccc2cc(C([NH-])=O)n(C(=O)C(=O)N(C)C(=O)[N-][C@@H](C)C(=O)[O-])c2c1 (optimized conformer: 82.54987911542803 kcal/mol)

>  <smiles>  (56) 
Cc1ccc2cc(C(N)=O)n(C(=O)C(=O)N(C)C(=O)N[C@@H](C)C(=O)O)c2c1

>  <score_type>  (56) 
oracle

>  <origin>  (56) 
adg

>  <m_score__min__energy>  (56) 
-13.08

>  <m_primary>  (56) 
energy

$$$$
56:0
     RDKit          3D

 36 37  0  0  0  0  0  0  0  0999 V2000
   -3.5990   24.8230  -30.4710 N   0  0  0  0  0  0  0  0  0  0  0  0
   -5.0180   24.9280  -30.5930 C   0  0  0  0  0  0  0  0  0  0  0  0
   -5.5580   26.0660  -30.5560 O   0  0  0  0  0  0  0  0  0  0  0  0
   -5.8580   23.7360  -30.8240 C   0  0  0  0  0  0  0  0  0  0  0  0
   -7.2500   23.7670  -30.8210 C   0  0  0  0  0  0  0  0  0  0  0  0
   -7.6420   22.4870  -31.1380 C   0  0  0  0  0  0  0  0  0  0  0  0
   -8.9180   21.9500  -31.2700 C   0  0  0  0  0  0  0  0  0  0  0  0
   -9.0300   20.5840  -31.5750 C   0  0  0  0  0  0  0  0  0  0  0  0
   -7.8740   19.7740  -31.7150 C   0  0  0  0  0  0  0  0  0  0  0  0
   -8.0070   18.3170  -32.0770 C   0  0  0  0  0  0  0  0  0  0  0  0
   -7.1760   17.5390  -31.2880 F   0  0  0  0  0  0  0  0  0  0  0  0
   -9.3080   17.8830  -31.8930 F   0  0  0  0  0  0  0  0  0  0  0  0
   -7.6580   18.1440  -33.4040 F   0  0  0  0  0  0  0  0  0  0  0  0
   -6.5930   20.3620  -31.5950 C   0  0  0  0  0  0  0  0  0  0  0  0
   -6.5110   21.7310  -31.3110 C   0  0  0  0  0  0  0  0  0  0  0  0
   -5.4050   22.4850  -31.1200 N   0  0  0  0  0  0  0  0  0  0  0  0
   -4.0450   22.0210  -31.1000 C   0  0  0  0  0  0  0  0  0  0  0  0
   -3.2840   22.2570  -32.0780 O   0  0  0  0  0  0  0  0  0  0  0  0
   -3.5570   21.2860  -29.9720 N   0  0  0  0  0  0  0  0  0  0  0  0
   -3.2300   21.8970  -28.6890 C   0  0  0  0  0  0  0  0  0  0  0  0
   -1.7380   22.2110  -28.6100 C   0  0  0  0  0  0  0  0  0  0  0  0
   -1.4510   23.2900  -29.4670 O   0  0  0  0  0  0  0  0  0  0  0  0
   -0.9010   24.5980  -28.5210 P   0  0  0  0  0  0  0  0  0  0  0  0
   -1.5880   24.5900  -27.1730 O   0  0  0  0  0  0  0  0  0  0  0  0
   -1.2680   26.0430  -29.3180 O   0  0  0  0  0  0  0  0  0  0  0  0
    0.7750   24.5030  -28.3010 O   0  0  0  0  0  0  0  0  0  0  0  0
   -3.1070   23.9230  -30.6620 H   0  0  0  0  0  0  0  0  0  0  0  0
   -3.0270   25.6720  -30.2670 H   0  0  0  0  0  0  0  0  0  0  0  0
   -7.8979   24.6306  -30.6102 H   0  0  0  0  0  0  0  0  0  0  0  0
   -9.8126   22.5765  -31.1394 H   0  0  0  0  0  0  0  0  0  0  0  0
  -10.0262   20.1366  -31.7070 H   0  0  0  0  0  0  0  0  0  0  0  0
   -5.6824   19.7580  -31.7218 H   0  0  0  0  0  0  0  0  0  0  0  0
   -3.8025   22.8295  -28.5759 H   0  0  0  0  0  0  0  0  0  0  0  0
   -3.4881   21.1931  -27.8841 H   0  0  0  0  0  0  0  0  0  0  0  0
   -1.4718   22.4795  -27.5770 H   0  0  0  0  0  0  0  0  0  0  0  0
   -1.1558   21.3289  -28.9151 H   0  0  0  0  0  0  0  0  0  0  0  0
  1  2  1  0
  2  3  2  0
  2  4  1  0
  4  5  2  0
  5  6  1  0
  6  7  2  0
  7  8  1  0
  8  9  2  0
  9 10  1  0
 10 11  1  0
 10 12  1  0
 10 13  1  0
  9 14  1  0
 14 15  2  0
 15 16  1  0
 16 17  1  0
 17 18  2  0
 17 19  1  0
 19 20  1  0
 20 21  1  0
 21 22  1  0
 22 23  1  0
 23 24  2  0
 23 25  1  0
 23 26  1  0
 16  4  1  0
 15  6  1  0
  1 27  1  0
  1 28  1  0
  5 29  1  0
  7 30  1  0
  8 31  1  0
 14 32  1  0
 20 33  1  0
 20 34  1  0
 21 35  1  0
 21 36  1  0
M  CHG  3  19  -1  25  -1  26  -1
M  END
>  <UniqueID>  (57) 
57

>  <SMILES>  (57) 
NC(=O)c1cc2ccc(C(F)(F)F)cc2n1C(=O)[N-]CCOP(=O)([O-])[O-]

>  <Energy>  (57) 
71.22287236941942

>  <Genealogy>  (57) 
NC(=O)c1cc2ccc(C(F)(F)F)cc2n1C(=O)[N-]CCOP(=O)([O-])[O-] (protonated)
NC(=O)c1cc2ccc(C(F)(F)F)cc2n1C(=O)[N-]CCOP(=O)([O-])[O-] (3D coordinates assigned)
NC(=O)c1cc2ccc(C(F)(F)F)cc2n1C(=O)[N-]CCOP(=O)([O-])[O-] (optimized conformer: 71.22287236941942 kcal/mol)

>  <smiles>  (57) 
NC(=O)c1cc2ccc(C(F)(F)F)cc2n1C(=O)NCCOP(=O)(O)O

>  <score_type>  (57) 
oracle

>  <origin>  (57) 
adg

>  <m_score__min__energy>  (57) 
-11.73

>  <m_primary>  (57) 
energy

$$$$
57:0
     RDKit          3D

 44 46  0  0  0  0  0  0  0  0999 V2000
   -2.3930   25.3070  -29.0450 N   0  0  0  0  0  0  0  0  0  0  0  0
   -1.8820   23.9780  -29.1750 C   0  0  0  0  0  0  0  0  0  0  0  0
   -0.8730   23.6390  -28.5010 O   0  0  0  0  0  0  0  0  0  0  0  0
   -2.4830   23.0130  -30.1180 C   0  0  0  0  0  0  0  0  0  0  0  0
   -1.9060   21.7840  -30.4310 C   0  0  0  0  0  0  0  0  0  0  0  0
   -2.7660   21.2000  -31.3320 C   0  0  0  0  0  0  0  0  0  0  0  0
   -2.7050   19.9510  -31.9440 C   0  0  0  0  0  0  0  0  0  0  0  0
   -3.7690   19.5750  -32.7800 C   0  0  0  0  0  0  0  0  0  0  0  0
   -4.8740   20.4430  -32.9780 C   0  0  0  0  0  0  0  0  0  0  0  0
   -6.0460   19.9990  -33.8130 C   0  0  0  0  0  0  0  0  0  0  0  0
   -6.4060   18.5220  -33.5800 C   0  0  0  0  0  0  0  0  0  0  0  0
   -7.0450   18.2580  -32.2010 C   0  0  0  0  0  0  0  0  0  0  0  0
   -8.5480   18.5620  -32.1860 C   0  0  0  0  0  0  0  0  0  0  0  0
   -8.7710   19.9810  -31.9280 N   0  0  0  0  0  0  0  0  0  0  0  0
   -8.0210   20.7870  -31.1590 C   0  0  0  0  0  0  0  0  0  0  0  0
   -8.6280   22.0220  -31.1270 C   0  0  0  0  0  0  0  0  0  0  0  0
   -9.7590   21.9900  -31.8610 N   0  0  0  0  0  0  0  0  0  0  0  0
   -9.8170   20.7260  -32.3310 C   0  0  0  0  0  0  0  0  0  0  0  0
   -4.9010   21.7010  -32.3360 C   0  0  0  0  0  0  0  0  0  0  0  0
   -3.8160   22.0600  -31.5300 C   0  0  0  0  0  0  0  0  0  0  0  0
   -3.6520   23.1830  -30.7960 N   0  0  0  0  0  0  0  0  0  0  0  0
   -4.6020   24.2480  -30.6250 C   0  0  0  0  0  0  0  0  0  0  0  0
   -4.2470   25.4370  -30.8480 O   0  0  0  0  0  0  0  0  0  0  0  0
   -6.0190   23.9750  -30.2130 C   0  0  0  0  0  0  0  0  0  0  0  0
   -6.4290   24.9420  -29.3120 F   0  0  0  0  0  0  0  0  0  0  0  0
   -6.0970   22.7360  -29.6090 F   0  0  0  0  0  0  0  0  0  0  0  0
   -6.8620   24.0050  -31.3100 F   0  0  0  0  0  0  0  0  0  0  0  0
   -1.9910   25.9530  -28.3310 H   0  0  0  0  0  0  0  0  0  0  0  0
   -3.0930   25.6860  -29.7190 H   0  0  0  0  0  0  0  0  0  0  0  0
   -0.9646   21.3695  -30.0412 H   0  0  0  0  0  0  0  0  0  0  0  0
   -1.8498   19.2794  -31.7779 H   0  0  0  0  0  0  0  0  0  0  0  0
   -3.7456   18.5986  -33.2860 H   0  0  0  0  0  0  0  0  0  0  0  0
   -6.9174   20.6196  -33.5570 H   0  0  0  0  0  0  0  0  0  0  0  0
   -5.7665   20.1132  -34.8708 H   0  0  0  0  0  0  0  0  0  0  0  0
   -7.1164   18.2090  -34.3593 H   0  0  0  0  0  0  0  0  0  0  0  0
   -5.4679   17.9488  -33.6186 H   0  0  0  0  0  0  0  0  0  0  0  0
   -6.8958   17.2001  -31.9391 H   0  0  0  0  0  0  0  0  0  0  0  0
   -6.5603   18.9253  -31.4732 H   0  0  0  0  0  0  0  0  0  0  0  0
   -8.9824   18.2971  -33.1613 H   0  0  0  0  0  0  0  0  0  0  0  0
   -9.0263   17.9723  -31.3901 H   0  0  0  0  0  0  0  0  0  0  0  0
   -7.0882   20.5098  -30.6462 H   0  0  0  0  0  0  0  0  0  0  0  0
   -8.2485   22.9010  -30.5854 H   0  0  0  0  0  0  0  0  0  0  0  0
  -10.6276   20.3475  -32.9711 H   0  0  0  0  0  0  0  0  0  0  0  0
   -5.7550   22.3819  -32.4669 H   0  0  0  0  0  0  0  0  0  0  0  0
  1  2  1  0
  2  3  2  0
  2  4  1  0
  4  5  2  0
  5  6  1  0
  6  7  2  0
  7  8  1  0
  8  9  2  0
  9 10  1  0
 10 11  1  0
 11 12  1  0
 12 13  1  0
 13 14  1  0
 14 15  1  0
 15 16  2  0
 16 17  1  0
 17 18  2  0
  9 19  1  0
 19 20  2  0
 20 21  1  0
 21 22  1  0
 22 23  2  0
 22 24  1  0
 24 25  1  0
 24 26  1  0
 24 27  1  0
 21  4  1  0
 20  6  1  0
 18 14  1  0
  1 28  1  0
  1 29  1  0
  5 30  1  0
  7 31  1  0
  8 32  1  0
 10 33  1  0
 10 34  1  0
 11 35  1  0
 11 36  1  0
 12 37  1  0
 12 38  1  0
 13 39  1  0
 13 40  1  0
 15 41  1  0
 16 42  1  0
 18 43  1  0
 19 44  1  0
M  END
>  <UniqueID>  (58) 
58

>  <SMILES>  (58) 
NC(=O)c1cc2ccc(CCCCn3ccnc3)cc2n1C(=O)C(F)(F)F

>  <Energy>  (58) 
108.79353980830889

>  <Genealogy>  (58) 
NC(=O)c1cc2ccc(CCCCn3ccnc3)cc2n1C(=O)C(F)(F)F (3D coordinates assigned)
NC(=O)c1cc2ccc(CCCCn3ccnc3)cc2n1C(=O)C(F)(F)F (optimized conformer: 108.79353980830889 kcal/mol)

>  <smiles>  (58) 
NC(=O)c1cc2ccc(CCCCn3ccnc3)cc2n1C(=O)C(F)(F)F

>  <score_type>  (58) 
oracle

>  <origin>  (58) 
adg

>  <m_score__min__energy>  (58) 
-8.1300000000000008

>  <m_primary>  (58) 
energy

$$$$
58:0
     RDKit          3D

 44 45  0  0  0  0  0  0  0  0999 V2000
   -3.8790   24.2190  -27.5070 C   0  0  0  0  0  0  0  0  0  0  0  0
   -2.5550   24.9660  -27.3970 C   0  0  0  0  0  0  0  0  0  0  0  0
   -1.9310   25.0760  -28.6740 O   0  0  0  0  0  0  0  0  0  0  0  0
   -0.9930   24.1550  -29.1540 C   0  0  0  0  0  0  0  0  0  0  0  0
    0.2320   24.2680  -28.8690 O   0  0  0  0  0  0  0  0  0  0  0  0
   -1.4430   23.0370  -30.0330 C   0  0  0  0  0  0  0  0  0  0  0  0
   -2.8640   23.0470  -30.1080 O   0  0  0  0  0  0  0  0  0  0  0  0
   -3.5630   22.7560  -31.2840 C   0  0  0  0  0  0  0  0  0  0  0  0
   -2.9440   22.3730  -32.3140 O   0  0  0  0  0  0  0  0  0  0  0  0
   -4.9940   22.8810  -31.3100 N   0  0  0  0  0  0  0  0  0  0  0  0
   -5.7400   23.9500  -30.9120 C   0  0  0  0  0  0  0  0  0  0  0  0
   -5.2200   25.2790  -30.5320 C   0  0  0  0  0  0  0  0  0  0  0  0
   -3.8930   25.6730  -30.8760 N   0  0  0  0  0  0  0  0  0  0  0  0
   -5.9720   26.0980  -29.9380 O   0  0  0  0  0  0  0  0  0  0  0  0
   -7.0990   23.6510  -30.9820 C   0  0  0  0  0  0  0  0  0  0  0  0
   -7.1630   22.3580  -31.4470 C   0  0  0  0  0  0  0  0  0  0  0  0
   -8.2680   21.5530  -31.6950 C   0  0  0  0  0  0  0  0  0  0  0  0
   -8.0420   20.2420  -32.1420 C   0  0  0  0  0  0  0  0  0  0  0  0
   -6.7220   19.7460  -32.3290 C   0  0  0  0  0  0  0  0  0  0  0  0
   -6.4970   18.3820  -32.7750 N   0  0  0  0  0  0  0  0  0  0  0  0
   -6.4240   17.2880  -31.7980 C   0  0  0  0  0  0  0  0  0  0  0  0
   -6.3570   18.0600  -34.2030 C   0  0  0  0  0  0  0  0  0  0  0  0
   -4.9150   18.0460  -34.6060 C   0  0  0  0  0  0  0  0  0  0  0  0
   -4.4710   17.1210  -35.3370 O   0  0  0  0  0  0  0  0  0  0  0  0
   -4.0660   19.0710  -34.2060 O   0  0  0  0  0  0  0  0  0  0  0  0
   -5.6250   20.6060  -32.0620 C   0  0  0  0  0  0  0  0  0  0  0  0
   -5.8820   21.9140  -31.6360 C   0  0  0  0  0  0  0  0  0  0  0  0
   -4.2627   24.0025  -26.4991 H   0  0  0  0  0  0  0  0  0  0  0  0
   -4.6063   24.8399  -28.0507 H   0  0  0  0  0  0  0  0  0  0  0  0
   -3.7236   23.2755  -28.0507 H   0  0  0  0  0  0  0  0  0  0  0  0
   -2.7412   25.9740  -26.9980 H   0  0  0  0  0  0  0  0  0  0  0  0
   -1.8881   24.4066  -26.7245 H   0  0  0  0  0  0  0  0  0  0  0  0
   -1.0200   23.1670  -31.0401 H   0  0  0  0  0  0  0  0  0  0  0  0
   -1.1005   22.0778  -29.6175 H   0  0  0  0  0  0  0  0  0  0  0  0
   -3.0650   25.1930  -30.4590 H   0  0  0  0  0  0  0  0  0  0  0  0
   -7.9412   24.3087  -30.7210 H   0  0  0  0  0  0  0  0  0  0  0  0
   -9.2897   21.9320  -31.5454 H   0  0  0  0  0  0  0  0  0  0  0  0
   -8.9004   19.5867  -32.3513 H   0  0  0  0  0  0  0  0  0  0  0  0
   -6.4517   17.7033  -30.7798 H   0  0  0  0  0  0  0  0  0  0  0  0
   -7.2790   16.6108  -31.9412 H   0  0  0  0  0  0  0  0  0  0  0  0
   -5.4867   16.7304  -31.9412 H   0  0  0  0  0  0  0  0  0  0  0  0
   -6.7944   17.0689  -34.3938 H   0  0  0  0  0  0  0  0  0  0  0  0
   -6.8799   18.8289  -34.7907 H   0  0  0  0  0  0  0  0  0  0  0  0
   -4.5915   20.2509  -32.1876 H   0  0  0  0  0  0  0  0  0  0  0  0
  1  2  1  0
  2  3  1  0
  3  4  1  0
  4  5  2  0
  4  6  1  0
  6  7  1  0
  7  8  1  0
  8  9  2  0
  8 10  1  0
 10 11  1  0
 11 12  1  0
 12 13  1  0
 12 14  2  0
 11 15  2  0
 15 16  1  0
 16 17  2  0
 17 18  1  0
 18 19  2  0
 19 20  1  0
 20 21  1  0
 20 22  1  0
 22 23  1  0
 23 24  2  0
 23 25  1  0
 19 26  1  0
 26 27  2  0
 27 10  1  0
 27 16  1  0
  1 28  1  0
  1 29  1  0
  1 30  1  0
  2 31  1  0
  2 32  1  0
  6 33  1  0
  6 34  1  0
 13 35  1  0
 15 36  1  0
 17 37  1  0
 18 38  1  0
 21 39  1  0
 21 40  1  0
 21 41  1  0
 22 42  1  0
 22 43  1  0
 26 44  1  0
M  CHG  2  13  -1  25  -1
M  END
>  <UniqueID>  (59) 
59

>  <SMILES>  (59) 
CCOC(=O)COC(=O)n1c(C([NH-])=O)cc2ccc(N(C)CC(=O)[O-])cc21

>  <Energy>  (59) 
77.2000384002952

>  <Genealogy>  (59) 
CCOC(=O)COC(=O)n1c(C([NH-])=O)cc2ccc(N(C)CC(=O)[O-])cc21 (protonated)
CCOC(=O)COC(=O)n1c(C([NH-])=O)cc2ccc(N(C)CC(=O)[O-])cc21 (3D coordinates assigned)
CCOC(=O)COC(=O)n1c(C([NH-])=O)cc2ccc(N(C)CC(=O)[O-])cc21 (optimized conformer: 77.2000384002952 kcal/mol)

>  <smiles>  (59) 
CCOC(=O)COC(=O)n1c(C(N)=O)cc2ccc(N(C)CC(=O)O)cc21

>  <score_type>  (59) 
oracle

>  <origin>  (59) 
adg

>  <m_score__min__energy>  (59) 
-10.27

>  <m_primary>  (59) 
energy

$$$$
59:0
     RDKit          3D

 41 42  0  0  0  0  0  0  0  0999 V2000
   -4.7110   16.3780  -32.9560 C   0  0  0  0  0  0  0  0  0  0  0  0
   -5.6770   17.5130  -32.7920 C   0  0  0  0  0  0  0  0  0  0  0  0
   -7.0680   17.2570  -32.7330 C   0  0  0  0  0  0  0  0  0  0  0  0
   -7.9820   18.3110  -32.5600 C   0  0  0  0  0  0  0  0  0  0  0  0
   -7.4740   19.6000  -32.4250 C   0  0  0  0  0  0  0  0  0  0  0  0
   -8.1300   20.8000  -32.2750 C   0  0  0  0  0  0  0  0  0  0  0  0
   -7.1260   21.7680  -32.2060 C   0  0  0  0  0  0  0  0  0  0  0  0
   -7.3690   23.2210  -32.0120 C   0  0  0  0  0  0  0  0  0  0  0  0
   -6.3490   24.1830  -32.2880 N   0  0  0  0  0  0  0  0  0  0  0  0
   -8.4880   23.6250  -31.6030 O   0  0  0  0  0  0  0  0  0  0  0  0
   -5.8990   21.1790  -32.2970 N   0  0  0  0  0  0  0  0  0  0  0  0
   -4.6150   21.8210  -32.2620 C   0  0  0  0  0  0  0  0  0  0  0  0
   -4.1190   22.2850  -33.3240 O   0  0  0  0  0  0  0  0  0  0  0  0
   -3.8860   22.0100  -30.9600 C   0  0  0  0  0  0  0  0  0  0  0  0
   -4.5220   23.1220  -30.1140 C   0  0  0  0  0  0  0  0  0  0  0  0
   -3.9140   24.4810  -30.3710 C   0  0  0  0  0  0  0  0  0  0  0  0
   -4.4870   25.2830  -31.1560 O   0  0  0  0  0  0  0  0  0  0  0  0
   -2.7380   24.9220  -29.6840 N   0  0  0  0  0  0  0  0  0  0  0  0
   -2.5230   24.8100  -28.2460 C   0  0  0  0  0  0  0  0  0  0  0  0
   -1.0860   24.3830  -27.9630 C   0  0  0  0  0  0  0  0  0  0  0  0
   -0.2600   24.6740  -29.0580 O   0  0  0  0  0  0  0  0  0  0  0  0
   -6.1290   19.8570  -32.4420 C   0  0  0  0  0  0  0  0  0  0  0  0
   -5.1960   18.8310  -32.6370 C   0  0  0  0  0  0  0  0  0  0  0  0
   -4.4013   16.0141  -31.9652 H   0  0  0  0  0  0  0  0  0  0  0  0
   -5.1955   15.5615  -33.5115 H   0  0  0  0  0  0  0  0  0  0  0  0
   -3.8276   16.7258  -33.5115 H   0  0  0  0  0  0  0  0  0  0  0  0
   -7.4368   16.2246  -32.8233 H   0  0  0  0  0  0  0  0  0  0  0  0
   -9.0654   18.1229  -32.5322 H   0  0  0  0  0  0  0  0  0  0  0  0
   -9.2166   20.9626  -32.2208 H   0  0  0  0  0  0  0  0  0  0  0  0
   -5.3850   23.9010  -32.5660 H   0  0  0  0  0  0  0  0  0  0  0  0
   -6.5520   25.2010  -32.1740 H   0  0  0  0  0  0  0  0  0  0  0  0
   -3.9171   21.0678  -30.3932 H   0  0  0  0  0  0  0  0  0  0  0  0
   -2.8485   22.2985  -31.1846 H   0  0  0  0  0  0  0  0  0  0  0  0
   -5.5960   23.1688  -30.3471 H   0  0  0  0  0  0  0  0  0  0  0  0
   -4.3412   22.8754  -29.0573 H   0  0  0  0  0  0  0  0  0  0  0  0
   -2.7130   25.7846  -27.7726 H   0  0  0  0  0  0  0  0  0  0  0  0
   -3.2104   24.0550  -27.8367 H   0  0  0  0  0  0  0  0  0  0  0  0
   -0.7164   24.9218  -27.0781 H   0  0  0  0  0  0  0  0  0  0  0  0
   -1.0673   23.2980  -27.7831 H   0  0  0  0  0  0  0  0  0  0  0  0
   -0.8590   24.9090  -29.8140 H   0  0  0  0  0  0  0  0  0  0  0  0
   -4.1177   19.0463  -32.6685 H   0  0  0  0  0  0  0  0  0  0  0  0
  1  2  1  0
  2  3  2  0
  3  4  1  0
  4  5  2  0
  5  6  1  0
  6  7  2  0
  7  8  1  0
  8  9  1  0
  8 10  2  0
  7 11  1  0
 11 12  1  0
 12 13  2  0
 12 14  1  0
 14 15  1  0
 15 16  1  0
 16 17  2  0
 16 18  1  0
 18 19  1  0
 19 20  1  0
 20 21  1  0
 11 22  1  0
 22 23  2  0
 23  2  1  0
 22  5  1  0
  1 24  1  0
  1 25  1  0
  1 26  1  0
  3 27  1  0
  4 28  1  0
  6 29  1  0
  9 30  1  0
  9 31  1  0
 14 32  1  0
 14 33  1  0
 15 34  1  0
 15 35  1  0
 19 36  1  0
 19 37  1  0
 20 38  1  0
 20 39  1  0
 21 40  1  0
 23 41  1  0
M  CHG  1  18  -1
M  END
>  <UniqueID>  (60) 
60

>  <SMILES>  (60) 
Cc1ccc2cc(C(N)=O)n(C(=O)CCC(=O)[N-]CCO)c2c1

>  <Energy>  (60) 
71.85387695641593

>  <Genealogy>  (60) 
Cc1ccc2cc(C(N)=O)n(C(=O)CCC(=O)[N-]CCO)c2c1 (protonated)
Cc1ccc2cc(C(N)=O)n(C(=O)CCC(=O)[N-]CCO)c2c1 (3D coordinates assigned)
Cc1ccc2cc(C(N)=O)n(C(=O)CCC(=O)[N-]CCO)c2c1 (optimized conformer: 71.85387695641593 kcal/mol)

>  <smiles>  (60) 
Cc1ccc2cc(C(N)=O)n(C(=O)CCC(=O)NCCO)c2c1

>  <score_type>  (60) 
oracle

>  <origin>  (60) 
adg

>  <m_score__min__energy>  (60) 
-9.75

>  <m_primary>  (60) 
energy

$$$$
60:0
     RDKit          3D

 35 36  0  0  0  0  0  0  0  0999 V2000
   -1.4960   25.9690  -28.9220 N   0  0  0  0  0  0  0  0  0  0  0  0
   -0.8560   24.6970  -28.9750 C   0  0  0  0  0  0  0  0  0  0  0  0
    0.2630   24.5470  -28.4180 O   0  0  0  0  0  0  0  0  0  0  0  0
   -1.4590   23.5740  -29.7220 C   0  0  0  0  0  0  0  0  0  0  0  0
   -0.7490   22.4340  -30.0940 C   0  0  0  0  0  0  0  0  0  0  0  0
   -1.6270   21.6850  -30.8430 C   0  0  0  0  0  0  0  0  0  0  0  0
   -1.4520   20.4450  -31.4500 C   0  0  0  0  0  0  0  0  0  0  0  0
   -2.5440   19.8870  -32.1330 C   0  0  0  0  0  0  0  0  0  0  0  0
   -3.7850   20.5720  -32.1990 C   0  0  0  0  0  0  0  0  0  0  0  0
   -4.9120   19.9690  -32.8670 N   0  0  0  0  0  0  0  0  0  0  0  0
   -4.5500   18.6290  -33.3490 C   0  0  0  0  0  0  0  0  0  0  0  0
   -5.7740   17.7790  -33.4960 C   0  0  0  0  0  0  0  0  0  0  0  0
   -5.7530   16.7860  -34.2730 O   0  0  0  0  0  0  0  0  0  0  0  0
   -6.9090   18.0790  -32.7290 O   0  0  0  0  0  0  0  0  0  0  0  0
   -7.7010   19.2250  -32.8800 C   0  0  0  0  0  0  0  0  0  0  0  0
   -7.3290   20.1830  -33.6120 O   0  0  0  0  0  0  0  0  0  0  0  0
   -9.0350   19.2870  -32.2110 C   0  0  0  0  0  0  0  0  0  0  0  0
   -9.1040   20.4260  -31.4310 F   0  0  0  0  0  0  0  0  0  0  0  0
  -10.0400   19.3240  -33.1610 F   0  0  0  0  0  0  0  0  0  0  0  0
   -9.2150   18.1740  -31.4090 F   0  0  0  0  0  0  0  0  0  0  0  0
   -3.9260   21.8250  -31.5590 C   0  0  0  0  0  0  0  0  0  0  0  0
   -2.8160   22.3650  -30.9010 C   0  0  0  0  0  0  0  0  0  0  0  0
   -2.7300   23.5280  -30.2140 N   0  0  0  0  0  0  0  0  0  0  0  0
   -3.7990   24.4570  -29.9730 C   0  0  0  0  0  0  0  0  0  0  0  0
   -4.6780   24.2050  -29.1090 O   0  0  0  0  0  0  0  0  0  0  0  0
   -3.8560   25.6570  -30.6720 O   0  0  0  0  0  0  0  0  0  0  0  0
   -2.5360   26.0490  -28.9590 H   0  0  0  0  0  0  0  0  0  0  0  0
    0.2926   22.1857  -29.8422 H   0  0  0  0  0  0  0  0  0  0  0  0
   -0.4877   19.9184  -31.3962 H   0  0  0  0  0  0  0  0  0  0  0  0
   -2.4366   18.9078  -32.6225 H   0  0  0  0  0  0  0  0  0  0  0  0
   -5.2050   20.5680  -33.6750 H   0  0  0  0  0  0  0  0  0  0  0  0
   -5.7200   19.9010  -32.2050 H   0  0  0  0  0  0  0  0  0  0  0  0
   -4.0508   18.7175  -34.3252 H   0  0  0  0  0  0  0  0  0  0  0  0
   -3.8739   18.1581  -32.6201 H   0  0  0  0  0  0  0  0  0  0  0  0
   -4.8857   22.3623  -31.5781 H   0  0  0  0  0  0  0  0  0  0  0  0
  1  2  1  0
  2  3  2  0
  2  4  1  0
  4  5  2  0
  5  6  1  0
  6  7  2  0
  7  8  1  0
  8  9  2  0
  9 10  1  0
 10 11  1  0
 11 12  1  0
 12 13  2  0
 12 14  1  0
 14 15  1  0
 15 16  2  0
 15 17  1  0
 17 18  1  0
 17 19  1  0
 17 20  1  0
  9 21  1  0
 21 22  2  0
 22 23  1  0
 23 24  1  0
 24 25  2  0
 24 26  1  0
 23  4  1  0
 22  6  1  0
  1 27  1  0
  5 28  1  0
  7 29  1  0
  8 30  1  0
 10 31  1  0
 10 32  1  0
 11 33  1  0
 11 34  1  0
 21 35  1  0
M  CHG  3   1  -1  10   1  26  -1
M  END
>  <UniqueID>  (61) 
61

>  <SMILES>  (61) 
[NH-]C(=O)c1cc2ccc([NH2+]CC(=O)OC(=O)C(F)(F)F)cc2n1C(=O)[O-]

>  <Energy>  (61) 
74.18918355516945

>  <Genealogy>  (61) 
[NH-]C(=O)c1cc2ccc([NH2+]CC(=O)OC(=O)C(F)(F)F)cc2n1C(=O)[O-] (protonated)
[NH-]C(=O)c1cc2ccc([NH2+]CC(=O)OC(=O)C(F)(F)F)cc2n1C(=O)[O-] (3D coordinates assigned)
[NH-]C(=O)c1cc2ccc([NH2+]CC(=O)OC(=O)C(F)(F)F)cc2n1C(=O)[O-] (optimized conformer: 74.18918355516945 kcal/mol)

>  <smiles>  (61) 
NC(=O)c1cc2ccc(NCC(=O)OC(=O)C(F)(F)F)cc2n1C(=O)O

>  <score_type>  (61) 
oracle

>  <origin>  (61) 
adg

>  <m_score__min__energy>  (61) 
-9.75

>  <m_primary>  (61) 
energy

$$$$
61:0
     RDKit          3D

 41 42  0  0  0  0  0  0  0  0999 V2000
   -0.5970   26.6280  -27.7140 C   0  0  0  0  0  0  0  0  0  0  0  0
   -1.2230   26.1500  -28.9360 N   0  0  0  0  0  0  0  0  0  0  0  0
   -2.0820   25.0060  -28.9720 C   0  0  0  0  0  0  0  0  0  0  0  0
   -2.9780   24.9070  -29.8540 O   0  0  0  0  0  0  0  0  0  0  0  0
   -1.8890   23.9060  -27.9810 C   0  0  0  0  0  0  0  0  0  0  0  0
   -1.6910   22.6810  -28.6770 O   0  0  0  0  0  0  0  0  0  0  0  0
   -2.7400   21.9050  -29.1750 C   0  0  0  0  0  0  0  0  0  0  0  0
   -3.8500   21.8620  -28.5780 O   0  0  0  0  0  0  0  0  0  0  0  0
   -2.5410   21.1080  -30.4290 C   0  0  0  0  0  0  0  0  0  0  0  0
   -3.7210   21.1310  -31.2300 O   0  0  0  0  0  0  0  0  0  0  0  0
   -4.5370   22.2600  -31.3640 C   0  0  0  0  0  0  0  0  0  0  0  0
   -4.0100   23.3890  -31.5500 O   0  0  0  0  0  0  0  0  0  0  0  0
   -5.9710   22.1320  -31.2910 N   0  0  0  0  0  0  0  0  0  0  0  0
   -6.8570   23.0370  -30.7840 C   0  0  0  0  0  0  0  0  0  0  0  0
   -6.5100   24.3030  -30.1210 C   0  0  0  0  0  0  0  0  0  0  0  0
   -5.2460   24.4640  -29.4780 N   0  0  0  0  0  0  0  0  0  0  0  0
   -7.3640   25.2260  -30.0580 O   0  0  0  0  0  0  0  0  0  0  0  0
   -8.1670   22.6220  -30.9880 C   0  0  0  0  0  0  0  0  0  0  0  0
   -8.0660   21.4040  -31.6140 C   0  0  0  0  0  0  0  0  0  0  0  0
   -9.0660   20.5250  -32.0210 C   0  0  0  0  0  0  0  0  0  0  0  0
   -8.6780   19.3130  -32.6140 C   0  0  0  0  0  0  0  0  0  0  0  0
   -7.3070   18.9950  -32.7690 C   0  0  0  0  0  0  0  0  0  0  0  0
   -6.9040   17.6990  -33.4100 C   0  0  0  0  0  0  0  0  0  0  0  0
   -6.1670   17.9600  -34.5510 F   0  0  0  0  0  0  0  0  0  0  0  0
   -6.3190   19.9170  -32.3610 C   0  0  0  0  0  0  0  0  0  0  0  0
   -6.7320   21.1270  -31.7860 C   0  0  0  0  0  0  0  0  0  0  0  0
   -1.1319   26.2195  -26.8440 H   0  0  0  0  0  0  0  0  0  0  0  0
    0.4524   26.2992  -27.6867 H   0  0  0  0  0  0  0  0  0  0  0  0
   -0.6378   27.7269  -27.6867 H   0  0  0  0  0  0  0  0  0  0  0  0
   -1.0086   24.1220  -27.3579 H   0  0  0  0  0  0  0  0  0  0  0  0
   -2.7778   23.8270  -27.3377 H   0  0  0  0  0  0  0  0  0  0  0  0
   -1.7064   21.5379  -31.0022 H   0  0  0  0  0  0  0  0  0  0  0  0
   -2.3176   20.0661  -30.1558 H   0  0  0  0  0  0  0  0  0  0  0  0
   -5.0020   25.3680  -29.0150 H   0  0  0  0  0  0  0  0  0  0  0  0
   -4.5680   23.6710  -29.4300 H   0  0  0  0  0  0  0  0  0  0  0  0
   -9.0877   23.1548  -30.7081 H   0  0  0  0  0  0  0  0  0  0  0  0
  -10.1287   20.7728  -31.8821 H   0  0  0  0  0  0  0  0  0  0  0  0
   -9.4451   18.6050  -32.9609 H   0  0  0  0  0  0  0  0  0  0  0  0
   -6.2943   17.1149  -32.7050 H   0  0  0  0  0  0  0  0  0  0  0  0
   -7.8041   17.1260  -33.6773 H   0  0  0  0  0  0  0  0  0  0  0  0
   -5.2503   19.6914  -32.4912 H   0  0  0  0  0  0  0  0  0  0  0  0
  1  2  1  0
  2  3  1  0
  3  4  2  0
  3  5  1  0
  5  6  1  0
  6  7  1  0
  7  8  2  0
  7  9  1  0
  9 10  1  0
 10 11  1  0
 11 12  2  0
 11 13  1  0
 13 14  1  0
 14 15  1  0
 15 16  1  0
 15 17  2  0
 14 18  2  0
 18 19  1  0
 19 20  2  0
 20 21  1  0
 21 22  2  0
 22 23  1  0
 23 24  1  0
 22 25  1  0
 25 26  2  0
 26 13  1  0
 26 19  1  0
  1 27  1  0
  1 28  1  0
  1 29  1  0
  5 30  1  0
  5 31  1  0
  9 32  1  0
  9 33  1  0
 16 34  1  0
 16 35  1  0
 18 36  1  0
 20 37  1  0
 21 38  1  0
 23 39  1  0
 23 40  1  0
 25 41  1  0
M  CHG  1   2  -1
M  END
>  <UniqueID>  (62) 
62

>  <SMILES>  (62) 
C[N-]C(=O)COC(=O)COC(=O)n1c(C(N)=O)cc2ccc(CF)cc21

>  <Energy>  (62) 
72.25612323477964

>  <Genealogy>  (62) 
C[N-]C(=O)COC(=O)COC(=O)n1c(C(N)=O)cc2ccc(CF)cc21 (protonated)
C[N-]C(=O)COC(=O)COC(=O)n1c(C(N)=O)cc2ccc(CF)cc21 (3D coordinates assigned)
C[N-]C(=O)COC(=O)COC(=O)n1c(C(N)=O)cc2ccc(CF)cc21 (optimized conformer: 72.25612323477964 kcal/mol)

>  <smiles>  (62) 
CNC(=O)COC(=O)COC(=O)n1c(C(N)=O)cc2ccc(CF)cc21

>  <score_type>  (62) 
oracle

>  <origin>  (62) 
adg

>  <m_score__min__energy>  (62) 
-9.7799999999999994

>  <m_primary>  (62) 
energy

$$$$
62:0
     RDKit          3D

 47 48  0  0  0  0  0  0  0  0999 V2000
   -0.6260   20.8110  -30.9000 C   0  0  0  0  0  0  0  0  0  0  0  0
   -1.0990   21.9860  -30.0390 C   0  0  0  0  0  0  0  0  0  0  0  0
   -2.3070   21.6530  -29.2500 N   0  0  2  0  0  0  0  0  0  0  0  0
   -3.3910   22.5300  -29.6440 C   0  0  0  0  0  0  0  0  0  0  0  0
   -3.7480   23.4730  -28.8850 O   0  0  0  0  0  0  0  0  0  0  0  0
   -4.0620   22.3900  -30.9570 C   0  0  0  0  0  0  0  0  0  0  0  0
   -3.4220   21.9690  -31.9580 O   0  0  0  0  0  0  0  0  0  0  0  0
   -5.4440   22.7460  -31.1060 N   0  0  0  0  0  0  0  0  0  0  0  0
   -6.0170   23.9650  -30.9070 C   0  0  0  0  0  0  0  0  0  0  0  0
   -5.2980   25.2230  -30.6080 C   0  0  0  0  0  0  0  0  0  0  0  0
   -3.8990   25.3420  -30.8460 N   0  0  0  0  0  0  0  0  0  0  0  0
   -5.9330   26.2150  -30.1630 O   0  0  0  0  0  0  0  0  0  0  0  0
   -7.3990   23.8850  -31.0760 C   0  0  0  0  0  0  0  0  0  0  0  0
   -7.6540   22.5680  -31.3850 C   0  0  0  0  0  0  0  0  0  0  0  0
   -8.8580   21.9250  -31.6500 C   0  0  0  0  0  0  0  0  0  0  0  0
   -8.8240   20.5460  -31.9170 C   0  0  0  0  0  0  0  0  0  0  0  0
   -7.5980   19.8300  -31.8870 C   0  0  0  0  0  0  0  0  0  0  0  0
   -7.5640   18.3600  -32.2160 C   0  0  0  0  0  0  0  0  0  0  0  0
   -6.6470   17.6970  -31.4190 F   0  0  0  0  0  0  0  0  0  0  0  0
   -7.2050   18.1660  -33.5390 F   0  0  0  0  0  0  0  0  0  0  0  0
   -8.8170   17.8160  -32.0060 F   0  0  0  0  0  0  0  0  0  0  0  0
   -6.3930   20.5250  -31.6330 C   0  0  0  0  0  0  0  0  0  0  0  0
   -6.4570   21.9020  -31.3910 C   0  0  0  0  0  0  0  0  0  0  0  0
   -2.0670   21.7880  -27.8240 C   0  0  0  0  0  0  0  0  0  0  0  0
   -2.5160   20.9140  -27.0290 O   0  0  0  0  0  0  0  0  0  0  0  0
   -1.2790   22.8730  -27.2870 N   0  0  0  0  0  0  0  0  0  0  0  0
   -0.0190   22.5590  -26.6070 C   0  0  0  0  0  0  0  0  0  0  0  0
   -1.7270   24.2720  -27.3450 C   0  0  0  0  0  0  0  0  0  0  0  0
   -1.0410   25.0070  -28.4550 C   0  0  0  0  0  0  0  0  0  0  0  0
   -1.5830   26.0240  -28.9620 O   0  0  0  0  0  0  0  0  0  0  0  0
    0.1650   24.5470  -28.9680 O   0  0  0  0  0  0  0  0  0  0  0  0
   -0.2950   19.9889  -30.2484 H   0  0  0  0  0  0  0  0  0  0  0  0
   -1.4548   20.4647  -31.5350 H   0  0  0  0  0  0  0  0  0  0  0  0
    0.2116   21.1355  -31.5350 H   0  0  0  0  0  0  0  0  0  0  0  0
   -0.2907   22.2659  -29.3474 H   0  0  0  0  0  0  0  0  0  0  0  0
   -1.3555   22.8162  -30.7136 H   0  0  0  0  0  0  0  0  0  0  0  0
   -2.5750   20.6700  -29.4700 H   0  0  0  0  0  0  0  0  0  0  0  0
   -3.2120   25.2750  -30.0620 H   0  0  0  0  0  0  0  0  0  0  0  0
   -8.1303   24.7013  -30.9823 H   0  0  0  0  0  0  0  0  0  0  0  0
   -9.8083   22.4791  -31.6506 H   0  0  0  0  0  0  0  0  0  0  0  0
   -9.7581   20.0147  -32.1520 H   0  0  0  0  0  0  0  0  0  0  0  0
   -5.4285   19.9961  -31.6258 H   0  0  0  0  0  0  0  0  0  0  0  0
   -0.1707   22.5968  -25.5182 H   0  0  0  0  0  0  0  0  0  0  0  0
    0.3124   21.5508  -26.8963 H   0  0  0  0  0  0  0  0  0  0  0  0
    0.7468   23.2938  -26.8963 H   0  0  0  0  0  0  0  0  0  0  0  0
   -2.8135   24.2955  -27.5150 H   0  0  0  0  0  0  0  0  0  0  0  0
   -1.4766   24.7611  -26.3921 H   0  0  0  0  0  0  0  0  0  0  0  0
  1  2  1  0
  2  3  1  0
  3  4  1  0
  4  5  2  0
  4  6  1  0
  6  7  2  0
  6  8  1  0
  8  9  1  0
  9 10  1  0
 10 11  1  0
 10 12  2  0
  9 13  2  0
 13 14  1  0
 14 15  2  0
 15 16  1  0
 16 17  2  0
 17 18  1  0
 18 19  1  0
 18 20  1  0
 18 21  1  0
 17 22  1  0
 22 23  2  0
  3 24  1  0
 24 25  2  0
 24 26  1  0
 26 27  1  0
 26 28  1  0
 28 29  1  0
 29 30  2  0
 29 31  1  0
 23  8  1  0
 23 14  1  0
  1 32  1  0
  1 33  1  0
  1 34  1  0
  2 35  1  0
  2 36  1  0
  3 37  1  1
 11 38  1  0
 13 39  1  0
 15 40  1  0
 16 41  1  0
 22 42  1  0
 27 43  1  0
 27 44  1  0
 27 45  1  0
 28 46  1  0
 28 47  1  0
M  CHG  3   3   1  11  -1  31  -1
M  END
>  <UniqueID>  (63) 
63

>  <SMILES>  (63) 
CC[NH+](C(=O)C(=O)n1c(C([NH-])=O)cc2ccc(C(F)(F)F)cc21)C(=O)N(C)CC(=O)[O-]

>  <Energy>  (63) 
88.72008493055077

>  <Genealogy>  (63) 
CC[NH+](C(=O)C(=O)n1c(C([NH-])=O)cc2ccc(C(F)(F)F)cc21)C(=O)N(C)CC(=O)[O-] (protonated)
CC[NH+](C(=O)C(=O)n1c(C([NH-])=O)cc2ccc(C(F)(F)F)cc21)C(=O)N(C)CC(=O)[O-] (3D coordinates assigned)
CC[NH+](C(=O)C(=O)n1c(C([NH-])=O)cc2ccc(C(F)(F)F)cc21)C(=O)N(C)CC(=O)[O-] (optimized conformer: 88.72008493055077 kcal/mol)

>  <smiles>  (63) 
CCN(C(=O)C(=O)n1c(C(N)=O)cc2ccc(C(F)(F)F)cc21)C(=O)N(C)CC(=O)O

>  <score_type>  (63) 
oracle

>  <origin>  (63) 
adg

>  <m_score__min__energy>  (63) 
-11.9

>  <m_primary>  (63) 
energy

$$$$
63:0
     RDKit          3D

 40 42  0  0  0  0  0  0  0  0999 V2000
   -5.7910   16.7370  -31.8700 C   0  0  0  0  0  0  0  0  0  0  0  0
   -5.5960   17.7610  -33.0070 C   0  0  0  0  0  0  0  0  0  0  0  0
   -5.8850   19.2320  -32.6590 C   0  0  0  0  0  0  0  0  0  0  0  0
   -7.0920   19.8700  -33.0710 C   0  0  0  0  0  0  0  0  0  0  0  0
   -7.3460   21.2150  -32.7590 C   0  0  0  0  0  0  0  0  0  0  0  0
   -6.3910   21.9100  -32.0290 C   0  0  0  0  0  0  0  0  0  0  0  0
   -6.3790   23.2200  -31.6080 C   0  0  0  0  0  0  0  0  0  0  0  0
   -5.1780   23.3780  -30.9200 C   0  0  0  0  0  0  0  0  0  0  0  0
   -4.7890   24.6170  -30.2120 C   0  0  0  0  0  0  0  0  0  0  0  0
   -4.9660   24.7360  -28.7990 N   0  0  0  0  0  0  0  0  0  0  0  0
   -4.2660   25.5710  -30.8460 O   0  0  0  0  0  0  0  0  0  0  0  0
   -4.4740   22.2090  -30.9190 N   0  0  0  0  0  0  0  0  0  0  0  0
   -3.1730   21.9650  -30.3600 C   0  0  0  0  0  0  0  0  0  0  0  0
   -2.9550   20.9090  -29.7040 O   0  0  0  0  0  0  0  0  0  0  0  0
   -2.1600   22.9130  -30.5240 O   0  0  0  0  0  0  0  0  0  0  0  0
   -1.0530   23.0240  -29.6390 C   0  0  0  0  0  0  0  0  0  0  0  0
   -1.0550   24.3840  -29.0230 C   0  0  0  0  0  0  0  0  0  0  0  0
   -2.0970   25.3030  -29.3400 N   0  0  0  0  0  0  0  0  0  0  0  0
   -0.1250   24.7310  -28.2480 O   0  0  0  0  0  0  0  0  0  0  0  0
   -5.2320   21.3220  -31.6020 C   0  0  0  0  0  0  0  0  0  0  0  0
   -4.9400   19.9910  -31.9170 C   0  0  0  0  0  0  0  0  0  0  0  0
   -6.2180   17.2970  -34.3170 C   0  0  0  0  0  0  0  0  0  0  0  0
   -4.9630   17.1410  -34.9380 O   0  0  0  0  0  0  0  0  0  0  0  0
   -4.2930   17.5440  -33.7650 C   0  0  0  0  0  0  0  0  0  0  0  0
   -5.6943   17.2445  -30.8989 H   0  0  0  0  0  0  0  0  0  0  0  0
   -6.7911   16.2861  -31.9501 H   0  0  0  0  0  0  0  0  0  0  0  0
   -5.0266   15.9501  -31.9501 H   0  0  0  0  0  0  0  0  0  0  0  0
   -7.8372   19.2981  -33.6434 H   0  0  0  0  0  0  0  0  0  0  0  0
   -8.2759   21.7047  -33.0839 H   0  0  0  0  0  0  0  0  0  0  0  0
   -7.1541   23.9816  -31.7787 H   0  0  0  0  0  0  0  0  0  0  0  0
   -5.4450   23.9900  -28.2480 H   0  0  0  0  0  0  0  0  0  0  0  0
   -4.6520   25.5990  -28.3020 H   0  0  0  0  0  0  0  0  0  0  0  0
   -1.1343   22.2620  -28.8499 H   0  0  0  0  0  0  0  0  0  0  0  0
   -0.1166   22.8704  -30.1954 H   0  0  0  0  0  0  0  0  0  0  0  0
   -2.5680   25.2800  -30.2710 H   0  0  0  0  0  0  0  0  0  0  0  0
   -3.9911   19.5375  -31.5946 H   0  0  0  0  0  0  0  0  0  0  0  0
   -6.7812   16.3566  -34.2255 H   0  0  0  0  0  0  0  0  0  0  0  0
   -6.9748   17.9323  -34.8004 H   0  0  0  0  0  0  0  0  0  0  0  0
   -3.6591   16.7572  -33.3303 H   0  0  0  0  0  0  0  0  0  0  0  0
   -3.5679   18.3692  -33.8235 H   0  0  0  0  0  0  0  0  0  0  0  0
  1  2  1  0
  2  3  1  0
  3  4  2  0
  4  5  1  0
  5  6  2  0
  6  7  1  0
  7  8  2  0
  8  9  1  0
  9 10  1  0
  9 11  2  0
  8 12  1  0
 12 13  1  0
 13 14  2  0
 13 15  1  0
 15 16  1  0
 16 17  1  0
 17 18  1  0
 17 19  2  0
 12 20  1  0
 20 21  2  0
  2 22  1  0
 22 23  1  0
 23 24  1  0
 24  2  1  0
 21  3  1  0
 20  6  1  0
  1 25  1  0
  1 26  1  0
  1 27  1  0
  4 28  1  0
  5 29  1  0
  7 30  1  0
 10 31  1  0
 10 32  1  0
 16 33  1  0
 16 34  1  0
 18 35  1  0
 21 36  1  0
 22 37  1  0
 22 38  1  0
 24 39  1  0
 24 40  1  0
M  CHG  1  18  -1
M  END
>  <UniqueID>  (64) 
64

>  <SMILES>  (64) 
CC1(c2ccc3cc(C(N)=O)n(C(=O)OCC([NH-])=O)c3c2)COC1

>  <Energy>  (64) 
144.06937391379626

>  <Genealogy>  (64) 
CC1(c2ccc3cc(C(N)=O)n(C(=O)OCC([NH-])=O)c3c2)COC1 (protonated)
CC1(c2ccc3cc(C(N)=O)n(C(=O)OCC([NH-])=O)c3c2)COC1 (3D coordinates assigned)
CC1(c2ccc3cc(C(N)=O)n(C(=O)OCC([NH-])=O)c3c2)COC1 (nonaromatic ring conformer: 144.06937391379626 kcal/mol)

>  <smiles>  (64) 
CC1(c2ccc3cc(C(N)=O)n(C(=O)OCC(N)=O)c3c2)COC1

>  <score_type>  (64) 
oracle

>  <origin>  (64) 
adg

>  <m_score__min__energy>  (64) 
-12.24

>  <m_primary>  (64) 
energy

$$$$
64:0
     RDKit          3D

 46 47  0  0  0  0  0  0  0  0999 V2000
   -4.0000   24.9160  -26.3940 C   0  0  0  0  0  0  0  0  0  0  0  0
   -2.6230   25.5770  -26.3950 C   0  0  0  0  0  0  0  0  0  0  0  0
   -1.5240   24.6380  -26.9120 C   0  0  0  0  0  0  0  0  0  0  0  0
   -1.0950   24.9960  -28.3010 C   0  0  0  0  0  0  0  0  0  0  0  0
   -1.5940   26.0080  -28.8680 O   0  0  0  0  0  0  0  0  0  0  0  0
   -0.1680   24.1890  -28.9670 O   0  0  0  0  0  0  0  0  0  0  0  0
    0.2230   22.9040  -28.4890 C   0  0  0  0  0  0  0  0  0  0  0  0
   -0.6150   21.8950  -29.0470 O   0  0  0  0  0  0  0  0  0  0  0  0
   -1.8570   21.5550  -28.5050 C   0  0  0  0  0  0  0  0  0  0  0  0
   -2.0070   20.4830  -27.8590 O   0  0  0  0  0  0  0  0  0  0  0  0
   -3.0240   22.4680  -28.7030 C   0  0  0  0  0  0  0  0  0  0  0  0
   -2.9300   23.1300  -29.9620 O   0  0  0  0  0  0  0  0  0  0  0  0
   -3.5860   22.6850  -31.1160 C   0  0  0  0  0  0  0  0  0  0  0  0
   -2.9410   22.1020  -32.0300 O   0  0  0  0  0  0  0  0  0  0  0  0
   -5.0040   22.8690  -31.2450 N   0  0  0  0  0  0  0  0  0  0  0  0
   -5.7360   23.9660  -30.8970 C   0  0  0  0  0  0  0  0  0  0  0  0
   -5.1910   25.2680  -30.4590 C   0  0  0  0  0  0  0  0  0  0  0  0
   -3.8770   25.6550  -30.8530 N   0  0  0  0  0  0  0  0  0  0  0  0
   -5.8590   26.0260  -29.7080 O   0  0  0  0  0  0  0  0  0  0  0  0
   -7.0950   23.7300  -31.0960 C   0  0  0  0  0  0  0  0  0  0  0  0
   -7.1740   22.4460  -31.5850 C   0  0  0  0  0  0  0  0  0  0  0  0
   -8.2880   21.6960  -31.9530 C   0  0  0  0  0  0  0  0  0  0  0  0
   -8.0760   20.3840  -32.4090 C   0  0  0  0  0  0  0  0  0  0  0  0
   -6.7680   19.8430  -32.4700 C   0  0  0  0  0  0  0  0  0  0  0  0
   -6.5540   18.4490  -32.9830 C   0  0  0  0  0  0  0  0  0  0  0  0
   -5.7690   18.5120  -34.5810 Cl  0  0  0  0  0  0  0  0  0  0  0  0
   -5.6610   20.6370  -32.0990 C   0  0  0  0  0  0  0  0  0  0  0  0
   -5.9000   21.9480  -31.6660 C   0  0  0  0  0  0  0  0  0  0  0  0
   -4.3299   24.7576  -25.3567 H   0  0  0  0  0  0  0  0  0  0  0  0
   -4.7195   25.5669  -26.9123 H   0  0  0  0  0  0  0  0  0  0  0  0
   -3.9422   23.9475  -26.9123 H   0  0  0  0  0  0  0  0  0  0  0  0
   -2.6590   26.4675  -27.0397 H   0  0  0  0  0  0  0  0  0  0  0  0
   -2.3770   25.8416  -25.3560 H   0  0  0  0  0  0  0  0  0  0  0  0
   -0.6540   24.7052  -26.2422 H   0  0  0  0  0  0  0  0  0  0  0  0
   -1.9293   23.6156  -26.9321 H   0  0  0  0  0  0  0  0  0  0  0  0
    1.2665   22.7107  -28.7786 H   0  0  0  0  0  0  0  0  0  0  0  0
    0.1273   22.8844  -27.3933 H   0  0  0  0  0  0  0  0  0  0  0  0
   -3.9533   21.8803  -28.6712 H   0  0  0  0  0  0  0  0  0  0  0  0
   -3.0260   23.2227  -27.9027 H   0  0  0  0  0  0  0  0  0  0  0  0
   -3.0360   25.2640  -30.3730 H   0  0  0  0  0  0  0  0  0  0  0  0
   -7.9275   24.4227  -30.9032 H   0  0  0  0  0  0  0  0  0  0  0  0
   -9.3021   22.1174  -31.8887 H   0  0  0  0  0  0  0  0  0  0  0  0
   -8.9340   19.7708  -32.7217 H   0  0  0  0  0  0  0  0  0  0  0  0
   -5.9121   17.8957  -32.2817 H   0  0  0  0  0  0  0  0  0  0  0  0
   -7.5253   17.9408  -33.0738 H   0  0  0  0  0  0  0  0  0  0  0  0
   -4.6376   20.2368  -32.1486 H   0  0  0  0  0  0  0  0  0  0  0  0
  1  2  1  0
  2  3  1  0
  3  4  1  0
  4  5  2  0
  4  6  1  0
  6  7  1  0
  7  8  1  0
  8  9  1  0
  9 10  2  0
  9 11  1  0
 11 12  1  0
 12 13  1  0
 13 14  2  0
 13 15  1  0
 15 16  1  0
 16 17  1  0
 17 18  1  0
 17 19  2  0
 16 20  2  0
 20 21  1  0
 21 22  2  0
 22 23  1  0
 23 24  2  0
 24 25  1  0
 25 26  1  0
 24 27  1  0
 27 28  2  0
 28 15  1  0
 28 21  1  0
  1 29  1  0
  1 30  1  0
  1 31  1  0
  2 32  1  0
  2 33  1  0
  3 34  1  0
  3 35  1  0
  7 36  1  0
  7 37  1  0
 11 38  1  0
 11 39  1  0
 18 40  1  0
 20 41  1  0
 22 42  1  0
 23 43  1  0
 25 44  1  0
 25 45  1  0
 27 46  1  0
M  CHG  1  18  -1
M  END
>  <UniqueID>  (65) 
65

>  <SMILES>  (65) 
CCCC(=O)OCOC(=O)COC(=O)n1c(C([NH-])=O)cc2ccc(CCl)cc21

>  <Energy>  (65) 
71.34883232436903

>  <Genealogy>  (65) 
CCCC(=O)OCOC(=O)COC(=O)n1c(C([NH-])=O)cc2ccc(CCl)cc21 (protonated)
CCCC(=O)OCOC(=O)COC(=O)n1c(C([NH-])=O)cc2ccc(CCl)cc21 (3D coordinates assigned)
CCCC(=O)OCOC(=O)COC(=O)n1c(C([NH-])=O)cc2ccc(CCl)cc21 (optimized conformer: 71.34883232436903 kcal/mol)

>  <smiles>  (65) 
CCCC(=O)OCOC(=O)COC(=O)n1c(C(N)=O)cc2ccc(CCl)cc21

>  <score_type>  (65) 
oracle

>  <origin>  (65) 
adg

>  <m_score__min__energy>  (65) 
-10.470000000000001

>  <m_primary>  (65) 
energy

$$$$
65:0
     RDKit          3D

 52 55  0  0  0  0  0  0  0  0999 V2000
   -3.4290   21.6350  -28.8940 C   0  0  0  0  0  0  0  0  0  0  0  0
   -2.9250   22.6190  -29.8690 N   0  0  1  0  0  0  0  0  0  0  0  0
   -1.4390   22.6810  -29.9490 C   0  0  0  0  0  0  0  0  0  0  0  0
   -0.7380   23.7300  -29.0510 C   0  0  0  0  0  0  0  0  0  0  0  0
   -1.5550   24.9560  -28.7960 C   0  0  0  0  0  0  0  0  0  0  0  0
   -1.2430   26.0490  -29.3390 O   0  0  0  0  0  0  0  0  0  0  0  0
   -2.6290   24.9100  -27.9210 O   0  0  0  0  0  0  0  0  0  0  0  0
   -3.5320   22.4620  -31.1740 C   0  0  0  0  0  0  0  0  0  0  0  0
   -2.8220   22.2910  -32.2020 O   0  0  0  0  0  0  0  0  0  0  0  0
   -4.9580   22.5740  -31.3230 N   0  0  0  0  0  0  0  0  0  0  0  0
   -5.7290   23.6850  -31.1710 C   0  0  0  0  0  0  0  0  0  0  0  0
   -5.2720   24.9870  -30.6500 C   0  0  0  0  0  0  0  0  0  0  0  0
   -3.8870   25.3080  -30.6050 N   0  0  0  0  0  0  0  0  0  0  0  0
   -6.1110   25.8040  -30.1830 O   0  0  0  0  0  0  0  0  0  0  0  0
   -7.0580   23.4020  -31.4830 C   0  0  0  0  0  0  0  0  0  0  0  0
   -7.0760   22.0680  -31.8200 C   0  0  0  0  0  0  0  0  0  0  0  0
   -8.1380   21.2520  -32.1960 C   0  0  0  0  0  0  0  0  0  0  0  0
   -7.8640   19.9040  -32.4840 C   0  0  0  0  0  0  0  0  0  0  0  0
   -6.5390   19.3950  -32.3930 C   0  0  0  0  0  0  0  0  0  0  0  0
   -6.2550   18.0140  -32.7060 N   0  0  0  0  0  0  0  0  0  0  0  0
   -7.1710   17.1070  -33.3920 C   0  0  0  0  0  0  0  0  0  0  0  0
   -6.1930   16.0150  -33.8590 C   0  0  2  0  0  0  0  0  0  0  0  0
   -6.8550   14.6930  -34.2410 C   0  0  0  0  0  0  0  0  0  0  0  0
   -5.2500   15.9280  -32.6820 C   0  0  0  0  0  0  0  0  0  0  0  0
   -4.9310   17.3880  -32.7840 C   0  0  1  0  0  0  0  0  0  0  0  0
   -4.5090   17.4350  -34.2520 C   0  0  0  0  0  0  0  0  0  0  0  0
   -5.4030   16.5480  -34.9130 O   0  0  0  0  0  0  0  0  0  0  0  0
   -5.4920   20.2600  -31.9970 C   0  0  0  0  0  0  0  0  0  0  0  0
   -5.7970   21.5930  -31.7140 C   0  0  0  0  0  0  0  0  0  0  0  0
   -3.2416   22.0008  -27.8737 H   0  0  0  0  0  0  0  0  0  0  0  0
   -4.5101   21.4944  -29.0404 H   0  0  0  0  0  0  0  0  0  0  0  0
   -2.9113   20.6755  -29.0404 H   0  0  0  0  0  0  0  0  0  0  0  0
   -3.2340   23.5540  -29.5120 H   0  0  0  0  0  0  0  0  0  0  0  0
   -1.0485   21.6907  -29.6720 H   0  0  0  0  0  0  0  0  0  0  0  0
   -1.2174   22.9895  -30.9813 H   0  0  0  0  0  0  0  0  0  0  0  0
   -0.5093   23.2594  -28.0834 H   0  0  0  0  0  0  0  0  0  0  0  0
    0.1652   24.0556  -29.5879 H   0  0  0  0  0  0  0  0  0  0  0  0
   -3.4520   25.6830  -29.7340 H   0  0  0  0  0  0  0  0  0  0  0  0
   -7.9105   24.0969  -31.4639 H   0  0  0  0  0  0  0  0  0  0  0  0
   -9.1612   21.6498  -32.2658 H   0  0  0  0  0  0  0  0  0  0  0  0
   -8.6840   19.2347  -32.7833 H   0  0  0  0  0  0  0  0  0  0  0  0
   -7.9316   16.7042  -32.7070 H   0  0  0  0  0  0  0  0  0  0  0  0
   -7.7557   17.5723  -34.1992 H   0  0  0  0  0  0  0  0  0  0  0  0
   -7.1301   14.1436  -33.3286 H   0  0  0  0  0  0  0  0  0  0  0  0
   -7.7590   14.8937  -34.8348 H   0  0  0  0  0  0  0  0  0  0  0  0
   -6.1528   14.0894  -34.8348 H   0  0  0  0  0  0  0  0  0  0  0  0
   -5.7418   15.6461  -31.7393 H   0  0  0  0  0  0  0  0  0  0  0  0
   -4.4340   15.1903  -32.6913 H   0  0  0  0  0  0  0  0  0  0  0  0
   -4.2178   17.8273  -32.0710 H   0  0  0  0  0  0  0  0  0  0  0  0
   -4.6082   18.4550  -34.6517 H   0  0  0  0  0  0  0  0  0  0  0  0
   -3.4568   17.1464  -34.3921 H   0  0  0  0  0  0  0  0  0  0  0  0
   -4.4593   19.8903  -31.9138 H   0  0  0  0  0  0  0  0  0  0  0  0
  1  2  1  0
  2  3  1  0
  3  4  1  0
  4  5  1  0
  5  6  2  0
  5  7  1  0
  2  8  1  0
  8  9  2  0
  8 10  1  0
 10 11  1  0
 11 12  1  0
 12 13  1  0
 12 14  2  0
 11 15  2  0
 15 16  1  0
 16 17  2  0
 17 18  1  0
 18 19  2  0
 19 20  1  0
 20 21  1  0
 21 22  1  0
 22 23  1  6
 22 24  1  0
 24 25  1  0
 25 26  1  0
 26 27  1  0
 19 28  1  0
 28 29  2  0
 29 10  1  0
 29 16  1  0
 25 20  1  0
 27 22  1  0
  1 30  1  0
  1 31  1  0
  1 32  1  0
  2 33  1  1
  3 34  1  0
  3 35  1  0
  4 36  1  0
  4 37  1  0
 13 38  1  0
 15 39  1  0
 17 40  1  0
 18 41  1  0
 21 42  1  0
 21 43  1  0
 23 44  1  0
 23 45  1  0
 23 46  1  0
 24 47  1  0
 24 48  1  0
 25 49  1  1
 26 50  1  0
 26 51  1  0
 28 52  1  0
M  CHG  3   2   1   7  -1  13  -1
M  END
>  <UniqueID>  (66) 
66

>  <SMILES>  (66) 
C[N@@H+](CCC(=O)[O-])C(=O)n1c(C([NH-])=O)cc2ccc(N3C[C@]4(C)C[C@H]3CO4)cc21

>  <Energy>  (66) 
132.20935515588963

>  <Genealogy>  (66) 
C[NH+](CCC(=O)[O-])C(=O)n1c(C([NH-])=O)cc2ccc(N3C[C@]4(C)C[C@H]3CO4)cc21 (protonated)
C[N@@H+](CCC(=O)[O-])C(=O)n1c(C([NH-])=O)cc2ccc(N3C[C@]4(C)C[C@H]3CO4)cc21 (chirality)
C[N@@H+](CCC(=O)[O-])C(=O)n1c(C([NH-])=O)cc2ccc(N3C[C@]4(C)C[C@H]3CO4)cc21 (3D coordinates assigned)
C[N@@H+](CCC(=O)[O-])C(=O)n1c(C([NH-])=O)cc2ccc(N3C[C@]4(C)C[C@H]3CO4)cc21 (nonaromatic ring conformer: 132.20935515588963 kcal/mol)

>  <smiles>  (66) 
CN(CCC(=O)O)C(=O)n1c(C(N)=O)cc2ccc(N3C[C@]4(C)C[C@H]3CO4)cc21

>  <score_type>  (66) 
oracle

>  <origin>  (66) 
adg

>  <m_score__min__energy>  (66) 
-12.550000000000001

>  <m_primary>  (66) 
energy

$$$$
66:0
     RDKit          3D

 42 43  0  0  0  0  0  0  0  0999 V2000
   -6.6800   18.9220  -35.0190 H   0  0  0  0  0  0  0  0  0  0  0  0
   -6.0820   18.1920  -35.3290 O   0  0  0  0  0  0  0  0  0  0  0  0
   -5.2260   17.8930  -34.2600 C   0  0  0  0  0  0  0  0  0  0  0  0
   -4.4798   18.6945  -34.1567 H   0  0  0  0  0  0  0  0  0  0  0  0
   -4.7228   16.9354  -34.4596 H   0  0  0  0  0  0  0  0  0  0  0  0
   -6.0260   17.7760  -32.9600 C   0  0  0  0  0  0  0  0  0  0  0  0
   -5.4071   18.1287  -32.1219 H   0  0  0  0  0  0  0  0  0  0  0  0
   -6.3061   16.7229  -32.8100 H   0  0  0  0  0  0  0  0  0  0  0  0
   -7.2460   18.5830  -33.0300 N   0  0  0  0  0  0  0  0  0  0  0  0
   -8.0850   18.1360  -33.4650 H   0  0  0  0  0  0  0  0  0  0  0  0
   -7.3710   19.9270  -32.5270 C   0  0  0  0  0  0  0  0  0  0  0  0
   -8.6540   20.5300  -32.4970 C   0  0  0  0  0  0  0  0  0  0  0  0
   -9.5255   19.9691  -32.8657 H   0  0  0  0  0  0  0  0  0  0  0  0
   -8.8280   21.8340  -32.0030 C   0  0  0  0  0  0  0  0  0  0  0  0
   -9.8232   22.3018  -31.9763 H   0  0  0  0  0  0  0  0  0  0  0  0
   -7.7040   22.5150  -31.5490 C   0  0  0  0  0  0  0  0  0  0  0  0
   -7.5910   23.7740  -31.0030 C   0  0  0  0  0  0  0  0  0  0  0  0
   -8.3981   24.5004  -30.8270 H   0  0  0  0  0  0  0  0  0  0  0  0
   -6.2350   23.9310  -30.7210 C   0  0  0  0  0  0  0  0  0  0  0  0
   -5.6400   25.1770  -30.1910 C   0  0  0  0  0  0  0  0  0  0  0  0
   -6.3060   25.9170  -29.4200 O   0  0  0  0  0  0  0  0  0  0  0  0
   -4.3000   25.5430  -30.5240 N   0  0  0  0  0  0  0  0  0  0  0  0
   -3.7400   24.9860  -31.2070 H   0  0  0  0  0  0  0  0  0  0  0  0
   -3.8780   26.4080  -30.1200 H   0  0  0  0  0  0  0  0  0  0  0  0
   -5.5420   22.8090  -31.0670 N   0  0  0  0  0  0  0  0  0  0  0  0
   -4.1380   22.5450  -30.8930 C   0  0  0  0  0  0  0  0  0  0  0  0
   -3.3010   23.1900  -31.5790 O   0  0  0  0  0  0  0  0  0  0  0  0
   -3.6340   21.5780  -29.8940 C   0  0  0  0  0  0  0  0  0  0  0  0
   -3.3806   20.5693  -30.2522 H   0  0  0  0  0  0  0  0  0  0  0  0
   -3.4600   21.8280  -28.5880 C   0  0  0  0  0  0  0  0  0  0  0  0
   -2.9405   21.0704  -27.9828 H   0  0  0  0  0  0  0  0  0  0  0  0
   -3.9230   23.0590  -27.9100 C   0  0  0  0  0  0  0  0  0  0  0  0
   -4.9169   23.0542  -27.4387 H   0  0  0  0  0  0  0  0  0  0  0  0
   -3.1920   24.1780  -27.8420 C   0  0  0  0  0  0  0  0  0  0  0  0
   -3.6001   25.0326  -27.2825 H   0  0  0  0  0  0  0  0  0  0  0  0
   -1.8490   24.3300  -28.4860 C   0  0  0  0  0  0  0  0  0  0  0  0
   -1.0768   24.4174  -27.7075 H   0  0  0  0  0  0  0  0  0  0  0  0
   -1.6407   23.4497  -29.1118 H   0  0  0  0  0  0  0  0  0  0  0  0
   -1.8427   25.2346  -29.1118 H   0  0  0  0  0  0  0  0  0  0  0  0
   -6.4540   21.9560  -31.5800 C   0  0  0  0  0  0  0  0  0  0  0  0
   -6.2520   20.6540  -32.0490 C   0  0  0  0  0  0  0  0  0  0  0  0
   -5.2480   20.2045  -32.0470 H   0  0  0  0  0  0  0  0  0  0  0  0
  1  2  1  0
  2  3  1  0
  3  4  1  0
  3  5  1  0
  3  6  1  0
  6  7  1  0
  6  8  1  0
  6  9  1  0
  9 10  1  0
  9 11  1  0
 11 12  2  0
 12 13  1  0
 12 14  1  0
 14 15  1  0
 14 16  2  0
 16 17  1  0
 17 18  1  0
 17 19  2  0
 19 20  1  0
 20 21  2  0
 20 22  1  0
 22 23  1  0
 22 24  1  0
 19 25  1  0
 25 26  1  0
 26 27  2  0
 26 28  1  0
 28 29  1  0
 28 30  2  0
 30 31  1  0
 30 32  1  0
 32 33  1  0
 32 34  2  0
 34 35  1  0
 34 36  1  0
 36 37  1  0
 36 38  1  0
 36 39  1  0
 25 40  1  0
 40 41  2  0
 41 42  1  0
 41 11  1  0
 40 16  1  0
M  END
>  <UniqueID>  (67) 
67

>  <SMILES>  (67) 
C/C=C\C=C/C(=O)n1c(C(N)=O)cc2ccc(NCCO)cc21

>  <Energy>  (67) 
78.72844655157992

>  <Genealogy>  (67) 
C/C=C\C=C/C(=O)n1c(C(N)=O)cc2ccc(NCCO)cc21 (cis-trans isomerization)
C/C=C\C=C/C(=O)n1c(C(N)=O)cc2ccc(NCCO)cc21 (3D coordinates assigned)
C/C=C\C=C/C(=O)n1c(C(N)=O)cc2ccc(NCCO)cc21 (optimized conformer: 78.72844655157992 kcal/mol)

>  <smiles>  (67) 
CC=CC=CC(=O)n1c(C(N)=O)cc2ccc(NCCO)cc21

>  <score_type>  (67) 
oracle

>  <origin>  (67) 
adg

>  <m_score__min__energy>  (67) 
-8.8599999999999994

>  <m_primary>  (67) 
energy

$$$$
67:0
     RDKit          3D

 37 38  0  0  0  0  0  0  0  0999 V2000
   -0.9880   22.3570  -30.4560 C   0  0  0  0  0  0  0  0  0  0  0  0
   -1.9540   23.2780  -29.8300 N   0  0  2  0  0  0  0  0  0  0  0  0
   -1.4940   23.7790  -28.5130 C   0  0  0  0  0  0  0  0  0  0  0  0
   -0.7640   25.0950  -28.5860 C   0  0  0  0  0  0  0  0  0  0  0  0
   -1.1930   26.0160  -29.3310 O   0  0  0  0  0  0  0  0  0  0  0  0
    0.3870   25.2990  -27.8370 O   0  0  0  0  0  0  0  0  0  0  0  0
   -3.2700   22.6760  -29.7400 C   0  0  0  0  0  0  0  0  0  0  0  0
   -3.7750   22.4230  -28.6120 O   0  0  0  0  0  0  0  0  0  0  0  0
   -4.0540   22.3590  -30.9550 C   0  0  0  0  0  0  0  0  0  0  0  0
   -3.5520   21.6560  -31.8730 O   0  0  0  0  0  0  0  0  0  0  0  0
   -5.4110   22.8070  -31.0790 N   0  0  0  0  0  0  0  0  0  0  0  0
   -5.9050   24.0580  -30.8600 C   0  0  0  0  0  0  0  0  0  0  0  0
   -5.1010   25.2640  -30.5760 C   0  0  0  0  0  0  0  0  0  0  0  0
   -3.7040   25.2940  -30.8520 N   0  0  0  0  0  0  0  0  0  0  0  0
   -5.6620   26.2930  -30.1130 O   0  0  0  0  0  0  0  0  0  0  0  0
   -7.2920   24.0630  -31.0050 C   0  0  0  0  0  0  0  0  0  0  0  0
   -7.6290   22.7680  -31.3310 C   0  0  0  0  0  0  0  0  0  0  0  0
   -8.8750   22.1980  -31.5720 C   0  0  0  0  0  0  0  0  0  0  0  0
   -8.9260   20.8230  -31.8640 C   0  0  0  0  0  0  0  0  0  0  0  0
   -7.7370   20.0500  -31.9230 C   0  0  0  0  0  0  0  0  0  0  0  0
   -7.8100   18.5660  -32.1810 C   0  0  0  0  0  0  0  0  0  0  0  0
   -7.3310   18.2660  -33.4440 F   0  0  0  0  0  0  0  0  0  0  0  0
   -9.1260   18.1520  -32.0890 F   0  0  0  0  0  0  0  0  0  0  0  0
   -7.0530   17.8710  -31.2550 F   0  0  0  0  0  0  0  0  0  0  0  0
   -6.4930   20.6630  -31.6480 C   0  0  0  0  0  0  0  0  0  0  0  0
   -6.4750   22.0330  -31.3700 C   0  0  0  0  0  0  0  0  0  0  0  0
   -0.4290   21.8240  -29.6728 H   0  0  0  0  0  0  0  0  0  0  0  0
   -1.5269   21.6298  -31.0812 H   0  0  0  0  0  0  0  0  0  0  0  0
   -0.2873   22.9299  -31.0812 H   0  0  0  0  0  0  0  0  0  0  0  0
   -2.0040   24.1100  -30.4640 H   0  0  0  0  0  0  0  0  0  0  0  0
   -2.3727   23.9050  -27.8634 H   0  0  0  0  0  0  0  0  0  0  0  0
   -0.7825   23.0386  -28.1185 H   0  0  0  0  0  0  0  0  0  0  0  0
   -3.0030   25.2980  -30.0790 H   0  0  0  0  0  0  0  0  0  0  0  0
   -7.9722   24.9191  -30.8846 H   0  0  0  0  0  0  0  0  0  0  0  0
   -9.7922   22.8041  -31.5353 H   0  0  0  0  0  0  0  0  0  0  0  0
   -9.8977   20.3416  -32.0486 H   0  0  0  0  0  0  0  0  0  0  0  0
   -5.5624   20.0765  -31.6527 H   0  0  0  0  0  0  0  0  0  0  0  0
  1  2  1  0
  2  3  1  0
  3  4  1  0
  4  5  2  0
  4  6  1  0
  2  7  1  0
  7  8  2  0
  7  9  1  0
  9 10  2  0
  9 11  1  0
 11 12  1  0
 12 13  1  0
 13 14  1  0
 13 15  2  0
 12 16  2  0
 16 17  1  0
 17 18  2  0
 18 19  1  0
 19 20  2  0
 20 21  1  0
 21 22  1  0
 21 23  1  0
 21 24  1  0
 20 25  1  0
 25 26  2  0
 26 11  1  0
 26 17  1  0
  1 27  1  0
  1 28  1  0
  1 29  1  0
  2 30  1  6
  3 31  1  0
  3 32  1  0
 14 33  1  0
 16 34  1  0
 18 35  1  0
 19 36  1  0
 25 37  1  0
M  CHG  3   2   1   6  -1  14  -1
M  END
>  <UniqueID>  (68) 
68

>  <SMILES>  (68) 
C[N@H+](CC(=O)[O-])C(=O)C(=O)n1c(C([NH-])=O)cc2ccc(C(F)(F)F)cc21

>  <Energy>  (68) 
81.6363915806152

>  <Genealogy>  (68) 
C[NH+](CC(=O)[O-])C(=O)C(=O)n1c(C([NH-])=O)cc2ccc(C(F)(F)F)cc21 (protonated)
C[N@H+](CC(=O)[O-])C(=O)C(=O)n1c(C([NH-])=O)cc2ccc(C(F)(F)F)cc21 (chirality)
C[N@H+](CC(=O)[O-])C(=O)C(=O)n1c(C([NH-])=O)cc2ccc(C(F)(F)F)cc21 (3D coordinates assigned)
C[N@H+](CC(=O)[O-])C(=O)C(=O)n1c(C([NH-])=O)cc2ccc(C(F)(F)F)cc21 (optimized conformer: 81.6363915806152 kcal/mol)

>  <smiles>  (68) 
CN(CC(=O)O)C(=O)C(=O)n1c(C(N)=O)cc2ccc(C(F)(F)F)cc21

>  <score_type>  (68) 
oracle

>  <origin>  (68) 
adg

>  <m_score__min__energy>  (68) 
-11

>  <m_primary>  (68) 
energy

$$$$
68:0
     RDKit          3D

 51 52  0  0  0  0  0  0  0  0999 V2000
   -4.4685   20.5887  -30.8795 H   0  0  0  0  0  0  0  0  0  0  0  0
   -3.5890   20.7890  -31.5090 C   0  0  0  0  0  0  0  0  0  0  0  0
   -3.6800   20.6850  -32.8980 O   0  0  0  0  0  0  0  0  0  0  0  0
   -4.1390   19.5390  -33.5540 C   0  0  0  0  0  0  0  0  0  0  0  0
   -3.4280   18.9770  -34.4320 O   0  0  0  0  0  0  0  0  0  0  0  0
   -5.4350   19.0050  -33.2330 N   0  0  0  0  0  0  0  0  0  0  0  0
   -5.8590   17.7150  -33.3570 C   0  0  0  0  0  0  0  0  0  0  0  0
   -5.0100   16.5620  -33.7300 C   0  0  0  0  0  0  0  0  0  0  0  0
   -4.9330   15.5610  -32.9700 O   0  0  0  0  0  0  0  0  0  0  0  0
   -4.2980   16.5510  -34.9690 N   0  0  0  0  0  0  0  0  0  0  0  0
   -4.2990   17.3800  -35.6030 H   0  0  0  0  0  0  0  0  0  0  0  0
   -3.7230   15.7210  -35.2370 H   0  0  0  0  0  0  0  0  0  0  0  0
   -7.1990   17.6050  -32.9870 C   0  0  0  0  0  0  0  0  0  0  0  0
   -7.8171   16.6951  -32.9836 H   0  0  0  0  0  0  0  0  0  0  0  0
   -7.5840   18.8760  -32.6270 C   0  0  0  0  0  0  0  0  0  0  0  0
   -8.8190   19.3450  -32.1910 C   0  0  0  0  0  0  0  0  0  0  0  0
   -9.6724   18.6623  -32.0656 H   0  0  0  0  0  0  0  0  0  0  0  0
   -8.9430   20.7160  -31.9160 C   0  0  0  0  0  0  0  0  0  0  0  0
   -9.9103   21.1173  -31.5794 H   0  0  0  0  0  0  0  0  0  0  0  0
   -7.8350   21.5910  -32.0670 C   0  0  0  0  0  0  0  0  0  0  0  0
   -8.0040   23.0680  -31.8200 C   0  0  0  0  0  0  0  0  0  0  0  0
   -7.6150   23.3620  -30.5250 F   0  0  0  0  0  0  0  0  0  0  0  0
   -7.2250   23.7970  -32.7010 F   0  0  0  0  0  0  0  0  0  0  0  0
   -9.3230   23.4510  -31.9910 F   0  0  0  0  0  0  0  0  0  0  0  0
   -6.6020   21.0780  -32.5360 C   0  0  0  0  0  0  0  0  0  0  0  0
   -5.7419   21.7434  -32.7018 H   0  0  0  0  0  0  0  0  0  0  0  0
   -6.5030   19.7030  -32.7840 C   0  0  0  0  0  0  0  0  0  0  0  0
   -2.4280   21.1330  -30.9510 C   0  0  0  0  0  0  0  0  0  0  0  0
   -1.5645   21.3243  -31.6050 H   0  0  0  0  0  0  0  0  0  0  0  0
   -2.2550   21.2670  -29.4970 C   0  0  0  0  0  0  0  0  0  0  0  0
   -1.8980   20.2780  -28.7980 O   0  0  0  0  0  0  0  0  0  0  0  0
   -2.4940   22.5100  -28.8990 O   0  0  0  0  0  0  0  0  0  0  0  0
   -3.6490   23.3000  -29.1690 C   0  0  0  0  0  0  0  0  0  0  0  0
   -4.1876   23.4877  -28.2284 H   0  0  0  0  0  0  0  0  0  0  0  0
   -4.2960   22.7566  -29.8734 H   0  0  0  0  0  0  0  0  0  0  0  0
   -3.2560   24.6070  -29.7810 C   0  0  0  0  0  0  0  0  0  0  0  0
   -3.9670   25.1000  -30.6970 O   0  0  0  0  0  0  0  0  0  0  0  0
   -2.0600   25.2630  -29.3380 N   0  0  0  0  0  0  0  0  0  0  0  0
   -1.4960   25.2430  -27.9840 C   0  0  0  0  0  0  0  0  0  0  0  0
   -0.8600   26.6170  -27.7230 C   0  0  0  0  0  0  0  0  0  0  0  0
   -0.7822   26.7850  -26.6387 H   0  0  0  0  0  0  0  0  0  0  0  0
    0.1439   26.6476  -28.1717 H   0  0  0  0  0  0  0  0  0  0  0  0
   -1.4863   27.4021  -28.1717 H   0  0  0  0  0  0  0  0  0  0  0  0
   -2.6090   24.9980  -26.9480 C   0  0  0  0  0  0  0  0  0  0  0  0
   -2.1927   25.0896  -25.9340 H   0  0  0  0  0  0  0  0  0  0  0  0
   -3.4077   25.7418  -27.0851 H   0  0  0  0  0  0  0  0  0  0  0  0
   -3.0215   23.9875  -27.0851 H   0  0  0  0  0  0  0  0  0  0  0  0
   -0.4090   24.1580  -27.8730 C   0  0  0  0  0  0  0  0  0  0  0  0
   -0.2031   23.9525  -26.8122 H   0  0  0  0  0  0  0  0  0  0  0  0
   -0.7582   23.2376  -28.3638 H   0  0  0  0  0  0  0  0  0  0  0  0
    0.5108   24.5089  -28.3638 H   0  0  0  0  0  0  0  0  0  0  0  0
  1  2  1  0
  2  3  1  0
  3  4  1  0
  4  5  2  0
  4  6  1  0
  6  7  1  0
  7  8  1  0
  8  9  2  0
  8 10  1  0
 10 11  1  0
 10 12  1  0
  7 13  2  0
 13 14  1  0
 13 15  1  0
 15 16  2  0
 16 17  1  0
 16 18  1  0
 18 19  1  0
 18 20  2  0
 20 21  1  0
 21 22  1  0
 21 23  1  0
 21 24  1  0
 20 25  1  0
 25 26  1  0
 25 27  2  0
  2 28  2  0
 28 29  1  0
 28 30  1  0
 30 31  2  0
 30 32  1  0
 32 33  1  0
 33 34  1  0
 33 35  1  0
 33 36  1  0
 36 37  2  0
 36 38  1  0
 38 39  1  0
 39 40  1  0
 40 41  1  0
 40 42  1  0
 40 43  1  0
 39 44  1  0
 44 45  1  0
 44 46  1  0
 44 47  1  0
 39 48  1  0
 48 49  1  0
 48 50  1  0
 48 51  1  0
 27  6  1  0
 27 15  1  0
M  CHG  1  38  -1
M  END
>  <UniqueID>  (69) 
69

>  <SMILES>  (69) 
CC(C)(C)[N-]C(=O)COC(=O)/C=C/OC(=O)n1c(C(N)=O)cc2ccc(C(F)(F)F)cc21

>  <Energy>  (69) 
78.78917617280804

>  <Genealogy>  (69) 
CC(C)(C)[N-]C(=O)COC(=O)/C=C/OC(=O)n1c(C(N)=O)cc2ccc(C(F)(F)F)cc21 (protonated)
CC(C)(C)[N-]C(=O)COC(=O)/C=C/OC(=O)n1c(C(N)=O)cc2ccc(C(F)(F)F)cc21 (cis-trans isomerization)
CC(C)(C)[N-]C(=O)COC(=O)/C=C/OC(=O)n1c(C(N)=O)cc2ccc(C(F)(F)F)cc21 (3D coordinates assigned)
CC(C)(C)[N-]C(=O)COC(=O)/C=C/OC(=O)n1c(C(N)=O)cc2ccc(C(F)(F)F)cc21 (optimized conformer: 78.78917617280804 kcal/mol)

>  <smiles>  (69) 
CC(C)(C)NC(=O)COC(=O)/C=C/OC(=O)n1c(C(N)=O)cc2ccc(C(F)(F)F)cc21

>  <score_type>  (69) 
oracle

>  <origin>  (69) 
adg

>  <m_score__min__energy>  (69) 
-10.81

>  <m_primary>  (69) 
energy

$$$$
69:0
     RDKit          3D

 41 42  0  0  0  0  0  0  0  0999 V2000
   -7.3730   18.4170  -32.7160 C   0  0  0  0  0  0  0  0  0  0  0  0
   -7.4280   19.8680  -32.3400 C   0  0  0  0  0  0  0  0  0  0  0  0
   -8.6760   20.5320  -32.2520 C   0  0  0  0  0  0  0  0  0  0  0  0
   -8.7430   21.8850  -31.8750 C   0  0  0  0  0  0  0  0  0  0  0  0
   -7.5510   22.5370  -31.5760 C   0  0  0  0  0  0  0  0  0  0  0  0
   -7.3210   23.8430  -31.2050 C   0  0  0  0  0  0  0  0  0  0  0  0
   -5.9400   23.9440  -31.0410 C   0  0  0  0  0  0  0  0  0  0  0  0
   -5.2620   25.1700  -30.5740 C   0  0  0  0  0  0  0  0  0  0  0  0
   -3.8810   25.3900  -30.8460 N   0  0  0  0  0  0  0  0  0  0  0  0
   -5.9000   26.0170  -29.8930 O   0  0  0  0  0  0  0  0  0  0  0  0
   -5.3420   22.7490  -31.3050 N   0  0  0  0  0  0  0  0  0  0  0  0
   -3.9370   22.4460  -31.3490 C   0  0  0  0  0  0  0  0  0  0  0  0
   -3.4560   21.9150  -32.3900 O   0  0  0  0  0  0  0  0  0  0  0  0
   -3.0630   22.8900  -30.2840 N   0  0  2  0  0  0  0  0  0  0  0  0
   -1.7140   22.3560  -30.5410 C   0  0  0  0  0  0  0  0  0  0  0  0
   -3.5870   22.4650  -28.9580 C   0  0  0  0  0  0  0  0  0  0  0  0
   -3.4830   23.5800  -27.8830 C   0  0  2  0  0  0  0  0  0  0  0  0
   -4.5100   24.5300  -28.0110 O   0  0  0  0  0  0  0  0  0  0  0  0
   -2.1080   24.2720  -27.9100 C   0  0  0  0  0  0  0  0  0  0  0  0
   -2.0750   25.3010  -28.8660 O   0  0  0  0  0  0  0  0  0  0  0  0
   -6.3390   21.8990  -31.6290 C   0  0  0  0  0  0  0  0  0  0  0  0
   -6.2410   20.5590  -32.0150 C   0  0  0  0  0  0  0  0  0  0  0  0
   -7.3497   17.8025  -31.8039 H   0  0  0  0  0  0  0  0  0  0  0  0
   -8.2620   18.1582  -33.3099 H   0  0  0  0  0  0  0  0  0  0  0  0
   -6.4670   18.2262  -33.3099 H   0  0  0  0  0  0  0  0  0  0  0  0
   -9.6019   19.9839  -32.4808 H   0  0  0  0  0  0  0  0  0  0  0  0
   -9.7073   22.4112  -31.8183 H   0  0  0  0  0  0  0  0  0  0  0  0
   -8.0684   24.6382  -31.0672 H   0  0  0  0  0  0  0  0  0  0  0  0
   -3.1630   25.2890  -30.0950 H   0  0  0  0  0  0  0  0  0  0  0  0
   -3.0070   23.9340  -30.3230 H   0  0  0  0  0  0  0  0  0  0  0  0
   -1.2101   22.1565  -29.5838 H   0  0  0  0  0  0  0  0  0  0  0  0
   -1.7930   21.4213  -31.1156 H   0  0  0  0  0  0  0  0  0  0  0  0
   -1.1318   23.0915  -31.1156 H   0  0  0  0  0  0  0  0  0  0  0  0
   -4.6445   22.1844  -29.0718 H   0  0  0  0  0  0  0  0  0  0  0  0
   -2.9739   21.6181  -28.6162 H   0  0  0  0  0  0  0  0  0  0  0  0
   -3.5987   23.0841  -26.9079 H   0  0  0  0  0  0  0  0  0  0  0  0
   -4.2300   25.1890  -28.6990 H   0  0  0  0  0  0  0  0  0  0  0  0
   -1.9014   24.6981  -26.9172 H   0  0  0  0  0  0  0  0  0  0  0  0
   -1.3471   23.5240  -28.1775 H   0  0  0  0  0  0  0  0  0  0  0  0
   -2.9780   25.7120  -28.8790 H   0  0  0  0  0  0  0  0  0  0  0  0
   -5.2639   20.0561  -32.0642 H   0  0  0  0  0  0  0  0  0  0  0  0
  1  2  1  0
  2  3  2  0
  3  4  1  0
  4  5  2  0
  5  6  1  0
  6  7  2  0
  7  8  1  0
  8  9  1  0
  8 10  2  0
  7 11  1  0
 11 12  1  0
 12 13  2  0
 12 14  1  0
 14 15  1  0
 14 16  1  0
 16 17  1  0
 17 18  1  0
 17 19  1  0
 19 20  1  0
 11 21  1  0
 21 22  2  0
 22  2  1  0
 21  5  1  0
  1 23  1  0
  1 24  1  0
  1 25  1  0
  3 26  1  0
  4 27  1  0
  6 28  1  0
  9 29  1  0
 14 30  1  1
 15 31  1  0
 15 32  1  0
 15 33  1  0
 16 34  1  0
 16 35  1  0
 17 36  1  1
 18 37  1  0
 19 38  1  0
 19 39  1  0
 20 40  1  0
 22 41  1  0
M  CHG  2   9  -1  14   1
M  END
>  <UniqueID>  (70) 
70

>  <SMILES>  (70) 
Cc1ccc2cc(C([NH-])=O)n(C(=O)[N@H+](C)C[C@H](O)CO)c2c1

>  <Energy>  (70) 
82.45626173607894

>  <Genealogy>  (70) 
Cc1ccc2cc(C([NH-])=O)n(C(=O)[NH+](C)CC(O)CO)c2c1 (protonated)
Cc1ccc2cc(C([NH-])=O)n(C(=O)[N@H+](C)C[C@H](O)CO)c2c1 (chirality)
Cc1ccc2cc(C([NH-])=O)n(C(=O)[N@H+](C)C[C@H](O)CO)c2c1 (3D coordinates assigned)
Cc1ccc2cc(C([NH-])=O)n(C(=O)[N@H+](C)C[C@H](O)CO)c2c1 (optimized conformer: 82.45626173607894 kcal/mol)

>  <smiles>  (70) 
Cc1ccc2cc(C(N)=O)n(C(=O)N(C)CC(O)CO)c2c1

>  <score_type>  (70) 
oracle

>  <origin>  (70) 
adg

>  <m_score__min__energy>  (70) 
-8.7400000000000002

>  <m_primary>  (70) 
energy

$$$$
70:0
     RDKit          3D

 39 40  0  0  0  0  0  0  0  0999 V2000
   -0.4590   22.6520  -26.4080 C   0  0  0  0  0  0  0  0  0  0  0  0
   -1.5110   22.6300  -27.4290 N   0  0  0  0  0  0  0  0  0  0  0  0
   -2.1280   23.8840  -27.8840 C   0  0  0  0  0  0  0  0  0  0  0  0
   -1.1450   24.6880  -28.6740 C   0  0  0  0  0  0  0  0  0  0  0  0
   -1.5280   25.6860  -29.3390 O   0  0  0  0  0  0  0  0  0  0  0  0
    0.2010   24.3460  -28.6600 O   0  0  0  0  0  0  0  0  0  0  0  0
   -1.9690   21.3590  -27.9330 C   0  0  0  0  0  0  0  0  0  0  0  0
   -2.6800   20.6120  -27.2060 O   0  0  0  0  0  0  0  0  0  0  0  0
   -1.6160   20.9180  -29.2520 N   0  0  0  0  0  0  0  0  0  0  0  0
   -0.5790   20.1140  -29.6160 C   0  0  0  0  0  0  0  0  0  0  0  0
    0.3520   19.4400  -28.6870 C   0  0  0  0  0  0  0  0  0  0  0  0
   -0.1440   18.8510  -27.4880 N   0  0  0  0  0  0  0  0  0  0  0  0
    1.5860   19.3940  -28.9350 O   0  0  0  0  0  0  0  0  0  0  0  0
   -0.5390   19.9710  -31.0020 C   0  0  0  0  0  0  0  0  0  0  0  0
   -1.5890   20.7260  -31.4780 C   0  0  0  0  0  0  0  0  0  0  0  0
   -2.0190   20.9510  -32.7830 C   0  0  0  0  0  0  0  0  0  0  0  0
   -3.1320   21.7880  -32.9740 C   0  0  0  0  0  0  0  0  0  0  0  0
   -3.7910   22.3880  -31.8710 C   0  0  0  0  0  0  0  0  0  0  0  0
   -4.9400   23.2250  -32.1100 N   0  0  0  0  0  0  0  0  0  0  0  0
   -5.8160   23.7440  -31.0590 C   0  0  0  0  0  0  0  0  0  0  0  0
   -5.2620   25.0140  -30.4920 C   0  0  0  0  0  0  0  0  0  0  0  0
   -3.8680   25.2940  -30.5980 N   0  0  0  0  0  0  0  0  0  0  0  0
   -6.0270   25.8450  -29.9380 O   0  0  0  0  0  0  0  0  0  0  0  0
   -3.3090   22.1480  -30.5600 C   0  0  0  0  0  0  0  0  0  0  0  0
   -2.2160   21.2920  -30.4010 C   0  0  0  0  0  0  0  0  0  0  0  0
   -0.9180   22.6424  -25.4084 H   0  0  0  0  0  0  0  0  0  0  0  0
    0.1839   21.7671  -26.5248 H   0  0  0  0  0  0  0  0  0  0  0  0
    0.1463   23.5630  -26.5248 H   0  0  0  0  0  0  0  0  0  0  0  0
   -2.9983   23.6522  -28.5155 H   0  0  0  0  0  0  0  0  0  0  0  0
   -2.4445   24.4667  -27.0063 H   0  0  0  0  0  0  0  0  0  0  0  0
   -1.0070   19.2160  -27.0290 H   0  0  0  0  0  0  0  0  0  0  0  0
    0.1785   19.3807  -31.5909 H   0  0  0  0  0  0  0  0  0  0  0  0
   -1.5039   20.4883  -33.6377 H   0  0  0  0  0  0  0  0  0  0  0  0
   -3.4970   21.9803  -33.9937 H   0  0  0  0  0  0  0  0  0  0  0  0
   -5.1850   23.4650  -33.0990 H   0  0  0  0  0  0  0  0  0  0  0  0
   -6.8118   23.9412  -31.4828 H   0  0  0  0  0  0  0  0  0  0  0  0
   -5.8864   22.9971  -30.2546 H   0  0  0  0  0  0  0  0  0  0  0  0
   -3.5140   26.0160  -31.2630 H   0  0  0  0  0  0  0  0  0  0  0  0
   -3.7836   22.6238  -29.6891 H   0  0  0  0  0  0  0  0  0  0  0  0
  1  2  1  0
  2  3  1  0
  3  4  1  0
  4  5  2  0
  4  6  1  0
  2  7  1  0
  7  8  2  0
  7  9  1  0
  9 10  1  0
 10 11  1  0
 11 12  1  0
 11 13  2  0
 10 14  2  0
 14 15  1  0
 15 16  2  0
 16 17  1  0
 17 18  2  0
 18 19  1  0
 19 20  1  0
 20 21  1  0
 21 22  1  0
 21 23  2  0
 18 24  1  0
 24 25  2  0
 25  9  1  0
 25 15  1  0
  1 26  1  0
  1 27  1  0
  1 28  1  0
  3 29  1  0
  3 30  1  0
 12 31  1  0
 14 32  1  0
 16 33  1  0
 17 34  1  0
 19 35  1  0
 20 36  1  0
 20 37  1  0
 22 38  1  0
 24 39  1  0
M  CHG  3   6  -1  12  -1  22  -1
M  END
>  <UniqueID>  (71) 
71

>  <SMILES>  (71) 
CN(CC(=O)[O-])C(=O)n1c(C([NH-])=O)cc2ccc(NCC([NH-])=O)cc21

>  <Energy>  (71) 
71.93684325536626

>  <Genealogy>  (71) 
CN(CC(=O)[O-])C(=O)n1c(C([NH-])=O)cc2ccc(NCC([NH-])=O)cc21 (protonated)
CN(CC(=O)[O-])C(=O)n1c(C([NH-])=O)cc2ccc(NCC([NH-])=O)cc21 (3D coordinates assigned)
CN(CC(=O)[O-])C(=O)n1c(C([NH-])=O)cc2ccc(NCC([NH-])=O)cc21 (optimized conformer: 71.93684325536626 kcal/mol)

>  <smiles>  (71) 
CN(CC(=O)O)C(=O)n1c(C(N)=O)cc2ccc(NCC(N)=O)cc21

>  <score_type>  (71) 
oracle

>  <origin>  (71) 
adg

>  <m_score__min__energy>  (71) 
-11.619999999999999

>  <m_primary>  (71) 
energy

$$$$
71:0
     RDKit          3D

 47 48  0  0  0  0  0  0  0  0999 V2000
   -6.8400   17.3570  -33.5130 C   0  0  0  0  0  0  0  0  0  0  0  0
   -6.0410   17.9290  -32.3470 C   0  0  0  0  0  0  0  0  0  0  0  0
   -6.3230   19.3980  -32.1780 C   0  0  0  0  0  0  0  0  0  0  0  0
   -7.6040   19.9170  -32.4940 C   0  0  0  0  0  0  0  0  0  0  0  0
   -7.8850   21.2830  -32.3210 C   0  0  0  0  0  0  0  0  0  0  0  0
   -6.8740   22.0980  -31.8190 C   0  0  0  0  0  0  0  0  0  0  0  0
   -6.8700   23.4510  -31.5630 C   0  0  0  0  0  0  0  0  0  0  0  0
   -5.5970   23.7280  -31.0650 C   0  0  0  0  0  0  0  0  0  0  0  0
   -5.1910   25.0550  -30.5600 C   0  0  0  0  0  0  0  0  0  0  0  0
   -3.9020   25.5870  -30.8530 N   0  0  0  0  0  0  0  0  0  0  0  0
   -5.9760   25.7130  -29.8270 O   0  0  0  0  0  0  0  0  0  0  0  0
   -4.8420   22.5950  -31.0330 N   0  0  0  0  0  0  0  0  0  0  0  0
   -3.4590   22.4610  -30.6680 C   0  0  0  0  0  0  0  0  0  0  0  0
   -2.6290   23.3340  -31.0380 O   0  0  0  0  0  0  0  0  0  0  0  0
   -3.0000   21.3340  -29.7770 C   0  0  0  0  0  0  0  0  0  0  0  0
   -3.0490   21.7120  -28.3440 N   0  0  1  0  0  0  0  0  0  0  0  0
   -3.0890   20.5230  -27.4690 C   0  0  0  0  0  0  0  0  0  0  0  0
   -1.9580   22.6530  -27.9730 C   0  0  0  0  0  0  0  0  0  0  0  0
   -2.4140   24.1030  -27.6620 C   0  0  2  0  0  0  0  0  0  0  0  0
   -3.5760   24.4020  -28.3920 O   0  0  0  0  0  0  0  0  0  0  0  0
   -1.3080   25.0970  -28.0510 C   0  0  0  0  0  0  0  0  0  0  0  0
   -1.5430   25.6170  -29.3320 O   0  0  0  0  0  0  0  0  0  0  0  0
   -5.6400   21.6060  -31.4870 C   0  0  0  0  0  0  0  0  0  0  0  0
   -5.3280   20.2540  -31.6560 C   0  0  0  0  0  0  0  0  0  0  0  0
   -7.6770   16.7578  -33.1251 H   0  0  0  0  0  0  0  0  0  0  0  0
   -7.2325   18.1806  -34.1275 H   0  0  0  0  0  0  0  0  0  0  0  0
   -6.1869   16.7200  -34.1275 H   0  0  0  0  0  0  0  0  0  0  0  0
   -6.3197   17.3994  -31.4241 H   0  0  0  0  0  0  0  0  0  0  0  0
   -4.9689   17.7965  -32.5544 H   0  0  0  0  0  0  0  0  0  0  0  0
   -8.3850   19.2443  -32.8781 H   0  0  0  0  0  0  0  0  0  0  0  0
   -8.8728   21.6954  -32.5743 H   0  0  0  0  0  0  0  0  0  0  0  0
   -7.6950   24.1619  -31.7182 H   0  0  0  0  0  0  0  0  0  0  0  0
   -3.0620   25.2910  -30.3080 H   0  0  0  0  0  0  0  0  0  0  0  0
   -3.6529   20.4636  -29.9385 H   0  0  0  0  0  0  0  0  0  0  0  0
   -1.9567   21.0977  -30.0335 H   0  0  0  0  0  0  0  0  0  0  0  0
   -3.9410   22.2380  -28.1780 H   0  0  0  0  0  0  0  0  0  0  0  0
   -3.0783   20.8419  -26.4163 H   0  0  0  0  0  0  0  0  0  0  0  0
   -4.0069   19.9509  -27.6695 H   0  0  0  0  0  0  0  0  0  0  0  0
   -2.2116   19.8905  -27.6695 H   0  0  0  0  0  0  0  0  0  0  0  0
   -1.4548   22.2554  -27.0793 H   0  0  0  0  0  0  0  0  0  0  0  0
   -1.3014   22.7214  -28.8529 H   0  0  0  0  0  0  0  0  0  0  0  0
   -2.6200   24.1860  -26.5847 H   0  0  0  0  0  0  0  0  0  0  0  0
   -3.4740   25.3270  -28.7380 H   0  0  0  0  0  0  0  0  0  0  0  0
   -1.2902   25.9217  -27.3233 H   0  0  0  0  0  0  0  0  0  0  0  0
   -0.3417   24.5713  -28.0523 H   0  0  0  0  0  0  0  0  0  0  0  0
   -2.0030   24.9070  -29.8500 H   0  0  0  0  0  0  0  0  0  0  0  0
   -4.3335   19.8667  -31.3894 H   0  0  0  0  0  0  0  0  0  0  0  0
  1  2  1  0
  2  3  1  0
  3  4  2  0
  4  5  1  0
  5  6  2  0
  6  7  1  0
  7  8  2  0
  8  9  1  0
  9 10  1  0
  9 11  2  0
  8 12  1  0
 12 13  1  0
 13 14  2  0
 13 15  1  0
 15 16  1  0
 16 17  1  0
 16 18  1  0
 18 19  1  0
 19 20  1  0
 19 21  1  0
 21 22  1  0
 12 23  1  0
 23 24  2  0
 24  3  1  0
 23  6  1  0
  1 25  1  0
  1 26  1  0
  1 27  1  0
  2 28  1  0
  2 29  1  0
  4 30  1  0
  5 31  1  0
  7 32  1  0
 10 33  1  0
 15 34  1  0
 15 35  1  0
 16 36  1  6
 17 37  1  0
 17 38  1  0
 17 39  1  0
 18 40  1  0
 18 41  1  0
 19 42  1  1
 20 43  1  0
 21 44  1  0
 21 45  1  0
 22 46  1  0
 24 47  1  0
M  CHG  2  10  -1  16   1
M  END
>  <UniqueID>  (72) 
72

>  <SMILES>  (72) 
CCc1ccc2cc(C([NH-])=O)n(C(=O)C[N@@H+](C)C[C@H](O)CO)c2c1

>  <Energy>  (72) 
84.95048424271361

>  <Genealogy>  (72) 
CCc1ccc2cc(C([NH-])=O)n(C(=O)C[NH+](C)C[C@H](O)CO)c2c1 (protonated)
CCc1ccc2cc(C([NH-])=O)n(C(=O)C[N@@H+](C)C[C@H](O)CO)c2c1 (chirality)
CCc1ccc2cc(C([NH-])=O)n(C(=O)C[N@@H+](C)C[C@H](O)CO)c2c1 (3D coordinates assigned)
CCc1ccc2cc(C([NH-])=O)n(C(=O)C[N@@H+](C)C[C@H](O)CO)c2c1 (optimized conformer: 84.95048424271361 kcal/mol)

>  <smiles>  (72) 
CCc1ccc2cc(C(N)=O)n(C(=O)CN(C)C[C@H](O)CO)c2c1

>  <score_type>  (72) 
oracle

>  <origin>  (72) 
adg

>  <m_score__min__energy>  (72) 
-9.2300000000000004

>  <m_primary>  (72) 
energy

$$$$
72:0
     RDKit          3D

 51 54  0  0  0  0  0  0  0  0999 V2000
   -5.7930   23.5050  -30.4340 C   0  0  0  0  0  0  0  0  0  0  0  0
   -4.3220   23.2890  -30.0510 C   0  0  2  0  0  0  0  0  0  0  0  0
   -3.5020   24.5520  -30.0820 C   0  0  0  0  0  0  0  0  0  0  0  0
   -2.4150   24.6430  -29.4490 O   0  0  0  0  0  0  0  0  0  0  0  0
   -3.9400   25.6300  -30.8400 O   0  0  0  0  0  0  0  0  0  0  0  0
   -3.6900   22.2240  -30.8600 N   0  0  0  0  0  0  0  0  0  0  0  0
   -4.1330   21.8550  -32.1900 C   0  0  0  0  0  0  0  0  0  0  0  0
   -4.3690   22.7510  -33.0470 O   0  0  0  0  0  0  0  0  0  0  0  0
   -4.2790   20.4840  -32.5820 N   0  0  0  0  0  0  0  0  0  0  0  0
   -3.3870   19.7230  -33.2750 C   0  0  0  0  0  0  0  0  0  0  0  0
   -2.0260   20.1610  -33.6730 C   0  0  0  0  0  0  0  0  0  0  0  0
   -1.7660   21.5130  -34.0570 N   0  0  0  0  0  0  0  0  0  0  0  0
   -1.0760   19.3350  -33.6810 O   0  0  0  0  0  0  0  0  0  0  0  0
   -3.9470   18.4780  -33.5710 C   0  0  0  0  0  0  0  0  0  0  0  0
   -5.2280   18.5230  -33.0640 C   0  0  0  0  0  0  0  0  0  0  0  0
   -6.2420   17.5690  -33.0950 C   0  0  0  0  0  0  0  0  0  0  0  0
   -7.4780   17.9040  -32.5150 C   0  0  0  0  0  0  0  0  0  0  0  0
   -7.6840   19.1850  -31.9420 C   0  0  0  0  0  0  0  0  0  0  0  0
   -8.9940   19.5240  -31.2950 C   0  0  0  0  0  0  0  0  0  0  0  0
   -9.4380   21.5900  -31.6080 I   0  0  0  0  0  0  0  0  0  0  0  0
   -6.6320   20.1260  -31.9310 C   0  0  0  0  0  0  0  0  0  0  0  0
   -5.4070   19.7540  -32.4920 C   0  0  0  0  0  0  0  0  0  0  0  0
   -2.5170   21.5850  -30.3260 C   0  0  0  0  0  0  0  0  0  0  0  0
   -1.2480   21.8940  -30.8450 C   0  0  0  0  0  0  0  0  0  0  0  0
   -0.1050   21.2730  -30.3330 C   0  0  0  0  0  0  0  0  0  0  0  0
   -0.2250   20.3390  -29.3000 C   0  0  0  0  0  0  0  0  0  0  0  0
   -1.4900   20.0000  -28.8010 C   0  0  0  0  0  0  0  0  0  0  0  0
   -2.6330   20.6270  -29.3040 C   0  0  0  0  0  0  0  0  0  0  0  0
   -1.5880   19.0310  -27.7990 O   0  0  0  0  0  0  0  0  0  0  0  0
   -0.4740   18.1990  -27.4620 C   0  0  0  0  0  0  0  0  0  0  0  0
    0.8300   19.0040  -27.5220 C   0  0  0  0  0  0  0  0  0  0  0  0
    0.9080   19.7290  -28.7510 O   0  0  0  0  0  0  0  0  0  0  0  0
   -6.4003   23.5942  -29.5212 H   0  0  0  0  0  0  0  0  0  0  0  0
   -5.8858   24.4264  -31.0276 H   0  0  0  0  0  0  0  0  0  0  0  0
   -6.1468   22.6492  -31.0276 H   0  0  0  0  0  0  0  0  0  0  0  0
   -4.3394   22.9563  -29.0027 H   0  0  0  0  0  0  0  0  0  0  0  0
   -0.7970   21.8030  -34.3160 H   0  0  0  0  0  0  0  0  0  0  0  0
   -2.5250   22.2250  -34.1240 H   0  0  0  0  0  0  0  0  0  0  0  0
   -3.4674   17.6395  -34.0971 H   0  0  0  0  0  0  0  0  0  0  0  0
   -6.0809   16.5846  -33.5586 H   0  0  0  0  0  0  0  0  0  0  0  0
   -8.2932   17.1655  -32.5055 H   0  0  0  0  0  0  0  0  0  0  0  0
   -9.7906   18.9077  -31.7373 H   0  0  0  0  0  0  0  0  0  0  0  0
   -8.9294   19.3247  -30.2151 H   0  0  0  0  0  0  0  0  0  0  0  0
   -6.7724   21.1251  -31.4928 H   0  0  0  0  0  0  0  0  0  0  0  0
   -1.1537   22.6284  -31.6585 H   0  0  0  0  0  0  0  0  0  0  0  0
    0.8862   21.5187  -30.7419 H   0  0  0  0  0  0  0  0  0  0  0  0
   -3.6236   20.3709  -28.9001 H   0  0  0  0  0  0  0  0  0  0  0  0
   -0.6105   17.8049  -26.4441 H   0  0  0  0  0  0  0  0  0  0  0  0
   -0.4159   17.3701  -28.1828 H   0  0  0  0  0  0  0  0  0  0  0  0
    0.8588   19.7118  -26.6805 H   0  0  0  0  0  0  0  0  0  0  0  0
    1.6820   18.3110  -27.4601 H   0  0  0  0  0  0  0  0  0  0  0  0
  1  2  1  0
  2  3  1  0
  3  4  2  0
  3  5  1  0
  2  6  1  0
  6  7  1  0
  7  8  2  0
  7  9  1  0
  9 10  1  0
 10 11  1  0
 11 12  1  0
 11 13  2  0
 10 14  2  0
 14 15  1  0
 15 16  2  0
 16 17  1  0
 17 18  2  0
 18 19  1  0
 19 20  1  0
 18 21  1  0
 21 22  2  0
  6 23  1  0
 23 24  2  0
 24 25  1  0
 25 26  2  0
 26 27  1  0
 27 28  2  0
 27 29  1  0
 29 30  1  0
 30 31  1  0
 31 32  1  0
 22  9  1  0
 28 23  1  0
 22 15  1  0
 32 26  1  0
  1 33  1  0
  1 34  1  0
  1 35  1  0
  2 36  1  1
 12 37  1  0
 12 38  1  0
 14 39  1  0
 16 40  1  0
 17 41  1  0
 19 42  1  0
 19 43  1  0
 21 44  1  0
 24 45  1  0
 25 46  1  0
 28 47  1  0
 30 48  1  0
 30 49  1  0
 31 50  1  0
 31 51  1  0
M  CHG  1   5  -1
M  END
>  <UniqueID>  (73) 
73

>  <SMILES>  (73) 
C[C@H](C(=O)[O-])N(C(=O)n1c(C(N)=O)cc2ccc(CI)cc21)c1ccc2c(c1)OCCO2

>  <Energy>  (73) 
100.99727851655085

>  <Genealogy>  (73) 
CC(C(=O)[O-])N(C(=O)n1c(C(N)=O)cc2ccc(CI)cc21)c1ccc2c(c1)OCCO2 (protonated)
C[C@H](C(=O)[O-])N(C(=O)n1c(C(N)=O)cc2ccc(CI)cc21)c1ccc2c(c1)OCCO2 (chirality)
C[C@H](C(=O)[O-])N(C(=O)n1c(C(N)=O)cc2ccc(CI)cc21)c1ccc2c(c1)OCCO2 (3D coordinates assigned)
C[C@H](C(=O)[O-])N(C(=O)n1c(C(N)=O)cc2ccc(CI)cc21)c1ccc2c(c1)OCCO2 (nonaromatic ring conformer: 100.99727851655085 kcal/mol)

>  <smiles>  (73) 
CC(C(=O)O)N(C(=O)n1c(C(N)=O)cc2ccc(CI)cc21)c1ccc2c(c1)OCCO2

>  <score_type>  (73) 
oracle

>  <origin>  (73) 
adg

>  <m_score__min__energy>  (73) 
-11.82

>  <m_primary>  (73) 
energy

$$$$
73:0
     RDKit          3D

 47 49  0  0  0  0  0  0  0  0999 V2000
   -2.2390   20.7900  -29.9070 C   0  0  0  0  0  0  0  0  0  0  0  0
   -3.3080   21.7690  -29.6950 N   0  0  0  0  0  0  0  0  0  0  0  0
   -3.8780   21.9810  -28.3600 C   0  0  0  0  0  0  0  0  0  0  0  0
   -3.5580   23.3610  -27.8320 C   0  0  0  0  0  0  0  0  0  0  0  0
   -4.4840   24.0630  -27.3410 O   0  0  0  0  0  0  0  0  0  0  0  0
   -2.2170   23.8930  -27.8690 N   0  0  0  0  0  0  0  0  0  0  0  0
   -1.0450   23.0040  -27.9260 C   0  0  0  0  0  0  0  0  0  0  0  0
    0.1180   23.7310  -28.6030 C   0  0  0  0  0  0  0  0  0  0  0  0
    0.3770   24.9640  -27.9660 O   0  0  0  0  0  0  0  0  0  0  0  0
   -0.7210   25.8330  -28.1550 C   0  0  0  0  0  0  0  0  0  0  0  0
   -1.9820   25.2870  -27.4720 C   0  0  0  0  0  0  0  0  0  0  0  0
   -3.7480   22.5590  -30.8060 C   0  0  0  0  0  0  0  0  0  0  0  0
   -2.9060   23.0570  -31.5980 O   0  0  0  0  0  0  0  0  0  0  0  0
   -5.1440   22.8130  -31.0020 N   0  0  0  0  0  0  0  0  0  0  0  0
   -5.8240   23.9770  -30.8290 C   0  0  0  0  0  0  0  0  0  0  0  0
   -5.2350   25.2740  -30.4340 C   0  0  0  0  0  0  0  0  0  0  0  0
   -3.9200   25.6420  -30.8420 N   0  0  0  0  0  0  0  0  0  0  0  0
   -5.9120   26.0760  -29.7380 O   0  0  0  0  0  0  0  0  0  0  0  0
   -7.1720   23.8040  -31.1500 C   0  0  0  0  0  0  0  0  0  0  0  0
   -7.2930   22.4820  -31.5190 C   0  0  0  0  0  0  0  0  0  0  0  0
   -8.4060   21.7640  -31.9500 C   0  0  0  0  0  0  0  0  0  0  0  0
   -8.2310   20.4070  -32.2670 C   0  0  0  0  0  0  0  0  0  0  0  0
   -6.9650   19.7820  -32.1190 C   0  0  0  0  0  0  0  0  0  0  0  0
   -6.8010   18.3310  -32.4930 C   0  0  0  0  0  0  0  0  0  0  0  0
   -6.3890   18.2430  -33.8080 F   0  0  0  0  0  0  0  0  0  0  0  0
   -8.0060   17.6670  -32.3530 F   0  0  0  0  0  0  0  0  0  0  0  0
   -5.8660   17.7040  -31.6900 F   0  0  0  0  0  0  0  0  0  0  0  0
   -5.8580   20.5500  -31.6890 C   0  0  0  0  0  0  0  0  0  0  0  0
   -6.0570   21.9070  -31.4120 C   0  0  0  0  0  0  0  0  0  0  0  0
   -1.8608   20.4436  -28.9339 H   0  0  0  0  0  0  0  0  0  0  0  0
   -2.6334   19.9333  -30.4731 H   0  0  0  0  0  0  0  0  0  0  0  0
   -1.4202   21.2580  -30.4731 H   0  0  0  0  0  0  0  0  0  0  0  0
   -4.9704   21.8642  -28.4154 H   0  0  0  0  0  0  0  0  0  0  0  0
   -3.4384   21.2400  -27.6761 H   0  0  0  0  0  0  0  0  0  0  0  0
   -0.7529   22.7174  -26.9050 H   0  0  0  0  0  0  0  0  0  0  0  0
   -1.2980   22.1025  -28.5034 H   0  0  0  0  0  0  0  0  0  0  0  0
    1.0180   23.1008  -28.5486 H   0  0  0  0  0  0  0  0  0  0  0  0
   -0.1502   23.9254  -29.6519 H   0  0  0  0  0  0  0  0  0  0  0  0
   -0.4782   26.8169  -27.7272 H   0  0  0  0  0  0  0  0  0  0  0  0
   -0.9173   25.9182  -29.2340 H   0  0  0  0  0  0  0  0  0  0  0  0
   -1.8531   25.3361  -26.3807 H   0  0  0  0  0  0  0  0  0  0  0  0
   -2.8455   25.8955  -27.7787 H   0  0  0  0  0  0  0  0  0  0  0  0
   -3.1010   25.0220  -30.6490 H   0  0  0  0  0  0  0  0  0  0  0  0
   -7.9682   24.5622  -31.1156 H   0  0  0  0  0  0  0  0  0  0  0  0
   -9.3913   22.2448  -32.0393 H   0  0  0  0  0  0  0  0  0  0  0  0
   -9.0861   19.8208  -32.6348 H   0  0  0  0  0  0  0  0  0  0  0  0
   -4.8646   20.0916  -31.5751 H   0  0  0  0  0  0  0  0  0  0  0  0
  1  2  1  0
  2  3  1  0
  3  4  1  0
  4  5  2  0
  4  6  1  0
  6  7  1  0
  7  8  1  0
  8  9  1  0
  9 10  1  0
 10 11  1  0
  2 12  1  0
 12 13  2  0
 12 14  1  0
 14 15  1  0
 15 16  1  0
 16 17  1  0
 16 18  2  0
 15 19  2  0
 19 20  1  0
 20 21  2  0
 21 22  1  0
 22 23  2  0
 23 24  1  0
 24 25  1  0
 24 26  1  0
 24 27  1  0
 23 28  1  0
 28 29  2  0
 11  6  1  0
 29 14  1  0
 29 20  1  0
  1 30  1  0
  1 31  1  0
  1 32  1  0
  3 33  1  0
  3 34  1  0
  7 35  1  0
  7 36  1  0
  8 37  1  0
  8 38  1  0
 10 39  1  0
 10 40  1  0
 11 41  1  0
 11 42  1  0
 17 43  1  0
 19 44  1  0
 21 45  1  0
 22 46  1  0
 28 47  1  0
M  CHG  1  17  -1
M  END
>  <UniqueID>  (74) 
74

>  <SMILES>  (74) 
CN(CC(=O)N1CCOCC1)C(=O)n1c(C([NH-])=O)cc2ccc(C(F)(F)F)cc21

>  <Energy>  (74) 
91.90130376248946

>  <Genealogy>  (74) 
CN(CC(=O)N1CCOCC1)C(=O)n1c(C([NH-])=O)cc2ccc(C(F)(F)F)cc21 (protonated)
CN(CC(=O)N1CCOCC1)C(=O)n1c(C([NH-])=O)cc2ccc(C(F)(F)F)cc21 (3D coordinates assigned)
CN(CC(=O)N1CCOCC1)C(=O)n1c(C([NH-])=O)cc2ccc(C(F)(F)F)cc21 (nonaromatic ring conformer: 91.90130376248946 kcal/mol)

>  <smiles>  (74) 
CN(CC(=O)N1CCOCC1)C(=O)n1c(C(N)=O)cc2ccc(C(F)(F)F)cc21

>  <score_type>  (74) 
oracle

>  <origin>  (74) 
adg

>  <m_score__min__energy>  (74) 
-10.82

>  <m_primary>  (74) 
energy

$$$$
75:0
     RDKit          3D

 36 37  0  0  0  0  0  0  0  0999 V2000
   -3.8460   25.3110  -30.2900 N   0  0  0  0  0  0  0  0  0  0  0  0
   -5.0700   24.6080  -30.0960 C   0  0  0  0  0  0  0  0  0  0  0  0
   -5.9720   25.1260  -29.3850 O   0  0  0  0  0  0  0  0  0  0  0  0
   -5.3130   23.3080  -30.7550 C   0  0  0  0  0  0  0  0  0  0  0  0
   -6.3100   23.1030  -31.7070 C   0  0  0  0  0  0  0  0  0  0  0  0
   -6.1540   21.8000  -32.1240 C   0  0  0  0  0  0  0  0  0  0  0  0
   -6.8760   21.0640  -33.0590 C   0  0  0  0  0  0  0  0  0  0  0  0
   -6.4990   19.7280  -33.2780 C   0  0  0  0  0  0  0  0  0  0  0  0
   -5.4190   19.1540  -32.5620 C   0  0  0  0  0  0  0  0  0  0  0  0
   -5.0420   17.7200  -32.7990 C   0  0  0  0  0  0  0  0  0  0  0  0
   -5.6090   16.9200  -31.8230 F   0  0  0  0  0  0  0  0  0  0  0  0
   -3.6660   17.5880  -32.7550 F   0  0  0  0  0  0  0  0  0  0  0  0
   -4.7100   19.9330  -31.6210 C   0  0  0  0  0  0  0  0  0  0  0  0
   -5.1010   21.2620  -31.4310 C   0  0  0  0  0  0  0  0  0  0  0  0
   -4.5870   22.1690  -30.5740 N   0  0  0  0  0  0  0  0  0  0  0  0
   -3.4970   21.9440  -29.6630 C   0  0  0  0  0  0  0  0  0  0  0  0
   -3.4250   20.8460  -29.0510 O   0  0  0  0  0  0  0  0  0  0  0  0
   -2.4230   22.9380  -29.4560 C   0  0  0  0  0  0  0  0  0  0  0  0
   -2.2950   23.7500  -28.3860 C   0  0  0  0  0  0  0  0  0  0  0  0
   -1.1420   24.7270  -28.3670 C   0  0  0  0  0  0  0  0  0  0  0  0
   -1.5080   25.9270  -28.9930 O   0  0  0  0  0  0  0  0  0  0  0  0
   -3.2100   23.6820  -27.1860 C   0  0  0  0  0  0  0  0  0  0  0  0
   -4.2910   24.5570  -27.3620 O   0  0  0  0  0  0  0  0  0  0  0  0
   -3.3160   25.7020  -29.4800 H   0  0  0  0  0  0  0  0  0  0  0  0
   -7.0618   23.8281  -32.0520 H   0  0  0  0  0  0  0  0  0  0  0  0
   -7.7154   21.5140  -33.6093 H   0  0  0  0  0  0  0  0  0  0  0  0
   -7.0481   19.1212  -34.0131 H   0  0  0  0  0  0  0  0  0  0  0  0
   -5.4109   17.4093  -33.7876 H   0  0  0  0  0  0  0  0  0  0  0  0
   -3.8715   19.5050  -31.0520 H   0  0  0  0  0  0  0  0  0  0  0  0
   -1.6604   23.0234  -30.2441 H   0  0  0  0  0  0  0  0  0  0  0  0
   -0.8592   24.9337  -27.3243 H   0  0  0  0  0  0  0  0  0  0  0  0
   -0.2921   24.2866  -28.9089 H   0  0  0  0  0  0  0  0  0  0  0  0
   -2.0270   25.6760  -29.8030 H   0  0  0  0  0  0  0  0  0  0  0  0
   -3.5866   22.6548  -27.0719 H   0  0  0  0  0  0  0  0  0  0  0  0
   -2.6498   23.9739  -26.2855 H   0  0  0  0  0  0  0  0  0  0  0  0
   -4.0920   25.0810  -28.1810 H   0  0  0  0  0  0  0  0  0  0  0  0
  1  2  1  0
  2  3  2  0
  2  4  1  0
  4  5  2  0
  5  6  1  0
  6  7  2  0
  7  8  1  0
  8  9  2  0
  9 10  1  0
 10 11  1  0
 10 12  1  0
  9 13  1  0
 13 14  2  0
 14 15  1  0
 15 16  1  0
 16 17  2  0
 16 18  1  0
 18 19  2  3
 19 20  1  0
 20 21  1  0
 19 22  1  0
 22 23  1  0
 15  4  1  0
 14  6  1  0
  1 24  1  0
  5 25  1  0
  7 26  1  0
  8 27  1  0
 10 28  1  0
 13 29  1  0
 18 30  1  0
 20 31  1  0
 20 32  1  0
 21 33  1  0
 22 34  1  0
 22 35  1  0
 23 36  1  0
M  CHG  1   1  -1
M  END
>  <UniqueID>  (75) 
75

>  <SMILES>  (75) 
[NH-]C(=O)c1cc2ccc(C(F)F)cc2n1C(=O)C=C(CO)CO

>  <Energy>  (75) 
75.92993459812043

>  <Genealogy>  (75) 
[NH-]C(=O)c1cc2ccc(C(F)F)cc2n1C(=O)C=C(CO)CO (protonated)
[NH-]C(=O)c1cc2ccc(C(F)F)cc2n1C(=O)C=C(CO)CO (3D coordinates assigned)
[NH-]C(=O)c1cc2ccc(C(F)F)cc2n1C(=O)C=C(CO)CO (optimized conformer: 75.92993459812043 kcal/mol)

>  <smiles>  (75) 
NC(=O)c1cc2ccc(C(F)F)cc2n1C(=O)C=C(CO)CO

>  <score_type>  (75) 
oracle

>  <origin>  (75) 
adg

>  <m_score__min__energy>  (75) 
-9.4199999999999999

>  <m_primary>  (75) 
energy

$$$$
76:0
     RDKit          3D

 44 46  0  0  0  0  0  0  0  0999 V2000
   -0.1170   26.8370  -23.0260 C   0  0  0  0  0  0  0  0  0  0  0  0
   -1.1950   26.8250  -23.9550 O   0  0  0  0  0  0  0  0  0  0  0  0
   -1.3490   25.8230  -24.9180 C   0  0  0  0  0  0  0  0  0  0  0  0
   -2.1930   26.0440  -26.0080 C   0  0  0  0  0  0  0  0  0  0  0  0
   -2.3680   25.0360  -26.9580 C   0  0  0  0  0  0  0  0  0  0  0  0
   -1.6940   23.8110  -26.8200 C   0  0  0  0  0  0  0  0  0  0  0  0
   -1.9000   22.6960  -27.7710 C   0  0  0  0  0  0  0  0  0  0  0  0
   -1.6640   21.5150  -27.3970 O   0  0  0  0  0  0  0  0  0  0  0  0
   -2.4460   22.9270  -29.0820 N   0  0  0  0  0  0  0  0  0  0  0  0
   -3.2400   21.9090  -29.7680 C   0  0  0  0  0  0  0  0  0  0  0  0
   -3.9120   22.5050  -30.9730 C   0  0  0  0  0  0  0  0  0  0  0  0
   -3.2580   22.6870  -32.0330 O   0  0  0  0  0  0  0  0  0  0  0  0
   -5.3000   22.8600  -30.9260 N   0  0  0  0  0  0  0  0  0  0  0  0
   -5.8330   24.1010  -30.7600 C   0  0  0  0  0  0  0  0  0  0  0  0
   -5.0710   25.3240  -30.4400 C   0  0  0  0  0  0  0  0  0  0  0  0
   -3.6450   25.2970  -30.4460 N   0  0  0  0  0  0  0  0  0  0  0  0
   -5.6680   26.4000  -30.1700 O   0  0  0  0  0  0  0  0  0  0  0  0
   -7.2130   24.0670  -30.9560 C   0  0  0  0  0  0  0  0  0  0  0  0
   -7.5060   22.7550  -31.2600 C   0  0  0  0  0  0  0  0  0  0  0  0
   -8.7120   22.1650  -31.6230 C   0  0  0  0  0  0  0  0  0  0  0  0
   -8.7040   20.8000  -31.9560 C   0  0  0  0  0  0  0  0  0  0  0  0
   -7.5020   20.0460  -31.9050 C   0  0  0  0  0  0  0  0  0  0  0  0
   -7.4920   18.5920  -32.3030 C   0  0  0  0  0  0  0  0  0  0  0  0
   -8.7900   18.1170  -32.3290 F   0  0  0  0  0  0  0  0  0  0  0  0
   -6.7550   17.8390  -31.4050 F   0  0  0  0  0  0  0  0  0  0  0  0
   -6.9310   18.4390  -33.5590 F   0  0  0  0  0  0  0  0  0  0  0  0
   -6.2910   20.6900  -31.5590 C   0  0  0  0  0  0  0  0  0  0  0  0
   -6.3330   22.0490  -31.2300 C   0  0  0  0  0  0  0  0  0  0  0  0
   -0.8350   23.6450  -25.7220 C   0  0  0  0  0  0  0  0  0  0  0  0
   -0.6910   24.6370  -24.8040 N   0  0  0  0  0  0  0  0  0  0  0  0
   -0.5162   26.8326  -22.0010 H   0  0  0  0  0  0  0  0  0  0  0  0
    0.5092   25.9458  -23.1795 H   0  0  0  0  0  0  0  0  0  0  0  0
    0.4892   27.7419  -23.1795 H   0  0  0  0  0  0  0  0  0  0  0  0
   -2.7163   27.0053  -26.1175 H   0  0  0  0  0  0  0  0  0  0  0  0
   -3.0353   25.2013  -27.8167 H   0  0  0  0  0  0  0  0  0  0  0  0
   -2.5410   23.9030  -29.4360 H   0  0  0  0  0  0  0  0  0  0  0  0
   -2.5815   21.0878  -30.0874 H   0  0  0  0  0  0  0  0  0  0  0  0
   -4.0078   21.5262  -29.0795 H   0  0  0  0  0  0  0  0  0  0  0  0
   -3.1230   24.6980  -31.1230 H   0  0  0  0  0  0  0  0  0  0  0  0
   -7.9179   24.9083  -30.8834 H   0  0  0  0  0  0  0  0  0  0  0  0
   -9.6437   22.7492  -31.6486 H   0  0  0  0  0  0  0  0  0  0  0  0
   -9.6405   20.3095  -32.2599 H   0  0  0  0  0  0  0  0  0  0  0  0
   -5.3406   20.1363  -31.5489 H   0  0  0  0  0  0  0  0  0  0  0  0
   -0.2747   22.7058  -25.6038 H   0  0  0  0  0  0  0  0  0  0  0  0
  1  2  1  0
  2  3  1  0
  3  4  2  0
  4  5  1  0
  5  6  2  0
  6  7  1  0
  7  8  2  0
  7  9  1  0
  9 10  1  0
 10 11  1  0
 11 12  2  0
 11 13  1  0
 13 14  1  0
 14 15  1  0
 15 16  1  0
 15 17  2  0
 14 18  2  0
 18 19  1  0
 19 20  2  0
 20 21  1  0
 21 22  2  0
 22 23  1  0
 23 24  1  0
 23 25  1  0
 23 26  1  0
 22 27  1  0
 27 28  2  0
  6 29  1  0
 29 30  2  0
 30  3  1  0
 28 13  1  0
 28 19  1  0
  1 31  1  0
  1 32  1  0
  1 33  1  0
  4 34  1  0
  5 35  1  0
  9 36  1  0
 10 37  1  0
 10 38  1  0
 16 39  1  0
 18 40  1  0
 20 41  1  0
 21 42  1  0
 27 43  1  0
 29 44  1  0
M  CHG  1  16  -1
M  END
>  <UniqueID>  (76) 
76

>  <SMILES>  (76) 
COc1ccc(C(=O)NCC(=O)n2c(C([NH-])=O)cc3ccc(C(F)(F)F)cc32)cn1

>  <Energy>  (76) 
82.17306907543865

>  <Genealogy>  (76) 
COc1ccc(C(=O)NCC(=O)n2c(C([NH-])=O)cc3ccc(C(F)(F)F)cc32)cn1 (protonated)
COc1ccc(C(=O)NCC(=O)n2c(C([NH-])=O)cc3ccc(C(F)(F)F)cc32)cn1 (3D coordinates assigned)
COc1ccc(C(=O)NCC(=O)n2c(C([NH-])=O)cc3ccc(C(F)(F)F)cc32)cn1 (optimized conformer: 82.17306907543865 kcal/mol)

>  <smiles>  (76) 
COc1ccc(C(=O)NCC(=O)n2c(C(N)=O)cc3ccc(C(F)(F)F)cc32)cn1

>  <score_type>  (76) 
oracle

>  <origin>  (76) 
adg

>  <m_score__min__energy>  (76) 
-10.890000000000001

>  <m_primary>  (76) 
energy

$$$$
77:0
     RDKit          3D

 45 46  0  0  0  0  0  0  0  0999 V2000
   -1.3410   21.3130  -27.3670 C   0  0  0  0  0  0  0  0  0  0  0  0
   -1.2760   22.6800  -27.8920 N   0  0  0  0  0  0  0  0  0  0  0  0
   -1.8830   23.7750  -27.1200 C   0  0  0  0  0  0  0  0  0  0  0  0
   -2.8920   24.5550  -27.9670 C   0  0  0  0  0  0  0  0  0  0  0  0
   -2.2340   25.3100  -28.9480 O   0  0  0  0  0  0  0  0  0  0  0  0
   -0.6260   22.9640  -29.1530 C   0  0  0  0  0  0  0  0  0  0  0  0
   -0.1060   24.0980  -29.3410 O   0  0  0  0  0  0  0  0  0  0  0  0
   -0.5010   21.9200  -30.2410 C   0  0  0  0  0  0  0  0  0  0  0  0
   -1.6060   22.0400  -31.2930 C   0  0  0  0  0  0  0  0  0  0  0  0
   -2.6630   22.9200  -30.8070 N   0  0  0  0  0  0  0  0  0  0  0  0
   -3.8590   22.4390  -30.1900 C   0  0  0  0  0  0  0  0  0  0  0  0
   -3.7950   21.7420  -29.1420 O   0  0  0  0  0  0  0  0  0  0  0  0
   -5.1320   22.7290  -30.7850 N   0  0  0  0  0  0  0  0  0  0  0  0
   -5.7670   23.9330  -30.8610 C   0  0  0  0  0  0  0  0  0  0  0  0
   -5.2050   25.2410  -30.4600 C   0  0  0  0  0  0  0  0  0  0  0  0
   -3.8900   25.6260  -30.8520 N   0  0  0  0  0  0  0  0  0  0  0  0
   -5.9120   26.0470  -29.8000 O   0  0  0  0  0  0  0  0  0  0  0  0
   -7.0210   23.7860  -31.4530 C   0  0  0  0  0  0  0  0  0  0  0  0
   -7.1330   22.4470  -31.7440 C   0  0  0  0  0  0  0  0  0  0  0  0
   -8.1780   21.7430  -32.3350 C   0  0  0  0  0  0  0  0  0  0  0  0
   -8.0340   20.3530  -32.4850 C   0  0  0  0  0  0  0  0  0  0  0  0
   -6.8660   19.6940  -32.0300 C   0  0  0  0  0  0  0  0  0  0  0  0
   -6.7240   18.2100  -32.2060 C   0  0  0  0  0  0  0  0  0  0  0  0
   -6.0790   17.9460  -33.4000 F   0  0  0  0  0  0  0  0  0  0  0  0
   -7.9720   17.6100  -32.2190 F   0  0  0  0  0  0  0  0  0  0  0  0
   -5.8180   20.4450  -31.4490 C   0  0  0  0  0  0  0  0  0  0  0  0
   -5.9810   21.8300  -31.3300 C   0  0  0  0  0  0  0  0  0  0  0  0
   -1.3396   21.3421  -26.2674 H   0  0  0  0  0  0  0  0  0  0  0  0
   -2.2632   20.8282  -27.7198 H   0  0  0  0  0  0  0  0  0  0  0  0
   -0.4689   20.7429  -27.7198 H   0  0  0  0  0  0  0  0  0  0  0  0
   -2.3988   23.3540  -26.2444 H   0  0  0  0  0  0  0  0  0  0  0  0
   -1.0853   24.4639  -26.8054 H   0  0  0  0  0  0  0  0  0  0  0  0
   -3.5778   23.8470  -28.4553 H   0  0  0  0  0  0  0  0  0  0  0  0
   -3.4527   25.2374  -27.3113 H   0  0  0  0  0  0  0  0  0  0  0  0
   -2.1600   24.7330  -29.7510 H   0  0  0  0  0  0  0  0  0  0  0  0
    0.4735   22.0410  -30.7366 H   0  0  0  0  0  0  0  0  0  0  0  0
   -0.5926   20.9306  -29.7691 H   0  0  0  0  0  0  0  0  0  0  0  0
   -1.1833   22.4554  -32.2197 H   0  0  0  0  0  0  0  0  0  0  0  0
   -2.0275   21.0432  -31.4897 H   0  0  0  0  0  0  0  0  0  0  0  0
   -3.0610   25.0480  -30.5920 H   0  0  0  0  0  0  0  0  0  0  0  0
   -7.7633   24.5744  -31.6462 H   0  0  0  0  0  0  0  0  0  0  0  0
   -9.0886   22.2586  -32.6742 H   0  0  0  0  0  0  0  0  0  0  0  0
   -8.8370   19.7709  -32.9608 H   0  0  0  0  0  0  0  0  0  0  0  0
   -6.1371   17.8060  -31.3679 H   0  0  0  0  0  0  0  0  0  0  0  0
   -4.8982   19.9532  -31.0995 H   0  0  0  0  0  0  0  0  0  0  0  0
  1  2  1  0
  2  3  1  0
  3  4  1  0
  4  5  1  0
  2  6  1  0
  6  7  2  0
  6  8  1  0
  8  9  1  0
  9 10  1  0
 10 11  1  0
 11 12  2  0
 11 13  1  0
 13 14  1  0
 14 15  1  0
 15 16  1  0
 15 17  2  0
 14 18  2  0
 18 19  1  0
 19 20  2  0
 20 21  1  0
 21 22  2  0
 22 23  1  0
 23 24  1  0
 23 25  1  0
 22 26  1  0
 26 27  2  0
 27 13  1  0
 27 19  1  0
  1 28  1  0
  1 29  1  0
  1 30  1  0
  3 31  1  0
  3 32  1  0
  4 33  1  0
  4 34  1  0
  5 35  1  0
  8 36  1  0
  8 37  1  0
  9 38  1  0
  9 39  1  0
 16 40  1  0
 18 41  1  0
 20 42  1  0
 21 43  1  0
 23 44  1  0
 26 45  1  0
M  CHG  2  10  -1  16  -1
M  END
>  <UniqueID>  (77) 
77

>  <SMILES>  (77) 
CN(CCO)C(=O)CC[N-]C(=O)n1c(C([NH-])=O)cc2ccc(C(F)F)cc21

>  <Energy>  (77) 
74.97771527683908

>  <Genealogy>  (77) 
CN(CCO)C(=O)CC[N-]C(=O)n1c(C([NH-])=O)cc2ccc(C(F)F)cc21 (protonated)
CN(CCO)C(=O)CC[N-]C(=O)n1c(C([NH-])=O)cc2ccc(C(F)F)cc21 (3D coordinates assigned)
CN(CCO)C(=O)CC[N-]C(=O)n1c(C([NH-])=O)cc2ccc(C(F)F)cc21 (optimized conformer: 74.97771527683908 kcal/mol)

>  <smiles>  (77) 
CN(CCO)C(=O)CCNC(=O)n1c(C(N)=O)cc2ccc(C(F)F)cc21

>  <score_type>  (77) 
oracle

>  <origin>  (77) 
adg

>  <m_score__min__energy>  (77) 
-10.25

>  <m_primary>  (77) 
energy

$$$$
78:0
     RDKit          3D

 44 45  0  0  0  0  0  0  0  0999 V2000
    0.0180   22.2970  -27.4920 C   0  0  0  0  0  0  0  0  0  0  0  0
    0.7420   23.6230  -27.2960 C   0  0  0  0  0  0  0  0  0  0  0  0
    0.2510   24.6010  -28.2090 O   0  0  0  0  0  0  0  0  0  0  0  0
   -0.9460   25.3050  -28.0220 C   0  0  0  0  0  0  0  0  0  0  0  0
   -1.4280   26.0190  -28.9430 O   0  0  0  0  0  0  0  0  0  0  0  0
   -1.6300   25.2390  -26.6910 C   0  0  0  0  0  0  0  0  0  0  0  0
   -3.1220   24.8840  -26.8210 C   0  0  0  0  0  0  0  0  0  0  0  0
   -3.3890   23.6200  -27.6500 C   0  0  0  0  0  0  0  0  0  0  0  0
   -4.3970   23.8790  -28.6700 N   0  0  0  0  0  0  0  0  0  0  0  0
   -4.0840   23.9780  -30.0600 C   0  0  0  0  0  0  0  0  0  0  0  0
   -3.8300   25.1010  -30.5750 O   0  0  0  0  0  0  0  0  0  0  0  0
   -4.1010   22.8000  -30.8790 N   0  0  0  0  0  0  0  0  0  0  0  0
   -3.0510   21.9870  -31.1830 C   0  0  0  0  0  0  0  0  0  0  0  0
   -1.6300   22.2600  -30.8820 C   0  0  0  0  0  0  0  0  0  0  0  0
   -1.2370   23.4260  -30.1590 N   0  0  0  0  0  0  0  0  0  0  0  0
   -0.7450   21.4730  -31.3130 O   0  0  0  0  0  0  0  0  0  0  0  0
   -3.4910   20.8460  -31.8510 C   0  0  0  0  0  0  0  0  0  0  0  0
   -4.8560   20.9870  -31.9510 C   0  0  0  0  0  0  0  0  0  0  0  0
   -5.8060   20.1330  -32.5020 C   0  0  0  0  0  0  0  0  0  0  0  0
   -7.1570   20.5080  -32.4170 C   0  0  0  0  0  0  0  0  0  0  0  0
   -7.5380   21.7080  -31.7610 C   0  0  0  0  0  0  0  0  0  0  0  0
   -8.9870   22.1170  -31.6950 C   0  0  0  0  0  0  0  0  0  0  0  0
   -9.1420   23.4440  -32.0580 F   0  0  0  0  0  0  0  0  0  0  0  0
   -9.7490   21.3420  -32.5540 F   0  0  0  0  0  0  0  0  0  0  0  0
   -9.4490   21.9460  -30.4030 F   0  0  0  0  0  0  0  0  0  0  0  0
   -6.5400   22.5610  -31.2380 C   0  0  0  0  0  0  0  0  0  0  0  0
   -5.2000   22.1730  -31.3550 C   0  0  0  0  0  0  0  0  0  0  0  0
   -0.2202   21.8607  -26.5107 H   0  0  0  0  0  0  0  0  0  0  0  0
   -0.9126   22.4668  -28.0534 H   0  0  0  0  0  0  0  0  0  0  0  0
    0.6640   21.6060  -28.0534 H   0  0  0  0  0  0  0  0  0  0  0  0
    0.5795   23.9752  -26.2667 H   0  0  0  0  0  0  0  0  0  0  0  0
    1.8158   23.4721  -27.4808 H   0  0  0  0  0  0  0  0  0  0  0  0
   -1.1357   24.4723  -26.0763 H   0  0  0  0  0  0  0  0  0  0  0  0
   -1.5587   26.2329  -26.2251 H   0  0  0  0  0  0  0  0  0  0  0  0
   -3.5307   24.7293  -25.8115 H   0  0  0  0  0  0  0  0  0  0  0  0
   -3.6052   25.7201  -27.3477 H   0  0  0  0  0  0  0  0  0  0  0  0
   -2.4550   23.3031  -28.1370 H   0  0  0  0  0  0  0  0  0  0  0  0
   -3.7569   22.8282  -26.9809 H   0  0  0  0  0  0  0  0  0  0  0  0
   -0.2330   23.5740  -29.9100 H   0  0  0  0  0  0  0  0  0  0  0  0
   -1.9210   24.1830  -29.9390 H   0  0  0  0  0  0  0  0  0  0  0  0
   -2.8777   20.0106  -32.2198 H   0  0  0  0  0  0  0  0  0  0  0  0
   -5.5083   19.1929  -32.9893 H   0  0  0  0  0  0  0  0  0  0  0  0
   -7.9289   19.8643  -32.8640 H   0  0  0  0  0  0  0  0  0  0  0  0
   -6.8101   23.5090  -30.7497 H   0  0  0  0  0  0  0  0  0  0  0  0
  1  2  1  0
  2  3  1  0
  3  4  1  0
  4  5  2  0
  4  6  1  0
  6  7  1  0
  7  8  1  0
  8  9  1  0
  9 10  1  0
 10 11  2  0
 10 12  1  0
 12 13  1  0
 13 14  1  0
 14 15  1  0
 14 16  2  0
 13 17  2  0
 17 18  1  0
 18 19  2  0
 19 20  1  0
 20 21  2  0
 21 22  1  0
 22 23  1  0
 22 24  1  0
 22 25  1  0
 21 26  1  0
 26 27  2  0
 27 12  1  0
 27 18  1  0
  1 28  1  0
  1 29  1  0
  1 30  1  0
  2 31  1  0
  2 32  1  0
  6 33  1  0
  6 34  1  0
  7 35  1  0
  7 36  1  0
  8 37  1  0
  8 38  1  0
 15 39  1  0
 15 40  1  0
 17 41  1  0
 19 42  1  0
 20 43  1  0
 26 44  1  0
M  CHG  1   9  -1
M  END
>  <UniqueID>  (78) 
78

>  <SMILES>  (78) 
CCOC(=O)CCC[N-]C(=O)n1c(C(N)=O)cc2ccc(C(F)(F)F)cc21

>  <Energy>  (78) 
71.4463835393156

>  <Genealogy>  (78) 
CCOC(=O)CCC[N-]C(=O)n1c(C(N)=O)cc2ccc(C(F)(F)F)cc21 (protonated)
CCOC(=O)CCC[N-]C(=O)n1c(C(N)=O)cc2ccc(C(F)(F)F)cc21 (3D coordinates assigned)
CCOC(=O)CCC[N-]C(=O)n1c(C(N)=O)cc2ccc(C(F)(F)F)cc21 (optimized conformer: 71.4463835393156 kcal/mol)

>  <smiles>  (78) 
CCOC(=O)CCCNC(=O)n1c(C(N)=O)cc2ccc(C(F)(F)F)cc21

>  <score_type>  (78) 
oracle

>  <origin>  (78) 
adg

>  <m_score__min__energy>  (78) 
-8.8399999999999999

>  <m_primary>  (78) 
energy

$$$$
79:0
     RDKit          3D

 37 38  0  0  0  0  0  0  0  0999 V2000
   -4.8740   18.9000  -34.0140 C   0  0  0  0  0  0  0  0  0  0  0  0
   -4.9820   19.4090  -32.6430 N   0  0  0  0  0  0  0  0  0  0  0  0
   -6.2550   19.2920  -31.9100 C   0  0  0  0  0  0  0  0  0  0  0  0
   -7.3250   20.2730  -32.4310 C   0  0  1  0  0  0  0  0  0  0  0  0
   -7.2420   20.4190  -33.8270 O   0  0  0  0  0  0  0  0  0  0  0  0
   -8.7540   19.9000  -31.9910 C   0  0  0  0  0  0  0  0  0  0  0  0
   -9.4570   19.3210  -33.0580 O   0  0  0  0  0  0  0  0  0  0  0  0
   -3.8490   20.0850  -32.0600 C   0  0  0  0  0  0  0  0  0  0  0  0
   -2.5650   19.4850  -32.1020 C   0  0  0  0  0  0  0  0  0  0  0  0
   -1.4510   20.1300  -31.5400 C   0  0  0  0  0  0  0  0  0  0  0  0
   -1.6490   21.3700  -30.9410 C   0  0  0  0  0  0  0  0  0  0  0  0
   -0.7440   22.2200  -30.3490 C   0  0  0  0  0  0  0  0  0  0  0  0
   -1.4880   23.3230  -29.9380 C   0  0  0  0  0  0  0  0  0  0  0  0
   -0.9130   24.4490  -29.1710 C   0  0  0  0  0  0  0  0  0  0  0  0
   -1.6400   25.6610  -28.9900 N   0  0  0  0  0  0  0  0  0  0  0  0
    0.2170   24.3200  -28.6270 O   0  0  0  0  0  0  0  0  0  0  0  0
   -2.8010   23.1660  -30.2710 N   0  0  0  0  0  0  0  0  0  0  0  0
   -3.8740   24.1050  -30.0970 C   0  0  0  0  0  0  0  0  0  0  0  0
   -4.8190   23.8530  -29.3050 O   0  0  0  0  0  0  0  0  0  0  0  0
   -3.8650   25.3140  -30.7840 O   0  0  0  0  0  0  0  0  0  0  0  0
   -2.8830   21.9630  -30.8810 C   0  0  0  0  0  0  0  0  0  0  0  0
   -4.0060   21.3520  -31.4510 C   0  0  0  0  0  0  0  0  0  0  0  0
   -4.6457   17.8242  -33.9888 H   0  0  0  0  0  0  0  0  0  0  0  0
   -5.8262   19.0606  -34.5408 H   0  0  0  0  0  0  0  0  0  0  0  0
   -4.0690   19.4334  -34.5408 H   0  0  0  0  0  0  0  0  0  0  0  0
   -6.6333   18.2650  -32.0206 H   0  0  0  0  0  0  0  0  0  0  0  0
   -6.0592   19.5377  -30.8558 H   0  0  0  0  0  0  0  0  0  0  0  0
   -7.1057   21.2458  -31.9667 H   0  0  0  0  0  0  0  0  0  0  0  0
   -7.6850   19.6340  -34.2420 H   0  0  0  0  0  0  0  0  0  0  0  0
   -8.7017   19.1823  -31.1590 H   0  0  0  0  0  0  0  0  0  0  0  0
   -9.2788   20.8119  -31.6700 H   0  0  0  0  0  0  0  0  0  0  0  0
   -9.1160   19.7460  -33.8880 H   0  0  0  0  0  0  0  0  0  0  0  0
   -2.4398   18.5025  -32.5805 H   0  0  0  0  0  0  0  0  0  0  0  0
   -0.4528   19.6689  -31.5725 H   0  0  0  0  0  0  0  0  0  0  0  0
    0.3377   22.0620  -30.2263 H   0  0  0  0  0  0  0  0  0  0  0  0
   -2.6740   25.6930  -29.1280 H   0  0  0  0  0  0  0  0  0  0  0  0
   -4.9885   21.8460  -31.4259 H   0  0  0  0  0  0  0  0  0  0  0  0
  1  2  1  0
  2  3  1  0
  3  4  1  0
  4  5  1  0
  4  6  1  0
  6  7  1  0
  2  8  1  0
  8  9  2  0
  9 10  1  0
 10 11  2  0
 11 12  1  0
 12 13  2  0
 13 14  1  0
 14 15  1  0
 14 16  2  0
 13 17  1  0
 17 18  1  0
 18 19  2  0
 18 20  1  0
 17 21  1  0
 21 22  2  0
 22  8  1  0
 21 11  1  0
  1 23  1  0
  1 24  1  0
  1 25  1  0
  3 26  1  0
  3 27  1  0
  4 28  1  1
  5 29  1  0
  6 30  1  0
  6 31  1  0
  7 32  1  0
  9 33  1  0
 10 34  1  0
 12 35  1  0
 15 36  1  0
 22 37  1  0
M  CHG  2  15  -1  20  -1
M  END
>  <UniqueID>  (79) 
79

>  <SMILES>  (79) 
CN(C[C@@H](O)CO)c1ccc2cc(C([NH-])=O)n(C(=O)[O-])c2c1

>  <Energy>  (79) 
77.85282019456474

>  <Genealogy>  (79) 
CN(CC(O)CO)c1ccc2cc(C([NH-])=O)n(C(=O)[O-])c2c1 (protonated)
CN(C[C@@H](O)CO)c1ccc2cc(C([NH-])=O)n(C(=O)[O-])c2c1 (chirality)
CN(C[C@@H](O)CO)c1ccc2cc(C([NH-])=O)n(C(=O)[O-])c2c1 (3D coordinates assigned)
CN(C[C@@H](O)CO)c1ccc2cc(C([NH-])=O)n(C(=O)[O-])c2c1 (optimized conformer: 77.85282019456474 kcal/mol)

>  <smiles>  (79) 
CN(CC(O)CO)c1ccc2cc(C(N)=O)n(C(=O)O)c2c1

>  <score_type>  (79) 
oracle

>  <origin>  (79) 
adg

>  <m_score__min__energy>  (79) 
-10.48

>  <m_primary>  (79) 
energy

$$$$
80:0
     RDKit          3D

 36 37  0  0  0  0  0  0  0  0999 V2000
   -1.5500   25.9790  -28.9430 N   0  0  0  0  0  0  0  0  0  0  0  0
   -0.8900   24.7160  -28.9590 C   0  0  0  0  0  0  0  0  0  0  0  0
    0.2200   24.5920  -28.3770 O   0  0  0  0  0  0  0  0  0  0  0  0
   -1.4620   23.5690  -29.6970 C   0  0  0  0  0  0  0  0  0  0  0  0
   -0.7240   22.4380  -30.0410 C   0  0  0  0  0  0  0  0  0  0  0  0
   -1.5760   21.6620  -30.7920 C   0  0  0  0  0  0  0  0  0  0  0  0
   -1.3640   20.4250  -31.3920 C   0  0  0  0  0  0  0  0  0  0  0  0
   -2.4300   19.8440  -32.0980 C   0  0  0  0  0  0  0  0  0  0  0  0
   -3.6830   20.5000  -32.1800 C   0  0  0  0  0  0  0  0  0  0  0  0
   -4.8090   19.8880  -32.9750 C   0  0  0  0  0  0  0  0  0  0  0  0
   -6.0660   19.6780  -32.1170 C   0  0  0  0  0  0  0  0  0  0  0  0
   -7.0210   20.8420  -32.2100 C   0  0  0  0  0  0  0  0  0  0  0  0
   -7.8690   20.8560  -33.0910 O   0  0  0  0  0  0  0  0  0  0  0  0
   -6.9700   21.9740  -31.2150 C   0  0  0  0  0  0  0  0  0  0  0  0
   -7.1270   23.3330  -31.8980 C   0  0  0  0  0  0  0  0  0  0  0  0
   -5.8820   23.9670  -32.0130 O   0  0  0  0  0  0  0  0  0  0  0  0
   -3.8630   21.7550  -31.5570 C   0  0  0  0  0  0  0  0  0  0  0  0
   -2.7770   22.3190  -30.8780 C   0  0  0  0  0  0  0  0  0  0  0  0
   -2.7230   23.4930  -30.2080 N   0  0  0  0  0  0  0  0  0  0  0  0
   -3.8100   24.4090  -30.0040 C   0  0  0  0  0  0  0  0  0  0  0  0
   -3.8780   25.4750  -30.6710 O   0  0  0  0  0  0  0  0  0  0  0  0
   -4.8140   24.1150  -29.0880 O   0  0  0  0  0  0  0  0  0  0  0  0
   -2.5910   26.0410  -28.9940 H   0  0  0  0  0  0  0  0  0  0  0  0
    0.3181   22.2136  -29.7697 H   0  0  0  0  0  0  0  0  0  0  0  0
   -0.3911   19.9174  -31.3158 H   0  0  0  0  0  0  0  0  0  0  0  0
   -2.2908   18.8709  -32.5917 H   0  0  0  0  0  0  0  0  0  0  0  0
   -5.0574   20.5563  -33.8127 H   0  0  0  0  0  0  0  0  0  0  0  0
   -4.4754   18.9048  -33.3385 H   0  0  0  0  0  0  0  0  0  0  0  0
   -6.5813   18.7688  -32.4603 H   0  0  0  0  0  0  0  0  0  0  0  0
   -5.7472   19.5860  -31.0682 H   0  0  0  0  0  0  0  0  0  0  0  0
   -7.7835   21.8451  -30.4859 H   0  0  0  0  0  0  0  0  0  0  0  0
   -5.9889   21.9506  -30.7181 H   0  0  0  0  0  0  0  0  0  0  0  0
   -7.5541   23.1876  -32.9012 H   0  0  0  0  0  0  0  0  0  0  0  0
   -7.7944   23.9630  -31.2916 H   0  0  0  0  0  0  0  0  0  0  0  0
   -5.6100   24.2060  -31.0890 H   0  0  0  0  0  0  0  0  0  0  0  0
   -4.8311   22.2751  -31.6043 H   0  0  0  0  0  0  0  0  0  0  0  0
  1  2  1  0
  2  3  2  0
  2  4  1  0
  4  5  2  0
  5  6  1  0
  6  7  2  0
  7  8  1  0
  8  9  2  0
  9 10  1  0
 10 11  1  0
 11 12  1  0
 12 13  2  0
 12 14  1  0
 14 15  1  0
 15 16  1  0
  9 17  1  0
 17 18  2  0
 18 19  1  0
 19 20  1  0
 20 21  2  0
 20 22  1  0
 19  4  1  0
 18  6  1  0
  1 23  1  0
  5 24  1  0
  7 25  1  0
  8 26  1  0
 10 27  1  0
 10 28  1  0
 11 29  1  0
 11 30  1  0
 14 31  1  0
 14 32  1  0
 15 33  1  0
 15 34  1  0
 16 35  1  0
 17 36  1  0
M  CHG  2   1  -1  22  -1
M  END
>  <UniqueID>  (80) 
80

>  <SMILES>  (80) 
[NH-]C(=O)c1cc2ccc(CCC(=O)CCO)cc2n1C(=O)[O-]

>  <Energy>  (80) 
66.19161530729316

>  <Genealogy>  (80) 
[NH-]C(=O)c1cc2ccc(CCC(=O)CCO)cc2n1C(=O)[O-] (protonated)
[NH-]C(=O)c1cc2ccc(CCC(=O)CCO)cc2n1C(=O)[O-] (3D coordinates assigned)
[NH-]C(=O)c1cc2ccc(CCC(=O)CCO)cc2n1C(=O)[O-] (optimized conformer: 66.19161530729316 kcal/mol)

>  <smiles>  (80) 
NC(=O)c1cc2ccc(CCC(=O)CCO)cc2n1C(=O)O

>  <score_type>  (80) 
oracle

>  <origin>  (80) 
adg

>  <m_score__min__energy>  (80) 
-11.1

>  <m_primary>  (80) 
energy

$$$$
81:0
     RDKit          3D

 36 38  0  0  0  0  0  0  0  0999 V2000
   -3.8890   25.3180  -30.7680 N   0  0  0  0  0  0  0  0  0  0  0  0
   -5.2960   25.3240  -30.5410 C   0  0  0  0  0  0  0  0  0  0  0  0
   -5.8330   26.3300  -30.0080 O   0  0  0  0  0  0  0  0  0  0  0  0
   -6.1020   24.1380  -30.8940 C   0  0  0  0  0  0  0  0  0  0  0  0
   -7.4960   24.1090  -30.8430 C   0  0  0  0  0  0  0  0  0  0  0  0
   -7.8520   22.8720  -31.3350 C   0  0  0  0  0  0  0  0  0  0  0  0
   -9.1090   22.3020  -31.5010 C   0  0  0  0  0  0  0  0  0  0  0  0
   -9.1770   20.9930  -32.0060 C   0  0  0  0  0  0  0  0  0  0  0  0
   -7.9980   20.2760  -32.3310 C   0  0  0  0  0  0  0  0  0  0  0  0
   -8.1130   18.9270  -32.8250 N   0  0  0  0  0  0  0  0  0  0  0  0
   -7.3200   17.7960  -32.3350 C   0  0  0  0  0  0  0  0  0  0  0  0
   -6.0140   17.6920  -33.0860 C   0  0  0  0  0  0  0  0  0  0  0  0
   -4.9170   18.4750  -32.6880 C   0  0  0  0  0  0  0  0  0  0  0  0
   -3.6990   18.3860  -33.3690 C   0  0  0  0  0  0  0  0  0  0  0  0
   -3.5640   17.5080  -34.4480 C   0  0  0  0  0  0  0  0  0  0  0  0
   -2.3830   17.4240  -35.1090 F   0  0  0  0  0  0  0  0  0  0  0  0
   -4.6430   16.7130  -34.8420 C   0  0  0  0  0  0  0  0  0  0  0  0
   -5.8640   16.7950  -34.1630 C   0  0  0  0  0  0  0  0  0  0  0  0
   -6.8920   16.0020  -34.5580 F   0  0  0  0  0  0  0  0  0  0  0  0
   -6.7370   20.8980  -32.1570 C   0  0  0  0  0  0  0  0  0  0  0  0
   -6.7020   22.2040  -31.6600 C   0  0  0  0  0  0  0  0  0  0  0  0
   -5.6190   22.9650  -31.3910 N   0  0  0  0  0  0  0  0  0  0  0  0
   -4.2490   22.5610  -31.5280 C   0  0  0  0  0  0  0  0  0  0  0  0
   -3.7630   22.3530  -32.6710 O   0  0  0  0  0  0  0  0  0  0  0  0
   -3.2570   22.2710  -30.1100 Cl  0  0  0  0  0  0  0  0  0  0  0  0
   -3.4390   26.0510  -31.3600 H   0  0  0  0  0  0  0  0  0  0  0  0
   -8.1675   24.9039  -30.4862 H   0  0  0  0  0  0  0  0  0  0  0  0
  -10.0223   22.8589  -31.2448 H   0  0  0  0  0  0  0  0  0  0  0  0
  -10.1584   20.5178  -32.1513 H   0  0  0  0  0  0  0  0  0  0  0  0
   -8.8330   18.7230  -33.5550 H   0  0  0  0  0  0  0  0  0  0  0  0
   -7.1102   17.9393  -31.2647 H   0  0  0  0  0  0  0  0  0  0  0  0
   -7.8920   16.8697  -32.4921 H   0  0  0  0  0  0  0  0  0  0  0  0
   -5.0172   19.1624  -31.8351 H   0  0  0  0  0  0  0  0  0  0  0  0
   -2.8470   19.0071  -33.0555 H   0  0  0  0  0  0  0  0  0  0  0  0
   -4.5325   16.0200  -35.6891 H   0  0  0  0  0  0  0  0  0  0  0  0
   -5.8074   20.3657  -32.4071 H   0  0  0  0  0  0  0  0  0  0  0  0
  1  2  1  0
  2  3  2  0
  2  4  1  0
  4  5  2  0
  5  6  1  0
  6  7  2  0
  7  8  1  0
  8  9  2  0
  9 10  1  0
 10 11  1  0
 11 12  1  0
 12 13  2  0
 13 14  1  0
 14 15  2  0
 15 16  1  0
 15 17  1  0
 17 18  2  0
 18 19  1  0
  9 20  1  0
 20 21  2  0
 21 22  1  0
 22 23  1  0
 23 24  2  0
 23 25  1  0
 22  4  1  0
 21  6  1  0
 18 12  1  0
  1 26  1  0
  5 27  1  0
  7 28  1  0
  8 29  1  0
 10 30  1  0
 11 31  1  0
 11 32  1  0
 13 33  1  0
 14 34  1  0
 17 35  1  0
 20 36  1  0
M  CHG  1   1  -1
M  END
>  <UniqueID>  (81) 
81

>  <SMILES>  (81) 
[NH-]C(=O)c1cc2ccc(NCc3ccc(F)cc3F)cc2n1C(=O)Cl

>  <Energy>  (81) 
78.33536052873504

>  <Genealogy>  (81) 
[NH-]C(=O)c1cc2ccc(NCc3ccc(F)cc3F)cc2n1C(=O)Cl (protonated)
[NH-]C(=O)c1cc2ccc(NCc3ccc(F)cc3F)cc2n1C(=O)Cl (3D coordinates assigned)
[NH-]C(=O)c1cc2ccc(NCc3ccc(F)cc3F)cc2n1C(=O)Cl (optimized conformer: 78.33536052873504 kcal/mol)

>  <smiles>  (81) 
NC(=O)c1cc2ccc(NCc3ccc(F)cc3F)cc2n1C(=O)Cl

>  <score_type>  (81) 
oracle

>  <origin>  (81) 
adg

>  <m_score__min__energy>  (81) 
-11.48

>  <m_primary>  (81) 
energy

$$$$
82:0
     RDKit          3D

 30 31  0  0  0  0  0  0  0  0999 V2000
   -3.4810   21.8640  -28.5480 C   0  0  0  0  0  0  0  0  0  0  0  0
   -3.0770   23.1510  -29.1840 C   0  0  0  0  0  0  0  0  0  0  0  0
   -2.8680   24.1610  -28.4590 O   0  0  0  0  0  0  0  0  0  0  0  0
   -2.8940   23.2000  -30.5720 O   0  0  0  0  0  0  0  0  0  0  0  0
   -3.8050   22.7190  -31.5220 C   0  0  0  0  0  0  0  0  0  0  0  0
   -3.4050   22.0930  -32.5410 O   0  0  0  0  0  0  0  0  0  0  0  0
   -5.2120   22.9210  -31.3180 N   0  0  0  0  0  0  0  0  0  0  0  0
   -5.8470   24.0600  -30.9190 C   0  0  0  0  0  0  0  0  0  0  0  0
   -5.1950   25.3010  -30.4530 C   0  0  0  0  0  0  0  0  0  0  0  0
   -3.8630   25.6240  -30.8460 N   0  0  0  0  0  0  0  0  0  0  0  0
   -5.8040   26.0650  -29.6570 O   0  0  0  0  0  0  0  0  0  0  0  0
   -7.2290   23.8780  -30.9280 C   0  0  0  0  0  0  0  0  0  0  0  0
   -7.4230   22.5800  -31.3380 C   0  0  0  0  0  0  0  0  0  0  0  0
   -8.6040   21.8720  -31.5400 C   0  0  0  0  0  0  0  0  0  0  0  0
   -8.5090   20.5480  -32.0010 C   0  0  0  0  0  0  0  0  0  0  0  0
   -7.2450   19.9590  -32.2450 C   0  0  0  0  0  0  0  0  0  0  0  0
   -7.1580   18.5620  -32.7860 C   0  0  0  0  0  0  0  0  0  0  0  0
   -8.1490   17.7850  -32.2180 F   0  0  0  0  0  0  0  0  0  0  0  0
   -6.0670   20.7120  -32.0440 C   0  0  0  0  0  0  0  0  0  0  0  0
   -6.1910   22.0220  -31.5660 C   0  0  0  0  0  0  0  0  0  0  0  0
   -3.4479   21.9696  -27.4536 H   0  0  0  0  0  0  0  0  0  0  0  0
   -4.5035   21.6056  -28.8607 H   0  0  0  0  0  0  0  0  0  0  0  0
   -2.7896   21.0676  -28.8607 H   0  0  0  0  0  0  0  0  0  0  0  0
   -3.0440   25.2970  -30.2860 H   0  0  0  0  0  0  0  0  0  0  0  0
   -8.0005   24.6161  -30.6633 H   0  0  0  0  0  0  0  0  0  0  0  0
   -9.5825   22.3350  -31.3446 H   0  0  0  0  0  0  0  0  0  0  0  0
   -9.4250   19.9640  -32.1738 H   0  0  0  0  0  0  0  0  0  0  0  0
   -7.2893   18.5830  -33.8779 H   0  0  0  0  0  0  0  0  0  0  0  0
   -6.1736   18.1356  -32.5429 H   0  0  0  0  0  0  0  0  0  0  0  0
   -5.0780   20.2804  -32.2575 H   0  0  0  0  0  0  0  0  0  0  0  0
  1  2  1  0
  2  3  2  0
  2  4  1  0
  4  5  1  0
  5  6  2  0
  5  7  1  0
  7  8  1  0
  8  9  1  0
  9 10  1  0
  9 11  2  0
  8 12  2  0
 12 13  1  0
 13 14  2  0
 14 15  1  0
 15 16  2  0
 16 17  1  0
 17 18  1  0
 16 19  1  0
 19 20  2  0
 20  7  1  0
 20 13  1  0
  1 21  1  0
  1 22  1  0
  1 23  1  0
 10 24  1  0
 12 25  1  0
 14 26  1  0
 15 27  1  0
 17 28  1  0
 17 29  1  0
 19 30  1  0
M  CHG  1  10  -1
M  END
>  <UniqueID>  (82) 
82

>  <SMILES>  (82) 
CC(=O)OC(=O)n1c(C([NH-])=O)cc2ccc(CF)cc21

>  <Energy>  (82) 
68.22061865589593

>  <Genealogy>  (82) 
CC(=O)OC(=O)n1c(C([NH-])=O)cc2ccc(CF)cc21 (protonated)
CC(=O)OC(=O)n1c(C([NH-])=O)cc2ccc(CF)cc21 (3D coordinates assigned)
CC(=O)OC(=O)n1c(C([NH-])=O)cc2ccc(CF)cc21 (optimized conformer: 68.22061865589593 kcal/mol)

>  <smiles>  (82) 
CC(=O)OC(=O)n1c(C(N)=O)cc2ccc(CF)cc21

>  <score_type>  (82) 
oracle

>  <origin>  (82) 
adg

>  <m_score__min__energy>  (82) 
-8.9900000000000002

>  <m_primary>  (82) 
energy

$$$$
83:0
     RDKit          3D

 39 40  0  0  0  0  0  0  0  0999 V2000
   -3.9250   25.6610  -30.8460 N   0  0  0  0  0  0  0  0  0  0  0  0
   -5.2530   25.1800  -30.6560 C   0  0  0  0  0  0  0  0  0  0  0  0
   -6.1200   25.9600  -30.1800 O   0  0  0  0  0  0  0  0  0  0  0  0
   -5.6320   23.7900  -31.0020 C   0  0  0  0  0  0  0  0  0  0  0  0
   -6.8890   23.4530  -31.5010 C   0  0  0  0  0  0  0  0  0  0  0  0
   -6.8450   22.0990  -31.7240 C   0  0  0  0  0  0  0  0  0  0  0  0
   -7.8120   21.2510  -32.2560 C   0  0  0  0  0  0  0  0  0  0  0  0
   -7.4790   19.8980  -32.4290 C   0  0  0  0  0  0  0  0  0  0  0  0
   -6.1910   19.4310  -32.0850 C   0  0  0  0  0  0  0  0  0  0  0  0
   -5.8520   18.0460  -32.2870 C   0  0  0  0  0  0  0  0  0  0  0  0
   -5.5680   16.8870  -32.4550 C   0  0  0  0  0  0  0  0  0  0  0  0
   -5.2220   15.4770  -32.6590 C   0  0  0  0  0  0  0  0  0  0  0  0
   -4.9060   14.8790  -31.4330 O   0  0  0  0  0  0  0  0  0  0  0  0
   -5.2310   20.3160  -31.5540 C   0  0  0  0  0  0  0  0  0  0  0  0
   -5.5990   21.6550  -31.3630 C   0  0  0  0  0  0  0  0  0  0  0  0
   -4.8470   22.6770  -30.8880 N   0  0  0  0  0  0  0  0  0  0  0  0
   -3.4730   22.6130  -30.4590 C   0  0  0  0  0  0  0  0  0  0  0  0
   -2.5660   22.9080  -31.2840 O   0  0  0  0  0  0  0  0  0  0  0  0
   -3.0630   22.0800  -29.0990 C   0  0  1  0  0  0  0  0  0  0  0  0
   -1.7170   21.6760  -29.1460 O   0  0  0  0  0  0  0  0  0  0  0  0
   -3.2990   23.0610  -27.9170 C   0  0  0  0  0  0  0  0  0  0  0  0
   -2.0540   23.8240  -27.4330 C   0  0  0  0  0  0  0  0  0  0  0  0
   -1.3950   24.6050  -28.5210 C   0  0  0  0  0  0  0  0  0  0  0  0
   -1.9360   25.6490  -28.9710 O   0  0  0  0  0  0  0  0  0  0  0  0
   -0.1620   24.1990  -29.0180 O   0  0  0  0  0  0  0  0  0  0  0  0
   -3.1030   25.0300  -30.7280 H   0  0  0  0  0  0  0  0  0  0  0  0
   -7.7379   24.1296  -31.6788 H   0  0  0  0  0  0  0  0  0  0  0  0
   -8.8071   21.6294  -32.5326 H   0  0  0  0  0  0  0  0  0  0  0  0
   -8.2247   19.1983  -32.8344 H   0  0  0  0  0  0  0  0  0  0  0  0
   -6.0780   14.9534  -33.1097 H   0  0  0  0  0  0  0  0  0  0  0  0
   -4.3508   15.4122  -33.3274 H   0  0  0  0  0  0  0  0  0  0  0  0
   -5.5380   15.2530  -30.7630 H   0  0  0  0  0  0  0  0  0  0  0  0
   -4.2206   19.9655  -31.2965 H   0  0  0  0  0  0  0  0  0  0  0  0
   -3.7218   21.2241  -28.8906 H   0  0  0  0  0  0  0  0  0  0  0  0
   -1.2200   22.3860  -29.6290 H   0  0  0  0  0  0  0  0  0  0  0  0
   -4.0481   23.8011  -28.2349 H   0  0  0  0  0  0  0  0  0  0  0  0
   -3.6225   22.4403  -27.0684 H   0  0  0  0  0  0  0  0  0  0  0  0
   -2.3556   24.5184  -26.6350 H   0  0  0  0  0  0  0  0  0  0  0  0
   -1.3283   23.0796  -27.0735 H   0  0  0  0  0  0  0  0  0  0  0  0
  1  2  1  0
  2  3  2  0
  2  4  1  0
  4  5  2  0
  5  6  1  0
  6  7  2  0
  7  8  1  0
  8  9  2  0
  9 10  1  0
 10 11  3  0
 11 12  1  0
 12 13  1  0
  9 14  1  0
 14 15  2  0
 15 16  1  0
 16 17  1  0
 17 18  2  0
 17 19  1  0
 19 20  1  0
 19 21  1  0
 21 22  1  0
 22 23  1  0
 23 24  2  0
 23 25  1  0
 16  4  1  0
 15  6  1  0
  1 26  1  0
  5 27  1  0
  7 28  1  0
  8 29  1  0
 12 30  1  0
 12 31  1  0
 13 32  1  0
 14 33  1  0
 19 34  1  1
 20 35  1  0
 21 36  1  0
 21 37  1  0
 22 38  1  0
 22 39  1  0
M  CHG  2   1  -1  25  -1
M  END
>  <UniqueID>  (83) 
83

>  <SMILES>  (83) 
[NH-]C(=O)c1cc2ccc(C#CCO)cc2n1C(=O)[C@@H](O)CCC(=O)[O-]

>  <Energy>  (83) 
74.64451573852847

>  <Genealogy>  (83) 
[NH-]C(=O)c1cc2ccc(C#CCO)cc2n1C(=O)[C@@H](O)CCC(=O)[O-] (protonated)
[NH-]C(=O)c1cc2ccc(C#CCO)cc2n1C(=O)[C@@H](O)CCC(=O)[O-] (3D coordinates assigned)
[NH-]C(=O)c1cc2ccc(C#CCO)cc2n1C(=O)[C@@H](O)CCC(=O)[O-] (optimized conformer: 74.64451573852847 kcal/mol)

>  <smiles>  (83) 
NC(=O)c1cc2ccc(C#CCO)cc2n1C(=O)[C@@H](O)CCC(=O)O

>  <score_type>  (83) 
oracle

>  <origin>  (83) 
adg

>  <m_score__min__energy>  (83) 
-12.449999999999999

>  <m_primary>  (83) 
energy

$$$$
84:0
     RDKit          3D

 42 43  0  0  0  0  0  0  0  0999 V2000
   -2.9390   20.5550  -29.9650 C   0  0  0  0  0  0  0  0  0  0  0  0
   -3.4750   21.9130  -29.8240 N   0  0  0  0  0  0  0  0  0  0  0  0
   -3.4110   22.5970  -28.5230 C   0  0  0  0  0  0  0  0  0  0  0  0
   -1.9560   22.8390  -28.1130 C   0  0  0  0  0  0  0  0  0  0  0  0
   -1.5350   24.5720  -28.2160 S   0  0  0  0  0  0  0  0  0  0  0  0
   -1.9690   25.4150  -26.7090 C   0  0  0  0  0  0  0  0  0  0  0  0
   -2.2650   25.2010  -29.3690 O   0  0  0  0  0  0  0  0  0  0  0  0
   -0.0560   24.7020  -28.4410 O   0  0  0  0  0  0  0  0  0  0  0  0
   -4.0320   22.5700  -30.9820 C   0  0  0  0  0  0  0  0  0  0  0  0
   -3.2720   22.9790  -31.9020 O   0  0  0  0  0  0  0  0  0  0  0  0
   -5.4500   22.7550  -31.1170 N   0  0  0  0  0  0  0  0  0  0  0  0
   -6.1700   23.8890  -30.8860 C   0  0  0  0  0  0  0  0  0  0  0  0
   -5.6070   25.1720  -30.3890 C   0  0  0  0  0  0  0  0  0  0  0  0
   -4.2470   25.5340  -30.6440 N   0  0  0  0  0  0  0  0  0  0  0  0
   -6.3330   25.9690  -29.7380 O   0  0  0  0  0  0  0  0  0  0  0  0
   -7.5200   23.6610  -31.1600 C   0  0  0  0  0  0  0  0  0  0  0  0
   -7.5950   22.3520  -31.5810 C   0  0  0  0  0  0  0  0  0  0  0  0
   -8.6920   21.6020  -31.9920 C   0  0  0  0  0  0  0  0  0  0  0  0
   -8.4690   20.2730  -32.3950 C   0  0  0  0  0  0  0  0  0  0  0  0
   -7.1590   19.7260  -32.3870 C   0  0  0  0  0  0  0  0  0  0  0  0
   -6.9230   18.3100  -32.8240 C   0  0  0  0  0  0  0  0  0  0  0  0
   -6.2590   17.6190  -31.8260 F   0  0  0  0  0  0  0  0  0  0  0  0
   -6.1570   18.2980  -33.9760 F   0  0  0  0  0  0  0  0  0  0  0  0
   -6.0720   20.5200  -31.9590 C   0  0  0  0  0  0  0  0  0  0  0  0
   -6.3300   21.8320  -31.5530 C   0  0  0  0  0  0  0  0  0  0  0  0
   -2.7684   20.1228  -28.9680 H   0  0  0  0  0  0  0  0  0  0  0  0
   -3.6587   19.9321  -30.5164 H   0  0  0  0  0  0  0  0  0  0  0  0
   -1.9879   20.5916  -30.5164 H   0  0  0  0  0  0  0  0  0  0  0  0
   -3.9315   23.5633  -28.5965 H   0  0  0  0  0  0  0  0  0  0  0  0
   -3.8925   21.9624  -27.7644 H   0  0  0  0  0  0  0  0  0  0  0  0
   -1.8133   22.4961  -27.0776 H   0  0  0  0  0  0  0  0  0  0  0  0
   -1.3032   22.2807  -28.8002 H   0  0  0  0  0  0  0  0  0  0  0  0
   -1.6566   24.8082  -25.8464 H   0  0  0  0  0  0  0  0  0  0  0  0
   -1.4607   26.3899  -26.6748 H   0  0  0  0  0  0  0  0  0  0  0  0
   -3.0578   25.5677  -26.6748 H   0  0  0  0  0  0  0  0  0  0  0  0
   -3.6080   24.9350  -31.2100 H   0  0  0  0  0  0  0  0  0  0  0  0
   -3.8710   26.4340  -30.2730 H   0  0  0  0  0  0  0  0  0  0  0  0
   -8.3494   24.3767  -31.0605 H   0  0  0  0  0  0  0  0  0  0  0  0
   -9.7031   22.0351  -32.0016 H   0  0  0  0  0  0  0  0  0  0  0  0
   -9.3171   19.6520  -32.7192 H   0  0  0  0  0  0  0  0  0  0  0  0
   -7.8918   17.8285  -33.0228 H   0  0  0  0  0  0  0  0  0  0  0  0
   -5.0489   20.1160  -31.9456 H   0  0  0  0  0  0  0  0  0  0  0  0
  1  2  1  0
  2  3  1  0
  3  4  1  0
  4  5  1  0
  5  6  1  0
  5  7  2  0
  5  8  2  0
  2  9  1  0
  9 10  2  0
  9 11  1  0
 11 12  1  0
 12 13  1  0
 13 14  1  0
 13 15  2  0
 12 16  2  0
 16 17  1  0
 17 18  2  0
 18 19  1  0
 19 20  2  0
 20 21  1  0
 21 22  1  0
 21 23  1  0
 20 24  1  0
 24 25  2  0
 25 11  1  0
 25 17  1  0
  1 26  1  0
  1 27  1  0
  1 28  1  0
  3 29  1  0
  3 30  1  0
  4 31  1  0
  4 32  1  0
  6 33  1  0
  6 34  1  0
  6 35  1  0
 14 36  1  0
 14 37  1  0
 16 38  1  0
 18 39  1  0
 19 40  1  0
 21 41  1  0
 24 42  1  0
M  END
>  <UniqueID>  (84) 
84

>  <SMILES>  (84) 
CN(CCS(C)(=O)=O)C(=O)n1c(C(N)=O)cc2ccc(C(F)F)cc21

>  <Energy>  (84) 
68.36980671708791

>  <Genealogy>  (84) 
CN(CCS(C)(=O)=O)C(=O)n1c(C(N)=O)cc2ccc(C(F)F)cc21 (3D coordinates assigned)
CN(CCS(C)(=O)=O)C(=O)n1c(C(N)=O)cc2ccc(C(F)F)cc21 (optimized conformer: 68.36980671708791 kcal/mol)

>  <smiles>  (84) 
CN(CCS(C)(=O)=O)C(=O)n1c(C(N)=O)cc2ccc(C(F)F)cc21

>  <score_type>  (84) 
oracle

>  <origin>  (84) 
adg

>  <m_score__min__energy>  (84) 
-9.4000000000000004

>  <m_primary>  (84) 
energy

$$$$
85:0
     RDKit          3D

 39 40  0  0  0  0  0  0  0  0999 V2000
   -6.4510   16.9160  -33.5100 C   0  0  0  0  0  0  0  0  0  0  0  0
   -6.7850   18.0100  -33.1270 C   0  0  0  0  0  0  0  0  0  0  0  0
   -7.1840   19.3170  -32.6740 C   0  0  0  0  0  0  0  0  0  0  0  0
   -8.5440   19.6990  -32.7330 C   0  0  0  0  0  0  0  0  0  0  0  0
   -8.9460   20.9700  -32.2870 C   0  0  0  0  0  0  0  0  0  0  0  0
   -7.9660   21.8280  -31.7940 C   0  0  0  0  0  0  0  0  0  0  0  0
   -8.0750   23.1050  -31.2900 C   0  0  0  0  0  0  0  0  0  0  0  0
   -6.7760   23.4790  -30.9450 C   0  0  0  0  0  0  0  0  0  0  0  0
   -6.3980   24.8210  -30.4450 C   0  0  0  0  0  0  0  0  0  0  0  0
   -5.1590   25.4220  -30.8270 N   0  0  0  0  0  0  0  0  0  0  0  0
   -7.1630   25.4400  -29.6600 O   0  0  0  0  0  0  0  0  0  0  0  0
   -5.9040   22.4700  -31.2220 N   0  0  0  0  0  0  0  0  0  0  0  0
   -4.4910   22.4310  -30.9690 C   0  0  0  0  0  0  0  0  0  0  0  0
   -3.7260   23.2260  -31.5780 O   0  0  0  0  0  0  0  0  0  0  0  0
   -3.9050   21.3880  -30.0580 C   0  0  0  0  0  0  0  0  0  0  0  0
   -2.6700   21.8830  -29.3400 C   0  0  0  0  0  0  0  0  0  0  0  0
   -1.5580   21.3270  -29.5600 O   0  0  0  0  0  0  0  0  0  0  0  0
   -2.7510   22.9530  -28.3710 N   0  0  0  0  0  0  0  0  0  0  0  0
   -3.9200   23.0800  -27.4930 C   0  0  0  0  0  0  0  0  0  0  0  0
   -1.6320   23.8950  -28.2270 C   0  0  0  0  0  0  0  0  0  0  0  0
   -1.9210   25.1570  -28.9750 C   0  0  0  0  0  0  0  0  0  0  0  0
   -1.0780   26.0920  -28.9860 O   0  0  0  0  0  0  0  0  0  0  0  0
   -3.1060   25.2890  -29.6870 O   0  0  0  0  0  0  0  0  0  0  0  0
   -6.6450   21.4710  -31.7440 C   0  0  0  0  0  0  0  0  0  0  0  0
   -6.2150   20.2100  -32.1710 C   0  0  0  0  0  0  0  0  0  0  0  0
   -6.1464   15.9184  -33.8593 H   0  0  0  0  0  0  0  0  0  0  0  0
   -9.2921   18.9973  -33.1304 H   0  0  0  0  0  0  0  0  0  0  0  0
  -10.0015   21.2773  -32.3261 H   0  0  0  0  0  0  0  0  0  0  0  0
   -8.9918   23.7032  -31.1823 H   0  0  0  0  0  0  0  0  0  0  0  0
   -4.8900   26.3540  -30.4420 H   0  0  0  0  0  0  0  0  0  0  0  0
   -4.5270   24.9720  -31.5240 H   0  0  0  0  0  0  0  0  0  0  0  0
   -4.6606   21.1069  -29.3097 H   0  0  0  0  0  0  0  0  0  0  0  0
   -3.6126   20.5265  -30.6763 H   0  0  0  0  0  0  0  0  0  0  0  0
   -3.5952   23.0447  -26.4426 H   0  0  0  0  0  0  0  0  0  0  0  0
   -4.4235   24.0381  -27.6891 H   0  0  0  0  0  0  0  0  0  0  0  0
   -4.6175   22.2523  -27.6891 H   0  0  0  0  0  0  0  0  0  0  0  0
   -1.4883   24.1286  -27.1617 H   0  0  0  0  0  0  0  0  0  0  0  0
   -0.7204   23.4353  -28.6365 H   0  0  0  0  0  0  0  0  0  0  0  0
   -5.1543   19.9239  -32.1162 H   0  0  0  0  0  0  0  0  0  0  0  0
  1  2  3  0
  2  3  1  0
  3  4  2  0
  4  5  1  0
  5  6  2  0
  6  7  1  0
  7  8  2  0
  8  9  1  0
  9 10  1  0
  9 11  2  0
  8 12  1  0
 12 13  1  0
 13 14  2  0
 13 15  1  0
 15 16  1  0
 16 17  2  0
 16 18  1  0
 18 19  1  0
 18 20  1  0
 20 21  1  0
 21 22  2  0
 21 23  1  0
 12 24  1  0
 24 25  2  0
 25  3  1  0
 24  6  1  0
  1 26  1  0
  4 27  1  0
  5 28  1  0
  7 29  1  0
 10 30  1  0
 10 31  1  0
 15 32  1  0
 15 33  1  0
 19 34  1  0
 19 35  1  0
 19 36  1  0
 20 37  1  0
 20 38  1  0
 25 39  1  0
M  CHG  1  23  -1
M  END
>  <UniqueID>  (85) 
85

>  <SMILES>  (85) 
C#Cc1ccc2cc(C(N)=O)n(C(=O)CC(=O)N(C)CC(=O)[O-])c2c1

>  <Energy>  (85) 
73.70541419204052

>  <Genealogy>  (85) 
C#Cc1ccc2cc(C(N)=O)n(C(=O)CC(=O)N(C)CC(=O)[O-])c2c1 (protonated)
C#Cc1ccc2cc(C(N)=O)n(C(=O)CC(=O)N(C)CC(=O)[O-])c2c1 (3D coordinates assigned)
C#Cc1ccc2cc(C(N)=O)n(C(=O)CC(=O)N(C)CC(=O)[O-])c2c1 (optimized conformer: 73.70541419204052 kcal/mol)

>  <smiles>  (85) 
C#Cc1ccc2cc(C(N)=O)n(C(=O)CC(=O)N(C)CC(=O)O)c2c1

>  <score_type>  (85) 
oracle

>  <origin>  (85) 
adg

>  <m_score__min__energy>  (85) 
-12.06

>  <m_primary>  (85) 
energy

$$$$
86:0
     RDKit          3D

 53 55  0  0  0  0  0  0  0  0999 V2000
   -1.9890   18.3930  -32.5050 C   0  0  0  0  0  0  0  0  0  0  0  0
   -2.2140   18.9550  -33.9170 C   0  0  0  0  0  0  0  0  0  0  0  0
   -0.8460   19.2250  -34.5670 C   0  0  0  0  0  0  0  0  0  0  0  0
   -3.0310   20.2550  -33.8100 C   0  0  0  0  0  0  0  0  0  0  0  0
   -2.9360   17.9620  -34.6580 O   0  0  0  0  0  0  0  0  0  0  0  0
   -3.2300   16.6550  -34.2410 C   0  0  0  0  0  0  0  0  0  0  0  0
   -2.3490   15.9320  -33.7040 O   0  0  0  0  0  0  0  0  0  0  0  0
   -4.5460   16.1140  -34.4280 N   0  0  0  0  0  0  0  0  0  0  0  0
   -5.6910   16.2240  -33.5120 C   0  0  0  0  0  0  0  0  0  0  0  0
   -6.6530   17.3050  -33.8870 C   0  0  0  0  0  0  0  0  0  0  0  0
   -6.3290   18.1920  -32.7550 N   0  0  0  0  0  0  0  0  0  0  0  0
   -6.6360   19.5250  -32.3460 C   0  0  0  0  0  0  0  0  0  0  0  0
   -7.9710   19.9830  -32.3880 C   0  0  0  0  0  0  0  0  0  0  0  0
   -8.2790   21.3100  -32.0540 C   0  0  0  0  0  0  0  0  0  0  0  0
   -7.2330   22.1420  -31.6680 C   0  0  0  0  0  0  0  0  0  0  0  0
   -7.2510   23.4660  -31.3070 C   0  0  0  0  0  0  0  0  0  0  0  0
   -5.9280   23.7880  -31.0270 C   0  0  0  0  0  0  0  0  0  0  0  0
   -5.5170   25.1120  -30.5300 C   0  0  0  0  0  0  0  0  0  0  0  0
   -4.1720   25.5640  -30.6650 N   0  0  0  0  0  0  0  0  0  0  0  0
   -6.3870   25.8840  -30.0440 O   0  0  0  0  0  0  0  0  0  0  0  0
   -5.1170   22.6990  -31.1740 N   0  0  0  0  0  0  0  0  0  0  0  0
   -3.7270   22.5820  -30.7960 C   0  0  0  0  0  0  0  0  0  0  0  0
   -2.8260   22.7120  -31.6600 O   0  0  0  0  0  0  0  0  0  0  0  0
   -3.3170   22.2920  -29.4100 C   0  0  0  0  0  0  0  0  0  0  0  0
   -2.4850   23.0500  -28.6810 C   0  0  0  0  0  0  0  0  0  0  0  0
   -1.6960   24.1880  -29.1910 C   0  0  0  0  0  0  0  0  0  0  0  0
   -2.2570   25.2990  -29.3690 O   0  0  0  0  0  0  0  0  0  0  0  0
   -0.3320   24.0720  -29.4270 O   0  0  0  0  0  0  0  0  0  0  0  0
   -5.9360   21.7030  -31.5910 C   0  0  0  0  0  0  0  0  0  0  0  0
   -5.6000   20.3910  -31.9500 C   0  0  0  0  0  0  0  0  0  0  0  0
   -5.4380   17.0980  -32.3270 C   0  0  0  0  0  0  0  0  0  0  0  0
   -2.2896   19.1438  -31.7593 H   0  0  0  0  0  0  0  0  0  0  0  0
   -2.5920   17.4826  -32.3723 H   0  0  0  0  0  0  0  0  0  0  0  0
   -0.9244   18.1502  -32.3723 H   0  0  0  0  0  0  0  0  0  0  0  0
   -0.0901   19.3742  -33.7819 H   0  0  0  0  0  0  0  0  0  0  0  0
   -0.5610   18.3658  -35.1919 H   0  0  0  0  0  0  0  0  0  0  0  0
   -0.9088   20.1281  -35.1919 H   0  0  0  0  0  0  0  0  0  0  0  0
   -3.1873   20.5037  -32.7499 H   0  0  0  0  0  0  0  0  0  0  0  0
   -2.4844   21.0731  -34.3018 H   0  0  0  0  0  0  0  0  0  0  0  0
   -4.0053   20.1173  -34.3018 H   0  0  0  0  0  0  0  0  0  0  0  0
   -5.9541   15.1582  -33.4423 H   0  0  0  0  0  0  0  0  0  0  0  0
   -6.4243   17.7589  -34.8626 H   0  0  0  0  0  0  0  0  0  0  0  0
   -7.7071   17.0185  -34.0168 H   0  0  0  0  0  0  0  0  0  0  0  0
   -8.7754   19.2940  -32.6849 H   0  0  0  0  0  0  0  0  0  0  0  0
   -9.3138   21.6807  -32.0959 H   0  0  0  0  0  0  0  0  0  0  0  0
   -8.1257   24.1306  -31.2511 H   0  0  0  0  0  0  0  0  0  0  0  0
   -3.4760   25.0190  -31.2230 H   0  0  0  0  0  0  0  0  0  0  0  0
   -3.8880   26.4820  -30.2570 H   0  0  0  0  0  0  0  0  0  0  0  0
   -3.7242   21.3856  -28.9383 H   0  0  0  0  0  0  0  0  0  0  0  0
   -2.3821   22.8029  -27.6141 H   0  0  0  0  0  0  0  0  0  0  0  0
   -4.5554   20.0475  -31.9230 H   0  0  0  0  0  0  0  0  0  0  0  0
   -4.3869   17.4120  -32.2463 H   0  0  0  0  0  0  0  0  0  0  0  0
   -5.6171   16.6626  -31.3329 H   0  0  0  0  0  0  0  0  0  0  0  0
  1  2  1  0
  2  3  1  0
  2  4  1  0
  2  5  1  0
  5  6  1  0
  6  7  2  0
  6  8  1  0
  8  9  1  0
  9 10  1  0
 10 11  1  0
 11 12  1  0
 12 13  2  0
 13 14  1  0
 14 15  2  0
 15 16  1  0
 16 17  2  0
 17 18  1  0
 18 19  1  0
 18 20  2  0
 17 21  1  0
 21 22  1  0
 22 23  2  0
 22 24  1  0
 24 25  2  3
 25 26  1  0
 26 27  2  0
 26 28  1  0
 21 29  1  0
 29 30  2  0
 11 31  1  0
 31  9  1  0
 30 12  1  0
 29 15  1  0
  1 32  1  0
  1 33  1  0
  1 34  1  0
  3 35  1  0
  3 36  1  0
  3 37  1  0
  4 38  1  0
  4 39  1  0
  4 40  1  0
  9 41  1  0
 10 42  1  0
 10 43  1  0
 13 44  1  0
 14 45  1  0
 16 46  1  0
 19 47  1  0
 19 48  1  0
 24 49  1  0
 25 50  1  0
 30 51  1  0
 31 52  1  0
 31 53  1  0
M  CHG  2   8  -1  28  -1
M  END
>  <UniqueID>  (86) 
86

>  <SMILES>  (86) 
CC(C)(C)OC(=O)[N-]C1CN(c2ccc3cc(C(N)=O)n(C(=O)C=CC(=O)[O-])c3c2)C1

>  <Energy>  (86) 
141.46046152398947

>  <Genealogy>  (86) 
CC(C)(C)OC(=O)[N-]C1CN(c2ccc3cc(C(N)=O)n(C(=O)C=CC(=O)[O-])c3c2)C1 (protonated)
CC(C)(C)OC(=O)[N-]C1CN(c2ccc3cc(C(N)=O)n(C(=O)C=CC(=O)[O-])c3c2)C1 (3D coordinates assigned)
CC(C)(C)OC(=O)[N-]C1CN(c2ccc3cc(C(N)=O)n(C(=O)C=CC(=O)[O-])c3c2)C1 (nonaromatic ring conformer: 141.46046152398947 kcal/mol)

>  <smiles>  (86) 
CC(C)(C)OC(=O)NC1CN(c2ccc3cc(C(N)=O)n(C(=O)C=CC(=O)O)c3c2)C1

>  <score_type>  (86) 
oracle

>  <origin>  (86) 
adg

>  <m_score__min__energy>  (86) 
-12.800000000000001

>  <m_primary>  (86) 
energy

$$$$
87:0
     RDKit          3D

 44 46  0  0  0  0  0  0  0  0999 V2000
   -5.7760   25.2530  -29.0450 N   0  0  0  0  0  0  0  0  0  0  0  0
   -5.2430   24.7620  -30.2770 C   0  0  0  0  0  0  0  0  0  0  0  0
   -4.3080   25.3940  -30.8350 O   0  0  0  0  0  0  0  0  0  0  0  0
   -5.7660   23.5200  -30.8900 C   0  0  0  0  0  0  0  0  0  0  0  0
   -7.1130   23.2760  -31.1580 C   0  0  0  0  0  0  0  0  0  0  0  0
   -7.1600   21.9890  -31.6470 C   0  0  0  0  0  0  0  0  0  0  0  0
   -8.2450   21.2300  -32.0750 C   0  0  0  0  0  0  0  0  0  0  0  0
   -7.9950   19.9290  -32.5460 C   0  0  0  0  0  0  0  0  0  0  0  0
   -6.6730   19.4150  -32.5810 C   0  0  0  0  0  0  0  0  0  0  0  0
   -6.4090   18.0250  -33.0850 C   0  0  0  0  0  0  0  0  0  0  0  0
   -7.6020   17.4250  -33.4400 F   0  0  0  0  0  0  0  0  0  0  0  0
   -5.7980   17.2770  -32.0940 F   0  0  0  0  0  0  0  0  0  0  0  0
   -5.5990   20.2140  -32.1330 C   0  0  0  0  0  0  0  0  0  0  0  0
   -5.8810   21.5000  -31.6630 C   0  0  0  0  0  0  0  0  0  0  0  0
   -5.0160   22.4290  -31.2100 N   0  0  0  0  0  0  0  0  0  0  0  0
   -3.5900   22.2890  -31.1210 C   0  0  0  0  0  0  0  0  0  0  0  0
   -2.9050   22.2970  -32.1800 O   0  0  0  0  0  0  0  0  0  0  0  0
   -2.9370   22.1430  -29.8440 N   0  0  0  0  0  0  0  0  0  0  0  0
   -3.5310   22.7020  -28.6210 C   0  0  0  0  0  0  0  0  0  0  0  0
   -3.4630   21.6730  -27.4870 C   0  0  0  0  0  0  0  0  0  0  0  0
   -2.0630   21.0110  -27.3290 C   0  0  0  0  0  0  0  0  0  0  0  0
   -2.1760   19.4720  -27.3600 C   0  0  0  0  0  0  0  0  0  0  0  0
   -2.7320   18.9800  -26.1710 O   0  0  0  0  0  0  0  0  0  0  0  0
   -1.0330   21.5310  -28.3620 C   0  0  0  0  0  0  0  0  0  0  0  0
   -1.5980   21.5390  -29.7900 C   0  0  0  0  0  0  0  0  0  0  0  0
   -5.3800   26.1180  -28.6140 H   0  0  0  0  0  0  0  0  0  0  0  0
   -6.5900   24.7940  -28.5820 H   0  0  0  0  0  0  0  0  0  0  0  0
   -7.9579   23.9647  -31.0103 H   0  0  0  0  0  0  0  0  0  0  0  0
   -9.2671   21.6355  -32.0457 H   0  0  0  0  0  0  0  0  0  0  0  0
   -8.8320   19.3039  -32.8905 H   0  0  0  0  0  0  0  0  0  0  0  0
   -5.7487   18.0795  -33.9631 H   0  0  0  0  0  0  0  0  0  0  0  0
   -4.5667   19.8345  -32.1532 H   0  0  0  0  0  0  0  0  0  0  0  0
   -2.9765   23.6053  -28.3268 H   0  0  0  0  0  0  0  0  0  0  0  0
   -4.5835   22.9565  -28.8147 H   0  0  0  0  0  0  0  0  0  0  0  0
   -3.7173   22.1781  -26.5435 H   0  0  0  0  0  0  0  0  0  0  0  0
   -4.1728   20.8706  -27.7367 H   0  0  0  0  0  0  0  0  0  0  0  0
   -1.6781   21.3065  -26.3418 H   0  0  0  0  0  0  0  0  0  0  0  0
   -2.8158   19.1762  -28.2045 H   0  0  0  0  0  0  0  0  0  0  0  0
   -1.1660   19.0510  -27.4723 H   0  0  0  0  0  0  0  0  0  0  0  0
   -3.6410   19.3730  -26.0980 H   0  0  0  0  0  0  0  0  0  0  0  0
   -0.7446   22.5569  -28.0893 H   0  0  0  0  0  0  0  0  0  0  0  0
   -0.1662   20.8540  -28.3453 H   0  0  0  0  0  0  0  0  0  0  0  0
   -0.9210   22.1155  -30.4375 H   0  0  0  0  0  0  0  0  0  0  0  0
   -1.6792   20.4965  -30.1314 H   0  0  0  0  0  0  0  0  0  0  0  0
  1  2  1  0
  2  3  2  0
  2  4  1  0
  4  5  2  0
  5  6  1  0
  6  7  2  0
  7  8  1  0
  8  9  2  0
  9 10  1  0
 10 11  1  0
 10 12  1  0
  9 13  1  0
 13 14  2  0
 14 15  1  0
 15 16  1  0
 16 17  2  0
 16 18  1  0
 18 19  1  0
 19 20  1  0
 20 21  1  0
 21 22  1  0
 22 23  1  0
 21 24  1  0
 24 25  1  0
 15  4  1  0
 25 18  1  0
 14  6  1  0
  1 26  1  0
  1 27  1  0
  5 28  1  0
  7 29  1  0
  8 30  1  0
 10 31  1  0
 13 32  1  0
 19 33  1  0
 19 34  1  0
 20 35  1  0
 20 36  1  0
 21 37  1  0
 22 38  1  0
 22 39  1  0
 23 40  1  0
 24 41  1  0
 24 42  1  0
 25 43  1  0
 25 44  1  0
M  END
>  <UniqueID>  (87) 
87

>  <SMILES>  (87) 
NC(=O)c1cc2ccc(C(F)F)cc2n1C(=O)N1CCC(CO)CC1

>  <Energy>  (87) 
84.86678589496967

>  <Genealogy>  (87) 
NC(=O)c1cc2ccc(C(F)F)cc2n1C(=O)N1CCC(CO)CC1 (3D coordinates assigned)
NC(=O)c1cc2ccc(C(F)F)cc2n1C(=O)N1CCC(CO)CC1 (nonaromatic ring conformer: 84.86678589496967 kcal/mol)

>  <smiles>  (87) 
NC(=O)c1cc2ccc(C(F)F)cc2n1C(=O)N1CCC(CO)CC1

>  <score_type>  (87) 
oracle

>  <origin>  (87) 
adg

>  <m_score__min__energy>  (87) 
-9.0999999999999996

>  <m_primary>  (87) 
energy

$$$$
88:0
     RDKit          3D

 32 33  0  0  0  0  0  0  0  0999 V2000
   -1.6750   25.6790  -28.9720 N   0  0  0  0  0  0  0  0  0  0  0  0
   -1.0910   24.4060  -29.2350 C   0  0  0  0  0  0  0  0  0  0  0  0
    0.0830   24.1720  -28.8430 O   0  0  0  0  0  0  0  0  0  0  0  0
   -1.8210   23.3810  -30.0110 C   0  0  0  0  0  0  0  0  0  0  0  0
   -1.2490   22.1780  -30.4170 C   0  0  0  0  0  0  0  0  0  0  0  0
   -2.2100   21.5570  -31.1820 C   0  0  0  0  0  0  0  0  0  0  0  0
   -2.1800   20.3250  -31.8270 C   0  0  0  0  0  0  0  0  0  0  0  0
   -3.3300   19.9170  -32.5210 C   0  0  0  0  0  0  0  0  0  0  0  0
   -4.4880   20.7390  -32.5550 C   0  0  0  0  0  0  0  0  0  0  0  0
   -5.7410   20.2880  -33.2830 C   0  0  2  0  0  0  0  0  0  0  0  0
   -7.0160   20.4750  -32.4300 C   0  0  0  0  0  0  0  0  0  0  0  0
   -8.0610   19.3700  -32.6400 C   0  0  0  0  0  0  0  0  0  0  0  0
   -8.2500   18.6440  -31.4780 F   0  0  0  0  0  0  0  0  0  0  0  0
   -9.2660   19.9090  -33.0510 F   0  0  0  0  0  0  0  0  0  0  0  0
   -5.5880   18.8560  -33.7230 C   0  0  0  0  0  0  0  0  0  0  0  0
   -5.5310   18.5780  -34.9500 O   0  0  0  0  0  0  0  0  0  0  0  0
   -5.4530   17.8350  -32.7880 O   0  0  0  0  0  0  0  0  0  0  0  0
   -4.4760   21.9850  -31.8860 C   0  0  0  0  0  0  0  0  0  0  0  0
   -3.3100   22.3730  -31.2170 C   0  0  0  0  0  0  0  0  0  0  0  0
   -3.0890   23.4980  -30.4990 N   0  0  0  0  0  0  0  0  0  0  0  0
   -4.0410   24.5390  -30.2290 C   0  0  0  0  0  0  0  0  0  0  0  0
   -3.9200   25.6690  -30.7730 O   0  0  0  0  0  0  0  0  0  0  0  0
   -5.1200   24.3020  -29.3870 O   0  0  0  0  0  0  0  0  0  0  0  0
   -2.7110   25.8070  -28.9830 H   0  0  0  0  0  0  0  0  0  0  0  0
   -0.2429   21.8036  -30.1772 H   0  0  0  0  0  0  0  0  0  0  0  0
   -1.2825   19.6898  -31.7943 H   0  0  0  0  0  0  0  0  0  0  0  0
   -3.3345   18.9496  -33.0445 H   0  0  0  0  0  0  0  0  0  0  0  0
   -5.8635   20.9270  -34.1699 H   0  0  0  0  0  0  0  0  0  0  0  0
   -6.7267   20.4835  -31.3687 H   0  0  0  0  0  0  0  0  0  0  0  0
   -7.4791   21.4221  -32.7438 H   0  0  0  0  0  0  0  0  0  0  0  0
   -7.6835   18.6962  -33.4232 H   0  0  0  0  0  0  0  0  0  0  0  0
   -5.3637   22.6346  -31.8915 H   0  0  0  0  0  0  0  0  0  0  0  0
  1  2  1  0
  2  3  2  0
  2  4  1  0
  4  5  2  0
  5  6  1  0
  6  7  2  0
  7  8  1  0
  8  9  2  0
  9 10  1  0
 10 11  1  0
 11 12  1  0
 12 13  1  0
 12 14  1  0
 10 15  1  0
 15 16  2  0
 15 17  1  0
  9 18  1  0
 18 19  2  0
 19 20  1  0
 20 21  1  0
 21 22  2  0
 21 23  1  0
 20  4  1  0
 19  6  1  0
  1 24  1  0
  5 25  1  0
  7 26  1  0
  8 27  1  0
 10 28  1  6
 11 29  1  0
 11 30  1  0
 12 31  1  0
 18 32  1  0
M  CHG  3   1  -1  17  -1  23  -1
M  END
>  <UniqueID>  (88) 
88

>  <SMILES>  (88) 
[NH-]C(=O)c1cc2ccc([C@H](CC(F)F)C(=O)[O-])cc2n1C(=O)[O-]

>  <Energy>  (88) 
70.08237386814979

>  <Genealogy>  (88) 
[NH-]C(=O)c1cc2ccc(C(CC(F)F)C(=O)[O-])cc2n1C(=O)[O-] (protonated)
[NH-]C(=O)c1cc2ccc([C@H](CC(F)F)C(=O)[O-])cc2n1C(=O)[O-] (chirality)
[NH-]C(=O)c1cc2ccc([C@H](CC(F)F)C(=O)[O-])cc2n1C(=O)[O-] (3D coordinates assigned)
[NH-]C(=O)c1cc2ccc([C@H](CC(F)F)C(=O)[O-])cc2n1C(=O)[O-] (optimized conformer: 70.08237386814979 kcal/mol)

>  <smiles>  (88) 
NC(=O)c1cc2ccc(C(CC(F)F)C(=O)O)cc2n1C(=O)O

>  <score_type>  (88) 
oracle

>  <origin>  (88) 
adg

>  <m_score__min__energy>  (88) 
-10.949999999999999

>  <m_primary>  (88) 
energy

$$$$
89:0
     RDKit          3D

 43 44  0  0  0  0  0  0  0  0999 V2000
   -3.7960   19.6760  -31.6190 C   0  0  0  0  0  0  0  0  0  0  0  0
   -3.6810   21.0030  -31.0020 N   0  0  0  0  0  0  0  0  0  0  0  0
   -3.0010   21.1560  -29.7070 C   0  0  0  0  0  0  0  0  0  0  0  0
   -2.3030   22.4780  -29.6240 C   0  0  0  0  0  0  0  0  0  0  0  0
   -1.3510   22.7330  -30.4100 O   0  0  0  0  0  0  0  0  0  0  0  0
   -2.7080   23.4330  -28.6360 N   0  0  0  0  0  0  0  0  0  0  0  0
   -1.8370   23.9060  -27.5690 C   0  0  0  0  0  0  0  0  0  0  0  0
   -1.2420   25.2680  -27.9280 C   0  0  0  0  0  0  0  0  0  0  0  0
   -1.5280   25.5880  -29.2620 O   0  0  0  0  0  0  0  0  0  0  0  0
   -4.2590   22.1390  -31.6770 C   0  0  0  0  0  0  0  0  0  0  0  0
   -3.6040   22.7500  -32.5650 O   0  0  0  0  0  0  0  0  0  0  0  0
   -5.5960   22.5680  -31.3850 N   0  0  0  0  0  0  0  0  0  0  0  0
   -6.0130   23.8030  -30.9850 C   0  0  0  0  0  0  0  0  0  0  0  0
   -5.1260   24.9760  -30.7860 C   0  0  0  0  0  0  0  0  0  0  0  0
   -3.7070   24.8240  -30.6890 N   0  0  0  0  0  0  0  0  0  0  0  0
   -5.6190   26.1320  -30.6980 O   0  0  0  0  0  0  0  0  0  0  0  0
   -7.4020   23.8110  -30.8340 C   0  0  0  0  0  0  0  0  0  0  0  0
   -7.8170   22.5390  -31.1700 C   0  0  0  0  0  0  0  0  0  0  0  0
   -9.0950   21.9890  -31.2020 C   0  0  0  0  0  0  0  0  0  0  0  0
   -9.2230   20.6490  -31.6050 C   0  0  0  0  0  0  0  0  0  0  0  0
   -8.0830   19.8900  -31.9720 C   0  0  0  0  0  0  0  0  0  0  0  0
   -8.2300   18.4540  -32.3910 C   0  0  0  0  0  0  0  0  0  0  0  0
   -7.1270   17.7250  -31.9730 F   0  0  0  0  0  0  0  0  0  0  0  0
   -9.3730   17.9160  -31.8270 F   0  0  0  0  0  0  0  0  0  0  0  0
   -6.8010   20.4780  -31.9060 C   0  0  0  0  0  0  0  0  0  0  0  0
   -6.7070   21.8140  -31.5060 C   0  0  0  0  0  0  0  0  0  0  0  0
   -3.8624   18.9103  -30.8321 H   0  0  0  0  0  0  0  0  0  0  0  0
   -4.7007   19.6392  -32.2436 H   0  0  0  0  0  0  0  0  0  0  0  0
   -2.9111   19.4841  -32.2436 H   0  0  0  0  0  0  0  0  0  0  0  0
   -3.7449   21.0900  -28.8994 H   0  0  0  0  0  0  0  0  0  0  0  0
   -2.2527   20.3561  -29.6058 H   0  0  0  0  0  0  0  0  0  0  0  0
   -2.4195   23.9987  -26.6405 H   0  0  0  0  0  0  0  0  0  0  0  0
   -1.0179   23.1847  -27.4322 H   0  0  0  0  0  0  0  0  0  0  0  0
   -1.6730   26.0370  -27.2701 H   0  0  0  0  0  0  0  0  0  0  0  0
   -0.1507   25.2274  -27.7961 H   0  0  0  0  0  0  0  0  0  0  0  0
   -1.4340   24.7460  -29.7810 H   0  0  0  0  0  0  0  0  0  0  0  0
   -3.1030   25.6670  -30.5560 H   0  0  0  0  0  0  0  0  0  0  0  0
   -3.2390   23.8930  -30.7530 H   0  0  0  0  0  0  0  0  0  0  0  0
   -8.0321   24.6542  -30.5144 H   0  0  0  0  0  0  0  0  0  0  0  0
   -9.9764   22.5840  -30.9209 H   0  0  0  0  0  0  0  0  0  0  0  0
  -10.2191   20.1834  -31.6361 H   0  0  0  0  0  0  0  0  0  0  0  0
   -8.3044   18.4088  -33.4875 H   0  0  0  0  0  0  0  0  0  0  0  0
   -5.9007   19.9004  -32.1624 H   0  0  0  0  0  0  0  0  0  0  0  0
  1  2  1  0
  2  3  1  0
  3  4  1  0
  4  5  2  0
  4  6  1  0
  6  7  1  0
  7  8  1  0
  8  9  1  0
  2 10  1  0
 10 11  2  0
 10 12  1  0
 12 13  1  0
 13 14  1  0
 14 15  1  0
 14 16  2  0
 13 17  2  0
 17 18  1  0
 18 19  2  0
 19 20  1  0
 20 21  2  0
 21 22  1  0
 22 23  1  0
 22 24  1  0
 21 25  1  0
 25 26  2  0
 26 12  1  0
 26 18  1  0
  1 27  1  0
  1 28  1  0
  1 29  1  0
  3 30  1  0
  3 31  1  0
  7 32  1  0
  7 33  1  0
  8 34  1  0
  8 35  1  0
  9 36  1  0
 15 37  1  0
 15 38  1  0
 17 39  1  0
 19 40  1  0
 20 41  1  0
 22 42  1  0
 25 43  1  0
M  CHG  1   6  -1
M  END
>  <UniqueID>  (89) 
89

>  <SMILES>  (89) 
CN(CC(=O)[N-]CCO)C(=O)n1c(C(N)=O)cc2ccc(C(F)F)cc21

>  <Energy>  (89) 
72.60951525375165

>  <Genealogy>  (89) 
CN(CC(=O)[N-]CCO)C(=O)n1c(C(N)=O)cc2ccc(C(F)F)cc21 (protonated)
CN(CC(=O)[N-]CCO)C(=O)n1c(C(N)=O)cc2ccc(C(F)F)cc21 (3D coordinates assigned)
CN(CC(=O)[N-]CCO)C(=O)n1c(C(N)=O)cc2ccc(C(F)F)cc21 (optimized conformer: 72.60951525375165 kcal/mol)

>  <smiles>  (89) 
CN(CC(=O)NCCO)C(=O)n1c(C(N)=O)cc2ccc(C(F)F)cc21

>  <score_type>  (89) 
oracle

>  <origin>  (89) 
adg

>  <m_score__min__energy>  (89) 
-10.109999999999999

>  <m_primary>  (89) 
energy

$$$$
90:0
     RDKit          3D

 44 45  0  0  0  0  0  0  0  0999 V2000
    0.4320   21.8530  -28.0060 C   0  0  0  0  0  0  0  0  0  0  0  0
   -0.8630   22.4160  -28.3960 N   0  0  0  0  0  0  0  0  0  0  0  0
   -1.7320   23.0460  -27.3900 C   0  0  0  0  0  0  0  0  0  0  0  0
   -2.1760   24.4430  -27.8400 C   0  0  0  0  0  0  0  0  0  0  0  0
   -1.0350   25.2150  -28.4260 C   0  0  0  0  0  0  0  0  0  0  0  0
   -1.2430   26.0540  -29.3410 O   0  0  0  0  0  0  0  0  0  0  0  0
    0.2520   25.0350  -27.9350 O   0  0  0  0  0  0  0  0  0  0  0  0
   -1.2740   22.3340  -29.7720 C   0  0  0  0  0  0  0  0  0  0  0  0
   -1.5200   23.3860  -30.4260 O   0  0  0  0  0  0  0  0  0  0  0  0
   -1.3980   21.0820  -30.3860 O   0  0  0  0  0  0  0  0  0  0  0  0
   -2.5430   20.7000  -31.1400 C   0  0  0  0  0  0  0  0  0  0  0  0
   -3.3850   21.8310  -31.3330 O   0  0  0  0  0  0  0  0  0  0  0  0
   -4.3210   22.2530  -30.3860 C   0  0  0  0  0  0  0  0  0  0  0  0
   -4.0540   22.1820  -29.1550 O   0  0  0  0  0  0  0  0  0  0  0  0
   -5.6000   22.7480  -30.8190 N   0  0  0  0  0  0  0  0  0  0  0  0
   -6.0490   24.0360  -30.7990 C   0  0  0  0  0  0  0  0  0  0  0  0
   -5.2410   25.2330  -30.4850 C   0  0  0  0  0  0  0  0  0  0  0  0
   -3.8800   25.3270  -30.8950 N   0  0  0  0  0  0  0  0  0  0  0  0
   -5.7770   26.2080  -29.8930 O   0  0  0  0  0  0  0  0  0  0  0  0
   -7.3770   24.0980  -31.2090 C   0  0  0  0  0  0  0  0  0  0  0  0
   -7.7310   22.8010  -31.5000 C   0  0  0  0  0  0  0  0  0  0  0  0
   -8.9440   22.2820  -31.9430 C   0  0  0  0  0  0  0  0  0  0  0  0
   -9.0380   20.8940  -32.1320 C   0  0  0  0  0  0  0  0  0  0  0  0
   -7.9250   20.0550  -31.8770 C   0  0  0  0  0  0  0  0  0  0  0  0
   -8.0500   18.5680  -32.0340 C   0  0  0  0  0  0  0  0  0  0  0  0
   -6.8570   17.9880  -33.2220 Cl  0  0  0  0  0  0  0  0  0  0  0  0
   -6.7140   20.6150  -31.4150 C   0  0  0  0  0  0  0  0  0  0  0  0
   -6.6420   22.0040  -31.2550 C   0  0  0  0  0  0  0  0  0  0  0  0
    0.5029   21.8222  -26.9087 H   0  0  0  0  0  0  0  0  0  0  0  0
    0.5246   20.8334  -28.4082 H   0  0  0  0  0  0  0  0  0  0  0  0
    1.2408   22.4807  -28.4082 H   0  0  0  0  0  0  0  0  0  0  0  0
   -2.6221   22.4173  -27.2400 H   0  0  0  0  0  0  0  0  0  0  0  0
   -1.1656   23.1450  -26.4523 H   0  0  0  0  0  0  0  0  0  0  0  0
   -2.9662   24.3407  -28.5984 H   0  0  0  0  0  0  0  0  0  0  0  0
   -2.5484   24.9886  -26.9604 H   0  0  0  0  0  0  0  0  0  0  0  0
   -2.2242   20.3095  -32.1177 H   0  0  0  0  0  0  0  0  0  0  0  0
   -3.0963   19.9206  -30.5956 H   0  0  0  0  0  0  0  0  0  0  0  0
   -3.1050   25.2930  -30.1980 H   0  0  0  0  0  0  0  0  0  0  0  0
   -8.0100   24.9945  -31.2845 H   0  0  0  0  0  0  0  0  0  0  0  0
   -9.8036   22.9398  -32.1392 H   0  0  0  0  0  0  0  0  0  0  0  0
   -9.9838   20.4540  -32.4810 H   0  0  0  0  0  0  0  0  0  0  0  0
   -7.8672   18.0813  -31.0646 H   0  0  0  0  0  0  0  0  0  0  0  0
   -9.0631   18.3225  -32.3852 H   0  0  0  0  0  0  0  0  0  0  0  0
   -5.8485   19.9757  -31.1864 H   0  0  0  0  0  0  0  0  0  0  0  0
  1  2  1  0
  2  3  1  0
  3  4  1  0
  4  5  1  0
  5  6  2  0
  5  7  1  0
  2  8  1  0
  8  9  2  0
  8 10  1  0
 10 11  1  0
 11 12  1  0
 12 13  1  0
 13 14  2  0
 13 15  1  0
 15 16  1  0
 16 17  1  0
 17 18  1  0
 17 19  2  0
 16 20  2  0
 20 21  1  0
 21 22  2  0
 22 23  1  0
 23 24  2  0
 24 25  1  0
 25 26  1  0
 24 27  1  0
 27 28  2  0
 28 15  1  0
 28 21  1  0
  1 29  1  0
  1 30  1  0
  1 31  1  0
  3 32  1  0
  3 33  1  0
  4 34  1  0
  4 35  1  0
 11 36  1  0
 11 37  1  0
 18 38  1  0
 20 39  1  0
 22 40  1  0
 23 41  1  0
 25 42  1  0
 25 43  1  0
 27 44  1  0
M  CHG  2   7  -1  18  -1
M  END
>  <UniqueID>  (90) 
90

>  <SMILES>  (90) 
CN(CCC(=O)[O-])C(=O)OCOC(=O)n1c(C([NH-])=O)cc2ccc(CCl)cc21

>  <Energy>  (90) 
71.95627005481441

>  <Genealogy>  (90) 
CN(CCC(=O)[O-])C(=O)OCOC(=O)n1c(C([NH-])=O)cc2ccc(CCl)cc21 (protonated)
CN(CCC(=O)[O-])C(=O)OCOC(=O)n1c(C([NH-])=O)cc2ccc(CCl)cc21 (3D coordinates assigned)
CN(CCC(=O)[O-])C(=O)OCOC(=O)n1c(C([NH-])=O)cc2ccc(CCl)cc21 (optimized conformer: 71.95627005481441 kcal/mol)

>  <smiles>  (90) 
CN(CCC(=O)O)C(=O)OCOC(=O)n1c(C(N)=O)cc2ccc(CCl)cc21

>  <score_type>  (90) 
oracle

>  <origin>  (90) 
adg

>  <m_score__min__energy>  (90) 
-12.17

>  <m_primary>  (90) 
energy

$$$$
91:0
     RDKit          3D

 42 43  0  0  0  0  0  0  0  0999 V2000
   -0.1860   23.0100  -29.0120 C   0  0  0  0  0  0  0  0  0  0  0  0
   -1.6600   23.0450  -29.0130 N   0  0  2  0  0  0  0  0  0  0  0  0
   -2.2110   23.5890  -27.7480 C   0  0  0  0  0  0  0  0  0  0  0  0
   -2.3030   25.1230  -27.7320 C   0  0  0  0  0  0  0  0  0  0  0  0
   -2.0250   25.6560  -28.9990 O   0  0  0  0  0  0  0  0  0  0  0  0
   -2.1710   21.7030  -29.2260 C   0  0  0  0  0  0  0  0  0  0  0  0
   -1.4960   20.7290  -28.9100 O   0  0  0  0  0  0  0  0  0  0  0  0
   -3.5380   21.4770  -29.8210 C   0  0  0  0  0  0  0  0  0  0  0  0
   -3.8810   22.5090  -30.8580 C   0  0  0  0  0  0  0  0  0  0  0  0
   -2.9830   22.9890  -31.6020 O   0  0  0  0  0  0  0  0  0  0  0  0
   -5.2530   22.8340  -31.1140 N   0  0  0  0  0  0  0  0  0  0  0  0
   -5.8910   24.0110  -30.8850 C   0  0  0  0  0  0  0  0  0  0  0  0
   -5.2440   25.2690  -30.4650 C   0  0  0  0  0  0  0  0  0  0  0  0
   -3.8950   25.5380  -30.8440 N   0  0  0  0  0  0  0  0  0  0  0  0
   -5.8610   26.0980  -29.7480 O   0  0  0  0  0  0  0  0  0  0  0  0
   -7.2520   23.8900  -31.1620 C   0  0  0  0  0  0  0  0  0  0  0  0
   -7.4250   22.5880  -31.5730 C   0  0  0  0  0  0  0  0  0  0  0  0
   -8.5800   21.9110  -31.9530 C   0  0  0  0  0  0  0  0  0  0  0  0
   -8.4650   20.5540  -32.2980 C   0  0  0  0  0  0  0  0  0  0  0  0
   -7.2070   19.9040  -32.2600 C   0  0  0  0  0  0  0  0  0  0  0  0
   -7.1070   18.4540  -32.6270 C   0  0  0  0  0  0  0  0  0  0  0  0
   -8.3090   17.8230  -32.3610 F   0  0  0  0  0  0  0  0  0  0  0  0
   -6.1050   17.8560  -31.8870 F   0  0  0  0  0  0  0  0  0  0  0  0
   -6.0560   20.6240  -31.8680 C   0  0  0  0  0  0  0  0  0  0  0  0
   -6.2020   21.9740  -31.5370 C   0  0  0  0  0  0  0  0  0  0  0  0
    0.1799   23.0013  -27.9747 H   0  0  0  0  0  0  0  0  0  0  0  0
    0.1596   22.1034  -29.5303 H   0  0  0  0  0  0  0  0  0  0  0  0
    0.2022   23.8992  -29.5303 H   0  0  0  0  0  0  0  0  0  0  0  0
   -1.9670   23.6550  -29.8080 H   0  0  0  0  0  0  0  0  0  0  0  0
   -3.2207   23.1776  -27.6021 H   0  0  0  0  0  0  0  0  0  0  0  0
   -1.5223   23.2966  -26.9416 H   0  0  0  0  0  0  0  0  0  0  0  0
   -3.3189   25.4194  -27.4320 H   0  0  0  0  0  0  0  0  0  0  0  0
   -1.5618   25.5113  -27.0179 H   0  0  0  0  0  0  0  0  0  0  0  0
   -2.8740   26.0390  -29.3460 H   0  0  0  0  0  0  0  0  0  0  0  0
   -3.5607   20.4821  -30.2897 H   0  0  0  0  0  0  0  0  0  0  0  0
   -4.2772   21.5532  -29.0099 H   0  0  0  0  0  0  0  0  0  0  0  0
   -3.1190   24.9010  -30.5580 H   0  0  0  0  0  0  0  0  0  0  0  0
   -8.0232   24.6691  -31.0714 H   0  0  0  0  0  0  0  0  0  0  0  0
   -9.5533   22.4228  -31.9823 H   0  0  0  0  0  0  0  0  0  0  0  0
   -9.3603   19.9910  -32.6005 H   0  0  0  0  0  0  0  0  0  0  0  0
   -6.8751   18.3677  -33.6988 H   0  0  0  0  0  0  0  0  0  0  0  0
   -5.0716   20.1351  -31.8245 H   0  0  0  0  0  0  0  0  0  0  0  0
  1  2  1  0
  2  3  1  0
  3  4  1  0
  4  5  1  0
  2  6  1  0
  6  7  2  0
  6  8  1  0
  8  9  1  0
  9 10  2  0
  9 11  1  0
 11 12  1  0
 12 13  1  0
 13 14  1  0
 13 15  2  0
 12 16  2  0
 16 17  1  0
 17 18  2  0
 18 19  1  0
 19 20  2  0
 20 21  1  0
 21 22  1  0
 21 23  1  0
 20 24  1  0
 24 25  2  0
 25 11  1  0
 25 17  1  0
  1 26  1  0
  1 27  1  0
  1 28  1  0
  2 29  1  6
  3 30  1  0
  3 31  1  0
  4 32  1  0
  4 33  1  0
  5 34  1  0
  8 35  1  0
  8 36  1  0
 14 37  1  0
 16 38  1  0
 18 39  1  0
 19 40  1  0
 21 41  1  0
 24 42  1  0
M  CHG  2   2   1  14  -1
M  END
>  <UniqueID>  (91) 
91

>  <SMILES>  (91) 
C[N@H+](CCO)C(=O)CC(=O)n1c(C([NH-])=O)cc2ccc(C(F)F)cc21

>  <Energy>  (91) 
80.7864461509938

>  <Genealogy>  (91) 
C[NH+](CCO)C(=O)CC(=O)n1c(C([NH-])=O)cc2ccc(C(F)F)cc21 (protonated)
C[N@H+](CCO)C(=O)CC(=O)n1c(C([NH-])=O)cc2ccc(C(F)F)cc21 (chirality)
C[N@H+](CCO)C(=O)CC(=O)n1c(C([NH-])=O)cc2ccc(C(F)F)cc21 (3D coordinates assigned)
C[N@H+](CCO)C(=O)CC(=O)n1c(C([NH-])=O)cc2ccc(C(F)F)cc21 (optimized conformer: 80.7864461509938 kcal/mol)

>  <smiles>  (91) 
CN(CCO)C(=O)CC(=O)n1c(C(N)=O)cc2ccc(C(F)F)cc21

>  <score_type>  (91) 
oracle

>  <origin>  (91) 
adg

>  <m_score__min__energy>  (91) 
-9.5700000000000003

>  <m_primary>  (91) 
energy

$$$$
92:0
     RDKit          3D

 42 43  0  0  0  0  0  0  0  0999 V2000
   -3.0710   21.4820  -28.9420 C   0  0  0  0  0  0  0  0  0  0  0  0
   -3.4680   22.6230  -29.5190 C   0  0  0  0  0  0  0  0  0  0  0  0
   -3.3200   23.9030  -28.7840 C   0  0  0  0  0  0  0  0  0  0  0  0
   -4.4100   24.4560  -28.0440 N   0  0  0  0  0  0  0  0  0  0  0  0
   -2.2260   24.5280  -28.8220 O   0  0  0  0  0  0  0  0  0  0  0  0
   -4.0680   22.5940  -30.8770 C   0  0  0  0  0  0  0  0  0  0  0  0
   -3.3350   22.3800  -31.8810 O   0  0  0  0  0  0  0  0  0  0  0  0
   -5.4740   22.8220  -31.0760 N   0  0  0  0  0  0  0  0  0  0  0  0
   -6.1630   23.9930  -30.9540 C   0  0  0  0  0  0  0  0  0  0  0  0
   -5.6120   25.2740  -30.4650 C   0  0  0  0  0  0  0  0  0  0  0  0
   -4.2910   25.6640  -30.8310 N   0  0  0  0  0  0  0  0  0  0  0  0
   -6.3080   26.0440  -29.7510 O   0  0  0  0  0  0  0  0  0  0  0  0
   -7.5050   23.8050  -31.2800 C   0  0  0  0  0  0  0  0  0  0  0  0
   -7.6200   22.4690  -31.5930 C   0  0  0  0  0  0  0  0  0  0  0  0
   -8.7340   21.7330  -31.9850 C   0  0  0  0  0  0  0  0  0  0  0  0
   -8.5580   20.3660  -32.2580 C   0  0  0  0  0  0  0  0  0  0  0  0
   -7.2770   19.7670  -32.1460 C   0  0  0  0  0  0  0  0  0  0  0  0
   -7.1040   18.2940  -32.4150 C   0  0  0  0  0  0  0  0  0  0  0  0
   -6.1500   18.0230  -33.5560 C   0  0  0  0  0  0  0  0  0  0  0  0
   -6.1330   18.8010  -34.5510 O   0  0  0  0  0  0  0  0  0  0  0  0
   -5.2360   16.9050  -33.5130 N   0  0  0  0  0  0  0  0  0  0  0  0
   -4.3360   16.6760  -34.6480 C   0  0  0  0  0  0  0  0  0  0  0  0
   -5.1980   16.0110  -32.3510 C   0  0  0  0  0  0  0  0  0  0  0  0
   -6.1720   20.5450  -31.7330 C   0  0  0  0  0  0  0  0  0  0  0  0
   -6.3820   21.8990  -31.4560 C   0  0  0  0  0  0  0  0  0  0  0  0
   -3.1768   20.5281  -29.4794 H   0  0  0  0  0  0  0  0  0  0  0  0
   -2.6390   21.4985  -27.9305 H   0  0  0  0  0  0  0  0  0  0  0  0
   -4.2740   25.3250  -27.4820 H   0  0  0  0  0  0  0  0  0  0  0  0
   -5.3710   24.0560  -28.1160 H   0  0  0  0  0  0  0  0  0  0  0  0
   -3.5210   25.6770  -30.1260 H   0  0  0  0  0  0  0  0  0  0  0  0
   -8.3025   24.5626  -31.2860 H   0  0  0  0  0  0  0  0  0  0  0  0
   -9.7223   22.2069  -32.0783 H   0  0  0  0  0  0  0  0  0  0  0  0
   -9.4210   19.7550  -32.5612 H   0  0  0  0  0  0  0  0  0  0  0  0
   -6.7132   17.8128  -31.5063 H   0  0  0  0  0  0  0  0  0  0  0  0
   -8.0866   17.8876  -32.6966 H   0  0  0  0  0  0  0  0  0  0  0  0
   -3.3331   16.4208  -34.2750 H   0  0  0  0  0  0  0  0  0  0  0  0
   -4.7214   15.8473  -35.2602 H   0  0  0  0  0  0  0  0  0  0  0  0
   -4.2784   17.5881  -35.2602 H   0  0  0  0  0  0  0  0  0  0  0  0
   -5.2234   16.6084  -31.4277 H   0  0  0  0  0  0  0  0  0  0  0  0
   -6.0684   15.3389  -32.3769 H   0  0  0  0  0  0  0  0  0  0  0  0
   -4.2737   15.4152  -32.3769 H   0  0  0  0  0  0  0  0  0  0  0  0
   -5.1725   20.0968  -31.6321 H   0  0  0  0  0  0  0  0  0  0  0  0
  1  2  2  0
  2  3  1  0
  3  4  1  0
  3  5  2  0
  2  6  1  0
  6  7  2  0
  6  8  1  0
  8  9  1  0
  9 10  1  0
 10 11  1  0
 10 12  2  0
  9 13  2  0
 13 14  1  0
 14 15  2  0
 15 16  1  0
 16 17  2  0
 17 18  1  0
 18 19  1  0
 19 20  2  0
 19 21  1  0
 21 22  1  0
 21 23  1  0
 17 24  1  0
 24 25  2  0
 25  8  1  0
 25 14  1  0
  1 26  1  0
  1 27  1  0
  4 28  1  0
  4 29  1  0
 11 30  1  0
 13 31  1  0
 15 32  1  0
 16 33  1  0
 18 34  1  0
 18 35  1  0
 22 36  1  0
 22 37  1  0
 22 38  1  0
 23 39  1  0
 23 40  1  0
 23 41  1  0
 24 42  1  0
M  CHG  1  11  -1
M  END
>  <UniqueID>  (92) 
92

>  <SMILES>  (92) 
C=C(C(N)=O)C(=O)n1c(C([NH-])=O)cc2ccc(CC(=O)N(C)C)cc21

>  <Energy>  (92) 
80.18202940213955

>  <Genealogy>  (92) 
C=C(C(N)=O)C(=O)n1c(C([NH-])=O)cc2ccc(CC(=O)N(C)C)cc21 (protonated)
C=C(C(N)=O)C(=O)n1c(C([NH-])=O)cc2ccc(CC(=O)N(C)C)cc21 (3D coordinates assigned)
C=C(C(N)=O)C(=O)n1c(C([NH-])=O)cc2ccc(CC(=O)N(C)C)cc21 (optimized conformer: 80.18202940213955 kcal/mol)

>  <smiles>  (92) 
C=C(C(N)=O)C(=O)n1c(C(N)=O)cc2ccc(CC(=O)N(C)C)cc21

>  <score_type>  (92) 
oracle

>  <origin>  (92) 
adg

>  <m_score__min__energy>  (92) 
-11.31

>  <m_primary>  (92) 
energy

$$$$
93:0
     RDKit          3D

 50 51  0  0  0  0  0  0  0  0999 V2000
   -4.9680   15.4050  -32.5240 C   0  0  0  0  0  0  0  0  0  0  0  0
   -5.9100   15.9100  -33.5360 N   0  0  0  0  0  0  0  0  0  0  0  0
   -6.5920   14.8080  -34.2330 C   0  0  0  0  0  0  0  0  0  0  0  0
   -5.3060   16.9060  -34.4520 C   0  0  0  0  0  0  0  0  0  0  0  0
   -6.0310   18.2670  -34.5180 C   0  0  0  0  0  0  0  0  0  0  0  0
   -6.8630   18.4900  -33.3330 N   0  0  0  0  0  0  0  0  0  0  0  0
   -6.9950   19.7790  -32.7170 C   0  0  0  0  0  0  0  0  0  0  0  0
   -8.2730   20.3830  -32.6360 C   0  0  0  0  0  0  0  0  0  0  0  0
   -8.4340   21.6470  -32.0420 C   0  0  0  0  0  0  0  0  0  0  0  0
   -7.3010   22.2790  -31.5380 C   0  0  0  0  0  0  0  0  0  0  0  0
   -7.1690   23.5160  -30.9490 C   0  0  0  0  0  0  0  0  0  0  0  0
   -5.8110   23.6460  -30.6700 C   0  0  0  0  0  0  0  0  0  0  0  0
   -5.2310   24.8240  -29.9940 C   0  0  0  0  0  0  0  0  0  0  0  0
   -3.8780   25.2220  -30.2260 N   0  0  0  0  0  0  0  0  0  0  0  0
   -5.9250   25.4610  -29.1560 O   0  0  0  0  0  0  0  0  0  0  0  0
   -5.1250   22.5410  -31.0790 N   0  0  0  0  0  0  0  0  0  0  0  0
   -3.6970   22.3580  -31.0860 C   0  0  0  0  0  0  0  0  0  0  0  0
   -3.0310   22.7740  -32.0720 O   0  0  0  0  0  0  0  0  0  0  0  0
   -3.0140   21.7570  -29.9160 C   0  0  0  0  0  0  0  0  0  0  0  0
   -3.4670   20.6650  -29.4760 O   0  0  0  0  0  0  0  0  0  0  0  0
   -1.8550   22.3490  -29.2730 N   0  0  0  0  0  0  0  0  0  0  0  0
   -0.5370   21.7690  -29.5610 C   0  0  0  0  0  0  0  0  0  0  0  0
   -1.9450   23.4930  -28.3470 C   0  0  0  0  0  0  0  0  0  0  0  0
   -1.0840   24.6330  -28.8060 C   0  0  0  0  0  0  0  0  0  0  0  0
   -1.6020   25.6490  -29.3430 O   0  0  0  0  0  0  0  0  0  0  0  0
    0.2990   24.5450  -28.7000 O   0  0  0  0  0  0  0  0  0  0  0  0
   -6.0550   21.7120  -31.6100 C   0  0  0  0  0  0  0  0  0  0  0  0
   -5.8630   20.4690  -32.2240 C   0  0  0  0  0  0  0  0  0  0  0  0
   -5.3618   15.6161  -31.5188 H   0  0  0  0  0  0  0  0  0  0  0  0
   -4.8435   14.3192  -32.6484 H   0  0  0  0  0  0  0  0  0  0  0  0
   -3.9948   15.9023  -32.6484 H   0  0  0  0  0  0  0  0  0  0  0  0
   -7.0204   14.1157  -33.4933 H   0  0  0  0  0  0  0  0  0  0  0  0
   -7.3964   15.2149  -34.8634 H   0  0  0  0  0  0  0  0  0  0  0  0
   -5.8690   14.2696  -34.8634 H   0  0  0  0  0  0  0  0  0  0  0  0
   -4.2722   17.0874  -34.1227 H   0  0  0  0  0  0  0  0  0  0  0  0
   -5.3781   16.4740  -35.4610 H   0  0  0  0  0  0  0  0  0  0  0  0
   -5.2808   19.0688  -34.5841 H   0  0  0  0  0  0  0  0  0  0  0  0
   -6.6839   18.2677  -35.4033 H   0  0  0  0  0  0  0  0  0  0  0  0
   -7.1000   17.6500  -32.7570 H   0  0  0  0  0  0  0  0  0  0  0  0
   -9.1497   19.8574  -33.0424 H   0  0  0  0  0  0  0  0  0  0  0  0
   -9.4243   22.1216  -31.9776 H   0  0  0  0  0  0  0  0  0  0  0  0
   -7.9658   24.2458  -30.7428 H   0  0  0  0  0  0  0  0  0  0  0  0
   -3.4960   26.0700  -29.7540 H   0  0  0  0  0  0  0  0  0  0  0  0
   -3.2230   24.6200  -30.7700 H   0  0  0  0  0  0  0  0  0  0  0  0
   -0.0217   21.5423  -28.6160 H   0  0  0  0  0  0  0  0  0  0  0  0
   -0.6628   20.8431  -30.1414 H   0  0  0  0  0  0  0  0  0  0  0  0
    0.0608   22.4872  -30.1414 H   0  0  0  0  0  0  0  0  0  0  0  0
   -2.9904   23.8313  -28.2955 H   0  0  0  0  0  0  0  0  0  0  0  0
   -1.5928   23.1677  -27.3570 H   0  0  0  0  0  0  0  0  0  0  0  0
   -4.8553   20.0388  -32.3209 H   0  0  0  0  0  0  0  0  0  0  0  0
  1  2  1  0
  2  3  1  0
  2  4  1  0
  4  5  1  0
  5  6  1  0
  6  7  1  0
  7  8  2  0
  8  9  1  0
  9 10  2  0
 10 11  1  0
 11 12  2  0
 12 13  1  0
 13 14  1  0
 13 15  2  0
 12 16  1  0
 16 17  1  0
 17 18  2  0
 17 19  1  0
 19 20  2  0
 19 21  1  0
 21 22  1  0
 21 23  1  0
 23 24  1  0
 24 25  2  0
 24 26  1  0
 16 27  1  0
 27 28  2  0
 28  7  1  0
 27 10  1  0
  1 29  1  0
  1 30  1  0
  1 31  1  0
  3 32  1  0
  3 33  1  0
  3 34  1  0
  4 35  1  0
  4 36  1  0
  5 37  1  0
  5 38  1  0
  6 39  1  0
  8 40  1  0
  9 41  1  0
 11 42  1  0
 14 43  1  0
 14 44  1  0
 22 45  1  0
 22 46  1  0
 22 47  1  0
 23 48  1  0
 23 49  1  0
 28 50  1  0
M  CHG  1  26  -1
M  END
>  <UniqueID>  (93) 
93

>  <SMILES>  (93) 
CN(C)CCNc1ccc2cc(C(N)=O)n(C(=O)C(=O)N(C)CC(=O)[O-])c2c1

>  <Energy>  (93) 
93.18209928368503

>  <Genealogy>  (93) 
CN(C)CCNc1ccc2cc(C(N)=O)n(C(=O)C(=O)N(C)CC(=O)[O-])c2c1 (protonated)
CN(C)CCNc1ccc2cc(C(N)=O)n(C(=O)C(=O)N(C)CC(=O)[O-])c2c1 (3D coordinates assigned)
CN(C)CCNc1ccc2cc(C(N)=O)n(C(=O)C(=O)N(C)CC(=O)[O-])c2c1 (optimized conformer: 93.18209928368503 kcal/mol)

>  <smiles>  (93) 
CN(C)CCNc1ccc2cc(C(N)=O)n(C(=O)C(=O)N(C)CC(=O)O)c2c1

>  <score_type>  (93) 
oracle

>  <origin>  (93) 
adg

>  <m_score__min__energy>  (93) 
-11.02

>  <m_primary>  (93) 
energy

$$$$
94:0
     RDKit          3D

 45 46  0  0  0  0  0  0  0  0999 V2000
   -5.3870   14.1440  -34.2970 C   0  0  0  0  0  0  0  0  0  0  0  0
   -5.1780   15.3850  -33.5450 N   0  0  0  0  0  0  0  0  0  0  0  0
   -3.9660   15.5570  -32.7380 C   0  0  0  0  0  0  0  0  0  0  0  0
   -6.1890   16.4160  -33.6000 C   0  0  0  0  0  0  0  0  0  0  0  0
   -7.2690   16.1960  -34.2140 O   0  0  0  0  0  0  0  0  0  0  0  0
   -6.0210   17.7350  -32.8860 C   0  0  0  0  0  0  0  0  0  0  0  0
   -7.2180   18.5650  -33.0320 N   0  0  0  0  0  0  0  0  0  0  0  0
   -7.3350   19.9130  -32.5330 C   0  0  0  0  0  0  0  0  0  0  0  0
   -8.5940   20.5630  -32.4220 C   0  0  0  0  0  0  0  0  0  0  0  0
   -8.6820   21.8790  -31.9410 C   0  0  0  0  0  0  0  0  0  0  0  0
   -7.5050   22.5210  -31.5750 C   0  0  0  0  0  0  0  0  0  0  0  0
   -7.3020   23.7990  -31.1040 C   0  0  0  0  0  0  0  0  0  0  0  0
   -5.9270   23.9080  -30.9100 C   0  0  0  0  0  0  0  0  0  0  0  0
   -5.2820   25.1010  -30.3240 C   0  0  0  0  0  0  0  0  0  0  0  0
   -4.0550   25.6040  -30.8470 N   0  0  0  0  0  0  0  0  0  0  0  0
   -5.7960   25.6560  -29.3160 O   0  0  0  0  0  0  0  0  0  0  0  0
   -5.3020   22.7460  -31.2580 N   0  0  0  0  0  0  0  0  0  0  0  0
   -3.8920   22.4750  -31.2830 C   0  0  0  0  0  0  0  0  0  0  0  0
   -3.2350   22.6470  -32.3470 O   0  0  0  0  0  0  0  0  0  0  0  0
   -3.2580   21.9940  -30.1340 O   0  0  0  0  0  0  0  0  0  0  0  0
   -1.9570   22.4140  -29.7390 C   0  0  0  0  0  0  0  0  0  0  0  0
   -2.0760   23.4380  -28.6140 C   0  0  0  0  0  0  0  0  0  0  0  0
   -1.1540   24.5910  -28.8510 C   0  0  0  0  0  0  0  0  0  0  0  0
   -1.6020   25.6760  -29.3070 O   0  0  0  0  0  0  0  0  0  0  0  0
    0.2070   24.4520  -28.6150 O   0  0  0  0  0  0  0  0  0  0  0  0
   -6.2820   21.9070  -31.6590 C   0  0  0  0  0  0  0  0  0  0  0  0
   -6.1630   20.6020  -32.1510 C   0  0  0  0  0  0  0  0  0  0  0  0
   -5.5276   13.3090  -33.5948 H   0  0  0  0  0  0  0  0  0  0  0  0
   -6.2808   14.2451  -34.9302 H   0  0  0  0  0  0  0  0  0  0  0  0
   -4.5094   13.9468  -34.9302 H   0  0  0  0  0  0  0  0  0  0  0  0
   -4.2281   15.5198  -31.6703 H   0  0  0  0  0  0  0  0  0  0  0  0
   -3.2541   14.7509  -32.9691 H   0  0  0  0  0  0  0  0  0  0  0  0
   -3.5065   16.5294  -32.9691 H   0  0  0  0  0  0  0  0  0  0  0  0
   -5.8424   17.5456  -31.8172 H   0  0  0  0  0  0  0  0  0  0  0  0
   -5.1675   18.2684  -33.3300 H   0  0  0  0  0  0  0  0  0  0  0  0
   -8.0360   18.1420  -33.5270 H   0  0  0  0  0  0  0  0  0  0  0  0
   -9.5096   20.0291  -32.7162 H   0  0  0  0  0  0  0  0  0  0  0  0
   -9.6540   22.3870  -31.8563 H   0  0  0  0  0  0  0  0  0  0  0  0
   -8.0643   24.5704  -30.9200 H   0  0  0  0  0  0  0  0  0  0  0  0
   -3.1370   25.2740  -30.4770 H   0  0  0  0  0  0  0  0  0  0  0  0
   -1.3822   21.5453  -29.3855 H   0  0  0  0  0  0  0  0  0  0  0  0
   -1.4408   22.8688  -30.5973 H   0  0  0  0  0  0  0  0  0  0  0  0
   -3.1114   23.8066  -28.5689 H   0  0  0  0  0  0  0  0  0  0  0  0
   -1.8020   22.9547  -27.6646 H   0  0  0  0  0  0  0  0  0  0  0  0
   -5.1767   20.1229  -32.2383 H   0  0  0  0  0  0  0  0  0  0  0  0
  1  2  1  0
  2  3  1  0
  2  4  1  0
  4  5  2  0
  4  6  1  0
  6  7  1  0
  7  8  1  0
  8  9  2  0
  9 10  1  0
 10 11  2  0
 11 12  1  0
 12 13  2  0
 13 14  1  0
 14 15  1  0
 14 16  2  0
 13 17  1  0
 17 18  1  0
 18 19  2  0
 18 20  1  0
 20 21  1  0
 21 22  1  0
 22 23  1  0
 23 24  2  0
 23 25  1  0
 17 26  1  0
 26 27  2  0
 27  8  1  0
 26 11  1  0
  1 28  1  0
  1 29  1  0
  1 30  1  0
  3 31  1  0
  3 32  1  0
  3 33  1  0
  6 34  1  0
  6 35  1  0
  7 36  1  0
  9 37  1  0
 10 38  1  0
 12 39  1  0
 15 40  1  0
 21 41  1  0
 21 42  1  0
 22 43  1  0
 22 44  1  0
 27 45  1  0
M  CHG  2  15  -1  25  -1
M  END
>  <UniqueID>  (94) 
94

>  <SMILES>  (94) 
CN(C)C(=O)CNc1ccc2cc(C([NH-])=O)n(C(=O)OCCC(=O)[O-])c2c1

>  <Energy>  (94) 
75.67744719074838

>  <Genealogy>  (94) 
CN(C)C(=O)CNc1ccc2cc(C([NH-])=O)n(C(=O)OCCC(=O)[O-])c2c1 (protonated)
CN(C)C(=O)CNc1ccc2cc(C([NH-])=O)n(C(=O)OCCC(=O)[O-])c2c1 (3D coordinates assigned)
CN(C)C(=O)CNc1ccc2cc(C([NH-])=O)n(C(=O)OCCC(=O)[O-])c2c1 (optimized conformer: 75.67744719074838 kcal/mol)

>  <smiles>  (94) 
CN(C)C(=O)CNc1ccc2cc(C(N)=O)n(C(=O)OCCC(=O)O)c2c1

>  <score_type>  (94) 
oracle

>  <origin>  (94) 
adg

>  <m_score__min__energy>  (94) 
-12.76

>  <m_primary>  (94) 
energy

$$$$
95:0
     RDKit          3D

 38 39  0  0  0  0  0  0  0  0999 V2000
   -3.9040   25.6510  -30.8430 N   0  0  0  0  0  0  0  0  0  0  0  0
   -5.2590   25.3060  -30.5680 C   0  0  0  0  0  0  0  0  0  0  0  0
   -5.9900   26.1270  -29.9520 O   0  0  0  0  0  0  0  0  0  0  0  0
   -5.8080   23.9920  -30.9670 C   0  0  0  0  0  0  0  0  0  0  0  0
   -7.1330   23.7930  -31.3520 C   0  0  0  0  0  0  0  0  0  0  0  0
   -7.2430   22.4420  -31.5940 C   0  0  0  0  0  0  0  0  0  0  0  0
   -8.3330   21.6960  -32.0330 C   0  0  0  0  0  0  0  0  0  0  0  0
   -8.1480   20.3170  -32.2370 C   0  0  0  0  0  0  0  0  0  0  0  0
   -6.8900   19.7090  -31.9890 C   0  0  0  0  0  0  0  0  0  0  0  0
   -6.6880   18.2410  -32.2690 C   0  0  0  0  0  0  0  0  0  0  0  0
   -5.8520   18.0620  -33.3570 F   0  0  0  0  0  0  0  0  0  0  0  0
   -7.9120   17.6570  -32.5400 F   0  0  0  0  0  0  0  0  0  0  0  0
   -6.1190   17.6090  -31.1770 F   0  0  0  0  0  0  0  0  0  0  0  0
   -5.8020   20.5070  -31.5680 C   0  0  0  0  0  0  0  0  0  0  0  0
   -6.0200   21.8720  -31.3570 C   0  0  0  0  0  0  0  0  0  0  0  0
   -5.1300   22.8100  -30.9680 N   0  0  0  0  0  0  0  0  0  0  0  0
   -3.7330   22.5990  -30.7090 C   0  0  0  0  0  0  0  0  0  0  0  0
   -2.8860   23.3240  -31.2930 O   0  0  0  0  0  0  0  0  0  0  0  0
   -3.3040   21.5510  -29.7540 C   0  0  0  0  0  0  0  0  0  0  0  0
   -3.0150   20.4100  -30.2000 O   0  0  0  0  0  0  0  0  0  0  0  0
   -3.2040   21.7720  -28.3400 N   0  0  0  0  0  0  0  0  0  0  0  0
   -2.1320   22.4880  -27.6550 C   0  0  0  0  0  0  0  0  0  0  0  0
   -2.4360   23.9950  -27.6080 C   0  0  2  0  0  0  0  0  0  0  0  0
   -3.5730   24.2820  -28.3810 O   0  0  0  0  0  0  0  0  0  0  0  0
   -1.2580   24.8380  -28.1210 C   0  0  0  0  0  0  0  0  0  0  0  0
   -1.5720   25.4530  -29.3410 O   0  0  0  0  0  0  0  0  0  0  0  0
   -3.1210   25.2350  -30.2890 H   0  0  0  0  0  0  0  0  0  0  0  0
   -7.9226   24.5534  -31.4431 H   0  0  0  0  0  0  0  0  0  0  0  0
   -9.3087   22.1703  -32.2147 H   0  0  0  0  0  0  0  0  0  0  0  0
   -8.9881   19.7025  -32.5929 H   0  0  0  0  0  0  0  0  0  0  0  0
   -4.8073   20.0647  -31.4101 H   0  0  0  0  0  0  0  0  0  0  0  0
   -2.0394   22.1051  -26.6280 H   0  0  0  0  0  0  0  0  0  0  0  0
   -1.1917   22.3314  -28.2040 H   0  0  0  0  0  0  0  0  0  0  0  0
   -2.6142   24.2563  -26.5544 H   0  0  0  0  0  0  0  0  0  0  0  0
   -3.3080   24.1760  -29.3320 H   0  0  0  0  0  0  0  0  0  0  0  0
   -1.0207   25.6137  -27.3781 H   0  0  0  0  0  0  0  0  0  0  0  0
   -0.3944   24.1745  -28.2759 H   0  0  0  0  0  0  0  0  0  0  0  0
   -2.0760   24.7840  -29.8740 H   0  0  0  0  0  0  0  0  0  0  0  0
  1  2  1  0
  2  3  2  0
  2  4  1  0
  4  5  2  0
  5  6  1  0
  6  7  2  0
  7  8  1  0
  8  9  2  0
  9 10  1  0
 10 11  1  0
 10 12  1  0
 10 13  1  0
  9 14  1  0
 14 15  2  0
 15 16  1  0
 16 17  1  0
 17 18  2  0
 17 19  1  0
 19 20  2  0
 19 21  1  0
 21 22  1  0
 22 23  1  0
 23 24  1  0
 23 25  1  0
 25 26  1  0
 16  4  1  0
 15  6  1  0
  1 27  1  0
  5 28  1  0
  7 29  1  0
  8 30  1  0
 14 31  1  0
 22 32  1  0
 22 33  1  0
 23 34  1  1
 24 35  1  0
 25 36  1  0
 25 37  1  0
 26 38  1  0
M  CHG  2   1  -1  21  -1
M  END
>  <UniqueID>  (95) 
95

>  <SMILES>  (95) 
[NH-]C(=O)c1cc2ccc(C(F)(F)F)cc2n1C(=O)C(=O)[N-]C[C@H](O)CO

>  <Energy>  (95) 
75.25303368882291

>  <Genealogy>  (95) 
[NH-]C(=O)c1cc2ccc(C(F)(F)F)cc2n1C(=O)C(=O)[N-]C[C@H](O)CO (protonated)
[NH-]C(=O)c1cc2ccc(C(F)(F)F)cc2n1C(=O)C(=O)[N-]C[C@H](O)CO (3D coordinates assigned)
[NH-]C(=O)c1cc2ccc(C(F)(F)F)cc2n1C(=O)C(=O)[N-]C[C@H](O)CO (optimized conformer: 75.25303368882291 kcal/mol)

>  <smiles>  (95) 
NC(=O)c1cc2ccc(C(F)(F)F)cc2n1C(=O)C(=O)NC[C@H](O)CO

>  <score_type>  (95) 
oracle

>  <origin>  (95) 
adg

>  <m_score__min__energy>  (95) 
-9.6600000000000001

>  <m_primary>  (95) 
energy

$$$$
96:0
     RDKit          3D

 46 48  0  0  0  0  0  0  0  0999 V2000
   -3.9660   22.6660  -28.3710 C   0  0  0  0  0  0  0  0  0  0  0  0
   -3.0390   22.7250  -29.5050 N   0  0  0  0  0  0  0  0  0  0  0  0
   -1.6100   22.9680  -29.2710 C   0  0  0  0  0  0  0  0  0  0  0  0
   -1.3420   24.4220  -29.0330 C   0  0  0  0  0  0  0  0  0  0  0  0
   -2.2190   25.2810  -29.3160 O   0  0  0  0  0  0  0  0  0  0  0  0
   -0.1150   24.8360  -28.5300 O   0  0  0  0  0  0  0  0  0  0  0  0
   -3.5330   22.4330  -30.8280 C   0  0  0  0  0  0  0  0  0  0  0  0
   -2.7280   22.1040  -31.7410 O   0  0  0  0  0  0  0  0  0  0  0  0
   -4.9350   22.5060  -31.1220 N   0  0  0  0  0  0  0  0  0  0  0  0
   -5.7530   23.5880  -31.0080 C   0  0  0  0  0  0  0  0  0  0  0  0
   -5.3780   24.8960  -30.4320 C   0  0  0  0  0  0  0  0  0  0  0  0
   -4.1110   25.4950  -30.7060 N   0  0  0  0  0  0  0  0  0  0  0  0
   -6.1760   25.4780  -29.6500 O   0  0  0  0  0  0  0  0  0  0  0  0
   -7.0120   23.3050  -31.5340 C   0  0  0  0  0  0  0  0  0  0  0  0
   -6.9360   22.0050  -31.9800 C   0  0  0  0  0  0  0  0  0  0  0  0
   -7.8890   21.2140  -32.6150 C   0  0  0  0  0  0  0  0  0  0  0  0
   -7.5140   19.9150  -33.0040 C   0  0  0  0  0  0  0  0  0  0  0  0
   -6.1980   19.4440  -32.7760 C   0  0  0  0  0  0  0  0  0  0  0  0
   -5.8330   18.1030  -33.1540 N   0  0  0  0  0  0  0  0  0  0  0  0
   -4.5220   17.9190  -33.8050 C   0  0  0  0  0  0  0  0  0  0  0  0
   -3.7150   16.6860  -33.3340 C   0  0  0  0  0  0  0  0  0  0  0  0
   -3.9510   15.4880  -34.0400 O   0  0  0  0  0  0  0  0  0  0  0  0
   -5.3200   14.6800  -33.3630 S   0  0  0  0  0  0  0  0  0  0  0  0
   -6.5300   15.8750  -34.0550 C   0  0  0  0  0  0  0  0  0  0  0  0
   -6.8650   17.0520  -33.1220 C   0  0  0  0  0  0  0  0  0  0  0  0
   -5.2520   20.2870  -32.1530 C   0  0  0  0  0  0  0  0  0  0  0  0
   -5.6670   21.5540  -31.7340 C   0  0  0  0  0  0  0  0  0  0  0  0
   -3.3972   22.7022  -27.4302 H   0  0  0  0  0  0  0  0  0  0  0  0
   -4.6553   23.5221  -28.4159 H   0  0  0  0  0  0  0  0  0  0  0  0
   -4.5412   21.7294  -28.4159 H   0  0  0  0  0  0  0  0  0  0  0  0
   -1.2877   22.3943  -28.3895 H   0  0  0  0  0  0  0  0  0  0  0  0
   -1.0511   22.6514  -30.1640 H   0  0  0  0  0  0  0  0  0  0  0  0
   -3.3420   24.9520  -31.1560 H   0  0  0  0  0  0  0  0  0  0  0  0
   -3.8930   26.4460  -30.3360 H   0  0  0  0  0  0  0  0  0  0  0  0
   -7.8813   23.9772  -31.5825 H   0  0  0  0  0  0  0  0  0  0  0  0
   -8.9038   21.5927  -32.8068 H   0  0  0  0  0  0  0  0  0  0  0  0
   -8.2505   19.2584  -33.4902 H   0  0  0  0  0  0  0  0  0  0  0  0
   -4.6913   17.8206  -34.8874 H   0  0  0  0  0  0  0  0  0  0  0  0
   -3.9207   18.7981  -33.5300 H   0  0  0  0  0  0  0  0  0  0  0  0
   -2.6459   16.9272  -33.4278 H   0  0  0  0  0  0  0  0  0  0  0  0
   -4.0430   16.4925  -32.3020 H   0  0  0  0  0  0  0  0  0  0  0  0
   -6.1153   16.2831  -34.9885 H   0  0  0  0  0  0  0  0  0  0  0  0
   -7.4670   15.3197  -34.2091 H   0  0  0  0  0  0  0  0  0  0  0  0
   -7.8247   17.4891  -33.4348 H   0  0  0  0  0  0  0  0  0  0  0  0
   -6.9165   16.6625  -32.0946 H   0  0  0  0  0  0  0  0  0  0  0  0
   -4.2144   19.9548  -32.0013 H   0  0  0  0  0  0  0  0  0  0  0  0
  1  2  1  0
  2  3  1  0
  3  4  1  0
  4  5  2  0
  4  6  1  0
  2  7  1  0
  7  8  2  0
  7  9  1  0
  9 10  1  0
 10 11  1  0
 11 12  1  0
 11 13  2  0
 10 14  2  0
 14 15  1  0
 15 16  2  0
 16 17  1  0
 17 18  2  0
 18 19  1  0
 19 20  1  0
 20 21  1  0
 21 22  1  0
 22 23  1  0
 23 24  1  0
 24 25  1  0
 18 26  1  0
 26 27  2  0
 27  9  1  0
 27 15  1  0
 25 19  1  0
  1 28  1  0
  1 29  1  0
  1 30  1  0
  3 31  1  0
  3 32  1  0
 12 33  1  0
 12 34  1  0
 14 35  1  0
 16 36  1  0
 17 37  1  0
 20 38  1  0
 20 39  1  0
 21 40  1  0
 21 41  1  0
 24 42  1  0
 24 43  1  0
 25 44  1  0
 25 45  1  0
 26 46  1  0
M  CHG  1   6  -1
M  END
>  <UniqueID>  (96) 
96

>  <SMILES>  (96) 
CN(CC(=O)[O-])C(=O)n1c(C(N)=O)cc2ccc(N3CCOSCC3)cc21

>  <Energy>  (96) 
98.14081606868707

>  <Genealogy>  (96) 
CN(CC(=O)[O-])C(=O)n1c(C(N)=O)cc2ccc(N3CCOSCC3)cc21 (protonated)
CN(CC(=O)[O-])C(=O)n1c(C(N)=O)cc2ccc(N3CCOSCC3)cc21 (3D coordinates assigned)
CN(CC(=O)[O-])C(=O)n1c(C(N)=O)cc2ccc(N3CCOSCC3)cc21 (nonaromatic ring conformer: 98.14081606868707 kcal/mol)

>  <smiles>  (96) 
CN(CC(=O)O)C(=O)n1c(C(N)=O)cc2ccc(N3CCOSCC3)cc21

>  <score_type>  (96) 
oracle

>  <origin>  (96) 
adg

>  <m_score__min__energy>  (96) 
-9.6500000000000004

>  <m_primary>  (96) 
energy

$$$$
97:0
     RDKit          3D

 47 48  0  0  0  0  0  0  0  0999 V2000
    0.2130   21.4000  -28.5250 C   0  0  0  0  0  0  0  0  0  0  0  0
   -1.0380   21.8900  -29.1360 N   0  0  1  0  0  0  0  0  0  0  0  0
   -1.7230   20.8310  -29.9080 C   0  0  0  0  0  0  0  0  0  0  0  0
   -0.9650   20.4730  -31.1540 C   0  0  0  0  0  0  0  0  0  0  0  0
   -0.0560   19.6000  -31.1050 O   0  0  0  0  0  0  0  0  0  0  0  0
   -1.2960   21.0930  -32.3620 O   0  0  0  0  0  0  0  0  0  0  0  0
   -2.5930   21.0070  -32.9470 C   0  0  0  0  0  0  0  0  0  0  0  0
   -3.2580   22.2640  -32.8620 O   0  0  0  0  0  0  0  0  0  0  0  0
   -3.7120   22.8050  -31.6550 C   0  0  0  0  0  0  0  0  0  0  0  0
   -2.8890   23.1840  -30.7780 O   0  0  0  0  0  0  0  0  0  0  0  0
   -5.1220   22.9140  -31.4100 N   0  0  0  0  0  0  0  0  0  0  0  0
   -5.7950   23.9540  -30.8400 C   0  0  0  0  0  0  0  0  0  0  0  0
   -5.2170   25.2630  -30.4740 C   0  0  0  0  0  0  0  0  0  0  0  0
   -3.9000   25.6020  -30.9040 N   0  0  0  0  0  0  0  0  0  0  0  0
   -5.8580   26.0730  -29.7560 O   0  0  0  0  0  0  0  0  0  0  0  0
   -7.1500   23.6500  -30.7210 C   0  0  0  0  0  0  0  0  0  0  0  0
   -7.2880   22.3860  -31.2490 C   0  0  0  0  0  0  0  0  0  0  0  0
   -8.4190   21.5850  -31.3680 C   0  0  0  0  0  0  0  0  0  0  0  0
   -8.2640   20.3030  -31.9250 C   0  0  0  0  0  0  0  0  0  0  0  0
   -6.9910   19.8510  -32.3610 C   0  0  0  0  0  0  0  0  0  0  0  0
   -6.8250   18.4530  -32.8980 C   0  0  0  0  0  0  0  0  0  0  0  0
   -6.4930   18.4810  -34.2410 F   0  0  0  0  0  0  0  0  0  0  0  0
   -5.8190   17.8130  -32.1990 F   0  0  0  0  0  0  0  0  0  0  0  0
   -7.9990   17.7320  -32.7580 F   0  0  0  0  0  0  0  0  0  0  0  0
   -5.8620   20.6880  -32.2010 C   0  0  0  0  0  0  0  0  0  0  0  0
   -6.0510   21.9650  -31.6590 C   0  0  0  0  0  0  0  0  0  0  0  0
   -1.9230   22.3890  -28.1020 C   0  0  0  0  0  0  0  0  0  0  0  0
   -2.2820   21.6560  -27.1890 O   0  0  0  0  0  0  0  0  0  0  0  0
   -2.3890   23.8190  -28.1160 C   0  0  0  0  0  0  0  0  0  0  0  0
   -1.3280   24.6980  -28.6930 C   0  0  0  0  0  0  0  0  0  0  0  0
   -0.1920   24.2270  -28.9600 O   0  0  0  0  0  0  0  0  0  0  0  0
   -1.6070   26.0280  -28.9810 O   0  0  0  0  0  0  0  0  0  0  0  0
    0.1240   21.4348  -27.4292 H   0  0  0  0  0  0  0  0  0  0  0  0
    0.3961   20.3637  -28.8452 H   0  0  0  0  0  0  0  0  0  0  0  0
    1.0512   22.0363  -28.8452 H   0  0  0  0  0  0  0  0  0  0  0  0
   -0.7930   22.6770  -29.7830 H   0  0  0  0  0  0  0  0  0  0  0  0
   -1.8166   19.9343  -29.2777 H   0  0  0  0  0  0  0  0  0  0  0  0
   -2.7123   21.2090  -30.2053 H   0  0  0  0  0  0  0  0  0  0  0  0
   -2.4959   20.7186  -34.0041 H   0  0  0  0  0  0  0  0  0  0  0  0
   -3.1815   20.2533  -32.4033 H   0  0  0  0  0  0  0  0  0  0  0  0
   -3.0620   25.2810  -30.3710 H   0  0  0  0  0  0  0  0  0  0  0  0
   -7.9411   24.2850  -30.2956 H   0  0  0  0  0  0  0  0  0  0  0  0
   -9.4047   21.9434  -31.0365 H   0  0  0  0  0  0  0  0  0  0  0  0
   -9.1387   19.6434  -32.0239 H   0  0  0  0  0  0  0  0  0  0  0  0
   -4.8595   20.3438  -32.4954 H   0  0  0  0  0  0  0  0  0  0  0  0
   -3.3001   23.8990  -28.7272 H   0  0  0  0  0  0  0  0  0  0  0  0
   -2.6011   24.1391  -27.0852 H   0  0  0  0  0  0  0  0  0  0  0  0
  1  2  1  0
  2  3  1  0
  3  4  1  0
  4  5  2  0
  4  6  1  0
  6  7  1  0
  7  8  1  0
  8  9  1  0
  9 10  2  0
  9 11  1  0
 11 12  1  0
 12 13  1  0
 13 14  1  0
 13 15  2  0
 12 16  2  0
 16 17  1  0
 17 18  2  0
 18 19  1  0
 19 20  2  0
 20 21  1  0
 21 22  1  0
 21 23  1  0
 21 24  1  0
 20 25  1  0
 25 26  2  0
  2 27  1  0
 27 28  2  0
 27 29  1  0
 29 30  1  0
 30 31  2  0
 30 32  1  0
 26 11  1  0
 26 17  1  0
  1 33  1  0
  1 34  1  0
  1 35  1  0
  2 36  1  6
  3 37  1  0
  3 38  1  0
  7 39  1  0
  7 40  1  0
 14 41  1  0
 16 42  1  0
 18 43  1  0
 19 44  1  0
 25 45  1  0
 29 46  1  0
 29 47  1  0
M  CHG  3   2   1  14  -1  32  -1
M  END
>  <UniqueID>  (97) 
97

>  <SMILES>  (97) 
C[N@@H+](CC(=O)OCOC(=O)n1c(C([NH-])=O)cc2ccc(C(F)(F)F)cc21)C(=O)CC(=O)[O-]

>  <Energy>  (97) 
80.7439684046151

>  <Genealogy>  (97) 
C[NH+](CC(=O)OCOC(=O)n1c(C([NH-])=O)cc2ccc(C(F)(F)F)cc21)C(=O)CC(=O)[O-] (protonated)
C[N@@H+](CC(=O)OCOC(=O)n1c(C([NH-])=O)cc2ccc(C(F)(F)F)cc21)C(=O)CC(=O)[O-] (chirality)
C[N@@H+](CC(=O)OCOC(=O)n1c(C([NH-])=O)cc2ccc(C(F)(F)F)cc21)C(=O)CC(=O)[O-] (3D coordinates assigned)
C[N@@H+](CC(=O)OCOC(=O)n1c(C([NH-])=O)cc2ccc(C(F)(F)F)cc21)C(=O)CC(=O)[O-] (optimized conformer: 80.7439684046151 kcal/mol)

>  <smiles>  (97) 
CN(CC(=O)OCOC(=O)n1c(C(N)=O)cc2ccc(C(F)(F)F)cc21)C(=O)CC(=O)O

>  <score_type>  (97) 
oracle

>  <origin>  (97) 
adg

>  <m_score__min__energy>  (97) 
-10.789999999999999

>  <m_primary>  (97) 
energy

$$$$
98:0
     RDKit          3D

 40 41  0  0  0  0  0  0  0  0999 V2000
   -0.7070   22.2870  -29.4920 C   0  0  0  0  0  0  0  0  0  0  0  0
   -1.5520   23.1370  -28.5350 C   0  0  1  0  0  0  0  0  0  0  0  0
   -1.3360   24.6120  -28.7500 C   0  0  0  0  0  0  0  0  0  0  0  0
   -2.2170   25.2940  -29.3370 O   0  0  0  0  0  0  0  0  0  0  0  0
   -0.1500   25.2250  -28.3610 O   0  0  0  0  0  0  0  0  0  0  0  0
   -2.9840   22.8050  -28.6560 N   0  0  0  0  0  0  0  0  0  0  0  0
   -3.9370   23.1590  -27.5960 C   0  0  0  0  0  0  0  0  0  0  0  0
   -3.4630   22.0050  -29.7530 C   0  0  0  0  0  0  0  0  0  0  0  0
   -3.4500   20.7490  -29.6520 O   0  0  0  0  0  0  0  0  0  0  0  0
   -3.9880   22.6200  -30.9910 C   0  0  0  0  0  0  0  0  0  0  0  0
   -3.1970   23.0110  -31.8910 O   0  0  0  0  0  0  0  0  0  0  0  0
   -5.4000   22.7900  -31.1780 N   0  0  0  0  0  0  0  0  0  0  0  0
   -6.1460   23.8880  -30.8750 C   0  0  0  0  0  0  0  0  0  0  0  0
   -5.6020   25.1770  -30.3830 C   0  0  0  0  0  0  0  0  0  0  0  0
   -4.2400   25.5390  -30.6180 N   0  0  0  0  0  0  0  0  0  0  0  0
   -6.3410   25.9660  -29.7360 O   0  0  0  0  0  0  0  0  0  0  0  0
   -7.4940   23.6450  -31.1400 C   0  0  0  0  0  0  0  0  0  0  0  0
   -7.5470   22.3490  -31.6060 C   0  0  0  0  0  0  0  0  0  0  0  0
   -8.6400   21.5820  -32.0010 C   0  0  0  0  0  0  0  0  0  0  0  0
   -8.4010   20.2580  -32.4080 C   0  0  0  0  0  0  0  0  0  0  0  0
   -7.0860   19.7270  -32.4060 C   0  0  0  0  0  0  0  0  0  0  0  0
   -6.8360   18.3070  -32.8250 C   0  0  0  0  0  0  0  0  0  0  0  0
   -6.2860   17.6000  -31.7710 F   0  0  0  0  0  0  0  0  0  0  0  0
   -5.9620   18.2820  -33.8970 F   0  0  0  0  0  0  0  0  0  0  0  0
   -6.0030   20.5370  -31.9950 C   0  0  0  0  0  0  0  0  0  0  0  0
   -6.2700   21.8550  -31.6140 C   0  0  0  0  0  0  0  0  0  0  0  0
   -0.0488   21.6249  -28.9103 H   0  0  0  0  0  0  0  0  0  0  0  0
   -1.3701   21.6800  -30.1260 H   0  0  0  0  0  0  0  0  0  0  0  0
   -0.0961   22.9465  -30.1260 H   0  0  0  0  0  0  0  0  0  0  0  0
   -1.2195   22.8965  -27.5144 H   0  0  0  0  0  0  0  0  0  0  0  0
   -3.4733   22.9867  -26.6135 H   0  0  0  0  0  0  0  0  0  0  0  0
   -4.2130   24.2196  -27.6903 H   0  0  0  0  0  0  0  0  0  0  0  0
   -4.8385   22.5358  -27.6903 H   0  0  0  0  0  0  0  0  0  0  0  0
   -3.8660   26.4350  -30.2350 H   0  0  0  0  0  0  0  0  0  0  0  0
   -3.6100   24.9510  -31.2050 H   0  0  0  0  0  0  0  0  0  0  0  0
   -8.3358   24.3402  -31.0056 H   0  0  0  0  0  0  0  0  0  0  0  0
   -9.6579   21.9989  -31.9947 H   0  0  0  0  0  0  0  0  0  0  0  0
   -9.2424   19.6274  -32.7313 H   0  0  0  0  0  0  0  0  0  0  0  0
   -7.7905   17.8463  -33.1194 H   0  0  0  0  0  0  0  0  0  0  0  0
   -4.9771   20.1405  -31.9755 H   0  0  0  0  0  0  0  0  0  0  0  0
  1  2  1  0
  2  3  1  0
  3  4  2  0
  3  5  1  0
  2  6  1  0
  6  7  1  0
  6  8  1  0
  8  9  2  0
  8 10  1  0
 10 11  2  0
 10 12  1  0
 12 13  1  0
 13 14  1  0
 14 15  1  0
 14 16  2  0
 13 17  2  0
 17 18  1  0
 18 19  2  0
 19 20  1  0
 20 21  2  0
 21 22  1  0
 22 23  1  0
 22 24  1  0
 21 25  1  0
 25 26  2  0
 26 12  1  0
 26 18  1  0
  1 27  1  0
  1 28  1  0
  1 29  1  0
  2 30  1  1
  7 31  1  0
  7 32  1  0
  7 33  1  0
 15 34  1  0
 15 35  1  0
 17 36  1  0
 19 37  1  0
 20 38  1  0
 22 39  1  0
 25 40  1  0
M  CHG  1   5  -1
M  END
>  <UniqueID>  (98) 
98

>  <SMILES>  (98) 
C[C@@H](C(=O)[O-])N(C)C(=O)C(=O)n1c(C(N)=O)cc2ccc(C(F)F)cc21

>  <Energy>  (98) 
80.08822827048067

>  <Genealogy>  (98) 
CC(C(=O)[O-])N(C)C(=O)C(=O)n1c(C(N)=O)cc2ccc(C(F)F)cc21 (protonated)
C[C@@H](C(=O)[O-])N(C)C(=O)C(=O)n1c(C(N)=O)cc2ccc(C(F)F)cc21 (chirality)
C[C@@H](C(=O)[O-])N(C)C(=O)C(=O)n1c(C(N)=O)cc2ccc(C(F)F)cc21 (3D coordinates assigned)
C[C@@H](C(=O)[O-])N(C)C(=O)C(=O)n1c(C(N)=O)cc2ccc(C(F)F)cc21 (optimized conformer: 80.08822827048067 kcal/mol)

>  <smiles>  (98) 
CC(C(=O)O)N(C)C(=O)C(=O)n1c(C(N)=O)cc2ccc(C(F)F)cc21

>  <score_type>  (98) 
oracle

>  <origin>  (98) 
adg

>  <m_score__min__energy>  (98) 
-10.82

>  <m_primary>  (98) 
energy

$$$$
