0:0
     RDKit          3D

 46 48  0  0  0  0  0  0  0  0999 V2000
   -0.7500   22.9010  -26.2850 C   0  0  0  0  0  0  0  0  0  0  0  0
   -0.8440   24.3760  -26.3740 N   0  0  0  0  0  0  0  0  0  0  0  0
   -0.9810   24.9720  -25.0340 C   0  0  0  0  0  0  0  0  0  0  0  0
   -1.8890   24.8870  -27.3130 C   0  0  2  0  0  0  0  0  0  0  0  0
   -3.3260   24.8500  -26.7540 C   0  0  0  0  0  0  0  0  0  0  0  0
   -4.0240   23.6850  -27.4440 C   0  0  0  0  0  0  0  0  0  0  0  0
   -3.1890   23.3400  -28.5880 N   0  0  0  0  0  0  0  0  0  0  0  0
   -3.4480   22.2160  -29.4490 C   0  0  0  0  0  0  0  0  0  0  0  0
   -3.3060   21.0440  -28.9990 O   0  0  0  0  0  0  0  0  0  0  0  0
   -3.9150   22.3930  -30.8360 C   0  0  0  0  0  0  0  0  0  0  0  0
   -3.1080   22.2920  -31.7980 O   0  0  0  0  0  0  0  0  0  0  0  0
   -5.2900   22.7030  -31.0980 N   0  0  0  0  0  0  0  0  0  0  0  0
   -5.9140   23.8970  -30.8970 C   0  0  0  0  0  0  0  0  0  0  0  0
   -5.2740   25.1350  -30.4010 C   0  0  0  0  0  0  0  0  0  0  0  0
   -3.8710   25.3230  -30.5700 N   0  0  0  0  0  0  0  0  0  0  0  0
   -5.9610   26.0480  -29.8610 O   0  0  0  0  0  0  0  0  0  0  0  0
   -7.2810   23.7770  -31.1560 C   0  0  0  0  0  0  0  0  0  0  0  0
   -7.4720   22.4630  -31.5210 C   0  0  0  0  0  0  0  0  0  0  0  0
   -8.6400   21.7830  -31.8500 C   0  0  0  0  0  0  0  0  0  0  0  0
   -8.5410   20.4160  -32.1660 C   0  0  0  0  0  0  0  0  0  0  0  0
   -7.2790   19.7610  -32.1640 C   0  0  0  0  0  0  0  0  0  0  0  0
   -7.1600   18.2940  -32.4910 C   0  0  0  0  0  0  0  0  0  0  0  0
   -6.7420   18.1370  -33.8010 F   0  0  0  0  0  0  0  0  0  0  0  0
   -8.3730   17.6450  -32.3430 F   0  0  0  0  0  0  0  0  0  0  0  0
   -6.2310   17.7120  -31.6480 F   0  0  0  0  0  0  0  0  0  0  0  0
   -6.1190   20.4850  -31.8020 C   0  0  0  0  0  0  0  0  0  0  0  0
   -6.2540   21.8380  -31.4820 C   0  0  0  0  0  0  0  0  0  0  0  0
   -1.9240   24.0590  -28.6040 C   0  0  0  0  0  0  0  0  0  0  0  0
   -0.7307   22.5980  -25.2277 H   0  0  0  0  0  0  0  0  0  0  0  0
   -1.6211   22.4475  -26.7806 H   0  0  0  0  0  0  0  0  0  0  0  0
    0.1716   22.5618  -26.7806 H   0  0  0  0  0  0  0  0  0  0  0  0
   -0.8037   24.2009  -24.2699 H   0  0  0  0  0  0  0  0  0  0  0  0
   -0.2455   25.7813  -24.9157 H   0  0  0  0  0  0  0  0  0  0  0  0
   -1.9961   25.3789  -24.9157 H   0  0  0  0  0  0  0  0  0  0  0  0
   -1.5940   25.9326  -27.4851 H   0  0  0  0  0  0  0  0  0  0  0  0
   -3.3072   24.6920  -25.6656 H   0  0  0  0  0  0  0  0  0  0  0  0
   -3.8518   25.7980  -26.9406 H   0  0  0  0  0  0  0  0  0  0  0  0
   -4.1070   22.8285  -26.7587 H   0  0  0  0  0  0  0  0  0  0  0  0
   -5.0446   23.9526  -27.7550 H   0  0  0  0  0  0  0  0  0  0  0  0
   -3.5050   26.0460  -31.2280 H   0  0  0  0  0  0  0  0  0  0  0  0
   -8.0443   24.5658  -31.0837 H   0  0  0  0  0  0  0  0  0  0  0  0
   -9.6116   22.2987  -31.8627 H   0  0  0  0  0  0  0  0  0  0  0  0
   -9.4489   19.8480  -32.4172 H   0  0  0  0  0  0  0  0  0  0  0  0
   -5.1348   19.9946  -31.7732 H   0  0  0  0  0  0  0  0  0  0  0  0
   -1.0826   23.3508  -28.6263 H   0  0  0  0  0  0  0  0  0  0  0  0
   -1.8367   24.6990  -29.4944 H   0  0  0  0  0  0  0  0  0  0  0  0
  1  2  1  0
  2  3  1  0
  2  4  1  0
  4  5  1  0
  5  6  1  0
  6  7  1  0
  7  8  1  0
  8  9  2  0
  8 10  1  0
 10 11  2  0
 10 12  1  0
 12 13  1  0
 13 14  1  0
 14 15  1  0
 14 16  2  0
 13 17  2  0
 17 18  1  0
 18 19  2  0
 19 20  1  0
 20 21  2  0
 21 22  1  0
 22 23  1  0
 22 24  1  0
 22 25  1  0
 21 26  1  0
 26 27  2  0
  7 28  1  0
 28  4  1  0
 27 12  1  0
 27 18  1  0
  1 29  1  0
  1 30  1  0
  1 31  1  0
  3 32  1  0
  3 33  1  0
  3 34  1  0
  4 35  1  6
  5 36  1  0
  5 37  1  0
  6 38  1  0
  6 39  1  0
 15 40  1  0
 17 41  1  0
 19 42  1  0
 20 43  1  0
 26 44  1  0
 28 45  1  0
 28 46  1  0
M  CHG  1  15  -1
M  END
>  <UniqueID>  (1) 
1

>  <SMILES>  (1) 
CN(C)[C@@H]1CCN(C(=O)C(=O)n2c(C([NH-])=O)cc3ccc(C(F)(F)F)cc32)C1

>  <Energy>  (1) 
96.80469588756873

>  <Genealogy>  (1) 
CN(C)[C@@H]1CCN(C(=O)C(=O)n2c(C([NH-])=O)cc3ccc(C(F)(F)F)cc32)C1 (protonated)
CN(C)[C@@H]1CCN(C(=O)C(=O)n2c(C([NH-])=O)cc3ccc(C(F)(F)F)cc32)C1 (3D coordinates assigned)
CN(C)[C@@H]1CCN(C(=O)C(=O)n2c(C([NH-])=O)cc3ccc(C(F)(F)F)cc32)C1 (nonaromatic ring conformer: 96.80469588756873 kcal/mol)

>  <smiles>  (1) 
CN(C)[C@@H]1CCN(C(=O)C(=O)n2c(C(N)=O)cc3ccc(C(F)(F)F)cc32)C1

>  <score_type>  (1) 
oracle

>  <origin>  (1) 
adg

>  <m_score__min__energy>  (1) 
-10.83

>  <m_primary>  (1) 
energy

$$$$
1:0
     RDKit          3D

 48 50  0  0  0  0  0  0  0  0999 V2000
   -6.5140   17.4600  -31.5170 C   0  0  0  0  0  0  0  0  0  0  0  0
   -7.3270   18.5890  -31.9770 N   0  0  0  0  0  0  0  0  0  0  0  0
   -8.5800   18.9150  -31.2850 C   0  0  0  0  0  0  0  0  0  0  0  0
   -6.9180   19.4060  -33.1000 C   0  0  0  0  0  0  0  0  0  0  0  0
   -7.6800   20.3260  -33.5060 O   0  0  0  0  0  0  0  0  0  0  0  0
   -5.6140   19.1950  -33.8330 C   0  0  0  0  0  0  0  0  0  0  0  0
   -4.7790   20.3990  -33.7660 N   0  0  0  0  0  0  0  0  0  0  0  0
   -3.6100   20.4990  -32.9330 C   0  0  0  0  0  0  0  0  0  0  0  0
   -2.3670   19.9240  -33.3180 C   0  0  0  0  0  0  0  0  0  0  0  0
   -1.2450   20.0120  -32.4810 C   0  0  0  0  0  0  0  0  0  0  0  0
   -1.3830   20.6920  -31.2780 C   0  0  0  0  0  0  0  0  0  0  0  0
   -0.4600   20.9300  -30.2850 C   0  0  0  0  0  0  0  0  0  0  0  0
   -1.1350   21.6800  -29.3250 C   0  0  0  0  0  0  0  0  0  0  0  0
   -0.4900   22.2460  -28.1200 C   0  0  0  0  0  0  0  0  0  0  0  0
   -1.1090   23.3050  -27.3940 N   0  0  0  0  0  0  0  0  0  0  0  0
    0.6000   21.7740  -27.7060 O   0  0  0  0  0  0  0  0  0  0  0  0
   -2.4300   21.8850  -29.7010 N   0  0  0  0  0  0  0  0  0  0  0  0
   -3.4580   22.5980  -28.9880 C   0  0  0  0  0  0  0  0  0  0  0  0
   -3.7290   22.2620  -27.8020 O   0  0  0  0  0  0  0  0  0  0  0  0
   -4.1790   23.6880  -29.6030 N   0  0  0  0  0  0  0  0  0  0  0  0
   -3.5110   24.9190  -29.9420 C   0  0  0  0  0  0  0  0  0  0  0  0
   -3.9610   25.6710  -30.8490 O   0  0  0  0  0  0  0  0  0  0  0  0
   -2.3440   25.2900  -29.2760 O   0  0  0  0  0  0  0  0  0  0  0  0
   -5.6480   23.6740  -29.6030 C   0  0  0  0  0  0  0  0  0  0  0  0
   -6.2770   22.5420  -30.4060 C   0  0  0  0  0  0  0  0  0  0  0  0
   -6.2650   23.9540  -30.9640 C   0  0  0  0  0  0  0  0  0  0  0  0
   -2.5630   21.2760  -30.9020 C   0  0  0  0  0  0  0  0  0  0  0  0
   -3.7060   21.1800  -31.7010 C   0  0  0  0  0  0  0  0  0  0  0  0
   -6.5008   17.4417  -30.4172 H   0  0  0  0  0  0  0  0  0  0  0  0
   -6.9443   16.5206  -31.8942 H   0  0  0  0  0  0  0  0  0  0  0  0
   -5.4866   17.5702  -31.8942 H   0  0  0  0  0  0  0  0  0  0  0  0
   -8.4198   18.8733  -30.1975 H   0  0  0  0  0  0  0  0  0  0  0  0
   -8.9034   19.9272  -31.5695 H   0  0  0  0  0  0  0  0  0  0  0  0
   -9.3557   18.1888  -31.5695 H   0  0  0  0  0  0  0  0  0  0  0  0
   -5.0733   18.3549  -33.3728 H   0  0  0  0  0  0  0  0  0  0  0  0
   -5.8338   18.9762  -34.8884 H   0  0  0  0  0  0  0  0  0  0  0  0
   -5.0330   21.2220  -34.3590 H   0  0  0  0  0  0  0  0  0  0  0  0
   -2.2849   19.4041  -34.2839 H   0  0  0  0  0  0  0  0  0  0  0  0
   -0.2858   19.5567  -32.7684 H   0  0  0  0  0  0  0  0  0  0  0  0
    0.5884   20.5982  -30.2558 H   0  0  0  0  0  0  0  0  0  0  0  0
   -1.9930   23.7500  -27.7290 H   0  0  0  0  0  0  0  0  0  0  0  0
   -0.6720   23.6630  -26.5150 H   0  0  0  0  0  0  0  0  0  0  0  0
   -5.7779   24.0675  -28.5840 H   0  0  0  0  0  0  0  0  0  0  0  0
   -5.6396   21.7670  -30.8566 H   0  0  0  0  0  0  0  0  0  0  0  0
   -7.0548   21.7889  -30.2114 H   0  0  0  0  0  0  0  0  0  0  0  0
   -5.6194   24.2012  -31.8196 H   0  0  0  0  0  0  0  0  0  0  0  0
   -7.0318   24.6465  -31.3415 H   0  0  0  0  0  0  0  0  0  0  0  0
   -4.6582   21.6251  -31.3768 H   0  0  0  0  0  0  0  0  0  0  0  0
  1  2  1  0
  2  3  1  0
  2  4  1  0
  4  5  2  0
  4  6  1  0
  6  7  1  0
  7  8  1  0
  8  9  2  0
  9 10  1  0
 10 11  2  0
 11 12  1  0
 12 13  2  0
 13 14  1  0
 14 15  1  0
 14 16  2  0
 13 17  1  0
 17 18  1  0
 18 19  2  0
 18 20  1  0
 20 21  1  0
 21 22  2  0
 21 23  1  0
 20 24  1  0
 24 25  1  0
 25 26  1  0
 17 27  1  0
 27 28  2  0
 28  8  1  0
 27 11  1  0
 26 24  1  0
  1 29  1  0
  1 30  1  0
  1 31  1  0
  3 32  1  0
  3 33  1  0
  3 34  1  0
  6 35  1  0
  6 36  1  0
  7 37  1  0
  9 38  1  0
 10 39  1  0
 12 40  1  0
 15 41  1  0
 15 42  1  0
 24 43  1  0
 25 44  1  0
 25 45  1  0
 26 46  1  0
 26 47  1  0
 28 48  1  0
M  CHG  1  23  -1
M  END
>  <UniqueID>  (2) 
2

>  <SMILES>  (2) 
CN(C)C(=O)CNc1ccc2cc(C(N)=O)n(C(=O)N(C(=O)[O-])C3CC3)c2c1

>  <Energy>  (2) 
353.21460942149366

>  <Genealogy>  (2) 
CN(C)C(=O)CNc1ccc2cc(C(N)=O)n(C(=O)N(C(=O)[O-])C3CC3)c2c1 (protonated)
CN(C)C(=O)CNc1ccc2cc(C(N)=O)n(C(=O)N(C(=O)[O-])C3CC3)c2c1 (3D coordinates assigned)
CN(C)C(=O)CNc1ccc2cc(C(N)=O)n(C(=O)N(C(=O)[O-])C3CC3)c2c1 (nonaromatic ring conformer: 353.21460942149366 kcal/mol)

>  <smiles>  (2) 
CN(C)C(=O)CNc1ccc2cc(C(N)=O)n(C(=O)N(C(=O)O)C3CC3)c2c1

>  <score_type>  (2) 
oracle

>  <origin>  (2) 
adg

>  <m_score__min__energy>  (2) 
-10.460000000000001

>  <m_primary>  (2) 
energy

$$$$
2:0
     RDKit          3D

 39 40  0  0  0  0  0  0  0  0999 V2000
   -6.7600   25.2860  -29.9140 C   0  0  0  0  0  0  0  0  0  0  0  0
   -6.8760   24.2310  -30.4860 C   0  0  0  0  0  0  0  0  0  0  0  0
   -7.0130   22.9710  -31.1680 C   0  0  0  0  0  0  0  0  0  0  0  0
   -8.2760   22.3390  -31.2310 C   0  0  0  0  0  0  0  0  0  0  0  0
   -8.4200   21.0990  -31.8770 C   0  0  0  0  0  0  0  0  0  0  0  0
   -7.2880   20.5300  -32.4550 C   0  0  0  0  0  0  0  0  0  0  0  0
   -7.1380   19.3260  -33.1060 C   0  0  0  0  0  0  0  0  0  0  0  0
   -5.7930   19.2620  -33.4540 C   0  0  0  0  0  0  0  0  0  0  0  0
   -5.2060   18.1490  -34.2260 C   0  0  0  0  0  0  0  0  0  0  0  0
   -3.8160   17.8320  -34.1290 N   0  0  0  0  0  0  0  0  0  0  0  0
   -5.9310   17.5020  -35.0280 O   0  0  0  0  0  0  0  0  0  0  0  0
   -5.1300   20.3740  -33.0270 N   0  0  0  0  0  0  0  0  0  0  0  0
   -3.7160   20.6210  -33.0890 C   0  0  0  0  0  0  0  0  0  0  0  0
   -3.1070   20.5310  -34.1900 O   0  0  0  0  0  0  0  0  0  0  0  0
   -3.0200   20.9610  -31.9230 O   0  0  0  0  0  0  0  0  0  0  0  0
   -2.7310   22.3060  -31.5490 C   0  0  0  0  0  0  0  0  0  0  0  0
   -2.4790   22.3990  -30.0730 C   0  0  0  0  0  0  0  0  0  0  0  0
   -1.3350   22.4930  -29.6570 O   0  0  0  0  0  0  0  0  0  0  0  0
   -3.8460   22.3040  -28.9050 S   0  0  0  0  0  0  0  0  0  0  0  0
   -4.0340   24.1040  -28.5940 C   0  0  1  0  0  0  0  0  0  0  0  0
   -3.6760   24.4680  -27.1500 C   0  0  0  0  0  0  0  0  0  0  0  0
   -3.2700   24.9190  -29.6010 C   0  0  0  0  0  0  0  0  0  0  0  0
   -2.0970   25.2950  -29.3380 O   0  0  0  0  0  0  0  0  0  0  0  0
   -3.8520   25.2930  -30.8070 O   0  0  0  0  0  0  0  0  0  0  0  0
   -6.0610   21.1430  -32.4180 C   0  0  0  0  0  0  0  0  0  0  0  0
   -5.8860   22.3680  -31.7620 C   0  0  0  0  0  0  0  0  0  0  0  0
   -6.6542   26.2485  -29.3921 H   0  0  0  0  0  0  0  0  0  0  0  0
   -9.1517   22.8208  -30.7715 H   0  0  0  0  0  0  0  0  0  0  0  0
   -9.3961   20.5940  -31.9245 H   0  0  0  0  0  0  0  0  0  0  0  0
   -7.9160   18.5750  -33.3078 H   0  0  0  0  0  0  0  0  0  0  0  0
   -3.4270   17.0140  -34.6510 H   0  0  0  0  0  0  0  0  0  0  0  0
   -3.1560   18.4500  -33.6090 H   0  0  0  0  0  0  0  0  0  0  0  0
   -1.8371   22.6482  -32.0910 H   0  0  0  0  0  0  0  0  0  0  0  0
   -3.5942   22.9389  -31.8028 H   0  0  0  0  0  0  0  0  0  0  0  0
   -5.0966   24.3566  -28.7248 H   0  0  0  0  0  0  0  0  0  0  0  0
   -4.2759   23.8580  -26.4586 H   0  0  0  0  0  0  0  0  0  0  0  0
   -2.6071   24.2739  -26.9772 H   0  0  0  0  0  0  0  0  0  0  0  0
   -3.8878   25.5335  -26.9772 H   0  0  0  0  0  0  0  0  0  0  0  0
   -4.8966   22.8461  -31.7118 H   0  0  0  0  0  0  0  0  0  0  0  0
  1  2  3  0
  2  3  1  0
  3  4  2  0
  4  5  1  0
  5  6  2  0
  6  7  1  0
  7  8  2  0
  8  9  1  0
  9 10  1  0
  9 11  2  0
  8 12  1  0
 12 13  1  0
 13 14  2  0
 13 15  1  0
 15 16  1  0
 16 17  1  0
 17 18  2  0
 17 19  1  0
 19 20  1  0
 20 21  1  0
 20 22  1  0
 22 23  2  0
 22 24  1  0
 12 25  1  0
 25 26  2  0
 26  3  1  0
 25  6  1  0
  1 27  1  0
  4 28  1  0
  5 29  1  0
  7 30  1  0
 10 31  1  0
 10 32  1  0
 16 33  1  0
 16 34  1  0
 20 35  1  1
 21 36  1  0
 21 37  1  0
 21 38  1  0
 26 39  1  0
M  CHG  1  24  -1
M  END
>  <UniqueID>  (3) 
3

>  <SMILES>  (3) 
C#Cc1ccc2cc(C(N)=O)n(C(=O)OCC(=O)S[C@@H](C)C(=O)[O-])c2c1

>  <Energy>  (3) 
69.49848157842443

>  <Genealogy>  (3) 
C#Cc1ccc2cc(C(N)=O)n(C(=O)OCC(=O)S[C@@H](C)C(=O)[O-])c2c1 (protonated)
C#Cc1ccc2cc(C(N)=O)n(C(=O)OCC(=O)S[C@@H](C)C(=O)[O-])c2c1 (3D coordinates assigned)
C#Cc1ccc2cc(C(N)=O)n(C(=O)OCC(=O)S[C@@H](C)C(=O)[O-])c2c1 (optimized conformer: 69.49848157842443 kcal/mol)

>  <smiles>  (3) 
C#Cc1ccc2cc(C(N)=O)n(C(=O)OCC(=O)S[C@@H](C)C(=O)O)c2c1

>  <score_type>  (3) 
oracle

>  <origin>  (3) 
adg

>  <m_score__min__energy>  (3) 
-11.300000000000001

>  <m_primary>  (3) 
energy

$$$$
3:0
     RDKit          3D

 49 51  0  0  0  0  0  0  0  0999 V2000
   -3.5170   24.8420  -30.5350 N   0  0  0  0  0  0  0  0  0  0  0  0
   -4.9140   25.1100  -30.6340 C   0  0  0  0  0  0  0  0  0  0  0  0
   -5.3300   26.2820  -30.4440 O   0  0  0  0  0  0  0  0  0  0  0  0
   -5.8800   24.0310  -30.9340 C   0  0  0  0  0  0  0  0  0  0  0  0
   -7.1950   24.2590  -31.3410 C   0  0  0  0  0  0  0  0  0  0  0  0
   -7.7480   23.0080  -31.5030 C   0  0  0  0  0  0  0  0  0  0  0  0
   -9.0330   22.6390  -31.8880 C   0  0  0  0  0  0  0  0  0  0  0  0
   -9.3310   21.2650  -31.9590 C   0  0  0  0  0  0  0  0  0  0  0  0
   -8.3540   20.2980  -31.6150 C   0  0  0  0  0  0  0  0  0  0  0  0
   -8.6810   18.8340  -31.6720 C   0  0  0  0  0  0  0  0  0  0  0  0
   -7.5610   18.0930  -31.3340 F   0  0  0  0  0  0  0  0  0  0  0  0
   -9.0830   18.4940  -32.9520 F   0  0  0  0  0  0  0  0  0  0  0  0
   -7.0610   20.7130  -31.2270 C   0  0  0  0  0  0  0  0  0  0  0  0
   -6.7860   22.0830  -31.2020 C   0  0  0  0  0  0  0  0  0  0  0  0
   -5.6310   22.6930  -30.8640 N   0  0  0  0  0  0  0  0  0  0  0  0
   -4.3920   22.0450  -30.5360 C   0  0  0  0  0  0  0  0  0  0  0  0
   -4.0750   21.9150  -29.3240 O   0  0  0  0  0  0  0  0  0  0  0  0
   -3.5680   21.4620  -31.5730 N   0  0  2  0  0  0  0  0  0  0  0  0
   -2.3590   22.1430  -31.6090 O   0  0  0  0  0  0  0  0  0  0  0  0
   -1.2110   21.6970  -30.9360 C   0  0  0  0  0  0  0  0  0  0  0  0
   -0.7290   20.5490  -31.1590 O   0  0  0  0  0  0  0  0  0  0  0  0
   -0.5330   22.6110  -29.9700 C   0  0  0  0  0  0  0  0  0  0  0  0
   -1.4860   23.4380  -29.3620 O   0  0  0  0  0  0  0  0  0  0  0  0
   -4.1970   21.5920  -32.8710 C   0  0  0  0  0  0  0  0  0  0  0  0
   -4.2390   22.6810  -33.4270 O   0  0  0  0  0  0  0  0  0  0  0  0
   -4.7230   20.3880  -33.6020 C   0  0  0  0  0  0  0  0  0  0  0  0
   -4.3890   18.8800  -32.6910 S   0  0  0  0  0  0  0  0  0  0  0  0
   -2.8980   18.7260  -32.5780 O   0  0  0  0  0  0  0  0  0  0  0  0
   -4.9750   18.9780  -31.3080 O   0  0  0  0  0  0  0  0  0  0  0  0
   -5.0230   17.3890  -33.4630 C   0  0  0  0  0  0  0  0  0  0  0  0
   -6.4010   17.5280  -34.0900 C   0  0  0  0  0  0  0  0  0  0  0  0
   -5.1660   17.4230  -34.9780 C   0  0  0  0  0  0  0  0  0  0  0  0
   -3.1540   23.8630  -30.5610 H   0  0  0  0  0  0  0  0  0  0  0  0
   -7.6855   25.2308  -31.4989 H   0  0  0  0  0  0  0  0  0  0  0  0
   -9.7925   23.3973  -32.1294 H   0  0  0  0  0  0  0  0  0  0  0  0
  -10.3302   20.9394  -32.2841 H   0  0  0  0  0  0  0  0  0  0  0  0
   -9.4937   18.6193  -30.9624 H   0  0  0  0  0  0  0  0  0  0  0  0
   -6.2908   19.9774  -30.9518 H   0  0  0  0  0  0  0  0  0  0  0  0
   -3.4000   20.4580  -31.3300 H   0  0  0  0  0  0  0  0  0  0  0  0
   -0.0197   22.0157  -29.2004 H   0  0  0  0  0  0  0  0  0  0  0  0
    0.2018   23.2303  -30.5052 H   0  0  0  0  0  0  0  0  0  0  0  0
   -2.3650   23.1620  -29.7320 H   0  0  0  0  0  0  0  0  0  0  0  0
   -5.8099   20.4945  -33.7336 H   0  0  0  0  0  0  0  0  0  0  0  0
   -4.2188   20.3248  -34.5776 H   0  0  0  0  0  0  0  0  0  0  0  0
   -4.5502   16.6989  -32.7487 H   0  0  0  0  0  0  0  0  0  0  0  0
   -7.1150   16.6927  -34.0397 H   0  0  0  0  0  0  0  0  0  0  0  0
   -7.2311   18.2433  -33.9933 H   0  0  0  0  0  0  0  0  0  0  0  0
   -4.9883   16.5119  -35.5682 H   0  0  0  0  0  0  0  0  0  0  0  0
   -4.7350   18.0307  -35.7873 H   0  0  0  0  0  0  0  0  0  0  0  0
  1  2  1  0
  2  3  2  0
  2  4  1  0
  4  5  2  0
  5  6  1  0
  6  7  2  0
  7  8  1  0
  8  9  2  0
  9 10  1  0
 10 11  1  0
 10 12  1  0
  9 13  1  0
 13 14  2  0
 14 15  1  0
 15 16  1  0
 16 17  2  0
 16 18  1  0
 18 19  1  0
 19 20  1  0
 20 21  2  0
 20 22  1  0
 22 23  1  0
 18 24  1  0
 24 25  2  0
 24 26  1  0
 26 27  1  0
 27 28  2  0
 27 29  2  0
 27 30  1  0
 30 31  1  0
 31 32  1  0
 15  4  1  0
 32 30  1  0
 14  6  1  0
  1 33  1  0
  5 34  1  0
  7 35  1  0
  8 36  1  0
 10 37  1  0
 13 38  1  0
 18 39  1  1
 22 40  1  0
 22 41  1  0
 23 42  1  0
 26 43  1  0
 26 44  1  0
 30 45  1  0
 31 46  1  0
 31 47  1  0
 32 48  1  0
 32 49  1  0
M  CHG  2   1  -1  18   1
M  END
>  <UniqueID>  (4) 
4

>  <SMILES>  (4) 
[NH-]C(=O)c1cc2ccc(C(F)F)cc2n1C(=O)[NH+](OC(=O)CO)C(=O)CS(=O)(=O)C1CC1

>  <Energy>  (4) 
347.3290352036679

>  <Genealogy>  (4) 
[NH-]C(=O)c1cc2ccc(C(F)F)cc2n1C(=O)[NH+](OC(=O)CO)C(=O)CS(=O)(=O)C1CC1 (protonated)
[NH-]C(=O)c1cc2ccc(C(F)F)cc2n1C(=O)[NH+](OC(=O)CO)C(=O)CS(=O)(=O)C1CC1 (3D coordinates assigned)
[NH-]C(=O)c1cc2ccc(C(F)F)cc2n1C(=O)[NH+](OC(=O)CO)C(=O)CS(=O)(=O)C1CC1 (nonaromatic ring conformer: 347.3290352036679 kcal/mol)

>  <smiles>  (4) 
NC(=O)c1cc2ccc(C(F)F)cc2n1C(=O)N(OC(=O)CO)C(=O)CS(=O)(=O)C1CC1

>  <score_type>  (4) 
oracle

>  <origin>  (4) 
adg

>  <m_score__min__energy>  (4) 
-11.06

>  <m_primary>  (4) 
energy

$$$$
4:0
     RDKit          3D

 39 40  0  0  0  0  0  0  0  0999 V2000
   -6.8640   17.3360  -32.9790 C   0  0  0  0  0  0  0  0  0  0  0  0
   -6.9740   18.4950  -32.6670 C   0  0  0  0  0  0  0  0  0  0  0  0
   -7.1040   19.8790  -32.2950 C   0  0  0  0  0  0  0  0  0  0  0  0
   -8.3800   20.4890  -32.2890 C   0  0  0  0  0  0  0  0  0  0  0  0
   -8.5180   21.8440  -31.9400 C   0  0  0  0  0  0  0  0  0  0  0  0
   -7.3690   22.5500  -31.5970 C   0  0  0  0  0  0  0  0  0  0  0  0
   -7.2140   23.8720  -31.2470 C   0  0  0  0  0  0  0  0  0  0  0  0
   -5.8480   24.0370  -31.0230 C   0  0  0  0  0  0  0  0  0  0  0  0
   -5.2520   25.3000  -30.5400 C   0  0  0  0  0  0  0  0  0  0  0  0
   -3.8960   25.6280  -30.8300 N   0  0  0  0  0  0  0  0  0  0  0  0
   -5.9340   26.0770  -29.8200 O   0  0  0  0  0  0  0  0  0  0  0  0
   -5.1830   22.8660  -31.2340 N   0  0  0  0  0  0  0  0  0  0  0  0
   -3.7640   22.6460  -31.2030 C   0  0  0  0  0  0  0  0  0  0  0  0
   -3.1650   22.2830  -32.2520 O   0  0  0  0  0  0  0  0  0  0  0  0
   -3.0600   22.8610  -30.0100 O   0  0  0  0  0  0  0  0  0  0  0  0
   -1.7370   23.3100  -29.9260 C   0  0  0  0  0  0  0  0  0  0  0  0
   -0.8020   22.6740  -30.4840 O   0  0  0  0  0  0  0  0  0  0  0  0
   -1.4780   24.4830  -29.2020 O   0  0  0  0  0  0  0  0  0  0  0  0
   -1.6910   24.6800  -27.7960 C   0  0  0  0  0  0  0  0  0  0  0  0
   -0.8550   23.6810  -26.9740 C   0  0  0  0  0  0  0  0  0  0  0  0
   -3.1870   24.5490  -27.4510 C   0  0  0  0  0  0  0  0  0  0  0  0
   -1.2280   26.1060  -27.4620 C   0  0  0  0  0  0  0  0  0  0  0  0
   -6.1290   21.9650  -31.5830 C   0  0  0  0  0  0  0  0  0  0  0  0
   -5.9590   20.6220  -31.9440 C   0  0  0  0  0  0  0  0  0  0  0  0
   -6.7636   16.2782  -33.2637 H   0  0  0  0  0  0  0  0  0  0  0  0
   -9.2691   19.9002  -32.5588 H   0  0  0  0  0  0  0  0  0  0  0  0
   -9.5042   22.3312  -31.9382 H   0  0  0  0  0  0  0  0  0  0  0  0
   -8.0008   24.6360  -31.1621 H   0  0  0  0  0  0  0  0  0  0  0  0
   -3.1120   25.0420  -30.4700 H   0  0  0  0  0  0  0  0  0  0  0  0
   -1.0112   23.8676  -25.9013 H   0  0  0  0  0  0  0  0  0  0  0  0
   -1.1672   22.6546  -27.2169 H   0  0  0  0  0  0  0  0  0  0  0  0
    0.2104   23.8074  -27.2169 H   0  0  0  0  0  0  0  0  0  0  0  0
   -3.3117   24.5381  -26.3581 H   0  0  0  0  0  0  0  0  0  0  0  0
   -3.7370   25.4024  -27.8743 H   0  0  0  0  0  0  0  0  0  0  0  0
   -3.5803   23.6130  -27.8743 H   0  0  0  0  0  0  0  0  0  0  0  0
   -1.1871   26.2319  -26.3700 H   0  0  0  0  0  0  0  0  0  0  0  0
   -0.2284   26.2763  -27.8884 H   0  0  0  0  0  0  0  0  0  0  0  0
   -1.9369   26.8310  -27.8884 H   0  0  0  0  0  0  0  0  0  0  0  0
   -4.9605   20.1607  -31.9532 H   0  0  0  0  0  0  0  0  0  0  0  0
  1  2  3  0
  2  3  1  0
  3  4  2  0
  4  5  1  0
  5  6  2  0
  6  7  1  0
  7  8  2  0
  8  9  1  0
  9 10  1  0
  9 11  2  0
  8 12  1  0
 12 13  1  0
 13 14  2  0
 13 15  1  0
 15 16  1  0
 16 17  2  0
 16 18  1  0
 18 19  1  0
 19 20  1  0
 19 21  1  0
 19 22  1  0
 12 23  1  0
 23 24  2  0
 24  3  1  0
 23  6  1  0
  1 25  1  0
  4 26  1  0
  5 27  1  0
  7 28  1  0
 10 29  1  0
 20 30  1  0
 20 31  1  0
 20 32  1  0
 21 33  1  0
 21 34  1  0
 21 35  1  0
 22 36  1  0
 22 37  1  0
 22 38  1  0
 24 39  1  0
M  CHG  1  10  -1
M  END
>  <UniqueID>  (5) 
5

>  <SMILES>  (5) 
C#Cc1ccc2cc(C([NH-])=O)n(C(=O)OC(=O)OC(C)(C)C)c2c1

>  <Energy>  (5) 
73.3486887982883

>  <Genealogy>  (5) 
C#Cc1ccc2cc(C([NH-])=O)n(C(=O)OC(=O)OC(C)(C)C)c2c1 (protonated)
C#Cc1ccc2cc(C([NH-])=O)n(C(=O)OC(=O)OC(C)(C)C)c2c1 (3D coordinates assigned)
C#Cc1ccc2cc(C([NH-])=O)n(C(=O)OC(=O)OC(C)(C)C)c2c1 (optimized conformer: 73.3486887982883 kcal/mol)

>  <smiles>  (5) 
C#Cc1ccc2cc(C(N)=O)n(C(=O)OC(=O)OC(C)(C)C)c2c1

>  <score_type>  (5) 
oracle

>  <origin>  (5) 
adg

>  <m_score__min__energy>  (5) 
-10.460000000000001

>  <m_primary>  (5) 
energy

$$$$
5:0
     RDKit          3D

 45 46  0  0  0  0  0  0  0  0999 V2000
   -3.1780   25.4410  -31.2180 H   0  0  0  0  0  0  0  0  0  0  0  0
   -3.7400   25.2990  -30.3480 N   0  0  0  0  0  0  0  0  0  0  0  0
   -5.1640   25.3400  -30.3840 C   0  0  0  0  0  0  0  0  0  0  0  0
   -5.7610   26.4070  -30.0760 O   0  0  0  0  0  0  0  0  0  0  0  0
   -5.9440   24.1710  -30.8390 C   0  0  0  0  0  0  0  0  0  0  0  0
   -7.3320   24.1790  -30.9670 C   0  0  0  0  0  0  0  0  0  0  0  0
   -8.0222   24.9899  -30.6910 H   0  0  0  0  0  0  0  0  0  0  0  0
   -7.6560   22.9570  -31.5120 C   0  0  0  0  0  0  0  0  0  0  0  0
   -8.9000   22.4250  -31.8430 C   0  0  0  0  0  0  0  0  0  0  0  0
   -9.8216   23.0081  -31.6994 H   0  0  0  0  0  0  0  0  0  0  0  0
   -8.9430   21.1210  -32.3660 C   0  0  0  0  0  0  0  0  0  0  0  0
   -9.9112   20.6728  -32.6336 H   0  0  0  0  0  0  0  0  0  0  0  0
   -7.7480   20.3770  -32.5520 C   0  0  0  0  0  0  0  0  0  0  0  0
   -7.8050   19.0230  -33.0510 N   0  0  0  0  0  0  0  0  0  0  0  0
   -8.7470   18.8310  -33.4680 H   0  0  0  0  0  0  0  0  0  0  0  0
   -7.0850   18.8850  -33.7980 H   0  0  0  0  0  0  0  0  0  0  0  0
   -7.5590   18.0750  -31.9620 C   0  0  0  0  0  0  0  0  0  0  0  0
   -7.6911   18.5841  -30.9959 H   0  0  0  0  0  0  0  0  0  0  0  0
   -8.2699   17.2389  -32.0361 H   0  0  0  0  0  0  0  0  0  0  0  0
   -6.5312   17.6901  -32.0361 H   0  0  0  0  0  0  0  0  0  0  0  0
   -6.5060   20.9510  -32.1950 C   0  0  0  0  0  0  0  0  0  0  0  0
   -5.5708   20.3837  -32.3115 H   0  0  0  0  0  0  0  0  0  0  0  0
   -6.4920   22.2570  -31.6900 C   0  0  0  0  0  0  0  0  0  0  0  0
   -5.4310   22.9850  -31.2750 N   0  0  0  0  0  0  0  0  0  0  0  0
   -4.0640   22.5460  -31.2380 C   0  0  0  0  0  0  0  0  0  0  0  0
   -3.1480   23.2990  -31.6690 O   0  0  0  0  0  0  0  0  0  0  0  0
   -3.7540   21.2890  -30.7100 O   0  0  0  0  0  0  0  0  0  0  0  0
   -2.6700   21.0700  -29.8160 C   0  0  0  0  0  0  0  0  0  0  0  0
   -1.8513   21.7662  -30.0506 H   0  0  0  0  0  0  0  0  0  0  0  0
   -2.3045   20.0376  -29.9188 H   0  0  0  0  0  0  0  0  0  0  0  0
   -3.1450   21.3050  -28.4090 C   0  0  0  0  0  0  0  0  0  0  0  0
   -4.1450   22.3180  -28.2070 N   0  0  0  0  0  0  0  0  0  0  0  0
   -3.9480   23.5300  -27.7670 C   0  0  0  0  0  0  0  0  0  0  0  0
   -4.8260   24.1602  -27.5621 H   0  0  0  0  0  0  0  0  0  0  0  0
   -2.6060   24.0990  -27.5300 C   0  0  0  0  0  0  0  0  0  0  0  0
   -1.7426   23.6995  -28.0823 H   0  0  0  0  0  0  0  0  0  0  0  0
   -2.4260   25.0880  -26.6580 C   0  0  0  0  0  0  0  0  0  0  0  0
   -1.4194   25.5001  -26.4938 H   0  0  0  0  0  0  0  0  0  0  0  0
   -3.2838   25.4934  -26.1014 H   0  0  0  0  0  0  0  0  0  0  0  0
   -2.6630   20.6120  -27.3580 C   0  0  0  0  0  0  0  0  0  0  0  0
   -3.0554   20.8481  -26.3579 H   0  0  0  0  0  0  0  0  0  0  0  0
   -1.6230   19.5380  -27.4730 C   0  0  0  0  0  0  0  0  0  0  0  0
   -1.3134   19.2182  -26.4671 H   0  0  0  0  0  0  0  0  0  0  0  0
   -2.0416   18.6791  -28.0181 H   0  0  0  0  0  0  0  0  0  0  0  0
   -0.7511   19.9287  -28.0181 H   0  0  0  0  0  0  0  0  0  0  0  0
  1  2  1  0
  2  3  1  0
  3  4  2  0
  3  5  1  0
  5  6  2  0
  6  7  1  0
  6  8  1  0
  8  9  2  0
  9 10  1  0
  9 11  1  0
 11 12  1  0
 11 13  2  0
 13 14  1  0
 14 15  1  0
 14 16  1  0
 14 17  1  0
 17 18  1  0
 17 19  1  0
 17 20  1  0
 13 21  1  0
 21 22  1  0
 21 23  2  0
 23 24  1  0
 24 25  1  0
 25 26  2  0
 25 27  1  0
 27 28  1  0
 28 29  1  0
 28 30  1  0
 28 31  1  0
 31 32  1  0
 32 33  2  0
 33 34  1  0
 33 35  1  0
 35 36  1  0
 35 37  2  0
 37 38  1  0
 37 39  1  0
 31 40  2  0
 40 41  1  0
 40 42  1  0
 42 43  1  0
 42 44  1  0
 42 45  1  0
 24  5  1  0
 23  8  1  0
M  CHG  2   2  -1  14   1
M  END
>  <UniqueID>  (6) 
6

>  <SMILES>  (6) 
C=C/C=N\C(=C\C)COC(=O)n1c(C([NH-])=O)cc2ccc([NH2+]C)cc21

>  <Energy>  (6) 
84.23189420025582

>  <Genealogy>  (6) 
C=C/C=N\C(=C\C)COC(=O)n1c(C([NH-])=O)cc2ccc([NH2+]C)cc21 (protonated)
C=C/C=N\C(=C\C)COC(=O)n1c(C([NH-])=O)cc2ccc([NH2+]C)cc21 (cis-trans isomerization)
C=C/C=N\C(=C\C)COC(=O)n1c(C([NH-])=O)cc2ccc([NH2+]C)cc21 (3D coordinates assigned)
C=C/C=N\C(=C\C)COC(=O)n1c(C([NH-])=O)cc2ccc([NH2+]C)cc21 (optimized conformer: 84.23189420025582 kcal/mol)

>  <smiles>  (6) 
C=C/C=N\C(=C\C)COC(=O)n1c(C(N)=O)cc2ccc(NC)cc21

>  <score_type>  (6) 
oracle

>  <origin>  (6) 
adg

>  <m_score__min__energy>  (6) 
-10.24

>  <m_primary>  (6) 
energy

$$$$
6:0
     RDKit          3D

 45 46  0  0  0  0  0  0  0  0999 V2000
    1.1600   25.6060  -27.0710 C   0  0  0  0  0  0  0  0  0  0  0  0
    0.3980   24.8900  -28.1070 N   0  0  0  0  0  0  0  0  0  0  0  0
    0.3580   23.4550  -27.7790 C   0  0  0  0  0  0  0  0  0  0  0  0
   -0.9680   25.4530  -28.2140 C   0  0  0  0  0  0  0  0  0  0  0  0
   -2.0240   24.4420  -27.7510 C   0  0  0  0  0  0  0  0  0  0  0  0
   -2.4530   23.5970  -28.8630 N   0  0  0  0  0  0  0  0  0  0  0  0
   -2.8120   22.2190  -28.6890 C   0  0  0  0  0  0  0  0  0  0  0  0
   -2.6150   21.6430  -27.5840 O   0  0  0  0  0  0  0  0  0  0  0  0
   -3.4670   21.4640  -29.8050 C   0  0  0  0  0  0  0  0  0  0  0  0
   -3.9330   22.4170  -30.8660 C   0  0  0  0  0  0  0  0  0  0  0  0
   -3.0920   22.9570  -31.6350 O   0  0  0  0  0  0  0  0  0  0  0  0
   -5.3280   22.7140  -31.0180 N   0  0  0  0  0  0  0  0  0  0  0  0
   -5.9370   23.9270  -30.9040 C   0  0  0  0  0  0  0  0  0  0  0  0
   -5.2930   25.1800  -30.4610 C   0  0  0  0  0  0  0  0  0  0  0  0
   -3.8860   25.3660  -30.5840 N   0  0  0  0  0  0  0  0  0  0  0  0
   -5.9900   26.0870  -29.9310 O   0  0  0  0  0  0  0  0  0  0  0  0
   -7.2930   23.8220  -31.2130 C   0  0  0  0  0  0  0  0  0  0  0  0
   -7.4960   22.4950  -31.5190 C   0  0  0  0  0  0  0  0  0  0  0  0
   -8.6510   21.8350  -31.9240 C   0  0  0  0  0  0  0  0  0  0  0  0
   -8.5600   20.4630  -32.2150 C   0  0  0  0  0  0  0  0  0  0  0  0
   -7.3250   19.7750  -32.0860 C   0  0  0  0  0  0  0  0  0  0  0  0
   -7.2250   18.3180  -32.4620 C   0  0  0  0  0  0  0  0  0  0  0  0
   -8.4550   17.6960  -32.3450 F   0  0  0  0  0  0  0  0  0  0  0  0
   -6.7890   18.2150  -33.7690 F   0  0  0  0  0  0  0  0  0  0  0  0
   -6.3290   17.6630  -31.6350 F   0  0  0  0  0  0  0  0  0  0  0  0
   -6.1680   20.4880  -31.6950 C   0  0  0  0  0  0  0  0  0  0  0  0
   -6.2950   21.8490  -31.3960 C   0  0  0  0  0  0  0  0  0  0  0  0
    0.8179   25.2845  -26.0762 H   0  0  0  0  0  0  0  0  0  0  0  0
    2.2308   25.3797  -27.1813 H   0  0  0  0  0  0  0  0  0  0  0  0
    1.0008   26.6888  -27.1813 H   0  0  0  0  0  0  0  0  0  0  0  0
    0.3545   23.3286  -26.6863 H   0  0  0  0  0  0  0  0  0  0  0  0
   -0.5530   23.0072  -28.2028 H   0  0  0  0  0  0  0  0  0  0  0  0
    1.2426   22.9572  -28.2028 H   0  0  0  0  0  0  0  0  0  0  0  0
   -1.0347   26.3539  -27.5863 H   0  0  0  0  0  0  0  0  0  0  0  0
   -1.1610   25.6990  -29.2686 H   0  0  0  0  0  0  0  0  0  0  0  0
   -1.5952   23.8084  -26.9606 H   0  0  0  0  0  0  0  0  0  0  0  0
   -2.8962   24.9922  -27.3681 H   0  0  0  0  0  0  0  0  0  0  0  0
   -2.5080   24.0210  -29.8150 H   0  0  0  0  0  0  0  0  0  0  0  0
   -2.7441   20.7588  -30.2410 H   0  0  0  0  0  0  0  0  0  0  0  0
   -4.3331   20.9137  -29.4087 H   0  0  0  0  0  0  0  0  0  0  0  0
   -3.4910   26.0500  -31.2680 H   0  0  0  0  0  0  0  0  0  0  0  0
   -8.0414   24.6282  -31.2124 H   0  0  0  0  0  0  0  0  0  0  0  0
   -9.6075   22.3708  -32.0139 H   0  0  0  0  0  0  0  0  0  0  0  0
   -9.4553   19.9165  -32.5463 H   0  0  0  0  0  0  0  0  0  0  0  0
   -5.1921   19.9850  -31.6276 H   0  0  0  0  0  0  0  0  0  0  0  0
  1  2  1  0
  2  3  1  0
  2  4  1  0
  4  5  1  0
  5  6  1  0
  6  7  1  0
  7  8  2  0
  7  9  1  0
  9 10  1  0
 10 11  2  0
 10 12  1  0
 12 13  1  0
 13 14  1  0
 14 15  1  0
 14 16  2  0
 13 17  2  0
 17 18  1  0
 18 19  2  0
 19 20  1  0
 20 21  2  0
 21 22  1  0
 22 23  1  0
 22 24  1  0
 22 25  1  0
 21 26  1  0
 26 27  2  0
 27 12  1  0
 27 18  1  0
  1 28  1  0
  1 29  1  0
  1 30  1  0
  3 31  1  0
  3 32  1  0
  3 33  1  0
  4 34  1  0
  4 35  1  0
  5 36  1  0
  5 37  1  0
  6 38  1  0
  9 39  1  0
  9 40  1  0
 15 41  1  0
 17 42  1  0
 19 43  1  0
 20 44  1  0
 26 45  1  0
M  CHG  1  15  -1
M  END
>  <UniqueID>  (7) 
7

>  <SMILES>  (7) 
CN(C)CCNC(=O)CC(=O)n1c(C([NH-])=O)cc2ccc(C(F)(F)F)cc21

>  <Energy>  (7) 
78.36293090984404

>  <Genealogy>  (7) 
CN(C)CCNC(=O)CC(=O)n1c(C([NH-])=O)cc2ccc(C(F)(F)F)cc21 (protonated)
CN(C)CCNC(=O)CC(=O)n1c(C([NH-])=O)cc2ccc(C(F)(F)F)cc21 (3D coordinates assigned)
CN(C)CCNC(=O)CC(=O)n1c(C([NH-])=O)cc2ccc(C(F)(F)F)cc21 (optimized conformer: 78.36293090984404 kcal/mol)

>  <smiles>  (7) 
CN(C)CCNC(=O)CC(=O)n1c(C(N)=O)cc2ccc(C(F)(F)F)cc21

>  <score_type>  (7) 
oracle

>  <origin>  (7) 
adg

>  <m_score__min__energy>  (7) 
-10.210000000000001

>  <m_primary>  (7) 
energy

$$$$
7:0
     RDKit          3D

 31 32  0  0  0  0  0  0  0  0999 V2000
   -4.1860   25.4870  -30.6070 N   0  0  0  0  0  0  0  0  0  0  0  0
   -5.5460   25.0770  -30.4570 C   0  0  0  0  0  0  0  0  0  0  0  0
   -6.3720   25.8650  -29.9230 O   0  0  0  0  0  0  0  0  0  0  0  0
   -6.0150   23.7760  -30.9730 C   0  0  0  0  0  0  0  0  0  0  0  0
   -7.3610   23.4450  -31.1060 C   0  0  0  0  0  0  0  0  0  0  0  0
   -7.3710   22.1920  -31.6710 C   0  0  0  0  0  0  0  0  0  0  0  0
   -8.4460   21.3720  -32.0080 C   0  0  0  0  0  0  0  0  0  0  0  0
   -8.1650   20.1040  -32.5410 C   0  0  0  0  0  0  0  0  0  0  0  0
   -6.8270   19.6750  -32.7180 C   0  0  0  0  0  0  0  0  0  0  0  0
   -6.5310   18.3090  -33.2690 C   0  0  0  0  0  0  0  0  0  0  0  0
   -5.8780   18.4260  -34.4840 F   0  0  0  0  0  0  0  0  0  0  0  0
   -5.7280   17.6130  -32.3840 F   0  0  0  0  0  0  0  0  0  0  0  0
   -5.7620   20.5310  -32.3600 C   0  0  0  0  0  0  0  0  0  0  0  0
   -6.0690   21.8000  -31.8510 C   0  0  0  0  0  0  0  0  0  0  0  0
   -5.2220   22.7630  -31.4240 N   0  0  0  0  0  0  0  0  0  0  0  0
   -3.7900   22.6770  -31.3390 C   0  0  0  0  0  0  0  0  0  0  0  0
   -3.1230   22.2630  -32.3260 O   0  0  0  0  0  0  0  0  0  0  0  0
   -3.1410   23.0550  -30.1580 O   0  0  0  0  0  0  0  0  0  0  0  0
   -1.7300   22.9710  -29.9770 C   0  0  0  0  0  0  0  0  0  0  0  0
   -1.2080   24.2310  -29.3650 C   0  0  0  0  0  0  0  0  0  0  0  0
   -0.0470   24.2690  -28.8810 O   0  0  0  0  0  0  0  0  0  0  0  0
   -2.0170   25.3590  -29.3030 O   0  0  0  0  0  0  0  0  0  0  0  0
   -3.8630   26.3920  -30.2000 H   0  0  0  0  0  0  0  0  0  0  0  0
   -3.5170   24.9350  -31.1880 H   0  0  0  0  0  0  0  0  0  0  0  0
   -8.2302   24.0555  -30.8201 H   0  0  0  0  0  0  0  0  0  0  0  0
   -9.4831   21.7079  -31.8609 H   0  0  0  0  0  0  0  0  0  0  0  0
   -8.9925   19.4369  -32.8240 H   0  0  0  0  0  0  0  0  0  0  0  0
   -7.4772   17.7665  -33.4117 H   0  0  0  0  0  0  0  0  0  0  0  0
   -4.7167   20.2092  -32.4779 H   0  0  0  0  0  0  0  0  0  0  0  0
   -1.4992   22.1235  -29.3148 H   0  0  0  0  0  0  0  0  0  0  0  0
   -1.2522   22.8254  -30.9571 H   0  0  0  0  0  0  0  0  0  0  0  0
  1  2  1  0
  2  3  2  0
  2  4  1  0
  4  5  2  0
  5  6  1  0
  6  7  2  0
  7  8  1  0
  8  9  2  0
  9 10  1  0
 10 11  1  0
 10 12  1  0
  9 13  1  0
 13 14  2  0
 14 15  1  0
 15 16  1  0
 16 17  2  0
 16 18  1  0
 18 19  1  0
 19 20  1  0
 20 21  2  0
 20 22  1  0
 15  4  1  0
 14  6  1  0
  1 23  1  0
  1 24  1  0
  5 25  1  0
  7 26  1  0
  8 27  1  0
 10 28  1  0
 13 29  1  0
 19 30  1  0
 19 31  1  0
M  CHG  1  22  -1
M  END
>  <UniqueID>  (8) 
8

>  <SMILES>  (8) 
NC(=O)c1cc2ccc(C(F)F)cc2n1C(=O)OCC(=O)[O-]

>  <Energy>  (8) 
68.04046572278995

>  <Genealogy>  (8) 
NC(=O)c1cc2ccc(C(F)F)cc2n1C(=O)OCC(=O)[O-] (protonated)
NC(=O)c1cc2ccc(C(F)F)cc2n1C(=O)OCC(=O)[O-] (3D coordinates assigned)
NC(=O)c1cc2ccc(C(F)F)cc2n1C(=O)OCC(=O)[O-] (optimized conformer: 68.04046572278995 kcal/mol)

>  <smiles>  (8) 
NC(=O)c1cc2ccc(C(F)F)cc2n1C(=O)OCC(=O)O

>  <score_type>  (8) 
oracle

>  <origin>  (8) 
adg

>  <m_score__min__energy>  (8) 
-9.7300000000000004

>  <m_primary>  (8) 
energy

$$$$
8:0
     RDKit          3D

 43 44  0  0  0  0  0  0  0  0999 V2000
   -4.4220   14.9100  -34.2180 C   0  0  0  0  0  0  0  0  0  0  0  0
   -5.0790   16.2200  -34.2770 N   0  0  0  0  0  0  0  0  0  0  0  0
   -4.2920   17.4100  -34.6340 C   0  0  0  0  0  0  0  0  0  0  0  0
   -3.4810   17.9390  -33.4400 C   0  0  0  0  0  0  0  0  0  0  0  0
   -3.3020   19.3990  -33.5090 N   0  0  0  0  0  0  0  0  0  0  0  0
   -2.1350   19.9330  -34.2190 C   0  0  0  0  0  0  0  0  0  0  0  0
   -4.3200   20.2990  -33.0230 C   0  0  0  0  0  0  0  0  0  0  0  0
   -5.6720   20.1380  -33.4200 C   0  0  0  0  0  0  0  0  0  0  0  0
   -6.6550   21.0520  -33.0070 C   0  0  0  0  0  0  0  0  0  0  0  0
   -6.2650   22.1040  -32.1840 C   0  0  0  0  0  0  0  0  0  0  0  0
   -7.0000   23.1550  -31.6870 C   0  0  0  0  0  0  0  0  0  0  0  0
   -6.0990   23.9180  -30.9520 C   0  0  0  0  0  0  0  0  0  0  0  0
   -6.4850   25.1260  -30.1970 C   0  0  0  0  0  0  0  0  0  0  0  0
   -5.7520   26.3450  -30.3270 N   0  0  0  0  0  0  0  0  0  0  0  0
   -7.4420   25.0640  -29.3800 O   0  0  0  0  0  0  0  0  0  0  0  0
   -4.8510   23.3700  -31.0000 N   0  0  0  0  0  0  0  0  0  0  0  0
   -3.6330   23.9220  -30.4730 C   0  0  0  0  0  0  0  0  0  0  0  0
   -2.7350   23.1650  -30.0200 O   0  0  0  0  0  0  0  0  0  0  0  0
   -3.4330   25.2960  -30.4530 O   0  0  0  0  0  0  0  0  0  0  0  0
   -4.9720   22.2560  -31.7570 C   0  0  0  0  0  0  0  0  0  0  0  0
   -3.9690   21.3710  -32.1690 C   0  0  0  0  0  0  0  0  0  0  0  0
   -6.4930   16.3110  -34.0120 C   0  0  0  0  0  0  0  0  0  0  0  0
   -7.2300   15.3040  -34.2030 O   0  0  0  0  0  0  0  0  0  0  0  0
   -7.0410   17.5130  -33.5440 O   0  0  0  0  0  0  0  0  0  0  0  0
   -7.4470   17.7500  -32.2240 C   0  0  0  0  0  0  0  0  0  0  0  0
   -8.5810   18.2260  -31.9550 O   0  0  0  0  0  0  0  0  0  0  0  0
   -4.2765   14.6198  -33.1670 H   0  0  0  0  0  0  0  0  0  0  0  0
   -5.0512   14.1612  -34.7214 H   0  0  0  0  0  0  0  0  0  0  0  0
   -3.4456   14.9665  -34.7214 H   0  0  0  0  0  0  0  0  0  0  0  0
   -3.5987   17.1474  -35.4467 H   0  0  0  0  0  0  0  0  0  0  0  0
   -4.9905   18.1993  -34.9488 H   0  0  0  0  0  0  0  0  0  0  0  0
   -4.0112   17.6882  -32.5094 H   0  0  0  0  0  0  0  0  0  0  0  0
   -2.4866   17.4694  -33.4651 H   0  0  0  0  0  0  0  0  0  0  0  0
   -1.3867   20.2754  -33.4890 H   0  0  0  0  0  0  0  0  0  0  0  0
   -1.6978   19.1453  -34.8502 H   0  0  0  0  0  0  0  0  0  0  0  0
   -2.4452   20.7788  -34.8502 H   0  0  0  0  0  0  0  0  0  0  0  0
   -5.9538   19.2878  -34.0585 H   0  0  0  0  0  0  0  0  0  0  0  0
   -7.7021   20.9396  -33.3247 H   0  0  0  0  0  0  0  0  0  0  0  0
   -8.0718   23.3504  -31.8385 H   0  0  0  0  0  0  0  0  0  0  0  0
   -4.8570   26.3810  -30.8620 H   0  0  0  0  0  0  0  0  0  0  0  0
   -6.0630   27.2000  -29.8140 H   0  0  0  0  0  0  0  0  0  0  0  0
   -2.9294   21.5061  -31.8358 H   0  0  0  0  0  0  0  0  0  0  0  0
   -6.7565   17.5139  -31.4009 H   0  0  0  0  0  0  0  0  0  0  0  0
  1  2  1  0
  2  3  1  0
  3  4  1  0
  4  5  1  0
  5  6  1  0
  5  7  1  0
  7  8  2  0
  8  9  1  0
  9 10  2  0
 10 11  1  0
 11 12  2  0
 12 13  1  0
 13 14  1  0
 13 15  2  0
 12 16  1  0
 16 17  1  0
 17 18  2  0
 17 19  1  0
 16 20  1  0
 20 21  2  0
  2 22  1  0
 22 23  2  0
 22 24  1  0
 24 25  1  0
 25 26  2  0
 21  7  1  0
 20 10  1  0
  1 27  1  0
  1 28  1  0
  1 29  1  0
  3 30  1  0
  3 31  1  0
  4 32  1  0
  4 33  1  0
  6 34  1  0
  6 35  1  0
  6 36  1  0
  8 37  1  0
  9 38  1  0
 11 39  1  0
 14 40  1  0
 14 41  1  0
 21 42  1  0
 25 43  1  0
M  CHG  1  19  -1
M  END
>  <UniqueID>  (9) 
9

>  <SMILES>  (9) 
CN(CCN(C)c1ccc2cc(C(N)=O)n(C(=O)[O-])c2c1)C(=O)OC=O

>  <Energy>  (9) 
79.41555265628487

>  <Genealogy>  (9) 
CN(CCN(C)c1ccc2cc(C(N)=O)n(C(=O)[O-])c2c1)C(=O)OC=O (protonated)
CN(CCN(C)c1ccc2cc(C(N)=O)n(C(=O)[O-])c2c1)C(=O)OC=O (3D coordinates assigned)
CN(CCN(C)c1ccc2cc(C(N)=O)n(C(=O)[O-])c2c1)C(=O)OC=O (optimized conformer: 79.41555265628487 kcal/mol)

>  <smiles>  (9) 
CN(CCN(C)c1ccc2cc(C(N)=O)n(C(=O)O)c2c1)C(=O)OC=O

>  <score_type>  (9) 
oracle

>  <origin>  (9) 
adg

>  <m_score__min__energy>  (9) 
-8.9199999999999999

>  <m_primary>  (9) 
energy

$$$$
9:0
     RDKit          3D

 40 41  0  0  0  0  0  0  0  0999 V2000
   -2.7580   20.1770  -27.8240 C   0  0  0  0  0  0  0  0  0  0  0  0
   -3.0880   21.3900  -28.5750 N   0  0  0  0  0  0  0  0  0  0  0  0
   -3.1730   22.6490  -27.8810 C   0  0  0  0  0  0  0  0  0  0  0  0
   -4.2970   23.1890  -27.6850 O   0  0  0  0  0  0  0  0  0  0  0  0
   -2.0070   23.2660  -27.4120 O   0  0  0  0  0  0  0  0  0  0  0  0
   -1.9230   24.6580  -27.1090 C   0  0  0  0  0  0  0  0  0  0  0  0
   -1.6220   25.4420  -28.3460 C   0  0  0  0  0  0  0  0  0  0  0  0
   -2.3330   25.3000  -29.3750 O   0  0  0  0  0  0  0  0  0  0  0  0
   -0.5720   26.3490  -28.3540 O   0  0  0  0  0  0  0  0  0  0  0  0
   -3.3600   21.3220  -29.9880 C   0  0  0  0  0  0  0  0  0  0  0  0
   -3.1250   20.2500  -30.6100 O   0  0  0  0  0  0  0  0  0  0  0  0
   -3.9070   22.4800  -30.7270 C   0  0  0  0  0  0  0  0  0  0  0  0
   -3.1310   23.3340  -31.2310 O   0  0  0  0  0  0  0  0  0  0  0  0
   -5.3250   22.6440  -30.8780 N   0  0  0  0  0  0  0  0  0  0  0  0
   -6.0350   23.8010  -30.7730 C   0  0  0  0  0  0  0  0  0  0  0  0
   -5.4980   25.1060  -30.3340 C   0  0  0  0  0  0  0  0  0  0  0  0
   -4.2090   25.5590  -30.7480 N   0  0  0  0  0  0  0  0  0  0  0  0
   -6.1750   25.8180  -29.5440 O   0  0  0  0  0  0  0  0  0  0  0  0
   -7.3620   23.5970  -31.1460 C   0  0  0  0  0  0  0  0  0  0  0  0
   -7.4430   22.2650  -31.4870 C   0  0  0  0  0  0  0  0  0  0  0  0
   -8.5210   21.5270  -31.9650 C   0  0  0  0  0  0  0  0  0  0  0  0
   -8.3020   20.1780  -32.2940 C   0  0  0  0  0  0  0  0  0  0  0  0
   -7.0150   19.6000  -32.1510 C   0  0  0  0  0  0  0  0  0  0  0  0
   -6.7780   18.1660  -32.5290 C   0  0  0  0  0  0  0  0  0  0  0  0
   -7.9730   17.4700  -32.4950 F   0  0  0  0  0  0  0  0  0  0  0  0
   -5.8900   17.5910  -31.6380 F   0  0  0  0  0  0  0  0  0  0  0  0
   -5.9440   20.3850  -31.6710 C   0  0  0  0  0  0  0  0  0  0  0  0
   -6.1980   21.7160  -31.3240 C   0  0  0  0  0  0  0  0  0  0  0  0
   -2.8150   20.3865  -26.7456 H   0  0  0  0  0  0  0  0  0  0  0  0
   -3.4722   19.3809  -28.0811 H   0  0  0  0  0  0  0  0  0  0  0  0
   -1.7389   19.8524  -28.0811 H   0  0  0  0  0  0  0  0  0  0  0  0
   -2.8819   24.9964  -26.6895 H   0  0  0  0  0  0  0  0  0  0  0  0
   -1.1150   24.8169  -26.3797 H   0  0  0  0  0  0  0  0  0  0  0  0
   -3.5390   24.9200  -31.2300 H   0  0  0  0  0  0  0  0  0  0  0  0
   -3.8780   26.5120  -30.4780 H   0  0  0  0  0  0  0  0  0  0  0  0
   -8.1720   24.3410  -31.1642 H   0  0  0  0  0  0  0  0  0  0  0  0
   -9.5143   21.9850  -32.0819 H   0  0  0  0  0  0  0  0  0  0  0  0
   -9.1365   19.5652  -32.6657 H   0  0  0  0  0  0  0  0  0  0  0  0
   -6.3589   18.1263  -33.5452 H   0  0  0  0  0  0  0  0  0  0  0  0
   -4.9342   19.9601  -31.5723 H   0  0  0  0  0  0  0  0  0  0  0  0
  1  2  1  0
  2  3  1  0
  3  4  2  0
  3  5  1  0
  5  6  1  0
  6  7  1  0
  7  8  2  0
  7  9  1  0
  2 10  1  0
 10 11  2  0
 10 12  1  0
 12 13  2  0
 12 14  1  0
 14 15  1  0
 15 16  1  0
 16 17  1  0
 16 18  2  0
 15 19  2  0
 19 20  1  0
 20 21  2  0
 21 22  1  0
 22 23  2  0
 23 24  1  0
 24 25  1  0
 24 26  1  0
 23 27  1  0
 27 28  2  0
 28 14  1  0
 28 20  1  0
  1 29  1  0
  1 30  1  0
  1 31  1  0
  6 32  1  0
  6 33  1  0
 17 34  1  0
 17 35  1  0
 19 36  1  0
 21 37  1  0
 22 38  1  0
 24 39  1  0
 27 40  1  0
M  CHG  1   9  -1
M  END
>  <UniqueID>  (10) 
10

>  <SMILES>  (10) 
CN(C(=O)OCC(=O)[O-])C(=O)C(=O)n1c(C(N)=O)cc2ccc(C(F)F)cc21

>  <Energy>  (10) 
81.37400487679925

>  <Genealogy>  (10) 
CN(C(=O)OCC(=O)[O-])C(=O)C(=O)n1c(C(N)=O)cc2ccc(C(F)F)cc21 (protonated)
CN(C(=O)OCC(=O)[O-])C(=O)C(=O)n1c(C(N)=O)cc2ccc(C(F)F)cc21 (3D coordinates assigned)
CN(C(=O)OCC(=O)[O-])C(=O)C(=O)n1c(C(N)=O)cc2ccc(C(F)F)cc21 (optimized conformer: 81.37400487679925 kcal/mol)

>  <smiles>  (10) 
CN(C(=O)OCC(=O)O)C(=O)C(=O)n1c(C(N)=O)cc2ccc(C(F)F)cc21

>  <score_type>  (10) 
oracle

>  <origin>  (10) 
adg

>  <m_score__min__energy>  (10) 
-10.380000000000001

>  <m_primary>  (10) 
energy

$$$$
10:0
     RDKit          3D

 44 45  0  0  0  0  0  0  0  0999 V2000
   -2.1360   21.0240  -30.1670 C   0  0  0  0  0  0  0  0  0  0  0  0
   -3.4370   21.6190  -29.8330 N   0  0  1  0  0  0  0  0  0  0  0  0
   -3.4010   22.2060  -28.5150 C   0  0  0  0  0  0  0  0  0  0  0  0
   -3.1380   21.4960  -27.5030 O   0  0  0  0  0  0  0  0  0  0  0  0
   -3.6860   23.5690  -28.3630 O   0  0  0  0  0  0  0  0  0  0  0  0
   -3.8710   24.1820  -27.0930 C   0  0  0  0  0  0  0  0  0  0  0  0
   -2.9910   25.2950  -26.9690 O   0  0  0  0  0  0  0  0  0  0  0  0
   -1.7570   25.2130  -26.3200 C   0  0  0  0  0  0  0  0  0  0  0  0
   -1.6960   24.9610  -25.0850 O   0  0  0  0  0  0  0  0  0  0  0  0
   -0.5040   25.4760  -27.0870 C   0  0  0  0  0  0  0  0  0  0  0  0
   -0.6750   25.0330  -28.5050 C   0  0  0  0  0  0  0  0  0  0  0  0
    0.0440   24.1080  -28.9720 O   0  0  0  0  0  0  0  0  0  0  0  0
   -1.5930   25.6740  -29.3280 O   0  0  0  0  0  0  0  0  0  0  0  0
   -3.8120   22.5960  -30.8320 C   0  0  0  0  0  0  0  0  0  0  0  0
   -2.9340   23.1350  -31.5630 O   0  0  0  0  0  0  0  0  0  0  0  0
   -5.1980   22.8520  -31.0960 N   0  0  0  0  0  0  0  0  0  0  0  0
   -5.8960   23.9990  -30.8730 C   0  0  0  0  0  0  0  0  0  0  0  0
   -5.3170   25.2970  -30.4710 C   0  0  0  0  0  0  0  0  0  0  0  0
   -3.9930   25.6560  -30.8570 N   0  0  0  0  0  0  0  0  0  0  0  0
   -6.0150   26.1160  -29.8150 O   0  0  0  0  0  0  0  0  0  0  0  0
   -7.2510   23.8020  -31.1370 C   0  0  0  0  0  0  0  0  0  0  0  0
   -7.3580   22.4880  -31.5390 C   0  0  0  0  0  0  0  0  0  0  0  0
   -8.4780   21.7460  -31.9000 C   0  0  0  0  0  0  0  0  0  0  0  0
   -8.2910   20.3940  -32.2400 C   0  0  0  0  0  0  0  0  0  0  0  0
   -6.9940   19.8130  -32.2240 C   0  0  0  0  0  0  0  0  0  0  0  0
   -6.8080   18.3480  -32.5280 C   0  0  0  0  0  0  0  0  0  0  0  0
   -8.0000   17.6830  -32.3110 F   0  0  0  0  0  0  0  0  0  0  0  0
   -6.4210   18.1620  -33.8430 F   0  0  0  0  0  0  0  0  0  0  0  0
   -5.8330   17.8050  -31.7090 F   0  0  0  0  0  0  0  0  0  0  0  0
   -5.8860   20.5960  -31.8270 C   0  0  0  0  0  0  0  0  0  0  0  0
   -6.1020   21.9390  -31.5070 C   0  0  0  0  0  0  0  0  0  0  0  0
   -1.5969   20.7774  -29.2404 H   0  0  0  0  0  0  0  0  0  0  0  0
   -2.2920   20.1077  -30.7553 H   0  0  0  0  0  0  0  0  0  0  0  0
   -1.5449   21.7413  -30.7553 H   0  0  0  0  0  0  0  0  0  0  0  0
   -4.1510   20.8520  -29.8310 H   0  0  0  0  0  0  0  0  0  0  0  0
   -4.9118   24.5257  -27.0001 H   0  0  0  0  0  0  0  0  0  0  0  0
   -3.6528   23.4525  -26.2991 H   0  0  0  0  0  0  0  0  0  0  0  0
   -0.2819   26.5531  -27.0653 H   0  0  0  0  0  0  0  0  0  0  0  0
    0.3256   24.9170  -26.6296 H   0  0  0  0  0  0  0  0  0  0  0  0
   -3.1720   25.0770  -30.5700 H   0  0  0  0  0  0  0  0  0  0  0  0
   -8.0623   24.5390  -31.0441 H   0  0  0  0  0  0  0  0  0  0  0  0
   -9.4787   22.2024  -31.9190 H   0  0  0  0  0  0  0  0  0  0  0  0
   -9.1586   19.7792  -32.5215 H   0  0  0  0  0  0  0  0  0  0  0  0
   -4.8782   20.1587  -31.7713 H   0  0  0  0  0  0  0  0  0  0  0  0
  1  2  1  0
  2  3  1  0
  3  4  2  0
  3  5  1  0
  5  6  1  0
  6  7  1  0
  7  8  1  0
  8  9  2  0
  8 10  1  0
 10 11  1  0
 11 12  2  0
 11 13  1  0
  2 14  1  0
 14 15  2  0
 14 16  1  0
 16 17  1  0
 17 18  1  0
 18 19  1  0
 18 20  2  0
 17 21  2  0
 21 22  1  0
 22 23  2  0
 23 24  1  0
 24 25  2  0
 25 26  1  0
 26 27  1  0
 26 28  1  0
 26 29  1  0
 25 30  1  0
 30 31  2  0
 31 16  1  0
 31 22  1  0
  1 32  1  0
  1 33  1  0
  1 34  1  0
  2 35  1  1
  6 36  1  0
  6 37  1  0
 10 38  1  0
 10 39  1  0
 19 40  1  0
 21 41  1  0
 23 42  1  0
 24 43  1  0
 30 44  1  0
M  CHG  3   2   1  13  -1  19  -1
M  END
>  <UniqueID>  (11) 
11

>  <SMILES>  (11) 
C[NH+](C(=O)OCOC(=O)CC(=O)[O-])C(=O)n1c(C([NH-])=O)cc2ccc(C(F)(F)F)cc21

>  <Energy>  (11) 
80.66438890851818

>  <Genealogy>  (11) 
C[NH+](C(=O)OCOC(=O)CC(=O)[O-])C(=O)n1c(C([NH-])=O)cc2ccc(C(F)(F)F)cc21 (protonated)
C[NH+](C(=O)OCOC(=O)CC(=O)[O-])C(=O)n1c(C([NH-])=O)cc2ccc(C(F)(F)F)cc21 (3D coordinates assigned)
C[NH+](C(=O)OCOC(=O)CC(=O)[O-])C(=O)n1c(C([NH-])=O)cc2ccc(C(F)(F)F)cc21 (optimized conformer: 80.66438890851818 kcal/mol)

>  <smiles>  (11) 
CN(C(=O)OCOC(=O)CC(=O)O)C(=O)n1c(C(N)=O)cc2ccc(C(F)(F)F)cc21

>  <score_type>  (11) 
oracle

>  <origin>  (11) 
adg

>  <m_score__min__energy>  (11) 
-11.029999999999999

>  <m_primary>  (11) 
energy

$$$$
11:0
     RDKit          3D

 38 40  0  0  0  0  0  0  0  0999 V2000
   -3.5350   22.3270  -27.9390 C   0  0  0  0  0  0  0  0  0  0  0  0
   -3.1930   21.1560  -28.7490 N   0  0  0  0  0  0  0  0  0  0  0  0
   -3.3200   21.2130  -30.1800 C   0  0  0  0  0  0  0  0  0  0  0  0
   -3.0880   20.1800  -30.8650 O   0  0  0  0  0  0  0  0  0  0  0  0
   -3.7550   22.4500  -30.8560 C   0  0  0  0  0  0  0  0  0  0  0  0
   -2.9030   23.3040  -31.2200 O   0  0  0  0  0  0  0  0  0  0  0  0
   -5.1480   22.7070  -31.0750 N   0  0  0  0  0  0  0  0  0  0  0  0
   -5.8380   23.8490  -30.7980 C   0  0  0  0  0  0  0  0  0  0  0  0
   -5.2520   25.1150  -30.3080 C   0  0  0  0  0  0  0  0  0  0  0  0
   -4.0310   25.6170  -30.8420 N   0  0  0  0  0  0  0  0  0  0  0  0
   -5.8520   25.7760  -29.4170 O   0  0  0  0  0  0  0  0  0  0  0  0
   -7.1920   23.6800  -31.0870 C   0  0  0  0  0  0  0  0  0  0  0  0
   -7.3100   22.3870  -31.5450 C   0  0  0  0  0  0  0  0  0  0  0  0
   -8.4320   21.6830  -31.9700 C   0  0  0  0  0  0  0  0  0  0  0  0
   -8.2590   20.3480  -32.3700 C   0  0  0  0  0  0  0  0  0  0  0  0
   -6.9800   19.7320  -32.3150 C   0  0  0  0  0  0  0  0  0  0  0  0
   -6.8010   18.3110  -32.7860 C   0  0  0  0  0  0  0  0  0  0  0  0
   -6.4630   18.3150  -34.1260 F   0  0  0  0  0  0  0  0  0  0  0  0
   -7.9710   17.5900  -32.6180 F   0  0  0  0  0  0  0  0  0  0  0  0
   -5.7970   17.6810  -32.0700 F   0  0  0  0  0  0  0  0  0  0  0  0
   -5.8620   20.4890  -31.8980 C   0  0  0  0  0  0  0  0  0  0  0  0
   -6.0620   21.8220  -31.5240 C   0  0  0  0  0  0  0  0  0  0  0  0
   -2.3190   20.1400  -28.1600 C   0  0  0  0  0  0  0  0  0  0  0  0
   -1.9020   20.4410  -26.7290 C   0  0  0  0  0  0  0  0  0  0  0  0
   -2.9490   19.3760  -27.0050 C   0  0  0  0  0  0  0  0  0  0  0  0
   -3.4598   22.0695  -26.8722 H   0  0  0  0  0  0  0  0  0  0  0  0
   -2.8389   23.1473  -28.1682 H   0  0  0  0  0  0  0  0  0  0  0  0
   -4.5632   22.6438  -28.1682 H   0  0  0  0  0  0  0  0  0  0  0  0
   -3.1090   25.2910  -30.4780 H   0  0  0  0  0  0  0  0  0  0  0  0
   -7.9955   24.4226  -30.9731 H   0  0  0  0  0  0  0  0  0  0  0  0
   -9.4242   22.1574  -31.9921 H   0  0  0  0  0  0  0  0  0  0  0  0
   -9.1243   19.7723  -32.7303 H   0  0  0  0  0  0  0  0  0  0  0  0
   -4.8580   20.0406  -31.8682 H   0  0  0  0  0  0  0  0  0  0  0  0
   -1.7935   19.8620  -29.0855 H   0  0  0  0  0  0  0  0  0  0  0  0
   -0.9019   20.1502  -26.3750 H   0  0  0  0  0  0  0  0  0  0  0  0
   -1.8596   21.3464  -26.1057 H   0  0  0  0  0  0  0  0  0  0  0  0
   -2.7071   18.3140  -26.8511 H   0  0  0  0  0  0  0  0  0  0  0  0
   -3.9785   19.1909  -26.6646 H   0  0  0  0  0  0  0  0  0  0  0  0
  1  2  1  0
  2  3  1  0
  3  4  2  0
  3  5  1  0
  5  6  2  0
  5  7  1  0
  7  8  1  0
  8  9  1  0
  9 10  1  0
  9 11  2  0
  8 12  2  0
 12 13  1  0
 13 14  2  0
 14 15  1  0
 15 16  2  0
 16 17  1  0
 17 18  1  0
 17 19  1  0
 17 20  1  0
 16 21  1  0
 21 22  2  0
  2 23  1  0
 23 24  1  0
 24 25  1  0
 22  7  1  0
 25 23  1  0
 22 13  1  0
  1 26  1  0
  1 27  1  0
  1 28  1  0
 10 29  1  0
 12 30  1  0
 14 31  1  0
 15 32  1  0
 21 33  1  0
 23 34  1  0
 24 35  1  0
 24 36  1  0
 25 37  1  0
 25 38  1  0
M  CHG  1  10  -1
M  END
>  <UniqueID>  (12) 
12

>  <SMILES>  (12) 
CN(C(=O)C(=O)n1c(C([NH-])=O)cc2ccc(C(F)(F)F)cc21)C1CC1

>  <Energy>  (12) 
346.07879641647287

>  <Genealogy>  (12) 
CN(C(=O)C(=O)n1c(C([NH-])=O)cc2ccc(C(F)(F)F)cc21)C1CC1 (protonated)
CN(C(=O)C(=O)n1c(C([NH-])=O)cc2ccc(C(F)(F)F)cc21)C1CC1 (3D coordinates assigned)
CN(C(=O)C(=O)n1c(C([NH-])=O)cc2ccc(C(F)(F)F)cc21)C1CC1 (nonaromatic ring conformer: 346.07879641647287 kcal/mol)

>  <smiles>  (12) 
CN(C(=O)C(=O)n1c(C(N)=O)cc2ccc(C(F)(F)F)cc21)C1CC1

>  <score_type>  (12) 
oracle

>  <origin>  (12) 
adg

>  <m_score__min__energy>  (12) 
-9.9900000000000002

>  <m_primary>  (12) 
energy

$$$$
12:0
     RDKit          3D

 35 36  0  0  0  0  0  0  0  0999 V2000
   -1.5600   20.0350  -33.0950 C   0  0  0  0  0  0  0  0  0  0  0  0
   -1.9730   20.9720  -32.0450 N   0  0  0  0  0  0  0  0  0  0  0  0
   -1.1810   21.0790  -30.8150 C   0  0  0  0  0  0  0  0  0  0  0  0
   -3.0970   21.8450  -32.2930 C   0  0  0  0  0  0  0  0  0  0  0  0
   -3.5250   21.9840  -33.4720 O   0  0  0  0  0  0  0  0  0  0  0  0
   -3.7830   22.5870  -31.2120 C   0  0  0  0  0  0  0  0  0  0  0  0
   -3.1180   23.1140  -30.2800 O   0  0  0  0  0  0  0  0  0  0  0  0
   -5.2180   22.6620  -31.1790 N   0  0  0  0  0  0  0  0  0  0  0  0
   -5.9820   23.7500  -30.8840 C   0  0  0  0  0  0  0  0  0  0  0  0
   -5.4820   25.0470  -30.3840 C   0  0  0  0  0  0  0  0  0  0  0  0
   -4.1800   25.5230  -30.7270 N   0  0  0  0  0  0  0  0  0  0  0  0
   -6.2000   25.7260  -29.6020 O   0  0  0  0  0  0  0  0  0  0  0  0
   -7.3310   23.4770  -31.1050 C   0  0  0  0  0  0  0  0  0  0  0  0
   -7.3700   22.1740  -31.5460 C   0  0  0  0  0  0  0  0  0  0  0  0
   -8.4520   21.3990  -31.9520 C   0  0  0  0  0  0  0  0  0  0  0  0
   -8.1930   20.0990  -32.4200 C   0  0  0  0  0  0  0  0  0  0  0  0
   -6.8680   19.5960  -32.4690 C   0  0  0  0  0  0  0  0  0  0  0  0
   -6.5960   18.2250  -33.0350 C   0  0  0  0  0  0  0  0  0  0  0  0
   -6.4200   18.2890  -34.4060 F   0  0  0  0  0  0  0  0  0  0  0  0
   -5.4510   17.6850  -32.4760 F   0  0  0  0  0  0  0  0  0  0  0  0
   -7.6670   17.3980  -32.7560 F   0  0  0  0  0  0  0  0  0  0  0  0
   -5.7920   20.4260  -32.0740 C   0  0  0  0  0  0  0  0  0  0  0  0
   -6.0820   21.7060  -31.5870 C   0  0  0  0  0  0  0  0  0  0  0  0
   -1.1573   19.1213  -32.6334 H   0  0  0  0  0  0  0  0  0  0  0  0
   -2.4283   19.7782  -33.7195 H   0  0  0  0  0  0  0  0  0  0  0  0
   -0.7846   20.5027  -33.7195 H   0  0  0  0  0  0  0  0  0  0  0  0
   -1.8448   20.9893  -29.9425 H   0  0  0  0  0  0  0  0  0  0  0  0
   -0.4319   20.2739  -30.7901 H   0  0  0  0  0  0  0  0  0  0  0  0
   -0.6724   22.0540  -30.7901 H   0  0  0  0  0  0  0  0  0  0  0  0
   -3.8680   26.4670  -30.4060 H   0  0  0  0  0  0  0  0  0  0  0  0
   -3.4880   24.9090  -31.2110 H   0  0  0  0  0  0  0  0  0  0  0  0
   -8.1825   24.1577  -30.9582 H   0  0  0  0  0  0  0  0  0  0  0  0
   -9.4786   21.7916  -31.9081 H   0  0  0  0  0  0  0  0  0  0  0  0
   -9.0279   19.4645  -32.7521 H   0  0  0  0  0  0  0  0  0  0  0  0
   -4.7525   20.0738  -32.1479 H   0  0  0  0  0  0  0  0  0  0  0  0
  1  2  1  0
  2  3  1  0
  2  4  1  0
  4  5  2  0
  4  6  1  0
  6  7  2  0
  6  8  1  0
  8  9  1  0
  9 10  1  0
 10 11  1  0
 10 12  2  0
  9 13  2  0
 13 14  1  0
 14 15  2  0
 15 16  1  0
 16 17  2  0
 17 18  1  0
 18 19  1  0
 18 20  1  0
 18 21  1  0
 17 22  1  0
 22 23  2  0
 23  8  1  0
 23 14  1  0
  1 24  1  0
  1 25  1  0
  1 26  1  0
  3 27  1  0
  3 28  1  0
  3 29  1  0
 11 30  1  0
 11 31  1  0
 13 32  1  0
 15 33  1  0
 16 34  1  0
 22 35  1  0
M  END
>  <UniqueID>  (13) 
13

>  <SMILES>  (13) 
CN(C)C(=O)C(=O)n1c(C(N)=O)cc2ccc(C(F)(F)F)cc21

>  <Energy>  (13) 
75.92961206127409

>  <Genealogy>  (13) 
CN(C)C(=O)C(=O)n1c(C(N)=O)cc2ccc(C(F)(F)F)cc21 (3D coordinates assigned)
CN(C)C(=O)C(=O)n1c(C(N)=O)cc2ccc(C(F)(F)F)cc21 (optimized conformer: 75.92961206127409 kcal/mol)

>  <smiles>  (13) 
CN(C)C(=O)C(=O)n1c(C(N)=O)cc2ccc(C(F)(F)F)cc21

>  <score_type>  (13) 
oracle

>  <origin>  (13) 
adg

>  <m_score__min__energy>  (13) 
-7.8600000000000003

>  <m_primary>  (13) 
energy

$$$$
13:0
     RDKit          3D

 37 38  0  0  0  0  0  0  0  0999 V2000
   -9.4780   21.8890  -31.8370 C   0  0  0  0  0  0  0  0  0  0  0  0
   -8.2650   22.1130  -31.3340 C   0  0  0  0  0  0  0  0  0  0  0  0
   -7.2100   22.8190  -32.0840 C   0  0  0  0  0  0  0  0  0  0  0  0
   -7.5320   23.7830  -32.8300 O   0  0  0  0  0  0  0  0  0  0  0  0
   -5.8300   22.4290  -31.9940 N   0  0  0  0  0  0  0  0  0  0  0  0
   -4.8030   23.1230  -31.4280 C   0  0  0  0  0  0  0  0  0  0  0  0
   -4.9290   24.3770  -30.6550 C   0  0  0  0  0  0  0  0  0  0  0  0
   -3.8530   25.3090  -30.5870 N   0  0  0  0  0  0  0  0  0  0  0  0
   -6.0110   24.6420  -30.0660 O   0  0  0  0  0  0  0  0  0  0  0  0
   -3.5940   22.4630  -31.6440 C   0  0  0  0  0  0  0  0  0  0  0  0
   -3.9160   21.3400  -32.3720 C   0  0  0  0  0  0  0  0  0  0  0  0
   -3.0990   20.3360  -32.8810 C   0  0  0  0  0  0  0  0  0  0  0  0
   -3.7040   19.3100  -33.6280 C   0  0  0  0  0  0  0  0  0  0  0  0
   -5.1030   19.3060  -33.8590 C   0  0  0  0  0  0  0  0  0  0  0  0
   -5.6790   18.2390  -34.6400 N   0  0  0  0  0  0  0  0  0  0  0  0
   -6.4450   17.1260  -34.0790 C   0  0  0  0  0  0  0  0  0  0  0  0
   -7.0080   17.4960  -32.7390 C   0  0  0  0  0  0  0  0  0  0  0  0
   -6.4570   17.0580  -31.6930 O   0  0  0  0  0  0  0  0  0  0  0  0
   -8.1530   18.3540  -32.6460 N   0  0  0  0  0  0  0  0  0  0  0  0
   -8.7670   18.6760  -31.3650 C   0  0  0  0  0  0  0  0  0  0  0  0
   -5.8980   20.3460  -33.3200 C   0  0  0  0  0  0  0  0  0  0  0  0
   -5.2690   21.3460  -32.5720 C   0  0  0  0  0  0  0  0  0  0  0  0
  -10.2322   21.3573  -31.2382 H   0  0  0  0  0  0  0  0  0  0  0  0
   -9.7255   22.2357  -32.8512 H   0  0  0  0  0  0  0  0  0  0  0  0
   -8.0413   21.7567  -30.3176 H   0  0  0  0  0  0  0  0  0  0  0  0
   -3.5160   25.6750  -29.6690 H   0  0  0  0  0  0  0  0  0  0  0  0
   -2.5949   22.7738  -31.3047 H   0  0  0  0  0  0  0  0  0  0  0  0
   -2.0133   20.3444  -32.7046 H   0  0  0  0  0  0  0  0  0  0  0  0
   -3.0838   18.4996  -34.0387 H   0  0  0  0  0  0  0  0  0  0  0  0
   -5.5410   18.2500  -35.6760 H   0  0  0  0  0  0  0  0  0  0  0  0
   -7.2705   16.8749  -34.7613 H   0  0  0  0  0  0  0  0  0  0  0  0
   -5.7765   16.2611  -33.9566 H   0  0  0  0  0  0  0  0  0  0  0  0
   -8.5760   18.7470  -33.5170 H   0  0  0  0  0  0  0  0  0  0  0  0
   -8.1138   18.3335  -30.5489 H   0  0  0  0  0  0  0  0  0  0  0  0
   -8.9083   19.7643  -31.2894 H   0  0  0  0  0  0  0  0  0  0  0  0
   -9.7426   18.1735  -31.2894 H   0  0  0  0  0  0  0  0  0  0  0  0
   -6.9852   20.3669  -33.4858 H   0  0  0  0  0  0  0  0  0  0  0  0
  1  2  2  0
  2  3  1  0
  3  4  2  0
  3  5  1  0
  5  6  1  0
  6  7  1  0
  7  8  1  0
  7  9  2  0
  6 10  2  0
 10 11  1  0
 11 12  2  0
 12 13  1  0
 13 14  2  0
 14 15  1  0
 15 16  1  0
 16 17  1  0
 17 18  2  0
 17 19  1  0
 19 20  1  0
 14 21  1  0
 21 22  2  0
 22  5  1  0
 22 11  1  0
  1 23  1  0
  1 24  1  0
  2 25  1  0
  8 26  1  0
 10 27  1  0
 12 28  1  0
 13 29  1  0
 15 30  1  0
 16 31  1  0
 16 32  1  0
 19 33  1  0
 20 34  1  0
 20 35  1  0
 20 36  1  0
 21 37  1  0
M  CHG  1   8  -1
M  END
>  <UniqueID>  (14) 
14

>  <SMILES>  (14) 
C=CC(=O)n1c(C([NH-])=O)cc2ccc(NCC(=O)NC)cc21

>  <Energy>  (14) 
70.4015864803423

>  <Genealogy>  (14) 
C=CC(=O)n1c(C([NH-])=O)cc2ccc(NCC(=O)NC)cc21 (protonated)
C=CC(=O)n1c(C([NH-])=O)cc2ccc(NCC(=O)NC)cc21 (3D coordinates assigned)
C=CC(=O)n1c(C([NH-])=O)cc2ccc(NCC(=O)NC)cc21 (optimized conformer: 70.4015864803423 kcal/mol)

>  <smiles>  (14) 
C=CC(=O)n1c(C(N)=O)cc2ccc(NCC(=O)NC)cc21

>  <score_type>  (14) 
oracle

>  <origin>  (14) 
adg

>  <m_score__min__energy>  (14) 
-10.69

>  <m_primary>  (14) 
energy

$$$$
14:0
     RDKit          3D

 44 45  0  0  0  0  0  0  0  0999 V2000
   -4.1290   23.0690  -27.8010 C   0  0  0  0  0  0  0  0  0  0  0  0
   -3.0080   23.7780  -28.5060 C   0  0  0  0  0  0  0  0  0  0  0  0
   -2.6130   24.8450  -28.0520 O   0  0  0  0  0  0  0  0  0  0  0  0
   -2.3770   23.2040  -29.6780 N   0  0  1  0  0  0  0  0  0  0  0  0
   -1.0560   22.6490  -29.3420 C   0  0  0  0  0  0  0  0  0  0  0  0
   -3.2510   22.1950  -30.2360 C   0  0  0  0  0  0  0  0  0  0  0  0
   -3.4080   21.0920  -29.6410 O   0  0  0  0  0  0  0  0  0  0  0  0
   -4.0460   22.4650  -31.4520 C   0  0  0  0  0  0  0  0  0  0  0  0
   -3.5030   22.4070  -32.5890 O   0  0  0  0  0  0  0  0  0  0  0  0
   -5.4330   22.8200  -31.3520 N   0  0  0  0  0  0  0  0  0  0  0  0
   -5.9640   23.9880  -30.8930 C   0  0  0  0  0  0  0  0  0  0  0  0
   -5.1980   25.1960  -30.5230 C   0  0  0  0  0  0  0  0  0  0  0  0
   -3.8190   25.2980  -30.8700 N   0  0  0  0  0  0  0  0  0  0  0  0
   -5.7450   26.1350  -29.8860 O   0  0  0  0  0  0  0  0  0  0  0  0
   -7.3560   23.9090  -30.8580 C   0  0  0  0  0  0  0  0  0  0  0  0
   -7.6610   22.6430  -31.3060 C   0  0  0  0  0  0  0  0  0  0  0  0
   -8.8950   22.0110  -31.4400 C   0  0  0  0  0  0  0  0  0  0  0  0
   -8.9070   20.6770  -31.8820 C   0  0  0  0  0  0  0  0  0  0  0  0
   -7.6950   20.0050  -32.1810 C   0  0  0  0  0  0  0  0  0  0  0  0
   -7.7180   18.5630  -32.6190 C   0  0  0  0  0  0  0  0  0  0  0  0
   -6.3070   18.0210  -32.8870 C   0  0  0  0  0  0  0  0  0  0  0  0
   -5.9590   18.0010  -34.3790 C   0  0  0  0  0  0  0  0  0  0  0  0
   -6.0660   19.2960  -34.8990 O   0  0  0  0  0  0  0  0  0  0  0  0
   -6.4640   20.6760  -32.0250 C   0  0  0  0  0  0  0  0  0  0  0  0
   -6.4840   22.0080  -31.5970 C   0  0  0  0  0  0  0  0  0  0  0  0
   -3.9913   23.1561  -26.7131 H   0  0  0  0  0  0  0  0  0  0  0  0
   -5.0884   23.5249  -28.0868 H   0  0  0  0  0  0  0  0  0  0  0  0
   -4.1282   22.0068  -28.0868 H   0  0  0  0  0  0  0  0  0  0  0  0
   -2.2120   23.9520  -30.3900 H   0  0  0  0  0  0  0  0  0  0  0  0
   -0.9452   22.6024  -28.2486 H   0  0  0  0  0  0  0  0  0  0  0  0
   -0.9656   21.6368  -29.7631 H   0  0  0  0  0  0  0  0  0  0  0  0
   -0.2699   23.2929  -29.7631 H   0  0  0  0  0  0  0  0  0  0  0  0
   -3.0780   25.2900  -30.1340 H   0  0  0  0  0  0  0  0  0  0  0  0
   -8.0606   24.6916  -30.5401 H   0  0  0  0  0  0  0  0  0  0  0  0
   -9.8311   22.5396  -31.2071 H   0  0  0  0  0  0  0  0  0  0  0  0
   -9.8654   20.1495  -31.9970 H   0  0  0  0  0  0  0  0  0  0  0  0
   -8.1862   17.9589  -31.8279 H   0  0  0  0  0  0  0  0  0  0  0  0
   -8.2894   18.5018  -33.5570 H   0  0  0  0  0  0  0  0  0  0  0  0
   -5.5791   18.6584  -32.3636 H   0  0  0  0  0  0  0  0  0  0  0  0
   -6.2728   16.9838  -32.5222 H   0  0  0  0  0  0  0  0  0  0  0  0
   -4.9295   17.6366  -34.5108 H   0  0  0  0  0  0  0  0  0  0  0  0
   -6.6542   17.3336  -34.9094 H   0  0  0  0  0  0  0  0  0  0  0  0
   -6.8430   19.2820  -35.5140 H   0  0  0  0  0  0  0  0  0  0  0  0
   -5.5126   20.1651  -32.2345 H   0  0  0  0  0  0  0  0  0  0  0  0
  1  2  1  0
  2  3  2  0
  2  4  1  0
  4  5  1  0
  4  6  1  0
  6  7  2  0
  6  8  1  0
  8  9  2  0
  8 10  1  0
 10 11  1  0
 11 12  1  0
 12 13  1  0
 12 14  2  0
 11 15  2  0
 15 16  1  0
 16 17  2  0
 17 18  1  0
 18 19  2  0
 19 20  1  0
 20 21  1  0
 21 22  1  0
 22 23  1  0
 19 24  1  0
 24 25  2  0
 25 10  1  0
 25 16  1  0
  1 26  1  0
  1 27  1  0
  1 28  1  0
  4 29  1  6
  5 30  1  0
  5 31  1  0
  5 32  1  0
 13 33  1  0
 15 34  1  0
 17 35  1  0
 18 36  1  0
 20 37  1  0
 20 38  1  0
 21 39  1  0
 21 40  1  0
 22 41  1  0
 22 42  1  0
 23 43  1  0
 24 44  1  0
M  CHG  2   4   1  13  -1
M  END
>  <UniqueID>  (15) 
15

>  <SMILES>  (15) 
CC(=O)[NH+](C)C(=O)C(=O)n1c(C([NH-])=O)cc2ccc(CCCO)cc21

>  <Energy>  (15) 
77.55542634656514

>  <Genealogy>  (15) 
CC(=O)[NH+](C)C(=O)C(=O)n1c(C([NH-])=O)cc2ccc(CCCO)cc21 (protonated)
CC(=O)[NH+](C)C(=O)C(=O)n1c(C([NH-])=O)cc2ccc(CCCO)cc21 (3D coordinates assigned)
CC(=O)[NH+](C)C(=O)C(=O)n1c(C([NH-])=O)cc2ccc(CCCO)cc21 (optimized conformer: 77.55542634656514 kcal/mol)

>  <smiles>  (15) 
CC(=O)N(C)C(=O)C(=O)n1c(C(N)=O)cc2ccc(CCCO)cc21

>  <score_type>  (15) 
oracle

>  <origin>  (15) 
adg

>  <m_score__min__energy>  (15) 
-9.3599999999999994

>  <m_primary>  (15) 
energy

$$$$
15:0
     RDKit          3D

 42 43  0  0  0  0  0  0  0  0999 V2000
   -1.7440   18.1620  -34.2480 C   0  0  0  0  0  0  0  0  0  0  0  0
   -3.4230   18.4010  -33.7110 S   0  0  0  0  0  0  0  0  0  0  0  0
   -4.3110   18.5490  -34.9130 O   0  0  0  0  0  0  0  0  0  0  0  0
   -3.8600   17.2090  -32.9080 O   0  0  0  0  0  0  0  0  0  0  0  0
   -3.5140   19.8730  -32.7050 C   0  0  0  0  0  0  0  0  0  0  0  0
   -2.9690   21.0830  -33.4560 C   0  0  0  0  0  0  0  0  0  0  0  0
   -3.7540   22.2270  -33.1410 O   0  0  0  0  0  0  0  0  0  0  0  0
   -4.0810   22.5810  -31.8300 C   0  0  0  0  0  0  0  0  0  0  0  0
   -3.1950   22.5830  -30.9310 O   0  0  0  0  0  0  0  0  0  0  0  0
   -5.4290   22.9640  -31.5100 N   0  0  0  0  0  0  0  0  0  0  0  0
   -5.8480   24.1250  -30.9310 C   0  0  0  0  0  0  0  0  0  0  0  0
   -5.0070   25.3080  -30.6500 C   0  0  0  0  0  0  0  0  0  0  0  0
   -3.6020   25.1530  -30.4670 N   0  0  0  0  0  0  0  0  0  0  0  0
   -5.5220   26.4510  -30.5340 O   0  0  0  0  0  0  0  0  0  0  0  0
   -7.2220   24.0900  -30.7040 C   0  0  0  0  0  0  0  0  0  0  0  0
   -7.6390   22.8650  -31.1730 C   0  0  0  0  0  0  0  0  0  0  0  0
   -8.9100   22.2990  -31.1940 C   0  0  0  0  0  0  0  0  0  0  0  0
   -9.0460   21.0030  -31.7170 C   0  0  0  0  0  0  0  0  0  0  0  0
   -7.9140   20.2930  -32.1910 C   0  0  0  0  0  0  0  0  0  0  0  0
   -8.0760   18.9130  -32.7690 C   0  0  0  0  0  0  0  0  0  0  0  0
   -6.7280   18.1910  -32.8210 C   0  0  0  0  0  0  0  0  0  0  0  0
   -6.5570   17.5380  -34.1150 N   0  0  0  0  0  0  0  0  0  0  0  0
   -6.6400   20.9040  -32.1630 C   0  0  0  0  0  0  0  0  0  0  0  0
   -6.5370   22.2040  -31.6530 C   0  0  0  0  0  0  0  0  0  0  0  0
   -1.0880   18.0686  -33.3700 H   0  0  0  0  0  0  0  0  0  0  0  0
   -1.6795   17.2456  -34.8530 H   0  0  0  0  0  0  0  0  0  0  0  0
   -1.4263   19.0240  -34.8530 H   0  0  0  0  0  0  0  0  0  0  0  0
   -4.5639   20.0600  -32.4353 H   0  0  0  0  0  0  0  0  0  0  0  0
   -2.9057   19.7182  -31.8017 H   0  0  0  0  0  0  0  0  0  0  0  0
   -1.9252   21.2606  -33.1577 H   0  0  0  0  0  0  0  0  0  0  0  0
   -3.0127   20.8940  -34.5388 H   0  0  0  0  0  0  0  0  0  0  0  0
   -3.0080   24.7250  -31.2120 H   0  0  0  0  0  0  0  0  0  0  0  0
   -7.8423   24.8750  -30.2468 H   0  0  0  0  0  0  0  0  0  0  0  0
   -9.7820   22.8503  -30.8123 H   0  0  0  0  0  0  0  0  0  0  0  0
  -10.0402   20.5341  -31.7594 H   0  0  0  0  0  0  0  0  0  0  0  0
   -8.7710   18.3368  -32.1405 H   0  0  0  0  0  0  0  0  0  0  0  0
   -8.4720   19.0003  -33.7915 H   0  0  0  0  0  0  0  0  0  0  0  0
   -5.9186   18.9209  -32.6723 H   0  0  0  0  0  0  0  0  0  0  0  0
   -6.6970   17.4299  -32.0274 H   0  0  0  0  0  0  0  0  0  0  0  0
   -5.6370   17.0400  -34.1110 H   0  0  0  0  0  0  0  0  0  0  0  0
   -6.4860   18.2870  -34.8410 H   0  0  0  0  0  0  0  0  0  0  0  0
   -5.7513   20.3715  -32.5327 H   0  0  0  0  0  0  0  0  0  0  0  0
  1  2  1  0
  2  3  2  0
  2  4  2  0
  2  5  1  0
  5  6  1  0
  6  7  1  0
  7  8  1  0
  8  9  2  0
  8 10  1  0
 10 11  1  0
 11 12  1  0
 12 13  1  0
 12 14  2  0
 11 15  2  0
 15 16  1  0
 16 17  2  0
 17 18  1  0
 18 19  2  0
 19 20  1  0
 20 21  1  0
 21 22  1  0
 19 23  1  0
 23 24  2  0
 24 10  1  0
 24 16  1  0
  1 25  1  0
  1 26  1  0
  1 27  1  0
  5 28  1  0
  5 29  1  0
  6 30  1  0
  6 31  1  0
 13 32  1  0
 15 33  1  0
 17 34  1  0
 18 35  1  0
 20 36  1  0
 20 37  1  0
 21 38  1  0
 21 39  1  0
 22 40  1  0
 22 41  1  0
 23 42  1  0
M  CHG  1  13  -1
M  END
>  <UniqueID>  (16) 
16

>  <SMILES>  (16) 
CS(=O)(=O)CCOC(=O)n1c(C([NH-])=O)cc2ccc(CCN)cc21

>  <Energy>  (16) 
64.55529755906193

>  <Genealogy>  (16) 
CS(=O)(=O)CCOC(=O)n1c(C([NH-])=O)cc2ccc(CCN)cc21 (protonated)
CS(=O)(=O)CCOC(=O)n1c(C([NH-])=O)cc2ccc(CCN)cc21 (3D coordinates assigned)
CS(=O)(=O)CCOC(=O)n1c(C([NH-])=O)cc2ccc(CCN)cc21 (optimized conformer: 64.55529755906193 kcal/mol)

>  <smiles>  (16) 
CS(=O)(=O)CCOC(=O)n1c(C(N)=O)cc2ccc(CCN)cc21

>  <score_type>  (16) 
oracle

>  <origin>  (16) 
adg

>  <m_score__min__energy>  (16) 
-11.51

>  <m_primary>  (16) 
energy

$$$$
16:0
     RDKit          3D

 37 38  0  0  0  0  0  0  0  0999 V2000
   -4.0990   23.5900  -27.8310 C   0  0  0  0  0  0  0  0  0  0  0  0
   -3.1110   22.8570  -28.6290 N   0  0  0  0  0  0  0  0  0  0  0  0
   -1.6840   23.0990  -28.3700 C   0  0  0  0  0  0  0  0  0  0  0  0
   -1.3080   24.4840  -28.7910 C   0  0  0  0  0  0  0  0  0  0  0  0
   -0.1360   24.9060  -28.6050 O   0  0  0  0  0  0  0  0  0  0  0  0
   -2.2400   25.2960  -29.4240 O   0  0  0  0  0  0  0  0  0  0  0  0
   -3.5010   22.0300  -29.7520 C   0  0  0  0  0  0  0  0  0  0  0  0
   -3.3730   20.7770  -29.6660 O   0  0  0  0  0  0  0  0  0  0  0  0
   -4.0520   22.5840  -31.0140 C   0  0  0  0  0  0  0  0  0  0  0  0
   -3.2960   22.9040  -31.9690 O   0  0  0  0  0  0  0  0  0  0  0  0
   -5.4680   22.7790  -31.1540 N   0  0  0  0  0  0  0  0  0  0  0  0
   -6.1860   23.9040  -30.8770 C   0  0  0  0  0  0  0  0  0  0  0  0
   -5.6100   25.1920  -30.4100 C   0  0  0  0  0  0  0  0  0  0  0  0
   -4.2550   25.5480  -30.7000 N   0  0  0  0  0  0  0  0  0  0  0  0
   -6.3190   25.9960  -29.7460 O   0  0  0  0  0  0  0  0  0  0  0  0
   -7.5400   23.6830  -31.1370 C   0  0  0  0  0  0  0  0  0  0  0  0
   -7.6240   22.3820  -31.5810 C   0  0  0  0  0  0  0  0  0  0  0  0
   -8.7300   21.6380  -31.9790 C   0  0  0  0  0  0  0  0  0  0  0  0
   -8.5200   20.3060  -32.3770 C   0  0  0  0  0  0  0  0  0  0  0  0
   -7.2170   19.7450  -32.3630 C   0  0  0  0  0  0  0  0  0  0  0  0
   -6.9970   18.3170  -32.7730 C   0  0  0  0  0  0  0  0  0  0  0  0
   -6.2870   18.2750  -33.9600 F   0  0  0  0  0  0  0  0  0  0  0  0
   -6.2840   17.6570  -31.7890 F   0  0  0  0  0  0  0  0  0  0  0  0
   -6.1190   20.5330  -31.9520 C   0  0  0  0  0  0  0  0  0  0  0  0
   -6.3590   21.8600  -31.5780 C   0  0  0  0  0  0  0  0  0  0  0  0
   -3.8928   23.4370  -26.7614 H   0  0  0  0  0  0  0  0  0  0  0  0
   -4.0375   24.6627  -28.0665 H   0  0  0  0  0  0  0  0  0  0  0  0
   -5.1078   23.2201  -28.0665 H   0  0  0  0  0  0  0  0  0  0  0  0
   -1.4850   22.9799  -27.2947 H   0  0  0  0  0  0  0  0  0  0  0  0
   -1.0880   22.3756  -28.9457 H   0  0  0  0  0  0  0  0  0  0  0  0
   -3.8660   26.4470  -30.3360 H   0  0  0  0  0  0  0  0  0  0  0  0
   -3.6210   24.9260  -31.2480 H   0  0  0  0  0  0  0  0  0  0  0  0
   -8.3665   24.3982  -31.0131 H   0  0  0  0  0  0  0  0  0  0  0  0
   -9.7380   22.0784  -31.9822 H   0  0  0  0  0  0  0  0  0  0  0  0
   -9.3737   19.6933  -32.7022 H   0  0  0  0  0  0  0  0  0  0  0  0
   -7.9719   17.8273  -32.9131 H   0  0  0  0  0  0  0  0  0  0  0  0
   -5.1020   20.1145  -31.9266 H   0  0  0  0  0  0  0  0  0  0  0  0
  1  2  1  0
  2  3  1  0
  3  4  1  0
  4  5  2  0
  4  6  1  0
  2  7  1  0
  7  8  2  0
  7  9  1  0
  9 10  2  0
  9 11  1  0
 11 12  1  0
 12 13  1  0
 13 14  1  0
 13 15  2  0
 12 16  2  0
 16 17  1  0
 17 18  2  0
 18 19  1  0
 19 20  2  0
 20 21  1  0
 21 22  1  0
 21 23  1  0
 20 24  1  0
 24 25  2  0
 25 11  1  0
 25 17  1  0
  1 26  1  0
  1 27  1  0
  1 28  1  0
  3 29  1  0
  3 30  1  0
 14 31  1  0
 14 32  1  0
 16 33  1  0
 18 34  1  0
 19 35  1  0
 21 36  1  0
 24 37  1  0
M  CHG  1   6  -1
M  END
>  <UniqueID>  (17) 
17

>  <SMILES>  (17) 
CN(CC(=O)[O-])C(=O)C(=O)n1c(C(N)=O)cc2ccc(C(F)F)cc21

>  <Energy>  (17) 
76.6395205325927

>  <Genealogy>  (17) 
CN(CC(=O)[O-])C(=O)C(=O)n1c(C(N)=O)cc2ccc(C(F)F)cc21 (protonated)
CN(CC(=O)[O-])C(=O)C(=O)n1c(C(N)=O)cc2ccc(C(F)F)cc21 (3D coordinates assigned)
CN(CC(=O)[O-])C(=O)C(=O)n1c(C(N)=O)cc2ccc(C(F)F)cc21 (optimized conformer: 76.6395205325927 kcal/mol)

>  <smiles>  (17) 
CN(CC(=O)O)C(=O)C(=O)n1c(C(N)=O)cc2ccc(C(F)F)cc21

>  <score_type>  (17) 
oracle

>  <origin>  (17) 
adg

>  <m_score__min__energy>  (17) 
-11.02

>  <m_primary>  (17) 
energy

$$$$
17:0
     RDKit          3D

 45 47  0  0  0  0  0  0  0  0999 V2000
   -4.4900   13.9100  -34.5160 C   0  0  0  0  0  0  0  0  0  0  0  0
   -5.6670   14.0880  -33.7380 O   0  0  0  0  0  0  0  0  0  0  0  0
   -6.8340   14.6590  -34.2540 C   0  0  0  0  0  0  0  0  0  0  0  0
   -7.5830   13.9970  -35.0210 O   0  0  0  0  0  0  0  0  0  0  0  0
   -7.1980   16.0000  -33.9110 N   0  0  0  0  0  0  0  0  0  0  0  0
   -6.3250   16.9690  -33.2460 C   0  0  0  0  0  0  0  0  0  0  0  0
   -7.1130   18.2380  -32.8590 C   0  0  0  0  0  0  0  0  0  0  0  0
   -6.1920   19.2660  -32.1890 C   0  0  0  0  0  0  0  0  0  0  0  0
   -4.9290   19.4260  -32.9270 N   0  0  0  0  0  0  0  0  0  0  0  0
   -3.8470   20.1700  -32.3330 C   0  0  0  0  0  0  0  0  0  0  0  0
   -2.5000   19.8400  -32.6370 C   0  0  0  0  0  0  0  0  0  0  0  0
   -1.4370   20.5540  -32.0590 C   0  0  0  0  0  0  0  0  0  0  0  0
   -1.7470   21.5830  -31.1760 C   0  0  0  0  0  0  0  0  0  0  0  0
   -0.9200   22.4400  -30.4850 C   0  0  0  0  0  0  0  0  0  0  0  0
   -1.7730   23.2660  -29.7520 C   0  0  0  0  0  0  0  0  0  0  0  0
   -1.2990   24.2900  -28.7980 C   0  0  0  0  0  0  0  0  0  0  0  0
   -1.6370   25.6650  -28.9680 N   0  0  0  0  0  0  0  0  0  0  0  0
   -0.6150   23.9430  -27.7990 O   0  0  0  0  0  0  0  0  0  0  0  0
   -3.0740   22.9380  -29.9930 N   0  0  0  0  0  0  0  0  0  0  0  0
   -4.2580   23.5750  -29.4900 C   0  0  0  0  0  0  0  0  0  0  0  0
   -4.9090   23.0310  -28.5580 O   0  0  0  0  0  0  0  0  0  0  0  0
   -4.7510   24.8270  -30.0810 C   0  0  0  0  0  0  0  0  0  0  0  0
   -5.9620   25.1520  -29.9680 O   0  0  0  0  0  0  0  0  0  0  0  0
   -3.8770   25.6680  -30.7580 O   0  0  0  0  0  0  0  0  0  0  0  0
   -3.0400   21.9040  -30.8580 C   0  0  0  0  0  0  0  0  0  0  0  0
   -4.1200   21.2180  -31.4260 C   0  0  0  0  0  0  0  0  0  0  0  0
   -4.7580   18.7620  -34.2260 C   0  0  0  0  0  0  0  0  0  0  0  0
   -5.0540   17.2630  -34.0920 C   0  0  0  0  0  0  0  0  0  0  0  0
   -3.6255   13.7793  -33.8485 H   0  0  0  0  0  0  0  0  0  0  0  0
   -4.6013   13.0185  -35.1507 H   0  0  0  0  0  0  0  0  0  0  0  0
   -4.3327   14.7946  -35.1507 H   0  0  0  0  0  0  0  0  0  0  0  0
   -5.9608   16.5293  -32.3058 H   0  0  0  0  0  0  0  0  0  0  0  0
   -7.5502   18.6819  -33.7655 H   0  0  0  0  0  0  0  0  0  0  0  0
   -7.9060   17.9588  -32.1496 H   0  0  0  0  0  0  0  0  0  0  0  0
   -6.7085   20.2365  -32.1512 H   0  0  0  0  0  0  0  0  0  0  0  0
   -5.9551   18.9066  -31.1767 H   0  0  0  0  0  0  0  0  0  0  0  0
   -2.2862   19.0157  -33.3332 H   0  0  0  0  0  0  0  0  0  0  0  0
   -0.3920   20.3069  -32.2974 H   0  0  0  0  0  0  0  0  0  0  0  0
    0.1794   22.4676  -30.5063 H   0  0  0  0  0  0  0  0  0  0  0  0
   -2.6330   25.9760  -28.9740 H   0  0  0  0  0  0  0  0  0  0  0  0
   -5.1556   21.4883  -31.1723 H   0  0  0  0  0  0  0  0  0  0  0  0
   -5.4505   19.2062  -34.9561 H   0  0  0  0  0  0  0  0  0  0  0  0
   -3.7206   18.8962  -34.5663 H   0  0  0  0  0  0  0  0  0  0  0  0
   -5.1975   16.8425  -35.0983 H   0  0  0  0  0  0  0  0  0  0  0  0
   -4.1996   16.8035  -33.5735 H   0  0  0  0  0  0  0  0  0  0  0  0
  1  2  1  0
  2  3  1  0
  3  4  2  0
  3  5  1  0
  5  6  1  0
  6  7  1  0
  7  8  1  0
  8  9  1  0
  9 10  1  0
 10 11  2  0
 11 12  1  0
 12 13  2  0
 13 14  1  0
 14 15  2  0
 15 16  1  0
 16 17  1  0
 16 18  2  0
 15 19  1  0
 19 20  1  0
 20 21  2  0
 20 22  1  0
 22 23  2  0
 22 24  1  0
 19 25  1  0
 25 26  2  0
  9 27  1  0
 27 28  1  0
 28  6  1  0
 26 10  1  0
 25 13  1  0
  1 29  1  0
  1 30  1  0
  1 31  1  0
  6 32  1  0
  7 33  1  0
  7 34  1  0
  8 35  1  0
  8 36  1  0
 11 37  1  0
 12 38  1  0
 14 39  1  0
 17 40  1  0
 26 41  1  0
 27 42  1  0
 27 43  1  0
 28 44  1  0
 28 45  1  0
M  CHG  3   5  -1  17  -1  24  -1
M  END
>  <UniqueID>  (18) 
18

>  <SMILES>  (18) 
COC(=O)[N-]C1CCN(c2ccc3cc(C([NH-])=O)n(C(=O)C(=O)[O-])c3c2)CC1

>  <Energy>  (18) 
88.49365042246083

>  <Genealogy>  (18) 
COC(=O)[N-]C1CCN(c2ccc3cc(C([NH-])=O)n(C(=O)C(=O)[O-])c3c2)CC1 (protonated)
COC(=O)[N-]C1CCN(c2ccc3cc(C([NH-])=O)n(C(=O)C(=O)[O-])c3c2)CC1 (3D coordinates assigned)
COC(=O)[N-]C1CCN(c2ccc3cc(C([NH-])=O)n(C(=O)C(=O)[O-])c3c2)CC1 (nonaromatic ring conformer: 88.49365042246083 kcal/mol)

>  <smiles>  (18) 
COC(=O)NC1CCN(c2ccc3cc(C(N)=O)n(C(=O)C(=O)O)c3c2)CC1

>  <score_type>  (18) 
oracle

>  <origin>  (18) 
adg

>  <m_score__min__energy>  (18) 
-11.029999999999999

>  <m_primary>  (18) 
energy

$$$$
18:0
     RDKit          3D

 31 32  0  0  0  0  0  0  0  0999 V2000
   -4.2270   25.5090  -30.6390 N   0  0  0  0  0  0  0  0  0  0  0  0
   -5.5700   25.1120  -30.3570 C   0  0  0  0  0  0  0  0  0  0  0  0
   -6.3230   25.9000  -29.7250 O   0  0  0  0  0  0  0  0  0  0  0  0
   -6.0660   23.7790  -30.7660 C   0  0  0  0  0  0  0  0  0  0  0  0
   -7.3940   23.5110  -31.0930 C   0  0  0  0  0  0  0  0  0  0  0  0
   -7.4110   22.1990  -31.5070 C   0  0  0  0  0  0  0  0  0  0  0  0
   -8.4710   21.4150  -31.9500 C   0  0  0  0  0  0  0  0  0  0  0  0
   -8.2040   20.0820  -32.3010 C   0  0  0  0  0  0  0  0  0  0  0  0
   -6.8950   19.5480  -32.1790 C   0  0  0  0  0  0  0  0  0  0  0  0
   -6.6120   18.1260  -32.5950 C   0  0  0  0  0  0  0  0  0  0  0  0
   -7.7240   17.3470  -32.3380 F   0  0  0  0  0  0  0  0  0  0  0  0
   -6.3190   18.0620  -33.9460 F   0  0  0  0  0  0  0  0  0  0  0  0
   -5.5320   17.6170  -31.8940 F   0  0  0  0  0  0  0  0  0  0  0  0
   -5.8390   20.3850  -31.7480 C   0  0  0  0  0  0  0  0  0  0  0  0
   -6.1310   21.7150  -31.4240 C   0  0  0  0  0  0  0  0  0  0  0  0
   -5.2930   22.6740  -30.9700 N   0  0  0  0  0  0  0  0  0  0  0  0
   -3.8880   22.5240  -30.7050 C   0  0  0  0  0  0  0  0  0  0  0  0
   -3.3380   23.2380  -29.8230 O   0  0  0  0  0  0  0  0  0  0  0  0
   -3.1470   21.5750  -31.4220 O   0  0  0  0  0  0  0  0  0  0  0  0
   -3.1310   21.4500  -32.8180 C   0  0  0  0  0  0  0  0  0  0  0  0
   -3.8260   22.2070  -33.5480 O   0  0  0  0  0  0  0  0  0  0  0  0
   -2.2280   20.4420  -33.4510 C   0  0  0  0  0  0  0  0  0  0  0  0
   -1.2870   21.0930  -34.2250 F   0  0  0  0  0  0  0  0  0  0  0  0
   -1.5830   19.7050  -32.4750 F   0  0  0  0  0  0  0  0  0  0  0  0
   -2.9620   19.5850  -34.2500 F   0  0  0  0  0  0  0  0  0  0  0  0
   -3.5910   24.9070  -31.2070 H   0  0  0  0  0  0  0  0  0  0  0  0
   -3.8760   26.4370  -30.3120 H   0  0  0  0  0  0  0  0  0  0  0  0
   -8.2477   24.2020  -31.0328 H   0  0  0  0  0  0  0  0  0  0  0  0
   -9.4883   21.8270  -32.0232 H   0  0  0  0  0  0  0  0  0  0  0  0
   -9.0187   19.4444  -32.6748 H   0  0  0  0  0  0  0  0  0  0  0  0
   -4.8118   19.9993  -31.6693 H   0  0  0  0  0  0  0  0  0  0  0  0
  1  2  1  0
  2  3  2  0
  2  4  1  0
  4  5  2  0
  5  6  1  0
  6  7  2  0
  7  8  1  0
  8  9  2  0
  9 10  1  0
 10 11  1  0
 10 12  1  0
 10 13  1  0
  9 14  1  0
 14 15  2  0
 15 16  1  0
 16 17  1  0
 17 18  2  0
 17 19  1  0
 19 20  1  0
 20 21  2  0
 20 22  1  0
 22 23  1  0
 22 24  1  0
 22 25  1  0
 16  4  1  0
 15  6  1  0
  1 26  1  0
  1 27  1  0
  5 28  1  0
  7 29  1  0
  8 30  1  0
 14 31  1  0
M  END
>  <UniqueID>  (19) 
19

>  <SMILES>  (19) 
NC(=O)c1cc2ccc(C(F)(F)F)cc2n1C(=O)OC(=O)C(F)(F)F

>  <Energy>  (19) 
70.30834439865178

>  <Genealogy>  (19) 
NC(=O)c1cc2ccc(C(F)(F)F)cc2n1C(=O)OC(=O)C(F)(F)F (3D coordinates assigned)
NC(=O)c1cc2ccc(C(F)(F)F)cc2n1C(=O)OC(=O)C(F)(F)F (optimized conformer: 70.30834439865178 kcal/mol)

>  <smiles>  (19) 
NC(=O)c1cc2ccc(C(F)(F)F)cc2n1C(=O)OC(=O)C(F)(F)F

>  <score_type>  (19) 
oracle

>  <origin>  (19) 
adg

>  <m_score__min__energy>  (19) 
-7.6399999999999997

>  <m_primary>  (19) 
energy

$$$$
19:0
     RDKit          3D

 38 39  0  0  0  0  0  0  0  0999 V2000
   -1.1480   25.9390  -27.9360 C   0  0  0  0  0  0  0  0  0  0  0  0
   -2.1480   24.8940  -27.6920 N   0  0  0  0  0  0  0  0  0  0  0  0
   -2.9640   24.9270  -26.4730 C   0  0  0  0  0  0  0  0  0  0  0  0
   -2.3140   23.8390  -28.6620 C   0  0  0  0  0  0  0  0  0  0  0  0
   -1.5970   23.8260  -29.7000 O   0  0  0  0  0  0  0  0  0  0  0  0
   -3.3250   22.7440  -28.4580 C   0  0  0  0  0  0  0  0  0  0  0  0
   -3.4570   21.9600  -29.6420 O   0  0  0  0  0  0  0  0  0  0  0  0
   -3.8520   22.5040  -30.8670 C   0  0  0  0  0  0  0  0  0  0  0  0
   -3.0010   22.7130  -31.7750 O   0  0  0  0  0  0  0  0  0  0  0  0
   -5.2370   22.8040  -31.0990 N   0  0  0  0  0  0  0  0  0  0  0  0
   -5.8770   23.9890  -30.8850 C   0  0  0  0  0  0  0  0  0  0  0  0
   -5.2340   25.2720  -30.5340 C   0  0  0  0  0  0  0  0  0  0  0  0
   -3.8630   25.5150  -30.8430 N   0  0  0  0  0  0  0  0  0  0  0  0
   -5.9160   26.1860  -29.9980 O   0  0  0  0  0  0  0  0  0  0  0  0
   -7.2420   23.8580  -31.1240 C   0  0  0  0  0  0  0  0  0  0  0  0
   -7.4220   22.5470  -31.5020 C   0  0  0  0  0  0  0  0  0  0  0  0
   -8.5840   21.8700  -31.8560 C   0  0  0  0  0  0  0  0  0  0  0  0
   -8.4810   20.5070  -32.1800 C   0  0  0  0  0  0  0  0  0  0  0  0
   -7.2290   19.8400  -32.1200 C   0  0  0  0  0  0  0  0  0  0  0  0
   -7.1250   18.3870  -32.5060 C   0  0  0  0  0  0  0  0  0  0  0  0
   -6.7330   18.2940  -33.8280 F   0  0  0  0  0  0  0  0  0  0  0  0
   -8.3450   17.7510  -32.3510 F   0  0  0  0  0  0  0  0  0  0  0  0
   -6.1950   17.7360  -31.7140 F   0  0  0  0  0  0  0  0  0  0  0  0
   -6.0670   20.5700  -31.7780 C   0  0  0  0  0  0  0  0  0  0  0  0
   -6.1970   21.9310  -31.4770 C   0  0  0  0  0  0  0  0  0  0  0  0
   -0.7788   26.3249  -26.9744 H   0  0  0  0  0  0  0  0  0  0  0  0
   -0.3088   25.5169  -28.5083 H   0  0  0  0  0  0  0  0  0  0  0  0
   -1.6066   26.7589  -28.5083 H   0  0  0  0  0  0  0  0  0  0  0  0
   -2.3070   24.9004  -25.5911 H   0  0  0  0  0  0  0  0  0  0  0  0
   -3.5621   25.8501  -26.4570 H   0  0  0  0  0  0  0  0  0  0  0  0
   -3.6347   24.0552  -26.4570 H   0  0  0  0  0  0  0  0  0  0  0  0
   -2.9969   22.0978  -27.6305 H   0  0  0  0  0  0  0  0  0  0  0  0
   -4.2986   23.1979  -28.2212 H   0  0  0  0  0  0  0  0  0  0  0  0
   -3.1740   24.7320  -30.8760 H   0  0  0  0  0  0  0  0  0  0  0  0
   -8.0131   24.6369  -31.0306 H   0  0  0  0  0  0  0  0  0  0  0  0
   -9.5549   22.3864  -31.8815 H   0  0  0  0  0  0  0  0  0  0  0  0
   -9.3800   19.9505  -32.4835 H   0  0  0  0  0  0  0  0  0  0  0  0
   -5.0829   20.0793  -31.7491 H   0  0  0  0  0  0  0  0  0  0  0  0
  1  2  1  0
  2  3  1  0
  2  4  1  0
  4  5  2  0
  4  6  1  0
  6  7  1  0
  7  8  1  0
  8  9  2  0
  8 10  1  0
 10 11  1  0
 11 12  1  0
 12 13  1  0
 12 14  2  0
 11 15  2  0
 15 16  1  0
 16 17  2  0
 17 18  1  0
 18 19  2  0
 19 20  1  0
 20 21  1  0
 20 22  1  0
 20 23  1  0
 19 24  1  0
 24 25  2  0
 25 10  1  0
 25 16  1  0
  1 26  1  0
  1 27  1  0
  1 28  1  0
  3 29  1  0
  3 30  1  0
  3 31  1  0
  6 32  1  0
  6 33  1  0
 13 34  1  0
 15 35  1  0
 17 36  1  0
 18 37  1  0
 24 38  1  0
M  CHG  1  13  -1
M  END
>  <UniqueID>  (20) 
20

>  <SMILES>  (20) 
CN(C)C(=O)COC(=O)n1c(C([NH-])=O)cc2ccc(C(F)(F)F)cc21

>  <Energy>  (20) 
72.9984778807164

>  <Genealogy>  (20) 
CN(C)C(=O)COC(=O)n1c(C([NH-])=O)cc2ccc(C(F)(F)F)cc21 (protonated)
CN(C)C(=O)COC(=O)n1c(C([NH-])=O)cc2ccc(C(F)(F)F)cc21 (3D coordinates assigned)
CN(C)C(=O)COC(=O)n1c(C([NH-])=O)cc2ccc(C(F)(F)F)cc21 (optimized conformer: 72.9984778807164 kcal/mol)

>  <smiles>  (20) 
CN(C)C(=O)COC(=O)n1c(C(N)=O)cc2ccc(C(F)(F)F)cc21

>  <score_type>  (20) 
oracle

>  <origin>  (20) 
adg

>  <m_score__min__energy>  (20) 
-9.9299999999999997

>  <m_primary>  (20) 
energy

$$$$
20:0
     RDKit          3D

 43 45  0  0  0  0  0  0  0  0999 V2000
   -3.7010   25.2960  -30.3960 N   0  0  0  0  0  0  0  0  0  0  0  0
   -5.1240   25.2750  -30.4870 C   0  0  0  0  0  0  0  0  0  0  0  0
   -5.7740   26.3220  -30.2260 O   0  0  0  0  0  0  0  0  0  0  0  0
   -5.8460   24.0380  -30.8560 C   0  0  0  0  0  0  0  0  0  0  0  0
   -7.2300   23.9650  -31.0060 C   0  0  0  0  0  0  0  0  0  0  0  0
   -7.4970   22.6470  -31.3010 C   0  0  0  0  0  0  0  0  0  0  0  0
   -8.7080   22.0100  -31.5530 C   0  0  0  0  0  0  0  0  0  0  0  0
   -8.6810   20.6370  -31.8510 C   0  0  0  0  0  0  0  0  0  0  0  0
   -7.4500   19.9320  -31.9200 C   0  0  0  0  0  0  0  0  0  0  0  0
   -7.4360   18.4510  -32.1980 C   0  0  0  0  0  0  0  0  0  0  0  0
   -7.1580   18.2430  -33.5370 F   0  0  0  0  0  0  0  0  0  0  0  0
   -6.4710   17.8190  -31.4330 F   0  0  0  0  0  0  0  0  0  0  0  0
   -8.6640   17.8860  -31.9000 F   0  0  0  0  0  0  0  0  0  0  0  0
   -6.2430   20.6130  -31.6370 C   0  0  0  0  0  0  0  0  0  0  0  0
   -6.3050   21.9750  -31.3250 C   0  0  0  0  0  0  0  0  0  0  0  0
   -5.2830   22.8120  -31.0460 N   0  0  0  0  0  0  0  0  0  0  0  0
   -3.8890   22.4730  -31.0370 C   0  0  0  0  0  0  0  0  0  0  0  0
   -3.1160   23.0070  -31.8770 O   0  0  0  0  0  0  0  0  0  0  0  0
   -3.3640   21.4950  -30.0600 C   0  0  0  0  0  0  0  0  0  0  0  0
   -2.9700   20.3740  -30.4840 O   0  0  0  0  0  0  0  0  0  0  0  0
   -3.2460   21.8380  -28.6530 N   0  0  0  0  0  0  0  0  0  0  0  0
   -3.0230   23.2870  -28.4700 C   0  0  0  0  0  0  0  0  0  0  0  0
   -1.6070   23.7150  -28.8620 C   0  0  0  0  0  0  0  0  0  0  0  0
   -0.6190   22.8900  -28.1620 N   0  0  0  0  0  0  0  0  0  0  0  0
    0.6520   23.4600  -27.7900 C   0  0  0  0  0  0  0  0  0  0  0  0
    1.5720   22.7310  -27.3300 O   0  0  0  0  0  0  0  0  0  0  0  0
    0.8860   24.8240  -27.9310 O   0  0  0  0  0  0  0  0  0  0  0  0
   -0.7850   21.4330  -28.2030 C   0  0  0  0  0  0  0  0  0  0  0  0
   -2.2440   21.0250  -27.9240 C   0  0  0  0  0  0  0  0  0  0  0  0
   -3.1070   25.0530  -31.2200 H   0  0  0  0  0  0  0  0  0  0  0  0
   -7.9552   24.7864  -30.9092 H   0  0  0  0  0  0  0  0  0  0  0  0
   -9.6576   22.5642  -31.5200 H   0  0  0  0  0  0  0  0  0  0  0  0
   -9.6246   20.1018  -32.0330 H   0  0  0  0  0  0  0  0  0  0  0  0
   -5.2788   20.0842  -31.6617 H   0  0  0  0  0  0  0  0  0  0  0  0
   -4.1650   21.6170  -28.2020 H   0  0  0  0  0  0  0  0  0  0  0  0
   -3.7433   23.8365  -29.0939 H   0  0  0  0  0  0  0  0  0  0  0  0
   -3.1578   23.5142  -27.4022 H   0  0  0  0  0  0  0  0  0  0  0  0
   -1.4780   23.5942  -29.9477 H   0  0  0  0  0  0  0  0  0  0  0  0
   -1.4591   24.7685  -28.5821 H   0  0  0  0  0  0  0  0  0  0  0  0
   -0.4956   21.0678  -29.1994 H   0  0  0  0  0  0  0  0  0  0  0  0
   -0.1469   20.9900  -27.4242 H   0  0  0  0  0  0  0  0  0  0  0  0
   -2.3715   19.9728  -28.2185 H   0  0  0  0  0  0  0  0  0  0  0  0
   -2.4210   21.1882  -26.8507 H   0  0  0  0  0  0  0  0  0  0  0  0
  1  2  1  0
  2  3  2  0
  2  4  1  0
  4  5  2  0
  5  6  1  0
  6  7  2  0
  7  8  1  0
  8  9  2  0
  9 10  1  0
 10 11  1  0
 10 12  1  0
 10 13  1  0
  9 14  1  0
 14 15  2  0
 15 16  1  0
 16 17  1  0
 17 18  2  0
 17 19  1  0
 19 20  2  0
 19 21  1  0
 21 22  1  0
 22 23  1  0
 23 24  1  0
 24 25  1  0
 25 26  2  0
 25 27  1  0
 24 28  1  0
 28 29  1  0
 16  4  1  0
 29 21  1  0
 15  6  1  0
  1 30  1  0
  5 31  1  0
  7 32  1  0
  8 33  1  0
 14 34  1  0
 21 35  1  0
 22 36  1  0
 22 37  1  0
 23 38  1  0
 23 39  1  0
 28 40  1  0
 28 41  1  0
 29 42  1  0
 29 43  1  0
M  CHG  3   1  -1  21   1  27  -1
M  END
>  <UniqueID>  (21) 
21

>  <SMILES>  (21) 
[NH-]C(=O)c1cc2ccc(C(F)(F)F)cc2n1C(=O)C(=O)[NH+]1CCN(C(=O)[O-])CC1

>  <Energy>  (21) 
89.99567489145736

>  <Genealogy>  (21) 
[NH-]C(=O)c1cc2ccc(C(F)(F)F)cc2n1C(=O)C(=O)[NH+]1CCN(C(=O)[O-])CC1 (protonated)
[NH-]C(=O)c1cc2ccc(C(F)(F)F)cc2n1C(=O)C(=O)[NH+]1CCN(C(=O)[O-])CC1 (3D coordinates assigned)
[NH-]C(=O)c1cc2ccc(C(F)(F)F)cc2n1C(=O)C(=O)[NH+]1CCN(C(=O)[O-])CC1 (nonaromatic ring conformer: 89.99567489145736 kcal/mol)

>  <smiles>  (21) 
NC(=O)c1cc2ccc(C(F)(F)F)cc2n1C(=O)C(=O)N1CCN(C(=O)O)CC1

>  <score_type>  (21) 
oracle

>  <origin>  (21) 
adg

>  <m_score__min__energy>  (21) 
-11.18

>  <m_primary>  (21) 
energy

$$$$
21:0
     RDKit          3D

 33 34  0  0  0  0  0  0  0  0999 V2000
   -3.5110   26.0500  -31.2340 H   0  0  0  0  0  0  0  0  0  0  0  0
   -3.8490   25.3500  -30.5380 N   0  0  0  0  0  0  0  0  0  0  0  0
   -5.2400   25.0900  -30.3730 C   0  0  0  0  0  0  0  0  0  0  0  0
   -5.9500   25.9170  -29.7410 O   0  0  0  0  0  0  0  0  0  0  0  0
   -5.8530   23.8520  -30.9020 C   0  0  0  0  0  0  0  0  0  0  0  0
   -7.2230   23.6900  -31.0980 C   0  0  0  0  0  0  0  0  0  0  0  0
   -8.0127   24.4380  -30.9341 H   0  0  0  0  0  0  0  0  0  0  0  0
   -7.3790   22.3960  -31.5400 C   0  0  0  0  0  0  0  0  0  0  0  0
   -8.5320   21.7000  -31.8920 C   0  0  0  0  0  0  0  0  0  0  0  0
   -9.5227   22.1738  -31.8280 H   0  0  0  0  0  0  0  0  0  0  0  0
   -8.3900   20.3720  -32.3320 C   0  0  0  0  0  0  0  0  0  0  0  0
   -9.2829   19.7890  -32.6018 H   0  0  0  0  0  0  0  0  0  0  0  0
   -7.1080   19.7780  -32.4310 C   0  0  0  0  0  0  0  0  0  0  0  0
   -6.9690   18.3510  -32.8730 C   0  0  0  0  0  0  0  0  0  0  0  0
   -6.9054   17.6982  -31.9900 H   0  0  0  0  0  0  0  0  0  0  0  0
   -7.8438   18.0672  -33.4766 H   0  0  0  0  0  0  0  0  0  0  0  0
   -6.0559   18.2414  -33.4766 H   0  0  0  0  0  0  0  0  0  0  0  0
   -5.9620   20.5100  -32.0520 C   0  0  0  0  0  0  0  0  0  0  0  0
   -4.9598   20.0603  -32.1090 H   0  0  0  0  0  0  0  0  0  0  0  0
   -6.1360   21.8230  -31.6020 C   0  0  0  0  0  0  0  0  0  0  0  0
   -5.1900   22.7030  -31.2080 N   0  0  0  0  0  0  0  0  0  0  0  0
   -3.7710   22.4780  -31.2080 C   0  0  0  0  0  0  0  0  0  0  0  0
   -3.2130   22.0970  -32.2740 O   0  0  0  0  0  0  0  0  0  0  0  0
   -2.9660   22.6810  -29.9730 C   0  0  0  0  0  0  0  0  0  0  0  0
   -1.6820   23.0910  -30.0820 C   0  0  0  0  0  0  0  0  0  0  0  0
   -1.3095   23.2975  -31.0962 H   0  0  0  0  0  0  0  0  0  0  0  0
   -0.7310   23.2880  -28.9660 C   0  0  0  0  0  0  0  0  0  0  0  0
   -0.5210   22.3360  -28.1710 O   0  0  0  0  0  0  0  0  0  0  0  0
   -0.0880   24.4990  -28.7430 O   0  0  0  0  0  0  0  0  0  0  0  0
   -3.6140   22.4180  -28.6370 C   0  0  0  0  0  0  0  0  0  0  0  0
   -2.9202   22.6996  -27.8312 H   0  0  0  0  0  0  0  0  0  0  0  0
   -4.5350   23.0135  -28.5526 H   0  0  0  0  0  0  0  0  0  0  0  0
   -3.8595   21.3491  -28.5526 H   0  0  0  0  0  0  0  0  0  0  0  0
  1  2  1  0
  2  3  1  0
  3  4  2  0
  3  5  1  0
  5  6  2  0
  6  7  1  0
  6  8  1  0
  8  9  2  0
  9 10  1  0
  9 11  1  0
 11 12  1  0
 11 13  2  0
 13 14  1  0
 14 15  1  0
 14 16  1  0
 14 17  1  0
 13 18  1  0
 18 19  1  0
 18 20  2  0
 20 21  1  0
 21 22  1  0
 22 23  2  0
 22 24  1  0
 24 25  2  0
 25 26  1  0
 25 27  1  0
 27 28  2  0
 27 29  1  0
 24 30  1  0
 30 31  1  0
 30 32  1  0
 30 33  1  0
 21  5  1  0
 20  8  1  0
M  CHG  2   2  -1  29  -1
M  END
>  <UniqueID>  (22) 
22

>  <SMILES>  (22) 
C/C(=C\C(=O)[O-])C(=O)n1c(C([NH-])=O)cc2ccc(C)cc21

>  <Energy>  (22) 
75.34151189718888

>  <Genealogy>  (22) 
C/C(=C\C(=O)[O-])C(=O)n1c(C([NH-])=O)cc2ccc(C)cc21 (protonated)
C/C(=C\C(=O)[O-])C(=O)n1c(C([NH-])=O)cc2ccc(C)cc21 (cis-trans isomerization)
C/C(=C\C(=O)[O-])C(=O)n1c(C([NH-])=O)cc2ccc(C)cc21 (3D coordinates assigned)
C/C(=C\C(=O)[O-])C(=O)n1c(C([NH-])=O)cc2ccc(C)cc21 (optimized conformer: 75.34151189718888 kcal/mol)

>  <smiles>  (22) 
C/C(=C\C(=O)O)C(=O)n1c(C(N)=O)cc2ccc(C)cc21

>  <score_type>  (22) 
oracle

>  <origin>  (22) 
adg

>  <m_score__min__energy>  (22) 
-11.869999999999999

>  <m_primary>  (22) 
energy

$$$$
22:0
     RDKit          3D

 39 40  0  0  0  0  0  0  0  0999 V2000
   -3.1440   24.4660  -26.7630 C   0  0  0  0  0  0  0  0  0  0  0  0
   -2.4280   23.5910  -27.8080 C   0  0  0  0  0  0  0  0  0  0  0  0
   -1.4590   22.6360  -27.0840 C   0  0  0  0  0  0  0  0  0  0  0  0
   -3.4650   22.8340  -28.5200 N   0  0  0  0  0  0  0  0  0  0  0  0
   -3.3300   22.1120  -29.7530 C   0  0  0  0  0  0  0  0  0  0  0  0
   -2.6540   21.0500  -29.8040 O   0  0  0  0  0  0  0  0  0  0  0  0
   -4.0080   22.6080  -30.9610 C   0  0  0  0  0  0  0  0  0  0  0  0
   -3.3210   22.9320  -31.9660 O   0  0  0  0  0  0  0  0  0  0  0  0
   -5.4360   22.7620  -30.9990 N   0  0  0  0  0  0  0  0  0  0  0  0
   -6.1390   23.9140  -30.8280 C   0  0  0  0  0  0  0  0  0  0  0  0
   -5.5740   25.2120  -30.4090 C   0  0  0  0  0  0  0  0  0  0  0  0
   -4.2460   25.5910  -30.7710 N   0  0  0  0  0  0  0  0  0  0  0  0
   -6.2550   25.9750  -29.6730 O   0  0  0  0  0  0  0  0  0  0  0  0
   -7.4950   23.7030  -31.0670 C   0  0  0  0  0  0  0  0  0  0  0  0
   -7.6020   22.3680  -31.3850 C   0  0  0  0  0  0  0  0  0  0  0  0
   -8.7200   21.6160  -31.7310 C   0  0  0  0  0  0  0  0  0  0  0  0
   -8.5320   20.2610  -32.0530 C   0  0  0  0  0  0  0  0  0  0  0  0
   -7.2320   19.6910  -32.0520 C   0  0  0  0  0  0  0  0  0  0  0  0
   -7.0600   18.2260  -32.3690 C   0  0  0  0  0  0  0  0  0  0  0  0
   -6.1990   17.6190  -31.4700 F   0  0  0  0  0  0  0  0  0  0  0  0
   -8.2900   17.5980  -32.3040 F   0  0  0  0  0  0  0  0  0  0  0  0
   -6.5400   18.0700  -33.6390 F   0  0  0  0  0  0  0  0  0  0  0  0
   -6.1210   20.4850  -31.6830 C   0  0  0  0  0  0  0  0  0  0  0  0
   -6.3440   21.8230  -31.3420 C   0  0  0  0  0  0  0  0  0  0  0  0
   -1.6590   24.4760  -28.7680 C   0  0  0  0  0  0  0  0  0  0  0  0
   -2.2740   25.2770  -29.5230 O   0  0  0  0  0  0  0  0  0  0  0  0
   -0.2700   24.4570  -28.8040 O   0  0  0  0  0  0  0  0  0  0  0  0
   -2.8687   24.1296  -25.7525 H   0  0  0  0  0  0  0  0  0  0  0  0
   -2.8423   25.5156  -26.8949 H   0  0  0  0  0  0  0  0  0  0  0  0
   -4.2325   24.3780  -26.8949 H   0  0  0  0  0  0  0  0  0  0  0  0
   -1.5755   22.7508  -25.9962 H   0  0  0  0  0  0  0  0  0  0  0  0
   -1.6854   21.5981  -27.3695 H   0  0  0  0  0  0  0  0  0  0  0  0
   -0.4245   22.8775  -27.3695 H   0  0  0  0  0  0  0  0  0  0  0  0
   -3.6000   24.9170  -31.2310 H   0  0  0  0  0  0  0  0  0  0  0  0
   -3.8710   26.5210  -30.4830 H   0  0  0  0  0  0  0  0  0  0  0  0
   -8.3061   24.4441  -31.0132 H   0  0  0  0  0  0  0  0  0  0  0  0
   -9.7222   22.0689  -31.7520 H   0  0  0  0  0  0  0  0  0  0  0  0
   -9.4006   19.6362  -32.3083 H   0  0  0  0  0  0  0  0  0  0  0  0
   -5.1064   20.0605  -31.6647 H   0  0  0  0  0  0  0  0  0  0  0  0
  1  2  1  0
  2  3  1  0
  2  4  1  0
  4  5  1  0
  5  6  2  0
  5  7  1  0
  7  8  2  0
  7  9  1  0
  9 10  1  0
 10 11  1  0
 11 12  1  0
 11 13  2  0
 10 14  2  0
 14 15  1  0
 15 16  2  0
 16 17  1  0
 17 18  2  0
 18 19  1  0
 19 20  1  0
 19 21  1  0
 19 22  1  0
 18 23  1  0
 23 24  2  0
  2 25  1  0
 25 26  2  0
 25 27  1  0
 24  9  1  0
 24 15  1  0
  1 28  1  0
  1 29  1  0
  1 30  1  0
  3 31  1  0
  3 32  1  0
  3 33  1  0
 12 34  1  0
 12 35  1  0
 14 36  1  0
 16 37  1  0
 17 38  1  0
 23 39  1  0
M  CHG  2   4  -1  27  -1
M  END
>  <UniqueID>  (23) 
23

>  <SMILES>  (23) 
CC(C)([N-]C(=O)C(=O)n1c(C(N)=O)cc2ccc(C(F)(F)F)cc21)C(=O)[O-]

>  <Energy>  (23) 
77.56542370668056

>  <Genealogy>  (23) 
CC(C)([N-]C(=O)C(=O)n1c(C(N)=O)cc2ccc(C(F)(F)F)cc21)C(=O)[O-] (protonated)
CC(C)([N-]C(=O)C(=O)n1c(C(N)=O)cc2ccc(C(F)(F)F)cc21)C(=O)[O-] (3D coordinates assigned)
CC(C)([N-]C(=O)C(=O)n1c(C(N)=O)cc2ccc(C(F)(F)F)cc21)C(=O)[O-] (optimized conformer: 77.56542370668056 kcal/mol)

>  <smiles>  (23) 
CC(C)(NC(=O)C(=O)n1c(C(N)=O)cc2ccc(C(F)(F)F)cc21)C(=O)O

>  <score_type>  (23) 
oracle

>  <origin>  (23) 
adg

>  <m_score__min__energy>  (23) 
-11.5

>  <m_primary>  (23) 
energy

$$$$
23:0
     RDKit          3D

 46 47  0  0  0  0  0  0  0  0999 V2000
   -1.8890   22.8000  -26.7410 C   0  0  0  0  0  0  0  0  0  0  0  0
   -2.8010   23.3050  -27.8850 C   0  0  0  0  0  0  0  0  0  0  0  0
   -4.1770   22.6300  -27.7160 C   0  0  0  0  0  0  0  0  0  0  0  0
   -2.9910   24.7740  -27.7900 N   0  0  0  0  0  0  0  0  0  0  0  0
   -1.9240   25.4790  -27.0620 C   0  0  0  0  0  0  0  0  0  0  0  0
   -0.8860   25.9610  -28.0250 C   0  0  0  0  0  0  0  0  0  0  0  0
    0.3130   26.0780  -27.6590 O   0  0  0  0  0  0  0  0  0  0  0  0
   -1.2340   26.2340  -29.3420 O   0  0  0  0  0  0  0  0  0  0  0  0
   -2.2470   22.9070  -29.2420 C   0  0  0  0  0  0  0  0  0  0  0  0
   -1.6170   23.7530  -29.9370 O   0  0  0  0  0  0  0  0  0  0  0  0
   -2.4650   21.6190  -29.7360 O   0  0  0  0  0  0  0  0  0  0  0  0
   -3.6500   21.2360  -30.4260 C   0  0  0  0  0  0  0  0  0  0  0  0
   -4.1690   22.3870  -31.2330 C   0  0  0  0  0  0  0  0  0  0  0  0
   -3.3740   23.0270  -31.9710 O   0  0  0  0  0  0  0  0  0  0  0  0
   -5.5530   22.7790  -31.1680 N   0  0  0  0  0  0  0  0  0  0  0  0
   -6.0550   23.9880  -30.7940 C   0  0  0  0  0  0  0  0  0  0  0  0
   -5.2580   25.1770  -30.4210 C   0  0  0  0  0  0  0  0  0  0  0  0
   -3.8700   25.2310  -30.7430 N   0  0  0  0  0  0  0  0  0  0  0  0
   -5.7850   26.1410  -29.8040 O   0  0  0  0  0  0  0  0  0  0  0  0
   -7.4450   23.9870  -30.8770 C   0  0  0  0  0  0  0  0  0  0  0  0
   -7.7840   22.7300  -31.3230 C   0  0  0  0  0  0  0  0  0  0  0  0
   -9.0330   22.1830  -31.6000 C   0  0  0  0  0  0  0  0  0  0  0  0
   -9.0850   20.8550  -32.0550 C   0  0  0  0  0  0  0  0  0  0  0  0
   -7.8950   20.1000  -32.2170 C   0  0  0  0  0  0  0  0  0  0  0  0
   -7.9720   18.6820  -32.7070 C   0  0  0  0  0  0  0  0  0  0  0  0
   -6.7440   18.0660  -32.5460 F   0  0  0  0  0  0  0  0  0  0  0  0
   -8.9270   17.9890  -31.9850 F   0  0  0  0  0  0  0  0  0  0  0  0
   -6.6460   20.6860  -31.9170 C   0  0  0  0  0  0  0  0  0  0  0  0
   -6.6240   22.0170  -31.4870 C   0  0  0  0  0  0  0  0  0  0  0  0
   -2.3436   23.0517  -25.7715 H   0  0  0  0  0  0  0  0  0  0  0  0
   -1.7727   21.7090  -26.8192 H   0  0  0  0  0  0  0  0  0  0  0  0
   -0.9026   23.2804  -26.8192 H   0  0  0  0  0  0  0  0  0  0  0  0
   -4.4022   22.5195  -26.6450 H   0  0  0  0  0  0  0  0  0  0  0  0
   -4.9508   23.2508  -28.1912 H   0  0  0  0  0  0  0  0  0  0  0  0
   -4.1597   21.6381  -28.1912 H   0  0  0  0  0  0  0  0  0  0  0  0
   -3.0380   25.1710  -28.7600 H   0  0  0  0  0  0  0  0  0  0  0  0
   -2.3535   26.3391  -26.5274 H   0  0  0  0  0  0  0  0  0  0  0  0
   -1.4590   24.7894  -26.3421 H   0  0  0  0  0  0  0  0  0  0  0  0
   -3.4248   20.3935  -31.0964 H   0  0  0  0  0  0  0  0  0  0  0  0
   -4.4133   20.9363  -29.6929 H   0  0  0  0  0  0  0  0  0  0  0  0
   -3.1480   25.3080  -29.9930 H   0  0  0  0  0  0  0  0  0  0  0  0
   -8.1276   24.8155  -30.6369 H   0  0  0  0  0  0  0  0  0  0  0  0
   -9.9520   22.7727  -31.4667 H   0  0  0  0  0  0  0  0  0  0  0  0
  -10.0573   20.3964  -32.2878 H   0  0  0  0  0  0  0  0  0  0  0  0
   -8.2466   18.6846  -33.7722 H   0  0  0  0  0  0  0  0  0  0  0  0
   -5.7140   20.1107  -32.0188 H   0  0  0  0  0  0  0  0  0  0  0  0
  1  2  1  0
  2  3  1  0
  2  4  1  0
  4  5  1  0
  5  6  1  0
  6  7  2  0
  6  8  1  0
  2  9  1  0
  9 10  2  0
  9 11  1  0
 11 12  1  0
 12 13  1  0
 13 14  2  0
 13 15  1  0
 15 16  1  0
 16 17  1  0
 17 18  1  0
 17 19  2  0
 16 20  2  0
 20 21  1  0
 21 22  2  0
 22 23  1  0
 23 24  2  0
 24 25  1  0
 25 26  1  0
 25 27  1  0
 24 28  1  0
 28 29  2  0
 29 15  1  0
 29 21  1  0
  1 30  1  0
  1 31  1  0
  1 32  1  0
  3 33  1  0
  3 34  1  0
  3 35  1  0
  4 36  1  0
  5 37  1  0
  5 38  1  0
 12 39  1  0
 12 40  1  0
 18 41  1  0
 20 42  1  0
 22 43  1  0
 23 44  1  0
 25 45  1  0
 28 46  1  0
M  CHG  2   8  -1  18  -1
M  END
>  <UniqueID>  (24) 
24

>  <SMILES>  (24) 
CC(C)(NCC(=O)[O-])C(=O)OCC(=O)n1c(C([NH-])=O)cc2ccc(C(F)F)cc21

>  <Energy>  (24) 
79.71958221841518

>  <Genealogy>  (24) 
CC(C)(NCC(=O)[O-])C(=O)OCC(=O)n1c(C([NH-])=O)cc2ccc(C(F)F)cc21 (protonated)
CC(C)(NCC(=O)[O-])C(=O)OCC(=O)n1c(C([NH-])=O)cc2ccc(C(F)F)cc21 (3D coordinates assigned)
CC(C)(NCC(=O)[O-])C(=O)OCC(=O)n1c(C([NH-])=O)cc2ccc(C(F)F)cc21 (optimized conformer: 79.71958221841518 kcal/mol)

>  <smiles>  (24) 
CC(C)(NCC(=O)O)C(=O)OCC(=O)n1c(C(N)=O)cc2ccc(C(F)F)cc21

>  <score_type>  (24) 
oracle

>  <origin>  (24) 
adg

>  <m_score__min__energy>  (24) 
-11.91

>  <m_primary>  (24) 
energy

$$$$
24:0
     RDKit          3D

 34 35  0  0  0  0  0  0  0  0999 V2000
   -1.1120   21.9260  -28.8680 C   0  0  0  0  0  0  0  0  0  0  0  0
   -1.5040   23.0540  -29.7280 N   0  0  2  0  0  0  0  0  0  0  0  0
   -0.9820   24.2920  -29.2090 C   0  0  0  0  0  0  0  0  0  0  0  0
   -1.6420   25.3630  -29.3060 O   0  0  0  0  0  0  0  0  0  0  0  0
    0.2690   24.3180  -28.6010 O   0  0  0  0  0  0  0  0  0  0  0  0
   -2.9420   23.1540  -29.8540 C   0  0  0  0  0  0  0  0  0  0  0  0
   -3.6240   23.6810  -28.9300 O   0  0  0  0  0  0  0  0  0  0  0  0
   -3.6330   22.7070  -31.0830 C   0  0  0  0  0  0  0  0  0  0  0  0
   -2.9810   22.1680  -32.0160 O   0  0  0  0  0  0  0  0  0  0  0  0
   -5.0510   22.8870  -31.2270 N   0  0  0  0  0  0  0  0  0  0  0  0
   -5.7830   23.9970  -30.9330 C   0  0  0  0  0  0  0  0  0  0  0  0
   -5.2380   25.2970  -30.4900 C   0  0  0  0  0  0  0  0  0  0  0  0
   -3.9120   25.6730  -30.8570 N   0  0  0  0  0  0  0  0  0  0  0  0
   -5.9230   26.0730  -29.7750 O   0  0  0  0  0  0  0  0  0  0  0  0
   -7.1400   23.7560  -31.1530 C   0  0  0  0  0  0  0  0  0  0  0  0
   -7.2130   22.4530  -31.5890 C   0  0  0  0  0  0  0  0  0  0  0  0
   -8.3210   21.6800  -31.9260 C   0  0  0  0  0  0  0  0  0  0  0  0
   -8.1010   20.3450  -32.3070 C   0  0  0  0  0  0  0  0  0  0  0  0
   -6.7880   19.8090  -32.3540 C   0  0  0  0  0  0  0  0  0  0  0  0
   -6.5720   18.3590  -32.7050 C   0  0  0  0  0  0  0  0  0  0  0  0
   -5.5000   17.8400  -32.0010 F   0  0  0  0  0  0  0  0  0  0  0  0
   -7.7100   17.6410  -32.3890 F   0  0  0  0  0  0  0  0  0  0  0  0
   -6.3100   18.2180  -34.0570 F   0  0  0  0  0  0  0  0  0  0  0  0
   -5.6920   20.6200  -31.9780 C   0  0  0  0  0  0  0  0  0  0  0  0
   -5.9390   21.9500  -31.6220 C   0  0  0  0  0  0  0  0  0  0  0  0
   -1.2133   22.2174  -27.8122 H   0  0  0  0  0  0  0  0  0  0  0  0
   -1.7632   21.0639  -29.0745 H   0  0  0  0  0  0  0  0  0  0  0  0
   -0.0665   21.6535  -29.0745 H   0  0  0  0  0  0  0  0  0  0  0  0
   -1.0780   22.8830  -30.6690 H   0  0  0  0  0  0  0  0  0  0  0  0
   -3.0850   25.2920  -30.3450 H   0  0  0  0  0  0  0  0  0  0  0  0
   -7.9740   24.4585  -31.0085 H   0  0  0  0  0  0  0  0  0  0  0  0
   -9.3368   22.1009  -31.8950 H   0  0  0  0  0  0  0  0  0  0  0  0
   -8.9575   19.7077  -32.5721 H   0  0  0  0  0  0  0  0  0  0  0  0
   -4.6696   20.2145  -31.9658 H   0  0  0  0  0  0  0  0  0  0  0  0
  1  2  1  0
  2  3  1  0
  3  4  2  0
  3  5  1  0
  2  6  1  0
  6  7  2  0
  6  8  1  0
  8  9  2  0
  8 10  1  0
 10 11  1  0
 11 12  1  0
 12 13  1  0
 12 14  2  0
 11 15  2  0
 15 16  1  0
 16 17  2  0
 17 18  1  0
 18 19  2  0
 19 20  1  0
 20 21  1  0
 20 22  1  0
 20 23  1  0
 19 24  1  0
 24 25  2  0
 25 10  1  0
 25 16  1  0
  1 26  1  0
  1 27  1  0
  1 28  1  0
  2 29  1  6
 13 30  1  0
 15 31  1  0
 17 32  1  0
 18 33  1  0
 24 34  1  0
M  CHG  3   2   1   5  -1  13  -1
M  END
>  <UniqueID>  (25) 
25

>  <SMILES>  (25) 
C[NH+](C(=O)[O-])C(=O)C(=O)n1c(C([NH-])=O)cc2ccc(C(F)(F)F)cc21

>  <Energy>  (25) 
77.0349602064752

>  <Genealogy>  (25) 
C[NH+](C(=O)[O-])C(=O)C(=O)n1c(C([NH-])=O)cc2ccc(C(F)(F)F)cc21 (protonated)
C[NH+](C(=O)[O-])C(=O)C(=O)n1c(C([NH-])=O)cc2ccc(C(F)(F)F)cc21 (3D coordinates assigned)
C[NH+](C(=O)[O-])C(=O)C(=O)n1c(C([NH-])=O)cc2ccc(C(F)(F)F)cc21 (optimized conformer: 77.0349602064752 kcal/mol)

>  <smiles>  (25) 
CN(C(=O)O)C(=O)C(=O)n1c(C(N)=O)cc2ccc(C(F)(F)F)cc21

>  <score_type>  (25) 
oracle

>  <origin>  (25) 
adg

>  <m_score__min__energy>  (25) 
-10.81

>  <m_primary>  (25) 
energy

$$$$
25:0
     RDKit          3D

 45 46  0  0  0  0  0  0  0  0999 V2000
    0.5860   23.7750  -28.3280 C   0  0  0  0  0  0  0  0  0  0  0  0
   -0.8190   23.9500  -28.7090 N   0  0  0  0  0  0  0  0  0  0  0  0
   -1.6120   25.0320  -28.1200 C   0  0  0  0  0  0  0  0  0  0  0  0
   -1.3890   23.0810  -29.7120 C   0  0  0  0  0  0  0  0  0  0  0  0
   -0.6400   22.2860  -30.3440 O   0  0  0  0  0  0  0  0  0  0  0  0
   -2.8010   23.1030  -29.9900 N   0  0  0  0  0  0  0  0  0  0  0  0
   -3.3920   22.5260  -31.1650 C   0  0  0  0  0  0  0  0  0  0  0  0
   -2.6740   21.9530  -32.0280 O   0  0  0  0  0  0  0  0  0  0  0  0
   -4.8090   22.6210  -31.3760 N   0  0  0  0  0  0  0  0  0  0  0  0
   -5.6370   23.6460  -31.0280 C   0  0  0  0  0  0  0  0  0  0  0  0
   -5.2190   24.9500  -30.4690 C   0  0  0  0  0  0  0  0  0  0  0  0
   -3.8560   25.3630  -30.5090 N   0  0  0  0  0  0  0  0  0  0  0  0
   -6.0840   25.7260  -29.9830 O   0  0  0  0  0  0  0  0  0  0  0  0
   -6.9590   23.3280  -31.3310 C   0  0  0  0  0  0  0  0  0  0  0  0
   -6.9130   22.0670  -31.8830 C   0  0  0  0  0  0  0  0  0  0  0  0
   -7.9400   21.2590  -32.3510 C   0  0  0  0  0  0  0  0  0  0  0  0
   -7.6090   19.9860  -32.8430 C   0  0  0  0  0  0  0  0  0  0  0  0
   -6.2580   19.5250  -32.8540 C   0  0  0  0  0  0  0  0  0  0  0  0
   -5.8590   18.1350  -33.3930 C   0  0  0  0  0  0  0  0  0  0  0  0
   -6.9000   17.0370  -33.0670 C   0  0  0  0  0  0  0  0  0  0  0  0
   -5.7140   18.2050  -34.9290 C   0  0  0  0  0  0  0  0  0  0  0  0
   -4.5140   17.7030  -32.7700 C   0  0  0  0  0  0  0  0  0  0  0  0
   -5.2470   20.3930  -32.3570 C   0  0  0  0  0  0  0  0  0  0  0  0
   -5.6070   21.6630  -31.8960 C   0  0  0  0  0  0  0  0  0  0  0  0
    0.6699   23.7645  -27.2313 H   0  0  0  0  0  0  0  0  0  0  0  0
    0.9601   22.8233  -28.7335 H   0  0  0  0  0  0  0  0  0  0  0  0
    1.1821   24.6058  -28.7335 H   0  0  0  0  0  0  0  0  0  0  0  0
   -1.5640   24.9665  -27.0230 H   0  0  0  0  0  0  0  0  0  0  0  0
   -1.2093   26.0019  -28.4474 H   0  0  0  0  0  0  0  0  0  0  0  0
   -2.6581   24.9400  -28.4474 H   0  0  0  0  0  0  0  0  0  0  0  0
   -3.4460   23.5420  -29.2970 H   0  0  0  0  0  0  0  0  0  0  0  0
   -3.5200   26.0420  -31.2280 H   0  0  0  0  0  0  0  0  0  0  0  0
   -7.8500   23.9513  -31.1648 H   0  0  0  0  0  0  0  0  0  0  0  0
   -8.9837   21.6060  -32.3369 H   0  0  0  0  0  0  0  0  0  0  0  0
   -8.4056   19.3319  -33.2271 H   0  0  0  0  0  0  0  0  0  0  0  0
   -6.9963   16.9354  -31.9759 H   0  0  0  0  0  0  0  0  0  0  0  0
   -7.8735   17.3156  -33.4967 H   0  0  0  0  0  0  0  0  0  0  0  0
   -6.5700   16.0797  -33.4967 H   0  0  0  0  0  0  0  0  0  0  0  0
   -4.7507   18.6700  -35.1855 H   0  0  0  0  0  0  0  0  0  0  0  0
   -5.7535   17.1886  -35.3477 H   0  0  0  0  0  0  0  0  0  0  0  0
   -6.5345   18.8062  -35.3477 H   0  0  0  0  0  0  0  0  0  0  0  0
   -4.5930   17.7284  -31.6731 H   0  0  0  0  0  0  0  0  0  0  0  0
   -4.2700   16.6813  -33.0965 H   0  0  0  0  0  0  0  0  0  0  0  0
   -3.7207   18.3915  -33.0965 H   0  0  0  0  0  0  0  0  0  0  0  0
   -4.1958   20.0696  -32.3355 H   0  0  0  0  0  0  0  0  0  0  0  0
  1  2  1  0
  2  3  1  0
  2  4  1  0
  4  5  2  0
  4  6  1  0
  6  7  1  0
  7  8  2  0
  7  9  1  0
  9 10  1  0
 10 11  1  0
 11 12  1  0
 11 13  2  0
 10 14  2  0
 14 15  1  0
 15 16  2  0
 16 17  1  0
 17 18  2  0
 18 19  1  0
 19 20  1  0
 19 21  1  0
 19 22  1  0
 18 23  1  0
 23 24  2  0
 24  9  1  0
 24 15  1  0
  1 25  1  0
  1 26  1  0
  1 27  1  0
  3 28  1  0
  3 29  1  0
  3 30  1  0
  6 31  1  0
 12 32  1  0
 14 33  1  0
 16 34  1  0
 17 35  1  0
 20 36  1  0
 20 37  1  0
 20 38  1  0
 21 39  1  0
 21 40  1  0
 21 41  1  0
 22 42  1  0
 22 43  1  0
 22 44  1  0
 23 45  1  0
M  CHG  1  12  -1
M  END
>  <UniqueID>  (26) 
26

>  <SMILES>  (26) 
CN(C)C(=O)NC(=O)n1c(C([NH-])=O)cc2ccc(C(C)(C)C)cc21

>  <Energy>  (26) 
82.66687992705702

>  <Genealogy>  (26) 
CN(C)C(=O)NC(=O)n1c(C([NH-])=O)cc2ccc(C(C)(C)C)cc21 (protonated)
CN(C)C(=O)NC(=O)n1c(C([NH-])=O)cc2ccc(C(C)(C)C)cc21 (3D coordinates assigned)
CN(C)C(=O)NC(=O)n1c(C([NH-])=O)cc2ccc(C(C)(C)C)cc21 (optimized conformer: 82.66687992705702 kcal/mol)

>  <smiles>  (26) 
CN(C)C(=O)NC(=O)n1c(C(N)=O)cc2ccc(C(C)(C)C)cc21

>  <score_type>  (26) 
oracle

>  <origin>  (26) 
adg

>  <m_score__min__energy>  (26) 
-11.23

>  <m_primary>  (26) 
energy

$$$$
26:0
     RDKit          3D

 41 42  0  0  0  0  0  0  0  0999 V2000
   -2.6990   25.2590  -28.2440 H   0  0  0  0  0  0  0  0  0  0  0  0
   -2.4220   25.3010  -29.1970 O   0  0  0  0  0  0  0  0  0  0  0  0
   -1.2190   24.5870  -29.2950 C   0  0  0  0  0  0  0  0  0  0  0  0
   -0.5098   25.1570  -29.9131 H   0  0  0  0  0  0  0  0  0  0  0  0
   -1.4239   23.6088  -29.7545 H   0  0  0  0  0  0  0  0  0  0  0  0
   -0.6110   24.3630  -27.9100 C   0  0  0  0  0  0  0  0  0  0  0  0
    0.0016   25.2358  -27.6401 H   0  0  0  0  0  0  0  0  0  0  0  0
    0.0077   23.4540  -27.9406 H   0  0  0  0  0  0  0  0  0  0  0  0
   -1.6320   24.1870  -26.9280 O   0  0  0  0  0  0  0  0  0  0  0  0
   -2.7580   23.3810  -27.1260 C   0  0  0  0  0  0  0  0  0  0  0  0
   -3.9190   23.8730  -27.0890 O   0  0  0  0  0  0  0  0  0  0  0  0
   -2.5760   21.9330  -27.4470 C   0  0  0  0  0  0  0  0  0  0  0  0
   -2.8137   21.3328  -26.5563 H   0  0  0  0  0  0  0  0  0  0  0  0
   -1.5322   21.7662  -27.7514 H   0  0  0  0  0  0  0  0  0  0  0  0
   -3.4790   21.5230  -28.5730 C   0  0  0  0  0  0  0  0  0  0  0  0
   -4.2248   20.7305  -28.4129 H   0  0  0  0  0  0  0  0  0  0  0  0
   -3.3850   22.1120  -29.7680 C   0  0  0  0  0  0  0  0  0  0  0  0
   -2.6314   22.9002  -29.9119 H   0  0  0  0  0  0  0  0  0  0  0  0
   -4.2540   21.7450  -30.9020 C   0  0  0  0  0  0  0  0  0  0  0  0
   -3.7810   21.0270  -31.8240 O   0  0  0  0  0  0  0  0  0  0  0  0
   -5.6170   22.1930  -30.9870 N   0  0  0  0  0  0  0  0  0  0  0  0
   -6.0800   23.4610  -30.8070 C   0  0  0  0  0  0  0  0  0  0  0  0
   -5.2840   24.6100  -30.3290 C   0  0  0  0  0  0  0  0  0  0  0  0
   -4.7590   25.3890  -31.1690 O   0  0  0  0  0  0  0  0  0  0  0  0
   -5.1360   24.8850  -28.9350 N   0  0  0  0  0  0  0  0  0  0  0  0
   -5.7120   24.3900  -28.2200 H   0  0  0  0  0  0  0  0  0  0  0  0
   -4.5190   25.6660  -28.6190 H   0  0  0  0  0  0  0  0  0  0  0  0
   -7.4320   23.5400  -31.1330 C   0  0  0  0  0  0  0  0  0  0  0  0
   -8.0780   24.4292  -31.0884 H   0  0  0  0  0  0  0  0  0  0  0  0
   -7.7880   22.2680  -31.5230 C   0  0  0  0  0  0  0  0  0  0  0  0
   -9.0080   21.7770  -31.9780 C   0  0  0  0  0  0  0  0  0  0  0  0
   -9.8943   22.4258  -32.0368 H   0  0  0  0  0  0  0  0  0  0  0  0
   -9.0720   20.4260  -32.3600 C   0  0  0  0  0  0  0  0  0  0  0  0
  -10.0242   20.0045  -32.7144 H   0  0  0  0  0  0  0  0  0  0  0  0
   -7.9230   19.6030  -32.2930 C   0  0  0  0  0  0  0  0  0  0  0  0
   -7.9980   18.2340  -32.6960 N   0  0  0  0  0  0  0  0  0  0  0  0
   -8.3590   17.9730  -33.6400 H   0  0  0  0  0  0  0  0  0  0  0  0
   -7.6930   17.4700  -32.0520 H   0  0  0  0  0  0  0  0  0  0  0  0
   -6.7000   20.1360  -31.8320 C   0  0  0  0  0  0  0  0  0  0  0  0
   -5.7944   19.5133  -31.7861 H   0  0  0  0  0  0  0  0  0  0  0  0
   -6.6700   21.4770  -31.4350 C   0  0  0  0  0  0  0  0  0  0  0  0
  1  2  1  0
  2  3  1  0
  3  4  1  0
  3  5  1  0
  3  6  1  0
  6  7  1  0
  6  8  1  0
  6  9  1  0
  9 10  1  0
 10 11  2  0
 10 12  1  0
 12 13  1  0
 12 14  1  0
 12 15  1  0
 15 16  1  0
 15 17  2  0
 17 18  1  0
 17 19  1  0
 19 20  2  0
 19 21  1  0
 21 22  1  0
 22 23  1  0
 23 24  2  0
 23 25  1  0
 25 26  1  0
 25 27  1  0
 22 28  2  0
 28 29  1  0
 28 30  1  0
 30 31  2  0
 31 32  1  0
 31 33  1  0
 33 34  1  0
 33 35  2  0
 35 36  1  0
 36 37  1  0
 36 38  1  0
 35 39  1  0
 39 40  1  0
 39 41  2  0
 41 21  1  0
 41 30  1  0
M  END
>  <UniqueID>  (27) 
27

>  <SMILES>  (27) 
NC(=O)c1cc2ccc(N)cc2n1C(=O)/C=C/CC(=O)OCCO

>  <Energy>  (27) 
72.82586736834058

>  <Genealogy>  (27) 
NC(=O)c1cc2ccc(N)cc2n1C(=O)/C=C/CC(=O)OCCO (cis-trans isomerization)
NC(=O)c1cc2ccc(N)cc2n1C(=O)/C=C/CC(=O)OCCO (3D coordinates assigned)
NC(=O)c1cc2ccc(N)cc2n1C(=O)/C=C/CC(=O)OCCO (optimized conformer: 72.82586736834058 kcal/mol)

>  <smiles>  (27) 
NC(=O)c1cc2ccc(N)cc2n1C(=O)/C=C/CC(=O)OCCO

>  <score_type>  (27) 
oracle

>  <origin>  (27) 
adg

>  <m_score__min__energy>  (27) 
-8.4900000000000002

>  <m_primary>  (27) 
energy

$$$$
27:0
     RDKit          3D

 32 34  0  0  0  0  0  0  0  0999 V2000
   -4.0120   25.6720  -30.8400 N   0  0  0  0  0  0  0  0  0  0  0  0
   -5.2790   25.1590  -30.4320 C   0  0  0  0  0  0  0  0  0  0  0  0
   -6.0160   25.8570  -29.6860 O   0  0  0  0  0  0  0  0  0  0  0  0
   -5.7600   23.8480  -30.9160 C   0  0  0  0  0  0  0  0  0  0  0  0
   -7.1070   23.5460  -31.0990 C   0  0  0  0  0  0  0  0  0  0  0  0
   -7.1270   22.2810  -31.6410 C   0  0  0  0  0  0  0  0  0  0  0  0
   -8.2040   21.4840  -32.0110 C   0  0  0  0  0  0  0  0  0  0  0  0
   -7.9330   20.2020  -32.5170 C   0  0  0  0  0  0  0  0  0  0  0  0
   -6.5970   19.7330  -32.6410 C   0  0  0  0  0  0  0  0  0  0  0  0
   -6.3450   18.3660  -33.1680 C   0  0  0  0  0  0  0  0  0  0  0  0
   -5.1800   17.9850  -33.8460 C   0  0  0  0  0  0  0  0  0  0  0  0
   -5.4190   16.3780  -34.2190 S   0  0  0  0  0  0  0  0  0  0  0  0
   -6.9220   16.1930  -33.5510 N   0  0  0  0  0  0  0  0  0  0  0  0
   -7.2710   17.3650  -33.0280 N   0  0  0  0  0  0  0  0  0  0  0  0
   -5.5300   20.5770  -32.2460 C   0  0  0  0  0  0  0  0  0  0  0  0
   -5.8310   21.8570  -31.7640 C   0  0  0  0  0  0  0  0  0  0  0  0
   -4.9780   22.8060  -31.3180 N   0  0  0  0  0  0  0  0  0  0  0  0
   -3.5510   22.6860  -31.2240 C   0  0  0  0  0  0  0  0  0  0  0  0
   -2.8990   22.1720  -32.1750 O   0  0  0  0  0  0  0  0  0  0  0  0
   -2.8870   23.1630  -30.0880 O   0  0  0  0  0  0  0  0  0  0  0  0
   -1.4700   23.1430  -29.9420 C   0  0  0  0  0  0  0  0  0  0  0  0
   -1.0010   24.3890  -29.2610 C   0  0  0  0  0  0  0  0  0  0  0  0
   -1.6910   25.4410  -29.3140 O   0  0  0  0  0  0  0  0  0  0  0  0
    0.2160   24.3960  -28.5900 O   0  0  0  0  0  0  0  0  0  0  0  0
   -3.1250   25.2730  -30.4620 H   0  0  0  0  0  0  0  0  0  0  0  0
   -7.9715   24.1831  -30.8609 H   0  0  0  0  0  0  0  0  0  0  0  0
   -9.2377   21.8464  -31.9106 H   0  0  0  0  0  0  0  0  0  0  0  0
   -8.7664   19.5519  -32.8216 H   0  0  0  0  0  0  0  0  0  0  0  0
   -4.3035   18.6071  -34.0800 H   0  0  0  0  0  0  0  0  0  0  0  0
   -4.4871   20.2342  -32.3164 H   0  0  0  0  0  0  0  0  0  0  0  0
   -1.1795   22.2692  -29.3403 H   0  0  0  0  0  0  0  0  0  0  0  0
   -1.0083   23.0844  -30.9387 H   0  0  0  0  0  0  0  0  0  0  0  0
  1  2  1  0
  2  3  2  0
  2  4  1  0
  4  5  2  0
  5  6  1  0
  6  7  2  0
  7  8  1  0
  8  9  2  0
  9 10  1  0
 10 11  2  0
 11 12  1  0
 12 13  1  0
 13 14  2  0
  9 15  1  0
 15 16  2  0
 16 17  1  0
 17 18  1  0
 18 19  2  0
 18 20  1  0
 20 21  1  0
 21 22  1  0
 22 23  2  0
 22 24  1  0
 17  4  1  0
 16  6  1  0
 14 10  1  0
  1 25  1  0
  5 26  1  0
  7 27  1  0
  8 28  1  0
 11 29  1  0
 15 30  1  0
 21 31  1  0
 21 32  1  0
M  CHG  2   1  -1  24  -1
M  END
>  <UniqueID>  (28) 
28

>  <SMILES>  (28) 
[NH-]C(=O)c1cc2ccc(-c3csnn3)cc2n1C(=O)OCC(=O)[O-]

>  <Energy>  (28) 
110.54086377057942

>  <Genealogy>  (28) 
[NH-]C(=O)c1cc2ccc(-c3csnn3)cc2n1C(=O)OCC(=O)[O-] (protonated)
[NH-]C(=O)c1cc2ccc(-c3csnn3)cc2n1C(=O)OCC(=O)[O-] (3D coordinates assigned)
[NH-]C(=O)c1cc2ccc(-c3csnn3)cc2n1C(=O)OCC(=O)[O-] (optimized conformer: 110.54086377057942 kcal/mol)

>  <smiles>  (28) 
NC(=O)c1cc2ccc(-c3csnn3)cc2n1C(=O)OCC(=O)O

>  <score_type>  (28) 
oracle

>  <origin>  (28) 
adg

>  <m_score__min__energy>  (28) 
-13.199999999999999

>  <m_primary>  (28) 
energy

$$$$
28:0
     RDKit          3D

 39 40  0  0  0  0  0  0  0  0999 V2000
   -1.1720   21.8080  -29.9680 N   0  0  0  0  0  0  0  0  0  0  0  0
   -1.7530   21.7840  -31.2760 C   0  0  0  0  0  0  0  0  0  0  0  0
   -1.0010   21.9220  -32.2760 O   0  0  0  0  0  0  0  0  0  0  0  0
   -3.2120   21.6010  -31.4540 C   0  0  0  0  0  0  0  0  0  0  0  0
   -3.8010   20.4680  -32.0200 C   0  0  0  0  0  0  0  0  0  0  0  0
   -5.1550   20.7270  -32.0380 C   0  0  0  0  0  0  0  0  0  0  0  0
   -6.2140   19.9500  -32.4980 C   0  0  0  0  0  0  0  0  0  0  0  0
   -7.5130   20.4770  -32.3920 C   0  0  0  0  0  0  0  0  0  0  0  0
   -7.7290   21.7640  -31.8340 C   0  0  0  0  0  0  0  0  0  0  0  0
   -9.1220   22.3200  -31.7190 C   0  0  0  0  0  0  0  0  0  0  0  0
  -10.0270   21.4370  -32.2800 F   0  0  0  0  0  0  0  0  0  0  0  0
   -9.1950   23.5340  -32.3810 F   0  0  0  0  0  0  0  0  0  0  0  0
   -6.6290   22.5210  -31.3760 C   0  0  0  0  0  0  0  0  0  0  0  0
   -5.3470   21.9730  -31.5020 C   0  0  0  0  0  0  0  0  0  0  0  0
   -4.1690   22.5200  -31.1370 N   0  0  0  0  0  0  0  0  0  0  0  0
   -3.9870   23.8380  -30.5990 C   0  0  0  0  0  0  0  0  0  0  0  0
   -4.5750   24.8200  -31.1270 O   0  0  0  0  0  0  0  0  0  0  0  0
   -3.0890   24.0540  -29.4560 C   0  0  0  0  0  0  0  0  0  0  0  0
   -2.9480   23.1450  -28.5920 O   0  0  0  0  0  0  0  0  0  0  0  0
   -2.3670   25.2830  -29.3360 N   0  0  0  0  0  0  0  0  0  0  0  0
   -1.5890   25.6490  -28.1560 C   0  0  0  0  0  0  0  0  0  0  0  0
   -0.3180   24.7860  -28.0370 C   0  0  2  0  0  0  0  0  0  0  0  0
   -0.1080   24.0950  -29.2410 O   0  0  0  0  0  0  0  0  0  0  0  0
   -0.4360   23.7670  -26.8930 C   0  0  0  0  0  0  0  0  0  0  0  0
   -0.7790   22.5030  -27.4000 O   0  0  0  0  0  0  0  0  0  0  0  0
   -1.7240   21.5480  -29.1200 H   0  0  0  0  0  0  0  0  0  0  0  0
   -0.1450   21.9640  -29.8600 H   0  0  0  0  0  0  0  0  0  0  0  0
   -3.2918   19.5604  -32.3763 H   0  0  0  0  0  0  0  0  0  0  0  0
   -6.0400   18.9540  -32.9313 H   0  0  0  0  0  0  0  0  0  0  0  0
   -8.3708   19.8858  -32.7451 H   0  0  0  0  0  0  0  0  0  0  0  0
   -9.3646   22.4653  -30.6560 H   0  0  0  0  0  0  0  0  0  0  0  0
   -6.7755   23.5164  -30.9313 H   0  0  0  0  0  0  0  0  0  0  0  0
   -1.2984   26.7072  -28.2318 H   0  0  0  0  0  0  0  0  0  0  0  0
   -2.2095   25.4802  -27.2635 H   0  0  0  0  0  0  0  0  0  0  0  0
    0.5280   25.4556  -27.8230 H   0  0  0  0  0  0  0  0  0  0  0  0
   -0.9480   23.6080  -29.4440 H   0  0  0  0  0  0  0  0  0  0  0  0
    0.5280   23.6979  -26.3676 H   0  0  0  0  0  0  0  0  0  0  0  0
   -1.2211   24.0988  -26.1976 H   0  0  0  0  0  0  0  0  0  0  0  0
   -1.3760   22.6620  -28.1800 H   0  0  0  0  0  0  0  0  0  0  0  0
  1  2  1  0
  2  3  2  0
  2  4  1  0
  4  5  2  0
  5  6  1  0
  6  7  2  0
  7  8  1  0
  8  9  2  0
  9 10  1  0
 10 11  1  0
 10 12  1  0
  9 13  1  0
 13 14  2  0
 14 15  1  0
 15 16  1  0
 16 17  2  0
 16 18  1  0
 18 19  2  0
 18 20  1  0
 20 21  1  0
 21 22  1  0
 22 23  1  0
 22 24  1  0
 24 25  1  0
 15  4  1  0
 14  6  1  0
  1 26  1  0
  1 27  1  0
  5 28  1  0
  7 29  1  0
  8 30  1  0
 10 31  1  0
 13 32  1  0
 21 33  1  0
 21 34  1  0
 22 35  1  1
 23 36  1  0
 24 37  1  0
 24 38  1  0
 25 39  1  0
M  CHG  1  20  -1
M  END
>  <UniqueID>  (29) 
29

>  <SMILES>  (29) 
NC(=O)c1cc2ccc(C(F)F)cc2n1C(=O)C(=O)[N-]C[C@H](O)CO

>  <Energy>  (29) 
72.56111695882738

>  <Genealogy>  (29) 
NC(=O)c1cc2ccc(C(F)F)cc2n1C(=O)C(=O)[N-]CC(O)CO (protonated)
NC(=O)c1cc2ccc(C(F)F)cc2n1C(=O)C(=O)[N-]C[C@H](O)CO (chirality)
NC(=O)c1cc2ccc(C(F)F)cc2n1C(=O)C(=O)[N-]C[C@H](O)CO (3D coordinates assigned)
NC(=O)c1cc2ccc(C(F)F)cc2n1C(=O)C(=O)[N-]C[C@H](O)CO (optimized conformer: 72.56111695882738 kcal/mol)

>  <smiles>  (29) 
NC(=O)c1cc2ccc(C(F)F)cc2n1C(=O)C(=O)NCC(O)CO

>  <score_type>  (29) 
oracle

>  <origin>  (29) 
adg

>  <m_score__min__energy>  (29) 
-9.3000000000000007

>  <m_primary>  (29) 
energy

$$$$
29:0
     RDKit          3D

 46 47  0  0  0  0  0  0  0  0999 V2000
   -1.2500   18.5160  -27.0620 C   0  0  0  0  0  0  0  0  0  0  0  0
   -2.2170   19.3700  -26.3580 N   0  0  0  0  0  0  0  0  0  0  0  0
   -3.4800   18.6530  -26.1230 C   0  0  0  0  0  0  0  0  0  0  0  0
   -2.4500   20.5780  -27.1080 C   0  0  0  0  0  0  0  0  0  0  0  0
   -3.0200   20.5270  -28.2360 O   0  0  0  0  0  0  0  0  0  0  0  0
   -1.9980   21.7990  -26.5900 O   0  0  0  0  0  0  0  0  0  0  0  0
   -2.2090   23.0550  -27.1750 C   0  0  0  0  0  0  0  0  0  0  0  0
   -3.3350   23.6190  -27.1050 O   0  0  0  0  0  0  0  0  0  0  0  0
   -1.0890   23.7790  -27.8000 C   0  0  0  0  0  0  0  0  0  0  0  0
   -0.7210   23.6630  -29.0860 C   0  0  0  0  0  0  0  0  0  0  0  0
   -1.5020   22.9790  -30.1350 C   0  0  0  0  0  0  0  0  0  0  0  0
   -0.9130   22.3380  -31.0470 O   0  0  0  0  0  0  0  0  0  0  0  0
   -2.9360   23.0040  -30.0730 N   0  0  0  0  0  0  0  0  0  0  0  0
   -3.7910   22.3650  -31.0340 C   0  0  0  0  0  0  0  0  0  0  0  0
   -3.3170   21.5580  -31.8790 O   0  0  0  0  0  0  0  0  0  0  0  0
   -5.1980   22.6490  -31.0390 N   0  0  0  0  0  0  0  0  0  0  0  0
   -5.8220   23.7990  -30.6600 C   0  0  0  0  0  0  0  0  0  0  0  0
   -5.1540   25.0660  -30.2870 C   0  0  0  0  0  0  0  0  0  0  0  0
   -3.7800   25.2900  -30.5930 N   0  0  0  0  0  0  0  0  0  0  0  0
   -5.8180   25.9780  -29.7240 O   0  0  0  0  0  0  0  0  0  0  0  0
   -7.2050   23.6490  -30.7320 C   0  0  0  0  0  0  0  0  0  0  0  0
   -7.4100   22.3610  -31.1720 C   0  0  0  0  0  0  0  0  0  0  0  0
   -8.5950   21.6760  -31.4200 C   0  0  0  0  0  0  0  0  0  0  0  0
   -8.5070   20.3410  -31.8510 C   0  0  0  0  0  0  0  0  0  0  0  0
   -7.2460   19.7070  -31.9980 C   0  0  0  0  0  0  0  0  0  0  0  0
   -7.1610   18.2880  -32.5010 C   0  0  0  0  0  0  0  0  0  0  0  0
   -6.8300   18.3020  -33.8440 F   0  0  0  0  0  0  0  0  0  0  0  0
   -6.1950   17.5810  -31.8060 F   0  0  0  0  0  0  0  0  0  0  0  0
   -8.3730   17.6370  -32.3420 F   0  0  0  0  0  0  0  0  0  0  0  0
   -6.0650   20.4440  -31.7520 C   0  0  0  0  0  0  0  0  0  0  0  0
   -6.1830   21.7770  -31.3470 C   0  0  0  0  0  0  0  0  0  0  0  0
   -0.6364   17.9741  -26.3273 H   0  0  0  0  0  0  0  0  0  0  0  0
   -1.7895   17.7942  -27.6928 H   0  0  0  0  0  0  0  0  0  0  0  0
   -0.6004   19.1406  -27.6928 H   0  0  0  0  0  0  0  0  0  0  0  0
   -1.8110   19.6260  -25.4270 H   0  0  0  0  0  0  0  0  0  0  0  0
   -3.6507   18.5561  -25.0407 H   0  0  0  0  0  0  0  0  0  0  0  0
   -4.3102   19.2145  -26.5763 H   0  0  0  0  0  0  0  0  0  0  0  0
   -3.4234   17.6524  -26.5763 H   0  0  0  0  0  0  0  0  0  0  0  0
   -0.5105   24.4665  -27.1654 H   0  0  0  0  0  0  0  0  0  0  0  0
    0.2383   24.1133  -29.3810 H   0  0  0  0  0  0  0  0  0  0  0  0
   -3.3890   23.5500  -29.3050 H   0  0  0  0  0  0  0  0  0  0  0  0
   -3.4920   26.0640  -31.2310 H   0  0  0  0  0  0  0  0  0  0  0  0
   -7.9707   24.4004  -30.4888 H   0  0  0  0  0  0  0  0  0  0  0  0
   -9.5712   22.1642  -31.2830 H   0  0  0  0  0  0  0  0  0  0  0  0
   -9.4265   19.7811  -32.0770 H   0  0  0  0  0  0  0  0  0  0  0  0
   -5.0758   19.9793  -31.8764 H   0  0  0  0  0  0  0  0  0  0  0  0
  1  2  1  0
  2  3  1  0
  2  4  1  0
  4  5  2  0
  4  6  1  0
  6  7  1  0
  7  8  2  0
  7  9  1  0
  9 10  2  3
 10 11  1  0
 11 12  2  0
 11 13  1  0
 13 14  1  0
 14 15  2  0
 14 16  1  0
 16 17  1  0
 17 18  1  0
 18 19  1  0
 18 20  2  0
 17 21  2  0
 21 22  1  0
 22 23  2  0
 23 24  1  0
 24 25  2  0
 25 26  1  0
 26 27  1  0
 26 28  1  0
 26 29  1  0
 25 30  1  0
 30 31  2  0
 31 16  1  0
 31 22  1  0
  1 32  1  0
  1 33  1  0
  1 34  1  0
  2 35  1  0
  3 36  1  0
  3 37  1  0
  3 38  1  0
  9 39  1  0
 10 40  1  0
 13 41  1  0
 19 42  1  0
 21 43  1  0
 23 44  1  0
 24 45  1  0
 30 46  1  0
M  CHG  2   2   1  19  -1
M  END
>  <UniqueID>  (30) 
30

>  <SMILES>  (30) 
C[NH+](C)C(=O)OC(=O)C=CC(=O)NC(=O)n1c(C([NH-])=O)cc2ccc(C(F)(F)F)cc21

>  <Energy>  (30) 
91.62671949870143

>  <Genealogy>  (30) 
C[NH+](C)C(=O)OC(=O)C=CC(=O)NC(=O)n1c(C([NH-])=O)cc2ccc(C(F)(F)F)cc21 (protonated)
C[NH+](C)C(=O)OC(=O)C=CC(=O)NC(=O)n1c(C([NH-])=O)cc2ccc(C(F)(F)F)cc21 (3D coordinates assigned)
C[NH+](C)C(=O)OC(=O)C=CC(=O)NC(=O)n1c(C([NH-])=O)cc2ccc(C(F)(F)F)cc21 (optimized conformer: 91.62671949870143 kcal/mol)

>  <smiles>  (30) 
CN(C)C(=O)OC(=O)C=CC(=O)NC(=O)n1c(C(N)=O)cc2ccc(C(F)(F)F)cc21

>  <score_type>  (30) 
oracle

>  <origin>  (30) 
adg

>  <m_score__min__energy>  (30) 
-10.68

>  <m_primary>  (30) 
energy

$$$$
30:0
     RDKit          3D

 44 45  0  0  0  0  0  0  0  0999 V2000
   -6.8180   17.1270  -32.2970 C   0  0  0  0  0  0  0  0  0  0  0  0
   -6.6080   18.2530  -33.2190 N   0  0  0  0  0  0  0  0  0  0  0  0
   -6.1090   17.9640  -34.5700 C   0  0  0  0  0  0  0  0  0  0  0  0
   -4.6130   17.9710  -34.5900 C   0  0  0  0  0  0  0  0  0  0  0  0
   -3.9760   18.9820  -34.2010 O   0  0  0  0  0  0  0  0  0  0  0  0
   -3.9180   16.8530  -35.0310 O   0  0  0  0  0  0  0  0  0  0  0  0
   -6.8600   19.6140  -32.7760 C   0  0  0  0  0  0  0  0  0  0  0  0
   -8.1800   20.1470  -32.7720 C   0  0  0  0  0  0  0  0  0  0  0  0
   -8.4310   21.4590  -32.3420 C   0  0  0  0  0  0  0  0  0  0  0  0
   -7.3540   22.2260  -31.9130 C   0  0  0  0  0  0  0  0  0  0  0  0
   -7.3250   23.5180  -31.4420 C   0  0  0  0  0  0  0  0  0  0  0  0
   -5.9910   23.7650  -31.1370 C   0  0  0  0  0  0  0  0  0  0  0  0
   -5.5260   25.0070  -30.4910 C   0  0  0  0  0  0  0  0  0  0  0  0
   -4.1950   25.4880  -30.6890 N   0  0  0  0  0  0  0  0  0  0  0  0
   -6.2900   25.6150  -29.6980 O   0  0  0  0  0  0  0  0  0  0  0  0
   -5.2200   22.6780  -31.4290 N   0  0  0  0  0  0  0  0  0  0  0  0
   -3.7850   22.5950  -31.3670 C   0  0  0  0  0  0  0  0  0  0  0  0
   -3.1390   22.1140  -32.3330 O   0  0  0  0  0  0  0  0  0  0  0  0
   -3.1120   23.0460  -30.2220 O   0  0  0  0  0  0  0  0  0  0  0  0
   -2.0150   22.3570  -29.6240 C   0  0  0  0  0  0  0  0  0  0  0  0
   -2.1410   22.3580  -28.0960 C   0  0  0  0  0  0  0  0  0  0  0  0
   -1.9780   23.7720  -27.5270 C   0  0  0  0  0  0  0  0  0  0  0  0
   -1.3930   24.6880  -28.5520 C   0  0  0  0  0  0  0  0  0  0  0  0
   -2.1460   25.3120  -29.3430 O   0  0  0  0  0  0  0  0  0  0  0  0
   -0.0280   24.9350  -28.5680 O   0  0  0  0  0  0  0  0  0  0  0  0
   -6.0750   21.7390  -31.8950 C   0  0  0  0  0  0  0  0  0  0  0  0
   -5.7910   20.4380  -32.3390 C   0  0  0  0  0  0  0  0  0  0  0  0
   -6.7511   17.4855  -31.2592 H   0  0  0  0  0  0  0  0  0  0  0  0
   -7.8129   16.6912  -32.4710 H   0  0  0  0  0  0  0  0  0  0  0  0
   -6.0471   16.3619  -32.4710 H   0  0  0  0  0  0  0  0  0  0  0  0
   -6.4704   16.9740  -34.8850 H   0  0  0  0  0  0  0  0  0  0  0  0
   -6.4771   18.7393  -35.2580 H   0  0  0  0  0  0  0  0  0  0  0  0
   -9.0174   19.5198  -33.1117 H   0  0  0  0  0  0  0  0  0  0  0  0
   -9.4517   21.8691  -32.3444 H   0  0  0  0  0  0  0  0  0  0  0  0
   -8.1746   24.2077  -31.3305 H   0  0  0  0  0  0  0  0  0  0  0  0
   -3.4930   24.9270  -31.2190 H   0  0  0  0  0  0  0  0  0  0  0  0
   -3.8890   26.3810  -30.2420 H   0  0  0  0  0  0  0  0  0  0  0  0
   -2.0019   21.3178  -29.9843 H   0  0  0  0  0  0  0  0  0  0  0  0
   -1.0822   22.8696  -29.9018 H   0  0  0  0  0  0  0  0  0  0  0  0
   -3.1324   21.9713  -27.8175 H   0  0  0  0  0  0  0  0  0  0  0  0
   -1.3457   21.7217  -27.6806 H   0  0  0  0  0  0  0  0  0  0  0  0
   -2.9631   24.1542  -27.2210 H   0  0  0  0  0  0  0  0  0  0  0  0
   -1.3002   23.7297  -26.6617 H   0  0  0  0  0  0  0  0  0  0  0  0
   -4.7567   20.0636  -32.3480 H   0  0  0  0  0  0  0  0  0  0  0  0
  1  2  1  0
  2  3  1  0
  3  4  1  0
  4  5  2  0
  4  6  1  0
  2  7  1  0
  7  8  2  0
  8  9  1  0
  9 10  2  0
 10 11  1  0
 11 12  2  0
 12 13  1  0
 13 14  1  0
 13 15  2  0
 12 16  1  0
 16 17  1  0
 17 18  2  0
 17 19  1  0
 19 20  1  0
 20 21  1  0
 21 22  1  0
 22 23  1  0
 23 24  2  0
 23 25  1  0
 16 26  1  0
 26 27  2  0
 27  7  1  0
 26 10  1  0
  1 28  1  0
  1 29  1  0
  1 30  1  0
  3 31  1  0
  3 32  1  0
  8 33  1  0
  9 34  1  0
 11 35  1  0
 14 36  1  0
 14 37  1  0
 20 38  1  0
 20 39  1  0
 21 40  1  0
 21 41  1  0
 22 42  1  0
 22 43  1  0
 27 44  1  0
M  CHG  2   6  -1  25  -1
M  END
>  <UniqueID>  (31) 
31

>  <SMILES>  (31) 
CN(CC(=O)[O-])c1ccc2cc(C(N)=O)n(C(=O)OCCCC(=O)[O-])c2c1

>  <Energy>  (31) 
78.51158620472906

>  <Genealogy>  (31) 
CN(CC(=O)[O-])c1ccc2cc(C(N)=O)n(C(=O)OCCCC(=O)[O-])c2c1 (protonated)
CN(CC(=O)[O-])c1ccc2cc(C(N)=O)n(C(=O)OCCCC(=O)[O-])c2c1 (3D coordinates assigned)
CN(CC(=O)[O-])c1ccc2cc(C(N)=O)n(C(=O)OCCCC(=O)[O-])c2c1 (optimized conformer: 78.51158620472906 kcal/mol)

>  <smiles>  (31) 
CN(CC(=O)O)c1ccc2cc(C(N)=O)n(C(=O)OCCCC(=O)O)c2c1

>  <score_type>  (31) 
oracle

>  <origin>  (31) 
adg

>  <m_score__min__energy>  (31) 
-10.66

>  <m_primary>  (31) 
energy

$$$$
31:0
     RDKit          3D

 44 46  0  0  0  0  0  0  0  0999 V2000
   -4.8190   12.8480  -31.9360 C   0  0  0  0  0  0  0  0  0  0  0  0
   -4.5340   13.4010  -33.2160 O   0  0  0  0  0  0  0  0  0  0  0  0
   -5.4700   14.1440  -33.9420 C   0  0  0  0  0  0  0  0  0  0  0  0
   -6.0810   13.6210  -34.9160 O   0  0  0  0  0  0  0  0  0  0  0  0
   -5.7490   15.5430  -33.5770 C   0  0  0  0  0  0  0  0  0  0  0  0
   -6.2760   16.4480  -34.5080 C   0  0  0  0  0  0  0  0  0  0  0  0
   -6.5210   17.7320  -34.1360 N   0  0  0  0  0  0  0  0  0  0  0  0
   -6.2620   18.1670  -32.8680 C   0  0  0  0  0  0  0  0  0  0  0  0
   -6.5430   19.5720  -32.4800 C   0  0  0  0  0  0  0  0  0  0  0  0
   -7.8490   20.1130  -32.6160 C   0  0  0  0  0  0  0  0  0  0  0  0
   -8.1190   21.4430  -32.2490 C   0  0  0  0  0  0  0  0  0  0  0  0
   -7.0720   22.2060  -31.7440 C   0  0  0  0  0  0  0  0  0  0  0  0
   -7.0450   23.5200  -31.3290 C   0  0  0  0  0  0  0  0  0  0  0  0
   -5.7280   23.7570  -30.9370 C   0  0  0  0  0  0  0  0  0  0  0  0
   -5.2440   25.0430  -30.3950 C   0  0  0  0  0  0  0  0  0  0  0  0
   -3.8650   25.3880  -30.5040 N   0  0  0  0  0  0  0  0  0  0  0  0
   -6.0400   25.8490  -29.8440 O   0  0  0  0  0  0  0  0  0  0  0  0
   -4.9770   22.6340  -31.0980 N   0  0  0  0  0  0  0  0  0  0  0  0
   -3.5730   22.4750  -30.8550 C   0  0  0  0  0  0  0  0  0  0  0  0
   -2.7830   22.4160  -31.8370 O   0  0  0  0  0  0  0  0  0  0  0  0
   -3.0620   22.3840  -29.5100 N   0  0  0  0  0  0  0  0  0  0  0  0
   -1.6670   21.9930  -29.2960 C   0  0  0  0  0  0  0  0  0  0  0  0
   -3.9180   22.7450  -28.3760 C   0  0  0  0  0  0  0  0  0  0  0  0
   -5.8090   21.6960  -31.5960 C   0  0  0  0  0  0  0  0  0  0  0  0
   -5.5050   20.3840  -31.9650 C   0  0  0  0  0  0  0  0  0  0  0  0
   -5.7320   17.2580  -31.9380 C   0  0  0  0  0  0  0  0  0  0  0  0
   -5.4920   15.9750  -32.3140 N   0  0  0  0  0  0  0  0  0  0  0  0
   -4.4651   13.5346  -31.1529 H   0  0  0  0  0  0  0  0  0  0  0  0
   -5.9044   12.7024  -31.8329 H   0  0  0  0  0  0  0  0  0  0  0  0
   -4.3077   11.8795  -31.8329 H   0  0  0  0  0  0  0  0  0  0  0  0
   -6.4906   16.1205  -35.5359 H   0  0  0  0  0  0  0  0  0  0  0  0
   -6.8950   18.3920  -34.8560 H   0  0  0  0  0  0  0  0  0  0  0  0
   -8.6591   19.4838  -33.0133 H   0  0  0  0  0  0  0  0  0  0  0  0
   -9.1280   21.8672  -32.3581 H   0  0  0  0  0  0  0  0  0  0  0  0
   -7.8842   24.2309  -31.3109 H   0  0  0  0  0  0  0  0  0  0  0  0
   -3.5350   26.0560  -31.2340 H   0  0  0  0  0  0  0  0  0  0  0  0
   -1.4637   21.9360  -28.2165 H   0  0  0  0  0  0  0  0  0  0  0  0
   -1.4872   21.0098  -29.7554 H   0  0  0  0  0  0  0  0  0  0  0  0
   -1.0024   22.7395  -29.7554 H   0  0  0  0  0  0  0  0  0  0  0  0
   -3.3929   22.5235  -27.4351 H   0  0  0  0  0  0  0  0  0  0  0  0
   -4.1527   23.8187  -28.4210 H   0  0  0  0  0  0  0  0  0  0  0  0
   -4.8507   22.1636  -28.4210 H   0  0  0  0  0  0  0  0  0  0  0  0
   -4.4831   19.9912  -31.8579 H   0  0  0  0  0  0  0  0  0  0  0  0
   -5.5124   17.5833  -30.9104 H   0  0  0  0  0  0  0  0  0  0  0  0
  1  2  1  0
  2  3  1  0
  3  4  2  0
  3  5  1  0
  5  6  2  0
  6  7  1  0
  7  8  2  0
  8  9  1  0
  9 10  2  0
 10 11  1  0
 11 12  2  0
 12 13  1  0
 13 14  2  0
 14 15  1  0
 15 16  1  0
 15 17  2  0
 14 18  1  0
 18 19  1  0
 19 20  2  0
 19 21  1  0
 21 22  1  0
 21 23  1  0
 18 24  1  0
 24 25  2  0
  8 26  1  0
 26 27  2  0
 27  5  1  0
 25  9  1  0
 24 12  1  0
  1 28  1  0
  1 29  1  0
  1 30  1  0
  6 31  1  0
  7 32  1  0
 10 33  1  0
 11 34  1  0
 13 35  1  0
 16 36  1  0
 22 37  1  0
 22 38  1  0
 22 39  1  0
 23 40  1  0
 23 41  1  0
 23 42  1  0
 25 43  1  0
 26 44  1  0
M  CHG  2   7   1  16  -1
M  END
>  <UniqueID>  (32) 
32

>  <SMILES>  (32) 
COC(=O)c1c[nH+]c(-c2ccc3cc(C([NH-])=O)n(C(=O)N(C)C)c3c2)cn1

>  <Energy>  (32) 
86.17373787580921

>  <Genealogy>  (32) 
COC(=O)c1c[nH+]c(-c2ccc3cc(C([NH-])=O)n(C(=O)N(C)C)c3c2)cn1 (protonated)
COC(=O)c1c[nH+]c(-c2ccc3cc(C([NH-])=O)n(C(=O)N(C)C)c3c2)cn1 (3D coordinates assigned)
COC(=O)c1c[nH+]c(-c2ccc3cc(C([NH-])=O)n(C(=O)N(C)C)c3c2)cn1 (optimized conformer: 86.17373787580921 kcal/mol)

>  <smiles>  (32) 
COC(=O)c1cnc(-c2ccc3cc(C(N)=O)n(C(=O)N(C)C)c3c2)cn1

>  <score_type>  (32) 
oracle

>  <origin>  (32) 
adg

>  <m_score__min__energy>  (32) 
-10.289999999999999

>  <m_primary>  (32) 
energy

$$$$
32:0
     RDKit          3D

 66 68  0  0  0  0  0  0  0  0999 V2000
   -0.8450   18.3760  -32.7570 C   0  0  0  0  0  0  0  0  0  0  0  0
   -1.5900   18.5810  -34.0130 N   0  0  2  0  0  0  0  0  0  0  0  0
   -1.9720   19.9970  -34.2250 C   0  0  0  0  0  0  0  0  0  0  0  0
   -3.2400   20.4370  -33.4540 C   0  0  0  0  0  0  0  0  0  0  0  0
   -3.1650   21.9140  -33.0520 C   0  0  0  0  0  0  0  0  0  0  0  0
   -2.8150   22.0520  -31.6760 O   0  0  0  0  0  0  0  0  0  0  0  0
   -3.6330   22.6860  -30.7320 C   0  0  0  0  0  0  0  0  0  0  0  0
   -3.1550   23.0690  -29.6300 O   0  0  0  0  0  0  0  0  0  0  0  0
   -5.0300   22.8700  -31.0120 N   0  0  0  0  0  0  0  0  0  0  0  0
   -5.7640   24.0120  -30.8780 C   0  0  0  0  0  0  0  0  0  0  0  0
   -5.2330   25.3520  -30.5460 C   0  0  0  0  0  0  0  0  0  0  0  0
   -3.8760   25.6680  -30.8440 N   0  0  0  0  0  0  0  0  0  0  0  0
   -5.9560   26.2080  -29.9680 O   0  0  0  0  0  0  0  0  0  0  0  0
   -7.1000   23.7720  -31.1940 C   0  0  0  0  0  0  0  0  0  0  0  0
   -7.1610   22.4410  -31.5390 C   0  0  0  0  0  0  0  0  0  0  0  0
   -8.2460   21.6690  -31.9410 C   0  0  0  0  0  0  0  0  0  0  0  0
   -8.0190   20.3100  -32.2220 C   0  0  0  0  0  0  0  0  0  0  0  0
   -6.7220   19.7460  -32.0920 C   0  0  0  0  0  0  0  0  0  0  0  0
   -6.5020   18.3500  -32.3770 N   0  0  0  0  0  0  0  0  0  0  0  0
   -7.5100   17.5720  -33.1080 C   0  0  0  0  0  0  0  0  0  0  0  0
   -6.8410   16.5430  -34.0430 C   0  0  0  0  0  0  0  0  0  0  0  0
   -5.6030   15.9320  -33.5080 N   0  0  0  0  0  0  0  0  0  0  0  0
   -5.4140   16.1520  -32.0690 C   0  0  0  0  0  0  0  0  0  0  0  0
   -5.3650   17.6540  -31.7610 C   0  0  0  0  0  0  0  0  0  0  0  0
   -5.6480   20.5660  -31.6760 C   0  0  0  0  0  0  0  0  0  0  0  0
   -5.8980   21.9200  -31.4210 C   0  0  0  0  0  0  0  0  0  0  0  0
   -2.7330   17.7020  -34.1270 C   0  0  0  0  0  0  0  0  0  0  0  0
   -3.6820   17.9800  -34.9140 O   0  0  0  0  0  0  0  0  0  0  0  0
   -2.7340   16.5000  -33.4000 O   0  0  0  0  0  0  0  0  0  0  0  0
   -2.3590   15.2050  -33.8950 C   0  0  0  0  0  0  0  0  0  0  0  0
   -2.8260   14.1700  -32.8580 C   0  0  0  0  0  0  0  0  0  0  0  0
   -3.0560   14.9170  -35.2380 C   0  0  0  0  0  0  0  0  0  0  0  0
   -0.8280   15.1020  -34.0420 C   0  0  0  0  0  0  0  0  0  0  0  0
   -1.5114   18.5594  -31.9013 H   0  0  0  0  0  0  0  0  0  0  0  0
   -0.4722   17.3419  -32.7164 H   0  0  0  0  0  0  0  0  0  0  0  0
    0.0044   19.0738  -32.7164 H   0  0  0  0  0  0  0  0  0  0  0  0
   -0.9350   18.3250  -34.7880 H   0  0  0  0  0  0  0  0  0  0  0  0
   -1.1342   20.6320  -33.9012 H   0  0  0  0  0  0  0  0  0  0  0  0
   -2.2011   20.1046  -35.2955 H   0  0  0  0  0  0  0  0  0  0  0  0
   -4.1201   20.2850  -34.0961 H   0  0  0  0  0  0  0  0  0  0  0  0
   -3.3160   19.8322  -32.5383 H   0  0  0  0  0  0  0  0  0  0  0  0
   -2.4052   22.4165  -33.6686 H   0  0  0  0  0  0  0  0  0  0  0  0
   -4.1531   22.3709  -33.2099 H   0  0  0  0  0  0  0  0  0  0  0  0
   -3.0980   25.0520  -30.5220 H   0  0  0  0  0  0  0  0  0  0  0  0
   -7.9300   24.4936  -31.1723 H   0  0  0  0  0  0  0  0  0  0  0  0
   -9.2502   22.1078  -32.0361 H   0  0  0  0  0  0  0  0  0  0  0  0
   -8.8568   19.6755  -32.5467 H   0  0  0  0  0  0  0  0  0  0  0  0
   -8.1480   17.0411  -32.3862 H   0  0  0  0  0  0  0  0  0  0  0  0
   -8.1113   18.2619  -33.7182 H   0  0  0  0  0  0  0  0  0  0  0  0
   -7.5638   15.7371  -34.2382 H   0  0  0  0  0  0  0  0  0  0  0  0
   -6.5487   17.0924  -34.9501 H   0  0  0  0  0  0  0  0  0  0  0  0
   -4.7830   16.3470  -34.0120 H   0  0  0  0  0  0  0  0  0  0  0  0
   -6.2508   15.6962  -31.5194 H   0  0  0  0  0  0  0  0  0  0  0  0
   -4.4640   15.6924  -31.7589 H   0  0  0  0  0  0  0  0  0  0  0  0
   -5.4002   17.8000  -30.6713 H   0  0  0  0  0  0  0  0  0  0  0  0
   -4.4329   18.0682  -32.1729 H   0  0  0  0  0  0  0  0  0  0  0  0
   -4.6373   20.1491  -31.5552 H   0  0  0  0  0  0  0  0  0  0  0  0
   -2.6497   14.5607  -31.8449 H   0  0  0  0  0  0  0  0  0  0  0  0
   -3.8998   13.9739  -32.9936 H   0  0  0  0  0  0  0  0  0  0  0  0
   -2.2625   13.2351  -32.9936 H   0  0  0  0  0  0  0  0  0  0  0  0
   -4.0577   14.5031  -35.0499 H   0  0  0  0  0  0  0  0  0  0  0  0
   -3.1470   15.8512  -35.8116 H   0  0  0  0  0  0  0  0  0  0  0  0
   -2.4611   14.1910  -35.8116 H   0  0  0  0  0  0  0  0  0  0  0  0
   -0.3652   15.0709  -33.0446 H   0  0  0  0  0  0  0  0  0  0  0  0
   -0.5735   14.1847  -34.5931 H   0  0  0  0  0  0  0  0  0  0  0  0
   -0.4529   15.9769  -34.5931 H   0  0  0  0  0  0  0  0  0  0  0  0
  1  2  1  0
  2  3  1  0
  3  4  1  0
  4  5  1  0
  5  6  1  0
  6  7  1  0
  7  8  2  0
  7  9  1  0
  9 10  1  0
 10 11  1  0
 11 12  1  0
 11 13  2  0
 10 14  2  0
 14 15  1  0
 15 16  2  0
 16 17  1  0
 17 18  2  0
 18 19  1  0
 19 20  1  0
 20 21  1  0
 21 22  1  0
 22 23  1  0
 23 24  1  0
 18 25  1  0
 25 26  2  0
  2 27  1  0
 27 28  2  0
 27 29  1  0
 29 30  1  0
 30 31  1  0
 30 32  1  0
 30 33  1  0
 26  9  1  0
 26 15  1  0
 24 19  1  0
  1 34  1  0
  1 35  1  0
  1 36  1  0
  2 37  1  6
  3 38  1  0
  3 39  1  0
  4 40  1  0
  4 41  1  0
  5 42  1  0
  5 43  1  0
 12 44  1  0
 14 45  1  0
 16 46  1  0
 17 47  1  0
 20 48  1  0
 20 49  1  0
 21 50  1  0
 21 51  1  0
 22 52  1  0
 23 53  1  0
 23 54  1  0
 24 55  1  0
 24 56  1  0
 25 57  1  0
 31 58  1  0
 31 59  1  0
 31 60  1  0
 32 61  1  0
 32 62  1  0
 32 63  1  0
 33 64  1  0
 33 65  1  0
 33 66  1  0
M  CHG  2   2   1  12  -1
M  END
>  <UniqueID>  (33) 
33

>  <SMILES>  (33) 
C[N@H+](CCCOC(=O)n1c(C([NH-])=O)cc2ccc(N3CCNCC3)cc21)C(=O)OC(C)(C)C

>  <Energy>  (33) 
107.63239726234397

>  <Genealogy>  (33) 
C[NH+](CCCOC(=O)n1c(C([NH-])=O)cc2ccc(N3CCNCC3)cc21)C(=O)OC(C)(C)C (protonated)
C[N@H+](CCCOC(=O)n1c(C([NH-])=O)cc2ccc(N3CCNCC3)cc21)C(=O)OC(C)(C)C (chirality)
C[N@H+](CCCOC(=O)n1c(C([NH-])=O)cc2ccc(N3CCNCC3)cc21)C(=O)OC(C)(C)C (3D coordinates assigned)
C[N@H+](CCCOC(=O)n1c(C([NH-])=O)cc2ccc(N3CCNCC3)cc21)C(=O)OC(C)(C)C (nonaromatic ring conformer: 107.63239726234397 kcal/mol)

>  <smiles>  (33) 
CN(CCCOC(=O)n1c(C(N)=O)cc2ccc(N3CCNCC3)cc21)C(=O)OC(C)(C)C

>  <score_type>  (33) 
oracle

>  <origin>  (33) 
adg

>  <m_score__min__energy>  (33) 
-11.109999999999999

>  <m_primary>  (33) 
energy

$$$$
33:0
     RDKit          3D

 36 37  0  0  0  0  0  0  0  0999 V2000
   -1.6190   25.2110  -28.8550 C   0  0  0  0  0  0  0  0  0  0  0  0
   -2.7400   24.9190  -29.7360 N   0  0  0  0  0  0  0  0  0  0  0  0
   -3.4080   23.6540  -29.7430 C   0  0  0  0  0  0  0  0  0  0  0  0
   -3.5110   22.9860  -28.6790 O   0  0  0  0  0  0  0  0  0  0  0  0
   -3.9610   23.1270  -31.0000 C   0  0  0  0  0  0  0  0  0  0  0  0
   -3.1790   22.7500  -31.9130 O   0  0  0  0  0  0  0  0  0  0  0  0
   -5.3800   23.0220  -31.1930 N   0  0  0  0  0  0  0  0  0  0  0  0
   -6.3350   23.9170  -30.8130 C   0  0  0  0  0  0  0  0  0  0  0  0
   -6.0670   25.2490  -30.2210 C   0  0  0  0  0  0  0  0  0  0  0  0
   -4.9100   26.0000  -30.5940 N   0  0  0  0  0  0  0  0  0  0  0  0
   -6.8560   25.7290  -29.3640 O   0  0  0  0  0  0  0  0  0  0  0  0
   -7.6050   23.4280  -31.1160 C   0  0  0  0  0  0  0  0  0  0  0  0
   -7.3950   22.1930  -31.6870 C   0  0  0  0  0  0  0  0  0  0  0  0
   -8.3070   21.2590  -32.1610 C   0  0  0  0  0  0  0  0  0  0  0  0
   -7.8080   20.0480  -32.6710 C   0  0  0  0  0  0  0  0  0  0  0  0
   -6.4100   19.7800  -32.6960 C   0  0  0  0  0  0  0  0  0  0  0  0
   -5.9050   18.5240  -33.2180 N   0  0  0  0  0  0  0  0  0  0  0  0
   -4.8430   18.5090  -34.2320 C   0  0  0  0  0  0  0  0  0  0  0  0
   -6.4470   17.2450  -32.7410 C   0  0  0  0  0  0  0  0  0  0  0  0
   -5.5180   20.7670  -32.1980 C   0  0  0  0  0  0  0  0  0  0  0  0
   -6.0460   21.9700  -31.7180 C   0  0  0  0  0  0  0  0  0  0  0  0
   -1.9441   25.1263  -27.8076 H   0  0  0  0  0  0  0  0  0  0  0  0
   -0.8064   24.4946  -29.0458 H   0  0  0  0  0  0  0  0  0  0  0  0
   -1.2592   26.2328  -29.0458 H   0  0  0  0  0  0  0  0  0  0  0  0
   -4.7160   26.9200  -30.1410 H   0  0  0  0  0  0  0  0  0  0  0  0
   -4.2650   25.6720  -31.3470 H   0  0  0  0  0  0  0  0  0  0  0  0
   -8.5704   23.9239  -30.9368 H   0  0  0  0  0  0  0  0  0  0  0  0
   -9.3880   21.4610  -32.1380 H   0  0  0  0  0  0  0  0  0  0  0  0
   -8.5098   19.2943  -33.0575 H   0  0  0  0  0  0  0  0  0  0  0  0
   -3.8617   18.4951  -33.7351 H   0  0  0  0  0  0  0  0  0  0  0  0
   -4.9485   17.6123  -34.8603 H   0  0  0  0  0  0  0  0  0  0  0  0
   -4.9232   19.4084  -34.8603 H   0  0  0  0  0  0  0  0  0  0  0  0
   -6.4509   17.2358  -31.6410 H   0  0  0  0  0  0  0  0  0  0  0  0
   -7.4750   17.1211  -33.1124 H   0  0  0  0  0  0  0  0  0  0  0  0
   -5.8211   16.4202  -33.1124 H   0  0  0  0  0  0  0  0  0  0  0  0
   -4.4326   20.5886  -32.1900 H   0  0  0  0  0  0  0  0  0  0  0  0
  1  2  1  0
  2  3  1  0
  3  4  2  0
  3  5  1  0
  5  6  2  0
  5  7  1  0
  7  8  1  0
  8  9  1  0
  9 10  1  0
  9 11  2  0
  8 12  2  0
 12 13  1  0
 13 14  2  0
 14 15  1  0
 15 16  2  0
 16 17  1  0
 17 18  1  0
 17 19  1  0
 16 20  1  0
 20 21  2  0
 21  7  1  0
 21 13  1  0
  1 22  1  0
  1 23  1  0
  1 24  1  0
 10 25  1  0
 10 26  1  0
 12 27  1  0
 14 28  1  0
 15 29  1  0
 18 30  1  0
 18 31  1  0
 18 32  1  0
 19 33  1  0
 19 34  1  0
 19 35  1  0
 20 36  1  0
M  CHG  1   2  -1
M  END
>  <UniqueID>  (34) 
34

>  <SMILES>  (34) 
C[N-]C(=O)C(=O)n1c(C(N)=O)cc2ccc(N(C)C)cc21

>  <Energy>  (34) 
73.47078313566413

>  <Genealogy>  (34) 
C[N-]C(=O)C(=O)n1c(C(N)=O)cc2ccc(N(C)C)cc21 (protonated)
C[N-]C(=O)C(=O)n1c(C(N)=O)cc2ccc(N(C)C)cc21 (3D coordinates assigned)
C[N-]C(=O)C(=O)n1c(C(N)=O)cc2ccc(N(C)C)cc21 (optimized conformer: 73.47078313566413 kcal/mol)

>  <smiles>  (34) 
CNC(=O)C(=O)n1c(C(N)=O)cc2ccc(N(C)C)cc21

>  <score_type>  (34) 
oracle

>  <origin>  (34) 
adg

>  <m_score__min__energy>  (34) 
-9.5299999999999994

>  <m_primary>  (34) 
energy

$$$$
34:0
     RDKit          3D

 37 39  0  0  0  0  0  0  0  0999 V2000
   -5.2350   24.8650  -28.9530 N   0  0  0  0  0  0  0  0  0  0  0  0
   -5.4230   24.7000  -30.3600 C   0  0  0  0  0  0  0  0  0  0  0  0
   -5.0110   25.5930  -31.1470 O   0  0  0  0  0  0  0  0  0  0  0  0
   -6.1470   23.5330  -30.9030 C   0  0  0  0  0  0  0  0  0  0  0  0
   -7.5290   23.4980  -31.0660 C   0  0  0  0  0  0  0  0  0  0  0  0
   -7.8080   22.2310  -31.5260 C   0  0  0  0  0  0  0  0  0  0  0  0
   -9.0260   21.6530  -31.8670 C   0  0  0  0  0  0  0  0  0  0  0  0
   -9.0170   20.3340  -32.3500 C   0  0  0  0  0  0  0  0  0  0  0  0
   -7.8010   19.6210  -32.4940 C   0  0  0  0  0  0  0  0  0  0  0  0
   -7.8320   18.2740  -32.9990 N   0  0  0  0  0  0  0  0  0  0  0  0
   -6.6720   17.3850  -32.9730 C   0  0  0  0  0  0  0  0  0  0  0  0
   -6.6720   16.3620  -34.0950 C   0  0  0  0  0  0  0  0  0  0  0  0
   -5.7350   17.5570  -34.1560 C   0  0  0  0  0  0  0  0  0  0  0  0
   -6.5800   20.2480  -32.1430 C   0  0  0  0  0  0  0  0  0  0  0  0
   -6.6210   21.5540  -31.6400 C   0  0  0  0  0  0  0  0  0  0  0  0
   -5.5890   22.3410  -31.2610 N   0  0  0  0  0  0  0  0  0  0  0  0
   -4.1910   22.0140  -31.3310 C   0  0  0  0  0  0  0  0  0  0  0  0
   -3.5890   22.0780  -32.4380 O   0  0  0  0  0  0  0  0  0  0  0  0
   -3.5130   21.6240  -30.1680 O   0  0  0  0  0  0  0  0  0  0  0  0
   -3.3240   22.4240  -29.0350 C   0  0  0  0  0  0  0  0  0  0  0  0
   -4.2600   22.6070  -28.2090 O   0  0  0  0  0  0  0  0  0  0  0  0
   -2.0710   23.0190  -28.8450 O   0  0  0  0  0  0  0  0  0  0  0  0
   -1.7800   24.3700  -29.0660 C   0  0  0  0  0  0  0  0  0  0  0  0
   -2.6860   25.2000  -29.3520 O   0  0  0  0  0  0  0  0  0  0  0  0
   -0.4660   24.8070  -28.9700 O   0  0  0  0  0  0  0  0  0  0  0  0
   -5.7090   24.2370  -28.2690 H   0  0  0  0  0  0  0  0  0  0  0  0
   -4.6850   25.6750  -28.5910 H   0  0  0  0  0  0  0  0  0  0  0  0
   -8.2451   24.3095  -30.8692 H   0  0  0  0  0  0  0  0  0  0  0  0
   -9.9677   22.2116  -31.7617 H   0  0  0  0  0  0  0  0  0  0  0  0
   -9.9663   19.8483  -32.6200 H   0  0  0  0  0  0  0  0  0  0  0  0
   -8.6940   17.9380  -33.4850 H   0  0  0  0  0  0  0  0  0  0  0  0
   -6.5463   17.3511  -31.8807 H   0  0  0  0  0  0  0  0  0  0  0  0
   -6.2674   15.3541  -33.9204 H   0  0  0  0  0  0  0  0  0  0  0  0
   -7.4376   15.9390  -34.7620 H   0  0  0  0  0  0  0  0  0  0  0  0
   -4.6522   17.4142  -34.0254 H   0  0  0  0  0  0  0  0  0  0  0  0
   -5.5413   18.3575  -34.8852 H   0  0  0  0  0  0  0  0  0  0  0  0
   -5.6219   19.7210  -32.2629 H   0  0  0  0  0  0  0  0  0  0  0  0
  1  2  1  0
  2  3  2  0
  2  4  1  0
  4  5  2  0
  5  6  1  0
  6  7  2  0
  7  8  1  0
  8  9  2  0
  9 10  1  0
 10 11  1  0
 11 12  1  0
 12 13  1  0
  9 14  1  0
 14 15  2  0
 15 16  1  0
 16 17  1  0
 17 18  2  0
 17 19  1  0
 19 20  1  0
 20 21  2  0
 20 22  1  0
 22 23  1  0
 23 24  2  0
 23 25  1  0
 16  4  1  0
 15  6  1  0
 13 11  1  0
  1 26  1  0
  1 27  1  0
  5 28  1  0
  7 29  1  0
  8 30  1  0
 10 31  1  0
 11 32  1  0
 12 33  1  0
 12 34  1  0
 13 35  1  0
 13 36  1  0
 14 37  1  0
M  CHG  1  25  -1
M  END
>  <UniqueID>  (35) 
35

>  <SMILES>  (35) 
NC(=O)c1cc2ccc(NC3CC3)cc2n1C(=O)OC(=O)OC(=O)[O-]

>  <Energy>  (35) 
343.47301476514707

>  <Genealogy>  (35) 
NC(=O)c1cc2ccc(NC3CC3)cc2n1C(=O)OC(=O)OC(=O)[O-] (protonated)
NC(=O)c1cc2ccc(NC3CC3)cc2n1C(=O)OC(=O)OC(=O)[O-] (3D coordinates assigned)
NC(=O)c1cc2ccc(NC3CC3)cc2n1C(=O)OC(=O)OC(=O)[O-] (nonaromatic ring conformer: 343.47301476514707 kcal/mol)

>  <smiles>  (35) 
NC(=O)c1cc2ccc(NC3CC3)cc2n1C(=O)OC(=O)OC(=O)O

>  <score_type>  (35) 
oracle

>  <origin>  (35) 
adg

>  <m_score__min__energy>  (35) 
-10.31

>  <m_primary>  (35) 
energy

$$$$
35:0
     RDKit          3D

 38 39  0  0  0  0  0  0  0  0999 V2000
   -8.4380   18.6450  -31.5430 C   0  0  0  0  0  0  0  0  0  0  0  0
   -7.9910   19.0360  -32.8760 N   0  0  0  0  0  0  0  0  0  0  0  0
   -6.6100   19.0430  -33.2810 C   0  0  0  0  0  0  0  0  0  0  0  0
   -6.1200   18.1470  -34.2710 C   0  0  0  0  0  0  0  0  0  0  0  0
   -4.7660   18.1600  -34.6430 C   0  0  0  0  0  0  0  0  0  0  0  0
   -3.9270   19.0800  -34.0240 C   0  0  0  0  0  0  0  0  0  0  0  0
   -2.5740   19.2810  -34.1730 C   0  0  0  0  0  0  0  0  0  0  0  0
   -2.2580   20.3170  -33.2990 C   0  0  0  0  0  0  0  0  0  0  0  0
   -0.9060   20.9000  -33.1870 C   0  0  0  0  0  0  0  0  0  0  0  0
   -0.3160   21.1600  -31.9120 N   0  0  0  0  0  0  0  0  0  0  0  0
   -0.2830   21.2260  -34.2330 O   0  0  0  0  0  0  0  0  0  0  0  0
   -3.3660   20.7330  -32.6230 N   0  0  0  0  0  0  0  0  0  0  0  0
   -3.4330   21.7000  -31.5620 C   0  0  0  0  0  0  0  0  0  0  0  0
   -3.9700   22.8220  -31.7740 O   0  0  0  0  0  0  0  0  0  0  0  0
   -2.8990   21.3870  -30.3060 O   0  0  0  0  0  0  0  0  0  0  0  0
   -2.1610   22.2660  -29.5020 C   0  0  0  0  0  0  0  0  0  0  0  0
   -1.0140   22.6610  -29.8460 O   0  0  0  0  0  0  0  0  0  0  0  0
   -2.7720   22.7800  -28.2390 C   0  0  0  0  0  0  0  0  0  0  0  0
   -3.7610   23.9070  -28.5440 C   0  0  0  0  0  0  0  0  0  0  0  0
   -3.1560   24.8910  -29.4930 C   0  0  0  0  0  0  0  0  0  0  0  0
   -1.9780   25.2990  -29.3180 O   0  0  0  0  0  0  0  0  0  0  0  0
   -3.8760   25.3220  -30.6010 O   0  0  0  0  0  0  0  0  0  0  0  0
   -4.3820   19.9660  -33.0810 C   0  0  0  0  0  0  0  0  0  0  0  0
   -5.7220   19.9600  -32.6750 C   0  0  0  0  0  0  0  0  0  0  0  0
   -7.8373   19.1705  -30.7860 H   0  0  0  0  0  0  0  0  0  0  0  0
   -9.4982   18.9109  -31.4191 H   0  0  0  0  0  0  0  0  0  0  0  0
   -8.3155   17.5589  -31.4191 H   0  0  0  0  0  0  0  0  0  0  0  0
   -8.7220   19.3210  -33.5670 H   0  0  0  0  0  0  0  0  0  0  0  0
   -6.8091   17.4362  -34.7504 H   0  0  0  0  0  0  0  0  0  0  0  0
   -4.3805   17.4630  -35.4017 H   0  0  0  0  0  0  0  0  0  0  0  0
   -1.8883   18.7386  -34.8405 H   0  0  0  0  0  0  0  0  0  0  0  0
   -0.8680   21.0620  -31.0320 H   0  0  0  0  0  0  0  0  0  0  0  0
    0.6560   21.5360  -31.8510 H   0  0  0  0  0  0  0  0  0  0  0  0
   -3.3023   21.9597  -27.7331 H   0  0  0  0  0  0  0  0  0  0  0  0
   -1.9742   23.1716  -27.5907 H   0  0  0  0  0  0  0  0  0  0  0  0
   -4.6688   23.4799  -28.9951 H   0  0  0  0  0  0  0  0  0  0  0  0
   -4.0114   24.4245  -27.6062 H   0  0  0  0  0  0  0  0  0  0  0  0
   -6.0764   20.6553  -31.8998 H   0  0  0  0  0  0  0  0  0  0  0  0
  1  2  1  0
  2  3  1  0
  3  4  2  0
  4  5  1  0
  5  6  2  0
  6  7  1  0
  7  8  2  0
  8  9  1  0
  9 10  1  0
  9 11  2  0
  8 12  1  0
 12 13  1  0
 13 14  2  0
 13 15  1  0
 15 16  1  0
 16 17  2  0
 16 18  1  0
 18 19  1  0
 19 20  1  0
 20 21  2  0
 20 22  1  0
 12 23  1  0
 23 24  2  0
 24  3  1  0
 23  6  1  0
  1 25  1  0
  1 26  1  0
  1 27  1  0
  2 28  1  0
  4 29  1  0
  5 30  1  0
  7 31  1  0
 10 32  1  0
 10 33  1  0
 18 34  1  0
 18 35  1  0
 19 36  1  0
 19 37  1  0
 24 38  1  0
M  CHG  1  22  -1
M  END
>  <UniqueID>  (36) 
36

>  <SMILES>  (36) 
CNc1ccc2cc(C(N)=O)n(C(=O)OC(=O)CCC(=O)[O-])c2c1

>  <Energy>  (36) 
72.49335912050465

>  <Genealogy>  (36) 
CNc1ccc2cc(C(N)=O)n(C(=O)OC(=O)CCC(=O)[O-])c2c1 (protonated)
CNc1ccc2cc(C(N)=O)n(C(=O)OC(=O)CCC(=O)[O-])c2c1 (3D coordinates assigned)
CNc1ccc2cc(C(N)=O)n(C(=O)OC(=O)CCC(=O)[O-])c2c1 (optimized conformer: 72.49335912050465 kcal/mol)

>  <smiles>  (36) 
CNc1ccc2cc(C(N)=O)n(C(=O)OC(=O)CCC(=O)O)c2c1

>  <score_type>  (36) 
oracle

>  <origin>  (36) 
adg

>  <m_score__min__energy>  (36) 
-10.630000000000001

>  <m_primary>  (36) 
energy

$$$$
36:0
     RDKit          3D

 42 43  0  0  0  0  0  0  0  0999 V2000
   -5.9220   24.2170  -29.8760 C   0  0  0  0  0  0  0  0  0  0  0  0
   -4.5540   24.5120  -30.4040 C   0  0  0  0  0  0  0  0  0  0  0  0
   -4.3010   25.6610  -30.8530 O   0  0  0  0  0  0  0  0  0  0  0  0
   -3.5090   23.5300  -30.3290 N   0  0  0  0  0  0  0  0  0  0  0  0
   -2.3630   23.5720  -29.5910 C   0  0  0  0  0  0  0  0  0  0  0  0
   -2.0230   24.5910  -28.5770 C   0  0  0  0  0  0  0  0  0  0  0  0
   -1.5040   25.8610  -28.9610 N   0  0  0  0  0  0  0  0  0  0  0  0
   -2.2310   24.3520  -27.3580 O   0  0  0  0  0  0  0  0  0  0  0  0
   -1.5690   22.4590  -29.8630 C   0  0  0  0  0  0  0  0  0  0  0  0
   -2.2750   21.7250  -30.7890 C   0  0  0  0  0  0  0  0  0  0  0  0
   -1.9560   20.5240  -31.4120 C   0  0  0  0  0  0  0  0  0  0  0  0
   -2.8690   20.0000  -32.3440 C   0  0  0  0  0  0  0  0  0  0  0  0
   -4.0810   20.6840  -32.6410 C   0  0  0  0  0  0  0  0  0  0  0  0
   -5.0420   20.1790  -33.5920 N   0  0  0  0  0  0  0  0  0  0  0  0
   -4.9950   18.8690  -34.2460 C   0  0  0  0  0  0  0  0  0  0  0  0
   -6.2100   18.0170  -33.8610 C   0  0  0  0  0  0  0  0  0  0  0  0
   -6.5780   18.1530  -32.3790 C   0  0  0  0  0  0  0  0  0  0  0  0
   -7.8260   18.9090  -32.2330 N   0  0  0  0  0  0  0  0  0  0  0  0
   -8.8480   18.4910  -31.2690 C   0  0  0  0  0  0  0  0  0  0  0  0
   -8.0370   20.0800  -33.0380 C   0  0  0  0  0  0  0  0  0  0  0  0
   -7.6070   21.2040  -32.6650 O   0  0  0  0  0  0  0  0  0  0  0  0
   -4.3630   21.9020  -31.9810 C   0  0  0  0  0  0  0  0  0  0  0  0
   -3.4410   22.3910  -31.0510 C   0  0  0  0  0  0  0  0  0  0  0  0
   -5.8995   24.2219  -28.7762 H   0  0  0  0  0  0  0  0  0  0  0  0
   -6.6256   24.9841  -30.2317 H   0  0  0  0  0  0  0  0  0  0  0  0
   -6.2470   23.2281  -30.2317 H   0  0  0  0  0  0  0  0  0  0  0  0
   -1.2300   26.0540  -29.9500 H   0  0  0  0  0  0  0  0  0  0  0  0
   -0.5870   22.2184  -29.4297 H   0  0  0  0  0  0  0  0  0  0  0  0
   -1.0170   19.9991  -31.1826 H   0  0  0  0  0  0  0  0  0  0  0  0
   -2.6436   19.0496  -32.8498 H   0  0  0  0  0  0  0  0  0  0  0  0
   -5.8800   20.7670  -33.8010 H   0  0  0  0  0  0  0  0  0  0  0  0
   -4.9873   19.0118  -35.3367 H   0  0  0  0  0  0  0  0  0  0  0  0
   -4.0838   18.3470  -33.9184 H   0  0  0  0  0  0  0  0  0  0  0  0
   -7.0702   18.3348  -34.4685 H   0  0  0  0  0  0  0  0  0  0  0  0
   -5.9510   16.9639  -34.0453 H   0  0  0  0  0  0  0  0  0  0  0  0
   -6.7073   17.1512  -31.9436 H   0  0  0  0  0  0  0  0  0  0  0  0
   -5.7714   18.6888  -31.8572 H   0  0  0  0  0  0  0  0  0  0  0  0
   -8.4723   18.6446  -30.2466 H   0  0  0  0  0  0  0  0  0  0  0  0
   -9.7593   19.0886  -31.4185 H   0  0  0  0  0  0  0  0  0  0  0  0
   -9.0793   17.4260  -31.4185 H   0  0  0  0  0  0  0  0  0  0  0  0
   -8.5801   19.9943  -33.9907 H   0  0  0  0  0  0  0  0  0  0  0  0
   -5.2899   22.4542  -32.1951 H   0  0  0  0  0  0  0  0  0  0  0  0
  1  2  1  0
  2  3  2  0
  2  4  1  0
  4  5  1  0
  5  6  1  0
  6  7  1  0
  6  8  2  0
  5  9  2  0
  9 10  1  0
 10 11  2  0
 11 12  1  0
 12 13  2  0
 13 14  1  0
 14 15  1  0
 15 16  1  0
 16 17  1  0
 17 18  1  0
 18 19  1  0
 18 20  1  0
 20 21  2  0
 13 22  1  0
 22 23  2  0
 23  4  1  0
 23 10  1  0
  1 24  1  0
  1 25  1  0
  1 26  1  0
  7 27  1  0
  9 28  1  0
 11 29  1  0
 12 30  1  0
 14 31  1  0
 15 32  1  0
 15 33  1  0
 16 34  1  0
 16 35  1  0
 17 36  1  0
 17 37  1  0
 19 38  1  0
 19 39  1  0
 19 40  1  0
 20 41  1  0
 22 42  1  0
M  CHG  1   7  -1
M  END
>  <UniqueID>  (37) 
37

>  <SMILES>  (37) 
CC(=O)n1c(C([NH-])=O)cc2ccc(NCCCN(C)C=O)cc21

>  <Energy>  (37) 
74.76214388298114

>  <Genealogy>  (37) 
CC(=O)n1c(C([NH-])=O)cc2ccc(NCCCN(C)C=O)cc21 (protonated)
CC(=O)n1c(C([NH-])=O)cc2ccc(NCCCN(C)C=O)cc21 (3D coordinates assigned)
CC(=O)n1c(C([NH-])=O)cc2ccc(NCCCN(C)C=O)cc21 (optimized conformer: 74.76214388298114 kcal/mol)

>  <smiles>  (37) 
CC(=O)n1c(C(N)=O)cc2ccc(NCCCN(C)C=O)cc21

>  <score_type>  (37) 
oracle

>  <origin>  (37) 
adg

>  <m_score__min__energy>  (37) 
-9.9700000000000006

>  <m_primary>  (37) 
energy

$$$$
37:0
     RDKit          3D

 43 45  0  0  0  0  0  0  0  0999 V2000
   -1.8250   20.8720  -31.7340 C   0  0  0  0  0  0  0  0  0  0  0  0
   -2.5490   21.9430  -32.0540 C   0  0  0  0  0  0  0  0  0  0  0  0
   -3.3890   22.6560  -31.0740 C   0  0  0  0  0  0  0  0  0  0  0  0
   -2.8730   23.1630  -30.0410 O   0  0  0  0  0  0  0  0  0  0  0  0
   -4.8030   22.7820  -31.2930 N   0  0  0  0  0  0  0  0  0  0  0  0
   -5.6010   23.8420  -30.9840 C   0  0  0  0  0  0  0  0  0  0  0  0
   -5.1430   25.1420  -30.4490 C   0  0  0  0  0  0  0  0  0  0  0  0
   -3.8690   25.6560  -30.8300 N   0  0  0  0  0  0  0  0  0  0  0  0
   -5.8550   25.7930  -29.6400 O   0  0  0  0  0  0  0  0  0  0  0  0
   -6.9300   23.5590  -31.2960 C   0  0  0  0  0  0  0  0  0  0  0  0
   -6.9200   22.2820  -31.8080 C   0  0  0  0  0  0  0  0  0  0  0  0
   -7.9700   21.4900  -32.2620 C   0  0  0  0  0  0  0  0  0  0  0  0
   -7.6730   20.1910  -32.7070 C   0  0  0  0  0  0  0  0  0  0  0  0
   -6.3410   19.6990  -32.6800 C   0  0  0  0  0  0  0  0  0  0  0  0
   -6.0380   18.3190  -33.1390 C   0  0  0  0  0  0  0  0  0  0  0  0
   -6.0280   17.8390  -34.4410 C   0  0  0  0  0  0  0  0  0  0  0  0
   -5.7120   16.5280  -34.4320 N   0  0  0  0  0  0  0  0  0  0  0  0
   -5.5230   16.1690  -33.1720 N   0  0  0  0  0  0  0  0  0  0  0  0
   -5.1730   14.8460  -32.7610 C   0  0  0  0  0  0  0  0  0  0  0  0
   -4.6030   14.6630  -31.6500 O   0  0  0  0  0  0  0  0  0  0  0  0
   -5.4600   13.7610  -33.5970 O   0  0  0  0  0  0  0  0  0  0  0  0
   -4.6760   12.5720  -33.6180 C   0  0  0  0  0  0  0  0  0  0  0  0
   -4.0710   12.4120  -34.8800 O   0  0  0  0  0  0  0  0  0  0  0  0
   -2.8460   13.5880  -35.0660 P   0  0  1  0  0  0  0  0  0  0  0  0
   -2.0740   13.7530  -33.7750 O   0  0  0  0  0  0  0  0  0  0  0  0
   -1.7860   13.1370  -36.3060 O   0  0  0  0  0  0  0  0  0  0  0  0
   -3.5640   15.0650  -35.4720 O   0  0  0  0  0  0  0  0  0  0  0  0
   -5.7100   17.2240  -32.3580 C   0  0  0  0  0  0  0  0  0  0  0  0
   -5.3030   20.5370  -32.2080 C   0  0  0  0  0  0  0  0  0  0  0  0
   -5.6260   21.8340  -31.7930 C   0  0  0  0  0  0  0  0  0  0  0  0
   -1.2131   20.3729  -32.4998 H   0  0  0  0  0  0  0  0  0  0  0  0
   -1.8389   20.4865  -30.7039 H   0  0  0  0  0  0  0  0  0  0  0  0
   -2.5192   22.3103  -33.0904 H   0  0  0  0  0  0  0  0  0  0  0  0
   -2.9920   25.2910  -30.3960 H   0  0  0  0  0  0  0  0  0  0  0  0
   -7.8013   24.2168  -31.1614 H   0  0  0  0  0  0  0  0  0  0  0  0
   -9.0023   21.8698  -32.2722 H   0  0  0  0  0  0  0  0  0  0  0  0
   -8.4824   19.5468  -33.0811 H   0  0  0  0  0  0  0  0  0  0  0  0
   -6.2441   18.4348  -35.3400 H   0  0  0  0  0  0  0  0  0  0  0  0
   -3.8951   12.6377  -32.8461 H   0  0  0  0  0  0  0  0  0  0  0  0
   -5.3275   11.7082  -33.4195 H   0  0  0  0  0  0  0  0  0  0  0  0
   -4.4470   15.0490  -35.0240 H   0  0  0  0  0  0  0  0  0  0  0  0
   -5.6182   17.2175  -31.2619 H   0  0  0  0  0  0  0  0  0  0  0  0
   -4.2644   20.1767  -32.1681 H   0  0  0  0  0  0  0  0  0  0  0  0
  1  2  2  0
  2  3  1  0
  3  4  2  0
  3  5  1  0
  5  6  1  0
  6  7  1  0
  7  8  1  0
  7  9  2  0
  6 10  2  0
 10 11  1  0
 11 12  2  0
 12 13  1  0
 13 14  2  0
 14 15  1  0
 15 16  1  0
 16 17  2  0
 17 18  1  0
 18 19  1  0
 19 20  2  0
 19 21  1  0
 21 22  1  0
 22 23  1  0
 23 24  1  0
 24 25  2  0
 24 26  1  6
 24 27  1  0
 18 28  1  0
 14 29  1  0
 29 30  2  0
 30  5  1  0
 30 11  1  0
 28 15  2  0
  1 31  1  0
  1 32  1  0
  2 33  1  0
  8 34  1  0
 10 35  1  0
 12 36  1  0
 13 37  1  0
 16 38  1  0
 22 39  1  0
 22 40  1  0
 27 41  1  0
 28 42  1  0
 29 43  1  0
M  CHG  2   8  -1  26  -1
M  END
>  <UniqueID>  (38) 
38

>  <SMILES>  (38) 
C=CC(=O)n1c(C([NH-])=O)cc2ccc(-c3cnn(C(=O)OCO[P@@](=O)([O-])O)c3)cc21

>  <Energy>  (38) 
111.27620602793111

>  <Genealogy>  (38) 
C=CC(=O)n1c(C([NH-])=O)cc2ccc(-c3cnn(C(=O)OCOP(=O)([O-])O)c3)cc21 (protonated)
C=CC(=O)n1c(C([NH-])=O)cc2ccc(-c3cnn(C(=O)OCO[P@@](=O)([O-])O)c3)cc21 (chirality)
C=CC(=O)n1c(C([NH-])=O)cc2ccc(-c3cnn(C(=O)OCO[P@@](=O)([O-])O)c3)cc21 (3D coordinates assigned)
C=CC(=O)n1c(C([NH-])=O)cc2ccc(-c3cnn(C(=O)OCO[P@@](=O)([O-])O)c3)cc21 (optimized conformer: 111.27620602793111 kcal/mol)

>  <smiles>  (38) 
C=CC(=O)n1c(C(N)=O)cc2ccc(-c3cnn(C(=O)OCOP(=O)(O)O)c3)cc21

>  <score_type>  (38) 
oracle

>  <origin>  (38) 
adg

>  <m_score__min__energy>  (38) 
-10.039999999999999

>  <m_primary>  (38) 
energy

$$$$
38:0
     RDKit          3D

 40 41  0  0  0  0  0  0  0  0999 V2000
   -5.3880   18.0970  -34.5930 C   0  0  0  0  0  0  0  0  0  0  0  0
   -5.4020   17.2600  -33.4440 O   0  0  0  0  0  0  0  0  0  0  0  0
   -6.3230   17.4240  -32.4040 C   0  0  0  0  0  0  0  0  0  0  0  0
   -6.0470   17.0430  -31.2330 O   0  0  0  0  0  0  0  0  0  0  0  0
   -7.6650   18.0110  -32.6970 C   0  0  0  0  0  0  0  0  0  0  0  0
   -7.6790   19.4680  -32.3290 C   0  0  0  0  0  0  0  0  0  0  0  0
   -8.8930   20.2000  -32.3630 C   0  0  0  0  0  0  0  0  0  0  0  0
   -8.9260   21.5510  -31.9780 C   0  0  0  0  0  0  0  0  0  0  0  0
   -7.7340   22.1400  -31.5640 C   0  0  0  0  0  0  0  0  0  0  0  0
   -7.4870   23.4150  -31.1050 C   0  0  0  0  0  0  0  0  0  0  0  0
   -6.1240   23.4430  -30.8040 C   0  0  0  0  0  0  0  0  0  0  0  0
   -5.3950   24.6330  -30.3070 C   0  0  0  0  0  0  0  0  0  0  0  0
   -5.1220   24.8010  -28.9140 N   0  0  0  0  0  0  0  0  0  0  0  0
   -5.0160   25.5230  -31.1140 O   0  0  0  0  0  0  0  0  0  0  0  0
   -5.5560   22.2350  -31.0780 N   0  0  0  0  0  0  0  0  0  0  0  0
   -4.1950   21.8410  -30.8450 C   0  0  0  0  0  0  0  0  0  0  0  0
   -3.6400   21.0420  -31.6460 O   0  0  0  0  0  0  0  0  0  0  0  0
   -3.4460   22.3740  -29.6870 C   0  0  0  0  0  0  0  0  0  0  0  0
   -3.9970   22.3890  -28.5530 O   0  0  0  0  0  0  0  0  0  0  0  0
   -2.1030   22.8740  -29.8240 N   0  0  0  0  0  0  0  0  0  0  0  0
   -1.0560   22.0370  -30.4200 C   0  0  0  0  0  0  0  0  0  0  0  0
   -1.7940   24.2160  -29.4050 C   0  0  0  0  0  0  0  0  0  0  0  0
   -2.6750   25.1160  -29.4410 O   0  0  0  0  0  0  0  0  0  0  0  0
   -0.5230   24.5350  -28.9400 O   0  0  0  0  0  0  0  0  0  0  0  0
   -6.5520   21.4470  -31.5320 C   0  0  0  0  0  0  0  0  0  0  0  0
   -6.4930   20.0970  -31.8910 C   0  0  0  0  0  0  0  0  0  0  0  0
   -5.3704   19.1510  -34.2787 H   0  0  0  0  0  0  0  0  0  0  0  0
   -4.4934   17.8788  -35.1947 H   0  0  0  0  0  0  0  0  0  0  0  0
   -6.2894   17.9089  -35.1947 H   0  0  0  0  0  0  0  0  0  0  0  0
   -7.8833   17.9039  -33.7698 H   0  0  0  0  0  0  0  0  0  0  0  0
   -8.4277   17.4817  -32.1070 H   0  0  0  0  0  0  0  0  0  0  0  0
   -9.8181   19.7053  -32.6940 H   0  0  0  0  0  0  0  0  0  0  0  0
   -9.8639   22.1252  -32.0029 H   0  0  0  0  0  0  0  0  0  0  0  0
   -8.2103   24.2369  -30.9982 H   0  0  0  0  0  0  0  0  0  0  0  0
   -4.6380   25.6630  -28.5770 H   0  0  0  0  0  0  0  0  0  0  0  0
   -5.3560   24.0610  -28.2170 H   0  0  0  0  0  0  0  0  0  0  0  0
   -0.4652   21.5647  -29.6213 H   0  0  0  0  0  0  0  0  0  0  0  0
   -1.5197   21.2578  -31.0428 H   0  0  0  0  0  0  0  0  0  0  0  0
   -0.3980   22.6609  -31.0428 H   0  0  0  0  0  0  0  0  0  0  0  0
   -5.5467   19.5390  -31.8337 H   0  0  0  0  0  0  0  0  0  0  0  0
  1  2  1  0
  2  3  1  0
  3  4  2  0
  3  5  1  0
  5  6  1  0
  6  7  2  0
  7  8  1  0
  8  9  2  0
  9 10  1  0
 10 11  2  0
 11 12  1  0
 12 13  1  0
 12 14  2  0
 11 15  1  0
 15 16  1  0
 16 17  2  0
 16 18  1  0
 18 19  2  0
 18 20  1  0
 20 21  1  0
 20 22  1  0
 22 23  2  0
 22 24  1  0
 15 25  1  0
 25 26  2  0
 26  6  1  0
 25  9  1  0
  1 27  1  0
  1 28  1  0
  1 29  1  0
  5 30  1  0
  5 31  1  0
  7 32  1  0
  8 33  1  0
 10 34  1  0
 13 35  1  0
 13 36  1  0
 21 37  1  0
 21 38  1  0
 21 39  1  0
 26 40  1  0
M  CHG  1  24  -1
M  END
>  <UniqueID>  (39) 
39

>  <SMILES>  (39) 
COC(=O)Cc1ccc2cc(C(N)=O)n(C(=O)C(=O)N(C)C(=O)[O-])c2c1

>  <Energy>  (39) 
78.93515954889574

>  <Genealogy>  (39) 
COC(=O)Cc1ccc2cc(C(N)=O)n(C(=O)C(=O)N(C)C(=O)[O-])c2c1 (protonated)
COC(=O)Cc1ccc2cc(C(N)=O)n(C(=O)C(=O)N(C)C(=O)[O-])c2c1 (3D coordinates assigned)
COC(=O)Cc1ccc2cc(C(N)=O)n(C(=O)C(=O)N(C)C(=O)[O-])c2c1 (optimized conformer: 78.93515954889574 kcal/mol)

>  <smiles>  (39) 
COC(=O)Cc1ccc2cc(C(N)=O)n(C(=O)C(=O)N(C)C(=O)O)c2c1

>  <score_type>  (39) 
oracle

>  <origin>  (39) 
adg

>  <m_score__min__energy>  (39) 
-10.630000000000001

>  <m_primary>  (39) 
energy

$$$$
39:0
     RDKit          3D

 42 43  0  0  0  0  0  0  0  0999 V2000
   -3.9440   22.2630  -28.9800 C   0  0  0  0  0  0  0  0  0  0  0  0
   -3.0220   22.5750  -30.0810 N   0  0  1  0  0  0  0  0  0  0  0  0
   -1.8790   21.6810  -30.0500 C   0  0  0  0  0  0  0  0  0  0  0  0
   -2.0390   20.4680  -30.0950 O   0  0  0  0  0  0  0  0  0  0  0  0
   -0.4800   22.2240  -29.8980 C   0  0  0  0  0  0  0  0  0  0  0  0
   -0.2760   22.7490  -28.5420 N   0  0  0  0  0  0  0  0  0  0  0  0
    0.0280   24.1840  -28.5690 C   0  0  0  0  0  0  0  0  0  0  0  0
   -1.2380   24.9620  -28.7230 C   0  0  0  0  0  0  0  0  0  0  0  0
   -1.2370   26.0560  -29.3460 O   0  0  0  0  0  0  0  0  0  0  0  0
   -2.4310   24.4510  -28.2290 O   0  0  0  0  0  0  0  0  0  0  0  0
   -3.7250   22.5050  -31.3450 C   0  0  0  0  0  0  0  0  0  0  0  0
   -3.1170   22.1770  -32.4020 O   0  0  0  0  0  0  0  0  0  0  0  0
   -5.1480   22.6980  -31.3900 N   0  0  0  0  0  0  0  0  0  0  0  0
   -5.8520   23.8190  -31.0610 C   0  0  0  0  0  0  0  0  0  0  0  0
   -5.2800   25.1150  -30.6330 C   0  0  0  0  0  0  0  0  0  0  0  0
   -3.8710   25.3220  -30.5820 N   0  0  0  0  0  0  0  0  0  0  0  0
   -6.0500   26.0640  -30.3260 O   0  0  0  0  0  0  0  0  0  0  0  0
   -7.2190   23.5970  -31.2180 C   0  0  0  0  0  0  0  0  0  0  0  0
   -7.3320   22.2950  -31.6500 C   0  0  0  0  0  0  0  0  0  0  0  0
   -8.4640   21.5460  -31.9560 C   0  0  0  0  0  0  0  0  0  0  0  0
   -8.2820   20.2110  -32.3550 C   0  0  0  0  0  0  0  0  0  0  0  0
   -6.9830   19.6410  -32.4100 C   0  0  0  0  0  0  0  0  0  0  0  0
   -6.7940   18.2190  -32.8720 C   0  0  0  0  0  0  0  0  0  0  0  0
   -7.9670   17.5160  -32.6720 F   0  0  0  0  0  0  0  0  0  0  0  0
   -5.7740   17.6050  -32.1650 F   0  0  0  0  0  0  0  0  0  0  0  0
   -6.4700   18.1810  -34.2180 F   0  0  0  0  0  0  0  0  0  0  0  0
   -5.8590   20.4440  -32.1110 C   0  0  0  0  0  0  0  0  0  0  0  0
   -6.0690   21.7750  -31.7410 C   0  0  0  0  0  0  0  0  0  0  0  0
   -3.4381   22.4342  -28.0184 H   0  0  0  0  0  0  0  0  0  0  0  0
   -4.8299   22.9114  -29.0487 H   0  0  0  0  0  0  0  0  0  0  0  0
   -4.2542   21.2099  -29.0487 H   0  0  0  0  0  0  0  0  0  0  0  0
   -2.6890   23.5580  -29.9390 H   0  0  0  0  0  0  0  0  0  0  0  0
    0.2437   21.4173  -30.0864 H   0  0  0  0  0  0  0  0  0  0  0  0
   -0.3351   23.0404  -30.6208 H   0  0  0  0  0  0  0  0  0  0  0  0
   -1.1760   22.6260  -28.0180 H   0  0  0  0  0  0  0  0  0  0  0  0
    0.5221   24.4712  -27.6291 H   0  0  0  0  0  0  0  0  0  0  0  0
    0.6948   24.4001  -29.4167 H   0  0  0  0  0  0  0  0  0  0  0  0
   -3.4110   25.6760  -29.7140 H   0  0  0  0  0  0  0  0  0  0  0  0
   -8.0352   24.3114  -31.0353 H   0  0  0  0  0  0  0  0  0  0  0  0
   -9.4702   21.9853  -31.8877 H   0  0  0  0  0  0  0  0  0  0  0  0
   -9.1557   19.6009  -32.6277 H   0  0  0  0  0  0  0  0  0  0  0  0
   -4.8414   20.0303  -32.1683 H   0  0  0  0  0  0  0  0  0  0  0  0
  1  2  1  0
  2  3  1  0
  3  4  2  0
  3  5  1  0
  5  6  1  0
  6  7  1  0
  7  8  1  0
  8  9  2  0
  8 10  1  0
  2 11  1  0
 11 12  2  0
 11 13  1  0
 13 14  1  0
 14 15  1  0
 15 16  1  0
 15 17  2  0
 14 18  2  0
 18 19  1  0
 19 20  2  0
 20 21  1  0
 21 22  2  0
 22 23  1  0
 23 24  1  0
 23 25  1  0
 23 26  1  0
 22 27  1  0
 27 28  2  0
 28 13  1  0
 28 19  1  0
  1 29  1  0
  1 30  1  0
  1 31  1  0
  2 32  1  1
  5 33  1  0
  5 34  1  0
  6 35  1  0
  7 36  1  0
  7 37  1  0
 16 38  1  0
 18 39  1  0
 20 40  1  0
 21 41  1  0
 27 42  1  0
M  CHG  3   2   1  10  -1  16  -1
M  END
>  <UniqueID>  (40) 
40

>  <SMILES>  (40) 
C[NH+](C(=O)CNCC(=O)[O-])C(=O)n1c(C([NH-])=O)cc2ccc(C(F)(F)F)cc21

>  <Energy>  (40) 
81.32451851168166

>  <Genealogy>  (40) 
C[NH+](C(=O)CNCC(=O)[O-])C(=O)n1c(C([NH-])=O)cc2ccc(C(F)(F)F)cc21 (protonated)
C[NH+](C(=O)CNCC(=O)[O-])C(=O)n1c(C([NH-])=O)cc2ccc(C(F)(F)F)cc21 (3D coordinates assigned)
C[NH+](C(=O)CNCC(=O)[O-])C(=O)n1c(C([NH-])=O)cc2ccc(C(F)(F)F)cc21 (optimized conformer: 81.32451851168166 kcal/mol)

>  <smiles>  (40) 
CN(C(=O)CNCC(=O)O)C(=O)n1c(C(N)=O)cc2ccc(C(F)(F)F)cc21

>  <score_type>  (40) 
oracle

>  <origin>  (40) 
adg

>  <m_score__min__energy>  (40) 
-11.949999999999999

>  <m_primary>  (40) 
energy

$$$$
40:0
     RDKit          3D

 34 36  0  0  0  0  0  0  0  0999 V2000
   -3.8820   25.6270  -30.8370 N   0  0  0  0  0  0  0  0  0  0  0  0
   -5.2370   25.3310  -30.5090 C   0  0  0  0  0  0  0  0  0  0  0  0
   -5.8950   26.1460  -29.8100 O   0  0  0  0  0  0  0  0  0  0  0  0
   -5.8600   24.0590  -30.9290 C   0  0  0  0  0  0  0  0  0  0  0  0
   -7.2260   23.9160  -31.1620 C   0  0  0  0  0  0  0  0  0  0  0  0
   -7.4110   22.5820  -31.4430 C   0  0  0  0  0  0  0  0  0  0  0  0
   -8.5750   21.8870  -31.7520 C   0  0  0  0  0  0  0  0  0  0  0  0
   -8.4700   20.5120  -32.0220 C   0  0  0  0  0  0  0  0  0  0  0  0
   -7.2080   19.8640  -32.0050 C   0  0  0  0  0  0  0  0  0  0  0  0
   -7.1130   18.3800  -32.2600 C   0  0  0  0  0  0  0  0  0  0  0  0
   -8.3460   17.8000  -32.0310 F   0  0  0  0  0  0  0  0  0  0  0  0
   -6.7350   18.1330  -33.5680 F   0  0  0  0  0  0  0  0  0  0  0  0
   -6.1780   17.7990  -31.4220 F   0  0  0  0  0  0  0  0  0  0  0  0
   -6.0500   20.6020  -31.6630 C   0  0  0  0  0  0  0  0  0  0  0  0
   -6.1880   21.9660  -31.3800 C   0  0  0  0  0  0  0  0  0  0  0  0
   -5.2230   22.8610  -31.0650 N   0  0  0  0  0  0  0  0  0  0  0  0
   -3.8100   22.6080  -31.0060 C   0  0  0  0  0  0  0  0  0  0  0  0
   -3.1550   22.4550  -32.0720 O   0  0  0  0  0  0  0  0  0  0  0  0
   -3.1740   22.5480  -29.7580 O   0  0  0  0  0  0  0  0  0  0  0  0
   -2.4220   23.5820  -29.1860 C   0  0  0  0  0  0  0  0  0  0  0  0
   -1.3460   23.9760  -29.7090 O   0  0  0  0  0  0  0  0  0  0  0  0
   -2.8990   24.2180  -27.9540 C   0  0  0  0  0  0  0  0  0  0  0  0
   -4.1920   24.2180  -27.4760 C   0  0  0  0  0  0  0  0  0  0  0  0
   -4.1980   24.9060  -26.3230 N   0  0  0  0  0  0  0  0  0  0  0  0
   -2.9220   25.2980  -26.1390 C   0  0  0  0  0  0  0  0  0  0  0  0
   -2.1420   24.8860  -27.1140 O   0  0  0  0  0  0  0  0  0  0  0  0
   -3.1070   24.9860  -30.5520 H   0  0  0  0  0  0  0  0  0  0  0  0
   -7.9939   24.7029  -31.1284 H   0  0  0  0  0  0  0  0  0  0  0  0
   -9.5485   22.3981  -31.7841 H   0  0  0  0  0  0  0  0  0  0  0  0
   -9.3764   19.9316  -32.2491 H   0  0  0  0  0  0  0  0  0  0  0  0
   -5.0645   20.1152  -31.6205 H   0  0  0  0  0  0  0  0  0  0  0  0
   -5.0611   23.7410  -27.9526 H   0  0  0  0  0  0  0  0  0  0  0  0
   -5.0160   25.0970  -25.7020 H   0  0  0  0  0  0  0  0  0  0  0  0
   -2.5755   25.8898  -25.2789 H   0  0  0  0  0  0  0  0  0  0  0  0
  1  2  1  0
  2  3  2  0
  2  4  1  0
  4  5  2  0
  5  6  1  0
  6  7  2  0
  7  8  1  0
  8  9  2  0
  9 10  1  0
 10 11  1  0
 10 12  1  0
 10 13  1  0
  9 14  1  0
 14 15  2  0
 15 16  1  0
 16 17  1  0
 17 18  2  0
 17 19  1  0
 19 20  1  0
 20 21  2  0
 20 22  1  0
 22 23  2  0
 23 24  1  0
 24 25  2  0
 25 26  1  0
 16  4  1  0
 26 22  1  0
 15  6  1  0
  1 27  1  0
  5 28  1  0
  7 29  1  0
  8 30  1  0
 14 31  1  0
 23 32  1  0
 24 33  1  0
 25 34  1  0
M  CHG  2   1  -1  24   1
M  END
>  <UniqueID>  (41) 
41

>  <SMILES>  (41) 
[NH-]C(=O)c1cc2ccc(C(F)(F)F)cc2n1C(=O)OC(=O)c1c[nH+]co1

>  <Energy>  (41) 
106.76822594336106

>  <Genealogy>  (41) 
[NH-]C(=O)c1cc2ccc(C(F)(F)F)cc2n1C(=O)OC(=O)c1c[nH+]co1 (protonated)
[NH-]C(=O)c1cc2ccc(C(F)(F)F)cc2n1C(=O)OC(=O)c1c[nH+]co1 (3D coordinates assigned)
[NH-]C(=O)c1cc2ccc(C(F)(F)F)cc2n1C(=O)OC(=O)c1c[nH+]co1 (optimized conformer: 106.76822594336106 kcal/mol)

>  <smiles>  (41) 
NC(=O)c1cc2ccc(C(F)(F)F)cc2n1C(=O)OC(=O)c1cnco1

>  <score_type>  (41) 
oracle

>  <origin>  (41) 
adg

>  <m_score__min__energy>  (41) 
-9.0399999999999991

>  <m_primary>  (41) 
energy

$$$$
41:0
     RDKit          3D

 27 28  0  0  0  0  0  0  0  0999 V2000
   -7.2430   17.2750  -33.2240 C   0  0  0  0  0  0  0  0  0  0  0  0
   -7.3190   18.3530  -32.8210 N   0  0  0  0  0  0  0  0  0  0  0  0
   -7.4080   19.6360  -32.3250 C   0  0  0  0  0  0  0  0  0  0  0  0
   -8.6360   20.1620  -32.0330 C   0  0  0  0  0  0  0  0  0  0  0  0
   -8.6910   21.4410  -31.5400 C   0  0  0  0  0  0  0  0  0  0  0  0
   -7.5330   22.1630  -31.3500 C   0  0  0  0  0  0  0  0  0  0  0  0
   -7.3340   23.4270  -30.8830 C   0  0  0  0  0  0  0  0  0  0  0  0
   -5.9540   23.7200  -30.8720 C   0  0  0  0  0  0  0  0  0  0  0  0
   -5.4890   25.0060  -30.4150 C   0  0  0  0  0  0  0  0  0  0  0  0
   -6.1820   25.6750  -29.3140 N   0  0  0  0  0  0  0  0  0  0  0  0
   -4.5270   25.6760  -30.8430 O   0  0  0  0  0  0  0  0  0  0  0  0
   -5.3270   22.6150  -31.3400 N   0  0  0  0  0  0  0  0  0  0  0  0
   -3.9430   22.5000  -31.4860 C   0  0  0  0  0  0  0  0  0  0  0  0
   -3.2440   23.4890  -31.0360 O   0  0  0  0  0  0  0  0  0  0  0  0
   -3.1210   21.4700  -32.0540 C   0  0  0  0  0  0  0  0  0  0  0  0
   -3.2600   21.3330  -33.4080 C   0  0  0  0  0  0  0  0  0  0  0  0
   -6.2710   21.6680  -31.6320 C   0  0  0  0  0  0  0  0  0  0  0  0
   -6.2440   20.3830  -32.1240 C   0  0  0  0  0  0  0  0  0  0  0  0
   -9.5538   19.5761  -32.1890 H   0  0  0  0  0  0  0  0  0  0  0  0
   -9.6639   21.8921  -31.2953 H   0  0  0  0  0  0  0  0  0  0  0  0
   -8.1296   24.1157  -30.5626 H   0  0  0  0  0  0  0  0  0  0  0  0
   -6.5010   25.1370  -28.4850 H   0  0  0  0  0  0  0  0  0  0  0  0
   -6.3640   26.6960  -29.3450 H   0  0  0  0  0  0  0  0  0  0  0  0
   -2.4407   20.8470  -31.4549 H   0  0  0  0  0  0  0  0  0  0  0  0
   -2.6760   20.5722  -33.9467 H   0  0  0  0  0  0  0  0  0  0  0  0
   -3.9558   21.9836  -33.9581 H   0  0  0  0  0  0  0  0  0  0  0  0
   -5.2725   19.9281  -32.3675 H   0  0  0  0  0  0  0  0  0  0  0  0
  1  2  3  0
  2  3  1  0
  3  4  2  0
  4  5  1  0
  5  6  2  0
  6  7  1  0
  7  8  2  0
  8  9  1  0
  9 10  1  0
  9 11  2  0
  8 12  1  0
 12 13  1  0
 13 14  2  0
 13 15  1  0
 15 16  2  0
 12 17  1  0
 17 18  2  0
 18  3  1  0
 17  6  1  0
  4 19  1  0
  5 20  1  0
  7 21  1  0
 10 22  1  0
 10 23  1  0
 15 24  1  0
 16 25  1  0
 16 26  1  0
 18 27  1  0
M  CHG  2   1  -1   2   1
M  END
>  <smiles>  (42) 
[C-]#[N+]c1ccc2cc(C(N)=O)n(C(=O)C=C)c2c1

>  <score_type>  (42) 
oracle

>  <origin>  (42) 
adg

>  <m_score__min__energy>  (42) 
-8.4100000000000001

>  <m_primary>  (42) 
energy

$$$$
42:0
     RDKit          3D

 49 51  0  0  0  0  0  0  0  0999 V2000
   -0.7600   17.6560  -32.1820 C   0  0  0  0  0  0  0  0  0  0  0  0
   -1.4080   18.9730  -32.2810 N   0  0  0  0  0  0  0  0  0  0  0  0
   -0.7750   19.9500  -31.3810 C   0  0  0  0  0  0  0  0  0  0  0  0
   -0.7100   21.2690  -32.1220 C   0  0  0  0  0  0  0  0  0  0  0  0
   -0.6050   20.8630  -33.5720 C   0  0  0  0  0  0  0  0  0  0  0  0
   -1.3380   19.5240  -33.6520 C   0  0  2  0  0  0  0  0  0  0  0  0
   -2.7640   19.7090  -34.2010 C   0  0  0  0  0  0  0  0  0  0  0  0
   -3.7490   19.1500  -33.2750 N   0  0  0  0  0  0  0  0  0  0  0  0
   -4.9190   18.4480  -33.7190 C   0  0  0  0  0  0  0  0  0  0  0  0
   -5.1560   18.3150  -34.9510 O   0  0  0  0  0  0  0  0  0  0  0  0
   -5.8980   17.9080  -32.7210 C   0  0  0  0  0  0  0  0  0  0  0  0
   -7.2900   18.4980  -32.9580 C   0  0  0  0  0  0  0  0  0  0  0  0
   -7.3700   19.8970  -32.4110 C   0  0  0  0  0  0  0  0  0  0  0  0
   -8.6110   20.5840  -32.3920 C   0  0  0  0  0  0  0  0  0  0  0  0
   -8.6870   21.9090  -31.9330 C   0  0  0  0  0  0  0  0  0  0  0  0
   -7.5090   22.5210  -31.5070 C   0  0  0  0  0  0  0  0  0  0  0  0
   -7.2920   23.8070  -31.0670 C   0  0  0  0  0  0  0  0  0  0  0  0
   -5.9220   23.8860  -30.8210 C   0  0  0  0  0  0  0  0  0  0  0  0
   -5.2640   25.0910  -30.2740 C   0  0  0  0  0  0  0  0  0  0  0  0
   -4.0540   25.5900  -30.8420 N   0  0  0  0  0  0  0  0  0  0  0  0
   -5.7570   25.6670  -29.2680 O   0  0  0  0  0  0  0  0  0  0  0  0
   -5.3140   22.6980  -31.1000 N   0  0  0  0  0  0  0  0  0  0  0  0
   -3.9070   22.4000  -31.0840 C   0  0  0  0  0  0  0  0  0  0  0  0
   -3.0600   23.3250  -31.2180 O   0  0  0  0  0  0  0  0  0  0  0  0
   -3.4680   21.0890  -30.9500 O   0  0  0  0  0  0  0  0  0  0  0  0
   -6.3000   21.8710  -31.5150 C   0  0  0  0  0  0  0  0  0  0  0  0
   -6.1930   20.5540  -31.9790 C   0  0  0  0  0  0  0  0  0  0  0  0
   -0.6293   17.3904  -31.1226 H   0  0  0  0  0  0  0  0  0  0  0  0
   -1.3890   16.8999  -32.6747 H   0  0  0  0  0  0  0  0  0  0  0  0
    0.2228   17.6929  -32.6747 H   0  0  0  0  0  0  0  0  0  0  0  0
   -1.3743   20.0618  -30.4654 H   0  0  0  0  0  0  0  0  0  0  0  0
    0.2322   19.6164  -31.0907 H   0  0  0  0  0  0  0  0  0  0  0  0
   -1.6193   21.8624  -31.9461 H   0  0  0  0  0  0  0  0  0  0  0  0
    0.1300   21.8995  -31.7950 H   0  0  0  0  0  0  0  0  0  0  0  0
   -1.0878   21.6093  -34.2201 H   0  0  0  0  0  0  0  0  0  0  0  0
    0.4393   20.7875  -33.9093 H   0  0  0  0  0  0  0  0  0  0  0  0
   -0.7999   18.8450  -34.3297 H   0  0  0  0  0  0  0  0  0  0  0  0
   -2.9630   20.7824  -34.3358 H   0  0  0  0  0  0  0  0  0  0  0  0
   -2.8442   19.1832  -35.1639 H   0  0  0  0  0  0  0  0  0  0  0  0
   -3.6360   19.3520  -32.2550 H   0  0  0  0  0  0  0  0  0  0  0  0
   -5.9478   16.8135  -32.8192 H   0  0  0  0  0  0  0  0  0  0  0  0
   -5.5631   18.1846  -31.7104 H   0  0  0  0  0  0  0  0  0  0  0  0
   -7.4947   18.5197  -34.0386 H   0  0  0  0  0  0  0  0  0  0  0  0
   -8.0338   17.8720  -32.4433 H   0  0  0  0  0  0  0  0  0  0  0  0
   -9.5217   20.0744  -32.7398 H   0  0  0  0  0  0  0  0  0  0  0  0
   -9.6461   22.4472  -31.9103 H   0  0  0  0  0  0  0  0  0  0  0  0
   -8.0401   24.6029  -30.9371 H   0  0  0  0  0  0  0  0  0  0  0  0
   -3.1240   25.2870  -30.4740 H   0  0  0  0  0  0  0  0  0  0  0  0
   -5.2192   20.0432  -32.0070 H   0  0  0  0  0  0  0  0  0  0  0  0
  1  2  1  0
  2  3  1  0
  3  4  1  0
  4  5  1  0
  5  6  1  0
  6  7  1  0
  7  8  1  0
  8  9  1  0
  9 10  2  0
  9 11  1  0
 11 12  1  0
 12 13  1  0
 13 14  2  0
 14 15  1  0
 15 16  2  0
 16 17  1  0
 17 18  2  0
 18 19  1  0
 19 20  1  0
 19 21  2  0
 18 22  1  0
 22 23  1  0
 23 24  2  0
 23 25  1  0
 22 26  1  0
 26 27  2  0
  6  2  1  0
 27 13  1  0
 26 16  1  0
  1 28  1  0
  1 29  1  0
  1 30  1  0
  3 31  1  0
  3 32  1  0
  4 33  1  0
  4 34  1  0
  5 35  1  0
  5 36  1  0
  6 37  1  6
  7 38  1  0
  7 39  1  0
  8 40  1  0
 11 41  1  0
 11 42  1  0
 12 43  1  0
 12 44  1  0
 14 45  1  0
 15 46  1  0
 17 47  1  0
 20 48  1  0
 27 49  1  0
M  CHG  2  20  -1  25  -1
M  END
>  <UniqueID>  (43) 
42

>  <SMILES>  (43) 
CN1CCC[C@@H]1CNC(=O)CCc1ccc2cc(C([NH-])=O)n(C(=O)[O-])c2c1

>  <Energy>  (43) 
83.52570014204156

>  <Genealogy>  (43) 
CN1CCC[C@@H]1CNC(=O)CCc1ccc2cc(C([NH-])=O)n(C(=O)[O-])c2c1 (protonated)
CN1CCC[C@@H]1CNC(=O)CCc1ccc2cc(C([NH-])=O)n(C(=O)[O-])c2c1 (3D coordinates assigned)
CN1CCC[C@@H]1CNC(=O)CCc1ccc2cc(C([NH-])=O)n(C(=O)[O-])c2c1 (nonaromatic ring conformer: 83.52570014204156 kcal/mol)

>  <smiles>  (43) 
CN1CCC[C@@H]1CNC(=O)CCc1ccc2cc(C(N)=O)n(C(=O)O)c2c1

>  <score_type>  (43) 
oracle

>  <origin>  (43) 
adg

>  <m_score__min__energy>  (43) 
-12.15

>  <m_primary>  (43) 
energy

$$$$
43:0
     RDKit          3D

 59 60  0  0  0  0  0  0  0  0999 V2000
   -2.7860   19.0410  -32.9980 C   0  0  0  0  0  0  0  0  0  0  0  0
   -3.9720   18.7910  -33.7420 O   0  0  0  0  0  0  0  0  0  0  0  0
   -5.0180   18.0030  -33.2500 C   0  0  0  0  0  0  0  0  0  0  0  0
   -4.7880   17.0720  -32.4300 O   0  0  0  0  0  0  0  0  0  0  0  0
   -6.4310   18.2770  -33.6920 C   0  0  2  0  0  0  0  0  0  0  0  0
   -6.4560   19.4180  -34.6150 N   0  0  0  0  0  0  0  0  0  0  0  0
   -7.3470   18.5440  -32.4790 C   0  0  0  0  0  0  0  0  0  0  0  0
   -7.3320   19.9970  -32.0800 C   0  0  0  0  0  0  0  0  0  0  0  0
   -8.5420   20.7350  -32.0200 C   0  0  0  0  0  0  0  0  0  0  0  0
   -8.5320   22.1030  -31.6970 C   0  0  0  0  0  0  0  0  0  0  0  0
   -7.3030   22.7030  -31.4390 C   0  0  0  0  0  0  0  0  0  0  0  0
   -7.0010   24.0110  -31.1360 C   0  0  0  0  0  0  0  0  0  0  0  0
   -5.6150   24.0490  -31.0040 C   0  0  0  0  0  0  0  0  0  0  0  0
   -4.8650   25.2570  -30.6010 C   0  0  0  0  0  0  0  0  0  0  0  0
   -3.4960   25.1720  -30.2130 N   0  0  0  0  0  0  0  0  0  0  0  0
   -5.4510   26.3710  -30.5580 O   0  0  0  0  0  0  0  0  0  0  0  0
   -5.0810   22.8150  -31.2250 N   0  0  0  0  0  0  0  0  0  0  0  0
   -3.6920   22.4530  -31.2860 C   0  0  0  0  0  0  0  0  0  0  0  0
   -3.2170   21.9930  -32.3590 O   0  0  0  0  0  0  0  0  0  0  0  0
   -2.8530   22.6410  -30.1360 N   0  0  0  0  0  0  0  0  0  0  0  0
   -1.4430   22.3560  -30.1220 C   0  0  0  0  0  0  0  0  0  0  0  0
   -0.8170   22.2950  -31.2170 O   0  0  0  0  0  0  0  0  0  0  0  0
   -0.7220   22.1640  -28.8800 N   0  0  0  0  0  0  0  0  0  0  0  0
   -0.2480   20.8110  -28.5610 C   0  0  0  0  0  0  0  0  0  0  0  0
   -0.6990   23.1950  -27.8240 C   0  0  0  0  0  0  0  0  0  0  0  0
   -1.0940   24.6050  -28.3390 C   0  0  0  0  0  0  0  0  0  0  0  0
   -2.1200   25.3160  -27.5440 N   0  0  0  0  0  0  0  0  0  0  0  0
   -3.2530   24.4700  -27.1460 C   0  0  0  0  0  0  0  0  0  0  0  0
   -1.5680   26.0720  -26.4100 C   0  0  0  0  0  0  0  0  0  0  0  0
   -6.1260   22.0010  -31.4840 C   0  0  0  0  0  0  0  0  0  0  0  0
   -6.1030   20.6440  -31.8180 C   0  0  0  0  0  0  0  0  0  0  0  0
   -3.0111   18.9935  -31.9223 H   0  0  0  0  0  0  0  0  0  0  0  0
   -2.0295   18.2826  -33.2481 H   0  0  0  0  0  0  0  0  0  0  0  0
   -2.4000   20.0402  -33.2481 H   0  0  0  0  0  0  0  0  0  0  0  0
   -6.8110   17.3866  -34.2143 H   0  0  0  0  0  0  0  0  0  0  0  0
   -5.5950   19.9990  -34.4840 H   0  0  0  0  0  0  0  0  0  0  0  0
   -7.3010   20.0130  -34.4450 H   0  0  0  0  0  0  0  0  0  0  0  0
   -6.4720   19.0750  -35.6030 H   0  0  0  0  0  0  0  0  0  0  0  0
   -8.3763   18.2561  -32.7391 H   0  0  0  0  0  0  0  0  0  0  0  0
   -6.9749   17.9510  -31.6305 H   0  0  0  0  0  0  0  0  0  0  0  0
   -9.4977   20.2317  -32.2283 H   0  0  0  0  0  0  0  0  0  0  0  0
   -9.4665   22.6813  -31.6496 H   0  0  0  0  0  0  0  0  0  0  0  0
   -7.7048   24.8487  -31.0222 H   0  0  0  0  0  0  0  0  0  0  0  0
   -3.1450   25.6730  -29.3660 H   0  0  0  0  0  0  0  0  0  0  0  0
   -3.2940   23.0710  -29.2980 H   0  0  0  0  0  0  0  0  0  0  0  0
   -0.2041   20.6858  -27.4690 H   0  0  0  0  0  0  0  0  0  0  0  0
   -0.9401   20.0700  -28.9875 H   0  0  0  0  0  0  0  0  0  0  0  0
    0.7552   20.6639  -28.9875 H   0  0  0  0  0  0  0  0  0  0  0  0
   -1.4045   22.9012  -27.0328 H   0  0  0  0  0  0  0  0  0  0  0  0
    0.3342   23.2598  -27.4522 H   0  0  0  0  0  0  0  0  0  0  0  0
   -0.1864   25.2263  -28.3519 H   0  0  0  0  0  0  0  0  0  0  0  0
   -1.5412   24.4466  -29.3314 H   0  0  0  0  0  0  0  0  0  0  0  0
   -3.3107   24.4269  -26.0484 H   0  0  0  0  0  0  0  0  0  0  0  0
   -4.1857   24.8944  -27.5458 H   0  0  0  0  0  0  0  0  0  0  0  0
   -3.1110   23.4551  -27.5458 H   0  0  0  0  0  0  0  0  0  0  0  0
   -1.9020   25.6146  -25.4670 H   0  0  0  0  0  0  0  0  0  0  0  0
   -0.4692   26.0539  -26.4573 H   0  0  0  0  0  0  0  0  0  0  0  0
   -1.9199   27.1131  -26.4573 H   0  0  0  0  0  0  0  0  0  0  0  0
   -5.1524   20.0935  -31.8755 H   0  0  0  0  0  0  0  0  0  0  0  0
  1  2  1  0
  2  3  1  0
  3  4  2  0
  3  5  1  0
  5  6  1  0
  5  7  1  0
  7  8  1  0
  8  9  2  0
  9 10  1  0
 10 11  2  0
 11 12  1  0
 12 13  2  0
 13 14  1  0
 14 15  1  0
 14 16  2  0
 13 17  1  0
 17 18  1  0
 18 19  2  0
 18 20  1  0
 20 21  1  0
 21 22  2  0
 21 23  1  0
 23 24  1  0
 23 25  1  0
 25 26  1  0
 26 27  1  0
 27 28  1  0
 27 29  1  0
 17 30  1  0
 30 31  2  0
 31  8  1  0
 30 11  1  0
  1 32  1  0
  1 33  1  0
  1 34  1  0
  5 35  1  6
  6 36  1  0
  6 37  1  0
  6 38  1  0
  7 39  1  0
  7 40  1  0
  9 41  1  0
 10 42  1  0
 12 43  1  0
 15 44  1  0
 20 45  1  0
 24 46  1  0
 24 47  1  0
 24 48  1  0
 25 49  1  0
 25 50  1  0
 26 51  1  0
 26 52  1  0
 28 53  1  0
 28 54  1  0
 28 55  1  0
 29 56  1  0
 29 57  1  0
 29 58  1  0
 31 59  1  0
M  CHG  2   6   1  15  -1
M  END
>  <UniqueID>  (44) 
43

>  <SMILES>  (44) 
COC(=O)[C@H]([NH3+])Cc1ccc2cc(C([NH-])=O)n(C(=O)NC(=O)N(C)CCN(C)C)c2c1

>  <Energy>  (44) 
96.07123310682636

>  <Genealogy>  (44) 
COC(=O)C([NH3+])Cc1ccc2cc(C([NH-])=O)n(C(=O)NC(=O)N(C)CCN(C)C)c2c1 (protonated)
COC(=O)[C@H]([NH3+])Cc1ccc2cc(C([NH-])=O)n(C(=O)NC(=O)N(C)CCN(C)C)c2c1 (chirality)
COC(=O)[C@H]([NH3+])Cc1ccc2cc(C([NH-])=O)n(C(=O)NC(=O)N(C)CCN(C)C)c2c1 (3D coordinates assigned)
COC(=O)[C@H]([NH3+])Cc1ccc2cc(C([NH-])=O)n(C(=O)NC(=O)N(C)CCN(C)C)c2c1 (optimized conformer: 96.07123310682636 kcal/mol)

>  <smiles>  (44) 
COC(=O)C(N)Cc1ccc2cc(C(N)=O)n(C(=O)NC(=O)N(C)CCN(C)C)c2c1

>  <score_type>  (44) 
oracle

>  <origin>  (44) 
adg

>  <m_score__min__energy>  (44) 
-10.59

>  <m_primary>  (44) 
energy

$$$$
44:0
     RDKit          3D

 41 42  0  0  0  0  0  0  0  0999 V2000
    0.1860   22.6290  -28.1280 C   0  0  0  0  0  0  0  0  0  0  0  0
   -0.6780   23.3830  -28.8170 C   0  0  0  0  0  0  0  0  0  0  0  0
   -0.8640   24.8240  -28.4320 C   0  0  0  0  0  0  0  0  0  0  0  0
   -1.3530   22.8590  -30.0300 C   0  0  0  0  0  0  0  0  0  0  0  0
   -0.6610   22.2870  -30.9160 O   0  0  0  0  0  0  0  0  0  0  0  0
   -2.7690   23.0210  -30.2170 N   0  0  0  0  0  0  0  0  0  0  0  0
   -3.5350   22.3060  -31.2000 C   0  0  0  0  0  0  0  0  0  0  0  0
   -2.9610   21.5660  -32.0450 O   0  0  0  0  0  0  0  0  0  0  0  0
   -4.9640   22.4370  -31.2330 N   0  0  0  0  0  0  0  0  0  0  0  0
   -5.7060   23.5120  -30.8480 C   0  0  0  0  0  0  0  0  0  0  0  0
   -5.1910   24.7230  -30.1770 C   0  0  0  0  0  0  0  0  0  0  0  0
   -5.7820   25.2160  -28.9740 N   0  0  0  0  0  0  0  0  0  0  0  0
   -4.2400   25.3620  -30.7010 O   0  0  0  0  0  0  0  0  0  0  0  0
   -7.0510   23.3130  -31.1490 C   0  0  0  0  0  0  0  0  0  0  0  0
   -7.1120   22.0670  -31.7320 C   0  0  0  0  0  0  0  0  0  0  0  0
   -8.1990   21.3740  -32.2480 C   0  0  0  0  0  0  0  0  0  0  0  0
   -7.9650   20.1210  -32.8380 C   0  0  0  0  0  0  0  0  0  0  0  0
   -6.6490   19.5820  -32.9200 C   0  0  0  0  0  0  0  0  0  0  0  0
   -6.4140   18.2930  -33.5420 N   0  0  0  0  0  0  0  0  0  0  0  0
   -5.7290   18.2030  -34.8380 C   0  0  0  0  0  0  0  0  0  0  0  0
   -6.8640   17.0570  -32.8890 C   0  0  0  0  0  0  0  0  0  0  0  0
   -5.5710   20.3320  -32.3860 C   0  0  0  0  0  0  0  0  0  0  0  0
   -5.8400   21.5620  -31.7760 C   0  0  0  0  0  0  0  0  0  0  0  0
    0.3320   21.5729  -28.3989 H   0  0  0  0  0  0  0  0  0  0  0  0
    0.7504   23.0651  -27.2906 H   0  0  0  0  0  0  0  0  0  0  0  0
   -0.8754   24.9121  -27.3356 H   0  0  0  0  0  0  0  0  0  0  0  0
   -0.0356   25.4222  -28.8393 H   0  0  0  0  0  0  0  0  0  0  0  0
   -1.8171   25.1923  -28.8393 H   0  0  0  0  0  0  0  0  0  0  0  0
   -3.2760   23.7210  -29.6300 H   0  0  0  0  0  0  0  0  0  0  0  0
   -6.6810   24.8280  -28.6140 H   0  0  0  0  0  0  0  0  0  0  0  0
   -5.3690   26.0420  -28.4880 H   0  0  0  0  0  0  0  0  0  0  0  0
   -7.8863   24.0036  -30.9612 H   0  0  0  0  0  0  0  0  0  0  0  0
   -9.2142   21.7942  -32.1962 H   0  0  0  0  0  0  0  0  0  0  0  0
   -8.8113   19.5469  -33.2431 H   0  0  0  0  0  0  0  0  0  0  0  0
   -4.6506   18.0613  -34.6737 H   0  0  0  0  0  0  0  0  0  0  0  0
   -6.1287   17.3496  -35.4055 H   0  0  0  0  0  0  0  0  0  0  0  0
   -5.8947   19.1306  -35.4055 H   0  0  0  0  0  0  0  0  0  0  0  0
   -6.8186   17.1817  -31.7970 H   0  0  0  0  0  0  0  0  0  0  0  0
   -7.8992   16.8390  -33.1904 H   0  0  0  0  0  0  0  0  0  0  0  0
   -6.2113   16.2245  -33.1904 H   0  0  0  0  0  0  0  0  0  0  0  0
   -4.5403   19.9532  -32.4502 H   0  0  0  0  0  0  0  0  0  0  0  0
  1  2  2  0
  2  3  1  0
  2  4  1  0
  4  5  2  0
  4  6  1  0
  6  7  1  0
  7  8  2  0
  7  9  1  0
  9 10  1  0
 10 11  1  0
 11 12  1  0
 11 13  2  0
 10 14  2  0
 14 15  1  0
 15 16  2  0
 16 17  1  0
 17 18  2  0
 18 19  1  0
 19 20  1  0
 19 21  1  0
 18 22  1  0
 22 23  2  0
 23  9  1  0
 23 15  1  0
  1 24  1  0
  1 25  1  0
  3 26  1  0
  3 27  1  0
  3 28  1  0
  6 29  1  0
 12 30  1  0
 12 31  1  0
 14 32  1  0
 16 33  1  0
 17 34  1  0
 20 35  1  0
 20 36  1  0
 20 37  1  0
 21 38  1  0
 21 39  1  0
 21 40  1  0
 22 41  1  0
M  END
>  <UniqueID>  (45) 
44

>  <SMILES>  (45) 
C=C(C)C(=O)NC(=O)n1c(C(N)=O)cc2ccc(N(C)C)cc21

>  <Energy>  (45) 
81.79709922755994

>  <Genealogy>  (45) 
C=C(C)C(=O)NC(=O)n1c(C(N)=O)cc2ccc(N(C)C)cc21 (3D coordinates assigned)
C=C(C)C(=O)NC(=O)n1c(C(N)=O)cc2ccc(N(C)C)cc21 (optimized conformer: 81.79709922755994 kcal/mol)

>  <smiles>  (45) 
C=C(C)C(=O)NC(=O)n1c(C(N)=O)cc2ccc(N(C)C)cc21

>  <score_type>  (45) 
oracle

>  <origin>  (45) 
adg

>  <m_score__min__energy>  (45) 
-9.0399999999999991

>  <m_primary>  (45) 
energy

$$$$
45:0
     RDKit          3D

 47 49  0  0  0  0  0  0  0  0999 V2000
   -0.8350   26.6500  -27.7510 C   0  0  0  0  0  0  0  0  0  0  0  0
   -1.2230   26.0780  -28.9800 O   0  0  0  0  0  0  0  0  0  0  0  0
   -1.0290   24.6800  -28.9270 C   0  0  0  0  0  0  0  0  0  0  0  0
   -2.3060   23.9830  -29.3890 C   0  0  0  0  0  0  0  0  0  0  0  0
   -3.1690   24.9160  -30.1020 N   0  0  0  0  0  0  0  0  0  0  0  0
   -4.5350   24.6420  -30.4370 C   0  0  0  0  0  0  0  0  0  0  0  0
   -5.1690   25.4140  -31.2050 O   0  0  0  0  0  0  0  0  0  0  0  0
   -5.2280   23.4530  -29.8430 C   0  0  0  0  0  0  0  0  0  0  0  0
   -6.4620   23.2010  -30.5120 O   0  0  0  0  0  0  0  0  0  0  0  0
   -6.5530   22.8710  -31.8700 C   0  0  0  0  0  0  0  0  0  0  0  0
   -6.6140   23.7790  -32.7440 O   0  0  0  0  0  0  0  0  0  0  0  0
   -6.5630   21.4910  -32.2700 N   0  0  0  0  0  0  0  0  0  0  0  0
   -7.6380   20.6570  -32.3530 C   0  0  0  0  0  0  0  0  0  0  0  0
   -9.0100   20.9770  -31.8980 C   0  0  0  0  0  0  0  0  0  0  0  0
   -9.2280   21.9170  -30.8450 N   0  0  0  0  0  0  0  0  0  0  0  0
  -10.0040   20.4450  -32.4590 O   0  0  0  0  0  0  0  0  0  0  0  0
   -7.2520   19.4090  -32.8390 C   0  0  0  0  0  0  0  0  0  0  0  0
   -5.8960   19.5050  -33.0500 C   0  0  0  0  0  0  0  0  0  0  0  0
   -4.9980   18.5590  -33.5320 C   0  0  0  0  0  0  0  0  0  0  0  0
   -3.6520   18.9360  -33.6680 C   0  0  0  0  0  0  0  0  0  0  0  0
   -3.2260   20.2480  -33.3310 C   0  0  0  0  0  0  0  0  0  0  0  0
   -1.8020   20.6380  -33.4890 C   0  0  0  0  0  0  0  0  0  0  0  0
   -1.1380   20.4670  -34.7110 C   0  0  0  0  0  0  0  0  0  0  0  0
    0.2000   20.8390  -34.8260 C   0  0  0  0  0  0  0  0  0  0  0  0
    0.8430   21.3640  -33.7520 N   0  0  0  0  0  0  0  0  0  0  0  0
    0.2220   21.5330  -32.5850 N   0  0  0  0  0  0  0  0  0  0  0  0
   -1.0810   21.1870  -32.4160 C   0  0  0  0  0  0  0  0  0  0  0  0
   -4.1730   21.1810  -32.8450 C   0  0  0  0  0  0  0  0  0  0  0  0
   -5.5040   20.7710  -32.7010 C   0  0  0  0  0  0  0  0  0  0  0  0
   -1.2415   26.0507  -26.9230 H   0  0  0  0  0  0  0  0  0  0  0  0
    0.2629   26.6686  -27.6856 H   0  0  0  0  0  0  0  0  0  0  0  0
   -1.2237   27.6770  -27.6856 H   0  0  0  0  0  0  0  0  0  0  0  0
   -0.1955   24.3981  -29.5872 H   0  0  0  0  0  0  0  0  0  0  0  0
   -0.7921   24.3766  -27.8966 H   0  0  0  0  0  0  0  0  0  0  0  0
   -2.0421   23.1508  -30.0581 H   0  0  0  0  0  0  0  0  0  0  0  0
   -2.8435   23.6053  -28.5067 H   0  0  0  0  0  0  0  0  0  0  0  0
   -4.5782   22.5708  -29.9401 H   0  0  0  0  0  0  0  0  0  0  0  0
   -5.4368   23.6592  -28.7829 H   0  0  0  0  0  0  0  0  0  0  0  0
   -8.4310   22.3310  -30.3140 H   0  0  0  0  0  0  0  0  0  0  0  0
  -10.2010   22.1670  -30.5580 H   0  0  0  0  0  0  0  0  0  0  0  0
   -7.8946   18.5339  -33.0161 H   0  0  0  0  0  0  0  0  0  0  0  0
   -5.3320   17.5455  -33.7988 H   0  0  0  0  0  0  0  0  0  0  0  0
   -2.9185   18.2057  -34.0403 H   0  0  0  0  0  0  0  0  0  0  0  0
   -1.6700   20.0415  -35.5747 H   0  0  0  0  0  0  0  0  0  0  0  0
    0.7313   20.7081  -35.7803 H   0  0  0  0  0  0  0  0  0  0  0  0
   -1.5697   21.3364  -31.4419 H   0  0  0  0  0  0  0  0  0  0  0  0
   -3.8698   22.2062  -32.5860 H   0  0  0  0  0  0  0  0  0  0  0  0
  1  2  1  0
  2  3  1  0
  3  4  1  0
  4  5  1  0
  5  6  1  0
  6  7  2  0
  6  8  1  0
  8  9  1  0
  9 10  1  0
 10 11  2  0
 10 12  1  0
 12 13  1  0
 13 14  1  0
 14 15  1  0
 14 16  2  0
 13 17  2  0
 17 18  1  0
 18 19  2  0
 19 20  1  0
 20 21  2  0
 21 22  1  0
 22 23  2  0
 23 24  1  0
 24 25  2  0
 25 26  1  0
 26 27  2  0
 21 28  1  0
 28 29  2  0
 29 12  1  0
 29 18  1  0
 27 22  1  0
  1 30  1  0
  1 31  1  0
  1 32  1  0
  3 33  1  0
  3 34  1  0
  4 35  1  0
  4 36  1  0
  8 37  1  0
  8 38  1  0
 15 39  1  0
 15 40  1  0
 17 41  1  0
 19 42  1  0
 20 43  1  0
 23 44  1  0
 24 45  1  0
 27 46  1  0
 28 47  1  0
M  CHG  1   5  -1
M  END
>  <UniqueID>  (46) 
45

>  <SMILES>  (46) 
COCC[N-]C(=O)COC(=O)n1c(C(N)=O)cc2ccc(-c3ccnnc3)cc21

>  <Energy>  (46) 
89.07862454230334

>  <Genealogy>  (46) 
COCC[N-]C(=O)COC(=O)n1c(C(N)=O)cc2ccc(-c3ccnnc3)cc21 (protonated)
COCC[N-]C(=O)COC(=O)n1c(C(N)=O)cc2ccc(-c3ccnnc3)cc21 (3D coordinates assigned)
COCC[N-]C(=O)COC(=O)n1c(C(N)=O)cc2ccc(-c3ccnnc3)cc21 (optimized conformer: 89.07862454230334 kcal/mol)

>  <smiles>  (46) 
COCCNC(=O)COC(=O)n1c(C(N)=O)cc2ccc(-c3ccnnc3)cc21

>  <score_type>  (46) 
oracle

>  <origin>  (46) 
adg

>  <m_score__min__energy>  (46) 
-11.220000000000001

>  <m_primary>  (46) 
energy

$$$$
46:0
     RDKit          3D

 58 59  0  0  0  0  0  0  0  0999 V2000
   -3.6790   24.5270  -27.2540 C   0  0  0  0  0  0  0  0  0  0  0  0
   -2.2070   24.7210  -26.8700 C   0  0  0  0  0  0  0  0  0  0  0  0
   -2.0890   25.4910  -25.5480 C   0  0  0  0  0  0  0  0  0  0  0  0
   -1.3990   25.4040  -27.9910 C   0  0  0  0  0  0  0  0  0  0  0  0
   -1.8140   24.9620  -29.2850 O   0  0  0  0  0  0  0  0  0  0  0  0
   -1.8320   23.6210  -29.6840 C   0  0  0  0  0  0  0  0  0  0  0  0
   -0.7530   23.0030  -29.9050 O   0  0  0  0  0  0  0  0  0  0  0  0
   -3.0690   22.9870  -29.8390 O   0  0  0  0  0  0  0  0  0  0  0  0
   -3.6960   22.7340  -31.0670 C   0  0  0  0  0  0  0  0  0  0  0  0
   -3.0220   22.3920  -32.0760 O   0  0  0  0  0  0  0  0  0  0  0  0
   -5.1210   22.8790  -31.1750 N   0  0  0  0  0  0  0  0  0  0  0  0
   -5.8560   24.0150  -31.0030 C   0  0  0  0  0  0  0  0  0  0  0  0
   -5.3520   25.3020  -30.4820 C   0  0  0  0  0  0  0  0  0  0  0  0
   -3.9860   25.6720  -30.6430 N   0  0  0  0  0  0  0  0  0  0  0  0
   -6.1270   26.0610  -29.8400 O   0  0  0  0  0  0  0  0  0  0  0  0
   -7.1970   23.7800  -31.2960 C   0  0  0  0  0  0  0  0  0  0  0  0
   -7.2670   22.4510  -31.6450 C   0  0  0  0  0  0  0  0  0  0  0  0
   -8.3640   21.6830  -32.0280 C   0  0  0  0  0  0  0  0  0  0  0  0
   -8.1420   20.3310  -32.3430 C   0  0  0  0  0  0  0  0  0  0  0  0
   -6.8380   19.7830  -32.2740 C   0  0  0  0  0  0  0  0  0  0  0  0
   -6.6260   18.4010  -32.5950 N   0  0  0  0  0  0  0  0  0  0  0  0
   -7.6930   17.4390  -32.3250 C   0  0  0  0  0  0  0  0  0  0  0  0
   -5.2590   17.9220  -32.8300 C   0  0  0  0  0  0  0  0  0  0  0  0
   -4.8490   18.1580  -34.2890 C   0  0  0  0  0  0  0  0  0  0  0  0
   -3.4160   17.7630  -34.5700 C   0  0  0  0  0  0  0  0  0  0  0  0
   -3.1740   16.6510  -35.1190 O   0  0  0  0  0  0  0  0  0  0  0  0
   -2.3170   18.6100  -34.1690 N   0  0  0  0  0  0  0  0  0  0  0  0
   -2.5590   19.8980  -33.5100 C   0  0  0  0  0  0  0  0  0  0  0  0
   -0.9420   18.1580  -34.4130 C   0  0  0  0  0  0  0  0  0  0  0  0
   -5.7490   20.5920  -31.8960 C   0  0  0  0  0  0  0  0  0  0  0  0
   -6.0020   21.9300  -31.5650 C   0  0  0  0  0  0  0  0  0  0  0  0
   -4.2884   24.4467  -26.3418 H   0  0  0  0  0  0  0  0  0  0  0  0
   -4.0196   25.3880  -27.8478 H   0  0  0  0  0  0  0  0  0  0  0  0
   -3.7849   23.6071  -27.8478 H   0  0  0  0  0  0  0  0  0  0  0  0
   -1.7691   23.7219  -26.7283 H   0  0  0  0  0  0  0  0  0  0  0  0
   -2.1962   24.7918  -24.7056 H   0  0  0  0  0  0  0  0  0  0  0  0
   -1.1053   25.9805  -25.4953 H   0  0  0  0  0  0  0  0  0  0  0  0
   -2.8809   26.2526  -25.4953 H   0  0  0  0  0  0  0  0  0  0  0  0
   -1.5436   26.4923  -27.9225 H   0  0  0  0  0  0  0  0  0  0  0  0
   -0.3394   25.1386  -27.8610 H   0  0  0  0  0  0  0  0  0  0  0  0
   -3.2510   24.9520  -30.8230 H   0  0  0  0  0  0  0  0  0  0  0  0
   -8.0247   24.5035  -31.2567 H   0  0  0  0  0  0  0  0  0  0  0  0
   -9.3719   22.1203  -32.0823 H   0  0  0  0  0  0  0  0  0  0  0  0
   -8.9868   19.6946  -32.6451 H   0  0  0  0  0  0  0  0  0  0  0  0
   -7.8184   17.3260  -31.2380 H   0  0  0  0  0  0  0  0  0  0  0  0
   -8.6332   17.8006  -32.7669 H   0  0  0  0  0  0  0  0  0  0  0  0
   -7.4304   16.4665  -32.7669 H   0  0  0  0  0  0  0  0  0  0  0  0
   -4.5672   18.4632  -32.1678 H   0  0  0  0  0  0  0  0  0  0  0  0
   -5.2198   16.8429  -32.6202 H   0  0  0  0  0  0  0  0  0  0  0  0
   -5.5100   17.5662  -34.9393 H   0  0  0  0  0  0  0  0  0  0  0  0
   -4.9385   19.2365  -34.4863 H   0  0  0  0  0  0  0  0  0  0  0  0
   -2.5335   19.7620  -32.4187 H   0  0  0  0  0  0  0  0  0  0  0  0
   -1.7798   20.6147  -33.8085 H   0  0  0  0  0  0  0  0  0  0  0  0
   -3.5452   20.2831  -33.8085 H   0  0  0  0  0  0  0  0  0  0  0  0
   -0.4347   17.9913  -33.4513 H   0  0  0  0  0  0  0  0  0  0  0  0
   -0.9609   17.2188  -34.9853 H   0  0  0  0  0  0  0  0  0  0  0  0
   -0.3999   18.9252  -34.9853 H   0  0  0  0  0  0  0  0  0  0  0  0
   -4.7277   20.1848  -31.8615 H   0  0  0  0  0  0  0  0  0  0  0  0
  1  2  1  0
  2  3  1  0
  2  4  1  0
  4  5  1  0
  5  6  1  0
  6  7  2  0
  6  8  1  0
  8  9  1  0
  9 10  2  0
  9 11  1  0
 11 12  1  0
 12 13  1  0
 13 14  1  0
 13 15  2  0
 12 16  2  0
 16 17  1  0
 17 18  2  0
 18 19  1  0
 19 20  2  0
 20 21  1  0
 21 22  1  0
 21 23  1  0
 23 24  1  0
 24 25  1  0
 25 26  2  0
 25 27  1  0
 27 28  1  0
 27 29  1  0
 20 30  1  0
 30 31  2  0
 31 11  1  0
 31 17  1  0
  1 32  1  0
  1 33  1  0
  1 34  1  0
  2 35  1  0
  3 36  1  0
  3 37  1  0
  3 38  1  0
  4 39  1  0
  4 40  1  0
 14 41  1  0
 16 42  1  0
 18 43  1  0
 19 44  1  0
 22 45  1  0
 22 46  1  0
 22 47  1  0
 23 48  1  0
 23 49  1  0
 24 50  1  0
 24 51  1  0
 28 52  1  0
 28 53  1  0
 28 54  1  0
 29 55  1  0
 29 56  1  0
 29 57  1  0
 30 58  1  0
M  CHG  1  14  -1
M  END
>  <UniqueID>  (47) 
46

>  <SMILES>  (47) 
CC(C)COC(=O)OC(=O)n1c(C([NH-])=O)cc2ccc(N(C)CCC(=O)N(C)C)cc21

>  <Energy>  (47) 
91.73654101511097

>  <Genealogy>  (47) 
CC(C)COC(=O)OC(=O)n1c(C([NH-])=O)cc2ccc(N(C)CCC(=O)N(C)C)cc21 (protonated)
CC(C)COC(=O)OC(=O)n1c(C([NH-])=O)cc2ccc(N(C)CCC(=O)N(C)C)cc21 (3D coordinates assigned)
CC(C)COC(=O)OC(=O)n1c(C([NH-])=O)cc2ccc(N(C)CCC(=O)N(C)C)cc21 (optimized conformer: 91.73654101511097 kcal/mol)

>  <smiles>  (47) 
CC(C)COC(=O)OC(=O)n1c(C(N)=O)cc2ccc(N(C)CCC(=O)N(C)C)cc21

>  <score_type>  (47) 
oracle

>  <origin>  (47) 
adg

>  <m_score__min__energy>  (47) 
-10.75

>  <m_primary>  (47) 
energy

$$$$
47:0
     RDKit          3D

 45 46  0  0  0  0  0  0  0  0999 V2000
   -6.5410   16.1050  -33.8740 C   0  0  0  0  0  0  0  0  0  0  0  0
   -6.7140   17.4630  -33.3580 C   0  0  0  0  0  0  0  0  0  0  0  0
   -6.8570   18.5810  -32.9300 C   0  0  0  0  0  0  0  0  0  0  0  0
   -7.0200   19.9180  -32.4230 C   0  0  0  0  0  0  0  0  0  0  0  0
   -8.3120   20.4780  -32.3060 C   0  0  0  0  0  0  0  0  0  0  0  0
   -8.4770   21.7970  -31.8460 C   0  0  0  0  0  0  0  0  0  0  0  0
   -7.3340   22.5170  -31.5070 C   0  0  0  0  0  0  0  0  0  0  0  0
   -7.1970   23.8220  -31.0920 C   0  0  0  0  0  0  0  0  0  0  0  0
   -5.8240   24.0230  -30.9470 C   0  0  0  0  0  0  0  0  0  0  0  0
   -5.2270   25.2870  -30.4720 C   0  0  0  0  0  0  0  0  0  0  0  0
   -3.9000   25.6570  -30.8410 N   0  0  0  0  0  0  0  0  0  0  0  0
   -5.8810   26.0360  -29.6970 O   0  0  0  0  0  0  0  0  0  0  0  0
   -5.1430   22.8850  -31.2570 N   0  0  0  0  0  0  0  0  0  0  0  0
   -3.7250   22.7080  -31.3600 C   0  0  0  0  0  0  0  0  0  0  0  0
   -3.2250   22.2430  -32.4200 O   0  0  0  0  0  0  0  0  0  0  0  0
   -2.8980   23.1110  -30.3040 O   0  0  0  0  0  0  0  0  0  0  0  0
   -3.2400   22.9260  -28.9330 C   0  0  0  0  0  0  0  0  0  0  0  0
   -3.2740   24.2370  -28.2100 C   0  0  0  0  0  0  0  0  0  0  0  0
   -4.2690   24.5200  -27.4920 O   0  0  0  0  0  0  0  0  0  0  0  0
   -2.2090   25.1400  -28.3710 O   0  0  0  0  0  0  0  0  0  0  0  0
   -1.2000   25.4480  -27.4000 C   0  0  0  0  0  0  0  0  0  0  0  0
   -0.5500   26.8090  -27.7070 C   0  0  0  0  0  0  0  0  0  0  0  0
   -1.7930   25.4380  -25.9780 C   0  0  0  0  0  0  0  0  0  0  0  0
   -0.1270   24.3510  -27.4970 C   0  0  0  0  0  0  0  0  0  0  0  0
   -6.0780   21.9740  -31.5980 C   0  0  0  0  0  0  0  0  0  0  0  0
   -5.8840   20.6700  -32.0660 C   0  0  0  0  0  0  0  0  0  0  0  0
   -6.4514   15.4018  -33.0329 H   0  0  0  0  0  0  0  0  0  0  0  0
   -7.4117   15.8326  -34.4885 H   0  0  0  0  0  0  0  0  0  0  0  0
   -5.6298   16.0596  -34.4885 H   0  0  0  0  0  0  0  0  0  0  0  0
   -9.1941   19.8789  -32.5763 H   0  0  0  0  0  0  0  0  0  0  0  0
   -9.4773   22.2457  -31.7568 H   0  0  0  0  0  0  0  0  0  0  0  0
   -8.0000   24.5521  -30.9126 H   0  0  0  0  0  0  0  0  0  0  0  0
   -3.0750   25.2900  -30.3180 H   0  0  0  0  0  0  0  0  0  0  0  0
   -4.2314   22.4537  -28.8695 H   0  0  0  0  0  0  0  0  0  0  0  0
   -2.4789   22.2852  -28.4639 H   0  0  0  0  0  0  0  0  0  0  0  0
   -0.3060   27.3199  -26.7639 H   0  0  0  0  0  0  0  0  0  0  0  0
    0.3707   26.6528  -28.2883 H   0  0  0  0  0  0  0  0  0  0  0  0
   -1.2502   27.4270  -28.2883 H   0  0  0  0  0  0  0  0  0  0  0  0
   -0.9771   25.4518  -25.2404 H   0  0  0  0  0  0  0  0  0  0  0  0
   -2.4278   26.3256  -25.8392 H   0  0  0  0  0  0  0  0  0  0  0  0
   -2.3975   24.5295  -25.8392 H   0  0  0  0  0  0  0  0  0  0  0  0
    0.1746   24.0426  -26.4851 H   0  0  0  0  0  0  0  0  0  0  0  0
   -0.5361   23.4848  -28.0376 H   0  0  0  0  0  0  0  0  0  0  0  0
    0.7481   24.7408  -28.0376 H   0  0  0  0  0  0  0  0  0  0  0  0
   -4.8734   20.2443  -32.1527 H   0  0  0  0  0  0  0  0  0  0  0  0
  1  2  1  0
  2  3  3  0
  3  4  1  0
  4  5  2  0
  5  6  1  0
  6  7  2  0
  7  8  1  0
  8  9  2  0
  9 10  1  0
 10 11  1  0
 10 12  2  0
  9 13  1  0
 13 14  1  0
 14 15  2  0
 14 16  1  0
 16 17  1  0
 17 18  1  0
 18 19  2  0
 18 20  1  0
 20 21  1  0
 21 22  1  0
 21 23  1  0
 21 24  1  0
 13 25  1  0
 25 26  2  0
 26  4  1  0
 25  7  1  0
  1 27  1  0
  1 28  1  0
  1 29  1  0
  5 30  1  0
  6 31  1  0
  8 32  1  0
 11 33  1  0
 17 34  1  0
 17 35  1  0
 22 36  1  0
 22 37  1  0
 22 38  1  0
 23 39  1  0
 23 40  1  0
 23 41  1  0
 24 42  1  0
 24 43  1  0
 24 44  1  0
 26 45  1  0
M  CHG  1  11  -1
M  END
>  <UniqueID>  (48) 
47

>  <SMILES>  (48) 
CC#Cc1ccc2cc(C([NH-])=O)n(C(=O)OCC(=O)OC(C)(C)C)c2c1

>  <Energy>  (48) 
70.08243228209324

>  <Genealogy>  (48) 
CC#Cc1ccc2cc(C([NH-])=O)n(C(=O)OCC(=O)OC(C)(C)C)c2c1 (protonated)
CC#Cc1ccc2cc(C([NH-])=O)n(C(=O)OCC(=O)OC(C)(C)C)c2c1 (3D coordinates assigned)
CC#Cc1ccc2cc(C([NH-])=O)n(C(=O)OCC(=O)OC(C)(C)C)c2c1 (optimized conformer: 70.08243228209324 kcal/mol)

>  <smiles>  (48) 
CC#Cc1ccc2cc(C(N)=O)n(C(=O)OCC(=O)OC(C)(C)C)c2c1

>  <score_type>  (48) 
oracle

>  <origin>  (48) 
adg

>  <m_score__min__energy>  (48) 
-11.07

>  <m_primary>  (48) 
energy

$$$$
48:0
     RDKit          3D

 34 35  0  0  0  0  0  0  0  0999 V2000
   -5.7880   25.0290  -29.1800 N   0  0  0  0  0  0  0  0  0  0  0  0
   -5.2510   24.4750  -30.3820 C   0  0  0  0  0  0  0  0  0  0  0  0
   -4.2640   25.0330  -30.9310 O   0  0  0  0  0  0  0  0  0  0  0  0
   -5.7890   23.2250  -30.9580 C   0  0  0  0  0  0  0  0  0  0  0  0
   -7.1380   23.0250  -31.2380 C   0  0  0  0  0  0  0  0  0  0  0  0
   -7.2110   21.7700  -31.7990 C   0  0  0  0  0  0  0  0  0  0  0  0
   -8.3130   21.0530  -32.2490 C   0  0  0  0  0  0  0  0  0  0  0  0
   -8.1000   19.7540  -32.7390 C   0  0  0  0  0  0  0  0  0  0  0  0
   -6.8000   19.1840  -32.7430 C   0  0  0  0  0  0  0  0  0  0  0  0
   -6.5720   17.7990  -33.2960 C   0  0  0  0  0  0  0  0  0  0  0  0
   -6.4790   17.8390  -34.6760 F   0  0  0  0  0  0  0  0  0  0  0  0
   -7.6320   16.9880  -32.9400 F   0  0  0  0  0  0  0  0  0  0  0  0
   -5.4000   17.2550  -32.7990 F   0  0  0  0  0  0  0  0  0  0  0  0
   -5.7030   19.9510  -32.2910 C   0  0  0  0  0  0  0  0  0  0  0  0
   -5.9420   21.2520  -31.8340 C   0  0  0  0  0  0  0  0  0  0  0  0
   -5.0570   22.1350  -31.3230 N   0  0  0  0  0  0  0  0  0  0  0  0
   -3.6600   21.8990  -31.0850 C   0  0  0  0  0  0  0  0  0  0  0  0
   -3.0950   20.9120  -31.6310 O   0  0  0  0  0  0  0  0  0  0  0  0
   -2.9260   22.7680  -30.2120 N   0  0  0  0  0  0  0  0  0  0  0  0
   -1.4930   22.7850  -30.1120 C   0  0  0  0  0  0  0  0  0  0  0  0
   -0.7870   22.0430  -30.8460 O   0  0  0  0  0  0  0  0  0  0  0  0
   -0.8260   23.7350  -29.1660 C   0  0  0  0  0  0  0  0  0  0  0  0
   -1.6660   24.9570  -28.9830 C   0  0  0  0  0  0  0  0  0  0  0  0
   -1.2320   26.0840  -29.3400 O   0  0  0  0  0  0  0  0  0  0  0  0
   -2.9190   24.8590  -28.3900 O   0  0  0  0  0  0  0  0  0  0  0  0
   -6.4720   24.4990  -28.5970 H   0  0  0  0  0  0  0  0  0  0  0  0
   -5.4160   25.9310  -28.8090 H   0  0  0  0  0  0  0  0  0  0  0  0
   -7.9686   23.7214  -31.0508 H   0  0  0  0  0  0  0  0  0  0  0  0
   -9.3222   21.4898  -32.2223 H   0  0  0  0  0  0  0  0  0  0  0  0
   -8.9502   19.1718  -33.1240 H   0  0  0  0  0  0  0  0  0  0  0  0
   -4.6846   19.5352  -32.2981 H   0  0  0  0  0  0  0  0  0  0  0  0
   -3.4690   23.4410  -29.6260 H   0  0  0  0  0  0  0  0  0  0  0  0
   -0.6867   23.2409  -28.1931 H   0  0  0  0  0  0  0  0  0  0  0  0
    0.1492   24.0291  -29.5813 H   0  0  0  0  0  0  0  0  0  0  0  0
  1  2  1  0
  2  3  2  0
  2  4  1  0
  4  5  2  0
  5  6  1  0
  6  7  2  0
  7  8  1  0
  8  9  2  0
  9 10  1  0
 10 11  1  0
 10 12  1  0
 10 13  1  0
  9 14  1  0
 14 15  2  0
 15 16  1  0
 16 17  1  0
 17 18  2  0
 17 19  1  0
 19 20  1  0
 20 21  2  0
 20 22  1  0
 22 23  1  0
 23 24  2  0
 23 25  1  0
 16  4  1  0
 15  6  1  0
  1 26  1  0
  1 27  1  0
  5 28  1  0
  7 29  1  0
  8 30  1  0
 14 31  1  0
 19 32  1  0
 22 33  1  0
 22 34  1  0
M  CHG  1  25  -1
M  END
>  <UniqueID>  (49) 
48

>  <SMILES>  (49) 
NC(=O)c1cc2ccc(C(F)(F)F)cc2n1C(=O)NC(=O)CC(=O)[O-]

>  <Energy>  (49) 
72.10861620388285

>  <Genealogy>  (49) 
NC(=O)c1cc2ccc(C(F)(F)F)cc2n1C(=O)NC(=O)CC(=O)[O-] (protonated)
NC(=O)c1cc2ccc(C(F)(F)F)cc2n1C(=O)NC(=O)CC(=O)[O-] (3D coordinates assigned)
NC(=O)c1cc2ccc(C(F)(F)F)cc2n1C(=O)NC(=O)CC(=O)[O-] (optimized conformer: 72.10861620388285 kcal/mol)

>  <smiles>  (49) 
NC(=O)c1cc2ccc(C(F)(F)F)cc2n1C(=O)NC(=O)CC(=O)O

>  <score_type>  (49) 
oracle

>  <origin>  (49) 
adg

>  <m_score__min__energy>  (49) 
-10.970000000000001

>  <m_primary>  (49) 
energy

$$$$
49:0
     RDKit          3D

 40 41  0  0  0  0  0  0  0  0999 V2000
   -6.6560   25.1110  -29.8380 C   0  0  0  0  0  0  0  0  0  0  0  0
   -5.7860   23.9390  -29.9900 N   0  0  0  0  0  0  0  0  0  0  0  0
   -4.5070   23.9170  -29.2660 C   0  0  0  0  0  0  0  0  0  0  0  0
   -3.5490   24.9240  -29.8280 C   0  0  0  0  0  0  0  0  0  0  0  0
   -3.8690   25.5900  -30.8470 O   0  0  0  0  0  0  0  0  0  0  0  0
   -2.2910   25.0990  -29.2630 O   0  0  0  0  0  0  0  0  0  0  0  0
   -6.2190   22.8110  -30.7890 C   0  0  0  0  0  0  0  0  0  0  0  0
   -7.6010   22.5080  -30.9310 C   0  0  0  0  0  0  0  0  0  0  0  0
   -8.0270   21.4120  -31.6970 C   0  0  0  0  0  0  0  0  0  0  0  0
   -7.0580   20.6390  -32.3260 C   0  0  0  0  0  0  0  0  0  0  0  0
   -7.1930   19.5080  -33.0980 C   0  0  0  0  0  0  0  0  0  0  0  0
   -5.8970   19.1470  -33.4520 C   0  0  0  0  0  0  0  0  0  0  0  0
   -5.5810   18.0100  -34.3390 C   0  0  0  0  0  0  0  0  0  0  0  0
   -4.2930   17.8770  -34.9420 N   0  0  0  0  0  0  0  0  0  0  0  0
   -6.4810   17.1730  -34.6150 O   0  0  0  0  0  0  0  0  0  0  0  0
   -4.9920   20.0110  -32.9090 N   0  0  0  0  0  0  0  0  0  0  0  0
   -3.5590   19.9180  -32.9540 C   0  0  0  0  0  0  0  0  0  0  0  0
   -2.9460   19.2430  -32.0820 O   0  0  0  0  0  0  0  0  0  0  0  0
   -2.8500   20.5790  -33.9640 O   0  0  0  0  0  0  0  0  0  0  0  0
   -1.4580   20.8750  -33.8820 C   0  0  0  0  0  0  0  0  0  0  0  0
   -0.6300   19.7320  -34.4690 C   0  0  0  0  0  0  0  0  0  0  0  0
   -1.4380   18.6060  -34.6760 O   0  0  0  0  0  0  0  0  0  0  0  0
   -5.7210   20.9210  -32.2250 C   0  0  0  0  0  0  0  0  0  0  0  0
   -5.2660   21.9940  -31.4480 C   0  0  0  0  0  0  0  0  0  0  0  0
   -6.8093   25.3176  -28.7685 H   0  0  0  0  0  0  0  0  0  0  0  0
   -6.1842   25.9823  -30.3158 H   0  0  0  0  0  0  0  0  0  0  0  0
   -7.6266   24.9116  -30.3158 H   0  0  0  0  0  0  0  0  0  0  0  0
   -4.6904   24.1485  -28.2064 H   0  0  0  0  0  0  0  0  0  0  0  0
   -4.0632   22.9162  -29.3729 H   0  0  0  0  0  0  0  0  0  0  0  0
   -8.3482   23.1429  -30.4324 H   0  0  0  0  0  0  0  0  0  0  0  0
   -9.0958   21.1718  -31.7967 H   0  0  0  0  0  0  0  0  0  0  0  0
   -8.1270   18.9978  -33.3761 H   0  0  0  0  0  0  0  0  0  0  0  0
   -4.0750   17.0440  -35.5330 H   0  0  0  0  0  0  0  0  0  0  0  0
   -3.5840   18.6410  -34.8770 H   0  0  0  0  0  0  0  0  0  0  0  0
   -1.2507   21.7975  -34.4442 H   0  0  0  0  0  0  0  0  0  0  0  0
   -1.1845   21.0046  -32.8245 H   0  0  0  0  0  0  0  0  0  0  0  0
   -0.1990   20.0514  -35.4293 H   0  0  0  0  0  0  0  0  0  0  0  0
    0.1739   19.4724  -33.7644 H   0  0  0  0  0  0  0  0  0  0  0  0
   -2.0700   18.5630  -33.9120 H   0  0  0  0  0  0  0  0  0  0  0  0
   -4.1896   22.1989  -31.3510 H   0  0  0  0  0  0  0  0  0  0  0  0
  1  2  1  0
  2  3  1  0
  3  4  1  0
  4  5  2  0
  4  6  1  0
  2  7  1  0
  7  8  2  0
  8  9  1  0
  9 10  2  0
 10 11  1  0
 11 12  2  0
 12 13  1  0
 13 14  1  0
 13 15  2  0
 12 16  1  0
 16 17  1  0
 17 18  2  0
 17 19  1  0
 19 20  1  0
 20 21  1  0
 21 22  1  0
 16 23  1  0
 23 24  2  0
 24  7  1  0
 23 10  1  0
  1 25  1  0
  1 26  1  0
  1 27  1  0
  3 28  1  0
  3 29  1  0
  8 30  1  0
  9 31  1  0
 11 32  1  0
 14 33  1  0
 14 34  1  0
 20 35  1  0
 20 36  1  0
 21 37  1  0
 21 38  1  0
 22 39  1  0
 24 40  1  0
M  CHG  1   6  -1
M  END
>  <UniqueID>  (50) 
49

>  <SMILES>  (50) 
CN(CC(=O)[O-])c1ccc2cc(C(N)=O)n(C(=O)OCCO)c2c1

>  <Energy>  (50) 
77.34272004541418

>  <Genealogy>  (50) 
CN(CC(=O)[O-])c1ccc2cc(C(N)=O)n(C(=O)OCCO)c2c1 (protonated)
CN(CC(=O)[O-])c1ccc2cc(C(N)=O)n(C(=O)OCCO)c2c1 (3D coordinates assigned)
CN(CC(=O)[O-])c1ccc2cc(C(N)=O)n(C(=O)OCCO)c2c1 (optimized conformer: 77.34272004541418 kcal/mol)

>  <smiles>  (50) 
CN(CC(=O)O)c1ccc2cc(C(N)=O)n(C(=O)OCCO)c2c1

>  <score_type>  (50) 
oracle

>  <origin>  (50) 
adg

>  <m_score__min__energy>  (50) 
-9.2799999999999994

>  <m_primary>  (50) 
energy

$$$$
50:0
     RDKit          3D

 44 46  0  0  0  0  0  0  0  0999 V2000
   -0.3970   22.6650  -29.8990 C   0  0  0  0  0  0  0  0  0  0  0  0
   -1.7220   22.9610  -29.3200 N   0  0  1  0  0  0  0  0  0  0  0  0
   -2.4120   21.7160  -29.0180 C   0  0  0  0  0  0  0  0  0  0  0  0
   -1.8090   20.7760  -28.5200 O   0  0  0  0  0  0  0  0  0  0  0  0
   -3.8580   21.5290  -29.4030 C   0  0  0  0  0  0  0  0  0  0  0  0
   -4.1670   22.2270  -30.6960 C   0  0  0  0  0  0  0  0  0  0  0  0
   -3.2880   22.2750  -31.5960 O   0  0  0  0  0  0  0  0  0  0  0  0
   -5.4740   22.7680  -30.9490 N   0  0  0  0  0  0  0  0  0  0  0  0
   -5.8920   24.0580  -30.8050 C   0  0  0  0  0  0  0  0  0  0  0  0
   -5.0250   25.2310  -30.5700 C   0  0  0  0  0  0  0  0  0  0  0  0
   -3.6110   25.0900  -30.4790 N   0  0  0  0  0  0  0  0  0  0  0  0
   -5.5340   26.3800  -30.5010 O   0  0  0  0  0  0  0  0  0  0  0  0
   -7.2570   24.1610  -31.0630 C   0  0  0  0  0  0  0  0  0  0  0  0
   -7.6610   22.8900  -31.3970 C   0  0  0  0  0  0  0  0  0  0  0  0
   -8.9140   22.4170  -31.7780 C   0  0  0  0  0  0  0  0  0  0  0  0
   -9.0350   21.0530  -32.0920 C   0  0  0  0  0  0  0  0  0  0  0  0
   -7.9070   20.1970  -32.0420 C   0  0  0  0  0  0  0  0  0  0  0  0
   -8.0610   18.7390  -32.3640 C   0  0  0  0  0  0  0  0  0  0  0  0
   -9.3100   18.3030  -31.9630 F   0  0  0  0  0  0  0  0  0  0  0  0
   -7.0850   18.0120  -31.7000 F   0  0  0  0  0  0  0  0  0  0  0  0
   -6.6500   20.7170  -31.6610 C   0  0  0  0  0  0  0  0  0  0  0  0
   -6.5630   22.0720  -31.3350 C   0  0  0  0  0  0  0  0  0  0  0  0
   -1.6060   23.9520  -28.2050 C   0  0  0  0  0  0  0  0  0  0  0  0
   -0.8160   25.2000  -28.4920 C   0  0  0  0  0  0  0  0  0  0  0  0
   -1.2340   26.0300  -29.3440 O   0  0  0  0  0  0  0  0  0  0  0  0
    0.4010   25.4230  -27.8600 O   0  0  0  0  0  0  0  0  0  0  0  0
   -2.7520   24.1160  -27.2020 C   0  0  0  0  0  0  0  0  0  0  0  0
   -1.4680   23.4060  -26.7820 C   0  0  0  0  0  0  0  0  0  0  0  0
    0.3292   22.5028  -29.0889 H   0  0  0  0  0  0  0  0  0  0  0  0
   -0.4622   21.7593  -30.5198 H   0  0  0  0  0  0  0  0  0  0  0  0
   -0.0705   23.5124  -30.5198 H   0  0  0  0  0  0  0  0  0  0  0  0
   -2.2640   23.4400  -30.0760 H   0  0  0  0  0  0  0  0  0  0  0  0
   -4.0636   20.4544  -29.5166 H   0  0  0  0  0  0  0  0  0  0  0  0
   -4.4891   21.9615  -28.6126 H   0  0  0  0  0  0  0  0  0  0  0  0
   -3.1030   25.3340  -29.6010 H   0  0  0  0  0  0  0  0  0  0  0  0
   -7.8793   25.0666  -31.0106 H   0  0  0  0  0  0  0  0  0  0  0  0
   -9.7821   23.0904  -31.8315 H   0  0  0  0  0  0  0  0  0  0  0  0
  -10.0154   20.6454  -32.3796 H   0  0  0  0  0  0  0  0  0  0  0  0
   -7.9541   18.5939  -33.4491 H   0  0  0  0  0  0  0  0  0  0  0  0
   -5.7612   20.0701  -31.6221 H   0  0  0  0  0  0  0  0  0  0  0  0
   -2.9887   25.1103  -26.7954 H   0  0  0  0  0  0  0  0  0  0  0  0
   -3.8213   23.8580  -27.1943 H   0  0  0  0  0  0  0  0  0  0  0  0
   -0.7799   23.8888  -26.0724 H   0  0  0  0  0  0  0  0  0  0  0  0
   -1.2298   22.4245  -26.3461 H   0  0  0  0  0  0  0  0  0  0  0  0
  1  2  1  0
  2  3  1  0
  3  4  2  0
  3  5  1  0
  5  6  1  0
  6  7  2  0
  6  8  1  0
  8  9  1  0
  9 10  1  0
 10 11  1  0
 10 12  2  0
  9 13  2  0
 13 14  1  0
 14 15  2  0
 15 16  1  0
 16 17  2  0
 17 18  1  0
 18 19  1  0
 18 20  1  0
 17 21  1  0
 21 22  2  0
  2 23  1  0
 23 24  1  0
 24 25  2  0
 24 26  1  0
 23 27  1  0
 27 28  1  0
 22  8  1  0
 28 23  1  0
 22 14  1  0
  1 29  1  0
  1 30  1  0
  1 31  1  0
  2 32  1  6
  5 33  1  0
  5 34  1  0
 11 35  1  0
 13 36  1  0
 15 37  1  0
 16 38  1  0
 18 39  1  0
 21 40  1  0
 27 41  1  0
 27 42  1  0
 28 43  1  0
 28 44  1  0
M  CHG  3   2   1  11  -1  26  -1
M  END
>  <UniqueID>  (51) 
50

>  <SMILES>  (51) 
C[N@@H+](C(=O)CC(=O)n1c(C([NH-])=O)cc2ccc(C(F)F)cc21)C1(C(=O)[O-])CC1

>  <Energy>  (51) 
357.35245128080254

>  <Genealogy>  (51) 
C[NH+](C(=O)CC(=O)n1c(C([NH-])=O)cc2ccc(C(F)F)cc21)C1(C(=O)[O-])CC1 (protonated)
C[N@@H+](C(=O)CC(=O)n1c(C([NH-])=O)cc2ccc(C(F)F)cc21)C1(C(=O)[O-])CC1 (chirality)
C[N@@H+](C(=O)CC(=O)n1c(C([NH-])=O)cc2ccc(C(F)F)cc21)C1(C(=O)[O-])CC1 (3D coordinates assigned)
C[N@@H+](C(=O)CC(=O)n1c(C([NH-])=O)cc2ccc(C(F)F)cc21)C1(C(=O)[O-])CC1 (nonaromatic ring conformer: 357.35245128080254 kcal/mol)

>  <smiles>  (51) 
CN(C(=O)CC(=O)n1c(C(N)=O)cc2ccc(C(F)F)cc21)C1(C(=O)O)CC1

>  <score_type>  (51) 
oracle

>  <origin>  (51) 
adg

>  <m_score__min__energy>  (51) 
-12.06

>  <m_primary>  (51) 
energy

$$$$
51:0
     RDKit          3D

 40 41  0  0  0  0  0  0  0  0999 V2000
   -4.1530   24.2380  -27.4220 C   0  0  0  0  0  0  0  0  0  0  0  0
   -3.1880   24.5280  -28.4280 O   0  0  0  0  0  0  0  0  0  0  0  0
   -2.4100   23.5360  -29.0310 C   0  0  0  0  0  0  0  0  0  0  0  0
   -1.4130   23.8400  -29.7410 O   0  0  0  0  0  0  0  0  0  0  0  0
   -2.7960   22.1040  -28.8760 C   0  0  0  0  0  0  0  0  0  0  0  0
   -3.6230   21.7220  -29.9700 O   0  0  0  0  0  0  0  0  0  0  0  0
   -3.9680   22.6010  -31.0010 C   0  0  0  0  0  0  0  0  0  0  0  0
   -3.0800   23.0530  -31.7750 O   0  0  0  0  0  0  0  0  0  0  0  0
   -5.3420   22.9720  -31.1900 N   0  0  0  0  0  0  0  0  0  0  0  0
   -5.9280   24.1660  -30.8930 C   0  0  0  0  0  0  0  0  0  0  0  0
   -5.2260   25.3960  -30.4730 C   0  0  0  0  0  0  0  0  0  0  0  0
   -3.8670   25.6260  -30.8340 N   0  0  0  0  0  0  0  0  0  0  0  0
   -5.8510   26.2800  -29.8260 O   0  0  0  0  0  0  0  0  0  0  0  0
   -7.3020   24.1040  -31.1150 C   0  0  0  0  0  0  0  0  0  0  0  0
   -7.5410   22.8280  -31.5680 C   0  0  0  0  0  0  0  0  0  0  0  0
   -8.7370   22.2190  -31.9340 C   0  0  0  0  0  0  0  0  0  0  0  0
   -8.6940   20.8750  -32.3370 C   0  0  0  0  0  0  0  0  0  0  0  0
   -7.4720   20.1580  -32.3580 C   0  0  0  0  0  0  0  0  0  0  0  0
   -7.4820   18.7770  -32.7690 N   0  0  0  0  0  0  0  0  0  0  0  0
   -6.6150   17.7350  -32.2140 C   0  0  0  0  0  0  0  0  0  0  0  0
   -6.1340   16.7890  -33.3160 C   0  0  0  0  0  0  0  0  0  0  0  0
   -6.8660   17.0030  -34.4920 O   0  0  0  0  0  0  0  0  0  0  0  0
   -6.2740   20.8170  -31.9840 C   0  0  0  0  0  0  0  0  0  0  0  0
   -6.3430   22.1630  -31.6040 C   0  0  0  0  0  0  0  0  0  0  0  0
   -3.6998   24.3742  -26.4290 H   0  0  0  0  0  0  0  0  0  0  0  0
   -5.0109   24.9180  -27.5299 H   0  0  0  0  0  0  0  0  0  0  0  0
   -4.4939   23.1977  -27.5299 H   0  0  0  0  0  0  0  0  0  0  0  0
   -1.8914   21.4783  -28.8624 H   0  0  0  0  0  0  0  0  0  0  0  0
   -3.3449   21.9688  -27.9324 H   0  0  0  0  0  0  0  0  0  0  0  0
   -3.1190   24.9460  -30.5730 H   0  0  0  0  0  0  0  0  0  0  0  0
   -8.0392   24.9057  -30.9606 H   0  0  0  0  0  0  0  0  0  0  0  0
   -9.6868   22.7733  -31.9084 H   0  0  0  0  0  0  0  0  0  0  0  0
   -9.6231   20.3708  -32.6411 H   0  0  0  0  0  0  0  0  0  0  0  0
   -8.1460   18.4880  -33.5240 H   0  0  0  0  0  0  0  0  0  0  0  0
   -5.7433   18.2067  -31.7369 H   0  0  0  0  0  0  0  0  0  0  0  0
   -7.1871   17.1553  -31.4747 H   0  0  0  0  0  0  0  0  0  0  0  0
   -5.0677   16.9735  -33.5132 H   0  0  0  0  0  0  0  0  0  0  0  0
   -6.2809   15.7500  -32.9861 H   0  0  0  0  0  0  0  0  0  0  0  0
   -6.8430   17.9810  -34.6670 H   0  0  0  0  0  0  0  0  0  0  0  0
   -5.3122   20.2833  -31.9921 H   0  0  0  0  0  0  0  0  0  0  0  0
  1  2  1  0
  2  3  1  0
  3  4  2  0
  3  5  1  0
  5  6  1  0
  6  7  1  0
  7  8  2  0
  7  9  1  0
  9 10  1  0
 10 11  1  0
 11 12  1  0
 11 13  2  0
 10 14  2  0
 14 15  1  0
 15 16  2  0
 16 17  1  0
 17 18  2  0
 18 19  1  0
 19 20  1  0
 20 21  1  0
 21 22  1  0
 18 23  1  0
 23 24  2  0
 24  9  1  0
 24 15  1  0
  1 25  1  0
  1 26  1  0
  1 27  1  0
  5 28  1  0
  5 29  1  0
 12 30  1  0
 14 31  1  0
 16 32  1  0
 17 33  1  0
 19 34  1  0
 20 35  1  0
 20 36  1  0
 21 37  1  0
 21 38  1  0
 22 39  1  0
 23 40  1  0
M  CHG  1  12  -1
M  END
>  <UniqueID>  (52) 
51

>  <SMILES>  (52) 
COC(=O)COC(=O)n1c(C([NH-])=O)cc2ccc(NCCO)cc21

>  <Energy>  (52) 
70.84757283639662

>  <Genealogy>  (52) 
COC(=O)COC(=O)n1c(C([NH-])=O)cc2ccc(NCCO)cc21 (protonated)
COC(=O)COC(=O)n1c(C([NH-])=O)cc2ccc(NCCO)cc21 (3D coordinates assigned)
COC(=O)COC(=O)n1c(C([NH-])=O)cc2ccc(NCCO)cc21 (optimized conformer: 70.84757283639662 kcal/mol)

>  <smiles>  (52) 
COC(=O)COC(=O)n1c(C(N)=O)cc2ccc(NCCO)cc21

>  <score_type>  (52) 
oracle

>  <origin>  (52) 
adg

>  <m_score__min__energy>  (52) 
-9.4600000000000009

>  <m_primary>  (52) 
energy

$$$$
52:0
     RDKit          3D

 51 54  0  0  0  0  0  0  0  0999 V2000
    1.0170   27.2980  -25.5200 C   0  0  0  0  0  0  0  0  0  0  0  0
    0.3210   26.7650  -26.5220 C   0  0  0  0  0  0  0  0  0  0  0  0
   -1.1100   26.4170  -26.3940 C   0  0  0  0  0  0  0  0  0  0  0  0
   -1.8130   26.9970  -25.5200 O   0  0  0  0  0  0  0  0  0  0  0  0
   -1.7030   25.3810  -27.2000 N   0  0  0  0  0  0  0  0  0  0  0  0
   -1.2890   25.1570  -28.5930 C   0  0  0  0  0  0  0  0  0  0  0  0
   -1.0630   23.6620  -28.8240 C   0  0  0  0  0  0  0  0  0  0  0  0
   -2.2960   22.8060  -28.3820 C   0  0  0  0  0  0  0  0  0  0  0  0
   -1.9550   21.5940  -27.6660 C   0  0  0  0  0  0  0  0  0  0  0  0
   -2.5610   20.7900  -28.7660 C   0  0  0  0  0  0  0  0  0  0  0  0
   -2.8420   21.9420  -29.4940 C   0  0  0  0  0  0  0  0  0  0  0  0
   -3.3660   22.1600  -30.8510 C   0  0  0  0  0  0  0  0  0  0  0  0
   -2.5650   22.3430  -31.8070 O   0  0  0  0  0  0  0  0  0  0  0  0
   -4.7760   22.2590  -31.0790 N   0  0  0  0  0  0  0  0  0  0  0  0
   -5.5980   23.3040  -30.7830 C   0  0  0  0  0  0  0  0  0  0  0  0
   -5.1900   24.6180  -30.2240 C   0  0  0  0  0  0  0  0  0  0  0  0
   -5.7700   25.1650  -29.0400 N   0  0  0  0  0  0  0  0  0  0  0  0
   -4.2990   25.2830  -30.8180 O   0  0  0  0  0  0  0  0  0  0  0  0
   -6.8980   23.0320  -31.2070 C   0  0  0  0  0  0  0  0  0  0  0  0
   -6.8350   21.7890  -31.8000 C   0  0  0  0  0  0  0  0  0  0  0  0
   -7.8190   21.0530  -32.4500 C   0  0  0  0  0  0  0  0  0  0  0  0
   -7.4480   19.8380  -33.0520 C   0  0  0  0  0  0  0  0  0  0  0  0
   -6.1000   19.3930  -33.0160 C   0  0  0  0  0  0  0  0  0  0  0  0
   -5.6790   18.1450  -33.7460 C   0  0  0  0  0  0  0  0  0  0  0  0
   -6.2310   17.0480  -33.1170 F   0  0  0  0  0  0  0  0  0  0  0  0
   -4.3020   18.0120  -33.7570 F   0  0  0  0  0  0  0  0  0  0  0  0
   -6.1240   18.1870  -35.0550 F   0  0  0  0  0  0  0  0  0  0  0  0
   -5.1260   20.1860  -32.3690 C   0  0  0  0  0  0  0  0  0  0  0  0
   -5.5380   21.3600  -31.7320 C   0  0  0  0  0  0  0  0  0  0  0  0
   -3.4060   23.6300  -27.6760 C   0  0  0  0  0  0  0  0  0  0  0  0
   -2.8100   24.5890  -26.6380 C   0  0  0  0  0  0  0  0  0  0  0  0
    2.0807   27.5421  -25.6579 H   0  0  0  0  0  0  0  0  0  0  0  0
    0.5284   27.4943  -24.5542 H   0  0  0  0  0  0  0  0  0  0  0  0
    0.8290   26.5768  -27.4794 H   0  0  0  0  0  0  0  0  0  0  0  0
   -2.0757   25.5180  -29.2718 H   0  0  0  0  0  0  0  0  0  0  0  0
   -0.3550   25.7036  -28.7902 H   0  0  0  0  0  0  0  0  0  0  0  0
   -0.8788   23.4923  -29.8951 H   0  0  0  0  0  0  0  0  0  0  0  0
   -0.1997   23.3518  -28.2170 H   0  0  0  0  0  0  0  0  0  0  0  0
   -0.8743   21.4365  -27.5347 H   0  0  0  0  0  0  0  0  0  0  0  0
   -2.2742   21.4493  -26.6233 H   0  0  0  0  0  0  0  0  0  0  0  0
   -2.7218   19.7150  -28.9346 H   0  0  0  0  0  0  0  0  0  0  0  0
   -5.3720   26.0380  -28.6250 H   0  0  0  0  0  0  0  0  0  0  0  0
   -6.6480   24.7870  -28.6260 H   0  0  0  0  0  0  0  0  0  0  0  0
   -7.7849   23.6726  -31.0927 H   0  0  0  0  0  0  0  0  0  0  0  0
   -8.8582   21.4111  -32.4921 H   0  0  0  0  0  0  0  0  0  0  0  0
   -8.2100   19.2255  -33.5563 H   0  0  0  0  0  0  0  0  0  0  0  0
   -4.0676   19.8864  -32.3666 H   0  0  0  0  0  0  0  0  0  0  0  0
   -3.9543   24.2134  -28.4303 H   0  0  0  0  0  0  0  0  0  0  0  0
   -4.0813   22.9328  -27.1585 H   0  0  0  0  0  0  0  0  0  0  0  0
   -3.5981   25.2737  -26.2915 H   0  0  0  0  0  0  0  0  0  0  0  0
   -2.4141   23.9895  -25.8050 H   0  0  0  0  0  0  0  0  0  0  0  0
  1  2  2  0
  2  3  1  0
  3  4  2  0
  3  5  1  0
  5  6  1  0
  6  7  1  0
  7  8  1  0
  8  9  1  0
  9 10  1  0
 10 11  2  0
 11 12  1  0
 12 13  2  0
 12 14  1  0
 14 15  1  0
 15 16  1  0
 16 17  1  0
 16 18  2  0
 15 19  2  0
 19 20  1  0
 20 21  2  0
 21 22  1  0
 22 23  2  0
 23 24  1  0
 24 25  1  0
 24 26  1  0
 24 27  1  0
 23 28  1  0
 28 29  2  0
  8 30  1  0
 30 31  1  0
 31  5  1  0
 11  8  1  0
 29 14  1  0
 29 20  1  0
  1 32  1  0
  1 33  1  0
  2 34  1  0
  6 35  1  0
  6 36  1  0
  7 37  1  0
  7 38  1  0
  9 39  1  0
  9 40  1  0
 10 41  1  0
 17 42  1  0
 17 43  1  0
 19 44  1  0
 21 45  1  0
 22 46  1  0
 28 47  1  0
 30 48  1  0
 30 49  1  0
 31 50  1  0
 31 51  1  0
M  END
>  <UniqueID>  (53) 
52

>  <SMILES>  (53) 
C=CC(=O)N1CCC2(CC=C2C(=O)n2c(C(N)=O)cc3ccc(C(F)(F)F)cc32)CC1

>  <Energy>  (53) 
134.40719867520363

>  <Genealogy>  (53) 
C=CC(=O)N1CCC2(CC=C2C(=O)n2c(C(N)=O)cc3ccc(C(F)(F)F)cc32)CC1 (3D coordinates assigned)
C=CC(=O)N1CCC2(CC=C2C(=O)n2c(C(N)=O)cc3ccc(C(F)(F)F)cc32)CC1 (nonaromatic ring conformer: 134.40719867520363 kcal/mol)

>  <smiles>  (53) 
C=CC(=O)N1CCC2(CC=C2C(=O)n2c(C(N)=O)cc3ccc(C(F)(F)F)cc32)CC1

>  <score_type>  (53) 
oracle

>  <origin>  (53) 
adg

>  <m_score__min__energy>  (53) 
-10.24

>  <m_primary>  (53) 
energy

$$$$
53:0
     RDKit          3D

 42 43  0  0  0  0  0  0  0  0999 V2000
   -9.2030   20.7610  -31.9800 C   0  0  0  0  0  0  0  0  0  0  0  0
   -9.1570   21.5560  -30.9120 C   0  0  0  0  0  0  0  0  0  0  0  0
   -7.9890   22.3940  -30.5680 C   0  0  0  0  0  0  0  0  0  0  0  0
   -7.8070   22.6830  -29.3550 O   0  0  0  0  0  0  0  0  0  0  0  0
   -7.0570   22.9410  -31.5790 C   0  0  0  0  0  0  0  0  0  0  0  0
   -7.4580   23.7970  -32.4140 O   0  0  0  0  0  0  0  0  0  0  0  0
   -5.6730   22.5560  -31.5730 N   0  0  0  0  0  0  0  0  0  0  0  0
   -4.6140   23.2780  -31.1190 C   0  0  0  0  0  0  0  0  0  0  0  0
   -4.6900   24.5690  -30.4070 C   0  0  0  0  0  0  0  0  0  0  0  0
   -5.6120   24.7710  -29.3350 N   0  0  0  0  0  0  0  0  0  0  0  0
   -3.8960   25.4970  -30.7180 O   0  0  0  0  0  0  0  0  0  0  0  0
   -3.4170   22.6250  -31.4020 C   0  0  0  0  0  0  0  0  0  0  0  0
   -3.7810   21.4630  -32.0440 C   0  0  0  0  0  0  0  0  0  0  0  0
   -2.9940   20.4430  -32.5640 C   0  0  0  0  0  0  0  0  0  0  0  0
   -3.6370   19.3770  -33.2140 C   0  0  0  0  0  0  0  0  0  0  0  0
   -5.0530   19.3480  -33.3530 C   0  0  0  0  0  0  0  0  0  0  0  0
   -5.7090   18.2510  -34.0380 N   0  0  0  0  0  0  0  0  0  0  0  0
   -5.2210   17.7940  -35.3460 C   0  0  0  0  0  0  0  0  0  0  0  0
   -6.8670   17.5690  -33.4440 C   0  0  0  0  0  0  0  0  0  0  0  0
   -6.7510   17.4980  -31.9520 C   0  0  0  0  0  0  0  0  0  0  0  0
   -7.4750   18.2340  -31.2230 O   0  0  0  0  0  0  0  0  0  0  0  0
   -5.8050   16.6400  -31.3820 O   0  0  0  0  0  0  0  0  0  0  0  0
   -4.9980   15.7620  -32.1590 C   0  0  0  0  0  0  0  0  0  0  0  0
   -5.8130   20.4170  -32.8120 C   0  0  0  0  0  0  0  0  0  0  0  0
   -5.1460   21.4490  -32.1430 C   0  0  0  0  0  0  0  0  0  0  0  0
  -10.1031   20.1615  -32.1810 H   0  0  0  0  0  0  0  0  0  0  0  0
   -8.3409   20.7041  -32.6608 H   0  0  0  0  0  0  0  0  0  0  0  0
  -10.0353   21.5907  -30.2507 H   0  0  0  0  0  0  0  0  0  0  0  0
   -6.1250   23.9710  -28.9020 H   0  0  0  0  0  0  0  0  0  0  0  0
   -5.7010   25.7120  -28.8920 H   0  0  0  0  0  0  0  0  0  0  0  0
   -2.3984   22.9650  -31.1635 H   0  0  0  0  0  0  0  0  0  0  0  0
   -1.8984   20.4696  -32.4693 H   0  0  0  0  0  0  0  0  0  0  0  0
   -3.0363   18.5509  -33.6224 H   0  0  0  0  0  0  0  0  0  0  0  0
   -4.4252   17.0487  -35.2005 H   0  0  0  0  0  0  0  0  0  0  0  0
   -6.0501   17.3400  -35.9085 H   0  0  0  0  0  0  0  0  0  0  0  0
   -4.8223   18.6511  -35.9085 H   0  0  0  0  0  0  0  0  0  0  0  0
   -7.7814   18.1213  -33.7064 H   0  0  0  0  0  0  0  0  0  0  0  0
   -6.9053   16.5428  -33.8383 H   0  0  0  0  0  0  0  0  0  0  0  0
   -4.4070   15.1190  -31.4902 H   0  0  0  0  0  0  0  0  0  0  0  0
   -5.6429   15.1364  -32.7936 H   0  0  0  0  0  0  0  0  0  0  0  0
   -4.3204   16.3520  -32.7936 H   0  0  0  0  0  0  0  0  0  0  0  0
   -6.9079   20.4341  -32.9168 H   0  0  0  0  0  0  0  0  0  0  0  0
  1  2  2  0
  2  3  1  0
  3  4  2  0
  3  5  1  0
  5  6  2  0
  5  7  1  0
  7  8  1  0
  8  9  1  0
  9 10  1  0
  9 11  2  0
  8 12  2  0
 12 13  1  0
 13 14  2  0
 14 15  1  0
 15 16  2  0
 16 17  1  0
 17 18  1  0
 17 19  1  0
 19 20  1  0
 20 21  2  0
 20 22  1  0
 22 23  1  0
 16 24  1  0
 24 25  2  0
 25  7  1  0
 25 13  1  0
  1 26  1  0
  1 27  1  0
  2 28  1  0
 10 29  1  0
 10 30  1  0
 12 31  1  0
 14 32  1  0
 15 33  1  0
 18 34  1  0
 18 35  1  0
 18 36  1  0
 19 37  1  0
 19 38  1  0
 23 39  1  0
 23 40  1  0
 23 41  1  0
 24 42  1  0
M  END
>  <UniqueID>  (54) 
53

>  <SMILES>  (54) 
C=CC(=O)C(=O)n1c(C(N)=O)cc2ccc(N(C)CC(=O)OC)cc21

>  <Energy>  (54) 
82.77855876989246

>  <Genealogy>  (54) 
C=CC(=O)C(=O)n1c(C(N)=O)cc2ccc(N(C)CC(=O)OC)cc21 (3D coordinates assigned)
C=CC(=O)C(=O)n1c(C(N)=O)cc2ccc(N(C)CC(=O)OC)cc21 (optimized conformer: 82.77855876989246 kcal/mol)

>  <smiles>  (54) 
C=CC(=O)C(=O)n1c(C(N)=O)cc2ccc(N(C)CC(=O)OC)cc21

>  <score_type>  (54) 
oracle

>  <origin>  (54) 
adg

>  <m_score__min__energy>  (54) 
-8.3499999999999996

>  <m_primary>  (54) 
energy

$$$$
54:0
     RDKit          3D

 43 44  0  0  0  0  0  0  0  0999 V2000
   -4.6640   14.7730  -34.1150 C   0  0  0  0  0  0  0  0  0  0  0  0
   -5.3580   16.0570  -34.2420 N   0  0  0  0  0  0  0  0  0  0  0  0
   -6.7400   16.2050  -33.7660 C   0  0  0  0  0  0  0  0  0  0  0  0
   -6.9280   17.5420  -33.1940 C   0  0  0  0  0  0  0  0  0  0  0  0
   -7.0580   18.6480  -32.7380 C   0  0  0  0  0  0  0  0  0  0  0  0
   -7.1750   19.9800  -32.2060 C   0  0  0  0  0  0  0  0  0  0  0  0
   -8.4460   20.5180  -31.8980 C   0  0  0  0  0  0  0  0  0  0  0  0
   -8.5610   21.8260  -31.3950 C   0  0  0  0  0  0  0  0  0  0  0  0
   -7.3920   22.5660  -31.2260 C   0  0  0  0  0  0  0  0  0  0  0  0
   -7.2090   23.8430  -30.7450 C   0  0  0  0  0  0  0  0  0  0  0  0
   -5.8320   24.0620  -30.7920 C   0  0  0  0  0  0  0  0  0  0  0  0
   -5.1960   25.3440  -30.4170 C   0  0  0  0  0  0  0  0  0  0  0  0
   -3.8830   25.6720  -30.8650 N   0  0  0  0  0  0  0  0  0  0  0  0
   -5.8330   26.1750  -29.7170 O   0  0  0  0  0  0  0  0  0  0  0  0
   -5.1910   22.9650  -31.2830 N   0  0  0  0  0  0  0  0  0  0  0  0
   -3.7750   22.7560  -31.4170 C   0  0  0  0  0  0  0  0  0  0  0  0
   -3.3110   22.2960  -32.4960 O   0  0  0  0  0  0  0  0  0  0  0  0
   -2.8570   23.1020  -30.3220 C   0  0  0  0  0  0  0  0  0  0  0  0
   -1.6120   22.9740  -30.4810 O   0  0  0  0  0  0  0  0  0  0  0  0
   -3.3800   23.5690  -29.0730 N   0  0  0  0  0  0  0  0  0  0  0  0
   -2.5680   23.7170  -27.8700 C   0  0  0  0  0  0  0  0  0  0  0  0
   -1.9780   25.1260  -27.7950 C   0  0  0  0  0  0  0  0  0  0  0  0
   -1.6350   25.5760  -29.0770 O   0  0  0  0  0  0  0  0  0  0  0  0
   -6.1580   22.0570  -31.5360 C   0  0  0  0  0  0  0  0  0  0  0  0
   -6.0130   20.7490  -32.0120 C   0  0  0  0  0  0  0  0  0  0  0  0
   -4.6720   17.1670  -34.8500 C   0  0  0  0  0  0  0  0  0  0  0  0
   -3.4490   17.3660  -34.6230 O   0  0  0  0  0  0  0  0  0  0  0  0
   -5.3530   18.0350  -35.6980 O   0  0  0  0  0  0  0  0  0  0  0  0
   -4.5331   14.5307  -33.0500 H   0  0  0  0  0  0  0  0  0  0  0  0
   -5.2591   13.9850  -34.5998 H   0  0  0  0  0  0  0  0  0  0  0  0
   -3.6788   14.8392  -34.5998 H   0  0  0  0  0  0  0  0  0  0  0  0
   -7.4332   16.0677  -34.6090 H   0  0  0  0  0  0  0  0  0  0  0  0
   -6.9410   15.4480  -32.9936 H   0  0  0  0  0  0  0  0  0  0  0  0
   -9.3495   19.9100  -32.0527 H   0  0  0  0  0  0  0  0  0  0  0  0
   -9.5432   22.2521  -31.1427 H   0  0  0  0  0  0  0  0  0  0  0  0
   -7.9839   24.5421  -30.3975 H   0  0  0  0  0  0  0  0  0  0  0  0
   -3.0390   25.2960  -30.3780 H   0  0  0  0  0  0  0  0  0  0  0  0
   -3.1962   23.5395  -26.9846 H   0  0  0  0  0  0  0  0  0  0  0  0
   -1.7457   22.9871  -27.9025 H   0  0  0  0  0  0  0  0  0  0  0  0
   -2.7215   25.8084  -27.3572 H   0  0  0  0  0  0  0  0  0  0  0  0
   -1.0740   25.1037  -27.1687 H   0  0  0  0  0  0  0  0  0  0  0  0
   -2.0660   24.9530  -29.7190 H   0  0  0  0  0  0  0  0  0  0  0  0
   -5.0178   20.3335  -32.2285 H   0  0  0  0  0  0  0  0  0  0  0  0
  1  2  1  0
  2  3  1  0
  3  4  1  0
  4  5  3  0
  5  6  1  0
  6  7  2  0
  7  8  1  0
  8  9  2  0
  9 10  1  0
 10 11  2  0
 11 12  1  0
 12 13  1  0
 12 14  2  0
 11 15  1  0
 15 16  1  0
 16 17  2  0
 16 18  1  0
 18 19  2  0
 18 20  1  0
 20 21  1  0
 21 22  1  0
 22 23  1  0
 15 24  1  0
 24 25  2  0
  2 26  1  0
 26 27  2  0
 26 28  1  0
 25  6  1  0
 24  9  1  0
  1 29  1  0
  1 30  1  0
  1 31  1  0
  3 32  1  0
  3 33  1  0
  7 34  1  0
  8 35  1  0
 10 36  1  0
 13 37  1  0
 21 38  1  0
 21 39  1  0
 22 40  1  0
 22 41  1  0
 23 42  1  0
 25 43  1  0
M  CHG  3  13  -1  20  -1  28  -1
M  END
>  <UniqueID>  (55) 
54

>  <SMILES>  (55) 
CN(CC#Cc1ccc2cc(C([NH-])=O)n(C(=O)C(=O)[N-]CCO)c2c1)C(=O)[O-]

>  <Energy>  (55) 
70.13960264100409

>  <Genealogy>  (55) 
CN(CC#Cc1ccc2cc(C([NH-])=O)n(C(=O)C(=O)[N-]CCO)c2c1)C(=O)[O-] (protonated)
CN(CC#Cc1ccc2cc(C([NH-])=O)n(C(=O)C(=O)[N-]CCO)c2c1)C(=O)[O-] (3D coordinates assigned)
CN(CC#Cc1ccc2cc(C([NH-])=O)n(C(=O)C(=O)[N-]CCO)c2c1)C(=O)[O-] (optimized conformer: 70.13960264100409 kcal/mol)

>  <smiles>  (55) 
CN(CC#Cc1ccc2cc(C(N)=O)n(C(=O)C(=O)NCCO)c2c1)C(=O)O

>  <score_type>  (55) 
oracle

>  <origin>  (55) 
adg

>  <m_score__min__energy>  (55) 
-11.81

>  <m_primary>  (55) 
energy

$$$$
55:0
     RDKit          3D

 58 60  0  0  0  0  0  0  0  0999 V2000
   -4.9630   12.4450  -31.6120 C   0  0  0  0  0  0  0  0  0  0  0  0
   -4.3830   13.7070  -31.9120 O   0  0  0  0  0  0  0  0  0  0  0  0
   -4.9340   14.5600  -32.8800 C   0  0  0  0  0  0  0  0  0  0  0  0
   -5.4220   14.0750  -33.9490 O   0  0  0  0  0  0  0  0  0  0  0  0
   -5.0160   15.9790  -32.6380 N   0  0  0  0  0  0  0  0  0  0  0  0
   -5.6150   16.6900  -33.8150 C   0  0  0  0  0  0  0  0  0  0  0  0
   -6.9400   17.3870  -33.4780 C   0  0  0  0  0  0  0  0  0  0  0  0
   -6.7270   18.2480  -32.3120 N   0  0  0  0  0  0  0  0  0  0  0  0
   -6.8490   19.6800  -32.3930 C   0  0  0  0  0  0  0  0  0  0  0  0
   -8.1340   20.2680  -32.5850 C   0  0  0  0  0  0  0  0  0  0  0  0
   -8.3520   21.6310  -32.3140 C   0  0  0  0  0  0  0  0  0  0  0  0
   -7.2770   22.3900  -31.8740 C   0  0  0  0  0  0  0  0  0  0  0  0
   -7.2610   23.6610  -31.3550 C   0  0  0  0  0  0  0  0  0  0  0  0
   -5.9510   23.8730  -30.9350 C   0  0  0  0  0  0  0  0  0  0  0  0
   -5.5070   25.1100  -30.2450 C   0  0  0  0  0  0  0  0  0  0  0  0
   -4.2160   25.6740  -30.4780 N   0  0  0  0  0  0  0  0  0  0  0  0
   -6.3030   25.6900  -29.4550 O   0  0  0  0  0  0  0  0  0  0  0  0
   -5.1770   22.7770  -31.2190 N   0  0  0  0  0  0  0  0  0  0  0  0
   -3.7760   22.5830  -30.9540 C   0  0  0  0  0  0  0  0  0  0  0  0
   -2.9280   23.1390  -31.7110 O   0  0  0  0  0  0  0  0  0  0  0  0
   -3.3620   21.7260  -29.9230 O   0  0  0  0  0  0  0  0  0  0  0  0
   -2.2990   22.0000  -28.9900 C   0  0  0  0  0  0  0  0  0  0  0  0
   -0.9280   21.8270  -29.6770 C   0  0  0  0  0  0  0  0  0  0  0  0
   -2.4070   21.0650  -27.7550 C   0  0  0  0  0  0  0  0  0  0  0  0
   -2.4370   23.4450  -28.5630 C   0  0  0  0  0  0  0  0  0  0  0  0
   -2.0620   24.3800  -29.3250 O   0  0  0  0  0  0  0  0  0  0  0  0
   -2.9580   23.7430  -27.2950 O   0  0  0  0  0  0  0  0  0  0  0  0
   -4.1680   24.4860  -27.1590 C   0  0  0  0  0  0  0  0  0  0  0  0
   -6.0120   21.8720  -31.7790 C   0  0  0  0  0  0  0  0  0  0  0  0
   -5.7600   20.5130  -32.0400 C   0  0  0  0  0  0  0  0  0  0  0  0
   -6.0630   17.6760  -31.1310 C   0  0  0  0  0  0  0  0  0  0  0  0
   -5.7070   16.1970  -31.3420 C   0  0  0  0  0  0  0  0  0  0  0  0
   -5.0212   12.3183  -30.5209 H   0  0  0  0  0  0  0  0  0  0  0  0
   -5.9745   12.3949  -32.0414 H   0  0  0  0  0  0  0  0  0  0  0  0
   -4.3423   11.6448  -32.0414 H   0  0  0  0  0  0  0  0  0  0  0  0
   -4.0270   16.3450  -32.5120 H   0  0  0  0  0  0  0  0  0  0  0  0
   -4.8999   17.4470  -34.1694 H   0  0  0  0  0  0  0  0  0  0  0  0
   -5.8253   15.9344  -34.5862 H   0  0  0  0  0  0  0  0  0  0  0  0
   -7.2678   17.9953  -34.3339 H   0  0  0  0  0  0  0  0  0  0  0  0
   -7.7152   16.6383  -33.2579 H   0  0  0  0  0  0  0  0  0  0  0  0
   -8.9657   19.6474  -32.9499 H   0  0  0  0  0  0  0  0  0  0  0  0
   -9.3463   22.0823  -32.4471 H   0  0  0  0  0  0  0  0  0  0  0  0
   -8.1049   24.3632  -31.2858 H   0  0  0  0  0  0  0  0  0  0  0  0
   -3.4340   25.0920  -30.8470 H   0  0  0  0  0  0  0  0  0  0  0  0
   -0.1442   21.7281  -28.9116 H   0  0  0  0  0  0  0  0  0  0  0  0
   -0.9437   20.9237  -30.3046 H   0  0  0  0  0  0  0  0  0  0  0  0
   -0.7188   22.7059  -30.3046 H   0  0  0  0  0  0  0  0  0  0  0  0
   -2.3379   21.6636  -26.8347 H   0  0  0  0  0  0  0  0  0  0  0  0
   -3.3720   20.5376  -27.7777 H   0  0  0  0  0  0  0  0  0  0  0  0
   -1.5876   20.3315  -27.7777 H   0  0  0  0  0  0  0  0  0  0  0  0
   -4.3948   24.6252  -26.0917 H   0  0  0  0  0  0  0  0  0  0  0  0
   -4.0512   25.4682  -27.6402 H   0  0  0  0  0  0  0  0  0  0  0  0
   -4.9911   23.9375  -27.6402 H   0  0  0  0  0  0  0  0  0  0  0  0
   -4.7401   20.1067  -31.9714 H   0  0  0  0  0  0  0  0  0  0  0  0
   -5.1399   18.2403  -30.9324 H   0  0  0  0  0  0  0  0  0  0  0  0
   -6.7567   17.7444  -30.2801 H   0  0  0  0  0  0  0  0  0  0  0  0
   -5.0462   15.8693  -30.5259 H   0  0  0  0  0  0  0  0  0  0  0  0
   -6.6414   15.6166  -31.3492 H   0  0  0  0  0  0  0  0  0  0  0  0
  1  2  1  0
  2  3  1  0
  3  4  2  0
  3  5  1  0
  5  6  1  0
  6  7  1  0
  7  8  1  0
  8  9  1  0
  9 10  2  0
 10 11  1  0
 11 12  2  0
 12 13  1  0
 13 14  2  0
 14 15  1  0
 15 16  1  0
 15 17  2  0
 14 18  1  0
 18 19  1  0
 19 20  2  0
 19 21  1  0
 21 22  1  0
 22 23  1  0
 22 24  1  0
 22 25  1  0
 25 26  2  0
 25 27  1  0
 27 28  1  0
 18 29  1  0
 29 30  2  0
  8 31  1  0
 31 32  1  0
 32  5  1  0
 30  9  1  0
 29 12  1  0
  1 33  1  0
  1 34  1  0
  1 35  1  0
  5 36  1  0
  6 37  1  0
  6 38  1  0
  7 39  1  0
  7 40  1  0
 10 41  1  0
 11 42  1  0
 13 43  1  0
 16 44  1  0
 23 45  1  0
 23 46  1  0
 23 47  1  0
 24 48  1  0
 24 49  1  0
 24 50  1  0
 28 51  1  0
 28 52  1  0
 28 53  1  0
 30 54  1  0
 31 55  1  0
 31 56  1  0
 32 57  1  0
 32 58  1  0
M  CHG  2   5   1  16  -1
M  END
>  <UniqueID>  (56) 
55

>  <SMILES>  (56) 
COC(=O)[NH+]1CCN(c2ccc3cc(C([NH-])=O)n(C(=O)OC(C)(C)C(=O)OC)c3c2)CC1

>  <Energy>  (56) 
116.26630240530096

>  <Genealogy>  (56) 
COC(=O)[NH+]1CCN(c2ccc3cc(C([NH-])=O)n(C(=O)OC(C)(C)C(=O)OC)c3c2)CC1 (protonated)
COC(=O)[NH+]1CCN(c2ccc3cc(C([NH-])=O)n(C(=O)OC(C)(C)C(=O)OC)c3c2)CC1 (3D coordinates assigned)
COC(=O)[NH+]1CCN(c2ccc3cc(C([NH-])=O)n(C(=O)OC(C)(C)C(=O)OC)c3c2)CC1 (nonaromatic ring conformer: 116.26630240530096 kcal/mol)

>  <smiles>  (56) 
COC(=O)N1CCN(c2ccc3cc(C(N)=O)n(C(=O)OC(C)(C)C(=O)OC)c3c2)CC1

>  <score_type>  (56) 
oracle

>  <origin>  (56) 
adg

>  <m_score__min__energy>  (56) 
-10.98

>  <m_primary>  (56) 
energy

$$$$
56:0
     RDKit          3D

 36 37  0  0  0  0  0  0  0  0999 V2000
   -3.2630   15.5850  -33.1040 C   0  0  0  0  0  0  0  0  0  0  0  0
   -4.1490   16.3950  -32.9950 C   0  0  0  0  0  0  0  0  0  0  0  0
   -5.2070   17.3620  -32.8630 C   0  0  0  0  0  0  0  0  0  0  0  0
   -6.5510   16.9310  -32.8060 C   0  0  0  0  0  0  0  0  0  0  0  0
   -7.5920   17.8640  -32.6560 C   0  0  0  0  0  0  0  0  0  0  0  0
   -7.2530   19.2120  -32.5750 C   0  0  0  0  0  0  0  0  0  0  0  0
   -8.0540   20.3150  -32.3860 C   0  0  0  0  0  0  0  0  0  0  0  0
   -7.1840   21.4020  -32.3630 C   0  0  0  0  0  0  0  0  0  0  0  0
   -7.6350   22.8030  -32.2320 C   0  0  0  0  0  0  0  0  0  0  0  0
   -6.7770   23.8920  -32.5770 N   0  0  0  0  0  0  0  0  0  0  0  0
   -8.8140   23.0400  -31.8590 O   0  0  0  0  0  0  0  0  0  0  0  0
   -5.8940   20.9900  -32.5200 N   0  0  0  0  0  0  0  0  0  0  0  0
   -4.7050   21.7930  -32.4500 C   0  0  0  0  0  0  0  0  0  0  0  0
   -4.2220   22.2980  -33.5020 O   0  0  0  0  0  0  0  0  0  0  0  0
   -4.0650   22.0120  -31.1910 N   0  0  0  0  0  0  0  0  0  0  0  0
   -4.6210   22.8780  -30.1600 C   0  0  0  0  0  0  0  0  0  0  0  0
   -4.3330   24.3020  -30.4980 C   0  0  0  0  0  0  0  0  0  0  0  0
   -5.0600   24.9110  -31.3300 O   0  0  0  0  0  0  0  0  0  0  0  0
   -3.2340   24.9680  -29.8690 N   0  0  0  0  0  0  0  0  0  0  0  0
   -2.1510   24.2700  -29.1860 C   0  0  0  0  0  0  0  0  0  0  0  0
   -1.0680   25.2320  -28.8180 C   0  0  0  0  0  0  0  0  0  0  0  0
   -1.2430   26.4710  -28.9610 O   0  0  0  0  0  0  0  0  0  0  0  0
    0.1540   24.7590  -28.3550 O   0  0  0  0  0  0  0  0  0  0  0  0
   -5.9540   19.6450  -32.6500 C   0  0  0  0  0  0  0  0  0  0  0  0
   -4.8960   18.7340  -32.7780 C   0  0  0  0  0  0  0  0  0  0  0  0
   -2.4545   14.8458  -33.2035 H   0  0  0  0  0  0  0  0  0  0  0  0
   -6.7846   15.8586  -32.8794 H   0  0  0  0  0  0  0  0  0  0  0  0
   -8.6416   17.5391  -32.6042 H   0  0  0  0  0  0  0  0  0  0  0  0
   -9.1484   20.3339  -32.2764 H   0  0  0  0  0  0  0  0  0  0  0  0
   -7.0890   24.8760  -32.4130 H   0  0  0  0  0  0  0  0  0  0  0  0
   -5.8640   23.7310  -33.0540 H   0  0  0  0  0  0  0  0  0  0  0  0
   -5.7092   22.7277  -30.1025 H   0  0  0  0  0  0  0  0  0  0  0  0
   -4.1650   22.6321  -29.1896 H   0  0  0  0  0  0  0  0  0  0  0  0
   -2.5423   23.7969  -28.2733 H   0  0  0  0  0  0  0  0  0  0  0  0
   -1.7374   23.5040  -29.8584 H   0  0  0  0  0  0  0  0  0  0  0  0
   -3.8525   19.0804  -32.8112 H   0  0  0  0  0  0  0  0  0  0  0  0
  1  2  3  0
  2  3  1  0
  3  4  2  0
  4  5  1  0
  5  6  2  0
  6  7  1  0
  7  8  2  0
  8  9  1  0
  9 10  1  0
  9 11  2  0
  8 12  1  0
 12 13  1  0
 13 14  2  0
 13 15  1  0
 15 16  1  0
 16 17  1  0
 17 18  2  0
 17 19  1  0
 19 20  1  0
 20 21  1  0
 21 22  2  0
 21 23  1  0
 12 24  1  0
 24 25  2  0
 25  3  1  0
 24  6  1  0
  1 26  1  0
  4 27  1  0
  5 28  1  0
  7 29  1  0
 10 30  1  0
 10 31  1  0
 16 32  1  0
 16 33  1  0
 20 34  1  0
 20 35  1  0
 25 36  1  0
M  CHG  3  15  -1  19  -1  23  -1
M  END
>  <UniqueID>  (57) 
56

>  <SMILES>  (57) 
C#Cc1ccc2cc(C(N)=O)n(C(=O)[N-]CC(=O)[N-]CC(=O)[O-])c2c1

>  <Energy>  (57) 
67.81020069714731

>  <Genealogy>  (57) 
C#Cc1ccc2cc(C(N)=O)n(C(=O)[N-]CC(=O)[N-]CC(=O)[O-])c2c1 (protonated)
C#Cc1ccc2cc(C(N)=O)n(C(=O)[N-]CC(=O)[N-]CC(=O)[O-])c2c1 (3D coordinates assigned)
C#Cc1ccc2cc(C(N)=O)n(C(=O)[N-]CC(=O)[N-]CC(=O)[O-])c2c1 (optimized conformer: 67.81020069714731 kcal/mol)

>  <smiles>  (57) 
C#Cc1ccc2cc(C(N)=O)n(C(=O)NCC(=O)NCC(=O)O)c2c1

>  <score_type>  (57) 
oracle

>  <origin>  (57) 
adg

>  <m_score__min__energy>  (57) 
-12.16

>  <m_primary>  (57) 
energy

$$$$
57:0
     RDKit          3D

 47 49  0  0  0  0  0  0  0  0999 V2000
   -3.4360   21.3570  -29.9500 C   0  0  0  0  0  0  0  0  0  0  0  0
   -3.1620   22.2790  -31.1480 C   0  0  1  0  0  0  0  0  0  0  0  0
   -1.9620   21.9090  -31.7770 O   0  0  0  0  0  0  0  0  0  0  0  0
   -4.3020   22.2770  -32.1450 C   0  0  0  0  0  0  0  0  0  0  0  0
   -4.0660   22.2930  -33.3850 O   0  0  0  0  0  0  0  0  0  0  0  0
   -5.6520   22.4020  -31.6860 N   0  0  0  0  0  0  0  0  0  0  0  0
   -6.2180   23.4310  -30.9930 C   0  0  0  0  0  0  0  0  0  0  0  0
   -5.4960   24.6360  -30.5160 C   0  0  0  0  0  0  0  0  0  0  0  0
   -5.7890   25.2280  -29.2460 N   0  0  0  0  0  0  0  0  0  0  0  0
   -4.5780   25.1360  -31.2130 O   0  0  0  0  0  0  0  0  0  0  0  0
   -7.5570   23.1360  -30.7100 C   0  0  0  0  0  0  0  0  0  0  0  0
   -7.7800   21.8840  -31.2440 C   0  0  0  0  0  0  0  0  0  0  0  0
   -8.9250   21.0940  -31.2350 C   0  0  0  0  0  0  0  0  0  0  0  0
   -8.8500   19.8220  -31.8350 C   0  0  0  0  0  0  0  0  0  0  0  0
   -7.6430   19.3730  -32.4330 C   0  0  0  0  0  0  0  0  0  0  0  0
   -7.5750   18.0080  -33.0700 C   0  0  0  0  0  0  0  0  0  0  0  0
   -6.3170   17.2360  -32.6450 C   0  0  0  0  0  0  0  0  0  0  0  0
   -5.2970   17.1640  -33.7480 C   0  0  0  0  0  0  0  0  0  0  0  0
   -5.5320   16.4720  -34.7730 O   0  0  0  0  0  0  0  0  0  0  0  0
   -4.0860   17.9310  -33.6710 N   0  0  0  0  0  0  0  0  0  0  0  0
   -3.4770   18.9230  -32.7610 C   0  0  0  0  0  0  0  0  0  0  0  0
   -2.2880   19.2090  -33.6300 C   0  0  0  0  0  0  0  0  0  0  0  0
   -2.2740   20.5170  -34.1500 O   0  0  0  0  0  0  0  0  0  0  0  0
   -2.9120   18.1880  -34.5300 C   0  0  0  0  0  0  0  0  0  0  0  0
   -6.5100   20.2150  -32.4380 C   0  0  0  0  0  0  0  0  0  0  0  0
   -6.6110   21.4640  -31.8210 C   0  0  0  0  0  0  0  0  0  0  0  0
   -3.2710   21.9121  -29.0148 H   0  0  0  0  0  0  0  0  0  0  0  0
   -4.4775   21.0052  -29.9887 H   0  0  0  0  0  0  0  0  0  0  0  0
   -2.7556   20.4935  -29.9887 H   0  0  0  0  0  0  0  0  0  0  0  0
   -3.0711   23.3046  -30.7609 H   0  0  0  0  0  0  0  0  0  0  0  0
   -2.0540   22.1070  -32.7450 H   0  0  0  0  0  0  0  0  0  0  0  0
   -6.4920   24.8180  -28.5940 H   0  0  0  0  0  0  0  0  0  0  0  0
   -5.2300   26.0450  -28.9120 H   0  0  0  0  0  0  0  0  0  0  0  0
   -8.2793   23.7695  -30.1744 H   0  0  0  0  0  0  0  0  0  0  0  0
   -9.8580   21.4510  -30.7745 H   0  0  0  0  0  0  0  0  0  0  0  0
   -9.7357   19.1696  -31.8404 H   0  0  0  0  0  0  0  0  0  0  0  0
   -8.4630   17.4320  -32.7708 H   0  0  0  0  0  0  0  0  0  0  0  0
   -7.5375   18.1440  -34.1609 H   0  0  0  0  0  0  0  0  0  0  0  0
   -5.8667   17.7416  -31.7781 H   0  0  0  0  0  0  0  0  0  0  0  0
   -6.6189   16.2081  -32.3955 H   0  0  0  0  0  0  0  0  0  0  0  0
   -4.1138   19.8063  -32.6052 H   0  0  0  0  0  0  0  0  0  0  0  0
   -3.2819   18.6064  -31.7258 H   0  0  0  0  0  0  0  0  0  0  0  0
   -1.2433   19.1596  -33.2892 H   0  0  0  0  0  0  0  0  0  0  0  0
   -2.8290   21.1000  -33.5710 H   0  0  0  0  0  0  0  0  0  0  0  0
   -3.1854   18.5975  -35.5136 H   0  0  0  0  0  0  0  0  0  0  0  0
   -2.2957   17.3221  -34.8137 H   0  0  0  0  0  0  0  0  0  0  0  0
   -5.5719   19.8957  -32.9155 H   0  0  0  0  0  0  0  0  0  0  0  0
  1  2  1  0
  2  3  1  0
  2  4  1  0
  4  5  2  0
  4  6  1  0
  6  7  1  0
  7  8  1  0
  8  9  1  0
  8 10  2  0
  7 11  2  0
 11 12  1  0
 12 13  2  0
 13 14  1  0
 14 15  2  0
 15 16  1  0
 16 17  1  0
 17 18  1  0
 18 19  2  0
 18 20  1  0
 20 21  1  0
 21 22  1  0
 22 23  1  0
 22 24  1  0
 15 25  1  0
 25 26  2  0
 26  6  1  0
 26 12  1  0
 24 20  1  0
  1 27  1  0
  1 28  1  0
  1 29  1  0
  2 30  1  1
  3 31  1  0
  9 32  1  0
  9 33  1  0
 11 34  1  0
 13 35  1  0
 14 36  1  0
 16 37  1  0
 16 38  1  0
 17 39  1  0
 17 40  1  0
 21 41  1  0
 21 42  1  0
 22 43  1  0
 23 44  1  0
 24 45  1  0
 24 46  1  0
 25 47  1  0
M  END
>  <UniqueID>  (58) 
57

>  <SMILES>  (58) 
C[C@@H](O)C(=O)n1c(C(N)=O)cc2ccc(CCC(=O)N3CC(O)C3)cc21

>  <Energy>  (58) 
130.55026529491064

>  <Genealogy>  (58) 
C[C@@H](O)C(=O)n1c(C(N)=O)cc2ccc(CCC(=O)N3CC(O)C3)cc21 (3D coordinates assigned)
C[C@@H](O)C(=O)n1c(C(N)=O)cc2ccc(CCC(=O)N3CC(O)C3)cc21 (nonaromatic ring conformer: 130.55026529491064 kcal/mol)

>  <smiles>  (58) 
C[C@@H](O)C(=O)n1c(C(N)=O)cc2ccc(CCC(=O)N3CC(O)C3)cc21

>  <score_type>  (58) 
oracle

>  <origin>  (58) 
adg

>  <m_score__min__energy>  (58) 
-9.3100000000000005

>  <m_primary>  (58) 
energy

$$$$
58:0
     RDKit          3D

 44 45  0  0  0  0  0  0  0  0999 V2000
   -3.9780   24.2110  -27.2730 C   0  0  0  0  0  0  0  0  0  0  0  0
   -2.4840   23.9290  -27.4590 C   0  0  0  0  0  0  0  0  0  0  0  0
   -1.6610   24.6120  -26.3600 C   0  0  0  0  0  0  0  0  0  0  0  0
   -2.0320   24.3760  -28.8220 C   0  0  0  0  0  0  0  0  0  0  0  0
   -1.5920   25.5480  -28.9910 O   0  0  0  0  0  0  0  0  0  0  0  0
   -2.1180   23.4840  -29.8980 O   0  0  0  0  0  0  0  0  0  0  0  0
   -3.1040   22.4550  -29.9890 C   0  0  0  0  0  0  0  0  0  0  0  0
   -3.8650   22.5520  -31.2820 C   0  0  0  0  0  0  0  0  0  0  0  0
   -3.2650   22.3480  -32.3730 O   0  0  0  0  0  0  0  0  0  0  0  0
   -5.2710   22.8520  -31.2830 N   0  0  0  0  0  0  0  0  0  0  0  0
   -5.8980   23.9400  -30.7580 C   0  0  0  0  0  0  0  0  0  0  0  0
   -5.2370   25.1570  -30.2550 C   0  0  0  0  0  0  0  0  0  0  0  0
   -4.0270   25.6210  -30.8430 N   0  0  0  0  0  0  0  0  0  0  0  0
   -5.7780   25.8330  -29.3390 O   0  0  0  0  0  0  0  0  0  0  0  0
   -7.2820   23.8090  -30.8650 C   0  0  0  0  0  0  0  0  0  0  0  0
   -7.4830   22.6030  -31.4980 C   0  0  0  0  0  0  0  0  0  0  0  0
   -8.6660   21.9760  -31.8750 C   0  0  0  0  0  0  0  0  0  0  0  0
   -8.5760   20.7320  -32.5190 C   0  0  0  0  0  0  0  0  0  0  0  0
   -7.3130   20.1300  -32.7630 C   0  0  0  0  0  0  0  0  0  0  0  0
   -7.2340   18.8450  -33.4200 N   0  0  0  0  0  0  0  0  0  0  0  0
   -6.3300   17.9270  -32.7110 C   0  0  0  0  0  0  0  0  0  0  0  0
   -5.2540   17.3830  -33.6080 C   0  0  0  0  0  0  0  0  0  0  0  0
   -4.3690   16.6210  -33.1450 O   0  0  0  0  0  0  0  0  0  0  0  0
   -5.2220   17.7440  -34.9490 O   0  0  0  0  0  0  0  0  0  0  0  0
   -6.1330   20.7930  -32.3510 C   0  0  0  0  0  0  0  0  0  0  0  0
   -6.2540   22.0440  -31.7370 C   0  0  0  0  0  0  0  0  0  0  0  0
   -4.2119   24.2551  -26.1991 H   0  0  0  0  0  0  0  0  0  0  0  0
   -4.2309   25.1727  -27.7432 H   0  0  0  0  0  0  0  0  0  0  0  0
   -4.5641   23.4076  -27.7432 H   0  0  0  0  0  0  0  0  0  0  0  0
   -2.3222   22.8439  -27.3792 H   0  0  0  0  0  0  0  0  0  0  0  0
   -2.0362   24.3007  -25.3739 H   0  0  0  0  0  0  0  0  0  0  0  0
   -0.6047   24.3215  -26.4589 H   0  0  0  0  0  0  0  0  0  0  0  0
   -1.7518   25.7038  -26.4589 H   0  0  0  0  0  0  0  0  0  0  0  0
   -2.6073   21.4749  -29.9364 H   0  0  0  0  0  0  0  0  0  0  0  0
   -3.8121   22.5729  -29.1555 H   0  0  0  0  0  0  0  0  0  0  0  0
   -3.1020   25.2960  -30.4860 H   0  0  0  0  0  0  0  0  0  0  0  0
   -8.0488   24.5173  -30.5181 H   0  0  0  0  0  0  0  0  0  0  0  0
   -9.6425   22.4409  -31.6745 H   0  0  0  0  0  0  0  0  0  0  0  0
   -9.4943   20.2175  -32.8384 H   0  0  0  0  0  0  0  0  0  0  0  0
   -6.9240   18.9540  -34.4140 H   0  0  0  0  0  0  0  0  0  0  0  0
   -8.1890   18.4180  -33.4390 H   0  0  0  0  0  0  0  0  0  0  0  0
   -5.8568   18.4686  -31.8787 H   0  0  0  0  0  0  0  0  0  0  0  0
   -6.9280   17.0780  -32.3483 H   0  0  0  0  0  0  0  0  0  0  0  0
   -5.1450   20.3361  -32.5096 H   0  0  0  0  0  0  0  0  0  0  0  0
  1  2  1  0
  2  3  1  0
  2  4  1  0
  4  5  2  0
  4  6  1  0
  6  7  1  0
  7  8  1  0
  8  9  2  0
  8 10  1  0
 10 11  1  0
 11 12  1  0
 12 13  1  0
 12 14  2  0
 11 15  2  0
 15 16  1  0
 16 17  2  0
 17 18  1  0
 18 19  2  0
 19 20  1  0
 20 21  1  0
 21 22  1  0
 22 23  2  0
 22 24  1  0
 19 25  1  0
 25 26  2  0
 26 10  1  0
 26 16  1  0
  1 27  1  0
  1 28  1  0
  1 29  1  0
  2 30  1  0
  3 31  1  0
  3 32  1  0
  3 33  1  0
  7 34  1  0
  7 35  1  0
 13 36  1  0
 15 37  1  0
 17 38  1  0
 18 39  1  0
 20 40  1  0
 20 41  1  0
 21 42  1  0
 21 43  1  0
 25 44  1  0
M  CHG  3  13  -1  20   1  24  -1
M  END
>  <UniqueID>  (59) 
58

>  <SMILES>  (59) 
CC(C)C(=O)OCC(=O)n1c(C([NH-])=O)cc2ccc([NH2+]CC(=O)[O-])cc21

>  <Energy>  (59) 
76.5149374210148

>  <Genealogy>  (59) 
CC(C)C(=O)OCC(=O)n1c(C([NH-])=O)cc2ccc([NH2+]CC(=O)[O-])cc21 (protonated)
CC(C)C(=O)OCC(=O)n1c(C([NH-])=O)cc2ccc([NH2+]CC(=O)[O-])cc21 (3D coordinates assigned)
CC(C)C(=O)OCC(=O)n1c(C([NH-])=O)cc2ccc([NH2+]CC(=O)[O-])cc21 (optimized conformer: 76.5149374210148 kcal/mol)

>  <smiles>  (59) 
CC(C)C(=O)OCC(=O)n1c(C(N)=O)cc2ccc(NCC(=O)O)cc21

>  <score_type>  (59) 
oracle

>  <origin>  (59) 
adg

>  <m_score__min__energy>  (59) 
-10.08

>  <m_primary>  (59) 
energy

$$$$
59:0
     RDKit          3D

 39 40  0  0  0  0  0  0  0  0999 V2000
   -7.1890   22.3860  -30.3880 C   0  0  0  0  0  0  0  0  0  0  0  0
   -8.0890   22.0890  -31.6020 C   0  0  0  0  0  0  0  0  0  0  0  0
   -9.2950   21.2250  -31.1870 C   0  0  0  0  0  0  0  0  0  0  0  0
   -8.6040   23.4190  -32.1740 C   0  0  0  0  0  0  0  0  0  0  0  0
   -7.3370   21.4450  -32.6400 O   0  0  0  0  0  0  0  0  0  0  0  0
   -6.5270   20.3090  -32.4950 C   0  0  0  0  0  0  0  0  0  0  0  0
   -6.8160   19.3960  -31.6740 O   0  0  0  0  0  0  0  0  0  0  0  0
   -5.2660   20.2130  -33.2900 C   0  0  0  0  0  0  0  0  0  0  0  0
   -4.1090   20.6970  -32.4630 C   0  0  0  0  0  0  0  0  0  0  0  0
   -2.9180   19.9320  -32.3910 C   0  0  0  0  0  0  0  0  0  0  0  0
   -1.8170   20.3900  -31.6480 C   0  0  0  0  0  0  0  0  0  0  0  0
   -1.9300   21.6190  -31.0050 C   0  0  0  0  0  0  0  0  0  0  0  0
   -1.0290   22.2850  -30.2070 C   0  0  0  0  0  0  0  0  0  0  0  0
   -1.6670   23.4660  -29.8350 C   0  0  0  0  0  0  0  0  0  0  0  0
   -1.0130   24.5260  -29.0400 C   0  0  0  0  0  0  0  0  0  0  0  0
   -1.5760   25.8310  -28.9490 N   0  0  0  0  0  0  0  0  0  0  0  0
    0.0870   24.2890  -28.4720 O   0  0  0  0  0  0  0  0  0  0  0  0
   -2.9200   23.5240  -30.3720 N   0  0  0  0  0  0  0  0  0  0  0  0
   -3.9250   24.5300  -30.1620 C   0  0  0  0  0  0  0  0  0  0  0  0
   -3.8600   25.6310  -30.7690 O   0  0  0  0  0  0  0  0  0  0  0  0
   -4.9670   24.3050  -29.2700 O   0  0  0  0  0  0  0  0  0  0  0  0
   -3.0640   22.3860  -31.0880 C   0  0  0  0  0  0  0  0  0  0  0  0
   -4.1830   21.9450  -31.8060 C   0  0  0  0  0  0  0  0  0  0  0  0
   -7.7510   22.2005  -29.4608 H   0  0  0  0  0  0  0  0  0  0  0  0
   -6.3051   21.7319  -30.4181 H   0  0  0  0  0  0  0  0  0  0  0  0
   -6.8680   23.4377  -30.4181 H   0  0  0  0  0  0  0  0  0  0  0  0
   -9.3549   21.1821  -30.0895 H   0  0  0  0  0  0  0  0  0  0  0  0
  -10.2187   21.6681  -31.5876 H   0  0  0  0  0  0  0  0  0  0  0  0
   -9.1725   20.2079  -31.5876 H   0  0  0  0  0  0  0  0  0  0  0  0
   -8.8663   24.0964  -31.3479 H   0  0  0  0  0  0  0  0  0  0  0  0
   -7.8196   23.8807  -32.7918 H   0  0  0  0  0  0  0  0  0  0  0  0
   -9.4947   23.2320  -32.7918 H   0  0  0  0  0  0  0  0  0  0  0  0
   -5.0954   19.1658  -33.5803 H   0  0  0  0  0  0  0  0  0  0  0  0
   -5.3553   20.8361  -34.1921 H   0  0  0  0  0  0  0  0  0  0  0  0
   -2.8551   18.9706  -32.9218 H   0  0  0  0  0  0  0  0  0  0  0  0
   -0.8942   19.7955  -31.5767 H   0  0  0  0  0  0  0  0  0  0  0  0
   -0.0189   21.9549  -29.9229 H   0  0  0  0  0  0  0  0  0  0  0  0
   -2.6100   25.9730  -28.9740 H   0  0  0  0  0  0  0  0  0  0  0  0
   -5.0966   22.5555  -31.8569 H   0  0  0  0  0  0  0  0  0  0  0  0
  1  2  1  0
  2  3  1  0
  2  4  1  0
  2  5  1  0
  5  6  1  0
  6  7  2  0
  6  8  1  0
  8  9  1  0
  9 10  2  0
 10 11  1  0
 11 12  2  0
 12 13  1  0
 13 14  2  0
 14 15  1  0
 15 16  1  0
 15 17  2  0
 14 18  1  0
 18 19  1  0
 19 20  2  0
 19 21  1  0
 18 22  1  0
 22 23  2  0
 23  9  1  0
 22 12  1  0
  1 24  1  0
  1 25  1  0
  1 26  1  0
  3 27  1  0
  3 28  1  0
  3 29  1  0
  4 30  1  0
  4 31  1  0
  4 32  1  0
  8 33  1  0
  8 34  1  0
 10 35  1  0
 11 36  1  0
 13 37  1  0
 16 38  1  0
 23 39  1  0
M  CHG  2  16  -1  21  -1
M  END
>  <UniqueID>  (60) 
59

>  <SMILES>  (60) 
CC(C)(C)OC(=O)Cc1ccc2cc(C([NH-])=O)n(C(=O)[O-])c2c1

>  <Energy>  (60) 
71.97841650888091

>  <Genealogy>  (60) 
CC(C)(C)OC(=O)Cc1ccc2cc(C([NH-])=O)n(C(=O)[O-])c2c1 (protonated)
CC(C)(C)OC(=O)Cc1ccc2cc(C([NH-])=O)n(C(=O)[O-])c2c1 (3D coordinates assigned)
CC(C)(C)OC(=O)Cc1ccc2cc(C([NH-])=O)n(C(=O)[O-])c2c1 (optimized conformer: 71.97841650888091 kcal/mol)

>  <smiles>  (60) 
CC(C)(C)OC(=O)Cc1ccc2cc(C(N)=O)n(C(=O)O)c2c1

>  <score_type>  (60) 
oracle

>  <origin>  (60) 
adg

>  <m_score__min__energy>  (60) 
-11.58

>  <m_primary>  (60) 
energy

$$$$
60:0
     RDKit          3D

 57 59  0  0  0  0  0  0  0  0999 V2000
   -4.7870   14.2160  -34.4950 C   0  0  0  0  0  0  0  0  0  0  0  0
   -4.5360   15.4720  -33.7700 N   0  0  0  0  0  0  0  0  0  0  0  0
   -5.2990   15.5060  -32.4960 C   0  0  0  0  0  0  0  0  0  0  0  0
   -5.6530   16.9320  -32.0690 C   0  0  0  0  0  0  0  0  0  0  0  0
   -6.5840   17.5680  -33.1200 C   0  0  0  0  0  0  0  0  0  0  0  0
   -6.7120   19.0220  -32.9130 N   0  0  0  0  0  0  0  0  0  0  0  0
   -6.1320   19.9810  -33.8590 C   0  0  0  0  0  0  0  0  0  0  0  0
   -7.5400   19.5030  -31.8390 C   0  0  0  0  0  0  0  0  0  0  0  0
   -8.5370   18.8260  -31.4730 O   0  0  0  0  0  0  0  0  0  0  0  0
   -7.2380   20.7200  -31.1470 N   0  0  0  0  0  0  0  0  0  0  0  0
   -7.7160   22.0350  -31.5510 C   0  0  0  0  0  0  0  0  0  0  0  0
   -6.5980   23.0210  -31.4390 C   0  0  0  0  0  0  0  0  0  0  0  0
   -6.7930   24.2170  -31.7930 O   0  0  0  0  0  0  0  0  0  0  0  0
   -5.3070   22.5910  -30.9820 N   0  0  0  0  0  0  0  0  0  0  0  0
   -4.1840   23.4670  -30.8070 C   0  0  0  0  0  0  0  0  0  0  0  0
   -4.3150   24.7130  -30.9460 O   0  0  0  0  0  0  0  0  0  0  0  0
   -2.9080   22.9300  -30.4250 N   0  0  0  0  0  0  0  0  0  0  0  0
   -2.0160   23.4460  -29.5330 C   0  0  0  0  0  0  0  0  0  0  0  0
   -2.2470   24.6140  -28.6570 C   0  0  0  0  0  0  0  0  0  0  0  0
   -1.6100   25.8550  -28.9470 N   0  0  0  0  0  0  0  0  0  0  0  0
   -2.9790   24.5190  -27.6370 O   0  0  0  0  0  0  0  0  0  0  0  0
   -0.8590   22.6680  -29.4960 C   0  0  0  0  0  0  0  0  0  0  0  0
   -1.0770   21.6490  -30.3960 C   0  0  0  0  0  0  0  0  0  0  0  0
   -0.2500   20.5980  -30.7760 C   0  0  0  0  0  0  0  0  0  0  0  0
   -0.7220   19.7080  -31.7570 C   0  0  0  0  0  0  0  0  0  0  0  0
   -2.0100   19.8780  -32.3300 C   0  0  0  0  0  0  0  0  0  0  0  0
   -2.5040   18.9590  -33.4180 C   0  0  0  0  0  0  0  0  0  0  0  0
   -3.0660   17.8340  -32.8440 F   0  0  0  0  0  0  0  0  0  0  0  0
   -1.4470   18.5740  -34.2240 F   0  0  0  0  0  0  0  0  0  0  0  0
   -3.4540   19.5780  -34.2110 F   0  0  0  0  0  0  0  0  0  0  0  0
   -2.8130   20.9680  -31.9250 C   0  0  0  0  0  0  0  0  0  0  0  0
   -2.3210   21.8290  -30.9400 C   0  0  0  0  0  0  0  0  0  0  0  0
   -6.1540   17.2330  -34.5710 C   0  0  0  0  0  0  0  0  0  0  0  0
   -4.7310   16.6530  -34.6490 C   0  0  0  0  0  0  0  0  0  0  0  0
   -4.9496   13.4021  -33.7731 H   0  0  0  0  0  0  0  0  0  0  0  0
   -5.6802   14.3296  -35.1269 H   0  0  0  0  0  0  0  0  0  0  0  0
   -3.9187   13.9776  -35.1269 H   0  0  0  0  0  0  0  0  0  0  0  0
   -6.2297   14.9342  -32.6257 H   0  0  0  0  0  0  0  0  0  0  0  0
   -4.6642   15.0677  -31.7118 H   0  0  0  0  0  0  0  0  0  0  0  0
   -6.1632   16.9069  -31.0948 H   0  0  0  0  0  0  0  0  0  0  0  0
   -4.7326   17.5286  -31.9862 H   0  0  0  0  0  0  0  0  0  0  0  0
   -7.5787   17.1204  -32.9775 H   0  0  0  0  0  0  0  0  0  0  0  0
   -5.6408   20.7932  -33.3030 H   0  0  0  0  0  0  0  0  0  0  0  0
   -5.3916   19.4698  -34.4918 H   0  0  0  0  0  0  0  0  0  0  0  0
   -6.9286   20.3994  -34.4918 H   0  0  0  0  0  0  0  0  0  0  0  0
   -8.0677   21.9945  -32.5925 H   0  0  0  0  0  0  0  0  0  0  0  0
   -8.5464   22.3426  -30.8984 H   0  0  0  0  0  0  0  0  0  0  0  0
   -5.1780   21.5800  -30.7530 H   0  0  0  0  0  0  0  0  0  0  0  0
   -1.2320   26.0550  -29.8990 H   0  0  0  0  0  0  0  0  0  0  0  0
    0.0367   22.8333  -28.8793 H   0  0  0  0  0  0  0  0  0  0  0  0
    0.7437   20.4666  -30.3229 H   0  0  0  0  0  0  0  0  0  0  0  0
   -0.0869   18.8715  -32.0839 H   0  0  0  0  0  0  0  0  0  0  0  0
   -3.8029   21.1351  -32.3747 H   0  0  0  0  0  0  0  0  0  0  0  0
   -6.8577   16.4961  -34.9855 H   0  0  0  0  0  0  0  0  0  0  0  0
   -6.1627   18.1711  -35.1454 H   0  0  0  0  0  0  0  0  0  0  0  0
   -4.5314   16.3530  -35.6883 H   0  0  0  0  0  0  0  0  0  0  0  0
   -4.0379   17.4356  -34.3067 H   0  0  0  0  0  0  0  0  0  0  0  0
  1  2  1  0
  2  3  1  0
  3  4  1  0
  4  5  1  0
  5  6  1  0
  6  7  1  0
  6  8  1  0
  8  9  2  0
  8 10  1  0
 10 11  1  0
 11 12  1  0
 12 13  2  0
 12 14  1  0
 14 15  1  0
 15 16  2  0
 15 17  1  0
 17 18  1  0
 18 19  1  0
 19 20  1  0
 19 21  2  0
 18 22  2  0
 22 23  1  0
 23 24  2  0
 24 25  1  0
 25 26  2  0
 26 27  1  0
 27 28  1  0
 27 29  1  0
 27 30  1  0
 26 31  1  0
 31 32  2  0
  5 33  1  0
 33 34  1  0
 34  2  1  0
 32 17  1  0
 32 23  1  0
  1 35  1  0
  1 36  1  0
  1 37  1  0
  3 38  1  0
  3 39  1  0
  4 40  1  0
  4 41  1  0
  5 42  1  0
  7 43  1  0
  7 44  1  0
  7 45  1  0
 11 46  1  0
 11 47  1  0
 14 48  1  0
 20 49  1  0
 22 50  1  0
 24 51  1  0
 25 52  1  0
 31 53  1  0
 33 54  1  0
 33 55  1  0
 34 56  1  0
 34 57  1  0
M  CHG  2  10  -1  20  -1
M  END
>  <UniqueID>  (61) 
60

>  <SMILES>  (61) 
CN1CCC(N(C)C(=O)[N-]CC(=O)NC(=O)n2c(C([NH-])=O)cc3ccc(C(F)(F)F)cc32)CC1

>  <Energy>  (61) 
106.96878085572239

>  <Genealogy>  (61) 
CN1CCC(N(C)C(=O)[N-]CC(=O)NC(=O)n2c(C([NH-])=O)cc3ccc(C(F)(F)F)cc32)CC1 (protonated)
CN1CCC(N(C)C(=O)[N-]CC(=O)NC(=O)n2c(C([NH-])=O)cc3ccc(C(F)(F)F)cc32)CC1 (3D coordinates assigned)
CN1CCC(N(C)C(=O)[N-]CC(=O)NC(=O)n2c(C([NH-])=O)cc3ccc(C(F)(F)F)cc32)CC1 (nonaromatic ring conformer: 106.96878085572239 kcal/mol)

>  <smiles>  (61) 
CN1CCC(N(C)C(=O)NCC(=O)NC(=O)n2c(C(N)=O)cc3ccc(C(F)(F)F)cc32)CC1

>  <score_type>  (61) 
oracle

>  <origin>  (61) 
adg

>  <m_score__min__energy>  (61) 
-13.19

>  <m_primary>  (61) 
energy

$$$$
61:0
     RDKit          3D

 33 34  0  0  0  0  0  0  0  0999 V2000
   -6.0740   25.3430  -29.0490 N   0  0  0  0  0  0  0  0  0  0  0  0
   -5.4990   24.8750  -30.2690 C   0  0  0  0  0  0  0  0  0  0  0  0
   -4.6180   25.5680  -30.8430 O   0  0  0  0  0  0  0  0  0  0  0  0
   -5.9660   23.6260  -30.9020 C   0  0  0  0  0  0  0  0  0  0  0  0
   -7.3090   23.2680  -30.9930 C   0  0  0  0  0  0  0  0  0  0  0  0
   -7.3110   22.0180  -31.5680 C   0  0  0  0  0  0  0  0  0  0  0  0
   -8.3800   21.1990  -31.9160 C   0  0  0  0  0  0  0  0  0  0  0  0
   -8.0950   19.9720  -32.5370 C   0  0  0  0  0  0  0  0  0  0  0  0
   -6.7550   19.5840  -32.7980 C   0  0  0  0  0  0  0  0  0  0  0  0
   -6.4770   18.2900  -33.5200 C   0  0  0  0  0  0  0  0  0  0  0  0
   -6.1700   18.5640  -34.8410 F   0  0  0  0  0  0  0  0  0  0  0  0
   -5.4150   17.6170  -32.9410 F   0  0  0  0  0  0  0  0  0  0  0  0
   -7.5880   17.4660  -33.4760 F   0  0  0  0  0  0  0  0  0  0  0  0
   -5.6980   20.4600  -32.4580 C   0  0  0  0  0  0  0  0  0  0  0  0
   -6.0090   21.6650  -31.8160 C   0  0  0  0  0  0  0  0  0  0  0  0
   -5.1690   22.6470  -31.4150 N   0  0  0  0  0  0  0  0  0  0  0  0
   -3.7460   22.7010  -31.6100 C   0  0  0  0  0  0  0  0  0  0  0  0
   -3.2070   22.0110  -32.5190 O   0  0  0  0  0  0  0  0  0  0  0  0
   -2.9650   23.5300  -30.7950 O   0  0  0  0  0  0  0  0  0  0  0  0
   -2.0080   23.0370  -29.8600 C   0  0  0  0  0  0  0  0  0  0  0  0
   -1.5960   24.1340  -28.8790 C   0  0  0  0  0  0  0  0  0  0  0  0
   -2.3380   25.3000  -29.1100 O   0  0  0  0  0  0  0  0  0  0  0  0
   -6.9140   24.8770  -28.6380 H   0  0  0  0  0  0  0  0  0  0  0  0
   -5.7040   26.2050  -28.5910 H   0  0  0  0  0  0  0  0  0  0  0  0
   -8.1808   23.8579  -30.6737 H   0  0  0  0  0  0  0  0  0  0  0  0
   -9.4171   21.5031  -31.7111 H   0  0  0  0  0  0  0  0  0  0  0  0
   -8.9201   19.3038  -32.8245 H   0  0  0  0  0  0  0  0  0  0  0  0
   -4.6551   20.2006  -32.6926 H   0  0  0  0  0  0  0  0  0  0  0  0
   -2.4488   22.1990  -29.3002 H   0  0  0  0  0  0  0  0  0  0  0  0
   -1.1165   22.7017  -30.4102 H   0  0  0  0  0  0  0  0  0  0  0  0
   -1.7766   23.7872  -27.8508 H   0  0  0  0  0  0  0  0  0  0  0  0
   -0.5282   24.3567  -29.0208 H   0  0  0  0  0  0  0  0  0  0  0  0
   -3.2800   25.0150  -29.2420 H   0  0  0  0  0  0  0  0  0  0  0  0
  1  2  1  0
  2  3  2  0
  2  4  1  0
  4  5  2  0
  5  6  1  0
  6  7  2  0
  7  8  1  0
  8  9  2  0
  9 10  1  0
 10 11  1  0
 10 12  1  0
 10 13  1  0
  9 14  1  0
 14 15  2  0
 15 16  1  0
 16 17  1  0
 17 18  2  0
 17 19  1  0
 19 20  1  0
 20 21  1  0
 21 22  1  0
 16  4  1  0
 15  6  1  0
  1 23  1  0
  1 24  1  0
  5 25  1  0
  7 26  1  0
  8 27  1  0
 14 28  1  0
 20 29  1  0
 20 30  1  0
 21 31  1  0
 21 32  1  0
 22 33  1  0
M  END
>  <UniqueID>  (62) 
61

>  <SMILES>  (62) 
NC(=O)c1cc2ccc(C(F)(F)F)cc2n1C(=O)OCCO

>  <Energy>  (62) 
69.19684003020733

>  <Genealogy>  (62) 
NC(=O)c1cc2ccc(C(F)(F)F)cc2n1C(=O)OCCO (3D coordinates assigned)
NC(=O)c1cc2ccc(C(F)(F)F)cc2n1C(=O)OCCO (optimized conformer: 69.19684003020733 kcal/mol)

>  <smiles>  (62) 
NC(=O)c1cc2ccc(C(F)(F)F)cc2n1C(=O)OCCO

>  <score_type>  (62) 
oracle

>  <origin>  (62) 
adg

>  <m_score__min__energy>  (62) 
-8.3100000000000005

>  <m_primary>  (62) 
energy

$$$$
62:0
     RDKit          3D

 41 42  0  0  0  0  0  0  0  0999 V2000
   -3.1170   24.6560  -31.1770 H   0  0  0  0  0  0  0  0  0  0  0  0
   -3.6580   25.2610  -30.5220 N   0  0  0  0  0  0  0  0  0  0  0  0
   -5.0840   25.2650  -30.5320 C   0  0  0  0  0  0  0  0  0  0  0  0
   -5.7000   26.2860  -30.1260 O   0  0  0  0  0  0  0  0  0  0  0  0
   -5.8450   24.0720  -30.9590 C   0  0  0  0  0  0  0  0  0  0  0  0
   -7.2340   23.9840  -30.8950 C   0  0  0  0  0  0  0  0  0  0  0  0
   -7.9397   24.7740  -30.5984 H   0  0  0  0  0  0  0  0  0  0  0  0
   -7.5350   22.6980  -31.2820 C   0  0  0  0  0  0  0  0  0  0  0  0
   -8.7710   22.0690  -31.4150 C   0  0  0  0  0  0  0  0  0  0  0  0
   -9.7055   22.5979  -31.1762 H   0  0  0  0  0  0  0  0  0  0  0  0
   -8.7860   20.7370  -31.8640 C   0  0  0  0  0  0  0  0  0  0  0  0
   -9.7459   20.2132  -31.9835 H   0  0  0  0  0  0  0  0  0  0  0  0
   -7.5770   20.0630  -32.1640 C   0  0  0  0  0  0  0  0  0  0  0  0
   -7.6110   18.6590  -32.6900 C   0  0  0  0  0  0  0  0  0  0  0  0
   -7.6281   17.9521  -31.8474 H   0  0  0  0  0  0  0  0  0  0  0  0
   -8.5128   18.5193  -33.3042 H   0  0  0  0  0  0  0  0  0  0  0  0
   -6.7170   18.4758  -33.3042 H   0  0  0  0  0  0  0  0  0  0  0  0
   -6.3430   20.7390  -32.0330 C   0  0  0  0  0  0  0  0  0  0  0  0
   -5.3964   20.2410  -32.2899 H   0  0  0  0  0  0  0  0  0  0  0  0
   -6.3570   22.0580  -31.5680 C   0  0  0  0  0  0  0  0  0  0  0  0
   -5.3100   22.8910  -31.3810 N   0  0  0  0  0  0  0  0  0  0  0  0
   -3.9330   22.5930  -31.6480 C   0  0  0  0  0  0  0  0  0  0  0  0
   -3.5590   22.3510  -32.8300 O   0  0  0  0  0  0  0  0  0  0  0  0
   -3.0130   22.5570  -30.5940 O   0  0  0  0  0  0  0  0  0  0  0  0
   -3.3700   22.2170  -29.2550 C   0  0  0  0  0  0  0  0  0  0  0  0
   -2.8202   21.3134  -28.9529 H   0  0  0  0  0  0  0  0  0  0  0  0
   -4.4541   22.0356  -29.2129 H   0  0  0  0  0  0  0  0  0  0  0  0
   -3.0310   23.3370  -28.3160 C   0  0  0  0  0  0  0  0  0  0  0  0
   -2.0297   23.7907  -28.3548 H   0  0  0  0  0  0  0  0  0  0  0  0
   -3.9250   23.7930  -27.4330 C   0  0  0  0  0  0  0  0  0  0  0  0
   -4.9172   23.3198  -27.3919 H   0  0  0  0  0  0  0  0  0  0  0  0
   -3.6320   24.9040  -26.5140 C   0  0  0  0  0  0  0  0  0  0  0  0
   -4.5000   25.3040  -25.6890 O   0  0  0  0  0  0  0  0  0  0  0  0
   -2.3730   25.5070  -26.5650 O   0  0  0  0  0  0  0  0  0  0  0  0
   -1.4250   25.3960  -25.5080 C   0  0  0  0  0  0  0  0  0  0  0  0
   -0.4485   25.1028  -25.9209 H   0  0  0  0  0  0  0  0  0  0  0  0
   -1.7642   24.6343  -24.7906 H   0  0  0  0  0  0  0  0  0  0  0  0
   -1.2940   26.7350  -24.8000 C   0  0  0  0  0  0  0  0  0  0  0  0
   -1.3094   26.5773  -23.7115 H   0  0  0  0  0  0  0  0  0  0  0  0
   -0.3450   27.2108  -25.0881 H   0  0  0  0  0  0  0  0  0  0  0  0
   -2.1328   27.3857  -25.0881 H   0  0  0  0  0  0  0  0  0  0  0  0
  1  2  1  0
  2  3  1  0
  3  4  2  0
  3  5  1  0
  5  6  2  0
  6  7  1  0
  6  8  1  0
  8  9  2  0
  9 10  1  0
  9 11  1  0
 11 12  1  0
 11 13  2  0
 13 14  1  0
 14 15  1  0
 14 16  1  0
 14 17  1  0
 13 18  1  0
 18 19  1  0
 18 20  2  0
 20 21  1  0
 21 22  1  0
 22 23  2  0
 22 24  1  0
 24 25  1  0
 25 26  1  0
 25 27  1  0
 25 28  1  0
 28 29  1  0
 28 30  2  0
 30 31  1  0
 30 32  1  0
 32 33  2  0
 32 34  1  0
 34 35  1  0
 35 36  1  0
 35 37  1  0
 35 38  1  0
 38 39  1  0
 38 40  1  0
 38 41  1  0
 21  5  1  0
 20  8  1  0
M  CHG  1   2  -1
M  END
>  <UniqueID>  (63) 
62

>  <SMILES>  (63) 
CCOC(=O)/C=C/COC(=O)n1c(C([NH-])=O)cc2ccc(C)cc21

>  <Energy>  (63) 
69.52307380898995

>  <Genealogy>  (63) 
CCOC(=O)/C=C/COC(=O)n1c(C([NH-])=O)cc2ccc(C)cc21 (protonated)
CCOC(=O)/C=C/COC(=O)n1c(C([NH-])=O)cc2ccc(C)cc21 (cis-trans isomerization)
CCOC(=O)/C=C/COC(=O)n1c(C([NH-])=O)cc2ccc(C)cc21 (3D coordinates assigned)
CCOC(=O)/C=C/COC(=O)n1c(C([NH-])=O)cc2ccc(C)cc21 (optimized conformer: 69.52307380898995 kcal/mol)

>  <smiles>  (63) 
CCOC(=O)/C=C/COC(=O)n1c(C(N)=O)cc2ccc(C)cc21

>  <score_type>  (63) 
oracle

>  <origin>  (63) 
adg

>  <m_score__min__energy>  (63) 
-10.35

>  <m_primary>  (63) 
energy

$$$$
63:0
     RDKit          3D

 36 37  0  0  0  0  0  0  0  0999 V2000
   -4.1720   22.9780  -28.7000 C   0  0  0  0  0  0  0  0  0  0  0  0
   -2.8150   23.3630  -29.2960 C   0  0  1  0  0  0  0  0  0  0  0  0
   -2.5630   22.6130  -30.5250 N   0  0  0  0  0  0  0  0  0  0  0  0
   -3.4330   21.6580  -31.1510 C   0  0  0  0  0  0  0  0  0  0  0  0
   -3.2810   20.4390  -30.8750 O   0  0  0  0  0  0  0  0  0  0  0  0
   -4.4990   22.0400  -32.1020 C   0  0  0  0  0  0  0  0  0  0  0  0
   -4.2180   22.6720  -33.1540 O   0  0  0  0  0  0  0  0  0  0  0  0
   -5.8720   21.7270  -31.8140 N   0  0  0  0  0  0  0  0  0  0  0  0
   -6.8310   22.5690  -31.3370 C   0  0  0  0  0  0  0  0  0  0  0  0
   -6.6010   23.9640  -30.8940 C   0  0  0  0  0  0  0  0  0  0  0  0
   -5.6650   24.8050  -31.5710 N   0  0  0  0  0  0  0  0  0  0  0  0
   -7.2470   24.4310  -29.9190 O   0  0  0  0  0  0  0  0  0  0  0  0
   -8.0580   21.9100  -31.2570 C   0  0  0  0  0  0  0  0  0  0  0  0
   -7.8170   20.6330  -31.7120 C   0  0  0  0  0  0  0  0  0  0  0  0
   -8.6840   19.5540  -31.8530 C   0  0  0  0  0  0  0  0  0  0  0  0
   -8.1660   18.3560  -32.3750 C   0  0  0  0  0  0  0  0  0  0  0  0
   -6.8050   18.2650  -32.7690 C   0  0  0  0  0  0  0  0  0  0  0  0
   -6.2500   16.9650  -33.2920 C   0  0  0  0  0  0  0  0  0  0  0  0
   -7.2400   16.2240  -33.9140 F   0  0  0  0  0  0  0  0  0  0  0  0
   -5.2440   17.1990  -34.2130 F   0  0  0  0  0  0  0  0  0  0  0  0
   -5.7350   16.2330  -32.2380 F   0  0  0  0  0  0  0  0  0  0  0  0
   -5.9520   19.3780  -32.5870 C   0  0  0  0  0  0  0  0  0  0  0  0
   -6.4910   20.5500  -32.0460 C   0  0  0  0  0  0  0  0  0  0  0  0
   -2.7990   24.8280  -29.6110 C   0  0  0  0  0  0  0  0  0  0  0  0
   -3.5690   25.2970  -30.4890 O   0  0  0  0  0  0  0  0  0  0  0  0
   -1.9120   25.6740  -28.9550 O   0  0  0  0  0  0  0  0  0  0  0  0
   -4.1086   22.9960  -27.6020 H   0  0  0  0  0  0  0  0  0  0  0  0
   -4.9362   23.6948  -29.0349 H   0  0  0  0  0  0  0  0  0  0  0  0
   -4.4460   21.9667  -29.0349 H   0  0  0  0  0  0  0  0  0  0  0  0
   -2.0328   23.1260  -28.5598 H   0  0  0  0  0  0  0  0  0  0  0  0
   -5.5400   25.7960  -31.2700 H   0  0  0  0  0  0  0  0  0  0  0  0
   -5.0620   24.4400  -32.3400 H   0  0  0  0  0  0  0  0  0  0  0  0
   -9.0149   22.3229  -30.9051 H   0  0  0  0  0  0  0  0  0  0  0  0
   -9.7424   19.6359  -31.5648 H   0  0  0  0  0  0  0  0  0  0  0  0
   -8.8223   17.4794  -32.4794 H   0  0  0  0  0  0  0  0  0  0  0  0
   -4.8890   19.3235  -32.8645 H   0  0  0  0  0  0  0  0  0  0  0  0
  1  2  1  0
  2  3  1  0
  3  4  1  0
  4  5  2  0
  4  6  1  0
  6  7  2  0
  6  8  1  0
  8  9  1  0
  9 10  1  0
 10 11  1  0
 10 12  2  0
  9 13  2  0
 13 14  1  0
 14 15  2  0
 15 16  1  0
 16 17  2  0
 17 18  1  0
 18 19  1  0
 18 20  1  0
 18 21  1  0
 17 22  1  0
 22 23  2  0
  2 24  1  0
 24 25  2  0
 24 26  1  0
 23  8  1  0
 23 14  1  0
  1 27  1  0
  1 28  1  0
  1 29  1  0
  2 30  1  1
 11 31  1  0
 11 32  1  0
 13 33  1  0
 15 34  1  0
 16 35  1  0
 22 36  1  0
M  CHG  2   3  -1  26  -1
M  END
>  <UniqueID>  (64) 
63

>  <SMILES>  (64) 
C[C@@H]([N-]C(=O)C(=O)n1c(C(N)=O)cc2ccc(C(F)(F)F)cc21)C(=O)[O-]

>  <Energy>  (64) 
74.04695856480775

>  <Genealogy>  (64) 
CC([N-]C(=O)C(=O)n1c(C(N)=O)cc2ccc(C(F)(F)F)cc21)C(=O)[O-] (protonated)
C[C@@H]([N-]C(=O)C(=O)n1c(C(N)=O)cc2ccc(C(F)(F)F)cc21)C(=O)[O-] (chirality)
C[C@@H]([N-]C(=O)C(=O)n1c(C(N)=O)cc2ccc(C(F)(F)F)cc21)C(=O)[O-] (3D coordinates assigned)
C[C@@H]([N-]C(=O)C(=O)n1c(C(N)=O)cc2ccc(C(F)(F)F)cc21)C(=O)[O-] (optimized conformer: 74.04695856480775 kcal/mol)

>  <smiles>  (64) 
CC(NC(=O)C(=O)n1c(C(N)=O)cc2ccc(C(F)(F)F)cc21)C(=O)O

>  <score_type>  (64) 
oracle

>  <origin>  (64) 
adg

>  <m_score__min__energy>  (64) 
-11.5

>  <m_primary>  (64) 
energy

$$$$
64:0
     RDKit          3D

 40 41  0  0  0  0  0  0  0  0999 V2000
   -7.4300   22.8600  -31.8120 C   0  0  0  0  0  0  0  0  0  0  0  0
   -8.1400   21.5820  -31.7250 N   0  0  0  0  0  0  0  0  0  0  0  0
   -9.5180   21.5750  -31.2260 C   0  0  0  0  0  0  0  0  0  0  0  0
   -7.5760   20.3760  -32.2830 C   0  0  0  0  0  0  0  0  0  0  0  0
   -7.9450   18.9150  -31.6270 S   0  0  0  0  0  0  0  0  0  0  0  0
   -6.6240   20.4190  -33.4540 C   0  0  0  0  0  0  0  0  0  0  0  0
   -5.4110   19.6260  -33.1880 N   0  0  0  0  0  0  0  0  0  0  0  0
   -5.3270   18.2520  -33.6970 C   0  0  0  0  0  0  0  0  0  0  0  0
   -4.2730   20.2050  -32.5060 C   0  0  0  0  0  0  0  0  0  0  0  0
   -3.0380   19.5080  -32.4540 C   0  0  0  0  0  0  0  0  0  0  0  0
   -1.9310   20.0500  -31.7810 C   0  0  0  0  0  0  0  0  0  0  0  0
   -2.0870   21.2820  -31.1570 C   0  0  0  0  0  0  0  0  0  0  0  0
   -1.1730   22.0410  -30.4620 C   0  0  0  0  0  0  0  0  0  0  0  0
   -1.8680   23.1810  -30.0680 C   0  0  0  0  0  0  0  0  0  0  0  0
   -1.2740   24.2460  -29.2360 C   0  0  0  0  0  0  0  0  0  0  0  0
   -2.0770   25.2930  -28.6900 N   0  0  0  0  0  0  0  0  0  0  0  0
   -0.0460   24.1990  -28.9560 O   0  0  0  0  0  0  0  0  0  0  0  0
   -3.1560   23.1400  -30.5140 N   0  0  0  0  0  0  0  0  0  0  0  0
   -4.1530   24.1690  -30.4030 C   0  0  0  0  0  0  0  0  0  0  0  0
   -5.2960   23.8990  -29.9480 O   0  0  0  0  0  0  0  0  0  0  0  0
   -3.8690   25.4710  -30.7940 O   0  0  0  0  0  0  0  0  0  0  0  0
   -3.2740   21.9670  -31.1770 C   0  0  0  0  0  0  0  0  0  0  0  0
   -4.3830   21.4630  -31.8660 C   0  0  0  0  0  0  0  0  0  0  0  0
   -7.2223   23.2338  -30.7985 H   0  0  0  0  0  0  0  0  0  0  0  0
   -6.4821   22.7169  -32.3514 H   0  0  0  0  0  0  0  0  0  0  0  0
   -8.0523   23.5892  -32.3514 H   0  0  0  0  0  0  0  0  0  0  0  0
   -9.5096   21.5750  -30.1260 H   0  0  0  0  0  0  0  0  0  0  0  0
  -10.0439   22.4705  -31.5887 H   0  0  0  0  0  0  0  0  0  0  0  0
  -10.0347   20.6742  -31.5887 H   0  0  0  0  0  0  0  0  0  0  0  0
   -7.1300   20.0126  -34.3421 H   0  0  0  0  0  0  0  0  0  0  0  0
   -6.3254   21.4646  -33.6201 H   0  0  0  0  0  0  0  0  0  0  0  0
   -5.2841   17.5497  -32.8514 H   0  0  0  0  0  0  0  0  0  0  0  0
   -6.2135   18.0334  -34.3105 H   0  0  0  0  0  0  0  0  0  0  0  0
   -4.4205   18.1430  -34.3105 H   0  0  0  0  0  0  0  0  0  0  0  0
   -2.9465   18.5293  -32.9478 H   0  0  0  0  0  0  0  0  0  0  0  0
   -0.9699   19.5158  -31.7487 H   0  0  0  0  0  0  0  0  0  0  0  0
   -0.1190   21.7987  -30.2610 H   0  0  0  0  0  0  0  0  0  0  0  0
   -3.1180   25.2660  -28.7600 H   0  0  0  0  0  0  0  0  0  0  0  0
   -1.6330   26.0590  -28.1360 H   0  0  0  0  0  0  0  0  0  0  0  0
   -5.3224   22.0336  -31.9095 H   0  0  0  0  0  0  0  0  0  0  0  0
  1  2  1  0
  2  3  1  0
  2  4  1  0
  4  5  2  0
  4  6  1  0
  6  7  1  0
  7  8  1  0
  7  9  1  0
  9 10  2  0
 10 11  1  0
 11 12  2  0
 12 13  1  0
 13 14  2  0
 14 15  1  0
 15 16  1  0
 15 17  2  0
 14 18  1  0
 18 19  1  0
 19 20  2  0
 19 21  1  0
 18 22  1  0
 22 23  2  0
 23  9  1  0
 22 12  1  0
  1 24  1  0
  1 25  1  0
  1 26  1  0
  3 27  1  0
  3 28  1  0
  3 29  1  0
  6 30  1  0
  6 31  1  0
  8 32  1  0
  8 33  1  0
  8 34  1  0
 10 35  1  0
 11 36  1  0
 13 37  1  0
 16 38  1  0
 16 39  1  0
 23 40  1  0
M  CHG  1  21  -1
M  END
>  <UniqueID>  (65) 
64

>  <SMILES>  (65) 
CN(C)C(=S)CN(C)c1ccc2cc(C(N)=O)n(C(=O)[O-])c2c1

>  <Energy>  (65) 
80.28683411691593

>  <Genealogy>  (65) 
CN(C)C(=S)CN(C)c1ccc2cc(C(N)=O)n(C(=O)[O-])c2c1 (protonated)
CN(C)C(=S)CN(C)c1ccc2cc(C(N)=O)n(C(=O)[O-])c2c1 (3D coordinates assigned)
CN(C)C(=S)CN(C)c1ccc2cc(C(N)=O)n(C(=O)[O-])c2c1 (optimized conformer: 80.28683411691593 kcal/mol)

>  <smiles>  (65) 
CN(C)C(=S)CN(C)c1ccc2cc(C(N)=O)n(C(=O)O)c2c1

>  <score_type>  (65) 
oracle

>  <origin>  (65) 
adg

>  <m_score__min__energy>  (65) 
-9.2899999999999991

>  <m_primary>  (65) 
energy

$$$$
65:0
     RDKit          3D

 41 43  0  0  0  0  0  0  0  0999 V2000
   -7.1460   18.4160  -32.6730 C   0  0  0  0  0  0  0  0  0  0  0  0
   -7.2850   19.8500  -32.2590 C   0  0  0  0  0  0  0  0  0  0  0  0
   -8.5530   20.4830  -32.3050 C   0  0  0  0  0  0  0  0  0  0  0  0
   -8.6880   21.8400  -31.9660 C   0  0  0  0  0  0  0  0  0  0  0  0
   -7.5420   22.5340  -31.5890 C   0  0  0  0  0  0  0  0  0  0  0  0
   -7.3850   23.8540  -31.2320 C   0  0  0  0  0  0  0  0  0  0  0  0
   -6.0250   24.0070  -30.9660 C   0  0  0  0  0  0  0  0  0  0  0  0
   -5.4350   25.2750  -30.4780 C   0  0  0  0  0  0  0  0  0  0  0  0
   -4.1140   25.6670  -30.8390 N   0  0  0  0  0  0  0  0  0  0  0  0
   -6.1020   26.0150  -29.7060 O   0  0  0  0  0  0  0  0  0  0  0  0
   -5.3670   22.8280  -31.1560 N   0  0  0  0  0  0  0  0  0  0  0  0
   -3.9680   22.5570  -30.9730 C   0  0  0  0  0  0  0  0  0  0  0  0
   -3.1030   23.2990  -31.5100 O   0  0  0  0  0  0  0  0  0  0  0  0
   -3.4370   21.1710  -29.9650 S   0  0  0  0  0  0  0  0  0  0  0  0
   -1.7990   21.8850  -29.5680 C   0  0  0  0  0  0  0  0  0  0  0  0
   -1.7520   22.2870  -28.1480 N   0  0  0  0  0  0  0  0  0  0  0  0
   -3.1000   22.5750  -27.6330 C   0  0  0  0  0  0  0  0  0  0  0  0
   -3.3850   24.0520  -27.8620 C   0  0  0  0  0  0  0  0  0  0  0  0
   -2.0250   24.6980  -28.0790 C   0  0  2  0  0  0  0  0  0  0  0  0
   -1.9760   25.3000  -29.3460 O   0  0  0  0  0  0  0  0  0  0  0  0
   -1.0190   23.5500  -27.9890 C   0  0  0  0  0  0  0  0  0  0  0  0
   -6.3100   21.9370  -31.5370 C   0  0  0  0  0  0  0  0  0  0  0  0
   -6.1430   20.5930  -31.8890 C   0  0  0  0  0  0  0  0  0  0  0  0
   -7.0844   17.7802  -31.7775 H   0  0  0  0  0  0  0  0  0  0  0  0
   -8.0198   18.1211  -33.2726 H   0  0  0  0  0  0  0  0  0  0  0  0
   -6.2319   18.2944  -33.2726 H   0  0  0  0  0  0  0  0  0  0  0  0
   -9.4392   19.9065  -32.6089 H   0  0  0  0  0  0  0  0  0  0  0  0
   -9.6683   22.3380  -31.9976 H   0  0  0  0  0  0  0  0  0  0  0  0
   -8.1671   24.6250  -31.1697 H   0  0  0  0  0  0  0  0  0  0  0  0
   -3.3160   24.9960  -30.7750 H   0  0  0  0  0  0  0  0  0  0  0  0
   -1.0185   21.1339  -29.7596 H   0  0  0  0  0  0  0  0  0  0  0  0
   -1.6293   22.7700  -30.1988 H   0  0  0  0  0  0  0  0  0  0  0  0
   -3.8423   21.9643  -28.1678 H   0  0  0  0  0  0  0  0  0  0  0  0
   -3.1586   22.3362  -26.5608 H   0  0  0  0  0  0  0  0  0  0  0  0
   -4.0214   24.1880  -28.7489 H   0  0  0  0  0  0  0  0  0  0  0  0
   -3.9200   24.5015  -27.0125 H   0  0  0  0  0  0  0  0  0  0  0  0
   -1.8130   25.4848  -27.3401 H   0  0  0  0  0  0  0  0  0  0  0  0
   -2.3670   24.6470  -29.9850 H   0  0  0  0  0  0  0  0  0  0  0  0
   -0.2685   23.6485  -28.7872 H   0  0  0  0  0  0  0  0  0  0  0  0
   -0.5027   23.5712  -27.0179 H   0  0  0  0  0  0  0  0  0  0  0  0
   -5.1467   20.1270  -31.8777 H   0  0  0  0  0  0  0  0  0  0  0  0
  1  2  1  0
  2  3  2  0
  3  4  1  0
  4  5  2  0
  5  6  1  0
  6  7  2  0
  7  8  1  0
  8  9  1  0
  8 10  2  0
  7 11  1  0
 11 12  1  0
 12 13  2  0
 12 14  1  0
 14 15  1  0
 15 16  1  0
 16 17  1  0
 17 18  1  0
 18 19  1  0
 19 20  1  0
 19 21  1  0
 11 22  1  0
 22 23  2  0
 23  2  1  0
 22  5  1  0
 21 16  1  0
  1 24  1  0
  1 25  1  0
  1 26  1  0
  3 27  1  0
  4 28  1  0
  6 29  1  0
  9 30  1  0
 15 31  1  0
 15 32  1  0
 17 33  1  0
 17 34  1  0
 18 35  1  0
 18 36  1  0
 19 37  1  1
 20 38  1  0
 21 39  1  0
 21 40  1  0
 23 41  1  0
M  CHG  1   9  -1
M  END
>  <UniqueID>  (66) 
65

>  <SMILES>  (66) 
Cc1ccc2cc(C([NH-])=O)n(C(=O)SCN3CC[C@H](O)C3)c2c1

>  <Energy>  (66) 
80.92821322012885

>  <Genealogy>  (66) 
Cc1ccc2cc(C([NH-])=O)n(C(=O)SCN3CCC(O)C3)c2c1 (protonated)
Cc1ccc2cc(C([NH-])=O)n(C(=O)SCN3CC[C@H](O)C3)c2c1 (chirality)
Cc1ccc2cc(C([NH-])=O)n(C(=O)SCN3CC[C@H](O)C3)c2c1 (3D coordinates assigned)
Cc1ccc2cc(C([NH-])=O)n(C(=O)SCN3CC[C@H](O)C3)c2c1 (nonaromatic ring conformer: 80.92821322012885 kcal/mol)

>  <smiles>  (66) 
Cc1ccc2cc(C(N)=O)n(C(=O)SCN3CCC(O)C3)c2c1

>  <score_type>  (66) 
oracle

>  <origin>  (66) 
adg

>  <m_score__min__energy>  (66) 
-10.99

>  <m_primary>  (66) 
energy

$$$$
66:0
     RDKit          3D

 44 45  0  0  0  0  0  0  0  0999 V2000
    0.2650   22.5740  -27.8420 C   0  0  0  0  0  0  0  0  0  0  0  0
   -0.0490   23.7600  -28.5240 O   0  0  0  0  0  0  0  0  0  0  0  0
   -1.7490   23.9340  -28.6410 P   0  0  0  0  0  0  0  0  0  0  0  0
   -2.0200   25.2990  -29.2320 O   0  0  0  0  0  0  0  0  0  0  0  0
   -2.5900   22.6980  -29.7030 C   0  0  0  0  0  0  0  0  0  0  0  0
   -2.9950   23.3010  -30.9290 O   0  0  0  0  0  0  0  0  0  0  0  0
   -3.9380   22.7360  -31.7950 C   0  0  0  0  0  0  0  0  0  0  0  0
   -3.5640   22.0840  -32.8080 O   0  0  0  0  0  0  0  0  0  0  0  0
   -5.3380   22.8750  -31.5090 N   0  0  0  0  0  0  0  0  0  0  0  0
   -5.9670   23.9140  -30.8900 C   0  0  0  0  0  0  0  0  0  0  0  0
   -5.3080   25.0770  -30.2570 C   0  0  0  0  0  0  0  0  0  0  0  0
   -4.1340   25.6320  -30.8460 N   0  0  0  0  0  0  0  0  0  0  0  0
   -5.7890   25.6080  -29.2230 O   0  0  0  0  0  0  0  0  0  0  0  0
   -7.3430   23.6970  -30.8490 C   0  0  0  0  0  0  0  0  0  0  0  0
   -7.5390   22.4800  -31.4580 C   0  0  0  0  0  0  0  0  0  0  0  0
   -8.7150   21.7740  -31.6900 C   0  0  0  0  0  0  0  0  0  0  0  0
   -8.6230   20.5420  -32.3590 C   0  0  0  0  0  0  0  0  0  0  0  0
   -7.3680   20.0450  -32.7960 C   0  0  0  0  0  0  0  0  0  0  0  0
   -7.2840   18.7710  -33.4650 N   0  0  0  0  0  0  0  0  0  0  0  0
   -6.1120   18.0290  -32.9800 C   0  0  0  0  0  0  0  0  0  0  0  0
   -5.1560   17.7690  -34.1040 C   0  0  0  0  0  0  0  0  0  0  0  0
   -5.4680   18.0760  -35.2840 O   0  0  0  0  0  0  0  0  0  0  0  0
   -3.9430   17.1410  -33.8530 O   0  0  0  0  0  0  0  0  0  0  0  0
   -6.1930   20.7890  -32.5330 C   0  0  0  0  0  0  0  0  0  0  0  0
   -6.3140   22.0030  -31.8470 C   0  0  0  0  0  0  0  0  0  0  0  0
   -2.4440   23.9020  -27.0830 O   0  0  0  0  0  0  0  0  0  0  0  0
   -3.6980   24.5350  -27.1370 C   0  0  0  0  0  0  0  0  0  0  0  0
    0.2181   22.7513  -26.7574 H   0  0  0  0  0  0  0  0  0  0  0  0
   -0.4567   21.7908  -28.1171 H   0  0  0  0  0  0  0  0  0  0  0  0
    1.2797   22.2505  -28.1171 H   0  0  0  0  0  0  0  0  0  0  0  0
   -1.8978   21.8700  -29.9159 H   0  0  0  0  0  0  0  0  0  0  0  0
   -3.4785   22.3172  -29.1781 H   0  0  0  0  0  0  0  0  0  0  0  0
   -3.1850   25.2910  -30.5740 H   0  0  0  0  0  0  0  0  0  0  0  0
   -8.1098   24.3590  -30.4203 H   0  0  0  0  0  0  0  0  0  0  0  0
   -9.6873   22.1683  -31.3597 H   0  0  0  0  0  0  0  0  0  0  0  0
   -9.5348   19.9558  -32.5462 H   0  0  0  0  0  0  0  0  0  0  0  0
   -8.1530   18.2170  -33.2810 H   0  0  0  0  0  0  0  0  0  0  0  0
   -7.2060   18.9200  -34.4990 H   0  0  0  0  0  0  0  0  0  0  0  0
   -5.6053   18.6198  -32.2027 H   0  0  0  0  0  0  0  0  0  0  0  0
   -6.4458   17.0662  -32.5658 H   0  0  0  0  0  0  0  0  0  0  0  0
   -5.2088   20.4221  -32.8597 H   0  0  0  0  0  0  0  0  0  0  0  0
   -4.0606   24.7181  -26.1148 H   0  0  0  0  0  0  0  0  0  0  0  0
   -3.6026   25.4929  -27.6692 H   0  0  0  0  0  0  0  0  0  0  0  0
   -4.4120   23.8893  -27.6692 H   0  0  0  0  0  0  0  0  0  0  0  0
  1  2  1  0
  2  3  1  0
  3  4  2  0
  3  5  1  0
  5  6  1  0
  6  7  1  0
  7  8  2  0
  7  9  1  0
  9 10  1  0
 10 11  1  0
 11 12  1  0
 11 13  2  0
 10 14  2  0
 14 15  1  0
 15 16  2  0
 16 17  1  0
 17 18  2  0
 18 19  1  0
 19 20  1  0
 20 21  1  0
 21 22  2  0
 21 23  1  0
 18 24  1  0
 24 25  2  0
  3 26  1  0
 26 27  1  0
 25  9  1  0
 25 15  1  0
  1 28  1  0
  1 29  1  0
  1 30  1  0
  5 31  1  0
  5 32  1  0
 12 33  1  0
 14 34  1  0
 16 35  1  0
 17 36  1  0
 19 37  1  0
 19 38  1  0
 20 39  1  0
 20 40  1  0
 24 41  1  0
 27 42  1  0
 27 43  1  0
 27 44  1  0
M  CHG  3  12  -1  19   1  23  -1
M  END
>  <UniqueID>  (67) 
66

>  <SMILES>  (67) 
COP(=O)(COC(=O)n1c(C([NH-])=O)cc2ccc([NH2+]CC(=O)[O-])cc21)OC

>  <Energy>  (67) 
77.99260524496754

>  <Genealogy>  (67) 
COP(=O)(COC(=O)n1c(C([NH-])=O)cc2ccc([NH2+]CC(=O)[O-])cc21)OC (protonated)
COP(=O)(COC(=O)n1c(C([NH-])=O)cc2ccc([NH2+]CC(=O)[O-])cc21)OC (3D coordinates assigned)
COP(=O)(COC(=O)n1c(C([NH-])=O)cc2ccc([NH2+]CC(=O)[O-])cc21)OC (optimized conformer: 77.99260524496754 kcal/mol)

>  <smiles>  (67) 
COP(=O)(COC(=O)n1c(C(N)=O)cc2ccc(NCC(=O)O)cc21)OC

>  <score_type>  (67) 
oracle

>  <origin>  (67) 
adg

>  <m_score__min__energy>  (67) 
-9.9800000000000004

>  <m_primary>  (67) 
energy

$$$$
67:0
     RDKit          3D

 36 37  0  0  0  0  0  0  0  0999 V2000
   -7.4130   18.4160  -32.5920 C   0  0  0  0  0  0  0  0  0  0  0  0
   -7.5180   19.8700  -32.2410 C   0  0  0  0  0  0  0  0  0  0  0  0
   -8.7670   20.5330  -32.3180 C   0  0  0  0  0  0  0  0  0  0  0  0
   -8.8780   21.8910  -31.9710 C   0  0  0  0  0  0  0  0  0  0  0  0
   -7.7320   22.5490  -31.5330 C   0  0  0  0  0  0  0  0  0  0  0  0
   -7.5530   23.8620  -31.1660 C   0  0  0  0  0  0  0  0  0  0  0  0
   -6.2070   23.9680  -30.8270 C   0  0  0  0  0  0  0  0  0  0  0  0
   -5.5960   25.2100  -30.3120 C   0  0  0  0  0  0  0  0  0  0  0  0
   -4.2660   25.5860  -30.6750 N   0  0  0  0  0  0  0  0  0  0  0  0
   -6.2370   25.9210  -29.4930 O   0  0  0  0  0  0  0  0  0  0  0  0
   -5.5720   22.7730  -30.9920 N   0  0  0  0  0  0  0  0  0  0  0  0
   -4.1660   22.5040  -30.8580 C   0  0  0  0  0  0  0  0  0  0  0  0
   -3.3440   23.0720  -31.6280 O   0  0  0  0  0  0  0  0  0  0  0  0
   -3.7240   21.6060  -29.8770 O   0  0  0  0  0  0  0  0  0  0  0  0
   -3.1470   21.9700  -28.6530 C   0  0  0  0  0  0  0  0  0  0  0  0
   -3.8280   22.0060  -27.5920 O   0  0  0  0  0  0  0  0  0  0  0  0
   -1.7010   22.3610  -28.6170 C   0  0  0  0  0  0  0  0  0  0  0  0
   -1.4720   23.5920  -27.7330 C   0  0  0  0  0  0  0  0  0  0  0  0
   -1.2690   24.8310  -28.5490 C   0  0  0  0  0  0  0  0  0  0  0  0
   -0.1650   25.4370  -28.5170 O   0  0  0  0  0  0  0  0  0  0  0  0
   -2.2860   25.2960  -29.3740 O   0  0  0  0  0  0  0  0  0  0  0  0
   -6.5210   21.9130  -31.4220 C   0  0  0  0  0  0  0  0  0  0  0  0
   -6.3800   20.5660  -31.7810 C   0  0  0  0  0  0  0  0  0  0  0  0
   -7.3698   17.8183  -31.6696 H   0  0  0  0  0  0  0  0  0  0  0  0
   -8.2919   18.1168  -33.1820 H   0  0  0  0  0  0  0  0  0  0  0  0
   -6.5003   18.2462  -33.1820 H   0  0  0  0  0  0  0  0  0  0  0  0
   -9.6578   19.9809  -32.6521 H   0  0  0  0  0  0  0  0  0  0  0  0
   -9.8411   22.4175  -32.0434 H   0  0  0  0  0  0  0  0  0  0  0  0
   -8.3114   24.6585  -31.1448 H   0  0  0  0  0  0  0  0  0  0  0  0
   -3.6500   24.9370  -31.2110 H   0  0  0  0  0  0  0  0  0  0  0  0
   -3.8650   26.4870  -30.3330 H   0  0  0  0  0  0  0  0  0  0  0  0
   -1.1137   21.5207  -28.2182 H   0  0  0  0  0  0  0  0  0  0  0  0
   -1.3857   22.6091  -29.6412 H   0  0  0  0  0  0  0  0  0  0  0  0
   -2.3488   23.7326  -27.0839 H   0  0  0  0  0  0  0  0  0  0  0  0
   -0.5631   23.4215  -27.1373 H   0  0  0  0  0  0  0  0  0  0  0  0
   -5.4048   20.0627  -31.7060 H   0  0  0  0  0  0  0  0  0  0  0  0
  1  2  1  0
  2  3  2  0
  3  4  1  0
  4  5  2  0
  5  6  1  0
  6  7  2  0
  7  8  1  0
  8  9  1  0
  8 10  2  0
  7 11  1  0
 11 12  1  0
 12 13  2  0
 12 14  1  0
 14 15  1  0
 15 16  2  0
 15 17  1  0
 17 18  1  0
 18 19  1  0
 19 20  2  0
 19 21  1  0
 11 22  1  0
 22 23  2  0
 23  2  1  0
 22  5  1  0
  1 24  1  0
  1 25  1  0
  1 26  1  0
  3 27  1  0
  4 28  1  0
  6 29  1  0
  9 30  1  0
  9 31  1  0
 17 32  1  0
 17 33  1  0
 18 34  1  0
 18 35  1  0
 23 36  1  0
M  CHG  1  21  -1
M  END
>  <UniqueID>  (68) 
67

>  <SMILES>  (68) 
Cc1ccc2cc(C(N)=O)n(C(=O)OC(=O)CCC(=O)[O-])c2c1

>  <Energy>  (68) 
70.79767932255179

>  <Genealogy>  (68) 
Cc1ccc2cc(C(N)=O)n(C(=O)OC(=O)CCC(=O)[O-])c2c1 (protonated)
Cc1ccc2cc(C(N)=O)n(C(=O)OC(=O)CCC(=O)[O-])c2c1 (3D coordinates assigned)
Cc1ccc2cc(C(N)=O)n(C(=O)OC(=O)CCC(=O)[O-])c2c1 (optimized conformer: 70.79767932255179 kcal/mol)

>  <smiles>  (68) 
Cc1ccc2cc(C(N)=O)n(C(=O)OC(=O)CCC(=O)O)c2c1

>  <score_type>  (68) 
oracle

>  <origin>  (68) 
adg

>  <m_score__min__energy>  (68) 
-11.08

>  <m_primary>  (68) 
energy

$$$$
68:0
     RDKit          3D

 46 48  0  0  0  0  0  0  0  0999 V2000
   -1.2310   21.6170  -30.4450 N   0  0  0  0  0  0  0  0  0  0  0  0
   -1.7710   21.2960  -31.7290 C   0  0  0  0  0  0  0  0  0  0  0  0
   -0.9840   21.1140  -32.6970 O   0  0  0  0  0  0  0  0  0  0  0  0
   -3.2290   21.2140  -31.9610 C   0  0  0  0  0  0  0  0  0  0  0  0
   -3.8120   20.3860  -32.9170 C   0  0  0  0  0  0  0  0  0  0  0  0
   -5.1690   20.5920  -32.7970 C   0  0  0  0  0  0  0  0  0  0  0  0
   -6.2280   19.9970  -33.4750 C   0  0  0  0  0  0  0  0  0  0  0  0
   -7.5330   20.3530  -33.1020 C   0  0  0  0  0  0  0  0  0  0  0  0
   -7.7600   21.2700  -32.0410 C   0  0  0  0  0  0  0  0  0  0  0  0
   -9.1670   21.6520  -31.6510 C   0  0  0  0  0  0  0  0  0  0  0  0
   -9.4480   22.9520  -32.0320 F   0  0  0  0  0  0  0  0  0  0  0  0
   -9.3080   21.5430  -30.2790 F   0  0  0  0  0  0  0  0  0  0  0  0
  -10.0830   20.8150  -32.2670 F   0  0  0  0  0  0  0  0  0  0  0  0
   -6.6560   21.8720  -31.3920 C   0  0  0  0  0  0  0  0  0  0  0  0
   -5.3680   21.5100  -31.7980 C   0  0  0  0  0  0  0  0  0  0  0  0
   -4.1860   21.9060  -31.2800 N   0  0  0  0  0  0  0  0  0  0  0  0
   -4.0050   22.7380  -30.1240 C   0  0  0  0  0  0  0  0  0  0  0  0
   -3.9470   22.2000  -28.9890 O   0  0  0  0  0  0  0  0  0  0  0  0
   -3.8300   24.1990  -30.2810 C   0  0  0  0  0  0  0  0  0  0  0  0
   -4.6520   24.8250  -30.9980 O   0  0  0  0  0  0  0  0  0  0  0  0
   -2.7390   24.9300  -29.7000 N   0  0  0  0  0  0  0  0  0  0  0  0
   -1.7570   24.4350  -28.7390 C   0  0  0  0  0  0  0  0  0  0  0  0
   -2.3100   24.5070  -27.3110 C   0  0  0  0  0  0  0  0  0  0  0  0
   -1.3570   25.1980  -26.4180 N   0  0  0  0  0  0  0  0  0  0  0  0
   -0.8520   24.3340  -25.3450 C   0  0  0  0  0  0  0  0  0  0  0  0
   -0.4620   25.2490  -24.1940 C   0  0  0  0  0  0  0  0  0  0  0  0
   -1.1950   26.5560  -24.4520 C   0  0  0  0  0  0  0  0  0  0  0  0
   -1.9800   26.3330  -25.7340 C   0  0  0  0  0  0  0  0  0  0  0  0
   -1.8350   21.9750  -29.6740 H   0  0  0  0  0  0  0  0  0  0  0  0
   -0.1980   21.5920  -30.2920 H   0  0  0  0  0  0  0  0  0  0  0  0
   -3.2987   19.7116  -33.6182 H   0  0  0  0  0  0  0  0  0  0  0  0
   -6.0477   19.2690  -34.2797 H   0  0  0  0  0  0  0  0  0  0  0  0
   -8.3897   19.9173  -33.6370 H   0  0  0  0  0  0  0  0  0  0  0  0
   -6.8075   22.6069  -30.5876 H   0  0  0  0  0  0  0  0  0  0  0  0
   -1.5125   23.3897  -28.9790 H   0  0  0  0  0  0  0  0  0  0  0  0
   -0.8556   25.0624  -28.8005 H   0  0  0  0  0  0  0  0  0  0  0  0
   -3.2620   25.0580  -27.3194 H   0  0  0  0  0  0  0  0  0  0  0  0
   -2.4658   23.4835  -26.9392 H   0  0  0  0  0  0  0  0  0  0  0  0
   -1.6355   23.6324  -25.0228 H   0  0  0  0  0  0  0  0  0  0  0  0
    0.0083   23.7400  -25.6872 H   0  0  0  0  0  0  0  0  0  0  0  0
   -0.7760   24.8146  -23.2334 H   0  0  0  0  0  0  0  0  0  0  0  0
    0.6269   25.3945  -24.1376 H   0  0  0  0  0  0  0  0  0  0  0  0
   -1.8757   26.7862  -23.6192 H   0  0  0  0  0  0  0  0  0  0  0  0
   -0.4999   27.4039  -24.5405 H   0  0  0  0  0  0  0  0  0  0  0  0
   -3.0303   26.1045  -25.5003 H   0  0  0  0  0  0  0  0  0  0  0  0
   -1.9662   27.2322  -26.3674 H   0  0  0  0  0  0  0  0  0  0  0  0
  1  2  1  0
  2  3  2  0
  2  4  1  0
  4  5  2  0
  5  6  1  0
  6  7  2  0
  7  8  1  0
  8  9  2  0
  9 10  1  0
 10 11  1  0
 10 12  1  0
 10 13  1  0
  9 14  1  0
 14 15  2  0
 15 16  1  0
 16 17  1  0
 17 18  2  0
 17 19  1  0
 19 20  2  0
 19 21  1  0
 21 22  1  0
 22 23  1  0
 23 24  1  0
 24 25  1  0
 25 26  1  0
 26 27  1  0
 27 28  1  0
 16  4  1  0
 28 24  1  0
 15  6  1  0
  1 29  1  0
  1 30  1  0
  5 31  1  0
  7 32  1  0
  8 33  1  0
 14 34  1  0
 22 35  1  0
 22 36  1  0
 23 37  1  0
 23 38  1  0
 25 39  1  0
 25 40  1  0
 26 41  1  0
 26 42  1  0
 27 43  1  0
 27 44  1  0
 28 45  1  0
 28 46  1  0
M  CHG  1  21  -1
M  END
>  <UniqueID>  (69) 
68

>  <SMILES>  (69) 
NC(=O)c1cc2ccc(C(F)(F)F)cc2n1C(=O)C(=O)[N-]CCN1CCCC1

>  <Energy>  (69) 
88.74805503118147

>  <Genealogy>  (69) 
NC(=O)c1cc2ccc(C(F)(F)F)cc2n1C(=O)C(=O)[N-]CCN1CCCC1 (protonated)
NC(=O)c1cc2ccc(C(F)(F)F)cc2n1C(=O)C(=O)[N-]CCN1CCCC1 (3D coordinates assigned)
NC(=O)c1cc2ccc(C(F)(F)F)cc2n1C(=O)C(=O)[N-]CCN1CCCC1 (nonaromatic ring conformer: 88.74805503118147 kcal/mol)

>  <smiles>  (69) 
NC(=O)c1cc2ccc(C(F)(F)F)cc2n1C(=O)C(=O)NCCN1CCCC1

>  <score_type>  (69) 
oracle

>  <origin>  (69) 
adg

>  <m_score__min__energy>  (69) 
-9.1899999999999995

>  <m_primary>  (69) 
energy

$$$$
69:0
     RDKit          3D

 44 45  0  0  0  0  0  0  0  0999 V2000
   -1.2540   22.5960  -26.7980 C   0  0  0  0  0  0  0  0  0  0  0  0
   -1.3670   23.9330  -27.3900 N   0  0  0  0  0  0  0  0  0  0  0  0
   -1.3790   25.1200  -26.5270 C   0  0  0  0  0  0  0  0  0  0  0  0
   -1.4650   24.1060  -28.8210 C   0  0  0  0  0  0  0  0  0  0  0  0
   -1.5150   25.2690  -29.3090 O   0  0  0  0  0  0  0  0  0  0  0  0
   -1.5310   22.9330  -29.7600 C   0  0  0  0  0  0  0  0  0  0  0  0
   -2.8740   22.4760  -29.8990 O   0  0  0  0  0  0  0  0  0  0  0  0
   -3.5450   22.4190  -31.1250 C   0  0  0  0  0  0  0  0  0  0  0  0
   -2.8990   22.2720  -32.1980 O   0  0  0  0  0  0  0  0  0  0  0  0
   -4.9770   22.5330  -31.1570 N   0  0  0  0  0  0  0  0  0  0  0  0
   -5.7250   23.6120  -30.7910 C   0  0  0  0  0  0  0  0  0  0  0  0
   -5.2210   24.8290  -30.1260 C   0  0  0  0  0  0  0  0  0  0  0  0
   -3.8360   25.1780  -30.1690 N   0  0  0  0  0  0  0  0  0  0  0  0
   -6.0160   25.5460  -29.4610 O   0  0  0  0  0  0  0  0  0  0  0  0
   -7.0680   23.4050  -31.0950 C   0  0  0  0  0  0  0  0  0  0  0  0
   -7.1230   22.1490  -31.6530 C   0  0  0  0  0  0  0  0  0  0  0  0
   -8.2090   21.4450  -32.1570 C   0  0  0  0  0  0  0  0  0  0  0  0
   -7.9740   20.1800  -32.7190 C   0  0  0  0  0  0  0  0  0  0  0  0
   -6.6600   19.6380  -32.7850 C   0  0  0  0  0  0  0  0  0  0  0  0
   -6.4240   18.3360  -33.3830 N   0  0  0  0  0  0  0  0  0  0  0  0
   -6.8780   17.1120  -32.7110 C   0  0  0  0  0  0  0  0  0  0  0  0
   -5.7270   18.2210  -34.6700 C   0  0  0  0  0  0  0  0  0  0  0  0
   -5.5820   20.3970  -32.2590 C   0  0  0  0  0  0  0  0  0  0  0  0
   -5.8510   21.6440  -31.6820 C   0  0  0  0  0  0  0  0  0  0  0  0
   -1.2610   22.6789  -25.7011 H   0  0  0  0  0  0  0  0  0  0  0  0
   -2.1031   21.9775  -27.1244 H   0  0  0  0  0  0  0  0  0  0  0  0
   -0.3132   22.1288  -27.1244 H   0  0  0  0  0  0  0  0  0  0  0  0
   -1.3758   24.8067  -25.4726 H   0  0  0  0  0  0  0  0  0  0  0  0
   -0.4870   25.7305  -26.7308 H   0  0  0  0  0  0  0  0  0  0  0  0
   -2.2832   25.7124  -26.7308 H   0  0  0  0  0  0  0  0  0  0  0  0
   -1.1489   23.2371  -30.7456 H   0  0  0  0  0  0  0  0  0  0  0  0
   -0.9192   22.1159  -29.3500 H   0  0  0  0  0  0  0  0  0  0  0  0
   -3.1270   24.5220  -30.5660 H   0  0  0  0  0  0  0  0  0  0  0  0
   -3.5040   26.0650  -29.7290 H   0  0  0  0  0  0  0  0  0  0  0  0
   -7.9056   24.0976  -30.9253 H   0  0  0  0  0  0  0  0  0  0  0  0
   -9.2243   21.8665  -32.1170 H   0  0  0  0  0  0  0  0  0  0  0  0
   -8.8196   19.5983  -33.1148 H   0  0  0  0  0  0  0  0  0  0  0  0
   -6.8263   17.2514  -31.6211 H   0  0  0  0  0  0  0  0  0  0  0  0
   -7.9160   16.8962  -33.0042 H   0  0  0  0  0  0  0  0  0  0  0  0
   -6.2318   16.2715  -33.0042 H   0  0  0  0  0  0  0  0  0  0  0  0
   -4.6559   18.0443  -34.4924 H   0  0  0  0  0  0  0  0  0  0  0  0
   -6.1476   17.3801  -35.2409 H   0  0  0  0  0  0  0  0  0  0  0  0
   -5.8552   19.1524  -35.2409 H   0  0  0  0  0  0  0  0  0  0  0  0
   -4.5526   20.0119  -32.3039 H   0  0  0  0  0  0  0  0  0  0  0  0
  1  2  1  0
  2  3  1  0
  2  4  1  0
  4  5  2  0
  4  6  1  0
  6  7  1  0
  7  8  1  0
  8  9  2  0
  8 10  1  0
 10 11  1  0
 11 12  1  0
 12 13  1  0
 12 14  2  0
 11 15  2  0
 15 16  1  0
 16 17  2  0
 17 18  1  0
 18 19  2  0
 19 20  1  0
 20 21  1  0
 20 22  1  0
 19 23  1  0
 23 24  2  0
 24 10  1  0
 24 16  1  0
  1 25  1  0
  1 26  1  0
  1 27  1  0
  3 28  1  0
  3 29  1  0
  3 30  1  0
  6 31  1  0
  6 32  1  0
 13 33  1  0
 13 34  1  0
 15 35  1  0
 17 36  1  0
 18 37  1  0
 21 38  1  0
 21 39  1  0
 21 40  1  0
 22 41  1  0
 22 42  1  0
 22 43  1  0
 23 44  1  0
M  END
>  <UniqueID>  (70) 
69

>  <SMILES>  (70) 
CN(C)C(=O)COC(=O)n1c(C(N)=O)cc2ccc(N(C)C)cc21

>  <Energy>  (70) 
79.32891227509943

>  <Genealogy>  (70) 
CN(C)C(=O)COC(=O)n1c(C(N)=O)cc2ccc(N(C)C)cc21 (3D coordinates assigned)
CN(C)C(=O)COC(=O)n1c(C(N)=O)cc2ccc(N(C)C)cc21 (optimized conformer: 79.32891227509943 kcal/mol)

>  <smiles>  (70) 
CN(C)C(=O)COC(=O)n1c(C(N)=O)cc2ccc(N(C)C)cc21

>  <score_type>  (70) 
oracle

>  <origin>  (70) 
adg

>  <m_score__min__energy>  (70) 
-9.0199999999999996

>  <m_primary>  (70) 
energy

$$$$
70:0
     RDKit          3D

 30 31  0  0  0  0  0  0  0  0999 V2000
   -4.1940   23.1430  -27.8100 C   0  0  0  0  0  0  0  0  0  0  0  0
   -3.4120   22.3710  -28.7140 O   0  0  0  0  0  0  0  0  0  0  0  0
   -2.9740   22.8690  -29.9440 C   0  0  0  0  0  0  0  0  0  0  0  0
   -1.8830   23.4950  -30.0300 O   0  0  0  0  0  0  0  0  0  0  0  0
   -3.7900   22.6450  -31.1470 C   0  0  0  0  0  0  0  0  0  0  0  0
   -3.2350   22.2590  -32.2100 O   0  0  0  0  0  0  0  0  0  0  0  0
   -5.2090   22.8680  -31.1250 N   0  0  0  0  0  0  0  0  0  0  0  0
   -5.8620   24.0330  -30.8580 C   0  0  0  0  0  0  0  0  0  0  0  0
   -5.2280   25.3000  -30.4340 C   0  0  0  0  0  0  0  0  0  0  0  0
   -3.8950   25.5980  -30.8420 N   0  0  0  0  0  0  0  0  0  0  0  0
   -5.8590   26.1320  -29.7310 O   0  0  0  0  0  0  0  0  0  0  0  0
   -7.2390   23.8610  -30.9930 C   0  0  0  0  0  0  0  0  0  0  0  0
   -7.4080   22.5440  -31.3590 C   0  0  0  0  0  0  0  0  0  0  0  0
   -8.5700   21.8320  -31.6310 C   0  0  0  0  0  0  0  0  0  0  0  0
   -8.4440   20.4840  -32.0100 C   0  0  0  0  0  0  0  0  0  0  0  0
   -7.1650   19.8810  -32.1350 C   0  0  0  0  0  0  0  0  0  0  0  0
   -7.0440   18.4250  -32.5040 C   0  0  0  0  0  0  0  0  0  0  0  0
   -6.1080   17.7950  -31.7030 F   0  0  0  0  0  0  0  0  0  0  0  0
   -6.6520   18.3200  -33.8250 F   0  0  0  0  0  0  0  0  0  0  0  0
   -8.2570   17.7780  -32.3410 F   0  0  0  0  0  0  0  0  0  0  0  0
   -6.0080   20.6360  -31.8280 C   0  0  0  0  0  0  0  0  0  0  0  0
   -6.1670   21.9690  -31.4350 C   0  0  0  0  0  0  0  0  0  0  0  0
   -3.9266   22.8790  -26.7762 H   0  0  0  0  0  0  0  0  0  0  0  0
   -3.9990   24.2125  -27.9775 H   0  0  0  0  0  0  0  0  0  0  0  0
   -5.2609   22.9342  -27.9775 H   0  0  0  0  0  0  0  0  0  0  0  0
   -3.0780   25.2860  -30.2720 H   0  0  0  0  0  0  0  0  0  0  0  0
   -8.0236   24.6165  -30.8398 H   0  0  0  0  0  0  0  0  0  0  0  0
   -9.5583   22.3086  -31.5522 H   0  0  0  0  0  0  0  0  0  0  0  0
   -9.3472   19.8895  -32.2121 H   0  0  0  0  0  0  0  0  0  0  0  0
   -5.0070   20.1851  -31.8968 H   0  0  0  0  0  0  0  0  0  0  0  0
  1  2  1  0
  2  3  1  0
  3  4  2  0
  3  5  1  0
  5  6  2  0
  5  7  1  0
  7  8  1  0
  8  9  1  0
  9 10  1  0
  9 11  2  0
  8 12  2  0
 12 13  1  0
 13 14  2  0
 14 15  1  0
 15 16  2  0
 16 17  1  0
 17 18  1  0
 17 19  1  0
 17 20  1  0
 16 21  1  0
 21 22  2  0
 22  7  1  0
 22 13  1  0
  1 23  1  0
  1 24  1  0
  1 25  1  0
 10 26  1  0
 12 27  1  0
 14 28  1  0
 15 29  1  0
 21 30  1  0
M  CHG  1  10  -1
M  END
>  <UniqueID>  (71) 
70

>  <SMILES>  (71) 
COC(=O)C(=O)n1c(C([NH-])=O)cc2ccc(C(F)(F)F)cc21

>  <Energy>  (71) 
67.64314841064055

>  <Genealogy>  (71) 
COC(=O)C(=O)n1c(C([NH-])=O)cc2ccc(C(F)(F)F)cc21 (protonated)
COC(=O)C(=O)n1c(C([NH-])=O)cc2ccc(C(F)(F)F)cc21 (3D coordinates assigned)
COC(=O)C(=O)n1c(C([NH-])=O)cc2ccc(C(F)(F)F)cc21 (optimized conformer: 67.64314841064055 kcal/mol)

>  <smiles>  (71) 
COC(=O)C(=O)n1c(C(N)=O)cc2ccc(C(F)(F)F)cc21

>  <score_type>  (71) 
oracle

>  <origin>  (71) 
adg

>  <m_score__min__energy>  (71) 
-8.7799999999999994

>  <m_primary>  (71) 
energy

$$$$
71:0
     RDKit          3D

 38 40  0  0  0  0  0  0  0  0999 V2000
   -9.2840   19.2560  -32.6690 C   0  0  0  0  0  0  0  0  0  0  0  0
   -8.0570   18.5590  -32.6980 O   0  0  0  0  0  0  0  0  0  0  0  0
   -7.1170   19.1900  -31.8490 C   0  0  0  0  0  0  0  0  0  0  0  0
   -6.2960   20.1750  -32.6280 C   0  0  0  0  0  0  0  0  0  0  0  0
   -6.8720   21.1200  -33.2310 O   0  0  0  0  0  0  0  0  0  0  0  0
   -4.8700   20.0330  -32.7230 N   0  0  0  0  0  0  0  0  0  0  0  0
   -4.1720   19.2620  -33.6040 C   0  0  0  0  0  0  0  0  0  0  0  0
   -4.7720   18.3330  -34.5910 C   0  0  0  0  0  0  0  0  0  0  0  0
   -6.1550   18.4270  -34.9420 N   0  0  0  0  0  0  0  0  0  0  0  0
   -4.0620   17.4550  -35.1470 O   0  0  0  0  0  0  0  0  0  0  0  0
   -2.8000   19.4220  -33.4070 C   0  0  0  0  0  0  0  0  0  0  0  0
   -2.6820   20.3300  -32.3780 C   0  0  0  0  0  0  0  0  0  0  0  0
   -1.5430   20.8750  -31.7900 C   0  0  0  0  0  0  0  0  0  0  0  0
   -1.7210   21.8240  -30.7690 C   0  0  0  0  0  0  0  0  0  0  0  0
   -3.0210   22.2060  -30.3580 C   0  0  0  0  0  0  0  0  0  0  0  0
   -3.1980   23.2610  -29.3010 C   0  0  0  0  0  0  0  0  0  0  0  0
   -2.9750   24.6920  -29.6790 C   0  0  0  0  0  0  0  0  0  0  0  0
   -1.9530   25.3030  -29.2690 O   0  0  0  0  0  0  0  0  0  0  0  0
   -3.8720   25.3370  -30.5210 O   0  0  0  0  0  0  0  0  0  0  0  0
   -2.8240   22.8730  -27.8750 C   0  0  0  0  0  0  0  0  0  0  0  0
   -4.2880   23.0090  -28.2650 C   0  0  0  0  0  0  0  0  0  0  0  0
   -4.1520   21.6470  -30.9910 C   0  0  0  0  0  0  0  0  0  0  0  0
   -3.9460   20.6860  -31.9860 C   0  0  0  0  0  0  0  0  0  0  0  0
   -9.5842   19.4265  -31.6246 H   0  0  0  0  0  0  0  0  0  0  0  0
   -9.1684   20.2233  -33.1799 H   0  0  0  0  0  0  0  0  0  0  0  0
  -10.0556   18.6614  -33.1799 H   0  0  0  0  0  0  0  0  0  0  0  0
   -7.6504   19.7173  -31.0443 H   0  0  0  0  0  0  0  0  0  0  0  0
   -6.4510   18.4267  -31.4201 H   0  0  0  0  0  0  0  0  0  0  0  0
   -6.7980   19.0910  -34.4590 H   0  0  0  0  0  0  0  0  0  0  0  0
   -6.5540   17.7900  -35.6660 H   0  0  0  0  0  0  0  0  0  0  0  0
   -1.9854   18.9279  -33.9568 H   0  0  0  0  0  0  0  0  0  0  0  0
   -0.5365   20.5723  -32.1144 H   0  0  0  0  0  0  0  0  0  0  0  0
   -0.8421   22.2743  -30.2845 H   0  0  0  0  0  0  0  0  0  0  0  0
   -2.4000   21.8791  -27.6689 H   0  0  0  0  0  0  0  0  0  0  0  0
   -2.1841   23.3084  -27.0934 H   0  0  0  0  0  0  0  0  0  0  0  0
   -4.9223   22.1135  -28.3409 H   0  0  0  0  0  0  0  0  0  0  0  0
   -5.1444   23.5834  -27.8821 H   0  0  0  0  0  0  0  0  0  0  0  0
   -5.1685   21.9589  -30.7092 H   0  0  0  0  0  0  0  0  0  0  0  0
  1  2  1  0
  2  3  1  0
  3  4  1  0
  4  5  2  0
  4  6  1  0
  6  7  1  0
  7  8  1  0
  8  9  1  0
  8 10  2  0
  7 11  2  0
 11 12  1  0
 12 13  2  0
 13 14  1  0
 14 15  2  0
 15 16  1  0
 16 17  1  0
 17 18  2  0
 17 19  1  0
 16 20  1  0
 20 21  1  0
 15 22  1  0
 22 23  2  0
 23  6  1  0
 23 12  1  0
 21 16  1  0
  1 24  1  0
  1 25  1  0
  1 26  1  0
  3 27  1  0
  3 28  1  0
  9 29  1  0
  9 30  1  0
 11 31  1  0
 13 32  1  0
 14 33  1  0
 20 34  1  0
 20 35  1  0
 21 36  1  0
 21 37  1  0
 22 38  1  0
M  CHG  1  19  -1
M  END
>  <UniqueID>  (72) 
71

>  <SMILES>  (72) 
COCC(=O)n1c(C(N)=O)cc2ccc(C3(C(=O)[O-])CC3)cc21

>  <Energy>  (72) 
344.54935219815223

>  <Genealogy>  (72) 
COCC(=O)n1c(C(N)=O)cc2ccc(C3(C(=O)[O-])CC3)cc21 (protonated)
COCC(=O)n1c(C(N)=O)cc2ccc(C3(C(=O)[O-])CC3)cc21 (3D coordinates assigned)
COCC(=O)n1c(C(N)=O)cc2ccc(C3(C(=O)[O-])CC3)cc21 (nonaromatic ring conformer: 344.54935219815223 kcal/mol)

>  <smiles>  (72) 
COCC(=O)n1c(C(N)=O)cc2ccc(C3(C(=O)O)CC3)cc21

>  <score_type>  (72) 
oracle

>  <origin>  (72) 
adg

>  <m_score__min__energy>  (72) 
-9.6899999999999995

>  <m_primary>  (72) 
energy

$$$$
72:0
     RDKit          3D

 27 28  0  0  0  0  0  0  0  0999 V2000
   -4.2080   25.5460  -30.7800 N   0  0  0  0  0  0  0  0  0  0  0  0
   -5.5170   25.1040  -30.4140 C   0  0  0  0  0  0  0  0  0  0  0  0
   -6.2030   25.8050  -29.6230 O   0  0  0  0  0  0  0  0  0  0  0  0
   -6.0610   23.8210  -30.9030 C   0  0  0  0  0  0  0  0  0  0  0  0
   -7.4180   23.5920  -31.1180 C   0  0  0  0  0  0  0  0  0  0  0  0
   -7.5000   22.2910  -31.5640 C   0  0  0  0  0  0  0  0  0  0  0  0
   -8.6090   21.5530  -31.9680 C   0  0  0  0  0  0  0  0  0  0  0  0
   -8.3920   20.2480  -32.4450 C   0  0  0  0  0  0  0  0  0  0  0  0
   -7.0820   19.7130  -32.5130 C   0  0  0  0  0  0  0  0  0  0  0  0
   -6.8580   18.3410  -33.0760 C   0  0  0  0  0  0  0  0  0  0  0  0
   -5.8170   18.4450  -34.5170 Cl  0  0  0  0  0  0  0  0  0  0  0  0
   -5.9800   20.5000  -32.1110 C   0  0  0  0  0  0  0  0  0  0  0  0
   -6.2280   21.7840  -31.6140 C   0  0  0  0  0  0  0  0  0  0  0  0
   -5.3330   22.7100  -31.2040 N   0  0  0  0  0  0  0  0  0  0  0  0
   -3.9010   22.5960  -31.2480 C   0  0  0  0  0  0  0  0  0  0  0  0
   -3.2040   23.1370  -30.3490 O   0  0  0  0  0  0  0  0  0  0  0  0
   -3.2340   21.8300  -32.3080 C   0  0  0  0  0  0  0  0  0  0  0  0
   -3.6170   21.9180  -33.5050 O   0  0  0  0  0  0  0  0  0  0  0  0
   -3.8670   26.4820  -30.4680 H   0  0  0  0  0  0  0  0  0  0  0  0
   -3.5390   24.9110  -31.2670 H   0  0  0  0  0  0  0  0  0  0  0  0
   -8.2469   24.2987  -30.9645 H   0  0  0  0  0  0  0  0  0  0  0  0
   -9.6226   21.9770  -31.9158 H   0  0  0  0  0  0  0  0  0  0  0  0
   -9.2475   19.6369  -32.7684 H   0  0  0  0  0  0  0  0  0  0  0  0
   -6.3709   17.7100  -32.3180 H   0  0  0  0  0  0  0  0  0  0  0  0
   -7.8259   17.9006  -33.3574 H   0  0  0  0  0  0  0  0  0  0  0  0
   -4.9531   20.1131  -32.1868 H   0  0  0  0  0  0  0  0  0  0  0  0
   -2.3901   21.1716  -32.0542 H   0  0  0  0  0  0  0  0  0  0  0  0
  1  2  1  0
  2  3  2  0
  2  4  1  0
  4  5  2  0
  5  6  1  0
  6  7  2  0
  7  8  1  0
  8  9  2  0
  9 10  1  0
 10 11  1  0
  9 12  1  0
 12 13  2  0
 13 14  1  0
 14 15  1  0
 15 16  2  0
 15 17  1  0
 17 18  2  0
 14  4  1  0
 13  6  1  0
  1 19  1  0
  1 20  1  0
  5 21  1  0
  7 22  1  0
  8 23  1  0
 10 24  1  0
 10 25  1  0
 12 26  1  0
 17 27  1  0
M  END
>  <UniqueID>  (73) 
72

>  <SMILES>  (73) 
NC(=O)c1cc2ccc(CCl)cc2n1C(=O)C=O

>  <Energy>  (73) 
66.39234420414932

>  <Genealogy>  (73) 
NC(=O)c1cc2ccc(CCl)cc2n1C(=O)C=O (3D coordinates assigned)
NC(=O)c1cc2ccc(CCl)cc2n1C(=O)C=O (optimized conformer: 66.39234420414932 kcal/mol)

>  <smiles>  (73) 
NC(=O)c1cc2ccc(CCl)cc2n1C(=O)C=O

>  <score_type>  (73) 
oracle

>  <origin>  (73) 
adg

>  <m_score__min__energy>  (73) 
-7.6399999999999997

>  <m_primary>  (73) 
energy

$$$$
73:0
     RDKit          3D

 47 48  0  0  0  0  0  0  0  0999 V2000
   -8.4930   18.9490  -32.7250 C   0  0  0  0  0  0  0  0  0  0  0  0
   -8.1780   20.2770  -32.1170 C   0  0  0  0  0  0  0  0  0  0  0  0
   -9.1740   21.2800  -32.0370 C   0  0  0  0  0  0  0  0  0  0  0  0
   -8.8730   22.5430  -31.5070 C   0  0  0  0  0  0  0  0  0  0  0  0
   -7.5670   22.7780  -31.0840 C   0  0  0  0  0  0  0  0  0  0  0  0
   -7.0030   23.9000  -30.5190 C   0  0  0  0  0  0  0  0  0  0  0  0
   -5.6660   23.5700  -30.2900 C   0  0  0  0  0  0  0  0  0  0  0  0
   -4.6730   24.4970  -29.7150 C   0  0  0  0  0  0  0  0  0  0  0  0
   -3.8410   25.2930  -30.5520 N   0  0  0  0  0  0  0  0  0  0  0  0
   -4.5660   24.5970  -28.4650 O   0  0  0  0  0  0  0  0  0  0  0  0
   -5.4190   22.2970  -30.7030 N   0  0  0  0  0  0  0  0  0  0  0  0
   -4.1890   21.5650  -30.6080 C   0  0  0  0  0  0  0  0  0  0  0  0
   -4.2210   20.3120  -30.5180 O   0  0  0  0  0  0  0  0  0  0  0  0
   -2.8930   22.2780  -30.6310 C   0  0  0  0  0  0  0  0  0  0  0  0
   -2.2700   22.3680  -31.7250 O   0  0  0  0  0  0  0  0  0  0  0  0
   -2.3250   22.8360  -29.4170 N   0  0  2  0  0  0  0  0  0  0  0  0
   -0.8980   23.1960  -29.6060 C   0  0  0  0  0  0  0  0  0  0  0  0
   -0.5750   24.5350  -29.0020 C   0  0  0  0  0  0  0  0  0  0  0  0
   -1.4110   25.4220  -28.9800 O   0  0  0  0  0  0  0  0  0  0  0  0
   -2.5610   21.9310  -28.2620 C   0  0  0  0  0  0  0  0  0  0  0  0
   -1.9280   20.5660  -28.4200 C   0  0  0  0  0  0  0  0  0  0  0  0
   -1.2790   20.3020  -29.4690 O   0  0  0  0  0  0  0  0  0  0  0  0
   -2.0260   19.5720  -27.3860 N   0  0  0  0  0  0  0  0  0  0  0  0
   -0.8880   18.6960  -27.1190 C   0  0  0  0  0  0  0  0  0  0  0  0
   -3.2980   19.2930  -26.7200 C   0  0  0  0  0  0  0  0  0  0  0  0
   -6.5900   21.8230  -31.1780 C   0  0  0  0  0  0  0  0  0  0  0  0
   -6.8640   20.5540  -31.6830 C   0  0  0  0  0  0  0  0  0  0  0  0
   -8.6677   18.2125  -31.9269 H   0  0  0  0  0  0  0  0  0  0  0  0
   -9.3955   19.0357  -33.3479 H   0  0  0  0  0  0  0  0  0  0  0  0
   -7.6477   18.6211  -33.3479 H   0  0  0  0  0  0  0  0  0  0  0  0
  -10.1925   21.0668  -32.3936 H   0  0  0  0  0  0  0  0  0  0  0  0
   -9.6441   23.3235  -31.4279 H   0  0  0  0  0  0  0  0  0  0  0  0
   -7.5010   24.8550  -30.2953 H   0  0  0  0  0  0  0  0  0  0  0  0
   -2.8000   25.2790  -30.4470 H   0  0  0  0  0  0  0  0  0  0  0  0
   -2.8330   23.7310  -29.2160 H   0  0  0  0  0  0  0  0  0  0  0  0
   -0.2710   22.4291  -29.1278 H   0  0  0  0  0  0  0  0  0  0  0  0
   -0.6996   23.2515  -30.6865 H   0  0  0  0  0  0  0  0  0  0  0  0
    0.4233   24.7154  -28.5768 H   0  0  0  0  0  0  0  0  0  0  0  0
   -2.1460   22.4040  -27.3597 H   0  0  0  0  0  0  0  0  0  0  0  0
   -3.6477   21.7754  -28.1922 H   0  0  0  0  0  0  0  0  0  0  0  0
   -0.7526   18.5917  -26.0324 H   0  0  0  0  0  0  0  0  0  0  0  0
   -1.0751   17.7066  -27.5618 H   0  0  0  0  0  0  0  0  0  0  0  0
    0.0206   19.1300  -27.5618 H   0  0  0  0  0  0  0  0  0  0  0  0
   -3.1556   19.3242  -25.6297 H   0  0  0  0  0  0  0  0  0  0  0  0
   -4.0399   20.0498  -27.0147 H   0  0  0  0  0  0  0  0  0  0  0  0
   -3.6551   18.2952  -27.0147 H   0  0  0  0  0  0  0  0  0  0  0  0
   -6.0768   19.7879  -31.7420 H   0  0  0  0  0  0  0  0  0  0  0  0
  1  2  1  0
  2  3  2  0
  3  4  1  0
  4  5  2  0
  5  6  1  0
  6  7  2  0
  7  8  1  0
  8  9  1  0
  8 10  2  0
  7 11  1  0
 11 12  1  0
 12 13  2  0
 12 14  1  0
 14 15  2  0
 14 16  1  0
 16 17  1  0
 17 18  1  0
 18 19  2  0
 16 20  1  0
 20 21  1  0
 21 22  2  0
 21 23  1  0
 23 24  1  0
 23 25  1  0
 11 26  1  0
 26 27  2  0
 27  2  1  0
 26  5  1  0
  1 28  1  0
  1 29  1  0
  1 30  1  0
  3 31  1  0
  4 32  1  0
  6 33  1  0
  9 34  1  0
 16 35  1  1
 17 36  1  0
 17 37  1  0
 18 38  1  0
 20 39  1  0
 20 40  1  0
 24 41  1  0
 24 42  1  0
 24 43  1  0
 25 44  1  0
 25 45  1  0
 25 46  1  0
 27 47  1  0
M  CHG  2   9  -1  16   1
M  END
>  <UniqueID>  (74) 
73

>  <SMILES>  (74) 
Cc1ccc2cc(C([NH-])=O)n(C(=O)C(=O)[N@H+](CC=O)CC(=O)N(C)C)c2c1

>  <Energy>  (74) 
91.80156208984496

>  <Genealogy>  (74) 
Cc1ccc2cc(C([NH-])=O)n(C(=O)C(=O)[NH+](CC=O)CC(=O)N(C)C)c2c1 (protonated)
Cc1ccc2cc(C([NH-])=O)n(C(=O)C(=O)[N@H+](CC=O)CC(=O)N(C)C)c2c1 (chirality)
Cc1ccc2cc(C([NH-])=O)n(C(=O)C(=O)[N@H+](CC=O)CC(=O)N(C)C)c2c1 (3D coordinates assigned)
Cc1ccc2cc(C([NH-])=O)n(C(=O)C(=O)[N@H+](CC=O)CC(=O)N(C)C)c2c1 (optimized conformer: 91.80156208984496 kcal/mol)

>  <smiles>  (74) 
Cc1ccc2cc(C(N)=O)n(C(=O)C(=O)N(CC=O)CC(=O)N(C)C)c2c1

>  <score_type>  (74) 
oracle

>  <origin>  (74) 
adg

>  <m_score__min__energy>  (74) 
-9.4700000000000006

>  <m_primary>  (74) 
energy

$$$$
74:0
     RDKit          3D

 45 47  0  0  0  0  0  0  0  0999 V2000
   -4.1660   18.5520  -34.2720 C   0  0  0  0  0  0  0  0  0  0  0  0
   -5.3560   17.7930  -33.8940 N   0  0  0  0  0  0  0  0  0  0  0  0
   -5.5850   16.5020  -34.1900 C   0  0  0  0  0  0  0  0  0  0  0  0
   -6.8300   16.1680  -33.7110 C   0  0  0  0  0  0  0  0  0  0  0  0
   -7.3860   17.2370  -33.1080 N   0  0  0  0  0  0  0  0  0  0  0  0
   -6.4560   18.2110  -33.2240 C   0  0  0  0  0  0  0  0  0  0  0  0
   -6.6660   19.5700  -32.6840 C   0  0  0  0  0  0  0  0  0  0  0  0
   -7.9800   20.0120  -32.3950 C   0  0  0  0  0  0  0  0  0  0  0  0
   -8.2080   21.3040  -31.8880 C   0  0  0  0  0  0  0  0  0  0  0  0
   -7.1040   22.1170  -31.6560 C   0  0  0  0  0  0  0  0  0  0  0  0
   -7.0370   23.4170  -31.2080 C   0  0  0  0  0  0  0  0  0  0  0  0
   -5.6790   23.7250  -31.1770 C   0  0  0  0  0  0  0  0  0  0  0  0
   -5.1460   25.0220  -30.7130 C   0  0  0  0  0  0  0  0  0  0  0  0
   -3.8680   25.1170  -30.0810 N   0  0  0  0  0  0  0  0  0  0  0  0
   -5.8500   26.0590  -30.8340 O   0  0  0  0  0  0  0  0  0  0  0  0
   -4.9360   22.6630  -31.5960 N   0  0  0  0  0  0  0  0  0  0  0  0
   -3.5180   22.6120  -31.8020 C   0  0  0  0  0  0  0  0  0  0  0  0
   -3.0630   22.0850  -32.8530 O   0  0  0  0  0  0  0  0  0  0  0  0
   -2.6580   23.1600  -30.8370 O   0  0  0  0  0  0  0  0  0  0  0  0
   -1.9480   22.4260  -29.8260 C   0  0  0  0  0  0  0  0  0  0  0  0
   -0.6050   21.9210  -30.3730 C   0  0  0  0  0  0  0  0  0  0  0  0
   -2.7900   21.2450  -29.3070 C   0  0  0  0  0  0  0  0  0  0  0  0
   -1.6470   23.3090  -28.7390 O   0  0  0  0  0  0  0  0  0  0  0  0
   -0.9300   24.5060  -28.8490 C   0  0  0  0  0  0  0  0  0  0  0  0
    0.2870   24.5700  -28.5330 O   0  0  0  0  0  0  0  0  0  0  0  0
   -1.5740   25.6440  -29.3140 O   0  0  0  0  0  0  0  0  0  0  0  0
   -5.8230   21.6880  -31.8880 C   0  0  0  0  0  0  0  0  0  0  0  0
   -5.5690   20.4200  -32.4170 C   0  0  0  0  0  0  0  0  0  0  0  0
   -3.6412   18.8867  -33.3651 H   0  0  0  0  0  0  0  0  0  0  0  0
   -3.4975   17.9131  -34.8677 H   0  0  0  0  0  0  0  0  0  0  0  0
   -4.4635   19.4276  -34.8677 H   0  0  0  0  0  0  0  0  0  0  0  0
   -4.8964   15.8297  -34.7227 H   0  0  0  0  0  0  0  0  0  0  0  0
   -7.3006   15.1783  -33.8057 H   0  0  0  0  0  0  0  0  0  0  0  0
   -8.8315   19.3377  -32.5689 H   0  0  0  0  0  0  0  0  0  0  0  0
   -9.2280   21.6603  -31.6814 H   0  0  0  0  0  0  0  0  0  0  0  0
   -7.8766   24.0725  -30.9332 H   0  0  0  0  0  0  0  0  0  0  0  0
   -3.3410   24.2630  -29.7940 H   0  0  0  0  0  0  0  0  0  0  0  0
   -3.4870   26.0500  -29.8080 H   0  0  0  0  0  0  0  0  0  0  0  0
    0.0615   21.6704  -29.5346 H   0  0  0  0  0  0  0  0  0  0  0  0
   -0.7733   21.0248  -30.9881 H   0  0  0  0  0  0  0  0  0  0  0  0
   -0.1411   22.7061  -30.9881 H   0  0  0  0  0  0  0  0  0  0  0  0
   -2.7876   21.2484  -28.2070 H   0  0  0  0  0  0  0  0  0  0  0  0
   -3.8231   21.3430  -29.6717 H   0  0  0  0  0  0  0  0  0  0  0  0
   -2.3605   20.3003  -29.6717 H   0  0  0  0  0  0  0  0  0  0  0  0
   -4.5393   20.0910  -32.6209 H   0  0  0  0  0  0  0  0  0  0  0  0
  1  2  1  0
  2  3  1  0
  3  4  2  0
  4  5  1  0
  5  6  2  0
  6  7  1  0
  7  8  2  0
  8  9  1  0
  9 10  2  0
 10 11  1  0
 11 12  2  0
 12 13  1  0
 13 14  1  0
 13 15  2  0
 12 16  1  0
 16 17  1  0
 17 18  2  0
 17 19  1  0
 19 20  1  0
 20 21  1  0
 20 22  1  0
 20 23  1  0
 23 24  1  0
 24 25  2  0
 24 26  1  0
 16 27  1  0
 27 28  2  0
  6  2  1  0
 28  7  1  0
 27 10  1  0
  1 29  1  0
  1 30  1  0
  1 31  1  0
  3 32  1  0
  4 33  1  0
  8 34  1  0
  9 35  1  0
 11 36  1  0
 14 37  1  0
 14 38  1  0
 21 39  1  0
 21 40  1  0
 21 41  1  0
 22 42  1  0
 22 43  1  0
 22 44  1  0
 28 45  1  0
M  CHG  1  26  -1
M  END
>  <UniqueID>  (75) 
74

>  <SMILES>  (75) 
Cn1ccnc1-c1ccc2cc(C(N)=O)n(C(=O)OC(C)(C)OC(=O)[O-])c2c1

>  <Energy>  (75) 
115.85951261101768

>  <Genealogy>  (75) 
Cn1ccnc1-c1ccc2cc(C(N)=O)n(C(=O)OC(C)(C)OC(=O)[O-])c2c1 (protonated)
Cn1ccnc1-c1ccc2cc(C(N)=O)n(C(=O)OC(C)(C)OC(=O)[O-])c2c1 (3D coordinates assigned)
Cn1ccnc1-c1ccc2cc(C(N)=O)n(C(=O)OC(C)(C)OC(=O)[O-])c2c1 (optimized conformer: 115.85951261101768 kcal/mol)

>  <smiles>  (75) 
Cn1ccnc1-c1ccc2cc(C(N)=O)n(C(=O)OC(C)(C)OC(=O)O)c2c1

>  <score_type>  (75) 
oracle

>  <origin>  (75) 
adg

>  <m_score__min__energy>  (75) 
-11.390000000000001

>  <m_primary>  (75) 
energy

$$$$
75:0
     RDKit          3D

 28 29  0  0  0  0  0  0  0  0999 V2000
   -4.1740   25.5240  -30.6850 N   0  0  0  0  0  0  0  0  0  0  0  0
   -5.5390   25.1230  -30.5520 C   0  0  0  0  0  0  0  0  0  0  0  0
   -6.3820   25.9420  -30.1010 O   0  0  0  0  0  0  0  0  0  0  0  0
   -5.9890   23.7890  -30.9970 C   0  0  0  0  0  0  0  0  0  0  0  0
   -7.3260   23.4630  -31.2030 C   0  0  0  0  0  0  0  0  0  0  0  0
   -7.3160   22.1690  -31.6720 C   0  0  0  0  0  0  0  0  0  0  0  0
   -8.3760   21.3350  -32.0150 C   0  0  0  0  0  0  0  0  0  0  0  0
   -8.0780   20.0260  -32.4260 C   0  0  0  0  0  0  0  0  0  0  0  0
   -6.7350   19.5740  -32.4930 C   0  0  0  0  0  0  0  0  0  0  0  0
   -6.4320   18.1470  -32.8740 C   0  0  0  0  0  0  0  0  0  0  0  0
   -6.0460   18.1020  -34.2000 F   0  0  0  0  0  0  0  0  0  0  0  0
   -7.5480   17.3470  -32.7010 F   0  0  0  0  0  0  0  0  0  0  0  0
   -5.4100   17.6390  -32.0900 F   0  0  0  0  0  0  0  0  0  0  0  0
   -5.6870   20.4440  -32.1100 C   0  0  0  0  0  0  0  0  0  0  0  0
   -6.0110   21.7510  -31.7250 C   0  0  0  0  0  0  0  0  0  0  0  0
   -5.1830   22.7360  -31.3090 N   0  0  0  0  0  0  0  0  0  0  0  0
   -3.7610   22.6360  -31.1170 C   0  0  0  0  0  0  0  0  0  0  0  0
   -3.0310   22.2030  -32.0480 O   0  0  0  0  0  0  0  0  0  0  0  0
   -3.1840   23.0200  -29.8610 N   0  0  0  0  0  0  0  0  0  0  0  0
   -2.0400   23.8640  -29.7010 C   0  0  0  0  0  0  0  0  0  0  0  0
   -0.8720   23.4080  -29.8230 O   0  0  0  0  0  0  0  0  0  0  0  0
   -2.2200   25.2100  -29.4100 O   0  0  0  0  0  0  0  0  0  0  0  0
   -3.4860   24.9360  -31.2050 H   0  0  0  0  0  0  0  0  0  0  0  0
   -3.8660   26.4560  -30.3290 H   0  0  0  0  0  0  0  0  0  0  0  0
   -8.2036   24.1028  -31.0283 H   0  0  0  0  0  0  0  0  0  0  0  0
   -9.4158   21.6906  -31.9656 H   0  0  0  0  0  0  0  0  0  0  0  0
   -8.8956   19.3428  -32.6993 H   0  0  0  0  0  0  0  0  0  0  0  0
   -4.6416   20.1017  -32.1145 H   0  0  0  0  0  0  0  0  0  0  0  0
  1  2  1  0
  2  3  2  0
  2  4  1  0
  4  5  2  0
  5  6  1  0
  6  7  2  0
  7  8  1  0
  8  9  2  0
  9 10  1  0
 10 11  1  0
 10 12  1  0
 10 13  1  0
  9 14  1  0
 14 15  2  0
 15 16  1  0
 16 17  1  0
 17 18  2  0
 17 19  1  0
 19 20  1  0
 20 21  2  0
 20 22  1  0
 16  4  1  0
 15  6  1  0
  1 23  1  0
  1 24  1  0
  5 25  1  0
  7 26  1  0
  8 27  1  0
 14 28  1  0
M  CHG  2  19  -1  22  -1
M  END
>  <UniqueID>  (76) 
75

>  <SMILES>  (76) 
NC(=O)c1cc2ccc(C(F)(F)F)cc2n1C(=O)[N-]C(=O)[O-]

>  <Energy>  (76) 
69.05922256820075

>  <Genealogy>  (76) 
NC(=O)c1cc2ccc(C(F)(F)F)cc2n1C(=O)[N-]C(=O)[O-] (protonated)
NC(=O)c1cc2ccc(C(F)(F)F)cc2n1C(=O)[N-]C(=O)[O-] (3D coordinates assigned)
NC(=O)c1cc2ccc(C(F)(F)F)cc2n1C(=O)[N-]C(=O)[O-] (optimized conformer: 69.05922256820075 kcal/mol)

>  <smiles>  (76) 
NC(=O)c1cc2ccc(C(F)(F)F)cc2n1C(=O)NC(=O)O

>  <score_type>  (76) 
oracle

>  <origin>  (76) 
adg

>  <m_score__min__energy>  (76) 
-9.8200000000000003

>  <m_primary>  (76) 
energy

$$$$
76:0
     RDKit          3D

 31 32  0  0  0  0  0  0  0  0999 V2000
   -3.5940   21.8710  -33.0620 C   0  0  0  0  0  0  0  0  0  0  0  0
   -3.1320   21.8960  -31.8060 C   0  0  0  0  0  0  0  0  0  0  0  0
   -1.6990   21.5180  -31.5430 C   0  0  0  0  0  0  0  0  0  0  0  0
   -4.0010   22.3450  -30.6900 C   0  0  0  0  0  0  0  0  0  0  0  0
   -3.5400   22.4220  -29.5180 O   0  0  0  0  0  0  0  0  0  0  0  0
   -5.3700   22.7060  -30.9260 N   0  0  0  0  0  0  0  0  0  0  0  0
   -5.9520   23.9230  -30.7440 C   0  0  0  0  0  0  0  0  0  0  0  0
   -5.2530   25.1590  -30.3340 C   0  0  0  0  0  0  0  0  0  0  0  0
   -3.8550   25.2990  -30.5770 N   0  0  0  0  0  0  0  0  0  0  0  0
   -5.8750   26.0890  -29.7560 O   0  0  0  0  0  0  0  0  0  0  0  0
   -7.3120   23.8600  -31.0440 C   0  0  0  0  0  0  0  0  0  0  0  0
   -7.5450   22.5540  -31.4130 C   0  0  0  0  0  0  0  0  0  0  0  0
   -8.7210   21.9290  -31.8110 C   0  0  0  0  0  0  0  0  0  0  0  0
   -8.6680   20.5590  -32.1200 C   0  0  0  0  0  0  0  0  0  0  0  0
   -7.4530   19.8330  -32.0010 C   0  0  0  0  0  0  0  0  0  0  0  0
   -7.3990   18.3750  -32.3760 C   0  0  0  0  0  0  0  0  0  0  0  0
   -6.9030   18.2530  -33.6610 F   0  0  0  0  0  0  0  0  0  0  0  0
   -6.5770   17.6780  -31.5080 F   0  0  0  0  0  0  0  0  0  0  0  0
   -8.6610   17.8090  -32.3240 F   0  0  0  0  0  0  0  0  0  0  0  0
   -6.2740   20.5110  -31.6120 C   0  0  0  0  0  0  0  0  0  0  0  0
   -6.3570   21.8780  -31.3280 C   0  0  0  0  0  0  0  0  0  0  0  0
   -4.6391   22.1447  -33.2692 H   0  0  0  0  0  0  0  0  0  0  0  0
   -2.9286   21.5767  -33.8870 H   0  0  0  0  0  0  0  0  0  0  0  0
   -1.5251   21.4721  -30.4578 H   0  0  0  0  0  0  0  0  0  0  0  0
   -1.4914   20.5344  -31.9895 H   0  0  0  0  0  0  0  0  0  0  0  0
   -1.0332   22.2712  -31.9895 H   0  0  0  0  0  0  0  0  0  0  0  0
   -3.4940   26.0330  -31.2250 H   0  0  0  0  0  0  0  0  0  0  0  0
   -8.0438   24.6798  -30.9961 H   0  0  0  0  0  0  0  0  0  0  0  0
   -9.6647   22.4897  -31.8820 H   0  0  0  0  0  0  0  0  0  0  0  0
   -9.5785   20.0427  -32.4581 H   0  0  0  0  0  0  0  0  0  0  0  0
   -5.3157   19.9764  -31.5348 H   0  0  0  0  0  0  0  0  0  0  0  0
  1  2  2  0
  2  3  1  0
  2  4  1  0
  4  5  2  0
  4  6  1  0
  6  7  1  0
  7  8  1  0
  8  9  1  0
  8 10  2  0
  7 11  2  0
 11 12  1  0
 12 13  2  0
 13 14  1  0
 14 15  2  0
 15 16  1  0
 16 17  1  0
 16 18  1  0
 16 19  1  0
 15 20  1  0
 20 21  2  0
 21  6  1  0
 21 12  1  0
  1 22  1  0
  1 23  1  0
  3 24  1  0
  3 25  1  0
  3 26  1  0
  9 27  1  0
 11 28  1  0
 13 29  1  0
 14 30  1  0
 20 31  1  0
M  CHG  1   9  -1
M  END
>  <UniqueID>  (77) 
76

>  <SMILES>  (77) 
C=C(C)C(=O)n1c(C([NH-])=O)cc2ccc(C(F)(F)F)cc21

>  <Energy>  (77) 
69.9892053534239

>  <Genealogy>  (77) 
C=C(C)C(=O)n1c(C([NH-])=O)cc2ccc(C(F)(F)F)cc21 (protonated)
C=C(C)C(=O)n1c(C([NH-])=O)cc2ccc(C(F)(F)F)cc21 (3D coordinates assigned)
C=C(C)C(=O)n1c(C([NH-])=O)cc2ccc(C(F)(F)F)cc21 (optimized conformer: 69.9892053534239 kcal/mol)

>  <smiles>  (77) 
C=C(C)C(=O)n1c(C(N)=O)cc2ccc(C(F)(F)F)cc21

>  <score_type>  (77) 
oracle

>  <origin>  (77) 
adg

>  <m_score__min__energy>  (77) 
-9.9000000000000004

>  <m_primary>  (77) 
energy

$$$$
77:0
     RDKit          3D

 51 54  0  0  0  0  0  0  0  0999 V2000
   -1.6740   21.3680  -30.2720 C   0  0  0  0  0  0  0  0  0  0  0  0
   -2.1810   22.4590  -30.8570 C   0  0  0  0  0  0  0  0  0  0  0  0
   -3.4830   23.0740  -30.4180 C   0  0  2  0  0  0  0  0  0  0  0  0
   -4.4670   22.8980  -31.4390 O   0  0  0  0  0  0  0  0  0  0  0  0
   -4.5390   21.7620  -32.2550 C   0  0  0  0  0  0  0  0  0  0  0  0
   -3.5380   21.4030  -32.9320 O   0  0  0  0  0  0  0  0  0  0  0  0
   -5.7660   21.0160  -32.3310 N   0  0  0  0  0  0  0  0  0  0  0  0
   -7.0360   21.5110  -32.3020 C   0  0  0  0  0  0  0  0  0  0  0  0
   -7.4050   22.9150  -32.0150 C   0  0  0  0  0  0  0  0  0  0  0  0
   -6.6010   23.9920  -32.4980 N   0  0  0  0  0  0  0  0  0  0  0  0
   -8.4530   23.1740  -31.3680 O   0  0  0  0  0  0  0  0  0  0  0  0
   -7.9630   20.4900  -32.4890 C   0  0  0  0  0  0  0  0  0  0  0  0
   -7.2150   19.3440  -32.6360 C   0  0  0  0  0  0  0  0  0  0  0  0
   -7.6250   18.0400  -32.8600 C   0  0  0  0  0  0  0  0  0  0  0  0
   -6.6390   17.0510  -33.0040 C   0  0  0  0  0  0  0  0  0  0  0  0
   -5.2440   17.3650  -32.9360 C   0  0  0  0  0  0  0  0  0  0  0  0
   -4.2190   16.3250  -33.1010 N   0  0  0  0  0  0  0  0  0  0  0  0
   -2.7980   16.7780  -33.1330 C   0  0  0  0  0  0  0  0  0  0  0  0
   -1.7010   15.7270  -33.3660 C   0  0  2  0  0  0  0  0  0  0  0  0
   -1.8860   14.9880  -34.7070 C   0  0  0  0  0  0  0  0  0  0  0  0
   -2.8930   13.8250  -34.6150 C   0  0  0  0  0  0  0  0  0  0  0  0
   -3.6500   13.7880  -33.2770 C   0  0  2  0  0  0  0  0  0  0  0  0
   -4.6940   14.9140  -33.1850 C   0  0  0  0  0  0  0  0  0  0  0  0
   -2.6730   13.8790  -32.1530 C   0  0  0  0  0  0  0  0  0  0  0  0
   -2.7610   13.1440  -31.1350 O   0  0  0  0  0  0  0  0  0  0  0  0
   -1.6610   14.8170  -32.2700 O   0  0  0  0  0  0  0  0  0  0  0  0
   -4.8870   18.7280  -32.7020 C   0  0  0  0  0  0  0  0  0  0  0  0
   -5.8950   19.6850  -32.5410 C   0  0  0  0  0  0  0  0  0  0  0  0
   -3.2860   24.5300  -30.1080 C   0  0  0  0  0  0  0  0  0  0  0  0
   -2.5080   24.8780  -29.1800 O   0  0  0  0  0  0  0  0  0  0  0  0
   -3.9230   25.5040  -30.8680 O   0  0  0  0  0  0  0  0  0  0  0  0
   -0.7191   20.9493  -30.6227 H   0  0  0  0  0  0  0  0  0  0  0  0
   -2.2120   20.8896  -29.4403 H   0  0  0  0  0  0  0  0  0  0  0  0
   -1.6277   22.9225  -31.6871 H   0  0  0  0  0  0  0  0  0  0  0  0
   -3.8345   22.5734  -29.5038 H   0  0  0  0  0  0  0  0  0  0  0  0
   -5.7010   23.8150  -32.9960 H   0  0  0  0  0  0  0  0  0  0  0  0
   -6.8890   24.9810  -32.3220 H   0  0  0  0  0  0  0  0  0  0  0  0
   -9.0591   20.5797  -32.5140 H   0  0  0  0  0  0  0  0  0  0  0  0
   -8.6935   17.7864  -32.9233 H   0  0  0  0  0  0  0  0  0  0  0  0
   -6.9462   16.0084  -33.1734 H   0  0  0  0  0  0  0  0  0  0  0  0
   -2.7119   17.5221  -33.9386 H   0  0  0  0  0  0  0  0  0  0  0  0
   -2.6083   17.1456  -32.1137 H   0  0  0  0  0  0  0  0  0  0  0  0
   -0.7340   16.2478  -33.4274 H   0  0  0  0  0  0  0  0  0  0  0  0
   -2.2471   15.7068  -35.4573 H   0  0  0  0  0  0  0  0  0  0  0  0
   -0.9117   14.5606  -34.9864 H   0  0  0  0  0  0  0  0  0  0  0  0
   -3.6254   13.9306  -35.4289 H   0  0  0  0  0  0  0  0  0  0  0  0
   -2.3213   12.8886  -34.6948 H   0  0  0  0  0  0  0  0  0  0  0  0
   -4.1961   12.8354  -33.2106 H   0  0  0  0  0  0  0  0  0  0  0  0
   -5.3306   14.8392  -34.0789 H   0  0  0  0  0  0  0  0  0  0  0  0
   -5.1896   14.7407  -32.2184 H   0  0  0  0  0  0  0  0  0  0  0  0
   -3.8286   19.0229  -32.6488 H   0  0  0  0  0  0  0  0  0  0  0  0
  1  2  2  0
  2  3  1  0
  3  4  1  0
  4  5  1  0
  5  6  2  0
  5  7  1  0
  7  8  1  0
  8  9  1  0
  9 10  1  0
  9 11  2  0
  8 12  2  0
 12 13  1  0
 13 14  2  0
 14 15  1  0
 15 16  2  0
 16 17  1  0
 17 18  1  0
 18 19  1  0
 19 20  1  0
 20 21  1  0
 21 22  1  0
 22 23  1  0
 22 24  1  0
 24 25  2  0
 24 26  1  0
 16 27  1  0
 27 28  2  0
  3 29  1  0
 29 30  2  0
 29 31  1  0
 28  7  1  0
 28 13  1  0
 23 17  1  0
 26 19  1  0
  1 32  1  0
  1 33  1  0
  2 34  1  0
  3 35  1  1
 10 36  1  0
 10 37  1  0
 12 38  1  0
 14 39  1  0
 15 40  1  0
 18 41  1  0
 18 42  1  0
 19 43  1  6
 20 44  1  0
 20 45  1  0
 21 46  1  0
 21 47  1  0
 22 48  1  1
 23 49  1  0
 23 50  1  0
 27 51  1  0
M  CHG  1  31  -1
M  END
>  <UniqueID>  (78) 
77

>  <SMILES>  (78) 
C=C[C@H](OC(=O)n1c(C(N)=O)cc2ccc(N3CC4CC[C@@H](C3)OC4=O)cc21)C(=O)[O-]

>  <Energy>  (78) 
107.51052522260295

>  <Genealogy>  (78) 
C=CC(OC(=O)n1c(C(N)=O)cc2ccc(N3CC4CCC(C3)C(=O)O4)cc21)C(=O)[O-] (protonated)
C=C[C@H](OC(=O)n1c(C(N)=O)cc2ccc(N3CC4CC[C@@H](C3)OC4=O)cc21)C(=O)[O-] (chirality)
C=C[C@H](OC(=O)n1c(C(N)=O)cc2ccc(N3CC4CC[C@@H](C3)OC4=O)cc21)C(=O)[O-] (3D coordinates assigned)
C=C[C@H](OC(=O)n1c(C(N)=O)cc2ccc(N3CC4CC[C@@H](C3)OC4=O)cc21)C(=O)[O-] (nonaromatic ring conformer: 107.51052522260295 kcal/mol)

>  <smiles>  (78) 
C=CC(OC(=O)n1c(C(N)=O)cc2ccc(N3CC4CCC(C3)C(=O)O4)cc21)C(=O)O

>  <score_type>  (78) 
oracle

>  <origin>  (78) 
adg

>  <m_score__min__energy>  (78) 
-10.58

>  <m_primary>  (78) 
energy

$$$$
78:0
     RDKit          3D

 37 38  0  0  0  0  0  0  0  0999 V2000
   -2.6570   20.8080  -27.6840 C   0  0  0  0  0  0  0  0  0  0  0  0
   -3.2930   21.7370  -28.5420 N   0  0  0  0  0  0  0  0  0  0  0  0
   -3.9930   22.9120  -27.9280 C   0  0  0  0  0  0  0  0  0  0  0  0
   -3.2420   21.4770  -29.9250 C   0  0  0  0  0  0  0  0  0  0  0  0
   -2.6050   20.4470  -30.3520 O   0  0  0  0  0  0  0  0  0  0  0  0
   -3.8870   22.4340  -30.8680 C   0  0  0  0  0  0  0  0  0  0  0  0
   -3.1530   23.1190  -31.5280 O   0  0  0  0  0  0  0  0  0  0  0  0
   -5.3160   22.6940  -31.1050 N   0  0  0  0  0  0  0  0  0  0  0  0
   -5.9000   23.9220  -30.8520 C   0  0  0  0  0  0  0  0  0  0  0  0
   -5.2110   25.2820  -30.4660 C   0  0  0  0  0  0  0  0  0  0  0  0
   -3.8850   25.6700  -30.8340 N   0  0  0  0  0  0  0  0  0  0  0  0
   -5.9470   26.1020  -29.9040 O   0  0  0  0  0  0  0  0  0  0  0  0
   -7.2250   23.8730  -31.0060 C   0  0  0  0  0  0  0  0  0  0  0  0
   -7.5220   22.6210  -31.3610 C   0  0  0  0  0  0  0  0  0  0  0  0
   -8.7840   22.0690  -31.6340 C   0  0  0  0  0  0  0  0  0  0  0  0
   -8.8750   20.7320  -31.9640 C   0  0  0  0  0  0  0  0  0  0  0  0
   -7.6870   19.9350  -32.0130 C   0  0  0  0  0  0  0  0  0  0  0  0
   -7.8030   18.5140  -32.3620 C   0  0  0  0  0  0  0  0  0  0  0  0
   -6.4930   18.1230  -33.5290 P   0  0  0  0  0  0  0  0  0  0  0  0
   -5.6290   16.9060  -33.2940 O   0  0  0  0  0  0  0  0  0  0  0  0
   -6.1150   19.2250  -34.8030 O   0  0  0  0  0  0  0  0  0  0  0  0
   -6.4250   20.5380  -31.7300 C   0  0  0  0  0  0  0  0  0  0  0  0
   -6.3730   21.8940  -31.4110 C   0  0  0  0  0  0  0  0  0  0  0  0
   -2.8474   21.0861  -26.6369 H   0  0  0  0  0  0  0  0  0  0  0  0
   -3.0558   19.8006  -27.8742 H   0  0  0  0  0  0  0  0  0  0  0  0
   -1.5736   20.8154  -27.8742 H   0  0  0  0  0  0  0  0  0  0  0  0
   -3.9468   22.8345  -26.8317 H   0  0  0  0  0  0  0  0  0  0  0  0
   -3.5013   23.8415  -28.2509 H   0  0  0  0  0  0  0  0  0  0  0  0
   -5.0445   22.9221  -28.2509 H   0  0  0  0  0  0  0  0  0  0  0  0
   -3.1060   25.0850  -30.5620 H   0  0  0  0  0  0  0  0  0  0  0  0
   -7.9339   24.7026  -30.8674 H   0  0  0  0  0  0  0  0  0  0  0  0
   -9.6880   22.6939  -31.5855 H   0  0  0  0  0  0  0  0  0  0  0  0
   -9.8535   20.2820  -32.1878 H   0  0  0  0  0  0  0  0  0  0  0  0
   -7.6945   17.8970  -31.4578 H   0  0  0  0  0  0  0  0  0  0  0  0
   -8.7873   18.3080  -32.8078 H   0  0  0  0  0  0  0  0  0  0  0  0
   -6.9830   19.3560  -35.2810 H   0  0  0  0  0  0  0  0  0  0  0  0
   -5.5029   19.9391  -31.7632 H   0  0  0  0  0  0  0  0  0  0  0  0
  1  2  1  0
  2  3  1  0
  2  4  1  0
  4  5  2  0
  4  6  1  0
  6  7  2  0
  6  8  1  0
  8  9  1  0
  9 10  1  0
 10 11  1  0
 10 12  2  0
  9 13  2  0
 13 14  1  0
 14 15  2  0
 15 16  1  0
 16 17  2  0
 17 18  1  0
 18 19  1  0
 19 20  2  0
 19 21  1  0
 17 22  1  0
 22 23  2  0
 23  8  1  0
 23 14  1  0
  1 24  1  0
  1 25  1  0
  1 26  1  0
  3 27  1  0
  3 28  1  0
  3 29  1  0
 11 30  1  0
 13 31  1  0
 15 32  1  0
 16 33  1  0
 18 34  1  0
 18 35  1  0
 21 36  1  0
 22 37  1  0
M  CHG  2  11  -1  19   1
M  END
>  <UniqueID>  (79) 
78

>  <SMILES>  (79) 
CN(C)C(=O)C(=O)n1c(C([NH-])=O)cc2ccc(C[P+](=O)O)cc21

>  <Energy>  (79) 
151.36685459828522

>  <Genealogy>  (79) 
CN(C)C(=O)C(=O)n1c(C([NH-])=O)cc2ccc(C[P+](=O)O)cc21 (protonated)
CN(C)C(=O)C(=O)n1c(C([NH-])=O)cc2ccc(C[P+](=O)O)cc21 (chirality)
CN(C)C(=O)C(=O)n1c(C([NH-])=O)cc2ccc(C[P+](=O)O)cc21 (3D coordinates assigned)
CN(C)C(=O)C(=O)n1c(C([NH-])=O)cc2ccc(C[P+](=O)O)cc21 (optimized conformer: 151.36685459828522 kcal/mol)

>  <smiles>  (79) 
CN(C)C(=O)C(=O)n1c(C(N)=O)cc2ccc(C[P+](=O)O)cc21

>  <score_type>  (79) 
oracle

>  <origin>  (79) 
adg

>  <m_score__min__energy>  (79) 
-10.630000000000001

>  <m_primary>  (79) 
energy

$$$$
79:0
     RDKit          3D

 45 46  0  0  0  0  0  0  0  0999 V2000
   -7.0480   23.4230  -30.8580 C   0  0  0  0  0  0  0  0  0  0  0  0
   -7.4250   22.2570  -31.7130 C   0  0  0  0  0  0  0  0  0  0  0  0
   -6.7680   22.0150  -32.7620 O   0  0  0  0  0  0  0  0  0  0  0  0
   -8.5320   21.4260  -31.3390 N   0  0  0  0  0  0  0  0  0  0  0  0
   -8.9700   20.2880  -32.1450 C   0  0  0  0  0  0  0  0  0  0  0  0
   -8.7490   18.9750  -31.3840 C   0  0  0  0  0  0  0  0  0  0  0  0
   -7.5940   18.1590  -31.9770 C   0  0  0  0  0  0  0  0  0  0  0  0
   -7.2290   18.6540  -33.3030 N   0  0  0  0  0  0  0  0  0  0  0  0
   -6.0760   18.2560  -34.0550 C   0  0  0  0  0  0  0  0  0  0  0  0
   -6.2170   17.4000  -34.9680 O   0  0  0  0  0  0  0  0  0  0  0  0
   -4.7020   18.7910  -33.7590 C   0  0  0  0  0  0  0  0  0  0  0  0
   -4.7820   19.9750  -32.9030 N   0  0  0  0  0  0  0  0  0  0  0  0
   -3.6630   20.5650  -32.2130 C   0  0  0  0  0  0  0  0  0  0  0  0
   -2.3820   19.9500  -32.2040 C   0  0  0  0  0  0  0  0  0  0  0  0
   -1.3020   20.5510  -31.5360 C   0  0  0  0  0  0  0  0  0  0  0  0
   -1.5260   21.7580  -30.8840 C   0  0  0  0  0  0  0  0  0  0  0  0
   -0.6550   22.5620  -30.1860 C   0  0  0  0  0  0  0  0  0  0  0  0
   -1.4150   23.6500  -29.7610 C   0  0  0  0  0  0  0  0  0  0  0  0
   -0.8840   24.7250  -28.8970 C   0  0  0  0  0  0  0  0  0  0  0  0
   -1.5610   25.9780  -28.8300 N   0  0  0  0  0  0  0  0  0  0  0  0
    0.1800   24.5630  -28.2450 O   0  0  0  0  0  0  0  0  0  0  0  0
   -2.7060   23.5260  -30.1870 N   0  0  0  0  0  0  0  0  0  0  0  0
   -3.7870   24.4550  -30.0090 C   0  0  0  0  0  0  0  0  0  0  0  0
   -4.6700   24.2460  -29.1360 O   0  0  0  0  0  0  0  0  0  0  0  0
   -3.8560   25.6080  -30.7840 O   0  0  0  0  0  0  0  0  0  0  0  0
   -2.7570   22.3610  -30.8710 C   0  0  0  0  0  0  0  0  0  0  0  0
   -3.8460   21.7950  -31.5440 C   0  0  0  0  0  0  0  0  0  0  0  0
   -7.1381   23.1445  -29.7977 H   0  0  0  0  0  0  0  0  0  0  0  0
   -6.0096   23.7151  -31.0735 H   0  0  0  0  0  0  0  0  0  0  0  0
   -7.7188   24.2678  -31.0735 H   0  0  0  0  0  0  0  0  0  0  0  0
   -9.0160   21.6080  -30.4310 H   0  0  0  0  0  0  0  0  0  0  0  0
  -10.0401   20.3976  -32.3749 H   0  0  0  0  0  0  0  0  0  0  0  0
   -8.3832   20.2636  -33.0751 H   0  0  0  0  0  0  0  0  0  0  0  0
   -8.5183   19.2069  -30.3338 H   0  0  0  0  0  0  0  0  0  0  0  0
   -9.6674   18.3750  -31.4646 H   0  0  0  0  0  0  0  0  0  0  0  0
   -6.7212   18.2352  -31.3119 H   0  0  0  0  0  0  0  0  0  0  0  0
   -7.9171   17.1117  -32.0708 H   0  0  0  0  0  0  0  0  0  0  0  0
   -4.1145   18.0144  -33.2474 H   0  0  0  0  0  0  0  0  0  0  0  0
   -4.2196   19.0716  -34.7070 H   0  0  0  0  0  0  0  0  0  0  0  0
   -5.7260   20.4050  -32.7700 H   0  0  0  0  0  0  0  0  0  0  0  0
   -2.2344   18.9929  -32.7257 H   0  0  0  0  0  0  0  0  0  0  0  0
   -0.3079   20.0800  -31.5291 H   0  0  0  0  0  0  0  0  0  0  0  0
    0.4148   22.3838  -30.0022 H   0  0  0  0  0  0  0  0  0  0  0  0
   -2.5950   26.0380  -28.9640 H   0  0  0  0  0  0  0  0  0  0  0  0
   -4.8242   22.2980  -31.5516 H   0  0  0  0  0  0  0  0  0  0  0  0
  1  2  1  0
  2  3  2  0
  2  4  1  0
  4  5  1  0
  5  6  1  0
  6  7  1  0
  7  8  1  0
  8  9  1  0
  9 10  2  0
  9 11  1  0
 11 12  1  0
 12 13  1  0
 13 14  2  0
 14 15  1  0
 15 16  2  0
 16 17  1  0
 17 18  2  0
 18 19  1  0
 19 20  1  0
 19 21  2  0
 18 22  1  0
 22 23  1  0
 23 24  2  0
 23 25  1  0
 22 26  1  0
 26 27  2  0
 27 13  1  0
 26 16  1  0
  1 28  1  0
  1 29  1  0
  1 30  1  0
  4 31  1  0
  5 32  1  0
  5 33  1  0
  6 34  1  0
  6 35  1  0
  7 36  1  0
  7 37  1  0
 11 38  1  0
 11 39  1  0
 12 40  1  0
 14 41  1  0
 15 42  1  0
 17 43  1  0
 20 44  1  0
 27 45  1  0
M  CHG  3   8  -1  20  -1  25  -1
M  END
>  <UniqueID>  (80) 
79

>  <SMILES>  (80) 
CC(=O)NCCC[N-]C(=O)CNc1ccc2cc(C([NH-])=O)n(C(=O)[O-])c2c1

>  <Energy>  (80) 
74.82634211703495

>  <Genealogy>  (80) 
CC(=O)NCCC[N-]C(=O)CNc1ccc2cc(C([NH-])=O)n(C(=O)[O-])c2c1 (protonated)
CC(=O)NCCC[N-]C(=O)CNc1ccc2cc(C([NH-])=O)n(C(=O)[O-])c2c1 (3D coordinates assigned)
CC(=O)NCCC[N-]C(=O)CNc1ccc2cc(C([NH-])=O)n(C(=O)[O-])c2c1 (optimized conformer: 74.82634211703495 kcal/mol)

>  <smiles>  (80) 
CC(=O)NCCCNC(=O)CNc1ccc2cc(C(N)=O)n(C(=O)O)c2c1

>  <score_type>  (80) 
oracle

>  <origin>  (80) 
adg

>  <m_score__min__energy>  (80) 
-10.9

>  <m_primary>  (80) 
energy

$$$$
80:0
     RDKit          3D

 48 49  0  0  0  0  0  0  0  0999 V2000
   -6.9710   17.2170  -33.0160 C   0  0  0  0  0  0  0  0  0  0  0  0
   -6.1410   18.3700  -33.3860 N   0  0  0  0  0  0  0  0  0  0  0  0
   -4.9840   18.1380  -34.2650 C   0  0  0  0  0  0  0  0  0  0  0  0
   -3.6790   18.1960  -33.4620 C   0  0  0  0  0  0  0  0  0  0  0  0
   -2.6490   19.0050  -34.1890 C   0  0  0  0  0  0  0  0  0  0  0  0
   -2.7390   20.4290  -34.2190 N   0  0  0  0  0  0  0  0  0  0  0  0
   -1.7200   18.4240  -34.8110 O   0  0  0  0  0  0  0  0  0  0  0  0
   -6.4300   19.6860  -32.8430 C   0  0  0  0  0  0  0  0  0  0  0  0
   -7.7740   20.1440  -32.7310 C   0  0  0  0  0  0  0  0  0  0  0  0
   -8.0690   21.4060  -32.1870 C   0  0  0  0  0  0  0  0  0  0  0  0
   -7.0090   22.2020  -31.7710 C   0  0  0  0  0  0  0  0  0  0  0  0
   -7.0130   23.4430  -31.1780 C   0  0  0  0  0  0  0  0  0  0  0  0
   -5.6730   23.7520  -30.9560 C   0  0  0  0  0  0  0  0  0  0  0  0
   -5.2170   25.0400  -30.3950 C   0  0  0  0  0  0  0  0  0  0  0  0
   -4.0080   25.6470  -30.8400 N   0  0  0  0  0  0  0  0  0  0  0  0
   -5.9300   25.6360  -29.5450 O   0  0  0  0  0  0  0  0  0  0  0  0
   -4.8720   22.7380  -31.3920 N   0  0  0  0  0  0  0  0  0  0  0  0
   -3.4470   22.6230  -31.2610 C   0  0  0  0  0  0  0  0  0  0  0  0
   -2.8410   21.6710  -31.8240 O   0  0  0  0  0  0  0  0  0  0  0  0
   -2.7440   23.5590  -30.4880 O   0  0  0  0  0  0  0  0  0  0  0  0
   -1.8620   23.2420  -29.4010 C   0  0  0  0  0  0  0  0  0  0  0  0
   -2.7290   22.9800  -28.1630 C   0  0  0  0  0  0  0  0  0  0  0  0
   -1.0640   21.9650  -29.7390 C   0  0  0  0  0  0  0  0  0  0  0  0
   -0.9440   24.4070  -29.1010 C   0  0  0  0  0  0  0  0  0  0  0  0
    0.2000   24.2150  -28.6070 O   0  0  0  0  0  0  0  0  0  0  0  0
   -1.3880   25.7090  -29.2940 O   0  0  0  0  0  0  0  0  0  0  0  0
   -5.7070   21.7970  -31.8870 C   0  0  0  0  0  0  0  0  0  0  0  0
   -5.3840   20.5370  -32.4020 C   0  0  0  0  0  0  0  0  0  0  0  0
   -7.0256   17.1412  -31.9200 H   0  0  0  0  0  0  0  0  0  0  0  0
   -7.9836   17.3477  -33.4254 H   0  0  0  0  0  0  0  0  0  0  0  0
   -6.5257   16.2982  -33.4254 H   0  0  0  0  0  0  0  0  0  0  0  0
   -5.0776   17.1467  -34.7324 H   0  0  0  0  0  0  0  0  0  0  0  0
   -4.9615   18.9210  -35.0373 H   0  0  0  0  0  0  0  0  0  0  0  0
   -3.8768   18.6576  -32.4833 H   0  0  0  0  0  0  0  0  0  0  0  0
   -3.2980   17.1726  -33.3296 H   0  0  0  0  0  0  0  0  0  0  0  0
   -3.5180   20.9230  -33.7270 H   0  0  0  0  0  0  0  0  0  0  0  0
   -2.0280   20.9920  -34.7360 H   0  0  0  0  0  0  0  0  0  0  0  0
   -8.5954   19.4989  -33.0762 H   0  0  0  0  0  0  0  0  0  0  0  0
   -9.1086   21.7532  -32.0934 H   0  0  0  0  0  0  0  0  0  0  0  0
   -7.8890   24.0608  -30.9313 H   0  0  0  0  0  0  0  0  0  0  0  0
   -3.0780   25.2780  -30.5400 H   0  0  0  0  0  0  0  0  0  0  0  0
   -2.1350   23.1595  -27.2547 H   0  0  0  0  0  0  0  0  0  0  0  0
   -3.5967   23.6561  -28.1733 H   0  0  0  0  0  0  0  0  0  0  0  0
   -3.0770   21.9366  -28.1733 H   0  0  0  0  0  0  0  0  0  0  0  0
   -0.7540   21.4690  -28.8074 H   0  0  0  0  0  0  0  0  0  0  0  0
   -1.6962   21.2819  -30.3253 H   0  0  0  0  0  0  0  0  0  0  0  0
   -0.1729   22.2339  -30.3253 H   0  0  0  0  0  0  0  0  0  0  0  0
   -4.3352   20.2111  -32.4641 H   0  0  0  0  0  0  0  0  0  0  0  0
  1  2  1  0
  2  3  1  0
  3  4  1  0
  4  5  1  0
  5  6  1  0
  5  7  2  0
  2  8  1  0
  8  9  2  0
  9 10  1  0
 10 11  2  0
 11 12  1  0
 12 13  2  0
 13 14  1  0
 14 15  1  0
 14 16  2  0
 13 17  1  0
 17 18  1  0
 18 19  2  0
 18 20  1  0
 20 21  1  0
 21 22  1  0
 21 23  1  0
 21 24  1  0
 24 25  2  0
 24 26  1  0
 17 27  1  0
 27 28  2  0
 28  8  1  0
 27 11  1  0
  1 29  1  0
  1 30  1  0
  1 31  1  0
  3 32  1  0
  3 33  1  0
  4 34  1  0
  4 35  1  0
  6 36  1  0
  6 37  1  0
  9 38  1  0
 10 39  1  0
 12 40  1  0
 15 41  1  0
 22 42  1  0
 22 43  1  0
 22 44  1  0
 23 45  1  0
 23 46  1  0
 23 47  1  0
 28 48  1  0
M  CHG  2  15  -1  26  -1
M  END
>  <UniqueID>  (81) 
80

>  <SMILES>  (81) 
CN(CCC(N)=O)c1ccc2cc(C([NH-])=O)n(C(=O)OC(C)(C)C(=O)[O-])c2c1

>  <Energy>  (81) 
80.56187774610369

>  <Genealogy>  (81) 
CN(CCC(N)=O)c1ccc2cc(C([NH-])=O)n(C(=O)OC(C)(C)C(=O)[O-])c2c1 (protonated)
CN(CCC(N)=O)c1ccc2cc(C([NH-])=O)n(C(=O)OC(C)(C)C(=O)[O-])c2c1 (3D coordinates assigned)
CN(CCC(N)=O)c1ccc2cc(C([NH-])=O)n(C(=O)OC(C)(C)C(=O)[O-])c2c1 (optimized conformer: 80.56187774610369 kcal/mol)

>  <smiles>  (81) 
CN(CCC(N)=O)c1ccc2cc(C(N)=O)n(C(=O)OC(C)(C)C(=O)O)c2c1

>  <score_type>  (81) 
oracle

>  <origin>  (81) 
adg

>  <m_score__min__energy>  (81) 
-12.970000000000001

>  <m_primary>  (81) 
energy

$$$$
81:0
     RDKit          3D

 33 34  0  0  0  0  0  0  0  0999 V2000
   -7.2430   17.2720  -33.1710 C   0  0  0  0  0  0  0  0  0  0  0  0
   -7.3020   18.4020  -32.7550 C   0  0  0  0  0  0  0  0  0  0  0  0
   -7.3720   19.7510  -32.2580 C   0  0  0  0  0  0  0  0  0  0  0  0
   -8.6300   20.3360  -31.9830 C   0  0  0  0  0  0  0  0  0  0  0  0
   -8.7130   21.6570  -31.5070 C   0  0  0  0  0  0  0  0  0  0  0  0
   -7.5240   22.3550  -31.3140 C   0  0  0  0  0  0  0  0  0  0  0  0
   -7.3120   23.6480  -30.8900 C   0  0  0  0  0  0  0  0  0  0  0  0
   -5.9290   23.8190  -30.9010 C   0  0  0  0  0  0  0  0  0  0  0  0
   -5.2480   25.0600  -30.4740 C   0  0  0  0  0  0  0  0  0  0  0  0
   -3.8880   25.2840  -30.8370 N   0  0  0  0  0  0  0  0  0  0  0  0
   -5.8610   25.9350  -29.8070 O   0  0  0  0  0  0  0  0  0  0  0  0
   -5.3110   22.6750  -31.3090 N   0  0  0  0  0  0  0  0  0  0  0  0
   -3.9040   22.4610  -31.5020 C   0  0  0  0  0  0  0  0  0  0  0  0
   -3.4250   22.4750  -32.6680 O   0  0  0  0  0  0  0  0  0  0  0  0
   -3.0110   22.2350  -30.3570 C   0  0  0  0  0  0  0  0  0  0  0  0
   -3.2520   21.2980  -29.5480 O   0  0  0  0  0  0  0  0  0  0  0  0
   -1.9040   23.0710  -30.1730 O   0  0  0  0  0  0  0  0  0  0  0  0
   -1.3040   23.3120  -28.9030 C   0  0  0  0  0  0  0  0  0  0  0  0
   -2.0540   24.7690  -28.1120 P   0  0  1  0  0  0  0  0  0  0  0  0
   -1.5710   24.8890  -26.6840 O   0  0  0  0  0  0  0  0  0  0  0  0
   -1.6110   26.1590  -28.9680 O   0  0  0  0  0  0  0  0  0  0  0  0
   -3.7390   24.6150  -28.1220 O   0  0  0  0  0  0  0  0  0  0  0  0
   -6.2980   21.7900  -31.5620 C   0  0  0  0  0  0  0  0  0  0  0  0
   -6.1870   20.4850  -32.0530 C   0  0  0  0  0  0  0  0  0  0  0  0
   -7.1892   16.2410  -33.5506 H   0  0  0  0  0  0  0  0  0  0  0  0
   -9.5497   19.7540  -32.1424 H   0  0  0  0  0  0  0  0  0  0  0  0
   -9.6861   22.1236  -31.2941 H   0  0  0  0  0  0  0  0  0  0  0  0
   -8.0730   24.3888  -30.6034 H   0  0  0  0  0  0  0  0  0  0  0  0
   -3.1160   25.1270  -30.1500 H   0  0  0  0  0  0  0  0  0  0  0  0
   -1.4537   22.4329  -28.2590 H   0  0  0  0  0  0  0  0  0  0  0  0
   -0.2293   23.4978  -29.0461 H   0  0  0  0  0  0  0  0  0  0  0  0
   -4.0550   25.3410  -28.7170 H   0  0  0  0  0  0  0  0  0  0  0  0
   -5.2032   20.0446  -32.2727 H   0  0  0  0  0  0  0  0  0  0  0  0
  1  2  3  0
  2  3  1  0
  3  4  2  0
  4  5  1  0
  5  6  2  0
  6  7  1  0
  7  8  2  0
  8  9  1  0
  9 10  1  0
  9 11  2  0
  8 12  1  0
 12 13  1  0
 13 14  2  0
 13 15  1  0
 15 16  2  0
 15 17  1  0
 17 18  1  0
 18 19  1  0
 19 20  2  0
 19 21  1  6
 19 22  1  0
 12 23  1  0
 23 24  2  0
 24  3  1  0
 23  6  1  0
  1 25  1  0
  4 26  1  0
  5 27  1  0
  7 28  1  0
 10 29  1  0
 18 30  1  0
 18 31  1  0
 22 32  1  0
 24 33  1  0
M  CHG  2  10  -1  21  -1
M  END
>  <UniqueID>  (82) 
81

>  <SMILES>  (82) 
C#Cc1ccc2cc(C([NH-])=O)n(C(=O)C(=O)OC[P@@](=O)([O-])O)c2c1

>  <Energy>  (82) 
64.37882552036638

>  <Genealogy>  (82) 
C#Cc1ccc2cc(C([NH-])=O)n(C(=O)C(=O)OCP(=O)([O-])O)c2c1 (protonated)
C#Cc1ccc2cc(C([NH-])=O)n(C(=O)C(=O)OC[P@@](=O)([O-])O)c2c1 (chirality)
C#Cc1ccc2cc(C([NH-])=O)n(C(=O)C(=O)OC[P@@](=O)([O-])O)c2c1 (3D coordinates assigned)
C#Cc1ccc2cc(C([NH-])=O)n(C(=O)C(=O)OC[P@@](=O)([O-])O)c2c1 (optimized conformer: 64.37882552036638 kcal/mol)

>  <smiles>  (82) 
C#Cc1ccc2cc(C(N)=O)n(C(=O)C(=O)OCP(=O)(O)O)c2c1

>  <score_type>  (82) 
oracle

>  <origin>  (82) 
adg

>  <m_score__min__energy>  (82) 
-12.779999999999999

>  <m_primary>  (82) 
energy

$$$$
82:0
     RDKit          3D

 39 41  0  0  0  0  0  0  0  0999 V2000
   -3.2780   17.5450  -34.5580 C   0  0  0  0  0  0  0  0  0  0  0  0
   -3.3240   18.9570  -34.1380 N   0  0  0  0  0  0  0  0  0  0  0  0
   -3.4170   19.0800  -32.6740 C   0  0  0  0  0  0  0  0  0  0  0  0
   -2.0270   19.6810  -32.5580 C   0  0  0  0  0  0  0  0  0  0  0  0
   -2.0660   21.0730  -32.1240 N   0  0  0  0  0  0  0  0  0  0  0  0
   -3.1940   21.9210  -32.3540 C   0  0  0  0  0  0  0  0  0  0  0  0
   -3.6620   22.0520  -33.5180 O   0  0  0  0  0  0  0  0  0  0  0  0
   -3.8060   22.6450  -31.2300 C   0  0  0  0  0  0  0  0  0  0  0  0
   -3.0840   23.0430  -30.2770 O   0  0  0  0  0  0  0  0  0  0  0  0
   -5.2200   22.8980  -31.2030 N   0  0  0  0  0  0  0  0  0  0  0  0
   -5.8550   24.0340  -30.8010 C   0  0  0  0  0  0  0  0  0  0  0  0
   -5.2020   25.3050  -30.4210 C   0  0  0  0  0  0  0  0  0  0  0  0
   -3.8760   25.6060  -30.8470 N   0  0  0  0  0  0  0  0  0  0  0  0
   -5.8350   26.1510  -29.7330 O   0  0  0  0  0  0  0  0  0  0  0  0
   -7.2380   23.8580  -30.8410 C   0  0  0  0  0  0  0  0  0  0  0  0
   -7.4290   22.5680  -31.2830 C   0  0  0  0  0  0  0  0  0  0  0  0
   -8.6050   21.8520  -31.4790 C   0  0  0  0  0  0  0  0  0  0  0  0
   -8.5020   20.5160  -31.9020 C   0  0  0  0  0  0  0  0  0  0  0  0
   -7.2320   19.9220  -32.1300 C   0  0  0  0  0  0  0  0  0  0  0  0
   -7.1320   18.4710  -32.5230 C   0  0  0  0  0  0  0  0  0  0  0  0
   -6.1670   17.8560  -31.7500 F   0  0  0  0  0  0  0  0  0  0  0  0
   -6.7880   18.3500  -33.8580 F   0  0  0  0  0  0  0  0  0  0  0  0
   -8.3430   17.8290  -32.3290 F   0  0  0  0  0  0  0  0  0  0  0  0
   -6.0590   20.6760  -31.8910 C   0  0  0  0  0  0  0  0  0  0  0  0
   -6.1950   22.0090  -31.4900 C   0  0  0  0  0  0  0  0  0  0  0  0
   -1.9770   19.5420  -34.0700 C   0  0  0  0  0  0  0  0  0  0  0  0
   -3.2569   16.8983  -33.6684 H   0  0  0  0  0  0  0  0  0  0  0  0
   -4.1690   17.3122  -35.1595 H   0  0  0  0  0  0  0  0  0  0  0  0
   -2.3737   17.3707  -35.1595 H   0  0  0  0  0  0  0  0  0  0  0  0
   -4.2162   19.7590  -32.3420 H   0  0  0  0  0  0  0  0  0  0  0  0
   -3.6593   18.1858  -32.0810 H   0  0  0  0  0  0  0  0  0  0  0  0
   -1.2471   19.2802  -31.8938 H   0  0  0  0  0  0  0  0  0  0  0  0
   -3.0480   25.2250  -30.3370 H   0  0  0  0  0  0  0  0  0  0  0  0
   -8.0118   24.5935  -30.5758 H   0  0  0  0  0  0  0  0  0  0  0  0
   -9.5867   22.3177  -31.3080 H   0  0  0  0  0  0  0  0  0  0  0  0
   -9.4154   19.9233  -32.0584 H   0  0  0  0  0  0  0  0  0  0  0  0
   -5.0639   20.2247  -32.0175 H   0  0  0  0  0  0  0  0  0  0  0  0
   -1.8915   20.5049  -34.5949 H   0  0  0  0  0  0  0  0  0  0  0  0
   -1.1381   18.9943  -34.5242 H   0  0  0  0  0  0  0  0  0  0  0  0
  1  2  1  0
  2  3  1  0
  3  4  1  0
  4  5  1  0
  5  6  1  0
  6  7  2  0
  6  8  1  0
  8  9  2  0
  8 10  1  0
 10 11  1  0
 11 12  1  0
 12 13  1  0
 12 14  2  0
 11 15  2  0
 15 16  1  0
 16 17  2  0
 17 18  1  0
 18 19  2  0
 19 20  1  0
 20 21  1  0
 20 22  1  0
 20 23  1  0
 19 24  1  0
 24 25  2  0
  4 26  1  0
 26  2  1  0
 25 10  1  0
 25 16  1  0
  1 27  1  0
  1 28  1  0
  1 29  1  0
  3 30  1  0
  3 31  1  0
  4 32  1  0
 13 33  1  0
 15 34  1  0
 17 35  1  0
 18 36  1  0
 24 37  1  0
 26 38  1  0
 26 39  1  0
M  CHG  2   5  -1  13  -1
M  END
>  <UniqueID>  (83) 
82

>  <SMILES>  (83) 
CN1CC([N-]C(=O)C(=O)n2c(C([NH-])=O)cc3ccc(C(F)(F)F)cc32)C1

>  <Energy>  (83) 
147.34619506806888

>  <Genealogy>  (83) 
CN1CC([N-]C(=O)C(=O)n2c(C([NH-])=O)cc3ccc(C(F)(F)F)cc32)C1 (protonated)
CN1CC([N-]C(=O)C(=O)n2c(C([NH-])=O)cc3ccc(C(F)(F)F)cc32)C1 (3D coordinates assigned)
CN1CC([N-]C(=O)C(=O)n2c(C([NH-])=O)cc3ccc(C(F)(F)F)cc32)C1 (nonaromatic ring conformer: 147.34619506806888 kcal/mol)

>  <smiles>  (83) 
CN1CC(NC(=O)C(=O)n2c(C(N)=O)cc3ccc(C(F)(F)F)cc32)C1

>  <score_type>  (83) 
oracle

>  <origin>  (83) 
adg

>  <m_score__min__energy>  (83) 
-11.01

>  <m_primary>  (83) 
energy

$$$$
83:0
     RDKit          3D

 45 47  0  0  1  0  0  0  0  0999 V2000
   -3.5700   22.0900  -27.7130 C   0  0  0  0  0  0  0  0  0  0  0  0
   -2.4280   22.8890  -28.2860 C   0  0  2  0  0  0  0  0  0  0  0  0
   -2.8180   24.3170  -28.2650 C   0  0  0  0  0  0  0  0  0  0  0  0
   -3.5890   24.7040  -27.3640 O   0  0  0  0  0  0  0  0  0  0  0  0
   -2.3660   25.2380  -29.1960 O   0  0  0  0  0  0  0  0  0  0  0  0
   -2.1110   22.5320  -29.6390 N   0  0  0  0  0  0  0  0  0  0  0  0
   -0.7420   22.5810  -30.0890 C   0  0  0  0  0  0  0  0  0  0  0  0
   -3.2070   22.1320  -30.5010 C   0  0  0  0  0  0  0  0  0  0  0  0
   -3.1390   20.9200  -30.8370 O   0  0  0  0  0  0  0  0  0  0  0  0
   -4.2200   23.0740  -30.8840 C   0  0  0  0  0  0  0  0  0  0  0  0
   -3.7580   24.2380  -31.2040 O   0  0  0  0  0  0  0  0  0  0  0  0
   -5.6070   22.9320  -30.9520 N   0  0  0  0  0  0  0  0  0  0  0  0
   -6.6150   23.7440  -30.5930 C   0  0  0  0  0  0  0  0  0  0  0  0
   -6.6380   24.9050  -29.7210 C   0  0  0  0  0  0  0  0  0  0  0  0
   -5.4150   25.2560  -29.0170 N   0  0  0  0  0  0  0  0  0  0  0  0
   -7.6020   25.6530  -29.5000 O   0  0  0  0  0  0  0  0  0  0  0  0
   -7.8380   23.2190  -31.0580 C   0  0  0  0  0  0  0  0  0  0  0  0
   -7.5500   22.0580  -31.7070 C   0  0  0  0  0  0  0  0  0  0  0  0
   -8.4040   21.1730  -32.3360 C   0  0  0  0  0  0  0  0  0  0  0  0
   -7.9050   20.0470  -32.9380 C   0  0  0  0  0  0  0  0  0  0  0  0
   -6.5460   19.8480  -32.8860 C   0  0  0  0  0  0  0  0  0  0  0  0
   -6.0110   18.6540  -33.5230 C   0  0  0  0  0  0  0  0  0  0  0  0
   -6.4540   17.3590  -33.2840 C   0  0  0  0  0  0  0  0  0  0  0  0
   -5.7460   16.5150  -34.0340 N   0  0  0  0  0  0  0  0  0  0  0  0
   -4.8610   17.2170  -34.7500 N   0  0  0  0  0  0  0  0  0  0  0  0
   -5.0090   18.5330  -34.4480 C   0  0  0  0  0  0  0  0  0  0  0  0
   -5.6910   20.7490  -32.2480 C   0  0  0  0  0  0  0  0  0  0  0  0
   -6.1930   21.8920  -31.6360 C   0  0  0  0  0  0  0  0  0  0  0  0
   -3.5248   22.1217  -26.6144 H   0  0  0  0  0  0  0  0  0  0  0  0
   -4.5243   22.5185  -28.0532 H   0  0  0  0  0  0  0  0  0  0  0  0
   -3.4945   21.0466  -28.0532 H   0  0  0  0  0  0  0  0  0  0  0  0
   -1.5368   22.6824  -27.6751 H   0  0  0  0  0  0  0  0  0  0  0  0
   -3.0230   25.6710  -29.8020 H   0  0  0  0  0  0  0  0  0  0  0  0
   -0.0704   22.6050  -29.2181 H   0  0  0  0  0  0  0  0  0  0  0  0
   -0.5235   21.6901  -30.6961 H   0  0  0  0  0  0  0  0  0  0  0  0
   -0.5877   23.4852  -30.6961 H   0  0  0  0  0  0  0  0  0  0  0  0
   -5.4040   25.8860  -28.2050 H   0  0  0  0  0  0  0  0  0  0  0  0
   -4.4870   24.8540  -29.3430 H   0  0  0  0  0  0  0  0  0  0  0  0
   -8.8351   23.6632  -30.9221 H   0  0  0  0  0  0  0  0  0  0  0  0
   -9.4857   21.3720  -32.3538 H   0  0  0  0  0  0  0  0  0  0  0  0
   -8.5676   19.3294  -33.4439 H   0  0  0  0  0  0  0  0  0  0  0  0
   -7.2583   17.0763  -32.5888 H   0  0  0  0  0  0  0  0  0  0  0  0
   -4.1620   16.8180  -35.4360 H   0  0  0  0  0  0  0  0  0  0  0  0
   -4.4233   19.3608  -34.8742 H   0  0  0  0  0  0  0  0  0  0  0  0
   -4.6089   20.5524  -32.2294 H   0  0  0  0  0  0  0  0  0  0  0  0
  1  2  1  0
  2  3  1  0
  3  4  2  0
  3  5  1  0
  2  6  1  0
  6  7  1  0
  6  8  1  0
  8  9  2  0
  8 10  1  0
 10 11  2  0
 10 12  1  0
 12 13  1  0
 13 14  1  0
 14 15  1  0
 14 16  2  0
 13 17  2  0
 17 18  1  0
 18 19  2  0
 19 20  1  0
 20 21  2  0
 21 22  1  0
 22 23  1  0
 23 24  2  0
 24 25  1  0
 25 26  1  0
 21 27  1  0
 27 28  2  0
 28 12  1  0
 28 18  1  0
 26 22  2  0
  1 29  1  0
  1 30  1  0
  1 31  1  0
  2 32  1  1
  5 33  1  0
  7 34  1  0
  7 35  1  0
  7 36  1  0
 15 37  1  0
 15 38  1  0
 17 39  1  0
 19 40  1  0
 20 41  1  0
 23 42  1  0
 25 43  1  0
 26 44  1  0
 27 45  1  0
M  END
>  <smiles>  (84) 
CC(C(=O)O)N(C)C(=O)C(=O)n1c(C(N)=O)cc2ccc(-c3cn[nH]c3)cc21

>  <score_type>  (84) 
oracle

>  <origin>  (84) 
adg

>  <m_score__min__energy>  (84) 
-10.630000000000001

>  <m_primary>  (84) 
energy

$$$$
84:0
     RDKit          3D

 42 43  0  0  0  0  0  0  0  0999 V2000
   -7.0470   17.1010  -33.0770 C   0  0  0  0  0  0  0  0  0  0  0  0
   -6.4680   18.3120  -33.6720 N   0  0  0  0  0  0  0  0  0  0  0  0
   -5.7380   18.1990  -34.9420 C   0  0  0  0  0  0  0  0  0  0  0  0
   -4.3120   17.8050  -34.7070 C   0  0  0  0  0  0  0  0  0  0  0  0
   -3.9130   16.6540  -35.0240 O   0  0  0  0  0  0  0  0  0  0  0  0
   -3.4160   18.7150  -34.1630 O   0  0  0  0  0  0  0  0  0  0  0  0
   -6.6710   19.6020  -33.0440 C   0  0  0  0  0  0  0  0  0  0  0  0
   -7.9820   20.0610  -32.7480 C   0  0  0  0  0  0  0  0  0  0  0  0
   -8.1910   21.2940  -32.1100 C   0  0  0  0  0  0  0  0  0  0  0  0
   -7.0760   22.0490  -31.7720 C   0  0  0  0  0  0  0  0  0  0  0  0
   -6.9960   23.2620  -31.1310 C   0  0  0  0  0  0  0  0  0  0  0  0
   -5.6350   23.5290  -31.0200 C   0  0  0  0  0  0  0  0  0  0  0  0
   -5.0990   24.6800  -30.2720 C   0  0  0  0  0  0  0  0  0  0  0  0
   -5.3610   24.8370  -28.8770 N   0  0  0  0  0  0  0  0  0  0  0  0
   -4.4620   25.5750  -30.8840 O   0  0  0  0  0  0  0  0  0  0  0  0
   -4.9000   22.5350  -31.5910 N   0  0  0  0  0  0  0  0  0  0  0  0
   -3.4740   22.5140  -31.7770 C   0  0  0  0  0  0  0  0  0  0  0  0
   -2.9690   21.8790  -32.7420 O   0  0  0  0  0  0  0  0  0  0  0  0
   -2.6490   23.2100  -30.8840 O   0  0  0  0  0  0  0  0  0  0  0  0
   -1.8190   22.5720  -29.9150 C   0  0  0  0  0  0  0  0  0  0  0  0
   -2.2730   22.9180  -28.4960 C   0  0  0  0  0  0  0  0  0  0  0  0
   -2.5390   24.3860  -28.3690 C   0  0  0  0  0  0  0  0  0  0  0  0
   -2.0200   25.2900  -29.3410 N   0  0  0  0  0  0  0  0  0  0  0  0
   -3.1970   24.8280  -27.3900 O   0  0  0  0  0  0  0  0  0  0  0  0
   -5.8000   21.6290  -32.0410 C   0  0  0  0  0  0  0  0  0  0  0  0
   -5.5640   20.4140  -32.6990 C   0  0  0  0  0  0  0  0  0  0  0  0
   -7.0103   17.1777  -31.9803 H   0  0  0  0  0  0  0  0  0  0  0  0
   -8.0925   16.9964  -33.4025 H   0  0  0  0  0  0  0  0  0  0  0  0
   -6.4719   16.2216  -33.4025 H   0  0  0  0  0  0  0  0  0  0  0  0
   -6.2232   17.4369  -35.5695 H   0  0  0  0  0  0  0  0  0  0  0  0
   -5.7535   19.1777  -35.4440 H   0  0  0  0  0  0  0  0  0  0  0  0
   -8.8476   19.4404  -33.0231 H   0  0  0  0  0  0  0  0  0  0  0  0
   -9.2069   21.6509  -31.8849 H   0  0  0  0  0  0  0  0  0  0  0  0
   -7.8298   23.8881  -30.7806 H   0  0  0  0  0  0  0  0  0  0  0  0
   -5.0030   25.6700  -28.3630 H   0  0  0  0  0  0  0  0  0  0  0  0
   -5.9910   24.1760  -28.3720 H   0  0  0  0  0  0  0  0  0  0  0  0
   -1.8737   21.4823  -30.0552 H   0  0  0  0  0  0  0  0  0  0  0  0
   -0.7859   22.9249  -30.0497 H   0  0  0  0  0  0  0  0  0  0  0  0
   -3.1944   22.3628  -28.2661 H   0  0  0  0  0  0  0  0  0  0  0  0
   -1.4748   22.6408  -27.7917 H   0  0  0  0  0  0  0  0  0  0  0  0
   -2.3920   25.2990  -30.3160 H   0  0  0  0  0  0  0  0  0  0  0  0
   -4.5389   20.0978  -32.9424 H   0  0  0  0  0  0  0  0  0  0  0  0
  1  2  1  0
  2  3  1  0
  3  4  1  0
  4  5  2  0
  4  6  1  0
  2  7  1  0
  7  8  2  0
  8  9  1  0
  9 10  2  0
 10 11  1  0
 11 12  2  0
 12 13  1  0
 13 14  1  0
 13 15  2  0
 12 16  1  0
 16 17  1  0
 17 18  2  0
 17 19  1  0
 19 20  1  0
 20 21  1  0
 21 22  1  0
 22 23  1  0
 22 24  2  0
 16 25  1  0
 25 26  2  0
 26  7  1  0
 25 10  1  0
  1 27  1  0
  1 28  1  0
  1 29  1  0
  3 30  1  0
  3 31  1  0
  8 32  1  0
  9 33  1  0
 11 34  1  0
 14 35  1  0
 14 36  1  0
 20 37  1  0
 20 38  1  0
 21 39  1  0
 21 40  1  0
 23 41  1  0
 26 42  1  0
M  CHG  2   6  -1  23  -1
M  END
>  <UniqueID>  (85) 
83

>  <SMILES>  (85) 
CN(CC(=O)[O-])c1ccc2cc(C(N)=O)n(C(=O)OCCC([NH-])=O)c2c1

>  <Energy>  (85) 
78.11582761696754

>  <Genealogy>  (85) 
CN(CC(=O)[O-])c1ccc2cc(C(N)=O)n(C(=O)OCCC([NH-])=O)c2c1 (protonated)
CN(CC(=O)[O-])c1ccc2cc(C(N)=O)n(C(=O)OCCC([NH-])=O)c2c1 (3D coordinates assigned)
CN(CC(=O)[O-])c1ccc2cc(C(N)=O)n(C(=O)OCCC([NH-])=O)c2c1 (optimized conformer: 78.11582761696754 kcal/mol)

>  <smiles>  (85) 
CN(CC(=O)O)c1ccc2cc(C(N)=O)n(C(=O)OCCC(N)=O)c2c1

>  <score_type>  (85) 
oracle

>  <origin>  (85) 
adg

>  <m_score__min__energy>  (85) 
-11.66

>  <m_primary>  (85) 
energy

$$$$
85:0
     RDKit          3D

 38 39  0  0  0  0  0  0  0  0999 V2000
   -1.9750   25.4810  -27.2580 C   0  0  0  0  0  0  0  0  0  0  0  0
   -1.7160   25.1520  -28.6180 O   0  0  0  0  0  0  0  0  0  0  0  0
   -0.9990   24.0120  -28.9930 C   0  0  0  0  0  0  0  0  0  0  0  0
    0.2600   23.9960  -28.9220 O   0  0  0  0  0  0  0  0  0  0  0  0
   -1.7420   22.8020  -29.4860 C   0  0  2  0  0  0  0  0  0  0  0  0
   -1.0490   22.2140  -30.7170 C   0  0  0  0  0  0  0  0  0  0  0  0
   -3.1320   23.1500  -29.8000 N   0  0  0  0  0  0  0  0  0  0  0  0
   -3.9870   22.2810  -30.5590 C   0  0  0  0  0  0  0  0  0  0  0  0
   -3.5790   21.1440  -30.9180 O   0  0  0  0  0  0  0  0  0  0  0  0
   -5.3280   22.6870  -30.8750 N   0  0  0  0  0  0  0  0  0  0  0  0
   -5.8870   23.9210  -30.7260 C   0  0  0  0  0  0  0  0  0  0  0  0
   -5.1700   25.1590  -30.3570 C   0  0  0  0  0  0  0  0  0  0  0  0
   -3.8630   25.4240  -30.8560 N   0  0  0  0  0  0  0  0  0  0  0  0
   -5.7370   26.0130  -29.6250 O   0  0  0  0  0  0  0  0  0  0  0  0
   -7.2410   23.8860  -31.0570 C   0  0  0  0  0  0  0  0  0  0  0  0
   -7.4920   22.5830  -31.4260 C   0  0  0  0  0  0  0  0  0  0  0  0
   -8.6760   21.9810  -31.8430 C   0  0  0  0  0  0  0  0  0  0  0  0
   -8.6480   20.6080  -32.1380 C   0  0  0  0  0  0  0  0  0  0  0  0
   -7.4480   19.8650  -32.0080 C   0  0  0  0  0  0  0  0  0  0  0  0
   -7.4260   18.3940  -32.3090 C   0  0  0  0  0  0  0  0  0  0  0  0
   -6.4030   17.7870  -31.6020 F   0  0  0  0  0  0  0  0  0  0  0  0
   -8.6330   17.8270  -31.9440 F   0  0  0  0  0  0  0  0  0  0  0  0
   -6.2670   20.5100  -31.5800 C   0  0  0  0  0  0  0  0  0  0  0  0
   -6.3200   21.8820  -31.3070 C   0  0  0  0  0  0  0  0  0  0  0  0
   -1.4286   24.7870  -26.6024 H   0  0  0  0  0  0  0  0  0  0  0  0
   -1.6426   26.5107  -27.0601 H   0  0  0  0  0  0  0  0  0  0  0  0
   -3.0540   25.3996  -27.0601 H   0  0  0  0  0  0  0  0  0  0  0  0
   -1.7416   22.0432  -28.6896 H   0  0  0  0  0  0  0  0  0  0  0  0
   -0.2467   21.5333  -30.3960 H   0  0  0  0  0  0  0  0  0  0  0  0
   -1.7821   21.6582  -31.3200 H   0  0  0  0  0  0  0  0  0  0  0  0
   -0.6200   23.0278  -31.3200 H   0  0  0  0  0  0  0  0  0  0  0  0
   -3.5300   24.0530  -29.4550 H   0  0  0  0  0  0  0  0  0  0  0  0
   -3.0200   25.2850  -30.2570 H   0  0  0  0  0  0  0  0  0  0  0  0
   -7.9564   24.7212  -31.0293 H   0  0  0  0  0  0  0  0  0  0  0  0
   -9.6048   22.5626  -31.9385 H   0  0  0  0  0  0  0  0  0  0  0  0
   -9.5666   20.1043  -32.4733 H   0  0  0  0  0  0  0  0  0  0  0  0
   -7.2620   18.2494  -33.3870 H   0  0  0  0  0  0  0  0  0  0  0  0
   -5.3284   19.9482  -31.4640 H   0  0  0  0  0  0  0  0  0  0  0  0
  1  2  1  0
  2  3  1  0
  3  4  2  0
  3  5  1  0
  5  6  1  0
  5  7  1  0
  7  8  1  0
  8  9  2  0
  8 10  1  0
 10 11  1  0
 11 12  1  0
 12 13  1  0
 12 14  2  0
 11 15  2  0
 15 16  1  0
 16 17  2  0
 17 18  1  0
 18 19  2  0
 19 20  1  0
 20 21  1  0
 20 22  1  0
 19 23  1  0
 23 24  2  0
 24 10  1  0
 24 16  1  0
  1 25  1  0
  1 26  1  0
  1 27  1  0
  5 28  1  1
  6 29  1  0
  6 30  1  0
  6 31  1  0
  7 32  1  0
 13 33  1  0
 15 34  1  0
 17 35  1  0
 18 36  1  0
 20 37  1  0
 23 38  1  0
M  CHG  1  13  -1
M  END
>  <UniqueID>  (86) 
84

>  <SMILES>  (86) 
COC(=O)[C@H](C)NC(=O)n1c(C([NH-])=O)cc2ccc(C(F)F)cc21

>  <Energy>  (86) 
70.58460080244957

>  <Genealogy>  (86) 
COC(=O)[C@H](C)NC(=O)n1c(C([NH-])=O)cc2ccc(C(F)F)cc21 (protonated)
COC(=O)[C@H](C)NC(=O)n1c(C([NH-])=O)cc2ccc(C(F)F)cc21 (3D coordinates assigned)
COC(=O)[C@H](C)NC(=O)n1c(C([NH-])=O)cc2ccc(C(F)F)cc21 (optimized conformer: 70.58460080244957 kcal/mol)

>  <smiles>  (86) 
COC(=O)[C@H](C)NC(=O)n1c(C(N)=O)cc2ccc(C(F)F)cc21

>  <score_type>  (86) 
oracle

>  <origin>  (86) 
adg

>  <m_score__min__energy>  (86) 
-9.8699999999999992

>  <m_primary>  (86) 
energy

$$$$
86:0
     RDKit          3D

 46 47  0  0  0  0  0  0  0  0999 V2000
   -4.2290   17.0610  -35.2930 C   0  0  0  0  0  0  0  0  0  0  0  0
   -4.5280   17.9730  -34.1760 N   0  0  0  0  0  0  0  0  0  0  0  0
   -3.4840   19.0080  -34.0890 C   0  0  0  0  0  0  0  0  0  0  0  0
   -4.6260   17.2360  -32.8960 C   0  0  0  0  0  0  0  0  0  0  0  0
   -5.9360   16.4370  -32.8010 C   0  0  0  0  0  0  0  0  0  0  0  0
   -7.1830   17.3330  -32.7210 C   0  0  0  0  0  0  0  0  0  0  0  0
   -6.9770   18.6060  -33.4150 N   0  0  0  0  0  0  0  0  0  0  0  0
   -7.1380   19.9030  -32.8090 C   0  0  0  0  0  0  0  0  0  0  0  0
   -8.4180   20.4940  -32.6360 C   0  0  0  0  0  0  0  0  0  0  0  0
   -8.5490   21.7640  -32.0510 C   0  0  0  0  0  0  0  0  0  0  0  0
   -7.3920   22.4190  -31.6450 C   0  0  0  0  0  0  0  0  0  0  0  0
   -7.2300   23.6600  -31.0730 C   0  0  0  0  0  0  0  0  0  0  0  0
   -5.8570   23.8040  -30.8840 C   0  0  0  0  0  0  0  0  0  0  0  0
   -5.2500   24.9660  -30.2020 C   0  0  0  0  0  0  0  0  0  0  0  0
   -4.1630   25.6740  -30.7910 N   0  0  0  0  0  0  0  0  0  0  0  0
   -5.6630   25.3060  -29.0610 O   0  0  0  0  0  0  0  0  0  0  0  0
   -5.1950   22.7010  -31.3320 N   0  0  0  0  0  0  0  0  0  0  0  0
   -3.7740   22.4970  -31.4000 C   0  0  0  0  0  0  0  0  0  0  0  0
   -3.3130   21.4860  -31.9970 O   0  0  0  0  0  0  0  0  0  0  0  0
   -2.9100   23.4340  -30.8230 O   0  0  0  0  0  0  0  0  0  0  0  0
   -2.5090   23.3910  -29.4550 C   0  0  0  0  0  0  0  0  0  0  0  0
   -1.5480   24.4980  -29.1630 C   0  0  0  0  0  0  0  0  0  0  0  0
   -1.9700   25.6700  -28.9710 O   0  0  0  0  0  0  0  0  0  0  0  0
   -0.1890   24.2300  -29.0670 O   0  0  0  0  0  0  0  0  0  0  0  0
   -6.1490   21.8610  -31.7930 C   0  0  0  0  0  0  0  0  0  0  0  0
   -5.9870   20.6070  -32.3920 C   0  0  0  0  0  0  0  0  0  0  0  0
   -3.9095   16.0865  -34.8952 H   0  0  0  0  0  0  0  0  0  0  0  0
   -5.1305   16.9279  -35.9090 H   0  0  0  0  0  0  0  0  0  0  0  0
   -3.4236   17.4875  -35.9090 H   0  0  0  0  0  0  0  0  0  0  0  0
   -3.2676   19.2226  -33.0321 H   0  0  0  0  0  0  0  0  0  0  0  0
   -2.5700   18.6494  -34.5850 H   0  0  0  0  0  0  0  0  0  0  0  0
   -3.8346   19.9251  -34.5850 H   0  0  0  0  0  0  0  0  0  0  0  0
   -3.7774   16.5404  -32.8189 H   0  0  0  0  0  0  0  0  0  0  0  0
   -4.6099   17.9685  -32.0755 H   0  0  0  0  0  0  0  0  0  0  0  0
   -6.0212   15.7967  -33.6914 H   0  0  0  0  0  0  0  0  0  0  0  0
   -5.8948   15.8476  -31.8731 H   0  0  0  0  0  0  0  0  0  0  0  0
   -8.0309   16.8070  -33.1840 H   0  0  0  0  0  0  0  0  0  0  0  0
   -7.3854   17.5475  -31.6613 H   0  0  0  0  0  0  0  0  0  0  0  0
   -6.6400   18.5590  -34.4030 H   0  0  0  0  0  0  0  0  0  0  0  0
   -9.3166   19.9509  -32.9639 H   0  0  0  0  0  0  0  0  0  0  0  0
   -9.5380   22.2268  -31.9180 H   0  0  0  0  0  0  0  0  0  0  0  0
   -8.0175   24.3848  -30.8188 H   0  0  0  0  0  0  0  0  0  0  0  0
   -3.1860   25.3120  -30.7230 H   0  0  0  0  0  0  0  0  0  0  0  0
   -3.3955   23.5008  -28.8130 H   0  0  0  0  0  0  0  0  0  0  0  0
   -2.0174   22.4274  -29.2555 H   0  0  0  0  0  0  0  0  0  0  0  0
   -4.9841   20.1784  -32.5351 H   0  0  0  0  0  0  0  0  0  0  0  0
  1  2  1  0
  2  3  1  0
  2  4  1  0
  4  5  1  0
  5  6  1  0
  6  7  1  0
  7  8  1  0
  8  9  2  0
  9 10  1  0
 10 11  2  0
 11 12  1  0
 12 13  2  0
 13 14  1  0
 14 15  1  0
 14 16  2  0
 13 17  1  0
 17 18  1  0
 18 19  2  0
 18 20  1  0
 20 21  1  0
 21 22  1  0
 22 23  2  0
 22 24  1  0
 17 25  1  0
 25 26  2  0
 26  8  1  0
 25 11  1  0
  1 27  1  0
  1 28  1  0
  1 29  1  0
  3 30  1  0
  3 31  1  0
  3 32  1  0
  4 33  1  0
  4 34  1  0
  5 35  1  0
  5 36  1  0
  6 37  1  0
  6 38  1  0
  7 39  1  0
  9 40  1  0
 10 41  1  0
 12 42  1  0
 15 43  1  0
 21 44  1  0
 21 45  1  0
 26 46  1  0
M  CHG  2  15  -1  24  -1
M  END
>  <UniqueID>  (87) 
85

>  <SMILES>  (87) 
CN(C)CCCNc1ccc2cc(C([NH-])=O)n(C(=O)OCC(=O)[O-])c2c1

>  <Energy>  (87) 
79.52658367442308

>  <Genealogy>  (87) 
CN(C)CCCNc1ccc2cc(C([NH-])=O)n(C(=O)OCC(=O)[O-])c2c1 (protonated)
CN(C)CCCNc1ccc2cc(C([NH-])=O)n(C(=O)OCC(=O)[O-])c2c1 (3D coordinates assigned)
CN(C)CCCNc1ccc2cc(C([NH-])=O)n(C(=O)OCC(=O)[O-])c2c1 (optimized conformer: 79.52658367442308 kcal/mol)

>  <smiles>  (87) 
CN(C)CCCNc1ccc2cc(C(N)=O)n(C(=O)OCC(=O)O)c2c1

>  <score_type>  (87) 
oracle

>  <origin>  (87) 
adg

>  <m_score__min__energy>  (87) 
-11.99

>  <m_primary>  (87) 
energy

$$$$
87:0
     RDKit          3D

 39 40  0  0  0  0  0  0  0  0999 V2000
   -4.2270   22.8220  -27.4700 C   0  0  0  0  0  0  0  0  0  0  0  0
   -3.1480   23.5510  -28.1470 N   0  0  0  0  0  0  0  0  0  0  0  0
   -2.5930   24.7660  -27.5420 C   0  0  0  0  0  0  0  0  0  0  0  0
   -2.6050   23.0860  -29.4030 C   0  0  0  0  0  0  0  0  0  0  0  0
   -1.6170   23.6790  -29.9140 O   0  0  0  0  0  0  0  0  0  0  0  0
   -3.2160   21.9350  -30.1630 C   0  0  0  0  0  0  0  0  0  0  0  0
   -3.9730   22.4050  -31.3740 C   0  0  0  0  0  0  0  0  0  0  0  0
   -3.3650   22.6610  -32.4500 O   0  0  0  0  0  0  0  0  0  0  0  0
   -5.3700   22.7060  -31.2700 N   0  0  0  0  0  0  0  0  0  0  0  0
   -5.9550   23.8980  -30.9680 C   0  0  0  0  0  0  0  0  0  0  0  0
   -5.2480   25.1210  -30.5360 C   0  0  0  0  0  0  0  0  0  0  0  0
   -3.8620   25.3040  -30.8170 N   0  0  0  0  0  0  0  0  0  0  0  0
   -5.8670   26.0040  -29.8820 O   0  0  0  0  0  0  0  0  0  0  0  0
   -7.3420   23.7970  -31.0610 C   0  0  0  0  0  0  0  0  0  0  0  0
   -7.5890   22.4910  -31.4260 C   0  0  0  0  0  0  0  0  0  0  0  0
   -8.7930   21.8400  -31.6770 C   0  0  0  0  0  0  0  0  0  0  0  0
   -8.7420   20.4890  -32.0640 C   0  0  0  0  0  0  0  0  0  0  0  0
   -7.4990   19.8190  -32.1880 C   0  0  0  0  0  0  0  0  0  0  0  0
   -7.4550   18.3870  -32.6440 C   0  0  0  0  0  0  0  0  0  0  0  0
   -6.4420   18.2270  -33.7320 C   0  0  0  0  0  0  0  0  0  0  0  0
   -5.8720   17.1180  -33.9090 O   0  0  0  0  0  0  0  0  0  0  0  0
   -6.1630   19.2890  -34.5840 O   0  0  0  0  0  0  0  0  0  0  0  0
   -6.2970   20.5170  -31.9360 C   0  0  0  0  0  0  0  0  0  0  0  0
   -6.3800   21.8560  -31.5430 C   0  0  0  0  0  0  0  0  0  0  0  0
   -4.1002   22.9077  -26.3807 H   0  0  0  0  0  0  0  0  0  0  0  0
   -5.1976   23.2502  -27.7609 H   0  0  0  0  0  0  0  0  0  0  0  0
   -4.1920   21.7618  -27.7609 H   0  0  0  0  0  0  0  0  0  0  0  0
   -2.6320   24.6806  -26.4460 H   0  0  0  0  0  0  0  0  0  0  0  0
   -1.5484   24.8912  -27.8631 H   0  0  0  0  0  0  0  0  0  0  0  0
   -3.1823   25.6376  -27.8631 H   0  0  0  0  0  0  0  0  0  0  0  0
   -2.4135   21.2557  -30.4862 H   0  0  0  0  0  0  0  0  0  0  0  0
   -3.9235   21.4215  -29.4954 H   0  0  0  0  0  0  0  0  0  0  0  0
   -3.2680   24.5080  -31.1360 H   0  0  0  0  0  0  0  0  0  0  0  0
   -8.0821   24.5907  -30.8813 H   0  0  0  0  0  0  0  0  0  0  0  0
   -9.7541   22.3655  -31.5759 H   0  0  0  0  0  0  0  0  0  0  0  0
   -9.6760   19.9467  -32.2726 H   0  0  0  0  0  0  0  0  0  0  0  0
   -7.1825   17.7427  -31.7951 H   0  0  0  0  0  0  0  0  0  0  0  0
   -8.4451   18.1000  -33.0278 H   0  0  0  0  0  0  0  0  0  0  0  0
   -5.3218   20.0202  -32.0461 H   0  0  0  0  0  0  0  0  0  0  0  0
  1  2  1  0
  2  3  1  0
  2  4  1  0
  4  5  2  0
  4  6  1  0
  6  7  1  0
  7  8  2  0
  7  9  1  0
  9 10  1  0
 10 11  1  0
 11 12  1  0
 11 13  2  0
 10 14  2  0
 14 15  1  0
 15 16  2  0
 16 17  1  0
 17 18  2  0
 18 19  1  0
 19 20  1  0
 20 21  2  0
 20 22  1  0
 18 23  1  0
 23 24  2  0
 24  9  1  0
 24 15  1  0
  1 25  1  0
  1 26  1  0
  1 27  1  0
  3 28  1  0
  3 29  1  0
  3 30  1  0
  6 31  1  0
  6 32  1  0
 12 33  1  0
 14 34  1  0
 16 35  1  0
 17 36  1  0
 19 37  1  0
 19 38  1  0
 23 39  1  0
M  CHG  2  12  -1  22  -1
M  END
>  <UniqueID>  (88) 
86

>  <SMILES>  (88) 
CN(C)C(=O)CC(=O)n1c(C([NH-])=O)cc2ccc(CC(=O)[O-])cc21

>  <Energy>  (88) 
74.54841950973545

>  <Genealogy>  (88) 
CN(C)C(=O)CC(=O)n1c(C([NH-])=O)cc2ccc(CC(=O)[O-])cc21 (protonated)
CN(C)C(=O)CC(=O)n1c(C([NH-])=O)cc2ccc(CC(=O)[O-])cc21 (3D coordinates assigned)
CN(C)C(=O)CC(=O)n1c(C([NH-])=O)cc2ccc(CC(=O)[O-])cc21 (optimized conformer: 74.54841950973545 kcal/mol)

>  <smiles>  (88) 
CN(C)C(=O)CC(=O)n1c(C(N)=O)cc2ccc(CC(=O)O)cc21

>  <score_type>  (88) 
oracle

>  <origin>  (88) 
adg

>  <m_score__min__energy>  (88) 
-10.59

>  <m_primary>  (88) 
energy

$$$$
88:0
     RDKit          3D

 53 54  0  0  0  0  0  0  0  0999 V2000
   -4.4530   24.7660  -26.5460 C   0  0  0  0  0  0  0  0  0  0  0  0
   -3.5160   24.9220  -27.6520 N   0  0  0  0  0  0  0  0  0  0  0  0
   -2.1040   24.7350  -27.4750 C   0  0  0  0  0  0  0  0  0  0  0  0
   -1.6570   24.4360  -26.3350 O   0  0  0  0  0  0  0  0  0  0  0  0
   -1.1840   24.8870  -28.6290 C   0  0  0  0  0  0  0  0  0  0  0  0
   -1.2490   25.9340  -29.3240 O   0  0  0  0  0  0  0  0  0  0  0  0
   -0.2140   23.8930  -28.9950 N   0  0  0  0  0  0  0  0  0  0  0  0
   -0.4750   22.6530  -29.7220 C   0  0  0  0  0  0  0  0  0  0  0  0
   -1.0510   21.5490  -28.7850 C   0  0  0  0  0  0  0  0  0  0  0  0
   -0.6040   21.8190  -27.3340 C   0  0  0  0  0  0  0  0  0  0  0  0
   -0.4930   20.1780  -29.2460 C   0  0  0  0  0  0  0  0  0  0  0  0
   -2.5420   21.5470  -28.8420 N   0  0  0  0  0  0  0  0  0  0  0  0
   -3.3490   21.5140  -27.6130 C   0  0  0  0  0  0  0  0  0  0  0  0
   -3.2420   21.3650  -30.0890 C   0  0  0  0  0  0  0  0  0  0  0  0
   -3.4490   20.2030  -30.5290 O   0  0  0  0  0  0  0  0  0  0  0  0
   -3.7380   22.5290  -30.8490 C   0  0  0  0  0  0  0  0  0  0  0  0
   -2.9200   23.3260  -31.3830 O   0  0  0  0  0  0  0  0  0  0  0  0
   -5.1460   22.7610  -30.9940 N   0  0  0  0  0  0  0  0  0  0  0  0
   -5.8240   23.9210  -30.7710 C   0  0  0  0  0  0  0  0  0  0  0  0
   -5.2380   25.1720  -30.2440 C   0  0  0  0  0  0  0  0  0  0  0  0
   -3.9920   25.6420  -30.7540 N   0  0  0  0  0  0  0  0  0  0  0  0
   -5.8330   25.8400  -29.3580 O   0  0  0  0  0  0  0  0  0  0  0  0
   -7.1760   23.7600  -31.0700 C   0  0  0  0  0  0  0  0  0  0  0  0
   -7.3030   22.4550  -31.4910 C   0  0  0  0  0  0  0  0  0  0  0  0
   -8.4230   21.7610  -31.9400 C   0  0  0  0  0  0  0  0  0  0  0  0
   -8.2520   20.4260  -32.3460 C   0  0  0  0  0  0  0  0  0  0  0  0
   -6.9760   19.8080  -32.2920 C   0  0  0  0  0  0  0  0  0  0  0  0
   -6.7950   18.3950  -32.7830 C   0  0  0  0  0  0  0  0  0  0  0  0
   -6.4610   18.3850  -34.1270 F   0  0  0  0  0  0  0  0  0  0  0  0
   -5.7830   17.7890  -32.0630 F   0  0  0  0  0  0  0  0  0  0  0  0
   -7.9620   17.6670  -32.6220 F   0  0  0  0  0  0  0  0  0  0  0  0
   -5.8580   20.5570  -31.8560 C   0  0  0  0  0  0  0  0  0  0  0  0
   -6.0630   21.8750  -31.4390 C   0  0  0  0  0  0  0  0  0  0  0  0
   -3.9126   24.8560  -25.5921 H   0  0  0  0  0  0  0  0  0  0  0  0
   -5.2242   25.5481  -26.6057 H   0  0  0  0  0  0  0  0  0  0  0  0
   -4.9292   23.7762  -26.6057 H   0  0  0  0  0  0  0  0  0  0  0  0
   -3.8960   25.1810  -28.5900 H   0  0  0  0  0  0  0  0  0  0  0  0
   -1.2006   22.8551  -30.5236 H   0  0  0  0  0  0  0  0  0  0  0  0
    0.4772   22.2902  -30.1364 H   0  0  0  0  0  0  0  0  0  0  0  0
   -1.3330   21.3787  -26.6378 H   0  0  0  0  0  0  0  0  0  0  0  0
    0.3843   21.3667  -27.1646 H   0  0  0  0  0  0  0  0  0  0  0  0
   -0.5444   22.9042  -27.1646 H   0  0  0  0  0  0  0  0  0  0  0  0
   -0.2448   19.5681  -28.3648 H   0  0  0  0  0  0  0  0  0  0  0  0
   -1.2510   19.6580  -29.8501 H   0  0  0  0  0  0  0  0  0  0  0  0
    0.4127   20.3351  -29.8501 H   0  0  0  0  0  0  0  0  0  0  0  0
   -2.6842   21.5412  -26.7370 H   0  0  0  0  0  0  0  0  0  0  0  0
   -4.0199   22.3855  -27.5914 H   0  0  0  0  0  0  0  0  0  0  0  0
   -3.9465   20.5907  -27.5914 H   0  0  0  0  0  0  0  0  0  0  0  0
   -3.0880   25.2800  -30.3760 H   0  0  0  0  0  0  0  0  0  0  0  0
   -7.9720   24.5147  -30.9873 H   0  0  0  0  0  0  0  0  0  0  0  0
   -9.4114   22.2424  -31.9760 H   0  0  0  0  0  0  0  0  0  0  0  0
   -9.1180   19.8536  -32.7100 H   0  0  0  0  0  0  0  0  0  0  0  0
   -4.8517   20.1128  -31.8454 H   0  0  0  0  0  0  0  0  0  0  0  0
  1  2  1  0
  2  3  1  0
  3  4  2  0
  3  5  1  0
  5  6  2  0
  5  7  1  0
  7  8  1  0
  8  9  1  0
  9 10  1  0
  9 11  1  0
  9 12  1  0
 12 13  1  0
 12 14  1  0
 14 15  2  0
 14 16  1  0
 16 17  2  0
 16 18  1  0
 18 19  1  0
 19 20  1  0
 20 21  1  0
 20 22  2  0
 19 23  2  0
 23 24  1  0
 24 25  2  0
 25 26  1  0
 26 27  2  0
 27 28  1  0
 28 29  1  0
 28 30  1  0
 28 31  1  0
 27 32  1  0
 32 33  2  0
 33 18  1  0
 33 24  1  0
  1 34  1  0
  1 35  1  0
  1 36  1  0
  2 37  1  0
  8 38  1  0
  8 39  1  0
 10 40  1  0
 10 41  1  0
 10 42  1  0
 11 43  1  0
 11 44  1  0
 11 45  1  0
 13 46  1  0
 13 47  1  0
 13 48  1  0
 21 49  1  0
 23 50  1  0
 25 51  1  0
 26 52  1  0
 32 53  1  0
M  CHG  2   7  -1  21  -1
M  END
>  <UniqueID>  (89) 
87

>  <SMILES>  (89) 
CNC(=O)C(=O)[N-]CC(C)(C)N(C)C(=O)C(=O)n1c(C([NH-])=O)cc2ccc(C(F)(F)F)cc21

>  <Energy>  (89) 
93.74278670925311

>  <Genealogy>  (89) 
CNC(=O)C(=O)[N-]CC(C)(C)N(C)C(=O)C(=O)n1c(C([NH-])=O)cc2ccc(C(F)(F)F)cc21 (protonated)
CNC(=O)C(=O)[N-]CC(C)(C)N(C)C(=O)C(=O)n1c(C([NH-])=O)cc2ccc(C(F)(F)F)cc21 (3D coordinates assigned)
CNC(=O)C(=O)[N-]CC(C)(C)N(C)C(=O)C(=O)n1c(C([NH-])=O)cc2ccc(C(F)(F)F)cc21 (optimized conformer: 93.74278670925311 kcal/mol)

>  <smiles>  (89) 
CNC(=O)C(=O)NCC(C)(C)N(C)C(=O)C(=O)n1c(C(N)=O)cc2ccc(C(F)(F)F)cc21

>  <score_type>  (89) 
oracle

>  <origin>  (89) 
adg

>  <m_score__min__energy>  (89) 
-12.109999999999999

>  <m_primary>  (89) 
energy

$$$$
89:0
     RDKit          3D

 48 52  0  0  0  0  0  0  0  0999 V2000
   -7.6220   13.9240  -34.3200 N   0  0  0  0  0  0  0  0  0  0  0  0
   -6.8510   14.7840  -34.2430 C   0  0  0  0  0  0  0  0  0  0  0  0
   -5.8920   15.8530  -34.1470 C   0  0  0  0  0  0  0  0  0  0  0  0
   -4.5740   15.6510  -34.5690 C   0  0  0  0  0  0  0  0  0  0  0  0
   -3.6310   16.6900  -34.4860 C   0  0  0  0  0  0  0  0  0  0  0  0
   -2.2290   16.4910  -34.9340 C   0  0  0  0  0  0  0  0  0  0  0  0
   -2.0210   15.9890  -36.0750 O   0  0  0  0  0  0  0  0  0  0  0  0
   -1.1180   16.7960  -34.0540 N   0  0  0  0  0  0  0  0  0  0  0  0
    0.0510   17.3380  -34.7900 C   0  0  0  0  0  0  0  0  0  0  0  0
   -0.0740   18.6310  -34.0380 C   0  0  0  0  0  0  0  0  0  0  0  0
    0.7600   19.8860  -33.9250 C   0  0  0  0  0  0  0  0  0  0  0  0
   -0.4000   19.8400  -34.9120 C   0  0  0  0  0  0  0  0  0  0  0  0
   -1.2490   18.0690  -33.2940 C   0  0  0  0  0  0  0  0  0  0  0  0
   -4.0370   17.9400  -33.9860 C   0  0  0  0  0  0  0  0  0  0  0  0
   -5.3600   18.1540  -33.5590 C   0  0  0  0  0  0  0  0  0  0  0  0
   -5.7750   19.4770  -33.0280 C   0  0  0  0  0  0  0  0  0  0  0  0
   -7.1420   19.8630  -33.0500 C   0  0  0  0  0  0  0  0  0  0  0  0
   -7.5450   21.1150  -32.5580 C   0  0  0  0  0  0  0  0  0  0  0  0
   -6.5660   21.9600  -32.0450 C   0  0  0  0  0  0  0  0  0  0  0  0
   -6.6730   23.2300  -31.5240 C   0  0  0  0  0  0  0  0  0  0  0  0
   -5.3740   23.5970  -31.1750 C   0  0  0  0  0  0  0  0  0  0  0  0
   -5.0410   24.8600  -30.4850 C   0  0  0  0  0  0  0  0  0  0  0  0
   -3.8670   25.5910  -30.8280 N   0  0  0  0  0  0  0  0  0  0  0  0
   -5.7770   25.2740  -29.5500 O   0  0  0  0  0  0  0  0  0  0  0  0
   -4.5000   22.5970  -31.4770 N   0  0  0  0  0  0  0  0  0  0  0  0
   -3.0690   22.6090  -31.3630 C   0  0  0  0  0  0  0  0  0  0  0  0
   -2.5140   23.2770  -30.4510 O   0  0  0  0  0  0  0  0  0  0  0  0
   -2.0560   21.5990  -32.4610 S   0  0  0  0  0  0  0  0  0  0  0  0
   -5.2440   21.6010  -32.0020 C   0  0  0  0  0  0  0  0  0  0  0  0
   -4.8120   20.3670  -32.4980 C   0  0  0  0  0  0  0  0  0  0  0  0
   -6.2830   17.0980  -33.6410 C   0  0  0  0  0  0  0  0  0  0  0  0
   -4.2730   14.6715  -34.9689 H   0  0  0  0  0  0  0  0  0  0  0  0
   -0.8630   16.0070  -33.4130 H   0  0  0  0  0  0  0  0  0  0  0  0
    0.9904   16.7977  -34.6010 H   0  0  0  0  0  0  0  0  0  0  0  0
    0.0671   17.3333  -35.8899 H   0  0  0  0  0  0  0  0  0  0  0  0
    0.6893   20.5127  -33.0237 H   0  0  0  0  0  0  0  0  0  0  0  0
    1.8337   20.1128  -34.0005 H   0  0  0  0  0  0  0  0  0  0  0  0
   -1.3096   20.4288  -34.7222 H   0  0  0  0  0  0  0  0  0  0  0  0
   -0.5147   20.0155  -35.9918 H   0  0  0  0  0  0  0  0  0  0  0  0
   -1.0871   17.9646  -32.2110 H   0  0  0  0  0  0  0  0  0  0  0  0
   -2.2065   18.6101  -33.2732 H   0  0  0  0  0  0  0  0  0  0  0  0
   -3.3091   18.7627  -33.9279 H   0  0  0  0  0  0  0  0  0  0  0  0
   -7.8946   19.1721  -33.4578 H   0  0  0  0  0  0  0  0  0  0  0  0
   -8.6022   21.4183  -32.5776 H   0  0  0  0  0  0  0  0  0  0  0  0
   -7.5889   23.8281  -31.4078 H   0  0  0  0  0  0  0  0  0  0  0  0
   -2.9280   25.2930  -30.4800 H   0  0  0  0  0  0  0  0  0  0  0  0
   -3.7465   20.0944  -32.4764 H   0  0  0  0  0  0  0  0  0  0  0  0
   -7.3194   17.2506  -33.3054 H   0  0  0  0  0  0  0  0  0  0  0  0
  1  2  3  0
  2  3  1  0
  3  4  2  0
  4  5  1  0
  5  6  1  0
  6  7  2  0
  6  8  1  0
  8  9  1  0
  9 10  1  0
 10 11  1  0
 11 12  1  0
 10 13  1  0
  5 14  2  0
 14 15  1  0
 15 16  1  0
 16 17  2  0
 17 18  1  0
 18 19  2  0
 19 20  1  0
 20 21  2  0
 21 22  1  0
 22 23  1  0
 22 24  2  0
 21 25  1  0
 25 26  1  0
 26 27  2  0
 26 28  1  0
 25 29  1  0
 29 30  2  0
 15 31  2  0
 31  3  1  0
 13  8  1  0
 30 16  1  0
 12 10  1  0
 29 19  1  0
  4 32  1  0
  8 33  1  0
  9 34  1  0
  9 35  1  0
 11 36  1  0
 11 37  1  0
 12 38  1  0
 12 39  1  0
 13 40  1  0
 13 41  1  0
 14 42  1  0
 17 43  1  0
 18 44  1  0
 20 45  1  0
 23 46  1  0
 30 47  1  0
 31 48  1  0
M  CHG  3   8   1  23  -1  28  -1
M  END
>  <UniqueID>  (90) 
88

>  <SMILES>  (90) 
N#Cc1cc(C(=O)[NH+]2CC3(CC3)C2)cc(-c2ccc3cc(C([NH-])=O)n(C(=O)[S-])c3c2)c1

>  <Energy>  (90) 
467.9779546665493

>  <Genealogy>  (90) 
N#Cc1cc(C(=O)[NH+]2CC3(CC3)C2)cc(-c2ccc3cc(C([NH-])=O)n(C(=O)[S-])c3c2)c1 (protonated)
N#Cc1cc(C(=O)[NH+]2CC3(CC3)C2)cc(-c2ccc3cc(C([NH-])=O)n(C(=O)[S-])c3c2)c1 (3D coordinates assigned)
N#Cc1cc(C(=O)[NH+]2CC3(CC3)C2)cc(-c2ccc3cc(C([NH-])=O)n(C(=O)[S-])c3c2)c1 (nonaromatic ring conformer: 467.9779546665493 kcal/mol)

>  <smiles>  (90) 
N#Cc1cc(C(=O)N2CC3(CC3)C2)cc(-c2ccc3cc(C(N)=O)n(C(=O)S)c3c2)c1

>  <score_type>  (90) 
oracle

>  <origin>  (90) 
adg

>  <m_score__min__energy>  (90) 
-13.01

>  <m_primary>  (90) 
energy

$$$$
90:0
     RDKit          3D

 44 45  0  0  0  0  0  0  0  0999 V2000
    0.7410   24.4900  -27.2670 C   0  0  0  0  0  0  0  0  0  0  0  0
    0.0980   24.5730  -28.5700 N   0  0  0  0  0  0  0  0  0  0  0  0
   -1.1540   25.2330  -28.7750 C   0  0  0  0  0  0  0  0  0  0  0  0
   -1.1990   26.4800  -28.9530 O   0  0  0  0  0  0  0  0  0  0  0  0
   -2.4190   24.4420  -28.7550 C   0  0  0  0  0  0  0  0  0  0  0  0
   -3.3130   24.9310  -29.7960 N   0  0  0  0  0  0  0  0  0  0  0  0
   -4.3010   24.1020  -30.4140 C   0  0  0  0  0  0  0  0  0  0  0  0
   -4.1270   23.6630  -31.5840 O   0  0  0  0  0  0  0  0  0  0  0  0
   -5.5740   23.7960  -29.6850 C   0  0  0  0  0  0  0  0  0  0  0  0
   -6.7570   24.6110  -30.2320 C   0  0  0  0  0  0  0  0  0  0  0  0
   -7.6070   23.8400  -31.2560 C   0  0  0  0  0  0  0  0  0  0  0  0
   -6.7990   22.9030  -32.0410 N   0  0  0  0  0  0  0  0  0  0  0  0
   -7.0920   21.4960  -32.1310 C   0  0  0  0  0  0  0  0  0  0  0  0
   -8.2450   20.9360  -31.5150 C   0  0  0  0  0  0  0  0  0  0  0  0
   -8.5100   19.5610  -31.6080 C   0  0  0  0  0  0  0  0  0  0  0  0
   -7.6210   18.7700  -32.3260 C   0  0  0  0  0  0  0  0  0  0  0  0
   -7.6350   17.4130  -32.5610 C   0  0  0  0  0  0  0  0  0  0  0  0
   -6.5080   17.1650  -33.3410 C   0  0  0  0  0  0  0  0  0  0  0  0
   -6.1940   15.8410  -33.9130 C   0  0  0  0  0  0  0  0  0  0  0  0
   -4.8710   15.3140  -33.8540 N   0  0  0  0  0  0  0  0  0  0  0  0
   -7.0930   15.1840  -34.5010 O   0  0  0  0  0  0  0  0  0  0  0  0
   -5.8170   18.3200  -33.5710 N   0  0  0  0  0  0  0  0  0  0  0  0
   -4.5640   18.4680  -34.2580 C   0  0  0  0  0  0  0  0  0  0  0  0
   -3.7130   19.3020  -33.8570 O   0  0  0  0  0  0  0  0  0  0  0  0
   -4.2790   17.6890  -35.3720 O   0  0  0  0  0  0  0  0  0  0  0  0
   -6.5140   19.2940  -32.9450 C   0  0  0  0  0  0  0  0  0  0  0  0
   -6.2140   20.6570  -32.8530 C   0  0  0  0  0  0  0  0  0  0  0  0
   -0.0179   24.5880  -26.4767 H   0  0  0  0  0  0  0  0  0  0  0  0
    1.2484   23.5189  -27.1697 H   0  0  0  0  0  0  0  0  0  0  0  0
    1.4784   25.3004  -27.1697 H   0  0  0  0  0  0  0  0  0  0  0  0
   -2.1912   23.3811  -28.9357 H   0  0  0  0  0  0  0  0  0  0  0  0
   -2.9042   24.5504  -27.7738 H   0  0  0  0  0  0  0  0  0  0  0  0
   -5.7986   22.7249  -29.7955 H   0  0  0  0  0  0  0  0  0  0  0  0
   -5.4346   24.0645  -28.6274 H   0  0  0  0  0  0  0  0  0  0  0  0
   -7.4023   24.8984  -29.3888 H   0  0  0  0  0  0  0  0  0  0  0  0
   -6.3372   25.4856  -30.7505 H   0  0  0  0  0  0  0  0  0  0  0  0
   -8.3850   23.2765  -30.7202 H   0  0  0  0  0  0  0  0  0  0  0  0
   -8.0521   24.5697  -31.9484 H   0  0  0  0  0  0  0  0  0  0  0  0
   -5.9660   23.2650  -32.5590 H   0  0  0  0  0  0  0  0  0  0  0  0
   -8.9362   21.5873  -30.9599 H   0  0  0  0  0  0  0  0  0  0  0  0
   -9.3961   19.1218  -31.1263 H   0  0  0  0  0  0  0  0  0  0  0  0
   -8.3772   16.6817  -32.2083 H   0  0  0  0  0  0  0  0  0  0  0  0
   -4.0880   15.7690  -34.3730 H   0  0  0  0  0  0  0  0  0  0  0  0
   -5.3132   21.0672  -33.3328 H   0  0  0  0  0  0  0  0  0  0  0  0
  1  2  1  0
  2  3  1  0
  3  4  2  0
  3  5  1  0
  5  6  1  0
  6  7  1  0
  7  8  2  0
  7  9  1  0
  9 10  1  0
 10 11  1  0
 11 12  1  0
 12 13  1  0
 13 14  2  0
 14 15  1  0
 15 16  2  0
 16 17  1  0
 17 18  2  0
 18 19  1  0
 19 20  1  0
 19 21  2  0
 18 22  1  0
 22 23  1  0
 23 24  2  0
 23 25  1  0
 22 26  1  0
 26 27  2  0
 27 13  1  0
 26 16  1  0
  1 28  1  0
  1 29  1  0
  1 30  1  0
  5 31  1  0
  5 32  1  0
  9 33  1  0
  9 34  1  0
 10 35  1  0
 10 36  1  0
 11 37  1  0
 11 38  1  0
 12 39  1  0
 14 40  1  0
 15 41  1  0
 17 42  1  0
 20 43  1  0
 27 44  1  0
M  CHG  4   2  -1   6  -1  20  -1  25  -1
M  END
>  <UniqueID>  (91) 
89

>  <SMILES>  (91) 
C[N-]C(=O)C[N-]C(=O)CCCNc1ccc2cc(C([NH-])=O)n(C(=O)[O-])c2c1

>  <Energy>  (91) 
72.37655473239033

>  <Genealogy>  (91) 
C[N-]C(=O)C[N-]C(=O)CCCNc1ccc2cc(C([NH-])=O)n(C(=O)[O-])c2c1 (protonated)
C[N-]C(=O)C[N-]C(=O)CCCNc1ccc2cc(C([NH-])=O)n(C(=O)[O-])c2c1 (3D coordinates assigned)
C[N-]C(=O)C[N-]C(=O)CCCNc1ccc2cc(C([NH-])=O)n(C(=O)[O-])c2c1 (optimized conformer: 72.37655473239033 kcal/mol)

>  <smiles>  (91) 
CNC(=O)CNC(=O)CCCNc1ccc2cc(C(N)=O)n(C(=O)O)c2c1

>  <score_type>  (91) 
oracle

>  <origin>  (91) 
adg

>  <m_score__min__energy>  (91) 
-11.26

>  <m_primary>  (91) 
energy

$$$$
91:0
     RDKit          3D

 42 44  0  0  0  0  0  0  0  0999 V2000
   -3.9360   25.4640  -30.8440 N   0  0  0  0  0  0  0  0  0  0  0  0
   -5.0740   24.8000  -30.3020 C   0  0  0  0  0  0  0  0  0  0  0  0
   -5.6420   25.2830  -29.2860 O   0  0  0  0  0  0  0  0  0  0  0  0
   -5.6130   23.5740  -30.9300 C   0  0  0  0  0  0  0  0  0  0  0  0
   -6.9710   23.3610  -31.1670 C   0  0  0  0  0  0  0  0  0  0  0  0
   -7.0430   22.1440  -31.8060 C   0  0  0  0  0  0  0  0  0  0  0  0
   -8.1480   21.4320  -32.2590 C   0  0  0  0  0  0  0  0  0  0  0  0
   -7.9250   20.1800  -32.8610 C   0  0  0  0  0  0  0  0  0  0  0  0
   -6.6100   19.6630  -32.9960 C   0  0  0  0  0  0  0  0  0  0  0  0
   -6.3920   18.3680  -33.5950 N   0  0  0  0  0  0  0  0  0  0  0  0
   -5.7630   18.2450  -34.9180 C   0  0  0  0  0  0  0  0  0  0  0  0
   -4.7890   17.0440  -34.9540 C   0  0  0  0  0  0  0  0  0  0  0  0
   -4.8980   16.1820  -33.8310 O   0  0  0  0  0  0  0  0  0  0  0  0
   -6.2550   15.9110  -33.5480 C   0  0  0  0  0  0  0  0  0  0  0  0
   -6.9060   17.1570  -32.9420 C   0  0  0  0  0  0  0  0  0  0  0  0
   -5.5150   20.4130  -32.5100 C   0  0  0  0  0  0  0  0  0  0  0  0
   -5.7660   21.6630  -31.9350 C   0  0  0  0  0  0  0  0  0  0  0  0
   -4.8780   22.5300  -31.4050 N   0  0  0  0  0  0  0  0  0  0  0  0
   -3.4590   22.3410  -31.3150 C   0  0  0  0  0  0  0  0  0  0  0  0
   -2.7540   22.4120  -32.3590 O   0  0  0  0  0  0  0  0  0  0  0  0
   -2.8210   22.0570  -30.0230 C   0  0  0  0  0  0  0  0  0  0  0  0
   -3.2280   21.0930  -29.3200 O   0  0  0  0  0  0  0  0  0  0  0  0
   -1.7270   22.8650  -29.5750 N   0  0  0  0  0  0  0  0  0  0  0  0
   -1.8430   23.8550  -28.5100 C   0  0  0  0  0  0  0  0  0  0  0  0
   -0.8780   24.9730  -28.7390 C   0  0  0  0  0  0  0  0  0  0  0  0
   -1.2470   26.0150  -29.3460 O   0  0  0  0  0  0  0  0  0  0  0  0
    0.4080   24.8970  -28.2220 O   0  0  0  0  0  0  0  0  0  0  0  0
   -2.9790   25.2820  -30.4690 H   0  0  0  0  0  0  0  0  0  0  0  0
   -7.8067   24.0245  -30.9000 H   0  0  0  0  0  0  0  0  0  0  0  0
   -9.1656   21.8353  -32.1501 H   0  0  0  0  0  0  0  0  0  0  0  0
   -8.7797   19.5950  -33.2314 H   0  0  0  0  0  0  0  0  0  0  0  0
   -6.5455   18.0975  -35.6769 H   0  0  0  0  0  0  0  0  0  0  0  0
   -5.1963   19.1647  -35.1257 H   0  0  0  0  0  0  0  0  0  0  0  0
   -4.9949   16.4580  -35.8619 H   0  0  0  0  0  0  0  0  0  0  0  0
   -3.7701   17.4583  -34.9413 H   0  0  0  0  0  0  0  0  0  0  0  0
   -6.7767   15.6395  -34.4775 H   0  0  0  0  0  0  0  0  0  0  0  0
   -6.3223   15.0769  -32.8341 H   0  0  0  0  0  0  0  0  0  0  0  0
   -7.9955   17.1027  -33.0836 H   0  0  0  0  0  0  0  0  0  0  0  0
   -6.6677   17.1999  -31.8690 H   0  0  0  0  0  0  0  0  0  0  0  0
   -4.4891   20.0226  -32.5823 H   0  0  0  0  0  0  0  0  0  0  0  0
   -2.8673   24.2559  -28.4962 H   0  0  0  0  0  0  0  0  0  0  0  0
   -1.6152   23.3751  -27.5468 H   0  0  0  0  0  0  0  0  0  0  0  0
  1  2  1  0
  2  3  2  0
  2  4  1  0
  4  5  2  0
  5  6  1  0
  6  7  2  0
  7  8  1  0
  8  9  2  0
  9 10  1  0
 10 11  1  0
 11 12  1  0
 12 13  1  0
 13 14  1  0
 14 15  1  0
  9 16  1  0
 16 17  2  0
 17 18  1  0
 18 19  1  0
 19 20  2  0
 19 21  1  0
 21 22  2  0
 21 23  1  0
 23 24  1  0
 24 25  1  0
 25 26  2  0
 25 27  1  0
 18  4  1  0
 17  6  1  0
 15 10  1  0
  1 28  1  0
  5 29  1  0
  7 30  1  0
  8 31  1  0
 11 32  1  0
 11 33  1  0
 12 34  1  0
 12 35  1  0
 14 36  1  0
 14 37  1  0
 15 38  1  0
 15 39  1  0
 16 40  1  0
 24 41  1  0
 24 42  1  0
M  CHG  3   1  -1  23  -1  27  -1
M  END
>  <UniqueID>  (92) 
90

>  <SMILES>  (92) 
[NH-]C(=O)c1cc2ccc(N3CCOCC3)cc2n1C(=O)C(=O)[N-]CC(=O)[O-]

>  <Energy>  (92) 
90.29249970611069

>  <Genealogy>  (92) 
[NH-]C(=O)c1cc2ccc(N3CCOCC3)cc2n1C(=O)C(=O)[N-]CC(=O)[O-] (protonated)
[NH-]C(=O)c1cc2ccc(N3CCOCC3)cc2n1C(=O)C(=O)[N-]CC(=O)[O-] (3D coordinates assigned)
[NH-]C(=O)c1cc2ccc(N3CCOCC3)cc2n1C(=O)C(=O)[N-]CC(=O)[O-] (nonaromatic ring conformer: 90.29249970611069 kcal/mol)

>  <smiles>  (92) 
NC(=O)c1cc2ccc(N3CCOCC3)cc2n1C(=O)C(=O)NCC(=O)O

>  <score_type>  (92) 
oracle

>  <origin>  (92) 
adg

>  <m_score__min__energy>  (92) 
-13.470000000000001

>  <m_primary>  (92) 
energy

$$$$
92:0
     RDKit          3D

 47 49  0  0  0  0  0  0  0  0999 V2000
   -1.3930   22.4980  -30.7990 N   0  0  0  0  0  0  0  0  0  0  0  0
   -1.9780   21.8430  -31.9290 C   0  0  0  0  0  0  0  0  0  0  0  0
   -1.2570   21.5530  -32.9210 O   0  0  0  0  0  0  0  0  0  0  0  0
   -3.4240   21.5570  -31.9760 C   0  0  0  0  0  0  0  0  0  0  0  0
   -3.9520   20.4380  -32.6090 C   0  0  0  0  0  0  0  0  0  0  0  0
   -5.3160   20.5740  -32.5070 C   0  0  0  0  0  0  0  0  0  0  0  0
   -6.3290   19.7370  -32.9660 C   0  0  0  0  0  0  0  0  0  0  0  0
   -7.6570   20.1080  -32.7040 C   0  0  0  0  0  0  0  0  0  0  0  0
   -7.9500   21.2930  -31.9870 C   0  0  0  0  0  0  0  0  0  0  0  0
   -9.3810   21.6720  -31.7230 C   0  0  0  0  0  0  0  0  0  0  0  0
  -10.2260   20.7750  -32.3510 F   0  0  0  0  0  0  0  0  0  0  0  0
   -9.6210   22.9410  -32.2100 F   0  0  0  0  0  0  0  0  0  0  0  0
   -6.8960   22.1140  -31.5250 C   0  0  0  0  0  0  0  0  0  0  0  0
   -5.5750   21.7340  -31.8160 C   0  0  0  0  0  0  0  0  0  0  0  0
   -4.4150   22.3530  -31.4760 N   0  0  0  0  0  0  0  0  0  0  0  0
   -4.2550   23.5390  -30.6700 C   0  0  0  0  0  0  0  0  0  0  0  0
   -4.3650   24.6820  -31.1990 O   0  0  0  0  0  0  0  0  0  0  0  0
   -3.9310   23.4250  -29.3130 O   0  0  0  0  0  0  0  0  0  0  0  0
   -2.9030   24.1260  -28.6750 C   0  0  0  0  0  0  0  0  0  0  0  0
   -2.1720   24.9310  -29.3160 O   0  0  0  0  0  0  0  0  0  0  0  0
   -2.7250   23.9440  -27.3040 O   0  0  0  0  0  0  0  0  0  0  0  0
   -1.6360   23.2180  -26.7410 C   0  0  0  0  0  0  0  0  0  0  0  0
   -0.9790   22.3720  -27.7970 C   0  0  0  0  0  0  0  0  0  0  0  0
   -0.2080   22.9370  -28.6200 O   0  0  0  0  0  0  0  0  0  0  0  0
   -1.1760   20.9410  -27.8690 N   0  0  0  0  0  0  0  0  0  0  0  0
   -0.3310   20.1570  -28.7810 C   0  0  0  0  0  0  0  0  0  0  0  0
   -0.5100   18.6570  -28.5360 C   0  0  0  0  0  0  0  0  0  0  0  0
   -0.6240   18.4210  -27.1510 O   0  0  0  0  0  0  0  0  0  0  0  0
   -1.8910   18.8580  -26.6850 C   0  0  0  0  0  0  0  0  0  0  0  0
   -2.2940   20.2680  -27.1820 C   0  0  0  0  0  0  0  0  0  0  0  0
   -1.9850   22.8310  -30.0050 H   0  0  0  0  0  0  0  0  0  0  0  0
   -0.3620   22.6560  -30.7650 H   0  0  0  0  0  0  0  0  0  0  0  0
   -3.3969   19.6186  -33.0891 H   0  0  0  0  0  0  0  0  0  0  0  0
   -6.0961   18.8138  -33.5168 H   0  0  0  0  0  0  0  0  0  0  0  0
   -8.4798   19.4706  -33.0599 H   0  0  0  0  0  0  0  0  0  0  0  0
   -9.5651   21.6512  -30.6387 H   0  0  0  0  0  0  0  0  0  0  0  0
   -7.1051   23.0289  -30.9512 H   0  0  0  0  0  0  0  0  0  0  0  0
   -0.9000   23.9254  -26.3313 H   0  0  0  0  0  0  0  0  0  0  0  0
   -2.0136   22.5656  -25.9399 H   0  0  0  0  0  0  0  0  0  0  0  0
   -0.6104   20.3883  -29.8195 H   0  0  0  0  0  0  0  0  0  0  0  0
    0.7215   20.4201  -28.5991 H   0  0  0  0  0  0  0  0  0  0  0  0
   -1.4209   18.3079  -29.0443 H   0  0  0  0  0  0  0  0  0  0  0  0
    0.3601   18.1128  -28.9319 H   0  0  0  0  0  0  0  0  0  0  0  0
   -2.6514   18.1405  -27.0270 H   0  0  0  0  0  0  0  0  0  0  0  0
   -1.8240   18.9147  -25.5885 H   0  0  0  0  0  0  0  0  0  0  0  0
   -3.1374   20.1724  -27.8817 H   0  0  0  0  0  0  0  0  0  0  0  0
   -2.5756   20.8736  -26.3080 H   0  0  0  0  0  0  0  0  0  0  0  0
  1  2  1  0
  2  3  2  0
  2  4  1  0
  4  5  2  0
  5  6  1  0
  6  7  2  0
  7  8  1  0
  8  9  2  0
  9 10  1  0
 10 11  1  0
 10 12  1  0
  9 13  1  0
 13 14  2  0
 14 15  1  0
 15 16  1  0
 16 17  2  0
 16 18  1  0
 18 19  1  0
 19 20  2  0
 19 21  1  0
 21 22  1  0
 22 23  1  0
 23 24  2  0
 23 25  1  0
 25 26  1  0
 26 27  1  0
 27 28  1  0
 28 29  1  0
 29 30  1  0
 15  4  1  0
 30 25  1  0
 14  6  1  0
  1 31  1  0
  1 32  1  0
  5 33  1  0
  7 34  1  0
  8 35  1  0
 10 36  1  0
 13 37  1  0
 22 38  1  0
 22 39  1  0
 26 40  1  0
 26 41  1  0
 27 42  1  0
 27 43  1  0
 29 44  1  0
 29 45  1  0
 30 46  1  0
 30 47  1  0
M  END
>  <UniqueID>  (93) 
91

>  <SMILES>  (93) 
NC(=O)c1cc2ccc(C(F)F)cc2n1C(=O)OC(=O)OCC(=O)N1CCOCC1

>  <Energy>  (93) 
94.98462953432852

>  <Genealogy>  (93) 
NC(=O)c1cc2ccc(C(F)F)cc2n1C(=O)OC(=O)OCC(=O)N1CCOCC1 (3D coordinates assigned)
NC(=O)c1cc2ccc(C(F)F)cc2n1C(=O)OC(=O)OCC(=O)N1CCOCC1 (nonaromatic ring conformer: 94.98462953432852 kcal/mol)

>  <smiles>  (93) 
NC(=O)c1cc2ccc(C(F)F)cc2n1C(=O)OC(=O)OCC(=O)N1CCOCC1

>  <score_type>  (93) 
oracle

>  <origin>  (93) 
adg

>  <m_score__min__energy>  (93) 
-8.8300000000000001

>  <m_primary>  (93) 
energy

$$$$
93:0
     RDKit          3D

 40 41  0  0  0  0  0  0  0  0999 V2000
    0.9800   24.0900  -27.1060 C   0  0  0  0  0  0  0  0  0  0  0  0
    0.2780   24.5830  -28.2420 O   0  0  0  0  0  0  0  0  0  0  0  0
   -1.0790   24.9160  -28.2000 C   0  0  0  0  0  0  0  0  0  0  0  0
   -1.5840   25.6740  -29.0730 O   0  0  0  0  0  0  0  0  0  0  0  0
   -1.9270   24.3930  -27.0900 C   0  0  0  0  0  0  0  0  0  0  0  0
   -1.7950   22.9770  -27.0290 O   0  0  0  0  0  0  0  0  0  0  0  0
   -2.5630   22.1140  -27.8140 C   0  0  0  0  0  0  0  0  0  0  0  0
   -2.4330   20.8630  -27.7100 O   0  0  0  0  0  0  0  0  0  0  0  0
   -3.5920   22.6800  -28.7380 C   0  0  0  0  0  0  0  0  0  0  0  0
   -3.0210   22.9080  -30.0230 O   0  0  0  0  0  0  0  0  0  0  0  0
   -3.7100   22.6790  -31.2200 C   0  0  0  0  0  0  0  0  0  0  0  0
   -3.0910   22.2930  -32.2480 O   0  0  0  0  0  0  0  0  0  0  0  0
   -5.1310   22.8720  -31.2710 N   0  0  0  0  0  0  0  0  0  0  0  0
   -5.8270   24.0230  -31.0440 C   0  0  0  0  0  0  0  0  0  0  0  0
   -5.2600   25.2930  -30.5480 C   0  0  0  0  0  0  0  0  0  0  0  0
   -3.9090   25.6520  -30.8260 N   0  0  0  0  0  0  0  0  0  0  0  0
   -5.9630   26.0530  -29.8310 O   0  0  0  0  0  0  0  0  0  0  0  0
   -7.1870   23.8220  -31.2610 C   0  0  0  0  0  0  0  0  0  0  0  0
   -7.3070   22.4990  -31.6210 C   0  0  0  0  0  0  0  0  0  0  0  0
   -8.4400   21.7590  -31.9500 C   0  0  0  0  0  0  0  0  0  0  0  0
   -8.2660   20.4110  -32.3040 C   0  0  0  0  0  0  0  0  0  0  0  0
   -6.9710   19.8360  -32.3390 C   0  0  0  0  0  0  0  0  0  0  0  0
   -6.7950   18.3910  -32.6960 C   0  0  0  0  0  0  0  0  0  0  0  0
   -5.8470   20.6130  -31.9850 C   0  0  0  0  0  0  0  0  0  0  0  0
   -6.0520   21.9480  -31.6200 C   0  0  0  0  0  0  0  0  0  0  0  0
    0.4835   24.4387  -26.1884 H   0  0  0  0  0  0  0  0  0  0  0  0
    0.9833   22.9902  -27.1259 H   0  0  0  0  0  0  0  0  0  0  0  0
    2.0156   24.4602  -27.1259 H   0  0  0  0  0  0  0  0  0  0  0  0
   -1.5997   24.8346  -26.1372 H   0  0  0  0  0  0  0  0  0  0  0  0
   -2.9789   24.6592  -27.2709 H   0  0  0  0  0  0  0  0  0  0  0  0
   -4.4273   21.9704  -28.8314 H   0  0  0  0  0  0  0  0  0  0  0  0
   -3.9567   23.6345  -28.3307 H   0  0  0  0  0  0  0  0  0  0  0  0
   -3.1160   25.0790  -30.4630 H   0  0  0  0  0  0  0  0  0  0  0  0
   -7.9943   24.5630  -31.1652 H   0  0  0  0  0  0  0  0  0  0  0  0
   -9.4404   22.2162  -31.9331 H   0  0  0  0  0  0  0  0  0  0  0  0
   -9.1425   19.7961  -32.5563 H   0  0  0  0  0  0  0  0  0  0  0  0
   -6.7221   17.7923  -31.7761 H   0  0  0  0  0  0  0  0  0  0  0  0
   -7.6584   18.0515  -33.2870 H   0  0  0  0  0  0  0  0  0  0  0  0
   -5.8753   18.2687  -33.2870 H   0  0  0  0  0  0  0  0  0  0  0  0
   -4.8359   20.1800  -31.9958 H   0  0  0  0  0  0  0  0  0  0  0  0
  1  2  1  0
  2  3  1  0
  3  4  2  0
  3  5  1  0
  5  6  1  0
  6  7  1  0
  7  8  2  0
  7  9  1  0
  9 10  1  0
 10 11  1  0
 11 12  2  0
 11 13  1  0
 13 14  1  0
 14 15  1  0
 15 16  1  0
 15 17  2  0
 14 18  2  0
 18 19  1  0
 19 20  2  0
 20 21  1  0
 21 22  2  0
 22 23  1  0
 22 24  1  0
 24 25  2  0
 25 13  1  0
 25 19  1  0
  1 26  1  0
  1 27  1  0
  1 28  1  0
  5 29  1  0
  5 30  1  0
  9 31  1  0
  9 32  1  0
 16 33  1  0
 18 34  1  0
 20 35  1  0
 21 36  1  0
 23 37  1  0
 23 38  1  0
 23 39  1  0
 24 40  1  0
M  CHG  1  16  -1
M  END
>  <UniqueID>  (94) 
92

>  <SMILES>  (94) 
COC(=O)COC(=O)COC(=O)n1c(C([NH-])=O)cc2ccc(C)cc21

>  <Energy>  (94) 
69.73153222145291

>  <Genealogy>  (94) 
COC(=O)COC(=O)COC(=O)n1c(C([NH-])=O)cc2ccc(C)cc21 (protonated)
COC(=O)COC(=O)COC(=O)n1c(C([NH-])=O)cc2ccc(C)cc21 (3D coordinates assigned)
COC(=O)COC(=O)COC(=O)n1c(C([NH-])=O)cc2ccc(C)cc21 (optimized conformer: 69.73153222145291 kcal/mol)

>  <smiles>  (94) 
COC(=O)COC(=O)COC(=O)n1c(C(N)=O)cc2ccc(C)cc21

>  <score_type>  (94) 
oracle

>  <origin>  (94) 
adg

>  <m_score__min__energy>  (94) 
-9.7100000000000009

>  <m_primary>  (94) 
energy

$$$$
94:0
     RDKit          3D

 34 35  0  0  0  0  0  0  0  0999 V2000
   -5.8325   23.2413  -29.3931 H   0  0  0  0  0  0  0  0  0  0  0  0
   -6.2820   23.7820  -30.2390 C   0  0  0  0  0  0  0  0  0  0  0  0
   -6.4820   25.2360  -30.1270 C   0  0  0  0  0  0  0  0  0  0  0  0
   -7.3160   25.7200  -29.3160 O   0  0  0  0  0  0  0  0  0  0  0  0
   -5.7390   26.0900  -30.9330 O   0  0  0  0  0  0  0  0  0  0  0  0
   -6.6280   23.0950  -31.3340 C   0  0  0  0  0  0  0  0  0  0  0  0
   -7.0773   23.6377  -32.1787 H   0  0  0  0  0  0  0  0  0  0  0  0
   -6.4300   21.6370  -31.4520 C   0  0  0  0  0  0  0  0  0  0  0  0
   -7.3230   20.8630  -31.0180 O   0  0  0  0  0  0  0  0  0  0  0  0
   -5.2480   21.0810  -32.0540 N   0  0  0  0  0  0  0  0  0  0  0  0
   -5.1820   20.2320  -33.1170 C   0  0  0  0  0  0  0  0  0  0  0  0
   -6.3500   19.6210  -33.7930 C   0  0  0  0  0  0  0  0  0  0  0  0
   -6.2610   19.2480  -34.9920 O   0  0  0  0  0  0  0  0  0  0  0  0
   -7.5930   19.4580  -33.1070 N   0  0  0  0  0  0  0  0  0  0  0  0
   -7.6950   19.6900  -32.0950 H   0  0  0  0  0  0  0  0  0  0  0  0
   -8.4170   19.0570  -33.6090 H   0  0  0  0  0  0  0  0  0  0  0  0
   -3.8500   19.9670  -33.4420 C   0  0  0  0  0  0  0  0  0  0  0  0
   -3.4771   19.3136  -34.2445 H   0  0  0  0  0  0  0  0  0  0  0  0
   -3.1020   20.6970  -32.5450 C   0  0  0  0  0  0  0  0  0  0  0  0
   -1.7210   20.8060  -32.4070 C   0  0  0  0  0  0  0  0  0  0  0  0
   -1.0390   20.2539  -33.0704 H   0  0  0  0  0  0  0  0  0  0  0  0
   -1.2260   21.6440  -31.3930 C   0  0  0  0  0  0  0  0  0  0  0  0
   -0.1398   21.7431  -31.2503 H   0  0  0  0  0  0  0  0  0  0  0  0
   -2.1130   22.3630  -30.5520 C   0  0  0  0  0  0  0  0  0  0  0  0
   -1.5740   23.2260  -29.4470 C   0  0  0  0  0  0  0  0  0  0  0  0
   -1.5804   22.6571  -28.5056 H   0  0  0  0  0  0  0  0  0  0  0  0
   -0.5460   23.5279  -29.6963 H   0  0  0  0  0  0  0  0  0  0  0  0
   -2.6000   24.7150  -29.2560 P   0  0  0  0  0  0  0  0  0  0  0  0
   -3.5500   24.5360  -28.0940 O   0  0  0  0  0  0  0  0  0  0  0  0
   -3.4870   24.9830  -30.6720 O   0  0  0  0  0  0  0  0  0  0  0  0
   -1.6020   26.0490  -28.9630 O   0  0  0  0  0  0  0  0  0  0  0  0
   -3.5070   22.2240  -30.7210 C   0  0  0  0  0  0  0  0  0  0  0  0
   -4.2110   22.7754  -30.0804 H   0  0  0  0  0  0  0  0  0  0  0  0
   -3.9700   21.3670  -31.7240 C   0  0  0  0  0  0  0  0  0  0  0  0
  1  2  1  0
  2  3  1  0
  3  4  2  0
  3  5  1  0
  2  6  2  0
  6  7  1  0
  6  8  1  0
  8  9  2  0
  8 10  1  0
 10 11  1  0
 11 12  1  0
 12 13  2  0
 12 14  1  0
 14 15  1  0
 14 16  1  0
 11 17  2  0
 17 18  1  0
 17 19  1  0
 19 20  2  0
 20 21  1  0
 20 22  1  0
 22 23  1  0
 22 24  2  0
 24 25  1  0
 25 26  1  0
 25 27  1  0
 25 28  1  0
 28 29  2  0
 28 30  1  0
 28 31  1  0
 24 32  1  0
 32 33  1  0
 32 34  2  0
 34 10  1  0
 34 19  1  0
M  CHG  3   5  -1  30  -1  31  -1
M  END
>  <UniqueID>  (95) 
93

>  <SMILES>  (95) 
NC(=O)c1cc2ccc(CP(=O)([O-])[O-])cc2n1C(=O)/C=C/C(=O)[O-]

>  <Energy>  (95) 
66.76019787928546

>  <Genealogy>  (95) 
NC(=O)c1cc2ccc(CP(=O)([O-])[O-])cc2n1C(=O)C=CC(=O)[O-] (protonated)
NC(=O)c1cc2ccc(CP(=O)([O-])[O-])cc2n1C(=O)/C=C/C(=O)[O-] (cis-trans isomerization)
NC(=O)c1cc2ccc(CP(=O)([O-])[O-])cc2n1C(=O)/C=C/C(=O)[O-] (3D coordinates assigned)
NC(=O)c1cc2ccc(CP(=O)([O-])[O-])cc2n1C(=O)/C=C/C(=O)[O-] (optimized conformer: 66.76019787928546 kcal/mol)

>  <smiles>  (95) 
NC(=O)c1cc2ccc(CP(=O)(O)O)cc2n1C(=O)C=CC(=O)O

>  <score_type>  (95) 
oracle

>  <origin>  (95) 
adg

>  <m_score__min__energy>  (95) 
-12.56

>  <m_primary>  (95) 
energy

$$$$
95:0
     RDKit          3D

 49 51  0  0  0  0  0  0  0  0999 V2000
   -5.2510   13.0350  -34.1210 C   0  0  0  0  0  0  0  0  0  0  0  0
   -4.8580   14.2740  -34.7020 O   0  0  0  0  0  0  0  0  0  0  0  0
   -5.2460   15.5340  -34.2210 C   0  0  0  0  0  0  0  0  0  0  0  0
   -6.5690   15.8130  -33.8370 C   0  0  0  0  0  0  0  0  0  0  0  0
   -6.8960   17.0840  -33.3660 C   0  0  0  0  0  0  0  0  0  0  0  0
   -5.9130   18.0800  -33.2740 C   0  0  0  0  0  0  0  0  0  0  0  0
   -6.2480   19.4370  -32.7710 C   0  0  0  0  0  0  0  0  0  0  0  0
   -7.5930   19.8920  -32.7750 C   0  0  0  0  0  0  0  0  0  0  0  0
   -7.9190   21.1770  -32.3100 C   0  0  0  0  0  0  0  0  0  0  0  0
   -6.8890   21.9820  -31.8390 C   0  0  0  0  0  0  0  0  0  0  0  0
   -6.9190   23.2720  -31.3580 C   0  0  0  0  0  0  0  0  0  0  0  0
   -5.5970   23.5810  -31.0440 C   0  0  0  0  0  0  0  0  0  0  0  0
   -5.1810   24.8600  -30.4300 C   0  0  0  0  0  0  0  0  0  0  0  0
   -3.8290   25.3040  -30.5020 N   0  0  0  0  0  0  0  0  0  0  0  0
   -6.0240   25.5530  -29.8010 O   0  0  0  0  0  0  0  0  0  0  0  0
   -4.7820   22.5250  -31.3220 N   0  0  0  0  0  0  0  0  0  0  0  0
   -3.3520   22.4620  -31.2120 C   0  0  0  0  0  0  0  0  0  0  0  0
   -2.6810   21.9240  -32.1350 O   0  0  0  0  0  0  0  0  0  0  0  0
   -2.6990   23.0040  -30.0530 N   0  0  0  0  0  0  0  0  0  0  0  0
   -1.2920   22.8750  -29.7870 C   0  0  0  0  0  0  0  0  0  0  0  0
   -0.5490   22.2620  -30.5990 O   0  0  0  0  0  0  0  0  0  0  0  0
   -0.7230   23.4280  -28.5350 C   0  0  0  0  0  0  0  0  0  0  0  0
    0.0180   24.4480  -28.6130 O   0  0  0  0  0  0  0  0  0  0  0  0
   -0.9920   22.8540  -27.2340 N   0  0  0  0  0  0  0  0  0  0  0  0
   -0.7160   23.6550  -26.0380 C   0  0  0  0  0  0  0  0  0  0  0  0
   -1.4380   21.4630  -27.0890 C   0  0  0  0  0  0  0  0  0  0  0  0
   -5.5870   21.5560  -31.8100 C   0  0  0  0  0  0  0  0  0  0  0  0
   -5.2280   20.2900  -32.2850 C   0  0  0  0  0  0  0  0  0  0  0  0
   -4.6040   17.7600  -33.6680 C   0  0  0  0  0  0  0  0  0  0  0  0
   -4.3040   16.5140  -34.1260 N   0  0  0  0  0  0  0  0  0  0  0  0
   -5.2243   13.1193  -33.0246 H   0  0  0  0  0  0  0  0  0  0  0  0
   -6.2723   12.7858  -34.4448 H   0  0  0  0  0  0  0  0  0  0  0  0
   -4.5601   12.2427  -34.4448 H   0  0  0  0  0  0  0  0  0  0  0  0
   -7.3418   15.0333  -33.9076 H   0  0  0  0  0  0  0  0  0  0  0  0
   -7.9303   17.3066  -33.0650 H   0  0  0  0  0  0  0  0  0  0  0  0
   -8.3893   19.2304  -33.1467 H   0  0  0  0  0  0  0  0  0  0  0  0
   -8.9590   21.5353  -32.3185 H   0  0  0  0  0  0  0  0  0  0  0  0
   -7.8000   23.9210  -31.2455 H   0  0  0  0  0  0  0  0  0  0  0  0
   -3.5280   26.0000  -31.2200 H   0  0  0  0  0  0  0  0  0  0  0  0
   -3.2910   23.5350  -29.3750 H   0  0  0  0  0  0  0  0  0  0  0  0
   -0.9226   23.0553  -25.1393 H   0  0  0  0  0  0  0  0  0  0  0  0
    0.3400   23.9629  -26.0385 H   0  0  0  0  0  0  0  0  0  0  0  0
   -1.3583   24.5480  -26.0385 H   0  0  0  0  0  0  0  0  0  0  0  0
   -1.5181   21.2131  -26.0208 H   0  0  0  0  0  0  0  0  0  0  0  0
   -2.4203   21.3410  -27.5688 H   0  0  0  0  0  0  0  0  0  0  0  0
   -0.7098   20.7925  -27.5688 H   0  0  0  0  0  0  0  0  0  0  0  0
   -4.1772   19.9648  -32.2809 H   0  0  0  0  0  0  0  0  0  0  0  0
   -3.8140   18.5230  -33.6060 H   0  0  0  0  0  0  0  0  0  0  0  0
   -3.3220   16.3060  -34.4160 H   0  0  0  0  0  0  0  0  0  0  0  0
  1  2  1  0
  2  3  1  0
  3  4  2  0
  4  5  1  0
  5  6  2  0
  6  7  1  0
  7  8  2  0
  8  9  1  0
  9 10  2  0
 10 11  1  0
 11 12  2  0
 12 13  1  0
 13 14  1  0
 13 15  2  0
 12 16  1  0
 16 17  1  0
 17 18  2  0
 17 19  1  0
 19 20  1  0
 20 21  2  0
 20 22  1  0
 22 23  2  0
 22 24  1  0
 24 25  1  0
 24 26  1  0
 16 27  1  0
 27 28  2  0
  6 29  1  0
 29 30  2  0
 30  3  1  0
 28  7  1  0
 27 10  1  0
  1 31  1  0
  1 32  1  0
  1 33  1  0
  4 34  1  0
  5 35  1  0
  8 36  1  0
  9 37  1  0
 11 38  1  0
 14 39  1  0
 19 40  1  0
 25 41  1  0
 25 42  1  0
 25 43  1  0
 26 44  1  0
 26 45  1  0
 26 46  1  0
 28 47  1  0
 29 48  1  0
 30 49  1  0
M  CHG  2  14  -1  30   1
M  END
>  <UniqueID>  (96) 
94

>  <SMILES>  (96) 
COc1ccc(-c2ccc3cc(C([NH-])=O)n(C(=O)NC(=O)C(=O)N(C)C)c3c2)c[nH+]1

>  <Energy>  (96) 
95.4736486177209

>  <Genealogy>  (96) 
COc1ccc(-c2ccc3cc(C([NH-])=O)n(C(=O)NC(=O)C(=O)N(C)C)c3c2)c[nH+]1 (protonated)
COc1ccc(-c2ccc3cc(C([NH-])=O)n(C(=O)NC(=O)C(=O)N(C)C)c3c2)c[nH+]1 (3D coordinates assigned)
COc1ccc(-c2ccc3cc(C([NH-])=O)n(C(=O)NC(=O)C(=O)N(C)C)c3c2)c[nH+]1 (optimized conformer: 95.4736486177209 kcal/mol)

>  <smiles>  (96) 
COc1ccc(-c2ccc3cc(C(N)=O)n(C(=O)NC(=O)C(=O)N(C)C)c3c2)cn1

>  <score_type>  (96) 
oracle

>  <origin>  (96) 
adg

>  <m_score__min__energy>  (96) 
-11.289999999999999

>  <m_primary>  (96) 
energy

$$$$
96:0
     RDKit          3D

 45 47  0  0  0  0  0  0  0  0999 V2000
   -8.8610   18.8240  -31.3900 C   0  0  0  0  0  0  0  0  0  0  0  0
   -8.2800   17.8920  -32.2940 O   0  0  0  0  0  0  0  0  0  0  0  0
   -6.9820   18.0360  -32.7980 C   0  0  0  0  0  0  0  0  0  0  0  0
   -6.4540   17.1140  -33.4800 O   0  0  0  0  0  0  0  0  0  0  0  0
   -6.2410   19.3300  -32.5900 C   0  0  2  0  0  0  0  0  0  0  0  0
   -6.8600   20.4390  -33.4460 C   0  0  0  0  0  0  0  0  0  0  0  0
   -4.8240   19.1520  -32.9330 N   0  0  0  0  0  0  0  0  0  0  0  0
   -3.7410   19.9270  -32.3810 C   0  0  0  0  0  0  0  0  0  0  0  0
   -2.4140   19.6260  -32.7780 C   0  0  0  0  0  0  0  0  0  0  0  0
   -1.3250   20.3640  -32.2860 C   0  0  0  0  0  0  0  0  0  0  0  0
   -1.5890   21.3990  -31.3960 C   0  0  0  0  0  0  0  0  0  0  0  0
   -0.7320   22.2920  -30.7920 C   0  0  0  0  0  0  0  0  0  0  0  0
   -1.5470   23.1250  -30.0270 C   0  0  0  0  0  0  0  0  0  0  0  0
   -1.0360   24.2110  -29.1640 C   0  0  0  0  0  0  0  0  0  0  0  0
   -1.5920   25.5220  -29.2640 N   0  0  0  0  0  0  0  0  0  0  0  0
   -0.0980   23.9990  -28.3510 O   0  0  0  0  0  0  0  0  0  0  0  0
   -2.8520   22.7570  -30.1540 N   0  0  0  0  0  0  0  0  0  0  0  0
   -4.0090   23.3890  -29.5860 C   0  0  0  0  0  0  0  0  0  0  0  0
   -4.5500   22.8900  -28.5640 O   0  0  0  0  0  0  0  0  0  0  0  0
   -4.6080   24.5690  -30.2270 C   0  0  0  0  0  0  0  0  0  0  0  0
   -3.8680   25.3780  -30.8460 O   0  0  0  0  0  0  0  0  0  0  0  0
   -6.0320   24.7610  -30.1550 N   0  0  0  0  0  0  0  0  0  0  0  0
   -7.1340   24.0900  -30.8610 C   0  0  0  0  0  0  0  0  0  0  0  0
   -6.7850   23.4140  -32.1760 C   0  0  0  0  0  0  0  0  0  0  0  0
   -7.0570   22.5730  -30.9270 C   0  0  0  0  0  0  0  0  0  0  0  0
   -2.8610   21.6990  -30.9910 C   0  0  0  0  0  0  0  0  0  0  0  0
   -3.9650   20.9860  -31.4630 C   0  0  0  0  0  0  0  0  0  0  0  0
   -8.6621   18.5049  -30.3563 H   0  0  0  0  0  0  0  0  0  0  0  0
   -8.4229   19.8190  -31.5573 H   0  0  0  0  0  0  0  0  0  0  0  0
   -9.9473   18.8688  -31.5573 H   0  0  0  0  0  0  0  0  0  0  0  0
   -6.3188   19.6216  -31.5322 H   0  0  0  0  0  0  0  0  0  0  0  0
   -7.2907   21.2106  -32.7909 H   0  0  0  0  0  0  0  0  0  0  0  0
   -6.0827   20.8892  -34.0809 H   0  0  0  0  0  0  0  0  0  0  0  0
   -7.6512   20.0137  -34.0809 H   0  0  0  0  0  0  0  0  0  0  0  0
   -4.5810   18.4310  -33.6510 H   0  0  0  0  0  0  0  0  0  0  0  0
   -2.2341   18.8009  -33.4829 H   0  0  0  0  0  0  0  0  0  0  0  0
   -0.2955   20.1304  -32.5951 H   0  0  0  0  0  0  0  0  0  0  0  0
    0.3625   22.3381  -30.8919 H   0  0  0  0  0  0  0  0  0  0  0  0
   -2.6250   25.6640  -29.3240 H   0  0  0  0  0  0  0  0  0  0  0  0
   -7.8946   24.8187  -30.5441 H   0  0  0  0  0  0  0  0  0  0  0  0
   -7.5075   23.4174  -33.0055 H   0  0  0  0  0  0  0  0  0  0  0  0
   -5.9580   23.4929  -32.8970 H   0  0  0  0  0  0  0  0  0  0  0  0
   -7.9753   21.9714  -30.8574 H   0  0  0  0  0  0  0  0  0  0  0  0
   -6.5073   21.7958  -30.3758 H   0  0  0  0  0  0  0  0  0  0  0  0
   -4.9830   21.2388  -31.1316 H   0  0  0  0  0  0  0  0  0  0  0  0
  1  2  1  0
  2  3  1  0
  3  4  2  0
  3  5  1  0
  5  6  1  0
  5  7  1  0
  7  8  1  0
  8  9  2  0
  9 10  1  0
 10 11  2  0
 11 12  1  0
 12 13  2  0
 13 14  1  0
 14 15  1  0
 14 16  2  0
 13 17  1  0
 17 18  1  0
 18 19  2  0
 18 20  1  0
 20 21  2  0
 20 22  1  0
 22 23  1  0
 23 24  1  0
 24 25  1  0
 17 26  1  0
 26 27  2  0
 27  8  1  0
 26 11  1  0
 25 23  1  0
  1 28  1  0
  1 29  1  0
  1 30  1  0
  5 31  1  1
  6 32  1  0
  6 33  1  0
  6 34  1  0
  7 35  1  0
  9 36  1  0
 10 37  1  0
 12 38  1  0
 15 39  1  0
 23 40  1  0
 24 41  1  0
 24 42  1  0
 25 43  1  0
 25 44  1  0
 27 45  1  0
M  CHG  2  15  -1  22  -1
M  END
>  <UniqueID>  (97) 
95

>  <SMILES>  (97) 
COC(=O)[C@H](C)Nc1ccc2cc(C([NH-])=O)n(C(=O)C(=O)[N-]C3CC3)c2c1

>  <Energy>  (97) 
351.327413223419

>  <Genealogy>  (97) 
COC(=O)C(C)Nc1ccc2cc(C([NH-])=O)n(C(=O)C(=O)[N-]C3CC3)c2c1 (protonated)
COC(=O)[C@H](C)Nc1ccc2cc(C([NH-])=O)n(C(=O)C(=O)[N-]C3CC3)c2c1 (chirality)
COC(=O)[C@H](C)Nc1ccc2cc(C([NH-])=O)n(C(=O)C(=O)[N-]C3CC3)c2c1 (3D coordinates assigned)
COC(=O)[C@H](C)Nc1ccc2cc(C([NH-])=O)n(C(=O)C(=O)[N-]C3CC3)c2c1 (nonaromatic ring conformer: 351.327413223419 kcal/mol)

>  <smiles>  (97) 
COC(=O)C(C)Nc1ccc2cc(C(N)=O)n(C(=O)C(=O)NC3CC3)c2c1

>  <score_type>  (97) 
oracle

>  <origin>  (97) 
adg

>  <m_score__min__energy>  (97) 
-10.640000000000001

>  <m_primary>  (97) 
energy

$$$$
97:0
     RDKit          3D

 42 44  0  0  0  0  0  0  0  0999 V2000
   -0.7850   26.7820  -27.2800 C   0  0  0  0  0  0  0  0  0  0  0  0
   -1.2100   25.3950  -27.4330 N   0  0  0  0  0  0  0  0  0  0  0  0
   -2.5220   24.8870  -27.0810 C   0  0  0  0  0  0  0  0  0  0  0  0
   -2.5480   23.4190  -27.5770 C   0  0  1  0  0  0  0  0  0  0  0  0
   -3.4810   23.2580  -28.7010 N   0  0  0  0  0  0  0  0  0  0  0  0
   -3.3840   22.2060  -29.6810 C   0  0  0  0  0  0  0  0  0  0  0  0
   -2.8030   21.1250  -29.3920 O   0  0  0  0  0  0  0  0  0  0  0  0
   -3.9590   22.3750  -31.0260 C   0  0  0  0  0  0  0  0  0  0  0  0
   -3.2430   22.1870  -32.0450 O   0  0  0  0  0  0  0  0  0  0  0  0
   -5.3440   22.7290  -31.1850 N   0  0  0  0  0  0  0  0  0  0  0  0
   -5.9380   23.9280  -30.9160 C   0  0  0  0  0  0  0  0  0  0  0  0
   -5.2640   25.1250  -30.3780 C   0  0  0  0  0  0  0  0  0  0  0  0
   -3.8640   25.3040  -30.5790 N   0  0  0  0  0  0  0  0  0  0  0  0
   -5.9150   26.0120  -29.7590 O   0  0  0  0  0  0  0  0  0  0  0  0
   -7.3110   23.8520  -31.1450 C   0  0  0  0  0  0  0  0  0  0  0  0
   -7.5420   22.5590  -31.5580 C   0  0  0  0  0  0  0  0  0  0  0  0
   -8.7330   21.9240  -31.8880 C   0  0  0  0  0  0  0  0  0  0  0  0
   -8.6770   20.5680  -32.2540 C   0  0  0  0  0  0  0  0  0  0  0  0
   -7.4410   19.8800  -32.2860 C   0  0  0  0  0  0  0  0  0  0  0  0
   -7.3840   18.4320  -32.6810 C   0  0  0  0  0  0  0  0  0  0  0  0
   -6.9570   17.6720  -31.6070 F   0  0  0  0  0  0  0  0  0  0  0  0
   -6.2500   20.5610  -31.9590 C   0  0  0  0  0  0  0  0  0  0  0  0
   -6.3390   21.9040  -31.5750 C   0  0  0  0  0  0  0  0  0  0  0  0
   -1.1020   23.0480  -27.9740 C   0  0  0  0  0  0  0  0  0  0  0  0
   -0.3980   24.3470  -27.9260 C   0  0  0  0  0  0  0  0  0  0  0  0
    0.8030   24.5110  -28.2710 O   0  0  0  0  0  0  0  0  0  0  0  0
   -0.7100   27.0266  -26.2102 H   0  0  0  0  0  0  0  0  0  0  0  0
    0.1965   26.9195  -27.7572 H   0  0  0  0  0  0  0  0  0  0  0  0
   -1.5210   27.4458  -27.7572 H   0  0  0  0  0  0  0  0  0  0  0  0
   -2.6695   24.9268  -25.9917 H   0  0  0  0  0  0  0  0  0  0  0  0
   -3.3253   25.4846  -27.5366 H   0  0  0  0  0  0  0  0  0  0  0  0
   -2.9068   22.7449  -26.7853 H   0  0  0  0  0  0  0  0  0  0  0  0
   -4.1780   24.0220  -28.8570 H   0  0  0  0  0  0  0  0  0  0  0  0
   -3.5080   26.0460  -31.2250 H   0  0  0  0  0  0  0  0  0  0  0  0
   -8.0527   24.6549  -31.0218 H   0  0  0  0  0  0  0  0  0  0  0  0
   -9.6901   22.4657  -31.8636 H   0  0  0  0  0  0  0  0  0  0  0  0
   -9.6031   20.0365  -32.5181 H   0  0  0  0  0  0  0  0  0  0  0  0
   -8.3853   18.0977  -32.9903 H   0  0  0  0  0  0  0  0  0  0  0  0
   -6.6792   18.3099  -33.5166 H   0  0  0  0  0  0  0  0  0  0  0  0
   -5.2769   20.0502  -32.0045 H   0  0  0  0  0  0  0  0  0  0  0  0
   -0.6662   22.3358  -27.2579 H   0  0  0  0  0  0  0  0  0  0  0  0
   -1.0356   22.5559  -28.9556 H   0  0  0  0  0  0  0  0  0  0  0  0
  1  2  1  0
  2  3  1  0
  3  4  1  0
  4  5  1  0
  5  6  1  0
  6  7  2  0
  6  8  1  0
  8  9  2  0
  8 10  1  0
 10 11  1  0
 11 12  1  0
 12 13  1  0
 12 14  2  0
 11 15  2  0
 15 16  1  0
 16 17  2  0
 17 18  1  0
 18 19  2  0
 19 20  1  0
 20 21  1  0
 19 22  1  0
 22 23  2  0
  4 24  1  0
 24 25  1  0
 25 26  2  0
 25  2  1  0
 23 10  1  0
 23 16  1  0
  1 27  1  0
  1 28  1  0
  1 29  1  0
  3 30  1  0
  3 31  1  0
  4 32  1  1
  5 33  1  0
 13 34  1  0
 15 35  1  0
 17 36  1  0
 18 37  1  0
 20 38  1  0
 20 39  1  0
 22 40  1  0
 24 41  1  0
 24 42  1  0
M  CHG  1  13  -1
M  END
>  <UniqueID>  (98) 
96

>  <SMILES>  (98) 
CN1C[C@@H](NC(=O)C(=O)n2c(C([NH-])=O)cc3ccc(CF)cc32)CC1=O

>  <Energy>  (98) 
86.2558220865218

>  <Genealogy>  (98) 
CN1CC(NC(=O)C(=O)n2c(C([NH-])=O)cc3ccc(CF)cc32)CC1=O (protonated)
CN1C[C@@H](NC(=O)C(=O)n2c(C([NH-])=O)cc3ccc(CF)cc32)CC1=O (chirality)
CN1C[C@@H](NC(=O)C(=O)n2c(C([NH-])=O)cc3ccc(CF)cc32)CC1=O (3D coordinates assigned)
CN1C[C@@H](NC(=O)C(=O)n2c(C([NH-])=O)cc3ccc(CF)cc32)CC1=O (nonaromatic ring conformer: 86.2558220865218 kcal/mol)

>  <smiles>  (98) 
CN1CC(NC(=O)C(=O)n2c(C(N)=O)cc3ccc(CF)cc32)CC1=O

>  <score_type>  (98) 
oracle

>  <origin>  (98) 
adg

>  <m_score__min__energy>  (98) 
-11.18

>  <m_primary>  (98) 
energy

$$$$
98:0
     RDKit          3D

 49 51  0  0  0  0  0  0  0  0999 V2000
   -7.4990   18.2920  -32.3620 C   0  0  0  0  0  0  0  0  0  0  0  0
   -7.5430   19.7690  -32.1110 C   0  0  0  0  0  0  0  0  0  0  0  0
   -8.7680   20.4720  -32.2210 C   0  0  0  0  0  0  0  0  0  0  0  0
   -8.8270   21.8520  -31.9590 C   0  0  0  0  0  0  0  0  0  0  0  0
   -7.6530   22.4940  -31.5760 C   0  0  0  0  0  0  0  0  0  0  0  0
   -7.4210   23.8170  -31.2750 C   0  0  0  0  0  0  0  0  0  0  0  0
   -6.0660   23.8930  -30.9580 C   0  0  0  0  0  0  0  0  0  0  0  0
   -5.4040   25.1320  -30.5040 C   0  0  0  0  0  0  0  0  0  0  0  0
   -3.9850   25.2500  -30.5090 N   0  0  0  0  0  0  0  0  0  0  0  0
   -6.0990   26.0910  -30.0740 O   0  0  0  0  0  0  0  0  0  0  0  0
   -5.4830   22.6650  -31.0660 N   0  0  0  0  0  0  0  0  0  0  0  0
   -4.1000   22.3070  -30.9040 C   0  0  0  0  0  0  0  0  0  0  0  0
   -3.3810   22.1620  -31.9280 O   0  0  0  0  0  0  0  0  0  0  0  0
   -3.5000   22.2130  -29.5540 C   0  0  0  0  0  0  0  0  0  0  0  0
   -4.2670   22.2360  -28.5510 O   0  0  0  0  0  0  0  0  0  0  0  0
   -2.0530   22.1590  -29.3710 N   0  0  1  0  0  0  0  0  0  0  0  0
   -1.4500   23.4600  -29.7540 C   0  0  0  0  0  0  0  0  0  0  0  0
   -1.5500   24.4940  -28.6640 C   0  0  0  0  0  0  0  0  0  0  0  0
   -1.4130   25.7100  -28.9690 O   0  0  0  0  0  0  0  0  0  0  0  0
   -1.7280   24.1100  -27.2870 N   0  0  0  0  0  0  0  0  0  0  0  0
   -1.7320   25.1420  -26.2480 C   0  0  0  0  0  0  0  0  0  0  0  0
   -2.0870   22.7340  -26.9250 C   0  0  0  0  0  0  0  0  0  0  0  0
   -1.6390   21.7110  -28.0000 C   0  0  0  0  0  0  0  0  0  0  0  0
   -2.2480   20.3260  -27.6660 C   0  0  0  0  0  0  0  0  0  0  0  0
   -0.0950   21.5440  -27.9230 C   0  0  0  0  0  0  0  0  0  0  0  0
   -6.4670   21.8220  -31.4410 C   0  0  0  0  0  0  0  0  0  0  0  0
   -6.3750   20.4510  -31.7050 C   0  0  0  0  0  0  0  0  0  0  0  0
   -7.4831   17.7571  -31.4010 H   0  0  0  0  0  0  0  0  0  0  0  0
   -8.3886   17.9907  -32.9346 H   0  0  0  0  0  0  0  0  0  0  0  0
   -6.5931   18.0442  -32.9346 H   0  0  0  0  0  0  0  0  0  0  0  0
   -9.6812   19.9333  -32.5140 H   0  0  0  0  0  0  0  0  0  0  0  0
   -9.7719   22.4072  -32.0538 H   0  0  0  0  0  0  0  0  0  0  0  0
   -8.1507   24.6401  -31.2830 H   0  0  0  0  0  0  0  0  0  0  0  0
   -3.4770   25.6740  -29.7020 H   0  0  0  0  0  0  0  0  0  0  0  0
   -1.6730   21.4650  -30.0570 H   0  0  0  0  0  0  0  0  0  0  0  0
   -0.3875   23.2991  -29.9891 H   0  0  0  0  0  0  0  0  0  0  0  0
   -2.0077   23.8401  -30.6226 H   0  0  0  0  0  0  0  0  0  0  0  0
   -1.7301   24.6646  -25.2570 H   0  0  0  0  0  0  0  0  0  0  0  0
   -0.8363   25.7718  -26.3533 H   0  0  0  0  0  0  0  0  0  0  0  0
   -2.6326   25.7648  -26.3533 H   0  0  0  0  0  0  0  0  0  0  0  0
   -1.6022   22.4806  -25.9707 H   0  0  0  0  0  0  0  0  0  0  0  0
   -3.1827   22.6807  -26.8433 H   0  0  0  0  0  0  0  0  0  0  0  0
   -2.3021   20.2029  -26.5743 H   0  0  0  0  0  0  0  0  0  0  0  0
   -3.2593   20.2574  -28.0933 H   0  0  0  0  0  0  0  0  0  0  0  0
   -1.6149   19.5344  -28.0933 H   0  0  0  0  0  0  0  0  0  0  0  0
    0.2180   21.5101  -26.8690 H   0  0  0  0  0  0  0  0  0  0  0  0
    0.1980   20.6089  -28.4228 H   0  0  0  0  0  0  0  0  0  0  0  0
    0.3912   22.3948  -28.4228 H   0  0  0  0  0  0  0  0  0  0  0  0
   -5.4183   19.9186  -31.5991 H   0  0  0  0  0  0  0  0  0  0  0  0
  1  2  1  0
  2  3  2  0
  3  4  1  0
  4  5  2  0
  5  6  1  0
  6  7  2  0
  7  8  1  0
  8  9  1  0
  8 10  2  0
  7 11  1  0
 11 12  1  0
 12 13  2  0
 12 14  1  0
 14 15  2  0
 14 16  1  0
 16 17  1  0
 17 18  1  0
 18 19  2  0
 18 20  1  0
 20 21  1  0
 20 22  1  0
 22 23  1  0
 23 24  1  0
 23 25  1  0
 11 26  1  0
 26 27  2  0
 27  2  1  0
 26  5  1  0
 23 16  1  0
  1 28  1  0
  1 29  1  0
  1 30  1  0
  3 31  1  0
  4 32  1  0
  6 33  1  0
  9 34  1  0
 16 35  1  6
 17 36  1  0
 17 37  1  0
 21 38  1  0
 21 39  1  0
 21 40  1  0
 22 41  1  0
 22 42  1  0
 24 43  1  0
 24 44  1  0
 24 45  1  0
 25 46  1  0
 25 47  1  0
 25 48  1  0
 27 49  1  0
M  CHG  2   9  -1  16   1
M  END
>  <UniqueID>  (99) 
97

>  <SMILES>  (99) 
Cc1ccc2cc(C([NH-])=O)n(C(=O)C(=O)[N@H+]3CC(=O)N(C)CC3(C)C)c2c1

>  <Energy>  (99) 
98.1095797721081

>  <Genealogy>  (99) 
Cc1ccc2cc(C([NH-])=O)n(C(=O)C(=O)[NH+]3CC(=O)N(C)CC3(C)C)c2c1 (protonated)
Cc1ccc2cc(C([NH-])=O)n(C(=O)C(=O)[N@H+]3CC(=O)N(C)CC3(C)C)c2c1 (chirality)
Cc1ccc2cc(C([NH-])=O)n(C(=O)C(=O)[N@H+]3CC(=O)N(C)CC3(C)C)c2c1 (3D coordinates assigned)
Cc1ccc2cc(C([NH-])=O)n(C(=O)C(=O)[N@H+]3CC(=O)N(C)CC3(C)C)c2c1 (nonaromatic ring conformer: 98.1095797721081 kcal/mol)

>  <smiles>  (99) 
Cc1ccc2cc(C(N)=O)n(C(=O)C(=O)N3CC(=O)N(C)CC3(C)C)c2c1

>  <score_type>  (99) 
oracle

>  <origin>  (99) 
adg

>  <m_score__min__energy>  (99) 
-10.84

>  <m_primary>  (99) 
energy

$$$$
