0:0
     RDKit          3D

 53 56  0  0  0  0  0  0  0  0999 V2000
   -1.5130   25.5360  -28.3210 C   0  0  0  0  0  0  0  0  0  0  0  0
   -2.3480   24.3370  -28.5010 N   0  0  0  0  0  0  0  0  0  0  0  0
   -3.5460   24.4010  -27.6490 C   0  0  0  0  0  0  0  0  0  0  0  0
   -1.5840   23.0820  -28.3160 C   0  0  0  0  0  0  0  0  0  0  0  0
   -2.3830   21.8310  -28.6220 C   0  0  0  0  0  0  0  0  0  0  0  0
   -3.2670   21.6540  -29.6200 C   0  0  0  0  0  0  0  0  0  0  0  0
   -3.6230   22.6140  -30.6900 C   0  0  0  0  0  0  0  0  0  0  0  0
   -2.7390   23.2520  -31.3220 O   0  0  0  0  0  0  0  0  0  0  0  0
   -5.0030   22.7930  -31.0450 N   0  0  0  0  0  0  0  0  0  0  0  0
   -5.7620   23.9160  -30.9010 C   0  0  0  0  0  0  0  0  0  0  0  0
   -5.2770   25.2380  -30.4470 C   0  0  0  0  0  0  0  0  0  0  0  0
   -3.9650   25.6710  -30.7960 N   0  0  0  0  0  0  0  0  0  0  0  0
   -6.0030   25.9810  -29.7340 O   0  0  0  0  0  0  0  0  0  0  0  0
   -7.0740   23.6740  -31.3070 C   0  0  0  0  0  0  0  0  0  0  0  0
   -7.0930   22.3570  -31.7080 C   0  0  0  0  0  0  0  0  0  0  0  0
   -8.1430   21.5850  -32.1930 C   0  0  0  0  0  0  0  0  0  0  0  0
   -7.8840   20.2400  -32.5050 C   0  0  0  0  0  0  0  0  0  0  0  0
   -6.5870   19.6870  -32.3240 C   0  0  0  0  0  0  0  0  0  0  0  0
   -6.3450   18.2600  -32.6460 C   0  0  0  0  0  0  0  0  0  0  0  0
   -7.0640   17.4700  -33.5310 C   0  0  0  0  0  0  0  0  0  0  0  0
   -6.5130   16.2470  -33.5220 N   0  0  0  0  0  0  0  0  0  0  0  0
   -5.4680   16.3180  -32.6790 C   0  0  0  0  0  0  0  0  0  0  0  0
   -5.3410   17.5310  -32.1010 N   0  0  0  0  0  0  0  0  0  0  0  0
   -4.6070   15.1370  -32.3570 C   0  0  0  0  0  0  0  0  0  0  0  0
   -4.7310   14.0680  -33.4560 C   0  0  0  0  0  0  0  0  0  0  0  0
   -6.2020   13.8210  -33.8330 C   0  0  0  0  0  0  0  0  0  0  0  0
   -6.8590   15.1050  -34.3660 C   0  0  0  0  0  0  0  0  0  0  0  0
   -5.5470   20.5100  -31.8300 C   0  0  0  0  0  0  0  0  0  0  0  0
   -5.8330   21.8490  -31.5390 C   0  0  0  0  0  0  0  0  0  0  0  0
   -1.3775   25.7306  -27.2469 H   0  0  0  0  0  0  0  0  0  0  0  0
   -0.5318   25.3734  -28.7908 H   0  0  0  0  0  0  0  0  0  0  0  0
   -2.0058   26.3999  -28.7908 H   0  0  0  0  0  0  0  0  0  0  0  0
   -3.2449   24.3849  -26.5911 H   0  0  0  0  0  0  0  0  0  0  0  0
   -4.0964   25.3298  -27.8595 H   0  0  0  0  0  0  0  0  0  0  0  0
   -4.1923   23.5361  -27.8595 H   0  0  0  0  0  0  0  0  0  0  0  0
   -0.7091   23.1068  -28.9822 H   0  0  0  0  0  0  0  0  0  0  0  0
   -1.3019   23.0312  -27.2540 H   0  0  0  0  0  0  0  0  0  0  0  0
   -2.2220   20.9724  -27.9535 H   0  0  0  0  0  0  0  0  0  0  0  0
   -3.7855   20.6842  -29.6443 H   0  0  0  0  0  0  0  0  0  0  0  0
   -3.1210   25.1980  -30.4020 H   0  0  0  0  0  0  0  0  0  0  0  0
   -7.9143   24.3838  -31.3069 H   0  0  0  0  0  0  0  0  0  0  0  0
   -9.1465   22.0147  -32.3283 H   0  0  0  0  0  0  0  0  0  0  0  0
   -8.6949   19.6068  -32.8942 H   0  0  0  0  0  0  0  0  0  0  0  0
   -7.9290   17.7886  -34.1312 H   0  0  0  0  0  0  0  0  0  0  0  0
   -3.5586   15.4619  -32.2839 H   0  0  0  0  0  0  0  0  0  0  0  0
   -4.9363   14.7054  -31.4003 H   0  0  0  0  0  0  0  0  0  0  0  0
   -4.1845   14.4068  -34.3485 H   0  0  0  0  0  0  0  0  0  0  0  0
   -4.3080   13.1271  -33.0741 H   0  0  0  0  0  0  0  0  0  0  0  0
   -6.2482   13.0442  -34.6104 H   0  0  0  0  0  0  0  0  0  0  0  0
   -6.7446   13.4985  -32.9321 H   0  0  0  0  0  0  0  0  0  0  0  0
   -6.5068   15.2929  -35.3910 H   0  0  0  0  0  0  0  0  0  0  0  0
   -7.9513   14.9750  -34.3574 H   0  0  0  0  0  0  0  0  0  0  0  0
   -4.5353   20.1060  -31.6779 H   0  0  0  0  0  0  0  0  0  0  0  0
  1  2  1  0
  2  3  1  0
  2  4  1  0
  4  5  1  0
  5  6  2  3
  6  7  1  0
  7  8  2  0
  7  9  1  0
  9 10  1  0
 10 11  1  0
 11 12  1  0
 11 13  2  0
 10 14  2  0
 14 15  1  0
 15 16  2  0
 16 17  1  0
 17 18  2  0
 18 19  1  0
 19 20  2  0
 20 21  1  0
 21 22  1  0
 22 23  2  0
 22 24  1  0
 24 25  1  0
 25 26  1  0
 26 27  1  0
 18 28  1  0
 28 29  2  0
 29  9  1  0
 29 15  1  0
 23 19  1  0
 27 21  1  0
  1 30  1  0
  1 31  1  0
  1 32  1  0
  3 33  1  0
  3 34  1  0
  3 35  1  0
  4 36  1  0
  4 37  1  0
  5 38  1  0
  6 39  1  0
 12 40  1  0
 14 41  1  0
 16 42  1  0
 17 43  1  0
 20 44  1  0
 24 45  1  0
 24 46  1  0
 25 47  1  0
 25 48  1  0
 26 49  1  0
 26 50  1  0
 27 51  1  0
 27 52  1  0
 28 53  1  0
M  CHG  1  12  -1
M  END
>  <UniqueID>  (1) 
1

>  <SMILES>  (1) 
CN(C)CC=CC(=O)n1c(C([NH-])=O)cc2ccc(-c3cn4c(n3)CCCC4)cc21

>  <Energy>  (1) 
129.02731445522573

>  <Genealogy>  (1) 
CN(C)CC=CC(=O)n1c(C([NH-])=O)cc2ccc(-c3cn4c(n3)CCCC4)cc21 (protonated)
CN(C)CC=CC(=O)n1c(C([NH-])=O)cc2ccc(-c3cn4c(n3)CCCC4)cc21 (3D coordinates assigned)
CN(C)CC=CC(=O)n1c(C([NH-])=O)cc2ccc(-c3cn4c(n3)CCCC4)cc21 (nonaromatic ring conformer: 129.02731445522573 kcal/mol)

>  <smiles>  (1) 
CN(C)CC=CC(=O)n1c(C(N)=O)cc2ccc(-c3cn4c(n3)CCCC4)cc21

>  <score_type>  (1) 
oracle

>  <origin>  (1) 
adg

>  <m_score__min__energy>  (1) 
-11.550000000000001

>  <m_primary>  (1) 
energy

$$$$
1:0
     RDKit          3D

 66 68  0  0  0  0  0  0  0  0999 V2000
    0.2820   25.9510  -26.9870 C   0  0  0  0  0  0  0  0  0  0  0  0
   -1.0600   25.3290  -26.7930 C   0  0  0  0  0  0  0  0  0  0  0  0
   -2.1030   25.9480  -26.2910 O   0  0  0  0  0  0  0  0  0  0  0  0
   -3.0720   25.0620  -26.2700 C   0  0  0  0  0  0  0  0  0  0  0  0
   -4.2330   25.3050  -25.8500 O   0  0  0  0  0  0  0  0  0  0  0  0
   -2.6980   23.8940  -26.7400 O   0  0  0  0  0  0  0  0  0  0  0  0
   -1.4380   24.0300  -27.0840 C   0  0  0  0  0  0  0  0  0  0  0  0
   -0.5910   22.9420  -27.6690 C   0  0  0  0  0  0  0  0  0  0  0  0
   -1.1670   22.4780  -28.8890 O   0  0  0  0  0  0  0  0  0  0  0  0
   -2.5200   22.1530  -29.0240 C   0  0  0  0  0  0  0  0  0  0  0  0
   -3.1580   21.7160  -28.0270 O   0  0  0  0  0  0  0  0  0  0  0  0
   -3.1810   22.2850  -30.3000 N   0  0  0  0  0  0  0  0  0  0  0  0
   -4.0490   23.2710  -30.6680 C   0  0  0  0  0  0  0  0  0  0  0  0
   -4.3310   24.5040  -29.9070 C   0  0  0  0  0  0  0  0  0  0  0  0
   -4.5630   24.4610  -28.5000 N   0  0  0  0  0  0  0  0  0  0  0  0
   -4.3220   25.6140  -30.5010 O   0  0  0  0  0  0  0  0  0  0  0  0
   -4.6070   23.0070  -31.9120 C   0  0  0  0  0  0  0  0  0  0  0  0
   -4.0350   21.8270  -32.3200 C   0  0  0  0  0  0  0  0  0  0  0  0
   -4.2290   21.1130  -33.4980 C   0  0  0  0  0  0  0  0  0  0  0  0
   -3.5080   19.9240  -33.6720 C   0  0  0  0  0  0  0  0  0  0  0  0
   -2.6190   19.4660  -32.6710 C   0  0  0  0  0  0  0  0  0  0  0  0
   -1.8290   18.2040  -32.9000 C   0  0  0  0  0  0  0  0  0  0  0  0
   -2.3800   17.3920  -34.0860 C   0  0  0  0  0  0  0  0  0  0  0  0
   -3.4880   16.4190  -33.6770 C   0  0  0  0  0  0  0  0  0  0  0  0
   -4.3930   17.0840  -32.8280 O   0  0  0  0  0  0  0  0  0  0  0  0
   -5.8850   17.4010  -33.6560 Si  0  0  0  0  0  4  0  0  0  0  0  0
   -6.8610   15.8170  -33.8860 C   0  0  0  0  0  0  0  0  0  0  0  0
   -5.5510   18.1560  -35.3400 C   0  0  0  0  0  0  0  0  0  0  0  0
   -6.8520   18.6280  -32.5720 C   0  0  0  0  0  0  0  0  0  0  0  0
   -7.1690   19.8850  -33.3980 C   0  0  0  0  0  0  0  0  0  0  0  0
   -5.9780   19.0170  -31.3690 C   0  0  0  0  0  0  0  0  0  0  0  0
   -8.1630   17.9970  -32.0720 C   0  0  0  0  0  0  0  0  0  0  0  0
   -2.4500   20.2130  -31.4820 C   0  0  0  0  0  0  0  0  0  0  0  0
   -3.1760   21.4070  -31.3350 C   0  0  0  0  0  0  0  0  0  0  0  0
    0.7342   26.1606  -26.0064 H   0  0  0  0  0  0  0  0  0  0  0  0
    0.9284   25.2606  -27.5488 H   0  0  0  0  0  0  0  0  0  0  0  0
    0.1730   26.8904  -27.5488 H   0  0  0  0  0  0  0  0  0  0  0  0
    0.4178   23.3328  -27.8679 H   0  0  0  0  0  0  0  0  0  0  0  0
   -0.5334   22.1063  -26.9560 H   0  0  0  0  0  0  0  0  0  0  0  0
   -4.4510   23.5690  -27.9640 H   0  0  0  0  0  0  0  0  0  0  0  0
   -4.7720   25.3390  -27.9740 H   0  0  0  0  0  0  0  0  0  0  0  0
   -5.3480   23.6129  -32.4541 H   0  0  0  0  0  0  0  0  0  0  0  0
   -4.9270   21.4707  -34.2693 H   0  0  0  0  0  0  0  0  0  0  0  0
   -3.6345   19.3409  -34.5961 H   0  0  0  0  0  0  0  0  0  0  0  0
   -0.7824   18.4718  -33.1074 H   0  0  0  0  0  0  0  0  0  0  0  0
   -1.9064   17.5832  -31.9952 H   0  0  0  0  0  0  0  0  0  0  0  0
   -2.7847   18.0913  -34.8325 H   0  0  0  0  0  0  0  0  0  0  0  0
   -1.5498   16.7955  -34.4922 H   0  0  0  0  0  0  0  0  0  0  0  0
   -4.0167   16.0643  -34.5740 H   0  0  0  0  0  0  0  0  0  0  0  0
   -3.0502   15.5577  -33.1512 H   0  0  0  0  0  0  0  0  0  0  0  0
   -7.1186   15.3989  -32.9017 H   0  0  0  0  0  0  0  0  0  0  0  0
   -7.7832   16.0325  -34.4456 H   0  0  0  0  0  0  0  0  0  0  0  0
   -6.2539   15.0902  -34.4456 H   0  0  0  0  0  0  0  0  0  0  0  0
   -5.1090   19.1552  -35.2127 H   0  0  0  0  0  0  0  0  0  0  0  0
   -4.8527   17.5145  -35.8975 H   0  0  0  0  0  0  0  0  0  0  0  0
   -6.4954   18.2412  -35.8975 H   0  0  0  0  0  0  0  0  0  0  0  0
   -7.3809   20.7252  -32.7204 H   0  0  0  0  0  0  0  0  0  0  0  0
   -6.3056   20.1343  -34.0323 H   0  0  0  0  0  0  0  0  0  0  0  0
   -8.0474   19.6950  -34.0323 H   0  0  0  0  0  0  0  0  0  0  0  0
   -6.5111   18.7797  -30.4365 H   0  0  0  0  0  0  0  0  0  0  0  0
   -5.0335   18.4543  -31.4048 H   0  0  0  0  0  0  0  0  0  0  0  0
   -5.7639   20.0954  -31.4048 H   0  0  0  0  0  0  0  0  0  0  0  0
   -8.1717   17.9928  -30.9720 H   0  0  0  0  0  0  0  0  0  0  0  0
   -9.0168   18.5828  -32.4432 H   0  0  0  0  0  0  0  0  0  0  0  0
   -8.2378   16.9642  -32.4432 H   0  0  0  0  0  0  0  0  0  0  0  0
   -1.7670   19.8678  -30.6918 H   0  0  0  0  0  0  0  0  0  0  0  0
  1  2  1  0
  2  3  1  0
  3  4  1  0
  4  5  2  0
  4  6  1  0
  6  7  1  0
  7  8  1  0
  8  9  1  0
  9 10  1  0
 10 11  2  0
 10 12  1  0
 12 13  1  0
 13 14  1  0
 14 15  1  0
 14 16  2  0
 13 17  2  0
 17 18  1  0
 18 19  2  0
 19 20  1  0
 20 21  2  0
 21 22  1  0
 22 23  1  0
 23 24  1  0
 24 25  1  0
 25 26  1  0
 26 27  1  0
 26 28  1  0
 26 29  1  0
 29 30  1  0
 29 31  1  0
 29 32  1  0
 21 33  1  0
 33 34  2  0
  7  2  2  0
 34 12  1  0
 34 18  1  0
  1 35  1  0
  1 36  1  0
  1 37  1  0
  8 38  1  0
  8 39  1  0
 15 40  1  0
 15 41  1  0
 17 42  1  0
 19 43  1  0
 20 44  1  0
 22 45  1  0
 22 46  1  0
 23 47  1  0
 23 48  1  0
 24 49  1  0
 24 50  1  0
 27 51  1  0
 27 52  1  0
 27 53  1  0
 28 54  1  0
 28 55  1  0
 28 56  1  0
 30 57  1  0
 30 58  1  0
 30 59  1  0
 31 60  1  0
 31 61  1  0
 31 62  1  0
 32 63  1  0
 32 64  1  0
 32 65  1  0
 33 66  1  0
M  END
>  <UniqueID>  (2) 
2

>  <SMILES>  (2) 
Cc1oc(=O)oc1COC(=O)n1c(C(N)=O)cc2ccc(CCCO[Si](C)(C)C(C)(C)C)cc21

>  <Energy>  (2) 
111.128270912241

>  <Genealogy>  (2) 
Cc1oc(=O)oc1COC(=O)n1c(C(N)=O)cc2ccc(CCCO[Si](C)(C)C(C)(C)C)cc21 (3D coordinates assigned)
Cc1oc(=O)oc1COC(=O)n1c(C(N)=O)cc2ccc(CCCO[Si](C)(C)C(C)(C)C)cc21 (optimized conformer: 111.128270912241 kcal/mol)

>  <smiles>  (2) 
Cc1oc(=O)oc1COC(=O)n1c(C(N)=O)cc2ccc(CCCO[Si](C)(C)C(C)(C)C)cc21

>  <score_type>  (2) 
oracle

>  <origin>  (2) 
adg

>  <m_score__min__energy>  (2) 
-10.31

>  <m_primary>  (2) 
energy

$$$$
2:0
     RDKit          3D

 36 37  0  0  0  0  0  0  0  0999 V2000
   -2.1060   18.8770  -33.8510 C   0  0  0  0  0  0  0  0  0  0  0  0
   -3.5020   18.7480  -33.4500 N   0  0  0  0  0  0  0  0  0  0  0  0
   -4.3540   19.8910  -33.3030 C   0  0  0  0  0  0  0  0  0  0  0  0
   -3.8910   21.0520  -33.4650 O   0  0  0  0  0  0  0  0  0  0  0  0
   -5.7420   19.7160  -32.9800 N   0  0  0  0  0  0  0  0  0  0  0  0
   -6.4890   18.5820  -33.0880 C   0  0  0  0  0  0  0  0  0  0  0  0
   -6.0500   17.3070  -33.6950 C   0  0  0  0  0  0  0  0  0  0  0  0
   -5.4000   16.3070  -32.9150 N   0  0  0  0  0  0  0  0  0  0  0  0
   -6.2180   17.1140  -34.9290 O   0  0  0  0  0  0  0  0  0  0  0  0
   -7.7770   18.7990  -32.6010 C   0  0  0  0  0  0  0  0  0  0  0  0
   -7.7960   20.1120  -32.1900 C   0  0  0  0  0  0  0  0  0  0  0  0
   -8.8210   20.8580  -31.6140 C   0  0  0  0  0  0  0  0  0  0  0  0
   -8.5490   22.1900  -31.2630 C   0  0  0  0  0  0  0  0  0  0  0  0
   -7.2620   22.7450  -31.4760 C   0  0  0  0  0  0  0  0  0  0  0  0
   -6.9840   24.1820  -31.1140 C   0  0  0  0  0  0  0  0  0  0  0  0
   -5.8770   24.2990  -30.0520 C   0  0  2  0  0  0  0  0  0  0  0  0
   -6.1470   25.4410  -29.1770 N   0  0  0  0  0  0  0  0  0  0  0  0
   -4.5180   24.4330  -30.6910 C   0  0  0  0  0  0  0  0  0  0  0  0
   -3.9680   23.4320  -31.2240 O   0  0  0  0  0  0  0  0  0  0  0  0
   -3.8660   25.6600  -30.7070 O   0  0  0  0  0  0  0  0  0  0  0  0
   -6.2470   21.9590  -32.0650 C   0  0  0  0  0  0  0  0  0  0  0  0
   -6.5540   20.6430  -32.4260 C   0  0  0  0  0  0  0  0  0  0  0  0
   -1.4710   18.9357  -32.9547 H   0  0  0  0  0  0  0  0  0  0  0  0
   -1.8143   18.0020  -34.4504 H   0  0  0  0  0  0  0  0  0  0  0  0
   -1.9796   19.7907  -34.4504 H   0  0  0  0  0  0  0  0  0  0  0  0
   -3.8830   17.7960  -33.2480 H   0  0  0  0  0  0  0  0  0  0  0  0
   -4.5710   15.7910  -33.2860 H   0  0  0  0  0  0  0  0  0  0  0  0
   -8.6031   18.0742  -32.5550 H   0  0  0  0  0  0  0  0  0  0  0  0
   -9.8136   20.4172  -31.4393 H   0  0  0  0  0  0  0  0  0  0  0  0
   -9.3423   22.8089  -30.8184 H   0  0  0  0  0  0  0  0  0  0  0  0
   -6.6684   24.7225  -32.0185 H   0  0  0  0  0  0  0  0  0  0  0  0
   -7.9055   24.6143  -30.6969 H   0  0  0  0  0  0  0  0  0  0  0  0
   -5.8740   23.3772  -29.4518 H   0  0  0  0  0  0  0  0  0  0  0  0
   -6.2840   25.0900  -28.2010 H   0  0  0  0  0  0  0  0  0  0  0  0
   -5.3190   26.0800  -29.1660 H   0  0  0  0  0  0  0  0  0  0  0  0
   -5.2414   22.3710  -32.2354 H   0  0  0  0  0  0  0  0  0  0  0  0
  1  2  1  0
  2  3  1  0
  3  4  2  0
  3  5  1  0
  5  6  1  0
  6  7  1  0
  7  8  1  0
  7  9  2  0
  6 10  2  0
 10 11  1  0
 11 12  2  0
 12 13  1  0
 13 14  2  0
 14 15  1  0
 15 16  1  0
 16 17  1  0
 16 18  1  0
 18 19  2  0
 18 20  1  0
 14 21  1  0
 21 22  2  0
 22  5  1  0
 22 11  1  0
  1 23  1  0
  1 24  1  0
  1 25  1  0
  2 26  1  0
  8 27  1  0
 10 28  1  0
 12 29  1  0
 13 30  1  0
 15 31  1  0
 15 32  1  0
 16 33  1  1
 17 34  1  0
 17 35  1  0
 21 36  1  0
M  CHG  2   8  -1  20  -1
M  END
>  <UniqueID>  (3) 
3

>  <SMILES>  (3) 
CNC(=O)n1c(C([NH-])=O)cc2ccc(C[C@H](N)C(=O)[O-])cc21

>  <Energy>  (3) 
69.67818388947856

>  <Genealogy>  (3) 
CNC(=O)n1c(C([NH-])=O)cc2ccc(C[C@H](N)C(=O)[O-])cc21 (protonated)
CNC(=O)n1c(C([NH-])=O)cc2ccc(C[C@H](N)C(=O)[O-])cc21 (3D coordinates assigned)
CNC(=O)n1c(C([NH-])=O)cc2ccc(C[C@H](N)C(=O)[O-])cc21 (optimized conformer: 69.67818388947856 kcal/mol)

>  <smiles>  (3) 
CNC(=O)n1c(C(N)=O)cc2ccc(C[C@H](N)C(=O)O)cc21

>  <score_type>  (3) 
oracle

>  <origin>  (3) 
adg

>  <m_score__min__energy>  (3) 
-10.44

>  <m_primary>  (3) 
energy

$$$$
3:0
     RDKit          3D

 32 34  0  0  0  0  0  0  0  0999 V2000
   -3.6330   16.3960  -35.3390 C   0  0  0  0  0  0  0  0  0  0  0  0
   -3.6520   17.6160  -34.5450 N   0  0  0  0  0  0  0  0  0  0  0  0
   -4.7520   18.2760  -34.1430 C   0  0  0  0  0  0  0  0  0  0  0  0
   -4.3500   19.4230  -33.4810 C   0  0  0  0  0  0  0  0  0  0  0  0
   -5.2110   20.4630  -32.8600 C   0  0  0  0  0  0  0  0  0  0  0  0
   -6.6260   20.3580  -32.9240 C   0  0  0  0  0  0  0  0  0  0  0  0
   -7.4480   21.3280  -32.3300 C   0  0  0  0  0  0  0  0  0  0  0  0
   -6.8370   22.3990  -31.6890 C   0  0  0  0  0  0  0  0  0  0  0  0
   -7.3950   23.4540  -31.0060 C   0  0  0  0  0  0  0  0  0  0  0  0
   -6.3190   24.2140  -30.5600 C   0  0  0  0  0  0  0  0  0  0  0  0
   -6.4720   25.4850  -29.8230 C   0  0  0  0  0  0  0  0  0  0  0  0
   -5.6340   26.6080  -30.1020 N   0  0  0  0  0  0  0  0  0  0  0  0
   -7.3950   25.5990  -28.9730 O   0  0  0  0  0  0  0  0  0  0  0  0
   -5.1390   23.6470  -30.9380 N   0  0  0  0  0  0  0  0  0  0  0  0
   -3.8120   24.0660  -30.5740 C   0  0  0  0  0  0  0  0  0  0  0  0
   -3.5140   25.2890  -30.5570 O   0  0  0  0  0  0  0  0  0  0  0  0
   -2.8430   23.1280  -30.2370 O   0  0  0  0  0  0  0  0  0  0  0  0
   -5.4740   22.5350  -31.6330 C   0  0  0  0  0  0  0  0  0  0  0  0
   -4.6290   21.5700  -32.1950 C   0  0  0  0  0  0  0  0  0  0  0  0
   -2.9630   19.3910  -33.5370 C   0  0  0  0  0  0  0  0  0  0  0  0
   -2.5650   18.2860  -34.1960 N   0  0  0  0  0  0  0  0  0  0  0  0
   -3.6194   15.5231  -34.6697 H   0  0  0  0  0  0  0  0  0  0  0  0
   -4.5307   16.3575  -35.9736 H   0  0  0  0  0  0  0  0  0  0  0  0
   -2.7346   16.3855  -35.9736 H   0  0  0  0  0  0  0  0  0  0  0  0
   -5.7919   17.9592  -34.3112 H   0  0  0  0  0  0  0  0  0  0  0  0
   -7.0837   19.5049  -33.4462 H   0  0  0  0  0  0  0  0  0  0  0  0
   -8.5440   21.2431  -32.3706 H   0  0  0  0  0  0  0  0  0  0  0  0
   -8.4648   23.6542  -30.8464 H   0  0  0  0  0  0  0  0  0  0  0  0
   -4.9790   26.6020  -30.9140 H   0  0  0  0  0  0  0  0  0  0  0  0
   -5.7320   27.4840  -29.5450 H   0  0  0  0  0  0  0  0  0  0  0  0
   -3.5360   21.6696  -32.1215 H   0  0  0  0  0  0  0  0  0  0  0  0
   -2.2927   20.1510  -33.1091 H   0  0  0  0  0  0  0  0  0  0  0  0
  1  2  1  0
  2  3  1  0
  3  4  2  0
  4  5  1  0
  5  6  2  0
  6  7  1  0
  7  8  2  0
  8  9  1  0
  9 10  2  0
 10 11  1  0
 11 12  1  0
 11 13  2  0
 10 14  1  0
 14 15  1  0
 15 16  2  0
 15 17  1  0
 14 18  1  0
 18 19  2  0
  4 20  1  0
 20 21  2  0
 21  2  1  0
 19  5  1  0
 18  8  1  0
  1 22  1  0
  1 23  1  0
  1 24  1  0
  3 25  1  0
  6 26  1  0
  7 27  1  0
  9 28  1  0
 12 29  1  0
 12 30  1  0
 19 31  1  0
 20 32  1  0
M  CHG  1  17  -1
M  END
>  <UniqueID>  (4) 
4

>  <SMILES>  (4) 
Cn1cc(-c2ccc3cc(C(N)=O)n(C(=O)[O-])c3c2)cn1

>  <Energy>  (4) 
105.68752917054914

>  <Genealogy>  (4) 
Cn1cc(-c2ccc3cc(C(N)=O)n(C(=O)[O-])c3c2)cn1 (protonated)
Cn1cc(-c2ccc3cc(C(N)=O)n(C(=O)[O-])c3c2)cn1 (3D coordinates assigned)
Cn1cc(-c2ccc3cc(C(N)=O)n(C(=O)[O-])c3c2)cn1 (optimized conformer: 105.68752917054914 kcal/mol)

>  <smiles>  (4) 
Cn1cc(-c2ccc3cc(C(N)=O)n(C(=O)O)c3c2)cn1

>  <score_type>  (4) 
oracle

>  <origin>  (4) 
adg

>  <m_score__min__energy>  (4) 
-9.1099999999999994

>  <m_primary>  (4) 
energy

$$$$
4:0
     RDKit          3D

 46 47  0  0  0  0  0  0  0  0999 V2000
   -9.2600   21.8430  -31.8770 C   0  0  0  0  0  0  0  0  0  0  0  0
   -8.3070   23.0300  -31.9670 C   0  0  0  0  0  0  0  0  0  0  0  0
   -7.2130   22.9190  -30.9470 C   0  0  0  0  0  0  0  0  0  0  0  0
   -7.4810   23.0740  -29.7240 O   0  0  0  0  0  0  0  0  0  0  0  0
   -5.8590   22.6610  -31.3500 N   0  0  0  0  0  0  0  0  0  0  0  0
   -4.7480   23.3830  -31.0300 C   0  0  0  0  0  0  0  0  0  0  0  0
   -4.7460   24.6500  -30.2620 C   0  0  0  0  0  0  0  0  0  0  0  0
   -5.3530   24.7260  -28.9700 N   0  0  0  0  0  0  0  0  0  0  0  0
   -4.1920   25.6770  -30.7380 O   0  0  0  0  0  0  0  0  0  0  0  0
   -3.6120   22.7980  -31.5890 C   0  0  0  0  0  0  0  0  0  0  0  0
   -4.0660   21.6820  -32.2560 C   0  0  0  0  0  0  0  0  0  0  0  0
   -3.3650   20.7310  -32.9930 C   0  0  0  0  0  0  0  0  0  0  0  0
   -4.0940   19.6730  -33.5640 C   0  0  0  0  0  0  0  0  0  0  0  0
   -5.4960   19.5750  -33.3720 C   0  0  0  0  0  0  0  0  0  0  0  0
   -6.2720   18.4580  -34.0100 C   0  0  0  0  0  0  0  0  0  0  0  0
   -7.3030   17.9490  -33.0560 C   0  0  0  0  0  0  0  0  0  0  0  0
   -8.4200   18.5290  -32.9750 O   0  0  0  0  0  0  0  0  0  0  0  0
   -6.9930   16.8660  -32.2250 O   0  0  0  0  0  0  0  0  0  0  0  0
   -5.6710   16.5600  -31.7780 C   0  0  0  0  0  0  0  0  0  0  0  0
   -4.9740   15.5870  -32.7480 C   0  0  0  0  0  0  0  0  0  0  0  0
   -4.5720   14.3060  -32.0040 C   0  0  0  0  0  0  0  0  0  0  0  0
   -3.7330   16.2250  -33.3900 C   0  0  0  0  0  0  0  0  0  0  0  0
   -5.8650   15.2450  -33.7520 F   0  0  0  0  0  0  0  0  0  0  0  0
   -6.1710   20.5630  -32.6210 C   0  0  0  0  0  0  0  0  0  0  0  0
   -5.4250   21.6200  -32.0910 C   0  0  0  0  0  0  0  0  0  0  0  0
   -9.4508   21.6053  -30.8201 H   0  0  0  0  0  0  0  0  0  0  0  0
  -10.2087   22.0960  -32.3730 H   0  0  0  0  0  0  0  0  0  0  0  0
   -8.8080   20.9714  -32.3730 H   0  0  0  0  0  0  0  0  0  0  0  0
   -7.8605   23.0575  -32.9719 H   0  0  0  0  0  0  0  0  0  0  0  0
   -8.8754   23.9515  -31.7727 H   0  0  0  0  0  0  0  0  0  0  0  0
   -5.8780   23.9200  -28.5650 H   0  0  0  0  0  0  0  0  0  0  0  0
   -5.3180   25.6180  -28.4290 H   0  0  0  0  0  0  0  0  0  0  0  0
   -2.5736   23.1528  -31.5132 H   0  0  0  0  0  0  0  0  0  0  0  0
   -2.2754   20.8051  -33.1243 H   0  0  0  0  0  0  0  0  0  0  0  0
   -3.5721   18.9140  -34.1653 H   0  0  0  0  0  0  0  0  0  0  0  0
   -6.7675   18.8301  -34.9189 H   0  0  0  0  0  0  0  0  0  0  0  0
   -5.5838   17.6406  -34.2714 H   0  0  0  0  0  0  0  0  0  0  0  0
   -5.0865   17.4900  -31.7189 H   0  0  0  0  0  0  0  0  0  0  0  0
   -5.7360   16.0835  -30.7887 H   0  0  0  0  0  0  0  0  0  0  0  0
   -4.6265   14.4796  -30.9192 H   0  0  0  0  0  0  0  0  0  0  0  0
   -5.2577   13.4913  -32.2798 H   0  0  0  0  0  0  0  0  0  0  0  0
   -3.5438   14.0291  -32.2798 H   0  0  0  0  0  0  0  0  0  0  0  0
   -3.0512   16.5755  -32.6011 H   0  0  0  0  0  0  0  0  0  0  0  0
   -3.2189   15.4794  -34.0143 H   0  0  0  0  0  0  0  0  0  0  0  0
   -4.0402   17.0770  -34.0143 H   0  0  0  0  0  0  0  0  0  0  0  0
   -7.2570   20.5021  -32.4572 H   0  0  0  0  0  0  0  0  0  0  0  0
  1  2  1  0
  2  3  1  0
  3  4  2  0
  3  5  1  0
  5  6  1  0
  6  7  1  0
  7  8  1  0
  7  9  2  0
  6 10  2  0
 10 11  1  0
 11 12  2  0
 12 13  1  0
 13 14  2  0
 14 15  1  0
 15 16  1  0
 16 17  2  0
 16 18  1  0
 18 19  1  0
 19 20  1  0
 20 21  1  0
 20 22  1  0
 20 23  1  0
 14 24  1  0
 24 25  2  0
 25  5  1  0
 25 11  1  0
  1 26  1  0
  1 27  1  0
  1 28  1  0
  2 29  1  0
  2 30  1  0
  8 31  1  0
  8 32  1  0
 10 33  1  0
 12 34  1  0
 13 35  1  0
 15 36  1  0
 15 37  1  0
 19 38  1  0
 19 39  1  0
 21 40  1  0
 21 41  1  0
 21 42  1  0
 22 43  1  0
 22 44  1  0
 22 45  1  0
 24 46  1  0
M  END
>  <UniqueID>  (5) 
5

>  <SMILES>  (5) 
CCC(=O)n1c(C(N)=O)cc2ccc(CC(=O)OCC(C)(C)F)cc21

>  <Energy>  (5) 
71.61674997866993

>  <Genealogy>  (5) 
CCC(=O)n1c(C(N)=O)cc2ccc(CC(=O)OCC(C)(C)F)cc21 (3D coordinates assigned)
CCC(=O)n1c(C(N)=O)cc2ccc(CC(=O)OCC(C)(C)F)cc21 (optimized conformer: 71.61674997866993 kcal/mol)

>  <smiles>  (5) 
CCC(=O)n1c(C(N)=O)cc2ccc(CC(=O)OCC(C)(C)F)cc21

>  <score_type>  (5) 
oracle

>  <origin>  (5) 
adg

>  <m_score__min__energy>  (5) 
-8.6799999999999997

>  <m_primary>  (5) 
energy

$$$$
5:0
     RDKit          3D

 36 38  0  0  0  0  0  0  0  0999 V2000
   -2.1900   25.1980  -28.5450 N   0  0  0  0  0  0  0  0  0  0  0  0
   -1.3990   24.1870  -29.1710 C   0  0  0  0  0  0  0  0  0  0  0  0
   -0.1500   24.1930  -29.0110 O   0  0  0  0  0  0  0  0  0  0  0  0
   -2.0120   23.1780  -30.0570 C   0  0  0  0  0  0  0  0  0  0  0  0
   -1.3920   21.9770  -30.3920 C   0  0  0  0  0  0  0  0  0  0  0  0
   -2.2470   21.3620  -31.2750 C   0  0  0  0  0  0  0  0  0  0  0  0
   -2.1400   20.1280  -31.9090 C   0  0  0  0  0  0  0  0  0  0  0  0
   -3.1950   19.7210  -32.7410 C   0  0  0  0  0  0  0  0  0  0  0  0
   -4.3290   20.5490  -32.9340 C   0  0  0  0  0  0  0  0  0  0  0  0
   -5.4720   20.0860  -33.8150 C   0  0  0  0  0  0  0  0  0  0  0  0
   -6.6470   19.3770  -33.0900 C   0  0  0  0  0  0  0  0  0  0  0  0
   -7.8490   20.0760  -33.3370 O   0  0  0  0  0  0  0  0  0  0  0  0
   -6.7870   17.8690  -33.3550 C   0  0  0  0  0  0  0  0  0  0  0  0
   -6.5640   17.5950  -31.8710 C   0  0  0  0  0  0  0  0  0  0  0  0
   -6.4390   19.0890  -31.5940 C   0  0  0  0  0  0  0  0  0  0  0  0
   -4.4150   21.7820  -32.2470 C   0  0  0  0  0  0  0  0  0  0  0  0
   -3.3380   22.1750  -31.4420 C   0  0  0  0  0  0  0  0  0  0  0  0
   -3.2110   23.2960  -30.6950 N   0  0  0  0  0  0  0  0  0  0  0  0
   -4.1920   24.3310  -30.5170 C   0  0  0  0  0  0  0  0  0  0  0  0
   -5.3430   24.0530  -30.0880 O   0  0  0  0  0  0  0  0  0  0  0  0
   -3.8800   25.6530  -30.8100 O   0  0  0  0  0  0  0  0  0  0  0  0
   -1.7460   25.8820  -27.8940 H   0  0  0  0  0  0  0  0  0  0  0  0
   -3.1980   25.3220  -28.7880 H   0  0  0  0  0  0  0  0  0  0  0  0
   -0.4246   21.6009  -30.0277 H   0  0  0  0  0  0  0  0  0  0  0  0
   -1.2555   19.4906  -31.7627 H   0  0  0  0  0  0  0  0  0  0  0  0
   -3.1408   18.7471  -33.2496 H   0  0  0  0  0  0  0  0  0  0  0  0
   -5.8783   20.9688  -34.3304 H   0  0  0  0  0  0  0  0  0  0  0  0
   -5.0401   19.3305  -34.4878 H   0  0  0  0  0  0  0  0  0  0  0  0
   -8.2360   19.7630  -34.1960 H   0  0  0  0  0  0  0  0  0  0  0  0
   -7.7781   17.5670  -33.7246 H   0  0  0  0  0  0  0  0  0  0  0  0
   -6.1638   17.3745  -34.1147 H   0  0  0  0  0  0  0  0  0  0  0  0
   -7.4206   17.1187  -31.3715 H   0  0  0  0  0  0  0  0  0  0  0  0
   -5.7666   16.9076  -31.5521 H   0  0  0  0  0  0  0  0  0  0  0  0
   -7.2285   19.4938  -30.9437 H   0  0  0  0  0  0  0  0  0  0  0  0
   -5.5610   19.4878  -31.0648 H   0  0  0  0  0  0  0  0  0  0  0  0
   -5.3073   22.4181  -32.3425 H   0  0  0  0  0  0  0  0  0  0  0  0
  1  2  1  0
  2  3  2  0
  2  4  1  0
  4  5  2  0
  5  6  1  0
  6  7  2  0
  7  8  1  0
  8  9  2  0
  9 10  1  0
 10 11  1  0
 11 12  1  0
 11 13  1  0
 13 14  1  0
 14 15  1  0
  9 16  1  0
 16 17  2  0
 17 18  1  0
 18 19  1  0
 19 20  2  0
 19 21  1  0
 18  4  1  0
 17  6  1  0
 15 11  1  0
  1 22  1  0
  1 23  1  0
  5 24  1  0
  7 25  1  0
  8 26  1  0
 10 27  1  0
 10 28  1  0
 12 29  1  0
 13 30  1  0
 13 31  1  0
 14 32  1  0
 14 33  1  0
 15 34  1  0
 15 35  1  0
 16 36  1  0
M  CHG  1  21  -1
M  END
>  <UniqueID>  (6) 
6

>  <SMILES>  (6) 
NC(=O)c1cc2ccc(CC3(O)CCC3)cc2n1C(=O)[O-]

>  <Energy>  (6) 
141.3661555299173

>  <Genealogy>  (6) 
NC(=O)c1cc2ccc(CC3(O)CCC3)cc2n1C(=O)[O-] (protonated)
NC(=O)c1cc2ccc(CC3(O)CCC3)cc2n1C(=O)[O-] (3D coordinates assigned)
NC(=O)c1cc2ccc(CC3(O)CCC3)cc2n1C(=O)[O-] (nonaromatic ring conformer: 141.3661555299173 kcal/mol)

>  <smiles>  (6) 
NC(=O)c1cc2ccc(CC3(O)CCC3)cc2n1C(=O)O

>  <score_type>  (6) 
oracle

>  <origin>  (6) 
adg

>  <m_score__min__energy>  (6) 
-9.5399999999999991

>  <m_primary>  (6) 
energy

$$$$
6:0
     RDKit          3D

 55 58  0  0  0  0  0  0  0  0999 V2000
   -1.5610   25.7420  -28.7380 N   0  0  0  0  0  0  0  0  0  0  0  0
   -1.6360   24.3540  -28.4060 C   0  0  0  0  0  0  0  0  0  0  0  0
   -1.7810   24.0170  -27.2040 O   0  0  0  0  0  0  0  0  0  0  0  0
   -1.6070   23.3140  -29.4560 C   0  0  0  0  0  0  0  0  0  0  0  0
   -0.6450   22.3090  -29.5140 C   0  0  0  0  0  0  0  0  0  0  0  0
   -1.0170   21.5110  -30.5710 C   0  0  0  0  0  0  0  0  0  0  0  0
   -0.4130   20.3670  -31.0820 C   0  0  0  0  0  0  0  0  0  0  0  0
   -1.0060   19.7500  -32.1990 C   0  0  0  0  0  0  0  0  0  0  0  0
   -2.1760   20.2910  -32.7930 C   0  0  0  0  0  0  0  0  0  0  0  0
   -2.8010   19.5950  -33.9930 C   0  0  1  0  0  0  0  0  0  0  0  0
   -2.1360   18.2170  -34.2730 C   0  0  0  0  0  0  0  0  0  0  0  0
   -2.9570   17.0330  -33.7370 C   0  0  0  0  0  0  0  0  0  0  0  0
   -4.4150   17.0070  -34.2720 C   0  0  1  0  0  0  0  0  0  0  0  0
   -5.2890   16.4900  -33.2200 N   0  0  0  0  0  0  0  0  0  0  0  0
   -6.7170   16.4330  -33.3200 C   0  0  0  0  0  0  0  0  0  0  0  0
   -7.2400   15.5970  -34.0980 O   0  0  0  0  0  0  0  0  0  0  0  0
   -7.5160   17.2550  -32.5170 O   0  0  0  0  0  0  0  0  0  0  0  0
   -7.0030   18.0920  -31.4800 C   0  0  0  0  0  0  0  0  0  0  0  0
   -7.5480   19.4890  -31.6320 C   0  0  0  0  0  0  0  0  0  0  0  0
   -8.9240   19.6970  -31.8200 C   0  0  0  0  0  0  0  0  0  0  0  0
   -9.4200   20.9950  -31.9870 C   0  0  0  0  0  0  0  0  0  0  0  0
   -8.5480   22.0890  -31.9680 C   0  0  0  0  0  0  0  0  0  0  0  0
   -7.1770   21.8880  -31.7920 C   0  0  0  0  0  0  0  0  0  0  0  0
   -6.6750   20.5920  -31.6330 C   0  0  0  0  0  0  0  0  0  0  0  0
   -4.9070   18.3950  -34.7490 C   0  0  0  0  0  0  0  0  0  0  0  0
   -4.3460   19.5160  -33.8720 C   0  0  0  0  0  0  0  0  0  0  0  0
   -2.7580   21.4580  -32.2400 C   0  0  0  0  0  0  0  0  0  0  0  0
   -2.1580   22.0410  -31.1170 C   0  0  0  0  0  0  0  0  0  0  0  0
   -2.5280   23.1580  -30.4510 N   0  0  0  0  0  0  0  0  0  0  0  0
   -3.5720   24.0780  -30.8190 C   0  0  0  0  0  0  0  0  0  0  0  0
   -3.4930   25.2970  -30.5150 O   0  0  0  0  0  0  0  0  0  0  0  0
   -4.6900   23.6260  -31.5150 O   0  0  0  0  0  0  0  0  0  0  0  0
   -1.6260   26.0610  -29.7300 H   0  0  0  0  0  0  0  0  0  0  0  0
   -1.4420   26.4580  -27.9840 H   0  0  0  0  0  0  0  0  0  0  0  0
    0.2265   22.1806  -28.8552 H   0  0  0  0  0  0  0  0  0  0  0  0
    0.5006   19.9570  -30.6267 H   0  0  0  0  0  0  0  0  0  0  0  0
   -0.5571   18.8369  -32.6171 H   0  0  0  0  0  0  0  0  0  0  0  0
   -2.5979   20.2138  -34.8794 H   0  0  0  0  0  0  0  0  0  0  0  0
   -1.1458   18.2021  -33.7942 H   0  0  0  0  0  0  0  0  0  0  0  0
   -2.0665   18.1013  -35.3647 H   0  0  0  0  0  0  0  0  0  0  0  0
   -2.9885   17.0979  -32.6394 H   0  0  0  0  0  0  0  0  0  0  0  0
   -2.4656   16.1115  -34.0826 H   0  0  0  0  0  0  0  0  0  0  0  0
   -4.4420   16.3525  -35.1557 H   0  0  0  0  0  0  0  0  0  0  0  0
   -7.3038   17.6874  -30.5023 H   0  0  0  0  0  0  0  0  0  0  0  0
   -5.9055   18.1219  -31.5481 H   0  0  0  0  0  0  0  0  0  0  0  0
   -9.6124   18.8392  -31.8360 H   0  0  0  0  0  0  0  0  0  0  0  0
  -10.4983   21.1555  -32.1336 H   0  0  0  0  0  0  0  0  0  0  0  0
   -8.9425   23.1083  -32.0918 H   0  0  0  0  0  0  0  0  0  0  0  0
   -6.4921   22.7487  -31.7784 H   0  0  0  0  0  0  0  0  0  0  0  0
   -5.5935   20.4348  -31.5083 H   0  0  0  0  0  0  0  0  0  0  0  0
   -6.0058   18.4206  -34.7036 H   0  0  0  0  0  0  0  0  0  0  0  0
   -4.5559   18.5521  -35.7795 H   0  0  0  0  0  0  0  0  0  0  0  0
   -4.6154   19.3216  -32.8234 H   0  0  0  0  0  0  0  0  0  0  0  0
   -4.7736   20.4720  -34.2084 H   0  0  0  0  0  0  0  0  0  0  0  0
   -3.6634   21.8976  -32.6839 H   0  0  0  0  0  0  0  0  0  0  0  0
  1  2  1  0
  2  3  2  0
  2  4  1  0
  4  5  2  0
  5  6  1  0
  6  7  2  0
  7  8  1  0
  8  9  2  0
  9 10  1  0
 10 11  1  0
 11 12  1  0
 12 13  1  0
 13 14  1  0
 14 15  1  0
 15 16  2  0
 15 17  1  0
 17 18  1  0
 18 19  1  0
 19 20  2  0
 20 21  1  0
 21 22  2  0
 22 23  1  0
 23 24  2  0
 13 25  1  0
 25 26  1  0
  9 27  1  0
 27 28  2  0
 28 29  1  0
 29 30  1  0
 30 31  2  0
 30 32  1  0
 29  4  1  0
 28  6  1  0
 26 10  1  0
 24 19  1  0
  1 33  1  0
  1 34  1  0
  5 35  1  0
  7 36  1  0
  8 37  1  0
 10 38  1  6
 11 39  1  0
 11 40  1  0
 12 41  1  0
 12 42  1  0
 13 43  1  6
 18 44  1  0
 18 45  1  0
 20 46  1  0
 21 47  1  0
 22 48  1  0
 23 49  1  0
 24 50  1  0
 25 51  1  0
 25 52  1  0
 26 53  1  0
 26 54  1  0
 27 55  1  0
M  CHG  2  14  -1  32  -1
M  END
>  <UniqueID>  (7) 
7

>  <SMILES>  (7) 
NC(=O)c1cc2ccc(C3CCC([N-]C(=O)OCc4ccccc4)CC3)cc2n1C(=O)[O-]

>  <Energy>  (7) 
100.69855013116516

>  <Genealogy>  (7) 
NC(=O)c1cc2ccc(C3CCC([N-]C(=O)OCc4ccccc4)CC3)cc2n1C(=O)[O-] (protonated)
NC(=O)c1cc2ccc(C3CCC([N-]C(=O)OCc4ccccc4)CC3)cc2n1C(=O)[O-] (3D coordinates assigned)
NC(=O)c1cc2ccc(C3CCC([N-]C(=O)OCc4ccccc4)CC3)cc2n1C(=O)[O-] (nonaromatic ring conformer: 100.69855013116516 kcal/mol)

>  <smiles>  (7) 
NC(=O)c1cc2ccc(C3CCC(NC(=O)OCc4ccccc4)CC3)cc2n1C(=O)O

>  <score_type>  (7) 
oracle

>  <origin>  (7) 
adg

>  <m_score__min__energy>  (7) 
-12.539999999999999

>  <m_primary>  (7) 
energy

$$$$
7:0
     RDKit          3D

 38 39  0  0  0  0  0  0  0  0999 V2000
   -9.8090   21.3220  -31.9910 C   0  0  0  0  0  0  0  0  0  0  0  0
   -8.7780   20.6230  -32.6770 O   0  0  0  0  0  0  0  0  0  0  0  0
   -7.4710   20.5400  -32.1870 C   0  0  0  0  0  0  0  0  0  0  0  0
   -7.0550   21.3620  -31.3250 O   0  0  0  0  0  0  0  0  0  0  0  0
   -6.5490   19.4630  -32.6960 C   0  0  1  0  0  0  0  0  0  0  0  0
   -7.3030   18.4500  -33.4370 N   0  0  0  0  0  0  0  0  0  0  0  0
   -5.4440   20.0500  -33.5930 C   0  0  0  0  0  0  0  0  0  0  0  0
   -4.2720   20.5450  -32.7850 C   0  0  0  0  0  0  0  0  0  0  0  0
   -3.0470   19.8310  -32.7930 C   0  0  0  0  0  0  0  0  0  0  0  0
   -1.9400   20.3010  -32.0640 C   0  0  0  0  0  0  0  0  0  0  0  0
   -2.0850   21.4860  -31.3500 C   0  0  0  0  0  0  0  0  0  0  0  0
   -1.1840   22.1610  -30.5570 C   0  0  0  0  0  0  0  0  0  0  0  0
   -1.8660   23.2870  -30.0990 C   0  0  0  0  0  0  0  0  0  0  0  0
   -1.2410   24.3450  -29.2790 C   0  0  0  0  0  0  0  0  0  0  0  0
   -1.9900   25.5060  -28.9270 N   0  0  0  0  0  0  0  0  0  0  0  0
   -0.0600   24.2210  -28.8590 O   0  0  0  0  0  0  0  0  0  0  0  0
   -3.1410   23.3010  -30.5810 N   0  0  0  0  0  0  0  0  0  0  0  0
   -4.1840   24.2500  -30.3080 C   0  0  0  0  0  0  0  0  0  0  0  0
   -5.3500   23.8830  -29.4460 C   0  0  0  0  0  0  0  0  0  0  0  0
   -4.1510   25.3880  -30.8460 O   0  0  0  0  0  0  0  0  0  0  0  0
   -3.2570   22.1970  -31.3490 C   0  0  0  0  0  0  0  0  0  0  0  0
   -4.3790   21.7500  -32.0550 C   0  0  0  0  0  0  0  0  0  0  0  0
   -9.6607   21.2215  -30.9057 H   0  0  0  0  0  0  0  0  0  0  0  0
   -9.7779   22.3860  -32.2683 H   0  0  0  0  0  0  0  0  0  0  0  0
  -10.7859   20.8992  -32.2683 H   0  0  0  0  0  0  0  0  0  0  0  0
   -6.0730   18.9927  -31.8229 H   0  0  0  0  0  0  0  0  0  0  0  0
   -8.3020   18.7540  -33.4970 H   0  0  0  0  0  0  0  0  0  0  0  0
   -6.9360   18.3870  -34.4140 H   0  0  0  0  0  0  0  0  0  0  0  0
   -5.0951   19.2696  -34.2852 H   0  0  0  0  0  0  0  0  0  0  0  0
   -5.8667   20.9046  -34.1417 H   0  0  0  0  0  0  0  0  0  0  0  0
   -2.9618   18.9012  -33.3746 H   0  0  0  0  0  0  0  0  0  0  0  0
   -0.9888   19.7486  -32.0586 H   0  0  0  0  0  0  0  0  0  0  0  0
   -0.1464   21.8728  -30.3326 H   0  0  0  0  0  0  0  0  0  0  0  0
   -2.9440   25.6680  -29.3180 H   0  0  0  0  0  0  0  0  0  0  0  0
   -5.0657   23.9725  -28.3871 H   0  0  0  0  0  0  0  0  0  0  0  0
   -6.1905   24.5600  -29.6585 H   0  0  0  0  0  0  0  0  0  0  0  0
   -5.6512   22.8466  -29.6585 H   0  0  0  0  0  0  0  0  0  0  0  0
   -5.3190   22.3211  -32.0421 H   0  0  0  0  0  0  0  0  0  0  0  0
  1  2  1  0
  2  3  1  0
  3  4  2  0
  3  5  1  0
  5  6  1  0
  5  7  1  0
  7  8  1  0
  8  9  2  0
  9 10  1  0
 10 11  2  0
 11 12  1  0
 12 13  2  0
 13 14  1  0
 14 15  1  0
 14 16  2  0
 13 17  1  0
 17 18  1  0
 18 19  1  0
 18 20  2  0
 17 21  1  0
 21 22  2  0
 22  8  1  0
 21 11  1  0
  1 23  1  0
  1 24  1  0
  1 25  1  0
  5 26  1  1
  6 27  1  0
  6 28  1  0
  7 29  1  0
  7 30  1  0
  9 31  1  0
 10 32  1  0
 12 33  1  0
 15 34  1  0
 19 35  1  0
 19 36  1  0
 19 37  1  0
 22 38  1  0
M  CHG  1  15  -1
M  END
>  <UniqueID>  (8) 
8

>  <SMILES>  (8) 
COC(=O)[C@@H](N)Cc1ccc2cc(C([NH-])=O)n(C(C)=O)c2c1

>  <Energy>  (8) 
70.82637543372988

>  <Genealogy>  (8) 
COC(=O)C(N)Cc1ccc2cc(C([NH-])=O)n(C(C)=O)c2c1 (protonated)
COC(=O)[C@@H](N)Cc1ccc2cc(C([NH-])=O)n(C(C)=O)c2c1 (chirality)
COC(=O)[C@@H](N)Cc1ccc2cc(C([NH-])=O)n(C(C)=O)c2c1 (3D coordinates assigned)
COC(=O)[C@@H](N)Cc1ccc2cc(C([NH-])=O)n(C(C)=O)c2c1 (optimized conformer: 70.82637543372988 kcal/mol)

>  <smiles>  (8) 
COC(=O)C(N)Cc1ccc2cc(C(N)=O)n(C(C)=O)c2c1

>  <score_type>  (8) 
oracle

>  <origin>  (8) 
adg

>  <m_score__min__energy>  (8) 
-10.369999999999999

>  <m_primary>  (8) 
energy

$$$$
8:0
     RDKit          3D

 44 47  0  0  0  0  0  0  0  0999 V2000
   -3.9260   25.2610  -30.7520 N   0  0  0  0  0  0  0  0  0  0  0  0
   -5.3280   25.2410  -30.4990 C   0  0  0  0  0  0  0  0  0  0  0  0
   -5.8790   26.2560  -29.9960 O   0  0  0  0  0  0  0  0  0  0  0  0
   -6.1230   24.0460  -30.8490 C   0  0  0  0  0  0  0  0  0  0  0  0
   -7.4730   24.0830  -31.1920 C   0  0  0  0  0  0  0  0  0  0  0  0
   -7.8420   22.7680  -31.3710 C   0  0  0  0  0  0  0  0  0  0  0  0
   -9.0690   22.2190  -31.7310 C   0  0  0  0  0  0  0  0  0  0  0  0
   -9.1530   20.8220  -31.8590 C   0  0  0  0  0  0  0  0  0  0  0  0
   -8.0190   20.0050  -31.6190 C   0  0  0  0  0  0  0  0  0  0  0  0
   -8.1100   18.5140  -31.8030 C   0  0  0  0  0  0  0  0  0  0  0  0
   -7.3140   18.0740  -33.0350 C   0  0  0  0  0  0  0  0  0  0  0  0
   -5.9370   18.6020  -32.9670 N   0  0  0  0  0  0  0  0  0  0  0  0
   -4.9280   17.5820  -33.3050 C   0  0  0  0  0  0  0  0  0  0  0  0
   -4.5240   18.2970  -34.5860 C   0  0  0  0  0  0  0  0  0  0  0  0
   -3.2070   18.7990  -34.5660 O   0  0  0  0  0  0  0  0  0  0  0  0
   -5.5790   19.3220  -34.2010 C   0  0  0  0  0  0  0  0  0  0  0  0
   -6.7880   20.6000  -31.2660 C   0  0  0  0  0  0  0  0  0  0  0  0
   -6.7370   21.9910  -31.1390 C   0  0  0  0  0  0  0  0  0  0  0  0
   -5.6740   22.7600  -30.8270 N   0  0  0  0  0  0  0  0  0  0  0  0
   -4.3450   22.2900  -30.5610 C   0  0  0  0  0  0  0  0  0  0  0  0
   -3.8810   22.3670  -29.3910 O   0  0  0  0  0  0  0  0  0  0  0  0
   -3.5370   21.6760  -31.6260 C   0  0  0  0  0  0  0  0  0  0  0  0
   -3.7210   21.7910  -32.9890 C   0  0  0  0  0  0  0  0  0  0  0  0
   -2.7500   21.0880  -33.5970 N   0  0  0  0  0  0  0  0  0  0  0  0
   -1.9890   20.5590  -32.6830 O   0  0  0  0  0  0  0  0  0  0  0  0
   -2.4140   20.8820  -31.4820 C   0  0  0  0  0  0  0  0  0  0  0  0
   -3.4850   26.0520  -31.2720 H   0  0  0  0  0  0  0  0  0  0  0  0
   -8.1095   24.9739  -31.2975 H   0  0  0  0  0  0  0  0  0  0  0  0
   -9.9459   22.8586  -31.9098 H   0  0  0  0  0  0  0  0  0  0  0  0
  -10.1075   20.3579  -32.1481 H   0  0  0  0  0  0  0  0  0  0  0  0
   -7.7027   18.0141  -30.9118 H   0  0  0  0  0  0  0  0  0  0  0  0
   -9.1652   18.2377  -31.9450 H   0  0  0  0  0  0  0  0  0  0  0  0
   -7.2805   16.9752  -33.0726 H   0  0  0  0  0  0  0  0  0  0  0  0
   -7.8046   18.4657  -33.9383 H   0  0  0  0  0  0  0  0  0  0  0  0
   -4.1142   17.5102  -32.5684 H   0  0  0  0  0  0  0  0  0  0  0  0
   -5.2364   16.5276  -33.3599 H   0  0  0  0  0  0  0  0  0  0  0  0
   -4.5018   17.8011  -35.5676 H   0  0  0  0  0  0  0  0  0  0  0  0
   -2.8850   18.8200  -33.6260 H   0  0  0  0  0  0  0  0  0  0  0  0
   -5.1676   20.3256  -34.0181 H   0  0  0  0  0  0  0  0  0  0  0  0
   -6.3726   19.5631  -34.9235 H   0  0  0  0  0  0  0  0  0  0  0  0
   -5.8923   19.9847  -31.0954 H   0  0  0  0  0  0  0  0  0  0  0  0
   -4.5204   22.3575  -33.4890 H   0  0  0  0  0  0  0  0  0  0  0  0
   -2.6150   20.9770  -34.6260 H   0  0  0  0  0  0  0  0  0  0  0  0
   -1.9569   20.5748  -30.5298 H   0  0  0  0  0  0  0  0  0  0  0  0
  1  2  1  0
  2  3  2  0
  2  4  1  0
  4  5  2  0
  5  6  1  0
  6  7  2  0
  7  8  1  0
  8  9  2  0
  9 10  1  0
 10 11  1  0
 11 12  1  0
 12 13  1  0
 13 14  1  0
 14 15  1  0
 14 16  1  0
  9 17  1  0
 17 18  2  0
 18 19  1  0
 19 20  1  0
 20 21  2  0
 20 22  1  0
 22 23  1  0
 23 24  2  0
 24 25  1  0
 25 26  1  0
 19  4  1  0
 26 22  2  0
 18  6  1  0
 16 12  1  0
  1 27  1  0
  5 28  1  0
  7 29  1  0
  8 30  1  0
 10 31  1  0
 10 32  1  0
 11 33  1  0
 11 34  1  0
 13 35  1  0
 13 36  1  0
 14 37  1  0
 15 38  1  0
 16 39  1  0
 16 40  1  0
 17 41  1  0
 23 42  1  0
 24 43  1  0
 26 44  1  0
M  CHG  2   1  -1  24   1
M  END
>  <UniqueID>  (9) 
9

>  <SMILES>  (9) 
[NH-]C(=O)c1cc2ccc(CCN3CC(O)C3)cc2n1C(=O)c1c[nH+]oc1

>  <Energy>  (9) 
186.62822088027798

>  <Genealogy>  (9) 
[NH-]C(=O)c1cc2ccc(CCN3CC(O)C3)cc2n1C(=O)c1c[nH+]oc1 (protonated)
[NH-]C(=O)c1cc2ccc(CCN3CC(O)C3)cc2n1C(=O)c1c[nH+]oc1 (3D coordinates assigned)
[NH-]C(=O)c1cc2ccc(CCN3CC(O)C3)cc2n1C(=O)c1c[nH+]oc1 (nonaromatic ring conformer: 186.62822088027798 kcal/mol)

>  <smiles>  (9) 
NC(=O)c1cc2ccc(CCN3CC(O)C3)cc2n1C(=O)c1cnoc1

>  <score_type>  (9) 
oracle

>  <origin>  (9) 
adg

>  <m_score__min__energy>  (9) 
-10.52

>  <m_primary>  (9) 
energy

$$$$
9:0
     RDKit          3D

 32 33  0  0  0  0  0  0  0  0999 V2000
   -4.0050   25.6730  -30.8550 N   0  0  0  0  0  0  0  0  0  0  0  0
   -5.1030   24.9080  -30.3690 C   0  0  0  0  0  0  0  0  0  0  0  0
   -5.8080   25.3660  -29.4300 O   0  0  0  0  0  0  0  0  0  0  0  0
   -5.4610   23.6120  -30.9850 C   0  0  0  0  0  0  0  0  0  0  0  0
   -6.7750   23.2070  -31.2070 C   0  0  0  0  0  0  0  0  0  0  0  0
   -6.6790   22.0060  -31.8740 C   0  0  0  0  0  0  0  0  0  0  0  0
   -7.6780   21.1620  -32.3440 C   0  0  0  0  0  0  0  0  0  0  0  0
   -7.2900   19.9710  -32.9830 C   0  0  0  0  0  0  0  0  0  0  0  0
   -5.9180   19.6350  -33.1170 C   0  0  0  0  0  0  0  0  0  0  0  0
   -5.5130   18.3740  -33.8370 C   0  0  0  0  0  0  0  0  0  0  0  0
   -4.1650   18.1170  -33.6510 F   0  0  0  0  0  0  0  0  0  0  0  0
   -5.7600   18.5230  -35.1880 F   0  0  0  0  0  0  0  0  0  0  0  0
   -6.2290   17.2890  -33.3630 F   0  0  0  0  0  0  0  0  0  0  0  0
   -4.9310   20.5330  -32.6450 C   0  0  0  0  0  0  0  0  0  0  0  0
   -5.3480   21.7190  -32.0300 C   0  0  0  0  0  0  0  0  0  0  0  0
   -4.5860   22.6940  -31.4860 N   0  0  0  0  0  0  0  0  0  0  0  0
   -3.1540   22.7010  -31.3950 C   0  0  0  0  0  0  0  0  0  0  0  0
   -2.4740   21.9520  -32.1480 O   0  0  0  0  0  0  0  0  0  0  0  0
   -2.5210   23.5630  -30.4920 O   0  0  0  0  0  0  0  0  0  0  0  0
   -2.5150   23.3650  -29.0790 C   0  0  0  0  0  0  0  0  0  0  0  0
   -2.1420   24.6560  -28.3520 C   0  0  0  0  0  0  0  0  0  0  0  0
   -1.5550   25.5620  -29.2430 O   0  0  0  0  0  0  0  0  0  0  0  0
   -3.0300   25.2990  -30.8150 H   0  0  0  0  0  0  0  0  0  0  0  0
   -7.6942   23.7344  -30.9122 H   0  0  0  0  0  0  0  0  0  0  0  0
   -8.7406   21.4180  -32.2199 H   0  0  0  0  0  0  0  0  0  0  0  0
   -8.0581   19.2928  -33.3831 H   0  0  0  0  0  0  0  0  0  0  0  0
   -3.8611   20.3041  -32.7589 H   0  0  0  0  0  0  0  0  0  0  0  0
   -3.5165   23.0453  -28.7554 H   0  0  0  0  0  0  0  0  0  0  0  0
   -1.7694   22.5943  -28.8341 H   0  0  0  0  0  0  0  0  0  0  0  0
   -3.0492   25.1057  -27.9221 H   0  0  0  0  0  0  0  0  0  0  0  0
   -1.4229   24.4223  -27.5531 H   0  0  0  0  0  0  0  0  0  0  0  0
   -2.2010   25.6740  -29.9890 H   0  0  0  0  0  0  0  0  0  0  0  0
  1  2  1  0
  2  3  2  0
  2  4  1  0
  4  5  2  0
  5  6  1  0
  6  7  2  0
  7  8  1  0
  8  9  2  0
  9 10  1  0
 10 11  1  0
 10 12  1  0
 10 13  1  0
  9 14  1  0
 14 15  2  0
 15 16  1  0
 16 17  1  0
 17 18  2  0
 17 19  1  0
 19 20  1  0
 20 21  1  0
 21 22  1  0
 16  4  1  0
 15  6  1  0
  1 23  1  0
  5 24  1  0
  7 25  1  0
  8 26  1  0
 14 27  1  0
 20 28  1  0
 20 29  1  0
 21 30  1  0
 21 31  1  0
 22 32  1  0
M  CHG  1   1  -1
M  END
>  <UniqueID>  (10) 
10

>  <SMILES>  (10) 
[NH-]C(=O)c1cc2ccc(C(F)(F)F)cc2n1C(=O)OCCO

>  <Energy>  (10) 
68.70524798966393

>  <Genealogy>  (10) 
[NH-]C(=O)c1cc2ccc(C(F)(F)F)cc2n1C(=O)OCCO (protonated)
[NH-]C(=O)c1cc2ccc(C(F)(F)F)cc2n1C(=O)OCCO (3D coordinates assigned)
[NH-]C(=O)c1cc2ccc(C(F)(F)F)cc2n1C(=O)OCCO (optimized conformer: 68.70524798966393 kcal/mol)

>  <smiles>  (10) 
NC(=O)c1cc2ccc(C(F)(F)F)cc2n1C(=O)OCCO

>  <score_type>  (10) 
oracle

>  <origin>  (10) 
adg

>  <m_score__min__energy>  (10) 
-9.8200000000000003

>  <m_primary>  (10) 
energy

$$$$
10:0
     RDKit          3D

 39 41  0  0  0  0  0  0  0  0999 V2000
   -1.5950   25.7940  -28.9440 N   0  0  0  0  0  0  0  0  0  0  0  0
   -0.9660   24.5230  -29.0930 C   0  0  0  0  0  0  0  0  0  0  0  0
    0.1830   24.3420  -28.6090 O   0  0  0  0  0  0  0  0  0  0  0  0
   -1.6470   23.4500  -29.8470 C   0  0  0  0  0  0  0  0  0  0  0  0
   -1.0220   22.2680  -30.2340 C   0  0  0  0  0  0  0  0  0  0  0  0
   -2.0070   21.5090  -30.8210 C   0  0  0  0  0  0  0  0  0  0  0  0
   -1.9410   20.2420  -31.3830 C   0  0  0  0  0  0  0  0  0  0  0  0
   -3.1120   19.7040  -31.9370 C   0  0  0  0  0  0  0  0  0  0  0  0
   -4.3340   20.4380  -31.9490 C   0  0  0  0  0  0  0  0  0  0  0  0
   -5.5990   19.7830  -32.5470 C   0  0  0  0  0  0  0  0  0  0  0  0
   -5.1950   19.0840  -33.8790 C   0  0  0  0  0  0  0  0  0  0  0  0
   -6.1460   19.3150  -34.8850 O   0  0  0  0  0  0  0  0  0  0  0  0
   -6.6650   20.8940  -32.8280 C   0  0  0  0  0  0  0  0  0  0  0  0
   -8.1160   20.3920  -32.7230 C   0  0  0  0  0  0  0  0  0  0  0  0
   -8.2010   19.0330  -33.0910 O   0  0  0  0  0  0  0  0  0  0  0  0
   -7.6130   18.2170  -32.0920 C   0  0  0  0  0  0  0  0  0  0  0  0
   -6.2440   18.7380  -31.5860 C   0  0  0  0  0  0  0  0  0  0  0  0
   -4.3510   21.7260  -31.3430 C   0  0  0  0  0  0  0  0  0  0  0  0
   -3.1720   22.2270  -30.7820 C   0  0  0  0  0  0  0  0  0  0  0  0
   -2.9670   23.4260  -30.1880 N   0  0  0  0  0  0  0  0  0  0  0  0
   -3.9360   24.4740  -30.0230 C   0  0  0  0  0  0  0  0  0  0  0  0
   -3.8760   25.5130  -30.7310 O   0  0  0  0  0  0  0  0  0  0  0  0
   -4.9340   24.3620  -29.0630 O   0  0  0  0  0  0  0  0  0  0  0  0
   -2.6350   25.8850  -28.9720 H   0  0  0  0  0  0  0  0  0  0  0  0
    0.0358   21.9982  -30.0989 H   0  0  0  0  0  0  0  0  0  0  0  0
   -0.9979   19.6760  -31.3938 H   0  0  0  0  0  0  0  0  0  0  0  0
   -3.0868   18.6938  -32.3716 H   0  0  0  0  0  0  0  0  0  0  0  0
   -4.2219   19.4766  -34.2089 H   0  0  0  0  0  0  0  0  0  0  0  0
   -5.1366   18.0005  -33.6987 H   0  0  0  0  0  0  0  0  0  0  0  0
   -7.0220   19.0090  -34.5330 H   0  0  0  0  0  0  0  0  0  0  0  0
   -6.5234   21.7051  -32.0986 H   0  0  0  0  0  0  0  0  0  0  0  0
   -6.5138   21.2335  -33.8633 H   0  0  0  0  0  0  0  0  0  0  0  0
   -8.4640   20.5078  -31.6860 H   0  0  0  0  0  0  0  0  0  0  0  0
   -8.7451   20.9831  -33.4048 H   0  0  0  0  0  0  0  0  0  0  0  0
   -8.3023   18.1651  -31.2363 H   0  0  0  0  0  0  0  0  0  0  0  0
   -7.4330   17.2320  -32.5473 H   0  0  0  0  0  0  0  0  0  0  0  0
   -6.3894   19.2086  -30.6025 H   0  0  0  0  0  0  0  0  0  0  0  0
   -5.5629   17.8760  -31.5309 H   0  0  0  0  0  0  0  0  0  0  0  0
   -5.2775   22.3183  -31.3164 H   0  0  0  0  0  0  0  0  0  0  0  0
  1  2  1  0
  2  3  2  0
  2  4  1  0
  4  5  2  0
  5  6  1  0
  6  7  2  0
  7  8  1  0
  8  9  2  0
  9 10  1  0
 10 11  1  0
 11 12  1  0
 10 13  1  0
 13 14  1  0
 14 15  1  0
 15 16  1  0
 16 17  1  0
  9 18  1  0
 18 19  2  0
 19 20  1  0
 20 21  1  0
 21 22  2  0
 21 23  1  0
 20  4  1  0
 19  6  1  0
 17 10  1  0
  1 24  1  0
  5 25  1  0
  7 26  1  0
  8 27  1  0
 11 28  1  0
 11 29  1  0
 12 30  1  0
 13 31  1  0
 13 32  1  0
 14 33  1  0
 14 34  1  0
 16 35  1  0
 16 36  1  0
 17 37  1  0
 17 38  1  0
 18 39  1  0
M  CHG  2   1  -1  23  -1
M  END
>  <UniqueID>  (11) 
11

>  <SMILES>  (11) 
[NH-]C(=O)c1cc2ccc(C3(CO)CCOCC3)cc2n1C(=O)[O-]

>  <Energy>  (11) 
94.27125668324497

>  <Genealogy>  (11) 
[NH-]C(=O)c1cc2ccc(C3(CO)CCOCC3)cc2n1C(=O)[O-] (protonated)
[NH-]C(=O)c1cc2ccc(C3(CO)CCOCC3)cc2n1C(=O)[O-] (3D coordinates assigned)
[NH-]C(=O)c1cc2ccc(C3(CO)CCOCC3)cc2n1C(=O)[O-] (nonaromatic ring conformer: 94.27125668324497 kcal/mol)

>  <smiles>  (11) 
NC(=O)c1cc2ccc(C3(CO)CCOCC3)cc2n1C(=O)O

>  <score_type>  (11) 
oracle

>  <origin>  (11) 
adg

>  <m_score__min__energy>  (11) 
-11.93

>  <m_primary>  (11) 
energy

$$$$
11:0
     RDKit          3D

 54 55  0  0  0  0  0  0  0  0999 V2000
   -1.2810   26.1840  -26.7310 C   0  0  0  0  0  0  0  0  0  0  0  0
   -0.9780   25.4820  -28.0110 C   0  0  0  0  0  0  0  0  0  0  0  0
    0.1700   24.9970  -28.2000 O   0  0  0  0  0  0  0  0  0  0  0  0
   -1.9560   25.4120  -29.0060 O   0  0  0  0  0  0  0  0  0  0  0  0
   -2.6590   24.2110  -29.3090 C   0  0  0  0  0  0  0  0  0  0  0  0
   -3.5410   24.4360  -30.4020 O   0  0  0  0  0  0  0  0  0  0  0  0
   -4.0300   23.4050  -31.2090 C   0  0  0  0  0  0  0  0  0  0  0  0
   -3.2370   22.7030  -31.8950 O   0  0  0  0  0  0  0  0  0  0  0  0
   -5.4420   23.1420  -31.2590 N   0  0  0  0  0  0  0  0  0  0  0  0
   -6.4530   23.9550  -30.8430 C   0  0  0  0  0  0  0  0  0  0  0  0
   -6.2940   25.2260  -30.1060 C   0  0  0  0  0  0  0  0  0  0  0  0
   -5.3650   26.2200  -30.5380 N   0  0  0  0  0  0  0  0  0  0  0  0
   -6.9480   25.4120  -29.0460 O   0  0  0  0  0  0  0  0  0  0  0  0
   -7.6910   23.4040  -31.1600 C   0  0  0  0  0  0  0  0  0  0  0  0
   -7.4080   22.2070  -31.7760 C   0  0  0  0  0  0  0  0  0  0  0  0
   -8.2660   21.2490  -32.3050 C   0  0  0  0  0  0  0  0  0  0  0  0
   -7.6980   20.1190  -32.9140 C   0  0  0  0  0  0  0  0  0  0  0  0
   -6.2880   19.9660  -32.9920 C   0  0  0  0  0  0  0  0  0  0  0  0
   -5.6740   18.7470  -33.6560 C   0  0  1  0  0  0  0  0  0  0  0  0
   -4.2370   18.4700  -33.1350 C   0  0  0  0  0  0  0  0  0  0  0  0
   -3.1040   19.2610  -33.8370 C   0  0  2  0  0  0  0  0  0  0  0  0
   -1.9370   18.3740  -34.2920 C   0  0  0  0  0  0  0  0  0  0  0  0
   -2.6390   20.2940  -33.0080 O   0  0  0  0  0  0  0  0  0  0  0  0
   -6.6160   17.5300  -33.4590 C   0  0  0  0  0  0  0  0  0  0  0  0
   -5.9250   16.1680  -33.6700 C   0  0  2  0  0  0  0  0  0  0  0  0
   -6.9080   15.1360  -34.2200 C   0  0  0  0  0  0  0  0  0  0  0  0
   -5.4240   15.6930  -32.4710 F   0  0  0  0  0  0  0  0  0  0  0  0
   -5.4500   20.9700  -32.4510 C   0  0  0  0  0  0  0  0  0  0  0  0
   -6.0440   22.0720  -31.8270 C   0  0  0  0  0  0  0  0  0  0  0  0
   -1.0027   25.5392  -25.8844 H   0  0  0  0  0  0  0  0  0  0  0  0
   -0.7073   27.1213  -26.6821 H   0  0  0  0  0  0  0  0  0  0  0  0
   -2.3565   26.4094  -26.6821 H   0  0  0  0  0  0  0  0  0  0  0  0
   -1.9392   23.4231  -29.5758 H   0  0  0  0  0  0  0  0  0  0  0  0
   -3.2404   23.8968  -28.4297 H   0  0  0  0  0  0  0  0  0  0  0  0
   -5.2970   27.1300  -30.0290 H   0  0  0  0  0  0  0  0  0  0  0  0
   -4.6850   26.0270  -31.3070 H   0  0  0  0  0  0  0  0  0  0  0  0
   -8.6837   23.8338  -30.9606 H   0  0  0  0  0  0  0  0  0  0  0  0
   -9.3575   21.3730  -32.2479 H   0  0  0  0  0  0  0  0  0  0  0  0
   -8.3529   19.3424  -33.3360 H   0  0  0  0  0  0  0  0  0  0  0  0
   -5.5702   18.9382  -34.7343 H   0  0  0  0  0  0  0  0  0  0  0  0
   -4.2113   18.7211  -32.0643 H   0  0  0  0  0  0  0  0  0  0  0  0
   -4.0395   17.4092  -33.3490 H   0  0  0  0  0  0  0  0  0  0  0  0
   -3.5441   19.6911  -34.7488 H   0  0  0  0  0  0  0  0  0  0  0  0
   -1.4134   17.9761  -33.4102 H   0  0  0  0  0  0  0  0  0  0  0  0
   -2.3241   17.5401  -34.8959 H   0  0  0  0  0  0  0  0  0  0  0  0
   -1.2371   18.9702  -34.8959 H   0  0  0  0  0  0  0  0  0  0  0  0
   -2.9740   21.1460  -33.3940 H   0  0  0  0  0  0  0  0  0  0  0  0
   -7.0141   17.5619  -32.4341 H   0  0  0  0  0  0  0  0  0  0  0  0
   -7.4061   17.6098  -34.2201 H   0  0  0  0  0  0  0  0  0  0  0  0
   -5.1079   16.3197  -34.3907 H   0  0  0  0  0  0  0  0  0  0  0  0
   -7.4015   14.6179  -33.3845 H   0  0  0  0  0  0  0  0  0  0  0  0
   -7.6655   15.6429  -34.8358 H   0  0  0  0  0  0  0  0  0  0  0  0
   -6.3648   14.4040  -34.8358 H   0  0  0  0  0  0  0  0  0  0  0  0
   -4.3554   20.8856  -32.5197 H   0  0  0  0  0  0  0  0  0  0  0  0
  1  2  1  0
  2  3  2  0
  2  4  1  0
  4  5  1  0
  5  6  1  0
  6  7  1  0
  7  8  2  0
  7  9  1  0
  9 10  1  0
 10 11  1  0
 11 12  1  0
 11 13  2  0
 10 14  2  0
 14 15  1  0
 15 16  2  0
 16 17  1  0
 17 18  2  0
 18 19  1  0
 19 20  1  0
 20 21  1  0
 21 22  1  0
 21 23  1  0
 19 24  1  0
 24 25  1  0
 25 26  1  0
 25 27  1  0
 18 28  1  0
 28 29  2  0
 29  9  1  0
 29 15  1  0
  1 30  1  0
  1 31  1  0
  1 32  1  0
  5 33  1  0
  5 34  1  0
 12 35  1  0
 12 36  1  0
 14 37  1  0
 16 38  1  0
 17 39  1  0
 19 40  1  6
 20 41  1  0
 20 42  1  0
 21 43  1  6
 22 44  1  0
 22 45  1  0
 22 46  1  0
 23 47  1  0
 24 48  1  0
 24 49  1  0
 25 50  1  6
 26 51  1  0
 26 52  1  0
 26 53  1  0
 28 54  1  0
M  END
>  <UniqueID>  (12) 
12

>  <SMILES>  (12) 
CC(=O)OCOC(=O)n1c(C(N)=O)cc2ccc([C@H](CC(C)F)C[C@H](C)O)cc21

>  <Energy>  (12) 
82.10103493934118

>  <Genealogy>  (12) 
CC(=O)OCOC(=O)n1c(C(N)=O)cc2ccc([C@H](CC(C)F)C[C@H](C)O)cc21 (chirality)
CC(=O)OCOC(=O)n1c(C(N)=O)cc2ccc([C@H](CC(C)F)C[C@H](C)O)cc21 (3D coordinates assigned)
CC(=O)OCOC(=O)n1c(C(N)=O)cc2ccc([C@H](CC(C)F)C[C@H](C)O)cc21 (optimized conformer: 82.10103493934118 kcal/mol)

>  <smiles>  (12) 
CC(=O)OCOC(=O)n1c(C(N)=O)cc2ccc(C(CC(C)O)CC(C)F)cc21

>  <score_type>  (12) 
oracle

>  <origin>  (12) 
adg

>  <m_score__min__energy>  (12) 
-8.6099999999999994

>  <m_primary>  (12) 
energy

$$$$
12:0
     RDKit          3D

 41 43  0  0  0  0  0  0  0  0999 V2000
   -5.3530   15.5850  -33.2480 C   0  0  0  0  0  0  0  0  0  0  0  0
   -6.2710   16.7050  -32.9790 N   0  0  1  0  0  0  0  0  0  0  0  0
   -6.1980   17.1680  -31.5780 C   0  0  0  0  0  0  0  0  0  0  0  0
   -6.0360   18.6870  -31.5930 C   0  0  0  0  0  0  0  0  0  0  0  0
   -6.4020   19.1000  -33.0150 C   0  0  1  0  0  0  0  0  0  0  0  0
   -7.8040   19.2290  -33.0740 O   0  0  0  0  0  0  0  0  0  0  0  0
   -5.7520   20.4400  -33.4710 C   0  0  0  0  0  0  0  0  0  0  0  0
   -4.5080   20.8580  -32.7190 C   0  0  0  0  0  0  0  0  0  0  0  0
   -3.3630   20.0200  -32.7120 C   0  0  0  0  0  0  0  0  0  0  0  0
   -2.2100   20.3880  -32.0000 C   0  0  0  0  0  0  0  0  0  0  0  0
   -2.2290   21.5920  -31.3010 C   0  0  0  0  0  0  0  0  0  0  0  0
   -1.2630   22.1720  -30.5120 C   0  0  0  0  0  0  0  0  0  0  0  0
   -1.8260   23.3610  -30.0540 C   0  0  0  0  0  0  0  0  0  0  0  0
   -1.0870   24.3450  -29.2350 C   0  0  0  0  0  0  0  0  0  0  0  0
   -1.6220   25.6420  -28.9870 N   0  0  0  0  0  0  0  0  0  0  0  0
    0.0540   24.0530  -28.7900 O   0  0  0  0  0  0  0  0  0  0  0  0
   -3.0960   23.5050  -30.5330 N   0  0  0  0  0  0  0  0  0  0  0  0
   -4.0400   24.5460  -30.2320 C   0  0  0  0  0  0  0  0  0  0  0  0
   -3.9430   25.6720  -30.7860 O   0  0  0  0  0  0  0  0  0  0  0  0
   -5.0540   24.3260  -29.3070 O   0  0  0  0  0  0  0  0  0  0  0  0
   -3.3250   22.4150  -31.2970 C   0  0  0  0  0  0  0  0  0  0  0  0
   -4.4950   22.0630  -31.9790 C   0  0  0  0  0  0  0  0  0  0  0  0
   -5.9720   17.8730  -33.8240 C   0  0  0  0  0  0  0  0  0  0  0  0
   -5.0044   15.1597  -32.2953 H   0  0  0  0  0  0  0  0  0  0  0  0
   -5.8791   14.8101  -33.8248 H   0  0  0  0  0  0  0  0  0  0  0  0
   -4.4899   15.9488  -33.8248 H   0  0  0  0  0  0  0  0  0  0  0  0
   -7.2480   16.3870  -33.1840 H   0  0  0  0  0  0  0  0  0  0  0  0
   -7.1215   16.8959  -31.0459 H   0  0  0  0  0  0  0  0  0  0  0  0
   -5.3478   16.6972  -31.0628 H   0  0  0  0  0  0  0  0  0  0  0  0
   -6.7143   19.1569  -30.8656 H   0  0  0  0  0  0  0  0  0  0  0  0
   -5.0184   19.0003  -31.3169 H   0  0  0  0  0  0  0  0  0  0  0  0
   -8.0360   19.6740  -33.9310 H   0  0  0  0  0  0  0  0  0  0  0  0
   -5.4867   20.3418  -34.5340 H   0  0  0  0  0  0  0  0  0  0  0  0
   -6.5005   21.2197  -33.2667 H   0  0  0  0  0  0  0  0  0  0  0  0
   -3.3787   19.0722  -33.2701 H   0  0  0  0  0  0  0  0  0  0  0  0
   -1.3182   19.7441  -31.9946 H   0  0  0  0  0  0  0  0  0  0  0  0
   -0.2594   21.7802  -30.2899 H   0  0  0  0  0  0  0  0  0  0  0  0
   -2.6510   25.8160  -29.0260 H   0  0  0  0  0  0  0  0  0  0  0  0
   -5.3845   22.7090  -31.9404 H   0  0  0  0  0  0  0  0  0  0  0  0
   -6.5379   17.8185  -34.7657 H   0  0  0  0  0  0  0  0  0  0  0  0
   -4.9049   17.9175  -34.0871 H   0  0  0  0  0  0  0  0  0  0  0  0
  1  2  1  0
  2  3  1  0
  3  4  1  0
  4  5  1  0
  5  6  1  1
  5  7  1  0
  7  8  1  0
  8  9  2  0
  9 10  1  0
 10 11  2  0
 11 12  1  0
 12 13  2  0
 13 14  1  0
 14 15  1  0
 14 16  2  0
 13 17  1  0
 17 18  1  0
 18 19  2  0
 18 20  1  0
 17 21  1  0
 21 22  2  0
  5 23  1  0
 23  2  1  0
 22  8  1  0
 21 11  1  0
  1 24  1  0
  1 25  1  0
  1 26  1  0
  2 27  1  6
  3 28  1  0
  3 29  1  0
  4 30  1  0
  4 31  1  0
  6 32  1  0
  7 33  1  0
  7 34  1  0
  9 35  1  0
 10 36  1  0
 12 37  1  0
 15 38  1  0
 22 39  1  0
 23 40  1  0
 23 41  1  0
M  CHG  3   2   1  15  -1  20  -1
M  END
>  <UniqueID>  (13) 
13

>  <SMILES>  (13) 
C[N@H+]1CC[C@@](O)(Cc2ccc3cc(C([NH-])=O)n(C(=O)[O-])c3c2)C1

>  <Energy>  (13) 
88.49936320103208

>  <Genealogy>  (13) 
C[NH+]1CCC(O)(Cc2ccc3cc(C([NH-])=O)n(C(=O)[O-])c3c2)C1 (protonated)
C[N@H+]1CC[C@@](O)(Cc2ccc3cc(C([NH-])=O)n(C(=O)[O-])c3c2)C1 (chirality)
C[N@H+]1CC[C@@](O)(Cc2ccc3cc(C([NH-])=O)n(C(=O)[O-])c3c2)C1 (3D coordinates assigned)
C[N@H+]1CC[C@@](O)(Cc2ccc3cc(C([NH-])=O)n(C(=O)[O-])c3c2)C1 (nonaromatic ring conformer: 88.49936320103208 kcal/mol)

>  <smiles>  (13) 
CN1CCC(O)(Cc2ccc3cc(C(N)=O)n(C(=O)O)c3c2)C1

>  <score_type>  (13) 
oracle

>  <origin>  (13) 
adg

>  <m_score__min__energy>  (13) 
-11.300000000000001

>  <m_primary>  (13) 
energy

$$$$
13:0
     RDKit          3D

 27 28  0  0  0  0  0  0  0  0999 V2000
   -6.8710   17.2800  -33.7500 N   0  0  0  0  0  0  0  0  0  0  0  0
   -5.9630   18.2490  -34.2760 C   0  0  0  0  0  0  0  0  0  0  0  0
   -5.7050   18.2490  -35.5090 O   0  0  0  0  0  0  0  0  0  0  0  0
   -5.3730   19.2920  -33.4130 C   0  0  0  0  0  0  0  0  0  0  0  0
   -4.0350   19.6680  -33.4750 C   0  0  0  0  0  0  0  0  0  0  0  0
   -3.9050   20.6960  -32.5690 C   0  0  0  0  0  0  0  0  0  0  0  0
   -2.7810   21.4380  -32.2170 C   0  0  0  0  0  0  0  0  0  0  0  0
   -2.9260   22.4200  -31.2230 C   0  0  0  0  0  0  0  0  0  0  0  0
   -4.1770   22.6270  -30.5910 C   0  0  0  0  0  0  0  0  0  0  0  0
   -4.3230   23.6940  -29.5420 C   0  0  0  0  0  0  0  0  0  0  0  0
   -3.5790   24.9240  -29.9540 C   0  0  0  0  0  0  0  0  0  0  0  0
   -4.0430   25.6720  -30.8550 O   0  0  0  0  0  0  0  0  0  0  0  0
   -2.3990   25.2710  -29.3100 O   0  0  0  0  0  0  0  0  0  0  0  0
   -5.2980   21.8620  -30.9820 C   0  0  0  0  0  0  0  0  0  0  0  0
   -5.1310   20.9050  -31.9910 C   0  0  0  0  0  0  0  0  0  0  0  0
   -6.0450   20.0460  -32.4980 N   0  0  0  0  0  0  0  0  0  0  0  0
   -7.4080   19.8880  -32.0660 C   0  0  0  0  0  0  0  0  0  0  0  0
   -8.2110   20.8550  -32.1310 O   0  0  0  0  0  0  0  0  0  0  0  0
   -7.8550   18.6680  -31.5750 O   0  0  0  0  0  0  0  0  0  0  0  0
   -7.2370   17.3570  -32.7760 H   0  0  0  0  0  0  0  0  0  0  0  0
   -7.2490   16.5270  -34.3670 H   0  0  0  0  0  0  0  0  0  0  0  0
   -3.2490   19.2361  -34.1119 H   0  0  0  0  0  0  0  0  0  0  0  0
   -1.8097   21.2609  -32.7020 H   0  0  0  0  0  0  0  0  0  0  0  0
   -2.0605   23.0337  -30.9327 H   0  0  0  0  0  0  0  0  0  0  0  0
   -5.3883   23.9379  -29.4167 H   0  0  0  0  0  0  0  0  0  0  0  0
   -3.9098   23.3242  -28.5920 H   0  0  0  0  0  0  0  0  0  0  0  0
   -6.2779   22.0140  -30.5059 H   0  0  0  0  0  0  0  0  0  0  0  0
  1  2  1  0
  2  3  2  0
  2  4  1  0
  4  5  2  0
  5  6  1  0
  6  7  2  0
  7  8  1  0
  8  9  2  0
  9 10  1  0
 10 11  1  0
 11 12  2  0
 11 13  1  0
  9 14  1  0
 14 15  2  0
 15 16  1  0
 16 17  1  0
 17 18  2  0
 17 19  1  0
 16  4  1  0
 15  6  1  0
  1 20  1  0
  1 21  1  0
  5 22  1  0
  7 23  1  0
  8 24  1  0
 10 25  1  0
 10 26  1  0
 14 27  1  0
M  CHG  2  13  -1  19  -1
M  END
>  <UniqueID>  (14) 
14

>  <SMILES>  (14) 
NC(=O)c1cc2ccc(CC(=O)[O-])cc2n1C(=O)[O-]

>  <Energy>  (14) 
66.00379425251997

>  <Genealogy>  (14) 
NC(=O)c1cc2ccc(CC(=O)[O-])cc2n1C(=O)[O-] (protonated)
NC(=O)c1cc2ccc(CC(=O)[O-])cc2n1C(=O)[O-] (3D coordinates assigned)
NC(=O)c1cc2ccc(CC(=O)[O-])cc2n1C(=O)[O-] (optimized conformer: 66.00379425251997 kcal/mol)

>  <smiles>  (14) 
NC(=O)c1cc2ccc(CC(=O)O)cc2n1C(=O)O

>  <score_type>  (14) 
oracle

>  <origin>  (14) 
adg

>  <m_score__min__energy>  (14) 
-8.8100000000000005

>  <m_primary>  (14) 
energy

$$$$
14:0
     RDKit          3D

 29 31  0  0  0  0  0  0  0  0999 V2000
   -1.6130   26.0040  -28.9380 N   0  0  0  0  0  0  0  0  0  0  0  0
   -0.9230   24.7610  -28.8480 C   0  0  0  0  0  0  0  0  0  0  0  0
    0.0970   24.6730  -28.1140 O   0  0  0  0  0  0  0  0  0  0  0  0
   -1.3510   23.5940  -29.6480 C   0  0  0  0  0  0  0  0  0  0  0  0
   -0.5020   22.5420  -29.9810 C   0  0  0  0  0  0  0  0  0  0  0  0
   -1.2440   21.7190  -30.7970 C   0  0  0  0  0  0  0  0  0  0  0  0
   -0.8970   20.5180  -31.4080 C   0  0  0  0  0  0  0  0  0  0  0  0
   -1.8750   19.8630  -32.1740 C   0  0  0  0  0  0  0  0  0  0  0  0
   -3.1780   20.4080  -32.3120 C   0  0  0  0  0  0  0  0  0  0  0  0
   -4.2080   19.7010  -33.1150 C   0  0  0  0  0  0  0  0  0  0  0  0
   -3.8680   18.6210  -33.9450 C   0  0  0  0  0  0  0  0  0  0  0  0
   -4.8280   17.9880  -34.6690 N   0  0  0  0  0  0  0  0  0  0  0  0
   -6.1240   18.3840  -34.6100 C   0  0  0  0  0  0  0  0  0  0  0  0
   -6.4810   19.4270  -33.8170 N   0  0  0  0  0  0  0  0  0  0  0  0
   -5.5570   20.0870  -33.0720 C   0  0  0  0  0  0  0  0  0  0  0  0
   -3.4890   21.6330  -31.6730 C   0  0  0  0  0  0  0  0  0  0  0  0
   -2.4890   22.2730  -30.9310 C   0  0  0  0  0  0  0  0  0  0  0  0
   -2.5740   23.4240  -30.2280 N   0  0  0  0  0  0  0  0  0  0  0  0
   -3.7470   24.2360  -30.0550 C   0  0  0  0  0  0  0  0  0  0  0  0
   -4.6700   23.8640  -29.2830 O   0  0  0  0  0  0  0  0  0  0  0  0
   -3.8620   25.4530  -30.7160 O   0  0  0  0  0  0  0  0  0  0  0  0
   -2.6560   26.0380  -28.9690 H   0  0  0  0  0  0  0  0  0  0  0  0
    0.5404   22.3991  -29.6600 H   0  0  0  0  0  0  0  0  0  0  0  0
    0.1120   20.0948  -31.2946 H   0  0  0  0  0  0  0  0  0  0  0  0
   -1.6277   18.9148  -32.6737 H   0  0  0  0  0  0  0  0  0  0  0  0
   -2.8221   18.2864  -34.0094 H   0  0  0  0  0  0  0  0  0  0  0  0
   -6.8864   17.8599  -35.2050 H   0  0  0  0  0  0  0  0  0  0  0  0
   -5.8667   20.9269  -32.4327 H   0  0  0  0  0  0  0  0  0  0  0  0
   -4.4941   22.0720  -31.7578 H   0  0  0  0  0  0  0  0  0  0  0  0
  1  2  1  0
  2  3  2  0
  2  4  1  0
  4  5  2  0
  5  6  1  0
  6  7  2  0
  7  8  1  0
  8  9  2  0
  9 10  1  0
 10 11  2  0
 11 12  1  0
 12 13  2  0
 13 14  1  0
 14 15  2  0
  9 16  1  0
 16 17  2  0
 17 18  1  0
 18 19  1  0
 19 20  2  0
 19 21  1  0
 18  4  1  0
 17  6  1  0
 15 10  1  0
  1 22  1  0
  5 23  1  0
  7 24  1  0
  8 25  1  0
 11 26  1  0
 13 27  1  0
 15 28  1  0
 16 29  1  0
M  CHG  2   1  -1  21  -1
M  END
>  <UniqueID>  (15) 
15

>  <SMILES>  (15) 
[NH-]C(=O)c1cc2ccc(-c3cncnc3)cc2n1C(=O)[O-]

>  <Energy>  (15) 
78.43684270750515

>  <Genealogy>  (15) 
[NH-]C(=O)c1cc2ccc(-c3cncnc3)cc2n1C(=O)[O-] (protonated)
[NH-]C(=O)c1cc2ccc(-c3cncnc3)cc2n1C(=O)[O-] (3D coordinates assigned)
[NH-]C(=O)c1cc2ccc(-c3cncnc3)cc2n1C(=O)[O-] (optimized conformer: 78.43684270750515 kcal/mol)

>  <smiles>  (15) 
NC(=O)c1cc2ccc(-c3cncnc3)cc2n1C(=O)O

>  <score_type>  (15) 
oracle

>  <origin>  (15) 
adg

>  <m_score__min__energy>  (15) 
-10.720000000000001

>  <m_primary>  (15) 
energy

$$$$
15:0
     RDKit          3D

 35 36  0  0  0  0  0  0  0  0999 V2000
   -8.6780   21.5870  -31.9510 C   0  0  0  0  0  0  0  0  0  0  0  0
   -8.4590   20.4600  -32.7900 O   0  0  0  0  0  0  0  0  0  0  0  0
   -8.0300   19.2230  -32.2940 C   0  0  0  0  0  0  0  0  0  0  0  0
   -8.8710   18.3370  -31.9800 O   0  0  0  0  0  0  0  0  0  0  0  0
   -6.5600   18.9230  -32.1680 C   0  0  1  0  0  0  0  0  0  0  0  0
   -6.1410   17.6210  -32.8650 C   0  0  0  0  0  0  0  0  0  0  0  0
   -5.7420   20.0540  -32.6280 N   0  0  0  0  0  0  0  0  0  0  0  0
   -4.5060   20.5190  -32.0430 C   0  0  0  0  0  0  0  0  0  0  0  0
   -3.3060   19.7570  -32.0870 C   0  0  0  0  0  0  0  0  0  0  0  0
   -2.1180   20.2520  -31.5260 C   0  0  0  0  0  0  0  0  0  0  0  0
   -2.1500   21.5040  -30.9250 C   0  0  0  0  0  0  0  0  0  0  0  0
   -1.1400   22.2280  -30.3350 C   0  0  0  0  0  0  0  0  0  0  0  0
   -1.7330   23.4170  -29.9180 C   0  0  0  0  0  0  0  0  0  0  0  0
   -1.0140   24.4580  -29.1530 C   0  0  0  0  0  0  0  0  0  0  0  0
   -1.5740   25.7560  -28.9730 N   0  0  0  0  0  0  0  0  0  0  0  0
    0.0870   24.1810  -28.6070 O   0  0  0  0  0  0  0  0  0  0  0  0
   -3.0560   23.4330  -30.2470 N   0  0  0  0  0  0  0  0  0  0  0  0
   -3.9960   24.5050  -30.0720 C   0  0  0  0  0  0  0  0  0  0  0  0
   -4.9320   24.4000  -29.2350 O   0  0  0  0  0  0  0  0  0  0  0  0
   -3.8680   25.6780  -30.8050 O   0  0  0  0  0  0  0  0  0  0  0  0
   -3.2950   22.2520  -30.8610 C   0  0  0  0  0  0  0  0  0  0  0  0
   -4.4890   21.7930  -31.4290 C   0  0  0  0  0  0  0  0  0  0  0  0
   -8.6177   21.2769  -30.8973 H   0  0  0  0  0  0  0  0  0  0  0  0
   -7.9112   22.3493  -32.1533 H   0  0  0  0  0  0  0  0  0  0  0  0
   -9.6745   22.0066  -32.1533 H   0  0  0  0  0  0  0  0  0  0  0  0
   -6.3747   18.7707  -31.0945 H   0  0  0  0  0  0  0  0  0  0  0  0
   -5.8967   16.8618  -32.1075 H   0  0  0  0  0  0  0  0  0  0  0  0
   -6.9680   17.2590  -33.4935 H   0  0  0  0  0  0  0  0  0  0  0  0
   -5.2581   17.8093  -33.4935 H   0  0  0  0  0  0  0  0  0  0  0  0
   -6.1330   20.6050  -33.4270 H   0  0  0  0  0  0  0  0  0  0  0  0
   -3.3087   18.7671  -32.5667 H   0  0  0  0  0  0  0  0  0  0  0  0
   -1.1883   19.6651  -31.5614 H   0  0  0  0  0  0  0  0  0  0  0  0
   -0.0874   21.9308  -30.2175 H   0  0  0  0  0  0  0  0  0  0  0  0
   -2.6080   25.9000  -28.9870 H   0  0  0  0  0  0  0  0  0  0  0  0
   -5.3978   22.4120  -31.3984 H   0  0  0  0  0  0  0  0  0  0  0  0
  1  2  1  0
  2  3  1  0
  3  4  2  0
  3  5  1  0
  5  6  1  0
  5  7  1  0
  7  8  1  0
  8  9  2  0
  9 10  1  0
 10 11  2  0
 11 12  1  0
 12 13  2  0
 13 14  1  0
 14 15  1  0
 14 16  2  0
 13 17  1  0
 17 18  1  0
 18 19  2  0
 18 20  1  0
 17 21  1  0
 21 22  2  0
 22  8  1  0
 21 11  1  0
  1 23  1  0
  1 24  1  0
  1 25  1  0
  5 26  1  1
  6 27  1  0
  6 28  1  0
  6 29  1  0
  7 30  1  0
  9 31  1  0
 10 32  1  0
 12 33  1  0
 15 34  1  0
 22 35  1  0
M  CHG  2  15  -1  20  -1
M  END
>  <UniqueID>  (16) 
16

>  <SMILES>  (16) 
COC(=O)[C@@H](C)Nc1ccc2cc(C([NH-])=O)n(C(=O)[O-])c2c1

>  <Energy>  (16) 
73.35890133438107

>  <Genealogy>  (16) 
COC(=O)C(C)Nc1ccc2cc(C([NH-])=O)n(C(=O)[O-])c2c1 (protonated)
COC(=O)[C@@H](C)Nc1ccc2cc(C([NH-])=O)n(C(=O)[O-])c2c1 (chirality)
COC(=O)[C@@H](C)Nc1ccc2cc(C([NH-])=O)n(C(=O)[O-])c2c1 (3D coordinates assigned)
COC(=O)[C@@H](C)Nc1ccc2cc(C([NH-])=O)n(C(=O)[O-])c2c1 (optimized conformer: 73.35890133438107 kcal/mol)

>  <smiles>  (16) 
COC(=O)C(C)Nc1ccc2cc(C(N)=O)n(C(=O)O)c2c1

>  <score_type>  (16) 
oracle

>  <origin>  (16) 
adg

>  <m_score__min__energy>  (16) 
-10.75

>  <m_primary>  (16) 
energy

$$$$
16:0
     RDKit          3D

 38 40  0  0  0  0  0  0  0  0999 V2000
   -1.7620   18.3440  -34.1790 C   0  0  0  0  0  0  0  0  0  0  0  0
   -2.5350   17.2360  -34.6200 O   0  0  0  0  0  0  0  0  0  0  0  0
   -3.2750   16.4340  -33.7440 C   0  0  0  0  0  0  0  0  0  0  0  0
   -2.6900   15.5870  -33.0150 O   0  0  0  0  0  0  0  0  0  0  0  0
   -4.7030   16.5800  -33.6780 N   0  0  0  0  0  0  0  0  0  0  0  0
   -5.6410   15.6330  -33.9580 C   0  0  0  0  0  0  0  0  0  0  0  0
   -5.3820   14.3080  -34.5540 C   0  0  0  0  0  0  0  0  0  0  0  0
   -4.0570   13.8930  -34.8900 N   0  0  0  0  0  0  0  0  0  0  0  0
   -6.3520   13.5490  -34.8220 O   0  0  0  0  0  0  0  0  0  0  0  0
   -6.9170   16.0990  -33.6530 C   0  0  0  0  0  0  0  0  0  0  0  0
   -6.7340   17.3800  -33.1850 C   0  0  0  0  0  0  0  0  0  0  0  0
   -7.6660   18.3040  -32.7250 C   0  0  0  0  0  0  0  0  0  0  0  0
   -7.1940   19.5430  -32.2640 C   0  0  0  0  0  0  0  0  0  0  0  0
   -5.8050   19.8310  -32.2550 C   0  0  0  0  0  0  0  0  0  0  0  0
   -5.3120   21.1390  -31.7600 C   0  0  0  0  0  0  0  0  0  0  0  0
   -4.0900   21.2140  -31.0720 C   0  0  0  0  0  0  0  0  0  0  0  0
   -3.6120   22.4410  -30.6030 C   0  0  0  0  0  0  0  0  0  0  0  0
   -4.3470   23.6200  -30.8110 C   0  0  0  0  0  0  0  0  0  0  0  0
   -3.8440   24.9210  -30.3190 C   0  0  0  0  0  0  0  0  0  0  0  0
   -4.4950   25.9790  -30.5250 O   0  0  0  0  0  0  0  0  0  0  0  0
   -2.6430   24.9940  -29.6200 O   0  0  0  0  0  0  0  0  0  0  0  0
   -5.5730   23.5460  -31.4940 C   0  0  0  0  0  0  0  0  0  0  0  0
   -6.0540   22.3190  -31.9640 C   0  0  0  0  0  0  0  0  0  0  0  0
   -7.2610   22.2820  -32.5830 F   0  0  0  0  0  0  0  0  0  0  0  0
   -4.8880   18.8660  -32.7330 C   0  0  0  0  0  0  0  0  0  0  0  0
   -5.3890   17.6470  -33.2080 C   0  0  0  0  0  0  0  0  0  0  0  0
   -1.7467   18.3659  -33.0793 H   0  0  0  0  0  0  0  0  0  0  0  0
   -0.7339   18.2479  -34.5582 H   0  0  0  0  0  0  0  0  0  0  0  0
   -2.2071   19.2757  -34.5582 H   0  0  0  0  0  0  0  0  0  0  0  0
   -3.2540   14.5580  -34.8370 H   0  0  0  0  0  0  0  0  0  0  0  0
   -3.8890   12.9370  -35.2740 H   0  0  0  0  0  0  0  0  0  0  0  0
   -7.8687   15.5584  -33.7628 H   0  0  0  0  0  0  0  0  0  0  0  0
   -8.7410   18.0709  -32.7225 H   0  0  0  0  0  0  0  0  0  0  0  0
   -7.9088   20.2986  -31.9059 H   0  0  0  0  0  0  0  0  0  0  0  0
   -3.5038   20.2991  -30.9007 H   0  0  0  0  0  0  0  0  0  0  0  0
   -2.6525   22.4837  -30.0667 H   0  0  0  0  0  0  0  0  0  0  0  0
   -6.1600   24.4613  -31.6607 H   0  0  0  0  0  0  0  0  0  0  0  0
   -3.8067   19.0680  -32.7318 H   0  0  0  0  0  0  0  0  0  0  0  0
  1  2  1  0
  2  3  1  0
  3  4  2  0
  3  5  1  0
  5  6  1  0
  6  7  1  0
  7  8  1  0
  7  9  2  0
  6 10  2  0
 10 11  1  0
 11 12  2  0
 12 13  1  0
 13 14  2  0
 14 15  1  0
 15 16  2  0
 16 17  1  0
 17 18  2  0
 18 19  1  0
 19 20  2  0
 19 21  1  0
 18 22  1  0
 22 23  2  0
 23 24  1  0
 14 25  1  0
 25 26  2  0
 26  5  1  0
 26 11  1  0
 23 15  1  0
  1 27  1  0
  1 28  1  0
  1 29  1  0
  8 30  1  0
  8 31  1  0
 10 32  1  0
 12 33  1  0
 13 34  1  0
 16 35  1  0
 17 36  1  0
 22 37  1  0
 25 38  1  0
M  CHG  1  21  -1
M  END
>  <UniqueID>  (17) 
17

>  <SMILES>  (17) 
COC(=O)n1c(C(N)=O)cc2ccc(-c3ccc(C(=O)[O-])cc3F)cc21

>  <Energy>  (17) 
84.92599656393283

>  <Genealogy>  (17) 
COC(=O)n1c(C(N)=O)cc2ccc(-c3ccc(C(=O)[O-])cc3F)cc21 (protonated)
COC(=O)n1c(C(N)=O)cc2ccc(-c3ccc(C(=O)[O-])cc3F)cc21 (3D coordinates assigned)
COC(=O)n1c(C(N)=O)cc2ccc(-c3ccc(C(=O)[O-])cc3F)cc21 (optimized conformer: 84.92599656393283 kcal/mol)

>  <smiles>  (17) 
COC(=O)n1c(C(N)=O)cc2ccc(-c3ccc(C(=O)O)cc3F)cc21

>  <score_type>  (17) 
oracle

>  <origin>  (17) 
adg

>  <m_score__min__energy>  (17) 
-8.9299999999999997

>  <m_primary>  (17) 
energy

$$$$
17:0
     RDKit          3D

 26 27  0  0  0  0  0  0  0  0999 V2000
   -3.1290   23.6120  -30.8400 N   0  0  0  0  0  0  0  0  0  0  0  0
   -3.8710   22.6790  -31.6220 C   0  0  0  0  0  0  0  0  0  0  0  0
   -3.2580   21.8550  -32.3520 O   0  0  0  0  0  0  0  0  0  0  0  0
   -5.3090   22.6680  -31.5680 N   0  0  0  0  0  0  0  0  0  0  0  0
   -6.1240   23.6000  -30.9950 C   0  0  0  0  0  0  0  0  0  0  0  0
   -5.7010   24.9120  -30.4660 C   0  0  0  0  0  0  0  0  0  0  0  0
   -6.0300   25.3140  -29.1360 N   0  0  0  0  0  0  0  0  0  0  0  0
   -4.9890   25.6660  -31.1810 O   0  0  0  0  0  0  0  0  0  0  0  0
   -7.4500   23.1780  -31.0240 C   0  0  0  0  0  0  0  0  0  0  0  0
   -7.4280   21.9530  -31.6500 C   0  0  0  0  0  0  0  0  0  0  0  0
   -8.4700   21.0760  -31.9340 C   0  0  0  0  0  0  0  0  0  0  0  0
   -8.1550   19.8580  -32.5590 C   0  0  0  0  0  0  0  0  0  0  0  0
   -6.8120   19.5370  -32.8790 C   0  0  0  0  0  0  0  0  0  0  0  0
   -6.4760   18.2250  -33.5290 C   0  0  0  0  0  0  0  0  0  0  0  0
   -6.1410   18.4340  -34.8540 F   0  0  0  0  0  0  0  0  0  0  0  0
   -7.5670   17.3780  -33.4610 F   0  0  0  0  0  0  0  0  0  0  0  0
   -5.7790   20.4510  -32.5710 C   0  0  0  0  0  0  0  0  0  0  0  0
   -6.1240   21.6670  -31.9680 C   0  0  0  0  0  0  0  0  0  0  0  0
   -3.1310   24.6300  -31.0730 H   0  0  0  0  0  0  0  0  0  0  0  0
   -5.7540   26.2600  -28.7910 H   0  0  0  0  0  0  0  0  0  0  0  0
   -6.4750   24.6480  -28.4660 H   0  0  0  0  0  0  0  0  0  0  0  0
   -8.3284   23.7104  -30.6303 H   0  0  0  0  0  0  0  0  0  0  0  0
   -9.5092   21.3287  -31.6769 H   0  0  0  0  0  0  0  0  0  0  0  0
   -8.9581   19.1467  -32.8023 H   0  0  0  0  0  0  0  0  0  0  0  0
   -5.6245   17.7695  -33.0023 H   0  0  0  0  0  0  0  0  0  0  0  0
   -4.7296   20.2131  -32.7993 H   0  0  0  0  0  0  0  0  0  0  0  0
  1  2  1  0
  2  3  2  0
  2  4  1  0
  4  5  1  0
  5  6  1  0
  6  7  1  0
  6  8  2  0
  5  9  2  0
  9 10  1  0
 10 11  2  0
 11 12  1  0
 12 13  2  0
 13 14  1  0
 14 15  1  0
 14 16  1  0
 13 17  1  0
 17 18  2  0
 18  4  1  0
 18 10  1  0
  1 19  1  0
  7 20  1  0
  7 21  1  0
  9 22  1  0
 11 23  1  0
 12 24  1  0
 14 25  1  0
 17 26  1  0
M  CHG  1   1  -1
M  END
>  <UniqueID>  (18) 
18

>  <SMILES>  (18) 
[NH-]C(=O)n1c(C(N)=O)cc2ccc(C(F)F)cc21

>  <Energy>  (18) 
65.7062275294796

>  <Genealogy>  (18) 
[NH-]C(=O)n1c(C(N)=O)cc2ccc(C(F)F)cc21 (protonated)
[NH-]C(=O)n1c(C(N)=O)cc2ccc(C(F)F)cc21 (3D coordinates assigned)
[NH-]C(=O)n1c(C(N)=O)cc2ccc(C(F)F)cc21 (optimized conformer: 65.7062275294796 kcal/mol)

>  <smiles>  (18) 
NC(=O)c1cc2ccc(C(F)F)cc2n1C(N)=O

>  <score_type>  (18) 
oracle

>  <origin>  (18) 
adg

>  <m_score__min__energy>  (18) 
-8.0600000000000005

>  <m_primary>  (18) 
energy

$$$$
18:0
     RDKit          3D

 53 56  0  0  0  0  0  0  0  0999 V2000
   -3.3740   21.9660  -28.8710 C   0  0  0  0  0  0  0  0  0  0  0  0
   -3.8390   21.4860  -30.1270 O   0  0  0  0  0  0  0  0  0  0  0  0
   -4.2600   22.3380  -31.1520 C   0  0  0  0  0  0  0  0  0  0  0  0
   -3.4590   22.6780  -32.0660 O   0  0  0  0  0  0  0  0  0  0  0  0
   -5.6170   22.8070  -31.1780 N   0  0  0  0  0  0  0  0  0  0  0  0
   -6.0860   24.0200  -30.7700 C   0  0  0  0  0  0  0  0  0  0  0  0
   -5.2620   25.1820  -30.3770 C   0  0  0  0  0  0  0  0  0  0  0  0
   -3.8750   25.2410  -30.7020 N   0  0  0  0  0  0  0  0  0  0  0  0
   -5.8000   26.1590  -29.7890 O   0  0  0  0  0  0  0  0  0  0  0  0
   -7.4770   24.0580  -30.8460 C   0  0  0  0  0  0  0  0  0  0  0  0
   -7.8490   22.8240  -31.3270 C   0  0  0  0  0  0  0  0  0  0  0  0
   -9.1170   22.3070  -31.5790 C   0  0  0  0  0  0  0  0  0  0  0  0
   -9.2090   20.9810  -32.0360 C   0  0  0  0  0  0  0  0  0  0  0  0
   -8.0410   20.2040  -32.2350 C   0  0  0  0  0  0  0  0  0  0  0  0
   -8.1520   18.7700  -32.6750 C   0  0  0  0  0  0  0  0  0  0  0  0
   -6.9360   17.9620  -32.1820 C   0  0  0  0  0  0  0  0  0  0  0  0
   -6.2680   17.2210  -33.2820 N   0  0  0  0  0  0  0  0  0  0  0  0
   -5.1070   16.4450  -32.7620 C   0  0  0  0  0  0  0  0  0  0  0  0
   -3.8070   17.2620  -32.7740 C   0  0  0  0  0  0  0  0  0  0  0  0
   -3.4860   17.7570  -34.1310 N   0  0  0  0  0  0  0  0  0  0  0  0
   -2.5100   18.8770  -34.1740 C   0  0  0  0  0  0  0  0  0  0  0  0
   -2.1240   19.4740  -32.8210 C   0  0  0  0  0  0  0  0  0  0  0  0
   -2.9750   20.2830  -33.7780 C   0  0  0  0  0  0  0  0  0  0  0  0
   -4.6000   17.7340  -35.0990 C   0  0  0  0  0  0  0  0  0  0  0  0
   -5.9130   18.1310  -34.4130 C   0  0  0  0  0  0  0  0  0  0  0  0
   -6.7720   20.7600  -31.9570 C   0  0  0  0  0  0  0  0  0  0  0  0
   -6.7090   22.0870  -31.5200 C   0  0  0  0  0  0  0  0  0  0  0  0
   -3.8912   21.4321  -28.0602 H   0  0  0  0  0  0  0  0  0  0  0  0
   -2.2906   21.7936  -28.7909 H   0  0  0  0  0  0  0  0  0  0  0  0
   -3.5807   23.0434  -28.7909 H   0  0  0  0  0  0  0  0  0  0  0  0
   -3.4820   26.0500  -31.2300 H   0  0  0  0  0  0  0  0  0  0  0  0
   -8.1370   24.8963  -30.5783 H   0  0  0  0  0  0  0  0  0  0  0  0
  -10.0190   22.9175  -31.4252 H   0  0  0  0  0  0  0  0  0  0  0  0
  -10.1968   20.5425  -32.2410 H   0  0  0  0  0  0  0  0  0  0  0  0
   -9.0711   18.3328  -32.2578 H   0  0  0  0  0  0  0  0  0  0  0  0
   -8.1823   18.7350  -33.7740 H   0  0  0  0  0  0  0  0  0  0  0  0
   -6.2105   18.6547  -31.7305 H   0  0  0  0  0  0  0  0  0  0  0  0
   -7.2966   17.2244  -31.4499 H   0  0  0  0  0  0  0  0  0  0  0  0
   -6.9550   16.5160  -33.6440 H   0  0  0  0  0  0  0  0  0  0  0  0
   -5.3218   16.1374  -31.7280 H   0  0  0  0  0  0  0  0  0  0  0  0
   -4.9631   15.5744  -33.4187 H   0  0  0  0  0  0  0  0  0  0  0  0
   -3.9200   18.1223  -32.0979 H   0  0  0  0  0  0  0  0  0  0  0  0
   -2.9868   16.6075  -32.4441 H   0  0  0  0  0  0  0  0  0  0  0  0
   -1.9832   18.4643  -35.0470 H   0  0  0  0  0  0  0  0  0  0  0  0
   -2.5673   19.0727  -31.8977 H   0  0  0  0  0  0  0  0  0  0  0  0
   -1.1748   19.6466  -32.2926 H   0  0  0  0  0  0  0  0  0  0  0  0
   -4.0351   20.4671  -33.5494 H   0  0  0  0  0  0  0  0  0  0  0  0
   -2.8982   21.2826  -34.2306 H   0  0  0  0  0  0  0  0  0  0  0  0
   -4.3876   18.4429  -35.9129 H   0  0  0  0  0  0  0  0  0  0  0  0
   -4.7017   16.7154  -35.5017 H   0  0  0  0  0  0  0  0  0  0  0  0
   -5.8114   19.1546  -34.0232 H   0  0  0  0  0  0  0  0  0  0  0  0
   -6.7153   18.0602  -35.1623 H   0  0  0  0  0  0  0  0  0  0  0  0
   -5.8561   20.1636  -32.0813 H   0  0  0  0  0  0  0  0  0  0  0  0
  1  2  1  0
  2  3  1  0
  3  4  2  0
  3  5  1  0
  5  6  1  0
  6  7  1  0
  7  8  1  0
  7  9  2  0
  6 10  2  0
 10 11  1  0
 11 12  2  0
 12 13  1  0
 13 14  2  0
 14 15  1  0
 15 16  1  0
 16 17  1  0
 17 18  1  0
 18 19  1  0
 19 20  1  0
 20 21  1  0
 21 22  1  0
 22 23  1  0
 20 24  1  0
 24 25  1  0
 14 26  1  0
 26 27  2  0
 27  5  1  0
 27 11  1  0
 25 17  1  0
 23 21  1  0
  1 28  1  0
  1 29  1  0
  1 30  1  0
  8 31  1  0
 10 32  1  0
 12 33  1  0
 13 34  1  0
 15 35  1  0
 15 36  1  0
 16 37  1  0
 16 38  1  0
 17 39  1  0
 18 40  1  0
 18 41  1  0
 19 42  1  0
 19 43  1  0
 21 44  1  0
 22 45  1  0
 22 46  1  0
 23 47  1  0
 23 48  1  0
 24 49  1  0
 24 50  1  0
 25 51  1  0
 25 52  1  0
 26 53  1  0
M  CHG  2   8  -1  17   1
M  END
>  <UniqueID>  (19) 
19

>  <SMILES>  (19) 
COC(=O)n1c(C([NH-])=O)cc2ccc(CC[NH+]3CCN(C4CC4)CC3)cc21

>  <Energy>  (19) 
380.66063292065843

>  <Genealogy>  (19) 
COC(=O)n1c(C([NH-])=O)cc2ccc(CC[NH+]3CCN(C4CC4)CC3)cc21 (protonated)
COC(=O)n1c(C([NH-])=O)cc2ccc(CC[NH+]3CCN(C4CC4)CC3)cc21 (3D coordinates assigned)
COC(=O)n1c(C([NH-])=O)cc2ccc(CC[NH+]3CCN(C4CC4)CC3)cc21 (nonaromatic ring conformer: 380.66063292065843 kcal/mol)

>  <smiles>  (19) 
COC(=O)n1c(C(N)=O)cc2ccc(CCN3CCN(C4CC4)CC3)cc21

>  <score_type>  (19) 
oracle

>  <origin>  (19) 
adg

>  <m_score__min__energy>  (19) 
-10.5

>  <m_primary>  (19) 
energy

$$$$
19:0
     RDKit          3D

 44 46  0  0  0  0  0  0  0  0999 V2000
   -6.4620   23.7930  -30.2190 C   0  0  0  0  0  0  0  0  0  0  0  0
   -5.1510   23.8390  -29.4380 C   0  0  0  0  0  0  0  0  0  0  0  0
   -3.9850   24.1740  -30.3230 C   0  0  0  0  0  0  0  0  0  0  0  0
   -3.9010   25.3210  -30.8410 O   0  0  0  0  0  0  0  0  0  0  0  0
   -2.9200   23.2300  -30.5190 N   0  0  0  0  0  0  0  0  0  0  0  0
   -1.6330   23.3240  -30.0800 C   0  0  0  0  0  0  0  0  0  0  0  0
   -1.0930   24.3800  -29.1970 C   0  0  0  0  0  0  0  0  0  0  0  0
   -1.8120   25.5890  -28.9690 N   0  0  0  0  0  0  0  0  0  0  0  0
    0.0070   24.1990  -28.6100 O   0  0  0  0  0  0  0  0  0  0  0  0
   -0.8840   22.2390  -30.5320 C   0  0  0  0  0  0  0  0  0  0  0  0
   -1.7590   21.4710  -31.2670 C   0  0  0  0  0  0  0  0  0  0  0  0
   -1.5480   20.2780  -31.9500 C   0  0  0  0  0  0  0  0  0  0  0  0
   -2.6350   19.7140  -32.6420 C   0  0  0  0  0  0  0  0  0  0  0  0
   -3.8970   20.3590  -32.6550 C   0  0  0  0  0  0  0  0  0  0  0  0
   -5.0060   19.7680  -33.3570 N   0  0  0  0  0  0  0  0  0  0  0  0
   -4.8420   18.4790  -34.0370 C   0  0  0  0  0  0  0  0  0  0  0  0
   -6.1950   17.7580  -34.1660 C   0  0  0  0  0  0  0  0  0  0  0  0
   -7.0450   17.9660  -32.9720 N   0  0  0  0  0  0  0  0  0  0  0  0
   -6.4870   17.3040  -31.7800 C   0  0  0  0  0  0  0  0  0  0  0  0
   -7.3570   19.3960  -32.7160 C   0  0  0  0  0  0  0  0  0  0  0  0
   -6.3390   20.3760  -33.3280 C   0  0  0  0  0  0  0  0  0  0  0  0
   -4.0700   21.5680  -31.9450 C   0  0  0  0  0  0  0  0  0  0  0  0
   -2.9790   22.0940  -31.2470 C   0  0  0  0  0  0  0  0  0  0  0  0
   -7.3071   23.7633  -29.5155 H   0  0  0  0  0  0  0  0  0  0  0  0
   -6.5433   24.6888  -30.8521 H   0  0  0  0  0  0  0  0  0  0  0  0
   -6.4803   22.8937  -30.8521 H   0  0  0  0  0  0  0  0  0  0  0  0
   -5.2320   24.6037  -28.6514 H   0  0  0  0  0  0  0  0  0  0  0  0
   -4.9762   22.8429  -29.0053 H   0  0  0  0  0  0  0  0  0  0  0  0
   -2.8060   25.6880  -29.2730 H   0  0  0  0  0  0  0  0  0  0  0  0
    0.1807   22.0387  -30.3418 H   0  0  0  0  0  0  0  0  0  0  0  0
   -0.5618   19.7907  -31.9491 H   0  0  0  0  0  0  0  0  0  0  0  0
   -2.5043   18.7627  -33.1785 H   0  0  0  0  0  0  0  0  0  0  0  0
   -4.4267   18.6504  -35.0411 H   0  0  0  0  0  0  0  0  0  0  0  0
   -4.1605   17.8503  -33.4451 H   0  0  0  0  0  0  0  0  0  0  0  0
   -6.7221   18.1457  -35.0502 H   0  0  0  0  0  0  0  0  0  0  0  0
   -5.9999   16.6798  -34.2631 H   0  0  0  0  0  0  0  0  0  0  0  0
   -6.8889   17.7808  -30.8739 H   0  0  0  0  0  0  0  0  0  0  0  0
   -6.7645   16.2396  -31.7881 H   0  0  0  0  0  0  0  0  0  0  0  0
   -5.3910   17.3973  -31.7881 H   0  0  0  0  0  0  0  0  0  0  0  0
   -8.3477   19.6157  -33.1406 H   0  0  0  0  0  0  0  0  0  0  0  0
   -7.3233   19.5400  -31.6260 H   0  0  0  0  0  0  0  0  0  0  0  0
   -6.6468   20.6260  -34.3540 H   0  0  0  0  0  0  0  0  0  0  0  0
   -6.3044   21.2879  -32.7137 H   0  0  0  0  0  0  0  0  0  0  0  0
   -5.0415   22.0840  -31.9415 H   0  0  0  0  0  0  0  0  0  0  0  0
  1  2  1  0
  2  3  1  0
  3  4  2  0
  3  5  1  0
  5  6  1  0
  6  7  1  0
  7  8  1  0
  7  9  2  0
  6 10  2  0
 10 11  1  0
 11 12  2  0
 12 13  1  0
 13 14  2  0
 14 15  1  0
 15 16  1  0
 16 17  1  0
 17 18  1  0
 18 19  1  0
 18 20  1  0
 20 21  1  0
 14 22  1  0
 22 23  2  0
 23  5  1  0
 23 11  1  0
 21 15  1  0
  1 24  1  0
  1 25  1  0
  1 26  1  0
  2 27  1  0
  2 28  1  0
  8 29  1  0
 10 30  1  0
 12 31  1  0
 13 32  1  0
 16 33  1  0
 16 34  1  0
 17 35  1  0
 17 36  1  0
 19 37  1  0
 19 38  1  0
 19 39  1  0
 20 40  1  0
 20 41  1  0
 21 42  1  0
 21 43  1  0
 22 44  1  0
M  CHG  1   8  -1
M  END
>  <UniqueID>  (20) 
20

>  <SMILES>  (20) 
CCC(=O)n1c(C([NH-])=O)cc2ccc(N3CCN(C)CC3)cc21

>  <Energy>  (20) 
92.63009041062587

>  <Genealogy>  (20) 
CCC(=O)n1c(C([NH-])=O)cc2ccc(N3CCN(C)CC3)cc21 (protonated)
CCC(=O)n1c(C([NH-])=O)cc2ccc(N3CCN(C)CC3)cc21 (3D coordinates assigned)
CCC(=O)n1c(C([NH-])=O)cc2ccc(N3CCN(C)CC3)cc21 (nonaromatic ring conformer: 92.63009041062587 kcal/mol)

>  <smiles>  (20) 
CCC(=O)n1c(C(N)=O)cc2ccc(N3CCN(C)CC3)cc21

>  <score_type>  (20) 
oracle

>  <origin>  (20) 
adg

>  <m_score__min__energy>  (20) 
-11.029999999999999

>  <m_primary>  (20) 
energy

$$$$
20:0
     RDKit          3D

 34 36  0  0  0  0  0  0  0  0999 V2000
   -3.8760   25.6110  -30.8430 N   0  0  0  0  0  0  0  0  0  0  0  0
   -5.2010   25.3010  -30.4180 C   0  0  0  0  0  0  0  0  0  0  0  0
   -5.8260   26.1260  -29.7000 O   0  0  0  0  0  0  0  0  0  0  0  0
   -5.8650   24.0530  -30.8480 C   0  0  0  0  0  0  0  0  0  0  0  0
   -7.2480   23.8810  -30.8570 C   0  0  0  0  0  0  0  0  0  0  0  0
   -7.4580   22.6350  -31.4020 C   0  0  0  0  0  0  0  0  0  0  0  0
   -8.6440   21.9450  -31.6350 C   0  0  0  0  0  0  0  0  0  0  0  0
   -8.5600   20.6550  -32.1830 C   0  0  0  0  0  0  0  0  0  0  0  0
   -7.3000   20.0820  -32.4900 C   0  0  0  0  0  0  0  0  0  0  0  0
   -7.2210   18.6840  -33.0360 C   0  0  0  0  0  0  0  0  0  0  0  0
   -6.0190   18.5430  -33.9150 C   0  0  0  0  0  0  0  0  0  0  0  0
   -4.9300   18.1320  -33.4370 O   0  0  0  0  0  0  0  0  0  0  0  0
   -6.0890   18.9140  -35.2520 O   0  0  0  0  0  0  0  0  0  0  0  0
   -6.1170   20.8070  -32.2300 C   0  0  0  0  0  0  0  0  0  0  0  0
   -6.2320   22.0950  -31.6970 C   0  0  0  0  0  0  0  0  0  0  0  0
   -5.2440   22.9510  -31.3570 N   0  0  0  0  0  0  0  0  0  0  0  0
   -3.8340   22.6960  -31.4440 C   0  0  0  0  0  0  0  0  0  0  0  0
   -3.0660   23.1550  -30.5560 O   0  0  0  0  0  0  0  0  0  0  0  0
   -3.3060   21.9740  -32.5670 N   0  0  0  0  0  0  0  0  0  0  0  0
   -1.9610   21.4850  -32.6690 C   0  0  0  0  0  0  0  0  0  0  0  0
   -1.3250   21.3590  -33.8540 N   0  0  0  0  0  0  0  0  0  0  0  0
   -0.0760   20.8430  -33.7070 C   0  0  0  0  0  0  0  0  0  0  0  0
    0.2910   20.5450  -32.3990 C   0  0  0  0  0  0  0  0  0  0  0  0
   -0.9990   20.9430  -31.3950 S   0  0  0  0  0  0  0  0  0  0  0  0
   -3.0480   25.2980  -30.2910 H   0  0  0  0  0  0  0  0  0  0  0  0
   -8.0102   24.5909  -30.5034 H   0  0  0  0  0  0  0  0  0  0  0  0
   -9.6182   22.3968  -31.3969 H   0  0  0  0  0  0  0  0  0  0  0  0
   -9.4801   20.0838  -32.3759 H   0  0  0  0  0  0  0  0  0  0  0  0
   -7.1472   17.9711  -32.2016 H   0  0  0  0  0  0  0  0  0  0  0  0
   -8.1255   18.4764  -33.6266 H   0  0  0  0  0  0  0  0  0  0  0  0
   -5.1298   20.3701  -32.4412 H   0  0  0  0  0  0  0  0  0  0  0  0
   -3.9460   21.7930  -33.3730 H   0  0  0  0  0  0  0  0  0  0  0  0
    0.5961   20.6733  -34.5611 H   0  0  0  0  0  0  0  0  0  0  0  0
    1.2548   20.1234  -32.0776 H   0  0  0  0  0  0  0  0  0  0  0  0
  1  2  1  0
  2  3  2  0
  2  4  1  0
  4  5  2  0
  5  6  1  0
  6  7  2  0
  7  8  1  0
  8  9  2  0
  9 10  1  0
 10 11  1  0
 11 12  2  0
 11 13  1  0
  9 14  1  0
 14 15  2  0
 15 16  1  0
 16 17  1  0
 17 18  2  0
 17 19  1  0
 19 20  1  0
 20 21  2  0
 21 22  1  0
 22 23  2  0
 23 24  1  0
 16  4  1  0
 24 20  1  0
 15  6  1  0
  1 25  1  0
  5 26  1  0
  7 27  1  0
  8 28  1  0
 10 29  1  0
 10 30  1  0
 14 31  1  0
 19 32  1  0
 22 33  1  0
 23 34  1  0
M  CHG  2   1  -1  13  -1
M  END
>  <UniqueID>  (21) 
21

>  <SMILES>  (21) 
[NH-]C(=O)c1cc2ccc(CC(=O)[O-])cc2n1C(=O)Nc1nccs1

>  <Energy>  (21) 
105.19932351979918

>  <Genealogy>  (21) 
[NH-]C(=O)c1cc2ccc(CC(=O)[O-])cc2n1C(=O)Nc1nccs1 (protonated)
[NH-]C(=O)c1cc2ccc(CC(=O)[O-])cc2n1C(=O)Nc1nccs1 (3D coordinates assigned)
[NH-]C(=O)c1cc2ccc(CC(=O)[O-])cc2n1C(=O)Nc1nccs1 (optimized conformer: 105.19932351979918 kcal/mol)

>  <smiles>  (21) 
NC(=O)c1cc2ccc(CC(=O)O)cc2n1C(=O)Nc1nccs1

>  <score_type>  (21) 
oracle

>  <origin>  (21) 
adg

>  <m_score__min__energy>  (21) 
-10.9

>  <m_primary>  (21) 
energy

$$$$
21:0
     RDKit          3D

 43 45  0  0  0  0  0  0  0  0999 V2000
   -5.4000   23.7460  -29.8430 C   0  0  0  0  0  0  0  0  0  0  0  0
   -4.0740   24.1700  -30.3940 C   0  0  0  0  0  0  0  0  0  0  0  0
   -3.9010   25.3720  -30.7270 O   0  0  0  0  0  0  0  0  0  0  0  0
   -2.9790   23.2450  -30.4650 N   0  0  0  0  0  0  0  0  0  0  0  0
   -1.7680   23.3220  -29.8440 C   0  0  0  0  0  0  0  0  0  0  0  0
   -1.3810   24.3160  -28.8220 C   0  0  0  0  0  0  0  0  0  0  0  0
   -1.7350   25.6890  -28.9650 N   0  0  0  0  0  0  0  0  0  0  0  0
   -0.7630   23.9420  -27.7890 O   0  0  0  0  0  0  0  0  0  0  0  0
   -0.9460   22.2700  -30.2470 C   0  0  0  0  0  0  0  0  0  0  0  0
   -1.7020   21.5360  -31.1330 C   0  0  0  0  0  0  0  0  0  0  0  0
   -1.3780   20.3890  -31.8530 C   0  0  0  0  0  0  0  0  0  0  0  0
   -2.3480   19.8620  -32.7220 C   0  0  0  0  0  0  0  0  0  0  0  0
   -3.6160   20.4830  -32.8510 C   0  0  0  0  0  0  0  0  0  0  0  0
   -4.6260   19.9510  -33.8300 C   0  0  0  0  0  0  0  0  0  0  0  0
   -5.5990   19.0430  -33.1270 C   0  0  0  0  0  0  0  0  0  0  0  0
   -5.2210   17.9400  -32.7550 O   0  0  0  0  0  0  0  0  0  0  0  0
   -6.9590   19.4770  -32.8660 N   0  0  0  0  0  0  0  0  0  0  0  0
   -7.5710   18.6360  -31.8150 C   0  0  0  0  0  0  0  0  0  0  0  0
   -9.1050   18.7990  -31.7710 C   0  0  0  0  0  0  0  0  0  0  0  0
   -9.7000   20.4300  -32.3660 S   0  0  0  0  0  0  0  0  0  0  0  0
   -8.2500   21.3630  -31.7850 C   0  0  0  0  0  0  0  0  0  0  0  0
   -6.9670   20.9180  -32.5090 C   0  0  0  0  0  0  0  0  0  0  0  0
   -3.9060   21.6480  -32.1080 C   0  0  0  0  0  0  0  0  0  0  0  0
   -2.9240   22.1440  -31.2440 C   0  0  0  0  0  0  0  0  0  0  0  0
   -5.3612   23.7584  -28.7438 H   0  0  0  0  0  0  0  0  0  0  0  0
   -6.1801   24.4395  -30.1902 H   0  0  0  0  0  0  0  0  0  0  0  0
   -5.6330   22.7286  -30.1902 H   0  0  0  0  0  0  0  0  0  0  0  0
   -2.7360   25.9880  -28.9670 H   0  0  0  0  0  0  0  0  0  0  0  0
    0.0866   22.0694  -29.9254 H   0  0  0  0  0  0  0  0  0  0  0  0
   -0.3934   19.9105  -31.7448 H   0  0  0  0  0  0  0  0  0  0  0  0
   -2.1215   18.9590  -33.3079 H   0  0  0  0  0  0  0  0  0  0  0  0
   -5.1735   20.7918  -34.2809 H   0  0  0  0  0  0  0  0  0  0  0  0
   -4.1035   19.3818  -34.6129 H   0  0  0  0  0  0  0  0  0  0  0  0
   -7.5130   19.3520  -33.7480 H   0  0  0  0  0  0  0  0  0  0  0  0
   -7.3307   17.5819  -32.0177 H   0  0  0  0  0  0  0  0  0  0  0  0
   -7.1655   18.9544  -30.8433 H   0  0  0  0  0  0  0  0  0  0  0  0
   -9.5541   18.0164  -32.4002 H   0  0  0  0  0  0  0  0  0  0  0  0
   -9.4035   18.7172  -30.7154 H   0  0  0  0  0  0  0  0  0  0  0  0
   -8.4144   22.4340  -31.9746 H   0  0  0  0  0  0  0  0  0  0  0  0
   -8.1240   21.1710  -30.7092 H   0  0  0  0  0  0  0  0  0  0  0  0
   -6.8665   21.5064  -33.4330 H   0  0  0  0  0  0  0  0  0  0  0  0
   -6.1294   21.0846  -31.8157 H   0  0  0  0  0  0  0  0  0  0  0  0
   -4.8786   22.1524  -32.2060 H   0  0  0  0  0  0  0  0  0  0  0  0
  1  2  1  0
  2  3  2  0
  2  4  1  0
  4  5  1  0
  5  6  1  0
  6  7  1  0
  6  8  2  0
  5  9  2  0
  9 10  1  0
 10 11  2  0
 11 12  1  0
 12 13  2  0
 13 14  1  0
 14 15  1  0
 15 16  2  0
 15 17  1  0
 17 18  1  0
 18 19  1  0
 19 20  1  0
 20 21  1  0
 21 22  1  0
 13 23  1  0
 23 24  2  0
 24  4  1  0
 24 10  1  0
 22 17  1  0
  1 25  1  0
  1 26  1  0
  1 27  1  0
  7 28  1  0
  9 29  1  0
 11 30  1  0
 12 31  1  0
 14 32  1  0
 14 33  1  0
 17 34  1  0
 18 35  1  0
 18 36  1  0
 19 37  1  0
 19 38  1  0
 21 39  1  0
 21 40  1  0
 22 41  1  0
 22 42  1  0
 23 43  1  0
M  CHG  2   7  -1  17   1
M  END
>  <UniqueID>  (22) 
22

>  <SMILES>  (22) 
CC(=O)n1c(C([NH-])=O)cc2ccc(CC(=O)[NH+]3CCSCC3)cc21

>  <Energy>  (22) 
86.4906454148333

>  <Genealogy>  (22) 
CC(=O)n1c(C([NH-])=O)cc2ccc(CC(=O)[NH+]3CCSCC3)cc21 (protonated)
CC(=O)n1c(C([NH-])=O)cc2ccc(CC(=O)[NH+]3CCSCC3)cc21 (3D coordinates assigned)
CC(=O)n1c(C([NH-])=O)cc2ccc(CC(=O)[NH+]3CCSCC3)cc21 (nonaromatic ring conformer: 86.4906454148333 kcal/mol)

>  <smiles>  (22) 
CC(=O)n1c(C(N)=O)cc2ccc(CC(=O)N3CCSCC3)cc21

>  <score_type>  (22) 
oracle

>  <origin>  (22) 
adg

>  <m_score__min__energy>  (22) 
-10.84

>  <m_primary>  (22) 
energy

$$$$
22:0
     RDKit          3D

 42 44  0  0  0  0  0  0  0  0999 V2000
   -3.1460   22.8010  -28.9320 C   0  0  0  0  0  0  0  0  0  0  0  0
   -2.7840   23.1630  -30.2600 O   0  0  0  0  0  0  0  0  0  0  0  0
   -3.4910   22.7210  -31.3820 C   0  0  0  0  0  0  0  0  0  0  0  0
   -2.8740   22.2500  -32.3760 O   0  0  0  0  0  0  0  0  0  0  0  0
   -4.9230   22.8260  -31.4090 N   0  0  0  0  0  0  0  0  0  0  0  0
   -5.6970   23.8410  -30.9280 C   0  0  0  0  0  0  0  0  0  0  0  0
   -5.2060   25.1270  -30.3870 C   0  0  0  0  0  0  0  0  0  0  0  0
   -3.9690   25.6630  -30.8490 N   0  0  0  0  0  0  0  0  0  0  0  0
   -5.8500   25.7390  -29.4940 O   0  0  0  0  0  0  0  0  0  0  0  0
   -7.0470   23.5410  -31.0900 C   0  0  0  0  0  0  0  0  0  0  0  0
   -7.0760   22.3060  -31.6950 C   0  0  0  0  0  0  0  0  0  0  0  0
   -8.1570   21.5290  -32.0830 C   0  0  0  0  0  0  0  0  0  0  0  0
   -7.8990   20.2790  -32.6670 C   0  0  0  0  0  0  0  0  0  0  0  0
   -6.5640   19.8020  -32.8500 C   0  0  0  0  0  0  0  0  0  0  0  0
   -6.3030   18.4920  -33.4500 N   0  0  0  0  0  0  0  0  0  0  0  0
   -7.1850   17.3580  -33.0950 C   0  0  0  0  0  0  0  0  0  0  0  0
   -6.8780   16.0440  -33.8280 C   0  0  0  0  0  0  0  0  0  0  0  0
   -5.4460   15.8420  -34.0710 N   0  0  0  0  0  0  0  0  0  0  0  0
   -4.6730   15.6510  -32.8310 C   0  0  0  0  0  0  0  0  0  0  0  0
   -4.9290   16.9280  -34.9080 C   0  0  0  0  0  0  0  0  0  0  0  0
   -5.0800   18.3120  -34.2620 C   0  0  0  0  0  0  0  0  0  0  0  0
   -5.4920   20.6470  -32.4360 C   0  0  0  0  0  0  0  0  0  0  0  0
   -5.7850   21.8950  -31.8760 C   0  0  0  0  0  0  0  0  0  0  0  0
   -2.5550   23.3920  -28.2168 H   0  0  0  0  0  0  0  0  0  0  0  0
   -4.2165   23.0007  -28.7764 H   0  0  0  0  0  0  0  0  0  0  0  0
   -2.9463   21.7305  -28.7764 H   0  0  0  0  0  0  0  0  0  0  0  0
   -3.0590   25.2950  -30.4930 H   0  0  0  0  0  0  0  0  0  0  0  0
   -7.9076   24.1601  -30.7965 H   0  0  0  0  0  0  0  0  0  0  0  0
   -9.1884   21.8825  -31.9371 H   0  0  0  0  0  0  0  0  0  0  0  0
   -8.7430   19.6524  -32.9911 H   0  0  0  0  0  0  0  0  0  0  0  0
   -7.0894   17.1765  -32.0143 H   0  0  0  0  0  0  0  0  0  0  0  0
   -8.2005   17.6507  -33.4001 H   0  0  0  0  0  0  0  0  0  0  0  0
   -7.2511   15.2077  -33.2186 H   0  0  0  0  0  0  0  0  0  0  0  0
   -7.3736   16.0920  -34.8088 H   0  0  0  0  0  0  0  0  0  0  0  0
   -5.3279   15.8128  -31.9621 H   0  0  0  0  0  0  0  0  0  0  0  0
   -4.2725   14.6269  -32.8027 H   0  0  0  0  0  0  0  0  0  0  0  0
   -3.8416   16.3707  -32.8027 H   0  0  0  0  0  0  0  0  0  0  0  0
   -3.8610   16.7452  -35.0979 H   0  0  0  0  0  0  0  0  0  0  0  0
   -5.5181   16.9343  -35.8369 H   0  0  0  0  0  0  0  0  0  0  0  0
   -4.2099   18.4815  -33.6108 H   0  0  0  0  0  0  0  0  0  0  0  0
   -5.1519   19.0321  -35.0904 H   0  0  0  0  0  0  0  0  0  0  0  0
   -4.4481   20.3214  -32.5556 H   0  0  0  0  0  0  0  0  0  0  0  0
  1  2  1  0
  2  3  1  0
  3  4  2  0
  3  5  1  0
  5  6  1  0
  6  7  1  0
  7  8  1  0
  7  9  2  0
  6 10  2  0
 10 11  1  0
 11 12  2  0
 12 13  1  0
 13 14  2  0
 14 15  1  0
 15 16  1  0
 16 17  1  0
 17 18  1  0
 18 19  1  0
 18 20  1  0
 20 21  1  0
 14 22  1  0
 22 23  2  0
 23  5  1  0
 23 11  1  0
 21 15  1  0
  1 24  1  0
  1 25  1  0
  1 26  1  0
  8 27  1  0
 10 28  1  0
 12 29  1  0
 13 30  1  0
 16 31  1  0
 16 32  1  0
 17 33  1  0
 17 34  1  0
 19 35  1  0
 19 36  1  0
 19 37  1  0
 20 38  1  0
 20 39  1  0
 21 40  1  0
 21 41  1  0
 22 42  1  0
M  CHG  1   8  -1
M  END
>  <UniqueID>  (23) 
23

>  <SMILES>  (23) 
COC(=O)n1c(C([NH-])=O)cc2ccc(N3CCN(C)CC3)cc21

>  <Energy>  (23) 
90.68373729855752

>  <Genealogy>  (23) 
COC(=O)n1c(C([NH-])=O)cc2ccc(N3CCN(C)CC3)cc21 (protonated)
COC(=O)n1c(C([NH-])=O)cc2ccc(N3CCN(C)CC3)cc21 (3D coordinates assigned)
COC(=O)n1c(C([NH-])=O)cc2ccc(N3CCN(C)CC3)cc21 (nonaromatic ring conformer: 90.68373729855752 kcal/mol)

>  <smiles>  (23) 
COC(=O)n1c(C(N)=O)cc2ccc(N3CCN(C)CC3)cc21

>  <score_type>  (23) 
oracle

>  <origin>  (23) 
adg

>  <m_score__min__energy>  (23) 
-10.130000000000001

>  <m_primary>  (23) 
energy

$$$$
23:0
     RDKit          3D

 32 35  0  0  0  0  0  0  0  0999 V2000
   -4.2470   25.5490  -30.7210 N   0  0  0  0  0  0  0  0  0  0  0  0
   -5.5600   25.1320  -30.3460 C   0  0  0  0  0  0  0  0  0  0  0  0
   -6.2020   25.8080  -29.4970 O   0  0  0  0  0  0  0  0  0  0  0  0
   -6.1550   23.8950  -30.8920 C   0  0  0  0  0  0  0  0  0  0  0  0
   -7.5210   23.7250  -31.1050 C   0  0  0  0  0  0  0  0  0  0  0  0
   -7.6610   22.4260  -31.5430 C   0  0  0  0  0  0  0  0  0  0  0  0
   -8.8040   21.7170  -31.9000 C   0  0  0  0  0  0  0  0  0  0  0  0
   -8.6470   20.3880  -32.3340 C   0  0  0  0  0  0  0  0  0  0  0  0
   -7.3560   19.8070  -32.4310 C   0  0  0  0  0  0  0  0  0  0  0  0
   -7.2070   18.3760  -32.8660 C   0  0  0  0  0  0  0  0  0  0  0  0
   -6.0650   18.1270  -33.6450 C   0  0  0  0  0  0  0  0  0  0  0  0
   -6.1390   17.6980  -32.2600 C   0  0  0  0  0  0  0  0  0  0  0  0
   -6.2210   20.5520  -32.0380 C   0  0  0  0  0  0  0  0  0  0  0  0
   -6.4120   21.8640  -31.5920 C   0  0  0  0  0  0  0  0  0  0  0  0
   -5.4760   22.7550  -31.2050 N   0  0  0  0  0  0  0  0  0  0  0  0
   -4.0560   22.5440  -31.2000 C   0  0  0  0  0  0  0  0  0  0  0  0
   -3.4820   22.1660  -32.2560 O   0  0  0  0  0  0  0  0  0  0  0  0
   -3.2630   22.7910  -29.9840 C   0  0  0  0  0  0  0  0  0  0  0  0
   -3.3670   22.0070  -28.8340 C   0  0  0  0  0  0  0  0  0  0  0  0
   -2.2470   22.6650  -27.7840 S   0  0  0  0  0  0  0  0  0  0  0  0
   -1.6730   23.8720  -28.7660 N   0  0  0  0  0  0  0  0  0  0  0  0
   -2.3340   23.7960  -29.9180 N   0  0  0  0  0  0  0  0  0  0  0  0
   -3.6040   24.9030  -31.2260 H   0  0  0  0  0  0  0  0  0  0  0  0
   -3.8630   26.4570  -30.3710 H   0  0  0  0  0  0  0  0  0  0  0  0
   -8.3176   24.4687  -30.9555 H   0  0  0  0  0  0  0  0  0  0  0  0
   -9.7996   22.1814  -31.8446 H   0  0  0  0  0  0  0  0  0  0  0  0
   -9.5334   19.7936  -32.6007 H   0  0  0  0  0  0  0  0  0  0  0  0
   -8.2796   18.1641  -32.9873 H   0  0  0  0  0  0  0  0  0  0  0  0
   -5.5196   18.2016  -34.5973 H   0  0  0  0  0  0  0  0  0  0  0  0
   -5.6902   17.2060  -31.3845 H   0  0  0  0  0  0  0  0  0  0  0  0
   -5.2139   20.1117  -32.0817 H   0  0  0  0  0  0  0  0  0  0  0  0
   -4.0347   21.1505  -28.6590 H   0  0  0  0  0  0  0  0  0  0  0  0
  1  2  1  0
  2  3  2  0
  2  4  1  0
  4  5  2  0
  5  6  1  0
  6  7  2  0
  7  8  1  0
  8  9  2  0
  9 10  1  0
 10 11  1  0
 11 12  2  0
  9 13  1  0
 13 14  2  0
 14 15  1  0
 15 16  1  0
 16 17  2  0
 16 18  1  0
 18 19  2  0
 19 20  1  0
 20 21  1  0
 21 22  2  0
 15  4  1  0
 22 18  1  0
 14  6  1  0
 12 10  1  0
  1 23  1  0
  1 24  1  0
  5 25  1  0
  7 26  1  0
  8 27  1  0
 10 28  1  0
 11 29  1  0
 12 30  1  0
 13 31  1  0
 19 32  1  0
M  END
>  <UniqueID>  (24) 
24

>  <SMILES>  (24) 
NC(=O)c1cc2ccc(C3C=C3)cc2n1C(=O)c1csnn1

>  <Energy>  (24) 
209.94464579730575

>  <Genealogy>  (24) 
NC(=O)c1cc2ccc(C3C=C3)cc2n1C(=O)c1csnn1 (3D coordinates assigned)
NC(=O)c1cc2ccc(C3C=C3)cc2n1C(=O)c1csnn1 (nonaromatic ring conformer: 209.94464579730575 kcal/mol)

>  <smiles>  (24) 
NC(=O)c1cc2ccc(C3C=C3)cc2n1C(=O)c1csnn1

>  <score_type>  (24) 
oracle

>  <origin>  (24) 
adg

>  <m_score__min__energy>  (24) 
-9.4100000000000001

>  <m_primary>  (24) 
energy

$$$$
24:0
     RDKit          3D

 39 41  0  0  0  0  0  0  0  0999 V2000
   -3.6320   24.1750  -27.7700 C   0  0  0  0  0  0  0  0  0  0  0  0
   -3.6250   22.8770  -28.5700 C   0  0  0  0  0  0  0  0  0  0  0  0
   -2.9230   23.0470  -29.7980 O   0  0  0  0  0  0  0  0  0  0  0  0
   -3.4730   22.7420  -31.0490 C   0  0  0  0  0  0  0  0  0  0  0  0
   -2.7290   22.3870  -32.0040 O   0  0  0  0  0  0  0  0  0  0  0  0
   -4.8900   22.8650  -31.2520 N   0  0  0  0  0  0  0  0  0  0  0  0
   -5.6820   23.9440  -30.9980 C   0  0  0  0  0  0  0  0  0  0  0  0
   -5.2170   25.2840  -30.5790 C   0  0  0  0  0  0  0  0  0  0  0  0
   -3.8670   25.6740  -30.8240 N   0  0  0  0  0  0  0  0  0  0  0  0
   -5.9870   26.0760  -29.9760 O   0  0  0  0  0  0  0  0  0  0  0  0
   -7.0160   23.6450  -31.2670 C   0  0  0  0  0  0  0  0  0  0  0  0
   -7.0150   22.3410  -31.7060 C   0  0  0  0  0  0  0  0  0  0  0  0
   -8.0740   21.5320  -32.1060 C   0  0  0  0  0  0  0  0  0  0  0  0
   -7.7860   20.2120  -32.4900 C   0  0  0  0  0  0  0  0  0  0  0  0
   -6.4540   19.7200  -32.4610 C   0  0  0  0  0  0  0  0  0  0  0  0
   -6.1640   18.3180  -32.8570 C   0  0  0  0  0  0  0  0  0  0  0  0
   -6.1310   17.9360  -34.2060 C   0  0  0  0  0  0  0  0  0  0  0  0
   -5.8600   16.6500  -34.5440 N   0  0  0  0  0  0  0  0  0  0  0  0
   -5.6220   15.7080  -33.5950 C   0  0  0  0  0  0  0  0  0  0  0  0
   -5.3430   14.3630  -33.9870 N   0  0  0  0  0  0  0  0  0  0  0  0
   -5.6480   16.0500  -32.2780 N   0  0  0  0  0  0  0  0  0  0  0  0
   -5.9120   17.3270  -31.8950 C   0  0  0  0  0  0  0  0  0  0  0  0
   -5.4070   20.5770  -32.0470 C   0  0  0  0  0  0  0  0  0  0  0  0
   -5.7210   21.8920  -31.6880 C   0  0  0  0  0  0  0  0  0  0  0  0
   -3.6307   23.9430  -26.6947 H   0  0  0  0  0  0  0  0  0  0  0  0
   -2.7370   24.7640  -28.0191 H   0  0  0  0  0  0  0  0  0  0  0  0
   -4.5333   24.7544  -28.0191 H   0  0  0  0  0  0  0  0  0  0  0  0
   -3.1331   22.0908  -27.9785 H   0  0  0  0  0  0  0  0  0  0  0  0
   -4.6641   22.5928  -28.7926 H   0  0  0  0  0  0  0  0  0  0  0  0
   -3.0700   25.1100  -30.4560 H   0  0  0  0  0  0  0  0  0  0  0  0
   -7.8849   24.3098  -31.1527 H   0  0  0  0  0  0  0  0  0  0  0  0
   -9.1052   21.9145  -32.1210 H   0  0  0  0  0  0  0  0  0  0  0  0
   -8.6022   19.5511  -32.8172 H   0  0  0  0  0  0  0  0  0  0  0  0
   -6.3253   18.6806  -34.9920 H   0  0  0  0  0  0  0  0  0  0  0  0
   -6.1180   13.6820  -34.1440 H   0  0  0  0  0  0  0  0  0  0  0  0
   -4.3570   14.0470  -34.1200 H   0  0  0  0  0  0  0  0  0  0  0  0
   -5.4670   15.3270  -31.5470 H   0  0  0  0  0  0  0  0  0  0  0  0
   -5.9283   17.5854  -30.8259 H   0  0  0  0  0  0  0  0  0  0  0  0
   -4.3683   20.2169  -32.0083 H   0  0  0  0  0  0  0  0  0  0  0  0
  1  2  1  0
  2  3  1  0
  3  4  1  0
  4  5  2  0
  4  6  1  0
  6  7  1  0
  7  8  1  0
  8  9  1  0
  8 10  2  0
  7 11  2  0
 11 12  1  0
 12 13  2  0
 13 14  1  0
 14 15  2  0
 15 16  1  0
 16 17  2  0
 17 18  1  0
 18 19  2  0
 19 20  1  0
 19 21  1  0
 21 22  2  0
 15 23  1  0
 23 24  2  0
 24  6  1  0
 24 12  1  0
 22 16  1  0
  1 25  1  0
  1 26  1  0
  1 27  1  0
  2 28  1  0
  2 29  1  0
  9 30  1  0
 11 31  1  0
 13 32  1  0
 14 33  1  0
 17 34  1  0
 20 35  1  0
 20 36  1  0
 21 37  1  0
 22 38  1  0
 23 39  1  0
M  CHG  2   9  -1  21   1
M  END
>  <UniqueID>  (25) 
25

>  <SMILES>  (25) 
CCOC(=O)n1c(C([NH-])=O)cc2ccc(-c3cnc(N)[nH+]c3)cc21

>  <Energy>  (25) 
80.44199661057768

>  <Genealogy>  (25) 
CCOC(=O)n1c(C([NH-])=O)cc2ccc(-c3cnc(N)[nH+]c3)cc21 (protonated)
CCOC(=O)n1c(C([NH-])=O)cc2ccc(-c3cnc(N)[nH+]c3)cc21 (3D coordinates assigned)
CCOC(=O)n1c(C([NH-])=O)cc2ccc(-c3cnc(N)[nH+]c3)cc21 (optimized conformer: 80.44199661057768 kcal/mol)

>  <smiles>  (25) 
CCOC(=O)n1c(C(N)=O)cc2ccc(-c3cnc(N)nc3)cc21

>  <score_type>  (25) 
oracle

>  <origin>  (25) 
adg

>  <m_score__min__energy>  (25) 
-9.3599999999999994

>  <m_primary>  (25) 
energy

$$$$
25:0
     RDKit          3D

 44 46  0  0  0  0  0  0  0  0999 V2000
   -2.5930   20.8480  -32.4820 C   0  0  0  0  0  0  0  0  0  0  0  0
   -3.2800   22.0900  -32.5740 O   0  0  0  0  0  0  0  0  0  0  0  0
   -3.8110   22.7410  -31.4570 C   0  0  0  0  0  0  0  0  0  0  0  0
   -3.0530   23.1270  -30.5250 O   0  0  0  0  0  0  0  0  0  0  0  0
   -5.2240   22.9910  -31.3820 N   0  0  0  0  0  0  0  0  0  0  0  0
   -5.8480   24.0890  -30.8680 C   0  0  0  0  0  0  0  0  0  0  0  0
   -5.1900   25.3400  -30.4370 C   0  0  0  0  0  0  0  0  0  0  0  0
   -3.8700   25.6590  -30.8670 N   0  0  0  0  0  0  0  0  0  0  0  0
   -5.8210   26.1600  -29.7190 O   0  0  0  0  0  0  0  0  0  0  0  0
   -7.2300   23.9140  -30.8770 C   0  0  0  0  0  0  0  0  0  0  0  0
   -7.4370   22.6690  -31.4240 C   0  0  0  0  0  0  0  0  0  0  0  0
   -8.6230   21.9810  -31.6620 C   0  0  0  0  0  0  0  0  0  0  0  0
   -8.5380   20.6920  -32.2120 C   0  0  0  0  0  0  0  0  0  0  0  0
   -7.2780   20.1060  -32.5040 C   0  0  0  0  0  0  0  0  0  0  0  0
   -7.2120   18.7090  -33.0950 C   0  0  2  0  0  0  0  0  0  0  0  0
   -7.1180   17.6120  -32.0020 C   0  0  0  0  0  0  0  0  0  0  0  0
   -5.7400   16.9310  -31.9800 C   0  0  0  0  0  0  0  0  0  0  0  0
   -5.4040   16.3170  -33.2900 N   0  0  2  0  0  0  0  0  0  0  0  0
   -3.9650   16.0030  -33.3350 C   0  0  0  0  0  0  0  0  0  0  0  0
   -5.8080   17.1330  -34.4740 C   0  0  0  0  0  0  0  0  0  0  0  0
   -6.0740   18.6040  -34.1290 C   0  0  0  0  0  0  0  0  0  0  0  0
   -6.0950   20.8430  -32.2510 C   0  0  0  0  0  0  0  0  0  0  0  0
   -6.2110   22.1320  -31.7190 C   0  0  0  0  0  0  0  0  0  0  0  0
   -2.4484   20.5865  -31.4234 H   0  0  0  0  0  0  0  0  0  0  0  0
   -3.1856   20.0637  -32.9757 H   0  0  0  0  0  0  0  0  0  0  0  0
   -1.6137   20.9332  -32.9757 H   0  0  0  0  0  0  0  0  0  0  0  0
   -3.0360   25.2910  -30.3570 H   0  0  0  0  0  0  0  0  0  0  0  0
   -7.9938   24.6215  -30.5219 H   0  0  0  0  0  0  0  0  0  0  0  0
   -9.5976   22.4334  -31.4263 H   0  0  0  0  0  0  0  0  0  0  0  0
   -9.4597   20.1286  -32.4195 H   0  0  0  0  0  0  0  0  0  0  0  0
   -8.1587   18.5275  -33.6249 H   0  0  0  0  0  0  0  0  0  0  0  0
   -7.3009   18.0734  -31.0203 H   0  0  0  0  0  0  0  0  0  0  0  0
   -7.8711   16.8432  -32.2294 H   0  0  0  0  0  0  0  0  0  0  0  0
   -4.9758   17.6828  -31.7333 H   0  0  0  0  0  0  0  0  0  0  0  0
   -5.7675   16.1308  -31.2258 H   0  0  0  0  0  0  0  0  0  0  0  0
   -5.9140   15.4030  -33.3460 H   0  0  0  0  0  0  0  0  0  0  0  0
   -3.5760   15.9181  -32.3096 H   0  0  0  0  0  0  0  0  0  0  0  0
   -3.8139   15.0507  -33.8645 H   0  0  0  0  0  0  0  0  0  0  0  0
   -3.4309   16.8057  -33.8645 H   0  0  0  0  0  0  0  0  0  0  0  0
   -5.0018   17.0889  -35.2210 H   0  0  0  0  0  0  0  0  0  0  0  0
   -6.7486   16.7109  -34.8575 H   0  0  0  0  0  0  0  0  0  0  0  0
   -5.1599   19.0504  -33.7104 H   0  0  0  0  0  0  0  0  0  0  0  0
   -6.3681   19.1403  -35.0432 H   0  0  0  0  0  0  0  0  0  0  0  0
   -5.1067   20.4114  -32.4680 H   0  0  0  0  0  0  0  0  0  0  0  0
  1  2  1  0
  2  3  1  0
  3  4  2  0
  3  5  1  0
  5  6  1  0
  6  7  1  0
  7  8  1  0
  7  9  2  0
  6 10  2  0
 10 11  1  0
 11 12  2  0
 12 13  1  0
 13 14  2  0
 14 15  1  0
 15 16  1  0
 16 17  1  0
 17 18  1  0
 18 19  1  0
 18 20  1  0
 20 21  1  0
 14 22  1  0
 22 23  2  0
 23  5  1  0
 23 11  1  0
 21 15  1  0
  1 24  1  0
  1 25  1  0
  1 26  1  0
  8 27  1  0
 10 28  1  0
 12 29  1  0
 13 30  1  0
 15 31  1  6
 16 32  1  0
 16 33  1  0
 17 34  1  0
 17 35  1  0
 18 36  1  6
 19 37  1  0
 19 38  1  0
 19 39  1  0
 20 40  1  0
 20 41  1  0
 21 42  1  0
 21 43  1  0
 22 44  1  0
M  CHG  2   8  -1  18   1
M  END
>  <UniqueID>  (26) 
26

>  <SMILES>  (26) 
COC(=O)n1c(C([NH-])=O)cc2ccc(C3CC[NH+](C)CC3)cc21

>  <Energy>  (26) 
90.9696832765662

>  <Genealogy>  (26) 
COC(=O)n1c(C([NH-])=O)cc2ccc(C3CC[NH+](C)CC3)cc21 (protonated)
COC(=O)n1c(C([NH-])=O)cc2ccc(C3CC[NH+](C)CC3)cc21 (3D coordinates assigned)
COC(=O)n1c(C([NH-])=O)cc2ccc(C3CC[NH+](C)CC3)cc21 (nonaromatic ring conformer: 90.9696832765662 kcal/mol)

>  <smiles>  (26) 
COC(=O)n1c(C(N)=O)cc2ccc(C3CCN(C)CC3)cc21

>  <score_type>  (26) 
oracle

>  <origin>  (26) 
adg

>  <m_score__min__energy>  (26) 
-10.5

>  <m_primary>  (26) 
energy

$$$$
26:0
     RDKit          3D

 32 34  0  0  0  0  0  0  0  0999 V2000
   -1.3520   25.7290  -28.9680 N   0  0  0  0  0  0  0  0  0  0  0  0
   -0.8500   24.4260  -29.2500 C   0  0  0  0  0  0  0  0  0  0  0  0
    0.3220   24.1270  -28.8970 O   0  0  0  0  0  0  0  0  0  0  0  0
   -1.7030   23.4060  -29.8930 C   0  0  0  0  0  0  0  0  0  0  0  0
   -1.2090   22.2100  -30.4080 C   0  0  0  0  0  0  0  0  0  0  0  0
   -2.3160   21.5070  -30.8270 C   0  0  0  0  0  0  0  0  0  0  0  0
   -2.4060   20.2540  -31.4250 C   0  0  0  0  0  0  0  0  0  0  0  0
   -3.6820   19.7850  -31.7800 C   0  0  0  0  0  0  0  0  0  0  0  0
   -4.8370   20.5740  -31.5440 C   0  0  0  0  0  0  0  0  0  0  0  0
   -6.1790   20.0720  -31.9230 C   0  0  0  0  0  0  0  0  0  0  0  0
   -6.4520   18.6940  -31.8450 C   0  0  0  0  0  0  0  0  0  0  0  0
   -7.7070   18.1990  -32.2070 C   0  0  0  0  0  0  0  0  0  0  0  0
   -8.7040   19.0720  -32.6470 C   0  0  0  0  0  0  0  0  0  0  0  0
   -8.4500   20.4420  -32.7210 C   0  0  0  0  0  0  0  0  0  0  0  0
   -7.1950   20.9510  -32.3560 C   0  0  0  0  0  0  0  0  0  0  0  0
   -6.9660   22.3270  -32.4030 O   0  0  0  0  0  0  0  0  0  0  0  0
   -4.7030   21.8400  -30.9270 C   0  0  0  0  0  0  0  0  0  0  0  0
   -3.4220   22.2740  -30.5670 C   0  0  0  0  0  0  0  0  0  0  0  0
   -3.0620   23.4470  -29.9970 N   0  0  0  0  0  0  0  0  0  0  0  0
   -3.9350   24.5400  -29.6680 C   0  0  0  0  0  0  0  0  0  0  0  0
   -4.7000   24.4660  -28.6710 O   0  0  0  0  0  0  0  0  0  0  0  0
   -3.9650   25.6770  -30.4660 O   0  0  0  0  0  0  0  0  0  0  0  0
   -2.3790   25.9210  -28.9690 H   0  0  0  0  0  0  0  0  0  0  0  0
   -0.1570   21.8940  -30.4674 H   0  0  0  0  0  0  0  0  0  0  0  0
   -1.5066   19.6496  -31.6139 H   0  0  0  0  0  0  0  0  0  0  0  0
   -3.7866   18.7943  -32.2464 H   0  0  0  0  0  0  0  0  0  0  0  0
   -5.6716   18.0015  -31.4965 H   0  0  0  0  0  0  0  0  0  0  0  0
   -7.9102   17.1197  -32.1454 H   0  0  0  0  0  0  0  0  0  0  0  0
   -9.6903   18.6794  -32.9355 H   0  0  0  0  0  0  0  0  0  0  0  0
   -9.2382   21.1266  -33.0675 H   0  0  0  0  0  0  0  0  0  0  0  0
   -6.3700   22.7430  -33.1080 H   0  0  0  0  0  0  0  0  0  0  0  0
   -5.5850   22.4686  -30.7347 H   0  0  0  0  0  0  0  0  0  0  0  0
  1  2  1  0
  2  3  2  0
  2  4  1  0
  4  5  2  0
  5  6  1  0
  6  7  2  0
  7  8  1  0
  8  9  2  0
  9 10  1  0
 10 11  2  0
 11 12  1  0
 12 13  2  0
 13 14  1  0
 14 15  2  0
 15 16  1  0
  9 17  1  0
 17 18  2  0
 18 19  1  0
 19 20  1  0
 20 21  2  0
 20 22  1  0
 19  4  1  0
 18  6  1  0
 15 10  1  0
  1 23  1  0
  5 24  1  0
  7 25  1  0
  8 26  1  0
 11 27  1  0
 12 28  1  0
 13 29  1  0
 14 30  1  0
 16 31  1  0
 17 32  1  0
M  CHG  2   1  -1  22  -1
M  END
>  <UniqueID>  (27) 
27

>  <SMILES>  (27) 
[NH-]C(=O)c1cc2ccc(-c3ccccc3O)cc2n1C(=O)[O-]

>  <Energy>  (27) 
81.05851618004348

>  <Genealogy>  (27) 
[NH-]C(=O)c1cc2ccc(-c3ccccc3O)cc2n1C(=O)[O-] (protonated)
[NH-]C(=O)c1cc2ccc(-c3ccccc3O)cc2n1C(=O)[O-] (3D coordinates assigned)
[NH-]C(=O)c1cc2ccc(-c3ccccc3O)cc2n1C(=O)[O-] (optimized conformer: 81.05851618004348 kcal/mol)

>  <smiles>  (27) 
NC(=O)c1cc2ccc(-c3ccccc3O)cc2n1C(=O)O

>  <score_type>  (27) 
oracle

>  <origin>  (27) 
adg

>  <m_score__min__energy>  (27) 
-11.220000000000001

>  <m_primary>  (27) 
energy

$$$$
27:0
     RDKit          3D

 48 49  0  0  0  0  0  0  0  0999 V2000
   -4.0430   18.6060  -34.1890 C   0  0  0  0  0  0  0  0  0  0  0  0
   -5.0690   17.7720  -34.9540 C   0  0  0  0  0  0  0  0  0  0  0  0
   -5.1630   16.4060  -34.3890 N   0  0  0  0  0  0  0  0  0  0  0  0
   -4.1960   16.2260  -33.2770 C   0  0  0  0  0  0  0  0  0  0  0  0
   -4.3970   14.8710  -32.6060 C   0  0  0  0  0  0  0  0  0  0  0  0
   -6.5390   16.1210  -33.9230 C   0  0  0  0  0  0  0  0  0  0  0  0
   -6.9190   17.0390  -32.7460 C   0  0  0  0  0  0  0  0  0  0  0  0
   -7.5120   18.2880  -33.2260 N   0  0  0  0  0  0  0  0  0  0  0  0
   -7.5230   19.5340  -32.5010 C   0  0  0  0  0  0  0  0  0  0  0  0
   -8.7340   19.9510  -31.8930 C   0  0  0  0  0  0  0  0  0  0  0  0
   -8.8200   21.1790  -31.2200 C   0  0  0  0  0  0  0  0  0  0  0  0
   -7.6800   21.9690  -31.1580 C   0  0  0  0  0  0  0  0  0  0  0  0
   -7.5010   23.2150  -30.6040 C   0  0  0  0  0  0  0  0  0  0  0  0
   -6.1670   23.5380  -30.8460 C   0  0  0  0  0  0  0  0  0  0  0  0
   -5.5090   24.7690  -30.3500 C   0  0  0  0  0  0  0  0  0  0  0  0
   -5.8620   25.3280  -29.0830 N   0  0  0  0  0  0  0  0  0  0  0  0
   -4.6100   25.3250  -31.0350 O   0  0  0  0  0  0  0  0  0  0  0  0
   -5.5490   22.5290  -31.5230 N   0  0  0  0  0  0  0  0  0  0  0  0
   -4.1880   22.4940  -31.9760 C   0  0  0  0  0  0  0  0  0  0  0  0
   -3.9030   21.9230  -33.0650 O   0  0  0  0  0  0  0  0  0  0  0  0
   -3.1900   23.1180  -31.2240 O   0  0  0  0  0  0  0  0  0  0  0  0
   -2.4110   22.4210  -30.2590 C   0  0  0  0  0  0  0  0  0  0  0  0
   -6.4870   21.5740  -31.7080 C   0  0  0  0  0  0  0  0  0  0  0  0
   -6.3720   20.3590  -32.3980 C   0  0  0  0  0  0  0  0  0  0  0  0
   -4.1997   18.4786  -33.1077 H   0  0  0  0  0  0  0  0  0  0  0  0
   -3.0287   18.2731  -34.4542 H   0  0  0  0  0  0  0  0  0  0  0  0
   -4.1617   19.6669  -34.4542 H   0  0  0  0  0  0  0  0  0  0  0  0
   -6.0529   18.2591  -34.8855 H   0  0  0  0  0  0  0  0  0  0  0  0
   -4.7507   17.6980  -36.0043 H   0  0  0  0  0  0  0  0  0  0  0  0
   -3.1722   16.2842  -33.6750 H   0  0  0  0  0  0  0  0  0  0  0  0
   -4.3598   17.0188  -32.5322 H   0  0  0  0  0  0  0  0  0  0  0  0
   -4.3784   14.9966  -31.5133 H   0  0  0  0  0  0  0  0  0  0  0  0
   -5.3672   14.4514  -32.9104 H   0  0  0  0  0  0  0  0  0  0  0  0
   -3.5904   14.1879  -32.9104 H   0  0  0  0  0  0  0  0  0  0  0  0
   -7.2424   16.2878  -34.7521 H   0  0  0  0  0  0  0  0  0  0  0  0
   -6.5872   15.0755  -33.5845 H   0  0  0  0  0  0  0  0  0  0  0  0
   -7.6455   16.5191  -32.1042 H   0  0  0  0  0  0  0  0  0  0  0  0
   -6.0070   17.2787  -32.1796 H   0  0  0  0  0  0  0  0  0  0  0  0
   -7.8950   18.2810  -34.2000 H   0  0  0  0  0  0  0  0  0  0  0  0
   -9.6200   19.3016  -31.9498 H   0  0  0  0  0  0  0  0  0  0  0  0
   -9.7620   21.5060  -30.7556 H   0  0  0  0  0  0  0  0  0  0  0  0
   -8.2511   23.8265  -30.0811 H   0  0  0  0  0  0  0  0  0  0  0  0
   -5.3730   26.1820  -28.7330 H   0  0  0  0  0  0  0  0  0  0  0  0
   -6.6290   24.9220  -28.5030 H   0  0  0  0  0  0  0  0  0  0  0  0
   -2.7345   22.7104  -29.2483 H   0  0  0  0  0  0  0  0  0  0  0  0
   -2.5470   21.3375  -30.3913 H   0  0  0  0  0  0  0  0  0  0  0  0
   -1.3492   22.6762  -30.3913 H   0  0  0  0  0  0  0  0  0  0  0  0
   -5.4158   20.0531  -32.8475 H   0  0  0  0  0  0  0  0  0  0  0  0
  1  2  1  0
  2  3  1  0
  3  4  1  0
  4  5  1  0
  3  6  1  0
  6  7  1  0
  7  8  1  0
  8  9  1  0
  9 10  2  0
 10 11  1  0
 11 12  2  0
 12 13  1  0
 13 14  2  0
 14 15  1  0
 15 16  1  0
 15 17  2  0
 14 18  1  0
 18 19  1  0
 19 20  2  0
 19 21  1  0
 21 22  1  0
 18 23  1  0
 23 24  2  0
 24  9  1  0
 23 12  1  0
  1 25  1  0
  1 26  1  0
  1 27  1  0
  2 28  1  0
  2 29  1  0
  4 30  1  0
  4 31  1  0
  5 32  1  0
  5 33  1  0
  5 34  1  0
  6 35  1  0
  6 36  1  0
  7 37  1  0
  7 38  1  0
  8 39  1  0
 10 40  1  0
 11 41  1  0
 13 42  1  0
 16 43  1  0
 16 44  1  0
 22 45  1  0
 22 46  1  0
 22 47  1  0
 24 48  1  0
M  END
>  <UniqueID>  (28) 
28

>  <SMILES>  (28) 
CCN(CC)CCNc1ccc2cc(C(N)=O)n(C(=O)OC)c2c1

>  <Energy>  (28) 
81.6808666000253

>  <Genealogy>  (28) 
CCN(CC)CCNc1ccc2cc(C(N)=O)n(C(=O)OC)c2c1 (3D coordinates assigned)
CCN(CC)CCNc1ccc2cc(C(N)=O)n(C(=O)OC)c2c1 (optimized conformer: 81.6808666000253 kcal/mol)

>  <smiles>  (28) 
CCN(CC)CCNc1ccc2cc(C(N)=O)n(C(=O)OC)c2c1

>  <score_type>  (28) 
oracle

>  <origin>  (28) 
adg

>  <m_score__min__energy>  (28) 
-8.0500000000000007

>  <m_primary>  (28) 
energy

$$$$
28:0
     RDKit          3D

 49 52  0  0  0  0  0  0  0  0999 V2000
   -3.5770   17.1760  -33.0870 C   0  0  0  0  0  0  0  0  0  0  0  0
   -4.8210   16.4330  -33.3560 N   0  0  0  0  0  0  0  0  0  0  0  0
   -5.4820   16.8970  -34.5950 C   0  0  0  0  0  0  0  0  0  0  0  0
   -6.0270   18.3290  -34.4510 C   0  0  0  0  0  0  0  0  0  0  0  0
   -6.5730   18.5420  -33.1060 N   0  0  0  0  0  0  0  0  0  0  0  0
   -6.7160   19.8780  -32.5870 C   0  0  0  0  0  0  0  0  0  0  0  0
   -8.0060   20.4190  -32.3520 C   0  0  0  0  0  0  0  0  0  0  0  0
   -8.1590   21.7220  -31.8490 C   0  0  0  0  0  0  0  0  0  0  0  0
   -7.0080   22.4650  -31.6050 C   0  0  0  0  0  0  0  0  0  0  0  0
   -6.8670   23.7390  -31.1030 C   0  0  0  0  0  0  0  0  0  0  0  0
   -5.4930   23.9710  -31.0670 C   0  0  0  0  0  0  0  0  0  0  0  0
   -4.8940   25.2610  -30.6710 C   0  0  0  0  0  0  0  0  0  0  0  0
   -3.5730   25.2950  -30.1340 N   0  0  0  0  0  0  0  0  0  0  0  0
   -5.5490   26.3320  -30.7670 O   0  0  0  0  0  0  0  0  0  0  0  0
   -4.8130   22.8810  -31.5240 N   0  0  0  0  0  0  0  0  0  0  0  0
   -3.3910   22.6890  -31.5790 C   0  0  0  0  0  0  0  0  0  0  0  0
   -2.6630   23.1140  -30.6420 O   0  0  0  0  0  0  0  0  0  0  0  0
   -2.8000   22.0550  -32.7180 N   0  0  0  0  0  0  0  0  0  0  0  0
   -1.9860   20.8470  -32.6280 C   0  0  0  0  0  0  0  0  0  0  0  0
   -1.8060   20.0130  -33.9050 C   0  0  0  0  0  0  0  0  0  0  0  0
   -1.1100   20.7550  -34.8400 F   0  0  0  0  0  0  0  0  0  0  0  0
   -3.0450   19.6880  -34.4240 F   0  0  0  0  0  0  0  0  0  0  0  0
   -1.1100   18.8420  -33.6580 F   0  0  0  0  0  0  0  0  0  0  0  0
   -1.9750   20.1690  -31.2680 C   0  0  0  0  0  0  0  0  0  0  0  0
   -0.7780   21.0040  -31.7200 C   0  0  0  0  0  0  0  0  0  0  0  0
   -5.7550   21.9690  -31.8500 C   0  0  0  0  0  0  0  0  0  0  0  0
   -5.5720   20.6690  -32.3330 C   0  0  0  0  0  0  0  0  0  0  0  0
   -6.9310   17.3710  -32.3030 C   0  0  0  0  0  0  0  0  0  0  0  0
   -5.7240   16.4230  -32.1740 C   0  0  0  0  0  0  0  0  0  0  0  0
   -3.4300   17.2638  -32.0004 H   0  0  0  0  0  0  0  0  0  0  0  0
   -2.7257   16.6383  -33.5299 H   0  0  0  0  0  0  0  0  0  0  0  0
   -3.6468   18.1805  -33.5299 H   0  0  0  0  0  0  0  0  0  0  0  0
   -4.7520   16.8750  -35.4175 H   0  0  0  0  0  0  0  0  0  0  0  0
   -6.3303   16.2277  -34.8008 H   0  0  0  0  0  0  0  0  0  0  0  0
   -5.2112   19.0455  -34.6274 H   0  0  0  0  0  0  0  0  0  0  0  0
   -6.8307   18.4778  -35.1872 H   0  0  0  0  0  0  0  0  0  0  0  0
   -8.8974   19.8111  -32.5661 H   0  0  0  0  0  0  0  0  0  0  0  0
   -9.1571   22.1415  -31.6543 H   0  0  0  0  0  0  0  0  0  0  0  0
   -7.6681   24.4274  -30.7957 H   0  0  0  0  0  0  0  0  0  0  0  0
   -2.7380   25.2930  -30.7620 H   0  0  0  0  0  0  0  0  0  0  0  0
   -2.6304   20.5362  -30.4645 H   0  0  0  0  0  0  0  0  0  0  0  0
   -2.1152   19.1383  -30.9103 H   0  0  0  0  0  0  0  0  0  0  0  0
   -0.5708   21.9729  -31.2421 H   0  0  0  0  0  0  0  0  0  0  0  0
    0.3024   20.8245  -31.8231 H   0  0  0  0  0  0  0  0  0  0  0  0
   -4.5619   20.2715  -32.5110 H   0  0  0  0  0  0  0  0  0  0  0  0
   -7.2431   17.6998  -31.3008 H   0  0  0  0  0  0  0  0  0  0  0  0
   -7.7553   16.8361  -32.7974 H   0  0  0  0  0  0  0  0  0  0  0  0
   -5.1413   16.7224  -31.2904 H   0  0  0  0  0  0  0  0  0  0  0  0
   -6.1267   15.4030  -32.0884 H   0  0  0  0  0  0  0  0  0  0  0  0
  1  2  1  0
  2  3  1  0
  3  4  1  0
  4  5  1  0
  5  6  1  0
  6  7  2  0
  7  8  1  0
  8  9  2  0
  9 10  1  0
 10 11  2  0
 11 12  1  0
 12 13  1  0
 12 14  2  0
 11 15  1  0
 15 16  1  0
 16 17  2  0
 16 18  1  0
 18 19  1  0
 19 20  1  0
 20 21  1  0
 20 22  1  0
 20 23  1  0
 19 24  1  0
 24 25  1  0
 15 26  1  0
 26 27  2  0
  5 28  1  0
 28 29  1  0
 29  2  1  0
 27  6  1  0
 26  9  1  0
 25 19  1  0
  1 30  1  0
  1 31  1  0
  1 32  1  0
  3 33  1  0
  3 34  1  0
  4 35  1  0
  4 36  1  0
  7 37  1  0
  8 38  1  0
 10 39  1  0
 13 40  1  0
 24 41  1  0
 24 42  1  0
 25 43  1  0
 25 44  1  0
 27 45  1  0
 28 46  1  0
 28 47  1  0
 29 48  1  0
 29 49  1  0
M  CHG  2  13  -1  18  -1
M  END
>  <UniqueID>  (29) 
29

>  <SMILES>  (29) 
CN1CCN(c2ccc3cc(C([NH-])=O)n(C(=O)[N-]C4(C(F)(F)F)CC4)c3c2)CC1

>  <Energy>  (29) 
367.6877874429283

>  <Genealogy>  (29) 
CN1CCN(c2ccc3cc(C([NH-])=O)n(C(=O)[N-]C4(C(F)(F)F)CC4)c3c2)CC1 (protonated)
CN1CCN(c2ccc3cc(C([NH-])=O)n(C(=O)[N-]C4(C(F)(F)F)CC4)c3c2)CC1 (3D coordinates assigned)
CN1CCN(c2ccc3cc(C([NH-])=O)n(C(=O)[N-]C4(C(F)(F)F)CC4)c3c2)CC1 (nonaromatic ring conformer: 367.6877874429283 kcal/mol)

>  <smiles>  (29) 
CN1CCN(c2ccc3cc(C(N)=O)n(C(=O)NC4(C(F)(F)F)CC4)c3c2)CC1

>  <score_type>  (29) 
oracle

>  <origin>  (29) 
adg

>  <m_score__min__energy>  (29) 
-11.56

>  <m_primary>  (29) 
energy

$$$$
29:0
     RDKit          3D

 27 28  0  0  0  0  0  0  0  0999 V2000
   -5.7230   18.6150  -34.9320 N   0  0  0  0  0  0  0  0  0  0  0  0
   -5.8040   18.8570  -33.5310 C   0  0  0  0  0  0  0  0  0  0  0  0
   -5.6980   17.8980  -32.7200 O   0  0  0  0  0  0  0  0  0  0  0  0
   -5.9630   20.2540  -33.0200 C   0  0  0  0  0  0  0  0  0  0  0  0
   -4.6810   20.7250  -32.3920 C   0  0  0  0  0  0  0  0  0  0  0  0
   -3.5210   19.9120  -32.4480 C   0  0  0  0  0  0  0  0  0  0  0  0
   -2.3240   20.3340  -31.8480 C   0  0  0  0  0  0  0  0  0  0  0  0
   -2.3210   21.5580  -31.1870 C   0  0  0  0  0  0  0  0  0  0  0  0
   -1.2960   22.2110  -30.5400 C   0  0  0  0  0  0  0  0  0  0  0  0
   -1.8540   23.3970  -30.0670 C   0  0  0  0  0  0  0  0  0  0  0  0
   -1.1160   24.3640  -29.2300 C   0  0  0  0  0  0  0  0  0  0  0  0
   -1.6470   25.6590  -28.9640 N   0  0  0  0  0  0  0  0  0  0  0  0
   -0.0230   24.0250  -28.7010 O   0  0  0  0  0  0  0  0  0  0  0  0
   -3.1710   23.4780  -30.4140 N   0  0  0  0  0  0  0  0  0  0  0  0
   -4.0690   24.5800  -30.1990 C   0  0  0  0  0  0  0  0  0  0  0  0
   -3.8950   25.6700  -30.8040 O   0  0  0  0  0  0  0  0  0  0  0  0
   -5.1220   24.4600  -29.3010 O   0  0  0  0  0  0  0  0  0  0  0  0
   -3.4410   22.3430  -31.0970 C   0  0  0  0  0  0  0  0  0  0  0  0
   -4.6430   21.9570  -31.7030 C   0  0  0  0  0  0  0  0  0  0  0  0
   -6.5010   18.8940  -35.5700 H   0  0  0  0  0  0  0  0  0  0  0  0
   -6.2242   20.9194  -33.8561 H   0  0  0  0  0  0  0  0  0  0  0  0
   -6.7613   20.2712  -32.2635 H   0  0  0  0  0  0  0  0  0  0  0  0
   -3.5591   18.9423  -32.9660 H   0  0  0  0  0  0  0  0  0  0  0  0
   -1.4158   19.7154  -31.8990 H   0  0  0  0  0  0  0  0  0  0  0  0
   -0.2572   21.8691  -30.4216 H   0  0  0  0  0  0  0  0  0  0  0  0
   -2.6770   25.8300  -28.9730 H   0  0  0  0  0  0  0  0  0  0  0  0
   -5.5353   22.5975  -31.6438 H   0  0  0  0  0  0  0  0  0  0  0  0
  1  2  1  0
  2  3  2  0
  2  4  1  0
  4  5  1  0
  5  6  2  0
  6  7  1  0
  7  8  2  0
  8  9  1  0
  9 10  2  0
 10 11  1  0
 11 12  1  0
 11 13  2  0
 10 14  1  0
 14 15  1  0
 15 16  2  0
 15 17  1  0
 14 18  1  0
 18 19  2  0
 19  5  1  0
 18  8  1  0
  1 20  1  0
  4 21  1  0
  4 22  1  0
  6 23  1  0
  7 24  1  0
  9 25  1  0
 12 26  1  0
 19 27  1  0
M  CHG  3   1  -1  12  -1  17  -1
M  END
>  <UniqueID>  (30) 
30

>  <SMILES>  (30) 
[NH-]C(=O)Cc1ccc2cc(C([NH-])=O)n(C(=O)[O-])c2c1

>  <Energy>  (30) 
65.01260623519913

>  <Genealogy>  (30) 
[NH-]C(=O)Cc1ccc2cc(C([NH-])=O)n(C(=O)[O-])c2c1 (protonated)
[NH-]C(=O)Cc1ccc2cc(C([NH-])=O)n(C(=O)[O-])c2c1 (3D coordinates assigned)
[NH-]C(=O)Cc1ccc2cc(C([NH-])=O)n(C(=O)[O-])c2c1 (optimized conformer: 65.01260623519913 kcal/mol)

>  <smiles>  (30) 
NC(=O)Cc1ccc2cc(C(N)=O)n(C(=O)O)c2c1

>  <score_type>  (30) 
oracle

>  <origin>  (30) 
adg

>  <m_score__min__energy>  (30) 
-9.8599999999999994

>  <m_primary>  (30) 
energy

$$$$
30:0
     RDKit          3D

 48 50  0  0  0  0  0  0  0  0999 V2000
   -1.8050   15.3620  -35.0360 C   0  0  0  0  0  0  0  0  0  0  0  0
   -2.9670   15.7870  -34.3340 O   0  0  0  0  0  0  0  0  0  0  0  0
   -3.9670   16.5600  -34.9310 C   0  0  0  0  0  0  0  0  0  0  0  0
   -3.8250   16.9810  -36.1120 O   0  0  0  0  0  0  0  0  0  0  0  0
   -5.1680   16.8620  -34.2000 N   0  0  0  0  0  0  0  0  0  0  0  0
   -6.1970   16.0150  -33.9130 C   0  0  0  0  0  0  0  0  0  0  0  0
   -6.2040   14.5570  -34.1620 C   0  0  0  0  0  0  0  0  0  0  0  0
   -5.0290   13.7730  -33.9410 N   0  0  0  0  0  0  0  0  0  0  0  0
   -7.2420   13.9950  -34.6020 O   0  0  0  0  0  0  0  0  0  0  0  0
   -7.2200   16.6960  -33.2550 C   0  0  0  0  0  0  0  0  0  0  0  0
   -6.7810   17.9950  -33.1450 C   0  0  0  0  0  0  0  0  0  0  0  0
   -7.4060   19.1040  -32.5860 C   0  0  0  0  0  0  0  0  0  0  0  0
   -6.7340   20.3360  -32.6350 C   0  0  0  0  0  0  0  0  0  0  0  0
   -5.4520   20.4410  -33.2440 C   0  0  0  0  0  0  0  0  0  0  0  0
   -4.7470   21.6960  -33.3220 N   0  0  0  0  0  0  0  0  0  0  0  0
   -4.6540   22.6700  -32.2340 C   0  0  0  0  0  0  0  0  0  0  0  0
   -3.3920   22.4280  -31.3980 C   0  0  0  0  0  0  0  0  0  0  0  0
   -3.7100   22.4190  -29.9550 N   0  0  0  0  0  0  0  0  0  0  0  0
   -2.5820   21.9780  -29.1280 C   0  0  0  0  0  0  0  0  0  0  0  0
   -2.7920   22.5660  -27.7350 C   0  0  0  0  0  0  0  0  0  0  0  0
   -3.9570   23.5380  -27.8660 C   0  0  0  0  0  0  0  0  0  0  0  0
   -4.1820   23.6870  -29.3680 C   0  0  1  0  0  0  0  0  0  0  0  0
   -3.4640   24.9130  -29.8930 C   0  0  0  0  0  0  0  0  0  0  0  0
   -3.9550   25.5940  -30.8340 O   0  0  0  0  0  0  0  0  0  0  0  0
   -2.2540   25.2990  -29.3310 O   0  0  0  0  0  0  0  0  0  0  0  0
   -4.8560   19.2890  -33.8030 C   0  0  0  0  0  0  0  0  0  0  0  0
   -5.5420   18.0710  -33.7240 C   0  0  0  0  0  0  0  0  0  0  0  0
   -1.0249   15.0767  -34.3149 H   0  0  0  0  0  0  0  0  0  0  0  0
   -2.0543   14.4969  -35.6680 H   0  0  0  0  0  0  0  0  0  0  0  0
   -1.4373   16.1838  -35.6680 H   0  0  0  0  0  0  0  0  0  0  0  0
   -4.1680   14.1910  -33.5270 H   0  0  0  0  0  0  0  0  0  0  0  0
   -5.0340   12.7510  -34.1570 H   0  0  0  0  0  0  0  0  0  0  0  0
   -8.1753   16.2825  -32.8993 H   0  0  0  0  0  0  0  0  0  0  0  0
   -8.3982   19.0188  -32.1188 H   0  0  0  0  0  0  0  0  0  0  0  0
   -7.2035   21.2296  -32.1980 H   0  0  0  0  0  0  0  0  0  0  0  0
   -4.2740   21.9440  -34.2210 H   0  0  0  0  0  0  0  0  0  0  0  0
   -4.6169   23.6839  -32.6590 H   0  0  0  0  0  0  0  0  0  0  0  0
   -5.5352   22.5609  -31.5847 H   0  0  0  0  0  0  0  0  0  0  0  0
   -2.9557   21.4575  -31.6768 H   0  0  0  0  0  0  0  0  0  0  0  0
   -2.6778   23.2409  -31.5958 H   0  0  0  0  0  0  0  0  0  0  0  0
   -2.5596   20.8795  -29.0747 H   0  0  0  0  0  0  0  0  0  0  0  0
   -1.6264   22.3152  -29.5561 H   0  0  0  0  0  0  0  0  0  0  0  0
   -3.0363   21.7700  -27.0161 H   0  0  0  0  0  0  0  0  0  0  0  0
   -1.8853   23.0682  -27.3667 H   0  0  0  0  0  0  0  0  0  0  0  0
   -4.8558   23.1317  -27.3791 H   0  0  0  0  0  0  0  0  0  0  0  0
   -3.7454   24.5032  -27.3828 H   0  0  0  0  0  0  0  0  0  0  0  0
   -5.2359   23.8526  -29.6362 H   0  0  0  0  0  0  0  0  0  0  0  0
   -3.8719   19.3476  -34.2910 H   0  0  0  0  0  0  0  0  0  0  0  0
  1  2  1  0
  2  3  1  0
  3  4  2  0
  3  5  1  0
  5  6  1  0
  6  7  1  0
  7  8  1  0
  7  9  2  0
  6 10  2  0
 10 11  1  0
 11 12  2  0
 12 13  1  0
 13 14  2  0
 14 15  1  0
 15 16  1  0
 16 17  1  0
 17 18  1  0
 18 19  1  0
 19 20  1  0
 20 21  1  0
 21 22  1  0
 22 23  1  0
 23 24  2  0
 23 25  1  0
 14 26  1  0
 26 27  2  0
 27  5  1  0
 27 11  1  0
 22 18  1  0
  1 28  1  0
  1 29  1  0
  1 30  1  0
  8 31  1  0
  8 32  1  0
 10 33  1  0
 12 34  1  0
 13 35  1  0
 15 36  1  0
 16 37  1  0
 16 38  1  0
 17 39  1  0
 17 40  1  0
 19 41  1  0
 19 42  1  0
 20 43  1  0
 20 44  1  0
 21 45  1  0
 21 46  1  0
 22 47  1  1
 26 48  1  0
M  CHG  1  25  -1
M  END
>  <UniqueID>  (31) 
31

>  <SMILES>  (31) 
COC(=O)n1c(C(N)=O)cc2ccc(NCCN3CCC[C@H]3C(=O)[O-])cc21

>  <Energy>  (31) 
91.38535028372411

>  <Genealogy>  (31) 
COC(=O)n1c(C(N)=O)cc2ccc(NCCN3CCCC3C(=O)[O-])cc21 (protonated)
COC(=O)n1c(C(N)=O)cc2ccc(NCCN3CCC[C@H]3C(=O)[O-])cc21 (chirality)
COC(=O)n1c(C(N)=O)cc2ccc(NCCN3CCC[C@H]3C(=O)[O-])cc21 (3D coordinates assigned)
COC(=O)n1c(C(N)=O)cc2ccc(NCCN3CCC[C@H]3C(=O)[O-])cc21 (nonaromatic ring conformer: 91.38535028372411 kcal/mol)

>  <smiles>  (31) 
COC(=O)n1c(C(N)=O)cc2ccc(NCCN3CCCC3C(=O)O)cc21

>  <score_type>  (31) 
oracle

>  <origin>  (31) 
adg

>  <m_score__min__energy>  (31) 
-10.91

>  <m_primary>  (31) 
energy

$$$$
31:0
     RDKit          3D

 31 32  0  0  0  0  0  0  0  0999 V2000
   -3.8590   23.7410  -27.6000 C   0  0  0  0  0  0  0  0  0  0  0  0
   -2.5290   23.2390  -28.7390 S   0  0  0  0  0  0  0  0  0  0  0  0
   -3.4700   21.8960  -29.5520 C   0  0  0  0  0  0  0  0  0  0  0  0
   -4.0270   22.3420  -30.8740 C   0  0  0  0  0  0  0  0  0  0  0  0
   -3.2550   22.5200  -31.8550 O   0  0  0  0  0  0  0  0  0  0  0  0
   -5.4100   22.7060  -30.9890 N   0  0  0  0  0  0  0  0  0  0  0  0
   -5.9710   23.9420  -30.8600 C   0  0  0  0  0  0  0  0  0  0  0  0
   -5.2740   25.1660  -30.4160 C   0  0  0  0  0  0  0  0  0  0  0  0
   -3.8700   25.3180  -30.6050 N   0  0  0  0  0  0  0  0  0  0  0  0
   -5.9200   26.0740  -29.8290 O   0  0  0  0  0  0  0  0  0  0  0  0
   -7.3360   23.8860  -31.1340 C   0  0  0  0  0  0  0  0  0  0  0  0
   -7.5970   22.5670  -31.4300 C   0  0  0  0  0  0  0  0  0  0  0  0
   -8.7910   21.9420  -31.7710 C   0  0  0  0  0  0  0  0  0  0  0  0
   -8.7620   20.5620  -32.0340 C   0  0  0  0  0  0  0  0  0  0  0  0
   -7.5420   19.8370  -31.9750 C   0  0  0  0  0  0  0  0  0  0  0  0
   -7.5310   18.3490  -32.2190 C   0  0  0  0  0  0  0  0  0  0  0  0
   -8.7950   17.8410  -31.9840 F   0  0  0  0  0  0  0  0  0  0  0  0
   -6.6300   17.7220  -31.3750 F   0  0  0  0  0  0  0  0  0  0  0  0
   -7.1670   18.0710  -33.5240 F   0  0  0  0  0  0  0  0  0  0  0  0
   -6.3530   20.5060  -31.6010 C   0  0  0  0  0  0  0  0  0  0  0  0
   -6.4170   21.8770  -31.3340 C   0  0  0  0  0  0  0  0  0  0  0  0
   -3.5200   23.6131  -26.5614 H   0  0  0  0  0  0  0  0  0  0  0  0
   -4.1129   24.7968  -27.7754 H   0  0  0  0  0  0  0  0  0  0  0  0
   -4.7472   23.1163  -27.7754 H   0  0  0  0  0  0  0  0  0  0  0  0
   -2.8010   21.0384  -29.7161 H   0  0  0  0  0  0  0  0  0  0  0  0
   -4.3094   21.6157  -28.8986 H   0  0  0  0  0  0  0  0  0  0  0  0
   -3.4900   26.0430  -31.2520 H   0  0  0  0  0  0  0  0  0  0  0  0
   -8.0535   24.7196  -31.1173 H   0  0  0  0  0  0  0  0  0  0  0  0
   -9.7305   22.5108  -31.8331 H   0  0  0  0  0  0  0  0  0  0  0  0
   -9.6947   20.0372  -32.2885 H   0  0  0  0  0  0  0  0  0  0  0  0
   -5.4009   19.9607  -31.5221 H   0  0  0  0  0  0  0  0  0  0  0  0
  1  2  1  0
  2  3  1  0
  3  4  1  0
  4  5  2  0
  4  6  1  0
  6  7  1  0
  7  8  1  0
  8  9  1  0
  8 10  2  0
  7 11  2  0
 11 12  1  0
 12 13  2  0
 13 14  1  0
 14 15  2  0
 15 16  1  0
 16 17  1  0
 16 18  1  0
 16 19  1  0
 15 20  1  0
 20 21  2  0
 21  6  1  0
 21 12  1  0
  1 22  1  0
  1 23  1  0
  1 24  1  0
  3 25  1  0
  3 26  1  0
  9 27  1  0
 11 28  1  0
 13 29  1  0
 14 30  1  0
 20 31  1  0
M  CHG  1   9  -1
M  END
>  <UniqueID>  (32) 
32

>  <SMILES>  (32) 
CSCC(=O)n1c(C([NH-])=O)cc2ccc(C(F)(F)F)cc21

>  <Energy>  (32) 
69.20363887238467

>  <Genealogy>  (32) 
CSCC(=O)n1c(C([NH-])=O)cc2ccc(C(F)(F)F)cc21 (protonated)
CSCC(=O)n1c(C([NH-])=O)cc2ccc(C(F)(F)F)cc21 (3D coordinates assigned)
CSCC(=O)n1c(C([NH-])=O)cc2ccc(C(F)(F)F)cc21 (optimized conformer: 69.20363887238467 kcal/mol)

>  <smiles>  (32) 
CSCC(=O)n1c(C(N)=O)cc2ccc(C(F)(F)F)cc21

>  <score_type>  (32) 
oracle

>  <origin>  (32) 
adg

>  <m_score__min__energy>  (32) 
-9.7699999999999996

>  <m_primary>  (32) 
energy

$$$$
32:0
     RDKit          3D

 36 37  0  0  0  0  0  0  0  0999 V2000
   -5.8700   15.6400  -33.8240 C   0  0  0  0  0  0  0  0  0  0  0  0
   -4.8140   16.4100  -33.0480 C   0  0  0  0  0  0  0  0  0  0  0  0
   -4.8320   17.7760  -33.4460 O   0  0  0  0  0  0  0  0  0  0  0  0
   -6.0030   18.4320  -33.8360 C   0  0  0  0  0  0  0  0  0  0  0  0
   -6.1050   18.9400  -34.9860 O   0  0  0  0  0  0  0  0  0  0  0  0
   -7.1250   18.5730  -32.8590 C   0  0  0  0  0  0  0  0  0  0  0  0
   -7.2260   20.0000  -32.4000 C   0  0  0  0  0  0  0  0  0  0  0  0
   -8.4970   20.6090  -32.2430 C   0  0  0  0  0  0  0  0  0  0  0  0
   -8.6040   21.9360  -31.7920 C   0  0  0  0  0  0  0  0  0  0  0  0
   -7.4290   22.6180  -31.4910 C   0  0  0  0  0  0  0  0  0  0  0  0
   -7.2430   23.9120  -31.0580 C   0  0  0  0  0  0  0  0  0  0  0  0
   -5.8640   24.0630  -30.9260 C   0  0  0  0  0  0  0  0  0  0  0  0
   -5.2190   25.2950  -30.4260 C   0  0  0  0  0  0  0  0  0  0  0  0
   -3.8980   25.6260  -30.8480 N   0  0  0  0  0  0  0  0  0  0  0  0
   -5.8290   26.0710  -29.6450 O   0  0  0  0  0  0  0  0  0  0  0  0
   -5.2240   22.9080  -31.2630 N   0  0  0  0  0  0  0  0  0  0  0  0
   -3.8060   22.6730  -31.2990 C   0  0  0  0  0  0  0  0  0  0  0  0
   -3.1820   21.9110  -32.4240 C   0  0  0  0  0  0  0  0  0  0  0  0
   -3.0730   23.1190  -30.3750 O   0  0  0  0  0  0  0  0  0  0  0  0
   -6.1950   22.0350  -31.6100 C   0  0  0  0  0  0  0  0  0  0  0  0
   -6.0560   20.7220  -32.0750 C   0  0  0  0  0  0  0  0  0  0  0  0
   -6.5526   15.1423  -33.1195 H   0  0  0  0  0  0  0  0  0  0  0  0
   -6.4400   16.3359  -34.4571 H   0  0  0  0  0  0  0  0  0  0  0  0
   -5.3817   14.8845  -34.4571 H   0  0  0  0  0  0  0  0  0  0  0  0
   -5.0267   16.3394  -31.9711 H   0  0  0  0  0  0  0  0  0  0  0  0
   -3.8224   15.9815  -33.2558 H   0  0  0  0  0  0  0  0  0  0  0  0
   -8.0683   18.2773  -33.3415 H   0  0  0  0  0  0  0  0  0  0  0  0
   -6.9330   17.9256  -31.9906 H   0  0  0  0  0  0  0  0  0  0  0  0
   -9.4076   20.0377  -32.4763 H   0  0  0  0  0  0  0  0  0  0  0  0
   -9.5855   22.4200  -31.6805 H   0  0  0  0  0  0  0  0  0  0  0  0
   -8.0184   24.6663  -30.8586 H   0  0  0  0  0  0  0  0  0  0  0  0
   -3.0640   25.2880  -30.3190 H   0  0  0  0  0  0  0  0  0  0  0  0
   -2.5346   21.1204  -32.0167 H   0  0  0  0  0  0  0  0  0  0  0  0
   -3.9710   21.4570  -33.0414 H   0  0  0  0  0  0  0  0  0  0  0  0
   -2.5813   22.5950  -33.0414 H   0  0  0  0  0  0  0  0  0  0  0  0
   -5.0617   20.2644  -32.1845 H   0  0  0  0  0  0  0  0  0  0  0  0
  1  2  1  0
  2  3  1  0
  3  4  1  0
  4  5  2  0
  4  6  1  0
  6  7  1  0
  7  8  2  0
  8  9  1  0
  9 10  2  0
 10 11  1  0
 11 12  2  0
 12 13  1  0
 13 14  1  0
 13 15  2  0
 12 16  1  0
 16 17  1  0
 17 18  1  0
 17 19  2  0
 16 20  1  0
 20 21  2  0
 21  7  1  0
 20 10  1  0
  1 22  1  0
  1 23  1  0
  1 24  1  0
  2 25  1  0
  2 26  1  0
  6 27  1  0
  6 28  1  0
  8 29  1  0
  9 30  1  0
 11 31  1  0
 14 32  1  0
 18 33  1  0
 18 34  1  0
 18 35  1  0
 21 36  1  0
M  CHG  1  14  -1
M  END
>  <UniqueID>  (33) 
33

>  <SMILES>  (33) 
CCOC(=O)Cc1ccc2cc(C([NH-])=O)n(C(C)=O)c2c1

>  <Energy>  (33) 
67.05728166942303

>  <Genealogy>  (33) 
CCOC(=O)Cc1ccc2cc(C([NH-])=O)n(C(C)=O)c2c1 (protonated)
CCOC(=O)Cc1ccc2cc(C([NH-])=O)n(C(C)=O)c2c1 (3D coordinates assigned)
CCOC(=O)Cc1ccc2cc(C([NH-])=O)n(C(C)=O)c2c1 (optimized conformer: 67.05728166942303 kcal/mol)

>  <smiles>  (33) 
CCOC(=O)Cc1ccc2cc(C(N)=O)n(C(C)=O)c2c1

>  <score_type>  (33) 
oracle

>  <origin>  (33) 
adg

>  <m_score__min__energy>  (33) 
-9.9600000000000009

>  <m_primary>  (33) 
energy

$$$$
33:0
     RDKit          3D

 33 34  0  0  0  0  0  0  0  0999 V2000
   -6.9330   17.7220  -32.2970 C   0  0  0  0  0  0  0  0  0  0  0  0
   -7.8410   18.7630  -32.7670 N   0  0  0  0  0  0  0  0  0  0  0  0
   -7.8260   20.1140  -32.2720 C   0  0  0  0  0  0  0  0  0  0  0  0
   -9.0280   20.8510  -32.0820 C   0  0  0  0  0  0  0  0  0  0  0  0
   -8.9910   22.1750  -31.6110 C   0  0  0  0  0  0  0  0  0  0  0  0
   -7.7490   22.7330  -31.3280 C   0  0  0  0  0  0  0  0  0  0  0  0
   -7.4240   23.9990  -30.8940 C   0  0  0  0  0  0  0  0  0  0  0  0
   -6.0330   24.0140  -30.8060 C   0  0  0  0  0  0  0  0  0  0  0  0
   -5.2560   25.1880  -30.3530 C   0  0  0  0  0  0  0  0  0  0  0  0
   -3.8610   25.3010  -30.6200 N   0  0  0  0  0  0  0  0  0  0  0  0
   -5.8310   26.1040  -29.7060 O   0  0  0  0  0  0  0  0  0  0  0  0
   -5.5210   22.8020  -31.1640 N   0  0  0  0  0  0  0  0  0  0  0  0
   -4.1420   22.4150  -31.2390 C   0  0  0  0  0  0  0  0  0  0  0  0
   -3.4780   22.6690  -32.2790 O   0  0  0  0  0  0  0  0  0  0  0  0
   -3.4760   21.7440  -30.0760 C   0  0  0  0  0  0  0  0  0  0  0  0
   -2.5500   22.9680  -29.0860 S   0  0  0  0  0  0  0  0  0  0  0  0
   -3.8720   23.2600  -27.8640 C   0  0  0  0  0  0  0  0  0  0  0  0
   -6.5840   22.0330  -31.4880 C   0  0  0  0  0  0  0  0  0  0  0  0
   -6.5870   20.7220  -31.9760 C   0  0  0  0  0  0  0  0  0  0  0  0
   -6.9244   17.7122  -31.1971 H   0  0  0  0  0  0  0  0  0  0  0  0
   -7.2719   16.7442  -32.6698 H   0  0  0  0  0  0  0  0  0  0  0  0
   -5.9182   17.9249  -32.6698 H   0  0  0  0  0  0  0  0  0  0  0  0
   -8.5350   18.5030  -33.5040 H   0  0  0  0  0  0  0  0  0  0  0  0
   -9.9964   20.3799  -32.3060 H   0  0  0  0  0  0  0  0  0  0  0  0
   -9.9167   22.7524  -31.4705 H   0  0  0  0  0  0  0  0  0  0  0  0
   -8.1154   24.8234  -30.6653 H   0  0  0  0  0  0  0  0  0  0  0  0
   -3.4900   26.0580  -31.2360 H   0  0  0  0  0  0  0  0  0  0  0  0
   -4.2409   21.2693  -29.4438 H   0  0  0  0  0  0  0  0  0  0  0  0
   -2.7757   20.9843  -30.4533 H   0  0  0  0  0  0  0  0  0  0  0  0
   -3.4593   23.1688  -26.8485 H   0  0  0  0  0  0  0  0  0  0  0  0
   -4.2833   24.2706  -28.0033 H   0  0  0  0  0  0  0  0  0  0  0  0
   -4.6708   22.5166  -28.0033 H   0  0  0  0  0  0  0  0  0  0  0  0
   -5.6437   20.1764  -32.1259 H   0  0  0  0  0  0  0  0  0  0  0  0
  1  2  1  0
  2  3  1  0
  3  4  2  0
  4  5  1  0
  5  6  2  0
  6  7  1  0
  7  8  2  0
  8  9  1  0
  9 10  1  0
  9 11  2  0
  8 12  1  0
 12 13  1  0
 13 14  2  0
 13 15  1  0
 15 16  1  0
 16 17  1  0
 12 18  1  0
 18 19  2  0
 19  3  1  0
 18  6  1  0
  1 20  1  0
  1 21  1  0
  1 22  1  0
  2 23  1  0
  4 24  1  0
  5 25  1  0
  7 26  1  0
 10 27  1  0
 15 28  1  0
 15 29  1  0
 17 30  1  0
 17 31  1  0
 17 32  1  0
 19 33  1  0
M  CHG  1  10  -1
M  END
>  <UniqueID>  (34) 
34

>  <SMILES>  (34) 
CNc1ccc2cc(C([NH-])=O)n(C(=O)CSC)c2c1

>  <Energy>  (34) 
67.51386306648571

>  <Genealogy>  (34) 
CNc1ccc2cc(C([NH-])=O)n(C(=O)CSC)c2c1 (protonated)
CNc1ccc2cc(C([NH-])=O)n(C(=O)CSC)c2c1 (3D coordinates assigned)
CNc1ccc2cc(C([NH-])=O)n(C(=O)CSC)c2c1 (optimized conformer: 67.51386306648571 kcal/mol)

>  <smiles>  (34) 
CNc1ccc2cc(C(N)=O)n(C(=O)CSC)c2c1

>  <score_type>  (34) 
oracle

>  <origin>  (34) 
adg

>  <m_score__min__energy>  (34) 
-9.9100000000000001

>  <m_primary>  (34) 
energy

$$$$
34:0
     RDKit          3D

 35 37  0  0  0  0  0  0  0  0999 V2000
   -4.1210   23.1160  -27.9980 C   0  0  0  0  0  0  0  0  0  0  0  0
   -3.3530   22.3560  -28.9220 O   0  0  0  0  0  0  0  0  0  0  0  0
   -2.8390   22.9000  -30.1020 C   0  0  0  0  0  0  0  0  0  0  0  0
   -1.7830   23.5900  -30.0820 O   0  0  0  0  0  0  0  0  0  0  0  0
   -3.5440   22.6750  -31.3710 C   0  0  0  0  0  0  0  0  0  0  0  0
   -2.8910   22.3380  -32.3940 O   0  0  0  0  0  0  0  0  0  0  0  0
   -4.9690   22.8320  -31.4600 N   0  0  0  0  0  0  0  0  0  0  0  0
   -5.7220   23.8750  -31.0100 C   0  0  0  0  0  0  0  0  0  0  0  0
   -5.2020   25.1350  -30.4370 C   0  0  0  0  0  0  0  0  0  0  0  0
   -3.9420   25.6640  -30.8440 N   0  0  0  0  0  0  0  0  0  0  0  0
   -5.8930   25.7700  -29.5960 O   0  0  0  0  0  0  0  0  0  0  0  0
   -7.0780   23.6170  -31.2080 C   0  0  0  0  0  0  0  0  0  0  0  0
   -7.1300   22.3720  -31.7930 C   0  0  0  0  0  0  0  0  0  0  0  0
   -8.2270   21.6150  -32.1920 C   0  0  0  0  0  0  0  0  0  0  0  0
   -7.9870   20.3450  -32.7430 C   0  0  0  0  0  0  0  0  0  0  0  0
   -6.6620   19.8490  -32.8780 C   0  0  0  0  0  0  0  0  0  0  0  0
   -6.4200   18.5010  -33.4500 C   0  0  0  0  0  0  0  0  0  0  0  0
   -7.1050   17.3760  -32.9680 C   0  0  0  0  0  0  0  0  0  0  0  0
   -6.8540   16.1250  -33.5260 C   0  0  0  0  0  0  0  0  0  0  0  0
   -5.9470   16.0080  -34.5300 N   0  0  0  0  0  0  0  0  0  0  0  0
   -5.2890   17.0700  -34.9950 N   0  0  0  0  0  0  0  0  0  0  0  0
   -5.4950   18.3140  -34.4900 C   0  0  0  0  0  0  0  0  0  0  0  0
   -5.5750   20.6510  -32.4560 C   0  0  0  0  0  0  0  0  0  0  0  0
   -5.8450   21.9180  -31.9310 C   0  0  0  0  0  0  0  0  0  0  0  0
   -3.8400   22.8379  -26.9715 H   0  0  0  0  0  0  0  0  0  0  0  0
   -3.9269   24.1875  -28.1538 H   0  0  0  0  0  0  0  0  0  0  0  0
   -5.1904   22.9107  -28.1538 H   0  0  0  0  0  0  0  0  0  0  0  0
   -3.0520   25.2940  -30.4470 H   0  0  0  0  0  0  0  0  0  0  0  0
   -7.9256   24.2694  -30.9514 H   0  0  0  0  0  0  0  0  0  0  0  0
   -9.2515   21.9993  -32.0795 H   0  0  0  0  0  0  0  0  0  0  0  0
   -8.8348   19.7272  -33.0739 H   0  0  0  0  0  0  0  0  0  0  0  0
   -7.8367   17.4813  -32.1534 H   0  0  0  0  0  0  0  0  0  0  0  0
   -7.3872   15.2369  -33.1558 H   0  0  0  0  0  0  0  0  0  0  0  0
   -4.9389   19.1725  -34.8945 H   0  0  0  0  0  0  0  0  0  0  0  0
   -4.5408   20.2855  -32.5393 H   0  0  0  0  0  0  0  0  0  0  0  0
  1  2  1  0
  2  3  1  0
  3  4  2  0
  3  5  1  0
  5  6  2  0
  5  7  1  0
  7  8  1  0
  8  9  1  0
  9 10  1  0
  9 11  2  0
  8 12  2  0
 12 13  1  0
 13 14  2  0
 14 15  1  0
 15 16  2  0
 16 17  1  0
 17 18  2  0
 18 19  1  0
 19 20  2  0
 20 21  1  0
 21 22  2  0
 16 23  1  0
 23 24  2  0
 24  7  1  0
 24 13  1  0
 22 17  1  0
  1 25  1  0
  1 26  1  0
  1 27  1  0
 10 28  1  0
 12 29  1  0
 14 30  1  0
 15 31  1  0
 18 32  1  0
 19 33  1  0
 22 34  1  0
 23 35  1  0
M  CHG  1  10  -1
M  END
>  <UniqueID>  (35) 
35

>  <SMILES>  (35) 
COC(=O)C(=O)n1c(C([NH-])=O)cc2ccc(-c3ccnnc3)cc21

>  <Energy>  (35) 
81.36572788041283

>  <Genealogy>  (35) 
COC(=O)C(=O)n1c(C([NH-])=O)cc2ccc(-c3ccnnc3)cc21 (protonated)
COC(=O)C(=O)n1c(C([NH-])=O)cc2ccc(-c3ccnnc3)cc21 (3D coordinates assigned)
COC(=O)C(=O)n1c(C([NH-])=O)cc2ccc(-c3ccnnc3)cc21 (optimized conformer: 81.36572788041283 kcal/mol)

>  <smiles>  (35) 
COC(=O)C(=O)n1c(C(N)=O)cc2ccc(-c3ccnnc3)cc21

>  <score_type>  (35) 
oracle

>  <origin>  (35) 
adg

>  <m_score__min__energy>  (35) 
-10.33

>  <m_primary>  (35) 
energy

$$$$
35:0
     RDKit          3D

 40 41  0  0  0  0  0  0  0  0999 V2000
   -3.1720   20.0570  -32.2060 C   0  0  0  0  0  0  0  0  0  0  0  0
   -3.3910   20.9480  -33.4240 C   0  0  0  0  0  0  0  0  0  0  0  0
   -3.6340   22.2950  -33.0230 O   0  0  0  0  0  0  0  0  0  0  0  0
   -4.0200   22.6560  -31.7280 C   0  0  0  0  0  0  0  0  0  0  0  0
   -3.1650   22.7280  -30.8040 O   0  0  0  0  0  0  0  0  0  0  0  0
   -5.3930   22.9770  -31.4580 N   0  0  0  0  0  0  0  0  0  0  0  0
   -5.9090   24.1680  -31.0380 C   0  0  0  0  0  0  0  0  0  0  0  0
   -5.1300   25.3520  -30.6180 C   0  0  0  0  0  0  0  0  0  0  0  0
   -3.7150   25.2850  -30.4700 N   0  0  0  0  0  0  0  0  0  0  0  0
   -5.7300   26.4240  -30.3390 O   0  0  0  0  0  0  0  0  0  0  0  0
   -7.2990   24.1010  -30.9710 C   0  0  0  0  0  0  0  0  0  0  0  0
   -7.6220   22.8200  -31.3560 C   0  0  0  0  0  0  0  0  0  0  0  0
   -8.8660   22.2070  -31.4710 C   0  0  0  0  0  0  0  0  0  0  0  0
   -8.9040   20.8730  -31.9120 C   0  0  0  0  0  0  0  0  0  0  0  0
   -7.7090   20.1880  -32.2400 C   0  0  0  0  0  0  0  0  0  0  0  0
   -7.7590   18.7450  -32.6780 C   0  0  0  0  0  0  0  0  0  0  0  0
   -6.3560   18.1320  -32.7710 C   0  0  0  0  0  0  0  0  0  0  0  0
   -5.7660   18.3160  -34.1350 C   0  0  0  0  0  0  0  0  0  0  0  0
   -6.1550   19.2700  -34.8620 O   0  0  0  0  0  0  0  0  0  0  0  0
   -4.8280   17.3940  -34.6070 O   0  0  0  0  0  0  0  0  0  0  0  0
   -4.6530   16.1100  -34.0210 C   0  0  0  0  0  0  0  0  0  0  0  0
   -6.4640   20.8400  -32.1040 C   0  0  0  0  0  0  0  0  0  0  0  0
   -6.4540   22.1620  -31.6450 C   0  0  0  0  0  0  0  0  0  0  0  0
   -3.3171   20.6472  -31.2891 H   0  0  0  0  0  0  0  0  0  0  0  0
   -3.8927   19.2262  -32.2251 H   0  0  0  0  0  0  0  0  0  0  0  0
   -2.1483   19.6549  -32.2251 H   0  0  0  0  0  0  0  0  0  0  0  0
   -2.4947   20.9164  -34.0609 H   0  0  0  0  0  0  0  0  0  0  0  0
   -4.2659   20.5800  -33.9801 H   0  0  0  0  0  0  0  0  0  0  0  0
   -3.1170   24.8550  -31.2090 H   0  0  0  0  0  0  0  0  0  0  0  0
   -7.9914   24.9022  -30.6734 H   0  0  0  0  0  0  0  0  0  0  0  0
   -9.7906   22.7495  -31.2245 H   0  0  0  0  0  0  0  0  0  0  0  0
   -9.8709   20.3564  -32.0031 H   0  0  0  0  0  0  0  0  0  0  0  0
   -8.3511   18.1716  -31.9496 H   0  0  0  0  0  0  0  0  0  0  0  0
   -8.2177   18.7053  -33.6770 H   0  0  0  0  0  0  0  0  0  0  0  0
   -5.7037   18.6184  -32.0308 H   0  0  0  0  0  0  0  0  0  0  0  0
   -6.4369   17.0531  -32.5727 H   0  0  0  0  0  0  0  0  0  0  0  0
   -4.6656   16.2024  -32.9250 H   0  0  0  0  0  0  0  0  0  0  0  0
   -5.4689   15.4460  -34.3424 H   0  0  0  0  0  0  0  0  0  0  0  0
   -3.6891   15.6886  -34.3424 H   0  0  0  0  0  0  0  0  0  0  0  0
   -5.5259   20.3221  -32.3525 H   0  0  0  0  0  0  0  0  0  0  0  0
  1  2  1  0
  2  3  1  0
  3  4  1  0
  4  5  2  0
  4  6  1  0
  6  7  1  0
  7  8  1  0
  8  9  1  0
  8 10  2  0
  7 11  2  0
 11 12  1  0
 12 13  2  0
 13 14  1  0
 14 15  2  0
 15 16  1  0
 16 17  1  0
 17 18  1  0
 18 19  2  0
 18 20  1  0
 20 21  1  0
 15 22  1  0
 22 23  2  0
 23  6  1  0
 23 12  1  0
  1 24  1  0
  1 25  1  0
  1 26  1  0
  2 27  1  0
  2 28  1  0
  9 29  1  0
 11 30  1  0
 13 31  1  0
 14 32  1  0
 16 33  1  0
 16 34  1  0
 17 35  1  0
 17 36  1  0
 21 37  1  0
 21 38  1  0
 21 39  1  0
 22 40  1  0
M  CHG  1   9  -1
M  END
>  <UniqueID>  (36) 
36

>  <SMILES>  (36) 
CCOC(=O)n1c(C([NH-])=O)cc2ccc(CCC(=O)OC)cc21

>  <Energy>  (36) 
68.57041093763759

>  <Genealogy>  (36) 
CCOC(=O)n1c(C([NH-])=O)cc2ccc(CCC(=O)OC)cc21 (protonated)
CCOC(=O)n1c(C([NH-])=O)cc2ccc(CCC(=O)OC)cc21 (3D coordinates assigned)
CCOC(=O)n1c(C([NH-])=O)cc2ccc(CCC(=O)OC)cc21 (optimized conformer: 68.57041093763759 kcal/mol)

>  <smiles>  (36) 
CCOC(=O)n1c(C(N)=O)cc2ccc(CCC(=O)OC)cc21

>  <score_type>  (36) 
oracle

>  <origin>  (36) 
adg

>  <m_score__min__energy>  (36) 
-9.9199999999999999

>  <m_primary>  (36) 
energy

$$$$
36:0
     RDKit          3D

 40 41  0  0  0  0  0  0  0  0999 V2000
   -5.7000   16.7210  -31.9580 C   0  0  0  0  0  0  0  0  0  0  0  0
   -5.6460   17.3560  -33.2300 O   0  0  0  0  0  0  0  0  0  0  0  0
   -6.4720   18.4300  -33.5700 C   0  0  0  0  0  0  0  0  0  0  0  0
   -6.1850   19.1820  -34.5410 O   0  0  0  0  0  0  0  0  0  0  0  0
   -7.6820   18.7160  -32.7410 C   0  0  0  0  0  0  0  0  0  0  0  0
   -7.6470   20.1390  -32.2560 C   0  0  0  0  0  0  0  0  0  0  0  0
   -8.8440   20.7830  -31.8580 C   0  0  0  0  0  0  0  0  0  0  0  0
   -8.8210   22.1040  -31.3820 C   0  0  0  0  0  0  0  0  0  0  0  0
   -7.5890   22.7470  -31.3010 C   0  0  0  0  0  0  0  0  0  0  0  0
   -7.2840   24.0270  -30.8960 C   0  0  0  0  0  0  0  0  0  0  0  0
   -5.9010   24.1330  -31.0210 C   0  0  0  0  0  0  0  0  0  0  0  0
   -5.1370   25.3290  -30.6080 C   0  0  0  0  0  0  0  0  0  0  0  0
   -3.7250   25.2410  -30.4300 N   0  0  0  0  0  0  0  0  0  0  0  0
   -5.7110   26.4380  -30.4480 O   0  0  0  0  0  0  0  0  0  0  0  0
   -5.3710   22.9670  -31.4890 N   0  0  0  0  0  0  0  0  0  0  0  0
   -4.0000   22.7000  -31.8240 C   0  0  0  0  0  0  0  0  0  0  0  0
   -3.1030   22.8260  -30.9460 O   0  0  0  0  0  0  0  0  0  0  0  0
   -3.6710   22.2710  -33.1150 O   0  0  0  0  0  0  0  0  0  0  0  0
   -3.0290   21.0270  -33.3960 C   0  0  0  0  0  0  0  0  0  0  0  0
   -1.5210   21.2530  -33.4580 C   0  0  0  0  0  0  0  0  0  0  0  0
   -3.3730   19.9980  -32.3160 C   0  0  0  0  0  0  0  0  0  0  0  0
   -6.4180   22.1280  -31.6540 C   0  0  0  0  0  0  0  0  0  0  0  0
   -6.4130   20.8180  -32.1480 C   0  0  0  0  0  0  0  0  0  0  0  0
   -5.6353   17.4812  -31.1656 H   0  0  0  0  0  0  0  0  0  0  0  0
   -6.6481   16.1715  -31.8625 H   0  0  0  0  0  0  0  0  0  0  0  0
   -4.8583   16.0193  -31.8625 H   0  0  0  0  0  0  0  0  0  0  0  0
   -8.5855   18.5602  -33.3489 H   0  0  0  0  0  0  0  0  0  0  0  0
   -7.6949   18.0388  -31.8743 H   0  0  0  0  0  0  0  0  0  0  0  0
   -9.8005   20.2435  -31.9223 H   0  0  0  0  0  0  0  0  0  0  0  0
   -9.7479   22.6149  -31.0824 H   0  0  0  0  0  0  0  0  0  0  0  0
   -7.9837   24.8011  -30.5478 H   0  0  0  0  0  0  0  0  0  0  0  0
   -3.0990   24.9760  -31.2240 H   0  0  0  0  0  0  0  0  0  0  0  0
   -3.3810   20.6375  -34.3626 H   0  0  0  0  0  0  0  0  0  0  0  0
   -1.1170   21.3135  -32.4367 H   0  0  0  0  0  0  0  0  0  0  0  0
   -1.0464   20.4160  -33.9910 H   0  0  0  0  0  0  0  0  0  0  0  0
   -1.3126   22.1924  -33.9910 H   0  0  0  0  0  0  0  0  0  0  0  0
   -3.2234   20.4454  -31.3223 H   0  0  0  0  0  0  0  0  0  0  0  0
   -4.4232   19.6894  -32.4248 H   0  0  0  0  0  0  0  0  0  0  0  0
   -2.7196   19.1198  -32.4248 H   0  0  0  0  0  0  0  0  0  0  0  0
   -5.4727   20.3302  -32.4443 H   0  0  0  0  0  0  0  0  0  0  0  0
  1  2  1  0
  2  3  1  0
  3  4  2  0
  3  5  1  0
  5  6  1  0
  6  7  2  0
  7  8  1  0
  8  9  2  0
  9 10  1  0
 10 11  2  0
 11 12  1  0
 12 13  1  0
 12 14  2  0
 11 15  1  0
 15 16  1  0
 16 17  2  0
 16 18  1  0
 18 19  1  0
 19 20  1  0
 19 21  1  0
 15 22  1  0
 22 23  2  0
 23  6  1  0
 22  9  1  0
  1 24  1  0
  1 25  1  0
  1 26  1  0
  5 27  1  0
  5 28  1  0
  7 29  1  0
  8 30  1  0
 10 31  1  0
 13 32  1  0
 19 33  1  0
 20 34  1  0
 20 35  1  0
 20 36  1  0
 21 37  1  0
 21 38  1  0
 21 39  1  0
 23 40  1  0
M  CHG  1  13  -1
M  END
>  <UniqueID>  (37) 
37

>  <SMILES>  (37) 
COC(=O)Cc1ccc2cc(C([NH-])=O)n(C(=O)OC(C)C)c2c1

>  <Energy>  (37) 
68.19941212101325

>  <Genealogy>  (37) 
COC(=O)Cc1ccc2cc(C([NH-])=O)n(C(=O)OC(C)C)c2c1 (protonated)
COC(=O)Cc1ccc2cc(C([NH-])=O)n(C(=O)OC(C)C)c2c1 (3D coordinates assigned)
COC(=O)Cc1ccc2cc(C([NH-])=O)n(C(=O)OC(C)C)c2c1 (optimized conformer: 68.19941212101325 kcal/mol)

>  <smiles>  (37) 
COC(=O)Cc1ccc2cc(C(N)=O)n(C(=O)OC(C)C)c2c1

>  <score_type>  (37) 
oracle

>  <origin>  (37) 
adg

>  <m_score__min__energy>  (37) 
-10.01

>  <m_primary>  (37) 
energy

$$$$
37:0
     RDKit          3D

 43 44  0  0  0  0  0  0  0  0999 V2000
   -6.8280   23.2530  -32.2850 C   0  0  0  0  0  0  0  0  0  0  0  0
   -8.2230   22.3570  -31.6340 S   0  0  0  0  0  0  0  0  0  0  0  0
   -8.0960   22.2940  -30.1390 O   0  0  0  0  0  0  0  0  0  0  0  0
   -9.4930   23.0810  -31.9820 O   0  0  0  0  0  0  0  0  0  0  0  0
   -8.2660   20.6840  -32.2710 C   0  0  0  0  0  0  0  0  0  0  0  0
   -6.8930   19.9940  -32.2590 C   0  0  0  0  0  0  0  0  0  0  0  0
   -5.9690   20.4400  -33.4140 C   0  0  0  0  0  0  0  0  0  0  0  0
   -4.6720   19.6230  -33.4650 C   0  0  0  0  0  0  0  0  0  0  0  0
   -3.5830   20.3100  -32.6890 C   0  0  0  0  0  0  0  0  0  0  0  0
   -2.2960   19.7220  -32.5950 C   0  0  0  0  0  0  0  0  0  0  0  0
   -1.2820   20.3330  -31.8380 C   0  0  0  0  0  0  0  0  0  0  0  0
   -1.5860   21.5240  -31.1830 C   0  0  0  0  0  0  0  0  0  0  0  0
   -0.8060   22.3140  -30.3690 C   0  0  0  0  0  0  0  0  0  0  0  0
   -1.6280   23.3720  -29.9820 C   0  0  0  0  0  0  0  0  0  0  0  0
   -1.1690   24.5060  -29.1560 C   0  0  0  0  0  0  0  0  0  0  0  0
   -1.9870   25.6560  -28.9710 N   0  0  0  0  0  0  0  0  0  0  0  0
   -0.0190   24.4780  -28.6400 O   0  0  0  0  0  0  0  0  0  0  0  0
   -2.8690   23.2310  -30.5270 N   0  0  0  0  0  0  0  0  0  0  0  0
   -4.0310   24.0510  -30.3200 C   0  0  0  0  0  0  0  0  0  0  0  0
   -4.2850   24.9830  -31.1290 O   0  0  0  0  0  0  0  0  0  0  0  0
   -4.9750   23.7950  -29.1820 C   0  0  0  0  0  0  0  0  0  0  0  0
   -4.6480   24.5970  -28.0810 O   0  0  0  0  0  0  0  0  0  0  0  0
   -2.8250   22.1020  -31.2630 C   0  0  0  0  0  0  0  0  0  0  0  0
   -3.8570   21.5130  -32.0010 C   0  0  0  0  0  0  0  0  0  0  0  0
   -6.2219   23.6423  -31.4537 H   0  0  0  0  0  0  0  0  0  0  0  0
   -6.2149   22.5793  -32.9017 H   0  0  0  0  0  0  0  0  0  0  0  0
   -7.1857   24.0907  -32.9017 H   0  0  0  0  0  0  0  0  0  0  0  0
   -8.9592   20.0932  -31.6542 H   0  0  0  0  0  0  0  0  0  0  0  0
   -8.5921   20.7428  -33.3199 H   0  0  0  0  0  0  0  0  0  0  0  0
   -6.3953   20.2255  -31.3057 H   0  0  0  0  0  0  0  0  0  0  0  0
   -7.0716   18.9160  -32.3854 H   0  0  0  0  0  0  0  0  0  0  0  0
   -6.5053   20.3135  -34.3660 H   0  0  0  0  0  0  0  0  0  0  0  0
   -5.6992   21.4928  -33.2441 H   0  0  0  0  0  0  0  0  0  0  0  0
   -4.8536   18.6289  -33.0304 H   0  0  0  0  0  0  0  0  0  0  0  0
   -4.3540   19.5275  -34.5137 H   0  0  0  0  0  0  0  0  0  0  0  0
   -2.0893   18.7778  -33.1201 H   0  0  0  0  0  0  0  0  0  0  0  0
   -0.2800   19.8849  -31.7650 H   0  0  0  0  0  0  0  0  0  0  0  0
    0.2432   22.1463  -30.0842 H   0  0  0  0  0  0  0  0  0  0  0  0
   -2.9750   25.6730  -29.3070 H   0  0  0  0  0  0  0  0  0  0  0  0
   -6.0012   24.0248  -29.5047 H   0  0  0  0  0  0  0  0  0  0  0  0
   -4.8969   22.7382  -28.8870 H   0  0  0  0  0  0  0  0  0  0  0  0
   -4.0360   25.2990  -28.4260 H   0  0  0  0  0  0  0  0  0  0  0  0
   -4.8548   21.9740  -32.0445 H   0  0  0  0  0  0  0  0  0  0  0  0
  1  2  1  0
  2  3  2  0
  2  4  2  0
  2  5  1  0
  5  6  1  0
  6  7  1  0
  7  8  1  0
  8  9  1  0
  9 10  2  0
 10 11  1  0
 11 12  2  0
 12 13  1  0
 13 14  2  0
 14 15  1  0
 15 16  1  0
 15 17  2  0
 14 18  1  0
 18 19  1  0
 19 20  2  0
 19 21  1  0
 21 22  1  0
 18 23  1  0
 23 24  2  0
 24  9  1  0
 23 12  1  0
  1 25  1  0
  1 26  1  0
  1 27  1  0
  5 28  1  0
  5 29  1  0
  6 30  1  0
  6 31  1  0
  7 32  1  0
  7 33  1  0
  8 34  1  0
  8 35  1  0
 10 36  1  0
 11 37  1  0
 13 38  1  0
 16 39  1  0
 21 40  1  0
 21 41  1  0
 22 42  1  0
 24 43  1  0
M  CHG  1  16  -1
M  END
>  <UniqueID>  (38) 
38

>  <SMILES>  (38) 
CS(=O)(=O)CCCCc1ccc2cc(C([NH-])=O)n(C(=O)CO)c2c1

>  <Energy>  (38) 
72.29963891476645

>  <Genealogy>  (38) 
CS(=O)(=O)CCCCc1ccc2cc(C([NH-])=O)n(C(=O)CO)c2c1 (protonated)
CS(=O)(=O)CCCCc1ccc2cc(C([NH-])=O)n(C(=O)CO)c2c1 (3D coordinates assigned)
CS(=O)(=O)CCCCc1ccc2cc(C([NH-])=O)n(C(=O)CO)c2c1 (optimized conformer: 72.29963891476645 kcal/mol)

>  <smiles>  (38) 
CS(=O)(=O)CCCCc1ccc2cc(C(N)=O)n(C(=O)CO)c2c1

>  <score_type>  (38) 
oracle

>  <origin>  (38) 
adg

>  <m_score__min__energy>  (38) 
-10.359999999999999

>  <m_primary>  (38) 
energy

$$$$
38:0
     RDKit          3D

 39 41  0  0  0  0  0  0  0  0999 V2000
    0.5320   21.1690  -34.0590 C   0  0  0  0  0  0  0  0  0  0  0  0
   -0.8630   21.5430  -34.2680 N   0  0  0  0  0  0  0  0  0  0  0  0
   -1.9650   20.9310  -33.5790 C   0  0  0  0  0  0  0  0  0  0  0  0
   -2.5940   21.5510  -32.4840 C   0  0  0  0  0  0  0  0  0  0  0  0
   -3.6740   20.9180  -31.8460 C   0  0  0  0  0  0  0  0  0  0  0  0
   -4.3440   21.5580  -30.6890 C   0  0  0  0  0  0  0  0  0  0  0  0
   -3.7730   21.5770  -29.5650 O   0  0  0  0  0  0  0  0  0  0  0  0
   -5.6490   22.1460  -30.8180 N   0  0  0  0  0  0  0  0  0  0  0  0
   -5.9870   23.4520  -30.6360 C   0  0  0  0  0  0  0  0  0  0  0  0
   -5.0980   24.5070  -30.1080 C   0  0  0  0  0  0  0  0  0  0  0  0
   -5.1770   24.9350  -28.7470 N   0  0  0  0  0  0  0  0  0  0  0  0
   -4.2820   25.0720  -30.8840 O   0  0  0  0  0  0  0  0  0  0  0  0
   -7.3110   23.6730  -31.0090 C   0  0  0  0  0  0  0  0  0  0  0  0
   -7.7790   22.4470  -31.4300 C   0  0  0  0  0  0  0  0  0  0  0  0
   -9.0250   22.0890  -31.9350 C   0  0  0  0  0  0  0  0  0  0  0  0
   -9.2140   20.7550  -32.3380 C   0  0  0  0  0  0  0  0  0  0  0  0
   -8.1580   19.8150  -32.2390 C   0  0  0  0  0  0  0  0  0  0  0  0
   -8.3570   18.3960  -32.6880 C   0  0  0  0  0  0  0  0  0  0  0  0
   -9.3410   17.7970  -31.9210 F   0  0  0  0  0  0  0  0  0  0  0  0
   -7.1760   17.6920  -32.5440 F   0  0  0  0  0  0  0  0  0  0  0  0
   -6.9040   20.2180  -31.7300 C   0  0  0  0  0  0  0  0  0  0  0  0
   -6.7540   21.5460  -31.3130 C   0  0  0  0  0  0  0  0  0  0  0  0
   -4.0950   19.6630  -32.3130 C   0  0  0  0  0  0  0  0  0  0  0  0
   -3.4490   19.0790  -33.4020 C   0  0  0  0  0  0  0  0  0  0  0  0
   -2.4130   19.7180  -34.0040 N   0  0  0  0  0  0  0  0  0  0  0  0
    0.7390   21.1135  -32.9801 H   0  0  0  0  0  0  0  0  0  0  0  0
    0.7217   20.1883  -34.5197 H   0  0  0  0  0  0  0  0  0  0  0  0
    1.1868   21.9233  -34.5197 H   0  0  0  0  0  0  0  0  0  0  0  0
   -1.0690   22.3000  -34.9580 H   0  0  0  0  0  0  0  0  0  0  0  0
   -2.2408   22.5300  -32.1278 H   0  0  0  0  0  0  0  0  0  0  0  0
   -4.5000   25.6400  -28.3820 H   0  0  0  0  0  0  0  0  0  0  0  0
   -5.9630   24.6360  -28.1300 H   0  0  0  0  0  0  0  0  0  0  0  0
   -7.8645   24.6230  -30.9748 H   0  0  0  0  0  0  0  0  0  0  0  0
   -9.8371   22.8265  -32.0165 H   0  0  0  0  0  0  0  0  0  0  0  0
  -10.1903   20.4383  -32.7336 H   0  0  0  0  0  0  0  0  0  0  0  0
   -8.6615   18.3928  -33.7450 H   0  0  0  0  0  0  0  0  0  0  0  0
   -6.0671   19.5073  -31.6629 H   0  0  0  0  0  0  0  0  0  0  0  0
   -4.9306   19.1426  -31.8222 H   0  0  0  0  0  0  0  0  0  0  0  0
   -3.7794   18.0981  -33.7744 H   0  0  0  0  0  0  0  0  0  0  0  0
  1  2  1  0
  2  3  1  0
  3  4  2  0
  4  5  1  0
  5  6  1  0
  6  7  2  0
  6  8  1  0
  8  9  1  0
  9 10  1  0
 10 11  1  0
 10 12  2  0
  9 13  2  0
 13 14  1  0
 14 15  2  0
 15 16  1  0
 16 17  2  0
 17 18  1  0
 18 19  1  0
 18 20  1  0
 17 21  1  0
 21 22  2  0
  5 23  2  0
 23 24  1  0
 24 25  2  0
 25  3  1  0
 22  8  1  0
 22 14  1  0
  1 26  1  0
  1 27  1  0
  1 28  1  0
  2 29  1  0
  4 30  1  0
 11 31  1  0
 11 32  1  0
 13 33  1  0
 15 34  1  0
 16 35  1  0
 18 36  1  0
 21 37  1  0
 23 38  1  0
 24 39  1  0
M  END
>  <UniqueID>  (39) 
39

>  <SMILES>  (39) 
CNc1cc(C(=O)n2c(C(N)=O)cc3ccc(C(F)F)cc32)ccn1

>  <Energy>  (39) 
81.40014663731208

>  <Genealogy>  (39) 
CNc1cc(C(=O)n2c(C(N)=O)cc3ccc(C(F)F)cc32)ccn1 (3D coordinates assigned)
CNc1cc(C(=O)n2c(C(N)=O)cc3ccc(C(F)F)cc32)ccn1 (optimized conformer: 81.40014663731208 kcal/mol)

>  <smiles>  (39) 
CNc1cc(C(=O)n2c(C(N)=O)cc3ccc(C(F)F)cc32)ccn1

>  <score_type>  (39) 
oracle

>  <origin>  (39) 
adg

>  <m_score__min__energy>  (39) 
-8.9100000000000001

>  <m_primary>  (39) 
energy

$$$$
39:0
     RDKit          3D

 46 48  0  0  0  0  0  0  0  0999 V2000
   -7.5980   18.0920  -33.0800 C   0  0  0  0  0  0  0  0  0  0  0  0
   -7.6550   19.4380  -32.4210 C   0  0  0  0  0  0  0  0  0  0  0  0
   -8.8970   19.9680  -31.9970 C   0  0  0  0  0  0  0  0  0  0  0  0
   -8.9710   21.2490  -31.4270 C   0  0  0  0  0  0  0  0  0  0  0  0
   -7.7890   21.9760  -31.2990 C   0  0  0  0  0  0  0  0  0  0  0  0
   -7.5830   23.2400  -30.8020 C   0  0  0  0  0  0  0  0  0  0  0  0
   -6.2190   23.4690  -30.9410 C   0  0  0  0  0  0  0  0  0  0  0  0
   -5.5620   24.7070  -30.4920 C   0  0  0  0  0  0  0  0  0  0  0  0
   -5.8610   25.2710  -29.2150 N   0  0  0  0  0  0  0  0  0  0  0  0
   -4.6760   25.2360  -31.2140 O   0  0  0  0  0  0  0  0  0  0  0  0
   -5.5920   22.3830  -31.4780 N   0  0  0  0  0  0  0  0  0  0  0  0
   -4.1730   22.1740  -31.6110 C   0  0  0  0  0  0  0  0  0  0  0  0
   -3.6250   22.2640  -32.7410 O   0  0  0  0  0  0  0  0  0  0  0  0
   -3.3870   21.8440  -30.4590 N   0  0  0  0  0  0  0  0  0  0  0  0
   -2.3940   22.6690  -29.8320 C   0  0  0  0  0  0  0  0  0  0  0  0
   -1.1910   22.0850  -29.4230 C   0  0  0  0  0  0  0  0  0  0  0  0
   -0.2150   22.8580  -28.7910 C   0  0  0  0  0  0  0  0  0  0  0  0
   -0.4580   24.2120  -28.5560 C   0  0  0  0  0  0  0  0  0  0  0  0
    0.5200   24.9880  -27.9260 O   0  0  0  0  0  0  0  0  0  0  0  0
    0.3010   25.6450  -26.6810 C   0  0  0  0  0  0  0  0  0  0  0  0
   -0.7750   26.7260  -26.8500 C   0  0  1  0  0  0  0  0  0  0  0  0
   -0.5140   27.9190  -25.9250 C   0  0  0  0  0  0  0  0  0  0  0  0
   -0.8530   27.1480  -28.1890 O   0  0  0  0  0  0  0  0  0  0  0  0
   -1.6460   24.7620  -28.9360 N   0  0  0  0  0  0  0  0  0  0  0  0
   -2.6100   24.0300  -29.5570 C   0  0  0  0  0  0  0  0  0  0  0  0
   -6.5760   21.4770  -31.7020 C   0  0  0  0  0  0  0  0  0  0  0  0
   -6.4790   20.2090  -32.2910 C   0  0  0  0  0  0  0  0  0  0  0  0
   -7.5648   17.3076  -32.3095 H   0  0  0  0  0  0  0  0  0  0  0  0
   -8.4910   17.9526  -33.7069 H   0  0  0  0  0  0  0  0  0  0  0  0
   -6.6964   18.0286  -33.7069 H   0  0  0  0  0  0  0  0  0  0  0  0
   -9.8130   19.3706  -32.1152 H   0  0  0  0  0  0  0  0  0  0  0  0
   -9.9322   21.6658  -31.0918 H   0  0  0  0  0  0  0  0  0  0  0  0
   -8.3360   23.9242  -30.3837 H   0  0  0  0  0  0  0  0  0  0  0  0
   -5.4050   26.1600  -28.9130 H   0  0  0  0  0  0  0  0  0  0  0  0
   -6.4860   24.7700  -28.5440 H   0  0  0  0  0  0  0  0  0  0  0  0
   -1.0132   21.0139  -29.5996 H   0  0  0  0  0  0  0  0  0  0  0  0
    0.7375   22.4035  -28.4809 H   0  0  0  0  0  0  0  0  0  0  0  0
   -0.0328   24.9103  -25.9334 H   0  0  0  0  0  0  0  0  0  0  0  0
    1.2384   26.1128  -26.3456 H   0  0  0  0  0  0  0  0  0  0  0  0
   -1.7413   26.2826  -26.5677 H   0  0  0  0  0  0  0  0  0  0  0  0
   -0.5854   27.5928  -24.8769 H   0  0  0  0  0  0  0  0  0  0  0  0
    0.4928   28.3184  -26.1170 H   0  0  0  0  0  0  0  0  0  0  0  0
   -1.2620   28.7023  -26.1170 H   0  0  0  0  0  0  0  0  0  0  0  0
   -0.3660   26.4830  -28.7420 H   0  0  0  0  0  0  0  0  0  0  0  0
   -3.5600   24.5043  -29.8443 H   0  0  0  0  0  0  0  0  0  0  0  0
   -5.5108   19.8238  -32.6433 H   0  0  0  0  0  0  0  0  0  0  0  0
  1  2  1  0
  2  3  2  0
  3  4  1  0
  4  5  2  0
  5  6  1  0
  6  7  2  0
  7  8  1  0
  8  9  1  0
  8 10  2  0
  7 11  1  0
 11 12  1  0
 12 13  2  0
 12 14  1  0
 14 15  1  0
 15 16  2  0
 16 17  1  0
 17 18  2  0
 18 19  1  0
 19 20  1  0
 20 21  1  0
 21 22  1  0
 21 23  1  0
 18 24  1  0
 24 25  2  0
 11 26  1  0
 26 27  2  0
 27  2  1  0
 26  5  1  0
 25 15  1  0
  1 28  1  0
  1 29  1  0
  1 30  1  0
  3 31  1  0
  4 32  1  0
  6 33  1  0
  9 34  1  0
  9 35  1  0
 16 36  1  0
 17 37  1  0
 20 38  1  0
 20 39  1  0
 21 40  1  1
 22 41  1  0
 22 42  1  0
 22 43  1  0
 23 44  1  0
 25 45  1  0
 27 46  1  0
M  CHG  1  14  -1
M  END
>  <UniqueID>  (40) 
40

>  <SMILES>  (40) 
Cc1ccc2cc(C(N)=O)n(C(=O)[N-]c3ccc(OC[C@@H](C)O)nc3)c2c1

>  <Energy>  (40) 
88.86048570389251

>  <Genealogy>  (40) 
Cc1ccc2cc(C(N)=O)n(C(=O)[N-]c3ccc(OC[C@@H](C)O)nc3)c2c1 (protonated)
Cc1ccc2cc(C(N)=O)n(C(=O)[N-]c3ccc(OC[C@@H](C)O)nc3)c2c1 (3D coordinates assigned)
Cc1ccc2cc(C(N)=O)n(C(=O)[N-]c3ccc(OC[C@@H](C)O)nc3)c2c1 (optimized conformer: 88.86048570389251 kcal/mol)

>  <smiles>  (40) 
Cc1ccc2cc(C(N)=O)n(C(=O)Nc3ccc(OC[C@@H](C)O)nc3)c2c1

>  <score_type>  (40) 
oracle

>  <origin>  (40) 
adg

>  <m_score__min__energy>  (40) 
-9.8000000000000007

>  <m_primary>  (40) 
energy

$$$$
40:0
     RDKit          3D

 31 32  0  0  0  0  0  0  0  0999 V2000
   -3.8550   23.6110  -27.9220 C   0  0  0  0  0  0  0  0  0  0  0  0
   -3.1740   22.5890  -28.8260 C   0  0  0  0  0  0  0  0  0  0  0  0
   -2.9580   23.1340  -30.1250 O   0  0  0  0  0  0  0  0  0  0  0  0
   -3.6810   22.7410  -31.2570 C   0  0  0  0  0  0  0  0  0  0  0  0
   -3.0860   22.2440  -32.2520 O   0  0  0  0  0  0  0  0  0  0  0  0
   -5.1040   22.9330  -31.2950 N   0  0  0  0  0  0  0  0  0  0  0  0
   -5.8120   24.0310  -30.9030 C   0  0  0  0  0  0  0  0  0  0  0  0
   -5.2420   25.3250  -30.4770 C   0  0  0  0  0  0  0  0  0  0  0  0
   -3.9080   25.6690  -30.8470 N   0  0  0  0  0  0  0  0  0  0  0  0
   -5.9060   26.1200  -29.7600 O   0  0  0  0  0  0  0  0  0  0  0  0
   -7.1800   23.8020  -31.0390 C   0  0  0  0  0  0  0  0  0  0  0  0
   -7.2890   22.5250  -31.5370 C   0  0  0  0  0  0  0  0  0  0  0  0
   -8.4230   21.7800  -31.8530 C   0  0  0  0  0  0  0  0  0  0  0  0
   -8.2400   20.4700  -32.3260 C   0  0  0  0  0  0  0  0  0  0  0  0
   -6.9380   19.9290  -32.4690 C   0  0  0  0  0  0  0  0  0  0  0  0
   -6.7470   18.5220  -32.9570 C   0  0  0  0  0  0  0  0  0  0  0  0
   -7.9110   17.7990  -32.7650 F   0  0  0  0  0  0  0  0  0  0  0  0
   -6.4360   18.5350  -34.3050 F   0  0  0  0  0  0  0  0  0  0  0  0
   -5.8120   20.7130  -32.1360 C   0  0  0  0  0  0  0  0  0  0  0  0
   -6.0220   22.0210  -31.6830 C   0  0  0  0  0  0  0  0  0  0  0  0
   -3.6778   23.3451  -26.8694 H   0  0  0  0  0  0  0  0  0  0  0  0
   -3.4418   24.6106  -28.1222 H   0  0  0  0  0  0  0  0  0  0  0  0
   -4.9366   23.6145  -28.1222 H   0  0  0  0  0  0  0  0  0  0  0  0
   -2.2059   22.3062  -28.3870 H   0  0  0  0  0  0  0  0  0  0  0  0
   -3.8236   21.7058  -28.9153 H   0  0  0  0  0  0  0  0  0  0  0  0
   -3.0900   25.2900  -30.3210 H   0  0  0  0  0  0  0  0  0  0  0  0
   -7.9990   24.4959  -30.7988 H   0  0  0  0  0  0  0  0  0  0  0  0
   -9.4309   22.2046  -31.7357 H   0  0  0  0  0  0  0  0  0  0  0  0
   -9.1158   19.8582  -32.5879 H   0  0  0  0  0  0  0  0  0  0  0  0
   -5.9263   18.0541  -32.3935 H   0  0  0  0  0  0  0  0  0  0  0  0
   -4.7944   20.3060  -32.2302 H   0  0  0  0  0  0  0  0  0  0  0  0
  1  2  1  0
  2  3  1  0
  3  4  1  0
  4  5  2  0
  4  6  1  0
  6  7  1  0
  7  8  1  0
  8  9  1  0
  8 10  2  0
  7 11  2  0
 11 12  1  0
 12 13  2  0
 13 14  1  0
 14 15  2  0
 15 16  1  0
 16 17  1  0
 16 18  1  0
 15 19  1  0
 19 20  2  0
 20  6  1  0
 20 12  1  0
  1 21  1  0
  1 22  1  0
  1 23  1  0
  2 24  1  0
  2 25  1  0
  9 26  1  0
 11 27  1  0
 13 28  1  0
 14 29  1  0
 16 30  1  0
 19 31  1  0
M  CHG  1   9  -1
M  END
>  <UniqueID>  (41) 
41

>  <SMILES>  (41) 
CCOC(=O)n1c(C([NH-])=O)cc2ccc(C(F)F)cc21

>  <Energy>  (41) 
65.65890976042783

>  <Genealogy>  (41) 
CCOC(=O)n1c(C([NH-])=O)cc2ccc(C(F)F)cc21 (protonated)
CCOC(=O)n1c(C([NH-])=O)cc2ccc(C(F)F)cc21 (3D coordinates assigned)
CCOC(=O)n1c(C([NH-])=O)cc2ccc(C(F)F)cc21 (optimized conformer: 65.65890976042783 kcal/mol)

>  <smiles>  (41) 
CCOC(=O)n1c(C(N)=O)cc2ccc(C(F)F)cc21

>  <score_type>  (41) 
oracle

>  <origin>  (41) 
adg

>  <m_score__min__energy>  (41) 
-8.8200000000000003

>  <m_primary>  (41) 
energy

$$$$
41:0
     RDKit          3D

 54 56  0  0  0  0  0  0  0  0999 V2000
   -5.4670   16.2230  -33.3370 C   0  0  0  0  0  0  0  0  0  0  0  0
   -5.2600   17.5770  -32.9470 O   0  0  0  0  0  0  0  0  0  0  0  0
   -6.2840   18.4890  -32.6480 C   0  0  0  0  0  0  0  0  0  0  0  0
   -7.4350   18.1010  -31.9370 C   0  0  0  0  0  0  0  0  0  0  0  0
   -8.4350   19.0290  -31.6460 C   0  0  0  0  0  0  0  0  0  0  0  0
   -8.3030   20.3680  -32.0400 C   0  0  0  0  0  0  0  0  0  0  0  0
   -9.4100   21.3550  -31.7690 C   0  0  0  0  0  0  0  0  0  0  0  0
   -9.0880   22.5690  -32.3440 F   0  0  0  0  0  0  0  0  0  0  0  0
  -10.6050   20.9070  -32.3040 F   0  0  0  0  0  0  0  0  0  0  0  0
   -9.5860   21.5310  -30.4070 F   0  0  0  0  0  0  0  0  0  0  0  0
   -7.1710   20.7530  -32.7770 C   0  0  0  0  0  0  0  0  0  0  0  0
   -6.1530   19.8290  -33.0750 C   0  0  0  0  0  0  0  0  0  0  0  0
   -5.0040   20.2500  -33.8450 N   0  0  0  0  0  0  0  0  0  0  0  0
   -3.9120   20.5700  -32.9590 C   0  0  0  0  0  0  0  0  0  0  0  0
   -2.7790   19.7190  -32.8760 C   0  0  0  0  0  0  0  0  0  0  0  0
   -1.7040   20.0340  -32.0280 C   0  0  0  0  0  0  0  0  0  0  0  0
   -1.7830   21.2050  -31.2820 C   0  0  0  0  0  0  0  0  0  0  0  0
   -0.8970   21.7390  -30.3740 C   0  0  0  0  0  0  0  0  0  0  0  0
   -1.4870   22.9220  -29.9320 C   0  0  0  0  0  0  0  0  0  0  0  0
   -0.8270   23.8640  -29.0050 C   0  0  0  0  0  0  0  0  0  0  0  0
   -0.9540   25.2740  -29.1740 N   0  0  0  0  0  0  0  0  0  0  0  0
   -0.1020   23.4180  -28.0760 O   0  0  0  0  0  0  0  0  0  0  0  0
   -2.6960   23.1060  -30.5370 N   0  0  0  0  0  0  0  0  0  0  0  0
   -3.6480   24.1560  -30.3170 C   0  0  0  0  0  0  0  0  0  0  0  0
   -3.5240   24.9120  -29.3160 O   0  0  0  0  0  0  0  0  0  0  0  0
   -4.7220   24.3040  -31.2070 O   0  0  0  0  0  0  0  0  0  0  0  0
   -6.1060   24.0680  -30.9180 C   0  0  0  0  0  0  0  0  0  0  0  0
   -6.7090   25.2540  -30.1400 C   0  0  0  0  0  0  0  0  0  0  0  0
   -6.2770   22.7550  -30.1300 C   0  0  0  0  0  0  0  0  0  0  0  0
   -6.8310   23.9340  -32.2660 C   0  0  0  0  0  0  0  0  0  0  0  0
   -2.8590   22.0490  -31.3630 C   0  0  0  0  0  0  0  0  0  0  0  0
   -3.9530   21.7520  -32.1830 C   0  0  0  0  0  0  0  0  0  0  0  0
   -5.5632   15.5937  -32.4400 H   0  0  0  0  0  0  0  0  0  0  0  0
   -6.3867   16.1505  -33.9361 H   0  0  0  0  0  0  0  0  0  0  0  0
   -4.6110   15.8790  -33.9361 H   0  0  0  0  0  0  0  0  0  0  0  0
   -7.5469   17.0573  -31.6081 H   0  0  0  0  0  0  0  0  0  0  0  0
   -9.3355   18.7072  -31.1023 H   0  0  0  0  0  0  0  0  0  0  0  0
   -7.0792   21.7920  -33.1262 H   0  0  0  0  0  0  0  0  0  0  0  0
   -4.7100   19.4890  -34.5020 H   0  0  0  0  0  0  0  0  0  0  0  0
   -5.2470   21.0750  -34.4420 H   0  0  0  0  0  0  0  0  0  0  0  0
   -2.7422   18.8022  -33.4827 H   0  0  0  0  0  0  0  0  0  0  0  0
   -0.8266   19.3745  -31.9563 H   0  0  0  0  0  0  0  0  0  0  0  0
    0.0717   21.3207  -30.0630 H   0  0  0  0  0  0  0  0  0  0  0  0
   -1.6040   25.6730  -29.8860 H   0  0  0  0  0  0  0  0  0  0  0  0
   -6.6152   25.0695  -29.0596 H   0  0  0  0  0  0  0  0  0  0  0  0
   -6.1705   26.1765  -30.4025 H   0  0  0  0  0  0  0  0  0  0  0  0
   -7.7717   25.3624  -30.4025 H   0  0  0  0  0  0  0  0  0  0  0  0
   -6.2492   22.9685  -29.0513 H   0  0  0  0  0  0  0  0  0  0  0  0
   -7.2426   22.2956  -30.3881 H   0  0  0  0  0  0  0  0  0  0  0  0
   -5.4613   22.0636  -30.3881 H   0  0  0  0  0  0  0  0  0  0  0  0
   -7.8987   23.7366  -32.0900 H   0  0  0  0  0  0  0  0  0  0  0  0
   -6.7199   24.8679  -32.8365 H   0  0  0  0  0  0  0  0  0  0  0  0
   -6.3934   23.1015  -32.8365 H   0  0  0  0  0  0  0  0  0  0  0  0
   -4.8245   22.4219  -32.2233 H   0  0  0  0  0  0  0  0  0  0  0  0
  1  2  1  0
  2  3  1  0
  3  4  2  0
  4  5  1  0
  5  6  2  0
  6  7  1  0
  7  8  1  0
  7  9  1  0
  7 10  1  0
  6 11  1  0
 11 12  2  0
 12 13  1  0
 13 14  1  0
 14 15  2  0
 15 16  1  0
 16 17  2  0
 17 18  1  0
 18 19  2  0
 19 20  1  0
 20 21  1  0
 20 22  2  0
 19 23  1  0
 23 24  1  0
 24 25  2  0
 24 26  1  0
 26 27  1  0
 27 28  1  0
 27 29  1  0
 27 30  1  0
 23 31  1  0
 31 32  2  0
 12  3  1  0
 32 14  1  0
 31 17  1  0
  1 33  1  0
  1 34  1  0
  1 35  1  0
  4 36  1  0
  5 37  1  0
 11 38  1  0
 13 39  1  0
 13 40  1  0
 15 41  1  0
 16 42  1  0
 18 43  1  0
 21 44  1  0
 28 45  1  0
 28 46  1  0
 28 47  1  0
 29 48  1  0
 29 49  1  0
 29 50  1  0
 30 51  1  0
 30 52  1  0
 30 53  1  0
 32 54  1  0
M  CHG  2  13   1  21  -1
M  END
>  <UniqueID>  (42) 
42

>  <SMILES>  (42) 
COc1ccc(C(F)(F)F)cc1[NH2+]c1ccc2cc(C([NH-])=O)n(C(=O)OC(C)(C)C)c2c1

>  <Energy>  (42) 
90.78889345114538

>  <Genealogy>  (42) 
COc1ccc(C(F)(F)F)cc1[NH2+]c1ccc2cc(C([NH-])=O)n(C(=O)OC(C)(C)C)c2c1 (protonated)
COc1ccc(C(F)(F)F)cc1[NH2+]c1ccc2cc(C([NH-])=O)n(C(=O)OC(C)(C)C)c2c1 (3D coordinates assigned)
COc1ccc(C(F)(F)F)cc1[NH2+]c1ccc2cc(C([NH-])=O)n(C(=O)OC(C)(C)C)c2c1 (optimized conformer: 90.78889345114538 kcal/mol)

>  <smiles>  (42) 
COc1ccc(C(F)(F)F)cc1Nc1ccc2cc(C(N)=O)n(C(=O)OC(C)(C)C)c2c1

>  <score_type>  (42) 
oracle

>  <origin>  (42) 
adg

>  <m_score__min__energy>  (42) 
-11.199999999999999

>  <m_primary>  (42) 
energy

$$$$
42:0
     RDKit          3D

 36 38  0  0  0  0  0  0  0  0999 V2000
   -3.6520   17.5270  -34.5550 C   0  0  0  0  0  0  0  0  0  0  0  0
   -4.8700   17.6470  -33.7610 N   0  0  0  0  0  0  0  0  0  0  0  0
   -5.0600   17.0650  -32.4460 C   0  0  0  0  0  0  0  0  0  0  0  0
   -6.4990   17.4300  -32.0250 C   0  0  0  0  0  0  0  0  0  0  0  0
   -7.0450   18.4280  -33.0730 C   0  0  1  0  0  0  0  0  0  0  0  0
   -7.2480   19.8150  -32.5000 C   0  0  0  0  0  0  0  0  0  0  0  0
   -8.5540   20.3240  -32.2690 C   0  0  0  0  0  0  0  0  0  0  0  0
   -8.7410   21.6200  -31.7610 C   0  0  0  0  0  0  0  0  0  0  0  0
   -7.6100   22.3810  -31.4840 C   0  0  0  0  0  0  0  0  0  0  0  0
   -7.5070   23.6720  -31.0220 C   0  0  0  0  0  0  0  0  0  0  0  0
   -6.1420   23.9290  -30.9490 C   0  0  0  0  0  0  0  0  0  0  0  0
   -5.5820   25.1960  -30.4380 C   0  0  0  0  0  0  0  0  0  0  0  0
   -4.2390   25.5830  -30.7350 N   0  0  0  0  0  0  0  0  0  0  0  0
   -6.2810   25.9220  -29.6830 O   0  0  0  0  0  0  0  0  0  0  0  0
   -5.4240   22.8460  -31.3620 N   0  0  0  0  0  0  0  0  0  0  0  0
   -4.0000   22.7570  -31.5390 C   0  0  0  0  0  0  0  0  0  0  0  0
   -3.5210   22.1850  -32.5540 O   0  0  0  0  0  0  0  0  0  0  0  0
   -3.1370   23.2990  -30.5960 O   0  0  0  0  0  0  0  0  0  0  0  0
   -6.3390   21.9040  -31.6850 C   0  0  0  0  0  0  0  0  0  0  0  0
   -6.1250   20.6240  -32.2120 C   0  0  0  0  0  0  0  0  0  0  0  0
   -5.9930   18.4250  -34.1170 C   0  0  0  0  0  0  0  0  0  0  0  0
   -6.0830   19.0450  -35.2100 O   0  0  0  0  0  0  0  0  0  0  0  0
   -2.7842   17.4415  -33.8845 H   0  0  0  0  0  0  0  0  0  0  0  0
   -3.7148   16.6307  -35.1896 H   0  0  0  0  0  0  0  0  0  0  0  0
   -3.5387   18.4183  -35.1896 H   0  0  0  0  0  0  0  0  0  0  0  0
   -4.9399   15.9725  -32.4903 H   0  0  0  0  0  0  0  0  0  0  0  0
   -4.3202   17.4448  -31.7259 H   0  0  0  0  0  0  0  0  0  0  0  0
   -7.1257   16.5262  -32.0034 H   0  0  0  0  0  0  0  0  0  0  0  0
   -6.5096   17.8761  -31.0196 H   0  0  0  0  0  0  0  0  0  0  0  0
   -8.0381   18.1407  -33.4489 H   0  0  0  0  0  0  0  0  0  0  0  0
   -9.4292   19.6956  -32.4906 H   0  0  0  0  0  0  0  0  0  0  0  0
   -9.7506   22.0208  -31.5875 H   0  0  0  0  0  0  0  0  0  0  0  0
   -8.3292   24.3560  -30.7648 H   0  0  0  0  0  0  0  0  0  0  0  0
   -3.8720   26.5020  -30.3970 H   0  0  0  0  0  0  0  0  0  0  0  0
   -3.5810   24.9280  -31.2120 H   0  0  0  0  0  0  0  0  0  0  0  0
   -5.1051   20.2562  -32.3978 H   0  0  0  0  0  0  0  0  0  0  0  0
  1  2  1  0
  2  3  1  0
  3  4  1  0
  4  5  1  0
  5  6  1  0
  6  7  2  0
  7  8  1  0
  8  9  2  0
  9 10  1  0
 10 11  2  0
 11 12  1  0
 12 13  1  0
 12 14  2  0
 11 15  1  0
 15 16  1  0
 16 17  2  0
 16 18  1  0
 15 19  1  0
 19 20  2  0
  5 21  1  0
 21 22  2  0
 21  2  1  0
 20  6  1  0
 19  9  1  0
  1 23  1  0
  1 24  1  0
  1 25  1  0
  3 26  1  0
  3 27  1  0
  4 28  1  0
  4 29  1  0
  5 30  1  6
  7 31  1  0
  8 32  1  0
 10 33  1  0
 13 34  1  0
 13 35  1  0
 20 36  1  0
M  CHG  1  18  -1
M  END
>  <UniqueID>  (43) 
43

>  <SMILES>  (43) 
CN1CC[C@@H](c2ccc3cc(C(N)=O)n(C(=O)[O-])c3c2)C1=O

>  <Energy>  (43) 
83.013212999318

>  <Genealogy>  (43) 
CN1CCC(c2ccc3cc(C(N)=O)n(C(=O)[O-])c3c2)C1=O (protonated)
CN1CC[C@@H](c2ccc3cc(C(N)=O)n(C(=O)[O-])c3c2)C1=O (chirality)
CN1CC[C@@H](c2ccc3cc(C(N)=O)n(C(=O)[O-])c3c2)C1=O (3D coordinates assigned)
CN1CC[C@@H](c2ccc3cc(C(N)=O)n(C(=O)[O-])c3c2)C1=O (nonaromatic ring conformer: 83.013212999318 kcal/mol)

>  <smiles>  (43) 
CN1CCC(c2ccc3cc(C(N)=O)n(C(=O)O)c3c2)C1=O

>  <score_type>  (43) 
oracle

>  <origin>  (43) 
adg

>  <m_score__min__energy>  (43) 
-9.5099999999999998

>  <m_primary>  (43) 
energy

$$$$
43:0
     RDKit          3D

 47 48  0  0  0  0  0  0  0  0999 V2000
   -3.4950   24.8320  -30.0970 N   0  0  0  0  0  0  0  0  0  0  0  0
   -4.8300   24.9890  -30.5810 C   0  0  0  0  0  0  0  0  0  0  0  0
   -5.3170   26.1480  -30.6720 O   0  0  0  0  0  0  0  0  0  0  0  0
   -5.6480   23.8090  -30.9360 C   0  0  0  0  0  0  0  0  0  0  0  0
   -7.0400   23.7790  -30.8700 C   0  0  0  0  0  0  0  0  0  0  0  0
   -7.4010   22.5460  -31.3640 C   0  0  0  0  0  0  0  0  0  0  0  0
   -8.6640   21.9760  -31.5070 C   0  0  0  0  0  0  0  0  0  0  0  0
   -8.7410   20.6670  -32.0120 C   0  0  0  0  0  0  0  0  0  0  0  0
   -7.5640   19.9570  -32.3620 C   0  0  0  0  0  0  0  0  0  0  0  0
   -7.6550   18.5380  -32.8570 C   0  0  0  0  0  0  0  0  0  0  0  0
   -6.4320   18.1590  -33.6960 C   0  0  0  0  0  0  0  0  0  0  0  0
   -6.1510   19.1550  -34.6430 O   0  0  0  0  0  0  0  0  0  0  0  0
   -6.3010   20.5670  -32.1960 C   0  0  0  0  0  0  0  0  0  0  0  0
   -6.2550   21.8780  -31.7070 C   0  0  0  0  0  0  0  0  0  0  0  0
   -5.1690   22.6410  -31.4510 N   0  0  0  0  0  0  0  0  0  0  0  0
   -3.7940   22.2540  -31.6030 C   0  0  0  0  0  0  0  0  0  0  0  0
   -3.2520   22.2890  -32.7420 O   0  0  0  0  0  0  0  0  0  0  0  0
   -3.0680   21.8220  -30.4880 O   0  0  0  0  0  0  0  0  0  0  0  0
   -3.6130   21.7600  -29.1740 C   0  0  0  0  0  0  0  0  0  0  0  0
   -2.5130   20.8140  -28.0610 S   0  0  0  0  0  0  0  0  0  0  0  0
   -0.9870   21.0130  -29.0530 C   0  0  0  0  0  0  0  0  0  0  0  0
   -0.3040   22.3460  -28.7550 C   0  0  0  0  0  0  0  0  0  0  0  0
   -1.0980   23.4000  -29.2460 O   0  0  0  0  0  0  0  0  0  0  0  0
   -0.7870   24.7840  -28.3210 S   0  0  0  0  0  0  0  0  0  0  0  0
   -1.2390   26.0180  -29.0550 O   0  0  0  0  0  0  0  0  0  0  0  0
    0.6810   24.8870  -28.0130 O   0  0  0  0  0  0  0  0  0  0  0  0
   -1.6900   24.6590  -26.7930 C   0  0  0  0  0  0  0  0  0  0  0  0
   -3.0100   24.3510  -27.0610 F   0  0  0  0  0  0  0  0  0  0  0  0
   -1.6290   25.8640  -26.1200 F   0  0  0  0  0  0  0  0  0  0  0  0
   -1.1370   23.6660  -26.0070 F   0  0  0  0  0  0  0  0  0  0  0  0
   -3.0380   23.8950  -30.0590 H   0  0  0  0  0  0  0  0  0  0  0  0
   -2.9390   25.6700  -29.8130 H   0  0  0  0  0  0  0  0  0  0  0  0
   -7.7077   24.5717  -30.5016 H   0  0  0  0  0  0  0  0  0  0  0  0
   -9.5722   22.5330  -31.2333 H   0  0  0  0  0  0  0  0  0  0  0  0
   -9.7234   20.1883  -32.1371 H   0  0  0  0  0  0  0  0  0  0  0  0
   -7.7196   17.8609  -31.9925 H   0  0  0  0  0  0  0  0  0  0  0  0
   -8.5500   18.4493  -33.4903 H   0  0  0  0  0  0  0  0  0  0  0  0
   -5.5632   18.0364  -33.0326 H   0  0  0  0  0  0  0  0  0  0  0  0
   -6.6446   17.2184  -34.2252 H   0  0  0  0  0  0  0  0  0  0  0  0
   -6.9890   19.3110  -35.1530 H   0  0  0  0  0  0  0  0  0  0  0  0
   -5.3764   20.0254  -32.4448 H   0  0  0  0  0  0  0  0  0  0  0  0
   -3.7299   22.7816  -28.7832 H   0  0  0  0  0  0  0  0  0  0  0  0
   -4.5889   21.2544  -29.2197 H   0  0  0  0  0  0  0  0  0  0  0  0
   -0.2938   20.1932  -28.8132 H   0  0  0  0  0  0  0  0  0  0  0  0
   -1.2592   20.9919  -30.1186 H   0  0  0  0  0  0  0  0  0  0  0  0
   -0.1770   22.4581  -27.6681 H   0  0  0  0  0  0  0  0  0  0  0  0
    0.6812   22.3706  -29.2436 H   0  0  0  0  0  0  0  0  0  0  0  0
  1  2  1  0
  2  3  2  0
  2  4  1  0
  4  5  2  0
  5  6  1  0
  6  7  2  0
  7  8  1  0
  8  9  2  0
  9 10  1  0
 10 11  1  0
 11 12  1  0
  9 13  1  0
 13 14  2  0
 14 15  1  0
 15 16  1  0
 16 17  2  0
 16 18  1  0
 18 19  1  0
 19 20  1  0
 20 21  1  0
 21 22  1  0
 22 23  1  0
 23 24  1  0
 24 25  2  0
 24 26  2  0
 24 27  1  0
 27 28  1  0
 27 29  1  0
 27 30  1  0
 15  4  1  0
 14  6  1  0
  1 31  1  0
  1 32  1  0
  5 33  1  0
  7 34  1  0
  8 35  1  0
 10 36  1  0
 10 37  1  0
 11 38  1  0
 11 39  1  0
 12 40  1  0
 13 41  1  0
 19 42  1  0
 19 43  1  0
 21 44  1  0
 21 45  1  0
 22 46  1  0
 22 47  1  0
M  END
>  <UniqueID>  (44) 
44

>  <SMILES>  (44) 
NC(=O)c1cc2ccc(CCO)cc2n1C(=O)OCSCCOS(=O)(=O)C(F)(F)F

>  <Energy>  (44) 
73.51732313479987

>  <Genealogy>  (44) 
NC(=O)c1cc2ccc(CCO)cc2n1C(=O)OCSCCOS(=O)(=O)C(F)(F)F (3D coordinates assigned)
NC(=O)c1cc2ccc(CCO)cc2n1C(=O)OCSCCOS(=O)(=O)C(F)(F)F (optimized conformer: 73.51732313479987 kcal/mol)

>  <smiles>  (44) 
NC(=O)c1cc2ccc(CCO)cc2n1C(=O)OCSCCOS(=O)(=O)C(F)(F)F

>  <score_type>  (44) 
oracle

>  <origin>  (44) 
adg

>  <m_score__min__energy>  (44) 
-8.4199999999999999

>  <m_primary>  (44) 
energy

$$$$
44:0
     RDKit          3D

 52 55  0  0  0  0  0  0  0  0999 V2000
   -6.4340   24.7840  -29.8500 C   0  0  0  0  0  0  0  0  0  0  0  0
   -5.3470   23.7290  -29.6790 C   0  0  0  0  0  0  0  0  0  0  0  0
   -4.0800   24.1710  -30.3480 C   0  0  0  0  0  0  0  0  0  0  0  0
   -4.0000   25.3300  -30.8380 O   0  0  0  0  0  0  0  0  0  0  0  0
   -3.0060   23.2430  -30.5410 N   0  0  0  0  0  0  0  0  0  0  0  0
   -1.7410   23.3080  -30.0420 C   0  0  0  0  0  0  0  0  0  0  0  0
   -1.1710   24.4340  -29.2740 C   0  0  0  0  0  0  0  0  0  0  0  0
   -1.9550   25.5850  -28.9650 N   0  0  0  0  0  0  0  0  0  0  0  0
    0.0300   24.3870  -28.8930 O   0  0  0  0  0  0  0  0  0  0  0  0
   -1.0330   22.1530  -30.3710 C   0  0  0  0  0  0  0  0  0  0  0  0
   -1.9150   21.3760  -31.0910 C   0  0  0  0  0  0  0  0  0  0  0  0
   -1.7680   20.0980  -31.6110 C   0  0  0  0  0  0  0  0  0  0  0  0
   -2.8740   19.5110  -32.2480 C   0  0  0  0  0  0  0  0  0  0  0  0
   -4.1080   20.2150  -32.3930 C   0  0  0  0  0  0  0  0  0  0  0  0
   -5.3430   19.5420  -33.0290 C   0  0  0  0  0  0  0  0  0  0  0  0
   -6.4730   20.5120  -33.4870 C   0  0  0  0  0  0  0  0  0  0  0  0
   -7.2830   20.9950  -32.3480 N   0  0  0  0  0  0  0  0  0  0  0  0
   -7.3940   22.4560  -32.3430 C   0  0  0  0  0  0  0  0  0  0  0  0
   -8.6770   22.8000  -31.6010 C   0  0  0  0  0  0  0  0  0  0  0  0
   -9.4800   21.5110  -31.5610 C   0  0  0  0  0  0  0  0  0  0  0  0
   -8.6660   20.5110  -32.3640 C   0  0  0  0  0  0  0  0  0  0  0  0
   -5.9080   18.3330  -32.2490 C   0  0  0  0  0  0  0  0  0  0  0  0
   -5.4300   17.3940  -33.3470 C   0  0  0  0  0  0  0  0  0  0  0  0
   -4.9210   18.5830  -34.1540 C   0  0  0  0  0  0  0  0  0  0  0  0
   -4.2130   21.5060  -31.8070 C   0  0  0  0  0  0  0  0  0  0  0  0
   -3.0950   22.0600  -31.1810 C   0  0  0  0  0  0  0  0  0  0  0  0
   -6.7789   25.1188  -28.8606 H   0  0  0  0  0  0  0  0  0  0  0  0
   -6.0282   25.6417  -30.4064 H   0  0  0  0  0  0  0  0  0  0  0  0
   -7.2792   24.3527  -30.4064 H   0  0  0  0  0  0  0  0  0  0  0  0
   -5.1562   23.5756  -28.6066 H   0  0  0  0  0  0  0  0  0  0  0  0
   -5.6855   22.7897  -30.1407 H   0  0  0  0  0  0  0  0  0  0  0  0
   -2.9370   25.6740  -29.3070 H   0  0  0  0  0  0  0  0  0  0  0  0
    0.0085   21.9127  -30.1112 H   0  0  0  0  0  0  0  0  0  0  0  0
   -0.8124   19.5597  -31.5268 H   0  0  0  0  0  0  0  0  0  0  0  0
   -2.7877   18.4881  -32.6432 H   0  0  0  0  0  0  0  0  0  0  0  0
   -6.0163   21.3770  -33.9903 H   0  0  0  0  0  0  0  0  0  0  0  0
   -7.1384   19.9614  -34.1682 H   0  0  0  0  0  0  0  0  0  0  0  0
   -6.5289   22.8992  -31.8280 H   0  0  0  0  0  0  0  0  0  0  0  0
   -7.4144   22.8525  -33.3688 H   0  0  0  0  0  0  0  0  0  0  0  0
   -8.4509   23.1440  -30.5809 H   0  0  0  0  0  0  0  0  0  0  0  0
   -9.2307   23.6108  -32.0970 H   0  0  0  0  0  0  0  0  0  0  0  0
   -9.6027   21.1648  -30.5241 H   0  0  0  0  0  0  0  0  0  0  0  0
  -10.4915   21.6433  -31.9725 H   0  0  0  0  0  0  0  0  0  0  0  0
   -8.7255   19.5142  -31.9026 H   0  0  0  0  0  0  0  0  0  0  0  0
   -9.0455   20.4225  -33.3927 H   0  0  0  0  0  0  0  0  0  0  0  0
   -5.4273   18.1642  -31.2741 H   0  0  0  0  0  0  0  0  0  0  0  0
   -6.9603   18.3220  -31.9287 H   0  0  0  0  0  0  0  0  0  0  0  0
   -4.6401   16.6979  -33.0285 H   0  0  0  0  0  0  0  0  0  0  0  0
   -6.1259   16.6733  -33.8013 H   0  0  0  0  0  0  0  0  0  0  0  0
   -3.8375   18.5644  -34.3431 H   0  0  0  0  0  0  0  0  0  0  0  0
   -5.2764   18.7463  -35.1821 H   0  0  0  0  0  0  0  0  0  0  0  0
   -5.1621   22.0607  -31.8463 H   0  0  0  0  0  0  0  0  0  0  0  0
  1  2  1  0
  2  3  1  0
  3  4  2  0
  3  5  1  0
  5  6  1  0
  6  7  1  0
  7  8  1  0
  7  9  2  0
  6 10  2  0
 10 11  1  0
 11 12  2  0
 12 13  1  0
 13 14  2  0
 14 15  1  0
 15 16  1  0
 16 17  1  0
 17 18  1  0
 18 19  1  0
 19 20  1  0
 20 21  1  0
 15 22  1  0
 22 23  1  0
 23 24  1  0
 14 25  1  0
 25 26  2  0
 26  5  1  0
 26 11  1  0
 24 15  1  0
 21 17  1  0
  1 27  1  0
  1 28  1  0
  1 29  1  0
  2 30  1  0
  2 31  1  0
  8 32  1  0
 10 33  1  0
 12 34  1  0
 13 35  1  0
 16 36  1  0
 16 37  1  0
 18 38  1  0
 18 39  1  0
 19 40  1  0
 19 41  1  0
 20 42  1  0
 20 43  1  0
 21 44  1  0
 21 45  1  0
 22 46  1  0
 22 47  1  0
 23 48  1  0
 23 49  1  0
 24 50  1  0
 24 51  1  0
 25 52  1  0
M  CHG  1   8  -1
M  END
>  <UniqueID>  (45) 
45

>  <SMILES>  (45) 
CCC(=O)n1c(C([NH-])=O)cc2ccc(C3(CN4CCCC4)CCC3)cc21

>  <Energy>  (45) 
158.67869746462165

>  <Genealogy>  (45) 
CCC(=O)n1c(C([NH-])=O)cc2ccc(C3(CN4CCCC4)CCC3)cc21 (protonated)
CCC(=O)n1c(C([NH-])=O)cc2ccc(C3(CN4CCCC4)CCC3)cc21 (3D coordinates assigned)
CCC(=O)n1c(C([NH-])=O)cc2ccc(C3(CN4CCCC4)CCC3)cc21 (nonaromatic ring conformer: 158.67869746462165 kcal/mol)

>  <smiles>  (45) 
CCC(=O)n1c(C(N)=O)cc2ccc(C3(CN4CCCC4)CCC3)cc21

>  <score_type>  (45) 
oracle

>  <origin>  (45) 
adg

>  <m_score__min__energy>  (45) 
-12.56

>  <m_primary>  (45) 
energy

$$$$
45:0
     RDKit          3D

 33 34  0  0  0  0  0  0  0  0999 V2000
   -4.3920   17.4050  -34.9690 C   0  0  0  0  0  0  0  0  0  0  0  0
   -5.3270   18.4580  -34.7720 O   0  0  0  0  0  0  0  0  0  0  0  0
   -5.7930   18.8240  -33.5050 C   0  0  0  0  0  0  0  0  0  0  0  0
   -6.1040   17.9400  -32.6590 O   0  0  0  0  0  0  0  0  0  0  0  0
   -5.8630   20.2840  -33.1470 C   0  0  1  0  0  0  0  0  0  0  0  0
   -7.1210   20.6170  -32.3350 C   0  0  0  0  0  0  0  0  0  0  0  0
   -4.6080   20.7120  -32.4150 C   0  0  0  0  0  0  0  0  0  0  0  0
   -3.4760   19.8540  -32.3440 C   0  0  0  0  0  0  0  0  0  0  0  0
   -2.3180   20.2460  -31.6540 C   0  0  0  0  0  0  0  0  0  0  0  0
   -2.3110   21.4990  -31.0490 C   0  0  0  0  0  0  0  0  0  0  0  0
   -1.3350   22.1120  -30.2990 C   0  0  0  0  0  0  0  0  0  0  0  0
   -1.8680   23.3480  -29.9380 C   0  0  0  0  0  0  0  0  0  0  0  0
   -1.1090   24.3730  -29.1940 C   0  0  0  0  0  0  0  0  0  0  0  0
   -1.6610   25.6650  -28.9540 N   0  0  0  0  0  0  0  0  0  0  0  0
    0.0640   24.1220  -28.8070 O   0  0  0  0  0  0  0  0  0  0  0  0
   -3.1290   23.4880  -30.4380 N   0  0  0  0  0  0  0  0  0  0  0  0
   -4.0470   24.5710  -30.2110 C   0  0  0  0  0  0  0  0  0  0  0  0
   -3.8850   25.6750  -30.7930 O   0  0  0  0  0  0  0  0  0  0  0  0
   -5.1370   24.4000  -29.3670 O   0  0  0  0  0  0  0  0  0  0  0  0
   -3.3840   22.3480  -31.1190 C   0  0  0  0  0  0  0  0  0  0  0  0
   -4.5580   21.9780  -31.7830 C   0  0  0  0  0  0  0  0  0  0  0  0
   -4.0555   17.0260  -33.9927 H   0  0  0  0  0  0  0  0  0  0  0  0
   -4.8702   16.5908  -35.5333 H   0  0  0  0  0  0  0  0  0  0  0  0
   -3.5270   17.7835  -35.5333 H   0  0  0  0  0  0  0  0  0  0  0  0
   -5.9296   20.8539  -34.0855 H   0  0  0  0  0  0  0  0  0  0  0  0
   -6.8910   20.5561  -31.2610 H   0  0  0  0  0  0  0  0  0  0  0  0
   -7.4573   21.6351  -32.5808 H   0  0  0  0  0  0  0  0  0  0  0  0
   -7.9169   19.8986  -32.5808 H   0  0  0  0  0  0  0  0  0  0  0  0
   -3.5082   18.8707  -32.8360 H   0  0  0  0  0  0  0  0  0  0  0  0
   -1.4426   19.5826  -31.5934 H   0  0  0  0  0  0  0  0  0  0  0  0
   -0.3439   21.7117  -30.0391 H   0  0  0  0  0  0  0  0  0  0  0  0
   -2.6930   25.8180  -28.9680 H   0  0  0  0  0  0  0  0  0  0  0  0
   -5.4238   22.6559  -31.8136 H   0  0  0  0  0  0  0  0  0  0  0  0
  1  2  1  0
  2  3  1  0
  3  4  2  0
  3  5  1  0
  5  6  1  0
  5  7  1  0
  7  8  2  0
  8  9  1  0
  9 10  2  0
 10 11  1  0
 11 12  2  0
 12 13  1  0
 13 14  1  0
 13 15  2  0
 12 16  1  0
 16 17  1  0
 17 18  2  0
 17 19  1  0
 16 20  1  0
 20 21  2  0
 21  7  1  0
 20 10  1  0
  1 22  1  0
  1 23  1  0
  1 24  1  0
  5 25  1  6
  6 26  1  0
  6 27  1  0
  6 28  1  0
  8 29  1  0
  9 30  1  0
 11 31  1  0
 14 32  1  0
 21 33  1  0
M  CHG  2  14  -1  19  -1
M  END
>  <UniqueID>  (46) 
46

>  <SMILES>  (46) 
COC(=O)[C@@H](C)c1ccc2cc(C([NH-])=O)n(C(=O)[O-])c2c1

>  <Energy>  (46) 
69.4136917263097

>  <Genealogy>  (46) 
COC(=O)C(C)c1ccc2cc(C([NH-])=O)n(C(=O)[O-])c2c1 (protonated)
COC(=O)[C@@H](C)c1ccc2cc(C([NH-])=O)n(C(=O)[O-])c2c1 (chirality)
COC(=O)[C@@H](C)c1ccc2cc(C([NH-])=O)n(C(=O)[O-])c2c1 (3D coordinates assigned)
COC(=O)[C@@H](C)c1ccc2cc(C([NH-])=O)n(C(=O)[O-])c2c1 (optimized conformer: 69.4136917263097 kcal/mol)

>  <smiles>  (46) 
COC(=O)C(C)c1ccc2cc(C(N)=O)n(C(=O)O)c2c1

>  <score_type>  (46) 
oracle

>  <origin>  (46) 
adg

>  <m_score__min__energy>  (46) 
-10.619999999999999

>  <m_primary>  (46) 
energy

$$$$
46:0
     RDKit          3D

 38 40  0  0  0  0  0  0  0  0999 V2000
   -1.8800   21.4640  -32.0670 C   0  0  0  0  0  0  0  0  0  0  0  0
   -1.5160   21.0110  -33.4760 C   0  0  0  0  0  0  0  0  0  0  0  0
   -2.6130   20.3350  -34.0870 O   0  0  0  0  0  0  0  0  0  0  0  0
   -3.0300   19.0520  -33.7170 C   0  0  0  0  0  0  0  0  0  0  0  0
   -2.1840   18.1350  -33.5270 O   0  0  0  0  0  0  0  0  0  0  0  0
   -4.4320   18.7710  -33.5830 N   0  0  0  0  0  0  0  0  0  0  0  0
   -5.1180   17.6940  -34.0600 C   0  0  0  0  0  0  0  0  0  0  0  0
   -4.5270   16.4930  -34.6870 C   0  0  0  0  0  0  0  0  0  0  0  0
   -3.4430   16.6040  -35.6060 N   0  0  0  0  0  0  0  0  0  0  0  0
   -4.9520   15.3510  -34.3710 O   0  0  0  0  0  0  0  0  0  0  0  0
   -6.4810   17.8300  -33.8000 C   0  0  0  0  0  0  0  0  0  0  0  0
   -6.6080   19.0280  -33.1360 C   0  0  0  0  0  0  0  0  0  0  0  0
   -7.7440   19.6640  -32.6470 C   0  0  0  0  0  0  0  0  0  0  0  0
   -7.5840   20.9120  -32.0240 C   0  0  0  0  0  0  0  0  0  0  0  0
   -6.3000   21.5080  -31.9070 C   0  0  0  0  0  0  0  0  0  0  0  0
   -6.1450   22.8340  -31.2570 C   0  0  0  0  0  0  0  0  0  0  0  0
   -7.2610   23.4990  -30.7140 C   0  0  0  0  0  0  0  0  0  0  0  0
   -7.1140   24.7480  -30.1020 C   0  0  0  0  0  0  0  0  0  0  0  0
   -5.8560   25.3470  -30.0270 C   0  0  0  0  0  0  0  0  0  0  0  0
   -4.7390   24.6980  -30.5630 C   0  0  0  0  0  0  0  0  0  0  0  0
   -3.4880   25.2970  -30.4900 O   0  0  0  0  0  0  0  0  0  0  0  0
   -4.8820   23.4480  -31.1740 C   0  0  0  0  0  0  0  0  0  0  0  0
   -5.1690   20.8280  -32.4190 C   0  0  0  0  0  0  0  0  0  0  0  0
   -5.3570   19.5760  -33.0170 C   0  0  0  0  0  0  0  0  0  0  0  0
   -1.3670   20.8256  -31.3326 H   0  0  0  0  0  0  0  0  0  0  0  0
   -1.5677   22.5092  -31.9257 H   0  0  0  0  0  0  0  0  0  0  0  0
   -2.9680   21.3841  -31.9257 H   0  0  0  0  0  0  0  0  0  0  0  0
   -1.2515   21.8907  -34.0812 H   0  0  0  0  0  0  0  0  0  0  0  0
   -0.6631   20.3189  -33.4159 H   0  0  0  0  0  0  0  0  0  0  0  0
   -2.6740   17.2920  -35.4500 H   0  0  0  0  0  0  0  0  0  0  0  0
   -7.2843   17.1283  -34.0688 H   0  0  0  0  0  0  0  0  0  0  0  0
   -8.7380   19.2031  -32.7454 H   0  0  0  0  0  0  0  0  0  0  0  0
   -8.4641   21.4348  -31.6214 H   0  0  0  0  0  0  0  0  0  0  0  0
   -8.2557   23.0328  -30.7715 H   0  0  0  0  0  0  0  0  0  0  0  0
   -7.9915   25.2589  -29.6791 H   0  0  0  0  0  0  0  0  0  0  0  0
   -5.7427   26.3299  -29.5462 H   0  0  0  0  0  0  0  0  0  0  0  0
   -4.0001   22.9411  -31.5928 H   0  0  0  0  0  0  0  0  0  0  0  0
   -4.1655   21.2729  -32.3487 H   0  0  0  0  0  0  0  0  0  0  0  0
  1  2  1  0
  2  3  1  0
  3  4  1  0
  4  5  2  0
  4  6  1  0
  6  7  1  0
  7  8  1  0
  8  9  1  0
  8 10  2  0
  7 11  2  0
 11 12  1  0
 12 13  2  0
 13 14  1  0
 14 15  2  0
 15 16  1  0
 16 17  2  0
 17 18  1  0
 18 19  2  0
 19 20  1  0
 20 21  1  0
 20 22  2  0
 15 23  1  0
 23 24  2  0
 24  6  1  0
 24 12  1  0
 22 16  1  0
  1 25  1  0
  1 26  1  0
  1 27  1  0
  2 28  1  0
  2 29  1  0
  9 30  1  0
 11 31  1  0
 13 32  1  0
 14 33  1  0
 17 34  1  0
 18 35  1  0
 19 36  1  0
 22 37  1  0
 23 38  1  0
M  CHG  2   9  -1  21  -1
M  END
>  <UniqueID>  (47) 
47

>  <SMILES>  (47) 
CCOC(=O)n1c(C([NH-])=O)cc2ccc(-c3cccc([O-])c3)cc21

>  <Energy>  (47) 
81.19874618272016

>  <Genealogy>  (47) 
CCOC(=O)n1c(C([NH-])=O)cc2ccc(-c3cccc([O-])c3)cc21 (protonated)
CCOC(=O)n1c(C([NH-])=O)cc2ccc(-c3cccc([O-])c3)cc21 (3D coordinates assigned)
CCOC(=O)n1c(C([NH-])=O)cc2ccc(-c3cccc([O-])c3)cc21 (optimized conformer: 81.19874618272016 kcal/mol)

>  <smiles>  (47) 
CCOC(=O)n1c(C(N)=O)cc2ccc(-c3cccc(O)c3)cc21

>  <score_type>  (47) 
oracle

>  <origin>  (47) 
adg

>  <m_score__min__energy>  (47) 
-10.67

>  <m_primary>  (47) 
energy

$$$$
47:0
     RDKit          3D

 40 41  0  0  0  0  0  0  0  0999 V2000
   -2.9650   20.1830  -33.4690 C   0  0  0  0  0  0  0  0  0  0  0  0
   -3.6080   21.5540  -33.3290 C   0  0  0  0  0  0  0  0  0  0  0  0
   -3.3550   22.0640  -32.0240 O   0  0  0  0  0  0  0  0  0  0  0  0
   -4.2890   21.9840  -30.9880 C   0  0  0  0  0  0  0  0  0  0  0  0
   -3.9430   21.5510  -29.8540 O   0  0  0  0  0  0  0  0  0  0  0  0
   -5.6520   22.3770  -31.2200 N   0  0  0  0  0  0  0  0  0  0  0  0
   -6.2340   23.5740  -30.9210 C   0  0  0  0  0  0  0  0  0  0  0  0
   -5.5260   24.7920  -30.4790 C   0  0  0  0  0  0  0  0  0  0  0  0
   -5.8510   25.4300  -29.2440 N   0  0  0  0  0  0  0  0  0  0  0  0
   -4.5780   25.2430  -31.1760 O   0  0  0  0  0  0  0  0  0  0  0  0
   -7.6080   23.5200  -31.1300 C   0  0  0  0  0  0  0  0  0  0  0  0
   -7.8560   22.2460  -31.5840 C   0  0  0  0  0  0  0  0  0  0  0  0
   -9.0630   21.6340  -31.9130 C   0  0  0  0  0  0  0  0  0  0  0  0
   -9.0340   20.2840  -32.2970 C   0  0  0  0  0  0  0  0  0  0  0  0
   -7.8080   19.5760  -32.3510 C   0  0  0  0  0  0  0  0  0  0  0  0
   -7.7890   18.1170  -32.7170 C   0  0  0  0  0  0  0  0  0  0  0  0
   -6.4550   17.5080  -32.3660 C   0  0  0  0  0  0  0  0  0  0  0  0
   -6.1890   17.3120  -31.1880 O   0  0  0  0  0  0  0  0  0  0  0  0
   -5.4330   17.1440  -33.4210 C   0  0  0  0  0  0  0  0  0  0  0  0
   -4.1810   17.5370  -32.9800 F   0  0  0  0  0  0  0  0  0  0  0  0
   -5.4090   15.7770  -33.6390 F   0  0  0  0  0  0  0  0  0  0  0  0
   -5.7390   17.8490  -34.7460 C   0  0  0  0  0  0  0  0  0  0  0  0
   -4.8190   17.4800  -35.7130 F   0  0  0  0  0  0  0  0  0  0  0  0
   -5.6790   19.2190  -34.5710 F   0  0  0  0  0  0  0  0  0  0  0  0
   -6.6050   20.2280  -32.0070 C   0  0  0  0  0  0  0  0  0  0  0  0
   -6.6610   21.5770  -31.6330 C   0  0  0  0  0  0  0  0  0  0  0  0
   -2.7694   19.7660  -32.4701 H   0  0  0  0  0  0  0  0  0  0  0  0
   -3.6434   19.5143  -34.0191 H   0  0  0  0  0  0  0  0  0  0  0  0
   -2.0171   20.2770  -34.0191 H   0  0  0  0  0  0  0  0  0  0  0  0
   -3.1826   22.2372  -34.0789 H   0  0  0  0  0  0  0  0  0  0  0  0
   -4.6934   21.4685  -33.4860 H   0  0  0  0  0  0  0  0  0  0  0  0
   -5.3650   26.3130  -28.9670 H   0  0  0  0  0  0  0  0  0  0  0  0
   -6.5130   24.9920  -28.5670 H   0  0  0  0  0  0  0  0  0  0  0  0
   -8.3400   24.3247  -30.9669 H   0  0  0  0  0  0  0  0  0  0  0  0
  -10.0104   22.1916  -31.8732 H   0  0  0  0  0  0  0  0  0  0  0  0
   -9.9715   19.7713  -32.5583 H   0  0  0  0  0  0  0  0  0  0  0  0
   -8.5836   17.5938  -32.1648 H   0  0  0  0  0  0  0  0  0  0  0  0
   -7.9548   18.0170  -33.7998 H   0  0  0  0  0  0  0  0  0  0  0  0
   -6.7477   17.5553  -35.0720 H   0  0  0  0  0  0  0  0  0  0  0  0
   -5.6459   19.6899  -32.0319 H   0  0  0  0  0  0  0  0  0  0  0  0
  1  2  1  0
  2  3  1  0
  3  4  1  0
  4  5  2  0
  4  6  1  0
  6  7  1  0
  7  8  1  0
  8  9  1  0
  8 10  2  0
  7 11  2  0
 11 12  1  0
 12 13  2  0
 13 14  1  0
 14 15  2  0
 15 16  1  0
 16 17  1  0
 17 18  2  0
 17 19  1  0
 19 20  1  0
 19 21  1  0
 19 22  1  0
 22 23  1  0
 22 24  1  0
 15 25  1  0
 25 26  2  0
 26  6  1  0
 26 12  1  0
  1 27  1  0
  1 28  1  0
  1 29  1  0
  2 30  1  0
  2 31  1  0
  9 32  1  0
  9 33  1  0
 11 34  1  0
 13 35  1  0
 14 36  1  0
 16 37  1  0
 16 38  1  0
 22 39  1  0
 25 40  1  0
M  END
>  <UniqueID>  (48) 
48

>  <SMILES>  (48) 
CCOC(=O)n1c(C(N)=O)cc2ccc(CC(=O)C(F)(F)C(F)F)cc21

>  <Energy>  (48) 
68.97184395713833

>  <Genealogy>  (48) 
CCOC(=O)n1c(C(N)=O)cc2ccc(CC(=O)C(F)(F)C(F)F)cc21 (3D coordinates assigned)
CCOC(=O)n1c(C(N)=O)cc2ccc(CC(=O)C(F)(F)C(F)F)cc21 (optimized conformer: 68.97184395713833 kcal/mol)

>  <smiles>  (48) 
CCOC(=O)n1c(C(N)=O)cc2ccc(CC(=O)C(F)(F)C(F)F)cc21

>  <score_type>  (48) 
oracle

>  <origin>  (48) 
adg

>  <m_score__min__energy>  (48) 
-8.1899999999999995

>  <m_primary>  (48) 
energy

$$$$
48:0
     RDKit          3D

 48 50  0  0  0  0  0  0  0  0999 V2000
   -3.7440   24.5290  -29.9520 C   0  0  0  0  0  0  0  0  0  0  0  0
   -4.4840   24.7400  -31.1970 N   0  0  0  0  0  0  0  0  0  0  0  0
   -5.9230   24.8220  -30.9250 C   0  0  0  0  0  0  0  0  0  0  0  0
   -6.6050   23.5800  -31.4300 C   0  0  0  0  0  0  0  0  0  0  0  0
   -7.9890   23.4190  -31.2630 C   0  0  0  0  0  0  0  0  0  0  0  0
   -8.6170   22.2500  -31.6940 C   0  0  0  0  0  0  0  0  0  0  0  0
   -7.8720   21.2270  -32.2840 C   0  0  0  0  0  0  0  0  0  0  0  0
   -6.4810   21.3640  -32.4480 C   0  0  0  0  0  0  0  0  0  0  0  0
   -5.6850   20.2740  -33.0680 C   0  0  0  0  0  0  0  0  0  0  0  0
   -6.2880   19.3810  -33.9950 C   0  0  0  0  0  0  0  0  0  0  0  0
   -5.5450   18.3450  -34.5860 C   0  0  0  0  0  0  0  0  0  0  0  0
   -4.2030   18.2260  -34.2390 C   0  0  0  0  0  0  0  0  0  0  0  0
   -3.2580   17.3070  -34.6410 C   0  0  0  0  0  0  0  0  0  0  0  0
   -2.0870   17.6590  -33.9650 C   0  0  0  0  0  0  0  0  0  0  0  0
   -0.7870   16.9640  -34.1070 C   0  0  0  0  0  0  0  0  0  0  0  0
   -0.0360   16.5580  -32.9600 N   0  0  0  0  0  0  0  0  0  0  0  0
   -0.3280   16.7150  -35.2540 O   0  0  0  0  0  0  0  0  0  0  0  0
   -2.3060   18.7560  -33.1900 N   0  0  0  0  0  0  0  0  0  0  0  0
   -1.3800   19.3960  -32.3000 C   0  0  0  0  0  0  0  0  0  0  0  0
   -0.9400   18.7550  -31.3070 O   0  0  0  0  0  0  0  0  0  0  0  0
   -0.9480   20.7500  -32.5360 N   0  0  0  0  0  0  0  0  0  0  0  0
   -0.1900   21.4540  -31.4990 C   0  0  0  0  0  0  0  0  0  0  0  0
   -1.2090   21.3870  -33.8300 C   0  0  0  0  0  0  0  0  0  0  0  0
   -3.6030   19.0840  -33.3580 C   0  0  0  0  0  0  0  0  0  0  0  0
   -4.3180   20.1150  -32.7430 C   0  0  0  0  0  0  0  0  0  0  0  0
   -5.8550   22.5450  -32.0110 C   0  0  0  0  0  0  0  0  0  0  0  0
   -4.4070   24.7180  -29.0948 H   0  0  0  0  0  0  0  0  0  0  0  0
   -3.3807   23.4915  -29.9127 H   0  0  0  0  0  0  0  0  0  0  0  0
   -2.8881   25.2189  -29.9127 H   0  0  0  0  0  0  0  0  0  0  0  0
   -4.1740   25.6590  -31.5930 H   0  0  0  0  0  0  0  0  0  0  0  0
   -6.0858   24.9137  -29.8410 H   0  0  0  0  0  0  0  0  0  0  0  0
   -6.3413   25.7014  -31.4365 H   0  0  0  0  0  0  0  0  0  0  0  0
   -8.5807   24.2170  -30.7908 H   0  0  0  0  0  0  0  0  0  0  0  0
   -9.7036   22.1338  -31.5685 H   0  0  0  0  0  0  0  0  0  0  0  0
   -8.3750   20.3091  -32.6224 H   0  0  0  0  0  0  0  0  0  0  0  0
   -7.3503   19.5025  -34.2532 H   0  0  0  0  0  0  0  0  0  0  0  0
   -6.0099   17.6499  -35.3006 H   0  0  0  0  0  0  0  0  0  0  0  0
   -3.3963   16.4731  -35.3449 H   0  0  0  0  0  0  0  0  0  0  0  0
    0.8640   16.0430  -33.0810 H   0  0  0  0  0  0  0  0  0  0  0  0
   -0.3410   16.7980  -31.9930 H   0  0  0  0  0  0  0  0  0  0  0  0
   -0.5382   21.1306  -30.5070 H   0  0  0  0  0  0  0  0  0  0  0  0
    0.8799   21.2220  -31.6056 H   0  0  0  0  0  0  0  0  0  0  0  0
   -0.3425   22.5382  -31.6056 H   0  0  0  0  0  0  0  0  0  0  0  0
   -1.6214   22.3936  -33.6666 H   0  0  0  0  0  0  0  0  0  0  0  0
   -0.2696   21.4633  -34.3973 H   0  0  0  0  0  0  0  0  0  0  0  0
   -1.9318   20.7822  -34.3973 H   0  0  0  0  0  0  0  0  0  0  0  0
   -3.8289   20.7873  -32.0228 H   0  0  0  0  0  0  0  0  0  0  0  0
   -4.7669   22.6590  -32.1255 H   0  0  0  0  0  0  0  0  0  0  0  0
  1  2  1  0
  2  3  1  0
  3  4  1  0
  4  5  2  0
  5  6  1  0
  6  7  2  0
  7  8  1  0
  8  9  1  0
  9 10  2  0
 10 11  1  0
 11 12  2  0
 12 13  1  0
 13 14  2  0
 14 15  1  0
 15 16  1  0
 15 17  2  0
 14 18  1  0
 18 19  1  0
 19 20  2  0
 19 21  1  0
 21 22  1  0
 21 23  1  0
 18 24  1  0
 24 25  2  0
  8 26  2  0
 26  4  1  0
 25  9  1  0
 24 12  1  0
  1 27  1  0
  1 28  1  0
  1 29  1  0
  2 30  1  0
  3 31  1  0
  3 32  1  0
  5 33  1  0
  6 34  1  0
  7 35  1  0
 10 36  1  0
 11 37  1  0
 13 38  1  0
 16 39  1  0
 16 40  1  0
 22 41  1  0
 22 42  1  0
 22 43  1  0
 23 44  1  0
 23 45  1  0
 23 46  1  0
 25 47  1  0
 26 48  1  0
M  END
>  <UniqueID>  (49) 
49

>  <SMILES>  (49) 
CNCc1cccc(-c2ccc3cc(C(N)=O)n(C(=O)N(C)C)c3c2)c1

>  <Energy>  (49) 
89.24479059375543

>  <Genealogy>  (49) 
CNCc1cccc(-c2ccc3cc(C(N)=O)n(C(=O)N(C)C)c3c2)c1 (3D coordinates assigned)
CNCc1cccc(-c2ccc3cc(C(N)=O)n(C(=O)N(C)C)c3c2)c1 (optimized conformer: 89.24479059375543 kcal/mol)

>  <smiles>  (49) 
CNCc1cccc(-c2ccc3cc(C(N)=O)n(C(=O)N(C)C)c3c2)c1

>  <score_type>  (49) 
oracle

>  <origin>  (49) 
adg

>  <m_score__min__energy>  (49) 
-9.2200000000000006

>  <m_primary>  (49) 
energy

$$$$
49:0
     RDKit          3D

 28 29  0  0  0  0  0  0  0  0999 V2000
   -4.0890   22.8500  -28.2460 C   0  0  0  0  0  0  0  0  0  0  0  0
   -3.3140   21.6430  -29.3710 S   0  0  0  0  0  0  0  0  0  0  0  0
   -3.9890   22.3810  -30.8630 C   0  0  0  0  0  0  0  0  0  0  0  0
   -3.1980   22.6940  -31.7920 O   0  0  0  0  0  0  0  0  0  0  0  0
   -5.3910   22.6920  -30.9800 N   0  0  0  0  0  0  0  0  0  0  0  0
   -5.9640   23.9250  -30.8500 C   0  0  0  0  0  0  0  0  0  0  0  0
   -5.2820   25.1570  -30.3950 C   0  0  0  0  0  0  0  0  0  0  0  0
   -3.8770   25.3020  -30.5900 N   0  0  0  0  0  0  0  0  0  0  0  0
   -5.9320   26.0990  -29.8720 O   0  0  0  0  0  0  0  0  0  0  0  0
   -7.3280   23.8680  -31.1160 C   0  0  0  0  0  0  0  0  0  0  0  0
   -7.5870   22.5510  -31.4070 C   0  0  0  0  0  0  0  0  0  0  0  0
   -8.7890   21.9360  -31.7380 C   0  0  0  0  0  0  0  0  0  0  0  0
   -8.7750   20.5570  -32.0010 C   0  0  0  0  0  0  0  0  0  0  0  0
   -7.5610   19.8250  -31.9510 C   0  0  0  0  0  0  0  0  0  0  0  0
   -7.5610   18.3360  -32.1930 C   0  0  0  0  0  0  0  0  0  0  0  0
   -6.6640   17.7050  -31.3500 F   0  0  0  0  0  0  0  0  0  0  0  0
   -7.2020   18.0520  -33.4990 F   0  0  0  0  0  0  0  0  0  0  0  0
   -8.8290   17.8370  -31.9560 F   0  0  0  0  0  0  0  0  0  0  0  0
   -6.3640   20.4830  -31.5870 C   0  0  0  0  0  0  0  0  0  0  0  0
   -6.4060   21.8570  -31.3180 C   0  0  0  0  0  0  0  0  0  0  0  0
   -3.8991   22.5542  -27.2037 H   0  0  0  0  0  0  0  0  0  0  0  0
   -3.6620   23.8473  -28.4277 H   0  0  0  0  0  0  0  0  0  0  0  0
   -5.1736   22.8768  -28.4277 H   0  0  0  0  0  0  0  0  0  0  0  0
   -3.4970   26.0430  -31.2190 H   0  0  0  0  0  0  0  0  0  0  0  0
   -8.0465   24.7007  -31.0973 H   0  0  0  0  0  0  0  0  0  0  0  0
   -9.7239   22.5131  -31.7923 H   0  0  0  0  0  0  0  0  0  0  0  0
   -9.7138   20.0396  -32.2480 H   0  0  0  0  0  0  0  0  0  0  0  0
   -5.4177   19.9267  -31.5164 H   0  0  0  0  0  0  0  0  0  0  0  0
  1  2  1  0
  2  3  1  0
  3  4  2  0
  3  5  1  0
  5  6  1  0
  6  7  1  0
  7  8  1  0
  7  9  2  0
  6 10  2  0
 10 11  1  0
 11 12  2  0
 12 13  1  0
 13 14  2  0
 14 15  1  0
 15 16  1  0
 15 17  1  0
 15 18  1  0
 14 19  1  0
 19 20  2  0
 20  5  1  0
 20 11  1  0
  1 21  1  0
  1 22  1  0
  1 23  1  0
  8 24  1  0
 10 25  1  0
 12 26  1  0
 13 27  1  0
 19 28  1  0
M  CHG  1   8  -1
M  END
>  <UniqueID>  (50) 
50

>  <SMILES>  (50) 
CSC(=O)n1c(C([NH-])=O)cc2ccc(C(F)(F)F)cc21

>  <Energy>  (50) 
67.79998136361702

>  <Genealogy>  (50) 
CSC(=O)n1c(C([NH-])=O)cc2ccc(C(F)(F)F)cc21 (protonated)
CSC(=O)n1c(C([NH-])=O)cc2ccc(C(F)(F)F)cc21 (3D coordinates assigned)
CSC(=O)n1c(C([NH-])=O)cc2ccc(C(F)(F)F)cc21 (optimized conformer: 67.79998136361702 kcal/mol)

>  <smiles>  (50) 
CSC(=O)n1c(C(N)=O)cc2ccc(C(F)(F)F)cc21

>  <score_type>  (50) 
oracle

>  <origin>  (50) 
adg

>  <m_score__min__energy>  (50) 
-9.6999999999999993

>  <m_primary>  (50) 
energy

$$$$
50:0
     RDKit          3D

 35 36  0  0  0  0  0  0  0  0999 V2000
   -6.4550   17.3530  -31.6960 C   0  0  0  0  0  0  0  0  0  0  0  0
   -6.7660   18.2750  -32.8840 C   0  0  2  0  0  0  0  0  0  0  0  0
   -5.6490   18.2370  -33.9440 C   0  0  0  0  0  0  0  0  0  0  0  0
   -6.0710   18.8600  -35.1280 O   0  0  0  0  0  0  0  0  0  0  0  0
   -7.0100   19.6950  -32.4100 C   0  0  0  0  0  0  0  0  0  0  0  0
   -8.3240   20.2320  -32.4310 C   0  0  0  0  0  0  0  0  0  0  0  0
   -8.5740   21.5430  -31.9910 C   0  0  0  0  0  0  0  0  0  0  0  0
   -7.4940   22.2960  -31.5390 C   0  0  0  0  0  0  0  0  0  0  0  0
   -7.4520   23.5840  -31.0520 C   0  0  0  0  0  0  0  0  0  0  0  0
   -6.1100   23.8200  -30.7510 C   0  0  0  0  0  0  0  0  0  0  0  0
   -5.5770   25.1170  -30.2780 C   0  0  0  0  0  0  0  0  0  0  0  0
   -4.2400   25.5180  -30.5870 N   0  0  0  0  0  0  0  0  0  0  0  0
   -6.2960   25.8760  -29.5770 O   0  0  0  0  0  0  0  0  0  0  0  0
   -5.3600   22.7190  -31.0370 N   0  0  0  0  0  0  0  0  0  0  0  0
   -3.9500   22.5320  -30.8430 C   0  0  0  0  0  0  0  0  0  0  0  0
   -3.1370   23.0910  -31.6260 O   0  0  0  0  0  0  0  0  0  0  0  0
   -3.4260   21.6240  -29.7690 C   0  0  0  0  0  0  0  0  0  0  0  0
   -2.0520   21.7310  -29.6570 F   0  0  0  0  0  0  0  0  0  0  0  0
   -3.7570   20.3140  -30.0650 F   0  0  0  0  0  0  0  0  0  0  0  0
   -4.0000   21.9710  -28.5600 F   0  0  0  0  0  0  0  0  0  0  0  0
   -6.2190   21.7990  -31.5210 C   0  0  0  0  0  0  0  0  0  0  0  0
   -5.9390   20.4970  -31.9440 C   0  0  0  0  0  0  0  0  0  0  0  0
   -6.6372   17.8931  -30.7552 H   0  0  0  0  0  0  0  0  0  0  0  0
   -7.1036   16.4657  -31.7409 H   0  0  0  0  0  0  0  0  0  0  0  0
   -5.4015   17.0398  -31.7409 H   0  0  0  0  0  0  0  0  0  0  0  0
   -7.6846   17.9023  -33.3608 H   0  0  0  0  0  0  0  0  0  0  0  0
   -4.7636   18.7614  -33.5552 H   0  0  0  0  0  0  0  0  0  0  0  0
   -5.4036   17.1874  -34.1634 H   0  0  0  0  0  0  0  0  0  0  0  0
   -6.9700   19.2430  -34.9480 H   0  0  0  0  0  0  0  0  0  0  0  0
   -9.1573   19.6139  -32.7964 H   0  0  0  0  0  0  0  0  0  0  0  0
   -9.5914   21.9611  -32.0034 H   0  0  0  0  0  0  0  0  0  0  0  0
   -8.2961   24.2782  -30.9271 H   0  0  0  0  0  0  0  0  0  0  0  0
   -3.6330   24.9490  -31.2150 H   0  0  0  0  0  0  0  0  0  0  0  0
   -3.8670   26.4200  -30.2160 H   0  0  0  0  0  0  0  0  0  0  0  0
   -4.9119   20.1042  -31.9159 H   0  0  0  0  0  0  0  0  0  0  0  0
  1  2  1  0
  2  3  1  0
  3  4  1  0
  2  5  1  0
  5  6  2  0
  6  7  1  0
  7  8  2  0
  8  9  1  0
  9 10  2  0
 10 11  1  0
 11 12  1  0
 11 13  2  0
 10 14  1  0
 14 15  1  0
 15 16  2  0
 15 17  1  0
 17 18  1  0
 17 19  1  0
 17 20  1  0
 14 21  1  0
 21 22  2  0
 22  5  1  0
 21  8  1  0
  1 23  1  0
  1 24  1  0
  1 25  1  0
  2 26  1  6
  3 27  1  0
  3 28  1  0
  4 29  1  0
  6 30  1  0
  7 31  1  0
  9 32  1  0
 12 33  1  0
 12 34  1  0
 22 35  1  0
M  END
>  <UniqueID>  (51) 
51

>  <SMILES>  (51) 
C[C@H](CO)c1ccc2cc(C(N)=O)n(C(=O)C(F)(F)F)c2c1

>  <Energy>  (51) 
71.93389624671713

>  <Genealogy>  (51) 
C[C@H](CO)c1ccc2cc(C(N)=O)n(C(=O)C(F)(F)F)c2c1 (chirality)
C[C@H](CO)c1ccc2cc(C(N)=O)n(C(=O)C(F)(F)F)c2c1 (3D coordinates assigned)
C[C@H](CO)c1ccc2cc(C(N)=O)n(C(=O)C(F)(F)F)c2c1 (optimized conformer: 71.93389624671713 kcal/mol)

>  <smiles>  (51) 
CC(CO)c1ccc2cc(C(N)=O)n(C(=O)C(F)(F)F)c2c1

>  <score_type>  (51) 
oracle

>  <origin>  (51) 
adg

>  <m_score__min__energy>  (51) 
-8.3000000000000007

>  <m_primary>  (51) 
energy

$$$$
51:0
     RDKit          3D

 33 34  0  0  0  0  0  0  0  0999 V2000
   -7.2600   23.3620  -31.9250 C   0  0  0  0  0  0  0  0  0  0  0  0
   -7.7570   21.9870  -31.4970 C   0  0  0  0  0  0  0  0  0  0  0  0
   -7.5120   21.0260  -32.5220 O   0  0  0  0  0  0  0  0  0  0  0  0
   -6.5180   20.0450  -32.4350 C   0  0  0  0  0  0  0  0  0  0  0  0
   -6.5790   19.1380  -31.5600 O   0  0  0  0  0  0  0  0  0  0  0  0
   -5.3440   20.1100  -33.3570 C   0  0  0  0  0  0  0  0  0  0  0  0
   -4.1450   20.6280  -32.6150 C   0  0  0  0  0  0  0  0  0  0  0  0
   -2.9630   19.8490  -32.5400 C   0  0  0  0  0  0  0  0  0  0  0  0
   -1.8550   20.2990  -31.8040 C   0  0  0  0  0  0  0  0  0  0  0  0
   -1.9580   21.5260  -31.1530 C   0  0  0  0  0  0  0  0  0  0  0  0
   -1.0540   22.1780  -30.3470 C   0  0  0  0  0  0  0  0  0  0  0  0
   -1.6930   23.3510  -29.9490 C   0  0  0  0  0  0  0  0  0  0  0  0
   -1.0370   24.3950  -29.1350 C   0  0  0  0  0  0  0  0  0  0  0  0
   -1.6400   25.6750  -28.9620 N   0  0  0  0  0  0  0  0  0  0  0  0
    0.0940   24.1720  -28.6270 O   0  0  0  0  0  0  0  0  0  0  0  0
   -2.9470   23.4180  -30.4800 N   0  0  0  0  0  0  0  0  0  0  0  0
   -3.9530   24.4120  -30.2320 C   0  0  0  0  0  0  0  0  0  0  0  0
   -4.9000   24.1740  -29.4380 O   0  0  0  0  0  0  0  0  0  0  0  0
   -3.8750   25.6570  -30.8440 O   0  0  0  0  0  0  0  0  0  0  0  0
   -3.0920   22.2940  -31.2180 C   0  0  0  0  0  0  0  0  0  0  0  0
   -4.2170   21.8630  -31.9310 C   0  0  0  0  0  0  0  0  0  0  0  0
   -7.0413   23.9670  -31.0327 H   0  0  0  0  0  0  0  0  0  0  0  0
   -6.3452   23.2506  -32.5257 H   0  0  0  0  0  0  0  0  0  0  0  0
   -8.0346   23.8612  -32.5257 H   0  0  0  0  0  0  0  0  0  0  0  0
   -7.2310   21.6810  -30.5807 H   0  0  0  0  0  0  0  0  0  0  0  0
   -8.8400   22.0418  -31.3122 H   0  0  0  0  0  0  0  0  0  0  0  0
   -5.1274   19.1036  -33.7445 H   0  0  0  0  0  0  0  0  0  0  0  0
   -5.5748   20.7863  -34.1933 H   0  0  0  0  0  0  0  0  0  0  0  0
   -2.9133   18.8828  -33.0634 H   0  0  0  0  0  0  0  0  0  0  0  0
   -0.9339   19.7008  -31.7434 H   0  0  0  0  0  0  0  0  0  0  0  0
   -0.0418   21.8445  -30.0744 H   0  0  0  0  0  0  0  0  0  0  0  0
   -2.6740   25.7960  -29.0380 H   0  0  0  0  0  0  0  0  0  0  0  0
   -5.1339   22.4701  -31.9583 H   0  0  0  0  0  0  0  0  0  0  0  0
  1  2  1  0
  2  3  1  0
  3  4  1  0
  4  5  2  0
  4  6  1  0
  6  7  1  0
  7  8  2  0
  8  9  1  0
  9 10  2  0
 10 11  1  0
 11 12  2  0
 12 13  1  0
 13 14  1  0
 13 15  2  0
 12 16  1  0
 16 17  1  0
 17 18  2  0
 17 19  1  0
 16 20  1  0
 20 21  2  0
 21  7  1  0
 20 10  1  0
  1 22  1  0
  1 23  1  0
  1 24  1  0
  2 25  1  0
  2 26  1  0
  6 27  1  0
  6 28  1  0
  8 29  1  0
  9 30  1  0
 11 31  1  0
 14 32  1  0
 21 33  1  0
M  CHG  2  14  -1  19  -1
M  END
>  <UniqueID>  (52) 
52

>  <SMILES>  (52) 
CCOC(=O)Cc1ccc2cc(C([NH-])=O)n(C(=O)[O-])c2c1

>  <Energy>  (52) 
66.7463658707839

>  <Genealogy>  (52) 
CCOC(=O)Cc1ccc2cc(C([NH-])=O)n(C(=O)[O-])c2c1 (protonated)
CCOC(=O)Cc1ccc2cc(C([NH-])=O)n(C(=O)[O-])c2c1 (3D coordinates assigned)
CCOC(=O)Cc1ccc2cc(C([NH-])=O)n(C(=O)[O-])c2c1 (optimized conformer: 66.7463658707839 kcal/mol)

>  <smiles>  (52) 
CCOC(=O)Cc1ccc2cc(C(N)=O)n(C(=O)O)c2c1

>  <score_type>  (52) 
oracle

>  <origin>  (52) 
adg

>  <m_score__min__energy>  (52) 
-10.42

>  <m_primary>  (52) 
energy

$$$$
52:0
     RDKit          3D

 42 44  0  0  0  0  0  0  0  0999 V2000
   -1.7620   19.3430  -34.1920 C   0  0  0  0  0  0  0  0  0  0  0  0
   -3.0700   19.5330  -33.5550 N   0  0  0  0  0  0  0  0  0  0  0  0
   -3.7380   18.2510  -33.2600 C   0  0  0  0  0  0  0  0  0  0  0  0
   -5.0540   18.0620  -34.0570 C   0  0  1  0  0  0  0  0  0  0  0  0
   -5.2730   16.6010  -34.4690 C   0  0  0  0  0  0  0  0  0  0  0  0
   -6.7430   16.3070  -34.2020 C   0  0  0  0  0  0  0  0  0  0  0  0
   -7.1800   17.3250  -33.1610 C   0  0  0  0  0  0  0  0  0  0  0  0
   -6.2120   18.4100  -33.2350 N   0  0  0  0  0  0  0  0  0  0  0  0
   -6.4730   19.7240  -32.6880 C   0  0  0  0  0  0  0  0  0  0  0  0
   -7.8090   20.1820  -32.5400 C   0  0  0  0  0  0  0  0  0  0  0  0
   -8.0830   21.4480  -32.0000 C   0  0  0  0  0  0  0  0  0  0  0  0
   -7.0070   22.2440  -31.6230 C   0  0  0  0  0  0  0  0  0  0  0  0
   -6.9900   23.4940  -31.0510 C   0  0  0  0  0  0  0  0  0  0  0  0
   -5.6430   23.8030  -30.8760 C   0  0  0  0  0  0  0  0  0  0  0  0
   -5.1670   25.1030  -30.3600 C   0  0  0  0  0  0  0  0  0  0  0  0
   -3.9430   25.6540  -30.8430 N   0  0  0  0  0  0  0  0  0  0  0  0
   -5.8100   25.7190  -29.4690 O   0  0  0  0  0  0  0  0  0  0  0  0
   -4.8570   22.7790  -31.3180 N   0  0  0  0  0  0  0  0  0  0  0  0
   -3.4250   22.6740  -31.2550 C   0  0  0  0  0  0  0  0  0  0  0  0
   -2.7880   23.2250  -30.3190 O   0  0  0  0  0  0  0  0  0  0  0  0
   -2.7320   21.9440  -32.2110 O   0  0  0  0  0  0  0  0  0  0  0  0
   -5.7090   21.8350  -31.7750 C   0  0  0  0  0  0  0  0  0  0  0  0
   -5.4060   20.5710  -32.2960 C   0  0  0  0  0  0  0  0  0  0  0  0
   -0.9895   19.2308  -33.4169 H   0  0  0  0  0  0  0  0  0  0  0  0
   -1.7870   18.4391  -34.8183 H   0  0  0  0  0  0  0  0  0  0  0  0
   -1.5288   20.2167  -34.8183 H   0  0  0  0  0  0  0  0  0  0  0  0
   -3.6740   20.0740  -34.2160 H   0  0  0  0  0  0  0  0  0  0  0  0
   -2.9520   20.1030  -32.6860 H   0  0  0  0  0  0  0  0  0  0  0  0
   -3.0516   17.4302  -33.5152 H   0  0  0  0  0  0  0  0  0  0  0  0
   -3.9955   18.2501  -32.1906 H   0  0  0  0  0  0  0  0  0  0  0  0
   -4.9601   18.7104  -34.9406 H   0  0  0  0  0  0  0  0  0  0  0  0
   -5.0437   16.4661  -35.5364 H   0  0  0  0  0  0  0  0  0  0  0  0
   -4.6168   15.9205  -33.9066 H   0  0  0  0  0  0  0  0  0  0  0  0
   -7.3316   16.4234  -35.1239 H   0  0  0  0  0  0  0  0  0  0  0  0
   -6.8951   15.2753  -33.8519 H   0  0  0  0  0  0  0  0  0  0  0  0
   -8.1899   17.6966  -33.3892 H   0  0  0  0  0  0  0  0  0  0  0  0
   -7.2166   16.8836  -32.1541 H   0  0  0  0  0  0  0  0  0  0  0  0
   -8.6415   19.5348  -32.8533 H   0  0  0  0  0  0  0  0  0  0  0  0
   -9.1180   21.8001  -31.8786 H   0  0  0  0  0  0  0  0  0  0  0  0
   -7.8566   24.1181  -30.7873 H   0  0  0  0  0  0  0  0  0  0  0  0
   -3.0230   25.2990  -30.5010 H   0  0  0  0  0  0  0  0  0  0  0  0
   -4.3614   20.2421  -32.3990 H   0  0  0  0  0  0  0  0  0  0  0  0
  1  2  1  0
  2  3  1  0
  3  4  1  0
  4  5  1  0
  5  6  1  0
  6  7  1  0
  7  8  1  0
  8  9  1  0
  9 10  2  0
 10 11  1  0
 11 12  2  0
 12 13  1  0
 13 14  2  0
 14 15  1  0
 15 16  1  0
 15 17  2  0
 14 18  1  0
 18 19  1  0
 19 20  2  0
 19 21  1  0
 18 22  1  0
 22 23  2  0
  8  4  1  0
 23  9  1  0
 22 12  1  0
  1 24  1  0
  1 25  1  0
  1 26  1  0
  2 27  1  0
  2 28  1  0
  3 29  1  0
  3 30  1  0
  4 31  1  6
  5 32  1  0
  5 33  1  0
  6 34  1  0
  6 35  1  0
  7 36  1  0
  7 37  1  0
 10 38  1  0
 11 39  1  0
 13 40  1  0
 16 41  1  0
 23 42  1  0
M  CHG  3   2   1  16  -1  21  -1
M  END
>  <UniqueID>  (53) 
53

>  <SMILES>  (53) 
C[NH2+]C[C@H]1CCCN1c1ccc2cc(C([NH-])=O)n(C(=O)[O-])c2c1

>  <Energy>  (53) 
83.94483342063563

>  <Genealogy>  (53) 
C[NH2+]CC1CCCN1c1ccc2cc(C([NH-])=O)n(C(=O)[O-])c2c1 (protonated)
C[NH2+]C[C@H]1CCCN1c1ccc2cc(C([NH-])=O)n(C(=O)[O-])c2c1 (chirality)
C[NH2+]C[C@H]1CCCN1c1ccc2cc(C([NH-])=O)n(C(=O)[O-])c2c1 (3D coordinates assigned)
C[NH2+]C[C@H]1CCCN1c1ccc2cc(C([NH-])=O)n(C(=O)[O-])c2c1 (nonaromatic ring conformer: 83.94483342063563 kcal/mol)

>  <smiles>  (53) 
CNCC1CCCN1c1ccc2cc(C(N)=O)n(C(=O)O)c2c1

>  <score_type>  (53) 
oracle

>  <origin>  (53) 
adg

>  <m_score__min__energy>  (53) 
-10.880000000000001

>  <m_primary>  (53) 
energy

$$$$
53:0
     RDKit          3D

 57 59  0  0  0  0  0  0  0  0999 V2000
   -3.7620   16.8860  -35.0850 C   0  0  0  0  0  0  0  0  0  0  0  0
   -5.1710   16.9170  -34.8880 O   0  0  0  0  0  0  0  0  0  0  0  0
   -5.8420   18.0520  -34.4180 C   0  0  0  0  0  0  0  0  0  0  0  0
   -6.1110   19.0030  -35.2090 O   0  0  0  0  0  0  0  0  0  0  0  0
   -6.3500   18.1020  -32.9830 C   0  0  0  0  0  0  0  0  0  0  0  0
   -7.6130   17.2080  -32.9390 C   0  0  0  0  0  0  0  0  0  0  0  0
   -5.2930   17.5270  -32.0180 C   0  0  0  0  0  0  0  0  0  0  0  0
   -6.6370   19.5550  -32.5660 C   0  0  0  0  0  0  0  0  0  0  0  0
   -7.9800   20.0370  -32.5510 C   0  0  0  0  0  0  0  0  0  0  0  0
   -8.2780   21.3500  -32.1530 C   0  0  0  0  0  0  0  0  0  0  0  0
   -7.2220   22.1770  -31.7920 C   0  0  0  0  0  0  0  0  0  0  0  0
   -7.2280   23.4690  -31.3190 C   0  0  0  0  0  0  0  0  0  0  0  0
   -5.8900   23.7990  -31.1110 C   0  0  0  0  0  0  0  0  0  0  0  0
   -5.4670   25.1030  -30.5340 C   0  0  0  0  0  0  0  0  0  0  0  0
   -4.1840   25.6830  -30.7680 N   0  0  0  0  0  0  0  0  0  0  0  0
   -6.2910   25.7460  -29.8280 O   0  0  0  0  0  0  0  0  0  0  0  0
   -5.0910   22.7450  -31.4480 N   0  0  0  0  0  0  0  0  0  0  0  0
   -3.6640   22.6610  -31.3910 C   0  0  0  0  0  0  0  0  0  0  0  0
   -3.0130   23.5170  -30.7350 O   0  0  0  0  0  0  0  0  0  0  0  0
   -2.9700   21.6200  -32.0860 N   0  0  0  0  0  0  0  0  0  0  0  0
   -2.9770   21.5020  -33.5320 C   0  0  0  0  0  0  0  0  0  0  0  0
   -2.5420   20.0710  -33.8290 C   0  0  0  0  0  0  0  0  0  0  0  0
   -1.9090   19.5350  -32.5330 C   0  0  1  0  0  0  0  0  0  0  0  0
   -0.4280   19.4290  -32.6400 N   0  0  0  0  0  0  0  0  0  0  0  0
    0.1730   20.1970  -33.7490 C   0  0  0  0  0  0  0  0  0  0  0  0
    0.2300   19.7600  -31.3650 C   0  0  0  0  0  0  0  0  0  0  0  0
   -2.4090   20.4630  -31.4120 C   0  0  0  0  0  0  0  0  0  0  0  0
   -5.9220   21.7630  -31.8570 C   0  0  0  0  0  0  0  0  0  0  0  0
   -5.5900   20.4680  -32.2660 C   0  0  0  0  0  0  0  0  0  0  0  0
   -3.2554   16.8749  -34.1087 H   0  0  0  0  0  0  0  0  0  0  0  0
   -3.4905   15.9817  -35.6493 H   0  0  0  0  0  0  0  0  0  0  0  0
   -3.4510   17.7775  -35.6493 H   0  0  0  0  0  0  0  0  0  0  0  0
   -7.8881   17.0133  -31.8919 H   0  0  0  0  0  0  0  0  0  0  0  0
   -8.4431   17.7208  -33.4469 H   0  0  0  0  0  0  0  0  0  0  0  0
   -7.4053   16.2546  -33.4469 H   0  0  0  0  0  0  0  0  0  0  0  0
   -5.6117   17.7004  -30.9796 H   0  0  0  0  0  0  0  0  0  0  0  0
   -5.1859   16.4463  -32.1931 H   0  0  0  0  0  0  0  0  0  0  0  0
   -4.3276   18.0242  -32.1931 H   0  0  0  0  0  0  0  0  0  0  0  0
   -8.7972   19.3672  -32.8570 H   0  0  0  0  0  0  0  0  0  0  0  0
   -9.3162   21.7128  -32.1278 H   0  0  0  0  0  0  0  0  0  0  0  0
   -8.1056   24.1081  -31.1420 H   0  0  0  0  0  0  0  0  0  0  0  0
   -3.5960   25.4400  -31.5930 H   0  0  0  0  0  0  0  0  0  0  0  0
   -3.8770   26.4910  -30.1800 H   0  0  0  0  0  0  0  0  0  0  0  0
   -3.9868   21.6862  -33.9274 H   0  0  0  0  0  0  0  0  0  0  0  0
   -2.3079   22.2369  -34.0035 H   0  0  0  0  0  0  0  0  0  0  0  0
   -3.4118   19.4589  -34.1097 H   0  0  0  0  0  0  0  0  0  0  0  0
   -1.8300   20.0350  -34.6667 H   0  0  0  0  0  0  0  0  0  0  0  0
   -2.2128   18.5006  -32.3148 H   0  0  0  0  0  0  0  0  0  0  0  0
    0.8022   21.0010  -33.3395 H   0  0  0  0  0  0  0  0  0  0  0  0
    0.7896   19.5275  -34.3668 H   0  0  0  0  0  0  0  0  0  0  0  0
   -0.6251   20.6345  -34.3668 H   0  0  0  0  0  0  0  0  0  0  0  0
   -0.4084   19.4389  -30.5287 H   0  0  0  0  0  0  0  0  0  0  0  0
    1.1986   19.2419  -31.3069 H   0  0  0  0  0  0  0  0  0  0  0  0
    0.3914   20.8465  -31.3069 H   0  0  0  0  0  0  0  0  0  0  0  0
   -3.1790   19.9582  -30.8101 H   0  0  0  0  0  0  0  0  0  0  0  0
   -1.5981   20.7453  -30.7245 H   0  0  0  0  0  0  0  0  0  0  0  0
   -4.5373   20.1612  -32.3540 H   0  0  0  0  0  0  0  0  0  0  0  0
  1  2  1  0
  2  3  1  0
  3  4  2  0
  3  5  1  0
  5  6  1  0
  5  7  1  0
  5  8  1  0
  8  9  2  0
  9 10  1  0
 10 11  2  0
 11 12  1  0
 12 13  2  0
 13 14  1  0
 14 15  1  0
 14 16  2  0
 13 17  1  0
 17 18  1  0
 18 19  2  0
 18 20  1  0
 20 21  1  0
 21 22  1  0
 22 23  1  0
 23 24  1  0
 24 25  1  0
 24 26  1  0
 23 27  1  0
 17 28  1  0
 28 29  2  0
 29  8  1  0
 28 11  1  0
 27 20  1  0
  1 30  1  0
  1 31  1  0
  1 32  1  0
  6 33  1  0
  6 34  1  0
  6 35  1  0
  7 36  1  0
  7 37  1  0
  7 38  1  0
  9 39  1  0
 10 40  1  0
 12 41  1  0
 15 42  1  0
 15 43  1  0
 21 44  1  0
 21 45  1  0
 22 46  1  0
 22 47  1  0
 23 48  1  1
 25 49  1  0
 25 50  1  0
 25 51  1  0
 26 52  1  0
 26 53  1  0
 26 54  1  0
 27 55  1  0
 27 56  1  0
 29 57  1  0
M  END
>  <UniqueID>  (54) 
54

>  <SMILES>  (54) 
COC(=O)C(C)(C)c1ccc2cc(C(N)=O)n(C(=O)N3CC[C@@H](N(C)C)C3)c2c1

>  <Energy>  (54) 
112.31877007049849

>  <Genealogy>  (54) 
COC(=O)C(C)(C)c1ccc2cc(C(N)=O)n(C(=O)N3CC[C@@H](N(C)C)C3)c2c1 (3D coordinates assigned)
COC(=O)C(C)(C)c1ccc2cc(C(N)=O)n(C(=O)N3CC[C@@H](N(C)C)C3)c2c1 (nonaromatic ring conformer: 112.31877007049849 kcal/mol)

>  <smiles>  (54) 
COC(=O)C(C)(C)c1ccc2cc(C(N)=O)n(C(=O)N3CC[C@@H](N(C)C)C3)c2c1

>  <score_type>  (54) 
oracle

>  <origin>  (54) 
adg

>  <m_score__min__energy>  (54) 
-9.75

>  <m_primary>  (54) 
energy

$$$$
54:0
     RDKit          3D

 45 47  0  0  0  0  0  0  0  0999 V2000
   -6.1790   15.7380  -33.8520 C   0  0  0  0  0  0  0  0  0  0  0  0
   -5.7920   16.9760  -34.5100 N   0  0  0  0  0  0  0  0  0  0  0  0
   -6.2080   18.2640  -34.0420 C   0  0  0  0  0  0  0  0  0  0  0  0
   -6.1180   19.2740  -34.7910 O   0  0  0  0  0  0  0  0  0  0  0  0
   -6.8040   18.3970  -32.6780 C   0  0  0  0  0  0  0  0  0  0  0  0
   -6.9770   19.8500  -32.3330 C   0  0  0  0  0  0  0  0  0  0  0  0
   -8.2670   20.4370  -32.3440 C   0  0  0  0  0  0  0  0  0  0  0  0
   -8.4430   21.7820  -31.9750 C   0  0  0  0  0  0  0  0  0  0  0  0
   -7.3180   22.5080  -31.5970 C   0  0  0  0  0  0  0  0  0  0  0  0
   -7.2090   23.8080  -31.1560 C   0  0  0  0  0  0  0  0  0  0  0  0
   -5.8530   23.9960  -30.8910 C   0  0  0  0  0  0  0  0  0  0  0  0
   -5.2790   25.2880  -30.4650 C   0  0  0  0  0  0  0  0  0  0  0  0
   -3.9580   25.6630  -30.8460 N   0  0  0  0  0  0  0  0  0  0  0  0
   -5.9810   26.0940  -29.7970 O   0  0  0  0  0  0  0  0  0  0  0  0
   -5.1540   22.8550  -31.1510 N   0  0  0  0  0  0  0  0  0  0  0  0
   -3.7620   22.6000  -30.9090 C   0  0  0  0  0  0  0  0  0  0  0  0
   -2.8990   23.0500  -31.7070 O   0  0  0  0  0  0  0  0  0  0  0  0
   -3.3740   21.7820  -29.7970 N   0  0  0  0  0  0  0  0  0  0  0  0
   -2.4640   22.1420  -28.7030 C   0  0  0  0  0  0  0  0  0  0  0  0
   -1.1360   22.7400  -29.2220 C   0  0  0  0  0  0  0  0  0  0  0  0
   -0.8910   24.1450  -28.6660 C   0  0  0  0  0  0  0  0  0  0  0  0
   -2.0500   24.9280  -28.8350 O   0  0  0  0  0  0  0  0  0  0  0  0
   -3.0650   24.5440  -27.9190 C   0  0  0  0  0  0  0  0  0  0  0  0
   -3.1660   23.0220  -27.6450 C   0  0  0  0  0  0  0  0  0  0  0  0
   -6.0640   21.9560  -31.5860 C   0  0  0  0  0  0  0  0  0  0  0  0
   -5.8590   20.6170  -31.9360 C   0  0  0  0  0  0  0  0  0  0  0  0
   -6.1366   15.8737  -32.7612 H   0  0  0  0  0  0  0  0  0  0  0  0
   -7.2038   15.4700  -34.1486 H   0  0  0  0  0  0  0  0  0  0  0  0
   -5.4893   14.9340  -34.1486 H   0  0  0  0  0  0  0  0  0  0  0  0
   -7.7844   17.8985  -32.6585 H   0  0  0  0  0  0  0  0  0  0  0  0
   -6.1330   17.9283  -31.9430 H   0  0  0  0  0  0  0  0  0  0  0  0
   -9.1376   19.8352  -32.6437 H   0  0  0  0  0  0  0  0  0  0  0  0
   -9.4401   22.2464  -31.9848 H   0  0  0  0  0  0  0  0  0  0  0  0
   -8.0195   24.5422  -31.0379 H   0  0  0  0  0  0  0  0  0  0  0  0
   -3.1550   25.0080  -30.7210 H   0  0  0  0  0  0  0  0  0  0  0  0
   -2.1825   21.2130  -28.1855 H   0  0  0  0  0  0  0  0  0  0  0  0
   -0.3067   22.0858  -28.9151 H   0  0  0  0  0  0  0  0  0  0  0  0
   -1.1977   22.8114  -30.3179 H   0  0  0  0  0  0  0  0  0  0  0  0
   -0.6472   24.0779  -27.5954 H   0  0  0  0  0  0  0  0  0  0  0  0
   -0.0531   24.6108  -29.2055 H   0  0  0  0  0  0  0  0  0  0  0  0
   -2.8686   25.0496  -26.9620 H   0  0  0  0  0  0  0  0  0  0  0  0
   -4.0195   24.8345  -28.3821 H   0  0  0  0  0  0  0  0  0  0  0  0
   -2.7084   22.8163  -26.6661 H   0  0  0  0  0  0  0  0  0  0  0  0
   -4.2349   22.7644  -27.6773 H   0  0  0  0  0  0  0  0  0  0  0  0
   -4.8532   20.1729  -31.9029 H   0  0  0  0  0  0  0  0  0  0  0  0
  1  2  1  0
  2  3  1  0
  3  4  2  0
  3  5  1  0
  5  6  1  0
  6  7  2  0
  7  8  1  0
  8  9  2  0
  9 10  1  0
 10 11  2  0
 11 12  1  0
 12 13  1  0
 12 14  2  0
 11 15  1  0
 15 16  1  0
 16 17  2  0
 16 18  1  0
 18 19  1  0
 19 20  1  0
 20 21  1  0
 21 22  1  0
 22 23  1  0
 23 24  1  0
 15 25  1  0
 25 26  2  0
 26  6  1  0
 25  9  1  0
 24 19  1  0
  1 27  1  0
  1 28  1  0
  1 29  1  0
  5 30  1  0
  5 31  1  0
  7 32  1  0
  8 33  1  0
 10 34  1  0
 13 35  1  0
 19 36  1  0
 20 37  1  0
 20 38  1  0
 21 39  1  0
 21 40  1  0
 23 41  1  0
 23 42  1  0
 24 43  1  0
 24 44  1  0
 26 45  1  0
M  CHG  3   2  -1  13  -1  18  -1
M  END
>  <UniqueID>  (55) 
55

>  <SMILES>  (55) 
C[N-]C(=O)Cc1ccc2cc(C([NH-])=O)n(C(=O)[N-]C3CCOCC3)c2c1

>  <Energy>  (55) 
90.40525375889064

>  <Genealogy>  (55) 
C[N-]C(=O)Cc1ccc2cc(C([NH-])=O)n(C(=O)[N-]C3CCOCC3)c2c1 (protonated)
C[N-]C(=O)Cc1ccc2cc(C([NH-])=O)n(C(=O)[N-]C3CCOCC3)c2c1 (3D coordinates assigned)
C[N-]C(=O)Cc1ccc2cc(C([NH-])=O)n(C(=O)[N-]C3CCOCC3)c2c1 (nonaromatic ring conformer: 90.40525375889064 kcal/mol)

>  <smiles>  (55) 
CNC(=O)Cc1ccc2cc(C(N)=O)n(C(=O)NC3CCOCC3)c2c1

>  <score_type>  (55) 
oracle

>  <origin>  (55) 
adg

>  <m_score__min__energy>  (55) 
-11.779999999999999

>  <m_primary>  (55) 
energy

$$$$
55:0
     RDKit          3D

 56 58  0  0  0  0  0  0  0  0999 V2000
   -3.5830   22.1360  -32.1600 C   0  0  0  0  0  0  0  0  0  0  0  0
   -3.5680   20.6410  -32.4320 C   0  0  0  0  0  0  0  0  0  0  0  0
   -4.2820   20.3700  -33.6330 O   0  0  0  0  0  0  0  0  0  0  0  0
   -4.9170   19.1500  -33.8770 C   0  0  0  0  0  0  0  0  0  0  0  0
   -4.3540   18.2750  -34.5920 O   0  0  0  0  0  0  0  0  0  0  0  0
   -6.2080   18.8860  -33.3030 N   0  0  0  0  0  0  0  0  0  0  0  0
   -6.7950   17.6720  -33.1000 C   0  0  0  0  0  0  0  0  0  0  0  0
   -6.2890   16.3750  -33.5910 C   0  0  0  0  0  0  0  0  0  0  0  0
   -4.9150   16.0140  -33.4480 N   0  0  0  0  0  0  0  0  0  0  0  0
   -7.0720   15.5950  -34.1960 O   0  0  0  0  0  0  0  0  0  0  0  0
   -7.9860   17.8130  -32.3940 C   0  0  0  0  0  0  0  0  0  0  0  0
   -8.1240   19.1640  -32.1780 C   0  0  0  0  0  0  0  0  0  0  0  0
   -9.1170   19.8640  -31.4990 C   0  0  0  0  0  0  0  0  0  0  0  0
   -8.9800   21.2570  -31.3850 C   0  0  0  0  0  0  0  0  0  0  0  0
   -7.8640   21.9220  -31.9500 C   0  0  0  0  0  0  0  0  0  0  0  0
   -7.6960   23.4060  -31.7740 C   0  0  0  0  0  0  0  0  0  0  0  0
   -6.5170   23.6900  -30.8830 C   0  0  0  0  0  0  0  0  0  0  0  0
   -6.1970   22.8130  -29.8340 C   0  0  0  0  0  0  0  0  0  0  0  0
   -5.0720   23.0480  -29.0370 C   0  0  0  0  0  0  0  0  0  0  0  0
   -4.2550   24.1590  -29.2820 C   0  0  0  0  0  0  0  0  0  0  0  0
   -2.8170   24.4410  -28.3050 S   0  0  0  0  0  0  0  0  0  0  0  0
   -3.2160   24.9160  -26.9350 O   0  0  0  0  0  0  0  0  0  0  0  0
   -1.9760   25.5020  -28.9590 O   0  0  0  0  0  0  0  0  0  0  0  0
   -1.8950   22.9150  -28.1750 C   0  0  0  0  0  0  0  0  0  0  0  0
   -2.0900   22.0760  -29.3760 N   0  0  0  0  0  0  0  0  0  0  0  0
   -2.5410   20.7230  -29.0070 C   0  0  0  0  0  0  0  0  0  0  0  0
   -0.8300   21.9800  -30.1310 C   0  0  0  0  0  0  0  0  0  0  0  0
   -4.5630   25.0270  -30.3370 C   0  0  0  0  0  0  0  0  0  0  0  0
   -5.6860   24.7930  -31.1350 C   0  0  0  0  0  0  0  0  0  0  0  0
   -6.8700   21.1770  -32.6230 C   0  0  0  0  0  0  0  0  0  0  0  0
   -7.0380   19.7920  -32.7360 C   0  0  0  0  0  0  0  0  0  0  0  0
   -3.5848   22.3111  -31.0740 H   0  0  0  0  0  0  0  0  0  0  0  0
   -2.6895   22.5986  -32.6045 H   0  0  0  0  0  0  0  0  0  0  0  0
   -4.4857   22.5805  -32.6045 H   0  0  0  0  0  0  0  0  0  0  0  0
   -2.5282   20.2981  -32.5383 H   0  0  0  0  0  0  0  0  0  0  0  0
   -4.0451   20.1112  -31.5944 H   0  0  0  0  0  0  0  0  0  0  0  0
   -4.2110   16.7030  -33.1040 H   0  0  0  0  0  0  0  0  0  0  0  0
   -4.5830   15.0760  -33.7630 H   0  0  0  0  0  0  0  0  0  0  0  0
   -8.6714   17.0135  -32.0762 H   0  0  0  0  0  0  0  0  0  0  0  0
   -9.9826   19.3421  -31.0650 H   0  0  0  0  0  0  0  0  0  0  0  0
   -9.7470   21.8376  -30.8516 H   0  0  0  0  0  0  0  0  0  0  0  0
   -7.5306   23.8726  -32.7563 H   0  0  0  0  0  0  0  0  0  0  0  0
   -8.6047   23.8193  -31.3120 H   0  0  0  0  0  0  0  0  0  0  0  0
   -6.8337   21.9376  -29.6383 H   0  0  0  0  0  0  0  0  0  0  0  0
   -4.8281   22.3584  -28.2154 H   0  0  0  0  0  0  0  0  0  0  0  0
   -0.8253   23.1486  -28.0689 H   0  0  0  0  0  0  0  0  0  0  0  0
   -2.2565   22.3602  -27.2967 H   0  0  0  0  0  0  0  0  0  0  0  0
   -2.5711   20.6327  -27.9111 H   0  0  0  0  0  0  0  0  0  0  0  0
   -3.5464   20.5470  -29.4172 H   0  0  0  0  0  0  0  0  0  0  0  0
   -1.8423   19.9790  -29.4172 H   0  0  0  0  0  0  0  0  0  0  0  0
    0.0142   21.9157  -29.4288 H   0  0  0  0  0  0  0  0  0  0  0  0
   -0.8496   21.0807  -30.7642 H   0  0  0  0  0  0  0  0  0  0  0  0
   -0.7131   22.8718  -30.7642 H   0  0  0  0  0  0  0  0  0  0  0  0
   -3.9189   25.8957  -30.5381 H   0  0  0  0  0  0  0  0  0  0  0  0
   -5.9200   25.4764  -31.9646 H   0  0  0  0  0  0  0  0  0  0  0  0
   -5.9852   21.6735  -33.0480 H   0  0  0  0  0  0  0  0  0  0  0  0
  1  2  1  0
  2  3  1  0
  3  4  1  0
  4  5  2  0
  4  6  1  0
  6  7  1  0
  7  8  1  0
  8  9  1  0
  8 10  2  0
  7 11  2  0
 11 12  1  0
 12 13  2  0
 13 14  1  0
 14 15  2  0
 15 16  1  0
 16 17  1  0
 17 18  2  0
 18 19  1  0
 19 20  2  0
 20 21  1  0
 21 22  2  0
 21 23  2  0
 21 24  1  0
 24 25  1  0
 25 26  1  0
 25 27  1  0
 20 28  1  0
 28 29  2  0
 15 30  1  0
 30 31  2  0
 31  6  1  0
 31 12  1  0
 29 17  1  0
  1 32  1  0
  1 33  1  0
  1 34  1  0
  2 35  1  0
  2 36  1  0
  9 37  1  0
  9 38  1  0
 11 39  1  0
 13 40  1  0
 14 41  1  0
 16 42  1  0
 16 43  1  0
 18 44  1  0
 19 45  1  0
 24 46  1  0
 24 47  1  0
 26 48  1  0
 26 49  1  0
 26 50  1  0
 27 51  1  0
 27 52  1  0
 27 53  1  0
 28 54  1  0
 29 55  1  0
 30 56  1  0
M  END
>  <UniqueID>  (56) 
56

>  <SMILES>  (56) 
CCOC(=O)n1c(C(N)=O)cc2ccc(Cc3ccc(S(=O)(=O)CN(C)C)cc3)cc21

>  <Energy>  (56) 
88.79399139397152

>  <Genealogy>  (56) 
CCOC(=O)n1c(C(N)=O)cc2ccc(Cc3ccc(S(=O)(=O)CN(C)C)cc3)cc21 (3D coordinates assigned)
CCOC(=O)n1c(C(N)=O)cc2ccc(Cc3ccc(S(=O)(=O)CN(C)C)cc3)cc21 (optimized conformer: 88.79399139397152 kcal/mol)

>  <smiles>  (56) 
CCOC(=O)n1c(C(N)=O)cc2ccc(Cc3ccc(S(=O)(=O)CN(C)C)cc3)cc21

>  <score_type>  (56) 
oracle

>  <origin>  (56) 
adg

>  <m_score__min__energy>  (56) 
-9.3100000000000005

>  <m_primary>  (56) 
energy

$$$$
56:0
     RDKit          3D

 38 40  0  0  0  0  0  0  0  0999 V2000
   -6.4980   16.7090  -33.2310 C   0  0  0  0  0  0  0  0  0  0  0  0
   -6.8230   18.1510  -33.2590 N   0  0  1  0  0  0  0  0  0  0  0  0
   -7.2540   18.6290  -31.9510 C   0  0  0  0  0  0  0  0  0  0  0  0
   -7.5990   17.8470  -31.0750 O   0  0  0  0  0  0  0  0  0  0  0  0
   -7.3590   20.1060  -31.6640 C   0  0  0  0  0  0  0  0  0  0  0  0
   -6.9560   20.9450  -32.8790 C   0  0  0  0  0  0  0  0  0  0  0  0
   -5.6500   20.4420  -33.5180 C   0  0  1  0  0  0  0  0  0  0  0  0
   -4.4390   20.8600  -32.7000 C   0  0  0  0  0  0  0  0  0  0  0  0
   -3.2810   20.0420  -32.7100 C   0  0  0  0  0  0  0  0  0  0  0  0
   -2.1340   20.4090  -31.9880 C   0  0  0  0  0  0  0  0  0  0  0  0
   -2.1620   21.6060  -31.2820 C   0  0  0  0  0  0  0  0  0  0  0  0
   -1.1990   22.1880  -30.4900 C   0  0  0  0  0  0  0  0  0  0  0  0
   -1.7650   23.3760  -30.0330 C   0  0  0  0  0  0  0  0  0  0  0  0
   -1.0330   24.3630  -29.2100 C   0  0  0  0  0  0  0  0  0  0  0  0
   -1.6050   25.6450  -28.9660 N   0  0  0  0  0  0  0  0  0  0  0  0
    0.0760   24.0730  -28.6900 O   0  0  0  0  0  0  0  0  0  0  0  0
   -3.0320   23.5200  -30.5190 N   0  0  0  0  0  0  0  0  0  0  0  0
   -3.9710   24.5720  -30.2410 C   0  0  0  0  0  0  0  0  0  0  0  0
   -3.8890   25.6740  -30.8430 O   0  0  0  0  0  0  0  0  0  0  0  0
   -4.9640   24.3920  -29.2860 O   0  0  0  0  0  0  0  0  0  0  0  0
   -3.2570   22.4280  -31.2830 C   0  0  0  0  0  0  0  0  0  0  0  0
   -4.4220   22.0790  -31.9750 C   0  0  0  0  0  0  0  0  0  0  0  0
   -5.6990   18.9420  -33.7410 C   0  0  0  0  0  0  0  0  0  0  0  0
   -4.8130   18.4300  -34.4140 O   0  0  0  0  0  0  0  0  0  0  0  0
   -6.4217   16.3705  -32.1871 H   0  0  0  0  0  0  0  0  0  0  0  0
   -7.2914   16.1443  -33.7425 H   0  0  0  0  0  0  0  0  0  0  0  0
   -5.5391   16.5393  -33.7425 H   0  0  0  0  0  0  0  0  0  0  0  0
   -7.6180   18.2870  -33.9260 H   0  0  0  0  0  0  0  0  0  0  0  0
   -8.3984   20.3444  -31.3942 H   0  0  0  0  0  0  0  0  0  0  0  0
   -6.6742   20.3458  -30.8373 H   0  0  0  0  0  0  0  0  0  0  0  0
   -7.7602   20.8950  -33.6278 H   0  0  0  0  0  0  0  0  0  0  0  0
   -6.7926   21.9785  -32.5396 H   0  0  0  0  0  0  0  0  0  0  0  0
   -5.5466   20.9154  -34.5055 H   0  0  0  0  0  0  0  0  0  0  0  0
   -3.2811   19.1079  -33.2908 H   0  0  0  0  0  0  0  0  0  0  0  0
   -1.2399   19.7683  -31.9813 H   0  0  0  0  0  0  0  0  0  0  0  0
   -0.1953   21.7980  -30.2654 H   0  0  0  0  0  0  0  0  0  0  0  0
   -2.6320   25.8020  -29.0700 H   0  0  0  0  0  0  0  0  0  0  0  0
   -5.3047   22.7351  -31.9572 H   0  0  0  0  0  0  0  0  0  0  0  0
  1  2  1  0
  2  3  1  0
  3  4  2  0
  3  5  1  0
  5  6  1  0
  6  7  1  0
  7  8  1  0
  8  9  2  0
  9 10  1  0
 10 11  2  0
 11 12  1  0
 12 13  2  0
 13 14  1  0
 14 15  1  0
 14 16  2  0
 13 17  1  0
 17 18  1  0
 18 19  2  0
 18 20  1  0
 17 21  1  0
 21 22  2  0
  7 23  1  0
 23 24  2  0
 23  2  1  0
 22  8  1  0
 21 11  1  0
  1 25  1  0
  1 26  1  0
  1 27  1  0
  2 28  1  6
  5 29  1  0
  5 30  1  0
  6 31  1  0
  6 32  1  0
  7 33  1  6
  9 34  1  0
 10 35  1  0
 12 36  1  0
 15 37  1  0
 22 38  1  0
M  CHG  3   2   1  15  -1  20  -1
M  END
>  <UniqueID>  (57) 
57

>  <SMILES>  (57) 
C[N@H+]1C(=O)CC[C@@H](c2ccc3cc(C([NH-])=O)n(C(=O)[O-])c3c2)C1=O

>  <Energy>  (57) 
85.26592609525707

>  <Genealogy>  (57) 
C[NH+]1C(=O)CCC(c2ccc3cc(C([NH-])=O)n(C(=O)[O-])c3c2)C1=O (protonated)
C[N@H+]1C(=O)CC[C@@H](c2ccc3cc(C([NH-])=O)n(C(=O)[O-])c3c2)C1=O (chirality)
C[N@H+]1C(=O)CC[C@@H](c2ccc3cc(C([NH-])=O)n(C(=O)[O-])c3c2)C1=O (3D coordinates assigned)
C[N@H+]1C(=O)CC[C@@H](c2ccc3cc(C([NH-])=O)n(C(=O)[O-])c3c2)C1=O (nonaromatic ring conformer: 85.26592609525707 kcal/mol)

>  <smiles>  (57) 
CN1C(=O)CCC(c2ccc3cc(C(N)=O)n(C(=O)O)c3c2)C1=O

>  <score_type>  (57) 
oracle

>  <origin>  (57) 
adg

>  <m_score__min__energy>  (57) 
-12.23

>  <m_primary>  (57) 
energy

$$$$
57:0
     RDKit          3D

 39 40  0  0  0  0  0  0  0  0999 V2000
   -3.0840   22.1680  -29.8430 C   0  0  0  0  0  0  0  0  0  0  0  0
   -3.0850   22.7670  -31.1330 O   0  0  0  0  0  0  0  0  0  0  0  0
   -4.1650   22.6590  -32.0140 C   0  0  0  0  0  0  0  0  0  0  0  0
   -3.9790   22.3020  -33.2090 O   0  0  0  0  0  0  0  0  0  0  0  0
   -5.4960   22.9340  -31.5480 N   0  0  0  0  0  0  0  0  0  0  0  0
   -5.9290   24.0350  -30.8700 C   0  0  0  0  0  0  0  0  0  0  0  0
   -5.1500   25.2670  -30.6250 C   0  0  0  0  0  0  0  0  0  0  0  0
   -3.7370   25.2160  -30.4410 N   0  0  0  0  0  0  0  0  0  0  0  0
   -5.7320   26.3840  -30.6280 O   0  0  0  0  0  0  0  0  0  0  0  0
   -7.2640   23.8880  -30.5000 C   0  0  0  0  0  0  0  0  0  0  0  0
   -7.6420   22.6560  -30.9820 C   0  0  0  0  0  0  0  0  0  0  0  0
   -8.8660   21.9970  -30.8970 C   0  0  0  0  0  0  0  0  0  0  0  0
   -8.9670   20.7180  -31.4680 C   0  0  0  0  0  0  0  0  0  0  0  0
   -7.8470   20.1170  -32.0950 C   0  0  0  0  0  0  0  0  0  0  0  0
   -7.9750   18.7580  -32.7340 C   0  0  0  0  0  0  0  0  0  0  0  0
   -6.9920   17.7610  -32.1150 C   0  0  0  0  0  0  0  0  0  0  0  0
   -6.3740   16.9400  -33.1590 N   0  0  0  0  0  0  0  0  0  0  0  0
   -5.3100   17.9100  -34.1330 S   0  0  0  0  0  0  0  0  0  0  0  0
   -4.1920   18.8210  -33.0890 C   0  0  0  0  0  0  0  0  0  0  0  0
   -6.1290   18.8840  -34.9310 O   0  0  0  0  0  0  0  0  0  0  0  0
   -4.5260   17.0390  -35.0750 O   0  0  0  0  0  0  0  0  0  0  0  0
   -6.6230   20.8190  -32.1690 C   0  0  0  0  0  0  0  0  0  0  0  0
   -6.5570   22.0990  -31.6100 C   0  0  0  0  0  0  0  0  0  0  0  0
   -3.0853   22.9542  -29.0737 H   0  0  0  0  0  0  0  0  0  0  0  0
   -3.9811   21.5418  -29.7288 H   0  0  0  0  0  0  0  0  0  0  0  0
   -2.1848   21.5448  -29.7288 H   0  0  0  0  0  0  0  0  0  0  0  0
   -3.1050   24.9230  -31.2190 H   0  0  0  0  0  0  0  0  0  0  0  0
   -7.8840   24.6045  -29.9413 H   0  0  0  0  0  0  0  0  0  0  0  0
   -9.7276   22.4642  -30.3977 H   0  0  0  0  0  0  0  0  0  0  0  0
   -9.9243   20.1776  -31.4283 H   0  0  0  0  0  0  0  0  0  0  0  0
   -9.0007   18.3881  -32.5885 H   0  0  0  0  0  0  0  0  0  0  0  0
   -7.7459   18.8537  -33.8056 H   0  0  0  0  0  0  0  0  0  0  0  0
   -6.2078   18.3123  -31.5754 H   0  0  0  0  0  0  0  0  0  0  0  0
   -7.5378   17.1051  -31.4208 H   0  0  0  0  0  0  0  0  0  0  0  0
   -5.7830   16.2130  -32.6940 H   0  0  0  0  0  0  0  0  0  0  0  0
   -4.4332   18.6245  -32.0339 H   0  0  0  0  0  0  0  0  0  0  0  0
   -3.1587   18.5044  -33.2940 H   0  0  0  0  0  0  0  0  0  0  0  0
   -4.2934   19.8970  -33.2940 H   0  0  0  0  0  0  0  0  0  0  0  0
   -5.7440   20.3698  -32.6543 H   0  0  0  0  0  0  0  0  0  0  0  0
  1  2  1  0
  2  3  1  0
  3  4  2  0
  3  5  1  0
  5  6  1  0
  6  7  1  0
  7  8  1  0
  7  9  2  0
  6 10  2  0
 10 11  1  0
 11 12  2  0
 12 13  1  0
 13 14  2  0
 14 15  1  0
 15 16  1  0
 16 17  1  0
 17 18  1  0
 18 19  1  0
 18 20  2  0
 18 21  2  0
 14 22  1  0
 22 23  2  0
 23  5  1  0
 23 11  1  0
  1 24  1  0
  1 25  1  0
  1 26  1  0
  8 27  1  0
 10 28  1  0
 12 29  1  0
 13 30  1  0
 15 31  1  0
 15 32  1  0
 16 33  1  0
 16 34  1  0
 17 35  1  0
 19 36  1  0
 19 37  1  0
 19 38  1  0
 22 39  1  0
M  CHG  1   8  -1
M  END
>  <UniqueID>  (58) 
58

>  <SMILES>  (58) 
COC(=O)n1c(C([NH-])=O)cc2ccc(CCNS(C)(=O)=O)cc21

>  <Energy>  (58) 
66.31752912167016

>  <Genealogy>  (58) 
COC(=O)n1c(C([NH-])=O)cc2ccc(CCNS(C)(=O)=O)cc21 (protonated)
COC(=O)n1c(C([NH-])=O)cc2ccc(CCNS(C)(=O)=O)cc21 (3D coordinates assigned)
COC(=O)n1c(C([NH-])=O)cc2ccc(CCNS(C)(=O)=O)cc21 (optimized conformer: 66.31752912167016 kcal/mol)

>  <smiles>  (58) 
COC(=O)n1c(C(N)=O)cc2ccc(CCNS(C)(=O)=O)cc21

>  <score_type>  (58) 
oracle

>  <origin>  (58) 
adg

>  <m_score__min__energy>  (58) 
-10.359999999999999

>  <m_primary>  (58) 
energy

$$$$
58:0
     RDKit          3D

 42 43  0  0  0  0  0  0  0  0999 V2000
   -6.9650   24.7740  -30.1040 C   0  0  0  0  0  0  0  0  0  0  0  0
   -6.7010   23.5000  -30.3880 C   0  0  0  0  0  0  0  0  0  0  0  0
   -6.2480   23.0620  -31.7220 C   0  0  0  0  0  0  0  0  0  0  0  0
   -5.3980   23.7430  -32.3590 O   0  0  0  0  0  0  0  0  0  0  0  0
   -6.7380   21.8360  -32.2850 N   0  0  0  0  0  0  0  0  0  0  0  0
   -8.0230   21.3820  -32.2810 C   0  0  0  0  0  0  0  0  0  0  0  0
   -9.2040   22.1360  -31.8120 C   0  0  0  0  0  0  0  0  0  0  0  0
   -9.4910   23.4460  -32.3010 N   0  0  0  0  0  0  0  0  0  0  0  0
   -9.9980   21.5950  -30.9970 O   0  0  0  0  0  0  0  0  0  0  0  0
   -8.0890   20.0910  -32.7970 C   0  0  0  0  0  0  0  0  0  0  0  0
   -6.7930   19.7640  -33.1250 C   0  0  0  0  0  0  0  0  0  0  0  0
   -6.2730   18.5830  -33.6470 C   0  0  0  0  0  0  0  0  0  0  0  0
   -4.8830   18.4990  -33.8290 C   0  0  0  0  0  0  0  0  0  0  0  0
   -4.0410   19.5830  -33.4770 C   0  0  0  0  0  0  0  0  0  0  0  0
   -2.5550   19.4910  -33.7030 C   0  0  0  0  0  0  0  0  0  0  0  0
   -1.8180   19.1390  -32.4050 C   0  0  0  0  0  0  0  0  0  0  0  0
   -2.1630   20.0420  -31.3540 O   0  0  0  0  0  0  0  0  0  0  0  0
   -1.6270   21.3300  -31.2390 C   0  0  0  0  0  0  0  0  0  0  0  0
   -0.5960   21.6600  -31.8860 O   0  0  0  0  0  0  0  0  0  0  0  0
   -2.2540   22.3100  -30.3040 C   0  0  0  0  0  0  0  0  0  0  0  0
   -2.9310   23.2980  -31.0460 O   0  0  0  0  0  0  0  0  0  0  0  0
   -3.4210   24.5210  -29.9820 S   0  0  0  0  0  0  0  0  0  0  0  0
   -4.2490   23.9430  -28.8680 O   0  0  0  0  0  0  0  0  0  0  0  0
   -4.2490   25.5210  -30.7390 O   0  0  0  0  0  0  0  0  0  0  0  0
   -2.0780   25.3050  -29.3400 O   0  0  0  0  0  0  0  0  0  0  0  0
   -4.6050   20.7680  -32.9530 C   0  0  0  0  0  0  0  0  0  0  0  0
   -5.9950   20.8320  -32.8010 C   0  0  0  0  0  0  0  0  0  0  0  0
   -7.3005   25.0544  -29.0946 H   0  0  0  0  0  0  0  0  0  0  0  0
   -6.8475   25.5460  -30.8788 H   0  0  0  0  0  0  0  0  0  0  0  0
   -6.8255   22.7452  -29.5976 H   0  0  0  0  0  0  0  0  0  0  0  0
   -8.9710   23.8470  -33.1110 H   0  0  0  0  0  0  0  0  0  0  0  0
  -10.2880   23.9910  -31.9020 H   0  0  0  0  0  0  0  0  0  0  0  0
   -8.9858   19.4654  -32.9170 H   0  0  0  0  0  0  0  0  0  0  0  0
   -6.9308   17.7412  -33.9090 H   0  0  0  0  0  0  0  0  0  0  0  0
   -4.4434   17.5823  -34.2491 H   0  0  0  0  0  0  0  0  0  0  0  0
   -2.3536   18.7117  -34.4528 H   0  0  0  0  0  0  0  0  0  0  0  0
   -2.1946   20.4691  -34.0542 H   0  0  0  0  0  0  0  0  0  0  0  0
   -2.0904   18.1168  -32.1036 H   0  0  0  0  0  0  0  0  0  0  0  0
   -0.7359   19.2142  -32.5876 H   0  0  0  0  0  0  0  0  0  0  0  0
   -2.9684   21.7881  -29.6503 H   0  0  0  0  0  0  0  0  0  0  0  0
   -1.4735   22.7825  -29.6896 H   0  0  0  0  0  0  0  0  0  0  0  0
   -3.9675   21.6191  -32.6715 H   0  0  0  0  0  0  0  0  0  0  0  0
  1  2  2  0
  2  3  1  0
  3  4  2  0
  3  5  1  0
  5  6  1  0
  6  7  1  0
  7  8  1  0
  7  9  2  0
  6 10  2  0
 10 11  1  0
 11 12  2  0
 12 13  1  0
 13 14  2  0
 14 15  1  0
 15 16  1  0
 16 17  1  0
 17 18  1  0
 18 19  2  0
 18 20  1  0
 20 21  1  0
 21 22  1  0
 22 23  2  0
 22 24  2  0
 22 25  1  0
 14 26  1  0
 26 27  2  0
 27  5  1  0
 27 11  1  0
  1 28  1  0
  1 29  1  0
  2 30  1  0
  8 31  1  0
  8 32  1  0
 10 33  1  0
 12 34  1  0
 13 35  1  0
 15 36  1  0
 15 37  1  0
 16 38  1  0
 16 39  1  0
 20 40  1  0
 20 41  1  0
 26 42  1  0
M  CHG  1  25  -1
M  END
>  <UniqueID>  (59) 
59

>  <SMILES>  (59) 
C=CC(=O)n1c(C(N)=O)cc2ccc(CCOC(=O)COS(=O)(=O)[O-])cc21

>  <Energy>  (59) 
75.33129018962487

>  <Genealogy>  (59) 
C=CC(=O)n1c(C(N)=O)cc2ccc(CCOC(=O)COS(=O)(=O)[O-])cc21 (protonated)
C=CC(=O)n1c(C(N)=O)cc2ccc(CCOC(=O)COS(=O)(=O)[O-])cc21 (3D coordinates assigned)
C=CC(=O)n1c(C(N)=O)cc2ccc(CCOC(=O)COS(=O)(=O)[O-])cc21 (optimized conformer: 75.33129018962487 kcal/mol)

>  <smiles>  (59) 
C=CC(=O)n1c(C(N)=O)cc2ccc(CCOC(=O)COS(=O)(=O)O)cc21

>  <score_type>  (59) 
oracle

>  <origin>  (59) 
adg

>  <m_score__min__energy>  (59) 
-10.970000000000001

>  <m_primary>  (59) 
energy

$$$$
59:0
     RDKit          3D

 56 57  0  0  0  0  0  0  0  0999 V2000
   -2.9080   21.9900  -32.2520 C   0  0  0  0  0  0  0  0  0  0  0  0
   -3.6280   22.6670  -31.1320 C   0  0  0  0  0  0  0  0  0  0  0  0
   -2.9650   23.1270  -30.1640 O   0  0  0  0  0  0  0  0  0  0  0  0
   -5.0560   22.8090  -31.1510 N   0  0  0  0  0  0  0  0  0  0  0  0
   -5.7720   23.9440  -30.9120 C   0  0  0  0  0  0  0  0  0  0  0  0
   -5.2180   25.2300  -30.4370 C   0  0  0  0  0  0  0  0  0  0  0  0
   -3.9160   25.6370  -30.8500 N   0  0  0  0  0  0  0  0  0  0  0  0
   -5.8900   25.9810  -29.6830 O   0  0  0  0  0  0  0  0  0  0  0  0
   -7.1270   23.7260  -31.1490 C   0  0  0  0  0  0  0  0  0  0  0  0
   -7.2190   22.4130  -31.5530 C   0  0  0  0  0  0  0  0  0  0  0  0
   -8.3250   21.6900  -31.9850 C   0  0  0  0  0  0  0  0  0  0  0  0
   -8.1200   20.3730  -32.4260 C   0  0  0  0  0  0  0  0  0  0  0  0
   -6.8250   19.7950  -32.4080 C   0  0  0  0  0  0  0  0  0  0  0  0
   -6.6130   18.3920  -32.9260 C   0  0  0  0  0  0  0  0  0  0  0  0
   -6.1210   18.3450  -34.3840 C   0  0  0  0  0  0  0  0  0  0  0  0
   -4.6150   18.0960  -34.5060 C   0  0  0  0  0  0  0  0  0  0  0  0
   -3.9300   18.7910  -33.4840 O   0  0  0  0  0  0  0  0  0  0  0  0
   -2.7160   19.3330  -33.9700 C   0  0  0  0  0  0  0  0  0  0  0  0
   -1.5760   19.0980  -32.9780 C   0  0  0  0  0  0  0  0  0  0  0  0
   -0.6220   20.1340  -33.1010 O   0  0  0  0  0  0  0  0  0  0  0  0
    0.4870   19.6790  -33.8450 C   0  0  0  0  0  0  0  0  0  0  0  0
    1.1420   20.8630  -34.5470 C   0  0  0  0  0  0  0  0  0  0  0  0
    0.2290   21.9440  -34.6160 O   0  0  0  0  0  0  0  0  0  0  0  0
    0.5230   22.7770  -35.7190 C   0  0  0  0  0  0  0  0  0  0  0  0
    1.9560   23.2940  -35.6080 C   0  0  0  0  0  0  0  0  0  0  0  0
    2.3260   24.1300  -36.7940 C   0  0  0  0  0  0  0  0  0  0  0  0
    1.4300   24.5920  -37.5480 O   0  0  0  0  0  0  0  0  0  0  0  0
    3.6590   24.4250  -37.0480 O   0  0  0  0  0  0  0  0  0  0  0  0
   -5.7220   20.5660  -31.9670 C   0  0  0  0  0  0  0  0  0  0  0  0
   -5.9560   21.8790  -31.5390 C   0  0  0  0  0  0  0  0  0  0  0  0
   -2.1647   21.2911  -31.8407 H   0  0  0  0  0  0  0  0  0  0  0  0
   -3.6298   21.4358  -32.8700 H   0  0  0  0  0  0  0  0  0  0  0  0
   -2.3993   22.7445  -32.8700 H   0  0  0  0  0  0  0  0  0  0  0  0
   -3.0630   25.2740  -30.3710 H   0  0  0  0  0  0  0  0  0  0  0  0
   -7.9486   24.4488  -31.0372 H   0  0  0  0  0  0  0  0  0  0  0  0
   -9.3304   22.1363  -31.9814 H   0  0  0  0  0  0  0  0  0  0  0  0
   -8.9738   19.7825  -32.7898 H   0  0  0  0  0  0  0  0  0  0  0  0
   -5.8658   17.8949  -32.2899 H   0  0  0  0  0  0  0  0  0  0  0  0
   -7.5886   17.8847  -32.8966 H   0  0  0  0  0  0  0  0  0  0  0  0
   -6.6524   17.5357  -34.9061 H   0  0  0  0  0  0  0  0  0  0  0  0
   -6.3261   19.3296  -34.8296 H   0  0  0  0  0  0  0  0  0  0  0  0
   -4.4144   17.0185  -34.4125 H   0  0  0  0  0  0  0  0  0  0  0  0
   -4.2660   18.4547  -35.4856 H   0  0  0  0  0  0  0  0  0  0  0  0
   -2.4650   18.8525  -34.9271 H   0  0  0  0  0  0  0  0  0  0  0  0
   -2.8452   20.4169  -34.1057 H   0  0  0  0  0  0  0  0  0  0  0  0
   -1.9774   19.0891  -31.9539 H   0  0  0  0  0  0  0  0  0  0  0  0
   -1.0968   18.1315  -33.1930 H   0  0  0  0  0  0  0  0  0  0  0  0
    1.2136   19.2047  -33.1689 H   0  0  0  0  0  0  0  0  0  0  0  0
    0.1530   18.9453  -34.5934 H   0  0  0  0  0  0  0  0  0  0  0  0
    2.0342   21.1738  -33.9837 H   0  0  0  0  0  0  0  0  0  0  0  0
    1.4321   20.5665  -35.5658 H   0  0  0  0  0  0  0  0  0  0  0  0
    0.4130   22.2023  -36.6505 H   0  0  0  0  0  0  0  0  0  0  0  0
   -0.1718   23.6298  -35.7261 H   0  0  0  0  0  0  0  0  0  0  0  0
    2.0474   23.9039  -34.6971 H   0  0  0  0  0  0  0  0  0  0  0  0
    2.6349   22.4295  -35.5671 H   0  0  0  0  0  0  0  0  0  0  0  0
   -4.7062   20.1440  -31.9607 H   0  0  0  0  0  0  0  0  0  0  0  0
  1  2  1  0
  2  3  2  0
  2  4  1  0
  4  5  1  0
  5  6  1  0
  6  7  1  0
  6  8  2  0
  5  9  2  0
  9 10  1  0
 10 11  2  0
 11 12  1  0
 12 13  2  0
 13 14  1  0
 14 15  1  0
 15 16  1  0
 16 17  1  0
 17 18  1  0
 18 19  1  0
 19 20  1  0
 20 21  1  0
 21 22  1  0
 22 23  1  0
 23 24  1  0
 24 25  1  0
 25 26  1  0
 26 27  2  0
 26 28  1  0
 13 29  1  0
 29 30  2  0
 30  4  1  0
 30 10  1  0
  1 31  1  0
  1 32  1  0
  1 33  1  0
  7 34  1  0
  9 35  1  0
 11 36  1  0
 12 37  1  0
 14 38  1  0
 14 39  1  0
 15 40  1  0
 15 41  1  0
 16 42  1  0
 16 43  1  0
 18 44  1  0
 18 45  1  0
 19 46  1  0
 19 47  1  0
 21 48  1  0
 21 49  1  0
 22 50  1  0
 22 51  1  0
 24 52  1  0
 24 53  1  0
 25 54  1  0
 25 55  1  0
 29 56  1  0
M  CHG  2   7  -1  28  -1
M  END
>  <UniqueID>  (60) 
60

>  <SMILES>  (60) 
CC(=O)n1c(C([NH-])=O)cc2ccc(CCCOCCOCCOCCC(=O)[O-])cc21

>  <Energy>  (60) 
84.97317998123299

>  <Genealogy>  (60) 
CC(=O)n1c(C([NH-])=O)cc2ccc(CCCOCCOCCOCCC(=O)[O-])cc21 (protonated)
CC(=O)n1c(C([NH-])=O)cc2ccc(CCCOCCOCCOCCC(=O)[O-])cc21 (3D coordinates assigned)
CC(=O)n1c(C([NH-])=O)cc2ccc(CCCOCCOCCOCCC(=O)[O-])cc21 (optimized conformer: 84.97317998123299 kcal/mol)

>  <smiles>  (60) 
CC(=O)n1c(C(N)=O)cc2ccc(CCCOCCOCCOCCC(=O)O)cc21

>  <score_type>  (60) 
oracle

>  <origin>  (60) 
adg

>  <m_score__min__energy>  (60) 
-11.69

>  <m_primary>  (60) 
energy

$$$$
60:0
     RDKit          3D

 34 35  0  0  0  0  0  0  0  0999 V2000
   -3.2100   19.8590  -33.4750 C   0  0  0  0  0  0  0  0  0  0  0  0
   -2.5270   21.1750  -33.1210 C   0  0  0  0  0  0  0  0  0  0  0  0
   -3.4930   22.2070  -32.9290 O   0  0  0  0  0  0  0  0  0  0  0  0
   -3.9370   22.6230  -31.6690 C   0  0  0  0  0  0  0  0  0  0  0  0
   -3.1320   22.6920  -30.6990 O   0  0  0  0  0  0  0  0  0  0  0  0
   -5.3230   22.9430  -31.4730 N   0  0  0  0  0  0  0  0  0  0  0  0
   -5.8520   24.0830  -30.9450 C   0  0  0  0  0  0  0  0  0  0  0  0
   -5.1040   25.3130  -30.6070 C   0  0  0  0  0  0  0  0  0  0  0  0
   -3.6860   25.2960  -30.4690 N   0  0  0  0  0  0  0  0  0  0  0  0
   -5.7230   26.4040  -30.4840 O   0  0  0  0  0  0  0  0  0  0  0  0
   -7.2370   23.9750  -30.8380 C   0  0  0  0  0  0  0  0  0  0  0  0
   -7.5440   22.7270  -31.3290 C   0  0  0  0  0  0  0  0  0  0  0  0
   -8.7750   22.0880  -31.4450 C   0  0  0  0  0  0  0  0  0  0  0  0
   -8.7950   20.7810  -31.9600 C   0  0  0  0  0  0  0  0  0  0  0  0
   -7.5910   20.1410  -32.3470 C   0  0  0  0  0  0  0  0  0  0  0  0
   -7.6170   18.7250  -32.8570 C   0  0  0  0  0  0  0  0  0  0  0  0
   -6.3090   18.3700  -33.5600 C   0  0  0  0  0  0  0  0  0  0  0  0
   -6.1130   19.1930  -34.6550 F   0  0  0  0  0  0  0  0  0  0  0  0
   -6.3580   20.8160  -32.2060 C   0  0  0  0  0  0  0  0  0  0  0  0
   -6.3720   22.1240  -31.7070 C   0  0  0  0  0  0  0  0  0  0  0  0
   -3.4852   19.3287  -32.5514 H   0  0  0  0  0  0  0  0  0  0  0  0
   -4.1160   20.0631  -34.0645 H   0  0  0  0  0  0  0  0  0  0  0  0
   -2.5216   19.2356  -34.0645 H   0  0  0  0  0  0  0  0  0  0  0  0
   -1.9488   21.0443  -32.1944 H   0  0  0  0  0  0  0  0  0  0  0  0
   -1.8611   21.4623  -33.9481 H   0  0  0  0  0  0  0  0  0  0  0  0
   -3.0840   24.8120  -31.1690 H   0  0  0  0  0  0  0  0  0  0  0  0
   -7.9363   24.7275  -30.4446 H   0  0  0  0  0  0  0  0  0  0  0  0
   -9.7050   22.5915  -31.1423 H   0  0  0  0  0  0  0  0  0  0  0  0
   -9.7528   20.2501  -32.0637 H   0  0  0  0  0  0  0  0  0  0  0  0
   -7.7664   18.0404  -32.0091 H   0  0  0  0  0  0  0  0  0  0  0  0
   -8.4398   18.6293  -33.5807 H   0  0  0  0  0  0  0  0  0  0  0  0
   -5.4730   18.4970  -32.8565 H   0  0  0  0  0  0  0  0  0  0  0  0
   -6.3588   17.3257  -33.9019 H   0  0  0  0  0  0  0  0  0  0  0  0
   -5.4119   20.3268  -32.4810 H   0  0  0  0  0  0  0  0  0  0  0  0
  1  2  1  0
  2  3  1  0
  3  4  1  0
  4  5  2  0
  4  6  1  0
  6  7  1  0
  7  8  1  0
  8  9  1  0
  8 10  2  0
  7 11  2  0
 11 12  1  0
 12 13  2  0
 13 14  1  0
 14 15  2  0
 15 16  1  0
 16 17  1  0
 17 18  1  0
 15 19  1  0
 19 20  2  0
 20  6  1  0
 20 12  1  0
  1 21  1  0
  1 22  1  0
  1 23  1  0
  2 24  1  0
  2 25  1  0
  9 26  1  0
 11 27  1  0
 13 28  1  0
 14 29  1  0
 16 30  1  0
 16 31  1  0
 17 32  1  0
 17 33  1  0
 19 34  1  0
M  CHG  1   9  -1
M  END
>  <UniqueID>  (61) 
61

>  <SMILES>  (61) 
CCOC(=O)n1c(C([NH-])=O)cc2ccc(CCF)cc21

>  <Energy>  (61) 
66.20605165890328

>  <Genealogy>  (61) 
CCOC(=O)n1c(C([NH-])=O)cc2ccc(CCF)cc21 (protonated)
CCOC(=O)n1c(C([NH-])=O)cc2ccc(CCF)cc21 (3D coordinates assigned)
CCOC(=O)n1c(C([NH-])=O)cc2ccc(CCF)cc21 (optimized conformer: 66.20605165890328 kcal/mol)

>  <smiles>  (61) 
CCOC(=O)n1c(C(N)=O)cc2ccc(CCF)cc21

>  <score_type>  (61) 
oracle

>  <origin>  (61) 
adg

>  <m_score__min__energy>  (61) 
-9.0899999999999999

>  <m_primary>  (61) 
energy

$$$$
61:0
     RDKit          3D

 32 33  0  0  0  0  0  0  0  0999 V2000
   -5.6120   25.3120  -28.9040 N   0  0  0  0  0  0  0  0  0  0  0  0
   -6.4800   24.7640  -29.8970 C   0  0  0  0  0  0  0  0  0  0  0  0
   -7.5990   25.3040  -30.1050 O   0  0  0  0  0  0  0  0  0  0  0  0
   -6.0630   23.6170  -30.7290 C   0  0  0  0  0  0  0  0  0  0  0  0
   -6.9610   22.7270  -31.3100 C   0  0  0  0  0  0  0  0  0  0  0  0
   -6.1870   21.8580  -32.0430 C   0  0  0  0  0  0  0  0  0  0  0  0
   -6.5620   20.7570  -32.8080 C   0  0  0  0  0  0  0  0  0  0  0  0
   -5.5470   20.0070  -33.4220 C   0  0  0  0  0  0  0  0  0  0  0  0
   -4.1850   20.3620  -33.2590 C   0  0  0  0  0  0  0  0  0  0  0  0
   -3.1060   19.5190  -33.8870 C   0  0  0  0  0  0  0  0  0  0  0  0
   -1.7380   19.7500  -33.2290 C   0  0  0  0  0  0  0  0  0  0  0  0
   -0.7070   20.3180  -34.2060 C   0  0  0  0  0  0  0  0  0  0  0  0
   -0.7820   21.7160  -34.1990 O   0  0  0  0  0  0  0  0  0  0  0  0
   -3.8420   21.4810  -32.4680 C   0  0  0  0  0  0  0  0  0  0  0  0
   -4.8740   22.2250  -31.8840 C   0  0  0  0  0  0  0  0  0  0  0  0
   -4.7820   23.3060  -31.0750 N   0  0  0  0  0  0  0  0  0  0  0  0
   -3.5710   23.9110  -30.5870 C   0  0  0  0  0  0  0  0  0  0  0  0
   -2.5850   23.1950  -30.2710 O   0  0  0  0  0  0  0  0  0  0  0  0
   -3.4750   25.2920  -30.4610 O   0  0  0  0  0  0  0  0  0  0  0  0
   -4.6190   25.0000  -28.8240 H   0  0  0  0  0  0  0  0  0  0  0  0
   -5.9380   26.0980  -28.3000 H   0  0  0  0  0  0  0  0  0  0  0  0
   -8.0560   22.7199  -31.2054 H   0  0  0  0  0  0  0  0  0  0  0  0
   -7.6207   20.4834  -32.9275 H   0  0  0  0  0  0  0  0  0  0  0  0
   -5.8118   19.1339  -34.0366 H   0  0  0  0  0  0  0  0  0  0  0  0
   -3.3768   18.4583  -33.7798 H   0  0  0  0  0  0  0  0  0  0  0  0
   -3.0256   19.8046  -34.9462 H   0  0  0  0  0  0  0  0  0  0  0  0
   -1.8621   20.4577  -32.3960 H   0  0  0  0  0  0  0  0  0  0  0  0
   -1.3662   18.7755  -32.8795 H   0  0  0  0  0  0  0  0  0  0  0  0
    0.3015   20.0029  -33.8999 H   0  0  0  0  0  0  0  0  0  0  0  0
   -0.9150   19.9435  -35.2192 H   0  0  0  0  0  0  0  0  0  0  0  0
   -1.6310   21.9490  -34.6580 H   0  0  0  0  0  0  0  0  0  0  0  0
   -2.7893   21.7610  -32.3146 H   0  0  0  0  0  0  0  0  0  0  0  0
  1  2  1  0
  2  3  2  0
  2  4  1  0
  4  5  2  0
  5  6  1  0
  6  7  2  0
  7  8  1  0
  8  9  2  0
  9 10  1  0
 10 11  1  0
 11 12  1  0
 12 13  1  0
  9 14  1  0
 14 15  2  0
 15 16  1  0
 16 17  1  0
 17 18  2  0
 17 19  1  0
 16  4  1  0
 15  6  1  0
  1 20  1  0
  1 21  1  0
  5 22  1  0
  7 23  1  0
  8 24  1  0
 10 25  1  0
 10 26  1  0
 11 27  1  0
 11 28  1  0
 12 29  1  0
 12 30  1  0
 13 31  1  0
 14 32  1  0
M  CHG  1  19  -1
M  END
>  <UniqueID>  (62) 
62

>  <SMILES>  (62) 
NC(=O)c1cc2ccc(CCCO)cc2n1C(=O)[O-]

>  <Energy>  (62) 
67.17293684846517

>  <Genealogy>  (62) 
NC(=O)c1cc2ccc(CCCO)cc2n1C(=O)[O-] (protonated)
NC(=O)c1cc2ccc(CCCO)cc2n1C(=O)[O-] (3D coordinates assigned)
NC(=O)c1cc2ccc(CCCO)cc2n1C(=O)[O-] (optimized conformer: 67.17293684846517 kcal/mol)

>  <smiles>  (62) 
NC(=O)c1cc2ccc(CCCO)cc2n1C(=O)O

>  <score_type>  (62) 
oracle

>  <origin>  (62) 
adg

>  <m_score__min__energy>  (62) 
-8.4100000000000001

>  <m_primary>  (62) 
energy

$$$$
62:0
     RDKit          3D

 51 52  0  0  0  0  0  0  0  0999 V2000
   -8.7650   19.7360  -32.3360 C   0  0  0  0  0  0  0  0  0  0  0  0
   -8.0440   20.8920  -31.7830 N   0  0  0  0  0  0  0  0  0  0  0  0
   -8.9170   22.0800  -31.8210 C   0  0  0  0  0  0  0  0  0  0  0  0
   -6.7880   21.1280  -32.5330 C   0  0  0  0  0  0  0  0  0  0  0  0
   -5.7720   19.9930  -32.2800 C   0  0  1  0  0  0  0  0  0  0  0  0
   -5.5250   19.1550  -33.5060 C   0  0  0  0  0  0  0  0  0  0  0  0
   -5.7710   19.6180  -34.6530 O   0  0  0  0  0  0  0  0  0  0  0  0
   -4.9660   17.8790  -33.3470 O   0  0  0  0  0  0  0  0  0  0  0  0
   -5.6110   16.7360  -32.7670 C   0  0  0  0  0  0  0  0  0  0  0  0
   -6.8260   16.4050  -33.6470 C   0  0  0  0  0  0  0  0  0  0  0  0
   -4.6600   15.5240  -32.7540 C   0  0  0  0  0  0  0  0  0  0  0  0
   -6.1020   17.0580  -31.3430 C   0  0  0  0  0  0  0  0  0  0  0  0
   -4.4630   20.5460  -31.7520 C   0  0  0  0  0  0  0  0  0  0  0  0
   -3.2720   19.7840  -31.8770 C   0  0  0  0  0  0  0  0  0  0  0  0
   -2.0470   20.2820  -31.4020 C   0  0  0  0  0  0  0  0  0  0  0  0
   -2.0410   21.5340  -30.7980 C   0  0  0  0  0  0  0  0  0  0  0  0
   -0.9940   22.2580  -30.2750 C   0  0  0  0  0  0  0  0  0  0  0  0
   -1.5590   23.4430  -29.8100 C   0  0  0  0  0  0  0  0  0  0  0  0
   -0.8020   24.4880  -29.0850 C   0  0  0  0  0  0  0  0  0  0  0  0
   -1.3240   25.8120  -28.9590 N   0  0  0  0  0  0  0  0  0  0  0  0
    0.3290   24.2260  -28.5970 O   0  0  0  0  0  0  0  0  0  0  0  0
   -2.9040   23.4530  -30.0380 N   0  0  0  0  0  0  0  0  0  0  0  0
   -3.8340   24.5140  -29.7610 C   0  0  0  0  0  0  0  0  0  0  0  0
   -4.6110   24.4370  -28.7740 O   0  0  0  0  0  0  0  0  0  0  0  0
   -3.8750   25.6430  -30.5710 O   0  0  0  0  0  0  0  0  0  0  0  0
   -3.1830   22.2760  -30.6430 C   0  0  0  0  0  0  0  0  0  0  0  0
   -4.4140   21.8150  -31.1230 C   0  0  0  0  0  0  0  0  0  0  0  0
   -9.1512   19.1168  -31.5129 H   0  0  0  0  0  0  0  0  0  0  0  0
   -9.6037   20.0885  -32.9544 H   0  0  0  0  0  0  0  0  0  0  0  0
   -8.0795   19.1379  -32.9544 H   0  0  0  0  0  0  0  0  0  0  0  0
   -9.1499   22.3969  -30.7937 H   0  0  0  0  0  0  0  0  0  0  0  0
   -8.4024   22.8964  -32.3488 H   0  0  0  0  0  0  0  0  0  0  0  0
   -9.8499   21.8328  -32.3488 H   0  0  0  0  0  0  0  0  0  0  0  0
   -7.0144   21.1752  -33.6084 H   0  0  0  0  0  0  0  0  0  0  0  0
   -6.3476   22.0760  -32.1904 H   0  0  0  0  0  0  0  0  0  0  0  0
   -6.2187   19.3366  -31.5187 H   0  0  0  0  0  0  0  0  0  0  0  0
   -7.6891   16.1699  -33.0069 H   0  0  0  0  0  0  0  0  0  0  0  0
   -7.0655   17.2706  -34.2821 H   0  0  0  0  0  0  0  0  0  0  0  0
   -6.5933   15.5375  -34.2821 H   0  0  0  0  0  0  0  0  0  0  0  0
   -4.4391   15.2424  -31.7139 H   0  0  0  0  0  0  0  0  0  0  0  0
   -5.1376   14.6777  -33.2694 H   0  0  0  0  0  0  0  0  0  0  0  0
   -3.7244   15.7865  -33.2694 H   0  0  0  0  0  0  0  0  0  0  0  0
   -5.4171   16.6089  -30.6087 H   0  0  0  0  0  0  0  0  0  0  0  0
   -6.1272   18.1486  -31.2017 H   0  0  0  0  0  0  0  0  0  0  0  0
   -7.1123   16.6465  -31.2017 H   0  0  0  0  0  0  0  0  0  0  0  0
   -3.3085   18.7921  -32.3512 H   0  0  0  0  0  0  0  0  0  0  0  0
   -1.1202   19.6985  -31.5050 H   0  0  0  0  0  0  0  0  0  0  0  0
    0.0649   21.9632  -30.2331 H   0  0  0  0  0  0  0  0  0  0  0  0
   -2.2800   26.0540  -29.3010 H   0  0  0  0  0  0  0  0  0  0  0  0
   -0.7630   26.5520  -28.4810 H   0  0  0  0  0  0  0  0  0  0  0  0
   -5.3235   22.4241  -31.0145 H   0  0  0  0  0  0  0  0  0  0  0  0
  1  2  1  0
  2  3  1  0
  2  4  1  0
  4  5  1  0
  5  6  1  0
  6  7  2  0
  6  8  1  0
  8  9  1  0
  9 10  1  0
  9 11  1  0
  9 12  1  0
  5 13  1  0
 13 14  2  0
 14 15  1  0
 15 16  2  0
 16 17  1  0
 17 18  2  0
 18 19  1  0
 19 20  1  0
 19 21  2  0
 18 22  1  0
 22 23  1  0
 23 24  2  0
 23 25  1  0
 22 26  1  0
 26 27  2  0
 27 13  1  0
 26 16  1  0
  1 28  1  0
  1 29  1  0
  1 30  1  0
  3 31  1  0
  3 32  1  0
  3 33  1  0
  4 34  1  0
  4 35  1  0
  5 36  1  1
 10 37  1  0
 10 38  1  0
 10 39  1  0
 11 40  1  0
 11 41  1  0
 11 42  1  0
 12 43  1  0
 12 44  1  0
 12 45  1  0
 14 46  1  0
 15 47  1  0
 17 48  1  0
 20 49  1  0
 20 50  1  0
 27 51  1  0
M  CHG  1  25  -1
M  END
>  <UniqueID>  (63) 
63

>  <SMILES>  (63) 
CN(C)C[C@@H](C(=O)OC(C)(C)C)c1ccc2cc(C(N)=O)n(C(=O)[O-])c2c1

>  <Energy>  (63) 
84.47750073995483

>  <Genealogy>  (63) 
CN(C)CC(C(=O)OC(C)(C)C)c1ccc2cc(C(N)=O)n(C(=O)[O-])c2c1 (protonated)
CN(C)C[C@@H](C(=O)OC(C)(C)C)c1ccc2cc(C(N)=O)n(C(=O)[O-])c2c1 (chirality)
CN(C)C[C@@H](C(=O)OC(C)(C)C)c1ccc2cc(C(N)=O)n(C(=O)[O-])c2c1 (3D coordinates assigned)
CN(C)C[C@@H](C(=O)OC(C)(C)C)c1ccc2cc(C(N)=O)n(C(=O)[O-])c2c1 (optimized conformer: 84.47750073995483 kcal/mol)

>  <smiles>  (63) 
CN(C)CC(C(=O)OC(C)(C)C)c1ccc2cc(C(N)=O)n(C(=O)O)c2c1

>  <score_type>  (63) 
oracle

>  <origin>  (63) 
adg

>  <m_score__min__energy>  (63) 
-9.5199999999999996

>  <m_primary>  (63) 
energy

$$$$
63:0
     RDKit          3D

 59 61  0  0  0  0  0  0  0  0999 V2000
   -6.8810   23.3360  -29.7230 C   0  0  0  0  0  0  0  0  0  0  0  0
   -7.1850   22.5130  -30.9740 C   0  0  0  0  0  0  0  0  0  0  0  0
   -7.7810   23.4120  -32.0680 C   0  0  0  0  0  0  0  0  0  0  0  0
   -8.1090   21.4180  -30.6090 N   0  0  0  0  0  0  0  0  0  0  0  0
   -9.1030   21.1180  -31.6500 C   0  0  0  0  0  0  0  0  0  0  0  0
   -9.1130   19.6290  -32.0290 C   0  0  0  0  0  0  0  0  0  0  0  0
   -7.7900   19.2280  -32.6250 C   0  0  0  0  0  0  0  0  0  0  0  0
   -6.9830   20.1820  -33.2620 C   0  0  0  0  0  0  0  0  0  0  0  0
   -5.7380   19.8180  -33.7840 C   0  0  0  0  0  0  0  0  0  0  0  0
   -5.2750   18.5020  -33.6660 C   0  0  0  0  0  0  0  0  0  0  0  0
   -4.0180   18.1900  -34.2040 O   0  0  0  0  0  0  0  0  0  0  0  0
   -2.8420   17.9720  -33.4280 C   0  0  0  0  0  0  0  0  0  0  0  0
   -1.6370   18.6160  -34.1150 C   0  0  0  0  0  0  0  0  0  0  0  0
   -1.6330   20.1400  -33.9410 C   0  0  0  0  0  0  0  0  0  0  0  0
   -1.6540   20.5040  -32.4820 C   0  0  0  0  0  0  0  0  0  0  0  0
   -0.9670   19.7010  -31.5380 C   0  0  0  0  0  0  0  0  0  0  0  0
   -0.9640   20.0430  -30.1760 C   0  0  0  0  0  0  0  0  0  0  0  0
   -1.6380   21.1970  -29.7910 C   0  0  0  0  0  0  0  0  0  0  0  0
   -1.8070   21.7460  -28.5410 C   0  0  0  0  0  0  0  0  0  0  0  0
   -2.5650   22.8990  -28.7430 C   0  0  0  0  0  0  0  0  0  0  0  0
   -2.9050   23.8590  -27.6710 C   0  0  0  0  0  0  0  0  0  0  0  0
   -4.0590   24.6940  -27.7790 N   0  0  0  0  0  0  0  0  0  0  0  0
   -2.1960   23.9240  -26.6310 O   0  0  0  0  0  0  0  0  0  0  0  0
   -2.8560   23.0540  -30.0660 N   0  0  0  0  0  0  0  0  0  0  0  0
   -3.6690   24.0760  -30.6680 C   0  0  0  0  0  0  0  0  0  0  0  0
   -3.4860   25.2880  -30.3800 O   0  0  0  0  0  0  0  0  0  0  0  0
   -4.6570   23.7390  -31.5860 O   0  0  0  0  0  0  0  0  0  0  0  0
   -2.2820   22.0030  -30.6940 C   0  0  0  0  0  0  0  0  0  0  0  0
   -2.3180   21.6760  -32.0560 C   0  0  0  0  0  0  0  0  0  0  0  0
   -6.0790   17.5470  -33.0160 C   0  0  0  0  0  0  0  0  0  0  0  0
   -7.3250   17.9100  -32.4950 C   0  0  0  0  0  0  0  0  0  0  0  0
   -7.1023   22.7370  -28.8273 H   0  0  0  0  0  0  0  0  0  0  0  0
   -5.8184   23.6205  -29.7205 H   0  0  0  0  0  0  0  0  0  0  0  0
   -7.5035   24.2429  -29.7205 H   0  0  0  0  0  0  0  0  0  0  0  0
   -6.2587   22.0769  -31.3763 H   0  0  0  0  0  0  0  0  0  0  0  0
   -8.3313   24.2421  -31.6010 H   0  0  0  0  0  0  0  0  0  0  0  0
   -6.9706   23.8151  -32.6932 H   0  0  0  0  0  0  0  0  0  0  0  0
   -8.4678   22.8225  -32.6932 H   0  0  0  0  0  0  0  0  0  0  0  0
   -8.5930   21.5940  -29.6970 H   0  0  0  0  0  0  0  0  0  0  0  0
  -10.1004   21.3960  -31.2785 H   0  0  0  0  0  0  0  0  0  0  0  0
   -8.8364   21.6940  -32.5484 H   0  0  0  0  0  0  0  0  0  0  0  0
   -9.3013   19.0273  -31.1276 H   0  0  0  0  0  0  0  0  0  0  0  0
   -9.9052   19.4563  -32.7724 H   0  0  0  0  0  0  0  0  0  0  0  0
   -7.3312   21.2216  -33.3514 H   0  0  0  0  0  0  0  0  0  0  0  0
   -5.1175   20.5714  -34.2913 H   0  0  0  0  0  0  0  0  0  0  0  0
   -2.9749   18.4182  -32.4314 H   0  0  0  0  0  0  0  0  0  0  0  0
   -2.6678   16.8902  -33.3314 H   0  0  0  0  0  0  0  0  0  0  0  0
   -0.7153   18.2047  -33.6776 H   0  0  0  0  0  0  0  0  0  0  0  0
   -1.6959   18.3936  -35.1907 H   0  0  0  0  0  0  0  0  0  0  0  0
   -0.7257   20.5548  -34.4045 H   0  0  0  0  0  0  0  0  0  0  0  0
   -2.5297   20.5554  -34.4241 H   0  0  0  0  0  0  0  0  0  0  0  0
   -0.4311   18.8015  -31.8752 H   0  0  0  0  0  0  0  0  0  0  0  0
   -0.4442   19.4169  -29.4358 H   0  0  0  0  0  0  0  0  0  0  0  0
   -1.4253   21.3579  -27.5851 H   0  0  0  0  0  0  0  0  0  0  0  0
   -4.6390   24.7080  -28.6460 H   0  0  0  0  0  0  0  0  0  0  0  0
   -4.3150   25.3370  -26.9960 H   0  0  0  0  0  0  0  0  0  0  0  0
   -2.8499   22.3158  -32.7755 H   0  0  0  0  0  0  0  0  0  0  0  0
   -5.7256   16.5100  -32.9173 H   0  0  0  0  0  0  0  0  0  0  0  0
   -7.9434   17.1594  -31.9811 H   0  0  0  0  0  0  0  0  0  0  0  0
  1  2  1  0
  2  3  1  0
  2  4  1  0
  4  5  1  0
  5  6  1  0
  6  7  1  0
  7  8  2  0
  8  9  1  0
  9 10  2  0
 10 11  1  0
 11 12  1  0
 12 13  1  0
 13 14  1  0
 14 15  1  0
 15 16  2  0
 16 17  1  0
 17 18  2  0
 18 19  1  0
 19 20  2  0
 20 21  1  0
 21 22  1  0
 21 23  2  0
 20 24  1  0
 24 25  1  0
 25 26  2  0
 25 27  1  0
 24 28  1  0
 28 29  2  0
 10 30  1  0
 30 31  2  0
 31  7  1  0
 29 15  1  0
 28 18  1  0
  1 32  1  0
  1 33  1  0
  1 34  1  0
  2 35  1  0
  3 36  1  0
  3 37  1  0
  3 38  1  0
  4 39  1  0
  5 40  1  0
  5 41  1  0
  6 42  1  0
  6 43  1  0
  8 44  1  0
  9 45  1  0
 12 46  1  0
 12 47  1  0
 13 48  1  0
 13 49  1  0
 14 50  1  0
 14 51  1  0
 16 52  1  0
 17 53  1  0
 19 54  1  0
 22 55  1  0
 22 56  1  0
 29 57  1  0
 30 58  1  0
 31 59  1  0
M  CHG  1  27  -1
M  END
>  <UniqueID>  (64) 
64

>  <SMILES>  (64) 
CC(C)NCCc1ccc(OCCCc2ccc3cc(C(N)=O)n(C(=O)[O-])c3c2)cc1

>  <Energy>  (64) 
90.6842767309432

>  <Genealogy>  (64) 
CC(C)NCCc1ccc(OCCCc2ccc3cc(C(N)=O)n(C(=O)[O-])c3c2)cc1 (protonated)
CC(C)NCCc1ccc(OCCCc2ccc3cc(C(N)=O)n(C(=O)[O-])c3c2)cc1 (3D coordinates assigned)
CC(C)NCCc1ccc(OCCCc2ccc3cc(C(N)=O)n(C(=O)[O-])c3c2)cc1 (optimized conformer: 90.6842767309432 kcal/mol)

>  <smiles>  (64) 
CC(C)NCCc1ccc(OCCCc2ccc3cc(C(N)=O)n(C(=O)O)c3c2)cc1

>  <score_type>  (64) 
oracle

>  <origin>  (64) 
adg

>  <m_score__min__energy>  (64) 
-10.210000000000001

>  <m_primary>  (64) 
energy

$$$$
64:0
     RDKit          3D

 25 26  0  0  0  0  0  0  0  0999 V2000
   -5.6280   26.4740  -30.2130 N   0  0  0  0  0  0  0  0  0  0  0  0
   -6.4070   25.3040  -29.9620 C   0  0  0  0  0  0  0  0  0  0  0  0
   -7.2340   25.3060  -29.0110 O   0  0  0  0  0  0  0  0  0  0  0  0
   -6.2120   24.0720  -30.7500 C   0  0  0  0  0  0  0  0  0  0  0  0
   -7.2600   23.3570  -31.3220 C   0  0  0  0  0  0  0  0  0  0  0  0
   -6.6740   22.2560  -31.9040 C   0  0  0  0  0  0  0  0  0  0  0  0
   -7.2480   21.2220  -32.6350 C   0  0  0  0  0  0  0  0  0  0  0  0
   -6.3980   20.2360  -33.1620 C   0  0  0  0  0  0  0  0  0  0  0  0
   -4.9970   20.2940  -32.9440 C   0  0  0  0  0  0  0  0  0  0  0  0
   -4.0900   19.2650  -33.5680 C   0  0  0  0  0  0  0  0  0  0  0  0
   -4.7370   18.6020  -34.5980 F   0  0  0  0  0  0  0  0  0  0  0  0
   -3.7160   18.3450  -32.6070 F   0  0  0  0  0  0  0  0  0  0  0  0
   -2.9550   19.8630  -34.0870 F   0  0  0  0  0  0  0  0  0  0  0  0
   -4.4490   21.3780  -32.2170 C   0  0  0  0  0  0  0  0  0  0  0  0
   -5.3230   22.3350  -31.6850 C   0  0  0  0  0  0  0  0  0  0  0  0
   -5.0210   23.4490  -30.9800 N   0  0  0  0  0  0  0  0  0  0  0  0
   -3.7080   23.9390  -30.6560 C   0  0  0  0  0  0  0  0  0  0  0  0
   -2.7410   23.1410  -30.5350 O   0  0  0  0  0  0  0  0  0  0  0  0
   -3.4910   25.2990  -30.4800 O   0  0  0  0  0  0  0  0  0  0  0  0
   -5.8040   27.3480  -29.6710 H   0  0  0  0  0  0  0  0  0  0  0  0
   -4.8240   26.4530  -30.8790 H   0  0  0  0  0  0  0  0  0  0  0  0
   -8.3289   23.6165  -31.3113 H   0  0  0  0  0  0  0  0  0  0  0  0
   -8.3353   21.1775  -32.7958 H   0  0  0  0  0  0  0  0  0  0  0  0
   -6.8230   19.4095  -33.7504 H   0  0  0  0  0  0  0  0  0  0  0  0
   -3.3621   21.4669  -32.0731 H   0  0  0  0  0  0  0  0  0  0  0  0
  1  2  1  0
  2  3  2  0
  2  4  1  0
  4  5  2  0
  5  6  1  0
  6  7  2  0
  7  8  1  0
  8  9  2  0
  9 10  1  0
 10 11  1  0
 10 12  1  0
 10 13  1  0
  9 14  1  0
 14 15  2  0
 15 16  1  0
 16 17  1  0
 17 18  2  0
 17 19  1  0
 16  4  1  0
 15  6  1  0
  1 20  1  0
  1 21  1  0
  5 22  1  0
  7 23  1  0
  8 24  1  0
 14 25  1  0
M  CHG  1  19  -1
M  END
>  <UniqueID>  (65) 
65

>  <SMILES>  (65) 
NC(=O)c1cc2ccc(C(F)(F)F)cc2n1C(=O)[O-]

>  <Energy>  (65) 
66.26942015622485

>  <Genealogy>  (65) 
NC(=O)c1cc2ccc(C(F)(F)F)cc2n1C(=O)[O-] (protonated)
NC(=O)c1cc2ccc(C(F)(F)F)cc2n1C(=O)[O-] (3D coordinates assigned)
NC(=O)c1cc2ccc(C(F)(F)F)cc2n1C(=O)[O-] (optimized conformer: 66.26942015622485 kcal/mol)

>  <smiles>  (65) 
NC(=O)c1cc2ccc(C(F)(F)F)cc2n1C(=O)O

>  <score_type>  (65) 
oracle

>  <origin>  (65) 
adg

>  <m_score__min__energy>  (65) 
-7.8499999999999996

>  <m_primary>  (65) 
energy

$$$$
65:0
     RDKit          3D

 49 51  0  0  0  0  0  0  0  0999 V2000
   -1.2080   21.2070  -26.3300 C   0  0  0  0  0  0  0  0  0  0  0  0
   -1.8830   20.4440  -27.3870 N   0  0  0  0  0  0  0  0  0  0  0  0
   -2.7630   19.4250  -26.8020 C   0  0  0  0  0  0  0  0  0  0  0  0
   -2.8010   21.5250  -28.4090 S   0  0  0  0  0  0  0  0  0  0  0  0
   -1.9950   22.7680  -28.6640 O   0  0  0  0  0  0  0  0  0  0  0  0
   -4.0540   21.9150  -27.6790 O   0  0  0  0  0  0  0  0  0  0  0  0
   -3.2430   20.7490  -29.9710 C   0  0  0  0  0  0  0  0  0  0  0  0
   -3.7960   21.7190  -30.9830 C   0  0  0  0  0  0  0  0  0  0  0  0
   -3.0880   22.0270  -31.9790 O   0  0  0  0  0  0  0  0  0  0  0  0
   -5.1110   22.2870  -30.8580 N   0  0  0  0  0  0  0  0  0  0  0  0
   -5.4240   23.5680  -30.5080 C   0  0  0  0  0  0  0  0  0  0  0  0
   -4.4710   24.6300  -30.1070 C   0  0  0  0  0  0  0  0  0  0  0  0
   -3.7030   24.5530  -28.9050 N   0  0  0  0  0  0  0  0  0  0  0  0
   -4.3560   25.6520  -30.8360 O   0  0  0  0  0  0  0  0  0  0  0  0
   -6.7940   23.7860  -30.6360 C   0  0  0  0  0  0  0  0  0  0  0  0
   -7.3140   22.5980  -31.0930 C   0  0  0  0  0  0  0  0  0  0  0  0
   -8.6190   22.2730  -31.4490 C   0  0  0  0  0  0  0  0  0  0  0  0
   -8.8600   20.9930  -31.9730 C   0  0  0  0  0  0  0  0  0  0  0  0
   -7.7980   20.0700  -32.1370 C   0  0  0  0  0  0  0  0  0  0  0  0
   -8.0540   18.7220  -32.7540 C   0  0  0  0  0  0  0  0  0  0  0  0
   -6.7540   18.0790  -33.1520 C   0  0  0  0  0  0  0  0  0  0  0  0
   -6.2070   17.0470  -32.3720 C   0  0  0  0  0  0  0  0  0  0  0  0
   -5.0180   16.4240  -32.7620 C   0  0  0  0  0  0  0  0  0  0  0  0
   -4.3720   16.8210  -33.9360 C   0  0  0  0  0  0  0  0  0  0  0  0
   -4.9150   17.8400  -34.7230 C   0  0  0  0  0  0  0  0  0  0  0  0
   -6.1050   18.4640  -34.3370 C   0  0  0  0  0  0  0  0  0  0  0  0
   -6.4830   20.4430  -31.7810 C   0  0  0  0  0  0  0  0  0  0  0  0
   -6.2760   21.7130  -31.2320 C   0  0  0  0  0  0  0  0  0  0  0  0
   -1.5342   20.8383  -25.3463 H   0  0  0  0  0  0  0  0  0  0  0  0
   -0.1193   21.0821  -26.4258 H   0  0  0  0  0  0  0  0  0  0  0  0
   -1.4647   22.2723  -26.4258 H   0  0  0  0  0  0  0  0  0  0  0  0
   -2.7127   19.4833  -25.7047 H   0  0  0  0  0  0  0  0  0  0  0  0
   -3.7976   19.6011  -27.1315 H   0  0  0  0  0  0  0  0  0  0  0  0
   -2.4381   18.4271  -27.1315 H   0  0  0  0  0  0  0  0  0  0  0  0
   -2.3432   20.2783  -30.3939 H   0  0  0  0  0  0  0  0  0  0  0  0
   -4.0337   20.0146  -29.7577 H   0  0  0  0  0  0  0  0  0  0  0  0
   -3.0040   25.2980  -28.6890 H   0  0  0  0  0  0  0  0  0  0  0  0
   -3.8670   23.8170  -28.1870 H   0  0  0  0  0  0  0  0  0  0  0  0
   -7.3439   24.7133  -30.4175 H   0  0  0  0  0  0  0  0  0  0  0  0
   -9.4375   22.9972  -31.3237 H   0  0  0  0  0  0  0  0  0  0  0  0
   -9.8823   20.7044  -32.2587 H   0  0  0  0  0  0  0  0  0  0  0  0
   -8.5687   18.0799  -32.0241 H   0  0  0  0  0  0  0  0  0  0  0  0
   -8.6808   18.8495  -33.6489 H   0  0  0  0  0  0  0  0  0  0  0  0
   -6.7162   16.7278  -31.4507 H   0  0  0  0  0  0  0  0  0  0  0  0
   -4.5904   15.6205  -32.1443 H   0  0  0  0  0  0  0  0  0  0  0  0
   -3.4355   16.3310  -34.2407 H   0  0  0  0  0  0  0  0  0  0  0  0
   -4.4057   18.1514  -35.6469 H   0  0  0  0  0  0  0  0  0  0  0  0
   -6.5348   19.2595  -34.9635 H   0  0  0  0  0  0  0  0  0  0  0  0
   -5.6413   19.7510  -31.9319 H   0  0  0  0  0  0  0  0  0  0  0  0
  1  2  1  0
  2  3  1  0
  2  4  1  0
  4  5  2  0
  4  6  2  0
  4  7  1  0
  7  8  1  0
  8  9  2  0
  8 10  1  0
 10 11  1  0
 11 12  1  0
 12 13  1  0
 12 14  2  0
 11 15  2  0
 15 16  1  0
 16 17  2  0
 17 18  1  0
 18 19  2  0
 19 20  1  0
 20 21  1  0
 21 22  2  0
 22 23  1  0
 23 24  2  0
 24 25  1  0
 25 26  2  0
 19 27  1  0
 27 28  2  0
 28 10  1  0
 28 16  1  0
 26 21  1  0
  1 29  1  0
  1 30  1  0
  1 31  1  0
  3 32  1  0
  3 33  1  0
  3 34  1  0
  7 35  1  0
  7 36  1  0
 13 37  1  0
 13 38  1  0
 15 39  1  0
 17 40  1  0
 18 41  1  0
 20 42  1  0
 20 43  1  0
 22 44  1  0
 23 45  1  0
 24 46  1  0
 25 47  1  0
 26 48  1  0
 27 49  1  0
M  END
>  <UniqueID>  (66) 
66

>  <SMILES>  (66) 
CN(C)S(=O)(=O)CC(=O)n1c(C(N)=O)cc2ccc(Cc3ccccc3)cc21

>  <Energy>  (66) 
84.28564866257906

>  <Genealogy>  (66) 
CN(C)S(=O)(=O)CC(=O)n1c(C(N)=O)cc2ccc(Cc3ccccc3)cc21 (3D coordinates assigned)
CN(C)S(=O)(=O)CC(=O)n1c(C(N)=O)cc2ccc(Cc3ccccc3)cc21 (optimized conformer: 84.28564866257906 kcal/mol)

>  <smiles>  (66) 
CN(C)S(=O)(=O)CC(=O)n1c(C(N)=O)cc2ccc(Cc3ccccc3)cc21

>  <score_type>  (66) 
oracle

>  <origin>  (66) 
adg

>  <m_score__min__energy>  (66) 
-10.07

>  <m_primary>  (66) 
energy

$$$$
66:0
     RDKit          3D

 40 43  0  0  0  0  0  0  0  0999 V2000
   -0.9790   20.6660  -30.3670 C   0  0  0  0  0  0  0  0  0  0  0  0
   -1.6050   20.8940  -31.7060 C   0  0  0  0  0  0  0  0  0  0  0  0
   -1.2250   20.2950  -32.8900 C   0  0  0  0  0  0  0  0  0  0  0  0
   -2.0760   20.7970  -33.8540 C   0  0  0  0  0  0  0  0  0  0  0  0
   -2.9190   21.6420  -33.3080 O   0  0  0  0  0  0  0  0  0  0  0  0
   -2.6700   21.7230  -32.0200 C   0  0  0  0  0  0  0  0  0  0  0  0
   -3.4390   22.5840  -31.1000 C   0  0  0  0  0  0  0  0  0  0  0  0
   -2.8630   23.1700  -30.1460 O   0  0  0  0  0  0  0  0  0  0  0  0
   -4.8510   22.7580  -31.2870 N   0  0  0  0  0  0  0  0  0  0  0  0
   -5.6110   23.8370  -30.9450 C   0  0  0  0  0  0  0  0  0  0  0  0
   -5.1070   25.1180  -30.4070 C   0  0  0  0  0  0  0  0  0  0  0  0
   -3.8650   25.6630  -30.8450 N   0  0  0  0  0  0  0  0  0  0  0  0
   -5.7990   25.7580  -29.5700 O   0  0  0  0  0  0  0  0  0  0  0  0
   -6.9540   23.5940  -31.2310 C   0  0  0  0  0  0  0  0  0  0  0  0
   -6.9920   22.3260  -31.7660 C   0  0  0  0  0  0  0  0  0  0  0  0
   -8.0710   21.5760  -32.2200 C   0  0  0  0  0  0  0  0  0  0  0  0
   -7.8160   20.2830  -32.7070 C   0  0  0  0  0  0  0  0  0  0  0  0
   -6.4970   19.7560  -32.7220 C   0  0  0  0  0  0  0  0  0  0  0  0
   -6.2360   18.3890  -33.2410 C   0  0  0  0  0  0  0  0  0  0  0  0
   -5.0990   18.1190  -34.0220 C   0  0  0  0  0  0  0  0  0  0  0  0
   -4.8680   16.8310  -34.5070 C   0  0  0  0  0  0  0  0  0  0  0  0
   -5.7770   15.8160  -34.2110 C   0  0  0  0  0  0  0  0  0  0  0  0
   -6.8740   16.0830  -33.4540 N   0  0  0  0  0  0  0  0  0  0  0  0
   -7.1210   17.3300  -32.9690 C   0  0  0  0  0  0  0  0  0  0  0  0
   -5.4300   20.5510  -32.2400 C   0  0  0  0  0  0  0  0  0  0  0  0
   -5.7100   21.8440  -31.7870 C   0  0  0  0  0  0  0  0  0  0  0  0
   -1.6980   20.9279  -29.5767 H   0  0  0  0  0  0  0  0  0  0  0  0
   -0.6967   19.6073  -30.2697 H   0  0  0  0  0  0  0  0  0  0  0  0
   -0.0819   21.2951  -30.2697 H   0  0  0  0  0  0  0  0  0  0  0  0
   -0.4123   19.5681  -33.0353 H   0  0  0  0  0  0  0  0  0  0  0  0
   -2.0513   20.5289  -34.9205 H   0  0  0  0  0  0  0  0  0  0  0  0
   -2.9590   25.3000  -30.4750 H   0  0  0  0  0  0  0  0  0  0  0  0
   -7.8038   24.2723  -31.0643 H   0  0  0  0  0  0  0  0  0  0  0  0
   -9.0929   21.9824  -32.1986 H   0  0  0  0  0  0  0  0  0  0  0  0
   -8.6492   19.6704  -33.0818 H   0  0  0  0  0  0  0  0  0  0  0  0
   -4.3882   18.9264  -34.2519 H   0  0  0  0  0  0  0  0  0  0  0  0
   -3.9775   16.6186  -35.1168 H   0  0  0  0  0  0  0  0  0  0  0  0
   -5.6062   14.7978  -34.5906 H   0  0  0  0  0  0  0  0  0  0  0  0
   -8.0189   17.5113  -32.3600 H   0  0  0  0  0  0  0  0  0  0  0  0
   -4.4020   20.1600  -32.2221 H   0  0  0  0  0  0  0  0  0  0  0  0
  1  2  1  0
  2  3  1  0
  3  4  2  0
  4  5  1  0
  5  6  1  0
  6  7  1  0
  7  8  2  0
  7  9  1  0
  9 10  1  0
 10 11  1  0
 11 12  1  0
 11 13  2  0
 10 14  2  0
 14 15  1  0
 15 16  2  0
 16 17  1  0
 17 18  2  0
 18 19  1  0
 19 20  2  0
 20 21  1  0
 21 22  2  0
 22 23  1  0
 23 24  2  0
 18 25  1  0
 25 26  2  0
  6  2  2  0
 26  9  1  0
 26 15  1  0
 24 19  1  0
  1 27  1  0
  1 28  1  0
  1 29  1  0
  3 30  1  0
  4 31  1  0
 12 32  1  0
 14 33  1  0
 16 34  1  0
 17 35  1  0
 20 36  1  0
 21 37  1  0
 22 38  1  0
 24 39  1  0
 25 40  1  0
M  CHG  1  12  -1
M  END
>  <UniqueID>  (67) 
67

>  <SMILES>  (67) 
Cc1ccoc1C(=O)n1c(C([NH-])=O)cc2ccc(-c3cccnc3)cc21

>  <Energy>  (67) 
115.48708051062643

>  <Genealogy>  (67) 
Cc1ccoc1C(=O)n1c(C([NH-])=O)cc2ccc(-c3cccnc3)cc21 (protonated)
Cc1ccoc1C(=O)n1c(C([NH-])=O)cc2ccc(-c3cccnc3)cc21 (3D coordinates assigned)
Cc1ccoc1C(=O)n1c(C([NH-])=O)cc2ccc(-c3cccnc3)cc21 (optimized conformer: 115.48708051062643 kcal/mol)

>  <smiles>  (67) 
Cc1ccoc1C(=O)n1c(C(N)=O)cc2ccc(-c3cccnc3)cc21

>  <score_type>  (67) 
oracle

>  <origin>  (67) 
adg

>  <m_score__min__energy>  (67) 
-11.390000000000001

>  <m_primary>  (67) 
energy

$$$$
67:0
     RDKit          3D

 50 51  0  0  0  0  0  0  0  0999 V2000
   -3.4910   18.4190  -33.8060 C   0  0  0  0  0  0  0  0  0  0  0  0
   -4.6850   17.6530  -33.7090 O   0  0  0  0  0  0  0  0  0  0  0  0
   -5.9270   18.1380  -34.1330 C   0  0  0  0  0  0  0  0  0  0  0  0
   -6.0850   18.5540  -35.3130 O   0  0  0  0  0  0  0  0  0  0  0  0
   -7.0610   18.2020  -33.1620 C   0  0  0  0  0  0  0  0  0  0  0  0
   -7.2100   19.6040  -32.6410 C   0  0  0  0  0  0  0  0  0  0  0  0
   -8.4990   20.1440  -32.4020 C   0  0  0  0  0  0  0  0  0  0  0  0
   -8.6450   21.4420  -31.8840 C   0  0  0  0  0  0  0  0  0  0  0  0
   -7.4900   22.1640  -31.5970 C   0  0  0  0  0  0  0  0  0  0  0  0
   -7.3470   23.4280  -31.0750 C   0  0  0  0  0  0  0  0  0  0  0  0
   -5.9730   23.6280  -30.9640 C   0  0  0  0  0  0  0  0  0  0  0  0
   -5.3700   24.8160  -30.3210 C   0  0  0  0  0  0  0  0  0  0  0  0
   -5.8460   25.2800  -29.0560 N   0  0  0  0  0  0  0  0  0  0  0  0
   -4.4010   25.4090  -30.8660 O   0  0  0  0  0  0  0  0  0  0  0  0
   -5.2920   22.5350  -31.4130 N   0  0  0  0  0  0  0  0  0  0  0  0
   -3.8680   22.3480  -31.4630 C   0  0  0  0  0  0  0  0  0  0  0  0
   -3.3150   21.9810  -32.5370 O   0  0  0  0  0  0  0  0  0  0  0  0
   -3.0980   22.5750  -30.3190 O   0  0  0  0  0  0  0  0  0  0  0  0
   -3.3010   21.8940  -29.0840 C   0  0  0  0  0  0  0  0  0  0  0  0
   -3.7830   22.8580  -27.9990 C   0  0  0  0  0  0  0  0  0  0  0  0
   -2.4320   24.0310  -27.4110 Si  0  0  0  0  0  4  0  0  0  0  0  0
   -1.7420   24.9270  -28.8960 C   0  0  0  0  0  0  0  0  0  0  0  0
   -1.0550   23.0790  -26.5820 C   0  0  0  0  0  0  0  0  0  0  0  0
   -3.1130   25.2960  -26.2150 C   0  0  0  0  0  0  0  0  0  0  0  0
   -6.2370   21.6460  -31.7940 C   0  0  0  0  0  0  0  0  0  0  0  0
   -6.0620   20.3650  -32.3340 C   0  0  0  0  0  0  0  0  0  0  0  0
   -3.1236   18.6547  -32.7963 H   0  0  0  0  0  0  0  0  0  0  0  0
   -2.7279   17.8415  -34.3484 H   0  0  0  0  0  0  0  0  0  0  0  0
   -3.6978   19.3534  -34.3484 H   0  0  0  0  0  0  0  0  0  0  0  0
   -7.9906   17.8997  -33.6664 H   0  0  0  0  0  0  0  0  0  0  0  0
   -6.8564   17.5230  -32.3211 H   0  0  0  0  0  0  0  0  0  0  0  0
   -9.3923   19.5417  -32.6240 H   0  0  0  0  0  0  0  0  0  0  0  0
   -9.6415   21.8743  -31.7106 H   0  0  0  0  0  0  0  0  0  0  0  0
   -8.1475   24.1317  -30.8029 H   0  0  0  0  0  0  0  0  0  0  0  0
   -5.3890   26.0950  -28.5910 H   0  0  0  0  0  0  0  0  0  0  0  0
   -6.6760   24.8430  -28.5980 H   0  0  0  0  0  0  0  0  0  0  0  0
   -4.0561   21.1070  -29.2271 H   0  0  0  0  0  0  0  0  0  0  0  0
   -2.3439   21.4564  -28.7638 H   0  0  0  0  0  0  0  0  0  0  0  0
   -4.6145   23.4542  -28.4029 H   0  0  0  0  0  0  0  0  0  0  0  0
   -4.0957   22.2537  -27.1347 H   0  0  0  0  0  0  0  0  0  0  0  0
   -1.1030   25.7567  -28.5594 H   0  0  0  0  0  0  0  0  0  0  0  0
   -1.1466   24.2282  -29.5019 H   0  0  0  0  0  0  0  0  0  0  0  0
   -2.5698   25.3241  -29.5019 H   0  0  0  0  0  0  0  0  0  0  0  0
   -1.1633   23.1539  -25.4899 H   0  0  0  0  0  0  0  0  0  0  0  0
   -1.1062   22.0225  -26.8840 H   0  0  0  0  0  0  0  0  0  0  0  0
   -0.0847   23.5001  -26.8840 H   0  0  0  0  0  0  0  0  0  0  0  0
   -2.9321   24.9599  -25.1834 H   0  0  0  0  0  0  0  0  0  0  0  0
   -2.6130   26.2620  -26.3789 H   0  0  0  0  0  0  0  0  0  0  0  0
   -4.1947   25.4105  -26.3789 H   0  0  0  0  0  0  0  0  0  0  0  0
   -5.0543   19.9624  -32.5142 H   0  0  0  0  0  0  0  0  0  0  0  0
  1  2  1  0
  2  3  1  0
  3  4  2  0
  3  5  1  0
  5  6  1  0
  6  7  2  0
  7  8  1  0
  8  9  2  0
  9 10  1  0
 10 11  2  0
 11 12  1  0
 12 13  1  0
 12 14  2  0
 11 15  1  0
 15 16  1  0
 16 17  2  0
 16 18  1  0
 18 19  1  0
 19 20  1  0
 20 21  1  0
 21 22  1  0
 21 23  1  0
 21 24  1  0
 15 25  1  0
 25 26  2  0
 26  6  1  0
 25  9  1  0
  1 27  1  0
  1 28  1  0
  1 29  1  0
  5 30  1  0
  5 31  1  0
  7 32  1  0
  8 33  1  0
 10 34  1  0
 13 35  1  0
 13 36  1  0
 19 37  1  0
 19 38  1  0
 20 39  1  0
 20 40  1  0
 22 41  1  0
 22 42  1  0
 22 43  1  0
 23 44  1  0
 23 45  1  0
 23 46  1  0
 24 47  1  0
 24 48  1  0
 24 49  1  0
 26 50  1  0
M  END
>  <UniqueID>  (68) 
68

>  <SMILES>  (68) 
COC(=O)Cc1ccc2cc(C(N)=O)n(C(=O)OCC[Si](C)(C)C)c2c1

>  <Energy>  (68) 
63.414458399226014

>  <Genealogy>  (68) 
COC(=O)Cc1ccc2cc(C(N)=O)n(C(=O)OCC[Si](C)(C)C)c2c1 (3D coordinates assigned)
COC(=O)Cc1ccc2cc(C(N)=O)n(C(=O)OCC[Si](C)(C)C)c2c1 (optimized conformer: 63.414458399226014 kcal/mol)

>  <smiles>  (68) 
COC(=O)Cc1ccc2cc(C(N)=O)n(C(=O)OCC[Si](C)(C)C)c2c1

>  <score_type>  (68) 
oracle

>  <origin>  (68) 
adg

>  <m_score__min__energy>  (68) 
-9.0199999999999996

>  <m_primary>  (68) 
energy

$$$$
68:0
     RDKit          3D

 43 45  0  0  0  0  0  0  0  0999 V2000
   -9.3310   22.3230  -31.5860 C   0  0  0  0  0  0  0  0  0  0  0  0
   -8.1400   22.9330  -32.3240 C   0  0  0  0  0  0  0  0  0  0  0  0
   -7.2900   23.8620  -31.4390 C   0  0  0  0  0  0  0  0  0  0  0  0
   -6.9900   23.3140  -30.0310 C   0  0  1  0  0  0  0  0  0  0  0  0
   -7.0190   21.9310  -30.0480 F   0  0  0  0  0  0  0  0  0  0  0  0
   -5.7180   23.7460  -29.5470 O   0  0  0  0  0  0  0  0  0  0  0  0
   -4.6360   24.0620  -30.3770 C   0  0  0  0  0  0  0  0  0  0  0  0
   -4.5260   25.2230  -30.8580 O   0  0  0  0  0  0  0  0  0  0  0  0
   -3.6590   23.0560  -30.6980 N   0  0  0  0  0  0  0  0  0  0  0  0
   -2.3470   23.0150  -30.3230 C   0  0  0  0  0  0  0  0  0  0  0  0
   -1.6930   23.9120  -29.3470 C   0  0  0  0  0  0  0  0  0  0  0  0
   -2.0250   25.2980  -29.3260 N   0  0  0  0  0  0  0  0  0  0  0  0
   -0.8120   23.4770  -28.5590 O   0  0  0  0  0  0  0  0  0  0  0  0
   -1.6980   21.9400  -30.9250 C   0  0  0  0  0  0  0  0  0  0  0  0
   -2.6600   21.3080  -31.6770 C   0  0  0  0  0  0  0  0  0  0  0  0
   -2.5570   20.1890  -32.4990 C   0  0  0  0  0  0  0  0  0  0  0  0
   -3.7070   19.7700  -33.1880 C   0  0  0  0  0  0  0  0  0  0  0  0
   -4.9300   20.4660  -33.0350 C   0  0  0  0  0  0  0  0  0  0  0  0
   -6.1440   20.0470  -33.8160 C   0  0  0  0  0  0  0  0  0  0  0  0
   -7.1470   19.4960  -32.9120 N   0  0  0  0  0  0  0  0  0  0  0  0
   -6.9410   18.6160  -31.9200 C   0  0  0  0  0  0  0  0  0  0  0  0
   -8.1030   18.2570  -31.3400 N   0  0  0  0  0  0  0  0  0  0  0  0
   -9.0120   18.9640  -32.0490 C   0  0  0  0  0  0  0  0  0  0  0  0
   -8.4450   19.7140  -33.0140 N   0  0  0  0  0  0  0  0  0  0  0  0
   -4.9950   21.6010  -32.2000 C   0  0  0  0  0  0  0  0  0  0  0  0
   -3.8350   21.9950  -31.5200 C   0  0  0  0  0  0  0  0  0  0  0  0
   -9.1710   22.4050  -30.5008 H   0  0  0  0  0  0  0  0  0  0  0  0
  -10.2491   22.8619  -31.8630 H   0  0  0  0  0  0  0  0  0  0  0  0
   -9.4302   21.2631  -31.8630 H   0  0  0  0  0  0  0  0  0  0  0  0
   -7.4999   22.1166  -32.6899 H   0  0  0  0  0  0  0  0  0  0  0  0
   -8.5423   23.5427  -33.1464 H   0  0  0  0  0  0  0  0  0  0  0  0
   -6.3316   24.0385  -31.9492 H   0  0  0  0  0  0  0  0  0  0  0  0
   -7.8799   24.7793  -31.2957 H   0  0  0  0  0  0  0  0  0  0  0  0
   -7.7653   23.7061  -29.3564 H   0  0  0  0  0  0  0  0  0  0  0  0
   -3.0210   25.6120  -29.3400 H   0  0  0  0  0  0  0  0  0  0  0  0
   -0.6402   21.6566  -30.8210 H   0  0  0  0  0  0  0  0  0  0  0  0
   -1.6043   19.6496  -32.6056 H   0  0  0  0  0  0  0  0  0  0  0  0
   -3.6568   18.8942  -33.8516 H   0  0  0  0  0  0  0  0  0  0  0  0
   -6.5626   20.9207  -34.3370 H   0  0  0  0  0  0  0  0  0  0  0  0
   -5.8566   19.2802  -34.5504 H   0  0  0  0  0  0  0  0  0  0  0  0
   -5.9529   18.2373  -31.6197 H   0  0  0  0  0  0  0  0  0  0  0  0
  -10.0949   18.9304  -31.8588 H   0  0  0  0  0  0  0  0  0  0  0  0
   -5.9336   22.1631  -32.0855 H   0  0  0  0  0  0  0  0  0  0  0  0
  1  2  1  0
  2  3  1  0
  3  4  1  0
  4  5  1  0
  4  6  1  0
  6  7  1  0
  7  8  2  0
  7  9  1  0
  9 10  1  0
 10 11  1  0
 11 12  1  0
 11 13  2  0
 10 14  2  0
 14 15  1  0
 15 16  2  0
 16 17  1  0
 17 18  2  0
 18 19  1  0
 19 20  1  0
 20 21  1  0
 21 22  2  0
 22 23  1  0
 23 24  2  0
 18 25  1  0
 25 26  2  0
 26  9  1  0
 26 15  1  0
 24 20  1  0
  1 27  1  0
  1 28  1  0
  1 29  1  0
  2 30  1  0
  2 31  1  0
  3 32  1  0
  3 33  1  0
  4 34  1  1
 12 35  1  0
 14 36  1  0
 16 37  1  0
 17 38  1  0
 19 39  1  0
 19 40  1  0
 21 41  1  0
 23 42  1  0
 25 43  1  0
M  CHG  1  12  -1
M  END
>  <UniqueID>  (69) 
69

>  <SMILES>  (69) 
CCC[C@@H](F)OC(=O)n1c(C([NH-])=O)cc2ccc(Cn3cncn3)cc21

>  <Energy>  (69) 
107.12616531493534

>  <Genealogy>  (69) 
CCCC(F)OC(=O)n1c(C([NH-])=O)cc2ccc(Cn3cncn3)cc21 (protonated)
CCC[C@@H](F)OC(=O)n1c(C([NH-])=O)cc2ccc(Cn3cncn3)cc21 (chirality)
CCC[C@@H](F)OC(=O)n1c(C([NH-])=O)cc2ccc(Cn3cncn3)cc21 (3D coordinates assigned)
CCC[C@@H](F)OC(=O)n1c(C([NH-])=O)cc2ccc(Cn3cncn3)cc21 (optimized conformer: 107.12616531493534 kcal/mol)

>  <smiles>  (69) 
CCCC(F)OC(=O)n1c(C(N)=O)cc2ccc(Cn3cncn3)cc21

>  <score_type>  (69) 
oracle

>  <origin>  (69) 
adg

>  <m_score__min__energy>  (69) 
-10.470000000000001

>  <m_primary>  (69) 
energy

$$$$
69:0
     RDKit          3D

 26 27  0  0  0  0  0  0  0  0999 V2000
   -3.1390   23.6300  -30.8360 N   0  0  0  0  0  0  0  0  0  0  0  0
   -3.8750   22.6810  -31.6040 C   0  0  0  0  0  0  0  0  0  0  0  0
   -3.2560   21.8500  -32.3210 O   0  0  0  0  0  0  0  0  0  0  0  0
   -5.3120   22.6620  -31.5500 N   0  0  0  0  0  0  0  0  0  0  0  0
   -6.1320   23.5970  -30.9920 C   0  0  0  0  0  0  0  0  0  0  0  0
   -5.7170   24.9180  -30.4800 C   0  0  0  0  0  0  0  0  0  0  0  0
   -6.0460   25.3340  -29.1540 N   0  0  0  0  0  0  0  0  0  0  0  0
   -5.0110   25.6690  -31.2050 O   0  0  0  0  0  0  0  0  0  0  0  0
   -7.4560   23.1680  -31.0160 C   0  0  0  0  0  0  0  0  0  0  0  0
   -7.4260   21.9340  -31.6240 C   0  0  0  0  0  0  0  0  0  0  0  0
   -8.4650   21.0540  -31.9090 C   0  0  0  0  0  0  0  0  0  0  0  0
   -8.1440   19.8320  -32.5210 C   0  0  0  0  0  0  0  0  0  0  0  0
   -6.7960   19.4980  -32.8130 C   0  0  0  0  0  0  0  0  0  0  0  0
   -6.4670   18.1980  -33.5020 C   0  0  0  0  0  0  0  0  0  0  0  0
   -6.1310   18.4550  -34.8180 F   0  0  0  0  0  0  0  0  0  0  0  0
   -7.5530   17.3410  -33.4730 F   0  0  0  0  0  0  0  0  0  0  0  0
   -5.4030   17.5690  -32.8790 F   0  0  0  0  0  0  0  0  0  0  0  0
   -5.7700   20.4300  -32.5280 C   0  0  0  0  0  0  0  0  0  0  0  0
   -6.1220   21.6490  -31.9360 C   0  0  0  0  0  0  0  0  0  0  0  0
   -3.1390   24.6420  -31.0900 H   0  0  0  0  0  0  0  0  0  0  0  0
   -6.4850   24.6730  -28.4750 H   0  0  0  0  0  0  0  0  0  0  0  0
   -5.7760   26.2860  -28.8210 H   0  0  0  0  0  0  0  0  0  0  0  0
   -8.3377   23.7014  -30.6312 H   0  0  0  0  0  0  0  0  0  0  0  0
   -9.5065   21.3079  -31.6623 H   0  0  0  0  0  0  0  0  0  0  0  0
   -8.9468   19.1250  -32.7772 H   0  0  0  0  0  0  0  0  0  0  0  0
   -4.7205   20.2021  -32.7660 H   0  0  0  0  0  0  0  0  0  0  0  0
  1  2  1  0
  2  3  2  0
  2  4  1  0
  4  5  1  0
  5  6  1  0
  6  7  1  0
  6  8  2  0
  5  9  2  0
  9 10  1  0
 10 11  2  0
 11 12  1  0
 12 13  2  0
 13 14  1  0
 14 15  1  0
 14 16  1  0
 14 17  1  0
 13 18  1  0
 18 19  2  0
 19  4  1  0
 19 10  1  0
  1 20  1  0
  7 21  1  0
  7 22  1  0
  9 23  1  0
 11 24  1  0
 12 25  1  0
 18 26  1  0
M  CHG  1   1  -1
M  END
>  <UniqueID>  (70) 
70

>  <SMILES>  (70) 
[NH-]C(=O)n1c(C(N)=O)cc2ccc(C(F)(F)F)cc21

>  <Energy>  (70) 
66.78233927778771

>  <Genealogy>  (70) 
[NH-]C(=O)n1c(C(N)=O)cc2ccc(C(F)(F)F)cc21 (protonated)
[NH-]C(=O)n1c(C(N)=O)cc2ccc(C(F)(F)F)cc21 (3D coordinates assigned)
[NH-]C(=O)n1c(C(N)=O)cc2ccc(C(F)(F)F)cc21 (optimized conformer: 66.78233927778771 kcal/mol)

>  <smiles>  (70) 
NC(=O)c1cc2ccc(C(F)(F)F)cc2n1C(N)=O

>  <score_type>  (70) 
oracle

>  <origin>  (70) 
adg

>  <m_score__min__energy>  (70) 
-8.0399999999999991

>  <m_primary>  (70) 
energy

$$$$
70:0
     RDKit          3D

 43 45  0  0  0  0  0  0  0  0999 V2000
   -2.6740   20.9190  -34.6990 H   0  0  0  0  0  0  0  0  0  0  0  0
   -2.2370   20.0550  -34.3090 N   0  0  0  0  0  0  0  0  0  0  0  0
   -2.7010   19.4830  -33.0890 C   0  0  0  0  0  0  0  0  0  0  0  0
   -1.9160   18.7810  -32.3960 O   0  0  0  0  0  0  0  0  0  0  0  0
   -4.1020   19.6490  -32.6630 C   0  0  0  0  0  0  0  0  0  0  0  0
   -4.9400   18.5790  -32.3560 C   0  0  0  0  0  0  0  0  0  0  0  0
   -4.6681   17.5151  -32.2908 H   0  0  0  0  0  0  0  0  0  0  0  0
   -6.1800   19.1380  -32.1520 C   0  0  0  0  0  0  0  0  0  0  0  0
   -7.3950   18.5310  -31.8510 C   0  0  0  0  0  0  0  0  0  0  0  0
   -7.4687   17.4406  -31.7265 H   0  0  0  0  0  0  0  0  0  0  0  0
   -8.5250   19.3540  -31.7110 C   0  0  0  0  0  0  0  0  0  0  0  0
   -9.5034   18.9036  -31.4877 H   0  0  0  0  0  0  0  0  0  0  0  0
   -8.4150   20.7590  -31.8550 C   0  0  0  0  0  0  0  0  0  0  0  0
   -9.6370   21.6200  -31.7440 C   0  0  0  0  0  0  0  0  0  0  0  0
   -9.8731   21.7864  -30.6826 H   0  0  0  0  0  0  0  0  0  0  0  0
   -9.4500   22.5869  -32.2340 H   0  0  0  0  0  0  0  0  0  0  0  0
  -10.4846   21.1185  -32.2340 H   0  0  0  0  0  0  0  0  0  0  0  0
   -7.1700   21.3400  -32.1700 C   0  0  0  0  0  0  0  0  0  0  0  0
   -7.0692   22.4284  -32.2937 H   0  0  0  0  0  0  0  0  0  0  0  0
   -6.0660   20.4940  -32.3210 C   0  0  0  0  0  0  0  0  0  0  0  0
   -4.7930   20.8240  -32.6290 N   0  0  0  0  0  0  0  0  0  0  0  0
   -4.2770   22.1460  -32.8360 C   0  0  0  0  0  0  0  0  0  0  0  0
   -3.5450   22.3850  -33.8350 O   0  0  0  0  0  0  0  0  0  0  0  0
   -4.5930   23.1650  -31.9320 O   0  0  0  0  0  0  0  0  0  0  0  0
   -4.4220   23.0390  -30.5240 C   0  0  0  0  0  0  0  0  0  0  0  0
   -5.3840   23.2239  -30.0236 H   0  0  0  0  0  0  0  0  0  0  0  0
   -4.0680   22.0228  -30.2959 H   0  0  0  0  0  0  0  0  0  0  0  0
   -3.4030   24.0370  -30.0290 C   0  0  0  0  0  0  0  0  0  0  0  0
   -3.4970   25.3230  -30.5520 O   0  0  0  0  0  0  0  0  0  0  0  0
   -2.4640   23.7390  -29.0950 C   0  0  0  0  0  0  0  0  0  0  0  0
   -1.5030   24.7740  -28.6090 C   0  0  0  0  0  0  0  0  0  0  0  0
   -0.9170   24.6280  -27.5010 O   0  0  0  0  0  0  0  0  0  0  0  0
   -1.2310   25.9200  -29.3480 O   0  0  0  0  0  0  0  0  0  0  0  0
   -2.3870   22.3580  -28.4600 C   0  0  0  0  0  0  0  0  0  0  0  0
   -1.9326   22.4467  -27.4622 H   0  0  0  0  0  0  0  0  0  0  0  0
   -3.4062   21.9507  -28.3871 H   0  0  0  0  0  0  0  0  0  0  0  0
   -1.5810   21.4470  -29.2720 N   0  0  0  0  0  0  0  0  0  0  0  0
   -1.2210   20.2290  -28.9140 N   0  0  0  0  0  0  0  0  0  0  0  0
   -0.4250   19.7810  -29.9030 C   0  0  0  0  0  0  0  0  0  0  0  0
    0.0318   18.7804  -29.9132 H   0  0  0  0  0  0  0  0  0  0  0  0
   -0.2490   20.6960  -30.8820 N   0  0  0  0  0  0  0  0  0  0  0  0
   -0.9880   21.7320  -30.4430 C   0  0  0  0  0  0  0  0  0  0  0  0
   -1.0928   22.6891  -30.9750 H   0  0  0  0  0  0  0  0  0  0  0  0
  1  2  1  0
  2  3  1  0
  3  4  2  0
  3  5  1  0
  5  6  2  0
  6  7  1  0
  6  8  1  0
  8  9  2  0
  9 10  1  0
  9 11  1  0
 11 12  1  0
 11 13  2  0
 13 14  1  0
 14 15  1  0
 14 16  1  0
 14 17  1  0
 13 18  1  0
 18 19  1  0
 18 20  2  0
 20 21  1  0
 21 22  1  0
 22 23  2  0
 22 24  1  0
 24 25  1  0
 25 26  1  0
 25 27  1  0
 25 28  1  0
 28 29  1  0
 28 30  2  0
 30 31  1  0
 31 32  2  0
 31 33  1  0
 30 34  1  0
 34 35  1  0
 34 36  1  0
 34 37  1  0
 37 38  1  0
 38 39  2  0
 39 40  1  0
 39 41  1  0
 41 42  2  0
 42 43  1  0
 21  5  1  0
 42 37  1  0
 20  8  1  0
M  CHG  3   2  -1  29  -1  33  -1
M  END
>  <UniqueID>  (71) 
71

>  <SMILES>  (71) 
Cc1ccc2cc(C([NH-])=O)n(C(=O)OC/C([O-])=C(\Cn3cncn3)C(=O)[O-])c2c1

>  <Energy>  (71) 
114.09238729099827

>  <Genealogy>  (71) 
Cc1ccc2cc(C([NH-])=O)n(C(=O)OC/C([O-])=C(\Cn3cncn3)C(=O)[O-])c2c1 (protonated)
Cc1ccc2cc(C([NH-])=O)n(C(=O)OC/C([O-])=C(\Cn3cncn3)C(=O)[O-])c2c1 (cis-trans isomerization)
Cc1ccc2cc(C([NH-])=O)n(C(=O)OC/C([O-])=C(\Cn3cncn3)C(=O)[O-])c2c1 (3D coordinates assigned)
Cc1ccc2cc(C([NH-])=O)n(C(=O)OC/C([O-])=C(\Cn3cncn3)C(=O)[O-])c2c1 (optimized conformer: 114.09238729099827 kcal/mol)

>  <smiles>  (71) 
Cc1ccc2cc(C(N)=O)n(C(=O)OC/C(O)=C(\Cn3cncn3)C(=O)O)c2c1

>  <score_type>  (71) 
oracle

>  <origin>  (71) 
adg

>  <m_score__min__energy>  (71) 
-14.16

>  <m_primary>  (71) 
energy

$$$$
71:0
     RDKit          3D

 56 59  0  0  0  0  0  0  0  0999 V2000
   -0.7870   21.0730  -31.1310 C   0  0  0  0  0  0  0  0  0  0  0  0
   -1.3120   21.8420  -29.9290 C   0  0  0  0  0  0  0  0  0  0  0  0
   -0.9600   23.2170  -30.0540 O   0  0  0  0  0  0  0  0  0  0  0  0
   -1.3560   24.1890  -29.1300 C   0  0  0  0  0  0  0  0  0  0  0  0
   -0.5110   24.9720  -28.6140 O   0  0  0  0  0  0  0  0  0  0  0  0
   -2.8060   24.3430  -28.7970 C   0  0  0  0  0  0  0  0  0  0  0  0
   -3.4330   25.2900  -29.7170 N   0  0  0  0  0  0  0  0  0  0  0  0
   -4.6300   25.0420  -30.4670 C   0  0  0  0  0  0  0  0  0  0  0  0
   -5.5100   25.9390  -30.5160 O   0  0  0  0  0  0  0  0  0  0  0  0
   -4.8530   23.7710  -31.1760 C   0  0  0  0  0  0  0  0  0  0  0  0
   -6.1510   23.3330  -31.4610 C   0  0  0  0  0  0  0  0  0  0  0  0
   -6.3330   22.1470  -32.1730 C   0  0  0  0  0  0  0  0  0  0  0  0
   -5.2260   21.3870  -32.5860 C   0  0  0  0  0  0  0  0  0  0  0  0
   -5.4200   20.1390  -33.3660 C   0  0  0  0  0  0  0  0  0  0  0  0
   -6.3600   20.0710  -34.2060 O   0  0  0  0  0  0  0  0  0  0  0  0
   -4.5770   18.9900  -33.1760 N   0  0  0  0  0  0  0  0  0  0  0  0
   -4.9770   17.7340  -32.8310 C   0  0  0  0  0  0  0  0  0  0  0  0
   -6.3360   17.3550  -32.3910 C   0  0  0  0  0  0  0  0  0  0  0  0
   -7.4920   17.7300  -33.1400 N   0  0  0  0  0  0  0  0  0  0  0  0
   -6.4800   16.7230  -31.3100 O   0  0  0  0  0  0  0  0  0  0  0  0
   -3.9220   16.8330  -32.9410 C   0  0  0  0  0  0  0  0  0  0  0  0
   -2.8510   17.5810  -33.3710 C   0  0  0  0  0  0  0  0  0  0  0  0
   -1.5480   17.1900  -33.6680 C   0  0  0  0  0  0  0  0  0  0  0  0
   -0.6520   18.1720  -34.1180 C   0  0  0  0  0  0  0  0  0  0  0  0
   -1.0670   19.5200  -34.2780 C   0  0  0  0  0  0  0  0  0  0  0  0
   -0.1000   20.5560  -34.7120 C   0  0  0  0  0  0  0  0  0  0  0  0
   -0.2830   21.9300  -34.7410 C   0  0  0  0  0  0  0  0  0  0  0  0
    0.8060   22.5150  -35.2770 N   0  0  0  0  0  0  0  0  0  0  0  0
    1.6720   21.5570  -35.5730 N   0  0  0  0  0  0  0  0  0  0  0  0
    2.9360   21.7920  -36.2590 C   0  0  0  0  0  0  0  0  0  0  0  0
    2.9630   23.0780  -36.7670 F   0  0  0  0  0  0  0  0  0  0  0  0
    3.0750   20.8860  -37.2950 F   0  0  0  0  0  0  0  0  0  0  0  0
    1.1570   20.3550  -35.2560 C   0  0  0  0  0  0  0  0  0  0  0  0
   -2.4090   19.8700  -33.9900 C   0  0  0  0  0  0  0  0  0  0  0  0
   -3.2720   18.8760  -33.5140 C   0  0  0  0  0  0  0  0  0  0  0  0
   -3.9440   21.8360  -32.2220 C   0  0  0  0  0  0  0  0  0  0  0  0
   -3.7920   23.0070  -31.5500 N   0  0  0  0  0  0  0  0  0  0  0  0
   -0.1981   20.2104  -30.7858 H   0  0  0  0  0  0  0  0  0  0  0  0
   -1.6333   20.7197  -31.7384 H   0  0  0  0  0  0  0  0  0  0  0  0
   -0.1498   21.7325  -31.7384 H   0  0  0  0  0  0  0  0  0  0  0  0
   -2.4069   21.7466  -29.8824 H   0  0  0  0  0  0  0  0  0  0  0  0
   -0.8687   21.4322  -29.0095 H   0  0  0  0  0  0  0  0  0  0  0  0
   -3.3052   23.3666  -28.8833 H   0  0  0  0  0  0  0  0  0  0  0  0
   -2.9018   24.7217  -27.7687 H   0  0  0  0  0  0  0  0  0  0  0  0
   -7.0202   23.9185  -31.1267 H   0  0  0  0  0  0  0  0  0  0  0  0
   -7.3505   21.8046  -32.4127 H   0  0  0  0  0  0  0  0  0  0  0  0
   -8.4370   17.4030  -32.8440 H   0  0  0  0  0  0  0  0  0  0  0  0
   -7.4290   18.4150  -33.9250 H   0  0  0  0  0  0  0  0  0  0  0  0
   -3.9407   15.7537  -32.7293 H   0  0  0  0  0  0  0  0  0  0  0  0
   -1.2305   16.1431  -33.5534 H   0  0  0  0  0  0  0  0  0  0  0  0
    0.3865   17.8932  -34.3500 H   0  0  0  0  0  0  0  0  0  0  0  0
   -1.1777   22.4599  -34.3823 H   0  0  0  0  0  0  0  0  0  0  0  0
    3.7630   21.6662  -35.5447 H   0  0  0  0  0  0  0  0  0  0  0  0
    1.6490   19.3823  -35.4034 H   0  0  0  0  0  0  0  0  0  0  0  0
   -2.7652   20.9003  -34.1372 H   0  0  0  0  0  0  0  0  0  0  0  0
   -3.0597   21.2360  -32.4827 H   0  0  0  0  0  0  0  0  0  0  0  0
  1  2  1  0
  2  3  1  0
  3  4  1  0
  4  5  2  0
  4  6  1  0
  6  7  1  0
  7  8  1  0
  8  9  2  0
  8 10  1  0
 10 11  2  0
 11 12  1  0
 12 13  2  0
 13 14  1  0
 14 15  2  0
 14 16  1  0
 16 17  1  0
 17 18  1  0
 18 19  1  0
 18 20  2  0
 17 21  2  0
 21 22  1  0
 22 23  2  0
 23 24  1  0
 24 25  2  0
 25 26  1  0
 26 27  1  0
 27 28  2  0
 28 29  1  0
 29 30  1  0
 30 31  1  0
 30 32  1  0
 29 33  1  0
 25 34  1  0
 34 35  2  0
 13 36  1  0
 36 37  2  0
 37 10  1  0
 35 16  1  0
 35 22  1  0
 33 26  2  0
  1 38  1  0
  1 39  1  0
  1 40  1  0
  2 41  1  0
  2 42  1  0
  6 43  1  0
  6 44  1  0
 11 45  1  0
 12 46  1  0
 19 47  1  0
 19 48  1  0
 21 49  1  0
 23 50  1  0
 24 51  1  0
 27 52  1  0
 30 53  1  0
 33 54  1  0
 34 55  1  0
 36 56  1  0
M  CHG  1   7  -1
M  END
>  <UniqueID>  (72) 
72

>  <SMILES>  (72) 
CCOC(=O)C[N-]C(=O)c1ccc(C(=O)n2c(C(N)=O)cc3ccc(-c4cnn(C(F)F)c4)cc32)cn1

>  <Energy>  (72) 
125.34435515709372

>  <Genealogy>  (72) 
CCOC(=O)C[N-]C(=O)c1ccc(C(=O)n2c(C(N)=O)cc3ccc(-c4cnn(C(F)F)c4)cc32)cn1 (protonated)
CCOC(=O)C[N-]C(=O)c1ccc(C(=O)n2c(C(N)=O)cc3ccc(-c4cnn(C(F)F)c4)cc32)cn1 (3D coordinates assigned)
CCOC(=O)C[N-]C(=O)c1ccc(C(=O)n2c(C(N)=O)cc3ccc(-c4cnn(C(F)F)c4)cc32)cn1 (optimized conformer: 125.34435515709372 kcal/mol)

>  <smiles>  (72) 
CCOC(=O)CNC(=O)c1ccc(C(=O)n2c(C(N)=O)cc3ccc(-c4cnn(C(F)F)c4)cc32)cn1

>  <score_type>  (72) 
oracle

>  <origin>  (72) 
adg

>  <m_score__min__energy>  (72) 
-11

>  <m_primary>  (72) 
energy

$$$$
72:0
     RDKit          3D

 37 39  0  0  0  0  0  0  0  0999 V2000
   -3.4160   21.8870  -30.1720 C   0  0  0  0  0  0  0  0  0  0  0  0
   -4.1280   23.0860  -30.7140 C   0  0  0  0  0  0  0  0  0  0  0  0
   -3.4840   24.1560  -30.8870 O   0  0  0  0  0  0  0  0  0  0  0  0
   -5.5240   23.0310  -31.0520 N   0  0  0  0  0  0  0  0  0  0  0  0
   -6.4840   23.9410  -30.7280 C   0  0  0  0  0  0  0  0  0  0  0  0
   -6.2510   25.2490  -30.0800 C   0  0  0  0  0  0  0  0  0  0  0  0
   -5.1600   26.0860  -30.4660 N   0  0  0  0  0  0  0  0  0  0  0  0
   -7.0580   25.6540  -29.2010 O   0  0  0  0  0  0  0  0  0  0  0  0
   -7.7430   23.4860  -31.1110 C   0  0  0  0  0  0  0  0  0  0  0  0
   -7.5240   22.2580  -31.6920 C   0  0  0  0  0  0  0  0  0  0  0  0
   -8.4300   21.3490  -32.2250 C   0  0  0  0  0  0  0  0  0  0  0  0
   -7.9320   20.1290  -32.7110 C   0  0  0  0  0  0  0  0  0  0  0  0
   -6.5450   19.8320  -32.6450 C   0  0  0  0  0  0  0  0  0  0  0  0
   -6.0300   18.5330  -33.1470 C   0  0  0  0  0  0  0  0  0  0  0  0
   -5.4650   18.4370  -34.4320 C   0  0  0  0  0  0  0  0  0  0  0  0
   -4.9800   17.2150  -34.9050 C   0  0  0  0  0  0  0  0  0  0  0  0
   -5.0480   16.0640  -34.1020 C   0  0  0  0  0  0  0  0  0  0  0  0
   -4.5410   14.7670  -34.5830 C   0  0  0  0  0  0  0  0  0  0  0  0
   -3.6230   14.7060  -35.4450 O   0  0  0  0  0  0  0  0  0  0  0  0
   -5.6090   16.1580  -32.8200 C   0  0  0  0  0  0  0  0  0  0  0  0
   -6.0960   17.3790  -32.3460 C   0  0  0  0  0  0  0  0  0  0  0  0
   -5.6570   20.7840  -32.0890 C   0  0  0  0  0  0  0  0  0  0  0  0
   -6.1780   22.0020  -31.6390 C   0  0  0  0  0  0  0  0  0  0  0  0
   -3.4333   21.9162  -29.0725 H   0  0  0  0  0  0  0  0  0  0  0  0
   -3.9178   20.9730  -30.5225 H   0  0  0  0  0  0  0  0  0  0  0  0
   -2.3733   21.8902  -30.5225 H   0  0  0  0  0  0  0  0  0  0  0  0
   -4.5880   25.8740  -31.3130 H   0  0  0  0  0  0  0  0  0  0  0  0
   -4.9830   26.9810  -29.9580 H   0  0  0  0  0  0  0  0  0  0  0  0
   -8.7070   23.9988  -30.9776 H   0  0  0  0  0  0  0  0  0  0  0  0
   -9.5051   21.5782  -32.2651 H   0  0  0  0  0  0  0  0  0  0  0  0
   -8.6247   19.3947  -33.1480 H   0  0  0  0  0  0  0  0  0  0  0  0
   -5.4046   19.3314  -35.0695 H   0  0  0  0  0  0  0  0  0  0  0  0
   -4.5422   17.1537  -35.9123 H   0  0  0  0  0  0  0  0  0  0  0  0
   -4.9705   13.8365  -34.1834 H   0  0  0  0  0  0  0  0  0  0  0  0
   -5.6661   15.2634  -32.1825 H   0  0  0  0  0  0  0  0  0  0  0  0
   -6.5343   17.4379  -31.3388 H   0  0  0  0  0  0  0  0  0  0  0  0
   -4.5806   20.5707  -32.0124 H   0  0  0  0  0  0  0  0  0  0  0  0
  1  2  1  0
  2  3  2  0
  2  4  1  0
  4  5  1  0
  5  6  1  0
  6  7  1  0
  6  8  2  0
  5  9  2  0
  9 10  1  0
 10 11  2  0
 11 12  1  0
 12 13  2  0
 13 14  1  0
 14 15  2  0
 15 16  1  0
 16 17  2  0
 17 18  1  0
 18 19  2  0
 17 20  1  0
 20 21  2  0
 13 22  1  0
 22 23  2  0
 23  4  1  0
 23 10  1  0
 21 14  1  0
  1 24  1  0
  1 25  1  0
  1 26  1  0
  7 27  1  0
  7 28  1  0
  9 29  1  0
 11 30  1  0
 12 31  1  0
 15 32  1  0
 16 33  1  0
 18 34  1  0
 20 35  1  0
 21 36  1  0
 22 37  1  0
M  END
>  <UniqueID>  (73) 
73

>  <SMILES>  (73) 
CC(=O)n1c(C(N)=O)cc2ccc(-c3ccc(C=O)cc3)cc21

>  <Energy>  (73) 
83.95503771366317

>  <Genealogy>  (73) 
CC(=O)n1c(C(N)=O)cc2ccc(-c3ccc(C=O)cc3)cc21 (3D coordinates assigned)
CC(=O)n1c(C(N)=O)cc2ccc(-c3ccc(C=O)cc3)cc21 (optimized conformer: 83.95503771366317 kcal/mol)

>  <smiles>  (73) 
CC(=O)n1c(C(N)=O)cc2ccc(-c3ccc(C=O)cc3)cc21

>  <score_type>  (73) 
oracle

>  <origin>  (73) 
adg

>  <m_score__min__energy>  (73) 
-9.2599999999999998

>  <m_primary>  (73) 
energy

$$$$
73:0
     RDKit          3D

 35 36  0  0  0  0  0  0  0  0999 V2000
   -7.2480   17.8150  -31.8130 C   0  0  0  0  0  0  0  0  0  0  0  0
   -7.9820   18.4640  -32.7210 C   0  0  0  0  0  0  0  0  0  0  0  0
   -9.2020   19.2550  -32.3380 C   0  0  0  0  0  0  0  0  0  0  0  0
   -9.0430   20.6170  -32.7250 O   0  0  0  0  0  0  0  0  0  0  0  0
   -9.0590   21.6790  -31.8140 C   0  0  0  0  0  0  0  0  0  0  0  0
   -9.8550   21.6780  -30.8360 O   0  0  0  0  0  0  0  0  0  0  0  0
   -8.0830   22.7970  -31.9770 C   0  0  0  0  0  0  0  0  0  0  0  0
   -6.7000   22.3170  -31.6360 C   0  0  0  0  0  0  0  0  0  0  0  0
   -6.3260   20.9770  -31.9070 C   0  0  0  0  0  0  0  0  0  0  0  0
   -5.0190   20.5330  -31.6470 C   0  0  0  0  0  0  0  0  0  0  0  0
   -4.1120   21.4470  -31.1200 C   0  0  0  0  0  0  0  0  0  0  0  0
   -2.7800   21.2930  -30.8160 C   0  0  0  0  0  0  0  0  0  0  0  0
   -2.3620   22.5360  -30.3490 C   0  0  0  0  0  0  0  0  0  0  0  0
   -0.9990   22.7980  -29.8490 C   0  0  0  0  0  0  0  0  0  0  0  0
   -0.5180   24.1310  -29.6760 N   0  0  0  0  0  0  0  0  0  0  0  0
   -0.2650   21.8300  -29.5150 O   0  0  0  0  0  0  0  0  0  0  0  0
   -3.3890   23.4310  -30.3750 N   0  0  0  0  0  0  0  0  0  0  0  0
   -3.3240   24.8390  -30.0930 C   0  0  0  0  0  0  0  0  0  0  0  0
   -3.9100   25.6690  -30.8380 O   0  0  0  0  0  0  0  0  0  0  0  0
   -2.6050   25.3020  -28.9960 O   0  0  0  0  0  0  0  0  0  0  0  0
   -4.4570   22.7470  -30.8470 C   0  0  0  0  0  0  0  0  0  0  0  0
   -5.7480   23.2220  -31.1150 C   0  0  0  0  0  0  0  0  0  0  0  0
   -6.3611   17.2455  -32.1278 H   0  0  0  0  0  0  0  0  0  0  0  0
   -7.5305   17.8501  -30.7505 H   0  0  0  0  0  0  0  0  0  0  0  0
   -7.6854   18.4184  -33.7793 H   0  0  0  0  0  0  0  0  0  0  0  0
  -10.0829   18.8333  -32.8442 H   0  0  0  0  0  0  0  0  0  0  0  0
   -9.3371   19.2036  -31.2475 H   0  0  0  0  0  0  0  0  0  0  0  0
   -8.1011   23.1490  -33.0190 H   0  0  0  0  0  0  0  0  0  0  0  0
   -8.3584   23.6217  -31.3032 H   0  0  0  0  0  0  0  0  0  0  0  0
   -7.0660   20.2784  -32.3247 H   0  0  0  0  0  0  0  0  0  0  0  0
   -4.7216   19.4943  -31.8537 H   0  0  0  0  0  0  0  0  0  0  0  0
   -2.1734   20.3812  -30.9198 H   0  0  0  0  0  0  0  0  0  0  0  0
    0.4610   24.2980  -29.3560 H   0  0  0  0  0  0  0  0  0  0  0  0
   -1.1540   24.9520  -29.7840 H   0  0  0  0  0  0  0  0  0  0  0  0
   -6.0134   24.2724  -30.9247 H   0  0  0  0  0  0  0  0  0  0  0  0
  1  2  2  0
  2  3  1  0
  3  4  1  0
  4  5  1  0
  5  6  2  0
  5  7  1  0
  7  8  1  0
  8  9  2  0
  9 10  1  0
 10 11  2  0
 11 12  1  0
 12 13  2  0
 13 14  1  0
 14 15  1  0
 14 16  2  0
 13 17  1  0
 17 18  1  0
 18 19  2  0
 18 20  1  0
 17 21  1  0
 21 22  2  0
 22  8  1  0
 21 11  1  0
  1 23  1  0
  1 24  1  0
  2 25  1  0
  3 26  1  0
  3 27  1  0
  7 28  1  0
  7 29  1  0
  9 30  1  0
 10 31  1  0
 12 32  1  0
 15 33  1  0
 15 34  1  0
 22 35  1  0
M  CHG  1  20  -1
M  END
>  <UniqueID>  (74) 
74

>  <SMILES>  (74) 
C=CCOC(=O)Cc1ccc2cc(C(N)=O)n(C(=O)[O-])c2c1

>  <Energy>  (74) 
69.38673639722025

>  <Genealogy>  (74) 
C=CCOC(=O)Cc1ccc2cc(C(N)=O)n(C(=O)[O-])c2c1 (protonated)
C=CCOC(=O)Cc1ccc2cc(C(N)=O)n(C(=O)[O-])c2c1 (3D coordinates assigned)
C=CCOC(=O)Cc1ccc2cc(C(N)=O)n(C(=O)[O-])c2c1 (optimized conformer: 69.38673639722025 kcal/mol)

>  <smiles>  (74) 
C=CCOC(=O)Cc1ccc2cc(C(N)=O)n(C(=O)O)c2c1

>  <score_type>  (74) 
oracle

>  <origin>  (74) 
adg

>  <m_score__min__energy>  (74) 
-9.0800000000000001

>  <m_primary>  (74) 
energy

$$$$
74:0
     RDKit          3D

 48 50  0  0  0  0  0  0  0  0999 V2000
   -6.4450   23.7520  -31.6430 C   0  0  0  0  0  0  0  0  0  0  0  0
   -6.1530   23.1090  -30.2910 C   0  0  0  0  0  0  0  0  0  0  0  0
   -5.0230   23.7250  -29.6770 O   0  0  0  0  0  0  0  0  0  0  0  0
   -3.8940   24.1490  -30.3860 C   0  0  0  0  0  0  0  0  0  0  0  0
   -3.8510   25.3090  -30.8810 O   0  0  0  0  0  0  0  0  0  0  0  0
   -2.7680   23.2690  -30.5250 N   0  0  0  0  0  0  0  0  0  0  0  0
   -1.5420   23.3750  -29.9380 C   0  0  0  0  0  0  0  0  0  0  0  0
   -1.0640   24.5140  -29.1260 C   0  0  0  0  0  0  0  0  0  0  0  0
   -1.8920   25.6630  -28.9600 N   0  0  0  0  0  0  0  0  0  0  0  0
    0.0540   24.4700  -28.5480 O   0  0  0  0  0  0  0  0  0  0  0  0
   -0.7440   22.2830  -30.2730 C   0  0  0  0  0  0  0  0  0  0  0  0
   -1.5200   21.5020  -31.0980 C   0  0  0  0  0  0  0  0  0  0  0  0
   -1.2320   20.2870  -31.7110 C   0  0  0  0  0  0  0  0  0  0  0  0
   -2.2380   19.6860  -32.4870 C   0  0  0  0  0  0  0  0  0  0  0  0
   -3.5020   20.3070  -32.6360 C   0  0  0  0  0  0  0  0  0  0  0  0
   -4.5870   19.6280  -33.4280 C   0  0  0  0  0  0  0  0  0  0  0  0
   -5.8540   20.4960  -33.4550 C   0  0  0  0  0  0  0  0  0  0  0  0
   -7.1460   19.6490  -33.4760 C   0  0  0  0  0  0  0  0  0  0  0  0
   -8.2420   20.3300  -32.6290 C   0  0  0  0  0  0  0  0  0  0  0  0
   -9.3100   19.3030  -32.2170 C   0  0  0  0  0  0  0  0  0  0  0  0
   -8.8230   18.2140  -31.4380 O   0  0  0  0  0  0  0  0  0  0  0  0
   -7.4280   17.9780  -31.5710 C   0  0  0  0  0  0  0  0  0  0  0  0
   -6.9070   18.1930  -33.0000 C   0  0  0  0  0  0  0  0  0  0  0  0
   -3.7620   21.5350  -31.9880 C   0  0  0  0  0  0  0  0  0  0  0  0
   -2.7360   22.1190  -31.2360 C   0  0  0  0  0  0  0  0  0  0  0  0
   -6.8953   24.7436  -31.4878 H   0  0  0  0  0  0  0  0  0  0  0  0
   -5.5074   23.8594  -32.2081 H   0  0  0  0  0  0  0  0  0  0  0  0
   -7.1429   23.1167  -32.2081 H   0  0  0  0  0  0  0  0  0  0  0  0
   -7.0295   23.2278  -29.6371 H   0  0  0  0  0  0  0  0  0  0  0  0
   -5.9356   22.0417  -30.4449 H   0  0  0  0  0  0  0  0  0  0  0  0
   -2.8700   25.6760  -29.3260 H   0  0  0  0  0  0  0  0  0  0  0  0
    0.2881   22.0869  -29.9468 H   0  0  0  0  0  0  0  0  0  0  0  0
   -0.2473   19.8113  -31.5921 H   0  0  0  0  0  0  0  0  0  0  0  0
   -2.0417   18.7242  -32.9833 H   0  0  0  0  0  0  0  0  0  0  0  0
   -4.2366   19.4663  -34.4581 H   0  0  0  0  0  0  0  0  0  0  0  0
   -4.8249   18.6644  -32.9537 H   0  0  0  0  0  0  0  0  0  0  0  0
   -5.8643   21.1344  -32.5593 H   0  0  0  0  0  0  0  0  0  0  0  0
   -5.8306   21.0962  -34.3766 H   0  0  0  0  0  0  0  0  0  0  0  0
   -7.4831   19.5885  -34.5213 H   0  0  0  0  0  0  0  0  0  0  0  0
   -7.7868   20.7629  -31.7260 H   0  0  0  0  0  0  0  0  0  0  0  0
   -8.7173   21.1218  -33.2267 H   0  0  0  0  0  0  0  0  0  0  0  0
  -10.0795   19.8262  -31.6303 H   0  0  0  0  0  0  0  0  0  0  0  0
   -9.6969   18.8675  -33.1501 H   0  0  0  0  0  0  0  0  0  0  0  0
   -6.8925   18.6635  -30.8977 H   0  0  0  0  0  0  0  0  0  0  0  0
   -7.2512   16.9227  -31.3160 H   0  0  0  0  0  0  0  0  0  0  0  0
   -5.8278   17.9815  -33.0231 H   0  0  0  0  0  0  0  0  0  0  0  0
   -7.4521   17.5148  -33.6730 H   0  0  0  0  0  0  0  0  0  0  0  0
   -4.7457   22.0200  -32.0722 H   0  0  0  0  0  0  0  0  0  0  0  0
  1  2  1  0
  2  3  1  0
  3  4  1  0
  4  5  2  0
  4  6  1  0
  6  7  1  0
  7  8  1  0
  8  9  1  0
  8 10  2  0
  7 11  2  0
 11 12  1  0
 12 13  2  0
 13 14  1  0
 14 15  2  0
 15 16  1  0
 16 17  1  0
 17 18  1  0
 18 19  1  0
 19 20  1  0
 20 21  1  0
 21 22  1  0
 22 23  1  0
 15 24  1  0
 24 25  2  0
 25  6  1  0
 25 12  1  0
 23 18  1  0
  1 26  1  0
  1 27  1  0
  1 28  1  0
  2 29  1  0
  2 30  1  0
  9 31  1  0
 11 32  1  0
 13 33  1  0
 14 34  1  0
 16 35  1  0
 16 36  1  0
 17 37  1  0
 17 38  1  0
 18 39  1  0
 19 40  1  0
 19 41  1  0
 20 42  1  0
 20 43  1  0
 22 44  1  0
 22 45  1  0
 23 46  1  0
 23 47  1  0
 24 48  1  0
M  CHG  1   9  -1
M  END
>  <UniqueID>  (75) 
75

>  <SMILES>  (75) 
CCOC(=O)n1c(C([NH-])=O)cc2ccc(CCC3CCOCC3)cc21

>  <Energy>  (75) 
90.50545310823624

>  <Genealogy>  (75) 
CCOC(=O)n1c(C([NH-])=O)cc2ccc(CCC3CCOCC3)cc21 (protonated)
CCOC(=O)n1c(C([NH-])=O)cc2ccc(CCC3CCOCC3)cc21 (3D coordinates assigned)
CCOC(=O)n1c(C([NH-])=O)cc2ccc(CCC3CCOCC3)cc21 (nonaromatic ring conformer: 90.50545310823624 kcal/mol)

>  <smiles>  (75) 
CCOC(=O)n1c(C(N)=O)cc2ccc(CCC3CCOCC3)cc21

>  <score_type>  (75) 
oracle

>  <origin>  (75) 
adg

>  <m_score__min__energy>  (75) 
-11.300000000000001

>  <m_primary>  (75) 
energy

$$$$
75:0
     RDKit          3D

 30 31  0  0  0  0  0  0  0  0999 V2000
   -4.2230   23.3430  -28.0380 C   0  0  0  0  0  0  0  0  0  0  0  0
   -4.8600   24.0130  -29.2620 C   0  0  1  0  0  0  0  0  0  0  0  0
   -3.8890   24.9270  -29.9620 C   0  0  0  0  0  0  0  0  0  0  0  0
   -4.1610   25.3710  -31.1080 O   0  0  0  0  0  0  0  0  0  0  0  0
   -2.6670   25.2460  -29.3800 O   0  0  0  0  0  0  0  0  0  0  0  0
   -5.4090   22.9800  -30.2240 C   0  0  0  0  0  0  0  0  0  0  0  0
   -6.8060   22.7370  -30.2770 C   0  0  0  0  0  0  0  0  0  0  0  0
   -7.3360   21.7690  -31.1460 C   0  0  0  0  0  0  0  0  0  0  0  0
   -6.4510   21.0640  -31.9560 C   0  0  0  0  0  0  0  0  0  0  0  0
   -6.6940   20.0540  -32.8560 C   0  0  0  0  0  0  0  0  0  0  0  0
   -5.4460   19.7080  -33.3660 C   0  0  0  0  0  0  0  0  0  0  0  0
   -5.2530   18.6910  -34.4190 C   0  0  0  0  0  0  0  0  0  0  0  0
   -4.0810   17.8770  -34.4550 N   0  0  0  0  0  0  0  0  0  0  0  0
   -6.1120   18.5790  -35.3340 O   0  0  0  0  0  0  0  0  0  0  0  0
   -4.4660   20.4650  -32.7960 N   0  0  0  0  0  0  0  0  0  0  0  0
   -3.0450   20.3320  -32.9730 C   0  0  0  0  0  0  0  0  0  0  0  0
   -2.4720   19.2410  -32.7150 O   0  0  0  0  0  0  0  0  0  0  0  0
   -2.2890   21.4040  -33.4290 O   0  0  0  0  0  0  0  0  0  0  0  0
   -5.1000   21.2940  -31.9360 C   0  0  0  0  0  0  0  0  0  0  0  0
   -4.5410   22.2360  -31.0630 C   0  0  0  0  0  0  0  0  0  0  0  0
   -4.6410   23.7826  -27.1204 H   0  0  0  0  0  0  0  0  0  0  0  0
   -4.4365   22.2641  -28.0579 H   0  0  0  0  0  0  0  0  0  0  0  0
   -3.1347   23.5018  -28.0579 H   0  0  0  0  0  0  0  0  0  0  0  0
   -5.6973   24.6275  -28.8995 H   0  0  0  0  0  0  0  0  0  0  0  0
   -7.4825   23.3140  -29.6294 H   0  0  0  0  0  0  0  0  0  0  0  0
   -8.4179   21.5742  -31.1850 H   0  0  0  0  0  0  0  0  0  0  0  0
   -7.6673   19.6131  -33.1175 H   0  0  0  0  0  0  0  0  0  0  0  0
   -3.2770   18.0610  -33.8160 H   0  0  0  0  0  0  0  0  0  0  0  0
   -3.9790   17.1370  -35.1850 H   0  0  0  0  0  0  0  0  0  0  0  0
   -3.4531   22.3951  -31.0290 H   0  0  0  0  0  0  0  0  0  0  0  0
  1  2  1  0
  2  3  1  0
  3  4  2  0
  3  5  1  0
  2  6  1  0
  6  7  2  0
  7  8  1  0
  8  9  2  0
  9 10  1  0
 10 11  2  0
 11 12  1  0
 12 13  1  0
 12 14  2  0
 11 15  1  0
 15 16  1  0
 16 17  2  0
 16 18  1  0
 15 19  1  0
 19 20  2  0
 20  6  1  0
 19  9  1  0
  1 21  1  0
  1 22  1  0
  1 23  1  0
  2 24  1  1
  7 25  1  0
  8 26  1  0
 10 27  1  0
 13 28  1  0
 13 29  1  0
 20 30  1  0
M  CHG  2   5  -1  18  -1
M  END
>  <UniqueID>  (76) 
76

>  <SMILES>  (76) 
C[C@@H](C(=O)[O-])c1ccc2cc(C(N)=O)n(C(=O)[O-])c2c1

>  <Energy>  (76) 
69.01628164307864

>  <Genealogy>  (76) 
CC(C(=O)[O-])c1ccc2cc(C(N)=O)n(C(=O)[O-])c2c1 (protonated)
C[C@@H](C(=O)[O-])c1ccc2cc(C(N)=O)n(C(=O)[O-])c2c1 (chirality)
C[C@@H](C(=O)[O-])c1ccc2cc(C(N)=O)n(C(=O)[O-])c2c1 (3D coordinates assigned)
C[C@@H](C(=O)[O-])c1ccc2cc(C(N)=O)n(C(=O)[O-])c2c1 (optimized conformer: 69.01628164307864 kcal/mol)

>  <smiles>  (76) 
CC(C(=O)O)c1ccc2cc(C(N)=O)n(C(=O)O)c2c1

>  <score_type>  (76) 
oracle

>  <origin>  (76) 
adg

>  <m_score__min__energy>  (76) 
-9.1600000000000001

>  <m_primary>  (76) 
energy

$$$$
76:0
     RDKit          3D

 58 61  0  0  0  0  0  0  0  0999 V2000
   -4.1460   22.6630  -27.9400 C   0  0  0  0  0  0  0  0  0  0  0  0
   -2.9500   23.4070  -28.4370 C   0  0  0  0  0  0  0  0  0  0  0  0
   -2.5560   24.5760  -27.9890 O   0  0  0  0  0  0  0  0  0  0  0  0
   -1.4820   24.8810  -28.6810 C   0  0  0  0  0  0  0  0  0  0  0  0
   -0.8270   25.9430  -28.5210 O   0  0  0  0  0  0  0  0  0  0  0  0
   -1.1650   23.9550  -29.5580 O   0  0  0  0  0  0  0  0  0  0  0  0
   -2.0660   23.0110  -29.4250 C   0  0  0  0  0  0  0  0  0  0  0  0
   -2.1170   21.7580  -30.2460 C   0  0  0  0  0  0  0  0  0  0  0  0
   -3.4560   21.4760  -30.6430 O   0  0  0  0  0  0  0  0  0  0  0  0
   -4.1430   22.2250  -31.6040 C   0  0  0  0  0  0  0  0  0  0  0  0
   -3.6160   22.4650  -32.7230 O   0  0  0  0  0  0  0  0  0  0  0  0
   -5.4650   22.7060  -31.3190 N   0  0  0  0  0  0  0  0  0  0  0  0
   -5.8400   23.9680  -30.9660 C   0  0  0  0  0  0  0  0  0  0  0  0
   -4.9290   25.0810  -30.6270 C   0  0  0  0  0  0  0  0  0  0  0  0
   -3.5210   24.9640  -30.8240 N   0  0  0  0  0  0  0  0  0  0  0  0
   -5.3940   26.1340  -30.1120 O   0  0  0  0  0  0  0  0  0  0  0  0
   -7.2280   24.0580  -30.8820 C   0  0  0  0  0  0  0  0  0  0  0  0
   -7.6960   22.8000  -31.1880 C   0  0  0  0  0  0  0  0  0  0  0  0
   -9.0000   22.3240  -31.2690 C   0  0  0  0  0  0  0  0  0  0  0  0
   -9.1900   20.9840  -31.6450 C   0  0  0  0  0  0  0  0  0  0  0  0
   -8.0810   20.1520  -31.9480 C   0  0  0  0  0  0  0  0  0  0  0  0
   -8.3000   18.7190  -32.3680 C   0  0  0  0  0  0  0  0  0  0  0  0
   -7.1360   17.7730  -31.9880 C   0  0  0  0  0  0  0  0  0  0  0  0
   -6.3570   17.2830  -33.1570 N   0  0  0  0  0  0  0  0  0  0  0  0
   -6.1210   18.3660  -34.1530 C   0  0  0  0  0  0  0  0  0  0  0  0
   -4.8300   18.1500  -34.9610 C   0  0  0  0  0  0  0  0  0  0  0  0
   -3.6290   18.1030  -34.0930 N   0  0  0  0  0  0  0  0  0  0  0  0
   -2.9450   19.4050  -34.0520 C   0  0  0  0  0  0  0  0  0  0  0  0
   -3.9130   17.6220  -32.7210 C   0  0  0  0  0  0  0  0  0  0  0  0
   -5.0910   16.6390  -32.7070 C   0  0  0  0  0  0  0  0  0  0  0  0
   -6.7690   20.6670  -31.8280 C   0  0  0  0  0  0  0  0  0  0  0  0
   -6.6110   22.0020  -31.4440 C   0  0  0  0  0  0  0  0  0  0  0  0
   -4.1466   22.6626  -26.8400 H   0  0  0  0  0  0  0  0  0  0  0  0
   -5.0605   23.1518  -28.3070 H   0  0  0  0  0  0  0  0  0  0  0  0
   -4.1117   21.6266  -28.3070 H   0  0  0  0  0  0  0  0  0  0  0  0
   -1.4931   21.8871  -31.1427 H   0  0  0  0  0  0  0  0  0  0  0  0
   -1.7415   20.9201  -29.6403 H   0  0  0  0  0  0  0  0  0  0  0  0
   -2.8460   25.3020  -30.1050 H   0  0  0  0  0  0  0  0  0  0  0  0
   -7.8238   24.9464  -30.6254 H   0  0  0  0  0  0  0  0  0  0  0  0
   -9.8566   22.9769  -31.0455 H   0  0  0  0  0  0  0  0  0  0  0  0
  -10.2094   20.5751  -31.7052 H   0  0  0  0  0  0  0  0  0  0  0  0
   -9.2173   18.3520  -31.8845 H   0  0  0  0  0  0  0  0  0  0  0  0
   -8.3723   18.7139  -33.4656 H   0  0  0  0  0  0  0  0  0  0  0  0
   -6.4526   18.3152  -31.3180 H   0  0  0  0  0  0  0  0  0  0  0  0
   -7.5832   16.8905  -31.5072 H   0  0  0  0  0  0  0  0  0  0  0  0
   -6.9240   16.5350  -33.6250 H   0  0  0  0  0  0  0  0  0  0  0  0
   -6.9721   18.3971  -34.8491 H   0  0  0  0  0  0  0  0  0  0  0  0
   -6.0163   19.3117  -33.6010 H   0  0  0  0  0  0  0  0  0  0  0  0
   -4.9093   17.1991  -35.5084 H   0  0  0  0  0  0  0  0  0  0  0  0
   -4.7162   18.9996  -35.6503 H   0  0  0  0  0  0  0  0  0  0  0  0
   -2.7880   19.7039  -33.0051 H   0  0  0  0  0  0  0  0  0  0  0  0
   -1.9727   19.3246  -34.5601 H   0  0  0  0  0  0  0  0  0  0  0  0
   -3.5629   20.1600  -34.5601 H   0  0  0  0  0  0  0  0  0  0  0  0
   -3.0195   17.1160  -32.3267 H   0  0  0  0  0  0  0  0  0  0  0  0
   -4.1769   18.4887  -32.0971 H   0  0  0  0  0  0  0  0  0  0  0  0
   -4.8611   15.7987  -33.3786 H   0  0  0  0  0  0  0  0  0  0  0  0
   -5.2336   16.2923  -31.6729 H   0  0  0  0  0  0  0  0  0  0  0  0
   -5.8940   20.0323  -32.0319 H   0  0  0  0  0  0  0  0  0  0  0  0
  1  2  1  0
  2  3  1  0
  3  4  1  0
  4  5  2  0
  4  6  1  0
  6  7  1  0
  7  8  1  0
  8  9  1  0
  9 10  1  0
 10 11  2  0
 10 12  1  0
 12 13  1  0
 13 14  1  0
 14 15  1  0
 14 16  2  0
 13 17  2  0
 17 18  1  0
 18 19  2  0
 19 20  1  0
 20 21  2  0
 21 22  1  0
 22 23  1  0
 23 24  1  0
 24 25  1  0
 25 26  1  0
 26 27  1  0
 27 28  1  0
 27 29  1  0
 29 30  1  0
 21 31  1  0
 31 32  2  0
  7  2  2  0
 32 12  1  0
 32 18  1  0
 30 24  1  0
  1 33  1  0
  1 34  1  0
  1 35  1  0
  8 36  1  0
  8 37  1  0
 15 38  1  0
 17 39  1  0
 19 40  1  0
 20 41  1  0
 22 42  1  0
 22 43  1  0
 23 44  1  0
 23 45  1  0
 24 46  1  0
 25 47  1  0
 25 48  1  0
 26 49  1  0
 26 50  1  0
 28 51  1  0
 28 52  1  0
 28 53  1  0
 29 54  1  0
 29 55  1  0
 30 56  1  0
 30 57  1  0
 31 58  1  0
M  CHG  2  15  -1  24   1
M  END
>  <UniqueID>  (77) 
77

>  <SMILES>  (77) 
Cc1oc(=O)oc1COC(=O)n1c(C([NH-])=O)cc2ccc(CC[NH+]3CCN(C)CC3)cc21

>  <Energy>  (77) 
142.56297337960964

>  <Genealogy>  (77) 
Cc1oc(=O)oc1COC(=O)n1c(C([NH-])=O)cc2ccc(CC[NH+]3CCN(C)CC3)cc21 (protonated)
Cc1oc(=O)oc1COC(=O)n1c(C([NH-])=O)cc2ccc(CC[NH+]3CCN(C)CC3)cc21 (3D coordinates assigned)
Cc1oc(=O)oc1COC(=O)n1c(C([NH-])=O)cc2ccc(CC[NH+]3CCN(C)CC3)cc21 (nonaromatic ring conformer: 142.56297337960964 kcal/mol)

>  <smiles>  (77) 
Cc1oc(=O)oc1COC(=O)n1c(C(N)=O)cc2ccc(CCN3CCN(C)CC3)cc21

>  <score_type>  (77) 
oracle

>  <origin>  (77) 
adg

>  <m_score__min__energy>  (77) 
-11.199999999999999

>  <m_primary>  (77) 
energy

$$$$
77:0
     RDKit          3D

 49 52  0  0  0  0  0  0  0  0999 V2000
   -5.1740   26.0900  -30.4810 N   0  0  0  0  0  0  0  0  0  0  0  0
   -6.2260   25.2650  -29.9720 C   0  0  0  0  0  0  0  0  0  0  0  0
   -6.9040   25.6750  -28.9940 O   0  0  0  0  0  0  0  0  0  0  0  0
   -6.4890   23.9280  -30.5470 C   0  0  0  0  0  0  0  0  0  0  0  0
   -7.7640   23.4430  -30.8410 C   0  0  0  0  0  0  0  0  0  0  0  0
   -7.5600   22.2300  -31.4560 C   0  0  0  0  0  0  0  0  0  0  0  0
   -8.4810   21.3050  -31.9280 C   0  0  0  0  0  0  0  0  0  0  0  0
   -7.9930   20.1210  -32.5050 C   0  0  0  0  0  0  0  0  0  0  0  0
   -6.5940   19.8820  -32.6190 C   0  0  0  0  0  0  0  0  0  0  0  0
   -6.0980   18.6780  -33.2600 N   0  0  0  0  0  0  0  0  0  0  0  0
   -5.7510   18.6780  -34.6920 C   0  0  0  0  0  0  0  0  0  0  0  0
   -4.9860   17.4020  -35.0750 C   0  0  0  0  0  0  0  0  0  0  0  0
   -4.0030   17.0620  -34.0390 N   0  0  0  0  0  0  0  0  0  0  0  0
   -4.6230   16.7680  -32.7290 C   0  0  0  0  0  0  0  0  0  0  0  0
   -6.0180   17.3970  -32.5420 C   0  0  0  0  0  0  0  0  0  0  0  0
   -5.6940   20.8400  -32.0880 C   0  0  0  0  0  0  0  0  0  0  0  0
   -6.2070   22.0120  -31.5210 C   0  0  0  0  0  0  0  0  0  0  0  0
   -5.5370   23.0450  -30.9640 N   0  0  0  0  0  0  0  0  0  0  0  0
   -4.1180   23.1320  -30.7360 C   0  0  0  0  0  0  0  0  0  0  0  0
   -3.5270   24.2430  -30.8470 O   0  0  0  0  0  0  0  0  0  0  0  0
   -3.3840   21.9620  -30.4960 O   0  0  0  0  0  0  0  0  0  0  0  0
   -2.7610   21.1770  -31.4780 C   0  0  0  0  0  0  0  0  0  0  0  0
   -2.8820   21.5660  -32.8160 C   0  0  0  0  0  0  0  0  0  0  0  0
   -2.2790   20.8170  -33.8320 C   0  0  0  0  0  0  0  0  0  0  0  0
   -1.5530   19.6540  -33.5250 C   0  0  0  0  0  0  0  0  0  0  0  0
   -0.9300   18.8850  -34.5730 N   0  0  0  0  0  0  0  0  0  0  0  0
   -1.4060   17.7850  -34.9250 O   0  0  0  0  0  0  0  0  0  0  0  0
    0.1800   19.3680  -35.2260 O   0  0  0  0  0  0  0  0  0  0  0  0
   -1.4510   19.2510  -32.1810 C   0  0  0  0  0  0  0  0  0  0  0  0
   -2.0560   20.0020  -31.1660 C   0  0  0  0  0  0  0  0  0  0  0  0
   -4.9750   27.0130  -30.0360 H   0  0  0  0  0  0  0  0  0  0  0  0
   -4.6230   25.8100  -31.3230 H   0  0  0  0  0  0  0  0  0  0  0  0
   -8.7277   23.9280  -30.6264 H   0  0  0  0  0  0  0  0  0  0  0  0
   -9.5620   21.4938  -31.8524 H   0  0  0  0  0  0  0  0  0  0  0  0
   -8.7029   19.3664  -32.8747 H   0  0  0  0  0  0  0  0  0  0  0  0
   -6.6753   18.7348  -35.2857 H   0  0  0  0  0  0  0  0  0  0  0  0
   -5.1070   19.5462  -34.8957 H   0  0  0  0  0  0  0  0  0  0  0  0
   -5.6989   16.5714  -35.1842 H   0  0  0  0  0  0  0  0  0  0  0  0
   -4.4575   17.5751  -36.0241 H   0  0  0  0  0  0  0  0  0  0  0  0
   -3.3460   17.8730  -33.9320 H   0  0  0  0  0  0  0  0  0  0  0  0
   -4.7190   15.6768  -32.6285 H   0  0  0  0  0  0  0  0  0  0  0  0
   -3.9695   17.2074  -31.9610 H   0  0  0  0  0  0  0  0  0  0  0  0
   -6.7818   16.7109  -32.9368 H   0  0  0  0  0  0  0  0  0  0  0  0
   -6.1908   17.5749  -31.4703 H   0  0  0  0  0  0  0  0  0  0  0  0
   -4.6086   20.6647  -32.1212 H   0  0  0  0  0  0  0  0  0  0  0  0
   -3.4563   22.4687  -33.0716 H   0  0  0  0  0  0  0  0  0  0  0  0
   -2.3739   21.1410  -34.8789 H   0  0  0  0  0  0  0  0  0  0  0  0
   -0.8917   18.3389  -31.9256 H   0  0  0  0  0  0  0  0  0  0  0  0
   -1.9792   19.6709  -30.1198 H   0  0  0  0  0  0  0  0  0  0  0  0
  1  2  1  0
  2  3  2  0
  2  4  1  0
  4  5  2  0
  5  6  1  0
  6  7  2  0
  7  8  1  0
  8  9  2  0
  9 10  1  0
 10 11  1  0
 11 12  1  0
 12 13  1  0
 13 14  1  0
 14 15  1  0
  9 16  1  0
 16 17  2  0
 17 18  1  0
 18 19  1  0
 19 20  2  0
 19 21  1  0
 21 22  1  0
 22 23  2  0
 23 24  1  0
 24 25  2  0
 25 26  1  0
 26 27  2  0
 26 28  1  0
 25 29  1  0
 29 30  2  0
 18  4  1  0
 30 22  1  0
 17  6  1  0
 15 10  1  0
  1 31  1  0
  1 32  1  0
  5 33  1  0
  7 34  1  0
  8 35  1  0
 11 36  1  0
 11 37  1  0
 12 38  1  0
 12 39  1  0
 13 40  1  0
 14 41  1  0
 14 42  1  0
 15 43  1  0
 15 44  1  0
 16 45  1  0
 23 46  1  0
 24 47  1  0
 29 48  1  0
 30 49  1  0
M  CHG  2  26   1  28  -1
M  END
>  <UniqueID>  (78) 
78

>  <SMILES>  (78) 
NC(=O)c1cc2ccc(N3CCNCC3)cc2n1C(=O)Oc1ccc([N+](=O)[O-])cc1

>  <Energy>  (78) 
106.20698955579233

>  <Genealogy>  (78) 
NC(=O)c1cc2ccc(N3CCNCC3)cc2n1C(=O)Oc1ccc([N+](=O)[O-])cc1 (3D coordinates assigned)
NC(=O)c1cc2ccc(N3CCNCC3)cc2n1C(=O)Oc1ccc([N+](=O)[O-])cc1 (nonaromatic ring conformer: 106.20698955579233 kcal/mol)

>  <smiles>  (78) 
NC(=O)c1cc2ccc(N3CCNCC3)cc2n1C(=O)Oc1ccc([N+](=O)[O-])cc1

>  <score_type>  (78) 
oracle

>  <origin>  (78) 
adg

>  <m_score__min__energy>  (78) 
-9.9100000000000001

>  <m_primary>  (78) 
energy

$$$$
78:0
     RDKit          3D

 25 26  0  0  0  0  0  0  0  0999 V2000
   -7.2770   18.4040  -32.7510 C   0  0  0  0  0  0  0  0  0  0  0  0
   -7.4160   19.8170  -32.2670 C   0  0  0  0  0  0  0  0  0  0  0  0
   -8.6820   20.4510  -32.2880 C   0  0  0  0  0  0  0  0  0  0  0  0
   -8.8190   21.7880  -31.8840 C   0  0  0  0  0  0  0  0  0  0  0  0
   -7.6740   22.4650  -31.4680 C   0  0  0  0  0  0  0  0  0  0  0  0
   -7.5230   23.7710  -31.0640 C   0  0  0  0  0  0  0  0  0  0  0  0
   -6.1670   23.9140  -30.7890 C   0  0  0  0  0  0  0  0  0  0  0  0
   -5.5690   25.1680  -30.2910 C   0  0  0  0  0  0  0  0  0  0  0  0
   -4.2540   25.5680  -30.6790 N   0  0  0  0  0  0  0  0  0  0  0  0
   -6.2090   25.8740  -29.4650 O   0  0  0  0  0  0  0  0  0  0  0  0
   -5.4980   22.7510  -31.0260 N   0  0  0  0  0  0  0  0  0  0  0  0
   -4.0740   22.5620  -30.9670 C   0  0  0  0  0  0  0  0  0  0  0  0
   -3.2850   23.3590  -31.5400 O   0  0  0  0  0  0  0  0  0  0  0  0
   -6.4380   21.8670  -31.4420 C   0  0  0  0  0  0  0  0  0  0  0  0
   -6.2730   20.5390  -31.8580 C   0  0  0  0  0  0  0  0  0  0  0  0
   -7.2103   17.7256  -31.8877 H   0  0  0  0  0  0  0  0  0  0  0  0
   -8.1532   18.1372  -33.3601 H   0  0  0  0  0  0  0  0  0  0  0  0
   -6.3656   18.3130  -33.3601 H   0  0  0  0  0  0  0  0  0  0  0  0
   -9.5666   19.8902  -32.6242 H   0  0  0  0  0  0  0  0  0  0  0  0
   -9.7997   22.2862  -31.8953 H   0  0  0  0  0  0  0  0  0  0  0  0
   -8.3066   24.5380  -30.9770 H   0  0  0  0  0  0  0  0  0  0  0  0
   -3.6300   24.9210  -31.2110 H   0  0  0  0  0  0  0  0  0  0  0  0
   -3.8660   26.4800  -30.3520 H   0  0  0  0  0  0  0  0  0  0  0  0
   -3.6659   21.7051  -30.4109 H   0  0  0  0  0  0  0  0  0  0  0  0
   -5.2778   20.0704  -31.8658 H   0  0  0  0  0  0  0  0  0  0  0  0
  1  2  1  0
  2  3  2  0
  3  4  1  0
  4  5  2  0
  5  6  1  0
  6  7  2  0
  7  8  1  0
  8  9  1  0
  8 10  2  0
  7 11  1  0
 11 12  1  0
 12 13  2  0
 11 14  1  0
 14 15  2  0
 15  2  1  0
 14  5  1  0
  1 16  1  0
  1 17  1  0
  1 18  1  0
  3 19  1  0
  4 20  1  0
  6 21  1  0
  9 22  1  0
  9 23  1  0
 12 24  1  0
 15 25  1  0
M  END
>  <UniqueID>  (79) 
79

>  <SMILES>  (79) 
Cc1ccc2cc(C(N)=O)n(C=O)c2c1

>  <Energy>  (79) 
63.289637363577825

>  <Genealogy>  (79) 
Cc1ccc2cc(C(N)=O)n(C=O)c2c1 (3D coordinates assigned)
Cc1ccc2cc(C(N)=O)n(C=O)c2c1 (optimized conformer: 63.289637363577825 kcal/mol)

>  <smiles>  (79) 
Cc1ccc2cc(C(N)=O)n(C=O)c2c1

>  <score_type>  (79) 
oracle

>  <origin>  (79) 
adg

>  <m_score__min__energy>  (79) 
-7.2400000000000002

>  <m_primary>  (79) 
energy

$$$$
79:0
     RDKit          3D

 44 46  0  0  0  0  0  0  0  0999 V2000
   -3.6880   25.2610  -30.4580 N   0  0  0  0  0  0  0  0  0  0  0  0
   -5.0900   25.2880  -30.7120 C   0  0  0  0  0  0  0  0  0  0  0  0
   -5.6810   26.3980  -30.7880 O   0  0  0  0  0  0  0  0  0  0  0  0
   -5.8490   24.0390  -30.9310 C   0  0  0  0  0  0  0  0  0  0  0  0
   -7.1800   23.8710  -30.5520 C   0  0  0  0  0  0  0  0  0  0  0  0
   -7.5270   22.6100  -30.9830 C   0  0  0  0  0  0  0  0  0  0  0  0
   -8.7290   21.9210  -30.8620 C   0  0  0  0  0  0  0  0  0  0  0  0
   -8.7930   20.6140  -31.3710 C   0  0  0  0  0  0  0  0  0  0  0  0
   -7.6540   20.0100  -31.9640 C   0  0  0  0  0  0  0  0  0  0  0  0
   -7.7330   18.6010  -32.5040 C   0  0  0  0  0  0  0  0  0  0  0  0
   -6.7150   17.6390  -31.8530 C   0  0  0  0  0  0  0  0  0  0  0  0
   -6.0040   16.8020  -32.8500 N   0  0  0  0  0  0  0  0  0  0  0  0
   -6.4560   17.0720  -34.2450 C   0  0  0  0  0  0  0  0  0  0  0  0
   -5.4610   17.8960  -35.0900 C   0  0  0  0  0  0  0  0  0  0  0  0
   -4.7070   18.9110  -34.2330 C   0  0  0  0  0  0  0  0  0  0  0  0
   -3.9460   18.2270  -33.0830 C   0  0  0  0  0  0  0  0  0  0  0  0
   -4.5320   16.8470  -32.7260 C   0  0  0  0  0  0  0  0  0  0  0  0
   -6.4580   20.7530  -32.0910 C   0  0  0  0  0  0  0  0  0  0  0  0
   -6.4300   22.0600  -31.5920 C   0  0  0  0  0  0  0  0  0  0  0  0
   -5.3920   22.9250  -31.5700 N   0  0  0  0  0  0  0  0  0  0  0  0
   -4.0620   22.6660  -32.0440 C   0  0  0  0  0  0  0  0  0  0  0  0
   -3.8400   22.2950  -33.4040 N   0  0  0  0  0  0  0  0  0  0  0  0
   -3.0840   22.7600  -31.2560 O   0  0  0  0  0  0  0  0  0  0  0  0
   -3.0170   24.9240  -31.1840 H   0  0  0  0  0  0  0  0  0  0  0  0
   -7.8180   24.5929  -30.0211 H   0  0  0  0  0  0  0  0  0  0  0  0
   -9.6029   22.3858  -30.3822 H   0  0  0  0  0  0  0  0  0  0  0  0
   -9.7366   20.0520  -31.3094 H   0  0  0  0  0  0  0  0  0  0  0  0
   -8.7460   18.2133  -32.3210 H   0  0  0  0  0  0  0  0  0  0  0  0
   -7.4951   18.6496  -33.5769 H   0  0  0  0  0  0  0  0  0  0  0  0
   -5.9735   18.2330  -31.2986 H   0  0  0  0  0  0  0  0  0  0  0  0
   -7.2728   16.9636  -31.1877 H   0  0  0  0  0  0  0  0  0  0  0  0
   -6.6168   16.1067  -34.7473 H   0  0  0  0  0  0  0  0  0  0  0  0
   -7.3739   17.6731  -34.1666 H   0  0  0  0  0  0  0  0  0  0  0  0
   -4.7359   17.2126  -35.5560 H   0  0  0  0  0  0  0  0  0  0  0  0
   -6.0293   18.4445  -35.8557 H   0  0  0  0  0  0  0  0  0  0  0  0
   -3.9871   19.4490  -34.8673 H   0  0  0  0  0  0  0  0  0  0  0  0
   -5.4403   19.6046  -33.7959 H   0  0  0  0  0  0  0  0  0  0  0  0
   -2.8957   18.0973  -33.3830 H   0  0  0  0  0  0  0  0  0  0  0  0
   -4.0365   18.8686  -32.1941 H   0  0  0  0  0  0  0  0  0  0  0  0
   -4.0989   16.0953  -33.4023 H   0  0  0  0  0  0  0  0  0  0  0  0
   -4.2811   16.6418  -31.6748 H   0  0  0  0  0  0  0  0  0  0  0  0
   -5.5706   20.3142  -32.5706 H   0  0  0  0  0  0  0  0  0  0  0  0
   -2.8750   22.0770  -33.7400 H   0  0  0  0  0  0  0  0  0  0  0  0
   -4.6300   22.2750  -34.0850 H   0  0  0  0  0  0  0  0  0  0  0  0
  1  2  1  0
  2  3  2  0
  2  4  1  0
  4  5  2  0
  5  6  1  0
  6  7  2  0
  7  8  1  0
  8  9  2  0
  9 10  1  0
 10 11  1  0
 11 12  1  0
 12 13  1  0
 13 14  1  0
 14 15  1  0
 15 16  1  0
 16 17  1  0
  9 18  1  0
 18 19  2  0
 19 20  1  0
 20 21  1  0
 21 22  1  0
 21 23  2  0
 20  4  1  0
 19  6  1  0
 17 12  1  0
  1 24  1  0
  5 25  1  0
  7 26  1  0
  8 27  1  0
 10 28  1  0
 10 29  1  0
 11 30  1  0
 11 31  1  0
 13 32  1  0
 13 33  1  0
 14 34  1  0
 14 35  1  0
 15 36  1  0
 15 37  1  0
 16 38  1  0
 16 39  1  0
 17 40  1  0
 17 41  1  0
 18 42  1  0
 22 43  1  0
 22 44  1  0
M  CHG  1   1  -1
M  END
>  <UniqueID>  (80) 
80

>  <SMILES>  (80) 
[NH-]C(=O)c1cc2ccc(CCN3CCCCC3)cc2n1C(N)=O

>  <Energy>  (80) 
92.83408308499995

>  <Genealogy>  (80) 
[NH-]C(=O)c1cc2ccc(CCN3CCCCC3)cc2n1C(N)=O (protonated)
[NH-]C(=O)c1cc2ccc(CCN3CCCCC3)cc2n1C(N)=O (3D coordinates assigned)
[NH-]C(=O)c1cc2ccc(CCN3CCCCC3)cc2n1C(N)=O (nonaromatic ring conformer: 92.83408308499995 kcal/mol)

>  <smiles>  (80) 
NC(=O)c1cc2ccc(CCN3CCCCC3)cc2n1C(N)=O

>  <score_type>  (80) 
oracle

>  <origin>  (80) 
adg

>  <m_score__min__energy>  (80) 
-11.76

>  <m_primary>  (80) 
energy

$$$$
80:0
     RDKit          3D

 28 29  0  0  0  0  0  0  0  0999 V2000
   -5.0980   18.2420  -34.3600 C   0  0  0  0  0  0  0  0  0  0  0  0
   -4.2780   19.1980  -33.5010 C   0  0  0  0  0  0  0  0  0  0  0  0
   -5.1490   20.2880  -32.9360 C   0  0  0  0  0  0  0  0  0  0  0  0
   -6.5560   20.2170  -33.0800 C   0  0  0  0  0  0  0  0  0  0  0  0
   -7.3820   21.2180  -32.5420 C   0  0  0  0  0  0  0  0  0  0  0  0
   -6.7740   22.2620  -31.8500 C   0  0  0  0  0  0  0  0  0  0  0  0
   -7.3330   23.3700  -31.2570 C   0  0  0  0  0  0  0  0  0  0  0  0
   -6.2620   24.0790  -30.7220 C   0  0  0  0  0  0  0  0  0  0  0  0
   -6.4220   25.3170  -29.9330 C   0  0  0  0  0  0  0  0  0  0  0  0
   -5.6260   26.4720  -30.2000 N   0  0  0  0  0  0  0  0  0  0  0  0
   -7.2330   25.3360  -28.9690 O   0  0  0  0  0  0  0  0  0  0  0  0
   -5.0840   23.4460  -30.9830 N   0  0  0  0  0  0  0  0  0  0  0  0
   -3.7570   23.9250  -30.7030 C   0  0  0  0  0  0  0  0  0  0  0  0
   -2.8190   23.1160  -30.4770 O   0  0  0  0  0  0  0  0  0  0  0  0
   -3.4930   25.2900  -30.6850 O   0  0  0  0  0  0  0  0  0  0  0  0
   -5.4150   22.3300  -31.6750 C   0  0  0  0  0  0  0  0  0  0  0  0
   -4.5680   21.3580  -32.2190 C   0  0  0  0  0  0  0  0  0  0  0  0
   -5.6757   17.5685  -33.7098 H   0  0  0  0  0  0  0  0  0  0  0  0
   -5.7867   18.8186  -34.9950 H   0  0  0  0  0  0  0  0  0  0  0  0
   -4.4233   17.6491  -34.9950 H   0  0  0  0  0  0  0  0  0  0  0  0
   -3.8198   18.6367  -32.6733 H   0  0  0  0  0  0  0  0  0  0  0  0
   -3.4999   19.6573  -34.1283 H   0  0  0  0  0  0  0  0  0  0  0  0
   -7.0065   19.3700  -33.6182 H   0  0  0  0  0  0  0  0  0  0  0  0
   -8.4745   21.1782  -32.6636 H   0  0  0  0  0  0  0  0  0  0  0  0
   -8.3989   23.6383  -31.2147 H   0  0  0  0  0  0  0  0  0  0  0  0
   -5.7760   27.3500  -29.6550 H   0  0  0  0  0  0  0  0  0  0  0  0
   -4.8340   26.4340  -30.8790 H   0  0  0  0  0  0  0  0  0  0  0  0
   -3.4775   21.4252  -32.0917 H   0  0  0  0  0  0  0  0  0  0  0  0
  1  2  1  0
  2  3  1  0
  3  4  2  0
  4  5  1  0
  5  6  2  0
  6  7  1  0
  7  8  2  0
  8  9  1  0
  9 10  1  0
  9 11  2  0
  8 12  1  0
 12 13  1  0
 13 14  2  0
 13 15  1  0
 12 16  1  0
 16 17  2  0
 17  3  1  0
 16  6  1  0
  1 18  1  0
  1 19  1  0
  1 20  1  0
  2 21  1  0
  2 22  1  0
  4 23  1  0
  5 24  1  0
  7 25  1  0
 10 26  1  0
 10 27  1  0
 17 28  1  0
M  CHG  1  15  -1
M  END
>  <UniqueID>  (81) 
81

>  <SMILES>  (81) 
CCc1ccc2cc(C(N)=O)n(C(=O)[O-])c2c1

>  <Energy>  (81) 
65.0557387651331

>  <Genealogy>  (81) 
CCc1ccc2cc(C(N)=O)n(C(=O)[O-])c2c1 (protonated)
CCc1ccc2cc(C(N)=O)n(C(=O)[O-])c2c1 (3D coordinates assigned)
CCc1ccc2cc(C(N)=O)n(C(=O)[O-])c2c1 (optimized conformer: 65.0557387651331 kcal/mol)

>  <smiles>  (81) 
CCc1ccc2cc(C(N)=O)n(C(=O)O)c2c1

>  <score_type>  (81) 
oracle

>  <origin>  (81) 
adg

>  <m_score__min__energy>  (81) 
-8.25

>  <m_primary>  (81) 
energy

$$$$
81:0
     RDKit          3D

 41 43  0  0  0  0  0  0  0  0999 V2000
   -1.6470   25.6710  -28.9510 N   0  0  0  0  0  0  0  0  0  0  0  0
   -0.9770   24.4360  -29.1910 C   0  0  0  0  0  0  0  0  0  0  0  0
    0.1550   24.2390  -28.6750 O   0  0  0  0  0  0  0  0  0  0  0  0
   -1.6330   23.3900  -30.0030 C   0  0  0  0  0  0  0  0  0  0  0  0
   -0.9800   22.2430  -30.4470 C   0  0  0  0  0  0  0  0  0  0  0  0
   -1.8940   21.5830  -31.2330 C   0  0  0  0  0  0  0  0  0  0  0  0
   -1.7780   20.3810  -31.9240 C   0  0  0  0  0  0  0  0  0  0  0  0
   -2.8930   19.9230  -32.6440 C   0  0  0  0  0  0  0  0  0  0  0  0
   -4.0990   20.6700  -32.6600 C   0  0  0  0  0  0  0  0  0  0  0  0
   -5.2900   20.1650  -33.4350 C   0  0  0  0  0  0  0  0  0  0  0  0
   -6.0690   19.0570  -32.6980 C   0  0  0  0  0  0  0  0  0  0  0  0
   -7.1220   19.5870  -31.6900 C   0  0  0  0  0  0  0  0  0  0  0  0
   -8.4210   18.7490  -31.7590 C   0  0  0  0  0  0  0  0  0  0  0  0
   -9.4370   19.3960  -32.7150 C   0  0  0  0  0  0  0  0  0  0  0  0
   -9.8410   20.7110  -32.3470 O   0  0  0  0  0  0  0  0  0  0  0  0
   -8.8930   21.4090  -31.5490 C   0  0  0  0  0  0  0  0  0  0  0  0
   -7.4350   21.0890  -31.9080 C   0  0  0  0  0  0  0  0  0  0  0  0
   -4.1850   21.8780  -31.9310 C   0  0  0  0  0  0  0  0  0  0  0  0
   -3.0490   22.3210  -31.2430 C   0  0  0  0  0  0  0  0  0  0  0  0
   -2.9070   23.4330  -30.4890 N   0  0  0  0  0  0  0  0  0  0  0  0
   -3.9210   24.4170  -30.2250 C   0  0  0  0  0  0  0  0  0  0  0  0
   -4.8750   24.1550  -29.4470 O   0  0  0  0  0  0  0  0  0  0  0  0
   -3.8690   25.6600  -30.8450 O   0  0  0  0  0  0  0  0  0  0  0  0
   -2.6840   25.7480  -29.0520 H   0  0  0  0  0  0  0  0  0  0  0  0
    0.0496   21.9312  -30.2172 H   0  0  0  0  0  0  0  0  0  0  0  0
   -0.8402   19.8063  -31.9067 H   0  0  0  0  0  0  0  0  0  0  0  0
   -2.8309   18.9763  -33.2008 H   0  0  0  0  0  0  0  0  0  0  0  0
   -5.9714   21.0089  -33.6179 H   0  0  0  0  0  0  0  0  0  0  0  0
   -4.9102   19.7301  -34.3713 H   0  0  0  0  0  0  0  0  0  0  0  0
   -6.5877   18.4419  -33.4481 H   0  0  0  0  0  0  0  0  0  0  0  0
   -5.3320   18.4847  -32.1155 H   0  0  0  0  0  0  0  0  0  0  0  0
   -6.6859   19.4836  -30.6855 H   0  0  0  0  0  0  0  0  0  0  0  0
   -8.1795   17.7381  -32.1194 H   0  0  0  0  0  0  0  0  0  0  0  0
   -8.8638   18.7008  -30.7532 H   0  0  0  0  0  0  0  0  0  0  0  0
   -8.9843   19.4435  -33.7164 H   0  0  0  0  0  0  0  0  0  0  0  0
  -10.3410   18.7702  -32.6803 H   0  0  0  0  0  0  0  0  0  0  0  0
   -9.0549   22.4890  -31.6811 H   0  0  0  0  0  0  0  0  0  0  0  0
   -9.0476   21.0876  -30.5084 H   0  0  0  0  0  0  0  0  0  0  0  0
   -7.2615   21.3422  -32.9643 H   0  0  0  0  0  0  0  0  0  0  0  0
   -6.7770   21.6808  -31.2547 H   0  0  0  0  0  0  0  0  0  0  0  0
   -5.1209   22.4554  -31.9049 H   0  0  0  0  0  0  0  0  0  0  0  0
  1  2  1  0
  2  3  2  0
  2  4  1  0
  4  5  2  0
  5  6  1  0
  6  7  2  0
  7  8  1  0
  8  9  2  0
  9 10  1  0
 10 11  1  0
 11 12  1  0
 12 13  1  0
 13 14  1  0
 14 15  1  0
 15 16  1  0
 16 17  1  0
  9 18  1  0
 18 19  2  0
 19 20  1  0
 20 21  1  0
 21 22  2  0
 21 23  1  0
 20  4  1  0
 19  6  1  0
 17 12  1  0
  1 24  1  0
  5 25  1  0
  7 26  1  0
  8 27  1  0
 10 28  1  0
 10 29  1  0
 11 30  1  0
 11 31  1  0
 12 32  1  0
 13 33  1  0
 13 34  1  0
 14 35  1  0
 14 36  1  0
 16 37  1  0
 16 38  1  0
 17 39  1  0
 17 40  1  0
 18 41  1  0
M  CHG  2   1  -1  23  -1
M  END
>  <UniqueID>  (82) 
82

>  <SMILES>  (82) 
[NH-]C(=O)c1cc2ccc(CCC3CCOCC3)cc2n1C(=O)[O-]

>  <Energy>  (82) 
89.42146897174075

>  <Genealogy>  (82) 
[NH-]C(=O)c1cc2ccc(CCC3CCOCC3)cc2n1C(=O)[O-] (protonated)
[NH-]C(=O)c1cc2ccc(CCC3CCOCC3)cc2n1C(=O)[O-] (3D coordinates assigned)
[NH-]C(=O)c1cc2ccc(CCC3CCOCC3)cc2n1C(=O)[O-] (nonaromatic ring conformer: 89.42146897174075 kcal/mol)

>  <smiles>  (82) 
NC(=O)c1cc2ccc(CCC3CCOCC3)cc2n1C(=O)O

>  <score_type>  (82) 
oracle

>  <origin>  (82) 
adg

>  <m_score__min__energy>  (82) 
-12.550000000000001

>  <m_primary>  (82) 
energy

$$$$
82:0
     RDKit          3D

 36 38  0  0  0  0  0  0  0  0999 V2000
   -7.5690   23.0480  -30.5630 C   0  0  0  0  0  0  0  0  0  0  0  0
   -7.1950   22.4460  -31.8820 C   0  0  0  0  0  0  0  0  0  0  0  0
   -6.7270   23.1980  -32.7800 O   0  0  0  0  0  0  0  0  0  0  0  0
   -7.3010   20.9830  -32.1210 C   0  0  0  0  0  0  0  0  0  0  0  0
   -8.5270   20.4490  -32.5650 C   0  0  0  0  0  0  0  0  0  0  0  0
   -8.6880   19.0730  -32.7300 C   0  0  0  0  0  0  0  0  0  0  0  0
   -7.6330   18.2060  -32.4530 C   0  0  0  0  0  0  0  0  0  0  0  0
   -6.4070   18.7130  -32.0230 C   0  0  0  0  0  0  0  0  0  0  0  0
   -6.2190   20.0970  -31.8630 C   0  0  0  0  0  0  0  0  0  0  0  0
   -4.8710   20.5830  -31.4860 C   0  0  0  0  0  0  0  0  0  0  0  0
   -3.7310   19.7790  -31.7390 C   0  0  0  0  0  0  0  0  0  0  0  0
   -2.4470   20.2270  -31.3850 C   0  0  0  0  0  0  0  0  0  0  0  0
   -2.3330   21.4830  -30.7960 C   0  0  0  0  0  0  0  0  0  0  0  0
   -1.2200   22.1440  -30.3330 C   0  0  0  0  0  0  0  0  0  0  0  0
   -1.6900   23.3570  -29.8350 C   0  0  0  0  0  0  0  0  0  0  0  0
   -0.8040   24.4170  -29.3110 C   0  0  0  0  0  0  0  0  0  0  0  0
   -1.2370   25.7730  -29.2530 N   0  0  0  0  0  0  0  0  0  0  0  0
    0.3700   24.1290  -28.9570 O   0  0  0  0  0  0  0  0  0  0  0  0
   -3.0440   23.4390  -29.9770 N   0  0  0  0  0  0  0  0  0  0  0  0
   -3.9180   24.4820  -29.5120 C   0  0  0  0  0  0  0  0  0  0  0  0
   -4.6180   24.3120  -28.4800 O   0  0  0  0  0  0  0  0  0  0  0  0
   -4.0200   25.6770  -30.2140 O   0  0  0  0  0  0  0  0  0  0  0  0
   -3.4210   22.2860  -30.5700 C   0  0  0  0  0  0  0  0  0  0  0  0
   -4.7140   21.8580  -30.8970 C   0  0  0  0  0  0  0  0  0  0  0  0
   -7.1785   22.4194  -29.7491 H   0  0  0  0  0  0  0  0  0  0  0  0
   -7.1387   24.0574  -30.4854 H   0  0  0  0  0  0  0  0  0  0  0  0
   -8.6645   23.1095  -30.4854 H   0  0  0  0  0  0  0  0  0  0  0  0
   -9.3668   21.1248  -32.7841 H   0  0  0  0  0  0  0  0  0  0  0  0
   -9.6505   18.6715  -33.0798 H   0  0  0  0  0  0  0  0  0  0  0  0
   -7.7672   17.1209  -32.5736 H   0  0  0  0  0  0  0  0  0  0  0  0
   -5.5783   18.0227  -31.8067 H   0  0  0  0  0  0  0  0  0  0  0  0
   -3.8527   18.7956  -32.2167 H   0  0  0  0  0  0  0  0  0  0  0  0
   -1.5590   19.6041  -31.5678 H   0  0  0  0  0  0  0  0  0  0  0  0
   -0.1787   21.7899  -30.3518 H   0  0  0  0  0  0  0  0  0  0  0  0
   -2.2110   26.0130  -28.9610 H   0  0  0  0  0  0  0  0  0  0  0  0
   -5.5861   22.4988  -30.7001 H   0  0  0  0  0  0  0  0  0  0  0  0
  1  2  1  0
  2  3  2  0
  2  4  1  0
  4  5  2  0
  5  6  1  0
  6  7  2  0
  7  8  1  0
  8  9  2  0
  9 10  1  0
 10 11  2  0
 11 12  1  0
 12 13  2  0
 13 14  1  0
 14 15  2  0
 15 16  1  0
 16 17  1  0
 16 18  2  0
 15 19  1  0
 19 20  1  0
 20 21  2  0
 20 22  1  0
 19 23  1  0
 23 24  2  0
  9  4  1  0
 24 10  1  0
 23 13  1  0
  1 25  1  0
  1 26  1  0
  1 27  1  0
  5 28  1  0
  6 29  1  0
  7 30  1  0
  8 31  1  0
 11 32  1  0
 12 33  1  0
 14 34  1  0
 17 35  1  0
 24 36  1  0
M  CHG  2  17  -1  22  -1
M  END
>  <UniqueID>  (83) 
83

>  <SMILES>  (83) 
CC(=O)c1ccccc1-c1ccc2cc(C([NH-])=O)n(C(=O)[O-])c2c1

>  <Energy>  (83) 
88.62666904175208

>  <Genealogy>  (83) 
CC(=O)c1ccccc1-c1ccc2cc(C([NH-])=O)n(C(=O)[O-])c2c1 (protonated)
CC(=O)c1ccccc1-c1ccc2cc(C([NH-])=O)n(C(=O)[O-])c2c1 (3D coordinates assigned)
CC(=O)c1ccccc1-c1ccc2cc(C([NH-])=O)n(C(=O)[O-])c2c1 (optimized conformer: 88.62666904175208 kcal/mol)

>  <smiles>  (83) 
CC(=O)c1ccccc1-c1ccc2cc(C(N)=O)n(C(=O)O)c2c1

>  <score_type>  (83) 
oracle

>  <origin>  (83) 
adg

>  <m_score__min__energy>  (83) 
-12.109999999999999

>  <m_primary>  (83) 
energy

$$$$
83:0
     RDKit          3D

 40 42  0  0  0  0  0  0  0  0999 V2000
   -5.4630   18.0490  -34.9420 C   0  0  0  0  0  0  0  0  0  0  0  0
   -6.4720   17.6640  -33.9490 N   0  0  0  0  0  0  0  0  0  0  0  0
   -6.8350   16.2500  -33.7930 C   0  0  0  0  0  0  0  0  0  0  0  0
   -7.0950   18.6950  -33.1440 C   0  0  0  0  0  0  0  0  0  0  0  0
   -6.3580   19.7790  -32.6250 C   0  0  0  0  0  0  0  0  0  0  0  0
   -7.0000   20.7590  -31.8490 C   0  0  0  0  0  0  0  0  0  0  0  0
   -6.2330   21.9030  -31.2930 C   0  0  0  0  0  0  0  0  0  0  0  0
   -6.8450   23.1760  -31.1470 C   0  0  0  0  0  0  0  0  0  0  0  0
   -6.1310   24.2620  -30.6120 C   0  0  0  0  0  0  0  0  0  0  0  0
   -4.8080   24.0520  -30.2400 C   0  0  0  0  0  0  0  0  0  0  0  0
   -3.9000   24.9160  -29.6710 C   0  0  0  0  0  0  0  0  0  0  0  0
   -2.7370   24.1680  -29.4960 C   0  0  0  0  0  0  0  0  0  0  0  0
   -1.4770   24.7310  -28.9650 C   0  0  0  0  0  0  0  0  0  0  0  0
   -1.2370   26.1360  -28.9770 N   0  0  0  0  0  0  0  0  0  0  0  0
   -0.6160   23.9630  -28.4580 O   0  0  0  0  0  0  0  0  0  0  0  0
   -2.9210   22.8920  -29.9390 N   0  0  0  0  0  0  0  0  0  0  0  0
   -1.9960   21.7950  -29.8720 C   0  0  0  0  0  0  0  0  0  0  0  0
   -0.6120   22.0000  -30.1470 N   0  0  0  0  0  0  0  0  0  0  0  0
   -2.4090   20.6420  -29.5750 O   0  0  0  0  0  0  0  0  0  0  0  0
   -4.1930   22.8380  -30.3900 C   0  0  0  0  0  0  0  0  0  0  0  0
   -4.8850   21.7330  -30.8980 C   0  0  0  0  0  0  0  0  0  0  0  0
   -8.3770   20.6390  -31.6060 C   0  0  0  0  0  0  0  0  0  0  0  0
   -9.0770   19.5560  -32.1350 C   0  0  0  0  0  0  0  0  0  0  0  0
   -8.4310   18.6230  -32.8800 N   0  0  0  0  0  0  0  0  0  0  0  0
   -4.5550   18.3955  -34.4268 H   0  0  0  0  0  0  0  0  0  0  0  0
   -5.2186   17.1810  -35.5719 H   0  0  0  0  0  0  0  0  0  0  0  0
   -5.8589   18.8592  -35.5719 H   0  0  0  0  0  0  0  0  0  0  0  0
   -6.8983   16.0036  -32.7228 H   0  0  0  0  0  0  0  0  0  0  0  0
   -7.8093   16.0668  -34.2696 H   0  0  0  0  0  0  0  0  0  0  0  0
   -6.0694   15.6202  -34.2696 H   0  0  0  0  0  0  0  0  0  0  0  0
   -5.2797   19.8577  -32.8276 H   0  0  0  0  0  0  0  0  0  0  0  0
   -7.8915   23.3140  -31.4566 H   0  0  0  0  0  0  0  0  0  0  0  0
   -6.6043   25.2476  -30.4914 H   0  0  0  0  0  0  0  0  0  0  0  0
   -4.0586   25.9727  -29.4098 H   0  0  0  0  0  0  0  0  0  0  0  0
   -0.8850   26.6130  -29.8370 H   0  0  0  0  0  0  0  0  0  0  0  0
    0.0550   21.1960  -30.1290 H   0  0  0  0  0  0  0  0  0  0  0  0
   -0.2420   22.9590  -30.3330 H   0  0  0  0  0  0  0  0  0  0  0  0
   -4.3919   20.7538  -30.9883 H   0  0  0  0  0  0  0  0  0  0  0  0
   -8.9005   21.3947  -31.0020 H   0  0  0  0  0  0  0  0  0  0  0  0
  -10.1565   19.4570  -31.9482 H   0  0  0  0  0  0  0  0  0  0  0  0
  1  2  1  0
  2  3  1  0
  2  4  1  0
  4  5  2  0
  5  6  1  0
  6  7  1  0
  7  8  2  0
  8  9  1  0
  9 10  2  0
 10 11  1  0
 11 12  2  0
 12 13  1  0
 13 14  1  0
 13 15  2  0
 12 16  1  0
 16 17  1  0
 17 18  1  0
 17 19  2  0
 16 20  1  0
 20 21  2  0
  6 22  2  0
 22 23  1  0
 23 24  2  0
 24  4  1  0
 21  7  1  0
 20 10  1  0
  1 25  1  0
  1 26  1  0
  1 27  1  0
  3 28  1  0
  3 29  1  0
  3 30  1  0
  5 31  1  0
  8 32  1  0
  9 33  1  0
 11 34  1  0
 14 35  1  0
 18 36  1  0
 18 37  1  0
 21 38  1  0
 22 39  1  0
 23 40  1  0
M  CHG  1  14  -1
M  END
>  <UniqueID>  (84) 
84

>  <SMILES>  (84) 
CN(C)c1cc(-c2ccc3cc(C([NH-])=O)n(C(N)=O)c3c2)ccn1

>  <Energy>  (84) 
85.8253072468227

>  <Genealogy>  (84) 
CN(C)c1cc(-c2ccc3cc(C([NH-])=O)n(C(N)=O)c3c2)ccn1 (protonated)
CN(C)c1cc(-c2ccc3cc(C([NH-])=O)n(C(N)=O)c3c2)ccn1 (3D coordinates assigned)
CN(C)c1cc(-c2ccc3cc(C([NH-])=O)n(C(N)=O)c3c2)ccn1 (optimized conformer: 85.8253072468227 kcal/mol)

>  <smiles>  (84) 
CN(C)c1cc(-c2ccc3cc(C(N)=O)n(C(N)=O)c3c2)ccn1

>  <score_type>  (84) 
oracle

>  <origin>  (84) 
adg

>  <m_score__min__energy>  (84) 
-10.65

>  <m_primary>  (84) 
energy

$$$$
84:0
     RDKit          3D

 34 35  0  0  0  0  0  0  0  0999 V2000
   -9.1510   21.4950  -31.1600 C   0  0  0  0  0  0  0  0  0  0  0  0
   -9.3070   20.7950  -32.3760 O   0  0  0  0  0  0  0  0  0  0  0  0
   -8.8270   19.4690  -32.2490 C   0  0  0  0  0  0  0  0  0  0  0  0
   -7.4390   19.3140  -32.8980 C   0  0  0  0  0  0  0  0  0  0  0  0
   -6.8390   20.6030  -33.2870 N   0  0  0  0  0  0  0  0  0  0  0  0
   -5.5830   20.8330  -32.6130 C   0  0  0  0  0  0  0  0  0  0  0  0
   -4.5620   19.8470  -32.6420 C   0  0  0  0  0  0  0  0  0  0  0  0
   -3.3260   20.0740  -32.0150 C   0  0  0  0  0  0  0  0  0  0  0  0
   -3.1400   21.2880  -31.3610 C   0  0  0  0  0  0  0  0  0  0  0  0
   -2.0360   21.7760  -30.7000 C   0  0  0  0  0  0  0  0  0  0  0  0
   -2.4020   23.0430  -30.2540 C   0  0  0  0  0  0  0  0  0  0  0  0
   -1.5290   23.8920  -29.4180 C   0  0  0  0  0  0  0  0  0  0  0  0
   -1.7670   25.2920  -29.2910 N   0  0  0  0  0  0  0  0  0  0  0  0
   -0.5890   23.3660  -28.7630 O   0  0  0  0  0  0  0  0  0  0  0  0
   -3.6810   23.3330  -30.6320 N   0  0  0  0  0  0  0  0  0  0  0  0
   -4.3990   24.5640  -30.4450 C   0  0  0  0  0  0  0  0  0  0  0  0
   -3.9200   25.6500  -30.8670 O   0  0  0  0  0  0  0  0  0  0  0  0
   -5.6410   24.5640  -29.8230 O   0  0  0  0  0  0  0  0  0  0  0  0
   -4.1200   22.2460  -31.3060 C   0  0  0  0  0  0  0  0  0  0  0  0
   -5.3530   22.0550  -31.9380 C   0  0  0  0  0  0  0  0  0  0  0  0
   -9.3048   20.8049  -30.3173 H   0  0  0  0  0  0  0  0  0  0  0  0
   -8.1367   21.9174  -31.1076 H   0  0  0  0  0  0  0  0  0  0  0  0
   -9.8900   22.3081  -31.1076 H   0  0  0  0  0  0  0  0  0  0  0  0
   -8.7542   19.2146  -31.1813 H   0  0  0  0  0  0  0  0  0  0  0  0
   -9.5283   18.7943  -32.7618 H   0  0  0  0  0  0  0  0  0  0  0  0
   -6.7695   18.8180  -32.1799 H   0  0  0  0  0  0  0  0  0  0  0  0
   -7.5685   18.7207  -33.8152 H   0  0  0  0  0  0  0  0  0  0  0  0
   -6.6680   20.5900  -34.3190 H   0  0  0  0  0  0  0  0  0  0  0  0
   -7.5080   21.3860  -33.1010 H   0  0  0  0  0  0  0  0  0  0  0  0
   -4.7411   18.8941  -33.1616 H   0  0  0  0  0  0  0  0  0  0  0  0
   -2.5296   19.3156  -32.0401 H   0  0  0  0  0  0  0  0  0  0  0  0
   -1.0692   21.2718  -30.5548 H   0  0  0  0  0  0  0  0  0  0  0  0
   -2.7390   25.6740  -29.3030 H   0  0  0  0  0  0  0  0  0  0  0  0
   -6.1262   22.8369  -31.9109 H   0  0  0  0  0  0  0  0  0  0  0  0
  1  2  1  0
  2  3  1  0
  3  4  1  0
  4  5  1  0
  5  6  1  0
  6  7  2  0
  7  8  1  0
  8  9  2  0
  9 10  1  0
 10 11  2  0
 11 12  1  0
 12 13  1  0
 12 14  2  0
 11 15  1  0
 15 16  1  0
 16 17  2  0
 16 18  1  0
 15 19  1  0
 19 20  2  0
 20  6  1  0
 19  9  1  0
  1 21  1  0
  1 22  1  0
  1 23  1  0
  3 24  1  0
  3 25  1  0
  4 26  1  0
  4 27  1  0
  5 28  1  0
  5 29  1  0
  7 30  1  0
  8 31  1  0
 10 32  1  0
 13 33  1  0
 20 34  1  0
M  CHG  3   5   1  13  -1  18  -1
M  END
>  <UniqueID>  (85) 
85

>  <SMILES>  (85) 
COCC[NH2+]c1ccc2cc(C([NH-])=O)n(C(=O)[O-])c2c1

>  <Energy>  (85) 
76.06733947512957

>  <Genealogy>  (85) 
COCC[NH2+]c1ccc2cc(C([NH-])=O)n(C(=O)[O-])c2c1 (protonated)
COCC[NH2+]c1ccc2cc(C([NH-])=O)n(C(=O)[O-])c2c1 (3D coordinates assigned)
COCC[NH2+]c1ccc2cc(C([NH-])=O)n(C(=O)[O-])c2c1 (optimized conformer: 76.06733947512957 kcal/mol)

>  <smiles>  (85) 
COCCNc1ccc2cc(C(N)=O)n(C(=O)O)c2c1

>  <score_type>  (85) 
oracle

>  <origin>  (85) 
adg

>  <m_score__min__energy>  (85) 
-9.6999999999999993

>  <m_primary>  (85) 
energy

$$$$
85:0
     RDKit          3D

 41 42  0  0  0  0  0  0  0  0999 V2000
   -1.4450   22.3060  -30.4790 C   0  0  0  0  0  0  0  0  0  0  0  0
   -2.7860   22.8010  -30.1370 N   0  0  0  0  0  0  0  0  0  0  0  0
   -3.2580   22.1870  -28.8840 C   0  0  0  0  0  0  0  0  0  0  0  0
   -3.6900   22.5340  -31.2340 C   0  0  0  0  0  0  0  0  0  0  0  0
   -3.2470   22.1470  -32.3510 O   0  0  0  0  0  0  0  0  0  0  0  0
   -5.0820   22.8670  -31.1130 N   0  0  0  0  0  0  0  0  0  0  0  0
   -5.6390   24.0890  -30.8870 C   0  0  0  0  0  0  0  0  0  0  0  0
   -4.9050   25.3290  -30.5610 C   0  0  0  0  0  0  0  0  0  0  0  0
   -3.5140   25.2960  -30.2510 N   0  0  0  0  0  0  0  0  0  0  0  0
   -5.5200   26.4280  -30.5200 O   0  0  0  0  0  0  0  0  0  0  0  0
   -7.0290   24.0060  -30.9440 C   0  0  0  0  0  0  0  0  0  0  0  0
   -7.3040   22.6840  -31.2110 C   0  0  0  0  0  0  0  0  0  0  0  0
   -8.5230   22.0380  -31.3800 C   0  0  0  0  0  0  0  0  0  0  0  0
   -8.5050   20.6650  -31.6720 C   0  0  0  0  0  0  0  0  0  0  0  0
   -7.2780   19.9520  -31.8140 C   0  0  0  0  0  0  0  0  0  0  0  0
   -7.3190   18.4430  -32.1100 C   0  0  0  0  0  0  0  0  0  0  0  0
   -8.7790   17.9630  -31.9700 C   0  0  0  0  0  0  0  0  0  0  0  0
   -6.4400   17.6080  -31.1520 C   0  0  0  0  0  0  0  0  0  0  0  0
   -6.8070   18.1860  -33.5170 C   0  0  0  0  0  0  0  0  0  0  0  0
   -6.8490   17.0210  -34.0000 O   0  0  0  0  0  0  0  0  0  0  0  0
   -6.3360   19.2270  -34.3090 O   0  0  0  0  0  0  0  0  0  0  0  0
   -6.0590   20.6560  -31.6100 C   0  0  0  0  0  0  0  0  0  0  0  0
   -6.1130   22.0200  -31.3080 C   0  0  0  0  0  0  0  0  0  0  0  0
   -0.8841   22.0989  -29.5557 H   0  0  0  0  0  0  0  0  0  0  0  0
   -1.5347   21.3817  -31.0686 H   0  0  0  0  0  0  0  0  0  0  0  0
   -0.9126   23.0669  -31.0686 H   0  0  0  0  0  0  0  0  0  0  0  0
   -2.7250   23.8350  -29.9900 H   0  0  0  0  0  0  0  0  0  0  0  0
   -2.8378   22.7336  -28.0268 H   0  0  0  0  0  0  0  0  0  0  0  0
   -4.3564   22.2318  -28.8447 H   0  0  0  0  0  0  0  0  0  0  0  0
   -2.9323   21.1371  -28.8447 H   0  0  0  0  0  0  0  0  0  0  0  0
   -3.1560   25.6820  -29.3510 H   0  0  0  0  0  0  0  0  0  0  0  0
   -7.7523   24.8230  -30.8052 H   0  0  0  0  0  0  0  0  0  0  0  0
   -9.4725   22.5857  -31.2878 H   0  0  0  0  0  0  0  0  0  0  0  0
   -9.4572   20.1278  -31.7938 H   0  0  0  0  0  0  0  0  0  0  0  0
   -9.0365   17.8783  -30.9039 H   0  0  0  0  0  0  0  0  0  0  0  0
   -9.4511   18.6875  -32.4531 H   0  0  0  0  0  0  0  0  0  0  0  0
   -8.8901   16.9810  -32.4531 H   0  0  0  0  0  0  0  0  0  0  0  0
   -6.6976   17.8527  -30.1110 H   0  0  0  0  0  0  0  0  0  0  0  0
   -6.6169   16.5373  -31.3315 H   0  0  0  0  0  0  0  0  0  0  0  0
   -5.3798   17.8396  -31.3315 H   0  0  0  0  0  0  0  0  0  0  0  0
   -5.0922   20.1371  -31.6884 H   0  0  0  0  0  0  0  0  0  0  0  0
  1  2  1  0
  2  3  1  0
  2  4  1  0
  4  5  2  0
  4  6  1  0
  6  7  1  0
  7  8  1  0
  8  9  1  0
  8 10  2  0
  7 11  2  0
 11 12  1  0
 12 13  2  0
 13 14  1  0
 14 15  2  0
 15 16  1  0
 16 17  1  0
 16 18  1  0
 16 19  1  0
 19 20  2  0
 19 21  1  0
 15 22  1  0
 22 23  2  0
 23  6  1  0
 23 12  1  0
  1 24  1  0
  1 25  1  0
  1 26  1  0
  2 27  1  0
  3 28  1  0
  3 29  1  0
  3 30  1  0
  9 31  1  0
 11 32  1  0
 13 33  1  0
 14 34  1  0
 17 35  1  0
 17 36  1  0
 17 37  1  0
 18 38  1  0
 18 39  1  0
 18 40  1  0
 22 41  1  0
M  CHG  3   2   1   9  -1  21  -1
M  END
>  <UniqueID>  (86) 
86

>  <SMILES>  (86) 
C[NH+](C)C(=O)n1c(C([NH-])=O)cc2ccc(C(C)(C)C(=O)[O-])cc21

>  <Energy>  (86) 
84.71853360852805

>  <Genealogy>  (86) 
C[NH+](C)C(=O)n1c(C([NH-])=O)cc2ccc(C(C)(C)C(=O)[O-])cc21 (protonated)
C[NH+](C)C(=O)n1c(C([NH-])=O)cc2ccc(C(C)(C)C(=O)[O-])cc21 (3D coordinates assigned)
C[NH+](C)C(=O)n1c(C([NH-])=O)cc2ccc(C(C)(C)C(=O)[O-])cc21 (optimized conformer: 84.71853360852805 kcal/mol)

>  <smiles>  (86) 
CN(C)C(=O)n1c(C(N)=O)cc2ccc(C(C)(C)C(=O)O)cc21

>  <score_type>  (86) 
oracle

>  <origin>  (86) 
adg

>  <m_score__min__energy>  (86) 
-9.8200000000000003

>  <m_primary>  (86) 
energy

$$$$
86:0
     RDKit          3D

 31 32  0  0  0  0  0  0  0  0999 V2000
   -1.9210   20.3570  -33.9040 C   0  0  0  0  0  0  0  0  0  0  0  0
   -2.7750   19.4030  -33.0700 C   0  0  0  0  0  0  0  0  0  0  0  0
   -4.2170   19.3050  -33.5850 C   0  0  0  0  0  0  0  0  0  0  0  0
   -5.1070   20.3560  -32.9740 C   0  0  0  0  0  0  0  0  0  0  0  0
   -6.5170   20.2210  -33.0370 C   0  0  0  0  0  0  0  0  0  0  0  0
   -7.3540   21.1750  -32.4370 C   0  0  0  0  0  0  0  0  0  0  0  0
   -6.7570   22.2530  -31.7890 C   0  0  0  0  0  0  0  0  0  0  0  0
   -7.3310   23.2930  -31.0970 C   0  0  0  0  0  0  0  0  0  0  0  0
   -6.2640   24.0640  -30.6420 C   0  0  0  0  0  0  0  0  0  0  0  0
   -6.4350   25.3270  -29.8990 C   0  0  0  0  0  0  0  0  0  0  0  0
   -5.6390   26.4750  -30.1970 N   0  0  0  0  0  0  0  0  0  0  0  0
   -7.3390   25.4130  -29.0240 O   0  0  0  0  0  0  0  0  0  0  0  0
   -5.0760   23.5160  -31.0230 N   0  0  0  0  0  0  0  0  0  0  0  0
   -3.7570   23.9470  -30.6430 C   0  0  0  0  0  0  0  0  0  0  0  0
   -2.8360   23.1070  -30.4670 O   0  0  0  0  0  0  0  0  0  0  0  0
   -3.4870   25.2980  -30.4580 O   0  0  0  0  0  0  0  0  0  0  0  0
   -5.3950   22.4070  -31.7290 C   0  0  0  0  0  0  0  0  0  0  0  0
   -4.5370   21.4590  -32.3010 C   0  0  0  0  0  0  0  0  0  0  0  0
   -1.3386   21.0077  -33.2351 H   0  0  0  0  0  0  0  0  0  0  0  0
   -1.2357   19.7760  -34.5386 H   0  0  0  0  0  0  0  0  0  0  0  0
   -2.5740   20.9741  -34.5386 H   0  0  0  0  0  0  0  0  0  0  0  0
   -2.3199   18.4021  -33.1020 H   0  0  0  0  0  0  0  0  0  0  0  0
   -2.8120   19.7969  -32.0436 H   0  0  0  0  0  0  0  0  0  0  0  0
   -4.2135   19.4339  -34.6774 H   0  0  0  0  0  0  0  0  0  0  0  0
   -4.6126   18.3184  -33.3021 H   0  0  0  0  0  0  0  0  0  0  0  0
   -6.9592   19.3607  -33.5609 H   0  0  0  0  0  0  0  0  0  0  0  0
   -8.4486   21.0739  -32.4776 H   0  0  0  0  0  0  0  0  0  0  0  0
   -8.4036   23.4769  -30.9369 H   0  0  0  0  0  0  0  0  0  0  0  0
   -5.0000   26.4870  -31.0220 H   0  0  0  0  0  0  0  0  0  0  0  0
   -5.7490   27.3490  -29.6370 H   0  0  0  0  0  0  0  0  0  0  0  0
   -3.4452   21.5710  -32.2277 H   0  0  0  0  0  0  0  0  0  0  0  0
  1  2  1  0
  2  3  1  0
  3  4  1  0
  4  5  2  0
  5  6  1  0
  6  7  2  0
  7  8  1  0
  8  9  2  0
  9 10  1  0
 10 11  1  0
 10 12  2  0
  9 13  1  0
 13 14  1  0
 14 15  2  0
 14 16  1  0
 13 17  1  0
 17 18  2  0
 18  4  1  0
 17  7  1  0
  1 19  1  0
  1 20  1  0
  1 21  1  0
  2 22  1  0
  2 23  1  0
  3 24  1  0
  3 25  1  0
  5 26  1  0
  6 27  1  0
  8 28  1  0
 11 29  1  0
 11 30  1  0
 18 31  1  0
M  CHG  1  16  -1
M  END
>  <UniqueID>  (87) 
87

>  <SMILES>  (87) 
CCCc1ccc2cc(C(N)=O)n(C(=O)[O-])c2c1

>  <Energy>  (87) 
66.24411557358415

>  <Genealogy>  (87) 
CCCc1ccc2cc(C(N)=O)n(C(=O)[O-])c2c1 (protonated)
CCCc1ccc2cc(C(N)=O)n(C(=O)[O-])c2c1 (3D coordinates assigned)
CCCc1ccc2cc(C(N)=O)n(C(=O)[O-])c2c1 (optimized conformer: 66.24411557358415 kcal/mol)

>  <smiles>  (87) 
CCCc1ccc2cc(C(N)=O)n(C(=O)O)c2c1

>  <score_type>  (87) 
oracle

>  <origin>  (87) 
adg

>  <m_score__min__energy>  (87) 
-8.6899999999999995

>  <m_primary>  (87) 
energy

$$$$
87:0
     RDKit          3D

 31 32  0  0  0  0  0  0  0  0999 V2000
   -5.2620   16.2430  -32.6710 C   0  0  0  0  0  0  0  0  0  0  0  0
   -5.5940   17.0020  -33.8270 O   0  0  0  0  0  0  0  0  0  0  0  0
   -6.3250   18.1920  -33.7630 C   0  0  0  0  0  0  0  0  0  0  0  0
   -6.0800   19.1420  -34.5560 O   0  0  0  0  0  0  0  0  0  0  0  0
   -7.3720   18.3540  -32.7090 C   0  0  0  0  0  0  0  0  0  0  0  0
   -7.4810   19.8000  -32.3140 C   0  0  0  0  0  0  0  0  0  0  0  0
   -8.7370   20.4550  -32.3560 C   0  0  0  0  0  0  0  0  0  0  0  0
   -8.8570   21.7990  -31.9620 C   0  0  0  0  0  0  0  0  0  0  0  0
   -7.7120   22.4540  -31.5200 C   0  0  0  0  0  0  0  0  0  0  0  0
   -7.5430   23.7510  -31.0940 C   0  0  0  0  0  0  0  0  0  0  0  0
   -6.1940   23.8570  -30.7660 C   0  0  0  0  0  0  0  0  0  0  0  0
   -5.5970   25.0730  -30.1830 C   0  0  0  0  0  0  0  0  0  0  0  0
   -4.3030   25.5240  -30.5850 N   0  0  0  0  0  0  0  0  0  0  0  0
   -6.2090   25.6870  -29.2690 O   0  0  0  0  0  0  0  0  0  0  0  0
   -5.5460   22.6790  -30.9990 N   0  0  0  0  0  0  0  0  0  0  0  0
   -4.1390   22.4030  -30.9110 C   0  0  0  0  0  0  0  0  0  0  0  0
   -3.2870   23.2670  -31.2440 O   0  0  0  0  0  0  0  0  0  0  0  0
   -6.4930   21.8280  -31.4530 C   0  0  0  0  0  0  0  0  0  0  0  0
   -6.3420   20.4940  -31.8490 C   0  0  0  0  0  0  0  0  0  0  0  0
   -5.5142   16.8196  -31.7689 H   0  0  0  0  0  0  0  0  0  0  0  0
   -5.8304   15.3012  -32.6750 H   0  0  0  0  0  0  0  0  0  0  0  0
   -4.1846   16.0211  -32.6750 H   0  0  0  0  0  0  0  0  0  0  0  0
   -8.3403   18.0089  -33.1007 H   0  0  0  0  0  0  0  0  0  0  0  0
   -7.0936   17.7578  -31.8275 H   0  0  0  0  0  0  0  0  0  0  0  0
   -9.6263   19.9066  -32.7001 H   0  0  0  0  0  0  0  0  0  0  0  0
   -9.8266   22.3170  -32.0019 H   0  0  0  0  0  0  0  0  0  0  0  0
   -8.3099   24.5367  -31.0268 H   0  0  0  0  0  0  0  0  0  0  0  0
   -3.7100   24.9510  -31.2240 H   0  0  0  0  0  0  0  0  0  0  0  0
   -3.9040   26.4010  -30.1830 H   0  0  0  0  0  0  0  0  0  0  0  0
   -3.8013   21.4214  -30.5470 H   0  0  0  0  0  0  0  0  0  0  0  0
   -5.3611   19.9986  -31.7993 H   0  0  0  0  0  0  0  0  0  0  0  0
  1  2  1  0
  2  3  1  0
  3  4  2  0
  3  5  1  0
  5  6  1  0
  6  7  2  0
  7  8  1  0
  8  9  2  0
  9 10  1  0
 10 11  2  0
 11 12  1  0
 12 13  1  0
 12 14  2  0
 11 15  1  0
 15 16  1  0
 16 17  2  0
 15 18  1  0
 18 19  2  0
 19  6  1  0
 18  9  1  0
  1 20  1  0
  1 21  1  0
  1 22  1  0
  5 23  1  0
  5 24  1  0
  7 25  1  0
  8 26  1  0
 10 27  1  0
 13 28  1  0
 13 29  1  0
 16 30  1  0
 19 31  1  0
M  END
>  <UniqueID>  (88) 
88

>  <SMILES>  (88) 
COC(=O)Cc1ccc2cc(C(N)=O)n(C=O)c2c1

>  <Energy>  (88) 
65.71922310545173

>  <Genealogy>  (88) 
COC(=O)Cc1ccc2cc(C(N)=O)n(C=O)c2c1 (3D coordinates assigned)
COC(=O)Cc1ccc2cc(C(N)=O)n(C=O)c2c1 (optimized conformer: 65.71922310545173 kcal/mol)

>  <smiles>  (88) 
COC(=O)Cc1ccc2cc(C(N)=O)n(C=O)c2c1

>  <score_type>  (88) 
oracle

>  <origin>  (88) 
adg

>  <m_score__min__energy>  (88) 
-7.8700000000000001

>  <m_primary>  (88) 
energy

$$$$
88:0
     RDKit          3D

 35 37  0  0  0  0  0  0  0  0999 V2000
   -5.7110   26.0480  -30.4690 C   0  0  0  0  0  0  0  0  0  0  0  0
   -4.3950   25.6230  -30.1370 O   0  0  0  0  0  0  0  0  0  0  0  0
   -4.1410   24.4730  -29.3820 C   0  0  0  0  0  0  0  0  0  0  0  0
   -4.6870   24.3190  -28.2560 O   0  0  0  0  0  0  0  0  0  0  0  0
   -3.2760   23.4530  -29.9040 N   0  0  0  0  0  0  0  0  0  0  0  0
   -1.9130   23.4560  -29.9400 C   0  0  0  0  0  0  0  0  0  0  0  0
   -1.0300   24.4410  -29.2840 C   0  0  0  0  0  0  0  0  0  0  0  0
   -1.4980   25.7500  -28.9680 N   0  0  0  0  0  0  0  0  0  0  0  0
    0.1390   24.1070  -28.9520 O   0  0  0  0  0  0  0  0  0  0  0  0
   -1.4390   22.3370  -30.6210 C   0  0  0  0  0  0  0  0  0  0  0  0
   -2.5610   21.6370  -30.9990 C   0  0  0  0  0  0  0  0  0  0  0  0
   -2.6760   20.4480  -31.7130 C   0  0  0  0  0  0  0  0  0  0  0  0
   -3.9680   19.9660  -31.9860 C   0  0  0  0  0  0  0  0  0  0  0  0
   -5.1120   20.6840  -31.5560 C   0  0  0  0  0  0  0  0  0  0  0  0
   -6.4670   20.1710  -31.8520 C   0  0  0  0  0  0  0  0  0  0  0  0
   -6.7250   18.7900  -31.7430 C   0  0  0  0  0  0  0  0  0  0  0  0
   -5.7380   17.9290  -31.3840 F   0  0  0  0  0  0  0  0  0  0  0  0
   -7.9970   18.2860  -32.0250 C   0  0  0  0  0  0  0  0  0  0  0  0
   -9.0240   19.1480  -32.4140 C   0  0  0  0  0  0  0  0  0  0  0  0
   -8.7830   20.5200  -32.5180 C   0  0  0  0  0  0  0  0  0  0  0  0
   -7.5130   21.0380  -32.2380 C   0  0  0  0  0  0  0  0  0  0  0  0
   -7.2880   22.7830  -32.3280 Cl  0  0  0  0  0  0  0  0  0  0  0  0
   -4.9550   21.8850  -30.8300 C   0  0  0  0  0  0  0  0  0  0  0  0
   -3.6570   22.3310  -30.5550 C   0  0  0  0  0  0  0  0  0  0  0  0
   -6.2807   26.2320  -29.5462 H   0  0  0  0  0  0  0  0  0  0  0  0
   -5.6591   26.9751  -31.0588 H   0  0  0  0  0  0  0  0  0  0  0  0
   -6.2111   25.2657  -31.0588 H   0  0  0  0  0  0  0  0  0  0  0  0
   -2.5190   25.9700  -28.9670 H   0  0  0  0  0  0  0  0  0  0  0  0
   -0.3898   22.0699  -30.8153 H   0  0  0  0  0  0  0  0  0  0  0  0
   -1.7836   19.9023  -32.0532 H   0  0  0  0  0  0  0  0  0  0  0  0
   -4.0923   19.0229  -32.5384 H   0  0  0  0  0  0  0  0  0  0  0  0
   -8.1901   17.2064  -31.9403 H   0  0  0  0  0  0  0  0  0  0  0  0
  -10.0232   18.7467  -32.6387 H   0  0  0  0  0  0  0  0  0  0  0  0
   -9.5953   21.1968  -32.8215 H   0  0  0  0  0  0  0  0  0  0  0  0
   -5.8312   22.4560  -30.4890 H   0  0  0  0  0  0  0  0  0  0  0  0
  1  2  1  0
  2  3  1  0
  3  4  2  0
  3  5  1  0
  5  6  1  0
  6  7  1  0
  7  8  1  0
  7  9  2  0
  6 10  2  0
 10 11  1  0
 11 12  2  0
 12 13  1  0
 13 14  2  0
 14 15  1  0
 15 16  2  0
 16 17  1  0
 16 18  1  0
 18 19  2  0
 19 20  1  0
 20 21  2  0
 21 22  1  0
 14 23  1  0
 23 24  2  0
 24  5  1  0
 24 11  1  0
 21 15  1  0
  1 25  1  0
  1 26  1  0
  1 27  1  0
  8 28  1  0
 10 29  1  0
 12 30  1  0
 13 31  1  0
 18 32  1  0
 19 33  1  0
 20 34  1  0
 23 35  1  0
M  CHG  1   8  -1
M  END
>  <UniqueID>  (89) 
89

>  <SMILES>  (89) 
COC(=O)n1c(C([NH-])=O)cc2ccc(-c3c(F)cccc3Cl)cc21

>  <Energy>  (89) 
83.07826760377118

>  <Genealogy>  (89) 
COC(=O)n1c(C([NH-])=O)cc2ccc(-c3c(F)cccc3Cl)cc21 (protonated)
COC(=O)n1c(C([NH-])=O)cc2ccc(-c3c(F)cccc3Cl)cc21 (3D coordinates assigned)
COC(=O)n1c(C([NH-])=O)cc2ccc(-c3c(F)cccc3Cl)cc21 (optimized conformer: 83.07826760377118 kcal/mol)

>  <smiles>  (89) 
COC(=O)n1c(C(N)=O)cc2ccc(-c3c(F)cccc3Cl)cc21

>  <score_type>  (89) 
oracle

>  <origin>  (89) 
adg

>  <m_score__min__energy>  (89) 
-10.619999999999999

>  <m_primary>  (89) 
energy

$$$$
89:0
     RDKit          3D

 32 33  0  0  0  0  0  0  0  0999 V2000
   -2.4640   20.8860  -32.6100 C   0  0  0  0  0  0  0  0  0  0  0  0
   -3.2380   22.0770  -32.6760 O   0  0  0  0  0  0  0  0  0  0  0  0
   -3.7550   22.7060  -31.5390 C   0  0  0  0  0  0  0  0  0  0  0  0
   -2.9790   23.1380  -30.6430 O   0  0  0  0  0  0  0  0  0  0  0  0
   -5.1740   22.8790  -31.4050 N   0  0  0  0  0  0  0  0  0  0  0  0
   -5.8490   23.9940  -31.0030 C   0  0  0  0  0  0  0  0  0  0  0  0
   -5.2430   25.2290  -30.4610 C   0  0  0  0  0  0  0  0  0  0  0  0
   -3.9320   25.6340  -30.8460 N   0  0  0  0  0  0  0  0  0  0  0  0
   -5.8720   25.9090  -29.6070 O   0  0  0  0  0  0  0  0  0  0  0  0
   -7.2240   23.7930  -31.0920 C   0  0  0  0  0  0  0  0  0  0  0  0
   -7.3750   22.5060  -31.5560 C   0  0  0  0  0  0  0  0  0  0  0  0
   -8.5330   21.7840  -31.8330 C   0  0  0  0  0  0  0  0  0  0  0  0
   -8.3910   20.4760  -32.3260 C   0  0  0  0  0  0  0  0  0  0  0  0
   -7.1040   19.9240  -32.5470 C   0  0  0  0  0  0  0  0  0  0  0  0
   -6.9630   18.5150  -33.0580 C   0  0  0  0  0  0  0  0  0  0  0  0
   -5.7800   18.3840  -34.0220 C   0  0  0  0  0  0  0  0  0  0  0  0
   -6.1020   18.9160  -35.2790 O   0  0  0  0  0  0  0  0  0  0  0  0
   -5.9520   20.6840  -32.2460 C   0  0  0  0  0  0  0  0  0  0  0  0
   -6.1230   21.9760  -31.7370 C   0  0  0  0  0  0  0  0  0  0  0  0
   -2.2906   20.6192  -31.5570 H   0  0  0  0  0  0  0  0  0  0  0  0
   -3.0044   20.0693  -33.1110 H   0  0  0  0  0  0  0  0  0  0  0  0
   -1.4982   21.0481  -33.1110 H   0  0  0  0  0  0  0  0  0  0  0  0
   -3.0900   25.2820  -30.3390 H   0  0  0  0  0  0  0  0  0  0  0  0
   -8.0203   24.5103  -30.8442 H   0  0  0  0  0  0  0  0  0  0  0  0
   -9.5280   22.2240  -31.6709 H   0  0  0  0  0  0  0  0  0  0  0  0
   -9.2864   19.8749  -32.5424 H   0  0  0  0  0  0  0  0  0  0  0  0
   -6.8053   17.8392  -32.2045 H   0  0  0  0  0  0  0  0  0  0  0  0
   -7.8823   18.2510  -33.6014 H   0  0  0  0  0  0  0  0  0  0  0  0
   -4.9171   18.9279  -33.6103 H   0  0  0  0  0  0  0  0  0  0  0  0
   -5.5382   17.3176  -34.1414 H   0  0  0  0  0  0  0  0  0  0  0  0
   -6.9800   19.3670  -35.1830 H   0  0  0  0  0  0  0  0  0  0  0  0
   -4.9456   20.2704  -32.4077 H   0  0  0  0  0  0  0  0  0  0  0  0
  1  2  1  0
  2  3  1  0
  3  4  2  0
  3  5  1  0
  5  6  1  0
  6  7  1  0
  7  8  1  0
  7  9  2  0
  6 10  2  0
 10 11  1  0
 11 12  2  0
 12 13  1  0
 13 14  2  0
 14 15  1  0
 15 16  1  0
 16 17  1  0
 14 18  1  0
 18 19  2  0
 19  5  1  0
 19 11  1  0
  1 20  1  0
  1 21  1  0
  1 22  1  0
  8 23  1  0
 10 24  1  0
 12 25  1  0
 13 26  1  0
 15 27  1  0
 15 28  1  0
 16 29  1  0
 16 30  1  0
 17 31  1  0
 18 32  1  0
M  CHG  1   8  -1
M  END
>  <UniqueID>  (90) 
90

>  <SMILES>  (90) 
COC(=O)n1c(C([NH-])=O)cc2ccc(CCO)cc21

>  <Energy>  (90) 
66.74390682195192

>  <Genealogy>  (90) 
COC(=O)n1c(C([NH-])=O)cc2ccc(CCO)cc21 (protonated)
COC(=O)n1c(C([NH-])=O)cc2ccc(CCO)cc21 (3D coordinates assigned)
COC(=O)n1c(C([NH-])=O)cc2ccc(CCO)cc21 (optimized conformer: 66.74390682195192 kcal/mol)

>  <smiles>  (90) 
COC(=O)n1c(C(N)=O)cc2ccc(CCO)cc21

>  <score_type>  (90) 
oracle

>  <origin>  (90) 
adg

>  <m_score__min__energy>  (90) 
-9.7599999999999998

>  <m_primary>  (90) 
energy

$$$$
90:0
     RDKit          3D

 37 38  0  0  0  0  0  0  0  0999 V2000
   -6.5420   17.8680  -32.5530 C   0  0  0  0  0  0  0  0  0  0  0  0
   -7.3170   18.8000  -33.3760 N   0  0  0  0  0  0  0  0  0  0  0  0
   -7.3770   20.0910  -32.7410 C   0  0  0  0  0  0  0  0  0  0  0  0
   -8.6290   20.6460  -32.3680 C   0  0  0  0  0  0  0  0  0  0  0  0
   -8.7000   21.8970  -31.7350 C   0  0  0  0  0  0  0  0  0  0  0  0
   -7.5070   22.5630  -31.4700 C   0  0  0  0  0  0  0  0  0  0  0  0
   -7.2890   23.7900  -30.8880 C   0  0  0  0  0  0  0  0  0  0  0  0
   -5.9060   23.9560  -30.8800 C   0  0  0  0  0  0  0  0  0  0  0  0
   -5.2290   25.1150  -30.2610 C   0  0  0  0  0  0  0  0  0  0  0  0
   -4.0230   25.6170  -30.8280 N   0  0  0  0  0  0  0  0  0  0  0  0
   -5.7260   25.6910  -29.2580 O   0  0  0  0  0  0  0  0  0  0  0  0
   -5.2920   22.8750  -31.4420 N   0  0  0  0  0  0  0  0  0  0  0  0
   -3.8880   22.6970  -31.6890 C   0  0  0  0  0  0  0  0  0  0  0  0
   -3.0430   23.1600  -30.8760 O   0  0  0  0  0  0  0  0  0  0  0  0
   -3.4670   21.9800  -32.8160 O   0  0  0  0  0  0  0  0  0  0  0  0
   -2.5860   20.8590  -32.7560 C   0  0  0  0  0  0  0  0  0  0  0  0
   -1.2440   21.2040  -33.4090 C   0  0  0  0  0  0  0  0  0  0  0  0
   -3.2400   19.6790  -33.4720 C   0  0  0  0  0  0  0  0  0  0  0  0
   -6.2860   22.0310  -31.7950 C   0  0  0  0  0  0  0  0  0  0  0  0
   -6.1860   20.7950  -32.4450 C   0  0  0  0  0  0  0  0  0  0  0  0
   -6.7205   18.0827  -31.4890 H   0  0  0  0  0  0  0  0  0  0  0  0
   -6.8524   16.8365  -32.7760 H   0  0  0  0  0  0  0  0  0  0  0  0
   -5.4712   17.9850  -32.7760 H   0  0  0  0  0  0  0  0  0  0  0  0
   -8.2830   18.4180  -33.5120 H   0  0  0  0  0  0  0  0  0  0  0  0
   -6.8680   18.8810  -34.3190 H   0  0  0  0  0  0  0  0  0  0  0  0
   -9.5544   20.0894  -32.5774 H   0  0  0  0  0  0  0  0  0  0  0  0
   -9.6689   22.3374  -31.4570 H   0  0  0  0  0  0  0  0  0  0  0  0
   -8.0466   24.4918  -30.5090 H   0  0  0  0  0  0  0  0  0  0  0  0
   -3.0920   25.2920  -30.4850 H   0  0  0  0  0  0  0  0  0  0  0  0
   -2.3961   20.5921  -31.7059 H   0  0  0  0  0  0  0  0  0  0  0  0
   -0.4946   21.3967  -32.6272 H   0  0  0  0  0  0  0  0  0  0  0  0
   -0.9132   20.3617  -34.0344 H   0  0  0  0  0  0  0  0  0  0  0  0
   -1.3605   22.1014  -34.0344 H   0  0  0  0  0  0  0  0  0  0  0  0
   -3.6327   18.9705  -32.7278 H   0  0  0  0  0  0  0  0  0  0  0  0
   -4.0647   20.0437  -34.1019 H   0  0  0  0  0  0  0  0  0  0  0  0
   -2.4936   19.1729  -34.1019 H   0  0  0  0  0  0  0  0  0  0  0  0
   -5.2045   20.3810  -32.7191 H   0  0  0  0  0  0  0  0  0  0  0  0
  1  2  1  0
  2  3  1  0
  3  4  2  0
  4  5  1  0
  5  6  2  0
  6  7  1  0
  7  8  2  0
  8  9  1  0
  9 10  1  0
  9 11  2  0
  8 12  1  0
 12 13  1  0
 13 14  2  0
 13 15  1  0
 15 16  1  0
 16 17  1  0
 16 18  1  0
 12 19  1  0
 19 20  2  0
 20  3  1  0
 19  6  1  0
  1 21  1  0
  1 22  1  0
  1 23  1  0
  2 24  1  0
  2 25  1  0
  4 26  1  0
  5 27  1  0
  7 28  1  0
 10 29  1  0
 16 30  1  0
 17 31  1  0
 17 32  1  0
 17 33  1  0
 18 34  1  0
 18 35  1  0
 18 36  1  0
 20 37  1  0
M  CHG  2   2   1  10  -1
M  END
>  <UniqueID>  (91) 
91

>  <SMILES>  (91) 
C[NH2+]c1ccc2cc(C([NH-])=O)n(C(=O)OC(C)C)c2c1

>  <Energy>  (91) 
69.22020179515417

>  <Genealogy>  (91) 
C[NH2+]c1ccc2cc(C([NH-])=O)n(C(=O)OC(C)C)c2c1 (protonated)
C[NH2+]c1ccc2cc(C([NH-])=O)n(C(=O)OC(C)C)c2c1 (3D coordinates assigned)
C[NH2+]c1ccc2cc(C([NH-])=O)n(C(=O)OC(C)C)c2c1 (optimized conformer: 69.22020179515417 kcal/mol)

>  <smiles>  (91) 
CNc1ccc2cc(C(N)=O)n(C(=O)OC(C)C)c2c1

>  <score_type>  (91) 
oracle

>  <origin>  (91) 
adg

>  <m_score__min__energy>  (91) 
-9.4900000000000002

>  <m_primary>  (91) 
energy

$$$$
91:0
     RDKit          3D

 35 36  0  0  0  0  0  0  0  0999 V2000
   -8.6250   22.5320  -31.9200 C   0  0  0  0  0  0  0  0  0  0  0  0
   -8.2060   21.4690  -31.2280 C   0  0  0  0  0  0  0  0  0  0  0  0
   -8.6350   20.0750  -31.5850 C   0  0  0  0  0  0  0  0  0  0  0  0
   -7.4830   19.2450  -31.7170 O   0  0  0  0  0  0  0  0  0  0  0  0
   -6.9870   18.8030  -32.9490 C   0  0  0  0  0  0  0  0  0  0  0  0
   -7.2340   17.6340  -33.3620 O   0  0  0  0  0  0  0  0  0  0  0  0
   -6.1610   19.7370  -33.7790 C   0  0  0  0  0  0  0  0  0  0  0  0
   -4.9410   20.2130  -33.0320 C   0  0  0  0  0  0  0  0  0  0  0  0
   -3.7800   19.3990  -32.9540 C   0  0  0  0  0  0  0  0  0  0  0  0
   -2.6460   19.8330  -32.2480 C   0  0  0  0  0  0  0  0  0  0  0  0
   -2.7060   21.0680  -31.6110 C   0  0  0  0  0  0  0  0  0  0  0  0
   -1.7560   21.7300  -30.8680 C   0  0  0  0  0  0  0  0  0  0  0  0
   -2.3630   22.9200  -30.4610 C   0  0  0  0  0  0  0  0  0  0  0  0
   -1.6990   23.9100  -29.5870 C   0  0  0  0  0  0  0  0  0  0  0  0
   -2.4830   24.8550  -28.8610 N   0  0  0  0  0  0  0  0  0  0  0  0
   -0.4450   23.9570  -29.4940 O   0  0  0  0  0  0  0  0  0  0  0  0
   -3.6380   22.9910  -30.9330 N   0  0  0  0  0  0  0  0  0  0  0  0
   -4.5720   24.0810  -30.8180 C   0  0  0  0  0  0  0  0  0  0  0  0
   -4.1180   25.4330  -30.8840 N   0  0  0  0  0  0  0  0  0  0  0  0
   -5.8060   23.8470  -30.6960 O   0  0  0  0  0  0  0  0  0  0  0  0
   -3.8320   21.8520  -31.6390 C   0  0  0  0  0  0  0  0  0  0  0  0
   -4.9710   21.4540  -32.3490 C   0  0  0  0  0  0  0  0  0  0  0  0
   -8.2927   23.5407  -31.6334 H   0  0  0  0  0  0  0  0  0  0  0  0
   -9.3023   22.3987  -32.7764 H   0  0  0  0  0  0  0  0  0  0  0  0
   -7.5289   21.6188  -30.3742 H   0  0  0  0  0  0  0  0  0  0  0  0
   -9.2856   19.6768  -30.7924 H   0  0  0  0  0  0  0  0  0  0  0  0
   -9.1868   20.0923  -32.5364 H   0  0  0  0  0  0  0  0  0  0  0  0
   -5.8391   19.2137  -34.6915 H   0  0  0  0  0  0  0  0  0  0  0  0
   -6.7772   20.6143  -34.0254 H   0  0  0  0  0  0  0  0  0  0  0  0
   -3.7687   18.4181  -33.4518 H   0  0  0  0  0  0  0  0  0  0  0  0
   -1.7375   19.2146  -32.2003 H   0  0  0  0  0  0  0  0  0  0  0  0
   -0.7336   21.3929  -30.6421 H   0  0  0  0  0  0  0  0  0  0  0  0
   -2.9160   25.6780  -29.3380 H   0  0  0  0  0  0  0  0  0  0  0  0
   -3.0980   25.6630  -30.8040 H   0  0  0  0  0  0  0  0  0  0  0  0
   -5.8682   22.0898  -32.3760 H   0  0  0  0  0  0  0  0  0  0  0  0
  1  2  2  0
  2  3  1  0
  3  4  1  0
  4  5  1  0
  5  6  2  0
  5  7  1  0
  7  8  1  0
  8  9  2  0
  9 10  1  0
 10 11  2  0
 11 12  1  0
 12 13  2  0
 13 14  1  0
 14 15  1  0
 14 16  2  0
 13 17  1  0
 17 18  1  0
 18 19  1  0
 18 20  2  0
 17 21  1  0
 21 22  2  0
 22  8  1  0
 21 11  1  0
  1 23  1  0
  1 24  1  0
  2 25  1  0
  3 26  1  0
  3 27  1  0
  7 28  1  0
  7 29  1  0
  9 30  1  0
 10 31  1  0
 12 32  1  0
 15 33  1  0
 19 34  1  0
 22 35  1  0
M  CHG  2  15  -1  19  -1
M  END
>  <UniqueID>  (92) 
92

>  <SMILES>  (92) 
C=CCOC(=O)Cc1ccc2cc(C([NH-])=O)n(C([NH-])=O)c2c1

>  <Energy>  (92) 
68.60663524809397

>  <Genealogy>  (92) 
C=CCOC(=O)Cc1ccc2cc(C([NH-])=O)n(C([NH-])=O)c2c1 (protonated)
C=CCOC(=O)Cc1ccc2cc(C([NH-])=O)n(C([NH-])=O)c2c1 (3D coordinates assigned)
C=CCOC(=O)Cc1ccc2cc(C([NH-])=O)n(C([NH-])=O)c2c1 (optimized conformer: 68.60663524809397 kcal/mol)

>  <smiles>  (92) 
C=CCOC(=O)Cc1ccc2cc(C(N)=O)n(C(N)=O)c2c1

>  <score_type>  (92) 
oracle

>  <origin>  (92) 
adg

>  <m_score__min__energy>  (92) 
-10.52

>  <m_primary>  (92) 
energy

$$$$
92:0
     RDKit          3D

 50 51  0  0  0  0  0  0  0  0999 V2000
   -6.5280   23.7210  -31.7240 C   0  0  0  0  0  0  0  0  0  0  0  0
   -5.9500   24.9090  -30.9610 C   0  0  0  0  0  0  0  0  0  0  0  0
   -4.5290   24.8230  -30.8920 O   0  0  0  0  0  0  0  0  0  0  0  0
   -3.8400   24.2770  -29.8040 C   0  0  0  0  0  0  0  0  0  0  0  0
   -4.1760   24.5650  -28.6220 O   0  0  0  0  0  0  0  0  0  0  0  0
   -2.7350   23.3940  -30.0370 N   0  0  0  0  0  0  0  0  0  0  0  0
   -1.4220   23.5920  -29.7330 C   0  0  0  0  0  0  0  0  0  0  0  0
   -0.8680   24.7300  -28.9690 C   0  0  0  0  0  0  0  0  0  0  0  0
   -1.5310   25.9920  -28.9470 N   0  0  0  0  0  0  0  0  0  0  0  0
    0.1820   24.5740  -28.2930 O   0  0  0  0  0  0  0  0  0  0  0  0
   -0.6530   22.5150  -30.1730 C   0  0  0  0  0  0  0  0  0  0  0  0
   -1.5450   21.6420  -30.7540 C   0  0  0  0  0  0  0  0  0  0  0  0
   -1.3260   20.4120  -31.3650 C   0  0  0  0  0  0  0  0  0  0  0  0
   -2.4320   19.7410  -31.9130 C   0  0  0  0  0  0  0  0  0  0  0  0
   -3.7320   20.3140  -31.8520 C   0  0  0  0  0  0  0  0  0  0  0  0
   -4.8740   19.6590  -32.4360 N   0  0  0  0  0  0  0  0  0  0  0  0
   -5.7130   20.2780  -33.4650 C   0  0  0  0  0  0  0  0  0  0  0  0
   -7.1110   19.6460  -33.4850 C   0  0  0  0  0  0  0  0  0  0  0  0
   -7.2430   18.6240  -32.4210 N   0  0  0  0  0  0  0  0  0  0  0  0
   -8.4880   18.8110  -31.6310 C   0  0  0  0  0  0  0  0  0  0  0  0
   -9.1010   20.1680  -31.9550 C   0  0  0  0  0  0  0  0  0  0  0  0
   -7.1560   17.2630  -32.9960 C   0  0  0  0  0  0  0  0  0  0  0  0
   -6.1760   17.2220  -34.1700 C   0  0  0  0  0  0  0  0  0  0  0  0
   -3.9100   21.5620  -31.2160 C   0  0  0  0  0  0  0  0  0  0  0  0
   -2.7940   22.1960  -30.6610 C   0  0  0  0  0  0  0  0  0  0  0  0
   -6.8938   22.9691  -31.0093 H   0  0  0  0  0  0  0  0  0  0  0  0
   -7.3611   24.0616  -32.3564 H   0  0  0  0  0  0  0  0  0  0  0  0
   -5.7458   23.2757  -32.3564 H   0  0  0  0  0  0  0  0  0  0  0  0
   -6.2304   25.8395  -31.4762 H   0  0  0  0  0  0  0  0  0  0  0  0
   -6.3539   24.9013  -29.9379 H   0  0  0  0  0  0  0  0  0  0  0  0
   -2.5730   26.0510  -28.9630 H   0  0  0  0  0  0  0  0  0  0  0  0
    0.4355   22.3896  -30.0763 H   0  0  0  0  0  0  0  0  0  0  0  0
   -0.3168   19.9774  -31.4176 H   0  0  0  0  0  0  0  0  0  0  0  0
   -2.2908   18.7620  -32.3943 H   0  0  0  0  0  0  0  0  0  0  0  0
   -5.1010   18.6870  -32.1190 H   0  0  0  0  0  0  0  0  0  0  0  0
   -5.8070   21.3535  -33.2541 H   0  0  0  0  0  0  0  0  0  0  0  0
   -5.2412   20.1185  -34.4458 H   0  0  0  0  0  0  0  0  0  0  0  0
   -7.8640   20.4318  -33.3253 H   0  0  0  0  0  0  0  0  0  0  0  0
   -7.2639   19.1606  -34.4602 H   0  0  0  0  0  0  0  0  0  0  0  0
   -9.2048   18.0159  -31.8839 H   0  0  0  0  0  0  0  0  0  0  0  0
   -8.2498   18.7649  -30.5581 H   0  0  0  0  0  0  0  0  0  0  0  0
   -9.3393   20.6955  -31.0196 H   0  0  0  0  0  0  0  0  0  0  0  0
   -8.3846   20.7638  -32.5396 H   0  0  0  0  0  0  0  0  0  0  0  0
  -10.0216   20.0243  -32.5396 H   0  0  0  0  0  0  0  0  0  0  0  0
   -6.8133   16.5655  -32.2175 H   0  0  0  0  0  0  0  0  0  0  0  0
   -8.1522   16.9746  -33.3626 H   0  0  0  0  0  0  0  0  0  0  0  0
   -5.1459   17.1789  -33.7864 H   0  0  0  0  0  0  0  0  0  0  0  0
   -6.3762   16.3314  -34.7839 H   0  0  0  0  0  0  0  0  0  0  0  0
   -6.3012   18.1262  -34.7839 H   0  0  0  0  0  0  0  0  0  0  0  0
   -4.9058   22.0258  -31.1583 H   0  0  0  0  0  0  0  0  0  0  0  0
  1  2  1  0
  2  3  1  0
  3  4  1  0
  4  5  2  0
  4  6  1  0
  6  7  1  0
  7  8  1  0
  8  9  1  0
  8 10  2  0
  7 11  2  0
 11 12  1  0
 12 13  2  0
 13 14  1  0
 14 15  2  0
 15 16  1  0
 16 17  1  0
 17 18  1  0
 18 19  1  0
 19 20  1  0
 20 21  1  0
 19 22  1  0
 22 23  1  0
 15 24  1  0
 24 25  2  0
 25  6  1  0
 25 12  1  0
  1 26  1  0
  1 27  1  0
  1 28  1  0
  2 29  1  0
  2 30  1  0
  9 31  1  0
 11 32  1  0
 13 33  1  0
 14 34  1  0
 16 35  1  0
 17 36  1  0
 17 37  1  0
 18 38  1  0
 18 39  1  0
 20 40  1  0
 20 41  1  0
 21 42  1  0
 21 43  1  0
 21 44  1  0
 22 45  1  0
 22 46  1  0
 23 47  1  0
 23 48  1  0
 23 49  1  0
 24 50  1  0
M  CHG  1   9  -1
M  END
>  <UniqueID>  (93) 
93

>  <SMILES>  (93) 
CCOC(=O)n1c(C([NH-])=O)cc2ccc(NCCN(CC)CC)cc21

>  <Energy>  (93) 
82.55582429007634

>  <Genealogy>  (93) 
CCOC(=O)n1c(C([NH-])=O)cc2ccc(NCCN(CC)CC)cc21 (protonated)
CCOC(=O)n1c(C([NH-])=O)cc2ccc(NCCN(CC)CC)cc21 (3D coordinates assigned)
CCOC(=O)n1c(C([NH-])=O)cc2ccc(NCCN(CC)CC)cc21 (optimized conformer: 82.55582429007634 kcal/mol)

>  <smiles>  (93) 
CCOC(=O)n1c(C(N)=O)cc2ccc(NCCN(CC)CC)cc21

>  <score_type>  (93) 
oracle

>  <origin>  (93) 
adg

>  <m_score__min__energy>  (93) 
-9.9199999999999999

>  <m_primary>  (93) 
energy

$$$$
93:0
     RDKit          3D

 30 31  0  0  0  0  0  0  0  0999 V2000
   -6.5040   17.1580  -33.2400 C   0  0  0  0  0  0  0  0  0  0  0  0
   -6.7970   18.4510  -33.8480 N   0  0  0  0  0  0  0  0  0  0  0  0
   -7.0020   19.6570  -33.0900 C   0  0  0  0  0  0  0  0  0  0  0  0
   -8.3020   20.0770  -32.6960 C   0  0  0  0  0  0  0  0  0  0  0  0
   -8.4810   21.2540  -31.9490 C   0  0  0  0  0  0  0  0  0  0  0  0
   -7.3510   21.9930  -31.6120 C   0  0  0  0  0  0  0  0  0  0  0  0
   -7.2360   23.1580  -30.8880 C   0  0  0  0  0  0  0  0  0  0  0  0
   -5.8710   23.4430  -30.8630 C   0  0  0  0  0  0  0  0  0  0  0  0
   -5.2930   24.6700  -30.2720 C   0  0  0  0  0  0  0  0  0  0  0  0
   -5.7530   25.1630  -29.0120 N   0  0  0  0  0  0  0  0  0  0  0  0
   -4.4020   25.3090  -30.8920 O   0  0  0  0  0  0  0  0  0  0  0  0
   -5.1730   22.4880  -31.5390 N   0  0  0  0  0  0  0  0  0  0  0  0
   -3.7490   22.3790  -31.7000 C   0  0  0  0  0  0  0  0  0  0  0  0
   -3.1580   21.6830  -32.8850 C   0  0  0  0  0  0  0  0  0  0  0  0
   -2.9820   22.9150  -30.8570 O   0  0  0  0  0  0  0  0  0  0  0  0
   -6.0930   21.6110  -31.9950 C   0  0  0  0  0  0  0  0  0  0  0  0
   -5.8810   20.4380  -32.7280 C   0  0  0  0  0  0  0  0  0  0  0  0
   -6.5259   17.2546  -32.1445 H   0  0  0  0  0  0  0  0  0  0  0  0
   -7.2585   16.4236  -33.5585 H   0  0  0  0  0  0  0  0  0  0  0  0
   -5.5066   16.8206  -33.5585 H   0  0  0  0  0  0  0  0  0  0  0  0
   -6.8580   18.4930  -34.8900 H   0  0  0  0  0  0  0  0  0  0  0  0
   -9.1774   19.4740  -32.9790 H   0  0  0  0  0  0  0  0  0  0  0  0
   -9.4846   21.5814  -31.6399 H   0  0  0  0  0  0  0  0  0  0  0  0
   -8.0477   23.7402  -30.4273 H   0  0  0  0  0  0  0  0  0  0  0  0
   -6.4470   24.6320  -28.4420 H   0  0  0  0  0  0  0  0  0  0  0  0
   -5.3640   26.0500  -28.6240 H   0  0  0  0  0  0  0  0  0  0  0  0
   -2.4814   20.8862  -32.5424 H   0  0  0  0  0  0  0  0  0  0  0  0
   -3.9636   21.2442  -33.4919 H   0  0  0  0  0  0  0  0  0  0  0  0
   -2.5944   22.4069  -33.4919 H   0  0  0  0  0  0  0  0  0  0  0  0
   -4.8648   20.1307  -33.0160 H   0  0  0  0  0  0  0  0  0  0  0  0
  1  2  1  0
  2  3  1  0
  3  4  2  0
  4  5  1  0
  5  6  2  0
  6  7  1  0
  7  8  2  0
  8  9  1  0
  9 10  1  0
  9 11  2  0
  8 12  1  0
 12 13  1  0
 13 14  1  0
 13 15  2  0
 12 16  1  0
 16 17  2  0
 17  3  1  0
 16  6  1  0
  1 18  1  0
  1 19  1  0
  1 20  1  0
  2 21  1  0
  4 22  1  0
  5 23  1  0
  7 24  1  0
 10 25  1  0
 10 26  1  0
 14 27  1  0
 14 28  1  0
 14 29  1  0
 17 30  1  0
M  END
>  <UniqueID>  (94) 
94

>  <SMILES>  (94) 
CNc1ccc2cc(C(N)=O)n(C(C)=O)c2c1

>  <Energy>  (94) 
67.36224039573196

>  <Genealogy>  (94) 
CNc1ccc2cc(C(N)=O)n(C(C)=O)c2c1 (3D coordinates assigned)
CNc1ccc2cc(C(N)=O)n(C(C)=O)c2c1 (optimized conformer: 67.36224039573196 kcal/mol)

>  <smiles>  (94) 
CNc1ccc2cc(C(N)=O)n(C(C)=O)c2c1

>  <score_type>  (94) 
oracle

>  <origin>  (94) 
adg

>  <m_score__min__energy>  (94) 
-8.0099999999999998

>  <m_primary>  (94) 
energy

$$$$
94:0
     RDKit          3D

 39 40  0  0  0  0  0  0  0  0999 V2000
   -3.8680   25.6130  -30.8420 N   0  0  0  0  0  0  0  0  0  0  0  0
   -5.2190   25.2800  -30.5260 C   0  0  0  0  0  0  0  0  0  0  0  0
   -5.9060   26.0810  -29.8410 O   0  0  0  0  0  0  0  0  0  0  0  0
   -5.8050   24.0250  -31.0410 C   0  0  0  0  0  0  0  0  0  0  0  0
   -7.1740   23.8360  -31.2080 C   0  0  0  0  0  0  0  0  0  0  0  0
   -7.3160   22.5340  -31.6260 C   0  0  0  0  0  0  0  0  0  0  0  0
   -8.4650   21.8230  -31.9590 C   0  0  0  0  0  0  0  0  0  0  0  0
   -8.3150   20.4960  -32.3960 C   0  0  0  0  0  0  0  0  0  0  0  0
   -7.0300   19.9090  -32.4920 C   0  0  0  0  0  0  0  0  0  0  0  0
   -6.8770   18.5050  -33.0070 C   0  0  0  0  0  0  0  0  0  0  0  0
   -5.8410   18.4530  -34.0880 C   0  0  0  0  0  0  0  0  0  0  0  0
   -6.0820   18.9030  -35.1970 O   0  0  0  0  0  0  0  0  0  0  0  0
   -5.8850   20.6670  -32.1570 C   0  0  0  0  0  0  0  0  0  0  0  0
   -6.0640   21.9800  -31.7040 C   0  0  0  0  0  0  0  0  0  0  0  0
   -5.1220   22.8830  -31.3490 N   0  0  0  0  0  0  0  0  0  0  0  0
   -3.6990   22.6760  -31.3650 C   0  0  0  0  0  0  0  0  0  0  0  0
   -3.1460   22.1760  -32.3830 O   0  0  0  0  0  0  0  0  0  0  0  0
   -2.9420   22.9850  -30.2300 O   0  0  0  0  0  0  0  0  0  0  0  0
   -1.6070   22.5300  -30.0090 C   0  0  0  0  0  0  0  0  0  0  0  0
   -0.8480   23.4810  -29.0820 C   0  0  0  0  0  0  0  0  0  0  0  0
   -1.5960   24.7560  -28.8490 C   0  0  0  0  0  0  0  0  0  0  0  0
   -1.1320   25.8420  -29.2920 O   0  0  0  0  0  0  0  0  0  0  0  0
   -2.8020   24.7290  -28.1440 O   0  0  0  0  0  0  0  0  0  0  0  0
   -2.8790   24.4550  -26.7480 C   0  0  0  0  0  0  0  0  0  0  0  0
   -2.0640   25.7410  -25.8220 Cl  0  0  0  0  0  0  0  0  0  0  0  0
   -3.0780   25.2520  -30.2640 H   0  0  0  0  0  0  0  0  0  0  0  0
   -7.9734   24.5729  -31.0408 H   0  0  0  0  0  0  0  0  0  0  0  0
   -9.4601   22.2856  -31.8825 H   0  0  0  0  0  0  0  0  0  0  0  0
   -9.2043   19.9076  -32.6661 H   0  0  0  0  0  0  0  0  0  0  0  0
   -6.5708   17.8474  -32.1801 H   0  0  0  0  0  0  0  0  0  0  0  0
   -7.8399   18.1707  -33.4205 H   0  0  0  0  0  0  0  0  0  0  0  0
   -4.8571   18.0066  -33.8812 H   0  0  0  0  0  0  0  0  0  0  0  0
   -4.8773   20.2358  -32.2499 H   0  0  0  0  0  0  0  0  0  0  0  0
   -1.6392   21.5307  -29.5504 H   0  0  0  0  0  0  0  0  0  0  0  0
   -1.0851   22.4944  -30.9767 H   0  0  0  0  0  0  0  0  0  0  0  0
   -0.6884   22.9816  -28.1150 H   0  0  0  0  0  0  0  0  0  0  0  0
    0.1083   23.7324  -29.5639 H   0  0  0  0  0  0  0  0  0  0  0  0
   -3.9354   24.4034  -26.4457 H   0  0  0  0  0  0  0  0  0  0  0  0
   -2.3821   23.4953  -26.5429 H   0  0  0  0  0  0  0  0  0  0  0  0
  1  2  1  0
  2  3  2  0
  2  4  1  0
  4  5  2  0
  5  6  1  0
  6  7  2  0
  7  8  1  0
  8  9  2  0
  9 10  1  0
 10 11  1  0
 11 12  2  0
  9 13  1  0
 13 14  2  0
 14 15  1  0
 15 16  1  0
 16 17  2  0
 16 18  1  0
 18 19  1  0
 19 20  1  0
 20 21  1  0
 21 22  2  0
 21 23  1  0
 23 24  1  0
 24 25  1  0
 15  4  1  0
 14  6  1  0
  1 26  1  0
  5 27  1  0
  7 28  1  0
  8 29  1  0
 10 30  1  0
 10 31  1  0
 11 32  1  0
 13 33  1  0
 19 34  1  0
 19 35  1  0
 20 36  1  0
 20 37  1  0
 24 38  1  0
 24 39  1  0
M  CHG  1   1  -1
M  END
>  <UniqueID>  (95) 
95

>  <SMILES>  (95) 
[NH-]C(=O)c1cc2ccc(CC=O)cc2n1C(=O)OCCC(=O)OCCl

>  <Energy>  (95) 
70.04560339910624

>  <Genealogy>  (95) 
[NH-]C(=O)c1cc2ccc(CC=O)cc2n1C(=O)OCCC(=O)OCCl (protonated)
[NH-]C(=O)c1cc2ccc(CC=O)cc2n1C(=O)OCCC(=O)OCCl (3D coordinates assigned)
[NH-]C(=O)c1cc2ccc(CC=O)cc2n1C(=O)OCCC(=O)OCCl (optimized conformer: 70.04560339910624 kcal/mol)

>  <smiles>  (95) 
NC(=O)c1cc2ccc(CC=O)cc2n1C(=O)OCCC(=O)OCCl

>  <score_type>  (95) 
oracle

>  <origin>  (95) 
adg

>  <m_score__min__energy>  (95) 
-10.32

>  <m_primary>  (95) 
energy

$$$$
95:0
     RDKit          3D

 52 54  0  0  0  0  0  0  0  0999 V2000
   -4.4210   15.5270  -34.5890 C   0  0  0  0  0  0  0  0  0  0  0  0
   -4.5470   16.5420  -33.5300 N   0  0  0  0  0  0  0  0  0  0  0  0
   -4.4360   17.9160  -34.0820 C   0  0  0  0  0  0  0  0  0  0  0  0
   -5.8020   18.5560  -34.3870 C   0  0  0  0  0  0  0  0  0  0  0  0
   -6.7450   18.5630  -33.1530 C   0  0  0  0  0  0  0  0  0  0  0  0
   -6.9420   19.9560  -32.5820 C   0  0  0  0  0  0  0  0  0  0  0  0
   -8.2460   20.4790  -32.3650 C   0  0  0  0  0  0  0  0  0  0  0  0
   -8.4260   21.7660  -31.8330 C   0  0  0  0  0  0  0  0  0  0  0  0
   -7.2920   22.5150  -31.5390 C   0  0  0  0  0  0  0  0  0  0  0  0
   -7.1800   23.7770  -31.0000 C   0  0  0  0  0  0  0  0  0  0  0  0
   -5.8110   24.0240  -30.9200 C   0  0  0  0  0  0  0  0  0  0  0  0
   -5.2390   25.3120  -30.4740 C   0  0  0  0  0  0  0  0  0  0  0  0
   -3.9070   25.6620  -30.8440 N   0  0  0  0  0  0  0  0  0  0  0  0
   -5.9000   26.0920  -29.7400 O   0  0  0  0  0  0  0  0  0  0  0  0
   -5.1050   22.9530  -31.3860 N   0  0  0  0  0  0  0  0  0  0  0  0
   -3.6800   22.7820  -31.4260 C   0  0  0  0  0  0  0  0  0  0  0  0
   -2.9790   23.1370  -30.4400 O   0  0  0  0  0  0  0  0  0  0  0  0
   -3.0910   22.1980  -32.5580 O   0  0  0  0  0  0  0  0  0  0  0  0
   -2.2100   21.0670  -32.5700 C   0  0  0  0  0  0  0  0  0  0  0  0
   -2.3160   20.4270  -33.9640 C   0  0  0  0  0  0  0  0  0  0  0  0
   -2.6430   20.0310  -31.5150 C   0  0  0  0  0  0  0  0  0  0  0  0
   -0.7540   21.5090  -32.3350 C   0  0  0  0  0  0  0  0  0  0  0  0
   -6.0270   22.0400  -31.7620 C   0  0  0  0  0  0  0  0  0  0  0  0
   -5.8170   20.7540  -32.2720 C   0  0  0  0  0  0  0  0  0  0  0  0
   -6.2870   17.5780  -32.0600 C   0  0  0  0  0  0  0  0  0  0  0  0
   -5.7580   16.2950  -32.7100 C   0  0  0  0  0  0  0  0  0  0  0  0
   -4.2977   14.5339  -34.1323 H   0  0  0  0  0  0  0  0  0  0  0  0
   -5.3269   15.5337  -35.2130 H   0  0  0  0  0  0  0  0  0  0  0  0
   -3.5443   15.7550  -35.2130 H   0  0  0  0  0  0  0  0  0  0  0  0
   -3.9098   18.5461  -33.3498 H   0  0  0  0  0  0  0  0  0  0  0  0
   -3.8876   17.8443  -35.0329 H   0  0  0  0  0  0  0  0  0  0  0  0
   -5.6402   19.5940  -34.7131 H   0  0  0  0  0  0  0  0  0  0  0  0
   -6.2842   17.9555  -35.1724 H   0  0  0  0  0  0  0  0  0  0  0  0
   -7.7227   18.2175  -33.5200 H   0  0  0  0  0  0  0  0  0  0  0  0
   -9.1251   19.8677  -32.6170 H   0  0  0  0  0  0  0  0  0  0  0  0
   -9.4336   22.1694  -31.6542 H   0  0  0  0  0  0  0  0  0  0  0  0
   -7.9975   24.4477  -30.6969 H   0  0  0  0  0  0  0  0  0  0  0  0
   -3.0880   25.2940  -30.3130 H   0  0  0  0  0  0  0  0  0  0  0  0
   -2.4949   19.3468  -33.8589 H   0  0  0  0  0  0  0  0  0  0  0  0
   -3.1505   20.8849  -34.5152 H   0  0  0  0  0  0  0  0  0  0  0  0
   -1.3784   20.5914  -34.5152 H   0  0  0  0  0  0  0  0  0  0  0  0
   -2.4722   20.4397  -30.5081 H   0  0  0  0  0  0  0  0  0  0  0  0
   -3.7117   19.8032  -31.6418 H   0  0  0  0  0  0  0  0  0  0  0  0
   -2.0543   19.1105  -31.6418 H   0  0  0  0  0  0  0  0  0  0  0  0
   -0.5587   21.5683  -31.2541 H   0  0  0  0  0  0  0  0  0  0  0  0
   -0.0706   20.7778  -32.7915 H   0  0  0  0  0  0  0  0  0  0  0  0
   -0.5924   22.4967  -32.7915 H   0  0  0  0  0  0  0  0  0  0  0  0
   -4.7975   20.3718  -32.4285 H   0  0  0  0  0  0  0  0  0  0  0  0
   -5.4884   18.0410  -31.4618 H   0  0  0  0  0  0  0  0  0  0  0  0
   -7.1399   17.3324  -31.4102 H   0  0  0  0  0  0  0  0  0  0  0  0
   -5.5088   15.5732  -31.9182 H   0  0  0  0  0  0  0  0  0  0  0  0
   -6.5426   15.9042  -33.3746 H   0  0  0  0  0  0  0  0  0  0  0  0
  1  2  1  0
  2  3  1  0
  3  4  1  0
  4  5  1  0
  5  6  1  0
  6  7  2  0
  7  8  1  0
  8  9  2  0
  9 10  1  0
 10 11  2  0
 11 12  1  0
 12 13  1  0
 12 14  2  0
 11 15  1  0
 15 16  1  0
 16 17  2  0
 16 18  1  0
 18 19  1  0
 19 20  1  0
 19 21  1  0
 19 22  1  0
 15 23  1  0
 23 24  2  0
  5 25  1  0
 25 26  1  0
 26  2  1  0
 24  6  1  0
 23  9  1  0
  1 27  1  0
  1 28  1  0
  1 29  1  0
  3 30  1  0
  3 31  1  0
  4 32  1  0
  4 33  1  0
  5 34  1  0
  7 35  1  0
  8 36  1  0
 10 37  1  0
 13 38  1  0
 20 39  1  0
 20 40  1  0
 20 41  1  0
 21 42  1  0
 21 43  1  0
 21 44  1  0
 22 45  1  0
 22 46  1  0
 22 47  1  0
 24 48  1  0
 25 49  1  0
 25 50  1  0
 26 51  1  0
 26 52  1  0
M  CHG  1  13  -1
M  END
>  <UniqueID>  (96) 
96

>  <SMILES>  (96) 
CN1CCC(c2ccc3cc(C([NH-])=O)n(C(=O)OC(C)(C)C)c3c2)CC1

>  <Energy>  (96) 
95.29698915059511

>  <Genealogy>  (96) 
CN1CCC(c2ccc3cc(C([NH-])=O)n(C(=O)OC(C)(C)C)c3c2)CC1 (protonated)
CN1CCC(c2ccc3cc(C([NH-])=O)n(C(=O)OC(C)(C)C)c3c2)CC1 (3D coordinates assigned)
CN1CCC(c2ccc3cc(C([NH-])=O)n(C(=O)OC(C)(C)C)c3c2)CC1 (nonaromatic ring conformer: 95.29698915059511 kcal/mol)

>  <smiles>  (96) 
CN1CCC(c2ccc3cc(C(N)=O)n(C(=O)OC(C)(C)C)c3c2)CC1

>  <score_type>  (96) 
oracle

>  <origin>  (96) 
adg

>  <m_score__min__energy>  (96) 
-11.619999999999999

>  <m_primary>  (96) 
energy

$$$$
96:0
     RDKit          3D

 66 70  0  0  0  0  0  0  0  0999 V2000
   -2.7780   14.4570  -38.1150 C   0  0  0  0  0  0  0  0  0  0  0  0
   -2.7450   14.0260  -36.6530 C   0  0  0  0  0  0  0  0  0  0  0  0
   -2.1140   15.0230  -35.8530 O   0  0  0  0  0  0  0  0  0  0  0  0
   -2.6940   16.2660  -35.5740 C   0  0  0  0  0  0  0  0  0  0  0  0
   -3.8130   16.5790  -36.0670 O   0  0  0  0  0  0  0  0  0  0  0  0
   -1.9480   17.2500  -34.7350 C   0  0  0  0  0  0  0  0  0  0  0  0
   -2.4630   17.2430  -33.4080 O   0  0  0  0  0  0  0  0  0  0  0  0
   -3.5860   16.5000  -33.0340 C   0  0  0  0  0  0  0  0  0  0  0  0
   -3.4490   15.3490  -32.5380 O   0  0  0  0  0  0  0  0  0  0  0  0
   -4.8980   17.0630  -33.1890 N   0  0  0  0  0  0  0  0  0  0  0  0
   -5.9870   16.4890  -33.7750 C   0  0  0  0  0  0  0  0  0  0  0  0
   -6.0950   15.0830  -34.2160 C   0  0  0  0  0  0  0  0  0  0  0  0
   -4.9220   14.3650  -34.5910 N   0  0  0  0  0  0  0  0  0  0  0  0
   -7.2160   14.5160  -34.3000 O   0  0  0  0  0  0  0  0  0  0  0  0
   -7.0400   17.3980  -33.8440 C   0  0  0  0  0  0  0  0  0  0  0  0
   -6.5610   18.5560  -33.2740 C   0  0  0  0  0  0  0  0  0  0  0  0
   -7.1800   19.7900  -33.1030 C   0  0  0  0  0  0  0  0  0  0  0  0
   -6.4340   20.8260  -32.5170 C   0  0  0  0  0  0  0  0  0  0  0  0
   -5.0890   20.6140  -32.1150 C   0  0  0  0  0  0  0  0  0  0  0  0
   -4.2930   21.7460  -31.4950 C   0  0  1  0  0  0  0  0  0  0  0  0
   -5.1900   23.0010  -31.2350 C   0  0  0  0  0  0  0  0  0  0  0  0
   -5.1530   23.5250  -29.7890 C   0  0  0  0  0  0  0  0  0  0  0  0
   -3.7520   23.5210  -29.2560 C   0  0  0  0  0  0  0  0  0  0  0  0
   -3.2870   24.5620  -28.5190 N   0  0  0  0  0  0  0  0  0  0  0  0
   -2.0330   24.5470  -27.9910 C   0  0  0  0  0  0  0  0  0  0  0  0
   -1.5390   25.7010  -27.2000 C   0  0  0  0  0  0  0  0  0  0  0  0
   -1.8020   25.7910  -25.8190 C   0  0  0  0  0  0  0  0  0  0  0  0
   -1.3390   26.8820  -25.0770 C   0  0  0  0  0  0  0  0  0  0  0  0
   -0.6090   27.8960  -25.7010 C   0  0  0  0  0  0  0  0  0  0  0  0
   -0.1530   28.9800  -24.9630 O   0  0  0  0  0  0  0  0  0  0  0  0
   -0.3390   27.8180  -27.0710 C   0  0  0  0  0  0  0  0  0  0  0  0
   -0.8000   26.7290  -27.8170 C   0  0  0  0  0  0  0  0  0  0  0  0
   -1.2400   23.4590  -28.1890 N   0  0  0  0  0  0  0  0  0  0  0  0
   -1.6630   22.3850  -28.9100 C   0  0  0  0  0  0  0  0  0  0  0  0
   -0.8330   21.2710  -29.0790 O   0  0  0  0  0  0  0  0  0  0  0  0
   -0.9160   20.1160  -28.2530 C   0  0  0  0  0  0  0  0  0  0  0  0
   -2.9450   22.4020  -29.4780 C   0  0  0  0  0  0  0  0  0  0  0  0
   -3.5160   21.2450  -30.2520 C   0  0  0  0  0  0  0  0  0  0  0  0
   -4.4970   19.3430  -32.3080 C   0  0  0  0  0  0  0  0  0  0  0  0
   -5.2680   18.3280  -32.8850 C   0  0  0  0  0  0  0  0  0  0  0  0
   -2.8619   15.5523  -38.1726 H   0  0  0  0  0  0  0  0  0  0  0  0
   -1.8525   14.1334  -38.6136 H   0  0  0  0  0  0  0  0  0  0  0  0
   -3.6435   13.9963  -38.6136 H   0  0  0  0  0  0  0  0  0  0  0  0
   -3.7747   13.8743  -36.2969 H   0  0  0  0  0  0  0  0  0  0  0  0
   -2.1737   13.0896  -36.5708 H   0  0  0  0  0  0  0  0  0  0  0  0
   -0.8824   16.9780  -34.7142 H   0  0  0  0  0  0  0  0  0  0  0  0
   -2.0664   18.2558  -35.1644 H   0  0  0  0  0  0  0  0  0  0  0  0
   -3.9950   14.8430  -34.6470 H   0  0  0  0  0  0  0  0  0  0  0  0
   -8.0419   17.2269  -34.2647 H   0  0  0  0  0  0  0  0  0  0  0  0
   -8.2220   19.9497  -33.4171 H   0  0  0  0  0  0  0  0  0  0  0  0
   -6.8971   21.8126  -32.3679 H   0  0  0  0  0  0  0  0  0  0  0  0
   -3.5305   22.0880  -32.2102 H   0  0  0  0  0  0  0  0  0  0  0  0
   -4.8523   23.8083  -31.9014 H   0  0  0  0  0  0  0  0  0  0  0  0
   -6.2271   22.6888  -31.4275 H   0  0  0  0  0  0  0  0  0  0  0  0
   -5.5437   24.5531  -29.7681 H   0  0  0  0  0  0  0  0  0  0  0  0
   -5.7709   22.8672  -29.1601 H   0  0  0  0  0  0  0  0  0  0  0  0
   -2.3764   24.9964  -25.3202 H   0  0  0  0  0  0  0  0  0  0  0  0
   -1.5503   26.9418  -23.9991 H   0  0  0  0  0  0  0  0  0  0  0  0
    0.2375   28.6153  -27.5629 H   0  0  0  0  0  0  0  0  0  0  0  0
   -0.5838   26.6747  -28.8942 H   0  0  0  0  0  0  0  0  0  0  0  0
   -0.8942   20.4190  -27.1958 H   0  0  0  0  0  0  0  0  0  0  0  0
   -1.8548   19.5823  -28.4622 H   0  0  0  0  0  0  0  0  0  0  0  0
   -0.0631   19.4535  -28.4622 H   0  0  0  0  0  0  0  0  0  0  0  0
   -2.6953   20.5898  -30.5794 H   0  0  0  0  0  0  0  0  0  0  0  0
   -4.2097   20.6928  -29.6010 H   0  0  0  0  0  0  0  0  0  0  0  0
   -3.4542   19.1573  -32.0111 H   0  0  0  0  0  0  0  0  0  0  0  0
  1  2  1  0
  2  3  1  0
  3  4  1  0
  4  5  2  0
  4  6  1  0
  6  7  1  0
  7  8  1  0
  8  9  2  0
  8 10  1  0
 10 11  1  0
 11 12  1  0
 12 13  1  0
 12 14  2  0
 11 15  2  0
 15 16  1  0
 16 17  2  0
 17 18  1  0
 18 19  2  0
 19 20  1  0
 20 21  1  0
 21 22  1  0
 22 23  1  0
 23 24  2  0
 24 25  1  0
 25 26  1  0
 26 27  2  0
 27 28  1  0
 28 29  2  0
 29 30  1  0
 29 31  1  0
 31 32  2  0
 25 33  2  0
 33 34  1  0
 34 35  1  0
 35 36  1  0
 34 37  2  0
 37 38  1  0
 19 39  1  0
 39 40  2  0
 40 10  1  0
 40 16  1  0
 38 20  1  0
 37 23  1  0
 32 26  1  0
  1 41  1  0
  1 42  1  0
  1 43  1  0
  2 44  1  0
  2 45  1  0
  6 46  1  0
  6 47  1  0
 13 48  1  0
 15 49  1  0
 17 50  1  0
 18 51  1  0
 20 52  1  6
 21 53  1  0
 21 54  1  0
 22 55  1  0
 22 56  1  0
 27 57  1  0
 28 58  1  0
 31 59  1  0
 32 60  1  0
 36 61  1  0
 36 62  1  0
 36 63  1  0
 38 64  1  0
 38 65  1  0
 39 66  1  0
M  CHG  2  13  -1  30  -1
M  END
>  <UniqueID>  (97) 
97

>  <SMILES>  (97) 
CCOC(=O)COC(=O)n1c(C([NH-])=O)cc2ccc([C@H]3CCc4nc(-c5ccc([O-])cc5)nc(OC)c4C3)cc21

>  <Energy>  (97) 
109.72558913124676

>  <Genealogy>  (97) 
CCOC(=O)COC(=O)n1c(C([NH-])=O)cc2ccc(C3CCc4nc(-c5ccc([O-])cc5)nc(OC)c4C3)cc21 (protonated)
CCOC(=O)COC(=O)n1c(C([NH-])=O)cc2ccc([C@H]3CCc4nc(-c5ccc([O-])cc5)nc(OC)c4C3)cc21 (chirality)
CCOC(=O)COC(=O)n1c(C([NH-])=O)cc2ccc([C@H]3CCc4nc(-c5ccc([O-])cc5)nc(OC)c4C3)cc21 (3D coordinates assigned)
CCOC(=O)COC(=O)n1c(C([NH-])=O)cc2ccc([C@H]3CCc4nc(-c5ccc([O-])cc5)nc(OC)c4C3)cc21 (nonaromatic ring conformer: 109.72558913124676 kcal/mol)

>  <smiles>  (97) 
CCOC(=O)COC(=O)n1c(C(N)=O)cc2ccc(C3CCc4nc(-c5ccc(O)cc5)nc(OC)c4C3)cc21

>  <score_type>  (97) 
oracle

>  <origin>  (97) 
adg

>  <m_score__min__energy>  (97) 
-7.7699999999999996

>  <m_primary>  (97) 
energy

$$$$
97:0
     RDKit          3D

 29 30  0  0  0  0  0  0  0  0999 V2000
   -2.0020   22.4380  -29.6280 C   0  0  0  0  0  0  0  0  0  0  0  0
   -3.0960   23.1370  -30.2080 O   0  0  0  0  0  0  0  0  0  0  0  0
   -3.7540   22.6870  -31.3570 C   0  0  0  0  0  0  0  0  0  0  0  0
   -3.0930   22.2210  -32.3250 O   0  0  0  0  0  0  0  0  0  0  0  0
   -5.1880   22.7550  -31.4300 N   0  0  0  0  0  0  0  0  0  0  0  0
   -5.9880   23.7640  -30.9830 C   0  0  0  0  0  0  0  0  0  0  0  0
   -5.5280   25.0770  -30.4870 C   0  0  0  0  0  0  0  0  0  0  0  0
   -4.1800   25.5080  -30.6730 N   0  0  0  0  0  0  0  0  0  0  0  0
   -6.3540   25.8540  -29.9380 O   0  0  0  0  0  0  0  0  0  0  0  0
   -7.3300   23.4190  -31.1040 C   0  0  0  0  0  0  0  0  0  0  0  0
   -7.3330   22.1590  -31.6560 C   0  0  0  0  0  0  0  0  0  0  0  0
   -8.4010   21.3340  -31.9900 C   0  0  0  0  0  0  0  0  0  0  0  0
   -8.1140   20.0650  -32.5190 C   0  0  0  0  0  0  0  0  0  0  0  0
   -6.7720   19.6330  -32.6790 C   0  0  0  0  0  0  0  0  0  0  0  0
   -6.4750   18.2830  -33.2810 C   0  0  0  0  0  0  0  0  0  0  0  0
   -5.4250   17.7000  -32.5950 F   0  0  0  0  0  0  0  0  0  0  0  0
   -7.5820   17.4570  -33.1980 F   0  0  0  0  0  0  0  0  0  0  0  0
   -6.1270   18.4080  -34.6150 F   0  0  0  0  0  0  0  0  0  0  0  0
   -5.7130   20.5110  -32.3470 C   0  0  0  0  0  0  0  0  0  0  0  0
   -6.0290   21.7790  -31.8420 C   0  0  0  0  0  0  0  0  0  0  0  0
   -2.0764   22.4855  -28.5315 H   0  0  0  0  0  0  0  0  0  0  0  0
   -2.0252   21.3870  -29.9519 H   0  0  0  0  0  0  0  0  0  0  0  0
   -1.0581   22.9007  -29.9519 H   0  0  0  0  0  0  0  0  0  0  0  0
   -3.5160   24.9640  -31.2670 H   0  0  0  0  0  0  0  0  0  0  0  0
   -3.8630   26.4220  -30.2800 H   0  0  0  0  0  0  0  0  0  0  0  0
   -8.2029   24.0246  -30.8190 H   0  0  0  0  0  0  0  0  0  0  0  0
   -9.4398   21.6652  -31.8443 H   0  0  0  0  0  0  0  0  0  0  0  0
   -8.9386   19.3988  -32.8125 H   0  0  0  0  0  0  0  0  0  0  0  0
   -4.6652   20.2048  -32.4824 H   0  0  0  0  0  0  0  0  0  0  0  0
  1  2  1  0
  2  3  1  0
  3  4  2  0
  3  5  1  0
  5  6  1  0
  6  7  1  0
  7  8  1  0
  7  9  2  0
  6 10  2  0
 10 11  1  0
 11 12  2  0
 12 13  1  0
 13 14  2  0
 14 15  1  0
 15 16  1  0
 15 17  1  0
 15 18  1  0
 14 19  1  0
 19 20  2  0
 20  5  1  0
 20 11  1  0
  1 21  1  0
  1 22  1  0
  1 23  1  0
  8 24  1  0
  8 25  1  0
 10 26  1  0
 12 27  1  0
 13 28  1  0
 19 29  1  0
M  END
>  <UniqueID>  (98) 
98

>  <SMILES>  (98) 
COC(=O)n1c(C(N)=O)cc2ccc(C(F)(F)F)cc21

>  <Energy>  (98) 
67.31096435734891

>  <Genealogy>  (98) 
COC(=O)n1c(C(N)=O)cc2ccc(C(F)(F)F)cc21 (3D coordinates assigned)
COC(=O)n1c(C(N)=O)cc2ccc(C(F)(F)F)cc21 (optimized conformer: 67.31096435734891 kcal/mol)

>  <smiles>  (98) 
COC(=O)n1c(C(N)=O)cc2ccc(C(F)(F)F)cc21

>  <score_type>  (98) 
oracle

>  <origin>  (98) 
adg

>  <m_score__min__energy>  (98) 
-7.5

>  <m_primary>  (98) 
energy

$$$$
98:0
     RDKit          3D

 48 50  0  0  0  0  0  0  0  0999 V2000
   -6.9970   25.2830  -29.7440 C   0  0  0  0  0  0  0  0  0  0  0  0
   -6.4920   23.9120  -30.2340 C   0  0  0  0  0  0  0  0  0  0  0  0
   -7.4300   22.7850  -29.7600 C   0  0  0  0  0  0  0  0  0  0  0  0
   -6.4560   23.9130  -31.7700 C   0  0  0  0  0  0  0  0  0  0  0  0
   -5.1530   23.6760  -29.7810 O   0  0  0  0  0  0  0  0  0  0  0  0
   -3.9720   24.1140  -30.4000 C   0  0  0  0  0  0  0  0  0  0  0  0
   -3.8680   25.2900  -30.8400 O   0  0  0  0  0  0  0  0  0  0  0  0
   -2.8580   23.2150  -30.5020 N   0  0  0  0  0  0  0  0  0  0  0  0
   -1.6380   23.3160  -29.9030 C   0  0  0  0  0  0  0  0  0  0  0  0
   -1.1440   24.4720  -29.1250 C   0  0  0  0  0  0  0  0  0  0  0  0
   -1.9480   25.6360  -28.9480 N   0  0  0  0  0  0  0  0  0  0  0  0
    0.0230   24.4510  -28.6500 O   0  0  0  0  0  0  0  0  0  0  0  0
   -0.8570   22.1980  -30.1950 C   0  0  0  0  0  0  0  0  0  0  0  0
   -1.6400   21.4080  -31.0050 C   0  0  0  0  0  0  0  0  0  0  0  0
   -1.3660   20.1760  -31.5900 C   0  0  0  0  0  0  0  0  0  0  0  0
   -2.3720   19.5770  -32.3660 C   0  0  0  0  0  0  0  0  0  0  0  0
   -3.6330   20.2060  -32.5310 C   0  0  0  0  0  0  0  0  0  0  0  0
   -4.6570   19.5830  -33.3320 N   0  0  0  0  0  0  0  0  0  0  0  0
   -4.3250   18.4470  -34.2020 C   0  0  0  0  0  0  0  0  0  0  0  0
   -5.5990   17.7090  -34.6380 C   0  0  0  0  0  0  0  0  0  0  0  0
   -6.5500   17.6240  -33.5230 N   0  0  0  0  0  0  0  0  0  0  0  0
   -7.0370   18.9510  -33.0920 C   0  0  0  0  0  0  0  0  0  0  0  0
   -6.0330   20.0950  -33.3380 C   0  0  0  0  0  0  0  0  0  0  0  0
   -3.8700   21.4600  -31.9250 C   0  0  0  0  0  0  0  0  0  0  0  0
   -2.8420   22.0430  -31.1750 C   0  0  0  0  0  0  0  0  0  0  0  0
   -7.0032   25.2998  -28.6441 H   0  0  0  0  0  0  0  0  0  0  0  0
   -6.3314   26.0744  -30.1190 H   0  0  0  0  0  0  0  0  0  0  0  0
   -8.0169   25.4535  -30.1190 H   0  0  0  0  0  0  0  0  0  0  0  0
   -7.4491   22.7620  -28.6604 H   0  0  0  0  0  0  0  0  0  0  0  0
   -8.4456   22.9688  -30.1406 H   0  0  0  0  0  0  0  0  0  0  0  0
   -7.0649   21.8197  -30.1406 H   0  0  0  0  0  0  0  0  0  0  0  0
   -5.4110   23.9420  -32.1123 H   0  0  0  0  0  0  0  0  0  0  0  0
   -6.9407   23.0011  -32.1487 H   0  0  0  0  0  0  0  0  0  0  0  0
   -6.9905   24.7967  -32.1487 H   0  0  0  0  0  0  0  0  0  0  0  0
   -2.9190   25.6810  -29.3280 H   0  0  0  0  0  0  0  0  0  0  0  0
    0.1672   21.9916  -29.8509 H   0  0  0  0  0  0  0  0  0  0  0  0
   -0.3913   19.6859  -31.4492 H   0  0  0  0  0  0  0  0  0  0  0  0
   -2.1799   18.6088  -32.8515 H   0  0  0  0  0  0  0  0  0  0  0  0
   -3.7983   18.8168  -35.0941 H   0  0  0  0  0  0  0  0  0  0  0  0
   -3.6843   17.7485  -33.6438 H   0  0  0  0  0  0  0  0  0  0  0  0
   -6.0660   18.2541  -35.4715 H   0  0  0  0  0  0  0  0  0  0  0  0
   -5.3298   16.6906  -34.9549 H   0  0  0  0  0  0  0  0  0  0  0  0
   -6.0730   17.1600  -32.7140 H   0  0  0  0  0  0  0  0  0  0  0  0
   -7.9614   19.1767  -33.6439 H   0  0  0  0  0  0  0  0  0  0  0  0
   -7.1971   18.8949  -32.0052 H   0  0  0  0  0  0  0  0  0  0  0  0
   -6.2429   20.5570  -34.3140 H   0  0  0  0  0  0  0  0  0  0  0  0
   -6.1387   20.8393  -32.5350 H   0  0  0  0  0  0  0  0  0  0  0  0
   -4.8397   21.9664  -32.0399 H   0  0  0  0  0  0  0  0  0  0  0  0
  1  2  1  0
  2  3  1  0
  2  4  1  0
  2  5  1  0
  5  6  1  0
  6  7  2  0
  6  8  1  0
  8  9  1  0
  9 10  1  0
 10 11  1  0
 10 12  2  0
  9 13  2  0
 13 14  1  0
 14 15  2  0
 15 16  1  0
 16 17  2  0
 17 18  1  0
 18 19  1  0
 19 20  1  0
 20 21  1  0
 21 22  1  0
 22 23  1  0
 17 24  1  0
 24 25  2  0
 25  8  1  0
 25 14  1  0
 23 18  1  0
  1 26  1  0
  1 27  1  0
  1 28  1  0
  3 29  1  0
  3 30  1  0
  3 31  1  0
  4 32  1  0
  4 33  1  0
  4 34  1  0
 11 35  1  0
 13 36  1  0
 15 37  1  0
 16 38  1  0
 19 39  1  0
 19 40  1  0
 20 41  1  0
 20 42  1  0
 21 43  1  0
 22 44  1  0
 22 45  1  0
 23 46  1  0
 23 47  1  0
 24 48  1  0
M  CHG  1  11  -1
M  END
>  <UniqueID>  (99) 
99

>  <SMILES>  (99) 
CC(C)(C)OC(=O)n1c(C([NH-])=O)cc2ccc(N3CCNCC3)cc21

>  <Energy>  (99) 
91.09306232975484

>  <Genealogy>  (99) 
CC(C)(C)OC(=O)n1c(C([NH-])=O)cc2ccc(N3CCNCC3)cc21 (protonated)
CC(C)(C)OC(=O)n1c(C([NH-])=O)cc2ccc(N3CCNCC3)cc21 (3D coordinates assigned)
CC(C)(C)OC(=O)n1c(C([NH-])=O)cc2ccc(N3CCNCC3)cc21 (nonaromatic ring conformer: 91.09306232975484 kcal/mol)

>  <smiles>  (99) 
CC(C)(C)OC(=O)n1c(C(N)=O)cc2ccc(N3CCNCC3)cc21

>  <score_type>  (99) 
oracle

>  <origin>  (99) 
adg

>  <m_score__min__energy>  (99) 
-10.9

>  <m_primary>  (99) 
energy

$$$$
