0:0
     RDKit          3D

 42 43  0  0  0  0  0  0  0  0999 V2000
   -1.5460   25.2600  -26.1550 C   0  0  0  0  0  0  0  0  0  0  0  0
   -2.5490   24.4440  -27.3770 S   0  0  0  0  0  0  0  0  0  0  0  0
   -2.2030   24.9930  -28.7310 O   0  0  0  0  0  0  0  0  0  0  0  0
   -3.9990   24.7190  -27.0930 O   0  0  0  0  0  0  0  0  0  0  0  0
   -2.2580   22.6780  -27.3800 C   0  0  0  0  0  0  0  0  0  0  0  0
   -1.0390   22.2910  -28.2220 C   0  0  0  0  0  0  0  0  0  0  0  0
   -1.4410   21.6800  -29.4350 O   0  0  0  0  0  0  0  0  0  0  0  0
   -1.5590   22.6450  -30.4600 C   0  0  0  0  0  0  0  0  0  0  0  0
   -2.9360   22.9240  -30.6930 O   0  0  0  0  0  0  0  0  0  0  0  0
   -3.6740   22.3220  -31.7180 C   0  0  0  0  0  0  0  0  0  0  0  0
   -3.0840   21.7330  -32.6640 O   0  0  0  0  0  0  0  0  0  0  0  0
   -5.1090   22.3830  -31.6960 N   0  0  0  0  0  0  0  0  0  0  0  0
   -5.8880   23.3610  -31.1530 C   0  0  0  0  0  0  0  0  0  0  0  0
   -5.4100   24.6530  -30.6220 C   0  0  0  0  0  0  0  0  0  0  0  0
   -4.5300   24.7080  -29.4990 N   0  0  0  0  0  0  0  0  0  0  0  0
   -5.7380   25.7220  -31.2030 O   0  0  0  0  0  0  0  0  0  0  0  0
   -7.2340   23.0090  -31.2100 C   0  0  0  0  0  0  0  0  0  0  0  0
   -7.2590   21.7770  -31.8230 C   0  0  0  0  0  0  0  0  0  0  0  0
   -8.3390   20.9510  -32.1220 C   0  0  0  0  0  0  0  0  0  0  0  0
   -8.0710   19.7100  -32.7230 C   0  0  0  0  0  0  0  0  0  0  0  0
   -6.7400   19.3150  -33.0040 C   0  0  0  0  0  0  0  0  0  0  0  0
   -6.4750   17.9750  -33.6280 C   0  0  0  0  0  0  0  0  0  0  0  0
   -7.1720   16.9950  -32.9440 F   0  0  0  0  0  0  0  0  0  0  0  0
   -5.1220   17.6960  -33.5720 F   0  0  0  0  0  0  0  0  0  0  0  0
   -5.6690   20.1790  -32.6820 C   0  0  0  0  0  0  0  0  0  0  0  0
   -5.9650   21.4200  -32.1050 C   0  0  0  0  0  0  0  0  0  0  0  0
   -1.8919   24.9786  -25.1494 H   0  0  0  0  0  0  0  0  0  0  0  0
   -0.4962   24.9563  -26.2800 H   0  0  0  0  0  0  0  0  0  0  0  0
   -1.6298   26.3497  -26.2800 H   0  0  0  0  0  0  0  0  0  0  0  0
   -2.0929   22.3450  -26.3447 H   0  0  0  0  0  0  0  0  0  0  0  0
   -3.1403   22.1925  -27.8225 H   0  0  0  0  0  0  0  0  0  0  0  0
   -0.4556   23.1954  -28.4494 H   0  0  0  0  0  0  0  0  0  0  0  0
   -0.4282   21.5757  -27.6516 H   0  0  0  0  0  0  0  0  0  0  0  0
   -1.0442   23.5682  -30.1555 H   0  0  0  0  0  0  0  0  0  0  0  0
   -1.1021   22.2577  -31.3826 H   0  0  0  0  0  0  0  0  0  0  0  0
   -4.1050   23.8400  -29.1050 H   0  0  0  0  0  0  0  0  0  0  0  0
   -4.2320   25.6310  -29.1120 H   0  0  0  0  0  0  0  0  0  0  0  0
   -8.0928   23.5906  -30.8438 H   0  0  0  0  0  0  0  0  0  0  0  0
   -9.3698   21.2604  -31.8948 H   0  0  0  0  0  0  0  0  0  0  0  0
   -8.9035   19.0378  -32.9781 H   0  0  0  0  0  0  0  0  0  0  0  0
   -6.8044   17.9947  -34.6773 H   0  0  0  0  0  0  0  0  0  0  0  0
   -4.6280   19.8837  -32.8799 H   0  0  0  0  0  0  0  0  0  0  0  0
  1  2  1  0
  2  3  2  0
  2  4  2  0
  2  5  1  0
  5  6  1  0
  6  7  1  0
  7  8  1  0
  8  9  1  0
  9 10  1  0
 10 11  2  0
 10 12  1  0
 12 13  1  0
 13 14  1  0
 14 15  1  0
 14 16  2  0
 13 17  2  0
 17 18  1  0
 18 19  2  0
 19 20  1  0
 20 21  2  0
 21 22  1  0
 22 23  1  0
 22 24  1  0
 21 25  1  0
 25 26  2  0
 26 12  1  0
 26 18  1  0
  1 27  1  0
  1 28  1  0
  1 29  1  0
  5 30  1  0
  5 31  1  0
  6 32  1  0
  6 33  1  0
  8 34  1  0
  8 35  1  0
 15 36  1  0
 15 37  1  0
 17 38  1  0
 19 39  1  0
 20 40  1  0
 22 41  1  0
 25 42  1  0
M  END
>  <UniqueID>  (1) 
1

>  <SMILES>  (1) 
CS(=O)(=O)CCOCOC(=O)n1c(C(N)=O)cc2ccc(C(F)F)cc21

>  <Energy>  (1) 
71.90653353058275

>  <Genealogy>  (1) 
CS(=O)(=O)CCOCOC(=O)n1c(C(N)=O)cc2ccc(C(F)F)cc21 (3D coordinates assigned)
CS(=O)(=O)CCOCOC(=O)n1c(C(N)=O)cc2ccc(C(F)F)cc21 (optimized conformer: 71.90653353058275 kcal/mol)

>  <smiles>  (1) 
CS(=O)(=O)CCOCOC(=O)n1c(C(N)=O)cc2ccc(C(F)F)cc21

>  <score_type>  (1) 
oracle

>  <origin>  (1) 
adg

>  <m_score__min__energy>  (1) 
-8.1899999999999995

>  <m_primary>  (1) 
energy

$$$$
1:0
     RDKit          3D

 56 57  0  0  0  0  0  0  0  0999 V2000
   -0.5510   22.1420  -29.6050 C   0  0  0  0  0  0  0  0  0  0  0  0
   -1.7530   22.9040  -29.2300 N   0  0  0  0  0  0  0  0  0  0  0  0
   -1.5320   24.2050  -28.6360 C   0  0  0  0  0  0  0  0  0  0  0  0
   -1.7810   25.2520  -29.2880 O   0  0  0  0  0  0  0  0  0  0  0  0
   -1.0230   24.2850  -27.3290 O   0  0  0  0  0  0  0  0  0  0  0  0
   -1.4410   25.2030  -26.3080 C   0  0  0  0  0  0  0  0  0  0  0  0
   -0.8960   26.5870  -26.6910 C   0  0  0  0  0  0  0  0  0  0  0  0
   -0.8530   24.7980  -24.9430 C   0  0  0  0  0  0  0  0  0  0  0  0
   -2.9780   25.2770  -26.2370 C   0  0  0  0  0  0  0  0  0  0  0  0
   -3.1250   22.3270  -29.3890 C   0  0  0  0  0  0  0  0  0  0  0  0
   -3.1040   20.7830  -29.2030 C   0  0  0  0  0  0  0  0  0  0  0  0
   -4.0740   22.8770  -28.2940 C   0  0  0  0  0  0  0  0  0  0  0  0
   -3.6720   22.6930  -30.7670 C   0  0  0  0  0  0  0  0  0  0  0  0
   -2.8840   22.8170  -31.7420 O   0  0  0  0  0  0  0  0  0  0  0  0
   -5.0760   22.8950  -30.9910 N   0  0  0  0  0  0  0  0  0  0  0  0
   -5.7910   24.0420  -30.8310 C   0  0  0  0  0  0  0  0  0  0  0  0
   -5.2260   25.3650  -30.5060 C   0  0  0  0  0  0  0  0  0  0  0  0
   -3.8730   25.6620  -30.8420 N   0  0  0  0  0  0  0  0  0  0  0  0
   -5.9190   26.2290  -29.9080 O   0  0  0  0  0  0  0  0  0  0  0  0
   -7.1450   23.8070  -31.0660 C   0  0  0  0  0  0  0  0  0  0  0  0
   -7.2300   22.4720  -31.3970 C   0  0  0  0  0  0  0  0  0  0  0  0
   -8.3360   21.6990  -31.7350 C   0  0  0  0  0  0  0  0  0  0  0  0
   -8.1250   20.3440  -32.0390 C   0  0  0  0  0  0  0  0  0  0  0  0
   -6.8160   19.7860  -32.0090 C   0  0  0  0  0  0  0  0  0  0  0  0
   -6.5720   18.4020  -32.3280 N   0  0  0  0  0  0  0  0  0  0  0  0
   -6.1430   17.9190  -33.6390 C   0  0  0  0  0  0  0  0  0  0  0  0
   -4.8230   18.4650  -33.9740 C   0  0  0  0  0  0  0  0  0  0  0  0
   -3.7810   18.8950  -34.2350 N   0  0  0  0  0  0  0  0  0  0  0  0
   -5.7210   20.6100  -31.6660 C   0  0  0  0  0  0  0  0  0  0  0  0
   -5.9660   21.9490  -31.3540 C   0  0  0  0  0  0  0  0  0  0  0  0
   -0.0284   21.8107  -28.6956 H   0  0  0  0  0  0  0  0  0  0  0  0
   -0.8440   21.2643  -30.1999 H   0  0  0  0  0  0  0  0  0  0  0  0
    0.1178   22.7815  -30.1999 H   0  0  0  0  0  0  0  0  0  0  0  0
   -0.6711   27.1580  -25.7781 H   0  0  0  0  0  0  0  0  0  0  0  0
    0.0224   26.4680  -27.2846 H   0  0  0  0  0  0  0  0  0  0  0  0
   -1.6490   27.1262  -27.2846 H   0  0  0  0  0  0  0  0  0  0  0  0
   -1.4699   25.2229  -24.1374 H   0  0  0  0  0  0  0  0  0  0  0  0
   -0.8441   23.7013  -24.8584 H   0  0  0  0  0  0  0  0  0  0  0  0
    0.1748   25.1806  -24.8584 H   0  0  0  0  0  0  0  0  0  0  0  0
   -3.2961   25.2923  -25.1841 H   0  0  0  0  0  0  0  0  0  0  0  0
   -3.3245   26.1929  -26.7381 H   0  0  0  0  0  0  0  0  0  0  0  0
   -3.4109   24.3987  -26.7381 H   0  0  0  0  0  0  0  0  0  0  0  0
   -3.1007   20.5430  -28.1295 H   0  0  0  0  0  0  0  0  0  0  0  0
   -3.9963   20.3448  -29.6740 H   0  0  0  0  0  0  0  0  0  0  0  0
   -2.2001   20.3692  -29.6740 H   0  0  0  0  0  0  0  0  0  0  0  0
   -3.6646   22.6397  -27.3010 H   0  0  0  0  0  0  0  0  0  0  0  0
   -4.1651   23.9679  -28.4019 H   0  0  0  0  0  0  0  0  0  0  0  0
   -5.0658   22.4137  -28.4019 H   0  0  0  0  0  0  0  0  0  0  0  0
   -3.1620   24.9020  -30.9310 H   0  0  0  0  0  0  0  0  0  0  0  0
   -7.9694   24.5323  -31.0011 H   0  0  0  0  0  0  0  0  0  0  0  0
   -9.3452   22.1356  -31.7634 H   0  0  0  0  0  0  0  0  0  0  0  0
   -8.9816   19.7066  -32.3034 H   0  0  0  0  0  0  0  0  0  0  0  0
   -6.6780   17.6900  -31.5700 H   0  0  0  0  0  0  0  0  0  0  0  0
   -6.0878   16.8205  -33.6211 H   0  0  0  0  0  0  0  0  0  0  0  0
   -6.8695   18.2467  -34.3972 H   0  0  0  0  0  0  0  0  0  0  0  0
   -4.6981   20.2059  -31.6451 H   0  0  0  0  0  0  0  0  0  0  0  0
  1  2  1  0
  2  3  1  0
  3  4  2  0
  3  5  1  0
  5  6  1  0
  6  7  1  0
  6  8  1  0
  6  9  1  0
  2 10  1  0
 10 11  1  0
 10 12  1  0
 10 13  1  0
 13 14  2  0
 13 15  1  0
 15 16  1  0
 16 17  1  0
 17 18  1  0
 17 19  2  0
 16 20  2  0
 20 21  1  0
 21 22  2  0
 22 23  1  0
 23 24  2  0
 24 25  1  0
 25 26  1  0
 26 27  1  0
 27 28  3  0
 24 29  1  0
 29 30  2  0
 30 15  1  0
 30 21  1  0
  1 31  1  0
  1 32  1  0
  1 33  1  0
  7 34  1  0
  7 35  1  0
  7 36  1  0
  8 37  1  0
  8 38  1  0
  8 39  1  0
  9 40  1  0
  9 41  1  0
  9 42  1  0
 11 43  1  0
 11 44  1  0
 11 45  1  0
 12 46  1  0
 12 47  1  0
 12 48  1  0
 18 49  1  0
 20 50  1  0
 22 51  1  0
 23 52  1  0
 25 53  1  0
 26 54  1  0
 26 55  1  0
 29 56  1  0
M  CHG  1  18  -1
M  END
>  <UniqueID>  (2) 
2

>  <SMILES>  (2) 
CN(C(=O)OC(C)(C)C)C(C)(C)C(=O)n1c(C([NH-])=O)cc2ccc(NCC#N)cc21

>  <Energy>  (2) 
95.54226895938253

>  <Genealogy>  (2) 
CN(C(=O)OC(C)(C)C)C(C)(C)C(=O)n1c(C([NH-])=O)cc2ccc(NCC#N)cc21 (protonated)
CN(C(=O)OC(C)(C)C)C(C)(C)C(=O)n1c(C([NH-])=O)cc2ccc(NCC#N)cc21 (3D coordinates assigned)
CN(C(=O)OC(C)(C)C)C(C)(C)C(=O)n1c(C([NH-])=O)cc2ccc(NCC#N)cc21 (optimized conformer: 95.54226895938253 kcal/mol)

>  <smiles>  (2) 
CN(C(=O)OC(C)(C)C)C(C)(C)C(=O)n1c(C(N)=O)cc2ccc(NCC#N)cc21

>  <score_type>  (2) 
oracle

>  <origin>  (2) 
adg

>  <m_score__min__energy>  (2) 
-11.06

>  <m_primary>  (2) 
energy

$$$$
2:0
     RDKit          3D

 37 38  0  0  0  0  0  0  0  0999 V2000
   -4.2251   23.3152  -27.6824 H   0  0  0  0  0  0  0  0  0  0  0  0
   -3.3540   23.5170  -28.3230 C   0  0  0  0  0  0  0  0  0  0  0  0
   -3.1150   22.6970  -29.4290 O   0  0  0  0  0  0  0  0  0  0  0  0
   -3.7180   22.8900  -30.6750 C   0  0  0  0  0  0  0  0  0  0  0  0
   -4.2930   23.9800  -30.9440 O   0  0  0  0  0  0  0  0  0  0  0  0
   -3.6960   21.8310  -31.6460 N   0  0  0  0  0  0  0  0  0  0  0  0
   -2.6090   21.3040  -32.2800 C   0  0  0  0  0  0  0  0  0  0  0  0
   -1.1970   21.6310  -31.9810 C   0  0  0  0  0  0  0  0  0  0  0  0
   -0.2950   21.3680  -32.8190 O   0  0  0  0  0  0  0  0  0  0  0  0
   -0.8420   22.2810  -30.7590 N   0  0  0  0  0  0  0  0  0  0  0  0
    0.1520   22.5430  -30.5740 H   0  0  0  0  0  0  0  0  0  0  0  0
   -1.5530   22.4650  -30.0160 H   0  0  0  0  0  0  0  0  0  0  0  0
   -3.0040   20.3310  -33.1960 C   0  0  0  0  0  0  0  0  0  0  0  0
   -2.3569   19.7326  -33.8541 H   0  0  0  0  0  0  0  0  0  0  0  0
   -4.3770   20.2780  -33.1020 C   0  0  0  0  0  0  0  0  0  0  0  0
   -5.2890   19.4910  -33.7950 C   0  0  0  0  0  0  0  0  0  0  0  0
   -4.9511   18.7558  -34.5402 H   0  0  0  0  0  0  0  0  0  0  0  0
   -6.6540   19.6620  -33.5160 C   0  0  0  0  0  0  0  0  0  0  0  0
   -7.3958   19.0470  -34.0466 H   0  0  0  0  0  0  0  0  0  0  0  0
   -7.0940   20.6180  -32.5580 C   0  0  0  0  0  0  0  0  0  0  0  0
   -8.5090   20.7970  -32.2860 N   0  0  0  0  0  0  0  0  0  0  0  0
   -9.4720   19.7450  -32.6340 C   0  0  0  0  0  0  0  0  0  0  0  0
   -9.8785   19.3009  -31.7134 H   0  0  0  0  0  0  0  0  0  0  0  0
  -10.2920   20.1794  -33.2247 H   0  0  0  0  0  0  0  0  0  0  0  0
   -8.9670   18.9665  -33.2247 H   0  0  0  0  0  0  0  0  0  0  0  0
   -8.9960   22.0280  -31.6530 C   0  0  0  0  0  0  0  0  0  0  0  0
   -8.9531   21.9196  -30.5592 H   0  0  0  0  0  0  0  0  0  0  0  0
   -8.3648   22.8740  -31.9626 H   0  0  0  0  0  0  0  0  0  0  0  0
  -10.0351   22.2132  -31.9626 H   0  0  0  0  0  0  0  0  0  0  0  0
   -6.1250   21.3990  -31.8760 C   0  0  0  0  0  0  0  0  0  0  0  0
   -6.4327   22.1537  -31.1372 H   0  0  0  0  0  0  0  0  0  0  0  0
   -4.7700   21.1910  -32.1610 C   0  0  0  0  0  0  0  0  0  0  0  0
   -2.5480   24.5410  -28.0260 C   0  0  0  0  0  0  0  0  0  0  0  0
   -2.7889   25.1454  -27.1391 H   0  0  0  0  0  0  0  0  0  0  0  0
   -1.3570   24.9120  -28.8110 C   0  0  0  0  0  0  0  0  0  0  0  0
   -1.2370   26.0530  -29.3290 O   0  0  0  0  0  0  0  0  0  0  0  0
   -0.3410   23.9800  -28.9800 O   0  0  0  0  0  0  0  0  0  0  0  0
  1  2  1  0
  2  3  1  0
  3  4  1  0
  4  5  2  0
  4  6  1  0
  6  7  1  0
  7  8  1  0
  8  9  2  0
  8 10  1  0
 10 11  1  0
 10 12  1  0
  7 13  2  0
 13 14  1  0
 13 15  1  0
 15 16  2  0
 16 17  1  0
 16 18  1  0
 18 19  1  0
 18 20  2  0
 20 21  1  0
 21 22  1  0
 22 23  1  0
 22 24  1  0
 22 25  1  0
 21 26  1  0
 26 27  1  0
 26 28  1  0
 26 29  1  0
 20 30  1  0
 30 31  1  0
 30 32  2  0
  2 33  2  0
 33 34  1  0
 33 35  1  0
 35 36  2  0
 35 37  1  0
 32  6  1  0
 32 15  1  0
M  CHG  1  37  -1
M  END
>  <UniqueID>  (3) 
3

>  <SMILES>  (3) 
CN(C)c1ccc2cc(C(N)=O)n(C(=O)O/C=C\C(=O)[O-])c2c1

>  <Energy>  (3) 
74.85880057001374

>  <Genealogy>  (3) 
CN(C)c1ccc2cc(C(N)=O)n(C(=O)OC=CC(=O)[O-])c2c1 (protonated)
CN(C)c1ccc2cc(C(N)=O)n(C(=O)O/C=C\C(=O)[O-])c2c1 (cis-trans isomerization)
CN(C)c1ccc2cc(C(N)=O)n(C(=O)O/C=C\C(=O)[O-])c2c1 (3D coordinates assigned)
CN(C)c1ccc2cc(C(N)=O)n(C(=O)O/C=C\C(=O)[O-])c2c1 (optimized conformer: 74.85880057001374 kcal/mol)

>  <smiles>  (3) 
CN(C)c1ccc2cc(C(N)=O)n(C(=O)OC=CC(=O)O)c2c1

>  <score_type>  (3) 
oracle

>  <origin>  (3) 
adg

>  <m_score__min__energy>  (3) 
-10.81

>  <m_primary>  (3) 
energy

$$$$
3:0
     RDKit          3D

 45 46  0  0  0  0  0  0  0  0999 V2000
   -3.3070   23.4450  -27.6100 C   0  0  0  0  0  0  0  0  0  0  0  0
   -1.9320   23.1600  -28.2300 C   0  0  2  0  0  0  0  0  0  0  0  0
   -1.3340   24.4060  -28.8400 C   0  0  0  0  0  0  0  0  0  0  0  0
   -2.0710   25.2950  -29.3480 O   0  0  0  0  0  0  0  0  0  0  0  0
    0.0500   24.5480  -28.9020 O   0  0  0  0  0  0  0  0  0  0  0  0
   -2.0270   22.0570  -29.2050 N   0  0  0  0  0  0  0  0  0  0  0  0
   -0.8650   21.2010  -29.4660 C   0  0  0  0  0  0  0  0  0  0  0  0
   -3.2460   21.7460  -29.8960 C   0  0  0  0  0  0  0  0  0  0  0  0
   -3.8510   20.6720  -29.6310 O   0  0  0  0  0  0  0  0  0  0  0  0
   -3.8030   22.6740  -30.8950 C   0  0  0  0  0  0  0  0  0  0  0  0
   -3.0290   23.3810  -31.5960 O   0  0  0  0  0  0  0  0  0  0  0  0
   -5.2210   22.7760  -31.0830 N   0  0  0  0  0  0  0  0  0  0  0  0
   -6.0240   23.8320  -30.7740 C   0  0  0  0  0  0  0  0  0  0  0  0
   -5.5510   25.1510  -30.2970 C   0  0  0  0  0  0  0  0  0  0  0  0
   -4.2000   25.5640  -30.5030 N   0  0  0  0  0  0  0  0  0  0  0  0
   -6.3360   25.9200  -29.6810 O   0  0  0  0  0  0  0  0  0  0  0  0
   -7.3570   23.5210  -31.0450 C   0  0  0  0  0  0  0  0  0  0  0  0
   -7.3390   22.2300  -31.5270 C   0  0  0  0  0  0  0  0  0  0  0  0
   -8.3840   21.4100  -31.9390 C   0  0  0  0  0  0  0  0  0  0  0  0
   -8.0740   20.1060  -32.3640 C   0  0  0  0  0  0  0  0  0  0  0  0
   -6.7290   19.6360  -32.3720 C   0  0  0  0  0  0  0  0  0  0  0  0
   -6.4190   18.2870  -32.8110 N   0  0  0  0  0  0  0  0  0  0  0  0
   -6.1140   18.0170  -34.2190 C   0  0  0  0  0  0  0  0  0  0  0  0
   -6.3940   17.1750  -31.8480 C   0  0  0  0  0  0  0  0  0  0  0  0
   -5.6990   20.5070  -31.9390 C   0  0  0  0  0  0  0  0  0  0  0  0
   -6.0390   21.8030  -31.5370 C   0  0  0  0  0  0  0  0  0  0  0  0
   -3.2253   23.4281  -26.5132 H   0  0  0  0  0  0  0  0  0  0  0  0
   -3.6582   24.4350  -27.9363 H   0  0  0  0  0  0  0  0  0  0  0  0
   -4.0228   22.6761  -27.9363 H   0  0  0  0  0  0  0  0  0  0  0  0
   -1.2482   22.8416  -27.4293 H   0  0  0  0  0  0  0  0  0  0  0  0
   -0.4259   20.8775  -28.5107 H   0  0  0  0  0  0  0  0  0  0  0  0
   -1.1815   20.3186  -30.0415 H   0  0  0  0  0  0  0  0  0  0  0  0
   -0.1161   21.7648  -30.0415 H   0  0  0  0  0  0  0  0  0  0  0  0
   -3.8620   26.4620  -30.0970 H   0  0  0  0  0  0  0  0  0  0  0  0
   -3.5430   25.0030  -31.0850 H   0  0  0  0  0  0  0  0  0  0  0  0
   -8.2351   24.1683  -30.9040 H   0  0  0  0  0  0  0  0  0  0  0  0
   -9.4230   21.7711  -31.9326 H   0  0  0  0  0  0  0  0  0  0  0  0
   -8.8827   19.4381  -32.6956 H   0  0  0  0  0  0  0  0  0  0  0  0
   -5.2918   17.2891  -34.2830 H   0  0  0  0  0  0  0  0  0  0  0  0
   -7.0060   17.6071  -34.7153 H   0  0  0  0  0  0  0  0  0  0  0  0
   -5.8153   18.9521  -34.7153 H   0  0  0  0  0  0  0  0  0  0  0  0
   -6.4030   17.5765  -30.8239 H   0  0  0  0  0  0  0  0  0  0  0  0
   -7.2781   16.5383  -32.0000 H   0  0  0  0  0  0  0  0  0  0  0  0
   -5.4822   16.5787  -32.0000 H   0  0  0  0  0  0  0  0  0  0  0  0
   -4.6519   20.1706  -31.9193 H   0  0  0  0  0  0  0  0  0  0  0  0
  1  2  1  0
  2  3  1  0
  3  4  2  0
  3  5  1  0
  2  6  1  0
  6  7  1  0
  6  8  1  0
  8  9  2  0
  8 10  1  0
 10 11  2  0
 10 12  1  0
 12 13  1  0
 13 14  1  0
 14 15  1  0
 14 16  2  0
 13 17  2  0
 17 18  1  0
 18 19  2  0
 19 20  1  0
 20 21  2  0
 21 22  1  0
 22 23  1  0
 22 24  1  0
 21 25  1  0
 25 26  2  0
 26 12  1  0
 26 18  1  0
  1 27  1  0
  1 28  1  0
  1 29  1  0
  2 30  1  1
  7 31  1  0
  7 32  1  0
  7 33  1  0
 15 34  1  0
 15 35  1  0
 17 36  1  0
 19 37  1  0
 20 38  1  0
 23 39  1  0
 23 40  1  0
 23 41  1  0
 24 42  1  0
 24 43  1  0
 24 44  1  0
 25 45  1  0
M  CHG  1   5  -1
M  END
>  <UniqueID>  (4) 
4

>  <SMILES>  (4) 
C[C@H](C(=O)[O-])N(C)C(=O)C(=O)n1c(C(N)=O)cc2ccc(N(C)C)cc21

>  <Energy>  (4) 
89.18884528045301

>  <Genealogy>  (4) 
CC(C(=O)[O-])N(C)C(=O)C(=O)n1c(C(N)=O)cc2ccc(N(C)C)cc21 (protonated)
C[C@H](C(=O)[O-])N(C)C(=O)C(=O)n1c(C(N)=O)cc2ccc(N(C)C)cc21 (chirality)
C[C@H](C(=O)[O-])N(C)C(=O)C(=O)n1c(C(N)=O)cc2ccc(N(C)C)cc21 (3D coordinates assigned)
C[C@H](C(=O)[O-])N(C)C(=O)C(=O)n1c(C(N)=O)cc2ccc(N(C)C)cc21 (optimized conformer: 89.18884528045301 kcal/mol)

>  <smiles>  (4) 
CC(C(=O)O)N(C)C(=O)C(=O)n1c(C(N)=O)cc2ccc(N(C)C)cc21

>  <score_type>  (4) 
oracle

>  <origin>  (4) 
adg

>  <m_score__min__energy>  (4) 
-10.93

>  <m_primary>  (4) 
energy

$$$$
4:0
     RDKit          3D

 34 35  0  0  0  0  0  0  0  0999 V2000
   -6.2940   16.7640  -33.3650 C   0  0  0  0  0  0  0  0  0  0  0  0
   -5.5910   17.6640  -32.4590 N   0  0  0  0  0  0  0  0  0  0  0  0
   -5.8690   19.0730  -32.3640 C   0  0  0  0  0  0  0  0  0  0  0  0
   -6.9140   19.6240  -33.1470 C   0  0  0  0  0  0  0  0  0  0  0  0
   -7.2140   20.9950  -33.0880 C   0  0  0  0  0  0  0  0  0  0  0  0
   -6.4620   21.7910  -32.2310 C   0  0  0  0  0  0  0  0  0  0  0  0
   -6.5220   23.1450  -32.0000 C   0  0  0  0  0  0  0  0  0  0  0  0
   -5.5240   23.4060  -31.0630 C   0  0  0  0  0  0  0  0  0  0  0  0
   -5.2490   24.7570  -30.5230 C   0  0  0  0  0  0  0  0  0  0  0  0
   -3.9350   25.3080  -30.5430 N   0  0  0  0  0  0  0  0  0  0  0  0
   -6.1860   25.4250  -30.0110 O   0  0  0  0  0  0  0  0  0  0  0  0
   -4.8830   22.2530  -30.7130 N   0  0  0  0  0  0  0  0  0  0  0  0
   -3.7210   22.1130  -29.8790 C   0  0  0  0  0  0  0  0  0  0  0  0
   -3.8700   22.0050  -28.6330 O   0  0  0  0  0  0  0  0  0  0  0  0
   -2.3490   22.2200  -30.4140 C   0  0  0  0  0  0  0  0  0  0  0  0
   -1.3900   23.0490  -29.9800 C   0  0  0  0  0  0  0  0  0  0  0  0
   -1.5970   24.3280  -28.7330 P   0  0  2  0  0  0  0  0  0  0  0  0
   -1.3460   25.6900  -29.3360 O   0  0  0  0  0  0  0  0  0  0  0  0
   -0.4700   24.0620  -27.4990 O   0  0  0  0  0  0  0  0  0  0  0  0
   -3.1490   24.2770  -28.0650 O   0  0  0  0  0  0  0  0  0  0  0  0
   -5.4560   21.2770  -31.4520 C   0  0  0  0  0  0  0  0  0  0  0  0
   -5.1210   19.9190  -31.5080 C   0  0  0  0  0  0  0  0  0  0  0  0
   -6.8676   16.0297  -32.7804 H   0  0  0  0  0  0  0  0  0  0  0  0
   -6.9802   17.3445  -33.9991 H   0  0  0  0  0  0  0  0  0  0  0  0
   -5.5646   16.2387  -33.9991 H   0  0  0  0  0  0  0  0  0  0  0  0
   -4.8390   17.2560  -31.8580 H   0  0  0  0  0  0  0  0  0  0  0  0
   -7.4982   18.9690  -33.8101 H   0  0  0  0  0  0  0  0  0  0  0  0
   -8.0193   21.4258  -33.7011 H   0  0  0  0  0  0  0  0  0  0  0  0
   -7.2119   23.8691  -32.4579 H   0  0  0  0  0  0  0  0  0  0  0  0
   -3.4910   25.6710  -29.6710 H   0  0  0  0  0  0  0  0  0  0  0  0
   -2.0889   21.5544  -31.2502 H   0  0  0  0  0  0  0  0  0  0  0  0
   -0.3901   22.9376  -30.4247 H   0  0  0  0  0  0  0  0  0  0  0  0
   -3.7550   24.1690  -28.8400 H   0  0  0  0  0  0  0  0  0  0  0  0
   -4.2958   19.5177  -30.9013 H   0  0  0  0  0  0  0  0  0  0  0  0
  1  2  1  0
  2  3  1  0
  3  4  2  0
  4  5  1  0
  5  6  2  0
  6  7  1  0
  7  8  2  0
  8  9  1  0
  9 10  1  0
  9 11  2  0
  8 12  1  0
 12 13  1  0
 13 14  2  0
 13 15  1  0
 15 16  2  3
 16 17  1  0
 17 18  2  0
 17 19  1  1
 17 20  1  0
 12 21  1  0
 21 22  2  0
 22  3  1  0
 21  6  1  0
  1 23  1  0
  1 24  1  0
  1 25  1  0
  2 26  1  0
  4 27  1  0
  5 28  1  0
  7 29  1  0
 10 30  1  0
 15 31  1  0
 16 32  1  0
 20 33  1  0
 22 34  1  0
M  CHG  2  10  -1  19  -1
M  END
>  <UniqueID>  (5) 
5

>  <SMILES>  (5) 
CNc1ccc2cc(C([NH-])=O)n(C(=O)C=C[P@](=O)([O-])O)c2c1

>  <Energy>  (5) 
72.07356129761592

>  <Genealogy>  (5) 
CNc1ccc2cc(C([NH-])=O)n(C(=O)C=CP(=O)([O-])O)c2c1 (protonated)
CNc1ccc2cc(C([NH-])=O)n(C(=O)C=C[P@](=O)([O-])O)c2c1 (chirality)
CNc1ccc2cc(C([NH-])=O)n(C(=O)C=C[P@](=O)([O-])O)c2c1 (3D coordinates assigned)
CNc1ccc2cc(C([NH-])=O)n(C(=O)C=C[P@](=O)([O-])O)c2c1 (optimized conformer: 72.07356129761592 kcal/mol)

>  <smiles>  (5) 
CNc1ccc2cc(C(N)=O)n(C(=O)C=CP(=O)(O)O)c2c1

>  <score_type>  (5) 
oracle

>  <origin>  (5) 
adg

>  <m_score__min__energy>  (5) 
-11.69

>  <m_primary>  (5) 
energy

$$$$
5:0
     RDKit          3D

 42 43  0  0  0  0  0  0  0  0999 V2000
   -8.8930   18.2260  -31.9670 C   0  0  0  0  0  0  0  0  0  0  0  0
   -7.8530   18.9840  -32.6660 N   0  0  0  0  0  0  0  0  0  0  0  0
   -7.7210   20.2980  -32.0890 C   0  0  0  0  0  0  0  0  0  0  0  0
   -8.8590   20.9680  -31.5640 C   0  0  0  0  0  0  0  0  0  0  0  0
   -8.7400   22.2510  -31.0010 C   0  0  0  0  0  0  0  0  0  0  0  0
   -7.4810   22.8450  -30.9900 C   0  0  0  0  0  0  0  0  0  0  0  0
   -7.0820   24.0790  -30.5180 C   0  0  0  0  0  0  0  0  0  0  0  0
   -5.7150   24.1500  -30.7860 C   0  0  0  0  0  0  0  0  0  0  0  0
   -4.8750   25.3310  -30.4980 C   0  0  0  0  0  0  0  0  0  0  0  0
   -3.5080   25.1600  -30.1290 N   0  0  0  0  0  0  0  0  0  0  0  0
   -5.3580   26.4930  -30.5560 O   0  0  0  0  0  0  0  0  0  0  0  0
   -5.2930   23.0090  -31.3930 N   0  0  0  0  0  0  0  0  0  0  0  0
   -3.9740   22.7060  -31.8630 C   0  0  0  0  0  0  0  0  0  0  0  0
   -2.9730   23.0740  -31.1870 O   0  0  0  0  0  0  0  0  0  0  0  0
   -3.7980   21.8880  -33.1100 C   0  0  0  0  0  0  0  0  0  0  0  0
   -3.4350   20.4630  -32.7880 C   0  0  0  0  0  0  0  0  0  0  0  0
   -3.6430   20.0520  -31.6120 O   0  0  0  0  0  0  0  0  0  0  0  0
   -2.9140   19.5460  -33.7810 N   0  0  0  0  0  0  0  0  0  0  0  0
   -1.5220   19.7010  -34.2170 C   0  0  0  0  0  0  0  0  0  0  0  0
   -3.7540   18.5160  -34.4150 C   0  0  0  0  0  0  0  0  0  0  0  0
   -5.1360   18.5430  -33.8430 C   0  0  0  0  0  0  0  0  0  0  0  0
   -6.0780   19.0850  -34.4830 O   0  0  0  0  0  0  0  0  0  0  0  0
   -5.3890   17.9720  -32.6020 O   0  0  0  0  0  0  0  0  0  0  0  0
   -6.3790   22.2200  -31.5110 C   0  0  0  0  0  0  0  0  0  0  0  0
   -6.4610   20.9400  -32.0670 C   0  0  0  0  0  0  0  0  0  0  0  0
   -8.7534   18.3278  -30.8807 H   0  0  0  0  0  0  0  0  0  0  0  0
   -9.8824   18.6163  -32.2477 H   0  0  0  0  0  0  0  0  0  0  0  0
   -8.8244   17.1646  -32.2477 H   0  0  0  0  0  0  0  0  0  0  0  0
   -6.9460   18.4640  -32.5990 H   0  0  0  0  0  0  0  0  0  0  0  0
   -8.1050   19.0630  -33.6800 H   0  0  0  0  0  0  0  0  0  0  0  0
   -9.8432   20.4779  -31.5984 H   0  0  0  0  0  0  0  0  0  0  0  0
   -9.6150   22.7695  -30.5820 H   0  0  0  0  0  0  0  0  0  0  0  0
   -7.7081   24.8431  -30.0340 H   0  0  0  0  0  0  0  0  0  0  0  0
   -2.7460   25.2540  -30.8350 H   0  0  0  0  0  0  0  0  0  0  0  0
   -4.7391   21.8972  -33.6794 H   0  0  0  0  0  0  0  0  0  0  0  0
   -2.9798   22.3281  -33.6990 H   0  0  0  0  0  0  0  0  0  0  0  0
   -0.8677   19.7739  -33.3358 H   0  0  0  0  0  0  0  0  0  0  0  0
   -1.2278   18.8301  -34.8211 H   0  0  0  0  0  0  0  0  0  0  0  0
   -1.4266   20.6153  -34.8211 H   0  0  0  0  0  0  0  0  0  0  0  0
   -3.8061   18.7068  -35.4971 H   0  0  0  0  0  0  0  0  0  0  0  0
   -3.3095   17.5278  -34.2256 H   0  0  0  0  0  0  0  0  0  0  0  0
   -5.5684   20.4448  -32.4769 H   0  0  0  0  0  0  0  0  0  0  0  0
  1  2  1  0
  2  3  1  0
  3  4  2  0
  4  5  1  0
  5  6  2  0
  6  7  1  0
  7  8  2  0
  8  9  1  0
  9 10  1  0
  9 11  2  0
  8 12  1  0
 12 13  1  0
 13 14  2  0
 13 15  1  0
 15 16  1  0
 16 17  2  0
 16 18  1  0
 18 19  1  0
 18 20  1  0
 20 21  1  0
 21 22  2  0
 21 23  1  0
 12 24  1  0
 24 25  2  0
 25  3  1  0
 24  6  1  0
  1 26  1  0
  1 27  1  0
  1 28  1  0
  2 29  1  0
  2 30  1  0
  4 31  1  0
  5 32  1  0
  7 33  1  0
 10 34  1  0
 15 35  1  0
 15 36  1  0
 19 37  1  0
 19 38  1  0
 19 39  1  0
 20 40  1  0
 20 41  1  0
 25 42  1  0
M  CHG  3   2   1  10  -1  23  -1
M  END
>  <UniqueID>  (6) 
6

>  <SMILES>  (6) 
C[NH2+]c1ccc2cc(C([NH-])=O)n(C(=O)CC(=O)N(C)CC(=O)[O-])c2c1

>  <Energy>  (6) 
78.55478099124028

>  <Genealogy>  (6) 
C[NH2+]c1ccc2cc(C([NH-])=O)n(C(=O)CC(=O)N(C)CC(=O)[O-])c2c1 (protonated)
C[NH2+]c1ccc2cc(C([NH-])=O)n(C(=O)CC(=O)N(C)CC(=O)[O-])c2c1 (3D coordinates assigned)
C[NH2+]c1ccc2cc(C([NH-])=O)n(C(=O)CC(=O)N(C)CC(=O)[O-])c2c1 (optimized conformer: 78.55478099124028 kcal/mol)

>  <smiles>  (6) 
CNc1ccc2cc(C(N)=O)n(C(=O)CC(=O)N(C)CC(=O)O)c2c1

>  <score_type>  (6) 
oracle

>  <origin>  (6) 
adg

>  <m_score__min__energy>  (6) 
-11.98

>  <m_primary>  (6) 
energy

$$$$
6:0
     RDKit          3D

 36 39  0  0  0  0  0  0  0  0999 V2000
   -5.4080   26.5170  -30.3550 N   0  0  0  0  0  0  0  0  0  0  0  0
   -6.3100   25.5000  -29.9160 C   0  0  0  0  0  0  0  0  0  0  0  0
   -7.0970   25.7450  -28.9620 O   0  0  0  0  0  0  0  0  0  0  0  0
   -6.3800   24.1920  -30.6010 C   0  0  0  0  0  0  0  0  0  0  0  0
   -7.5770   23.5480  -30.9020 C   0  0  0  0  0  0  0  0  0  0  0  0
   -7.2140   22.4100  -31.5830 C   0  0  0  0  0  0  0  0  0  0  0  0
   -8.0060   21.3940  -32.1040 C   0  0  0  0  0  0  0  0  0  0  0  0
   -7.3640   20.3140  -32.7250 C   0  0  0  0  0  0  0  0  0  0  0  0
   -5.9470   20.2610  -32.8150 C   0  0  0  0  0  0  0  0  0  0  0  0
   -5.2760   19.1140  -33.4800 C   0  0  0  0  0  0  0  0  0  0  0  0
   -6.0250   17.9740  -33.8870 C   0  0  0  0  0  0  0  0  0  0  0  0
   -5.3930   16.8700  -34.4890 C   0  0  0  0  0  0  0  0  0  0  0  0
   -4.0160   16.9340  -34.6790 C   0  0  0  0  0  0  0  0  0  0  0  0
   -3.2160   16.0000  -35.2170 N   0  0  0  0  0  0  0  0  0  0  0  0
   -1.9960   16.5930  -35.1460 C   0  0  0  0  0  0  0  0  0  0  0  0
   -0.8050   15.9560  -35.6100 N   0  0  0  0  0  0  0  0  0  0  0  0
   -1.9910   17.8350  -34.5950 N   0  0  0  0  0  0  0  0  0  0  0  0
   -3.2900   18.0230  -34.3090 C   0  0  0  0  0  0  0  0  0  0  0  0
   -3.8760   19.1330  -33.7040 C   0  0  0  0  0  0  0  0  0  0  0  0
   -5.1790   21.3150  -32.2680 C   0  0  0  0  0  0  0  0  0  0  0  0
   -5.8460   22.3870  -31.6680 C   0  0  0  0  0  0  0  0  0  0  0  0
   -5.3170   23.4750  -31.0640 N   0  0  0  0  0  0  0  0  0  0  0  0
   -3.9200   23.7400  -30.8420 C   0  0  0  0  0  0  0  0  0  0  0  0
   -3.0730   22.8190  -30.9810 O   0  0  0  0  0  0  0  0  0  0  0  0
   -3.4880   25.0150  -30.4870 O   0  0  0  0  0  0  0  0  0  0  0  0
   -4.8590   26.4010  -31.2340 H   0  0  0  0  0  0  0  0  0  0  0  0
   -5.3450   27.4220  -29.8370 H   0  0  0  0  0  0  0  0  0  0  0  0
   -8.5952   23.8787  -30.6492 H   0  0  0  0  0  0  0  0  0  0  0  0
   -9.1028   21.4361  -32.0313 H   0  0  0  0  0  0  0  0  0  0  0  0
   -7.9654   19.4961  -33.1485 H   0  0  0  0  0  0  0  0  0  0  0  0
   -7.1134   17.9557  -33.7287 H   0  0  0  0  0  0  0  0  0  0  0  0
   -5.9687   15.9855  -34.7992 H   0  0  0  0  0  0  0  0  0  0  0  0
   -0.2630   15.3250  -34.9760 H   0  0  0  0  0  0  0  0  0  0  0  0
   -0.4660   16.1180  -36.5810 H   0  0  0  0  0  0  0  0  0  0  0  0
   -3.2686   20.0010  -33.4080 H   0  0  0  0  0  0  0  0  0  0  0  0
   -4.0802   21.2918  -32.3137 H   0  0  0  0  0  0  0  0  0  0  0  0
  1  2  1  0
  2  3  2  0
  2  4  1  0
  4  5  2  0
  5  6  1  0
  6  7  2  0
  7  8  1  0
  8  9  2  0
  9 10  1  0
 10 11  2  0
 11 12  1  0
 12 13  2  0
 13 14  1  0
 14 15  2  0
 15 16  1  0
 15 17  1  0
 17 18  1  0
 18 19  2  0
  9 20  1  0
 20 21  2  0
 21 22  1  0
 22 23  1  0
 23 24  2  0
 23 25  1  0
 22  4  1  0
 21  6  1  0
 19 10  1  0
 18 13  1  0
  1 26  1  0
  1 27  1  0
  5 28  1  0
  7 29  1  0
  8 30  1  0
 11 31  1  0
 12 32  1  0
 16 33  1  0
 16 34  1  0
 19 35  1  0
 20 36  1  0
M  CHG  2  17  -1  25  -1
M  END
>  <UniqueID>  (7) 
7

>  <SMILES>  (7) 
NC(=O)c1cc2ccc(-c3ccc4nc(N)[n-]c4c3)cc2n1C(=O)[O-]

>  <Energy>  (7) 
119.72987620251011

>  <Genealogy>  (7) 
NC(=O)c1cc2ccc(-c3ccc4nc(N)[n-]c4c3)cc2n1C(=O)[O-] (protonated)
NC(=O)c1cc2ccc(-c3ccc4nc(N)[n-]c4c3)cc2n1C(=O)[O-] (3D coordinates assigned)
NC(=O)c1cc2ccc(-c3ccc4nc(N)[n-]c4c3)cc2n1C(=O)[O-] (optimized conformer: 119.72987620251011 kcal/mol)

>  <smiles>  (7) 
NC(=O)c1cc2ccc(-c3ccc4nc(N)[nH]c4c3)cc2n1C(=O)O

>  <score_type>  (7) 
oracle

>  <origin>  (7) 
adg

>  <m_score__min__energy>  (7) 
-9.7799999999999994

>  <m_primary>  (7) 
energy

$$$$
7:0
     RDKit          3D

 44 45  0  0  0  0  0  0  0  0999 V2000
    0.6040   20.9350  -34.9580 C   0  0  0  0  0  0  0  0  0  0  0  0
   -0.6890   20.4990  -34.3580 C   0  0  0  0  0  0  0  0  0  0  0  0
   -1.0750   19.3070  -34.5020 O   0  0  0  0  0  0  0  0  0  0  0  0
   -1.4830   21.4310  -33.6810 O   0  0  0  0  0  0  0  0  0  0  0  0
   -1.6660   21.4100  -32.2690 C   0  0  0  0  0  0  0  0  0  0  0  0
   -3.0560   21.4300  -31.9670 O   0  0  0  0  0  0  0  0  0  0  0  0
   -3.6880   22.5280  -31.3750 C   0  0  0  0  0  0  0  0  0  0  0  0
   -3.0010   23.4480  -30.8520 O   0  0  0  0  0  0  0  0  0  0  0  0
   -5.1240   22.5990  -31.3510 N   0  0  0  0  0  0  0  0  0  0  0  0
   -5.8990   23.5750  -30.7990 C   0  0  0  0  0  0  0  0  0  0  0  0
   -5.4060   24.8510  -30.2320 C   0  0  0  0  0  0  0  0  0  0  0  0
   -5.8520   25.3020  -28.9520 N   0  0  0  0  0  0  0  0  0  0  0  0
   -4.6070   25.5690  -30.8910 O   0  0  0  0  0  0  0  0  0  0  0  0
   -7.2500   23.2560  -30.9280 C   0  0  0  0  0  0  0  0  0  0  0  0
   -7.2760   22.0470  -31.5830 C   0  0  0  0  0  0  0  0  0  0  0  0
   -8.3580   21.2640  -31.9650 C   0  0  0  0  0  0  0  0  0  0  0  0
   -8.0970   20.0450  -32.6120 C   0  0  0  0  0  0  0  0  0  0  0  0
   -6.7620   19.6180  -32.8650 C   0  0  0  0  0  0  0  0  0  0  0  0
   -6.4950   18.3480  -33.5210 N   0  0  0  0  0  0  0  0  0  0  0  0
   -7.2010   17.1340  -33.0930 C   0  0  0  0  0  0  0  0  0  0  0  0
   -5.5080   18.2300  -34.6080 C   0  0  0  0  0  0  0  0  0  0  0  0
   -4.0720   18.3810  -34.0880 C   0  0  0  0  0  0  0  0  0  0  0  0
   -3.6310   19.7070  -34.1900 O   0  0  0  0  0  0  0  0  0  0  0  0
   -5.6910   20.4520  -32.4500 C   0  0  0  0  0  0  0  0  0  0  0  0
   -5.9830   21.6710  -31.8270 C   0  0  0  0  0  0  0  0  0  0  0  0
    1.3176   21.1756  -34.1562 H   0  0  0  0  0  0  0  0  0  0  0  0
    1.0113   20.1245  -35.5803 H   0  0  0  0  0  0  0  0  0  0  0  0
    0.4373   21.8266  -35.5803 H   0  0  0  0  0  0  0  0  0  0  0  0
   -1.2147   20.4963  -31.8550 H   0  0  0  0  0  0  0  0  0  0  0  0
   -1.1833   22.2932  -31.8252 H   0  0  0  0  0  0  0  0  0  0  0  0
   -5.5290   26.2220  -28.5790 H   0  0  0  0  0  0  0  0  0  0  0  0
   -6.4710   24.7110  -28.3540 H   0  0  0  0  0  0  0  0  0  0  0  0
   -8.1112   23.8454  -30.5802 H   0  0  0  0  0  0  0  0  0  0  0  0
   -9.3898   21.5894  -31.7664 H   0  0  0  0  0  0  0  0  0  0  0  0
   -8.9374   19.4097  -32.9285 H   0  0  0  0  0  0  0  0  0  0  0  0
   -7.2253   17.0922  -31.9941 H   0  0  0  0  0  0  0  0  0  0  0  0
   -8.2297   17.1516  -33.4821 H   0  0  0  0  0  0  0  0  0  0  0  0
   -6.6769   16.2486  -33.4821 H   0  0  0  0  0  0  0  0  0  0  0  0
   -5.6142   17.2424  -35.0806 H   0  0  0  0  0  0  0  0  0  0  0  0
   -5.6973   19.0356  -35.3327 H   0  0  0  0  0  0  0  0  0  0  0  0
   -4.0386   18.0723  -33.0327 H   0  0  0  0  0  0  0  0  0  0  0  0
   -3.4126   17.7475  -34.6995 H   0  0  0  0  0  0  0  0  0  0  0  0
   -2.9430   19.8330  -33.4850 H   0  0  0  0  0  0  0  0  0  0  0  0
   -4.6477   20.1451  -32.6154 H   0  0  0  0  0  0  0  0  0  0  0  0
  1  2  1  0
  2  3  2  0
  2  4  1  0
  4  5  1  0
  5  6  1  0
  6  7  1  0
  7  8  2  0
  7  9  1  0
  9 10  1  0
 10 11  1  0
 11 12  1  0
 11 13  2  0
 10 14  2  0
 14 15  1  0
 15 16  2  0
 16 17  1  0
 17 18  2  0
 18 19  1  0
 19 20  1  0
 19 21  1  0
 21 22  1  0
 22 23  1  0
 18 24  1  0
 24 25  2  0
 25  9  1  0
 25 15  1  0
  1 26  1  0
  1 27  1  0
  1 28  1  0
  5 29  1  0
  5 30  1  0
 12 31  1  0
 12 32  1  0
 14 33  1  0
 16 34  1  0
 17 35  1  0
 20 36  1  0
 20 37  1  0
 20 38  1  0
 21 39  1  0
 21 40  1  0
 22 41  1  0
 22 42  1  0
 23 43  1  0
 24 44  1  0
M  END
>  <UniqueID>  (8) 
8

>  <SMILES>  (8) 
CC(=O)OCOC(=O)n1c(C(N)=O)cc2ccc(N(C)CCO)cc21

>  <Energy>  (8) 
77.92107218482369

>  <Genealogy>  (8) 
CC(=O)OCOC(=O)n1c(C(N)=O)cc2ccc(N(C)CCO)cc21 (3D coordinates assigned)
CC(=O)OCOC(=O)n1c(C(N)=O)cc2ccc(N(C)CCO)cc21 (optimized conformer: 77.92107218482369 kcal/mol)

>  <smiles>  (8) 
CC(=O)OCOC(=O)n1c(C(N)=O)cc2ccc(N(C)CCO)cc21

>  <score_type>  (8) 
oracle

>  <origin>  (8) 
adg

>  <m_score__min__energy>  (8) 
-7.7699999999999996

>  <m_primary>  (8) 
energy

$$$$
8:0
     RDKit          3D

 33 34  0  0  0  0  0  0  0  0999 V2000
   -3.8980   25.6590  -30.8460 N   0  0  0  0  0  0  0  0  0  0  0  0
   -5.1980   25.2160  -30.4680 C   0  0  0  0  0  0  0  0  0  0  0  0
   -5.9390   25.9790  -29.7940 O   0  0  0  0  0  0  0  0  0  0  0  0
   -5.7080   23.8980  -30.9030 C   0  0  0  0  0  0  0  0  0  0  0  0
   -7.0650   23.6120  -31.0470 C   0  0  0  0  0  0  0  0  0  0  0  0
   -7.1160   22.3330  -31.5510 C   0  0  0  0  0  0  0  0  0  0  0  0
   -8.2160   21.5420  -31.8790 C   0  0  0  0  0  0  0  0  0  0  0  0
   -7.9730   20.2420  -32.3550 C   0  0  0  0  0  0  0  0  0  0  0  0
   -6.6480   19.7630  -32.4850 C   0  0  0  0  0  0  0  0  0  0  0  0
   -6.4130   18.4270  -32.9630 C   0  0  0  0  0  0  0  0  0  0  0  0
   -6.2150   17.3070  -33.3630 C   0  0  0  0  0  0  0  0  0  0  0  0
   -5.9750   15.9450  -33.8500 C   0  0  0  0  0  0  0  0  0  0  0  0
   -7.1700   15.3870  -34.3210 O   0  0  0  0  0  0  0  0  0  0  0  0
   -5.5570   20.5880  -32.1450 C   0  0  0  0  0  0  0  0  0  0  0  0
   -5.8270   21.8850  -31.6910 C   0  0  0  0  0  0  0  0  0  0  0  0
   -4.9510   22.8330  -31.2930 N   0  0  0  0  0  0  0  0  0  0  0  0
   -3.5240   22.6940  -31.2240 C   0  0  0  0  0  0  0  0  0  0  0  0
   -2.8940   22.1850  -32.1920 O   0  0  0  0  0  0  0  0  0  0  0  0
   -2.8360   23.1500  -30.0940 O   0  0  0  0  0  0  0  0  0  0  0  0
   -1.4190   23.0770  -29.9570 C   0  0  0  0  0  0  0  0  0  0  0  0
   -0.9000   24.2920  -29.2550 C   0  0  0  0  0  0  0  0  0  0  0  0
    0.1940   24.2430  -28.6350 O   0  0  0  0  0  0  0  0  0  0  0  0
   -1.6080   25.4850  -29.3110 O   0  0  0  0  0  0  0  0  0  0  0  0
   -3.0430   25.2570  -30.4010 H   0  0  0  0  0  0  0  0  0  0  0  0
   -7.9142   24.2692  -30.8084 H   0  0  0  0  0  0  0  0  0  0  0  0
   -9.2419   21.9232  -31.7688 H   0  0  0  0  0  0  0  0  0  0  0  0
   -8.8181   19.5930  -32.6281 H   0  0  0  0  0  0  0  0  0  0  0  0
   -5.2398   15.9748  -34.6677 H   0  0  0  0  0  0  0  0  0  0  0  0
   -5.5898   15.3290  -33.0241 H   0  0  0  0  0  0  0  0  0  0  0  0
   -7.0200   14.4080  -34.3910 H   0  0  0  0  0  0  0  0  0  0  0  0
   -4.5229   20.2235  -32.2337 H   0  0  0  0  0  0  0  0  0  0  0  0
   -1.1568   22.1818  -29.3740 H   0  0  0  0  0  0  0  0  0  0  0  0
   -0.9659   23.0222  -30.9579 H   0  0  0  0  0  0  0  0  0  0  0  0
  1  2  1  0
  2  3  2  0
  2  4  1  0
  4  5  2  0
  5  6  1  0
  6  7  2  0
  7  8  1  0
  8  9  2  0
  9 10  1  0
 10 11  3  0
 11 12  1  0
 12 13  1  0
  9 14  1  0
 14 15  2  0
 15 16  1  0
 16 17  1  0
 17 18  2  0
 17 19  1  0
 19 20  1  0
 20 21  1  0
 21 22  2  0
 21 23  1  0
 16  4  1  0
 15  6  1  0
  1 24  1  0
  5 25  1  0
  7 26  1  0
  8 27  1  0
 12 28  1  0
 12 29  1  0
 13 30  1  0
 14 31  1  0
 20 32  1  0
 20 33  1  0
M  CHG  2   1  -1  23  -1
M  END
>  <UniqueID>  (9) 
9

>  <SMILES>  (9) 
[NH-]C(=O)c1cc2ccc(C#CCO)cc2n1C(=O)OCC(=O)[O-]

>  <Energy>  (9) 
65.54605129523837

>  <Genealogy>  (9) 
[NH-]C(=O)c1cc2ccc(C#CCO)cc2n1C(=O)OCC(=O)[O-] (protonated)
[NH-]C(=O)c1cc2ccc(C#CCO)cc2n1C(=O)OCC(=O)[O-] (3D coordinates assigned)
[NH-]C(=O)c1cc2ccc(C#CCO)cc2n1C(=O)OCC(=O)[O-] (optimized conformer: 65.54605129523837 kcal/mol)

>  <smiles>  (9) 
NC(=O)c1cc2ccc(C#CCO)cc2n1C(=O)OCC(=O)O

>  <score_type>  (9) 
oracle

>  <origin>  (9) 
adg

>  <m_score__min__energy>  (9) 
-12.17

>  <m_primary>  (9) 
energy

$$$$
9:0
     RDKit          3D

 36 37  0  0  0  0  0  0  0  0999 V2000
    4.3440   21.8980  -37.5830 N   0  0  0  0  0  0  0  0  0  0  0  0
    3.4520   20.7900  -37.4970 C   0  0  0  0  0  0  0  0  0  0  0  0
    3.3390   20.0120  -38.4830 O   0  0  0  0  0  0  0  0  0  0  0  0
    2.7060   20.5090  -36.2540 C   0  0  0  0  0  0  0  0  0  0  0  0
    2.8280   19.3170  -35.5420 C   0  0  0  0  0  0  0  0  0  0  0  0
    2.0570   19.4850  -34.4150 C   0  0  0  0  0  0  0  0  0  0  0  0
    1.8070   18.6090  -33.3630 C   0  0  0  0  0  0  0  0  0  0  0  0
    0.9430   19.0350  -32.3410 C   0  0  0  0  0  0  0  0  0  0  0  0
    0.3390   20.3210  -32.3880 C   0  0  0  0  0  0  0  0  0  0  0  0
   -0.5580   20.7720  -31.3570 N   0  0  0  0  0  0  0  0  0  0  0  0
   -0.1430   20.9770  -29.9660 C   0  0  0  0  0  0  0  0  0  0  0  0
   -0.5810   22.3530  -29.4500 C   0  0  0  0  0  0  0  0  0  0  0  0
   -1.2610   23.0750  -30.4600 O   0  0  0  0  0  0  0  0  0  0  0  0
   -2.6520   23.1300  -30.2100 C   0  0  0  0  0  0  0  0  0  0  0  0
   -3.1110   24.7830  -29.6060 P   0  0  0  0  0  0  0  0  0  0  0  0
   -4.0490   24.6450  -28.4310 O   0  0  0  0  0  0  0  0  0  0  0  0
   -1.7190   25.6090  -29.1180 O   0  0  0  0  0  0  0  0  0  0  0  0
   -3.8790   25.6540  -30.8360 O   0  0  0  0  0  0  0  0  0  0  0  0
    0.6190   21.1780  -33.4770 C   0  0  0  0  0  0  0  0  0  0  0  0
    1.4980   20.7350  -34.4720 C   0  0  0  0  0  0  0  0  0  0  0  0
    1.8850   21.3760  -35.5970 N   0  0  0  0  0  0  0  0  0  0  0  0
    1.4310   22.6650  -36.0450 C   0  0  0  0  0  0  0  0  0  0  0  0
    0.2760   23.0700  -35.7510 O   0  0  0  0  0  0  0  0  0  0  0  0
    2.2540   23.4630  -36.8300 O   0  0  0  0  0  0  0  0  0  0  0  0
    4.0140   22.8280  -37.9240 H   0  0  0  0  0  0  0  0  0  0  0  0
    3.4158   18.4303  -35.8217 H   0  0  0  0  0  0  0  0  0  0  0  0
    2.2722   17.6127  -33.3328 H   0  0  0  0  0  0  0  0  0  0  0  0
    0.7312   18.3657  -31.4942 H   0  0  0  0  0  0  0  0  0  0  0  0
   -1.5530   20.9640  -31.6200 H   0  0  0  0  0  0  0  0  0  0  0  0
   -0.5984   20.1973  -29.3378 H   0  0  0  0  0  0  0  0  0  0  0  0
    0.9547   20.9226  -29.9200 H   0  0  0  0  0  0  0  0  0  0  0  0
   -1.2520   22.2185  -28.5888 H   0  0  0  0  0  0  0  0  0  0  0  0
    0.3138   22.9196  -29.1530 H   0  0  0  0  0  0  0  0  0  0  0  0
   -3.1980   22.9178  -31.1410 H   0  0  0  0  0  0  0  0  0  0  0  0
   -2.9113   22.3819  -29.4464 H   0  0  0  0  0  0  0  0  0  0  0  0
    0.1552   22.1734  -33.5410 H   0  0  0  0  0  0  0  0  0  0  0  0
  1  2  1  0
  2  3  2  0
  2  4  1  0
  4  5  2  0
  5  6  1  0
  6  7  2  0
  7  8  1  0
  8  9  2  0
  9 10  1  0
 10 11  1  0
 11 12  1  0
 12 13  1  0
 13 14  1  0
 14 15  1  0
 15 16  2  0
 15 17  1  0
 15 18  1  0
  9 19  1  0
 19 20  2  0
 20 21  1  0
 21 22  1  0
 22 23  2  0
 22 24  1  0
 21  4  1  0
 20  6  1  0
  1 25  1  0
  5 26  1  0
  7 27  1  0
  8 28  1  0
 10 29  1  0
 11 30  1  0
 11 31  1  0
 12 32  1  0
 12 33  1  0
 14 34  1  0
 14 35  1  0
 19 36  1  0
M  CHG  4   1  -1  17  -1  18  -1  24  -1
M  END
>  <UniqueID>  (10) 
10

>  <SMILES>  (10) 
[NH-]C(=O)c1cc2ccc(NCCOCP(=O)([O-])[O-])cc2n1C(=O)[O-]

>  <Energy>  (10) 
73.4937021247249

>  <Genealogy>  (10) 
[NH-]C(=O)c1cc2ccc(NCCOCP(=O)([O-])[O-])cc2n1C(=O)[O-] (protonated)
[NH-]C(=O)c1cc2ccc(NCCOCP(=O)([O-])[O-])cc2n1C(=O)[O-] (3D coordinates assigned)
[NH-]C(=O)c1cc2ccc(NCCOCP(=O)([O-])[O-])cc2n1C(=O)[O-] (optimized conformer: 73.4937021247249 kcal/mol)

>  <smiles>  (10) 
NC(=O)c1cc2ccc(NCCOCP(=O)(O)O)cc2n1C(=O)O

>  <score_type>  (10) 
oracle

>  <origin>  (10) 
adg

>  <m_score__min__energy>  (10) 
-12.210000000000001

>  <m_primary>  (10) 
energy

$$$$
10:0
     RDKit          3D

 40 41  0  0  0  0  0  0  0  0999 V2000
   -2.7370   21.0940  -28.8610 C   0  0  0  0  0  0  0  0  0  0  0  0
   -2.8490   22.6300  -28.8340 C   0  0  0  0  0  0  0  0  0  0  0  0
   -4.1300   23.0690  -28.1000 C   0  0  0  0  0  0  0  0  0  0  0  0
   -1.6320   23.2050  -28.0920 C   0  0  0  0  0  0  0  0  0  0  0  0
   -2.8220   23.1630  -30.1660 O   0  0  0  0  0  0  0  0  0  0  0  0
   -3.5640   22.6980  -31.2630 C   0  0  0  0  0  0  0  0  0  0  0  0
   -2.9900   22.1800  -32.2590 O   0  0  0  0  0  0  0  0  0  0  0  0
   -4.9920   22.8390  -31.2600 N   0  0  0  0  0  0  0  0  0  0  0  0
   -5.7180   23.9570  -30.9710 C   0  0  0  0  0  0  0  0  0  0  0  0
   -5.1790   25.2290  -30.4460 C   0  0  0  0  0  0  0  0  0  0  0  0
   -3.8820   25.6670  -30.8430 N   0  0  0  0  0  0  0  0  0  0  0  0
   -5.8670   25.9530  -29.6790 O   0  0  0  0  0  0  0  0  0  0  0  0
   -7.0770   23.7200  -31.1630 C   0  0  0  0  0  0  0  0  0  0  0  0
   -7.1660   22.4110  -31.5750 C   0  0  0  0  0  0  0  0  0  0  0  0
   -8.2820   21.6540  -31.9200 C   0  0  0  0  0  0  0  0  0  0  0  0
   -8.0750   20.3280  -32.3410 C   0  0  0  0  0  0  0  0  0  0  0  0
   -6.7660   19.7970  -32.4140 C   0  0  0  0  0  0  0  0  0  0  0  0
   -6.5670   18.4440  -32.8580 C   0  0  0  0  0  0  0  0  0  0  0  0
   -6.3970   17.3100  -33.2310 C   0  0  0  0  0  0  0  0  0  0  0  0
   -6.1910   15.9310  -33.6850 C   0  0  0  0  0  0  0  0  0  0  0  0
   -7.2250   15.5520  -34.5520 O   0  0  0  0  0  0  0  0  0  0  0  0
   -5.6570   20.5890  -32.0590 C   0  0  0  0  0  0  0  0  0  0  0  0
   -5.8940   21.9010  -31.6260 C   0  0  0  0  0  0  0  0  0  0  0  0
   -2.7090   20.7102  -27.8305 H   0  0  0  0  0  0  0  0  0  0  0  0
   -3.6068   20.6721  -29.3859 H   0  0  0  0  0  0  0  0  0  0  0  0
   -1.8152   20.8027  -29.3859 H   0  0  0  0  0  0  0  0  0  0  0  0
   -3.9674   23.0133  -27.0135 H   0  0  0  0  0  0  0  0  0  0  0  0
   -4.3775   24.1033  -28.3811 H   0  0  0  0  0  0  0  0  0  0  0  0
   -4.9599   22.4040  -28.3811 H   0  0  0  0  0  0  0  0  0  0  0  0
   -1.7944   23.1283  -27.0068 H   0  0  0  0  0  0  0  0  0  0  0  0
   -0.7316   22.6371  -28.3691 H   0  0  0  0  0  0  0  0  0  0  0  0
   -1.4990   24.2612  -28.3691 H   0  0  0  0  0  0  0  0  0  0  0  0
   -3.0240   25.2980  -30.3750 H   0  0  0  0  0  0  0  0  0  0  0  0
   -7.9043   24.4299  -31.0161 H   0  0  0  0  0  0  0  0  0  0  0  0
   -9.2948   22.0797  -31.8651 H   0  0  0  0  0  0  0  0  0  0  0  0
   -8.9359   19.7004  -32.6150 H   0  0  0  0  0  0  0  0  0  0  0  0
   -5.2287   15.8614  -34.2134 H   0  0  0  0  0  0  0  0  0  0  0  0
   -6.1872   15.2606  -32.8129 H   0  0  0  0  0  0  0  0  0  0  0  0
   -7.2400   16.2200  -35.2870 H   0  0  0  0  0  0  0  0  0  0  0  0
   -4.6339   20.1895  -32.1198 H   0  0  0  0  0  0  0  0  0  0  0  0
  1  2  1  0
  2  3  1  0
  2  4  1  0
  2  5  1  0
  5  6  1  0
  6  7  2  0
  6  8  1  0
  8  9  1  0
  9 10  1  0
 10 11  1  0
 10 12  2  0
  9 13  2  0
 13 14  1  0
 14 15  2  0
 15 16  1  0
 16 17  2  0
 17 18  1  0
 18 19  3  0
 19 20  1  0
 20 21  1  0
 17 22  1  0
 22 23  2  0
 23  8  1  0
 23 14  1  0
  1 24  1  0
  1 25  1  0
  1 26  1  0
  3 27  1  0
  3 28  1  0
  3 29  1  0
  4 30  1  0
  4 31  1  0
  4 32  1  0
 11 33  1  0
 13 34  1  0
 15 35  1  0
 16 36  1  0
 20 37  1  0
 20 38  1  0
 21 39  1  0
 22 40  1  0
M  CHG  1  11  -1
M  END
>  <UniqueID>  (11) 
11

>  <SMILES>  (11) 
CC(C)(C)OC(=O)n1c(C([NH-])=O)cc2ccc(C#CCO)cc21

>  <Energy>  (11) 
68.9943869402989

>  <Genealogy>  (11) 
CC(C)(C)OC(=O)n1c(C([NH-])=O)cc2ccc(C#CCO)cc21 (protonated)
CC(C)(C)OC(=O)n1c(C([NH-])=O)cc2ccc(C#CCO)cc21 (3D coordinates assigned)
CC(C)(C)OC(=O)n1c(C([NH-])=O)cc2ccc(C#CCO)cc21 (optimized conformer: 68.9943869402989 kcal/mol)

>  <smiles>  (11) 
CC(C)(C)OC(=O)n1c(C(N)=O)cc2ccc(C#CCO)cc21

>  <score_type>  (11) 
oracle

>  <origin>  (11) 
adg

>  <m_score__min__energy>  (11) 
-9.9800000000000004

>  <m_primary>  (11) 
energy

$$$$
11:0
     RDKit          3D

 50 52  0  0  0  0  0  0  0  0999 V2000
   -6.0270   20.7340  -31.7750 C   0  0  0  0  0  0  0  0  0  0  0  0
   -6.8770   19.1170  -32.1590 Si  0  0  0  0  0  4  0  0  0  0  0  0
   -6.2460   17.8070  -30.9910 C   0  0  0  0  0  0  0  0  0  0  0  0
   -8.7200   19.3110  -31.9220 C   0  0  0  0  0  0  0  0  0  0  0  0
   -6.5000   18.5860  -33.9210 C   0  0  0  0  0  0  0  0  0  0  0  0
   -6.4850   17.0630  -34.0640 C   0  0  0  0  0  0  0  0  0  0  0  0
   -5.3440   16.6550  -34.7970 O   0  0  0  0  0  0  0  0  0  0  0  0
   -4.6100   17.7720  -35.2590 C   0  0  0  0  0  0  0  0  0  0  0  0
   -3.5000   18.0630  -34.3560 N   0  0  0  0  0  0  0  0  0  0  0  0
   -3.4640   19.0500  -33.4430 C   0  0  0  0  0  0  0  0  0  0  0  0
   -2.2420   18.9940  -32.7940 C   0  0  0  0  0  0  0  0  0  0  0  0
   -1.7430   19.8900  -31.7150 C   0  0  0  0  0  0  0  0  0  0  0  0
   -0.6630   19.4860  -30.8850 C   0  0  0  0  0  0  0  0  0  0  0  0
   -0.1950   20.3170  -29.8530 C   0  0  0  0  0  0  0  0  0  0  0  0
   -0.8130   21.5490  -29.6770 C   0  0  0  0  0  0  0  0  0  0  0  0
   -0.5780   22.5280  -28.7390 C   0  0  0  0  0  0  0  0  0  0  0  0
   -1.4990   23.5360  -29.0200 C   0  0  0  0  0  0  0  0  0  0  0  0
   -1.5420   24.8210  -28.2920 C   0  0  0  0  0  0  0  0  0  0  0  0
   -1.2890   26.0530  -28.9610 N   0  0  0  0  0  0  0  0  0  0  0  0
   -1.7580   24.8260  -27.0510 O   0  0  0  0  0  0  0  0  0  0  0  0
   -2.2790   23.1880  -30.0840 N   0  0  0  0  0  0  0  0  0  0  0  0
   -3.4010   23.9030  -30.6240 C   0  0  0  0  0  0  0  0  0  0  0  0
   -4.3020   23.2900  -31.2560 O   0  0  0  0  0  0  0  0  0  0  0  0
   -3.4960   25.2800  -30.4710 O   0  0  0  0  0  0  0  0  0  0  0  0
   -1.8430   21.9700  -30.4750 C   0  0  0  0  0  0  0  0  0  0  0  0
   -2.3450   21.1550  -31.4980 C   0  0  0  0  0  0  0  0  0  0  0  0
   -1.5850   17.9200  -33.3810 C   0  0  0  0  0  0  0  0  0  0  0  0
   -2.3730   17.3730  -34.3260 N   0  0  0  0  0  0  0  0  0  0  0  0
   -5.9593   20.8628  -30.6847 H   0  0  0  0  0  0  0  0  0  0  0  0
   -5.0154   20.7281  -32.2070 H   0  0  0  0  0  0  0  0  0  0  0  0
   -6.6054   21.5639  -32.2070 H   0  0  0  0  0  0  0  0  0  0  0  0
   -6.4038   18.1346  -29.9528 H   0  0  0  0  0  0  0  0  0  0  0  0
   -6.7902   16.8671  -31.1656 H   0  0  0  0  0  0  0  0  0  0  0  0
   -5.1719   17.6466  -31.1656 H   0  0  0  0  0  0  0  0  0  0  0  0
   -8.9509   19.3353  -30.8468 H   0  0  0  0  0  0  0  0  0  0  0  0
   -9.0531   20.2492  -32.3898 H   0  0  0  0  0  0  0  0  0  0  0  0
   -9.2411   18.4628  -32.3898 H   0  0  0  0  0  0  0  0  0  0  0  0
   -7.2696   18.9989  -34.5898 H   0  0  0  0  0  0  0  0  0  0  0  0
   -5.5017   18.9644  -34.1862 H   0  0  0  0  0  0  0  0  0  0  0  0
   -6.4590   16.6038  -33.0647 H   0  0  0  0  0  0  0  0  0  0  0  0
   -7.3909   16.7424  -34.5993 H   0  0  0  0  0  0  0  0  0  0  0  0
   -4.2136   17.5551  -36.2619 H   0  0  0  0  0  0  0  0  0  0  0  0
   -5.2772   18.6458  -35.2960 H   0  0  0  0  0  0  0  0  0  0  0  0
   -4.2665   19.7761  -33.2459 H   0  0  0  0  0  0  0  0  0  0  0  0
   -0.1864   18.5089  -31.0526 H   0  0  0  0  0  0  0  0  0  0  0  0
    0.6354   20.0018  -29.2041 H   0  0  0  0  0  0  0  0  0  0  0  0
    0.1760   22.5174  -27.9381 H   0  0  0  0  0  0  0  0  0  0  0  0
   -1.2410   26.1000  -30.0020 H   0  0  0  0  0  0  0  0  0  0  0  0
   -3.1885   21.4896  -32.1197 H   0  0  0  0  0  0  0  0  0  0  0  0
   -0.5766   17.5703  -33.1149 H   0  0  0  0  0  0  0  0  0  0  0  0
  1  2  1  0
  2  3  1  0
  2  4  1  0
  2  5  1  0
  5  6  1  0
  6  7  1  0
  7  8  1  0
  8  9  1  0
  9 10  1  0
 10 11  2  0
 11 12  1  0
 12 13  2  0
 13 14  1  0
 14 15  2  0
 15 16  1  0
 16 17  2  0
 17 18  1  0
 18 19  1  0
 18 20  2  0
 17 21  1  0
 21 22  1  0
 22 23  2  0
 22 24  1  0
 21 25  1  0
 25 26  2  0
 11 27  1  0
 27 28  2  0
 28  9  1  0
 26 12  1  0
 25 15  1  0
  1 29  1  0
  1 30  1  0
  1 31  1  0
  3 32  1  0
  3 33  1  0
  3 34  1  0
  4 35  1  0
  4 36  1  0
  4 37  1  0
  5 38  1  0
  5 39  1  0
  6 40  1  0
  6 41  1  0
  8 42  1  0
  8 43  1  0
 10 44  1  0
 13 45  1  0
 14 46  1  0
 16 47  1  0
 19 48  1  0
 26 49  1  0
 27 50  1  0
M  CHG  2  19  -1  24  -1
M  END
>  <UniqueID>  (12) 
12

>  <SMILES>  (12) 
C[Si](C)(C)CCOCn1cc(-c2ccc3cc(C([NH-])=O)n(C(=O)[O-])c3c2)cn1

>  <Energy>  (12) 
108.30318345555754

>  <Genealogy>  (12) 
C[Si](C)(C)CCOCn1cc(-c2ccc3cc(C([NH-])=O)n(C(=O)[O-])c3c2)cn1 (protonated)
C[Si](C)(C)CCOCn1cc(-c2ccc3cc(C([NH-])=O)n(C(=O)[O-])c3c2)cn1 (3D coordinates assigned)
C[Si](C)(C)CCOCn1cc(-c2ccc3cc(C([NH-])=O)n(C(=O)[O-])c3c2)cn1 (optimized conformer: 108.30318345555754 kcal/mol)

>  <smiles>  (12) 
C[Si](C)(C)CCOCn1cc(-c2ccc3cc(C(N)=O)n(C(=O)O)c3c2)cn1

>  <score_type>  (12) 
oracle

>  <origin>  (12) 
adg

>  <m_score__min__energy>  (12) 
-12.550000000000001

>  <m_primary>  (12) 
energy

$$$$
12:0
     RDKit          3D

 36 37  0  0  0  0  0  0  0  0999 V2000
   -7.2220   17.3890  -32.8200 C   0  0  0  0  0  0  0  0  0  0  0  0
   -7.2760   18.5530  -32.5080 C   0  0  0  0  0  0  0  0  0  0  0  0
   -7.3420   19.9420  -32.1360 C   0  0  0  0  0  0  0  0  0  0  0  0
   -8.5940   20.5950  -32.0700 C   0  0  0  0  0  0  0  0  0  0  0  0
   -8.6730   21.9470  -31.6960 C   0  0  0  0  0  0  0  0  0  0  0  0
   -7.4840   22.6130  -31.4040 C   0  0  0  0  0  0  0  0  0  0  0  0
   -7.2760   23.9080  -30.9900 C   0  0  0  0  0  0  0  0  0  0  0  0
   -5.8960   24.0290  -30.8340 C   0  0  0  0  0  0  0  0  0  0  0  0
   -5.2260   25.2960  -30.4770 C   0  0  0  0  0  0  0  0  0  0  0  0
   -3.8700   25.5360  -30.8380 N   0  0  0  0  0  0  0  0  0  0  0  0
   -5.8780   26.2010  -29.8890 O   0  0  0  0  0  0  0  0  0  0  0  0
   -5.2760   22.8520  -31.1310 N   0  0  0  0  0  0  0  0  0  0  0  0
   -3.8810   22.5380  -30.9970 C   0  0  0  0  0  0  0  0  0  0  0  0
   -3.0470   23.0080  -31.8180 O   0  0  0  0  0  0  0  0  0  0  0  0
   -3.4560   21.6940  -29.9680 O   0  0  0  0  0  0  0  0  0  0  0  0
   -2.5580   22.1140  -28.9460 C   0  0  0  0  0  0  0  0  0  0  0  0
   -1.9860   23.3690  -29.2960 O   0  0  0  0  0  0  0  0  0  0  0  0
   -2.1240   24.5130  -28.5050 C   0  0  0  0  0  0  0  0  0  0  0  0
   -1.8460   25.6540  -28.9680 O   0  0  0  0  0  0  0  0  0  0  0  0
   -2.6510   24.3860  -27.1120 C   0  0  0  0  0  0  0  0  0  0  0  0
   -4.1690   24.5250  -27.0990 C   0  0  0  0  0  0  0  0  0  0  0  0
   -6.2620   21.9950  -31.4800 C   0  0  0  0  0  0  0  0  0  0  0  0
   -6.1570   20.6430  -31.8320 C   0  0  0  0  0  0  0  0  0  0  0  0
   -7.1728   16.3276  -33.1045 H   0  0  0  0  0  0  0  0  0  0  0  0
   -9.5126   20.0409  -32.3131 H   0  0  0  0  0  0  0  0  0  0  0  0
   -9.6424   22.4634  -31.6356 H   0  0  0  0  0  0  0  0  0  0  0  0
   -8.0370   24.6836  -30.8184 H   0  0  0  0  0  0  0  0  0  0  0  0
   -3.1140   24.8700  -30.5620 H   0  0  0  0  0  0  0  0  0  0  0  0
   -3.1050   22.2135  -27.9969 H   0  0  0  0  0  0  0  0  0  0  0  0
   -1.7579   21.3674  -28.8348 H   0  0  0  0  0  0  0  0  0  0  0  0
   -2.3746   23.4005  -26.7092 H   0  0  0  0  0  0  0  0  0  0  0  0
   -2.2160   25.1849  -26.4936 H   0  0  0  0  0  0  0  0  0  0  0  0
   -4.5253   24.5576  -26.0588 H   0  0  0  0  0  0  0  0  0  0  0  0
   -4.4566   25.4532  -27.6144 H   0  0  0  0  0  0  0  0  0  0  0  0
   -4.6204   23.6644  -27.6144 H   0  0  0  0  0  0  0  0  0  0  0  0
   -5.1781   20.1427  -31.8701 H   0  0  0  0  0  0  0  0  0  0  0  0
  1  2  3  0
  2  3  1  0
  3  4  2  0
  4  5  1  0
  5  6  2  0
  6  7  1  0
  7  8  2  0
  8  9  1  0
  9 10  1  0
  9 11  2  0
  8 12  1  0
 12 13  1  0
 13 14  2  0
 13 15  1  0
 15 16  1  0
 16 17  1  0
 17 18  1  0
 18 19  2  0
 18 20  1  0
 20 21  1  0
 12 22  1  0
 22 23  2  0
 23  3  1  0
 22  6  1  0
  1 24  1  0
  4 25  1  0
  5 26  1  0
  7 27  1  0
 10 28  1  0
 16 29  1  0
 16 30  1  0
 20 31  1  0
 20 32  1  0
 21 33  1  0
 21 34  1  0
 21 35  1  0
 23 36  1  0
M  CHG  1  10  -1
M  END
>  <UniqueID>  (13) 
13

>  <SMILES>  (13) 
C#Cc1ccc2cc(C([NH-])=O)n(C(=O)OCOC(=O)CC)c2c1

>  <Energy>  (13) 
65.95976362655168

>  <Genealogy>  (13) 
C#Cc1ccc2cc(C([NH-])=O)n(C(=O)OCOC(=O)CC)c2c1 (protonated)
C#Cc1ccc2cc(C([NH-])=O)n(C(=O)OCOC(=O)CC)c2c1 (3D coordinates assigned)
C#Cc1ccc2cc(C([NH-])=O)n(C(=O)OCOC(=O)CC)c2c1 (optimized conformer: 65.95976362655168 kcal/mol)

>  <smiles>  (13) 
C#Cc1ccc2cc(C(N)=O)n(C(=O)OCOC(=O)CC)c2c1

>  <score_type>  (13) 
oracle

>  <origin>  (13) 
adg

>  <m_score__min__energy>  (13) 
-10.49

>  <m_primary>  (13) 
energy

$$$$
14:0
     RDKit          3D

 37 38  0  0  0  0  0  0  0  0999 V2000
   -3.4900   26.0470  -31.2470 H   0  0  0  0  0  0  0  0  0  0  0  0
   -3.8750   25.2980  -30.6290 N   0  0  0  0  0  0  0  0  0  0  0  0
   -5.2800   25.1560  -30.4370 C   0  0  0  0  0  0  0  0  0  0  0  0
   -5.9190   26.0720  -29.8540 O   0  0  0  0  0  0  0  0  0  0  0  0
   -5.9870   23.9330  -30.8730 C   0  0  0  0  0  0  0  0  0  0  0  0
   -7.3610   23.8780  -31.1030 C   0  0  0  0  0  0  0  0  0  0  0  0
   -8.0789   24.7101  -31.0563 H   0  0  0  0  0  0  0  0  0  0  0  0
   -7.6280   22.5610  -31.4010 C   0  0  0  0  0  0  0  0  0  0  0  0
   -8.8320   21.9380  -31.7210 C   0  0  0  0  0  0  0  0  0  0  0  0
   -9.7740   22.5052  -31.7513 H   0  0  0  0  0  0  0  0  0  0  0  0
   -8.8050   20.5610  -32.0040 C   0  0  0  0  0  0  0  0  0  0  0  0
   -9.7396   20.0393  -32.2577 H   0  0  0  0  0  0  0  0  0  0  0  0
   -7.5870   19.8380  -31.9660 C   0  0  0  0  0  0  0  0  0  0  0  0
   -7.5810   18.3700  -32.2820 C   0  0  0  0  0  0  0  0  0  0  0  0
   -7.3990   18.2352  -33.3584 H   0  0  0  0  0  0  0  0  0  0  0  0
   -6.5820   17.7410  -31.5640 F   0  0  0  0  0  0  0  0  0  0  0  0
   -8.8030   17.8160  -31.9460 F   0  0  0  0  0  0  0  0  0  0  0  0
   -6.3850   20.5040  -31.6390 C   0  0  0  0  0  0  0  0  0  0  0  0
   -5.4282   19.9619  -31.6122 H   0  0  0  0  0  0  0  0  0  0  0  0
   -6.4440   21.8720  -31.3500 C   0  0  0  0  0  0  0  0  0  0  0  0
   -5.4280   22.7010  -31.0330 N   0  0  0  0  0  0  0  0  0  0  0  0
   -4.0400   22.3400  -30.9620 C   0  0  0  0  0  0  0  0  0  0  0  0
   -3.2850   22.6370  -31.9230 O   0  0  0  0  0  0  0  0  0  0  0  0
   -3.5250   21.6710  -29.7430 C   0  0  0  0  0  0  0  0  0  0  0  0
   -3.4984   20.5715  -29.7610 H   0  0  0  0  0  0  0  0  0  0  0  0
   -3.0870   22.2630  -28.6180 C   0  0  0  0  0  0  0  0  0  0  0  0
   -2.7166   21.6045  -27.8185 H   0  0  0  0  0  0  0  0  0  0  0  0
   -3.0570   23.7520  -28.3510 C   0  0  0  0  0  0  0  0  0  0  0  0
   -3.4895   24.2716  -29.2187 H   0  0  0  0  0  0  0  0  0  0  0  0
   -1.6100   24.2230  -28.1530 C   0  0  0  0  0  0  0  0  0  0  0  0
   -1.3915   24.2941  -27.0773 H   0  0  0  0  0  0  0  0  0  0  0  0
   -0.9226   23.5022  -28.6199 H   0  0  0  0  0  0  0  0  0  0  0  0
   -1.4786   25.2103  -28.6199 H   0  0  0  0  0  0  0  0  0  0  0  0
   -3.8900   24.0900  -27.1070 C   0  0  0  0  0  0  0  0  0  0  0  0
   -3.3101   23.8547  -26.2024 H   0  0  0  0  0  0  0  0  0  0  0  0
   -4.1408   25.1610  -27.1135 H   0  0  0  0  0  0  0  0  0  0  0  0
   -4.8161   23.4965  -27.1135 H   0  0  0  0  0  0  0  0  0  0  0  0
  1  2  1  0
  2  3  1  0
  3  4  2  0
  3  5  1  0
  5  6  2  0
  6  7  1  0
  6  8  1  0
  8  9  2  0
  9 10  1  0
  9 11  1  0
 11 12  1  0
 11 13  2  0
 13 14  1  0
 14 15  1  0
 14 16  1  0
 14 17  1  0
 13 18  1  0
 18 19  1  0
 18 20  2  0
 20 21  1  0
 21 22  1  0
 22 23  2  0
 22 24  1  0
 24 25  1  0
 24 26  2  0
 26 27  1  0
 26 28  1  0
 28 29  1  0
 28 30  1  0
 30 31  1  0
 30 32  1  0
 30 33  1  0
 28 34  1  0
 34 35  1  0
 34 36  1  0
 34 37  1  0
 21  5  1  0
 20  8  1  0
M  CHG  1   2  -1
M  END
>  <UniqueID>  (14) 
14

>  <SMILES>  (14) 
CC(C)/C=C\C(=O)n1c(C([NH-])=O)cc2ccc(C(F)F)cc21

>  <Energy>  (14) 
74.55705441874959

>  <Genealogy>  (14) 
CC(C)C=CC(=O)n1c(C([NH-])=O)cc2ccc(C(F)F)cc21 (protonated)
CC(C)/C=C\C(=O)n1c(C([NH-])=O)cc2ccc(C(F)F)cc21 (cis-trans isomerization)
CC(C)/C=C\C(=O)n1c(C([NH-])=O)cc2ccc(C(F)F)cc21 (3D coordinates assigned)
CC(C)/C=C\C(=O)n1c(C([NH-])=O)cc2ccc(C(F)F)cc21 (optimized conformer: 74.55705441874959 kcal/mol)

>  <smiles>  (14) 
CC(C)C=CC(=O)n1c(C(N)=O)cc2ccc(C(F)F)cc21

>  <score_type>  (14) 
oracle

>  <origin>  (14) 
adg

>  <m_score__min__energy>  (14) 
-10.470000000000001

>  <m_primary>  (14) 
energy

$$$$
15:0
     RDKit          3D

 40 41  0  0  0  0  0  0  0  0999 V2000
   -1.7490   22.2260  -30.7470 C   0  0  0  0  0  0  0  0  0  0  0  0
   -3.0690   22.8260  -30.4740 N   0  0  2  0  0  0  0  0  0  0  0  0
   -3.5980   22.5160  -29.1160 C   0  0  0  0  0  0  0  0  0  0  0  0
   -3.4030   23.5730  -27.9850 C   0  0  2  0  0  0  0  0  0  0  0  0
   -4.4140   24.5450  -27.9740 O   0  0  0  0  0  0  0  0  0  0  0  0
   -2.0200   24.2440  -28.0330 C   0  0  0  0  0  0  0  0  0  0  0  0
   -2.0230   25.3030  -28.9520 O   0  0  0  0  0  0  0  0  0  0  0  0
   -3.9830   22.5710  -31.5670 C   0  0  0  0  0  0  0  0  0  0  0  0
   -3.5470   22.2920  -32.7160 O   0  0  0  0  0  0  0  0  0  0  0  0
   -5.3800   22.8610  -31.4110 N   0  0  0  0  0  0  0  0  0  0  0  0
   -5.9620   24.0320  -31.0330 C   0  0  0  0  0  0  0  0  0  0  0  0
   -5.2520   25.2180  -30.5200 C   0  0  0  0  0  0  0  0  0  0  0  0
   -3.8820   25.4260  -30.8530 N   0  0  0  0  0  0  0  0  0  0  0  0
   -5.8560   26.0730  -29.8220 O   0  0  0  0  0  0  0  0  0  0  0  0
   -7.3500   23.9420  -31.1330 C   0  0  0  0  0  0  0  0  0  0  0  0
   -7.6000   22.6650  -31.5840 C   0  0  0  0  0  0  0  0  0  0  0  0
   -8.8060   22.0310  -31.8680 C   0  0  0  0  0  0  0  0  0  0  0  0
   -8.7580   20.7060  -32.3380 C   0  0  0  0  0  0  0  0  0  0  0  0
   -7.5170   20.0490  -32.5150 C   0  0  0  0  0  0  0  0  0  0  0  0
   -7.4820   18.7030  -32.9980 N   0  0  0  0  0  0  0  0  0  0  0  0
   -6.3140   20.7220  -32.2160 C   0  0  0  0  0  0  0  0  0  0  0  0
   -6.3930   22.0350  -31.7440 C   0  0  0  0  0  0  0  0  0  0  0  0
   -1.2463   21.9975  -29.7957 H   0  0  0  0  0  0  0  0  0  0  0  0
   -1.8800   21.2990  -31.3244 H   0  0  0  0  0  0  0  0  0  0  0  0
   -1.1367   22.9342  -31.3244 H   0  0  0  0  0  0  0  0  0  0  0  0
   -2.9000   23.8600  -30.4640 H   0  0  0  0  0  0  0  0  0  0  0  0
   -4.6799   22.3460  -29.2193 H   0  0  0  0  0  0  0  0  0  0  0  0
   -3.0030   21.6522  -28.7846 H   0  0  0  0  0  0  0  0  0  0  0  0
   -3.4701   23.0054  -27.0452 H   0  0  0  0  0  0  0  0  0  0  0  0
   -4.1860   25.2050  -28.6800 H   0  0  0  0  0  0  0  0  0  0  0  0
   -1.7700   24.6313  -27.0343 H   0  0  0  0  0  0  0  0  0  0  0  0
   -1.2729   23.5003  -28.3474 H   0  0  0  0  0  0  0  0  0  0  0  0
   -2.9270   25.7120  -28.9140 H   0  0  0  0  0  0  0  0  0  0  0  0
   -3.1290   25.2730  -30.1450 H   0  0  0  0  0  0  0  0  0  0  0  0
   -8.0878   24.7242  -30.9011 H   0  0  0  0  0  0  0  0  0  0  0  0
   -9.7662   22.5495  -31.7293 H   0  0  0  0  0  0  0  0  0  0  0  0
   -9.6934   20.1758  -32.5700 H   0  0  0  0  0  0  0  0  0  0  0  0
   -8.2870   18.3060  -33.5320 H   0  0  0  0  0  0  0  0  0  0  0  0
   -6.6520   18.0940  -32.8210 H   0  0  0  0  0  0  0  0  0  0  0  0
   -5.3408   20.2272  -32.3506 H   0  0  0  0  0  0  0  0  0  0  0  0
  1  2  1  0
  2  3  1  0
  3  4  1  0
  4  5  1  0
  4  6  1  0
  6  7  1  0
  2  8  1  0
  8  9  2  0
  8 10  1  0
 10 11  1  0
 11 12  1  0
 12 13  1  0
 12 14  2  0
 11 15  2  0
 15 16  1  0
 16 17  2  0
 17 18  1  0
 18 19  2  0
 19 20  1  0
 19 21  1  0
 21 22  2  0
 22 10  1  0
 22 16  1  0
  1 23  1  0
  1 24  1  0
  1 25  1  0
  2 26  1  1
  3 27  1  0
  3 28  1  0
  4 29  1  1
  5 30  1  0
  6 31  1  0
  6 32  1  0
  7 33  1  0
 13 34  1  0
 15 35  1  0
 17 36  1  0
 18 37  1  0
 20 38  1  0
 20 39  1  0
 21 40  1  0
M  CHG  2   2   1  13  -1
M  END
>  <UniqueID>  (15) 
15

>  <SMILES>  (15) 
C[N@H+](C[C@H](O)CO)C(=O)n1c(C([NH-])=O)cc2ccc(N)cc21

>  <Energy>  (15) 
90.7164797057278

>  <Genealogy>  (15) 
C[NH+](CC(O)CO)C(=O)n1c(C([NH-])=O)cc2ccc(N)cc21 (protonated)
C[N@H+](C[C@H](O)CO)C(=O)n1c(C([NH-])=O)cc2ccc(N)cc21 (chirality)
C[N@H+](C[C@H](O)CO)C(=O)n1c(C([NH-])=O)cc2ccc(N)cc21 (3D coordinates assigned)
C[N@H+](C[C@H](O)CO)C(=O)n1c(C([NH-])=O)cc2ccc(N)cc21 (optimized conformer: 90.7164797057278 kcal/mol)

>  <smiles>  (15) 
CN(CC(O)CO)C(=O)n1c(C(N)=O)cc2ccc(N)cc21

>  <score_type>  (15) 
oracle

>  <origin>  (15) 
adg

>  <m_score__min__energy>  (15) 
-8.1999999999999993

>  <m_primary>  (15) 
energy

$$$$
16:0
     RDKit          3D

 39 40  0  0  0  0  0  0  0  0999 V2000
   -1.6800   23.2230  -28.1910 C   0  0  0  0  0  0  0  0  0  0  0  0
   -2.8910   22.6220  -28.9210 C   0  0  0  0  0  0  0  0  0  0  0  0
   -4.1750   23.0280  -28.1720 C   0  0  0  0  0  0  0  0  0  0  0  0
   -2.7420   21.0890  -28.9530 C   0  0  0  0  0  0  0  0  0  0  0  0
   -2.8910   23.1570  -30.2520 O   0  0  0  0  0  0  0  0  0  0  0  0
   -3.6920   22.7280  -31.3220 C   0  0  0  0  0  0  0  0  0  0  0  0
   -3.1760   22.2210  -32.3530 O   0  0  0  0  0  0  0  0  0  0  0  0
   -5.1160   22.8930  -31.2460 N   0  0  0  0  0  0  0  0  0  0  0  0
   -5.8080   24.0270  -30.9400 C   0  0  0  0  0  0  0  0  0  0  0  0
   -5.2220   25.2990  -30.4670 C   0  0  0  0  0  0  0  0  0  0  0  0
   -3.8980   25.6590  -30.8560 N   0  0  0  0  0  0  0  0  0  0  0  0
   -5.8910   26.0900  -29.7510 O   0  0  0  0  0  0  0  0  0  0  0  0
   -7.1790   23.8090  -31.0530 C   0  0  0  0  0  0  0  0  0  0  0  0
   -7.3100   22.4940  -31.4360 C   0  0  0  0  0  0  0  0  0  0  0  0
   -8.4540   21.7470  -31.6980 C   0  0  0  0  0  0  0  0  0  0  0  0
   -8.2910   20.4120  -32.1010 C   0  0  0  0  0  0  0  0  0  0  0  0
   -6.9960   19.8550  -32.2490 C   0  0  0  0  0  0  0  0  0  0  0  0
   -6.8350   18.4180  -32.6610 C   0  0  0  0  0  0  0  0  0  0  0  0
   -6.1310   18.3390  -33.9770 C   0  0  0  0  0  0  0  0  0  0  0  0
   -6.1030   19.3380  -34.7420 O   0  0  0  0  0  0  0  0  0  0  0  0
   -5.5460   17.1450  -34.3820 O   0  0  0  0  0  0  0  0  0  0  0  0
   -5.8570   20.6400  -31.9630 C   0  0  0  0  0  0  0  0  0  0  0  0
   -6.0500   21.9630  -31.5460 C   0  0  0  0  0  0  0  0  0  0  0  0
   -1.8324   23.1474  -27.1042 H   0  0  0  0  0  0  0  0  0  0  0  0
   -0.7710   22.6714  -28.4731 H   0  0  0  0  0  0  0  0  0  0  0  0
   -1.5696   24.2805  -28.4731 H   0  0  0  0  0  0  0  0  0  0  0  0
   -3.9999   22.9726  -27.0874 H   0  0  0  0  0  0  0  0  0  0  0  0
   -4.4501   24.0570  -28.4469 H   0  0  0  0  0  0  0  0  0  0  0  0
   -4.9916   22.3442  -28.4469 H   0  0  0  0  0  0  0  0  0  0  0  0
   -2.7045   20.7027  -27.9237 H   0  0  0  0  0  0  0  0  0  0  0  0
   -3.6015   20.6480  -29.4790 H   0  0  0  0  0  0  0  0  0  0  0  0
   -1.8136   20.8217  -29.4790 H   0  0  0  0  0  0  0  0  0  0  0  0
   -3.0690   25.2990  -30.3340 H   0  0  0  0  0  0  0  0  0  0  0  0
   -7.9862   24.5346  -30.8739 H   0  0  0  0  0  0  0  0  0  0  0  0
   -9.4558   22.1889  -31.5926 H   0  0  0  0  0  0  0  0  0  0  0  0
   -9.1769   19.7923  -32.3039 H   0  0  0  0  0  0  0  0  0  0  0  0
   -6.2460   17.8848  -31.9003 H   0  0  0  0  0  0  0  0  0  0  0  0
   -7.8288   17.9560  -32.7550 H   0  0  0  0  0  0  0  0  0  0  0  0
   -4.8443   20.2228  -32.0652 H   0  0  0  0  0  0  0  0  0  0  0  0
  1  2  1  0
  2  3  1  0
  2  4  1  0
  2  5  1  0
  5  6  1  0
  6  7  2  0
  6  8  1  0
  8  9  1  0
  9 10  1  0
 10 11  1  0
 10 12  2  0
  9 13  2  0
 13 14  1  0
 14 15  2  0
 15 16  1  0
 16 17  2  0
 17 18  1  0
 18 19  1  0
 19 20  2  0
 19 21  1  0
 17 22  1  0
 22 23  2  0
 23  8  1  0
 23 14  1  0
  1 24  1  0
  1 25  1  0
  1 26  1  0
  3 27  1  0
  3 28  1  0
  3 29  1  0
  4 30  1  0
  4 31  1  0
  4 32  1  0
 11 33  1  0
 13 34  1  0
 15 35  1  0
 16 36  1  0
 18 37  1  0
 18 38  1  0
 22 39  1  0
M  CHG  2  11  -1  21  -1
M  END
>  <UniqueID>  (16) 
16

>  <SMILES>  (16) 
CC(C)(C)OC(=O)n1c(C([NH-])=O)cc2ccc(CC(=O)[O-])cc21

>  <Energy>  (16) 
71.13957152666259

>  <Genealogy>  (16) 
CC(C)(C)OC(=O)n1c(C([NH-])=O)cc2ccc(CC(=O)[O-])cc21 (protonated)
CC(C)(C)OC(=O)n1c(C([NH-])=O)cc2ccc(CC(=O)[O-])cc21 (3D coordinates assigned)
CC(C)(C)OC(=O)n1c(C([NH-])=O)cc2ccc(CC(=O)[O-])cc21 (optimized conformer: 71.13957152666259 kcal/mol)

>  <smiles>  (16) 
CC(C)(C)OC(=O)n1c(C(N)=O)cc2ccc(CC(=O)O)cc21

>  <score_type>  (16) 
oracle

>  <origin>  (16) 
adg

>  <m_score__min__energy>  (16) 
-9.9000000000000004

>  <m_primary>  (16) 
energy

$$$$
17:0
     RDKit          3D

 38 39  0  0  0  0  0  0  0  0999 V2000
   -4.1700   25.6740  -30.8810 N   0  0  0  0  0  0  0  0  0  0  0  0
   -5.4650   25.2740  -30.4420 C   0  0  0  0  0  0  0  0  0  0  0  0
   -6.0600   25.9600  -29.5690 O   0  0  0  0  0  0  0  0  0  0  0  0
   -6.0930   24.0380  -30.9550 C   0  0  0  0  0  0  0  0  0  0  0  0
   -7.4710   23.8720  -31.0800 C   0  0  0  0  0  0  0  0  0  0  0  0
   -7.6450   22.5780  -31.5120 C   0  0  0  0  0  0  0  0  0  0  0  0
   -8.8110   21.8860  -31.8180 C   0  0  0  0  0  0  0  0  0  0  0  0
   -8.6900   20.5660  -32.2830 C   0  0  0  0  0  0  0  0  0  0  0  0
   -7.4180   19.9610  -32.4440 C   0  0  0  0  0  0  0  0  0  0  0  0
   -7.3500   18.6080  -32.9380 N   0  0  0  0  0  0  0  0  0  0  0  0
   -6.4850   17.5530  -32.4040 C   0  0  0  0  0  0  0  0  0  0  0  0
   -6.0270   16.6020  -33.5120 C   0  0  0  0  0  0  0  0  0  0  0  0
   -6.7770   16.7890  -34.6830 O   0  0  0  0  0  0  0  0  0  0  0  0
   -6.2540   20.7000  -32.1140 C   0  0  0  0  0  0  0  0  0  0  0  0
   -6.4060   22.0080  -31.6380 C   0  0  0  0  0  0  0  0  0  0  0  0
   -5.4420   22.8930  -31.3020 N   0  0  0  0  0  0  0  0  0  0  0  0
   -4.0250   22.6870  -31.4080 C   0  0  0  0  0  0  0  0  0  0  0  0
   -3.5610   21.9810  -32.3430 O   0  0  0  0  0  0  0  0  0  0  0  0
   -3.1660   23.2930  -30.4820 O   0  0  0  0  0  0  0  0  0  0  0  0
   -3.3370   23.1900  -29.0700 C   0  0  0  0  0  0  0  0  0  0  0  0
   -2.6310   24.3420  -28.3510 C   0  0  0  0  0  0  0  0  0  0  0  0
   -2.1960   25.3050  -29.2720 O   0  0  0  0  0  0  0  0  0  0  0  0
   -3.3550   25.0250  -30.8140 H   0  0  0  0  0  0  0  0  0  0  0  0
   -8.2535   24.6178  -30.8763 H   0  0  0  0  0  0  0  0  0  0  0  0
   -9.7978   22.3574  -31.6997 H   0  0  0  0  0  0  0  0  0  0  0  0
   -9.5967   19.9926  -32.5261 H   0  0  0  0  0  0  0  0  0  0  0  0
   -7.9700   18.3450  -33.7390 H   0  0  0  0  0  0  0  0  0  0  0  0
   -5.6015   18.0142  -31.9386 H   0  0  0  0  0  0  0  0  0  0  0  0
   -7.0560   16.9755  -31.6621 H   0  0  0  0  0  0  0  0  0  0  0  0
   -4.9659   16.7913  -33.7314 H   0  0  0  0  0  0  0  0  0  0  0  0
   -6.1730   15.5680  -33.1661 H   0  0  0  0  0  0  0  0  0  0  0  0
   -6.7590   17.7610  -34.8830 H   0  0  0  0  0  0  0  0  0  0  0  0
   -5.2542   20.2559  -32.2293 H   0  0  0  0  0  0  0  0  0  0  0  0
   -4.4108   23.2216  -28.8336 H   0  0  0  0  0  0  0  0  0  0  0  0
   -2.8976   22.2405  -28.7302 H   0  0  0  0  0  0  0  0  0  0  0  0
   -3.3309   24.8093  -27.6426 H   0  0  0  0  0  0  0  0  0  0  0  0
   -1.7571   23.9433  -27.8150 H   0  0  0  0  0  0  0  0  0  0  0  0
   -3.0080   25.6560  -29.7190 H   0  0  0  0  0  0  0  0  0  0  0  0
  1  2  1  0
  2  3  2  0
  2  4  1  0
  4  5  2  0
  5  6  1  0
  6  7  2  0
  7  8  1  0
  8  9  2  0
  9 10  1  0
 10 11  1  0
 11 12  1  0
 12 13  1  0
  9 14  1  0
 14 15  2  0
 15 16  1  0
 16 17  1  0
 17 18  2  0
 17 19  1  0
 19 20  1  0
 20 21  1  0
 21 22  1  0
 16  4  1  0
 15  6  1  0
  1 23  1  0
  5 24  1  0
  7 25  1  0
  8 26  1  0
 10 27  1  0
 11 28  1  0
 11 29  1  0
 12 30  1  0
 12 31  1  0
 13 32  1  0
 14 33  1  0
 20 34  1  0
 20 35  1  0
 21 36  1  0
 21 37  1  0
 22 38  1  0
M  CHG  1   1  -1
M  END
>  <UniqueID>  (17) 
17

>  <SMILES>  (17) 
[NH-]C(=O)c1cc2ccc(NCCO)cc2n1C(=O)OCCO

>  <Energy>  (17) 
72.06767850148985

>  <Genealogy>  (17) 
[NH-]C(=O)c1cc2ccc(NCCO)cc2n1C(=O)OCCO (protonated)
[NH-]C(=O)c1cc2ccc(NCCO)cc2n1C(=O)OCCO (3D coordinates assigned)
[NH-]C(=O)c1cc2ccc(NCCO)cc2n1C(=O)OCCO (optimized conformer: 72.06767850148985 kcal/mol)

>  <smiles>  (17) 
NC(=O)c1cc2ccc(NCCO)cc2n1C(=O)OCCO

>  <score_type>  (17) 
oracle

>  <origin>  (17) 
adg

>  <m_score__min__energy>  (17) 
-9.7799999999999994

>  <m_primary>  (17) 
energy

$$$$
18:0
     RDKit          3D

 39 41  0  0  0  0  0  0  0  0999 V2000
   -6.3160   17.5320  -31.4480 C   0  0  0  0  0  0  0  0  0  0  0  0
   -6.5060   17.8550  -32.9510 C   0  0  2  0  0  0  0  0  0  0  0  0
   -7.5500   18.8950  -33.0860 N   0  0  0  0  0  0  0  0  0  0  0  0
   -7.5750   20.2170  -32.4940 C   0  0  0  0  0  0  0  0  0  0  0  0
   -8.7780   20.8690  -32.0930 C   0  0  0  0  0  0  0  0  0  0  0  0
   -8.7490   22.1510  -31.5200 C   0  0  0  0  0  0  0  0  0  0  0  0
   -7.5160   22.7700  -31.3610 C   0  0  0  0  0  0  0  0  0  0  0  0
   -7.2040   23.9970  -30.8250 C   0  0  0  0  0  0  0  0  0  0  0  0
   -5.8180   24.1010  -30.9220 C   0  0  0  0  0  0  0  0  0  0  0  0
   -5.0730   25.3210  -30.5520 C   0  0  0  0  0  0  0  0  0  0  0  0
   -3.6550   25.2990  -30.4170 N   0  0  0  0  0  0  0  0  0  0  0  0
   -5.6890   26.4110  -30.4160 O   0  0  0  0  0  0  0  0  0  0  0  0
   -5.2930   22.9720  -31.4800 N   0  0  0  0  0  0  0  0  0  0  0  0
   -3.9110   22.6220  -31.6640 C   0  0  0  0  0  0  0  0  0  0  0  0
   -3.0830   22.7370  -30.7220 O   0  0  0  0  0  0  0  0  0  0  0  0
   -6.3480   22.1730  -31.7500 C   0  0  0  0  0  0  0  0  0  0  0  0
   -6.3440   20.8920  -32.3120 C   0  0  0  0  0  0  0  0  0  0  0  0
   -6.9320   16.5410  -33.6740 C   0  0  0  0  0  0  0  0  0  0  0  0
   -5.6890   15.7590  -34.0960 C   0  0  0  0  0  0  0  0  0  0  0  0
   -4.4250   16.9650  -34.3430 S   0  0  0  0  0  0  0  0  0  0  0  0
   -4.2150   17.2460  -35.8050 O   0  0  0  0  0  0  0  0  0  0  0  0
   -3.1350   16.5470  -33.6940 O   0  0  0  0  0  0  0  0  0  0  0  0
   -5.1490   18.3490  -33.5160 C   0  0  0  0  0  0  0  0  0  0  0  0
   -6.7812   18.3229  -30.8413 H   0  0  0  0  0  0  0  0  0  0  0  0
   -6.7901   16.5665  -31.2177 H   0  0  0  0  0  0  0  0  0  0  0  0
   -5.2418   17.4772  -31.2177 H   0  0  0  0  0  0  0  0  0  0  0  0
   -8.3700   18.6590  -33.6910 H   0  0  0  0  0  0  0  0  0  0  0  0
   -9.7431   20.3604  -32.2345 H   0  0  0  0  0  0  0  0  0  0  0  0
   -9.6771   22.6509  -31.2059 H   0  0  0  0  0  0  0  0  0  0  0  0
   -7.9007   24.7391  -30.4081 H   0  0  0  0  0  0  0  0  0  0  0  0
   -3.0520   24.8700  -31.1530 H   0  0  0  0  0  0  0  0  0  0  0  0
   -3.5718   22.2484  -32.6414 H   0  0  0  0  0  0  0  0  0  0  0  0
   -5.3977   20.4159  -32.6083 H   0  0  0  0  0  0  0  0  0  0  0  0
   -7.5358   15.9265  -32.9900 H   0  0  0  0  0  0  0  0  0  0  0  0
   -7.5248   16.7918  -34.5660 H   0  0  0  0  0  0  0  0  0  0  0  0
   -5.3949   15.0517  -33.3066 H   0  0  0  0  0  0  0  0  0  0  0  0
   -5.8707   15.1698  -35.0069 H   0  0  0  0  0  0  0  0  0  0  0  0
   -4.4964   18.6884  -32.6981 H   0  0  0  0  0  0  0  0  0  0  0  0
   -5.2859   19.1984  -34.2014 H   0  0  0  0  0  0  0  0  0  0  0  0
  1  2  1  0
  2  3  1  1
  3  4  1  0
  4  5  2  0
  5  6  1  0
  6  7  2  0
  7  8  1  0
  8  9  2  0
  9 10  1  0
 10 11  1  0
 10 12  2  0
  9 13  1  0
 13 14  1  0
 14 15  2  0
 13 16  1  0
 16 17  2  0
  2 18  1  0
 18 19  1  0
 19 20  1  0
 20 21  2  0
 20 22  2  0
 20 23  1  0
 23  2  1  0
 17  4  1  0
 16  7  1  0
  1 24  1  0
  1 25  1  0
  1 26  1  0
  3 27  1  0
  5 28  1  0
  6 29  1  0
  8 30  1  0
 11 31  1  0
 14 32  1  0
 17 33  1  0
 18 34  1  0
 18 35  1  0
 19 36  1  0
 19 37  1  0
 23 38  1  0
 23 39  1  0
M  CHG  1  11  -1
M  END
>  <UniqueID>  (18) 
18

>  <SMILES>  (18) 
C[C@]1(Nc2ccc3cc(C([NH-])=O)n(C=O)c3c2)CCS(=O)(=O)C1

>  <Energy>  (18) 
82.6939969360757

>  <Genealogy>  (18) 
C[C@]1(Nc2ccc3cc(C([NH-])=O)n(C=O)c3c2)CCS(=O)(=O)C1 (protonated)
C[C@]1(Nc2ccc3cc(C([NH-])=O)n(C=O)c3c2)CCS(=O)(=O)C1 (3D coordinates assigned)
C[C@]1(Nc2ccc3cc(C([NH-])=O)n(C=O)c3c2)CCS(=O)(=O)C1 (nonaromatic ring conformer: 82.6939969360757 kcal/mol)

>  <smiles>  (18) 
C[C@]1(Nc2ccc3cc(C(N)=O)n(C=O)c3c2)CCS(=O)(=O)C1

>  <score_type>  (18) 
oracle

>  <origin>  (18) 
adg

>  <m_score__min__energy>  (18) 
-11.609999999999999

>  <m_primary>  (18) 
energy

$$$$
19:0
     RDKit          3D

 42 43  0  0  0  0  0  0  0  0999 V2000
   -8.2610   19.8620  -33.4340 N   0  0  0  0  0  0  0  0  0  0  0  0
   -8.7220   20.8080  -32.4620 C   0  0  0  0  0  0  0  0  0  0  0  0
   -9.8890   20.6960  -31.9920 O   0  0  0  0  0  0  0  0  0  0  0  0
   -7.8230   21.8580  -31.9370 C   0  0  0  0  0  0  0  0  0  0  0  0
   -8.2920   23.0390  -31.3670 C   0  0  0  0  0  0  0  0  0  0  0  0
   -7.1730   23.6780  -30.8880 C   0  0  0  0  0  0  0  0  0  0  0  0
   -7.0620   24.8830  -30.1990 C   0  0  0  0  0  0  0  0  0  0  0  0
   -5.7820   25.3040  -29.8040 C   0  0  0  0  0  0  0  0  0  0  0  0
   -4.6340   24.5250  -30.1160 C   0  0  0  0  0  0  0  0  0  0  0  0
   -3.3080   24.9220  -29.7030 N   0  0  0  0  0  0  0  0  0  0  0  0
   -2.5460   24.2940  -28.6190 C   0  0  0  0  0  0  0  0  0  0  0  0
   -1.1820   24.9780  -28.4510 C   0  0  0  0  0  0  0  0  0  0  0  0
   -1.0700   26.0620  -29.3400 O   0  0  0  0  0  0  0  0  0  0  0  0
   -4.7920   23.3130  -30.8290 C   0  0  0  0  0  0  0  0  0  0  0  0
   -6.0830   22.9020  -31.1860 C   0  0  0  0  0  0  0  0  0  0  0  0
   -6.4660   21.7790  -31.8410 N   0  0  0  0  0  0  0  0  0  0  0  0
   -5.6140   20.7670  -32.4120 C   0  0  0  0  0  0  0  0  0  0  0  0
   -5.1590   20.9040  -33.5790 O   0  0  0  0  0  0  0  0  0  0  0  0
   -5.2870   19.6310  -31.6630 O   0  0  0  0  0  0  0  0  0  0  0  0
   -6.2250   18.6020  -31.3610 C   0  0  0  0  0  0  0  0  0  0  0  0
   -5.8350   17.3270  -32.1150 C   0  0  0  0  0  0  0  0  0  0  0  0
   -6.4630   17.2690  -33.5130 C   0  0  0  0  0  0  0  0  0  0  0  0
   -6.0720   18.3830  -34.2790 O   0  0  0  0  0  0  0  0  0  0  0  0
   -7.2690   19.8530  -33.7480 H   0  0  0  0  0  0  0  0  0  0  0  0
   -8.8960   19.1060  -33.7770 H   0  0  0  0  0  0  0  0  0  0  0  0
   -9.3343   23.3861  -31.3119 H   0  0  0  0  0  0  0  0  0  0  0  0
   -7.9519   25.4880  -29.9706 H   0  0  0  0  0  0  0  0  0  0  0  0
   -5.6662   26.2458  -29.2476 H   0  0  0  0  0  0  0  0  0  0  0  0
   -2.8210   25.6720  -30.2530 H   0  0  0  0  0  0  0  0  0  0  0  0
   -3.1128   24.3823  -27.6804 H   0  0  0  0  0  0  0  0  0  0  0  0
   -2.3835   23.2347  -28.8671 H   0  0  0  0  0  0  0  0  0  0  0  0
   -1.0834   25.3433  -27.4181 H   0  0  0  0  0  0  0  0  0  0  0  0
   -0.3862   24.2507  -28.6694 H   0  0  0  0  0  0  0  0  0  0  0  0
   -0.5060   25.7510  -30.1000 H   0  0  0  0  0  0  0  0  0  0  0  0
   -3.9164   22.7040  -31.0983 H   0  0  0  0  0  0  0  0  0  0  0  0
   -6.2196   18.4055  -30.2787 H   0  0  0  0  0  0  0  0  0  0  0  0
   -7.2326   18.9190  -31.6680 H   0  0  0  0  0  0  0  0  0  0  0  0
   -4.7401   17.2956  -32.2163 H   0  0  0  0  0  0  0  0  0  0  0  0
   -6.2073   16.4661  -31.5403 H   0  0  0  0  0  0  0  0  0  0  0  0
   -6.1343   16.3492  -34.0189 H   0  0  0  0  0  0  0  0  0  0  0  0
   -7.5581   17.2765  -33.4101 H   0  0  0  0  0  0  0  0  0  0  0  0
   -5.4590   18.9210  -33.7140 H   0  0  0  0  0  0  0  0  0  0  0  0
  1  2  1  0
  2  3  2  0
  2  4  1  0
  4  5  2  0
  5  6  1  0
  6  7  2  0
  7  8  1  0
  8  9  2  0
  9 10  1  0
 10 11  1  0
 11 12  1  0
 12 13  1  0
  9 14  1  0
 14 15  2  0
 15 16  1  0
 16 17  1  0
 17 18  2  0
 17 19  1  0
 19 20  1  0
 20 21  1  0
 21 22  1  0
 22 23  1  0
 16  4  1  0
 15  6  1  0
  1 24  1  0
  1 25  1  0
  5 26  1  0
  7 27  1  0
  8 28  1  0
 10 29  1  0
 11 30  1  0
 11 31  1  0
 12 32  1  0
 12 33  1  0
 13 34  1  0
 14 35  1  0
 20 36  1  0
 20 37  1  0
 21 38  1  0
 21 39  1  0
 22 40  1  0
 22 41  1  0
 23 42  1  0
M  END
>  <UniqueID>  (19) 
19

>  <SMILES>  (19) 
NC(=O)c1cc2ccc(NCCO)cc2n1C(=O)OCCCO

>  <Energy>  (19) 
72.95445843987375

>  <Genealogy>  (19) 
NC(=O)c1cc2ccc(NCCO)cc2n1C(=O)OCCCO (3D coordinates assigned)
NC(=O)c1cc2ccc(NCCO)cc2n1C(=O)OCCCO (optimized conformer: 72.95445843987375 kcal/mol)

>  <smiles>  (19) 
NC(=O)c1cc2ccc(NCCO)cc2n1C(=O)OCCCO

>  <score_type>  (19) 
oracle

>  <origin>  (19) 
adg

>  <m_score__min__energy>  (19) 
-8.5800000000000001

>  <m_primary>  (19) 
energy

$$$$
20:0
     RDKit          3D

 32 33  0  0  0  0  0  0  0  0999 V2000
   -4.1750   25.6580  -30.5500 N   0  0  0  0  0  0  0  0  0  0  0  0
   -5.5370   25.2860  -30.3460 C   0  0  0  0  0  0  0  0  0  0  0  0
   -6.3070   26.0750  -29.7360 O   0  0  0  0  0  0  0  0  0  0  0  0
   -6.0360   24.0000  -30.8720 C   0  0  0  0  0  0  0  0  0  0  0  0
   -7.3750   23.7500  -31.1730 C   0  0  0  0  0  0  0  0  0  0  0  0
   -7.4210   22.4290  -31.5600 C   0  0  0  0  0  0  0  0  0  0  0  0
   -8.4970   21.6530  -31.9790 C   0  0  0  0  0  0  0  0  0  0  0  0
   -8.2450   20.3170  -32.3400 C   0  0  0  0  0  0  0  0  0  0  0  0
   -6.9310   19.7880  -32.2790 C   0  0  0  0  0  0  0  0  0  0  0  0
   -6.6630   18.3650  -32.6770 C   0  0  0  0  0  0  0  0  0  0  0  0
   -6.4010   18.3020  -34.0340 F   0  0  0  0  0  0  0  0  0  0  0  0
   -7.7660   17.5840  -32.3880 F   0  0  0  0  0  0  0  0  0  0  0  0
   -5.8640   20.6080  -31.8480 C   0  0  0  0  0  0  0  0  0  0  0  0
   -6.1480   21.9270  -31.4860 C   0  0  0  0  0  0  0  0  0  0  0  0
   -5.2890   22.8800  -31.0700 N   0  0  0  0  0  0  0  0  0  0  0  0
   -3.8680   22.7280  -30.9350 C   0  0  0  0  0  0  0  0  0  0  0  0
   -3.1690   22.4850  -31.9560 O   0  0  0  0  0  0  0  0  0  0  0  0
   -3.1980   22.9780  -29.6070 C   0  0  1  0  0  0  0  0  0  0  0  0
   -2.3370   24.0850  -29.6850 O   0  0  0  0  0  0  0  0  0  0  0  0
   -4.2380   23.1680  -28.4930 C   0  0  0  0  0  0  0  0  0  0  0  0
   -4.1430   24.4630  -27.9650 O   0  0  0  0  0  0  0  0  0  0  0  0
   -3.4980   25.6740  -29.7550 H   0  0  0  0  0  0  0  0  0  0  0  0
   -8.2153   24.4574  -31.1139 H   0  0  0  0  0  0  0  0  0  0  0  0
   -9.5133   22.0712  -32.0265 H   0  0  0  0  0  0  0  0  0  0  0  0
   -9.0752   19.6767  -32.6728 H   0  0  0  0  0  0  0  0  0  0  0  0
   -5.7927   17.9925  -32.1168 H   0  0  0  0  0  0  0  0  0  0  0  0
   -4.8367   20.2179  -31.7988 H   0  0  0  0  0  0  0  0  0  0  0  0
   -2.5948   22.0927  -29.3571 H   0  0  0  0  0  0  0  0  0  0  0  0
   -2.7350   24.8200  -29.1460 H   0  0  0  0  0  0  0  0  0  0  0  0
   -5.2462   23.0159  -28.9059 H   0  0  0  0  0  0  0  0  0  0  0  0
   -4.0485   22.4369  -27.6932 H   0  0  0  0  0  0  0  0  0  0  0  0
   -4.1070   25.0760  -28.7450 H   0  0  0  0  0  0  0  0  0  0  0  0
  1  2  1  0
  2  3  2  0
  2  4  1  0
  4  5  2  0
  5  6  1  0
  6  7  2  0
  7  8  1  0
  8  9  2  0
  9 10  1  0
 10 11  1  0
 10 12  1  0
  9 13  1  0
 13 14  2  0
 14 15  1  0
 15 16  1  0
 16 17  2  0
 16 18  1  0
 18 19  1  0
 18 20  1  0
 20 21  1  0
 15  4  1  0
 14  6  1  0
  1 22  1  0
  5 23  1  0
  7 24  1  0
  8 25  1  0
 10 26  1  0
 13 27  1  0
 18 28  1  1
 19 29  1  0
 20 30  1  0
 20 31  1  0
 21 32  1  0
M  CHG  1   1  -1
M  END
>  <UniqueID>  (20) 
20

>  <SMILES>  (20) 
[NH-]C(=O)c1cc2ccc(C(F)F)cc2n1C(=O)[C@@H](O)CO

>  <Energy>  (20) 
69.43383704958259

>  <Genealogy>  (20) 
[NH-]C(=O)c1cc2ccc(C(F)F)cc2n1C(=O)[C@@H](O)CO (protonated)
[NH-]C(=O)c1cc2ccc(C(F)F)cc2n1C(=O)[C@@H](O)CO (3D coordinates assigned)
[NH-]C(=O)c1cc2ccc(C(F)F)cc2n1C(=O)[C@@H](O)CO (optimized conformer: 69.43383704958259 kcal/mol)

>  <smiles>  (20) 
NC(=O)c1cc2ccc(C(F)F)cc2n1C(=O)[C@@H](O)CO

>  <score_type>  (20) 
oracle

>  <origin>  (20) 
adg

>  <m_score__min__energy>  (20) 
-8.4700000000000006

>  <m_primary>  (20) 
energy

$$$$
21:0
     RDKit          3D

 45 47  0  0  0  0  0  0  0  0999 V2000
   -9.4980   19.7640  -32.7260 C   0  0  0  0  0  0  0  0  0  0  0  0
   -8.5760   19.5860  -31.5910 N   0  0  0  0  0  0  0  0  0  0  0  0
   -8.0920   18.1860  -31.4650 C   0  0  0  0  0  0  0  0  0  0  0  0
   -6.6020   17.9960  -31.8180 C   0  0  0  0  0  0  0  0  0  0  0  0
   -6.2060   18.8660  -33.0230 C   0  0  0  0  0  0  0  0  0  0  0  0
   -4.7280   18.6560  -33.4340 C   0  0  0  0  0  0  0  0  0  0  0  0
   -4.0790   19.9130  -33.8430 N   0  0  0  0  0  0  0  0  0  0  0  0
   -3.3470   20.4710  -32.7320 C   0  0  0  0  0  0  0  0  0  0  0  0
   -2.2230   19.7870  -32.2010 C   0  0  0  0  0  0  0  0  0  0  0  0
   -1.4770   20.3410  -31.1480 C   0  0  0  0  0  0  0  0  0  0  0  0
   -1.8750   21.5770  -30.6470 C   0  0  0  0  0  0  0  0  0  0  0  0
   -1.3140   22.3510  -29.6570 C   0  0  0  0  0  0  0  0  0  0  0  0
   -2.1100   23.4910  -29.5840 C   0  0  0  0  0  0  0  0  0  0  0  0
   -1.9070   24.5580  -28.5820 C   0  0  0  0  0  0  0  0  0  0  0  0
   -1.3970   25.8340  -28.9620 N   0  0  0  0  0  0  0  0  0  0  0  0
   -2.2360   24.3580  -27.3820 O   0  0  0  0  0  0  0  0  0  0  0  0
   -3.1190   23.4310  -30.5000 N   0  0  0  0  0  0  0  0  0  0  0  0
   -4.0970   24.4380  -30.8050 C   0  0  0  0  0  0  0  0  0  0  0  0
   -3.8770   25.6450  -30.5210 O   0  0  0  0  0  0  0  0  0  0  0  0
   -5.2840   24.0940  -31.4390 O   0  0  0  0  0  0  0  0  0  0  0  0
   -2.9620   22.2500  -31.1400 C   0  0  0  0  0  0  0  0  0  0  0  0
   -3.7130   21.7300  -32.2010 C   0  0  0  0  0  0  0  0  0  0  0  0
   -6.4720   20.3640  -32.7240 C   0  0  0  0  0  0  0  0  0  0  0  0
   -7.4950   20.5900  -31.5930 C   0  0  0  0  0  0  0  0  0  0  0  0
  -10.5121   19.9598  -32.3474 H   0  0  0  0  0  0  0  0  0  0  0  0
   -9.1650   20.6144  -33.3391 H   0  0  0  0  0  0  0  0  0  0  0  0
   -9.5055   18.8507  -33.3391 H   0  0  0  0  0  0  0  0  0  0  0  0
   -8.2440   17.8610  -30.4251 H   0  0  0  0  0  0  0  0  0  0  0  0
   -8.6661   17.5876  -32.1877 H   0  0  0  0  0  0  0  0  0  0  0  0
   -5.9877   18.2810  -30.9511 H   0  0  0  0  0  0  0  0  0  0  0  0
   -6.4352   16.9403  -32.0780 H   0  0  0  0  0  0  0  0  0  0  0  0
   -6.8324   18.5503  -33.8703 H   0  0  0  0  0  0  0  0  0  0  0  0
   -4.1789   18.2362  -32.5783 H   0  0  0  0  0  0  0  0  0  0  0  0
   -4.7116   17.9723  -34.2955 H   0  0  0  0  0  0  0  0  0  0  0  0
   -4.7990   20.6000  -34.1690 H   0  0  0  0  0  0  0  0  0  0  0  0
   -3.4150   19.7390  -34.6310 H   0  0  0  0  0  0  0  0  0  0  0  0
   -1.9326   18.8118  -32.6188 H   0  0  0  0  0  0  0  0  0  0  0  0
   -0.6053   19.8145  -30.7321 H   0  0  0  0  0  0  0  0  0  0  0  0
   -0.4254   22.1184  -29.0518 H   0  0  0  0  0  0  0  0  0  0  0  0
   -1.2330   26.0700  -29.9660 H   0  0  0  0  0  0  0  0  0  0  0  0
   -4.5676   22.2874  -32.6121 H   0  0  0  0  0  0  0  0  0  0  0  0
   -5.5216   20.8359  -32.4340 H   0  0  0  0  0  0  0  0  0  0  0  0
   -6.8945   20.8076  -33.6376 H   0  0  0  0  0  0  0  0  0  0  0  0
   -6.9687   20.5418  -30.6283 H   0  0  0  0  0  0  0  0  0  0  0  0
   -7.9576   21.5745  -31.7566 H   0  0  0  0  0  0  0  0  0  0  0  0
  1  2  1  0
  2  3  1  0
  3  4  1  0
  4  5  1  0
  5  6  1  0
  6  7  1  0
  7  8  1  0
  8  9  2  0
  9 10  1  0
 10 11  2  0
 11 12  1  0
 12 13  2  0
 13 14  1  0
 14 15  1  0
 14 16  2  0
 13 17  1  0
 17 18  1  0
 18 19  2  0
 18 20  1  0
 17 21  1  0
 21 22  2  0
  5 23  1  0
 23 24  1  0
 24  2  1  0
 22  8  1  0
 21 11  1  0
  1 25  1  0
  1 26  1  0
  1 27  1  0
  3 28  1  0
  3 29  1  0
  4 30  1  0
  4 31  1  0
  5 32  1  0
  6 33  1  0
  6 34  1  0
  7 35  1  0
  7 36  1  0
  9 37  1  0
 10 38  1  0
 12 39  1  0
 15 40  1  0
 22 41  1  0
 23 42  1  0
 23 43  1  0
 24 44  1  0
 24 45  1  0
M  CHG  3   7   1  15  -1  20  -1
M  END
>  <UniqueID>  (21) 
21

>  <SMILES>  (21) 
CN1CCC(C[NH2+]c2ccc3cc(C([NH-])=O)n(C(=O)[O-])c3c2)CC1

>  <Energy>  (21) 
94.64049643054483

>  <Genealogy>  (21) 
CN1CCC(C[NH2+]c2ccc3cc(C([NH-])=O)n(C(=O)[O-])c3c2)CC1 (protonated)
CN1CCC(C[NH2+]c2ccc3cc(C([NH-])=O)n(C(=O)[O-])c3c2)CC1 (3D coordinates assigned)
CN1CCC(C[NH2+]c2ccc3cc(C([NH-])=O)n(C(=O)[O-])c3c2)CC1 (nonaromatic ring conformer: 94.64049643054483 kcal/mol)

>  <smiles>  (21) 
CN1CCC(CNc2ccc3cc(C(N)=O)n(C(=O)O)c3c2)CC1

>  <score_type>  (21) 
oracle

>  <origin>  (21) 
adg

>  <m_score__min__energy>  (21) 
-11.59

>  <m_primary>  (21) 
energy

$$$$
22:0
     RDKit          3D

 61 63  0  0  0  0  0  0  0  0999 V2000
    0.8720   20.0030  -32.5450 C   0  0  0  0  0  0  0  0  0  0  0  0
   -0.3220   20.7510  -32.3430 O   0  0  0  0  0  0  0  0  0  0  0  0
   -1.5880   20.3620  -32.8060 C   0  0  0  0  0  0  0  0  0  0  0  0
   -1.8080   19.0070  -33.0810 C   0  0  0  0  0  0  0  0  0  0  0  0
   -3.0520   18.5680  -33.5450 C   0  0  0  0  0  0  0  0  0  0  0  0
   -4.0950   19.4850  -33.7450 C   0  0  0  0  0  0  0  0  0  0  0  0
   -5.4440   19.0240  -34.2260 C   0  0  0  0  0  0  0  0  0  0  0  0
   -5.4920   17.6000  -34.2630 O   0  0  0  0  0  0  0  0  0  0  0  0
   -5.9430   16.8160  -33.1940 C   0  0  0  0  0  0  0  0  0  0  0  0
   -5.8140   15.5620  -33.2220 O   0  0  0  0  0  0  0  0  0  0  0  0
   -6.5570   17.4560  -31.9830 C   0  0  0  0  0  0  0  0  0  0  0  0
   -7.9320   18.0670  -32.2770 C   0  0  0  0  0  0  0  0  0  0  0  0
   -7.9090   19.5550  -32.0510 C   0  0  0  0  0  0  0  0  0  0  0  0
   -9.0880   20.3200  -32.2260 C   0  0  0  0  0  0  0  0  0  0  0  0
   -9.0860   21.7030  -31.9720 C   0  0  0  0  0  0  0  0  0  0  0  0
   -7.8960   22.2870  -31.5460 C   0  0  0  0  0  0  0  0  0  0  0  0
   -7.6280   23.5910  -31.1940 C   0  0  0  0  0  0  0  0  0  0  0  0
   -6.2860   23.6020  -30.8270 C   0  0  0  0  0  0  0  0  0  0  0  0
   -5.5600   24.8260  -30.4330 C   0  0  0  0  0  0  0  0  0  0  0  0
   -5.8620   25.5070  -29.2140 N   0  0  0  0  0  0  0  0  0  0  0  0
   -4.6190   25.2460  -31.1580 O   0  0  0  0  0  0  0  0  0  0  0  0
   -5.7450   22.3550  -30.9330 N   0  0  0  0  0  0  0  0  0  0  0  0
   -4.4290   21.9330  -30.5440 C   0  0  0  0  0  0  0  0  0  0  0  0
   -4.1800   20.7030  -30.4190 O   0  0  0  0  0  0  0  0  0  0  0  0
   -3.4350   22.8960  -30.3130 O   0  0  0  0  0  0  0  0  0  0  0  0
   -2.6530   23.0430  -29.1200 C   0  0  0  0  0  0  0  0  0  0  0  0
   -2.1920   24.5030  -28.9470 C   0  0  0  0  0  0  0  0  0  0  0  0
   -1.4160   22.1460  -29.2770 C   0  0  0  0  0  0  0  0  0  0  0  0
   -3.4530   22.5760  -27.8880 C   0  0  0  0  0  0  0  0  0  0  0  0
   -6.7450   21.5620  -31.3800 C   0  0  0  0  0  0  0  0  0  0  0  0
   -6.7240   20.1800  -31.6040 C   0  0  0  0  0  0  0  0  0  0  0  0
   -3.8800   20.8440  -33.4680 C   0  0  0  0  0  0  0  0  0  0  0  0
   -2.6350   21.2810  -33.0030 C   0  0  0  0  0  0  0  0  0  0  0  0
    1.3043   19.7322  -31.5704 H   0  0  0  0  0  0  0  0  0  0  0  0
    0.6404   19.0883  -33.1103 H   0  0  0  0  0  0  0  0  0  0  0  0
    1.5940   20.6105  -33.1103 H   0  0  0  0  0  0  0  0  0  0  0  0
   -0.9951   18.2813  -32.9308 H   0  0  0  0  0  0  0  0  0  0  0  0
   -3.2134   17.5001  -33.7539 H   0  0  0  0  0  0  0  0  0  0  0  0
   -6.2207   19.3963  -33.5418 H   0  0  0  0  0  0  0  0  0  0  0  0
   -5.6175   19.4159  -35.2391 H   0  0  0  0  0  0  0  0  0  0  0  0
   -6.6703   16.6924  -31.1993 H   0  0  0  0  0  0  0  0  0  0  0  0
   -5.8910   18.2699  -31.6605 H   0  0  0  0  0  0  0  0  0  0  0  0
   -8.2014   17.8644  -33.3241 H   0  0  0  0  0  0  0  0  0  0  0  0
   -8.6727   17.6166  -31.5999 H   0  0  0  0  0  0  0  0  0  0  0  0
  -10.0125   19.8284  -32.5632 H   0  0  0  0  0  0  0  0  0  0  0  0
   -9.9968   22.3051  -32.1058 H   0  0  0  0  0  0  0  0  0  0  0  0
   -8.3254   24.4416  -31.2014 H   0  0  0  0  0  0  0  0  0  0  0  0
   -5.3690   26.3960  -28.9750 H   0  0  0  0  0  0  0  0  0  0  0  0
   -6.5140   25.0930  -28.5120 H   0  0  0  0  0  0  0  0  0  0  0  0
   -2.1174   24.7394  -27.8753 H   0  0  0  0  0  0  0  0  0  0  0  0
   -1.2083   24.6355  -29.4211 H   0  0  0  0  0  0  0  0  0  0  0  0
   -2.9212   25.1764  -29.4211 H   0  0  0  0  0  0  0  0  0  0  0  0
   -1.0349   21.8697  -28.2828 H   0  0  0  0  0  0  0  0  0  0  0  0
   -1.6909   21.2359  -29.8303 H   0  0  0  0  0  0  0  0  0  0  0  0
   -0.6364   22.6901  -29.8303 H   0  0  0  0  0  0  0  0  0  0  0  0
   -2.9274   22.8828  -26.9717 H   0  0  0  0  0  0  0  0  0  0  0  0
   -4.4540   23.0316  -27.9066 H   0  0  0  0  0  0  0  0  0  0  0  0
   -3.5485   21.4803  -27.9066 H   0  0  0  0  0  0  0  0  0  0  0  0
   -5.8073   19.5956  -31.4360 H   0  0  0  0  0  0  0  0  0  0  0  0
   -4.6940   21.5687  -33.6172 H   0  0  0  0  0  0  0  0  0  0  0  0
   -2.4739   22.3482  -32.7904 H   0  0  0  0  0  0  0  0  0  0  0  0
  1  2  1  0
  2  3  1  0
  3  4  2  0
  4  5  1  0
  5  6  2  0
  6  7  1  0
  7  8  1  0
  8  9  1  0
  9 10  2  0
  9 11  1  0
 11 12  1  0
 12 13  1  0
 13 14  2  0
 14 15  1  0
 15 16  2  0
 16 17  1  0
 17 18  2  0
 18 19  1  0
 19 20  1  0
 19 21  2  0
 18 22  1  0
 22 23  1  0
 23 24  2  0
 23 25  1  0
 25 26  1  0
 26 27  1  0
 26 28  1  0
 26 29  1  0
 22 30  1  0
 30 31  2  0
  6 32  1  0
 32 33  2  0
 33  3  1  0
 31 13  1  0
 30 16  1  0
  1 34  1  0
  1 35  1  0
  1 36  1  0
  4 37  1  0
  5 38  1  0
  7 39  1  0
  7 40  1  0
 11 41  1  0
 11 42  1  0
 12 43  1  0
 12 44  1  0
 14 45  1  0
 15 46  1  0
 17 47  1  0
 20 48  1  0
 20 49  1  0
 27 50  1  0
 27 51  1  0
 27 52  1  0
 28 53  1  0
 28 54  1  0
 28 55  1  0
 29 56  1  0
 29 57  1  0
 29 58  1  0
 31 59  1  0
 32 60  1  0
 33 61  1  0
M  END
>  <UniqueID>  (22) 
22

>  <SMILES>  (22) 
COc1ccc(COC(=O)CCc2ccc3cc(C(N)=O)n(C(=O)OC(C)(C)C)c3c2)cc1

>  <Energy>  (22) 
91.16543908305178

>  <Genealogy>  (22) 
COc1ccc(COC(=O)CCc2ccc3cc(C(N)=O)n(C(=O)OC(C)(C)C)c3c2)cc1 (3D coordinates assigned)
COc1ccc(COC(=O)CCc2ccc3cc(C(N)=O)n(C(=O)OC(C)(C)C)c3c2)cc1 (optimized conformer: 91.16543908305178 kcal/mol)

>  <smiles>  (22) 
COc1ccc(COC(=O)CCc2ccc3cc(C(N)=O)n(C(=O)OC(C)(C)C)c3c2)cc1

>  <score_type>  (22) 
oracle

>  <origin>  (22) 
adg

>  <m_score__min__energy>  (22) 
-10.289999999999999

>  <m_primary>  (22) 
energy

$$$$
23:0
     RDKit          3D

 37 39  0  0  0  0  0  0  0  0999 V2000
    0.2970   21.7880  -28.1830 C   0  0  0  0  0  0  0  0  0  0  0  0
   -0.5820   22.9680  -28.4390 C   0  0  0  0  0  0  0  0  0  0  0  0
   -0.1540   24.2010  -28.5740 O   0  0  0  0  0  0  0  0  0  0  0  0
   -1.2250   24.9310  -28.7880 C   0  0  0  0  0  0  0  0  0  0  0  0
   -1.1970   26.1760  -28.9630 O   0  0  0  0  0  0  0  0  0  0  0  0
   -2.3290   24.2190  -28.7980 O   0  0  0  0  0  0  0  0  0  0  0  0
   -1.9580   22.9780  -28.5830 C   0  0  0  0  0  0  0  0  0  0  0  0
   -2.9000   21.8140  -28.5190 C   0  0  0  0  0  0  0  0  0  0  0  0
   -3.4270   21.5350  -29.8130 O   0  0  0  0  0  0  0  0  0  0  0  0
   -3.7970   22.5320  -30.7230 C   0  0  0  0  0  0  0  0  0  0  0  0
   -2.9150   23.2080  -31.3210 O   0  0  0  0  0  0  0  0  0  0  0  0
   -5.1870   22.8050  -30.9550 N   0  0  0  0  0  0  0  0  0  0  0  0
   -5.8210   24.0090  -30.8940 C   0  0  0  0  0  0  0  0  0  0  0  0
   -5.2300   25.2770  -30.4200 C   0  0  0  0  0  0  0  0  0  0  0  0
   -3.9210   25.6520  -30.8460 N   0  0  0  0  0  0  0  0  0  0  0  0
   -5.8800   26.0530  -29.6710 O   0  0  0  0  0  0  0  0  0  0  0  0
   -7.1580   23.8760  -31.2670 C   0  0  0  0  0  0  0  0  0  0  0  0
   -7.3250   22.5420  -31.5570 C   0  0  0  0  0  0  0  0  0  0  0  0
   -8.4560   21.8530  -31.9870 C   0  0  0  0  0  0  0  0  0  0  0  0
   -8.3330   20.4750  -32.2350 C   0  0  0  0  0  0  0  0  0  0  0  0
   -7.0880   19.8210  -32.0680 C   0  0  0  0  0  0  0  0  0  0  0  0
   -6.9750   18.3450  -32.3160 C   0  0  0  0  0  0  0  0  0  0  0  0
   -6.1210   18.0580  -33.8510 Cl  0  0  0  0  0  0  0  0  0  0  0  0
   -5.9640   20.5490  -31.6190 C   0  0  0  0  0  0  0  0  0  0  0  0
   -6.1200   21.9160  -31.3610 C   0  0  0  0  0  0  0  0  0  0  0  0
    0.4066   21.6409  -27.0984 H   0  0  0  0  0  0  0  0  0  0  0  0
   -0.1544   20.8905  -28.6310 H   0  0  0  0  0  0  0  0  0  0  0  0
    1.2862   21.9636  -28.6310 H   0  0  0  0  0  0  0  0  0  0  0  0
   -2.3604   20.9300  -28.1482 H   0  0  0  0  0  0  0  0  0  0  0  0
   -3.7292   22.0606  -27.8396 H   0  0  0  0  0  0  0  0  0  0  0  0
   -3.0740   25.2230  -30.4130 H   0  0  0  0  0  0  0  0  0  0  0  0
   -7.9179   24.6696  -31.3184 H   0  0  0  0  0  0  0  0  0  0  0  0
   -9.4160   22.3711  -32.1282 H   0  0  0  0  0  0  0  0  0  0  0  0
   -9.2116   19.8994  -32.5617 H   0  0  0  0  0  0  0  0  0  0  0  0
   -6.4145   17.8778  -31.4929 H   0  0  0  0  0  0  0  0  0  0  0  0
   -7.9825   17.9070  -32.3723 H   0  0  0  0  0  0  0  0  0  0  0  0
   -4.9917   20.0548  -31.4758 H   0  0  0  0  0  0  0  0  0  0  0  0
  1  2  1  0
  2  3  1  0
  3  4  1  0
  4  5  2  0
  4  6  1  0
  6  7  1  0
  7  8  1  0
  8  9  1  0
  9 10  1  0
 10 11  2  0
 10 12  1  0
 12 13  1  0
 13 14  1  0
 14 15  1  0
 14 16  2  0
 13 17  2  0
 17 18  1  0
 18 19  2  0
 19 20  1  0
 20 21  2  0
 21 22  1  0
 22 23  1  0
 21 24  1  0
 24 25  2  0
  7  2  2  0
 25 12  1  0
 25 18  1  0
  1 26  1  0
  1 27  1  0
  1 28  1  0
  8 29  1  0
  8 30  1  0
 15 31  1  0
 17 32  1  0
 19 33  1  0
 20 34  1  0
 22 35  1  0
 22 36  1  0
 24 37  1  0
M  CHG  1  15  -1
M  END
>  <UniqueID>  (23) 
23

>  <SMILES>  (23) 
Cc1oc(=O)oc1COC(=O)n1c(C([NH-])=O)cc2ccc(CCl)cc21

>  <Energy>  (23) 
106.5632694542833

>  <Genealogy>  (23) 
Cc1oc(=O)oc1COC(=O)n1c(C([NH-])=O)cc2ccc(CCl)cc21 (protonated)
Cc1oc(=O)oc1COC(=O)n1c(C([NH-])=O)cc2ccc(CCl)cc21 (3D coordinates assigned)
Cc1oc(=O)oc1COC(=O)n1c(C([NH-])=O)cc2ccc(CCl)cc21 (optimized conformer: 106.5632694542833 kcal/mol)

>  <smiles>  (23) 
Cc1oc(=O)oc1COC(=O)n1c(C(N)=O)cc2ccc(CCl)cc21

>  <score_type>  (23) 
oracle

>  <origin>  (23) 
adg

>  <m_score__min__energy>  (23) 
-11.050000000000001

>  <m_primary>  (23) 
energy

$$$$
24:0
     RDKit          3D

 43 45  0  0  0  0  0  0  0  0999 V2000
   -5.7060   24.0770  -30.7770 N   0  0  0  0  0  0  0  0  0  0  0  0
   -6.9100   23.4320  -31.1970 C   0  0  0  0  0  0  0  0  0  0  0  0
   -7.9870   24.0860  -31.2020 O   0  0  0  0  0  0  0  0  0  0  0  0
   -6.8920   22.0270  -31.6600 C   0  0  0  0  0  0  0  0  0  0  0  0
   -8.0430   21.2790  -31.9020 C   0  0  0  0  0  0  0  0  0  0  0  0
   -7.5980   20.0150  -32.2100 C   0  0  0  0  0  0  0  0  0  0  0  0
   -8.3170   18.8730  -32.5430 C   0  0  0  0  0  0  0  0  0  0  0  0
   -7.5980   17.7040  -32.8390 C   0  0  0  0  0  0  0  0  0  0  0  0
   -6.1780   17.6890  -32.8040 C   0  0  0  0  0  0  0  0  0  0  0  0
   -5.4440   16.4830  -33.1260 N   0  0  0  0  0  0  0  0  0  0  0  0
   -6.0080   15.3630  -33.8670 C   0  0  0  0  0  0  0  0  0  0  0  0
   -4.8530   14.4070  -34.1310 C   0  0  0  0  0  0  0  0  0  0  0  0
   -3.7480   14.8100  -33.1520 C   0  0  2  0  0  0  0  0  0  0  0  0
   -3.7390   13.9670  -32.0240 O   0  0  0  0  0  0  0  0  0  0  0  0
   -4.0530   16.2560  -32.7580 C   0  0  0  0  0  0  0  0  0  0  0  0
   -5.4880   18.8760  -32.4520 C   0  0  0  0  0  0  0  0  0  0  0  0
   -6.2290   20.0250  -32.1500 C   0  0  0  0  0  0  0  0  0  0  0  0
   -5.7780   21.2560  -31.8170 N   0  0  0  0  0  0  0  0  0  0  0  0
   -4.4040   21.6720  -31.7260 C   0  0  0  0  0  0  0  0  0  0  0  0
   -3.9140   22.4250  -32.6110 O   0  0  0  0  0  0  0  0  0  0  0  0
   -3.6080   21.2270  -30.6660 O   0  0  0  0  0  0  0  0  0  0  0  0
   -2.8470   22.1040  -29.8360 C   0  0  0  0  0  0  0  0  0  0  0  0
   -2.4820   23.2810  -30.5210 O   0  0  0  0  0  0  0  0  0  0  0  0
   -3.1270   24.6500  -29.7220 P   0  0  0  0  0  0  0  0  0  0  0  0
   -4.1610   24.2620  -28.6870 O   0  0  0  0  0  0  0  0  0  0  0  0
   -3.8560   25.6530  -30.8710 O   0  0  0  0  0  0  0  0  0  0  0  0
   -1.8740   25.5040  -28.9740 O   0  0  0  0  0  0  0  0  0  0  0  0
   -5.7220   25.0810  -30.4910 H   0  0  0  0  0  0  0  0  0  0  0  0
   -4.8060   23.5540  -30.7120 H   0  0  0  0  0  0  0  0  0  0  0  0
   -9.0858   21.6262  -31.8563 H   0  0  0  0  0  0  0  0  0  0  0  0
   -9.4165   18.8848  -32.5737 H   0  0  0  0  0  0  0  0  0  0  0  0
   -8.1428   16.7853  -33.1021 H   0  0  0  0  0  0  0  0  0  0  0  0
   -6.7873   14.8650  -33.2715 H   0  0  0  0  0  0  0  0  0  0  0  0
   -6.4760   15.6966  -34.8049 H   0  0  0  0  0  0  0  0  0  0  0  0
   -5.1660   13.3683  -33.9492 H   0  0  0  0  0  0  0  0  0  0  0  0
   -4.5104   14.4635  -35.1747 H   0  0  0  0  0  0  0  0  0  0  0  0
   -2.7512   14.7191  -33.6083 H   0  0  0  0  0  0  0  0  0  0  0  0
   -4.0430   13.0670  -32.3140 H   0  0  0  0  0  0  0  0  0  0  0  0
   -3.9156   16.3951  -31.6755 H   0  0  0  0  0  0  0  0  0  0  0  0
   -3.3799   16.9639  -33.2638 H   0  0  0  0  0  0  0  0  0  0  0  0
   -4.3887   18.8942  -32.4167 H   0  0  0  0  0  0  0  0  0  0  0  0
   -3.4494   22.3752  -28.9565 H   0  0  0  0  0  0  0  0  0  0  0  0
   -1.9268   21.5813  -29.5361 H   0  0  0  0  0  0  0  0  0  0  0  0
  1  2  1  0
  2  3  2  0
  2  4  1  0
  4  5  2  0
  5  6  1  0
  6  7  2  0
  7  8  1  0
  8  9  2  0
  9 10  1  0
 10 11  1  0
 11 12  1  0
 12 13  1  0
 13 14  1  0
 13 15  1  0
  9 16  1  0
 16 17  2  0
 17 18  1  0
 18 19  1  0
 19 20  2  0
 19 21  1  0
 21 22  1  0
 22 23  1  0
 23 24  1  0
 24 25  2  0
 24 26  1  0
 24 27  1  0
 18  4  1  0
 17  6  1  0
 15 10  1  0
  1 28  1  0
  1 29  1  0
  5 30  1  0
  7 31  1  0
  8 32  1  0
 11 33  1  0
 11 34  1  0
 12 35  1  0
 12 36  1  0
 13 37  1  6
 14 38  1  0
 15 39  1  0
 15 40  1  0
 16 41  1  0
 22 42  1  0
 22 43  1  0
M  CHG  2  26  -1  27  -1
M  END
>  <UniqueID>  (24) 
24

>  <SMILES>  (24) 
NC(=O)c1cc2ccc(N3CC[C@H](O)C3)cc2n1C(=O)OCOP(=O)([O-])[O-]

>  <Energy>  (24) 
83.72377641196682

>  <Genealogy>  (24) 
NC(=O)c1cc2ccc(N3CC[C@H](O)C3)cc2n1C(=O)OCOP(=O)([O-])[O-] (protonated)
NC(=O)c1cc2ccc(N3CC[C@H](O)C3)cc2n1C(=O)OCOP(=O)([O-])[O-] (3D coordinates assigned)
NC(=O)c1cc2ccc(N3CC[C@H](O)C3)cc2n1C(=O)OCOP(=O)([O-])[O-] (nonaromatic ring conformer: 83.72377641196682 kcal/mol)

>  <smiles>  (24) 
NC(=O)c1cc2ccc(N3CC[C@H](O)C3)cc2n1C(=O)OCOP(=O)(O)O

>  <score_type>  (24) 
oracle

>  <origin>  (24) 
adg

>  <m_score__min__energy>  (24) 
-12.76

>  <m_primary>  (24) 
energy

$$$$
25:0
     RDKit          3D

 44 47  0  0  0  0  0  0  0  0999 V2000
   -3.8740   25.1620  -30.0810 N   0  0  0  0  0  0  0  0  0  0  0  0
   -5.1490   25.0680  -30.7600 C   0  0  0  0  0  0  0  0  0  0  0  0
   -5.7380   26.1610  -30.8950 O   0  0  0  0  0  0  0  0  0  0  0  0
   -5.6140   23.7750  -31.2070 C   0  0  0  0  0  0  0  0  0  0  0  0
   -6.9790   23.4470  -31.2200 C   0  0  0  0  0  0  0  0  0  0  0  0
   -7.1230   22.1650  -31.6910 C   0  0  0  0  0  0  0  0  0  0  0  0
   -8.2510   21.3860  -31.8910 C   0  0  0  0  0  0  0  0  0  0  0  0
   -8.0910   20.1120  -32.3840 C   0  0  0  0  0  0  0  0  0  0  0  0
   -6.8380   19.6200  -32.6710 C   0  0  0  0  0  0  0  0  0  0  0  0
   -6.7340   18.2670  -33.1880 C   0  0  0  0  0  0  0  0  0  0  0  0
   -7.3010   17.1010  -32.7220 C   0  0  0  0  0  0  0  0  0  0  0  0
   -6.9110   16.1120  -33.5360 N   0  0  0  0  0  0  0  0  0  0  0  0
   -6.1280   16.5820  -34.4930 N   0  0  0  0  0  0  0  0  0  0  0  0
   -5.9940   17.9030  -34.3130 C   0  0  0  0  0  0  0  0  0  0  0  0
   -5.7380   20.4330  -32.4540 C   0  0  0  0  0  0  0  0  0  0  0  0
   -5.8550   21.7230  -31.9590 C   0  0  0  0  0  0  0  0  0  0  0  0
   -4.9430   22.7020  -31.6650 N   0  0  0  0  0  0  0  0  0  0  0  0
   -3.5050   22.5850  -31.8270 C   0  0  0  0  0  0  0  0  0  0  0  0
   -2.9890   22.0650  -32.8330 O   0  0  0  0  0  0  0  0  0  0  0  0
   -2.7280   23.0620  -30.8380 O   0  0  0  0  0  0  0  0  0  0  0  0
   -2.6630   22.7240  -29.5270 C   0  0  0  0  0  0  0  0  0  0  0  0
   -2.4510   23.5830  -28.5120 O   0  0  0  0  0  0  0  0  0  0  0  0
   -1.8860   24.7120  -28.1560 C   0  0  0  0  0  0  0  0  0  0  0  0
   -1.6990   25.6620  -28.9320 O   0  0  0  0  0  0  0  0  0  0  0  0
   -1.4250   24.9170  -26.7640 C   0  0  0  0  0  0  0  0  0  0  0  0
   -1.8070   26.0550  -26.0870 C   0  0  0  0  0  0  0  0  0  0  0  0
   -1.4050   26.2840  -24.8020 N   0  0  0  0  0  0  0  0  0  0  0  0
   -0.6090   25.3560  -24.1940 C   0  0  0  0  0  0  0  0  0  0  0  0
   -0.2210   24.2160  -24.8620 C   0  0  0  0  0  0  0  0  0  0  0  0
   -0.6420   24.0320  -26.1270 N   0  0  0  0  0  0  0  0  0  0  0  0
   -3.8540   25.2260  -29.0210 H   0  0  0  0  0  0  0  0  0  0  0  0
   -3.0020   25.1650  -30.6520 H   0  0  0  0  0  0  0  0  0  0  0  0
   -7.7991   24.1087  -30.9045 H   0  0  0  0  0  0  0  0  0  0  0  0
   -9.2527   21.7778  -31.6606 H   0  0  0  0  0  0  0  0  0  0  0  0
   -8.9749   19.4788  -32.5509 H   0  0  0  0  0  0  0  0  0  0  0  0
   -7.9542   17.0009  -31.8426 H   0  0  0  0  0  0  0  0  0  0  0  0
   -5.6910   16.0290  -35.2500 H   0  0  0  0  0  0  0  0  0  0  0  0
   -5.4025   18.5831  -34.9436 H   0  0  0  0  0  0  0  0  0  0  0  0
   -4.7358   20.0414  -32.6825 H   0  0  0  0  0  0  0  0  0  0  0  0
   -3.6243   22.2387  -29.3027 H   0  0  0  0  0  0  0  0  0  0  0  0
   -1.7130   22.1696  -29.5152 H   0  0  0  0  0  0  0  0  0  0  0  0
   -2.4480   26.7931  -26.5913 H   0  0  0  0  0  0  0  0  0  0  0  0
   -0.2740   25.5208  -23.1593 H   0  0  0  0  0  0  0  0  0  0  0  0
    0.4209   23.4698  -24.3709 H   0  0  0  0  0  0  0  0  0  0  0  0
  1  2  1  0
  2  3  2  0
  2  4  1  0
  4  5  2  0
  5  6  1  0
  6  7  2  0
  7  8  1  0
  8  9  2  0
  9 10  1  0
 10 11  1  0
 11 12  2  0
 12 13  1  0
 13 14  1  0
  9 15  1  0
 15 16  2  0
 16 17  1  0
 17 18  1  0
 18 19  2  0
 18 20  1  0
 20 21  1  0
 21 22  1  0
 22 23  1  0
 23 24  2  0
 23 25  1  0
 25 26  2  0
 26 27  1  0
 27 28  2  0
 28 29  1  0
 29 30  2  0
 17  4  1  0
 30 25  1  0
 16  6  1  0
 14 10  2  0
  1 31  1  0
  1 32  1  0
  5 33  1  0
  7 34  1  0
  8 35  1  0
 11 36  1  0
 13 37  1  0
 14 38  1  0
 15 39  1  0
 21 40  1  0
 21 41  1  0
 26 42  1  0
 28 43  1  0
 29 44  1  0
M  END
>  <smiles>  (25) 
NC(=O)c1cc2ccc(-c3cn[nH]c3)cc2n1C(=O)OCOC(=O)c1cnccn1

>  <score_type>  (25) 
oracle

>  <origin>  (25) 
adg

>  <m_score__min__energy>  (25) 
-9.0500000000000007

>  <m_primary>  (25) 
energy

$$$$
26:0
     RDKit          3D

 35 36  0  0  0  0  0  0  0  0999 V2000
   -7.2360   17.2210  -32.3370 C   0  0  0  0  0  0  0  0  0  0  0  0
   -6.6200   18.3890  -32.9660 N   0  0  0  0  0  0  0  0  0  0  0  0
   -5.3190   17.9870  -34.5680 I   0  0  0  0  0  0  0  0  0  0  0  0
   -6.8940   19.7380  -32.5090 C   0  0  0  0  0  0  0  0  0  0  0  0
   -8.2240   20.2510  -32.5050 C   0  0  0  0  0  0  0  0  0  0  0  0
   -8.4980   21.5550  -32.0550 C   0  0  0  0  0  0  0  0  0  0  0  0
   -7.4340   22.3310  -31.6160 C   0  0  0  0  0  0  0  0  0  0  0  0
   -7.4170   23.6150  -31.1170 C   0  0  0  0  0  0  0  0  0  0  0  0
   -6.0780   23.8830  -30.8340 C   0  0  0  0  0  0  0  0  0  0  0  0
   -5.5700   25.1890  -30.3560 C   0  0  0  0  0  0  0  0  0  0  0  0
   -4.2190   25.5840  -30.6030 N   0  0  0  0  0  0  0  0  0  0  0  0
   -6.3250   25.9610  -29.7080 O   0  0  0  0  0  0  0  0  0  0  0  0
   -5.3050   22.8040  -31.1410 N   0  0  0  0  0  0  0  0  0  0  0  0
   -3.8920   22.6510  -30.9530 C   0  0  0  0  0  0  0  0  0  0  0  0
   -3.0990   23.0040  -31.8650 O   0  0  0  0  0  0  0  0  0  0  0  0
   -3.3540   21.9810  -29.7200 C   0  0  0  0  0  0  0  0  0  0  0  0
   -2.9420   23.0070  -28.6580 C   0  0  0  0  0  0  0  0  0  0  0  0
   -1.9080   23.9580  -29.1760 C   0  0  0  0  0  0  0  0  0  0  0  0
   -0.7450   23.5500  -29.4330 O   0  0  0  0  0  0  0  0  0  0  0  0
   -2.2200   25.3020  -29.3470 O   0  0  0  0  0  0  0  0  0  0  0  0
   -6.1480   21.8660  -31.6210 C   0  0  0  0  0  0  0  0  0  0  0  0
   -5.8430   20.5720  -32.0520 C   0  0  0  0  0  0  0  0  0  0  0  0
   -7.1824   17.3227  -31.2430 H   0  0  0  0  0  0  0  0  0  0  0  0
   -8.2889   17.1499  -32.6475 H   0  0  0  0  0  0  0  0  0  0  0  0
   -6.7000   16.3120  -32.6475 H   0  0  0  0  0  0  0  0  0  0  0  0
   -9.0496   19.6165  -32.8597 H   0  0  0  0  0  0  0  0  0  0  0  0
   -9.5252   21.9484  -32.0510 H   0  0  0  0  0  0  0  0  0  0  0  0
   -8.2766   24.2860  -30.9725 H   0  0  0  0  0  0  0  0  0  0  0  0
   -3.8640   26.4940  -30.2330 H   0  0  0  0  0  0  0  0  0  0  0  0
   -3.5810   25.0050  -31.1910 H   0  0  0  0  0  0  0  0  0  0  0  0
   -4.1317   21.3255  -29.3011 H   0  0  0  0  0  0  0  0  0  0  0  0
   -2.4636   21.4005  -30.0031 H   0  0  0  0  0  0  0  0  0  0  0  0
   -3.8303   23.5789  -28.3518 H   0  0  0  0  0  0  0  0  0  0  0  0
   -2.5096   22.4624  -27.8057 H   0  0  0  0  0  0  0  0  0  0  0  0
   -4.8054   20.2071  -32.0368 H   0  0  0  0  0  0  0  0  0  0  0  0
  1  2  1  0
  2  3  1  0
  2  4  1  0
  4  5  2  0
  5  6  1  0
  6  7  2  0
  7  8  1  0
  8  9  2  0
  9 10  1  0
 10 11  1  0
 10 12  2  0
  9 13  1  0
 13 14  1  0
 14 15  2  0
 14 16  1  0
 16 17  1  0
 17 18  1  0
 18 19  2  0
 18 20  1  0
 13 21  1  0
 21 22  2  0
 22  4  1  0
 21  7  1  0
  1 23  1  0
  1 24  1  0
  1 25  1  0
  5 26  1  0
  6 27  1  0
  8 28  1  0
 11 29  1  0
 11 30  1  0
 16 31  1  0
 16 32  1  0
 17 33  1  0
 17 34  1  0
 22 35  1  0
M  CHG  1  20  -1
M  END
>  <UniqueID>  (26) 
25

>  <SMILES>  (26) 
CN(I)c1ccc2cc(C(N)=O)n(C(=O)CCC(=O)[O-])c2c1

>  <Energy>  (26) 
72.39764906078443

>  <Genealogy>  (26) 
CN(I)c1ccc2cc(C(N)=O)n(C(=O)CCC(=O)[O-])c2c1 (protonated)
CN(I)c1ccc2cc(C(N)=O)n(C(=O)CCC(=O)[O-])c2c1 (3D coordinates assigned)
CN(I)c1ccc2cc(C(N)=O)n(C(=O)CCC(=O)[O-])c2c1 (optimized conformer: 72.39764906078443 kcal/mol)

>  <smiles>  (26) 
CN(I)c1ccc2cc(C(N)=O)n(C(=O)CCC(=O)O)c2c1

>  <score_type>  (26) 
oracle

>  <origin>  (26) 
adg

>  <m_score__min__energy>  (26) 
-11.08

>  <m_primary>  (26) 
energy

$$$$
27:0
     RDKit          3D

 36 37  0  0  0  0  0  0  0  0999 V2000
   -3.7180   25.2880  -30.8300 N   0  0  0  0  0  0  0  0  0  0  0  0
   -5.1410   25.2940  -30.7900 C   0  0  0  0  0  0  0  0  0  0  0  0
   -5.7460   26.3700  -30.5340 O   0  0  0  0  0  0  0  0  0  0  0  0
   -5.9130   24.0500  -30.9910 C   0  0  0  0  0  0  0  0  0  0  0  0
   -7.2340   23.8940  -30.5810 C   0  0  0  0  0  0  0  0  0  0  0  0
   -7.5580   22.5900  -30.8780 C   0  0  0  0  0  0  0  0  0  0  0  0
   -8.7550   21.9040  -30.7050 C   0  0  0  0  0  0  0  0  0  0  0  0
   -8.8210   20.5720  -31.1450 C   0  0  0  0  0  0  0  0  0  0  0  0
   -7.6930   19.9450  -31.7330 C   0  0  0  0  0  0  0  0  0  0  0  0
   -7.7900   18.5330  -32.2560 C   0  0  0  0  0  0  0  0  0  0  0  0
   -7.2190   18.4410  -33.5150 F   0  0  0  0  0  0  0  0  0  0  0  0
   -9.1210   18.1680  -32.3370 F   0  0  0  0  0  0  0  0  0  0  0  0
   -7.1300   17.6530  -31.4160 F   0  0  0  0  0  0  0  0  0  0  0  0
   -6.5020   20.6850  -31.9130 C   0  0  0  0  0  0  0  0  0  0  0  0
   -6.4600   22.0070  -31.4530 C   0  0  0  0  0  0  0  0  0  0  0  0
   -5.4410   22.8920  -31.5330 N   0  0  0  0  0  0  0  0  0  0  0  0
   -4.1670   22.6740  -32.1620 C   0  0  0  0  0  0  0  0  0  0  0  0
   -4.1130   22.3140  -33.3700 O   0  0  0  0  0  0  0  0  0  0  0  0
   -2.9920   22.8850  -31.4350 O   0  0  0  0  0  0  0  0  0  0  0  0
   -2.6590   22.1310  -30.2760 C   0  0  0  0  0  0  0  0  0  0  0  0
   -3.4840   22.5480  -29.1960 O   0  0  0  0  0  0  0  0  0  0  0  0
   -3.1580   23.6300  -28.3710 C   0  0  0  0  0  0  0  0  0  0  0  0
   -3.9940   24.5500  -28.1570 O   0  0  0  0  0  0  0  0  0  0  0  0
   -1.7930   23.7110  -27.7690 C   0  0  0  0  0  0  0  0  0  0  0  0
   -0.9380   24.6360  -28.5710 C   0  0  0  0  0  0  0  0  0  0  0  0
    0.3050   24.4580  -28.6310 O   0  0  0  0  0  0  0  0  0  0  0  0
   -1.5210   25.6720  -29.2890 O   0  0  0  0  0  0  0  0  0  0  0  0
   -3.1660   24.6490  -30.2150 H   0  0  0  0  0  0  0  0  0  0  0  0
   -7.8819   24.6526  -30.1176 H   0  0  0  0  0  0  0  0  0  0  0  0
   -9.6241   22.3900  -30.2376 H   0  0  0  0  0  0  0  0  0  0  0  0
   -9.7588   20.0083  -31.0322 H   0  0  0  0  0  0  0  0  0  0  0  0
   -5.6276   20.2324  -32.4035 H   0  0  0  0  0  0  0  0  0  0  0  0
   -2.8230   21.0613  -30.4730 H   0  0  0  0  0  0  0  0  0  0  0  0
   -1.6020   22.2944  -30.0190 H   0  0  0  0  0  0  0  0  0  0  0  0
   -1.8706   24.0875  -26.7384 H   0  0  0  0  0  0  0  0  0  0  0  0
   -1.3386   22.7092  -27.7656 H   0  0  0  0  0  0  0  0  0  0  0  0
  1  2  1  0
  2  3  2  0
  2  4  1  0
  4  5  2  0
  5  6  1  0
  6  7  2  0
  7  8  1  0
  8  9  2  0
  9 10  1  0
 10 11  1  0
 10 12  1  0
 10 13  1  0
  9 14  1  0
 14 15  2  0
 15 16  1  0
 16 17  1  0
 17 18  2  0
 17 19  1  0
 19 20  1  0
 20 21  1  0
 21 22  1  0
 22 23  2  0
 22 24  1  0
 24 25  1  0
 25 26  2  0
 25 27  1  0
 16  4  1  0
 15  6  1  0
  1 28  1  0
  5 29  1  0
  7 30  1  0
  8 31  1  0
 14 32  1  0
 20 33  1  0
 20 34  1  0
 24 35  1  0
 24 36  1  0
M  CHG  2   1  -1  27  -1
M  END
>  <UniqueID>  (27) 
26

>  <SMILES>  (27) 
[NH-]C(=O)c1cc2ccc(C(F)(F)F)cc2n1C(=O)OCOC(=O)CC(=O)[O-]

>  <Energy>  (27) 
70.05590155752746

>  <Genealogy>  (27) 
[NH-]C(=O)c1cc2ccc(C(F)(F)F)cc2n1C(=O)OCOC(=O)CC(=O)[O-] (protonated)
[NH-]C(=O)c1cc2ccc(C(F)(F)F)cc2n1C(=O)OCOC(=O)CC(=O)[O-] (3D coordinates assigned)
[NH-]C(=O)c1cc2ccc(C(F)(F)F)cc2n1C(=O)OCOC(=O)CC(=O)[O-] (optimized conformer: 70.05590155752746 kcal/mol)

>  <smiles>  (27) 
NC(=O)c1cc2ccc(C(F)(F)F)cc2n1C(=O)OCOC(=O)CC(=O)O

>  <score_type>  (27) 
oracle

>  <origin>  (27) 
adg

>  <m_score__min__energy>  (27) 
-12.119999999999999

>  <m_primary>  (27) 
energy

$$$$
28:0
     RDKit          3D

 37 38  0  0  0  0  0  0  0  0999 V2000
   -1.8650   24.9620  -26.6970 C   0  0  0  0  0  0  0  0  0  0  0  0
   -2.2710   24.3930  -28.3320 S   0  0  0  0  0  0  0  0  0  0  0  0
   -1.8090   22.9720  -28.4930 O   0  0  0  0  0  0  0  0  0  0  0  0
   -1.5870   25.2690  -29.3440 O   0  0  0  0  0  0  0  0  0  0  0  0
   -3.9860   24.4790  -28.5510 N   0  0  0  0  0  0  0  0  0  0  0  0
   -4.5830   24.8060  -29.8080 C   0  0  0  0  0  0  0  0  0  0  0  0
   -3.8860   25.2870  -30.7410 O   0  0  0  0  0  0  0  0  0  0  0  0
   -6.0440   24.5740  -30.0100 C   0  0  0  0  0  0  0  0  0  0  0  0
   -6.2370   23.3020  -30.6150 O   0  0  0  0  0  0  0  0  0  0  0  0
   -5.6590   22.9460  -31.8350 C   0  0  0  0  0  0  0  0  0  0  0  0
   -5.5250   23.8070  -32.7470 O   0  0  0  0  0  0  0  0  0  0  0  0
   -5.2200   21.5940  -32.0540 N   0  0  0  0  0  0  0  0  0  0  0  0
   -3.9370   21.1390  -32.1170 C   0  0  0  0  0  0  0  0  0  0  0  0
   -2.7240   21.9220  -31.8110 C   0  0  0  0  0  0  0  0  0  0  0  0
   -2.7340   22.9380  -30.8070 N   0  0  0  0  0  0  0  0  0  0  0  0
   -1.6460   21.6510  -32.4050 O   0  0  0  0  0  0  0  0  0  0  0  0
   -3.9100   19.7890  -32.4580 C   0  0  0  0  0  0  0  0  0  0  0  0
   -5.2290   19.4220  -32.5890 C   0  0  0  0  0  0  0  0  0  0  0  0
   -5.7840   18.1900  -32.9280 C   0  0  0  0  0  0  0  0  0  0  0  0
   -7.1820   18.1030  -33.0250 C   0  0  0  0  0  0  0  0  0  0  0  0
   -7.9930   19.2400  -32.7940 C   0  0  0  0  0  0  0  0  0  0  0  0
   -9.4140   19.1410  -32.9140 N   0  0  0  0  0  0  0  0  0  0  0  0
   -7.3970   20.4730  -32.4540 C   0  0  0  0  0  0  0  0  0  0  0  0
   -6.0010   20.5290  -32.3420 C   0  0  0  0  0  0  0  0  0  0  0  0
   -2.3352   24.3031  -25.9522 H   0  0  0  0  0  0  0  0  0  0  0  0
   -0.7732   24.9458  -26.5637 H   0  0  0  0  0  0  0  0  0  0  0  0
   -2.2355   25.9891  -26.5637 H   0  0  0  0  0  0  0  0  0  0  0  0
   -6.5584   24.6008  -29.0381 H   0  0  0  0  0  0  0  0  0  0  0  0
   -6.4558   25.3589  -30.6614 H   0  0  0  0  0  0  0  0  0  0  0  0
   -3.5610   23.0730  -30.1840 H   0  0  0  0  0  0  0  0  0  0  0  0
   -1.8750   23.5050  -30.6280 H   0  0  0  0  0  0  0  0  0  0  0  0
   -3.0233   19.1523  -32.5936 H   0  0  0  0  0  0  0  0  0  0  0  0
   -5.1469   17.3128  -33.1139 H   0  0  0  0  0  0  0  0  0  0  0  0
   -7.6515   17.1422  -33.2829 H   0  0  0  0  0  0  0  0  0  0  0  0
   -9.8780   19.2350  -33.8450 H   0  0  0  0  0  0  0  0  0  0  0  0
  -10.0110   18.9780  -32.0730 H   0  0  0  0  0  0  0  0  0  0  0  0
   -8.0127   21.3680  -32.2811 H   0  0  0  0  0  0  0  0  0  0  0  0
  1  2  1  0
  2  3  2  0
  2  4  2  0
  2  5  1  0
  5  6  1  0
  6  7  2  0
  6  8  1  0
  8  9  1  0
  9 10  1  0
 10 11  2  0
 10 12  1  0
 12 13  1  0
 13 14  1  0
 14 15  1  0
 14 16  2  0
 13 17  2  0
 17 18  1  0
 18 19  2  0
 19 20  1  0
 20 21  2  0
 21 22  1  0
 21 23  1  0
 23 24  2  0
 24 12  1  0
 24 18  1  0
  1 25  1  0
  1 26  1  0
  1 27  1  0
  8 28  1  0
  8 29  1  0
 15 30  1  0
 15 31  1  0
 17 32  1  0
 19 33  1  0
 20 34  1  0
 22 35  1  0
 22 36  1  0
 23 37  1  0
M  CHG  1   5  -1
M  END
>  <UniqueID>  (28) 
27

>  <SMILES>  (28) 
CS(=O)(=O)[N-]C(=O)COC(=O)n1c(C(N)=O)cc2ccc(N)cc21

>  <Energy>  (28) 
69.71357962433186

>  <Genealogy>  (28) 
CS(=O)(=O)[N-]C(=O)COC(=O)n1c(C(N)=O)cc2ccc(N)cc21 (protonated)
CS(=O)(=O)[N-]C(=O)COC(=O)n1c(C(N)=O)cc2ccc(N)cc21 (3D coordinates assigned)
CS(=O)(=O)[N-]C(=O)COC(=O)n1c(C(N)=O)cc2ccc(N)cc21 (optimized conformer: 69.71357962433186 kcal/mol)

>  <smiles>  (28) 
CS(=O)(=O)NC(=O)COC(=O)n1c(C(N)=O)cc2ccc(N)cc21

>  <score_type>  (28) 
oracle

>  <origin>  (28) 
adg

>  <m_score__min__energy>  (28) 
-8.8800000000000008

>  <m_primary>  (28) 
energy

$$$$
29:0
     RDKit          3D

 43 44  0  0  0  0  0  0  0  0999 V2000
   -6.4540   17.6740  -33.8680 C   0  0  0  0  0  0  0  0  0  0  0  0
   -6.4140   18.0930  -32.4600 N   0  0  0  0  0  0  0  0  0  0  0  0
   -6.1270   17.0870  -31.4300 C   0  0  0  0  0  0  0  0  0  0  0  0
   -6.6570   19.4760  -32.0950 C   0  0  0  0  0  0  0  0  0  0  0  0
   -7.9780   20.0100  -32.1040 C   0  0  0  0  0  0  0  0  0  0  0  0
   -8.2250   21.3430  -31.7420 C   0  0  0  0  0  0  0  0  0  0  0  0
   -7.1410   22.1340  -31.3810 C   0  0  0  0  0  0  0  0  0  0  0  0
   -7.1010   23.4470  -30.9690 C   0  0  0  0  0  0  0  0  0  0  0  0
   -5.7550   23.7170  -30.7310 C   0  0  0  0  0  0  0  0  0  0  0  0
   -5.2470   25.0530  -30.3530 C   0  0  0  0  0  0  0  0  0  0  0  0
   -3.8640   25.3560  -30.5100 N   0  0  0  0  0  0  0  0  0  0  0  0
   -6.0170   25.9180  -29.8580 O   0  0  0  0  0  0  0  0  0  0  0  0
   -4.9950   22.6120  -30.9790 N   0  0  0  0  0  0  0  0  0  0  0  0
   -3.5810   22.4480  -30.7810 C   0  0  0  0  0  0  0  0  0  0  0  0
   -2.7640   22.9700  -31.5840 O   0  0  0  0  0  0  0  0  0  0  0  0
   -3.0840   21.6470  -29.6950 C   0  0  0  0  0  0  0  0  0  0  0  0
   -2.6790   20.9800  -28.7780 C   0  0  0  0  0  0  0  0  0  0  0  0
   -2.0610   19.9960  -27.3860 Si  0  0  0  0  0  4  0  0  0  0  0  0
   -1.3000   21.1370  -26.1200 C   0  0  0  0  0  0  0  0  0  0  0  0
   -3.4750   19.0550  -26.6110 C   0  0  0  0  0  0  0  0  0  0  0  0
   -0.7710   18.7940  -28.0000 C   0  0  0  0  0  0  0  0  0  0  0  0
   -5.8600   21.6540  -31.3790 C   0  0  0  0  0  0  0  0  0  0  0  0
   -5.5830   20.3250  -31.7180 C   0  0  0  0  0  0  0  0  0  0  0  0
   -6.5584   16.5803  -33.9223 H   0  0  0  0  0  0  0  0  0  0  0  0
   -7.3108   18.1494  -34.3678 H   0  0  0  0  0  0  0  0  0  0  0  0
   -5.5227   17.9787  -34.3678 H   0  0  0  0  0  0  0  0  0  0  0  0
   -6.2549   17.5354  -30.4337 H   0  0  0  0  0  0  0  0  0  0  0  0
   -6.8192   16.2395  -31.5423 H   0  0  0  0  0  0  0  0  0  0  0  0
   -5.0918   16.7323  -31.5423 H   0  0  0  0  0  0  0  0  0  0  0  0
   -8.8191   19.3658  -32.4000 H   0  0  0  0  0  0  0  0  0  0  0  0
   -9.2469   21.7500  -31.7439 H   0  0  0  0  0  0  0  0  0  0  0  0
   -7.9505   24.1360  -30.8525 H   0  0  0  0  0  0  0  0  0  0  0  0
   -3.5440   26.0500  -31.2220 H   0  0  0  0  0  0  0  0  0  0  0  0
   -1.5408   20.7759  -25.1092 H   0  0  0  0  0  0  0  0  0  0  0  0
   -0.2081   21.1554  -26.2523 H   0  0  0  0  0  0  0  0  0  0  0  0
   -1.7025   22.1521  -26.2523 H   0  0  0  0  0  0  0  0  0  0  0  0
   -3.3943   19.1087  -25.5153 H   0  0  0  0  0  0  0  0  0  0  0  0
   -4.4295   19.4986  -26.9305 H   0  0  0  0  0  0  0  0  0  0  0  0
   -3.4343   18.0032  -26.9305 H   0  0  0  0  0  0  0  0  0  0  0  0
   -0.2681   18.3254  -27.1412 H   0  0  0  0  0  0  0  0  0  0  0  0
   -1.2547   18.0171  -28.6103 H   0  0  0  0  0  0  0  0  0  0  0  0
   -0.0301   19.3313  -28.6103 H   0  0  0  0  0  0  0  0  0  0  0  0
   -4.5512   19.9445  -31.6929 H   0  0  0  0  0  0  0  0  0  0  0  0
  1  2  1  0
  2  3  1  0
  2  4  1  0
  4  5  2  0
  5  6  1  0
  6  7  2  0
  7  8  1  0
  8  9  2  0
  9 10  1  0
 10 11  1  0
 10 12  2  0
  9 13  1  0
 13 14  1  0
 14 15  2  0
 14 16  1  0
 16 17  3  0
 17 18  1  0
 18 19  1  0
 18 20  1  0
 18 21  1  0
 13 22  1  0
 22 23  2  0
 23  4  1  0
 22  7  1  0
  1 24  1  0
  1 25  1  0
  1 26  1  0
  3 27  1  0
  3 28  1  0
  3 29  1  0
  5 30  1  0
  6 31  1  0
  8 32  1  0
 11 33  1  0
 19 34  1  0
 19 35  1  0
 19 36  1  0
 20 37  1  0
 20 38  1  0
 20 39  1  0
 21 40  1  0
 21 41  1  0
 21 42  1  0
 23 43  1  0
M  CHG  1  11  -1
M  END
>  <UniqueID>  (29) 
28

>  <SMILES>  (29) 
CN(C)c1ccc2cc(C([NH-])=O)n(C(=O)C#C[Si](C)(C)C)c2c1

>  <Energy>  (29) 
66.81167698336084

>  <Genealogy>  (29) 
CN(C)c1ccc2cc(C([NH-])=O)n(C(=O)C#C[Si](C)(C)C)c2c1 (protonated)
CN(C)c1ccc2cc(C([NH-])=O)n(C(=O)C#C[Si](C)(C)C)c2c1 (3D coordinates assigned)
CN(C)c1ccc2cc(C([NH-])=O)n(C(=O)C#C[Si](C)(C)C)c2c1 (optimized conformer: 66.81167698336084 kcal/mol)

>  <smiles>  (29) 
CN(C)c1ccc2cc(C(N)=O)n(C(=O)C#C[Si](C)(C)C)c2c1

>  <score_type>  (29) 
oracle

>  <origin>  (29) 
adg

>  <m_score__min__energy>  (29) 
-11.26

>  <m_primary>  (29) 
energy

$$$$
31:0
     RDKit          3D

 38 39  0  0  0  0  0  0  0  0999 V2000
   -3.8940   25.6560  -30.8190 N   0  0  0  0  0  0  0  0  0  0  0  0
   -5.0740   24.9450  -30.4550 C   0  0  0  0  0  0  0  0  0  0  0  0
   -5.8520   25.4400  -29.5960 O   0  0  0  0  0  0  0  0  0  0  0  0
   -5.3990   23.6680  -31.1220 C   0  0  0  0  0  0  0  0  0  0  0  0
   -6.6730   23.3450  -31.5840 C   0  0  0  0  0  0  0  0  0  0  0  0
   -6.5750   22.0550  -32.0540 C   0  0  0  0  0  0  0  0  0  0  0  0
   -7.5410   21.2400  -32.6370 C   0  0  0  0  0  0  0  0  0  0  0  0
   -7.1510   19.9560  -33.0550 C   0  0  0  0  0  0  0  0  0  0  0  0
   -5.8140   19.5140  -32.8870 C   0  0  0  0  0  0  0  0  0  0  0  0
   -5.4150   18.1450  -33.3590 C   0  0  0  0  0  0  0  0  0  0  0  0
   -5.4050   18.1150  -34.7430 F   0  0  0  0  0  0  0  0  0  0  0  0
   -6.3140   17.2050  -32.8880 F   0  0  0  0  0  0  0  0  0  0  0  0
   -4.8620   20.3730  -32.2950 C   0  0  0  0  0  0  0  0  0  0  0  0
   -5.2810   21.6400  -31.8730 C   0  0  0  0  0  0  0  0  0  0  0  0
   -4.5440   22.6220  -31.3050 N   0  0  0  0  0  0  0  0  0  0  0  0
   -3.1310   22.5830  -31.0440 C   0  0  0  0  0  0  0  0  0  0  0  0
   -2.3560   22.0070  -31.8530 O   0  0  0  0  0  0  0  0  0  0  0  0
   -2.6040   23.2270  -29.8820 N   0  0  0  0  0  0  0  0  0  0  0  0
   -1.1870   23.5080  -29.7050 C   0  0  0  0  0  0  0  0  0  0  0  0
   -1.0330   24.7800  -28.9410 C   0  0  0  0  0  0  0  0  0  0  0  0
   -1.9630   25.6320  -28.9500 O   0  0  0  0  0  0  0  0  0  0  0  0
    0.1470   24.9990  -28.1610 N   0  0  0  0  0  0  0  0  0  0  0  0
    0.1330   25.1830  -26.7140 C   0  0  0  0  0  0  0  0  0  0  0  0
   -0.4310   26.5560  -26.3580 C   0  0  0  0  0  0  0  0  0  0  0  0
   -0.3920   27.3840  -27.4850 O   0  0  0  0  0  0  0  0  0  0  0  0
   -2.9480   25.2890  -30.5700 H   0  0  0  0  0  0  0  0  0  0  0  0
   -7.5675   23.9851  -31.5751 H   0  0  0  0  0  0  0  0  0  0  0  0
   -8.5760   21.5894  -32.7664 H   0  0  0  0  0  0  0  0  0  0  0  0
   -7.8911   19.2865  -33.5176 H   0  0  0  0  0  0  0  0  0  0  0  0
   -4.4099   17.9124  -32.9772 H   0  0  0  0  0  0  0  0  0  0  0  0
   -3.8169   20.0541  -32.1687 H   0  0  0  0  0  0  0  0  0  0  0  0
   -0.7150   22.6848  -29.1487 H   0  0  0  0  0  0  0  0  0  0  0  0
   -0.7030   23.6054  -30.6880 H   0  0  0  0  0  0  0  0  0  0  0  0
   -0.4935   24.4037  -26.2555 H   0  0  0  0  0  0  0  0  0  0  0  0
    1.1631   25.1110  -26.3350 H   0  0  0  0  0  0  0  0  0  0  0  0
   -1.4717   26.4479  -26.0186 H   0  0  0  0  0  0  0  0  0  0  0  0
    0.1729   27.0027  -25.5544 H   0  0  0  0  0  0  0  0  0  0  0  0
   -0.2690   26.7820  -28.2640 H   0  0  0  0  0  0  0  0  0  0  0  0
  1  2  1  0
  2  3  2  0
  2  4  1  0
  4  5  2  0
  5  6  1  0
  6  7  2  0
  7  8  1  0
  8  9  2  0
  9 10  1  0
 10 11  1  0
 10 12  1  0
  9 13  1  0
 13 14  2  0
 14 15  1  0
 15 16  1  0
 16 17  2  0
 16 18  1  0
 18 19  1  0
 19 20  1  0
 20 21  2  0
 20 22  1  0
 22 23  1  0
 23 24  1  0
 24 25  1  0
 15  4  1  0
 14  6  1  0
  1 26  1  0
  5 27  1  0
  7 28  1  0
  8 29  1  0
 10 30  1  0
 13 31  1  0
 19 32  1  0
 19 33  1  0
 23 34  1  0
 23 35  1  0
 24 36  1  0
 24 37  1  0
 25 38  1  0
M  CHG  3   1  -1  18  -1  22  -1
M  END
>  <UniqueID>  (30) 
29

>  <SMILES>  (30) 
[NH-]C(=O)c1cc2ccc(C(F)F)cc2n1C(=O)[N-]CC(=O)[N-]CCO

>  <Energy>  (30) 
68.18914148544572

>  <Genealogy>  (30) 
[NH-]C(=O)c1cc2ccc(C(F)F)cc2n1C(=O)[N-]CC(=O)[N-]CCO (protonated)
[NH-]C(=O)c1cc2ccc(C(F)F)cc2n1C(=O)[N-]CC(=O)[N-]CCO (3D coordinates assigned)
[NH-]C(=O)c1cc2ccc(C(F)F)cc2n1C(=O)[N-]CC(=O)[N-]CCO (optimized conformer: 68.18914148544572 kcal/mol)

>  <smiles>  (30) 
NC(=O)c1cc2ccc(C(F)F)cc2n1C(=O)NCC(=O)NCCO

>  <score_type>  (30) 
oracle

>  <origin>  (30) 
adg

>  <m_score__min__energy>  (30) 
-11.08

>  <m_primary>  (30) 
energy

$$$$
32:0
     RDKit          3D

 43 44  0  0  0  0  0  0  0  0999 V2000
   -2.2760   24.4800  -28.3090 C   0  0  0  0  0  0  0  0  0  0  0  0
   -2.6490   23.1550  -27.6140 C   0  0  1  0  0  0  0  0  0  0  0  0
   -3.9030   22.4960  -28.2240 C   0  0  0  0  0  0  0  0  0  0  0  0
   -3.6470   21.9330  -29.5090 O   0  0  0  0  0  0  0  0  0  0  0  0
   -4.0260   22.5330  -30.7150 C   0  0  0  0  0  0  0  0  0  0  0  0
   -3.1560   22.8700  -31.5620 O   0  0  0  0  0  0  0  0  0  0  0  0
   -5.4190   22.7410  -30.9970 N   0  0  0  0  0  0  0  0  0  0  0  0
   -6.1520   23.8660  -30.7630 C   0  0  0  0  0  0  0  0  0  0  0  0
   -5.6060   25.1690  -30.3230 C   0  0  0  0  0  0  0  0  0  0  0  0
   -4.2510   25.5250  -30.6020 N   0  0  0  0  0  0  0  0  0  0  0  0
   -6.3270   25.9670  -29.6680 O   0  0  0  0  0  0  0  0  0  0  0  0
   -7.4920   23.6490  -31.0780 C   0  0  0  0  0  0  0  0  0  0  0  0
   -7.5590   22.3450  -31.5110 C   0  0  0  0  0  0  0  0  0  0  0  0
   -8.6540   21.5990  -31.9390 C   0  0  0  0  0  0  0  0  0  0  0  0
   -8.4360   20.2590  -32.3010 C   0  0  0  0  0  0  0  0  0  0  0  0
   -7.1420   19.6880  -32.2070 C   0  0  0  0  0  0  0  0  0  0  0  0
   -6.9180   18.2620  -32.6160 C   0  0  0  0  0  0  0  0  0  0  0  0
   -6.5790   17.5120  -31.5060 F   0  0  0  0  0  0  0  0  0  0  0  0
   -6.0530   20.4790  -31.7840 C   0  0  0  0  0  0  0  0  0  0  0  0
   -6.2960   21.8180  -31.4500 C   0  0  0  0  0  0  0  0  0  0  0  0
   -1.5300   22.1740  -27.5200 N   0  0  0  0  0  0  0  0  0  0  0  0
   -1.9390   20.7890  -27.2210 C   0  0  0  0  0  0  0  0  0  0  0  0
   -0.6860   22.1960  -28.7270 C   0  0  0  0  0  0  0  0  0  0  0  0
   -2.0606   25.2450  -27.5485 H   0  0  0  0  0  0  0  0  0  0  0  0
   -1.3861   24.3267  -28.9372 H   0  0  0  0  0  0  0  0  0  0  0  0
   -3.1152   24.8135  -28.9372 H   0  0  0  0  0  0  0  0  0  0  0  0
   -2.8853   23.4527  -26.5818 H   0  0  0  0  0  0  0  0  0  0  0  0
   -4.2465   21.6975  -27.5499 H   0  0  0  0  0  0  0  0  0  0  0  0
   -4.6687   23.2765  -28.3447 H   0  0  0  0  0  0  0  0  0  0  0  0
   -3.6420   24.9200  -31.1960 H   0  0  0  0  0  0  0  0  0  0  0  0
   -3.8640   26.4280  -30.2470 H   0  0  0  0  0  0  0  0  0  0  0  0
   -8.3206   24.3680  -30.9975 H   0  0  0  0  0  0  0  0  0  0  0  0
   -9.6582   22.0447  -31.9921 H   0  0  0  0  0  0  0  0  0  0  0  0
   -9.2769   19.6477  -32.6605 H   0  0  0  0  0  0  0  0  0  0  0  0
   -7.8391   17.8598  -33.0629 H   0  0  0  0  0  0  0  0  0  0  0  0
   -6.1024   18.2157  -33.3527 H   0  0  0  0  0  0  0  0  0  0  0  0
   -5.0398   20.0557  -31.7181 H   0  0  0  0  0  0  0  0  0  0  0  0
   -1.9811   20.6463  -26.1311 H   0  0  0  0  0  0  0  0  0  0  0  0
   -2.9318   20.5982  -27.6544 H   0  0  0  0  0  0  0  0  0  0  0  0
   -1.2091   20.0895  -27.6544 H   0  0  0  0  0  0  0  0  0  0  0  0
    0.3736   22.2236  -28.4330 H   0  0  0  0  0  0  0  0  0  0  0  0
   -0.8773   21.2926  -29.3247 H   0  0  0  0  0  0  0  0  0  0  0  0
   -0.9241   23.0882  -29.3247 H   0  0  0  0  0  0  0  0  0  0  0  0
  1  2  1  0
  2  3  1  0
  3  4  1  0
  4  5  1  0
  5  6  2  0
  5  7  1  0
  7  8  1  0
  8  9  1  0
  9 10  1  0
  9 11  2  0
  8 12  2  0
 12 13  1  0
 13 14  2  0
 14 15  1  0
 15 16  2  0
 16 17  1  0
 17 18  1  0
 16 19  1  0
 19 20  2  0
  2 21  1  0
 21 22  1  0
 21 23  1  0
 20  7  1  0
 20 13  1  0
  1 24  1  0
  1 25  1  0
  1 26  1  0
  2 27  1  1
  3 28  1  0
  3 29  1  0
 10 30  1  0
 10 31  1  0
 12 32  1  0
 14 33  1  0
 15 34  1  0
 17 35  1  0
 17 36  1  0
 19 37  1  0
 22 38  1  0
 22 39  1  0
 22 40  1  0
 23 41  1  0
 23 42  1  0
 23 43  1  0
M  END
>  <UniqueID>  (31) 
30

>  <SMILES>  (31) 
C[C@@H](COC(=O)n1c(C(N)=O)cc2ccc(CF)cc21)N(C)C

>  <Energy>  (31) 
82.6939023949346

>  <Genealogy>  (31) 
C[C@@H](COC(=O)n1c(C(N)=O)cc2ccc(CF)cc21)N(C)C (chirality)
C[C@@H](COC(=O)n1c(C(N)=O)cc2ccc(CF)cc21)N(C)C (3D coordinates assigned)
C[C@@H](COC(=O)n1c(C(N)=O)cc2ccc(CF)cc21)N(C)C (optimized conformer: 82.6939023949346 kcal/mol)

>  <smiles>  (31) 
CC(COC(=O)n1c(C(N)=O)cc2ccc(CF)cc21)N(C)C

>  <score_type>  (31) 
oracle

>  <origin>  (31) 
adg

>  <m_score__min__energy>  (31) 
-8.2699999999999996

>  <m_primary>  (31) 
energy

$$$$
33:0
     RDKit          3D

 36 37  0  0  0  0  0  0  0  0999 V2000
   -7.7570   23.4960  -31.8740 C   0  0  0  0  0  0  0  0  0  0  0  0
   -8.4670   22.3520  -32.3310 O   0  0  0  0  0  0  0  0  0  0  0  0
   -8.8370   21.3070  -31.4800 C   0  0  0  0  0  0  0  0  0  0  0  0
   -9.3790   21.5440  -30.3660 O   0  0  0  0  0  0  0  0  0  0  0  0
   -8.5400   19.8980  -31.8760 C   0  0  0  0  0  0  0  0  0  0  0  0
   -7.1200   19.7900  -32.3540 C   0  0  0  0  0  0  0  0  0  0  0  0
   -6.7120   18.6770  -33.1330 C   0  0  0  0  0  0  0  0  0  0  0  0
   -5.3790   18.5520  -33.5610 C   0  0  0  0  0  0  0  0  0  0  0  0
   -4.4770   19.5440  -33.1860 C   0  0  0  0  0  0  0  0  0  0  0  0
   -3.1350   19.6790  -33.4650 C   0  0  0  0  0  0  0  0  0  0  0  0
   -2.7430   20.8580  -32.8300 C   0  0  0  0  0  0  0  0  0  0  0  0
   -1.3530   21.3540  -32.8010 C   0  0  0  0  0  0  0  0  0  0  0  0
   -0.7100   21.7410  -34.0130 N   0  0  0  0  0  0  0  0  0  0  0  0
   -0.7150   21.4180  -31.7160 O   0  0  0  0  0  0  0  0  0  0  0  0
   -3.8020   21.4280  -32.1930 N   0  0  0  0  0  0  0  0  0  0  0  0
   -3.8390   22.6690  -31.4750 C   0  0  0  0  0  0  0  0  0  0  0  0
   -4.7800   23.4820  -31.6810 O   0  0  0  0  0  0  0  0  0  0  0  0
   -2.7070   23.0600  -30.5750 C   0  0  0  0  0  0  0  0  0  0  0  0
   -3.0860   24.6360  -29.7510 P   0  0  0  0  0  0  0  0  0  0  0  0
   -3.9690   24.3880  -28.5510 O   0  0  0  0  0  0  0  0  0  0  0  0
   -1.6440   25.3600  -29.2470 O   0  0  0  0  0  0  0  0  0  0  0  0
   -3.8800   25.6650  -30.8320 O   0  0  0  0  0  0  0  0  0  0  0  0
   -4.8530   20.6130  -32.4150 C   0  0  0  0  0  0  0  0  0  0  0  0
   -6.1730   20.7710  -31.9820 C   0  0  0  0  0  0  0  0  0  0  0  0
   -7.7497   23.5078  -30.7741 H   0  0  0  0  0  0  0  0  0  0  0  0
   -6.7229   23.4590  -32.2472 H   0  0  0  0  0  0  0  0  0  0  0  0
   -8.2491   24.4062  -32.2472 H   0  0  0  0  0  0  0  0  0  0  0  0
   -8.6841   19.2372  -31.0085 H   0  0  0  0  0  0  0  0  0  0  0  0
   -9.2193   19.5991  -32.6879 H   0  0  0  0  0  0  0  0  0  0  0  0
   -7.4460   17.9041  -33.4048 H   0  0  0  0  0  0  0  0  0  0  0  0
   -5.0583   17.6965  -34.1736 H   0  0  0  0  0  0  0  0  0  0  0  0
   -2.5062   19.0016  -34.0614 H   0  0  0  0  0  0  0  0  0  0  0  0
   -1.2660   21.9900  -34.8600 H   0  0  0  0  0  0  0  0  0  0  0  0
   -2.5582   22.2782  -29.8157 H   0  0  0  0  0  0  0  0  0  0  0  0
   -1.7919   23.1760  -31.1742 H   0  0  0  0  0  0  0  0  0  0  0  0
   -6.4665   21.6355  -31.3684 H   0  0  0  0  0  0  0  0  0  0  0  0
  1  2  1  0
  2  3  1  0
  3  4  2  0
  3  5  1  0
  5  6  1  0
  6  7  2  0
  7  8  1  0
  8  9  2  0
  9 10  1  0
 10 11  2  0
 11 12  1  0
 12 13  1  0
 12 14  2  0
 11 15  1  0
 15 16  1  0
 16 17  2  0
 16 18  1  0
 18 19  1  0
 19 20  2  0
 19 21  1  0
 19 22  1  0
 15 23  1  0
 23 24  2  0
 24  6  1  0
 23  9  1  0
  1 25  1  0
  1 26  1  0
  1 27  1  0
  5 28  1  0
  5 29  1  0
  7 30  1  0
  8 31  1  0
 10 32  1  0
 13 33  1  0
 18 34  1  0
 18 35  1  0
 24 36  1  0
M  CHG  3  13  -1  21  -1  22  -1
M  END
>  <UniqueID>  (32) 
31

>  <SMILES>  (32) 
COC(=O)Cc1ccc2cc(C([NH-])=O)n(C(=O)CP(=O)([O-])[O-])c2c1

>  <Energy>  (32) 
65.83635602872982

>  <Genealogy>  (32) 
COC(=O)Cc1ccc2cc(C([NH-])=O)n(C(=O)CP(=O)([O-])[O-])c2c1 (protonated)
COC(=O)Cc1ccc2cc(C([NH-])=O)n(C(=O)CP(=O)([O-])[O-])c2c1 (3D coordinates assigned)
COC(=O)Cc1ccc2cc(C([NH-])=O)n(C(=O)CP(=O)([O-])[O-])c2c1 (optimized conformer: 65.83635602872982 kcal/mol)

>  <smiles>  (32) 
COC(=O)Cc1ccc2cc(C(N)=O)n(C(=O)CP(=O)(O)O)c2c1

>  <score_type>  (32) 
oracle

>  <origin>  (32) 
adg

>  <m_score__min__energy>  (32) 
-12.710000000000001

>  <m_primary>  (32) 
energy

$$$$
34:0
     RDKit          3D

 40 41  0  0  0  0  0  0  0  0999 V2000
   -6.2830   17.3170  -32.2300 C   0  0  0  0  0  0  0  0  0  0  0  0
   -7.2320   18.1420  -33.0930 C   0  0  0  0  0  0  0  0  0  0  0  0
   -7.3430   19.5480  -32.5680 C   0  0  0  0  0  0  0  0  0  0  0  0
   -8.6170   20.1490  -32.4090 C   0  0  0  0  0  0  0  0  0  0  0  0
   -8.7360   21.4430  -31.8780 C   0  0  0  0  0  0  0  0  0  0  0  0
   -7.5690   22.1100  -31.5170 C   0  0  0  0  0  0  0  0  0  0  0  0
   -7.4020   23.3510  -30.9460 C   0  0  0  0  0  0  0  0  0  0  0  0
   -6.0280   23.4990  -30.7840 C   0  0  0  0  0  0  0  0  0  0  0  0
   -5.3980   24.7250  -30.2570 C   0  0  0  0  0  0  0  0  0  0  0  0
   -5.7900   25.2780  -29.0000 N   0  0  0  0  0  0  0  0  0  0  0  0
   -4.4610   25.2660  -30.9020 O   0  0  0  0  0  0  0  0  0  0  0  0
   -5.3690   22.3870  -31.2190 N   0  0  0  0  0  0  0  0  0  0  0  0
   -3.9630   22.1100  -31.1220 C   0  0  0  0  0  0  0  0  0  0  0  0
   -3.4800   21.6930  -30.0330 O   0  0  0  0  0  0  0  0  0  0  0  0
   -3.1340   22.3050  -32.2310 O   0  0  0  0  0  0  0  0  0  0  0  0
   -3.2770   21.5680  -33.4400 C   0  0  0  0  0  0  0  0  0  0  0  0
   -2.1490   20.7190  -33.6180 O   0  0  0  0  0  0  0  0  0  0  0  0
   -0.8360   21.1510  -33.4130 C   0  0  0  0  0  0  0  0  0  0  0  0
   -0.1640   21.6410  -34.3610 O   0  0  0  0  0  0  0  0  0  0  0  0
   -0.2110   20.9810  -32.0670 C   0  0  0  0  0  0  0  0  0  0  0  0
   -1.2430   20.9960  -31.0360 N   0  0  0  0  0  0  0  0  0  0  0  0
   -6.3270   21.5470  -31.6700 C   0  0  0  0  0  0  0  0  0  0  0  0
   -6.1820   20.2490  -32.1770 C   0  0  0  0  0  0  0  0  0  0  0  0
   -6.4977   17.5037  -31.1674 H   0  0  0  0  0  0  0  0  0  0  0  0
   -6.4227   16.2483  -32.4501 H   0  0  0  0  0  0  0  0  0  0  0  0
   -5.2441   17.6040  -32.4501 H   0  0  0  0  0  0  0  0  0  0  0  0
   -6.8495   18.1708  -34.1240 H   0  0  0  0  0  0  0  0  0  0  0  0
   -8.2280   17.6758  -33.0680 H   0  0  0  0  0  0  0  0  0  0  0  0
   -9.5209   19.5961  -32.7045 H   0  0  0  0  0  0  0  0  0  0  0  0
   -9.7213   21.9153  -31.7511 H   0  0  0  0  0  0  0  0  0  0  0  0
   -8.1873   24.0721  -30.6754 H   0  0  0  0  0  0  0  0  0  0  0  0
   -5.3640   26.1700  -28.6630 H   0  0  0  0  0  0  0  0  0  0  0  0
   -6.4370   24.7630  -28.3620 H   0  0  0  0  0  0  0  0  0  0  0  0
   -4.1906   20.9573  -33.3906 H   0  0  0  0  0  0  0  0  0  0  0  0
   -3.3460   22.2661  -34.2873 H   0  0  0  0  0  0  0  0  0  0  0  0
    0.3255   20.0213  -32.0324 H   0  0  0  0  0  0  0  0  0  0  0  0
    0.4931   21.8068  -31.8873 H   0  0  0  0  0  0  0  0  0  0  0  0
   -2.1090   20.5630  -31.4340 H   0  0  0  0  0  0  0  0  0  0  0  0
   -1.4760   21.9960  -30.8360 H   0  0  0  0  0  0  0  0  0  0  0  0
   -5.1877   19.7875  -32.2681 H   0  0  0  0  0  0  0  0  0  0  0  0
  1  2  1  0
  2  3  1  0
  3  4  2  0
  4  5  1  0
  5  6  2  0
  6  7  1  0
  7  8  2  0
  8  9  1  0
  9 10  1  0
  9 11  2  0
  8 12  1  0
 12 13  1  0
 13 14  2  0
 13 15  1  0
 15 16  1  0
 16 17  1  0
 17 18  1  0
 18 19  2  0
 18 20  1  0
 20 21  1  0
 12 22  1  0
 22 23  2  0
 23  3  1  0
 22  6  1  0
  1 24  1  0
  1 25  1  0
  1 26  1  0
  2 27  1  0
  2 28  1  0
  4 29  1  0
  5 30  1  0
  7 31  1  0
 10 32  1  0
 10 33  1  0
 16 34  1  0
 16 35  1  0
 20 36  1  0
 20 37  1  0
 21 38  1  0
 21 39  1  0
 23 40  1  0
M  END
>  <UniqueID>  (33) 
32

>  <SMILES>  (33) 
CCc1ccc2cc(C(N)=O)n(C(=O)OCOC(=O)CN)c2c1

>  <Energy>  (33) 
69.55447322928913

>  <Genealogy>  (33) 
CCc1ccc2cc(C(N)=O)n(C(=O)OCOC(=O)CN)c2c1 (3D coordinates assigned)
CCc1ccc2cc(C(N)=O)n(C(=O)OCOC(=O)CN)c2c1 (optimized conformer: 69.55447322928913 kcal/mol)

>  <smiles>  (33) 
CCc1ccc2cc(C(N)=O)n(C(=O)OCOC(=O)CN)c2c1

>  <score_type>  (33) 
oracle

>  <origin>  (33) 
adg

>  <m_score__min__energy>  (33) 
-8.1999999999999993

>  <m_primary>  (33) 
energy

$$$$
35:0
     RDKit          3D

 57 60  0  0  0  0  0  0  0  0999 V2000
   -6.3130   24.1590  -30.2320 C   0  0  0  0  0  0  0  0  0  0  0  0
   -5.3690   23.0860  -29.9110 N   0  0  0  0  0  0  0  0  0  0  0  0
   -4.7210   23.0230  -28.5990 C   0  0  0  0  0  0  0  0  0  0  0  0
   -5.0740   22.0880  -30.9040 C   0  0  0  0  0  0  0  0  0  0  0  0
   -4.2530   21.1650  -30.6490 O   0  0  0  0  0  0  0  0  0  0  0  0
   -5.7000   22.1460  -32.1560 O   0  0  0  0  0  0  0  0  0  0  0  0
   -6.4610   21.0680  -32.6930 C   0  0  0  0  0  0  0  0  0  0  0  0
   -5.7270   20.4130  -33.7250 O   0  0  0  0  0  0  0  0  0  0  0  0
   -4.7850   19.4080  -33.4710 C   0  0  0  0  0  0  0  0  0  0  0  0
   -5.1520   18.2010  -33.4050 O   0  0  0  0  0  0  0  0  0  0  0  0
   -3.4010   19.7550  -33.2870 N   0  0  0  0  0  0  0  0  0  0  0  0
   -3.0060   21.1710  -33.4680 C   0  0  0  0  0  0  0  0  0  0  0  0
   -1.4740   21.3620  -33.4120 C   0  0  2  0  0  0  0  0  0  0  0  0
   -0.8180   20.7660  -34.6610 C   0  0  0  0  0  0  0  0  0  0  0  0
   -0.5160   19.3180  -34.2830 C   0  0  0  0  0  0  0  0  0  0  0  0
   -0.9990   19.1880  -32.8340 C   0  0  2  0  0  0  0  0  0  0  0  0
   -2.4660   18.7150  -32.7950 C   0  0  0  0  0  0  0  0  0  0  0  0
   -0.9680   20.5480  -32.3180 N   0  0  0  0  0  0  0  0  0  0  0  0
   -1.0180   20.9090  -30.9130 C   0  0  0  0  0  0  0  0  0  0  0  0
   -0.7370   19.9430  -29.9070 C   0  0  0  0  0  0  0  0  0  0  0  0
   -0.7960   20.2770  -28.5450 C   0  0  0  0  0  0  0  0  0  0  0  0
   -1.1200   21.5840  -28.2050 C   0  0  0  0  0  0  0  0  0  0  0  0
   -1.2820   22.1590  -26.9660 C   0  0  0  0  0  0  0  0  0  0  0  0
   -1.6200   23.4850  -27.2190 C   0  0  0  0  0  0  0  0  0  0  0  0
   -1.8290   24.4860  -26.1550 C   0  0  0  0  0  0  0  0  0  0  0  0
   -2.6480   25.6370  -26.3720 N   0  0  0  0  0  0  0  0  0  0  0  0
   -1.2310   24.3530  -25.0540 O   0  0  0  0  0  0  0  0  0  0  0  0
   -1.6800   23.7190  -28.5610 N   0  0  0  0  0  0  0  0  0  0  0  0
   -2.1070   24.9250  -29.2190 C   0  0  0  0  0  0  0  0  0  0  0  0
   -1.5560   26.0250  -28.9480 O   0  0  0  0  0  0  0  0  0  0  0  0
   -3.1280   24.8910  -30.1600 O   0  0  0  0  0  0  0  0  0  0  0  0
   -1.3680   22.5430  -29.1510 C   0  0  0  0  0  0  0  0  0  0  0  0
   -1.3400   22.2330  -30.5160 C   0  0  0  0  0  0  0  0  0  0  0  0
   -6.6994   24.5982  -29.3005 H   0  0  0  0  0  0  0  0  0  0  0  0
   -5.7999   24.9355  -30.8183 H   0  0  0  0  0  0  0  0  0  0  0  0
   -7.1486   23.7490  -30.8183 H   0  0  0  0  0  0  0  0  0  0  0  0
   -5.4834   23.0971  -27.8096 H   0  0  0  0  0  0  0  0  0  0  0  0
   -4.1834   22.0684  -28.5010 H   0  0  0  0  0  0  0  0  0  0  0  0
   -4.0095   23.8562  -28.5010 H   0  0  0  0  0  0  0  0  0  0  0  0
   -6.6848   20.3472  -31.8928 H   0  0  0  0  0  0  0  0  0  0  0  0
   -7.3967   21.4642  -33.1142 H   0  0  0  0  0  0  0  0  0  0  0  0
   -3.4672   21.7720  -32.6704 H   0  0  0  0  0  0  0  0  0  0  0  0
   -3.3500   21.4928  -34.4620 H   0  0  0  0  0  0  0  0  0  0  0  0
   -1.2582   22.4360  -33.3122 H   0  0  0  0  0  0  0  0  0  0  0  0
    0.1090   21.3045  -34.9074 H   0  0  0  0  0  0  0  0  0  0  0  0
   -1.4648   20.8397  -35.5477 H   0  0  0  0  0  0  0  0  0  0  0  0
    0.5630   19.1155  -34.3524 H   0  0  0  0  0  0  0  0  0  0  0  0
   -1.0105   18.5999  -34.9536 H   0  0  0  0  0  0  0  0  0  0  0  0
   -0.3829   18.4740  -32.2677 H   0  0  0  0  0  0  0  0  0  0  0  0
   -2.7299   18.4632  -31.7572 H   0  0  0  0  0  0  0  0  0  0  0  0
   -2.5569   17.8390  -33.4540 H   0  0  0  0  0  0  0  0  0  0  0  0
   -0.4691   18.9176  -30.2014 H   0  0  0  0  0  0  0  0  0  0  0  0
   -0.5914   19.5248  -27.7689 H   0  0  0  0  0  0  0  0  0  0  0  0
   -1.1686   21.6744  -25.9850 H   0  0  0  0  0  0  0  0  0  0  0  0
   -3.0160   25.8650  -27.3220 H   0  0  0  0  0  0  0  0  0  0  0  0
   -2.8160   26.3140  -25.5950 H   0  0  0  0  0  0  0  0  0  0  0  0
   -1.5640   23.0033  -31.2687 H   0  0  0  0  0  0  0  0  0  0  0  0
  1  2  1  0
  2  3  1  0
  2  4  1  0
  4  5  2  0
  4  6  1  0
  6  7  1  0
  7  8  1  0
  8  9  1  0
  9 10  2  0
  9 11  1  0
 11 12  1  0
 12 13  1  0
 13 14  1  0
 14 15  1  0
 15 16  1  0
 16 17  1  0
 16 18  1  0
 18 19  1  0
 19 20  2  0
 20 21  1  0
 21 22  2  0
 22 23  1  0
 23 24  2  0
 24 25  1  0
 25 26  1  0
 25 27  2  0
 24 28  1  0
 28 29  1  0
 29 30  2  0
 29 31  1  0
 28 32  1  0
 32 33  2  0
 17 11  1  0
 33 19  1  0
 18 13  1  0
 32 22  1  0
  1 34  1  0
  1 35  1  0
  1 36  1  0
  3 37  1  0
  3 38  1  0
  3 39  1  0
  7 40  1  0
  7 41  1  0
 12 42  1  0
 12 43  1  0
 13 44  1  1
 14 45  1  0
 14 46  1  0
 15 47  1  0
 15 48  1  0
 16 49  1  1
 17 50  1  0
 17 51  1  0
 20 52  1  0
 21 53  1  0
 23 54  1  0
 26 55  1  0
 26 56  1  0
 33 57  1  0
M  CHG  1  31  -1
M  END
>  <UniqueID>  (34) 
33

>  <SMILES>  (34) 
CN(C)C(=O)OCOC(=O)N1C[C@H]2CC[C@@H](C1)N2c1ccc2cc(C(N)=O)n(C(=O)[O-])c2c1

>  <Energy>  (34) 
108.05953909404198

>  <Genealogy>  (34) 
CN(C)C(=O)OCOC(=O)N1CC2CCC(C1)N2c1ccc2cc(C(N)=O)n(C(=O)[O-])c2c1 (protonated)
CN(C)C(=O)OCOC(=O)N1C[C@H]2CC[C@@H](C1)N2c1ccc2cc(C(N)=O)n(C(=O)[O-])c2c1 (chirality)
CN(C)C(=O)OCOC(=O)N1C[C@H]2CC[C@@H](C1)N2c1ccc2cc(C(N)=O)n(C(=O)[O-])c2c1 (3D coordinates assigned)
CN(C)C(=O)OCOC(=O)N1C[C@H]2CC[C@@H](C1)N2c1ccc2cc(C(N)=O)n(C(=O)[O-])c2c1 (nonaromatic ring conformer: 108.05953909404198 kcal/mol)

>  <smiles>  (34) 
CN(C)C(=O)OCOC(=O)N1CC2CCC(C1)N2c1ccc2cc(C(N)=O)n(C(=O)O)c2c1

>  <score_type>  (34) 
oracle

>  <origin>  (34) 
adg

>  <m_score__min__energy>  (34) 
-10.18

>  <m_primary>  (34) 
energy

$$$$
36:0
     RDKit          3D

 45 46  0  0  0  0  0  0  0  0999 V2000
    0.8160   23.9610  -36.1030 C   0  0  0  0  0  0  0  0  0  0  0  0
    1.1260   22.7630  -35.3380 N   0  0  0  0  0  0  0  0  0  0  0  0
    0.1510   21.7600  -35.0370 C   0  0  0  0  0  0  0  0  0  0  0  0
   -0.4630   21.1730  -35.9690 O   0  0  0  0  0  0  0  0  0  0  0  0
   -0.1560   21.4100  -33.6010 C   0  0  1  0  0  0  0  0  0  0  0  0
   -1.6000   21.5390  -33.3610 N   0  0  0  0  0  0  0  0  0  0  0  0
   -2.1440   21.6610  -32.0400 C   0  0  0  0  0  0  0  0  0  0  0  0
   -1.3930   21.5670  -31.0320 O   0  0  0  0  0  0  0  0  0  0  0  0
   -3.5480   21.9020  -31.8590 N   0  0  0  0  0  0  0  0  0  0  0  0
   -4.1420   22.9520  -31.2260 C   0  0  0  0  0  0  0  0  0  0  0  0
   -3.4460   24.0070  -30.4580 C   0  0  0  0  0  0  0  0  0  0  0  0
   -3.8740   25.3650  -30.5220 N   0  0  0  0  0  0  0  0  0  0  0  0
   -2.4370   23.7110  -29.7650 O   0  0  0  0  0  0  0  0  0  0  0  0
   -5.5280   22.8710  -31.3420 C   0  0  0  0  0  0  0  0  0  0  0  0
   -5.7670   21.7270  -32.0690 C   0  0  0  0  0  0  0  0  0  0  0  0
   -6.9690   21.1760  -32.5060 C   0  0  0  0  0  0  0  0  0  0  0  0
   -6.9140   20.0070  -33.2820 C   0  0  0  0  0  0  0  0  0  0  0  0
   -5.6700   19.4030  -33.5990 C   0  0  0  0  0  0  0  0  0  0  0  0
   -5.6180   18.1850  -34.4860 C   0  0  0  0  0  0  0  0  0  0  0  0
   -5.7640   18.5420  -35.8160 F   0  0  0  0  0  0  0  0  0  0  0  0
   -6.6330   17.3010  -34.1610 F   0  0  0  0  0  0  0  0  0  0  0  0
   -4.4000   17.5530  -34.3200 F   0  0  0  0  0  0  0  0  0  0  0  0
   -4.4700   20.0090  -33.1570 C   0  0  0  0  0  0  0  0  0  0  0  0
   -4.5560   21.1620  -32.3700 C   0  0  0  0  0  0  0  0  0  0  0  0
    0.3940   19.9990  -33.1930 C   0  0  0  0  0  0  0  0  0  0  0  0
    1.7300   19.7320  -33.9110 C   0  0  0  0  0  0  0  0  0  0  0  0
   -0.5820   18.8480  -33.5430 C   0  0  0  0  0  0  0  0  0  0  0  0
    0.6720   19.9910  -31.8100 O   0  0  0  0  0  0  0  0  0  0  0  0
    0.6013   24.7909  -35.4137 H   0  0  0  0  0  0  0  0  0  0  0  0
    1.6757   24.2240  -36.7369 H   0  0  0  0  0  0  0  0  0  0  0  0
   -0.0633   23.7740  -36.7369 H   0  0  0  0  0  0  0  0  0  0  0  0
    0.3716   22.1239  -32.9514 H   0  0  0  0  0  0  0  0  0  0  0  0
   -2.2730   21.5500  -34.1580 H   0  0  0  0  0  0  0  0  0  0  0  0
   -3.4870   26.0180  -31.2390 H   0  0  0  0  0  0  0  0  0  0  0  0
   -6.2731   23.5724  -30.9383 H   0  0  0  0  0  0  0  0  0  0  0  0
   -7.9321   21.6423  -32.2511 H   0  0  0  0  0  0  0  0  0  0  0  0
   -7.8469   19.5540  -33.6486 H   0  0  0  0  0  0  0  0  0  0  0  0
   -3.4922   19.5831  -33.4262 H   0  0  0  0  0  0  0  0  0  0  0  0
    2.5222   19.5737  -33.1645 H   0  0  0  0  0  0  0  0  0  0  0  0
    1.6350   18.8351  -34.5407 H   0  0  0  0  0  0  0  0  0  0  0  0
    1.9870   20.5965  -34.5407 H   0  0  0  0  0  0  0  0  0  0  0  0
   -0.9645   18.3969  -32.6156 H   0  0  0  0  0  0  0  0  0  0  0  0
   -1.4223   19.2458  -34.1310 H   0  0  0  0  0  0  0  0  0  0  0  0
   -0.0522   18.0841  -34.1310 H   0  0  0  0  0  0  0  0  0  0  0  0
    0.0240   20.5840  -31.3490 H   0  0  0  0  0  0  0  0  0  0  0  0
  1  2  1  0
  2  3  1  0
  3  4  2  0
  3  5  1  0
  5  6  1  0
  6  7  1  0
  7  8  2  0
  7  9  1  0
  9 10  1  0
 10 11  1  0
 11 12  1  0
 11 13  2  0
 10 14  2  0
 14 15  1  0
 15 16  2  0
 16 17  1  0
 17 18  2  0
 18 19  1  0
 19 20  1  0
 19 21  1  0
 19 22  1  0
 18 23  1  0
 23 24  2  0
  5 25  1  0
 25 26  1  0
 25 27  1  0
 25 28  1  0
 24  9  1  0
 24 15  1  0
  1 29  1  0
  1 30  1  0
  1 31  1  0
  5 32  1  1
  6 33  1  0
 12 34  1  0
 14 35  1  0
 16 36  1  0
 17 37  1  0
 23 38  1  0
 26 39  1  0
 26 40  1  0
 26 41  1  0
 27 42  1  0
 27 43  1  0
 27 44  1  0
 28 45  1  0
M  CHG  2   2  -1  12  -1
M  END
>  <UniqueID>  (35) 
34

>  <SMILES>  (35) 
C[N-]C(=O)[C@@H](NC(=O)n1c(C([NH-])=O)cc2ccc(C(F)(F)F)cc21)C(C)(C)O

>  <Energy>  (35) 
79.62995232833683

>  <Genealogy>  (35) 
C[N-]C(=O)[C@@H](NC(=O)n1c(C([NH-])=O)cc2ccc(C(F)(F)F)cc21)C(C)(C)O (protonated)
C[N-]C(=O)[C@@H](NC(=O)n1c(C([NH-])=O)cc2ccc(C(F)(F)F)cc21)C(C)(C)O (3D coordinates assigned)
C[N-]C(=O)[C@@H](NC(=O)n1c(C([NH-])=O)cc2ccc(C(F)(F)F)cc21)C(C)(C)O (optimized conformer: 79.62995232833683 kcal/mol)

>  <smiles>  (35) 
CNC(=O)[C@@H](NC(=O)n1c(C(N)=O)cc2ccc(C(F)(F)F)cc21)C(C)(C)O

>  <score_type>  (35) 
oracle

>  <origin>  (35) 
adg

>  <m_score__min__energy>  (35) 
-10.82

>  <m_primary>  (35) 
energy

$$$$
37:0
     RDKit          3D

 37 38  0  0  0  0  0  0  0  0999 V2000
   -7.2140   17.5330  -33.0090 C   0  0  0  0  0  0  0  0  0  0  0  0
   -7.5600   18.7430  -32.2450 N   0  0  0  0  0  0  0  0  0  0  0  0
   -8.8640   18.5470  -31.5860 C   0  0  0  0  0  0  0  0  0  0  0  0
   -7.5860   19.9220  -33.1380 C   0  0  0  0  0  0  0  0  0  0  0  0
   -6.1960   20.5640  -33.2300 C   0  0  0  0  0  0  0  0  0  0  0  0
   -5.2330   19.8530  -32.3850 N   0  0  0  0  0  0  0  0  0  0  0  0
   -4.0710   20.4810  -31.8130 C   0  0  0  0  0  0  0  0  0  0  0  0
   -2.8240   19.8100  -31.8730 C   0  0  0  0  0  0  0  0  0  0  0  0
   -1.6640   20.3910  -31.3380 C   0  0  0  0  0  0  0  0  0  0  0  0
   -1.7780   21.6420  -30.7390 C   0  0  0  0  0  0  0  0  0  0  0  0
   -0.8150   22.4380  -30.1650 C   0  0  0  0  0  0  0  0  0  0  0  0
   -1.4870   23.5820  -29.7390 C   0  0  0  0  0  0  0  0  0  0  0  0
   -0.8360   24.6730  -28.9840 C   0  0  0  0  0  0  0  0  0  0  0  0
   -1.4590   25.9530  -28.9100 N   0  0  0  0  0  0  0  0  0  0  0  0
    0.2830   24.4990  -28.4330 O   0  0  0  0  0  0  0  0  0  0  0  0
   -2.8130   23.4990  -30.0440 N   0  0  0  0  0  0  0  0  0  0  0  0
   -3.8260   24.4980  -29.8360 C   0  0  0  0  0  0  0  0  0  0  0  0
   -4.6930   24.3470  -28.9360 O   0  0  0  0  0  0  0  0  0  0  0  0
   -3.8760   25.6260  -30.6450 O   0  0  0  0  0  0  0  0  0  0  0  0
   -2.9750   22.3030  -30.6540 C   0  0  0  0  0  0  0  0  0  0  0  0
   -4.1450   21.7550  -31.1950 C   0  0  0  0  0  0  0  0  0  0  0  0
   -6.9799   16.7142  -32.3128 H   0  0  0  0  0  0  0  0  0  0  0  0
   -8.0653   17.2434  -33.6425 H   0  0  0  0  0  0  0  0  0  0  0  0
   -6.3383   17.7373  -33.6425 H   0  0  0  0  0  0  0  0  0  0  0  0
   -8.7299   18.5672  -30.4944 H   0  0  0  0  0  0  0  0  0  0  0  0
   -9.5511   19.3520  -31.8859 H   0  0  0  0  0  0  0  0  0  0  0  0
   -9.2841   17.5756  -31.8859 H   0  0  0  0  0  0  0  0  0  0  0  0
   -7.9054   19.6071  -34.1424 H   0  0  0  0  0  0  0  0  0  0  0  0
   -8.2900   20.6608  -32.7275 H   0  0  0  0  0  0  0  0  0  0  0  0
   -5.8523   20.5299  -34.2744 H   0  0  0  0  0  0  0  0  0  0  0  0
   -6.2667   21.6050  -32.8817 H   0  0  0  0  0  0  0  0  0  0  0  0
   -5.3900   18.8380  -32.1860 H   0  0  0  0  0  0  0  0  0  0  0  0
   -2.7645   18.8187  -32.3461 H   0  0  0  0  0  0  0  0  0  0  0  0
   -0.6947   19.8736  -31.3905 H   0  0  0  0  0  0  0  0  0  0  0  0
    0.2581   22.2184  -30.0636 H   0  0  0  0  0  0  0  0  0  0  0  0
   -2.4980   26.0490  -28.9660 H   0  0  0  0  0  0  0  0  0  0  0  0
   -5.0989   22.3002  -31.1417 H   0  0  0  0  0  0  0  0  0  0  0  0
  1  2  1  0
  2  3  1  0
  2  4  1  0
  4  5  1  0
  5  6  1  0
  6  7  1  0
  7  8  2  0
  8  9  1  0
  9 10  2  0
 10 11  1  0
 11 12  2  0
 12 13  1  0
 13 14  1  0
 13 15  2  0
 12 16  1  0
 16 17  1  0
 17 18  2  0
 17 19  1  0
 16 20  1  0
 20 21  2  0
 21  7  1  0
 20 10  1  0
  1 22  1  0
  1 23  1  0
  1 24  1  0
  3 25  1  0
  3 26  1  0
  3 27  1  0
  4 28  1  0
  4 29  1  0
  5 30  1  0
  5 31  1  0
  6 32  1  0
  8 33  1  0
  9 34  1  0
 11 35  1  0
 14 36  1  0
 21 37  1  0
M  CHG  2  14  -1  19  -1
M  END
>  <UniqueID>  (36) 
35

>  <SMILES>  (36) 
CN(C)CCNc1ccc2cc(C([NH-])=O)n(C(=O)[O-])c2c1

>  <Energy>  (36) 
74.72623717618235

>  <Genealogy>  (36) 
CN(C)CCNc1ccc2cc(C([NH-])=O)n(C(=O)[O-])c2c1 (protonated)
CN(C)CCNc1ccc2cc(C([NH-])=O)n(C(=O)[O-])c2c1 (3D coordinates assigned)
CN(C)CCNc1ccc2cc(C([NH-])=O)n(C(=O)[O-])c2c1 (optimized conformer: 74.72623717618235 kcal/mol)

>  <smiles>  (36) 
CN(C)CCNc1ccc2cc(C(N)=O)n(C(=O)O)c2c1

>  <score_type>  (36) 
oracle

>  <origin>  (36) 
adg

>  <m_score__min__energy>  (36) 
-10.44

>  <m_primary>  (36) 
energy

$$$$
38:0
     RDKit          3D

 45 46  0  0  0  0  0  0  0  0999 V2000
   -4.2630   18.5880  -34.2470 C   0  0  0  0  0  0  0  0  0  0  0  0
   -5.7020   18.2720  -34.6510 C   0  0  0  0  0  0  0  0  0  0  0  0
   -6.4430   17.4590  -33.5710 C   0  0  1  0  0  0  0  0  0  0  0  0
   -5.9150   16.0160  -33.4620 C   0  0  0  0  0  0  0  0  0  0  0  0
   -5.3660   15.7980  -32.1780 O   0  0  0  0  0  0  0  0  0  0  0  0
   -4.5740   14.6320  -32.1920 C   0  0  0  0  0  0  0  0  0  0  0  0
   -6.4720   18.1480  -32.2670 N   0  0  0  0  0  0  0  0  0  0  0  0
   -6.6400   19.5620  -32.0140 C   0  0  0  0  0  0  0  0  0  0  0  0
   -7.9340   20.1260  -32.1660 C   0  0  0  0  0  0  0  0  0  0  0  0
   -8.1610   21.4920  -31.9370 C   0  0  0  0  0  0  0  0  0  0  0  0
   -7.0830   22.2730  -31.5350 C   0  0  0  0  0  0  0  0  0  0  0  0
   -7.0170   23.6200  -31.2590 C   0  0  0  0  0  0  0  0  0  0  0  0
   -5.6930   23.8570  -30.8970 C   0  0  0  0  0  0  0  0  0  0  0  0
   -5.2000   25.1680  -30.4230 C   0  0  0  0  0  0  0  0  0  0  0  0
   -3.9380   25.6750  -30.8470 N   0  0  0  0  0  0  0  0  0  0  0  0
   -5.8800   25.8260  -29.5900 O   0  0  0  0  0  0  0  0  0  0  0  0
   -4.9680   22.7030  -30.9540 N   0  0  0  0  0  0  0  0  0  0  0  0
   -3.5660   22.5270  -30.7100 C   0  0  0  0  0  0  0  0  0  0  0  0
   -2.9560   21.5500  -31.2250 O   0  0  0  0  0  0  0  0  0  0  0  0
   -2.8930   23.4260  -29.8780 O   0  0  0  0  0  0  0  0  0  0  0  0
   -1.5130   23.3020  -29.5390 C   0  0  0  0  0  0  0  0  0  0  0  0
   -0.9700   24.6110  -29.0650 C   0  0  0  0  0  0  0  0  0  0  0  0
   -1.6140   25.6740  -29.2660 O   0  0  0  0  0  0  0  0  0  0  0  0
    0.2190   24.6500  -28.3460 O   0  0  0  0  0  0  0  0  0  0  0  0
   -5.8340   21.7440  -31.3480 C   0  0  0  0  0  0  0  0  0  0  0  0
   -5.5740   20.3930  -31.5960 C   0  0  0  0  0  0  0  0  0  0  0  0
   -4.1855   18.6050  -33.1499 H   0  0  0  0  0  0  0  0  0  0  0  0
   -3.5910   17.8160  -34.6501 H   0  0  0  0  0  0  0  0  0  0  0  0
   -3.9763   19.5705  -34.6501 H   0  0  0  0  0  0  0  0  0  0  0  0
   -6.2401   19.2174  -34.8146 H   0  0  0  0  0  0  0  0  0  0  0  0
   -5.6707   17.6662  -35.5686 H   0  0  0  0  0  0  0  0  0  0  0  0
   -7.4894   17.3839  -33.9019 H   0  0  0  0  0  0  0  0  0  0  0  0
   -6.7432   15.3115  -33.6285 H   0  0  0  0  0  0  0  0  0  0  0  0
   -5.1337   15.8591  -34.2202 H   0  0  0  0  0  0  0  0  0  0  0  0
   -4.3622   14.3202  -31.1586 H   0  0  0  0  0  0  0  0  0  0  0  0
   -5.1138   13.8283  -32.7142 H   0  0  0  0  0  0  0  0  0  0  0  0
   -3.6279   14.8376  -32.7142 H   0  0  0  0  0  0  0  0  0  0  0  0
   -6.4830   17.5190  -31.4310 H   0  0  0  0  0  0  0  0  0  0  0  0
   -8.7727   19.4816  -32.4683 H   0  0  0  0  0  0  0  0  0  0  0  0
   -9.1606   21.9311  -32.0713 H   0  0  0  0  0  0  0  0  0  0  0  0
   -7.8354   24.3530  -31.3129 H   0  0  0  0  0  0  0  0  0  0  0  0
   -3.0470   25.3090  -30.4420 H   0  0  0  0  0  0  0  0  0  0  0  0
   -1.4024   22.5538  -28.7402 H   0  0  0  0  0  0  0  0  0  0  0  0
   -0.9542   22.9882  -30.4330 H   0  0  0  0  0  0  0  0  0  0  0  0
   -4.5608   19.9842  -31.4687 H   0  0  0  0  0  0  0  0  0  0  0  0
  1  2  1  0
  2  3  1  0
  3  4  1  0
  4  5  1  0
  5  6  1  0
  3  7  1  0
  7  8  1  0
  8  9  2  0
  9 10  1  0
 10 11  2  0
 11 12  1  0
 12 13  2  0
 13 14  1  0
 14 15  1  0
 14 16  2  0
 13 17  1  0
 17 18  1  0
 18 19  2  0
 18 20  1  0
 20 21  1  0
 21 22  1  0
 22 23  2  0
 22 24  1  0
 17 25  1  0
 25 26  2  0
 26  8  1  0
 25 11  1  0
  1 27  1  0
  1 28  1  0
  1 29  1  0
  2 30  1  0
  2 31  1  0
  3 32  1  6
  4 33  1  0
  4 34  1  0
  6 35  1  0
  6 36  1  0
  6 37  1  0
  7 38  1  0
  9 39  1  0
 10 40  1  0
 12 41  1  0
 15 42  1  0
 21 43  1  0
 21 44  1  0
 26 45  1  0
M  CHG  2  15  -1  24  -1
M  END
>  <UniqueID>  (37) 
36

>  <SMILES>  (37) 
CC[C@@H](COC)Nc1ccc2cc(C([NH-])=O)n(C(=O)OCC(=O)[O-])c2c1

>  <Energy>  (37) 
81.1030383412209

>  <Genealogy>  (37) 
CCC(COC)Nc1ccc2cc(C([NH-])=O)n(C(=O)OCC(=O)[O-])c2c1 (protonated)
CC[C@@H](COC)Nc1ccc2cc(C([NH-])=O)n(C(=O)OCC(=O)[O-])c2c1 (chirality)
CC[C@@H](COC)Nc1ccc2cc(C([NH-])=O)n(C(=O)OCC(=O)[O-])c2c1 (3D coordinates assigned)
CC[C@@H](COC)Nc1ccc2cc(C([NH-])=O)n(C(=O)OCC(=O)[O-])c2c1 (optimized conformer: 81.1030383412209 kcal/mol)

>  <smiles>  (37) 
CCC(COC)Nc1ccc2cc(C(N)=O)n(C(=O)OCC(=O)O)c2c1

>  <score_type>  (37) 
oracle

>  <origin>  (37) 
adg

>  <m_score__min__energy>  (37) 
-11.970000000000001

>  <m_primary>  (37) 
energy

$$$$
39:0
     RDKit          3D

 40 42  0  0  0  0  0  0  0  0999 V2000
   -3.8660   25.6560  -30.8450 N   0  0  0  0  0  0  0  0  0  0  0  0
   -5.1190   25.0540  -30.5320 C   0  0  0  0  0  0  0  0  0  0  0  0
   -5.9550   25.6960  -29.8400 O   0  0  0  0  0  0  0  0  0  0  0  0
   -5.4740   23.7170  -31.0510 C   0  0  0  0  0  0  0  0  0  0  0  0
   -6.7820   23.3270  -31.3300 C   0  0  0  0  0  0  0  0  0  0  0  0
   -6.6790   22.0680  -31.8710 C   0  0  0  0  0  0  0  0  0  0  0  0
   -7.6720   21.2030  -32.3170 C   0  0  0  0  0  0  0  0  0  0  0  0
   -7.2820   19.9450  -32.8020 C   0  0  0  0  0  0  0  0  0  0  0  0
   -5.9140   19.5640  -32.8270 C   0  0  0  0  0  0  0  0  0  0  0  0
   -5.5140   18.2260  -33.3300 C   0  0  0  0  0  0  0  0  0  0  0  0
   -6.3390   17.1380  -33.5900 C   0  0  0  0  0  0  0  0  0  0  0  0
   -5.5800   16.1150  -34.0240 N   0  0  0  0  0  0  0  0  0  0  0  0
   -4.3160   16.5060  -34.0530 N   0  0  0  0  0  0  0  0  0  0  0  0
   -3.1960   15.6560  -34.4610 C   0  0  0  0  0  0  0  0  0  0  0  0
   -3.5620   14.1580  -34.4250 C   0  0  2  0  0  0  0  0  0  0  0  0
   -4.5480   13.8600  -35.3820 O   0  0  0  0  0  0  0  0  0  0  0  0
   -3.9830   13.6650  -33.0250 C   0  0  0  0  0  0  0  0  0  0  0  0
   -5.3760   13.5250  -32.9400 O   0  0  0  0  0  0  0  0  0  0  0  0
   -4.2350   17.7850  -33.6380 C   0  0  0  0  0  0  0  0  0  0  0  0
   -4.9350   20.4750  -32.3610 C   0  0  0  0  0  0  0  0  0  0  0  0
   -5.3520   21.7300  -31.9030 C   0  0  0  0  0  0  0  0  0  0  0  0
   -4.5970   22.7330  -31.3980 N   0  0  0  0  0  0  0  0  0  0  0  0
   -3.1750   22.7060  -31.1960 C   0  0  0  0  0  0  0  0  0  0  0  0
   -2.4130   22.2530  -32.0910 O   0  0  0  0  0  0  0  0  0  0  0  0
   -2.6220   23.2040  -30.0220 O   0  0  0  0  0  0  0  0  0  0  0  0
   -2.9760   25.2870  -30.4400 H   0  0  0  0  0  0  0  0  0  0  0  0
   -7.7018   23.9042  -31.1545 H   0  0  0  0  0  0  0  0  0  0  0  0
   -8.7319   21.4959  -32.2905 H   0  0  0  0  0  0  0  0  0  0  0  0
   -8.0468   19.2441  -33.1680 H   0  0  0  0  0  0  0  0  0  0  0  0
   -7.4313   17.1167  -33.4622 H   0  0  0  0  0  0  0  0  0  0  0  0
   -5.9210   15.1660  -34.2930 H   0  0  0  0  0  0  0  0  0  0  0  0
   -2.9017   15.9248  -35.4863 H   0  0  0  0  0  0  0  0  0  0  0  0
   -2.3703   15.8203  -33.7530 H   0  0  0  0  0  0  0  0  0  0  0  0
   -2.6429   13.6096  -34.6788 H   0  0  0  0  0  0  0  0  0  0  0  0
   -5.0690   13.0830  -35.0510 H   0  0  0  0  0  0  0  0  0  0  0  0
   -3.5108   12.6909  -32.8295 H   0  0  0  0  0  0  0  0  0  0  0  0
   -3.6589   14.4065  -32.2799 H   0  0  0  0  0  0  0  0  0  0  0  0
   -5.6560   12.9860  -33.7260 H   0  0  0  0  0  0  0  0  0  0  0  0
   -3.3124   18.3785  -33.5571 H   0  0  0  0  0  0  0  0  0  0  0  0
   -3.8694   20.2020  -32.3591 H   0  0  0  0  0  0  0  0  0  0  0  0
  1  2  1  0
  2  3  2  0
  2  4  1  0
  4  5  2  0
  5  6  1  0
  6  7  2  0
  7  8  1  0
  8  9  2  0
  9 10  1  0
 10 11  1  0
 11 12  2  0
 12 13  1  0
 13 14  1  0
 14 15  1  0
 15 16  1  0
 15 17  1  0
 17 18  1  0
 13 19  1  0
  9 20  1  0
 20 21  2  0
 21 22  1  0
 22 23  1  0
 23 24  2  0
 23 25  1  0
 22  4  1  0
 21  6  1  0
 19 10  2  0
  1 26  1  0
  5 27  1  0
  7 28  1  0
  8 29  1  0
 11 30  1  0
 12 31  1  0
 14 32  1  0
 14 33  1  0
 15 34  1  6
 16 35  1  0
 17 36  1  0
 17 37  1  0
 18 38  1  0
 19 39  1  0
 20 40  1  0
M  CHG  3   1  -1  12   1  25  -1
M  END
>  <UniqueID>  (38) 
37

>  <SMILES>  (38) 
[NH-]C(=O)c1cc2ccc(-c3c[nH+]n(C[C@H](O)CO)c3)cc2n1C(=O)[O-]

>  <Energy>  (38) 
111.78834369457873

>  <Genealogy>  (38) 
[NH-]C(=O)c1cc2ccc(-c3c[nH+]n(C[C@H](O)CO)c3)cc2n1C(=O)[O-] (protonated)
[NH-]C(=O)c1cc2ccc(-c3c[nH+]n(C[C@H](O)CO)c3)cc2n1C(=O)[O-] (3D coordinates assigned)
[NH-]C(=O)c1cc2ccc(-c3c[nH+]n(C[C@H](O)CO)c3)cc2n1C(=O)[O-] (optimized conformer: 111.78834369457873 kcal/mol)

>  <smiles>  (38) 
NC(=O)c1cc2ccc(-c3cnn(C[C@H](O)CO)c3)cc2n1C(=O)O

>  <score_type>  (38) 
oracle

>  <origin>  (38) 
adg

>  <m_score__min__energy>  (38) 
-9.8699999999999992

>  <m_primary>  (38) 
energy

$$$$
40:0
     RDKit          3D

 39 40  0  0  0  0  0  0  0  0999 V2000
   -8.0730   21.0590  -31.9580 C   0  0  0  0  0  0  0  0  0  0  0  0
   -7.1480   19.8400  -31.8900 C   0  0  2  0  0  0  0  0  0  0  0  0
   -5.9200   20.0890  -32.6560 N   0  0  0  0  0  0  0  0  0  0  0  0
   -4.6850   20.5800  -32.0920 C   0  0  0  0  0  0  0  0  0  0  0  0
   -3.5240   19.7720  -32.1840 C   0  0  0  0  0  0  0  0  0  0  0  0
   -2.3010   20.1980  -31.6390 C   0  0  0  0  0  0  0  0  0  0  0  0
   -2.2630   21.4390  -31.0160 C   0  0  0  0  0  0  0  0  0  0  0  0
   -1.2210   22.0790  -30.3850 C   0  0  0  0  0  0  0  0  0  0  0  0
   -1.7490   23.2870  -29.9330 C   0  0  0  0  0  0  0  0  0  0  0  0
   -0.9390   24.3300  -29.2720 C   0  0  0  0  0  0  0  0  0  0  0  0
   -1.3700   25.6890  -29.2500 N   0  0  0  0  0  0  0  0  0  0  0  0
    0.1730   24.0270  -28.7620 O   0  0  0  0  0  0  0  0  0  0  0  0
   -3.0680   23.3850  -30.2640 N   0  0  0  0  0  0  0  0  0  0  0  0
   -3.9880   24.4280  -29.9010 C   0  0  0  0  0  0  0  0  0  0  0  0
   -4.8470   24.2340  -29.0010 O   0  0  0  0  0  0  0  0  0  0  0  0
   -3.9190   25.6690  -30.5200 O   0  0  0  0  0  0  0  0  0  0  0  0
   -3.3660   22.2460  -30.9290 C   0  0  0  0  0  0  0  0  0  0  0  0
   -4.6030   21.8390  -31.4440 C   0  0  0  0  0  0  0  0  0  0  0  0
   -7.8530   18.6200  -32.4190 C   0  0  0  0  0  0  0  0  0  0  0  0
   -8.9750   18.2830  -31.9480 O   0  0  0  0  0  0  0  0  0  0  0  0
   -7.2510   17.8510  -33.4630 N   0  0  0  0  0  0  0  0  0  0  0  0
   -5.9350   17.2410  -33.3330 C   0  0  0  0  0  0  0  0  0  0  0  0
   -5.0620   17.6450  -34.5180 C   0  0  0  0  0  0  0  0  0  0  0  0
   -5.7410   18.5610  -35.3320 O   0  0  0  0  0  0  0  0  0  0  0  0
   -8.3223   21.3875  -30.9382 H   0  0  0  0  0  0  0  0  0  0  0  0
   -7.5650   21.8754  -32.4923 H   0  0  0  0  0  0  0  0  0  0  0  0
   -8.9960   20.7896  -32.4923 H   0  0  0  0  0  0  0  0  0  0  0  0
   -6.8774   19.6626  -30.8387 H   0  0  0  0  0  0  0  0  0  0  0  0
   -5.9480   19.9360  -33.6910 H   0  0  0  0  0  0  0  0  0  0  0  0
   -3.5814   18.7968  -32.6897 H   0  0  0  0  0  0  0  0  0  0  0  0
   -1.4014   19.5683  -31.7037 H   0  0  0  0  0  0  0  0  0  0  0  0
   -0.1903   21.7146  -30.2632 H   0  0  0  0  0  0  0  0  0  0  0  0
   -2.3500   25.9370  -28.9920 H   0  0  0  0  0  0  0  0  0  0  0  0
   -5.4909   22.4812  -31.3482 H   0  0  0  0  0  0  0  0  0  0  0  0
   -5.4645   17.5820  -32.3990 H   0  0  0  0  0  0  0  0  0  0  0  0
   -6.0409   16.1463  -33.3147 H   0  0  0  0  0  0  0  0  0  0  0  0
   -4.1360   18.1074  -34.1456 H   0  0  0  0  0  0  0  0  0  0  0  0
   -4.8241   16.7485  -35.1093 H   0  0  0  0  0  0  0  0  0  0  0  0
   -6.6780   18.5910  -35.0070 H   0  0  0  0  0  0  0  0  0  0  0  0
  1  2  1  0
  2  3  1  0
  3  4  1  0
  4  5  2  0
  5  6  1  0
  6  7  2  0
  7  8  1  0
  8  9  2  0
  9 10  1  0
 10 11  1  0
 10 12  2  0
  9 13  1  0
 13 14  1  0
 14 15  2  0
 14 16  1  0
 13 17  1  0
 17 18  2  0
  2 19  1  0
 19 20  2  0
 19 21  1  0
 21 22  1  0
 22 23  1  0
 23 24  1  0
 18  4  1  0
 17  7  1  0
  1 25  1  0
  1 26  1  0
  1 27  1  0
  2 28  1  1
  3 29  1  0
  5 30  1  0
  6 31  1  0
  8 32  1  0
 11 33  1  0
 18 34  1  0
 22 35  1  0
 22 36  1  0
 23 37  1  0
 23 38  1  0
 24 39  1  0
M  CHG  3  11  -1  16  -1  21  -1
M  END
>  <UniqueID>  (39) 
38

>  <SMILES>  (39) 
C[C@H](Nc1ccc2cc(C([NH-])=O)n(C(=O)[O-])c2c1)C(=O)[N-]CCO

>  <Energy>  (39) 
72.26272704581737

>  <Genealogy>  (39) 
CC(Nc1ccc2cc(C([NH-])=O)n(C(=O)[O-])c2c1)C(=O)[N-]CCO (protonated)
C[C@H](Nc1ccc2cc(C([NH-])=O)n(C(=O)[O-])c2c1)C(=O)[N-]CCO (chirality)
C[C@H](Nc1ccc2cc(C([NH-])=O)n(C(=O)[O-])c2c1)C(=O)[N-]CCO (3D coordinates assigned)
C[C@H](Nc1ccc2cc(C([NH-])=O)n(C(=O)[O-])c2c1)C(=O)[N-]CCO (optimized conformer: 72.26272704581737 kcal/mol)

>  <smiles>  (39) 
CC(Nc1ccc2cc(C(N)=O)n(C(=O)O)c2c1)C(=O)NCCO

>  <score_type>  (39) 
oracle

>  <origin>  (39) 
adg

>  <m_score__min__energy>  (39) 
-10.57

>  <m_primary>  (39) 
energy

$$$$
41:0
     RDKit          3D

 44 45  0  0  0  0  0  0  0  0999 V2000
   -3.9360   14.9120  -32.7150 C   0  0  0  0  0  0  0  0  0  0  0  0
   -3.7470   16.3160  -33.0920 N   0  0  0  0  0  0  0  0  0  0  0  0
   -2.4070   16.7960  -33.4440 C   0  0  0  0  0  0  0  0  0  0  0  0
   -4.8570   17.2390  -33.0310 C   0  0  0  0  0  0  0  0  0  0  0  0
   -6.1920   16.7600  -33.1060 C   0  0  0  0  0  0  0  0  0  0  0  0
   -7.2810   17.6420  -33.0250 C   0  0  0  0  0  0  0  0  0  0  0  0
   -7.0130   18.9960  -32.8580 C   0  0  0  0  0  0  0  0  0  0  0  0
   -7.8770   20.0570  -32.7170 C   0  0  0  0  0  0  0  0  0  0  0  0
   -7.0630   21.1740  -32.5350 C   0  0  0  0  0  0  0  0  0  0  0  0
   -7.5770   22.5190  -32.1950 C   0  0  0  0  0  0  0  0  0  0  0  0
   -6.8800   23.6930  -32.6150 N   0  0  0  0  0  0  0  0  0  0  0  0
   -8.6540   22.6410  -31.5530 O   0  0  0  0  0  0  0  0  0  0  0  0
   -5.7480   20.8160  -32.5780 N   0  0  0  0  0  0  0  0  0  0  0  0
   -4.5970   21.6690  -32.4490 C   0  0  0  0  0  0  0  0  0  0  0  0
   -4.2030   22.3400  -33.4410 O   0  0  0  0  0  0  0  0  0  0  0  0
   -3.8800   21.8070  -31.1340 C   0  0  0  0  0  0  0  0  0  0  0  0
   -4.5870   22.7930  -30.1970 C   0  0  0  0  0  0  0  0  0  0  0  0
   -4.3290   24.2180  -30.5840 C   0  0  0  0  0  0  0  0  0  0  0  0
   -5.0670   24.7820  -31.4380 O   0  0  0  0  0  0  0  0  0  0  0  0
   -3.2780   24.9140  -29.9760 O   0  0  0  0  0  0  0  0  0  0  0  0
   -2.3860   24.3170  -29.0360 C   0  0  0  0  0  0  0  0  0  0  0  0
   -1.1640   25.1620  -28.8620 C   0  0  0  0  0  0  0  0  0  0  0  0
   -1.2330   26.4140  -28.9810 O   0  0  0  0  0  0  0  0  0  0  0  0
    0.0580   24.5640  -28.5740 O   0  0  0  0  0  0  0  0  0  0  0  0
   -5.7340   19.4800  -32.7720 C   0  0  0  0  0  0  0  0  0  0  0  0
   -4.6280   18.6290  -32.8750 C   0  0  0  0  0  0  0  0  0  0  0  0
   -3.9477   14.8252  -31.6185 H   0  0  0  0  0  0  0  0  0  0  0  0
   -4.8912   14.5485  -33.1218 H   0  0  0  0  0  0  0  0  0  0  0  0
   -3.1109   14.3088  -33.1218 H   0  0  0  0  0  0  0  0  0  0  0  0
   -1.8375   17.0000  -32.5253 H   0  0  0  0  0  0  0  0  0  0  0  0
   -1.8862   16.0285  -34.0354 H   0  0  0  0  0  0  0  0  0  0  0  0
   -2.4920   17.7196  -34.0354 H   0  0  0  0  0  0  0  0  0  0  0  0
   -6.3752   15.6824  -33.2293 H   0  0  0  0  0  0  0  0  0  0  0  0
   -8.3151   17.2731  -33.0916 H   0  0  0  0  0  0  0  0  0  0  0  0
   -8.9764   20.0299  -32.7424 H   0  0  0  0  0  0  0  0  0  0  0  0
   -5.9550   23.6330  -33.0930 H   0  0  0  0  0  0  0  0  0  0  0  0
   -7.2750   24.6390  -32.4130 H   0  0  0  0  0  0  0  0  0  0  0  0
   -3.8380   20.8216  -30.6469 H   0  0  0  0  0  0  0  0  0  0  0  0
   -2.8701   22.1935  -31.3358 H   0  0  0  0  0  0  0  0  0  0  0  0
   -5.6701   22.6050  -30.2353 H   0  0  0  0  0  0  0  0  0  0  0  0
   -4.1925   22.6397  -29.1817 H   0  0  0  0  0  0  0  0  0  0  0  0
   -2.8965   24.2153  -28.0670 H   0  0  0  0  0  0  0  0  0  0  0  0
   -2.0837   23.3283  -29.4116 H   0  0  0  0  0  0  0  0  0  0  0  0
   -3.6043   19.0296  -32.8358 H   0  0  0  0  0  0  0  0  0  0  0  0
  1  2  1  0
  2  3  1  0
  2  4  1  0
  4  5  2  0
  5  6  1  0
  6  7  2  0
  7  8  1  0
  8  9  2  0
  9 10  1  0
 10 11  1  0
 10 12  2  0
  9 13  1  0
 13 14  1  0
 14 15  2  0
 14 16  1  0
 16 17  1  0
 17 18  1  0
 18 19  2  0
 18 20  1  0
 20 21  1  0
 21 22  1  0
 22 23  2  0
 22 24  1  0
 13 25  1  0
 25 26  2  0
 26  4  1  0
 25  7  1  0
  1 27  1  0
  1 28  1  0
  1 29  1  0
  3 30  1  0
  3 31  1  0
  3 32  1  0
  5 33  1  0
  6 34  1  0
  8 35  1  0
 11 36  1  0
 11 37  1  0
 16 38  1  0
 16 39  1  0
 17 40  1  0
 17 41  1  0
 21 42  1  0
 21 43  1  0
 26 44  1  0
M  CHG  1  24  -1
M  END
>  <UniqueID>  (40) 
39

>  <SMILES>  (40) 
CN(C)c1ccc2cc(C(N)=O)n(C(=O)CCC(=O)OCC(=O)[O-])c2c1

>  <Energy>  (40) 
77.30562774129123

>  <Genealogy>  (40) 
CN(C)c1ccc2cc(C(N)=O)n(C(=O)CCC(=O)OCC(=O)[O-])c2c1 (protonated)
CN(C)c1ccc2cc(C(N)=O)n(C(=O)CCC(=O)OCC(=O)[O-])c2c1 (3D coordinates assigned)
CN(C)c1ccc2cc(C(N)=O)n(C(=O)CCC(=O)OCC(=O)[O-])c2c1 (optimized conformer: 77.30562774129123 kcal/mol)

>  <smiles>  (40) 
CN(C)c1ccc2cc(C(N)=O)n(C(=O)CCC(=O)OCC(=O)O)c2c1

>  <score_type>  (40) 
oracle

>  <origin>  (40) 
adg

>  <m_score__min__energy>  (40) 
-10.69

>  <m_primary>  (40) 
energy

$$$$
42:0
     RDKit          3D

 33 34  0  0  0  0  0  0  0  0999 V2000
   -5.6260   23.7960  -30.5340 N   0  0  0  0  0  0  0  0  0  0  0  0
   -6.7720   23.1390  -31.0790 C   0  0  0  0  0  0  0  0  0  0  0  0
   -7.8510   23.7770  -31.1950 O   0  0  0  0  0  0  0  0  0  0  0  0
   -6.6950   21.7490  -31.5680 C   0  0  0  0  0  0  0  0  0  0  0  0
   -7.8050   20.9170  -31.6920 C   0  0  0  0  0  0  0  0  0  0  0  0
   -7.3230   19.7500  -32.2400 C   0  0  0  0  0  0  0  0  0  0  0  0
   -7.9910   18.5720  -32.5610 C   0  0  0  0  0  0  0  0  0  0  0  0
   -7.2350   17.5060  -33.0780 C   0  0  0  0  0  0  0  0  0  0  0  0
   -5.8370   17.6370  -33.2640 C   0  0  0  0  0  0  0  0  0  0  0  0
   -5.0340   16.4740  -33.7680 C   0  0  0  0  0  0  0  0  0  0  0  0
   -4.6310   15.3890  -32.4160 Cl  0  0  0  0  0  0  0  0  0  0  0  0
   -5.1900   18.8430  -32.9120 C   0  0  0  0  0  0  0  0  0  0  0  0
   -5.9710   19.8950  -32.4190 C   0  0  0  0  0  0  0  0  0  0  0  0
   -5.5680   21.1170  -32.0050 N   0  0  0  0  0  0  0  0  0  0  0  0
   -4.2160   21.5990  -31.9430 C   0  0  0  0  0  0  0  0  0  0  0  0
   -3.7600   22.3160  -32.8750 O   0  0  0  0  0  0  0  0  0  0  0  0
   -3.4090   21.2650  -30.8520 O   0  0  0  0  0  0  0  0  0  0  0  0
   -3.0740   22.1920  -29.8200 C   0  0  0  0  0  0  0  0  0  0  0  0
   -2.4360   23.3300  -30.3560 O   0  0  0  0  0  0  0  0  0  0  0  0
   -3.1160   24.7330  -29.6590 P   0  0  0  0  0  0  0  0  0  0  0  0
   -4.1240   24.3580  -28.5960 O   0  0  0  0  0  0  0  0  0  0  0  0
   -1.8800   25.6400  -28.9470 O   0  0  0  0  0  0  0  0  0  0  0  0
   -3.8690   25.6730  -30.8470 O   0  0  0  0  0  0  0  0  0  0  0  0
   -4.6790   23.3610  -30.5830 H   0  0  0  0  0  0  0  0  0  0  0  0
   -5.7100   24.7660  -30.1550 H   0  0  0  0  0  0  0  0  0  0  0  0
   -8.8443   21.1439  -31.4120 H   0  0  0  0  0  0  0  0  0  0  0  0
   -9.0772   18.4782  -32.4146 H   0  0  0  0  0  0  0  0  0  0  0  0
   -7.7336   16.5613  -33.3406 H   0  0  0  0  0  0  0  0  0  0  0  0
   -5.6210   15.9220  -34.5168 H   0  0  0  0  0  0  0  0  0  0  0  0
   -4.1050   16.8450  -34.2255 H   0  0  0  0  0  0  0  0  0  0  0  0
   -4.1010   18.9523  -33.0225 H   0  0  0  0  0  0  0  0  0  0  0  0
   -3.9936   22.5041  -29.3033 H   0  0  0  0  0  0  0  0  0  0  0  0
   -2.3862   21.7015  -29.1155 H   0  0  0  0  0  0  0  0  0  0  0  0
  1  2  1  0
  2  3  2  0
  2  4  1  0
  4  5  2  0
  5  6  1  0
  6  7  2  0
  7  8  1  0
  8  9  2  0
  9 10  1  0
 10 11  1  0
  9 12  1  0
 12 13  2  0
 13 14  1  0
 14 15  1  0
 15 16  2  0
 15 17  1  0
 17 18  1  0
 18 19  1  0
 19 20  1  0
 20 21  2  0
 20 22  1  0
 20 23  1  0
 14  4  1  0
 13  6  1  0
  1 24  1  0
  1 25  1  0
  5 26  1  0
  7 27  1  0
  8 28  1  0
 10 29  1  0
 10 30  1  0
 12 31  1  0
 18 32  1  0
 18 33  1  0
M  CHG  2  22  -1  23  -1
M  END
>  <UniqueID>  (41) 
40

>  <SMILES>  (41) 
NC(=O)c1cc2ccc(CCl)cc2n1C(=O)OCOP(=O)([O-])[O-]

>  <Energy>  (41) 
69.4857112822896

>  <Genealogy>  (41) 
NC(=O)c1cc2ccc(CCl)cc2n1C(=O)OCOP(=O)([O-])[O-] (protonated)
NC(=O)c1cc2ccc(CCl)cc2n1C(=O)OCOP(=O)([O-])[O-] (3D coordinates assigned)
NC(=O)c1cc2ccc(CCl)cc2n1C(=O)OCOP(=O)([O-])[O-] (optimized conformer: 69.4857112822896 kcal/mol)

>  <smiles>  (41) 
NC(=O)c1cc2ccc(CCl)cc2n1C(=O)OCOP(=O)(O)O

>  <score_type>  (41) 
oracle

>  <origin>  (41) 
adg

>  <m_score__min__energy>  (41) 
-12.66

>  <m_primary>  (41) 
energy

$$$$
43:0
     RDKit          3D

 47 48  0  0  0  0  0  0  0  0999 V2000
   -3.0330   25.2750  -30.2910 H   0  0  0  0  0  0  0  0  0  0  0  0
   -3.8630   25.5810  -30.8440 N   0  0  0  0  0  0  0  0  0  0  0  0
   -5.1860   25.2510  -30.4250 C   0  0  0  0  0  0  0  0  0  0  0  0
   -5.7790   26.0040  -29.6050 O   0  0  0  0  0  0  0  0  0  0  0  0
   -5.8570   24.0290  -30.9170 C   0  0  0  0  0  0  0  0  0  0  0  0
   -7.2410   23.8810  -30.9880 C   0  0  0  0  0  0  0  0  0  0  0  0
   -8.0063   24.6244  -30.7203 H   0  0  0  0  0  0  0  0  0  0  0  0
   -7.4460   22.6050  -31.4650 C   0  0  0  0  0  0  0  0  0  0  0  0
   -8.6330   21.9340  -31.7500 C   0  0  0  0  0  0  0  0  0  0  0  0
   -9.6092   22.4112  -31.5787 H   0  0  0  0  0  0  0  0  0  0  0  0
   -8.5450   20.6290  -32.2630 C   0  0  0  0  0  0  0  0  0  0  0  0
   -9.4642   20.0680  -32.4873 H   0  0  0  0  0  0  0  0  0  0  0  0
   -7.2810   20.0290  -32.4940 C   0  0  0  0  0  0  0  0  0  0  0  0
   -7.1910   18.6290  -33.0310 C   0  0  0  0  0  0  0  0  0  0  0  0
   -8.1434   18.3661  -33.5146 H   0  0  0  0  0  0  0  0  0  0  0  0
   -6.9380   17.7520  -31.9930 F   0  0  0  0  0  0  0  0  0  0  0  0
   -6.1680   18.5470  -33.9580 F   0  0  0  0  0  0  0  0  0  0  0  0
   -6.0990   20.7410  -32.1930 C   0  0  0  0  0  0  0  0  0  0  0  0
   -5.1097   20.2931  -32.3683 H   0  0  0  0  0  0  0  0  0  0  0  0
   -6.2200   22.0310  -31.6660 C   0  0  0  0  0  0  0  0  0  0  0  0
   -5.2340   22.8880  -31.3270 N   0  0  0  0  0  0  0  0  0  0  0  0
   -3.8240   22.6740  -31.4960 C   0  0  0  0  0  0  0  0  0  0  0  0
   -3.0230   23.1280  -30.6360 O   0  0  0  0  0  0  0  0  0  0  0  0
   -3.2840   21.9360  -32.6530 C   0  0  0  0  0  0  0  0  0  0  0  0
   -3.2712   22.4311  -33.6352 H   0  0  0  0  0  0  0  0  0  0  0  0
   -2.8090   20.6890  -32.5570 C   0  0  0  0  0  0  0  0  0  0  0  0
   -2.8166   20.1819  -31.5809 H   0  0  0  0  0  0  0  0  0  0  0  0
   -2.2650   19.9680  -33.7590 C   0  0  0  0  0  0  0  0  0  0  0  0
   -3.1024   19.6360  -34.3904 H   0  0  0  0  0  0  0  0  0  0  0  0
   -1.6784   19.1028  -33.4165 H   0  0  0  0  0  0  0  0  0  0  0  0
   -1.3860   20.8550  -34.5470 N   0  0  0  0  0  0  0  0  0  0  0  0
   -1.5460   21.8340  -34.2110 H   0  0  0  0  0  0  0  0  0  0  0  0
   -1.6830   20.8220  -35.5520 H   0  0  0  0  0  0  0  0  0  0  0  0
    0.0730   20.5440  -34.4730 C   0  0  0  0  0  0  0  0  0  0  0  0
    0.5320   20.3490  -33.0070 C   0  0  0  0  0  0  0  0  0  0  0  0
   -0.2630   20.6867  -32.3259 H   0  0  0  0  0  0  0  0  0  0  0  0
    0.7413   19.2842  -32.8269 H   0  0  0  0  0  0  0  0  0  0  0  0
    1.4437   20.9375  -32.8269 H   0  0  0  0  0  0  0  0  0  0  0  0
    0.4060   19.2700  -35.2920 C   0  0  0  0  0  0  0  0  0  0  0  0
    0.6233   18.4388  -34.6050 H   0  0  0  0  0  0  0  0  0  0  0  0
   -0.4535   19.0066  -35.9260 H   0  0  0  0  0  0  0  0  0  0  0  0
    1.2844   19.4609  -35.9260 H   0  0  0  0  0  0  0  0  0  0  0  0
    0.8490   21.7450  -35.0860 C   0  0  0  0  0  0  0  0  0  0  0  0
    1.6304   22.0610  -34.3792 H   0  0  0  0  0  0  0  0  0  0  0  0
    1.2856   21.4161  -36.0406 H   0  0  0  0  0  0  0  0  0  0  0  0
    0.0050   22.8380  -35.3480 O   0  0  0  0  0  0  0  0  0  0  0  0
   -0.4890   22.6350  -36.1840 H   0  0  0  0  0  0  0  0  0  0  0  0
  1  2  1  0
  2  3  1  0
  3  4  2  0
  3  5  1  0
  5  6  2  0
  6  7  1  0
  6  8  1  0
  8  9  2  0
  9 10  1  0
  9 11  1  0
 11 12  1  0
 11 13  2  0
 13 14  1  0
 14 15  1  0
 14 16  1  0
 14 17  1  0
 13 18  1  0
 18 19  1  0
 18 20  2  0
 20 21  1  0
 21 22  1  0
 22 23  2  0
 22 24  1  0
 24 25  1  0
 24 26  2  0
 26 27  1  0
 26 28  1  0
 28 29  1  0
 28 30  1  0
 28 31  1  0
 31 32  1  0
 31 33  1  0
 31 34  1  0
 34 35  1  0
 35 36  1  0
 35 37  1  0
 35 38  1  0
 34 39  1  0
 39 40  1  0
 39 41  1  0
 39 42  1  0
 34 43  1  0
 43 44  1  0
 43 45  1  0
 43 46  1  0
 46 47  1  0
 21  5  1  0
 20  8  1  0
M  CHG  2   2  -1  31   1
M  END
>  <UniqueID>  (42) 
41

>  <SMILES>  (42) 
CC(C)(CO)[NH2+]C/C=C/C(=O)n1c(C([NH-])=O)cc2ccc(C(F)F)cc21

>  <Energy>  (42) 
85.75938798791366

>  <Genealogy>  (42) 
CC(C)(CO)[NH2+]C/C=C/C(=O)n1c(C([NH-])=O)cc2ccc(C(F)F)cc21 (protonated)
CC(C)(CO)[NH2+]C/C=C/C(=O)n1c(C([NH-])=O)cc2ccc(C(F)F)cc21 (cis-trans isomerization)
CC(C)(CO)[NH2+]C/C=C/C(=O)n1c(C([NH-])=O)cc2ccc(C(F)F)cc21 (3D coordinates assigned)
CC(C)(CO)[NH2+]C/C=C/C(=O)n1c(C([NH-])=O)cc2ccc(C(F)F)cc21 (optimized conformer: 85.75938798791366 kcal/mol)

>  <smiles>  (42) 
CC(C)(CO)NC/C=C/C(=O)n1c(C(N)=O)cc2ccc(C(F)F)cc21

>  <score_type>  (42) 
oracle

>  <origin>  (42) 
adg

>  <m_score__min__energy>  (42) 
-10.43

>  <m_primary>  (42) 
energy

$$$$
44:0
     RDKit          3D

 42 43  0  0  0  0  0  0  0  0999 V2000
   -3.9130   25.6200  -30.8610 N   0  0  0  0  0  0  0  0  0  0  0  0
   -5.2260   25.2850  -30.4140 C   0  0  0  0  0  0  0  0  0  0  0  0
   -5.8230   26.0580  -29.6200 O   0  0  0  0  0  0  0  0  0  0  0  0
   -5.8500   24.0190  -30.8530 C   0  0  0  0  0  0  0  0  0  0  0  0
   -7.2260   23.7950  -30.8350 C   0  0  0  0  0  0  0  0  0  0  0  0
   -7.4010   22.5530  -31.3980 C   0  0  0  0  0  0  0  0  0  0  0  0
   -8.5680   21.8280  -31.6190 C   0  0  0  0  0  0  0  0  0  0  0  0
   -8.4520   20.5510  -32.1900 C   0  0  0  0  0  0  0  0  0  0  0  0
   -7.1790   20.0180  -32.5150 C   0  0  0  0  0  0  0  0  0  0  0  0
   -7.0630   18.6350  -33.1030 C   0  0  0  0  0  0  0  0  0  0  0  0
   -5.8380   18.4630  -34.0180 C   0  0  0  0  0  0  0  0  0  0  0  0
   -4.5290   18.1320  -33.2710 C   0  0  0  0  0  0  0  0  0  0  0  0
   -3.2680   18.8400  -33.8060 C   0  0  0  0  0  0  0  0  0  0  0  0
   -2.6990   19.7830  -32.8400 N   0  0  0  0  0  0  0  0  0  0  0  0
   -6.0170   20.7910  -32.2900 C   0  0  0  0  0  0  0  0  0  0  0  0
   -6.1650   22.0650  -31.7320 C   0  0  0  0  0  0  0  0  0  0  0  0
   -5.2010   22.9520  -31.4000 N   0  0  0  0  0  0  0  0  0  0  0  0
   -3.7840   22.7560  -31.5400 C   0  0  0  0  0  0  0  0  0  0  0  0
   -3.3140   22.2860  -32.6130 O   0  0  0  0  0  0  0  0  0  0  0  0
   -2.9290   23.1150  -30.4940 O   0  0  0  0  0  0  0  0  0  0  0  0
   -1.5830   22.6630  -30.4110 C   0  0  0  0  0  0  0  0  0  0  0  0
   -1.5100   21.2520  -30.8860 C   0  0  0  0  0  0  0  0  0  0  0  0
   -0.7080   20.9330  -31.8020 O   0  0  0  0  0  0  0  0  0  0  0  0
   -2.3670   20.2950  -30.3570 O   0  0  0  0  0  0  0  0  0  0  0  0
   -3.0690   25.2810  -30.3460 H   0  0  0  0  0  0  0  0  0  0  0  0
   -8.0062   24.4691  -30.4516 H   0  0  0  0  0  0  0  0  0  0  0  0
   -9.5517   22.2431  -31.3542 H   0  0  0  0  0  0  0  0  0  0  0  0
   -9.3573   19.9581  -32.3872 H   0  0  0  0  0  0  0  0  0  0  0  0
   -6.9875   17.9105  -32.2788 H   0  0  0  0  0  0  0  0  0  0  0  0
   -7.9573   18.4680  -33.7214 H   0  0  0  0  0  0  0  0  0  0  0  0
   -6.0476   17.6462  -34.7243 H   0  0  0  0  0  0  0  0  0  0  0  0
   -5.6797   19.4301  -34.5176 H   0  0  0  0  0  0  0  0  0  0  0  0
   -4.6578   18.4179  -32.2166 H   0  0  0  0  0  0  0  0  0  0  0  0
   -4.3588   17.0552  -33.4180 H   0  0  0  0  0  0  0  0  0  0  0  0
   -2.5104   18.0786  -34.0434 H   0  0  0  0  0  0  0  0  0  0  0  0
   -3.5607   19.4129  -34.6983 H   0  0  0  0  0  0  0  0  0  0  0  0
   -2.0100   19.2760  -32.2370 H   0  0  0  0  0  0  0  0  0  0  0  0
   -3.4490   20.1660  -32.2210 H   0  0  0  0  0  0  0  0  0  0  0  0
   -2.2040   20.5620  -33.3310 H   0  0  0  0  0  0  0  0  0  0  0  0
   -5.0214   20.4004  -32.5473 H   0  0  0  0  0  0  0  0  0  0  0  0
   -0.9424   23.2971  -31.0415 H   0  0  0  0  0  0  0  0  0  0  0  0
   -1.2373   22.7204  -29.3683 H   0  0  0  0  0  0  0  0  0  0  0  0
  1  2  1  0
  2  3  2  0
  2  4  1  0
  4  5  2  0
  5  6  1  0
  6  7  2  0
  7  8  1  0
  8  9  2  0
  9 10  1  0
 10 11  1  0
 11 12  1  0
 12 13  1  0
 13 14  1  0
  9 15  1  0
 15 16  2  0
 16 17  1  0
 17 18  1  0
 18 19  2  0
 18 20  1  0
 20 21  1  0
 21 22  1  0
 22 23  2  0
 22 24  1  0
 17  4  1  0
 16  6  1  0
  1 25  1  0
  5 26  1  0
  7 27  1  0
  8 28  1  0
 10 29  1  0
 10 30  1  0
 11 31  1  0
 11 32  1  0
 12 33  1  0
 12 34  1  0
 13 35  1  0
 13 36  1  0
 14 37  1  0
 14 38  1  0
 14 39  1  0
 15 40  1  0
 21 41  1  0
 21 42  1  0
M  CHG  3   1  -1  14   1  24  -1
M  END
>  <UniqueID>  (43) 
42

>  <SMILES>  (43) 
[NH-]C(=O)c1cc2ccc(CCCC[NH3+])cc2n1C(=O)OCC(=O)[O-]

>  <Energy>  (43) 
72.73319194098694

>  <Genealogy>  (43) 
[NH-]C(=O)c1cc2ccc(CCCC[NH3+])cc2n1C(=O)OCC(=O)[O-] (protonated)
[NH-]C(=O)c1cc2ccc(CCCC[NH3+])cc2n1C(=O)OCC(=O)[O-] (3D coordinates assigned)
[NH-]C(=O)c1cc2ccc(CCCC[NH3+])cc2n1C(=O)OCC(=O)[O-] (optimized conformer: 72.73319194098694 kcal/mol)

>  <smiles>  (43) 
NCCCCc1ccc2cc(C(N)=O)n(C(=O)OCC(=O)O)c2c1

>  <score_type>  (43) 
oracle

>  <origin>  (43) 
adg

>  <m_score__min__energy>  (43) 
-8.4800000000000004

>  <m_primary>  (43) 
energy

$$$$
45:0
     RDKit          3D

 33 34  0  0  0  0  0  0  0  0999 V2000
   -5.7400   19.1070  -33.9140 C   0  0  0  0  0  0  0  0  0  0  0  0
   -5.7950   20.2450  -32.9900 N   0  0  0  0  0  0  0  0  0  0  0  0
   -7.0920   20.8870  -32.7100 C   0  0  0  0  0  0  0  0  0  0  0  0
   -8.1050   19.8640  -32.1880 C   0  0  0  0  0  0  0  0  0  0  0  0
   -9.1720   19.7340  -33.0880 O   0  0  0  0  0  0  0  0  0  0  0  0
   -4.5800   20.7060  -32.3520 C   0  0  0  0  0  0  0  0  0  0  0  0
   -3.4040   19.9110  -32.3940 C   0  0  0  0  0  0  0  0  0  0  0  0
   -2.2140   20.3460  -31.7860 C   0  0  0  0  0  0  0  0  0  0  0  0
   -2.2260   21.5750  -31.1370 C   0  0  0  0  0  0  0  0  0  0  0  0
   -1.2130   22.2420  -30.4880 C   0  0  0  0  0  0  0  0  0  0  0  0
   -1.7810   23.4310  -30.0380 C   0  0  0  0  0  0  0  0  0  0  0  0
   -1.0570   24.4160  -29.2080 C   0  0  0  0  0  0  0  0  0  0  0  0
   -1.6370   25.6930  -28.9540 N   0  0  0  0  0  0  0  0  0  0  0  0
    0.0870   24.1560  -28.7500 O   0  0  0  0  0  0  0  0  0  0  0  0
   -3.0940   23.5000  -30.4000 N   0  0  0  0  0  0  0  0  0  0  0  0
   -4.0090   24.5890  -30.1870 C   0  0  0  0  0  0  0  0  0  0  0  0
   -3.8720   25.6680  -30.8210 O   0  0  0  0  0  0  0  0  0  0  0  0
   -5.0370   24.4700  -29.2610 O   0  0  0  0  0  0  0  0  0  0  0  0
   -3.3510   22.3530  -31.0700 C   0  0  0  0  0  0  0  0  0  0  0  0
   -4.5440   21.9550  -31.6840 C   0  0  0  0  0  0  0  0  0  0  0  0
   -5.6947   18.1701  -33.3395 H   0  0  0  0  0  0  0  0  0  0  0  0
   -6.6391   19.1054  -34.5477 H   0  0  0  0  0  0  0  0  0  0  0  0
   -4.8449   19.1922  -34.5477 H   0  0  0  0  0  0  0  0  0  0  0  0
   -6.9496   21.6720  -31.9527 H   0  0  0  0  0  0  0  0  0  0  0  0
   -7.4790   21.3208  -33.6438 H   0  0  0  0  0  0  0  0  0  0  0  0
   -7.6088   18.8894  -32.0701 H   0  0  0  0  0  0  0  0  0  0  0  0
   -8.4942   20.2081  -31.2184 H   0  0  0  0  0  0  0  0  0  0  0  0
   -8.7780   19.7440  -33.9980 H   0  0  0  0  0  0  0  0  0  0  0  0
   -3.4249   18.9399  -32.9103 H   0  0  0  0  0  0  0  0  0  0  0  0
   -1.3014   19.7329  -31.8226 H   0  0  0  0  0  0  0  0  0  0  0  0
   -0.1740   21.9069  -30.3531 H   0  0  0  0  0  0  0  0  0  0  0  0
   -2.6700   25.8350  -29.0120 H   0  0  0  0  0  0  0  0  0  0  0  0
   -5.4354   22.5986  -31.6487 H   0  0  0  0  0  0  0  0  0  0  0  0
  1  2  1  0
  2  3  1  0
  3  4  1  0
  4  5  1  0
  2  6  1  0
  6  7  2  0
  7  8  1  0
  8  9  2  0
  9 10  1  0
 10 11  2  0
 11 12  1  0
 12 13  1  0
 12 14  2  0
 11 15  1  0
 15 16  1  0
 16 17  2  0
 16 18  1  0
 15 19  1  0
 19 20  2  0
 20  6  1  0
 19  9  1  0
  1 21  1  0
  1 22  1  0
  1 23  1  0
  3 24  1  0
  3 25  1  0
  4 26  1  0
  4 27  1  0
  5 28  1  0
  7 29  1  0
  8 30  1  0
 10 31  1  0
 13 32  1  0
 20 33  1  0
M  CHG  2  13  -1  18  -1
M  END
>  <UniqueID>  (44) 
43

>  <SMILES>  (44) 
CN(CCO)c1ccc2cc(C([NH-])=O)n(C(=O)[O-])c2c1

>  <Energy>  (44) 
72.55743297595829

>  <Genealogy>  (44) 
CN(CCO)c1ccc2cc(C([NH-])=O)n(C(=O)[O-])c2c1 (protonated)
CN(CCO)c1ccc2cc(C([NH-])=O)n(C(=O)[O-])c2c1 (3D coordinates assigned)
CN(CCO)c1ccc2cc(C([NH-])=O)n(C(=O)[O-])c2c1 (optimized conformer: 72.55743297595829 kcal/mol)

>  <smiles>  (44) 
CN(CCO)c1ccc2cc(C(N)=O)n(C(=O)O)c2c1

>  <score_type>  (44) 
oracle

>  <origin>  (44) 
adg

>  <m_score__min__energy>  (44) 
-10.44

>  <m_primary>  (44) 
energy

$$$$
46:0
     RDKit          3D

 49 50  0  0  0  0  0  0  0  0999 V2000
   -4.5750   14.1790  -31.7520 C   0  0  0  0  0  0  0  0  0  0  0  0
   -4.6870   14.4930  -33.2390 C   0  0  0  0  0  0  0  0  0  0  0  0
   -5.9500   15.0890  -33.5290 O   0  0  0  0  0  0  0  0  0  0  0  0
   -6.1050   16.4390  -33.8630 C   0  0  0  0  0  0  0  0  0  0  0  0
   -5.7080   16.8770  -34.9780 O   0  0  0  0  0  0  0  0  0  0  0  0
   -6.7180   17.3790  -32.8750 C   0  0  0  0  0  0  0  0  0  0  0  0
   -7.0150   18.6630  -33.5130 N   0  0  0  0  0  0  0  0  0  0  0  0
   -7.1770   19.9060  -32.8010 C   0  0  0  0  0  0  0  0  0  0  0  0
   -8.4700   20.2830  -32.3640 C   0  0  0  0  0  0  0  0  0  0  0  0
   -8.6750   21.4890  -31.6720 C   0  0  0  0  0  0  0  0  0  0  0  0
   -7.5710   22.3020  -31.4400 C   0  0  0  0  0  0  0  0  0  0  0  0
   -7.4830   23.5020  -30.7720 C   0  0  0  0  0  0  0  0  0  0  0  0
   -6.1390   23.8580  -30.8330 C   0  0  0  0  0  0  0  0  0  0  0  0
   -5.6080   25.1210  -30.2850 C   0  0  0  0  0  0  0  0  0  0  0  0
   -6.1550   25.7000  -29.0990 N   0  0  0  0  0  0  0  0  0  0  0  0
   -4.6200   25.6710  -30.8400 O   0  0  0  0  0  0  0  0  0  0  0  0
   -5.4190   22.9110  -31.4990 N   0  0  0  0  0  0  0  0  0  0  0  0
   -3.9920   22.8660  -31.6700 C   0  0  0  0  0  0  0  0  0  0  0  0
   -3.4900   22.1320  -32.5620 O   0  0  0  0  0  0  0  0  0  0  0  0
   -3.1740   23.6430  -30.8340 O   0  0  0  0  0  0  0  0  0  0  0  0
   -2.5860   23.2260  -29.5930 C   0  0  0  0  0  0  0  0  0  0  0  0
   -1.5330   22.1270  -29.8340 C   0  0  0  0  0  0  0  0  0  0  0  0
   -3.7180   22.6500  -28.7290 C   0  0  0  0  0  0  0  0  0  0  0  0
   -1.9600   24.4260  -28.8580 C   0  0  0  0  0  0  0  0  0  0  0  0
   -6.3120   21.9640  -31.8650 C   0  0  0  0  0  0  0  0  0  0  0  0
   -6.0750   20.7540  -32.5270 C   0  0  0  0  0  0  0  0  0  0  0  0
   -4.8880   15.0566  -31.1673 H   0  0  0  0  0  0  0  0  0  0  0  0
   -5.2240   13.3251  -31.5077 H   0  0  0  0  0  0  0  0  0  0  0  0
   -3.5321   13.9286  -31.5077 H   0  0  0  0  0  0  0  0  0  0  0  0
   -3.8842   15.1890  -33.5237 H   0  0  0  0  0  0  0  0  0  0  0  0
   -4.5959   13.5564  -33.8087 H   0  0  0  0  0  0  0  0  0  0  0  0
   -7.6502   16.9417  -32.4880 H   0  0  0  0  0  0  0  0  0  0  0  0
   -6.0090   17.5443  -32.0504 H   0  0  0  0  0  0  0  0  0  0  0  0
   -7.0510   18.6780  -34.5580 H   0  0  0  0  0  0  0  0  0  0  0  0
   -9.3258   19.6229  -32.5689 H   0  0  0  0  0  0  0  0  0  0  0  0
   -9.6772   21.7806  -31.3249 H   0  0  0  0  0  0  0  0  0  0  0  0
   -8.3003   24.0605  -30.2923 H   0  0  0  0  0  0  0  0  0  0  0  0
   -5.8010   26.6190  -28.7520 H   0  0  0  0  0  0  0  0  0  0  0  0
   -6.8570   25.1850  -28.5240 H   0  0  0  0  0  0  0  0  0  0  0  0
   -1.1702   21.7484  -28.8670 H   0  0  0  0  0  0  0  0  0  0  0  0
   -1.9871   21.3027  -30.4035 H   0  0  0  0  0  0  0  0  0  0  0  0
   -0.6900   22.5454  -30.4035 H   0  0  0  0  0  0  0  0  0  0  0  0
   -3.4683   22.7770  -27.6653 H   0  0  0  0  0  0  0  0  0  0  0  0
   -4.6555   23.1807  -28.9515 H   0  0  0  0  0  0  0  0  0  0  0  0
   -3.8408   21.5798  -28.9515 H   0  0  0  0  0  0  0  0  0  0  0  0
   -2.0399   24.2729  -27.7716 H   0  0  0  0  0  0  0  0  0  0  0  0
   -0.9002   24.5157  -29.1387 H   0  0  0  0  0  0  0  0  0  0  0  0
   -2.4928   25.3465  -29.1387 H   0  0  0  0  0  0  0  0  0  0  0  0
   -5.0564   20.4676  -32.8279 H   0  0  0  0  0  0  0  0  0  0  0  0
  1  2  1  0
  2  3  1  0
  3  4  1  0
  4  5  2  0
  4  6  1  0
  6  7  1  0
  7  8  1  0
  8  9  2  0
  9 10  1  0
 10 11  2  0
 11 12  1  0
 12 13  2  0
 13 14  1  0
 14 15  1  0
 14 16  2  0
 13 17  1  0
 17 18  1  0
 18 19  2  0
 18 20  1  0
 20 21  1  0
 21 22  1  0
 21 23  1  0
 21 24  1  0
 17 25  1  0
 25 26  2  0
 26  8  1  0
 25 11  1  0
  1 27  1  0
  1 28  1  0
  1 29  1  0
  2 30  1  0
  2 31  1  0
  6 32  1  0
  6 33  1  0
  7 34  1  0
  9 35  1  0
 10 36  1  0
 12 37  1  0
 15 38  1  0
 15 39  1  0
 22 40  1  0
 22 41  1  0
 22 42  1  0
 23 43  1  0
 23 44  1  0
 23 45  1  0
 24 46  1  0
 24 47  1  0
 24 48  1  0
 26 49  1  0
M  END
>  <UniqueID>  (45) 
44

>  <SMILES>  (45) 
CCOC(=O)CNc1ccc2cc(C(N)=O)n(C(=O)OC(C)(C)C)c2c1

>  <Energy>  (45) 
75.33094413585344

>  <Genealogy>  (45) 
CCOC(=O)CNc1ccc2cc(C(N)=O)n(C(=O)OC(C)(C)C)c2c1 (3D coordinates assigned)
CCOC(=O)CNc1ccc2cc(C(N)=O)n(C(=O)OC(C)(C)C)c2c1 (optimized conformer: 75.33094413585344 kcal/mol)

>  <smiles>  (45) 
CCOC(=O)CNc1ccc2cc(C(N)=O)n(C(=O)OC(C)(C)C)c2c1

>  <score_type>  (45) 
oracle

>  <origin>  (45) 
adg

>  <m_score__min__energy>  (45) 
-8.6600000000000001

>  <m_primary>  (45) 
energy

$$$$
47:0
     RDKit          3D

 42 44  0  0  0  0  0  0  0  0999 V2000
   -1.2030   22.8470  -28.6210 C   0  0  0  0  0  0  0  0  0  0  0  0
   -2.6070   22.5750  -29.1970 C   0  0  0  0  0  0  0  0  0  0  0  0
   -2.7830   21.0600  -29.3790 C   0  0  0  0  0  0  0  0  0  0  0  0
   -3.6980   23.0940  -28.2400 C   0  0  0  0  0  0  0  0  0  0  0  0
   -2.7440   23.1740  -30.4920 O   0  0  0  0  0  0  0  0  0  0  0  0
   -3.4690   22.6570  -31.5770 C   0  0  0  0  0  0  0  0  0  0  0  0
   -2.8790   22.1360  -32.5620 O   0  0  0  0  0  0  0  0  0  0  0  0
   -4.9030   22.6970  -31.5460 N   0  0  0  0  0  0  0  0  0  0  0  0
   -5.7060   23.7090  -31.1120 C   0  0  0  0  0  0  0  0  0  0  0  0
   -5.2610   24.9380  -30.4240 C   0  0  0  0  0  0  0  0  0  0  0  0
   -4.0800   25.6230  -30.8340 N   0  0  0  0  0  0  0  0  0  0  0  0
   -5.9070   25.3650  -29.4300 O   0  0  0  0  0  0  0  0  0  0  0  0
   -7.0470   23.3940  -31.3280 C   0  0  0  0  0  0  0  0  0  0  0  0
   -7.0390   22.1440  -31.9040 C   0  0  0  0  0  0  0  0  0  0  0  0
   -8.0970   21.3520  -32.3370 C   0  0  0  0  0  0  0  0  0  0  0  0
   -7.7960   20.1110  -32.9220 C   0  0  0  0  0  0  0  0  0  0  0  0
   -6.4500   19.6840  -33.0730 C   0  0  0  0  0  0  0  0  0  0  0  0
   -6.1610   18.3730  -33.7030 C   0  0  0  0  0  0  0  0  0  0  0  0
   -5.2290   18.1050  -34.6910 C   0  0  0  0  0  0  0  0  0  0  0  0
   -5.2940   16.8260  -34.9600 O   0  0  0  0  0  0  0  0  0  0  0  0
   -6.2180   16.3120  -34.1810 C   0  0  0  0  0  0  0  0  0  0  0  0
   -6.5850   14.8930  -34.1880 C   0  0  0  0  0  0  0  0  0  0  0  0
   -7.6140   14.5070  -34.8020 O   0  0  0  0  0  0  0  0  0  0  0  0
   -5.7980   13.9690  -33.5150 O   0  0  0  0  0  0  0  0  0  0  0  0
   -6.7930   17.2280  -33.3750 N   0  0  0  0  0  0  0  0  0  0  0  0
   -5.4030   20.5240  -32.6220 C   0  0  0  0  0  0  0  0  0  0  0  0
   -5.7350   21.7460  -32.0260 C   0  0  0  0  0  0  0  0  0  0  0  0
   -1.2495   22.8380  -27.5220 H   0  0  0  0  0  0  0  0  0  0  0  0
   -0.5081   22.0668  -28.9650 H   0  0  0  0  0  0  0  0  0  0  0  0
   -0.8497   23.8303  -28.9650 H   0  0  0  0  0  0  0  0  0  0  0  0
   -2.8392   20.5763  -28.3927 H   0  0  0  0  0  0  0  0  0  0  0  0
   -3.7101   20.8630  -29.9373 H   0  0  0  0  0  0  0  0  0  0  0  0
   -1.9258   20.6557  -29.9373 H   0  0  0  0  0  0  0  0  0  0  0  0
   -3.3760   22.9408  -27.1994 H   0  0  0  0  0  0  0  0  0  0  0  0
   -3.8625   24.1668  -28.4188 H   0  0  0  0  0  0  0  0  0  0  0  0
   -4.6341   22.5447  -28.4188 H   0  0  0  0  0  0  0  0  0  0  0  0
   -3.1370   25.2990  -30.5280 H   0  0  0  0  0  0  0  0  0  0  0  0
   -7.9245   24.0128  -31.0890 H   0  0  0  0  0  0  0  0  0  0  0  0
   -9.1386   21.6875  -32.2247 H   0  0  0  0  0  0  0  0  0  0  0  0
   -8.6136   19.4613  -33.2677 H   0  0  0  0  0  0  0  0  0  0  0  0
   -4.5558   18.8350  -35.1642 H   0  0  0  0  0  0  0  0  0  0  0  0
   -4.3514   20.2226  -32.7376 H   0  0  0  0  0  0  0  0  0  0  0  0
  1  2  1  0
  2  3  1  0
  2  4  1  0
  2  5  1  0
  5  6  1  0
  6  7  2  0
  6  8  1  0
  8  9  1  0
  9 10  1  0
 10 11  1  0
 10 12  2  0
  9 13  2  0
 13 14  1  0
 14 15  2  0
 15 16  1  0
 16 17  2  0
 17 18  1  0
 18 19  2  0
 19 20  1  0
 20 21  1  0
 21 22  1  0
 22 23  2  0
 22 24  1  0
 21 25  2  0
 17 26  1  0
 26 27  2  0
 27  8  1  0
 27 14  1  0
 25 18  1  0
  1 28  1  0
  1 29  1  0
  1 30  1  0
  3 31  1  0
  3 32  1  0
  3 33  1  0
  4 34  1  0
  4 35  1  0
  4 36  1  0
 11 37  1  0
 13 38  1  0
 15 39  1  0
 16 40  1  0
 19 41  1  0
 26 42  1  0
M  CHG  2  11  -1  24  -1
M  END
>  <UniqueID>  (46) 
45

>  <SMILES>  (46) 
CC(C)(C)OC(=O)n1c(C([NH-])=O)cc2ccc(-c3coc(C(=O)[O-])n3)cc21

>  <Energy>  (46) 
107.82124935866733

>  <Genealogy>  (46) 
CC(C)(C)OC(=O)n1c(C([NH-])=O)cc2ccc(-c3coc(C(=O)[O-])n3)cc21 (protonated)
CC(C)(C)OC(=O)n1c(C([NH-])=O)cc2ccc(-c3coc(C(=O)[O-])n3)cc21 (3D coordinates assigned)
CC(C)(C)OC(=O)n1c(C([NH-])=O)cc2ccc(-c3coc(C(=O)[O-])n3)cc21 (optimized conformer: 107.82124935866733 kcal/mol)

>  <smiles>  (46) 
CC(C)(C)OC(=O)n1c(C(N)=O)cc2ccc(-c3coc(C(=O)O)n3)cc21

>  <score_type>  (46) 
oracle

>  <origin>  (46) 
adg

>  <m_score__min__energy>  (46) 
-10.34

>  <m_primary>  (46) 
energy

$$$$
48:0
     RDKit          3D

 47 49  0  0  0  0  0  0  0  0999 V2000
   -4.5790   14.1260  -31.5850 C   0  0  0  0  0  0  0  0  0  0  0  0
   -4.9700   15.4860  -31.7280 O   0  0  0  0  0  0  0  0  0  0  0  0
   -4.8890   16.2180  -32.9240 C   0  0  0  0  0  0  0  0  0  0  0  0
   -4.2730   15.6910  -34.0770 C   0  0  0  0  0  0  0  0  0  0  0  0
   -4.1710   16.4600  -35.2390 C   0  0  0  0  0  0  0  0  0  0  0  0
   -4.6740   17.7610  -35.2630 C   0  0  0  0  0  0  0  0  0  0  0  0
   -5.2930   18.2920  -34.1310 C   0  0  0  0  0  0  0  0  0  0  0  0
   -5.4270   17.5220  -32.9660 C   0  0  0  0  0  0  0  0  0  0  0  0
   -6.0750   18.0970  -31.8210 N   0  0  0  0  0  0  0  0  0  0  0  0
   -6.3540   19.5020  -31.6730 C   0  0  0  0  0  0  0  0  0  0  0  0
   -7.6840   19.9640  -31.8360 C   0  0  0  0  0  0  0  0  0  0  0  0
   -7.9980   21.3260  -31.6750 C   0  0  0  0  0  0  0  0  0  0  0  0
   -6.9670   22.1970  -31.3400 C   0  0  0  0  0  0  0  0  0  0  0  0
   -6.9810   23.5600  -31.1330 C   0  0  0  0  0  0  0  0  0  0  0  0
   -5.6630   23.9000  -30.8290 C   0  0  0  0  0  0  0  0  0  0  0  0
   -5.2080   25.2710  -30.5190 C   0  0  0  0  0  0  0  0  0  0  0  0
   -3.8740   25.6650  -30.8330 N   0  0  0  0  0  0  0  0  0  0  0  0
   -5.9890   26.1010  -29.9840 O   0  0  0  0  0  0  0  0  0  0  0  0
   -4.8750   22.7920  -30.8400 N   0  0  0  0  0  0  0  0  0  0  0  0
   -3.4590   22.7190  -30.6320 C   0  0  0  0  0  0  0  0  0  0  0  0
   -2.6880   22.8430  -31.6210 O   0  0  0  0  0  0  0  0  0  0  0  0
   -2.9170   22.4940  -29.3160 N   0  0  0  0  0  0  0  0  0  0  0  0
   -2.6530   21.1210  -28.8750 C   0  0  0  0  0  0  0  0  0  0  0  0
   -2.6210   23.6190  -28.4200 C   0  0  0  0  0  0  0  0  0  0  0  0
   -1.4600   24.4120  -28.9330 C   0  0  0  0  0  0  0  0  0  0  0  0
   -1.6260   25.5970  -29.3240 O   0  0  0  0  0  0  0  0  0  0  0  0
   -0.1990   23.8330  -29.0110 O   0  0  0  0  0  0  0  0  0  0  0  0
   -5.6820   21.7620  -31.1620 C   0  0  0  0  0  0  0  0  0  0  0  0
   -5.3370   20.4190  -31.3210 C   0  0  0  0  0  0  0  0  0  0  0  0
   -4.5070   13.8756  -30.5163 H   0  0  0  0  0  0  0  0  0  0  0  0
   -5.3270   13.4771  -32.0641 H   0  0  0  0  0  0  0  0  0  0  0  0
   -3.6006   13.9734  -32.0641 H   0  0  0  0  0  0  0  0  0  0  0  0
   -3.8699   14.6676  -34.0619 H   0  0  0  0  0  0  0  0  0  0  0  0
   -3.6935   16.0391  -36.1361 H   0  0  0  0  0  0  0  0  0  0  0  0
   -4.5825   18.3688  -36.1753 H   0  0  0  0  0  0  0  0  0  0  0  0
   -5.6788   19.3219  -34.1521 H   0  0  0  0  0  0  0  0  0  0  0  0
   -6.2590   17.4710  -31.0040 H   0  0  0  0  0  0  0  0  0  0  0  0
   -8.4802   19.2492  -32.0914 H   0  0  0  0  0  0  0  0  0  0  0  0
   -9.0270   21.6905  -31.8099 H   0  0  0  0  0  0  0  0  0  0  0  0
   -7.8471   24.2354  -31.1945 H   0  0  0  0  0  0  0  0  0  0  0  0
   -3.0900   24.9750  -30.8070 H   0  0  0  0  0  0  0  0  0  0  0  0
   -2.6459   21.0840  -27.7756 H   0  0  0  0  0  0  0  0  0  0  0  0
   -3.4395   20.4548  -29.2592 H   0  0  0  0  0  0  0  0  0  0  0  0
   -1.6755   20.7940  -29.2592 H   0  0  0  0  0  0  0  0  0  0  0  0
   -3.5041   24.2717  -28.3559 H   0  0  0  0  0  0  0  0  0  0  0  0
   -2.3670   23.2223  -27.4260 H   0  0  0  0  0  0  0  0  0  0  0  0
   -4.2998   20.0824  -31.1761 H   0  0  0  0  0  0  0  0  0  0  0  0
  1  2  1  0
  2  3  1  0
  3  4  2  0
  4  5  1  0
  5  6  2  0
  6  7  1  0
  7  8  2  0
  8  9  1  0
  9 10  1  0
 10 11  2  0
 11 12  1  0
 12 13  2  0
 13 14  1  0
 14 15  2  0
 15 16  1  0
 16 17  1  0
 16 18  2  0
 15 19  1  0
 19 20  1  0
 20 21  2  0
 20 22  1  0
 22 23  1  0
 22 24  1  0
 24 25  1  0
 25 26  2  0
 25 27  1  0
 19 28  1  0
 28 29  2  0
  8  3  1  0
 29 10  1  0
 28 13  1  0
  1 30  1  0
  1 31  1  0
  1 32  1  0
  4 33  1  0
  5 34  1  0
  6 35  1  0
  7 36  1  0
  9 37  1  0
 11 38  1  0
 12 39  1  0
 14 40  1  0
 17 41  1  0
 23 42  1  0
 23 43  1  0
 23 44  1  0
 24 45  1  0
 24 46  1  0
 29 47  1  0
M  CHG  2  17  -1  27  -1
M  END
>  <UniqueID>  (47) 
46

>  <SMILES>  (47) 
COc1ccccc1Nc1ccc2cc(C([NH-])=O)n(C(=O)N(C)CC(=O)[O-])c2c1

>  <Energy>  (47) 
90.132636841521

>  <Genealogy>  (47) 
COc1ccccc1Nc1ccc2cc(C([NH-])=O)n(C(=O)N(C)CC(=O)[O-])c2c1 (protonated)
COc1ccccc1Nc1ccc2cc(C([NH-])=O)n(C(=O)N(C)CC(=O)[O-])c2c1 (3D coordinates assigned)
COc1ccccc1Nc1ccc2cc(C([NH-])=O)n(C(=O)N(C)CC(=O)[O-])c2c1 (optimized conformer: 90.132636841521 kcal/mol)

>  <smiles>  (47) 
COc1ccccc1Nc1ccc2cc(C(N)=O)n(C(=O)N(C)CC(=O)O)c2c1

>  <score_type>  (47) 
oracle

>  <origin>  (47) 
adg

>  <m_score__min__energy>  (47) 
-12.84

>  <m_primary>  (47) 
energy

$$$$
49:0
     RDKit          3D

 30 31  0  0  0  0  0  0  0  0999 V2000
   -6.5170   17.2930  -33.1180 C   0  0  0  0  0  0  0  0  0  0  0  0
   -6.6690   18.4400  -32.7780 C   0  0  0  0  0  0  0  0  0  0  0  0
   -6.8490   19.8080  -32.3700 C   0  0  0  0  0  0  0  0  0  0  0  0
   -8.1480   20.3680  -32.3370 C   0  0  0  0  0  0  0  0  0  0  0  0
   -8.3350   21.7060  -31.9530 C   0  0  0  0  0  0  0  0  0  0  0  0
   -7.2100   22.4480  -31.6050 C   0  0  0  0  0  0  0  0  0  0  0  0
   -7.1030   23.7660  -31.2200 C   0  0  0  0  0  0  0  0  0  0  0  0
   -5.7430   23.9780  -31.0040 C   0  0  0  0  0  0  0  0  0  0  0  0
   -5.1920   25.2490  -30.4880 C   0  0  0  0  0  0  0  0  0  0  0  0
   -3.8760   25.6720  -30.8350 N   0  0  0  0  0  0  0  0  0  0  0  0
   -5.8750   25.9480  -29.6940 O   0  0  0  0  0  0  0  0  0  0  0  0
   -5.0350   22.8400  -31.2530 N   0  0  0  0  0  0  0  0  0  0  0  0
   -3.6110   22.6620  -31.2250 C   0  0  0  0  0  0  0  0  0  0  0  0
   -3.0230   22.1380  -32.2090 O   0  0  0  0  0  0  0  0  0  0  0  0
   -2.8870   23.0450  -30.0890 O   0  0  0  0  0  0  0  0  0  0  0  0
   -1.4810   23.2710  -30.0920 C   0  0  0  0  0  0  0  0  0  0  0  0
   -1.0260   24.4530  -28.7860 P   0  0  0  0  0  0  0  0  0  0  0  0
   -1.8730   24.2200  -27.5560 O   0  0  0  0  0  0  0  0  0  0  0  0
    0.6050   24.2550  -28.3910 O   0  0  0  0  0  0  0  0  0  0  0  0
   -1.2790   26.0290  -29.3470 O   0  0  0  0  0  0  0  0  0  0  0  0
   -5.9480   21.9120  -31.6160 C   0  0  0  0  0  0  0  0  0  0  0  0
   -5.7300   20.5860  -32.0120 C   0  0  0  0  0  0  0  0  0  0  0  0
   -6.3784   16.2468  -33.4281 H   0  0  0  0  0  0  0  0  0  0  0  0
   -9.0163   19.7520  -32.6137 H   0  0  0  0  0  0  0  0  0  0  0  0
   -9.3395   22.1537  -31.9281 H   0  0  0  0  0  0  0  0  0  0  0  0
   -7.9180   24.4961  -31.1070 H   0  0  0  0  0  0  0  0  0  0  0  0
   -3.0370   25.2390  -30.3900 H   0  0  0  0  0  0  0  0  0  0  0  0
   -0.9603   22.3182  -29.9159 H   0  0  0  0  0  0  0  0  0  0  0  0
   -1.1885   23.6869  -31.0674 H   0  0  0  0  0  0  0  0  0  0  0  0
   -4.7145   20.1643  -32.0426 H   0  0  0  0  0  0  0  0  0  0  0  0
  1  2  3  0
  2  3  1  0
  3  4  2  0
  4  5  1  0
  5  6  2  0
  6  7  1  0
  7  8  2  0
  8  9  1  0
  9 10  1  0
  9 11  2  0
  8 12  1  0
 12 13  1  0
 13 14  2  0
 13 15  1  0
 15 16  1  0
 16 17  1  0
 17 18  2  0
 17 19  1  0
 17 20  1  0
 12 21  1  0
 21 22  2  0
 22  3  1  0
 21  6  1  0
  1 23  1  0
  4 24  1  0
  5 25  1  0
  7 26  1  0
 10 27  1  0
 16 28  1  0
 16 29  1  0
 22 30  1  0
M  CHG  3  10  -1  19  -1  20  -1
M  END
>  <UniqueID>  (48) 
47

>  <SMILES>  (48) 
C#Cc1ccc2cc(C([NH-])=O)n(C(=O)OCP(=O)([O-])[O-])c2c1

>  <Energy>  (48) 
62.985754322656376

>  <Genealogy>  (48) 
C#Cc1ccc2cc(C([NH-])=O)n(C(=O)OCP(=O)([O-])[O-])c2c1 (protonated)
C#Cc1ccc2cc(C([NH-])=O)n(C(=O)OCP(=O)([O-])[O-])c2c1 (3D coordinates assigned)
C#Cc1ccc2cc(C([NH-])=O)n(C(=O)OCP(=O)([O-])[O-])c2c1 (optimized conformer: 62.985754322656376 kcal/mol)

>  <smiles>  (48) 
C#Cc1ccc2cc(C(N)=O)n(C(=O)OCP(=O)(O)O)c2c1

>  <score_type>  (48) 
oracle

>  <origin>  (48) 
adg

>  <m_score__min__energy>  (48) 
-14.039999999999999

>  <m_primary>  (48) 
energy

$$$$
50:0
     RDKit          3D

 45 47  0  0  0  0  0  0  0  0999 V2000
   -4.1520   25.5140  -30.5190 N   0  0  0  0  0  0  0  0  0  0  0  0
   -5.4920   25.0390  -30.3860 C   0  0  0  0  0  0  0  0  0  0  0  0
   -6.3220   25.7220  -29.7290 O   0  0  0  0  0  0  0  0  0  0  0  0
   -5.9160   23.7810  -31.0400 C   0  0  0  0  0  0  0  0  0  0  0  0
   -7.2420   23.4630  -31.3230 C   0  0  0  0  0  0  0  0  0  0  0  0
   -7.2090   22.1850  -31.8330 C   0  0  0  0  0  0  0  0  0  0  0  0
   -8.2470   21.3790  -32.2880 C   0  0  0  0  0  0  0  0  0  0  0  0
   -7.9220   20.1070  -32.7870 C   0  0  0  0  0  0  0  0  0  0  0  0
   -6.5730   19.6660  -32.8350 C   0  0  0  0  0  0  0  0  0  0  0  0
   -6.2510   18.3550  -33.3500 N   0  0  0  0  0  0  0  0  0  0  0  0
   -6.9400   17.1760  -32.7940 C   0  0  0  0  0  0  0  0  0  0  0  0
   -6.6910   15.8890  -33.5980 C   0  0  0  0  0  0  0  0  0  0  0  0
   -5.2770   15.3030  -33.4050 C   0  0  0  0  0  0  0  0  0  0  0  0
   -4.2420   15.9080  -34.2610 N   0  0  0  0  0  0  0  0  0  0  0  0
   -4.0510   17.3510  -34.0460 C   0  0  0  0  0  0  0  0  0  0  0  0
   -5.2730   18.2140  -34.4440 C   0  0  0  0  0  0  0  0  0  0  0  0
   -5.5490   20.5170  -32.3570 C   0  0  0  0  0  0  0  0  0  0  0  0
   -5.9030   21.7720  -31.8470 C   0  0  0  0  0  0  0  0  0  0  0  0
   -5.0950   22.7420  -31.3630 N   0  0  0  0  0  0  0  0  0  0  0  0
   -3.6600   22.7070  -31.2840 C   0  0  0  0  0  0  0  0  0  0  0  0
   -2.9750   22.5110  -32.3250 O   0  0  0  0  0  0  0  0  0  0  0  0
   -3.0280   22.9030  -30.0530 O   0  0  0  0  0  0  0  0  0  0  0  0
   -1.6160   23.0000  -29.9190 C   0  0  0  0  0  0  0  0  0  0  0  0
   -1.2680   24.3100  -29.2980 C   0  0  0  0  0  0  0  0  0  0  0  0
   -2.0920   25.2610  -29.3240 O   0  0  0  0  0  0  0  0  0  0  0  0
   -0.0150   24.5000  -28.7280 O   0  0  0  0  0  0  0  0  0  0  0  0
   -3.4220   24.9500  -31.0090 H   0  0  0  0  0  0  0  0  0  0  0  0
   -3.8740   26.4250  -30.0890 H   0  0  0  0  0  0  0  0  0  0  0  0
   -8.1273   24.0980  -31.1712 H   0  0  0  0  0  0  0  0  0  0  0  0
   -9.2901   21.7269  -32.2580 H   0  0  0  0  0  0  0  0  0  0  0  0
   -8.7230   19.4436  -33.1454 H   0  0  0  0  0  0  0  0  0  0  0  0
   -6.5860   17.0183  -31.7645 H   0  0  0  0  0  0  0  0  0  0  0  0
   -8.0199   17.3812  -32.8348 H   0  0  0  0  0  0  0  0  0  0  0  0
   -7.4262   15.1342  -33.2822 H   0  0  0  0  0  0  0  0  0  0  0  0
   -6.7892   16.1498  -34.6621 H   0  0  0  0  0  0  0  0  0  0  0  0
   -4.9842   15.4514  -32.3551 H   0  0  0  0  0  0  0  0  0  0  0  0
   -5.3369   14.2421  -33.6896 H   0  0  0  0  0  0  0  0  0  0  0  0
   -4.4170   15.6920  -35.2700 H   0  0  0  0  0  0  0  0  0  0  0  0
   -3.8431   17.5172  -32.9787 H   0  0  0  0  0  0  0  0  0  0  0  0
   -3.2176   17.6617  -34.6932 H   0  0  0  0  0  0  0  0  0  0  0  0
   -4.9184   19.2152  -34.7302 H   0  0  0  0  0  0  0  0  0  0  0  0
   -5.7794   17.7075  -35.2789 H   0  0  0  0  0  0  0  0  0  0  0  0
   -4.4963   20.1993  -32.3854 H   0  0  0  0  0  0  0  0  0  0  0  0
   -1.2506   22.1822  -29.2805 H   0  0  0  0  0  0  0  0  0  0  0  0
   -1.1462   22.9264  -30.9109 H   0  0  0  0  0  0  0  0  0  0  0  0
  1  2  1  0
  2  3  2  0
  2  4  1  0
  4  5  2  0
  5  6  1  0
  6  7  2  0
  7  8  1  0
  8  9  2  0
  9 10  1  0
 10 11  1  0
 11 12  1  0
 12 13  1  0
 13 14  1  0
 14 15  1  0
 15 16  1  0
  9 17  1  0
 17 18  2  0
 18 19  1  0
 19 20  1  0
 20 21  2  0
 20 22  1  0
 22 23  1  0
 23 24  1  0
 24 25  2  0
 24 26  1  0
 19  4  1  0
 18  6  1  0
 16 10  1  0
  1 27  1  0
  1 28  1  0
  5 29  1  0
  7 30  1  0
  8 31  1  0
 11 32  1  0
 11 33  1  0
 12 34  1  0
 12 35  1  0
 13 36  1  0
 13 37  1  0
 14 38  1  0
 15 39  1  0
 15 40  1  0
 16 41  1  0
 16 42  1  0
 17 43  1  0
 23 44  1  0
 23 45  1  0
M  CHG  1  26  -1
M  END
>  <UniqueID>  (49) 
48

>  <SMILES>  (49) 
NC(=O)c1cc2ccc(N3CCCNCC3)cc2n1C(=O)OCC(=O)[O-]

>  <Energy>  (49) 
93.54628287010166

>  <Genealogy>  (49) 
NC(=O)c1cc2ccc(N3CCCNCC3)cc2n1C(=O)OCC(=O)[O-] (protonated)
NC(=O)c1cc2ccc(N3CCCNCC3)cc2n1C(=O)OCC(=O)[O-] (3D coordinates assigned)
NC(=O)c1cc2ccc(N3CCCNCC3)cc2n1C(=O)OCC(=O)[O-] (nonaromatic ring conformer: 93.54628287010166 kcal/mol)

>  <smiles>  (49) 
NC(=O)c1cc2ccc(N3CCCNCC3)cc2n1C(=O)OCC(=O)O

>  <score_type>  (49) 
oracle

>  <origin>  (49) 
adg

>  <m_score__min__energy>  (49) 
-8.9000000000000004

>  <m_primary>  (49) 
energy

$$$$
51:0
     RDKit          3D

 42 43  0  0  0  0  0  0  0  0999 V2000
   -4.9970   17.7940  -34.9460 C   0  0  0  0  0  0  0  0  0  0  0  0
   -6.0930   16.9840  -34.5840 O   0  0  0  0  0  0  0  0  0  0  0  0
   -5.9040   16.4990  -33.2720 C   0  0  0  0  0  0  0  0  0  0  0  0
   -6.4870   17.4990  -32.2730 C   0  0  0  0  0  0  0  0  0  0  0  0
   -7.1770   18.5900  -32.9660 N   0  0  0  0  0  0  0  0  0  0  0  0
   -7.3000   19.9350  -32.4640 C   0  0  0  0  0  0  0  0  0  0  0  0
   -8.5640   20.5710  -32.3260 C   0  0  0  0  0  0  0  0  0  0  0  0
   -8.6570   21.8870  -31.8420 C   0  0  0  0  0  0  0  0  0  0  0  0
   -7.4800   22.5380  -31.4910 C   0  0  0  0  0  0  0  0  0  0  0  0
   -7.2830   23.8180  -31.0250 C   0  0  0  0  0  0  0  0  0  0  0  0
   -5.9060   23.9390  -30.8520 C   0  0  0  0  0  0  0  0  0  0  0  0
   -5.2620   25.1390  -30.2800 C   0  0  0  0  0  0  0  0  0  0  0  0
   -4.0630   25.6640  -30.8420 N   0  0  0  0  0  0  0  0  0  0  0  0
   -5.7510   25.6790  -29.2520 O   0  0  0  0  0  0  0  0  0  0  0  0
   -5.2750   22.7840  -31.2050 N   0  0  0  0  0  0  0  0  0  0  0  0
   -3.8600   22.5430  -31.2700 C   0  0  0  0  0  0  0  0  0  0  0  0
   -3.4210   21.5270  -31.8750 O   0  0  0  0  0  0  0  0  0  0  0  0
   -2.9740   23.4590  -30.6890 O   0  0  0  0  0  0  0  0  0  0  0  0
   -2.3260   23.2480  -29.4350 C   0  0  2  0  0  0  0  0  0  0  0  0
   -3.3370   23.3210  -28.2900 C   0  0  0  0  0  0  0  0  0  0  0  0
   -1.2730   24.2970  -29.2490 C   0  0  0  0  0  0  0  0  0  0  0  0
   -0.0780   23.9650  -29.0340 O   0  0  0  0  0  0  0  0  0  0  0  0
   -1.6170   25.6440  -29.2710 O   0  0  0  0  0  0  0  0  0  0  0  0
   -6.2540   21.9350  -31.5930 C   0  0  0  0  0  0  0  0  0  0  0  0
   -6.1300   20.6330  -32.0900 C   0  0  0  0  0  0  0  0  0  0  0  0
   -4.4979   18.1629  -34.0378 H   0  0  0  0  0  0  0  0  0  0  0  0
   -4.2852   17.2032  -35.5413 H   0  0  0  0  0  0  0  0  0  0  0  0
   -5.3529   18.6478  -35.5413 H   0  0  0  0  0  0  0  0  0  0  0  0
   -6.4135   15.5304  -33.1617 H   0  0  0  0  0  0  0  0  0  0  0  0
   -4.8288   16.3704  -33.0787 H   0  0  0  0  0  0  0  0  0  0  0  0
   -7.2022   16.9789  -31.6188 H   0  0  0  0  0  0  0  0  0  0  0  0
   -5.6633   17.9246  -31.6811 H   0  0  0  0  0  0  0  0  0  0  0  0
   -7.6070   18.3640  -33.8920 H   0  0  0  0  0  0  0  0  0  0  0  0
   -9.4795   20.0268  -32.6012 H   0  0  0  0  0  0  0  0  0  0  0  0
   -9.6319   22.3870  -31.7438 H   0  0  0  0  0  0  0  0  0  0  0  0
   -8.0496   24.5826  -30.8306 H   0  0  0  0  0  0  0  0  0  0  0  0
   -3.1290   25.3020  -30.5460 H   0  0  0  0  0  0  0  0  0  0  0  0
   -1.8662   22.2487  -29.4286 H   0  0  0  0  0  0  0  0  0  0  0  0
   -2.8049   23.2826  -27.3280 H   0  0  0  0  0  0  0  0  0  0  0  0
   -3.9020   24.2623  -28.3592 H   0  0  0  0  0  0  0  0  0  0  0  0
   -4.0314   22.4707  -28.3592 H   0  0  0  0  0  0  0  0  0  0  0  0
   -5.1408   20.1620  -32.1876 H   0  0  0  0  0  0  0  0  0  0  0  0
  1  2  1  0
  2  3  1  0
  3  4  1  0
  4  5  1  0
  5  6  1  0
  6  7  2  0
  7  8  1  0
  8  9  2  0
  9 10  1  0
 10 11  2  0
 11 12  1  0
 12 13  1  0
 12 14  2  0
 11 15  1  0
 15 16  1  0
 16 17  2  0
 16 18  1  0
 18 19  1  0
 19 20  1  0
 19 21  1  0
 21 22  2  0
 21 23  1  0
 15 24  1  0
 24 25  2  0
 25  6  1  0
 24  9  1  0
  1 26  1  0
  1 27  1  0
  1 28  1  0
  3 29  1  0
  3 30  1  0
  4 31  1  0
  4 32  1  0
  5 33  1  0
  7 34  1  0
  8 35  1  0
 10 36  1  0
 13 37  1  0
 19 38  1  6
 20 39  1  0
 20 40  1  0
 20 41  1  0
 25 42  1  0
M  CHG  2  13  -1  23  -1
M  END
>  <UniqueID>  (50) 
49

>  <SMILES>  (50) 
COCCNc1ccc2cc(C([NH-])=O)n(C(=O)O[C@H](C)C(=O)[O-])c2c1

>  <Energy>  (50) 
74.88517023021414

>  <Genealogy>  (50) 
COCCNc1ccc2cc(C([NH-])=O)n(C(=O)OC(C)C(=O)[O-])c2c1 (protonated)
COCCNc1ccc2cc(C([NH-])=O)n(C(=O)O[C@H](C)C(=O)[O-])c2c1 (chirality)
COCCNc1ccc2cc(C([NH-])=O)n(C(=O)O[C@H](C)C(=O)[O-])c2c1 (3D coordinates assigned)
COCCNc1ccc2cc(C([NH-])=O)n(C(=O)O[C@H](C)C(=O)[O-])c2c1 (optimized conformer: 74.88517023021414 kcal/mol)

>  <smiles>  (50) 
COCCNc1ccc2cc(C(N)=O)n(C(=O)OC(C)C(=O)O)c2c1

>  <score_type>  (50) 
oracle

>  <origin>  (50) 
adg

>  <m_score__min__energy>  (50) 
-12.18

>  <m_primary>  (50) 
energy

$$$$
52:0
     RDKit          3D

 43 44  0  0  0  0  0  0  0  0999 V2000
    0.6260   23.4400  -25.5800 C   0  0  0  0  0  0  0  0  0  0  0  0
   -0.2210   24.5100  -26.1160 N   0  0  0  0  0  0  0  0  0  0  0  0
   -1.1710   25.2060  -25.2400 C   0  0  0  0  0  0  0  0  0  0  0  0
   -0.1020   24.8660  -27.5110 C   0  0  0  0  0  0  0  0  0  0  0  0
    0.7330   24.2640  -28.2410 O   0  0  0  0  0  0  0  0  0  0  0  0
   -0.9360   25.9560  -28.1290 C   0  0  0  0  0  0  0  0  0  0  0  0
   -1.9980   25.4020  -28.9020 O   0  0  0  0  0  0  0  0  0  0  0  0
   -2.7590   24.3010  -28.4930 C   0  0  0  0  0  0  0  0  0  0  0  0
   -3.4210   24.3420  -27.4200 O   0  0  0  0  0  0  0  0  0  0  0  0
   -2.7590   23.0460  -29.3090 C   0  0  0  0  0  0  0  0  0  0  0  0
   -2.8200   23.3490  -30.7020 O   0  0  0  0  0  0  0  0  0  0  0  0
   -3.6790   22.6960  -31.5940 C   0  0  0  0  0  0  0  0  0  0  0  0
   -3.2120   22.0270  -32.5550 O   0  0  0  0  0  0  0  0  0  0  0  0
   -5.1000   22.8170  -31.4330 N   0  0  0  0  0  0  0  0  0  0  0  0
   -5.7980   23.8810  -30.9460 C   0  0  0  0  0  0  0  0  0  0  0  0
   -5.2140   25.0930  -30.3350 C   0  0  0  0  0  0  0  0  0  0  0  0
   -4.0060   25.6400  -30.8570 N   0  0  0  0  0  0  0  0  0  0  0  0
   -5.7880   25.6710  -29.3740 O   0  0  0  0  0  0  0  0  0  0  0  0
   -7.1690   23.6470  -31.0340 C   0  0  0  0  0  0  0  0  0  0  0  0
   -7.2900   22.3950  -31.5950 C   0  0  0  0  0  0  0  0  0  0  0  0
   -8.4300   21.6680  -31.9290 C   0  0  0  0  0  0  0  0  0  0  0  0
   -8.2550   20.4110  -32.5340 C   0  0  0  0  0  0  0  0  0  0  0  0
   -6.9570   19.9140  -32.7960 C   0  0  0  0  0  0  0  0  0  0  0  0
   -6.7920   18.6390  -33.4240 N   0  0  0  0  0  0  0  0  0  0  0  0
   -5.8250   20.6770  -32.4430 C   0  0  0  0  0  0  0  0  0  0  0  0
   -6.0270   21.9160  -31.8260 C   0  0  0  0  0  0  0  0  0  0  0  0
    0.6025   23.4697  -24.4807 H   0  0  0  0  0  0  0  0  0  0  0  0
    0.2513   22.4663  -25.9286 H   0  0  0  0  0  0  0  0  0  0  0  0
    1.6597   23.5812  -25.9286 H   0  0  0  0  0  0  0  0  0  0  0  0
   -0.9090   25.0141  -24.1890 H   0  0  0  0  0  0  0  0  0  0  0  0
   -1.1272   26.2873  -25.4372 H   0  0  0  0  0  0  0  0  0  0  0  0
   -2.1888   24.8383  -25.4372 H   0  0  0  0  0  0  0  0  0  0  0  0
   -1.3597   26.5829  -27.3306 H   0  0  0  0  0  0  0  0  0  0  0  0
   -0.2958   26.5593  -28.7894 H   0  0  0  0  0  0  0  0  0  0  0  0
   -1.8379   22.4813  -29.1025 H   0  0  0  0  0  0  0  0  0  0  0  0
   -3.6422   22.4488  -29.0384 H   0  0  0  0  0  0  0  0  0  0  0  0
   -3.0760   25.2980  -30.5260 H   0  0  0  0  0  0  0  0  0  0  0  0
   -7.9817   24.3193  -30.7218 H   0  0  0  0  0  0  0  0  0  0  0  0
   -9.4356   22.0648  -31.7259 H   0  0  0  0  0  0  0  0  0  0  0  0
   -9.1347   19.8092  -32.8058 H   0  0  0  0  0  0  0  0  0  0  0  0
   -6.3510   17.8440  -32.9110 H   0  0  0  0  0  0  0  0  0  0  0  0
   -7.1080   18.4840  -34.4070 H   0  0  0  0  0  0  0  0  0  0  0  0
   -4.8093   20.3075  -32.6475 H   0  0  0  0  0  0  0  0  0  0  0  0
  1  2  1  0
  2  3  1  0
  2  4  1  0
  4  5  2  0
  4  6  1  0
  6  7  1  0
  7  8  1  0
  8  9  2  0
  8 10  1  0
 10 11  1  0
 11 12  1  0
 12 13  2  0
 12 14  1  0
 14 15  1  0
 15 16  1  0
 16 17  1  0
 16 18  2  0
 15 19  2  0
 19 20  1  0
 20 21  2  0
 21 22  1  0
 22 23  2  0
 23 24  1  0
 23 25  1  0
 25 26  2  0
 26 14  1  0
 26 20  1  0
  1 27  1  0
  1 28  1  0
  1 29  1  0
  3 30  1  0
  3 31  1  0
  3 32  1  0
  6 33  1  0
  6 34  1  0
 10 35  1  0
 10 36  1  0
 17 37  1  0
 19 38  1  0
 21 39  1  0
 22 40  1  0
 24 41  1  0
 24 42  1  0
 25 43  1  0
M  CHG  1  17  -1
M  END
>  <UniqueID>  (51) 
50

>  <SMILES>  (51) 
CN(C)C(=O)COC(=O)COC(=O)n1c(C([NH-])=O)cc2ccc(N)cc21

>  <Energy>  (51) 
72.90369542385791

>  <Genealogy>  (51) 
CN(C)C(=O)COC(=O)COC(=O)n1c(C([NH-])=O)cc2ccc(N)cc21 (protonated)
CN(C)C(=O)COC(=O)COC(=O)n1c(C([NH-])=O)cc2ccc(N)cc21 (3D coordinates assigned)
CN(C)C(=O)COC(=O)COC(=O)n1c(C([NH-])=O)cc2ccc(N)cc21 (optimized conformer: 72.90369542385791 kcal/mol)

>  <smiles>  (51) 
CN(C)C(=O)COC(=O)COC(=O)n1c(C(N)=O)cc2ccc(N)cc21

>  <score_type>  (51) 
oracle

>  <origin>  (51) 
adg

>  <m_score__min__energy>  (51) 
-9.9700000000000006

>  <m_primary>  (51) 
energy

$$$$
53:0
     RDKit          3D

 49 50  0  0  0  0  0  0  0  0999 V2000
   -5.7820   18.5050  -31.6340 C   0  0  0  0  0  0  0  0  0  0  0  0
   -5.8690   19.2320  -32.9900 C   0  0  0  0  0  0  0  0  0  0  0  0
   -6.7960   20.4660  -32.8830 C   0  0  0  0  0  0  0  0  0  0  0  0
   -6.4580   18.2590  -34.0480 C   0  0  0  0  0  0  0  0  0  0  0  0
   -6.0040   18.5560  -35.3450 O   0  0  0  0  0  0  0  0  0  0  0  0
   -4.5080   19.6190  -33.4300 N   0  0  0  0  0  0  0  0  0  0  0  0
   -3.5100   20.2960  -32.6390 C   0  0  0  0  0  0  0  0  0  0  0  0
   -2.2330   19.6990  -32.4920 C   0  0  0  0  0  0  0  0  0  0  0  0
   -1.2360   20.3060  -31.7090 C   0  0  0  0  0  0  0  0  0  0  0  0
   -1.5440   21.5110  -31.0840 C   0  0  0  0  0  0  0  0  0  0  0  0
   -0.7790   22.3040  -30.2590 C   0  0  0  0  0  0  0  0  0  0  0  0
   -1.5960   23.3810  -29.9190 C   0  0  0  0  0  0  0  0  0  0  0  0
   -1.1350   24.5300  -29.1120 C   0  0  0  0  0  0  0  0  0  0  0  0
   -1.9720   25.6740  -28.9650 N   0  0  0  0  0  0  0  0  0  0  0  0
   -0.0220   24.5010  -28.5230 O   0  0  0  0  0  0  0  0  0  0  0  0
   -2.8210   23.2520  -30.5030 N   0  0  0  0  0  0  0  0  0  0  0  0
   -3.9590   24.1200  -30.3890 C   0  0  0  0  0  0  0  0  0  0  0  0
   -3.8750   25.3180  -30.7730 O   0  0  0  0  0  0  0  0  0  0  0  0
   -5.1410   23.6270  -29.8140 O   0  0  0  0  0  0  0  0  0  0  0  0
   -6.4740   23.8190  -30.3040 C   0  0  0  0  0  0  0  0  0  0  0  0
   -7.4120   22.7210  -29.7700 C   0  0  0  0  0  0  0  0  0  0  0  0
   -6.9540   25.1820  -29.7820 C   0  0  0  0  0  0  0  0  0  0  0  0
   -6.4850   23.8460  -31.8440 C   0  0  0  0  0  0  0  0  0  0  0  0
   -2.7710   22.1040  -31.2130 C   0  0  0  0  0  0  0  0  0  0  0  0
   -3.7900   21.5040  -31.9610 C   0  0  0  0  0  0  0  0  0  0  0  0
   -5.8697   19.2381  -30.8186 H   0  0  0  0  0  0  0  0  0  0  0  0
   -6.5989   17.7723  -31.5577 H   0  0  0  0  0  0  0  0  0  0  0  0
   -4.8153   17.9857  -31.5577 H   0  0  0  0  0  0  0  0  0  0  0  0
   -6.9726   20.7011  -31.8230 H   0  0  0  0  0  0  0  0  0  0  0  0
   -6.3191   21.3266  -33.3749 H   0  0  0  0  0  0  0  0  0  0  0  0
   -7.7553   20.2477  -33.3749 H   0  0  0  0  0  0  0  0  0  0  0  0
   -6.1575   17.2321  -33.7927 H   0  0  0  0  0  0  0  0  0  0  0  0
   -7.5527   18.3667  -34.0375 H   0  0  0  0  0  0  0  0  0  0  0  0
   -6.7810   18.9090  -35.8530 H   0  0  0  0  0  0  0  0  0  0  0  0
   -4.3050   19.5700  -34.4550 H   0  0  0  0  0  0  0  0  0  0  0  0
   -2.0189   18.7462  -32.9983 H   0  0  0  0  0  0  0  0  0  0  0  0
   -0.2445   19.8438  -31.5939 H   0  0  0  0  0  0  0  0  0  0  0  0
    0.2574   22.1256  -29.9364 H   0  0  0  0  0  0  0  0  0  0  0  0
   -2.9520   25.6730  -29.3290 H   0  0  0  0  0  0  0  0  0  0  0  0
   -7.4017   22.7330  -28.6701 H   0  0  0  0  0  0  0  0  0  0  0  0
   -8.4351   22.9062  -30.1292 H   0  0  0  0  0  0  0  0  0  0  0  0
   -7.0693   21.7394  -30.1292 H   0  0  0  0  0  0  0  0  0  0  0  0
   -6.9515   25.1749  -28.6820 H   0  0  0  0  0  0  0  0  0  0  0  0
   -6.2799   25.9718  -30.1451 H   0  0  0  0  0  0  0  0  0  0  0  0
   -7.9742   25.3751  -30.1451 H   0  0  0  0  0  0  0  0  0  0  0  0
   -6.8788   24.8127  -32.1910 H   0  0  0  0  0  0  0  0  0  0  0  0
   -5.4602   23.7112  -32.2204 H   0  0  0  0  0  0  0  0  0  0  0  0
   -7.1238   23.0334  -32.2204 H   0  0  0  0  0  0  0  0  0  0  0  0
   -4.7880   21.9629  -32.0201 H   0  0  0  0  0  0  0  0  0  0  0  0
  1  2  1  0
  2  3  1  0
  2  4  1  0
  4  5  1  0
  2  6  1  0
  6  7  1  0
  7  8  2  0
  8  9  1  0
  9 10  2  0
 10 11  1  0
 11 12  2  0
 12 13  1  0
 13 14  1  0
 13 15  2  0
 12 16  1  0
 16 17  1  0
 17 18  2  0
 17 19  1  0
 19 20  1  0
 20 21  1  0
 20 22  1  0
 20 23  1  0
 16 24  1  0
 24 25  2  0
 25  7  1  0
 24 10  1  0
  1 26  1  0
  1 27  1  0
  1 28  1  0
  3 29  1  0
  3 30  1  0
  3 31  1  0
  4 32  1  0
  4 33  1  0
  5 34  1  0
  6 35  1  0
  8 36  1  0
  9 37  1  0
 11 38  1  0
 14 39  1  0
 21 40  1  0
 21 41  1  0
 21 42  1  0
 22 43  1  0
 22 44  1  0
 22 45  1  0
 23 46  1  0
 23 47  1  0
 23 48  1  0
 25 49  1  0
M  CHG  1  14  -1
M  END
>  <UniqueID>  (52) 
51

>  <SMILES>  (52) 
CC(C)(CO)Nc1ccc2cc(C([NH-])=O)n(C(=O)OC(C)(C)C)c2c1

>  <Energy>  (52) 
84.59181044445384

>  <Genealogy>  (52) 
CC(C)(CO)Nc1ccc2cc(C([NH-])=O)n(C(=O)OC(C)(C)C)c2c1 (protonated)
CC(C)(CO)Nc1ccc2cc(C([NH-])=O)n(C(=O)OC(C)(C)C)c2c1 (3D coordinates assigned)
CC(C)(CO)Nc1ccc2cc(C([NH-])=O)n(C(=O)OC(C)(C)C)c2c1 (optimized conformer: 84.59181044445384 kcal/mol)

>  <smiles>  (52) 
CC(C)(CO)Nc1ccc2cc(C(N)=O)n(C(=O)OC(C)(C)C)c2c1

>  <score_type>  (52) 
oracle

>  <origin>  (52) 
adg

>  <m_score__min__energy>  (52) 
-10.859999999999999

>  <m_primary>  (52) 
energy

$$$$
54:0
     RDKit          3D

 43 44  0  0  0  0  0  0  0  0999 V2000
   -4.5670   16.3520  -34.4370 C   0  0  0  0  0  0  0  0  0  0  0  0
   -5.2920   18.0460  -34.1250 Si  0  0  0  0  0  4  0  0  0  0  0  0
   -3.9200   19.2210  -33.6540 C   0  0  0  0  0  0  0  0  0  0  0  0
   -6.0570   18.6200  -35.5510 O   0  0  0  0  0  0  0  0  0  0  0  0
   -6.5190   17.9440  -32.7080 C   0  0  0  0  0  0  0  0  0  0  0  0
   -7.6140   18.8950  -32.9010 N   0  0  0  0  0  0  0  0  0  0  0  0
   -7.6430   20.2360  -32.3750 C   0  0  0  0  0  0  0  0  0  0  0  0
   -8.8640   20.9030  -32.0830 C   0  0  0  0  0  0  0  0  0  0  0  0
   -8.8640   22.2160  -31.5820 C   0  0  0  0  0  0  0  0  0  0  0  0
   -7.6370   22.8370  -31.3800 C   0  0  0  0  0  0  0  0  0  0  0  0
   -7.3510   24.1070  -30.9330 C   0  0  0  0  0  0  0  0  0  0  0  0
   -5.9610   24.1970  -30.9410 C   0  0  0  0  0  0  0  0  0  0  0  0
   -5.2170   25.3790  -30.4550 C   0  0  0  0  0  0  0  0  0  0  0  0
   -3.8660   25.5820  -30.8630 N   0  0  0  0  0  0  0  0  0  0  0  0
   -5.7720   26.2300  -29.7120 O   0  0  0  0  0  0  0  0  0  0  0  0
   -5.4100   23.0300  -31.3800 N   0  0  0  0  0  0  0  0  0  0  0  0
   -4.0210   22.7440  -31.6050 C   0  0  0  0  0  0  0  0  0  0  0  0
   -3.6520   22.2650  -32.7120 O   0  0  0  0  0  0  0  0  0  0  0  0
   -3.0850   23.0140  -30.6000 O   0  0  0  0  0  0  0  0  0  0  0  0
   -3.0440   22.3330  -29.3470 C   0  0  0  0  0  0  0  0  0  0  0  0
   -4.2010   22.7740  -28.4520 C   0  0  0  0  0  0  0  0  0  0  0  0
   -3.7640   24.1930  -27.4650 Cl  0  0  0  0  0  0  0  0  0  0  0  0
   -6.4490   22.2080  -31.6420 C   0  0  0  0  0  0  0  0  0  0  0  0
   -6.4190   20.9090  -32.1590 C   0  0  0  0  0  0  0  0  0  0  0  0
   -4.3566   15.8605  -33.4757 H   0  0  0  0  0  0  0  0  0  0  0  0
   -5.2845   15.7458  -35.0095 H   0  0  0  0  0  0  0  0  0  0  0  0
   -3.6331   16.4526  -35.0095 H   0  0  0  0  0  0  0  0  0  0  0  0
   -3.8493   19.2816  -32.5579 H   0  0  0  0  0  0  0  0  0  0  0  0
   -2.9669   18.8547  -34.0633 H   0  0  0  0  0  0  0  0  0  0  0  0
   -4.1354   20.2191  -34.0633 H   0  0  0  0  0  0  0  0  0  0  0  0
   -6.8510   19.1190  -35.2330 H   0  0  0  0  0  0  0  0  0  0  0  0
   -6.9304   16.9250  -32.6595 H   0  0  0  0  0  0  0  0  0  0  0  0
   -5.9979   18.1908  -31.7712 H   0  0  0  0  0  0  0  0  0  0  0  0
   -8.4280   18.5670  -33.4670 H   0  0  0  0  0  0  0  0  0  0  0  0
   -9.8199   20.3853  -32.2512 H   0  0  0  0  0  0  0  0  0  0  0  0
   -9.8065   22.7365  -31.3565 H   0  0  0  0  0  0  0  0  0  0  0  0
   -8.0679   24.8856  -30.6331 H   0  0  0  0  0  0  0  0  0  0  0  0
   -3.0740   25.1800  -30.3140 H   0  0  0  0  0  0  0  0  0  0  0  0
   -3.1167   21.2496  -29.5228 H   0  0  0  0  0  0  0  0  0  0  0  0
   -2.0965   22.5765  -28.8441 H   0  0  0  0  0  0  0  0  0  0  0  0
   -5.0635   23.0311  -29.0844 H   0  0  0  0  0  0  0  0  0  0  0  0
   -4.4454   21.9444  -27.7722 H   0  0  0  0  0  0  0  0  0  0  0  0
   -5.4616   20.4205  -32.3930 H   0  0  0  0  0  0  0  0  0  0  0  0
  1  2  1  0
  2  3  1  0
  2  4  1  0
  2  5  1  0
  5  6  1  0
  6  7  1  0
  7  8  2  0
  8  9  1  0
  9 10  2  0
 10 11  1  0
 11 12  2  0
 12 13  1  0
 13 14  1  0
 13 15  2  0
 12 16  1  0
 16 17  1  0
 17 18  2  0
 17 19  1  0
 19 20  1  0
 20 21  1  0
 21 22  1  0
 16 23  1  0
 23 24  2  0
 24  7  1  0
 23 10  1  0
  1 25  1  0
  1 26  1  0
  1 27  1  0
  3 28  1  0
  3 29  1  0
  3 30  1  0
  4 31  1  0
  5 32  1  0
  5 33  1  0
  6 34  1  0
  8 35  1  0
  9 36  1  0
 11 37  1  0
 14 38  1  0
 20 39  1  0
 20 40  1  0
 21 41  1  0
 21 42  1  0
 24 43  1  0
M  CHG  1  14  -1
M  END
>  <UniqueID>  (53) 
52

>  <SMILES>  (53) 
C[Si](C)(O)CNc1ccc2cc(C([NH-])=O)n(C(=O)OCCCl)c2c1

>  <Energy>  (53) 
65.86308941591055

>  <Genealogy>  (53) 
C[Si](C)(O)CNc1ccc2cc(C([NH-])=O)n(C(=O)OCCCl)c2c1 (protonated)
C[Si](C)(O)CNc1ccc2cc(C([NH-])=O)n(C(=O)OCCCl)c2c1 (3D coordinates assigned)
C[Si](C)(O)CNc1ccc2cc(C([NH-])=O)n(C(=O)OCCCl)c2c1 (optimized conformer: 65.86308941591055 kcal/mol)

>  <smiles>  (53) 
C[Si](C)(O)CNc1ccc2cc(C(N)=O)n(C(=O)OCCCl)c2c1

>  <score_type>  (53) 
oracle

>  <origin>  (53) 
adg

>  <m_score__min__energy>  (53) 
-10.51

>  <m_primary>  (53) 
energy

$$$$
55:0
     RDKit          3D

 39 40  0  0  0  0  0  0  0  0999 V2000
   -4.4370   24.7730  -29.4390 N   0  0  0  0  0  0  0  0  0  0  0  0
   -5.5050   24.7840  -30.3870 C   0  0  0  0  0  0  0  0  0  0  0  0
   -6.0240   25.8840  -30.7140 O   0  0  0  0  0  0  0  0  0  0  0  0
   -6.0280   23.5190  -30.9520 C   0  0  0  0  0  0  0  0  0  0  0  0
   -7.3700   23.1460  -30.9100 C   0  0  0  0  0  0  0  0  0  0  0  0
   -7.4460   21.9720  -31.6230 C   0  0  0  0  0  0  0  0  0  0  0  0
   -8.5420   21.1610  -31.8980 C   0  0  0  0  0  0  0  0  0  0  0  0
   -8.3280   19.9890  -32.6420 C   0  0  0  0  0  0  0  0  0  0  0  0
   -7.0230   19.6410  -33.0890 C   0  0  0  0  0  0  0  0  0  0  0  0
   -6.7740   18.4410  -33.8460 N   0  0  0  0  0  0  0  0  0  0  0  0
   -6.3700   17.1580  -33.2690 C   0  0  0  0  0  0  0  0  0  0  0  0
   -5.3710   16.4360  -34.1780 C   0  0  0  0  0  0  0  0  0  0  0  0
   -5.1080   17.1980  -35.3250 O   0  0  0  0  0  0  0  0  0  0  0  0
   -5.9390   20.4970  -32.7920 C   0  0  0  0  0  0  0  0  0  0  0  0
   -6.1860   21.6670  -32.0660 C   0  0  0  0  0  0  0  0  0  0  0  0
   -5.3030   22.6070  -31.6600 N   0  0  0  0  0  0  0  0  0  0  0  0
   -3.8840   22.5990  -31.8900 C   0  0  0  0  0  0  0  0  0  0  0  0
   -3.4020   21.9120  -32.8310 O   0  0  0  0  0  0  0  0  0  0  0  0
   -3.0460   23.3650  -31.0760 O   0  0  0  0  0  0  0  0  0  0  0  0
   -1.8950   22.8280  -30.4290 C   0  0  0  0  0  0  0  0  0  0  0  0
   -2.0470   22.9040  -29.0320 O   0  0  0  0  0  0  0  0  0  0  0  0
   -1.3410   24.3540  -28.4740 P   0  0  0  0  0  0  0  0  0  0  0  0
   -1.6680   24.5280  -27.0100 O   0  0  0  0  0  0  0  0  0  0  0  0
   -1.9650   25.6700  -29.3370 O   0  0  0  0  0  0  0  0  0  0  0  0
    0.3400   24.3040  -28.6610 O   0  0  0  0  0  0  0  0  0  0  0  0
   -4.1070   25.6680  -29.0120 H   0  0  0  0  0  0  0  0  0  0  0  0
   -3.9410   23.8900  -29.1880 H   0  0  0  0  0  0  0  0  0  0  0  0
   -8.1942   23.6778  -30.4121 H   0  0  0  0  0  0  0  0  0  0  0  0
   -9.5478   21.4298  -31.5429 H   0  0  0  0  0  0  0  0  0  0  0  0
   -9.1782   19.3335  -32.8815 H   0  0  0  0  0  0  0  0  0  0  0  0
   -6.8860   18.4780  -34.8850 H   0  0  0  0  0  0  0  0  0  0  0  0
   -5.9015   17.3358  -32.2898 H   0  0  0  0  0  0  0  0  0  0  0  0
   -7.2639   16.5263  -33.1603 H   0  0  0  0  0  0  0  0  0  0  0  0
   -4.4322   16.2751  -33.6277 H   0  0  0  0  0  0  0  0  0  0  0  0
   -5.8026   15.4716  -34.4840 H   0  0  0  0  0  0  0  0  0  0  0  0
   -4.4550   16.6820  -35.8660 H   0  0  0  0  0  0  0  0  0  0  0  0
   -4.9206   20.2483  -33.1251 H   0  0  0  0  0  0  0  0  0  0  0  0
   -1.7688   21.7760  -30.7247 H   0  0  0  0  0  0  0  0  0  0  0  0
   -1.0099   23.4090  -30.7274 H   0  0  0  0  0  0  0  0  0  0  0  0
  1  2  1  0
  2  3  2  0
  2  4  1  0
  4  5  2  0
  5  6  1  0
  6  7  2  0
  7  8  1  0
  8  9  2  0
  9 10  1  0
 10 11  1  0
 11 12  1  0
 12 13  1  0
  9 14  1  0
 14 15  2  0
 15 16  1  0
 16 17  1  0
 17 18  2  0
 17 19  1  0
 19 20  1  0
 20 21  1  0
 21 22  1  0
 22 23  2  0
 22 24  1  0
 22 25  1  0
 16  4  1  0
 15  6  1  0
  1 26  1  0
  1 27  1  0
  5 28  1  0
  7 29  1  0
  8 30  1  0
 10 31  1  0
 11 32  1  0
 11 33  1  0
 12 34  1  0
 12 35  1  0
 13 36  1  0
 14 37  1  0
 20 38  1  0
 20 39  1  0
M  CHG  2  24  -1  25  -1
M  END
>  <UniqueID>  (54) 
53

>  <SMILES>  (54) 
NC(=O)c1cc2ccc(NCCO)cc2n1C(=O)OCOP(=O)([O-])[O-]

>  <Energy>  (54) 
72.88684663540337

>  <Genealogy>  (54) 
NC(=O)c1cc2ccc(NCCO)cc2n1C(=O)OCOP(=O)([O-])[O-] (protonated)
NC(=O)c1cc2ccc(NCCO)cc2n1C(=O)OCOP(=O)([O-])[O-] (3D coordinates assigned)
NC(=O)c1cc2ccc(NCCO)cc2n1C(=O)OCOP(=O)([O-])[O-] (optimized conformer: 72.88684663540337 kcal/mol)

>  <smiles>  (54) 
NC(=O)c1cc2ccc(NCCO)cc2n1C(=O)OCOP(=O)(O)O

>  <score_type>  (54) 
oracle

>  <origin>  (54) 
adg

>  <m_score__min__energy>  (54) 
-11.529999999999999

>  <m_primary>  (54) 
energy

$$$$
56:0
     RDKit          3D

 36 37  0  0  0  0  0  0  0  0999 V2000
   -8.6310   20.2210  -32.3240 C   0  0  0  0  0  0  0  0  0  0  0  0
   -7.1950   19.9840  -32.6870 C   0  0  0  0  0  0  0  0  0  0  0  0
   -6.8330   18.8410  -33.4400 C   0  0  0  0  0  0  0  0  0  0  0  0
   -5.4940   18.6210  -33.8060 C   0  0  0  0  0  0  0  0  0  0  0  0
   -4.5490   19.5670  -33.4220 C   0  0  0  0  0  0  0  0  0  0  0  0
   -3.1890   19.5920  -33.6270 C   0  0  0  0  0  0  0  0  0  0  0  0
   -2.7450   20.7700  -33.0290 C   0  0  0  0  0  0  0  0  0  0  0  0
   -1.3460   21.2500  -33.0880 C   0  0  0  0  0  0  0  0  0  0  0  0
   -0.6290   21.5550  -31.8900 N   0  0  0  0  0  0  0  0  0  0  0  0
   -0.7620   21.3640  -34.1970 O   0  0  0  0  0  0  0  0  0  0  0  0
   -3.7920   21.4460  -32.4740 N   0  0  0  0  0  0  0  0  0  0  0  0
   -3.7490   22.6680  -31.7210 C   0  0  0  0  0  0  0  0  0  0  0  0
   -2.7630   22.9150  -30.9740 O   0  0  0  0  0  0  0  0  0  0  0  0
   -4.8110   23.5750  -31.8120 O   0  0  0  0  0  0  0  0  0  0  0  0
   -5.6030   23.9840  -30.6970 C   0  0  2  0  0  0  0  0  0  0  0  0
   -7.0930   23.9000  -31.0460 C   0  0  0  0  0  0  0  0  0  0  0  0
   -5.2110   25.4100  -30.3000 C   0  0  0  0  0  0  0  0  0  0  0  0
   -3.8760   25.6620  -30.6430 O   0  0  0  0  0  0  0  0  0  0  0  0
   -4.8880   20.6960  -32.7220 C   0  0  0  0  0  0  0  0  0  0  0  0
   -6.2120   20.9310  -32.3280 C   0  0  0  0  0  0  0  0  0  0  0  0
   -8.7344   20.2381  -31.2290 H   0  0  0  0  0  0  0  0  0  0  0  0
   -8.9596   21.1855  -32.7384 H   0  0  0  0  0  0  0  0  0  0  0  0
   -9.2521   19.4132  -32.7384 H   0  0  0  0  0  0  0  0  0  0  0  0
   -7.6063   18.1190  -33.7411 H   0  0  0  0  0  0  0  0  0  0  0  0
   -5.2022   17.7282  -34.3785 H   0  0  0  0  0  0  0  0  0  0  0  0
   -2.5805   18.8409  -34.1520 H   0  0  0  0  0  0  0  0  0  0  0  0
    0.3700   21.8540  -31.9400 H   0  0  0  0  0  0  0  0  0  0  0  0
   -1.0940   21.5250  -30.9560 H   0  0  0  0  0  0  0  0  0  0  0  0
   -5.4195   23.3132  -29.8447 H   0  0  0  0  0  0  0  0  0  0  0  0
   -7.6852   23.8666  -30.1196 H   0  0  0  0  0  0  0  0  0  0  0  0
   -7.3821   24.7833  -31.6344 H   0  0  0  0  0  0  0  0  0  0  0  0
   -7.2810   22.9898  -31.6344 H   0  0  0  0  0  0  0  0  0  0  0  0
   -5.8615   26.1245  -30.8256 H   0  0  0  0  0  0  0  0  0  0  0  0
   -5.3277   25.5228  -29.2120 H   0  0  0  0  0  0  0  0  0  0  0  0
   -3.5960   24.9130  -31.2330 H   0  0  0  0  0  0  0  0  0  0  0  0
   -6.4784   21.8305  -31.7536 H   0  0  0  0  0  0  0  0  0  0  0  0
  1  2  1  0
  2  3  2  0
  3  4  1  0
  4  5  2  0
  5  6  1  0
  6  7  2  0
  7  8  1  0
  8  9  1  0
  8 10  2  0
  7 11  1  0
 11 12  1  0
 12 13  2  0
 12 14  1  0
 14 15  1  0
 15 16  1  0
 15 17  1  0
 17 18  1  0
 11 19  1  0
 19 20  2  0
 20  2  1  0
 19  5  1  0
  1 21  1  0
  1 22  1  0
  1 23  1  0
  3 24  1  0
  4 25  1  0
  6 26  1  0
  9 27  1  0
  9 28  1  0
 15 29  1  1
 16 30  1  0
 16 31  1  0
 16 32  1  0
 17 33  1  0
 17 34  1  0
 18 35  1  0
 20 36  1  0
M  END
>  <UniqueID>  (55) 
54

>  <SMILES>  (55) 
Cc1ccc2cc(C(N)=O)n(C(=O)O[C@H](C)CO)c2c1

>  <Energy>  (55) 
67.89637363565714

>  <Genealogy>  (55) 
Cc1ccc2cc(C(N)=O)n(C(=O)O[C@H](C)CO)c2c1 (chirality)
Cc1ccc2cc(C(N)=O)n(C(=O)O[C@H](C)CO)c2c1 (3D coordinates assigned)
Cc1ccc2cc(C(N)=O)n(C(=O)O[C@H](C)CO)c2c1 (optimized conformer: 67.89637363565714 kcal/mol)

>  <smiles>  (55) 
Cc1ccc2cc(C(N)=O)n(C(=O)OC(C)CO)c2c1

>  <score_type>  (55) 
oracle

>  <origin>  (55) 
adg

>  <m_score__min__energy>  (55) 
-8.6899999999999995

>  <m_primary>  (55) 
energy

$$$$
57:0
     RDKit          3D

 45 46  0  0  0  0  0  0  0  0999 V2000
   -6.5930   16.8410  -32.5790 C   0  0  0  0  0  0  0  0  0  0  0  0
   -6.7090   18.0280  -32.4070 C   0  0  0  0  0  0  0  0  0  0  0  0
   -6.8480   19.4460  -32.2000 C   0  0  0  0  0  0  0  0  0  0  0  0
   -8.0050   20.1160  -32.6610 C   0  0  0  0  0  0  0  0  0  0  0  0
   -8.1550   21.4990  -32.4560 C   0  0  0  0  0  0  0  0  0  0  0  0
   -7.1310   22.1750  -31.7970 C   0  0  0  0  0  0  0  0  0  0  0  0
   -7.0180   23.5060  -31.4650 C   0  0  0  0  0  0  0  0  0  0  0  0
   -5.7790   23.6260  -30.8360 C   0  0  0  0  0  0  0  0  0  0  0  0
   -5.2090   24.9140  -30.3890 C   0  0  0  0  0  0  0  0  0  0  0  0
   -3.9000   25.2940  -30.8070 N   0  0  0  0  0  0  0  0  0  0  0  0
   -5.8550   25.6730  -29.6190 O   0  0  0  0  0  0  0  0  0  0  0  0
   -5.1580   22.4150  -30.7730 N   0  0  0  0  0  0  0  0  0  0  0  0
   -3.8840   22.1090  -30.1800 C   0  0  0  0  0  0  0  0  0  0  0  0
   -3.8460   21.7030  -28.9870 O   0  0  0  0  0  0  0  0  0  0  0  0
   -2.6600   22.2400  -30.9350 N   0  0  0  0  0  0  0  0  0  0  0  0
   -2.5880   21.7410  -32.3140 C   0  0  0  0  0  0  0  0  0  0  0  0
   -1.4900   22.8480  -30.3530 C   0  0  0  0  0  0  0  0  0  0  0  0
   -0.3800   22.2460  -30.3920 O   0  0  0  0  0  0  0  0  0  0  0  0
   -1.5820   24.0980  -29.7340 O   0  0  0  0  0  0  0  0  0  0  0  0
   -0.6290   24.5710  -28.7890 C   0  0  0  0  0  0  0  0  0  0  0  0
   -1.1770   25.6670  -28.0660 O   0  0  0  0  0  0  0  0  0  0  0  0
   -1.8910   25.5130  -26.8710 C   0  0  0  0  0  0  0  0  0  0  0  0
   -1.5460   26.1530  -25.8380 O   0  0  0  0  0  0  0  0  0  0  0  0
   -3.1240   24.6490  -26.8380 C   0  0  1  0  0  0  0  0  0  0  0  0
   -4.2190   25.2620  -25.9520 C   0  0  0  0  0  0  0  0  0  0  0  0
   -3.6240   24.4270  -28.1980 N   0  0  0  0  0  0  0  0  0  0  0  0
   -6.0000   21.5360  -31.3610 C   0  0  0  0  0  0  0  0  0  0  0  0
   -5.8310   20.1590  -31.5350 C   0  0  0  0  0  0  0  0  0  0  0  0
   -6.4871   15.7574  -32.7360 H   0  0  0  0  0  0  0  0  0  0  0  0
   -8.7921   19.5520  -33.1829 H   0  0  0  0  0  0  0  0  0  0  0  0
   -9.0527   22.0302  -32.8051 H   0  0  0  0  0  0  0  0  0  0  0  0
   -7.7495   24.3052  -31.6553 H   0  0  0  0  0  0  0  0  0  0  0  0
   -3.0970   25.2770  -30.1410 H   0  0  0  0  0  0  0  0  0  0  0  0
   -2.4309   20.6523  -32.3023 H   0  0  0  0  0  0  0  0  0  0  0  0
   -3.5285   21.9701  -32.8364 H   0  0  0  0  0  0  0  0  0  0  0  0
   -1.7506   22.2267  -32.8364 H   0  0  0  0  0  0  0  0  0  0  0  0
   -0.3745   23.7614  -28.0892 H   0  0  0  0  0  0  0  0  0  0  0  0
    0.2779   24.8993  -29.3179 H   0  0  0  0  0  0  0  0  0  0  0  0
   -2.8465   23.6798  -26.3980 H   0  0  0  0  0  0  0  0  0  0  0  0
   -3.9584   25.1161  -24.8933 H   0  0  0  0  0  0  0  0  0  0  0  0
   -4.3026   26.3381  -26.1641 H   0  0  0  0  0  0  0  0  0  0  0  0
   -5.1801   24.7707  -26.1641 H   0  0  0  0  0  0  0  0  0  0  0  0
   -3.2600   23.5140  -28.5560 H   0  0  0  0  0  0  0  0  0  0  0  0
   -3.2470   25.1790  -28.8210 H   0  0  0  0  0  0  0  0  0  0  0  0
   -4.9307   19.6475  -31.1637 H   0  0  0  0  0  0  0  0  0  0  0  0
  1  2  3  0
  2  3  1  0
  3  4  2  0
  4  5  1  0
  5  6  2  0
  6  7  1  0
  7  8  2  0
  8  9  1  0
  9 10  1  0
  9 11  2  0
  8 12  1  0
 12 13  1  0
 13 14  2  0
 13 15  1  0
 15 16  1  0
 15 17  1  0
 17 18  2  0
 17 19  1  0
 19 20  1  0
 20 21  1  0
 21 22  1  0
 22 23  2  0
 22 24  1  0
 24 25  1  0
 24 26  1  0
 12 27  1  0
 27 28  2  0
 28  3  1  0
 27  6  1  0
  1 29  1  0
  4 30  1  0
  5 31  1  0
  7 32  1  0
 10 33  1  0
 16 34  1  0
 16 35  1  0
 16 36  1  0
 20 37  1  0
 20 38  1  0
 24 39  1  1
 25 40  1  0
 25 41  1  0
 25 42  1  0
 26 43  1  0
 26 44  1  0
 28 45  1  0
M  CHG  1  10  -1
M  END
>  <UniqueID>  (56) 
55

>  <SMILES>  (56) 
C#Cc1ccc2cc(C([NH-])=O)n(C(=O)N(C)C(=O)OCOC(=O)[C@@H](C)N)c2c1

>  <Energy>  (56) 
73.41444485638434

>  <Genealogy>  (56) 
C#Cc1ccc2cc(C([NH-])=O)n(C(=O)N(C)C(=O)OCOC(=O)C(C)N)c2c1 (protonated)
C#Cc1ccc2cc(C([NH-])=O)n(C(=O)N(C)C(=O)OCOC(=O)[C@@H](C)N)c2c1 (chirality)
C#Cc1ccc2cc(C([NH-])=O)n(C(=O)N(C)C(=O)OCOC(=O)[C@@H](C)N)c2c1 (3D coordinates assigned)
C#Cc1ccc2cc(C([NH-])=O)n(C(=O)N(C)C(=O)OCOC(=O)[C@@H](C)N)c2c1 (optimized conformer: 73.41444485638434 kcal/mol)

>  <smiles>  (56) 
C#Cc1ccc2cc(C(N)=O)n(C(=O)N(C)C(=O)OCOC(=O)C(C)N)c2c1

>  <score_type>  (56) 
oracle

>  <origin>  (56) 
adg

>  <m_score__min__energy>  (56) 
-10.56

>  <m_primary>  (56) 
energy

$$$$
58:0
     RDKit          3D

 38 39  0  0  0  0  0  0  0  0999 V2000
   -7.0710   18.1390  -32.1730 C   0  0  0  0  0  0  0  0  0  0  0  0
   -7.2230   19.6180  -31.9760 C   0  0  0  0  0  0  0  0  0  0  0  0
   -8.3610   20.2890  -32.4890 C   0  0  0  0  0  0  0  0  0  0  0  0
   -8.4910   21.6820  -32.3530 C   0  0  0  0  0  0  0  0  0  0  0  0
   -7.4690   22.3730  -31.7060 C   0  0  0  0  0  0  0  0  0  0  0  0
   -7.3250   23.7210  -31.4660 C   0  0  0  0  0  0  0  0  0  0  0  0
   -6.1040   23.8490  -30.8070 C   0  0  0  0  0  0  0  0  0  0  0  0
   -5.5800   25.1350  -30.2990 C   0  0  0  0  0  0  0  0  0  0  0  0
   -4.3470   25.6480  -30.8020 N   0  0  0  0  0  0  0  0  0  0  0  0
   -6.2200   25.8010  -29.4440 O   0  0  0  0  0  0  0  0  0  0  0  0
   -5.5170   22.6290  -30.6470 N   0  0  0  0  0  0  0  0  0  0  0  0
   -4.2360   22.3370  -30.0680 C   0  0  0  0  0  0  0  0  0  0  0  0
   -3.9030   21.1400  -29.8540 O   0  0  0  0  0  0  0  0  0  0  0  0
   -3.3440   23.4080  -29.7220 N   0  0  0  0  0  0  0  0  0  0  0  0
   -2.0750   23.1770  -29.0200 C   0  0  2  0  0  0  0  0  0  0  0  0
   -1.2370   24.4300  -29.0020 C   0  0  0  0  0  0  0  0  0  0  0  0
   -1.7360   25.5410  -29.3270 O   0  0  0  0  0  0  0  0  0  0  0  0
    0.1090   24.3570  -28.6690 O   0  0  0  0  0  0  0  0  0  0  0  0
   -1.3040   21.9790  -29.6250 C   0  0  1  0  0  0  0  0  0  0  0  0
   -1.0710   22.1070  -31.1400 C   0  0  0  0  0  0  0  0  0  0  0  0
   -0.0690   21.8450  -28.9700 O   0  0  0  0  0  0  0  0  0  0  0  0
   -6.3640   21.7360  -31.2030 C   0  0  0  0  0  0  0  0  0  0  0  0
   -6.1990   20.3540  -31.3420 C   0  0  0  0  0  0  0  0  0  0  0  0
   -7.0199   17.6419  -31.1931 H   0  0  0  0  0  0  0  0  0  0  0  0
   -7.9342   17.7533  -32.7352 H   0  0  0  0  0  0  0  0  0  0  0  0
   -6.1474   17.9370  -32.7352 H   0  0  0  0  0  0  0  0  0  0  0  0
   -9.1492   19.7148  -32.9979 H   0  0  0  0  0  0  0  0  0  0  0  0
   -9.3725   22.2102  -32.7454 H   0  0  0  0  0  0  0  0  0  0  0  0
   -8.0247   24.5255  -31.7368 H   0  0  0  0  0  0  0  0  0  0  0  0
   -3.4930   25.6770  -30.2030 H   0  0  0  0  0  0  0  0  0  0  0  0
   -3.5860   24.3650  -30.0620 H   0  0  0  0  0  0  0  0  0  0  0  0
   -2.3061   22.9159  -27.9767 H   0  0  0  0  0  0  0  0  0  0  0  0
   -1.9285   21.0859  -29.4753 H   0  0  0  0  0  0  0  0  0  0  0  0
   -0.1202   22.6293  -31.3219 H   0  0  0  0  0  0  0  0  0  0  0  0
   -1.0307   21.1044  -31.5908 H   0  0  0  0  0  0  0  0  0  0  0  0
   -1.8955   22.6788  -31.5908 H   0  0  0  0  0  0  0  0  0  0  0  0
    0.3230   22.7550  -28.9030 H   0  0  0  0  0  0  0  0  0  0  0  0
   -5.2942   19.8535  -30.9668 H   0  0  0  0  0  0  0  0  0  0  0  0
  1  2  1  0
  2  3  2  0
  3  4  1  0
  4  5  2  0
  5  6  1  0
  6  7  2  0
  7  8  1  0
  8  9  1  0
  8 10  2  0
  7 11  1  0
 11 12  1  0
 12 13  2  0
 12 14  1  0
 14 15  1  0
 15 16  1  0
 16 17  2  0
 16 18  1  0
 15 19  1  0
 19 20  1  0
 19 21  1  0
 11 22  1  0
 22 23  2  0
 23  2  1  0
 22  5  1  0
  1 24  1  0
  1 25  1  0
  1 26  1  0
  3 27  1  0
  4 28  1  0
  6 29  1  0
  9 30  1  0
 14 31  1  0
 15 32  1  1
 19 33  1  6
 20 34  1  0
 20 35  1  0
 20 36  1  0
 21 37  1  0
 23 38  1  0
M  CHG  2   9  -1  18  -1
M  END
>  <UniqueID>  (57) 
56

>  <SMILES>  (57) 
Cc1ccc2cc(C([NH-])=O)n(C(=O)N[C@H](C(=O)[O-])[C@@H](C)O)c2c1

>  <Energy>  (57) 
72.72857894575122

>  <Genealogy>  (57) 
Cc1ccc2cc(C([NH-])=O)n(C(=O)NC(C(=O)[O-])C(C)O)c2c1 (protonated)
Cc1ccc2cc(C([NH-])=O)n(C(=O)N[C@H](C(=O)[O-])[C@@H](C)O)c2c1 (chirality)
Cc1ccc2cc(C([NH-])=O)n(C(=O)N[C@H](C(=O)[O-])[C@@H](C)O)c2c1 (3D coordinates assigned)
Cc1ccc2cc(C([NH-])=O)n(C(=O)N[C@H](C(=O)[O-])[C@@H](C)O)c2c1 (optimized conformer: 72.72857894575122 kcal/mol)

>  <smiles>  (57) 
Cc1ccc2cc(C(N)=O)n(C(=O)NC(C(=O)O)C(C)O)c2c1

>  <score_type>  (57) 
oracle

>  <origin>  (57) 
adg

>  <m_score__min__energy>  (57) 
-11.23

>  <m_primary>  (57) 
energy

$$$$
59:0
     RDKit          3D

 41 42  0  0  0  0  0  0  0  0999 V2000
   -5.7680   18.3730  -34.6000 C   0  0  0  0  0  0  0  0  0  0  0  0
   -6.5900   18.5320  -33.3950 N   0  0  0  0  0  0  0  0  0  0  0  0
   -7.2180   17.3450  -32.8010 C   0  0  0  0  0  0  0  0  0  0  0  0
   -6.7780   19.8430  -32.7980 C   0  0  0  0  0  0  0  0  0  0  0  0
   -8.0880   20.3500  -32.5570 C   0  0  0  0  0  0  0  0  0  0  0  0
   -8.2790   21.6200  -31.9890 C   0  0  0  0  0  0  0  0  0  0  0  0
   -7.1550   22.3660  -31.6610 C   0  0  0  0  0  0  0  0  0  0  0  0
   -7.0570   23.6270  -31.1220 C   0  0  0  0  0  0  0  0  0  0  0  0
   -5.6910   23.8800  -31.0140 C   0  0  0  0  0  0  0  0  0  0  0  0
   -5.1370   25.1040  -30.3980 C   0  0  0  0  0  0  0  0  0  0  0  0
   -3.8870   25.6210  -30.8490 N   0  0  0  0  0  0  0  0  0  0  0  0
   -5.7710   25.7220  -29.5030 O   0  0  0  0  0  0  0  0  0  0  0  0
   -4.9730   22.8160  -31.4760 N   0  0  0  0  0  0  0  0  0  0  0  0
   -3.5450   22.6900  -31.5790 C   0  0  0  0  0  0  0  0  0  0  0  0
   -3.0280   22.2050  -32.6230 O   0  0  0  0  0  0  0  0  0  0  0  0
   -2.7350   23.0920  -30.5120 O   0  0  0  0  0  0  0  0  0  0  0  0
   -1.5380   22.4080  -30.1470 C   0  0  0  0  0  0  0  0  0  0  0  0
   -0.6770   23.2630  -29.4200 O   0  0  0  0  0  0  0  0  0  0  0  0
   -1.2080   23.5560  -28.1390 C   0  0  0  0  0  0  0  0  0  0  0  0
   -1.5880   25.0350  -28.0610 C   0  0  0  0  0  0  0  0  0  0  0  0
   -1.5770   25.6170  -29.3370 O   0  0  0  0  0  0  0  0  0  0  0  0
   -5.8850   21.8970  -31.8650 C   0  0  0  0  0  0  0  0  0  0  0  0
   -5.6620   20.6440  -32.4470 C   0  0  0  0  0  0  0  0  0  0  0  0
   -4.7264   18.1715  -34.3094 H   0  0  0  0  0  0  0  0  0  0  0  0
   -6.1513   17.5323  -35.1970 H   0  0  0  0  0  0  0  0  0  0  0  0
   -5.8101   19.2959  -35.1970 H   0  0  0  0  0  0  0  0  0  0  0  0
   -7.1786   17.4194  -31.7042 H   0  0  0  0  0  0  0  0  0  0  0  0
   -8.2668   17.2832  -33.1269 H   0  0  0  0  0  0  0  0  0  0  0  0
   -6.6790   16.4432  -33.1269 H   0  0  0  0  0  0  0  0  0  0  0  0
   -8.9628   19.7371  -32.8199 H   0  0  0  0  0  0  0  0  0  0  0  0
   -9.2906   22.0127  -31.8090 H   0  0  0  0  0  0  0  0  0  0  0  0
   -7.8827   24.2952  -30.8363 H   0  0  0  0  0  0  0  0  0  0  0  0
   -2.9860   25.2510  -30.4730 H   0  0  0  0  0  0  0  0  0  0  0  0
   -1.7943   21.5385  -29.5239 H   0  0  0  0  0  0  0  0  0  0  0  0
   -1.0230   22.0819  -31.0627 H   0  0  0  0  0  0  0  0  0  0  0  0
   -2.1023   22.9396  -27.9648 H   0  0  0  0  0  0  0  0  0  0  0  0
   -0.4502   23.3351  -27.3728 H   0  0  0  0  0  0  0  0  0  0  0  0
   -2.5962   25.1267  -27.6309 H   0  0  0  0  0  0  0  0  0  0  0  0
   -0.8545   25.5560  -27.4280 H   0  0  0  0  0  0  0  0  0  0  0  0
   -1.9170   24.9270  -29.9660 H   0  0  0  0  0  0  0  0  0  0  0  0
   -4.6378   20.2865  -32.6291 H   0  0  0  0  0  0  0  0  0  0  0  0
  1  2  1  0
  2  3  1  0
  2  4  1  0
  4  5  2  0
  5  6  1  0
  6  7  2  0
  7  8  1  0
  8  9  2  0
  9 10  1  0
 10 11  1  0
 10 12  2  0
  9 13  1  0
 13 14  1  0
 14 15  2  0
 14 16  1  0
 16 17  1  0
 17 18  1  0
 18 19  1  0
 19 20  1  0
 20 21  1  0
 13 22  1  0
 22 23  2  0
 23  4  1  0
 22  7  1  0
  1 24  1  0
  1 25  1  0
  1 26  1  0
  3 27  1  0
  3 28  1  0
  3 29  1  0
  5 30  1  0
  6 31  1  0
  8 32  1  0
 11 33  1  0
 17 34  1  0
 17 35  1  0
 19 36  1  0
 19 37  1  0
 20 38  1  0
 20 39  1  0
 21 40  1  0
 23 41  1  0
M  CHG  1  11  -1
M  END
>  <UniqueID>  (58) 
57

>  <SMILES>  (58) 
CN(C)c1ccc2cc(C([NH-])=O)n(C(=O)OCOCCO)c2c1

>  <Energy>  (58) 
79.6250247986849

>  <Genealogy>  (58) 
CN(C)c1ccc2cc(C([NH-])=O)n(C(=O)OCOCCO)c2c1 (protonated)
CN(C)c1ccc2cc(C([NH-])=O)n(C(=O)OCOCCO)c2c1 (3D coordinates assigned)
CN(C)c1ccc2cc(C([NH-])=O)n(C(=O)OCOCCO)c2c1 (optimized conformer: 79.6250247986849 kcal/mol)

>  <smiles>  (58) 
CN(C)c1ccc2cc(C(N)=O)n(C(=O)OCOCCO)c2c1

>  <score_type>  (58) 
oracle

>  <origin>  (58) 
adg

>  <m_score__min__energy>  (58) 
-9.5500000000000007

>  <m_primary>  (58) 
energy

$$$$
60:0
     RDKit          3D

 47 48  0  0  0  0  0  0  0  0999 V2000
   -5.7480   24.1750  -31.7660 C   0  0  0  0  0  0  0  0  0  0  0  0
   -5.2390   24.5230  -30.3570 C   0  0  0  0  0  0  0  0  0  0  0  0
   -5.3570   23.2650  -29.4700 C   0  0  0  0  0  0  0  0  0  0  0  0
   -6.0850   25.6750  -29.7850 C   0  0  0  0  0  0  0  0  0  0  0  0
   -3.8700   24.9360  -30.4850 O   0  0  0  0  0  0  0  0  0  0  0  0
   -2.7900   24.5040  -29.6980 C   0  0  0  0  0  0  0  0  0  0  0  0
   -2.0900   25.3220  -29.0460 O   0  0  0  0  0  0  0  0  0  0  0  0
   -2.4870   23.1100  -29.6110 N   0  0  0  0  0  0  0  0  0  0  0  0
   -1.5340   22.4370  -30.4890 C   0  0  0  0  0  0  0  0  0  0  0  0
   -2.1110   21.1930  -31.0900 C   0  0  0  0  0  0  0  0  0  0  0  0
   -2.3240   20.1780  -30.3690 O   0  0  0  0  0  0  0  0  0  0  0  0
   -2.3230   21.1600  -32.4740 O   0  0  0  0  0  0  0  0  0  0  0  0
   -3.5710   21.2360  -33.1080 C   0  0  0  0  0  0  0  0  0  0  0  0
   -3.9270   22.2890  -33.7060 O   0  0  0  0  0  0  0  0  0  0  0  0
   -4.4430   20.0940  -33.0820 N   0  0  0  0  0  0  0  0  0  0  0  0
   -4.1450   18.8240  -33.4840 C   0  0  0  0  0  0  0  0  0  0  0  0
   -2.8070   18.3200  -33.8540 C   0  0  0  0  0  0  0  0  0  0  0  0
   -1.6520   18.6280  -33.0710 N   0  0  0  0  0  0  0  0  0  0  0  0
   -2.6900   17.5480  -34.8430 O   0  0  0  0  0  0  0  0  0  0  0  0
   -5.2760   18.0150  -33.4390 C   0  0  0  0  0  0  0  0  0  0  0  0
   -6.2850   18.8280  -32.9750 C   0  0  0  0  0  0  0  0  0  0  0  0
   -7.6240   18.5390  -32.7410 C   0  0  0  0  0  0  0  0  0  0  0  0
   -8.4480   19.5730  -32.2690 C   0  0  0  0  0  0  0  0  0  0  0  0
   -7.9270   20.8740  -32.0470 C   0  0  0  0  0  0  0  0  0  0  0  0
   -8.8520   21.9560  -31.5420 C   0  0  0  0  0  0  0  0  0  0  0  0
  -10.1800   21.5680  -31.6060 F   0  0  0  0  0  0  0  0  0  0  0  0
   -8.6960   23.0960  -32.3130 F   0  0  0  0  0  0  0  0  0  0  0  0
   -8.5370   22.2530  -30.2290 F   0  0  0  0  0  0  0  0  0  0  0  0
   -6.5620   21.1350  -32.3190 C   0  0  0  0  0  0  0  0  0  0  0  0
   -5.7580   20.0770  -32.7640 C   0  0  0  0  0  0  0  0  0  0  0  0
   -6.6537   23.5558  -31.6861 H   0  0  0  0  0  0  0  0  0  0  0  0
   -5.9841   25.1016  -32.3098 H   0  0  0  0  0  0  0  0  0  0  0  0
   -4.9703   23.6187  -32.3098 H   0  0  0  0  0  0  0  0  0  0  0  0
   -5.3294   23.5595  -28.4105 H   0  0  0  0  0  0  0  0  0  0  0  0
   -6.3071   22.7534  -29.6837 H   0  0  0  0  0  0  0  0  0  0  0  0
   -4.5186   22.5857  -29.6837 H   0  0  0  0  0  0  0  0  0  0  0  0
   -6.0584   25.6388  -28.6859 H   0  0  0  0  0  0  0  0  0  0  0  0
   -5.6766   26.6363  -30.1302 H   0  0  0  0  0  0  0  0  0  0  0  0
   -7.1244   25.5730  -30.1302 H   0  0  0  0  0  0  0  0  0  0  0  0
   -1.2499   23.1247  -31.2992 H   0  0  0  0  0  0  0  0  0  0  0  0
   -0.6591   22.1507  -29.8869 H   0  0  0  0  0  0  0  0  0  0  0  0
   -1.7380   19.1040  -32.1440 H   0  0  0  0  0  0  0  0  0  0  0  0
   -0.7070   18.3140  -33.3860 H   0  0  0  0  0  0  0  0  0  0  0  0
   -5.3483   16.9527  -33.7152 H   0  0  0  0  0  0  0  0  0  0  0  0
   -8.0260   17.5309  -32.9201 H   0  0  0  0  0  0  0  0  0  0  0  0
   -9.5108   19.3721  -32.0688 H   0  0  0  0  0  0  0  0  0  0  0  0
   -6.1432   22.1432  -32.1843 H   0  0  0  0  0  0  0  0  0  0  0  0
  1  2  1  0
  2  3  1  0
  2  4  1  0
  2  5  1  0
  5  6  1  0
  6  7  2  0
  6  8  1  0
  8  9  1  0
  9 10  1  0
 10 11  2  0
 10 12  1  0
 12 13  1  0
 13 14  2  0
 13 15  1  0
 15 16  1  0
 16 17  1  0
 17 18  1  0
 17 19  2  0
 16 20  2  0
 20 21  1  0
 21 22  2  0
 22 23  1  0
 23 24  2  0
 24 25  1  0
 25 26  1  0
 25 27  1  0
 25 28  1  0
 24 29  1  0
 29 30  2  0
 30 15  1  0
 30 21  1  0
  1 31  1  0
  1 32  1  0
  1 33  1  0
  3 34  1  0
  3 35  1  0
  3 36  1  0
  4 37  1  0
  4 38  1  0
  4 39  1  0
  9 40  1  0
  9 41  1  0
 18 42  1  0
 18 43  1  0
 20 44  1  0
 22 45  1  0
 23 46  1  0
 29 47  1  0
M  CHG  1   8  -1
M  END
>  <UniqueID>  (59) 
58

>  <SMILES>  (59) 
CC(C)(C)OC(=O)[N-]CC(=O)OC(=O)n1c(C(N)=O)cc2ccc(C(F)(F)F)cc21

>  <Energy>  (59) 
80.26611901011451

>  <Genealogy>  (59) 
CC(C)(C)OC(=O)[N-]CC(=O)OC(=O)n1c(C(N)=O)cc2ccc(C(F)(F)F)cc21 (protonated)
CC(C)(C)OC(=O)[N-]CC(=O)OC(=O)n1c(C(N)=O)cc2ccc(C(F)(F)F)cc21 (3D coordinates assigned)
CC(C)(C)OC(=O)[N-]CC(=O)OC(=O)n1c(C(N)=O)cc2ccc(C(F)(F)F)cc21 (optimized conformer: 80.26611901011451 kcal/mol)

>  <smiles>  (59) 
CC(C)(C)OC(=O)NCC(=O)OC(=O)n1c(C(N)=O)cc2ccc(C(F)(F)F)cc21

>  <score_type>  (59) 
oracle

>  <origin>  (59) 
adg

>  <m_score__min__energy>  (59) 
-9.8800000000000008

>  <m_primary>  (59) 
energy

$$$$
61:0
     RDKit          3D

 34 35  0  0  0  0  0  0  0  0999 V2000
   -7.1760   18.5360  -32.6070 C   0  0  0  0  0  0  0  0  0  0  0  0
   -7.2620   19.9900  -32.2470 C   0  0  0  0  0  0  0  0  0  0  0  0
   -8.5220   20.6360  -32.2000 C   0  0  0  0  0  0  0  0  0  0  0  0
   -8.6200   21.9850  -31.8160 C   0  0  0  0  0  0  0  0  0  0  0  0
   -7.4460   22.6560  -31.4840 C   0  0  0  0  0  0  0  0  0  0  0  0
   -7.2580   23.9490  -31.0540 C   0  0  0  0  0  0  0  0  0  0  0  0
   -5.8840   24.0760  -30.8540 C   0  0  0  0  0  0  0  0  0  0  0  0
   -5.2310   25.3430  -30.4660 C   0  0  0  0  0  0  0  0  0  0  0  0
   -3.8750   25.5850  -30.8360 N   0  0  0  0  0  0  0  0  0  0  0  0
   -5.8460   26.2030  -29.7810 O   0  0  0  0  0  0  0  0  0  0  0  0
   -5.2500   22.9030  -31.1410 N   0  0  0  0  0  0  0  0  0  0  0  0
   -3.8520   22.5970  -31.0170 C   0  0  0  0  0  0  0  0  0  0  0  0
   -3.1690   22.3550  -32.0480 O   0  0  0  0  0  0  0  0  0  0  0  0
   -3.2600   22.5970  -29.7470 O   0  0  0  0  0  0  0  0  0  0  0  0
   -2.2360   23.4600  -29.3350 C   0  0  0  0  0  0  0  0  0  0  0  0
   -1.2030   23.6320  -30.0370 O   0  0  0  0  0  0  0  0  0  0  0  0
   -2.3870   24.2060  -28.0460 C   0  0  0  0  0  0  0  0  0  0  0  0
   -1.3990   25.3710  -27.9550 C   0  0  0  0  0  0  0  0  0  0  0  0
   -1.2680   26.0090  -29.1980 O   0  0  0  0  0  0  0  0  0  0  0  0
   -6.2200   22.0450  -31.5280 C   0  0  0  0  0  0  0  0  0  0  0  0
   -6.0960   20.6980  -31.8850 C   0  0  0  0  0  0  0  0  0  0  0  0
   -7.1403   17.9323  -31.6882 H   0  0  0  0  0  0  0  0  0  0  0  0
   -8.0589   18.2518  -33.1984 H   0  0  0  0  0  0  0  0  0  0  0  0
   -6.2658   18.3579  -33.1984 H   0  0  0  0  0  0  0  0  0  0  0  0
   -9.4314   20.0774  -32.4662 H   0  0  0  0  0  0  0  0  0  0  0  0
   -9.5941   22.4946  -31.7790 H   0  0  0  0  0  0  0  0  0  0  0  0
   -8.0281   24.7193  -30.9005 H   0  0  0  0  0  0  0  0  0  0  0  0
   -3.0890   25.1500  -30.3030 H   0  0  0  0  0  0  0  0  0  0  0  0
   -3.4118   24.6000  -27.9786 H   0  0  0  0  0  0  0  0  0  0  0  0
   -2.1800   23.5116  -27.2183 H   0  0  0  0  0  0  0  0  0  0  0  0
   -1.7640   26.0968  -27.2134 H   0  0  0  0  0  0  0  0  0  0  0  0
   -0.4165   24.9786  -27.6538 H   0  0  0  0  0  0  0  0  0  0  0  0
   -2.0060   25.6730  -29.7720 H   0  0  0  0  0  0  0  0  0  0  0  0
   -5.1138   20.2028  -31.8836 H   0  0  0  0  0  0  0  0  0  0  0  0
  1  2  1  0
  2  3  2  0
  3  4  1  0
  4  5  2  0
  5  6  1  0
  6  7  2  0
  7  8  1  0
  8  9  1  0
  8 10  2  0
  7 11  1  0
 11 12  1  0
 12 13  2  0
 12 14  1  0
 14 15  1  0
 15 16  2  0
 15 17  1  0
 17 18  1  0
 18 19  1  0
 11 20  1  0
 20 21  2  0
 21  2  1  0
 20  5  1  0
  1 22  1  0
  1 23  1  0
  1 24  1  0
  3 25  1  0
  4 26  1  0
  6 27  1  0
  9 28  1  0
 17 29  1  0
 17 30  1  0
 18 31  1  0
 18 32  1  0
 19 33  1  0
 21 34  1  0
M  CHG  1   9  -1
M  END
>  <UniqueID>  (60) 
59

>  <SMILES>  (60) 
Cc1ccc2cc(C([NH-])=O)n(C(=O)OC(=O)CCO)c2c1

>  <Energy>  (60) 
69.36981800793424

>  <Genealogy>  (60) 
Cc1ccc2cc(C([NH-])=O)n(C(=O)OC(=O)CCO)c2c1 (protonated)
Cc1ccc2cc(C([NH-])=O)n(C(=O)OC(=O)CCO)c2c1 (3D coordinates assigned)
Cc1ccc2cc(C([NH-])=O)n(C(=O)OC(=O)CCO)c2c1 (optimized conformer: 69.36981800793424 kcal/mol)

>  <smiles>  (60) 
Cc1ccc2cc(C(N)=O)n(C(=O)OC(=O)CCO)c2c1

>  <score_type>  (60) 
oracle

>  <origin>  (60) 
adg

>  <m_score__min__energy>  (60) 
-10.31

>  <m_primary>  (60) 
energy

$$$$
62:0
     RDKit          3D

 32 33  0  0  0  0  0  0  0  0999 V2000
   -7.2580   17.2650  -32.9220 C   0  0  0  0  0  0  0  0  0  0  0  0
   -7.3050   18.4340  -32.6260 C   0  0  0  0  0  0  0  0  0  0  0  0
   -7.3620   19.8270  -32.2710 C   0  0  0  0  0  0  0  0  0  0  0  0
   -8.6000   20.5100  -32.2940 C   0  0  0  0  0  0  0  0  0  0  0  0
   -8.6670   21.8730  -31.9630 C   0  0  0  0  0  0  0  0  0  0  0  0
   -7.4850   22.5170  -31.6080 C   0  0  0  0  0  0  0  0  0  0  0  0
   -7.2600   23.8320  -31.2700 C   0  0  0  0  0  0  0  0  0  0  0  0
   -5.8920   23.9220  -31.0240 C   0  0  0  0  0  0  0  0  0  0  0  0
   -5.2320   25.1540  -30.5450 C   0  0  0  0  0  0  0  0  0  0  0  0
   -3.8120   25.2850  -30.5780 N   0  0  0  0  0  0  0  0  0  0  0  0
   -5.9260   26.0840  -30.0540 O   0  0  0  0  0  0  0  0  0  0  0  0
   -5.2910   22.7120  -31.2110 N   0  0  0  0  0  0  0  0  0  0  0  0
   -3.8880   22.4120  -31.1530 C   0  0  0  0  0  0  0  0  0  0  0  0
   -3.2220   22.3290  -32.2220 O   0  0  0  0  0  0  0  0  0  0  0  0
   -3.2700   22.2400  -29.9070 O   0  0  0  0  0  0  0  0  0  0  0  0
   -2.2190   23.0240  -29.4150 C   0  0  0  0  0  0  0  0  0  0  0  0
   -1.3150   23.4560  -30.1820 O   0  0  0  0  0  0  0  0  0  0  0  0
   -2.1850   23.3170  -28.0470 O   0  0  0  0  0  0  0  0  0  0  0  0
   -2.0540   24.6390  -27.5320 C   0  0  0  0  0  0  0  0  0  0  0  0
   -0.9740   25.3780  -28.2570 C   0  0  0  0  0  0  0  0  0  0  0  0
   -1.2600   26.3760  -28.9690 O   0  0  0  0  0  0  0  0  0  0  0  0
    0.3440   24.9490  -28.1680 O   0  0  0  0  0  0  0  0  0  0  0  0
   -6.2810   21.8620  -31.5650 C   0  0  0  0  0  0  0  0  0  0  0  0
   -6.1830   20.5080  -31.9080 C   0  0  0  0  0  0  0  0  0  0  0  0
   -7.2152   16.1995  -33.1918 H   0  0  0  0  0  0  0  0  0  0  0  0
   -9.5168   19.9699  -32.5731 H   0  0  0  0  0  0  0  0  0  0  0  0
   -9.6239   22.4151  -31.9836 H   0  0  0  0  0  0  0  0  0  0  0  0
   -8.0031   24.6406  -31.2074 H   0  0  0  0  0  0  0  0  0  0  0  0
   -3.1990   24.4490  -30.6990 H   0  0  0  0  0  0  0  0  0  0  0  0
   -3.0070   25.1734  -27.6595 H   0  0  0  0  0  0  0  0  0  0  0  0
   -1.7919   24.5814  -26.4652 H   0  0  0  0  0  0  0  0  0  0  0  0
   -5.2126   19.9903  -31.8945 H   0  0  0  0  0  0  0  0  0  0  0  0
  1  2  3  0
  2  3  1  0
  3  4  2  0
  4  5  1  0
  5  6  2  0
  6  7  1  0
  7  8  2  0
  8  9  1  0
  9 10  1  0
  9 11  2  0
  8 12  1  0
 12 13  1  0
 13 14  2  0
 13 15  1  0
 15 16  1  0
 16 17  2  0
 16 18  1  0
 18 19  1  0
 19 20  1  0
 20 21  2  0
 20 22  1  0
 12 23  1  0
 23 24  2  0
 24  3  1  0
 23  6  1  0
  1 25  1  0
  4 26  1  0
  5 27  1  0
  7 28  1  0
 10 29  1  0
 19 30  1  0
 19 31  1  0
 24 32  1  0
M  CHG  2  10  -1  22  -1
M  END
>  <UniqueID>  (61) 
60

>  <SMILES>  (61) 
C#Cc1ccc2cc(C([NH-])=O)n(C(=O)OC(=O)OCC(=O)[O-])c2c1

>  <Energy>  (61) 
68.95569075146881

>  <Genealogy>  (61) 
C#Cc1ccc2cc(C([NH-])=O)n(C(=O)OC(=O)OCC(=O)[O-])c2c1 (protonated)
C#Cc1ccc2cc(C([NH-])=O)n(C(=O)OC(=O)OCC(=O)[O-])c2c1 (3D coordinates assigned)
C#Cc1ccc2cc(C([NH-])=O)n(C(=O)OC(=O)OCC(=O)[O-])c2c1 (optimized conformer: 68.95569075146881 kcal/mol)

>  <smiles>  (61) 
C#Cc1ccc2cc(C(N)=O)n(C(=O)OC(=O)OCC(=O)O)c2c1

>  <score_type>  (61) 
oracle

>  <origin>  (61) 
adg

>  <m_score__min__energy>  (61) 
-12.44

>  <m_primary>  (61) 
energy

$$$$
63:0
     RDKit          3D

 46 47  0  0  0  0  0  0  0  0999 V2000
   -7.5050   18.4760  -32.8180 C   0  0  0  0  0  0  0  0  0  0  0  0
   -7.5170   19.8850  -32.3080 C   0  0  0  0  0  0  0  0  0  0  0  0
   -8.7370   20.6020  -32.2360 C   0  0  0  0  0  0  0  0  0  0  0  0
   -8.7570   21.9400  -31.8080 C   0  0  0  0  0  0  0  0  0  0  0  0
   -7.5450   22.5330  -31.4650 C   0  0  0  0  0  0  0  0  0  0  0  0
   -7.2750   23.8160  -31.0480 C   0  0  0  0  0  0  0  0  0  0  0  0
   -5.8940   23.8620  -30.8660 C   0  0  0  0  0  0  0  0  0  0  0  0
   -5.1820   25.0440  -30.3350 C   0  0  0  0  0  0  0  0  0  0  0  0
   -3.8860   25.3740  -30.8310 N   0  0  0  0  0  0  0  0  0  0  0  0
   -5.7190   25.7880  -29.4730 O   0  0  0  0  0  0  0  0  0  0  0  0
   -5.3320   22.6560  -31.1660 N   0  0  0  0  0  0  0  0  0  0  0  0
   -3.9390   22.3060  -31.1630 C   0  0  0  0  0  0  0  0  0  0  0  0
   -3.0830   23.1250  -31.5960 O   0  0  0  0  0  0  0  0  0  0  0  0
   -3.5400   21.0480  -30.6990 O   0  0  0  0  0  0  0  0  0  0  0  0
   -2.3330   20.4180  -31.1140 C   0  0  0  0  0  0  0  0  0  0  0  0
   -1.2430   20.9220  -30.3510 O   0  0  0  0  0  0  0  0  0  0  0  0
   -1.0420   20.5860  -29.0070 C   0  0  0  0  0  0  0  0  0  0  0  0
   -1.2010   19.3930  -28.6250 O   0  0  0  0  0  0  0  0  0  0  0  0
   -0.6970   21.6300  -28.0670 N   0  0  2  0  0  0  0  0  0  0  0  0
    0.3740   21.2200  -27.1410 C   0  0  0  0  0  0  0  0  0  0  0  0
   -1.8990   22.1550  -27.3760 C   0  0  0  0  0  0  0  0  0  0  0  0
   -2.1140   23.6840  -27.4990 C   0  0  0  0  0  0  0  0  0  0  0  0
   -1.1120   24.4670  -28.7690 S   0  0  0  0  0  0  0  0  0  0  0  0
    0.3290   24.4900  -28.3430 O   0  0  0  0  0  0  0  0  0  0  0  0
   -1.2280   23.7480  -30.0830 O   0  0  0  0  0  0  0  0  0  0  0  0
   -1.6380   26.0490  -28.9690 O   0  0  0  0  0  0  0  0  0  0  0  0
   -6.3560   21.8520  -31.5270 C   0  0  0  0  0  0  0  0  0  0  0  0
   -6.3050   20.5240  -31.9670 C   0  0  0  0  0  0  0  0  0  0  0  0
   -7.4991   17.7783  -31.9676 H   0  0  0  0  0  0  0  0  0  0  0  0
   -8.4017   18.3001  -33.4304 H   0  0  0  0  0  0  0  0  0  0  0  0
   -6.6055   18.3154  -33.4304 H   0  0  0  0  0  0  0  0  0  0  0  0
   -9.6776   20.1062  -32.5179 H   0  0  0  0  0  0  0  0  0  0  0  0
   -9.7008   22.5015  -31.7458 H   0  0  0  0  0  0  0  0  0  0  0  0
   -7.9959   24.6320  -30.8915 H   0  0  0  0  0  0  0  0  0  0  0  0
   -3.0260   24.9980  -30.3750 H   0  0  0  0  0  0  0  0  0  0  0  0
   -2.4157   19.3319  -30.9605 H   0  0  0  0  0  0  0  0  0  0  0  0
   -2.1599   20.6279  -32.1798 H   0  0  0  0  0  0  0  0  0  0  0  0
   -0.3080   22.4210  -28.6310 H   0  0  0  0  0  0  0  0  0  0  0  0
    0.0319   21.3509  -26.1038 H   0  0  0  0  0  0  0  0  0  0  0  0
    0.6236   20.1628  -27.3141 H   0  0  0  0  0  0  0  0  0  0  0  0
    1.2658   21.8403  -27.3141 H   0  0  0  0  0  0  0  0  0  0  0  0
   -2.7814   21.6520  -27.7983 H   0  0  0  0  0  0  0  0  0  0  0  0
   -1.7490   21.9525  -26.3053 H   0  0  0  0  0  0  0  0  0  0  0  0
   -3.1731   23.8660  -27.7338 H   0  0  0  0  0  0  0  0  0  0  0  0
   -1.8095   24.1251  -26.5384 H   0  0  0  0  0  0  0  0  0  0  0  0
   -5.3454   19.9920  -32.0451 H   0  0  0  0  0  0  0  0  0  0  0  0
  1  2  1  0
  2  3  2  0
  3  4  1  0
  4  5  2  0
  5  6  1  0
  6  7  2  0
  7  8  1  0
  8  9  1  0
  8 10  2  0
  7 11  1  0
 11 12  1  0
 12 13  2  0
 12 14  1  0
 14 15  1  0
 15 16  1  0
 16 17  1  0
 17 18  2  0
 17 19  1  0
 19 20  1  0
 19 21  1  0
 21 22  1  0
 22 23  1  0
 23 24  2  0
 23 25  2  0
 23 26  1  0
 11 27  1  0
 27 28  2  0
 28  2  1  0
 27  5  1  0
  1 29  1  0
  1 30  1  0
  1 31  1  0
  3 32  1  0
  4 33  1  0
  6 34  1  0
  9 35  1  0
 15 36  1  0
 15 37  1  0
 19 38  1  6
 20 39  1  0
 20 40  1  0
 20 41  1  0
 21 42  1  0
 21 43  1  0
 22 44  1  0
 22 45  1  0
 28 46  1  0
M  CHG  3   9  -1  19   1  26  -1
M  END
>  <UniqueID>  (62) 
61

>  <SMILES>  (62) 
Cc1ccc2cc(C([NH-])=O)n(C(=O)OCOC(=O)[N@H+](C)CCS(=O)(=O)[O-])c2c1

>  <Energy>  (62) 
84.5228063042645

>  <Genealogy>  (62) 
Cc1ccc2cc(C([NH-])=O)n(C(=O)OCOC(=O)[NH+](C)CCS(=O)(=O)[O-])c2c1 (protonated)
Cc1ccc2cc(C([NH-])=O)n(C(=O)OCOC(=O)[N@H+](C)CCS(=O)(=O)[O-])c2c1 (chirality)
Cc1ccc2cc(C([NH-])=O)n(C(=O)OCOC(=O)[N@H+](C)CCS(=O)(=O)[O-])c2c1 (3D coordinates assigned)
Cc1ccc2cc(C([NH-])=O)n(C(=O)OCOC(=O)[N@H+](C)CCS(=O)(=O)[O-])c2c1 (optimized conformer: 84.5228063042645 kcal/mol)

>  <smiles>  (62) 
Cc1ccc2cc(C(N)=O)n(C(=O)OCOC(=O)N(C)CCS(=O)(=O)O)c2c1

>  <score_type>  (62) 
oracle

>  <origin>  (62) 
adg

>  <m_score__min__energy>  (62) 
-11.84

>  <m_primary>  (62) 
energy

$$$$
64:0
     RDKit          3D

 44 46  0  0  0  0  0  0  0  0999 V2000
   -3.9440   25.6730  -30.8870 N   0  0  0  0  0  0  0  0  0  0  0  0
   -5.2630   25.3270  -30.4710 C   0  0  0  0  0  0  0  0  0  0  0  0
   -5.8750   26.0830  -29.6690 O   0  0  0  0  0  0  0  0  0  0  0  0
   -5.8990   24.0710  -30.9210 C   0  0  0  0  0  0  0  0  0  0  0  0
   -7.2700   23.9380  -31.1310 C   0  0  0  0  0  0  0  0  0  0  0  0
   -7.4630   22.6120  -31.4460 C   0  0  0  0  0  0  0  0  0  0  0  0
   -8.6320   21.9280  -31.7560 C   0  0  0  0  0  0  0  0  0  0  0  0
   -8.5360   20.5610  -32.0670 C   0  0  0  0  0  0  0  0  0  0  0  0
   -7.2750   19.9030  -32.0800 C   0  0  0  0  0  0  0  0  0  0  0  0
   -7.1320   18.5000  -32.3970 N   0  0  0  0  0  0  0  0  0  0  0  0
   -6.1620   17.8890  -33.3180 C   0  0  1  0  0  0  0  0  0  0  0  0
   -5.3640   18.9500  -34.1110 C   0  0  0  0  0  0  0  0  0  0  0  0
   -3.8940   18.5480  -34.2930 C   0  0  0  0  0  0  0  0  0  0  0  0
   -3.7760   17.0470  -34.6020 C   0  0  0  0  0  0  0  0  0  0  0  0
   -4.3700   16.1760  -33.5620 N   0  0  0  0  0  0  0  0  0  0  0  0
   -5.2570   16.8620  -32.6070 C   0  0  0  0  0  0  0  0  0  0  0  0
   -6.1140   20.6380  -31.7500 C   0  0  0  0  0  0  0  0  0  0  0  0
   -6.2420   21.9930  -31.4250 C   0  0  0  0  0  0  0  0  0  0  0  0
   -5.2690   22.8760  -31.1090 N   0  0  0  0  0  0  0  0  0  0  0  0
   -3.8590   22.6060  -31.0650 C   0  0  0  0  0  0  0  0  0  0  0  0
   -3.3200   21.9370  -31.9880 O   0  0  0  0  0  0  0  0  0  0  0  0
   -3.0970   23.0660  -29.9850 O   0  0  0  0  0  0  0  0  0  0  0  0
   -1.6730   23.0240  -29.9580 C   0  0  0  0  0  0  0  0  0  0  0  0
   -1.1290   24.2610  -29.3190 C   0  0  0  0  0  0  0  0  0  0  0  0
   -1.8100   25.3210  -29.3030 O   0  0  0  0  0  0  0  0  0  0  0  0
    0.1210   24.2370  -28.7140 O   0  0  0  0  0  0  0  0  0  0  0  0
   -3.1090   25.2090  -30.4660 H   0  0  0  0  0  0  0  0  0  0  0  0
   -8.0352   24.7251  -31.0602 H   0  0  0  0  0  0  0  0  0  0  0  0
   -9.6046   22.4418  -31.7579 H   0  0  0  0  0  0  0  0  0  0  0  0
   -9.4476   19.9926  -32.3034 H   0  0  0  0  0  0  0  0  0  0  0  0
   -7.7190   17.8280  -31.8510 H   0  0  0  0  0  0  0  0  0  0  0  0
   -6.7379   17.3226  -34.0646 H   0  0  0  0  0  0  0  0  0  0  0  0
   -5.8240   19.0720  -35.1027 H   0  0  0  0  0  0  0  0  0  0  0  0
   -5.3905   19.8904  -33.5410 H   0  0  0  0  0  0  0  0  0  0  0  0
   -3.4627   19.1231  -35.1256 H   0  0  0  0  0  0  0  0  0  0  0  0
   -3.3508   18.7611  -33.3605 H   0  0  0  0  0  0  0  0  0  0  0  0
   -4.2872   16.8476  -35.5553 H   0  0  0  0  0  0  0  0  0  0  0  0
   -2.7024   16.8111  -34.6437 H   0  0  0  0  0  0  0  0  0  0  0  0
   -3.5980   15.7260  -33.0160 H   0  0  0  0  0  0  0  0  0  0  0  0
   -5.8892   16.1146  -32.1052 H   0  0  0  0  0  0  0  0  0  0  0  0
   -4.6322   17.3976  -31.8772 H   0  0  0  0  0  0  0  0  0  0  0  0
   -5.1266   20.1532  -31.7486 H   0  0  0  0  0  0  0  0  0  0  0  0
   -1.3468   22.1450  -29.3827 H   0  0  0  0  0  0  0  0  0  0  0  0
   -1.2975   22.9598  -30.9899 H   0  0  0  0  0  0  0  0  0  0  0  0
  1  2  1  0
  2  3  2  0
  2  4  1  0
  4  5  2  0
  5  6  1  0
  6  7  2  0
  7  8  1  0
  8  9  2  0
  9 10  1  0
 10 11  1  0
 11 12  1  0
 12 13  1  0
 13 14  1  0
 14 15  1  0
 15 16  1  0
  9 17  1  0
 17 18  2  0
 18 19  1  0
 19 20  1  0
 20 21  2  0
 20 22  1  0
 22 23  1  0
 23 24  1  0
 24 25  2  0
 24 26  1  0
 19  4  1  0
 18  6  1  0
 16 11  1  0
  1 27  1  0
  5 28  1  0
  7 29  1  0
  8 30  1  0
 10 31  1  0
 11 32  1  6
 12 33  1  0
 12 34  1  0
 13 35  1  0
 13 36  1  0
 14 37  1  0
 14 38  1  0
 15 39  1  0
 16 40  1  0
 16 41  1  0
 17 42  1  0
 23 43  1  0
 23 44  1  0
M  CHG  2   1  -1  26  -1
M  END
>  <UniqueID>  (63) 
62

>  <SMILES>  (63) 
[NH-]C(=O)c1cc2ccc(N[C@H]3CCCNC3)cc2n1C(=O)OCC(=O)[O-]

>  <Energy>  (63) 
91.1351392748211

>  <Genealogy>  (63) 
[NH-]C(=O)c1cc2ccc(N[C@H]3CCCNC3)cc2n1C(=O)OCC(=O)[O-] (protonated)
[NH-]C(=O)c1cc2ccc(N[C@H]3CCCNC3)cc2n1C(=O)OCC(=O)[O-] (3D coordinates assigned)
[NH-]C(=O)c1cc2ccc(N[C@H]3CCCNC3)cc2n1C(=O)OCC(=O)[O-] (nonaromatic ring conformer: 91.1351392748211 kcal/mol)

>  <smiles>  (63) 
NC(=O)c1cc2ccc(N[C@H]3CCCNC3)cc2n1C(=O)OCC(=O)O

>  <score_type>  (63) 
oracle

>  <origin>  (63) 
adg

>  <m_score__min__energy>  (63) 
-12.66

>  <m_primary>  (63) 
energy

$$$$
65:0
     RDKit          3D

 31 32  0  0  0  0  0  0  0  0999 V2000
   -6.7080   17.6470  -33.4200 C   0  0  0  0  0  0  0  0  0  0  0  0
   -6.8090   18.7170  -32.9880 N   0  0  0  0  0  0  0  0  0  0  0  0
   -6.9510   19.9920  -32.4640 C   0  0  0  0  0  0  0  0  0  0  0  0
   -8.2320   20.4850  -32.3740 C   0  0  0  0  0  0  0  0  0  0  0  0
   -8.3970   21.7520  -31.8560 C   0  0  0  0  0  0  0  0  0  0  0  0
   -7.3120   22.4860  -31.4460 C   0  0  0  0  0  0  0  0  0  0  0  0
   -7.2080   23.7500  -30.9040 C   0  0  0  0  0  0  0  0  0  0  0  0
   -5.8580   24.0400  -30.6570 C   0  0  0  0  0  0  0  0  0  0  0  0
   -5.4460   25.2950  -30.0900 C   0  0  0  0  0  0  0  0  0  0  0  0
   -6.0920   26.0740  -29.1220 N   0  0  0  0  0  0  0  0  0  0  0  0
   -4.3360   25.7780  -30.5230 O   0  0  0  0  0  0  0  0  0  0  0  0
   -5.1530   22.9590  -31.0470 N   0  0  0  0  0  0  0  0  0  0  0  0
   -3.7450   22.7820  -30.9920 C   0  0  0  0  0  0  0  0  0  0  0  0
   -3.2630   21.7560  -31.5930 O   0  0  0  0  0  0  0  0  0  0  0  0
   -2.8490   23.5810  -30.3720 O   0  0  0  0  0  0  0  0  0  0  0  0
   -1.6260   23.3370  -29.7980 C   0  0  0  0  0  0  0  0  0  0  0  0
   -0.9560   24.4350  -29.0590 C   0  0  0  0  0  0  0  0  0  0  0  0
   -1.5430   25.6750  -29.2820 O   0  0  0  0  0  0  0  0  0  0  0  0
   -6.0220   22.0160  -31.5250 C   0  0  0  0  0  0  0  0  0  0  0  0
   -5.8660   20.7430  -32.0470 C   0  0  0  0  0  0  0  0  0  0  0  0
   -9.0954   19.8887  -32.7041 H   0  0  0  0  0  0  0  0  0  0  0  0
   -9.4073   22.1785  -31.7705 H   0  0  0  0  0  0  0  0  0  0  0  0
   -8.0517   24.4250  -30.6977 H   0  0  0  0  0  0  0  0  0  0  0  0
   -6.7770   26.8100  -29.4310 H   0  0  0  0  0  0  0  0  0  0  0  0
   -5.8560   25.8940  -28.1160 H   0  0  0  0  0  0  0  0  0  0  0  0
   -1.7600   22.5050  -29.0910 H   0  0  0  0  0  0  0  0  0  0  0  0
   -0.9618   23.1457  -30.6537 H   0  0  0  0  0  0  0  0  0  0  0  0
   -1.0029   24.2131  -27.9826 H   0  0  0  0  0  0  0  0  0  0  0  0
    0.0812   24.4913  -29.4210 H   0  0  0  0  0  0  0  0  0  0  0  0
   -2.2420   25.6730  -29.9730 H   0  0  0  0  0  0  0  0  0  0  0  0
   -4.8549   20.3183  -32.1323 H   0  0  0  0  0  0  0  0  0  0  0  0
  1  2  3  0
  2  3  1  0
  3  4  2  0
  4  5  1  0
  5  6  2  0
  6  7  1  0
  7  8  2  0
  8  9  1  0
  9 10  1  0
  9 11  2  0
  8 12  1  0
 12 13  1  0
 13 14  2  0
 13 15  1  0
 15 16  1  0
 16 17  1  0
 17 18  1  0
 12 19  1  0
 19 20  2  0
 20  3  1  0
 19  6  1  0
  4 21  1  0
  5 22  1  0
  7 23  1  0
 10 24  1  0
 10 25  1  0
 16 26  1  0
 16 27  1  0
 17 28  1  0
 17 29  1  0
 18 30  1  0
 20 31  1  0
M  CHG  2   1  -1   2   1
M  END
>  <smiles>  (64) 
[C-]#[N+]c1ccc2cc(C(N)=O)n(C(=O)OCCO)c2c1

>  <score_type>  (64) 
oracle

>  <origin>  (64) 
adg

>  <m_score__min__energy>  (64) 
-8.5199999999999996

>  <m_primary>  (64) 
energy

$$$$
66:0
     RDKit          3D

 46 48  0  0  0  0  0  0  0  0999 V2000
   -3.7990   23.1390  -28.0980 C   0  0  0  0  0  0  0  0  0  0  0  0
   -2.6020   22.6230  -28.9200 C   0  0  0  0  0  0  0  0  0  0  0  0
   -1.2750   22.9150  -28.1920 C   0  0  0  0  0  0  0  0  0  0  0  0
   -2.7430   21.1040  -29.1030 C   0  0  0  0  0  0  0  0  0  0  0  0
   -2.6010   23.2090  -30.2300 O   0  0  0  0  0  0  0  0  0  0  0  0
   -3.2450   22.7010  -31.3690 C   0  0  0  0  0  0  0  0  0  0  0  0
   -2.5800   22.2390  -32.3340 O   0  0  0  0  0  0  0  0  0  0  0  0
   -4.6800   22.7220  -31.4380 N   0  0  0  0  0  0  0  0  0  0  0  0
   -5.5150   23.7450  -31.1030 C   0  0  0  0  0  0  0  0  0  0  0  0
   -5.1200   25.0150  -30.4590 C   0  0  0  0  0  0  0  0  0  0  0  0
   -3.9040   25.6530  -30.8400 N   0  0  0  0  0  0  0  0  0  0  0  0
   -5.8580   25.5590  -29.5970 O   0  0  0  0  0  0  0  0  0  0  0  0
   -6.8390   23.4050  -31.3770 C   0  0  0  0  0  0  0  0  0  0  0  0
   -6.7880   22.1280  -31.8870 C   0  0  0  0  0  0  0  0  0  0  0  0
   -7.8150   21.3010  -32.3290 C   0  0  0  0  0  0  0  0  0  0  0  0
   -7.4720   20.0320  -32.8260 C   0  0  0  0  0  0  0  0  0  0  0  0
   -6.1170   19.6210  -32.8870 C   0  0  0  0  0  0  0  0  0  0  0  0
   -5.7750   18.3240  -33.4120 N   0  0  0  0  0  0  0  0  0  0  0  0
   -4.3690   17.8910  -33.3910 C   0  0  0  0  0  0  0  0  0  0  0  0
   -4.0850   16.9600  -34.5650 C   0  0  0  0  0  0  0  0  0  0  0  0
   -5.0030   15.8340  -34.5150 N   0  0  0  0  0  0  0  0  0  0  0  0
   -6.3690   16.0290  -34.1510 C   0  0  0  0  0  0  0  0  0  0  0  0
   -7.1650   15.0550  -34.1750 O   0  0  0  0  0  0  0  0  0  0  0  0
   -6.8680   17.3930  -33.7580 C   0  0  0  0  0  0  0  0  0  0  0  0
   -5.1010   20.4930  -32.4330 C   0  0  0  0  0  0  0  0  0  0  0  0
   -5.4750   21.7400  -31.9180 C   0  0  0  0  0  0  0  0  0  0  0  0
   -3.5758   23.0428  -27.0252 H   0  0  0  0  0  0  0  0  0  0  0  0
   -3.9823   24.1960  -28.3410 H   0  0  0  0  0  0  0  0  0  0  0  0
   -4.6934   22.5465  -28.3410 H   0  0  0  0  0  0  0  0  0  0  0  0
   -1.4377   22.8792  -27.1047 H   0  0  0  0  0  0  0  0  0  0  0  0
   -0.5272   22.1599  -28.4759 H   0  0  0  0  0  0  0  0  0  0  0  0
   -0.9132   23.9142  -28.4759 H   0  0  0  0  0  0  0  0  0  0  0  0
   -2.7881   20.6185  -28.1170 H   0  0  0  0  0  0  0  0  0  0  0  0
   -3.6652   20.8860  -29.6615 H   0  0  0  0  0  0  0  0  0  0  0  0
   -1.8766   20.7200  -29.6615 H   0  0  0  0  0  0  0  0  0  0  0  0
   -2.9820   25.2960  -30.5060 H   0  0  0  0  0  0  0  0  0  0  0  0
   -7.7336   24.0253  -31.2192 H   0  0  0  0  0  0  0  0  0  0  0  0
   -8.8639   21.6301  -32.2908 H   0  0  0  0  0  0  0  0  0  0  0  0
   -8.2635   19.3506  -33.1713 H   0  0  0  0  0  0  0  0  0  0  0  0
   -3.7163   18.7736  -33.4615 H   0  0  0  0  0  0  0  0  0  0  0  0
   -4.1741   17.3526  -32.4518 H   0  0  0  0  0  0  0  0  0  0  0  0
   -4.2238   17.5062  -35.5097 H   0  0  0  0  0  0  0  0  0  0  0  0
   -3.0490   16.5951  -34.5051 H   0  0  0  0  0  0  0  0  0  0  0  0
   -7.4363   17.8154  -34.5998 H   0  0  0  0  0  0  0  0  0  0  0  0
   -7.4953   17.2711  -32.8627 H   0  0  0  0  0  0  0  0  0  0  0  0
   -4.0423   20.1988  -32.4832 H   0  0  0  0  0  0  0  0  0  0  0  0
  1  2  1  0
  2  3  1  0
  2  4  1  0
  2  5  1  0
  5  6  1  0
  6  7  2  0
  6  8  1  0
  8  9  1  0
  9 10  1  0
 10 11  1  0
 10 12  2  0
  9 13  2  0
 13 14  1  0
 14 15  2  0
 15 16  1  0
 16 17  2  0
 17 18  1  0
 18 19  1  0
 19 20  1  0
 20 21  1  0
 21 22  1  0
 22 23  2  0
 22 24  1  0
 17 25  1  0
 25 26  2  0
 26  8  1  0
 26 14  1  0
 24 18  1  0
  1 27  1  0
  1 28  1  0
  1 29  1  0
  3 30  1  0
  3 31  1  0
  3 32  1  0
  4 33  1  0
  4 34  1  0
  4 35  1  0
 11 36  1  0
 13 37  1  0
 15 38  1  0
 16 39  1  0
 19 40  1  0
 19 41  1  0
 20 42  1  0
 20 43  1  0
 24 44  1  0
 24 45  1  0
 25 46  1  0
M  CHG  2  11  -1  21  -1
M  END
>  <UniqueID>  (65) 
63

>  <SMILES>  (65) 
CC(C)(C)OC(=O)n1c(C([NH-])=O)cc2ccc(N3CC[N-]C(=O)C3)cc21

>  <Energy>  (65) 
84.578748290521

>  <Genealogy>  (65) 
CC(C)(C)OC(=O)n1c(C([NH-])=O)cc2ccc(N3CC[N-]C(=O)C3)cc21 (protonated)
CC(C)(C)OC(=O)n1c(C([NH-])=O)cc2ccc(N3CC[N-]C(=O)C3)cc21 (3D coordinates assigned)
CC(C)(C)OC(=O)n1c(C([NH-])=O)cc2ccc(N3CC[N-]C(=O)C3)cc21 (nonaromatic ring conformer: 84.578748290521 kcal/mol)

>  <smiles>  (65) 
CC(C)(C)OC(=O)n1c(C(N)=O)cc2ccc(N3CCNC(=O)C3)cc21

>  <score_type>  (65) 
oracle

>  <origin>  (65) 
adg

>  <m_score__min__energy>  (65) 
-10.67

>  <m_primary>  (65) 
energy

$$$$
67:0
     RDKit          3D

 38 39  0  0  0  0  0  0  0  0999 V2000
   -7.0110   18.3780  -32.6530 C   0  0  0  0  0  0  0  0  0  0  0  0
   -7.1870   19.8060  -32.2310 C   0  0  0  0  0  0  0  0  0  0  0  0
   -8.4610   20.4210  -32.3230 C   0  0  0  0  0  0  0  0  0  0  0  0
   -8.6330   21.7660  -31.9570 C   0  0  0  0  0  0  0  0  0  0  0  0
   -7.5160   22.4720  -31.5220 C   0  0  0  0  0  0  0  0  0  0  0  0
   -7.4020   23.7770  -31.0990 C   0  0  0  0  0  0  0  0  0  0  0  0
   -6.0530   23.9490  -30.7930 C   0  0  0  0  0  0  0  0  0  0  0  0
   -5.4680   25.2480  -30.3970 C   0  0  0  0  0  0  0  0  0  0  0  0
   -4.1750   25.6400  -30.8480 N   0  0  0  0  0  0  0  0  0  0  0  0
   -6.1410   26.0430  -29.6870 O   0  0  0  0  0  0  0  0  0  0  0  0
   -5.3640   22.7920  -31.0040 N   0  0  0  0  0  0  0  0  0  0  0  0
   -3.9730   22.5380  -30.7630 C   0  0  0  0  0  0  0  0  0  0  0  0
   -3.0950   23.1970  -31.3830 O   0  0  0  0  0  0  0  0  0  0  0  0
   -3.6030   21.5600  -29.8330 O   0  0  0  0  0  0  0  0  0  0  0  0
   -3.5130   21.8020  -28.4290 C   0  0  0  0  0  0  0  0  0  0  0  0
   -2.3340   22.7260  -28.0920 C   0  0  0  0  0  0  0  0  0  0  0  0
   -2.7780   24.0260  -27.4140 C   0  0  0  0  0  0  0  0  0  0  0  0
   -1.6740   24.6230  -26.7740 O   0  0  0  0  0  0  0  0  0  0  0  0
   -0.7090   25.3810  -27.9540 P   0  0  0  0  0  0  0  0  0  0  0  0
   -0.1970   26.6910  -27.4010 O   0  0  0  0  0  0  0  0  0  0  0  0
    0.6080   24.3960  -28.3540 O   0  0  0  0  0  0  0  0  0  0  0  0
   -1.6270   25.6890  -29.3420 O   0  0  0  0  0  0  0  0  0  0  0  0
   -6.2720   21.9000  -31.4560 C   0  0  0  0  0  0  0  0  0  0  0  0
   -6.0730   20.5580  -31.8000 C   0  0  0  0  0  0  0  0  0  0  0  0
   -6.9323   17.7391  -31.7610 H   0  0  0  0  0  0  0  0  0  0  0  0
   -7.8772   18.0638  -33.2538 H   0  0  0  0  0  0  0  0  0  0  0  0
   -6.0944   18.2835  -33.2538 H   0  0  0  0  0  0  0  0  0  0  0  0
   -9.3222   19.8398  -32.6842 H   0  0  0  0  0  0  0  0  0  0  0  0
   -9.6209   22.2466  -32.0126 H   0  0  0  0  0  0  0  0  0  0  0  0
   -8.2047   24.5249  -31.0194 H   0  0  0  0  0  0  0  0  0  0  0  0
   -3.3150   25.1660  -30.4910 H   0  0  0  0  0  0  0  0  0  0  0  0
   -4.4460   22.2737  -28.0870 H   0  0  0  0  0  0  0  0  0  0  0  0
   -3.3527   20.8389  -27.9222 H   0  0  0  0  0  0  0  0  0  0  0  0
   -1.6502   22.1920  -27.4158 H   0  0  0  0  0  0  0  0  0  0  0  0
   -1.8416   22.9955  -29.0380 H   0  0  0  0  0  0  0  0  0  0  0  0
   -3.1799   24.7155  -28.1710 H   0  0  0  0  0  0  0  0  0  0  0  0
   -3.5570   23.8038  -26.6698 H   0  0  0  0  0  0  0  0  0  0  0  0
   -5.0744   20.1012  -31.7361 H   0  0  0  0  0  0  0  0  0  0  0  0
  1  2  1  0
  2  3  2  0
  3  4  1  0
  4  5  2  0
  5  6  1  0
  6  7  2  0
  7  8  1  0
  8  9  1  0
  8 10  2  0
  7 11  1  0
 11 12  1  0
 12 13  2  0
 12 14  1  0
 14 15  1  0
 15 16  1  0
 16 17  1  0
 17 18  1  0
 18 19  1  0
 19 20  2  0
 19 21  1  0
 19 22  1  0
 11 23  1  0
 23 24  2  0
 24  2  1  0
 23  5  1  0
  1 25  1  0
  1 26  1  0
  1 27  1  0
  3 28  1  0
  4 29  1  0
  6 30  1  0
  9 31  1  0
 15 32  1  0
 15 33  1  0
 16 34  1  0
 16 35  1  0
 17 36  1  0
 17 37  1  0
 24 38  1  0
M  CHG  3   9  -1  21  -1  22  -1
M  END
>  <UniqueID>  (66) 
64

>  <SMILES>  (66) 
Cc1ccc2cc(C([NH-])=O)n(C(=O)OCCCOP(=O)([O-])[O-])c2c1

>  <Energy>  (66) 
68.94071694383275

>  <Genealogy>  (66) 
Cc1ccc2cc(C([NH-])=O)n(C(=O)OCCCOP(=O)([O-])[O-])c2c1 (protonated)
Cc1ccc2cc(C([NH-])=O)n(C(=O)OCCCOP(=O)([O-])[O-])c2c1 (3D coordinates assigned)
Cc1ccc2cc(C([NH-])=O)n(C(=O)OCCCOP(=O)([O-])[O-])c2c1 (optimized conformer: 68.94071694383275 kcal/mol)

>  <smiles>  (66) 
Cc1ccc2cc(C(N)=O)n(C(=O)OCCCOP(=O)(O)O)c2c1

>  <score_type>  (66) 
oracle

>  <origin>  (66) 
adg

>  <m_score__min__energy>  (66) 
-13.51

>  <m_primary>  (66) 
energy

$$$$
68:0
     RDKit          3D

 49 50  0  0  0  0  0  0  0  0999 V2000
   -7.9370   21.9360  -30.2510 C   0  0  0  0  0  0  0  0  0  0  0  0
   -8.7670   22.4830  -31.3380 N   0  0  0  0  0  0  0  0  0  0  0  0
   -7.9040   23.1540  -32.3230 C   0  0  0  0  0  0  0  0  0  0  0  0
   -9.5620   21.4190  -31.9910 C   0  0  0  0  0  0  0  0  0  0  0  0
   -9.0240   20.0360  -31.6100 C   0  0  0  0  0  0  0  0  0  0  0  0
   -8.4390   19.3580  -32.7730 N   0  0  0  0  0  0  0  0  0  0  0  0
   -7.0270   19.3650  -33.0530 C   0  0  0  0  0  0  0  0  0  0  0  0
   -6.4770   18.3320  -33.8540 C   0  0  0  0  0  0  0  0  0  0  0  0
   -5.1090   18.3190  -34.1720 C   0  0  0  0  0  0  0  0  0  0  0  0
   -4.3110   19.3400  -33.6670 C   0  0  0  0  0  0  0  0  0  0  0  0
   -2.9660   19.5870  -33.8350 C   0  0  0  0  0  0  0  0  0  0  0  0
   -2.7120   20.7550  -33.1170 C   0  0  0  0  0  0  0  0  0  0  0  0
   -1.3710   21.3590  -32.9710 C   0  0  0  0  0  0  0  0  0  0  0  0
   -0.6280   21.7770  -34.1130 N   0  0  0  0  0  0  0  0  0  0  0  0
   -0.8850   21.5370  -31.8210 O   0  0  0  0  0  0  0  0  0  0  0  0
   -3.8560   21.2090  -32.5350 N   0  0  0  0  0  0  0  0  0  0  0  0
   -4.0450   22.4140  -31.7790 C   0  0  0  0  0  0  0  0  0  0  0  0
   -4.5540   23.4190  -32.3470 O   0  0  0  0  0  0  0  0  0  0  0  0
   -3.6490   22.4880  -30.3920 N   0  0  0  0  0  0  0  0  0  0  0  0
   -4.1440   23.5830  -29.5460 C   0  0  0  0  0  0  0  0  0  0  0  0
   -3.5070   24.8740  -29.9450 C   0  0  0  0  0  0  0  0  0  0  0  0
   -4.0400   25.5970  -30.8270 O   0  0  0  0  0  0  0  0  0  0  0  0
   -2.3440   25.3000  -29.3180 O   0  0  0  0  0  0  0  0  0  0  0  0
   -2.7380   21.4830  -29.8200 C   0  0  0  0  0  0  0  0  0  0  0  0
   -1.8510   22.0920  -28.7740 C   0  0  0  0  0  0  0  0  0  0  0  0
   -0.7520   22.6080  -29.1030 O   0  0  0  0  0  0  0  0  0  0  0  0
   -2.2080   22.0510  -27.4340 O   0  0  0  0  0  0  0  0  0  0  0  0
   -4.8210   20.3320  -32.8760 C   0  0  0  0  0  0  0  0  0  0  0  0
   -6.1790   20.3820  -32.5520 C   0  0  0  0  0  0  0  0  0  0  0  0
   -8.3694   22.2210  -29.2805 H   0  0  0  0  0  0  0  0  0  0  0  0
   -7.9051   20.8393  -30.3304 H   0  0  0  0  0  0  0  0  0  0  0  0
   -6.9166   22.3392  -30.3304 H   0  0  0  0  0  0  0  0  0  0  0  0
   -7.1409   23.7473  -31.7980 H   0  0  0  0  0  0  0  0  0  0  0  0
   -7.4117   22.3991  -32.9537 H   0  0  0  0  0  0  0  0  0  0  0  0
   -8.5143   23.8172  -32.9537 H   0  0  0  0  0  0  0  0  0  0  0  0
  -10.6104   21.5009  -31.6683 H   0  0  0  0  0  0  0  0  0  0  0  0
   -9.4901   21.5403  -33.0819 H   0  0  0  0  0  0  0  0  0  0  0  0
   -8.2515   20.1518  -30.8355 H   0  0  0  0  0  0  0  0  0  0  0  0
   -9.8597   19.4272  -31.2344 H   0  0  0  0  0  0  0  0  0  0  0  0
   -9.0750   18.8940  -33.4620 H   0  0  0  0  0  0  0  0  0  0  0  0
   -7.1299   17.5310  -34.2309 H   0  0  0  0  0  0  0  0  0  0  0  0
   -4.6815   17.5249  -34.8018 H   0  0  0  0  0  0  0  0  0  0  0  0
   -2.2455   18.9896  -34.4129 H   0  0  0  0  0  0  0  0  0  0  0  0
   -1.0870   22.2980  -34.8930 H   0  0  0  0  0  0  0  0  0  0  0  0
   -5.2349   23.6657  -29.6607 H   0  0  0  0  0  0  0  0  0  0  0  0
   -3.8910   23.3678  -28.4973 H   0  0  0  0  0  0  0  0  0  0  0  0
   -3.3323   20.6780  -29.3630 H   0  0  0  0  0  0  0  0  0  0  0  0
   -2.1050   21.0854  -30.6269 H   0  0  0  0  0  0  0  0  0  0  0  0
   -6.5793   21.1911  -31.9235 H   0  0  0  0  0  0  0  0  0  0  0  0
  1  2  1  0
  2  3  1  0
  2  4  1  0
  4  5  1  0
  5  6  1  0
  6  7  1  0
  7  8  2  0
  8  9  1  0
  9 10  2  0
 10 11  1  0
 11 12  2  0
 12 13  1  0
 13 14  1  0
 13 15  2  0
 12 16  1  0
 16 17  1  0
 17 18  2  0
 17 19  1  0
 19 20  1  0
 20 21  1  0
 21 22  2  0
 21 23  1  0
 19 24  1  0
 24 25  1  0
 25 26  2  0
 25 27  1  0
 16 28  1  0
 28 29  2  0
 29  7  1  0
 28 10  1  0
  1 30  1  0
  1 31  1  0
  1 32  1  0
  3 33  1  0
  3 34  1  0
  3 35  1  0
  4 36  1  0
  4 37  1  0
  5 38  1  0
  5 39  1  0
  6 40  1  0
  8 41  1  0
  9 42  1  0
 11 43  1  0
 14 44  1  0
 20 45  1  0
 20 46  1  0
 24 47  1  0
 24 48  1  0
 29 49  1  0
M  CHG  3  14  -1  23  -1  27  -1
M  END
>  <UniqueID>  (67) 
65

>  <SMILES>  (67) 
CN(C)CCNc1ccc2cc(C([NH-])=O)n(C(=O)N(CC(=O)[O-])CC(=O)[O-])c2c1

>  <Energy>  (67) 
82.86616959145503

>  <Genealogy>  (67) 
CN(C)CCNc1ccc2cc(C([NH-])=O)n(C(=O)N(CC(=O)[O-])CC(=O)[O-])c2c1 (protonated)
CN(C)CCNc1ccc2cc(C([NH-])=O)n(C(=O)N(CC(=O)[O-])CC(=O)[O-])c2c1 (3D coordinates assigned)
CN(C)CCNc1ccc2cc(C([NH-])=O)n(C(=O)N(CC(=O)[O-])CC(=O)[O-])c2c1 (optimized conformer: 82.86616959145503 kcal/mol)

>  <smiles>  (67) 
CN(C)CCNc1ccc2cc(C(N)=O)n(C(=O)N(CC(=O)O)CC(=O)O)c2c1

>  <score_type>  (67) 
oracle

>  <origin>  (67) 
adg

>  <m_score__min__energy>  (67) 
-11.949999999999999

>  <m_primary>  (67) 
energy

$$$$
69:0
     RDKit          3D

 42 43  0  0  0  0  0  0  0  0999 V2000
   -3.6720   22.4140  -28.4520 C   0  0  0  0  0  0  0  0  0  0  0  0
   -3.1600   22.9560  -29.5660 C   0  0  0  0  0  0  0  0  0  0  0  0
   -2.0150   23.8960  -29.4780 C   0  0  0  0  0  0  0  0  0  0  0  0
   -0.8290   23.4720  -29.5130 O   0  0  0  0  0  0  0  0  0  0  0  0
   -2.2350   25.2620  -29.3390 O   0  0  0  0  0  0  0  0  0  0  0  0
   -3.7320   22.6010  -30.8900 C   0  0  0  0  0  0  0  0  0  0  0  0
   -2.9730   22.1930  -31.8100 O   0  0  0  0  0  0  0  0  0  0  0  0
   -5.1460   22.6900  -31.1390 N   0  0  0  0  0  0  0  0  0  0  0  0
   -5.9610   23.7580  -30.9120 C   0  0  0  0  0  0  0  0  0  0  0  0
   -5.5220   25.1040  -30.4950 C   0  0  0  0  0  0  0  0  0  0  0  0
   -4.1650   25.5250  -30.6500 N   0  0  0  0  0  0  0  0  0  0  0  0
   -6.3680   25.9160  -30.0340 O   0  0  0  0  0  0  0  0  0  0  0  0
   -7.2920   23.4170  -31.1440 C   0  0  0  0  0  0  0  0  0  0  0  0
   -7.2680   22.0950  -31.5290 C   0  0  0  0  0  0  0  0  0  0  0  0
   -8.3130   21.2380  -31.8620 C   0  0  0  0  0  0  0  0  0  0  0  0
   -7.9950   19.9070  -32.1820 C   0  0  0  0  0  0  0  0  0  0  0  0
   -6.6510   19.4620  -32.1590 C   0  0  0  0  0  0  0  0  0  0  0  0
   -6.3430   18.0950  -32.4750 N   0  0  0  0  0  0  0  0  0  0  0  0
   -6.1130   17.1550  -31.3780 C   0  0  0  0  0  0  0  0  0  0  0  0
   -6.4960   17.5770  -33.8480 C   0  0  0  0  0  0  0  0  0  0  0  0
   -6.4350   16.0470  -33.8720 C   0  0  0  0  0  0  0  0  0  0  0  0
   -5.4450   18.1840  -34.7830 C   0  0  0  0  0  0  0  0  0  0  0  0
   -5.6210   20.3520  -31.7920 C   0  0  0  0  0  0  0  0  0  0  0  0
   -5.9620   21.6780  -31.5100 C   0  0  0  0  0  0  0  0  0  0  0  0
   -4.5207   21.7174  -28.5191 H   0  0  0  0  0  0  0  0  0  0  0  0
   -3.2434   22.6658  -27.4707 H   0  0  0  0  0  0  0  0  0  0  0  0
   -3.4820   24.9600  -31.2010 H   0  0  0  0  0  0  0  0  0  0  0  0
   -3.8650   26.4610  -30.2980 H   0  0  0  0  0  0  0  0  0  0  0  0
   -8.1743   24.0658  -31.0414 H   0  0  0  0  0  0  0  0  0  0  0  0
   -9.3547   21.5913  -31.8743 H   0  0  0  0  0  0  0  0  0  0  0  0
   -8.7972   19.2048  -32.4527 H   0  0  0  0  0  0  0  0  0  0  0  0
   -6.2402   17.6748  -30.4170 H   0  0  0  0  0  0  0  0  0  0  0  0
   -6.8353   16.3282  -31.4461 H   0  0  0  0  0  0  0  0  0  0  0  0
   -5.0905   16.7551  -31.4461 H   0  0  0  0  0  0  0  0  0  0  0  0
   -7.4890   17.8784  -34.2127 H   0  0  0  0  0  0  0  0  0  0  0  0
   -6.4197   15.6644  -32.8408 H   0  0  0  0  0  0  0  0  0  0  0  0
   -7.3182   15.6530  -34.3962 H   0  0  0  0  0  0  0  0  0  0  0  0
   -5.5233   15.7246  -34.3962 H   0  0  0  0  0  0  0  0  0  0  0  0
   -4.6454   18.6458  -34.1852 H   0  0  0  0  0  0  0  0  0  0  0  0
   -5.0183   17.3933  -35.4176 H   0  0  0  0  0  0  0  0  0  0  0  0
   -5.9167   18.9488  -35.4176 H   0  0  0  0  0  0  0  0  0  0  0  0
   -4.5768   20.0120  -31.7292 H   0  0  0  0  0  0  0  0  0  0  0  0
  1  2  2  0
  2  3  1  0
  3  4  2  0
  3  5  1  0
  2  6  1  0
  6  7  2  0
  6  8  1  0
  8  9  1  0
  9 10  1  0
 10 11  1  0
 10 12  2  0
  9 13  2  0
 13 14  1  0
 14 15  2  0
 15 16  1  0
 16 17  2  0
 17 18  1  0
 18 19  1  0
 18 20  1  0
 20 21  1  0
 20 22  1  0
 17 23  1  0
 23 24  2  0
 24  8  1  0
 24 14  1  0
  1 25  1  0
  1 26  1  0
 11 27  1  0
 11 28  1  0
 13 29  1  0
 15 30  1  0
 16 31  1  0
 19 32  1  0
 19 33  1  0
 19 34  1  0
 20 35  1  0
 21 36  1  0
 21 37  1  0
 21 38  1  0
 22 39  1  0
 22 40  1  0
 22 41  1  0
 23 42  1  0
M  CHG  1   5  -1
M  END
>  <UniqueID>  (68) 
66

>  <SMILES>  (68) 
C=C(C(=O)[O-])C(=O)n1c(C(N)=O)cc2ccc(N(C)C(C)C)cc21

>  <Energy>  (68) 
83.29941655696949

>  <Genealogy>  (68) 
C=C(C(=O)[O-])C(=O)n1c(C(N)=O)cc2ccc(N(C)C(C)C)cc21 (protonated)
C=C(C(=O)[O-])C(=O)n1c(C(N)=O)cc2ccc(N(C)C(C)C)cc21 (3D coordinates assigned)
C=C(C(=O)[O-])C(=O)n1c(C(N)=O)cc2ccc(N(C)C(C)C)cc21 (optimized conformer: 83.29941655696949 kcal/mol)

>  <smiles>  (68) 
C=C(C(=O)O)C(=O)n1c(C(N)=O)cc2ccc(N(C)C(C)C)cc21

>  <score_type>  (68) 
oracle

>  <origin>  (68) 
adg

>  <m_score__min__energy>  (68) 
-11.279999999999999

>  <m_primary>  (68) 
energy

$$$$
70:0
     RDKit          3D

 49 50  0  0  0  0  0  0  0  0999 V2000
   -5.7400   18.2460  -34.8320 C   0  0  0  0  0  0  0  0  0  0  0  0
   -5.5440   17.6530  -33.5030 N   0  0  0  0  0  0  0  0  0  0  0  0
   -4.3130   16.9160  -33.2030 C   0  0  0  0  0  0  0  0  0  0  0  0
   -6.5440   17.8040  -32.4720 C   0  0  0  0  0  0  0  0  0  0  0  0
   -6.3150   17.3490  -31.3160 O   0  0  0  0  0  0  0  0  0  0  0  0
   -7.8400   18.5330  -32.7400 C   0  0  0  0  0  0  0  0  0  0  0  0
   -7.8160   19.9530  -32.2360 C   0  0  0  0  0  0  0  0  0  0  0  0
   -9.0300   20.6440  -31.9910 C   0  0  0  0  0  0  0  0  0  0  0  0
   -9.0180   21.9730  -31.5390 C   0  0  0  0  0  0  0  0  0  0  0  0
   -7.7830   22.5890  -31.3580 C   0  0  0  0  0  0  0  0  0  0  0  0
   -7.4810   23.8540  -30.9040 C   0  0  0  0  0  0  0  0  0  0  0  0
   -6.0900   23.9270  -30.9130 C   0  0  0  0  0  0  0  0  0  0  0  0
   -5.3360   25.1490  -30.5650 C   0  0  0  0  0  0  0  0  0  0  0  0
   -3.9280   25.2260  -30.7770 N   0  0  0  0  0  0  0  0  0  0  0  0
   -5.9490   26.1550  -30.1160 O   0  0  0  0  0  0  0  0  0  0  0  0
   -5.5530   22.7550  -31.3520 N   0  0  0  0  0  0  0  0  0  0  0  0
   -4.1660   22.3910  -31.4060 C   0  0  0  0  0  0  0  0  0  0  0  0
   -3.6060   22.2140  -32.5220 O   0  0  0  0  0  0  0  0  0  0  0  0
   -3.4530   22.2110  -30.2150 O   0  0  0  0  0  0  0  0  0  0  0  0
   -2.1050   22.6450  -30.0180 C   0  0  0  0  0  0  0  0  0  0  0  0
   -1.9170   23.3500  -28.6490 C   0  0  0  0  0  0  0  0  0  0  0  0
   -3.2980   23.7200  -28.0620 C   0  0  0  0  0  0  0  0  0  0  0  0
   -1.1810   22.4320  -27.6520 C   0  0  0  0  0  0  0  0  0  0  0  0
   -1.0840   24.6000  -28.8640 C   0  0  0  0  0  0  0  0  0  0  0  0
   -1.6170   25.6380  -29.3410 O   0  0  0  0  0  0  0  0  0  0  0  0
    0.2680   24.6280  -28.5360 O   0  0  0  0  0  0  0  0  0  0  0  0
   -6.6010   21.9460  -31.6200 C   0  0  0  0  0  0  0  0  0  0  0  0
   -6.5820   20.6150  -32.0520 C   0  0  0  0  0  0  0  0  0  0  0  0
   -6.0835   19.2853  -34.7228 H   0  0  0  0  0  0  0  0  0  0  0  0
   -4.7889   18.2303  -35.3844 H   0  0  0  0  0  0  0  0  0  0  0  0
   -6.4944   17.6666  -35.3844 H   0  0  0  0  0  0  0  0  0  0  0  0
   -4.1872   16.8407  -32.1128 H   0  0  0  0  0  0  0  0  0  0  0  0
   -4.3754   15.9065  -33.6355 H   0  0  0  0  0  0  0  0  0  0  0  0
   -3.4527   17.4477  -33.6355 H   0  0  0  0  0  0  0  0  0  0  0  0
   -8.0197   18.5464  -33.8251 H   0  0  0  0  0  0  0  0  0  0  0  0
   -8.6405   18.0010  -32.2050 H   0  0  0  0  0  0  0  0  0  0  0  0
   -9.9903   20.1337  -32.1567 H   0  0  0  0  0  0  0  0  0  0  0  0
   -9.9554   22.5108  -31.3342 H   0  0  0  0  0  0  0  0  0  0  0  0
   -8.1881   24.6396  -30.5991 H   0  0  0  0  0  0  0  0  0  0  0  0
   -3.5040   26.0360  -31.2800 H   0  0  0  0  0  0  0  0  0  0  0  0
   -1.4400   21.7699  -30.0613 H   0  0  0  0  0  0  0  0  0  0  0  0
   -1.8613   23.3687  -30.8098 H   0  0  0  0  0  0  0  0  0  0  0  0
   -3.2452   23.7058  -26.9634 H   0  0  0  0  0  0  0  0  0  0  0  0
   -3.5834   24.7263  -28.4024 H   0  0  0  0  0  0  0  0  0  0  0  0
   -4.0483   22.9912  -28.4024 H   0  0  0  0  0  0  0  0  0  0  0  0
   -1.4254   22.7368  -26.6237 H   0  0  0  0  0  0  0  0  0  0  0  0
   -1.4971   21.3904  -27.8106 H   0  0  0  0  0  0  0  0  0  0  0  0
   -0.0956   22.5140  -27.8106 H   0  0  0  0  0  0  0  0  0  0  0  0
   -5.6303   20.0976  -32.2434 H   0  0  0  0  0  0  0  0  0  0  0  0
  1  2  1  0
  2  3  1  0
  2  4  1  0
  4  5  2  0
  4  6  1  0
  6  7  1  0
  7  8  2  0
  8  9  1  0
  9 10  2  0
 10 11  1  0
 11 12  2  0
 12 13  1  0
 13 14  1  0
 13 15  2  0
 12 16  1  0
 16 17  1  0
 17 18  2  0
 17 19  1  0
 19 20  1  0
 20 21  1  0
 21 22  1  0
 21 23  1  0
 21 24  1  0
 24 25  2  0
 24 26  1  0
 16 27  1  0
 27 28  2  0
 28  7  1  0
 27 10  1  0
  1 29  1  0
  1 30  1  0
  1 31  1  0
  3 32  1  0
  3 33  1  0
  3 34  1  0
  6 35  1  0
  6 36  1  0
  8 37  1  0
  9 38  1  0
 11 39  1  0
 14 40  1  0
 20 41  1  0
 20 42  1  0
 22 43  1  0
 22 44  1  0
 22 45  1  0
 23 46  1  0
 23 47  1  0
 23 48  1  0
 28 49  1  0
M  CHG  2  14  -1  26  -1
M  END
>  <UniqueID>  (69) 
67

>  <SMILES>  (69) 
CN(C)C(=O)Cc1ccc2cc(C([NH-])=O)n(C(=O)OCC(C)(C)C(=O)[O-])c2c1

>  <Energy>  (69) 
82.43517232014919

>  <Genealogy>  (69) 
CN(C)C(=O)Cc1ccc2cc(C([NH-])=O)n(C(=O)OCC(C)(C)C(=O)[O-])c2c1 (protonated)
CN(C)C(=O)Cc1ccc2cc(C([NH-])=O)n(C(=O)OCC(C)(C)C(=O)[O-])c2c1 (3D coordinates assigned)
CN(C)C(=O)Cc1ccc2cc(C([NH-])=O)n(C(=O)OCC(C)(C)C(=O)[O-])c2c1 (optimized conformer: 82.43517232014919 kcal/mol)

>  <smiles>  (69) 
CN(C)C(=O)Cc1ccc2cc(C(N)=O)n(C(=O)OCC(C)(C)C(=O)O)c2c1

>  <score_type>  (69) 
oracle

>  <origin>  (69) 
adg

>  <m_score__min__energy>  (69) 
-14.23

>  <m_primary>  (69) 
energy

$$$$
71:0
     RDKit          3D

 35 36  0  0  0  0  0  0  0  0999 V2000
   -3.9810   25.6710  -30.8730 N   0  0  0  0  0  0  0  0  0  0  0  0
   -5.2620   25.2400  -30.4200 C   0  0  0  0  0  0  0  0  0  0  0  0
   -5.9880   26.0390  -29.7720 O   0  0  0  0  0  0  0  0  0  0  0  0
   -5.7700   23.8920  -30.7470 C   0  0  0  0  0  0  0  0  0  0  0  0
   -7.1180   23.6110  -30.9580 C   0  0  0  0  0  0  0  0  0  0  0  0
   -7.1630   22.2860  -31.3240 C   0  0  0  0  0  0  0  0  0  0  0  0
   -8.2530   21.4820  -31.6480 C   0  0  0  0  0  0  0  0  0  0  0  0
   -8.0070   20.1370  -31.9680 C   0  0  0  0  0  0  0  0  0  0  0  0
   -6.6890   19.6160  -31.9370 C   0  0  0  0  0  0  0  0  0  0  0  0
   -6.4380   18.1750  -32.2980 C   0  0  0  0  0  0  0  0  0  0  0  0
   -5.3010   18.0350  -33.3180 C   0  0  0  0  0  0  0  0  0  0  0  0
   -5.7760   17.4190  -34.5980 C   0  0  0  0  0  0  0  0  0  0  0  0
   -5.3440   17.8420  -35.7030 O   0  0  0  0  0  0  0  0  0  0  0  0
   -6.7280   16.4080  -34.5730 O   0  0  0  0  0  0  0  0  0  0  0  0
   -5.6070   20.4640  -31.6070 C   0  0  0  0  0  0  0  0  0  0  0  0
   -5.8780   21.8050  -31.3180 C   0  0  0  0  0  0  0  0  0  0  0  0
   -5.0110   22.7800  -30.9650 N   0  0  0  0  0  0  0  0  0  0  0  0
   -3.5940   22.6340  -30.7660 C   0  0  0  0  0  0  0  0  0  0  0  0
   -2.9440   21.7980  -31.4510 O   0  0  0  0  0  0  0  0  0  0  0  0
   -2.9460   23.4050  -29.7960 O   0  0  0  0  0  0  0  0  0  0  0  0
   -1.6030   23.1680  -29.3960 C   0  0  0  0  0  0  0  0  0  0  0  0
   -0.9450   24.4710  -29.0890 C   0  0  0  0  0  0  0  0  0  0  0  0
    0.2040   24.4940  -28.5700 O   0  0  0  0  0  0  0  0  0  0  0  0
   -1.6140   25.6630  -29.3380 O   0  0  0  0  0  0  0  0  0  0  0  0
   -3.1050   25.2880  -30.4530 H   0  0  0  0  0  0  0  0  0  0  0  0
   -7.9670   24.3026  -30.8539 H   0  0  0  0  0  0  0  0  0  0  0  0
   -9.2753   21.8881  -31.6531 H   0  0  0  0  0  0  0  0  0  0  0  0
   -8.8454   19.4812  -32.2455 H   0  0  0  0  0  0  0  0  0  0  0  0
   -6.1694   17.6208  -31.3866 H   0  0  0  0  0  0  0  0  0  0  0  0
   -7.3555   17.7700  -32.7498 H   0  0  0  0  0  0  0  0  0  0  0  0
   -4.8909   19.0327  -33.5335 H   0  0  0  0  0  0  0  0  0  0  0  0
   -4.5326   17.3771  -32.8859 H   0  0  0  0  0  0  0  0  0  0  0  0
   -4.5772   20.0783  -31.5783 H   0  0  0  0  0  0  0  0  0  0  0  0
   -1.5932   22.5307  -28.4994 H   0  0  0  0  0  0  0  0  0  0  0  0
   -1.0597   22.6620  -30.2076 H   0  0  0  0  0  0  0  0  0  0  0  0
  1  2  1  0
  2  3  2  0
  2  4  1  0
  4  5  2  0
  5  6  1  0
  6  7  2  0
  7  8  1  0
  8  9  2  0
  9 10  1  0
 10 11  1  0
 11 12  1  0
 12 13  2  0
 12 14  1  0
  9 15  1  0
 15 16  2  0
 16 17  1  0
 17 18  1  0
 18 19  2  0
 18 20  1  0
 20 21  1  0
 21 22  1  0
 22 23  2  0
 22 24  1  0
 17  4  1  0
 16  6  1  0
  1 25  1  0
  5 26  1  0
  7 27  1  0
  8 28  1  0
 10 29  1  0
 10 30  1  0
 11 31  1  0
 11 32  1  0
 15 33  1  0
 21 34  1  0
 21 35  1  0
M  CHG  3   1  -1  14  -1  24  -1
M  END
>  <UniqueID>  (70) 
68

>  <SMILES>  (70) 
[NH-]C(=O)c1cc2ccc(CCC(=O)[O-])cc2n1C(=O)OCC(=O)[O-]

>  <Energy>  (70) 
67.71495454914734

>  <Genealogy>  (70) 
[NH-]C(=O)c1cc2ccc(CCC(=O)[O-])cc2n1C(=O)OCC(=O)[O-] (protonated)
[NH-]C(=O)c1cc2ccc(CCC(=O)[O-])cc2n1C(=O)OCC(=O)[O-] (3D coordinates assigned)
[NH-]C(=O)c1cc2ccc(CCC(=O)[O-])cc2n1C(=O)OCC(=O)[O-] (optimized conformer: 67.71495454914734 kcal/mol)

>  <smiles>  (70) 
NC(=O)c1cc2ccc(CCC(=O)O)cc2n1C(=O)OCC(=O)O

>  <score_type>  (70) 
oracle

>  <origin>  (70) 
adg

>  <m_score__min__energy>  (70) 
-12.23

>  <m_primary>  (70) 
energy

$$$$
72:0
     RDKit          3D

 34 35  0  0  0  0  0  0  0  0999 V2000
   -7.1690   17.3880  -32.5430 C   0  0  0  0  0  0  0  0  0  0  0  0
   -6.7100   18.5620  -33.2930 N   0  0  0  0  0  0  0  0  0  0  0  0
   -6.0950   18.3730  -34.6180 C   0  0  0  0  0  0  0  0  0  0  0  0
   -4.6150   18.1850  -34.4880 C   0  0  0  0  0  0  0  0  0  0  0  0
   -4.1070   17.0460  -34.6530 O   0  0  0  0  0  0  0  0  0  0  0  0
   -3.7950   19.2720  -34.2110 O   0  0  0  0  0  0  0  0  0  0  0  0
   -6.8890   19.8860  -32.7340 C   0  0  0  0  0  0  0  0  0  0  0  0
   -8.1900   20.4340  -32.5670 C   0  0  0  0  0  0  0  0  0  0  0  0
   -8.3690   21.7210  -32.0310 C   0  0  0  0  0  0  0  0  0  0  0  0
   -7.2370   22.4380  -31.6620 C   0  0  0  0  0  0  0  0  0  0  0  0
   -7.1210   23.7100  -31.1480 C   0  0  0  0  0  0  0  0  0  0  0  0
   -5.7530   23.9210  -30.9870 C   0  0  0  0  0  0  0  0  0  0  0  0
   -5.1770   25.1540  -30.4100 C   0  0  0  0  0  0  0  0  0  0  0  0
   -3.9260   25.6640  -30.8600 N   0  0  0  0  0  0  0  0  0  0  0  0
   -5.7880   25.7540  -29.4840 O   0  0  0  0  0  0  0  0  0  0  0  0
   -5.0530   22.8210  -31.3850 N   0  0  0  0  0  0  0  0  0  0  0  0
   -3.6280   22.6610  -31.4400 C   0  0  0  0  0  0  0  0  0  0  0  0
   -2.9090   23.1400  -30.5230 O   0  0  0  0  0  0  0  0  0  0  0  0
   -2.9850   21.9250  -32.5740 C   0  0  0  0  0  0  0  0  0  0  0  0
   -1.8680   20.6920  -31.9400 Cl  0  0  0  0  0  0  0  0  0  0  0  0
   -5.9750   21.9260  -31.8000 C   0  0  0  0  0  0  0  0  0  0  0  0
   -5.7630   20.6570  -32.3500 C   0  0  0  0  0  0  0  0  0  0  0  0
   -7.0906   17.5884  -31.4643 H   0  0  0  0  0  0  0  0  0  0  0  0
   -8.2168   17.1746  -32.8011 H   0  0  0  0  0  0  0  0  0  0  0  0
   -6.5438   16.5205  -32.8011 H   0  0  0  0  0  0  0  0  0  0  0  0
   -6.5321   17.4841  -35.0963 H   0  0  0  0  0  0  0  0  0  0  0  0
   -6.2874   19.2666  -35.2299 H   0  0  0  0  0  0  0  0  0  0  0  0
   -9.0693   19.8423  -32.8615 H   0  0  0  0  0  0  0  0  0  0  0  0
   -9.3751   22.1480  -31.9072 H   0  0  0  0  0  0  0  0  0  0  0  0
   -7.9356   24.4112  -30.9140 H   0  0  0  0  0  0  0  0  0  0  0  0
   -3.0260   25.2980  -30.4780 H   0  0  0  0  0  0  0  0  0  0  0  0
   -3.7626   21.4361  -33.1792 H   0  0  0  0  0  0  0  0  0  0  0  0
   -2.4231   22.6373  -33.1959 H   0  0  0  0  0  0  0  0  0  0  0  0
   -4.7435   20.2656  -32.4817 H   0  0  0  0  0  0  0  0  0  0  0  0
  1  2  1  0
  2  3  1  0
  3  4  1  0
  4  5  2  0
  4  6  1  0
  2  7  1  0
  7  8  2  0
  8  9  1  0
  9 10  2  0
 10 11  1  0
 11 12  2  0
 12 13  1  0
 13 14  1  0
 13 15  2  0
 12 16  1  0
 16 17  1  0
 17 18  2  0
 17 19  1  0
 19 20  1  0
 16 21  1  0
 21 22  2  0
 22  7  1  0
 21 10  1  0
  1 23  1  0
  1 24  1  0
  1 25  1  0
  3 26  1  0
  3 27  1  0
  8 28  1  0
  9 29  1  0
 11 30  1  0
 14 31  1  0
 19 32  1  0
 19 33  1  0
 22 34  1  0
M  CHG  2   6  -1  14  -1
M  END
>  <UniqueID>  (71) 
69

>  <SMILES>  (71) 
CN(CC(=O)[O-])c1ccc2cc(C([NH-])=O)n(C(=O)CCl)c2c1

>  <Energy>  (71) 
74.32895419159874

>  <Genealogy>  (71) 
CN(CC(=O)[O-])c1ccc2cc(C([NH-])=O)n(C(=O)CCl)c2c1 (protonated)
CN(CC(=O)[O-])c1ccc2cc(C([NH-])=O)n(C(=O)CCl)c2c1 (3D coordinates assigned)
CN(CC(=O)[O-])c1ccc2cc(C([NH-])=O)n(C(=O)CCl)c2c1 (optimized conformer: 74.32895419159874 kcal/mol)

>  <smiles>  (71) 
CN(CC(=O)O)c1ccc2cc(C(N)=O)n(C(=O)CCl)c2c1

>  <score_type>  (71) 
oracle

>  <origin>  (71) 
adg

>  <m_score__min__energy>  (71) 
-9.7200000000000006

>  <m_primary>  (71) 
energy

$$$$
73:0
     RDKit          3D

 35 36  0  0  0  0  0  0  0  0999 V2000
   -6.5440   17.9020  -32.5680 C   0  0  0  0  0  0  0  0  0  0  0  0
   -7.3680   18.8090  -33.3680 N   0  0  0  0  0  0  0  0  0  0  0  0
   -7.4250   20.1080  -32.7460 C   0  0  0  0  0  0  0  0  0  0  0  0
   -8.6780   20.6740  -32.3900 C   0  0  0  0  0  0  0  0  0  0  0  0
   -8.7450   21.9320  -31.7690 C   0  0  0  0  0  0  0  0  0  0  0  0
   -7.5500   22.5920  -31.5010 C   0  0  0  0  0  0  0  0  0  0  0  0
   -7.3300   23.8250  -30.9300 C   0  0  0  0  0  0  0  0  0  0  0  0
   -5.9450   23.9820  -30.9140 C   0  0  0  0  0  0  0  0  0  0  0  0
   -5.2670   25.1420  -30.3000 C   0  0  0  0  0  0  0  0  0  0  0  0
   -4.0430   25.6410  -30.8330 N   0  0  0  0  0  0  0  0  0  0  0  0
   -5.7490   25.6700  -29.2630 O   0  0  0  0  0  0  0  0  0  0  0  0
   -5.3330   22.8930  -31.4590 N   0  0  0  0  0  0  0  0  0  0  0  0
   -3.9310   22.7100  -31.7110 C   0  0  0  0  0  0  0  0  0  0  0  0
   -3.5530   22.0350  -32.7080 O   0  0  0  0  0  0  0  0  0  0  0  0
   -2.9910   23.3030  -30.8620 O   0  0  0  0  0  0  0  0  0  0  0  0
   -2.8670   22.9630  -29.4860 C   0  0  1  0  0  0  0  0  0  0  0  0
   -1.4930   21.8380  -29.3160 Cl  0  0  0  0  0  0  0  0  0  0  0  0
   -2.6110   24.1370  -28.7400 O   0  0  0  0  0  0  0  0  0  0  0  0
   -3.4450   24.1850  -27.6040 C   0  0  0  0  0  0  0  0  0  0  0  0
   -6.3300   22.0500  -31.8120 C   0  0  0  0  0  0  0  0  0  0  0  0
   -6.2330   20.8070  -32.4480 C   0  0  0  0  0  0  0  0  0  0  0  0
   -6.7188   18.0944  -31.4991 H   0  0  0  0  0  0  0  0  0  0  0  0
   -6.8117   16.8610  -32.8018 H   0  0  0  0  0  0  0  0  0  0  0  0
   -5.4822   18.0689  -32.8018 H   0  0  0  0  0  0  0  0  0  0  0  0
   -6.9610   18.8870  -34.3290 H   0  0  0  0  0  0  0  0  0  0  0  0
   -8.3320   18.4090  -33.4570 H   0  0  0  0  0  0  0  0  0  0  0  0
   -9.6052   20.1217  -32.6027 H   0  0  0  0  0  0  0  0  0  0  0  0
   -9.7129   22.3817  -31.5026 H   0  0  0  0  0  0  0  0  0  0  0  0
   -8.0861   24.5352  -30.5642 H   0  0  0  0  0  0  0  0  0  0  0  0
   -3.1220   25.3050  -30.4720 H   0  0  0  0  0  0  0  0  0  0  0  0
   -3.7913   22.4940  -29.1176 H   0  0  0  0  0  0  0  0  0  0  0  0
   -2.8277   24.1495  -26.6942 H   0  0  0  0  0  0  0  0  0  0  0  0
   -4.0273   25.1181  -27.6158 H   0  0  0  0  0  0  0  0  0  0  0  0
   -4.1305   23.3248  -27.6158 H   0  0  0  0  0  0  0  0  0  0  0  0
   -5.2520   20.3839  -32.7099 H   0  0  0  0  0  0  0  0  0  0  0  0
  1  2  1  0
  2  3  1  0
  3  4  2  0
  4  5  1  0
  5  6  2  0
  6  7  1  0
  7  8  2  0
  8  9  1  0
  9 10  1  0
  9 11  2  0
  8 12  1  0
 12 13  1  0
 13 14  2  0
 13 15  1  0
 15 16  1  0
 16 17  1  0
 16 18  1  0
 18 19  1  0
 12 20  1  0
 20 21  2  0
 21  3  1  0
 20  6  1  0
  1 22  1  0
  1 23  1  0
  1 24  1  0
  2 25  1  0
  2 26  1  0
  4 27  1  0
  5 28  1  0
  7 29  1  0
 10 30  1  0
 16 31  1  1
 19 32  1  0
 19 33  1  0
 19 34  1  0
 21 35  1  0
M  CHG  2   2   1  10  -1
M  END
>  <UniqueID>  (72) 
70

>  <SMILES>  (72) 
C[NH2+]c1ccc2cc(C([NH-])=O)n(C(=O)O[C@@H](Cl)OC)c2c1

>  <Energy>  (72) 
73.97377216158772

>  <Genealogy>  (72) 
C[NH2+]c1ccc2cc(C([NH-])=O)n(C(=O)OC(Cl)OC)c2c1 (protonated)
C[NH2+]c1ccc2cc(C([NH-])=O)n(C(=O)O[C@@H](Cl)OC)c2c1 (chirality)
C[NH2+]c1ccc2cc(C([NH-])=O)n(C(=O)O[C@@H](Cl)OC)c2c1 (3D coordinates assigned)
C[NH2+]c1ccc2cc(C([NH-])=O)n(C(=O)O[C@@H](Cl)OC)c2c1 (optimized conformer: 73.97377216158772 kcal/mol)

>  <smiles>  (72) 
CNc1ccc2cc(C(N)=O)n(C(=O)OC(Cl)OC)c2c1

>  <score_type>  (72) 
oracle

>  <origin>  (72) 
adg

>  <m_score__min__energy>  (72) 
-9.1199999999999992

>  <m_primary>  (72) 
energy

$$$$
74:0
     RDKit          3D

 47 48  0  0  0  0  0  0  0  0999 V2000
   -6.6840   18.2930  -33.1430 C   0  0  0  0  0  0  0  0  0  0  0  0
   -7.9410   18.7500  -32.4090 C   0  0  0  0  0  0  0  0  0  0  0  0
   -7.8320   20.1990  -32.0220 C   0  0  0  0  0  0  0  0  0  0  0  0
   -8.9970   21.0040  -31.9520 C   0  0  0  0  0  0  0  0  0  0  0  0
   -8.9070   22.3660  -31.6140 C   0  0  0  0  0  0  0  0  0  0  0  0
   -7.6420   22.8940  -31.3680 C   0  0  0  0  0  0  0  0  0  0  0  0
   -7.2720   24.1680  -31.0010 C   0  0  0  0  0  0  0  0  0  0  0  0
   -5.8840   24.1300  -30.8850 C   0  0  0  0  0  0  0  0  0  0  0  0
   -5.0600   25.3190  -30.5810 C   0  0  0  0  0  0  0  0  0  0  0  0
   -3.6470   25.1870  -30.4450 N   0  0  0  0  0  0  0  0  0  0  0  0
   -5.5940   26.4470  -30.4080 O   0  0  0  0  0  0  0  0  0  0  0  0
   -5.4150   22.8800  -31.1620 N   0  0  0  0  0  0  0  0  0  0  0  0
   -4.0600   22.4130  -31.0690 C   0  0  0  0  0  0  0  0  0  0  0  0
   -3.1390   23.0280  -31.6730 O   0  0  0  0  0  0  0  0  0  0  0  0
   -3.7750   21.2600  -30.3320 O   0  0  0  0  0  0  0  0  0  0  0  0
   -3.0610   21.2830  -29.1010 C   0  0  0  0  0  0  0  0  0  0  0  0
   -2.4160   22.5420  -28.9430 O   0  0  0  0  0  0  0  0  0  0  0  0
   -2.6920   23.4050  -27.8780 C   0  0  0  0  0  0  0  0  0  0  0  0
   -3.7960   24.0150  -27.8300 O   0  0  0  0  0  0  0  0  0  0  0  0
   -1.7140   23.5960  -26.8400 N   0  0  0  0  0  0  0  0  0  0  0  0
   -0.6530   22.6010  -26.6680 C   0  0  0  0  0  0  0  0  0  0  0  0
   -1.7530   24.7920  -25.9880 C   0  0  0  0  0  0  0  0  0  0  0  0
   -1.6560   26.0540  -26.8480 C   0  0  0  0  0  0  0  0  0  0  0  0
   -0.7680   25.8190  -28.0290 C   0  0  0  0  0  0  0  0  0  0  0  0
    0.3940   25.3620  -27.8670 O   0  0  0  0  0  0  0  0  0  0  0  0
   -1.2380   26.0650  -29.3140 O   0  0  0  0  0  0  0  0  0  0  0  0
   -6.5040   22.1360  -31.4580 C   0  0  0  0  0  0  0  0  0  0  0  0
   -6.5650   20.7740  -31.7760 C   0  0  0  0  0  0  0  0  0  0  0  0
   -5.9130   18.0127  -32.4102 H   0  0  0  0  0  0  0  0  0  0  0  0
   -6.9232   17.4243  -33.7740 H   0  0  0  0  0  0  0  0  0  0  0  0
   -6.3095   19.1125  -33.7740 H   0  0  0  0  0  0  0  0  0  0  0  0
   -8.8123   18.6163  -33.0670 H   0  0  0  0  0  0  0  0  0  0  0  0
   -8.0568   18.1474  -31.4961 H   0  0  0  0  0  0  0  0  0  0  0  0
   -9.9804   20.5590  -32.1641 H   0  0  0  0  0  0  0  0  0  0  0  0
   -9.8072   22.9945  -31.5461 H   0  0  0  0  0  0  0  0  0  0  0  0
   -7.9318   25.0323  -30.8347 H   0  0  0  0  0  0  0  0  0  0  0  0
   -3.2300   24.3770  -29.9360 H   0  0  0  0  0  0  0  0  0  0  0  0
   -3.7625   21.1247  -28.2686 H   0  0  0  0  0  0  0  0  0  0  0  0
   -2.3045   20.4844  -29.1041 H   0  0  0  0  0  0  0  0  0  0  0  0
   -0.4762   22.4352  -25.5950 H   0  0  0  0  0  0  0  0  0  0  0  0
   -0.9574   21.6551  -27.1399 H   0  0  0  0  0  0  0  0  0  0  0  0
    0.2714   22.9654  -27.1399 H   0  0  0  0  0  0  0  0  0  0  0  0
   -2.6980   24.8071  -25.4252 H   0  0  0  0  0  0  0  0  0  0  0  0
   -0.9025   24.7652  -25.2909 H   0  0  0  0  0  0  0  0  0  0  0  0
   -2.6609   26.3296  -27.2004 H   0  0  0  0  0  0  0  0  0  0  0  0
   -1.2303   26.8658  -26.2400 H   0  0  0  0  0  0  0  0  0  0  0  0
   -5.6496   20.1667  -31.8329 H   0  0  0  0  0  0  0  0  0  0  0  0
  1  2  1  0
  2  3  1  0
  3  4  2  0
  4  5  1  0
  5  6  2  0
  6  7  1  0
  7  8  2  0
  8  9  1  0
  9 10  1  0
  9 11  2  0
  8 12  1  0
 12 13  1  0
 13 14  2  0
 13 15  1  0
 15 16  1  0
 16 17  1  0
 17 18  1  0
 18 19  2  0
 18 20  1  0
 20 21  1  0
 20 22  1  0
 22 23  1  0
 23 24  1  0
 24 25  2  0
 24 26  1  0
 12 27  1  0
 27 28  2  0
 28  3  1  0
 27  6  1  0
  1 29  1  0
  1 30  1  0
  1 31  1  0
  2 32  1  0
  2 33  1  0
  4 34  1  0
  5 35  1  0
  7 36  1  0
 10 37  1  0
 16 38  1  0
 16 39  1  0
 21 40  1  0
 21 41  1  0
 21 42  1  0
 22 43  1  0
 22 44  1  0
 23 45  1  0
 23 46  1  0
 28 47  1  0
M  CHG  2  10  -1  26  -1
M  END
>  <UniqueID>  (73) 
71

>  <SMILES>  (73) 
CCc1ccc2cc(C([NH-])=O)n(C(=O)OCOC(=O)N(C)CCC(=O)[O-])c2c1

>  <Energy>  (73) 
72.59744639199282

>  <Genealogy>  (73) 
CCc1ccc2cc(C([NH-])=O)n(C(=O)OCOC(=O)N(C)CCC(=O)[O-])c2c1 (protonated)
CCc1ccc2cc(C([NH-])=O)n(C(=O)OCOC(=O)N(C)CCC(=O)[O-])c2c1 (3D coordinates assigned)
CCc1ccc2cc(C([NH-])=O)n(C(=O)OCOC(=O)N(C)CCC(=O)[O-])c2c1 (optimized conformer: 72.59744639199282 kcal/mol)

>  <smiles>  (73) 
CCc1ccc2cc(C(N)=O)n(C(=O)OCOC(=O)N(C)CCC(=O)O)c2c1

>  <score_type>  (73) 
oracle

>  <origin>  (73) 
adg

>  <m_score__min__energy>  (73) 
-12.27

>  <m_primary>  (73) 
energy

$$$$
75:0
     RDKit          3D

 33 34  0  0  0  0  0  0  0  0999 V2000
   -3.9170   25.4540  -30.8310 N   0  0  0  0  0  0  0  0  0  0  0  0
   -5.2820   25.1880  -30.5170 C   0  0  0  0  0  0  0  0  0  0  0  0
   -5.9260   26.0130  -29.8170 O   0  0  0  0  0  0  0  0  0  0  0  0
   -5.9330   23.9340  -30.9540 C   0  0  0  0  0  0  0  0  0  0  0  0
   -7.1650   23.8950  -31.6020 C   0  0  0  0  0  0  0  0  0  0  0  0
   -7.4620   22.5590  -31.7420 C   0  0  0  0  0  0  0  0  0  0  0  0
   -8.5690   21.9420  -32.3170 C   0  0  0  0  0  0  0  0  0  0  0  0
   -8.6040   20.5370  -32.3380 C   0  0  0  0  0  0  0  0  0  0  0  0
   -7.5300   19.7820  -31.8060 C   0  0  0  0  0  0  0  0  0  0  0  0
   -7.5920   18.2830  -31.8100 C   0  0  0  0  0  0  0  0  0  0  0  0
   -8.9040   17.8750  -31.9540 F   0  0  0  0  0  0  0  0  0  0  0  0
   -6.4290   20.4410  -31.2180 C   0  0  0  0  0  0  0  0  0  0  0  0
   -6.4290   21.8400  -31.1950 C   0  0  0  0  0  0  0  0  0  0  0  0
   -5.4800   22.6710  -30.7110 N   0  0  0  0  0  0  0  0  0  0  0  0
   -4.2280   22.2790  -30.1300 C   0  0  0  0  0  0  0  0  0  0  0  0
   -3.3870   21.6400  -30.8190 O   0  0  0  0  0  0  0  0  0  0  0  0
   -3.9530   22.5990  -28.7970 O   0  0  0  0  0  0  0  0  0  0  0  0
   -2.6780   22.3900  -28.1930 C   0  0  0  0  0  0  0  0  0  0  0  0
   -2.1480   23.6020  -27.7050 O   0  0  0  0  0  0  0  0  0  0  0  0
   -1.2830   24.3770  -28.9550 P   0  0  2  0  0  0  0  0  0  0  0  0
    0.1970   24.1950  -28.7100 O   0  0  0  0  0  0  0  0  0  0  0  0
   -1.6370   26.0320  -28.9710 O   0  0  0  0  0  0  0  0  0  0  0  0
   -1.6810   23.6960  -30.4540 O   0  0  0  0  0  0  0  0  0  0  0  0
   -3.1590   25.2610  -30.1390 H   0  0  0  0  0  0  0  0  0  0  0  0
   -7.7720   24.7510  -31.9320 H   0  0  0  0  0  0  0  0  0  0  0  0
   -9.3916   22.5358  -32.7421 H   0  0  0  0  0  0  0  0  0  0  0  0
   -9.4726   20.0195  -32.7712 H   0  0  0  0  0  0  0  0  0  0  0  0
   -6.9934   17.8938  -32.6468 H   0  0  0  0  0  0  0  0  0  0  0  0
   -7.1911   17.8977  -30.8609 H   0  0  0  0  0  0  0  0  0  0  0  0
   -5.5927   19.8696  -30.7890 H   0  0  0  0  0  0  0  0  0  0  0  0
   -2.7867   21.6823  -27.3580 H   0  0  0  0  0  0  0  0  0  0  0  0
   -1.9915   21.9863  -28.9517 H   0  0  0  0  0  0  0  0  0  0  0  0
   -2.6720   23.6750  -30.4660 H   0  0  0  0  0  0  0  0  0  0  0  0
  1  2  1  0
  2  3  2  0
  2  4  1  0
  4  5  2  0
  5  6  1  0
  6  7  2  0
  7  8  1  0
  8  9  2  0
  9 10  1  0
 10 11  1  0
  9 12  1  0
 12 13  2  0
 13 14  1  0
 14 15  1  0
 15 16  2  0
 15 17  1  0
 17 18  1  0
 18 19  1  0
 19 20  1  0
 20 21  2  0
 20 22  1  6
 20 23  1  0
 14  4  1  0
 13  6  1  0
  1 24  1  0
  5 25  1  0
  7 26  1  0
  8 27  1  0
 10 28  1  0
 10 29  1  0
 12 30  1  0
 18 31  1  0
 18 32  1  0
 23 33  1  0
M  CHG  2   1  -1  22  -1
M  END
>  <UniqueID>  (74) 
72

>  <SMILES>  (74) 
[NH-]C(=O)c1cc2ccc(CF)cc2n1C(=O)OCO[P@](=O)([O-])O

>  <Energy>  (74) 
68.44252071504054

>  <Genealogy>  (74) 
[NH-]C(=O)c1cc2ccc(CF)cc2n1C(=O)OCOP(=O)([O-])O (protonated)
[NH-]C(=O)c1cc2ccc(CF)cc2n1C(=O)OCO[P@](=O)([O-])O (chirality)
[NH-]C(=O)c1cc2ccc(CF)cc2n1C(=O)OCO[P@](=O)([O-])O (3D coordinates assigned)
[NH-]C(=O)c1cc2ccc(CF)cc2n1C(=O)OCO[P@](=O)([O-])O (optimized conformer: 68.44252071504054 kcal/mol)

>  <smiles>  (74) 
NC(=O)c1cc2ccc(CF)cc2n1C(=O)OCOP(=O)(O)O

>  <score_type>  (74) 
oracle

>  <origin>  (74) 
adg

>  <m_score__min__energy>  (74) 
-11.91

>  <m_primary>  (74) 
energy

$$$$
76:0
     RDKit          3D

 59 62  0  0  0  0  0  0  0  0999 V2000
   -8.2860   18.5450  -32.3000 C   0  0  0  0  0  0  0  0  0  0  0  0
   -7.2370   18.0520  -33.2060 N   0  0  0  0  0  0  0  0  0  0  0  0
   -6.3700   17.0550  -32.5510 C   0  0  0  0  0  0  0  0  0  0  0  0
   -5.0450   16.8650  -33.3200 C   0  0  1  0  0  0  0  0  0  0  0  0
   -5.2330   17.1190  -34.8260 C   0  0  0  0  0  0  0  0  0  0  0  0
   -5.7360   18.5470  -35.0990 C   0  0  0  0  0  0  0  0  0  0  0  0
   -6.4730   19.1280  -33.8750 C   0  0  2  0  0  0  0  0  0  0  0  0
   -5.5020   19.8770  -32.9280 C   0  0  0  0  0  0  0  0  0  0  0  0
   -4.2390   19.1830  -32.5840 N   0  0  0  0  0  0  0  0  0  0  0  0
   -3.2270   19.9840  -31.9430 C   0  0  0  0  0  0  0  0  0  0  0  0
   -1.8800   19.5430  -31.9160 C   0  0  0  0  0  0  0  0  0  0  0  0
   -0.8900   20.3080  -31.2820 C   0  0  0  0  0  0  0  0  0  0  0  0
   -1.2670   21.5180  -30.7050 C   0  0  0  0  0  0  0  0  0  0  0  0
   -0.5050   22.4430  -30.0360 C   0  0  0  0  0  0  0  0  0  0  0  0
   -1.3910   23.4510  -29.6740 C   0  0  0  0  0  0  0  0  0  0  0  0
   -0.9830   24.6210  -28.8740 C   0  0  0  0  0  0  0  0  0  0  0  0
   -1.9600   25.5370  -28.3790 N   0  0  0  0  0  0  0  0  0  0  0  0
    0.2270   24.7750  -28.5650 O   0  0  0  0  0  0  0  0  0  0  0  0
   -2.6550   23.1860  -30.1200 N   0  0  0  0  0  0  0  0  0  0  0  0
   -3.7810   24.0930  -30.1150 C   0  0  0  0  0  0  0  0  0  0  0  0
   -3.6360   25.2900  -30.4810 O   0  0  0  0  0  0  0  0  0  0  0  0
   -5.0220   23.6580  -29.6210 O   0  0  0  0  0  0  0  0  0  0  0  0
   -6.3080   23.9020  -30.2030 C   0  0  0  0  0  0  0  0  0  0  0  0
   -6.2260   23.8690  -31.7420 C   0  0  0  0  0  0  0  0  0  0  0  0
   -6.8820   25.2520  -29.7160 C   0  0  0  0  0  0  0  0  0  0  0  0
   -7.2350   22.7710  -29.7280 C   0  0  0  0  0  0  0  0  0  0  0  0
   -2.5610   21.9780  -30.7370 C   0  0  0  0  0  0  0  0  0  0  0  0
   -3.5730   21.2160  -31.3410 C   0  0  0  0  0  0  0  0  0  0  0  0
   -3.9270   17.7450  -32.7350 C   0  0  0  0  0  0  0  0  0  0  0  0
   -7.9694   18.3962  -31.2571 H   0  0  0  0  0  0  0  0  0  0  0  0
   -8.4545   19.6166  -32.4827 H   0  0  0  0  0  0  0  0  0  0  0  0
   -9.2185   17.9909  -32.4827 H   0  0  0  0  0  0  0  0  0  0  0  0
   -6.1447   17.3937  -31.5290 H   0  0  0  0  0  0  0  0  0  0  0  0
   -6.9015   16.0921  -32.5362 H   0  0  0  0  0  0  0  0  0  0  0  0
   -4.7357   15.8165  -33.1978 H   0  0  0  0  0  0  0  0  0  0  0  0
   -4.2686   16.9763  -35.3356 H   0  0  0  0  0  0  0  0  0  0  0  0
   -5.9846   16.4104  -35.2041 H   0  0  0  0  0  0  0  0  0  0  0  0
   -4.8758   19.1900  -35.3372 H   0  0  0  0  0  0  0  0  0  0  0  0
   -6.4413   18.5102  -35.9423 H   0  0  0  0  0  0  0  0  0  0  0  0
   -7.1946   19.8894  -34.2060 H   0  0  0  0  0  0  0  0  0  0  0  0
   -5.2379   20.8308  -33.4081 H   0  0  0  0  0  0  0  0  0  0  0  0
   -6.0454   19.9758  -31.9767 H   0  0  0  0  0  0  0  0  0  0  0  0
   -1.6086   18.5917  -32.3969 H   0  0  0  0  0  0  0  0  0  0  0  0
    0.1535   19.9623  -31.2418 H   0  0  0  0  0  0  0  0  0  0  0  0
    0.5746   22.3966  -29.8305 H   0  0  0  0  0  0  0  0  0  0  0  0
   -1.6830   26.3240  -27.7620 H   0  0  0  0  0  0  0  0  0  0  0  0
   -2.9750   25.3700  -28.5560 H   0  0  0  0  0  0  0  0  0  0  0  0
   -5.2460   23.4746  -32.0486 H   0  0  0  0  0  0  0  0  0  0  0  0
   -7.0221   23.2212  -32.1378 H   0  0  0  0  0  0  0  0  0  0  0  0
   -6.3514   24.8876  -32.1378 H   0  0  0  0  0  0  0  0  0  0  0  0
   -6.8903   25.2715  -28.6162 H   0  0  0  0  0  0  0  0  0  0  0  0
   -6.2556   26.0740  -30.0926 H   0  0  0  0  0  0  0  0  0  0  0  0
   -7.9086   25.3712  -30.0926 H   0  0  0  0  0  0  0  0  0  0  0  0
   -7.2530   22.7491  -28.6284 H   0  0  0  0  0  0  0  0  0  0  0  0
   -8.2522   22.9467  -30.1079 H   0  0  0  0  0  0  0  0  0  0  0  0
   -6.8630   21.8081  -30.1079 H   0  0  0  0  0  0  0  0  0  0  0  0
   -4.6145   21.5699  -31.3461 H   0  0  0  0  0  0  0  0  0  0  0  0
   -3.0519   17.6591  -33.3959 H   0  0  0  0  0  0  0  0  0  0  0  0
   -3.7619   17.3709  -31.7138 H   0  0  0  0  0  0  0  0  0  0  0  0
  1  2  1  0
  2  3  1  0
  3  4  1  0
  4  5  1  0
  5  6  1  0
  6  7  1  0
  7  8  1  0
  8  9  1  0
  9 10  1  0
 10 11  2  0
 11 12  1  0
 12 13  2  0
 13 14  1  0
 14 15  2  0
 15 16  1  0
 16 17  1  0
 16 18  2  0
 15 19  1  0
 19 20  1  0
 20 21  2  0
 20 22  1  0
 22 23  1  0
 23 24  1  0
 23 25  1  0
 23 26  1  0
 19 27  1  0
 27 28  2  0
  9 29  1  0
  7  2  1  0
 28 10  1  0
 29  4  1  0
 27 13  1  0
  1 30  1  0
  1 31  1  0
  1 32  1  0
  3 33  1  0
  3 34  1  0
  4 35  1  6
  5 36  1  0
  5 37  1  0
  6 38  1  0
  6 39  1  0
  7 40  1  6
  8 41  1  0
  8 42  1  0
 11 43  1  0
 12 44  1  0
 14 45  1  0
 17 46  1  0
 17 47  1  0
 24 48  1  0
 24 49  1  0
 24 50  1  0
 25 51  1  0
 25 52  1  0
 25 53  1  0
 26 54  1  0
 26 55  1  0
 26 56  1  0
 28 57  1  0
 29 58  1  0
 29 59  1  0
M  END
>  <UniqueID>  (75) 
73

>  <SMILES>  (75) 
CN1C[C@H]2CC[C@@H]1CN(c1ccc3cc(C(N)=O)n(C(=O)OC(C)(C)C)c3c1)C2

>  <Energy>  (75) 
120.10822686508828

>  <Genealogy>  (75) 
CN1C[C@H]2CC[C@@H]1CN(c1ccc3cc(C(N)=O)n(C(=O)OC(C)(C)C)c3c1)C2 (chirality)
CN1C[C@H]2CC[C@@H]1CN(c1ccc3cc(C(N)=O)n(C(=O)OC(C)(C)C)c3c1)C2 (3D coordinates assigned)
CN1C[C@H]2CC[C@@H]1CN(c1ccc3cc(C(N)=O)n(C(=O)OC(C)(C)C)c3c1)C2 (nonaromatic ring conformer: 120.10822686508828 kcal/mol)

>  <smiles>  (75) 
CN1CC2CCC1CN(c1ccc3cc(C(N)=O)n(C(=O)OC(C)(C)C)c3c1)C2

>  <score_type>  (75) 
oracle

>  <origin>  (75) 
adg

>  <m_score__min__energy>  (75) 
-8.6799999999999997

>  <m_primary>  (75) 
energy

$$$$
77:0
     RDKit          3D

 51 54  0  0  0  0  0  0  0  0999 V2000
   -6.3210   23.8010  -31.8030 C   0  0  0  0  0  0  0  0  0  0  0  0
   -6.3490   23.7970  -30.2630 C   0  0  0  0  0  0  0  0  0  0  0  0
   -7.2840   22.6880  -29.7400 C   0  0  0  0  0  0  0  0  0  0  0  0
   -6.8690   25.1560  -29.7700 C   0  0  0  0  0  0  0  0  0  0  0  0
   -5.0230   23.6360  -29.7390 O   0  0  0  0  0  0  0  0  0  0  0  0
   -3.8290   24.0560  -30.3460 C   0  0  0  0  0  0  0  0  0  0  0  0
   -3.7200   25.2190  -30.8170 O   0  0  0  0  0  0  0  0  0  0  0  0
   -2.7130   23.1540  -30.4090 N   0  0  0  0  0  0  0  0  0  0  0  0
   -1.4390   23.3720  -29.9730 C   0  0  0  0  0  0  0  0  0  0  0  0
   -0.9840   24.5220  -29.1620 C   0  0  0  0  0  0  0  0  0  0  0  0
   -1.8320   25.6460  -28.9430 N   0  0  0  0  0  0  0  0  0  0  0  0
    0.1460   24.4830  -28.6050 O   0  0  0  0  0  0  0  0  0  0  0  0
   -0.6140   22.3020  -30.3110 C   0  0  0  0  0  0  0  0  0  0  0  0
   -1.4290   21.4050  -30.9630 C   0  0  0  0  0  0  0  0  0  0  0  0
   -1.1320   20.1620  -31.5160 C   0  0  0  0  0  0  0  0  0  0  0  0
   -2.1720   19.4550  -32.1410 C   0  0  0  0  0  0  0  0  0  0  0  0
   -3.4740   20.0010  -32.2070 C   0  0  0  0  0  0  0  0  0  0  0  0
   -4.5280   19.2630  -32.8290 N   0  0  0  0  0  0  0  0  0  0  0  0
   -4.9070   17.8500  -33.0140 C   0  0  0  0  0  0  0  0  0  0  0  0
   -6.2070   18.1300  -33.7300 C   0  0  0  0  0  0  0  0  0  0  0  0
   -6.1630   17.7610  -35.0830 O   0  0  0  0  0  0  0  0  0  0  0  0
   -7.5830   17.8140  -33.0800 C   0  0  0  0  0  0  0  0  0  0  0  0
   -7.7270   18.1630  -31.6060 C   0  0  0  0  0  0  0  0  0  0  0  0
   -8.4950   18.9590  -32.6550 C   0  0  0  0  0  0  0  0  0  0  0  0
   -5.7880   19.5590  -33.5390 C   0  0  0  0  0  0  0  0  0  0  0  0
   -3.7400   21.2650  -31.6430 C   0  0  0  0  0  0  0  0  0  0  0  0
   -2.6910   21.9420  -31.0090 C   0  0  0  0  0  0  0  0  0  0  0  0
   -5.2878   23.9486  -32.1506 H   0  0  0  0  0  0  0  0  0  0  0  0
   -6.7006   22.8395  -32.1791 H   0  0  0  0  0  0  0  0  0  0  0  0
   -6.9546   24.6178  -32.1791 H   0  0  0  0  0  0  0  0  0  0  0  0
   -7.2796   22.6932  -28.6400 H   0  0  0  0  0  0  0  0  0  0  0  0
   -8.3064   22.8687  -30.1034 H   0  0  0  0  0  0  0  0  0  0  0  0
   -6.9330   21.7109  -30.1034 H   0  0  0  0  0  0  0  0  0  0  0  0
   -6.8742   25.1695  -28.6701 H   0  0  0  0  0  0  0  0  0  0  0  0
   -6.2137   25.9567  -30.1435 H   0  0  0  0  0  0  0  0  0  0  0  0
   -7.8914   25.3148  -30.1435 H   0  0  0  0  0  0  0  0  0  0  0  0
   -2.8030   25.6710  -29.3250 H   0  0  0  0  0  0  0  0  0  0  0  0
    0.4607   22.1963  -30.1014 H   0  0  0  0  0  0  0  0  0  0  0  0
   -0.1146   19.7469  -31.4649 H   0  0  0  0  0  0  0  0  0  0  0  0
   -1.9716   18.4678  -32.5830 H   0  0  0  0  0  0  0  0  0  0  0  0
   -4.1895   17.2952  -33.6365 H   0  0  0  0  0  0  0  0  0  0  0  0
   -4.9548   17.2204  -32.1133 H   0  0  0  0  0  0  0  0  0  0  0  0
   -6.5750   18.5090  -35.5890 H   0  0  0  0  0  0  0  0  0  0  0  0
   -7.7281   16.9209  -33.7056 H   0  0  0  0  0  0  0  0  0  0  0  0
   -8.2648   17.4822  -30.9298 H   0  0  0  0  0  0  0  0  0  0  0  0
   -7.0282   18.4167  -30.7952 H   0  0  0  0  0  0  0  0  0  0  0  0
   -9.5868   18.8522  -32.7364 H   0  0  0  0  0  0  0  0  0  0  0  0
   -8.5802   20.0243  -32.9156 H   0  0  0  0  0  0  0  0  0  0  0  0
   -5.6246   20.0839  -34.4918 H   0  0  0  0  0  0  0  0  0  0  0  0
   -6.5019   20.2256  -33.0330 H   0  0  0  0  0  0  0  0  0  0  0  0
   -4.7453   21.7080  -31.6994 H   0  0  0  0  0  0  0  0  0  0  0  0
  1  2  1  0
  2  3  1  0
  2  4  1  0
  2  5  1  0
  5  6  1  0
  6  7  2  0
  6  8  1  0
  8  9  1  0
  9 10  1  0
 10 11  1  0
 10 12  2  0
  9 13  2  0
 13 14  1  0
 14 15  2  0
 15 16  1  0
 16 17  2  0
 17 18  1  0
 18 19  1  0
 19 20  1  0
 20 21  1  0
 20 22  1  0
 22 23  1  0
 23 24  1  0
 20 25  1  0
 17 26  1  0
 26 27  2  0
 27  8  1  0
 27 14  1  0
 25 18  1  0
 24 22  1  0
  1 28  1  0
  1 29  1  0
  1 30  1  0
  3 31  1  0
  3 32  1  0
  3 33  1  0
  4 34  1  0
  4 35  1  0
  4 36  1  0
 11 37  1  0
 13 38  1  0
 15 39  1  0
 16 40  1  0
 19 41  1  0
 19 42  1  0
 21 43  1  0
 22 44  1  0
 23 45  1  0
 23 46  1  0
 24 47  1  0
 24 48  1  0
 25 49  1  0
 25 50  1  0
 26 51  1  0
M  CHG  1  11  -1
M  END
>  <UniqueID>  (76) 
74

>  <SMILES>  (76) 
CC(C)(C)OC(=O)n1c(C([NH-])=O)cc2ccc(N3CC(O)(C4CC4)C3)cc21

>  <Energy>  (76) 
400.77248455721536

>  <Genealogy>  (76) 
CC(C)(C)OC(=O)n1c(C([NH-])=O)cc2ccc(N3CC(O)(C4CC4)C3)cc21 (protonated)
CC(C)(C)OC(=O)n1c(C([NH-])=O)cc2ccc(N3CC(O)(C4CC4)C3)cc21 (3D coordinates assigned)
CC(C)(C)OC(=O)n1c(C([NH-])=O)cc2ccc(N3CC(O)(C4CC4)C3)cc21 (nonaromatic ring conformer: 400.77248455721536 kcal/mol)

>  <smiles>  (76) 
CC(C)(C)OC(=O)n1c(C(N)=O)cc2ccc(N3CC(O)(C4CC4)C3)cc21

>  <score_type>  (76) 
oracle

>  <origin>  (76) 
adg

>  <m_score__min__energy>  (76) 
-11.630000000000001

>  <m_primary>  (76) 
energy

$$$$
78:0
     RDKit          3D

 39 40  0  0  0  0  0  0  0  0999 V2000
   -0.3070   21.1240  -32.1220 C   0  0  0  0  0  0  0  0  0  0  0  0
   -1.0750   20.6770  -33.2900 N   0  0  0  0  0  0  0  0  0  0  0  0
   -0.3470   20.4100  -34.5410 C   0  0  0  0  0  0  0  0  0  0  0  0
    0.7230   21.4730  -34.7860 C   0  0  0  0  0  0  0  0  0  0  0  0
    0.1140   22.6550  -35.2260 O   0  0  0  0  0  0  0  0  0  0  0  0
   -2.5170   20.5360  -33.2040 C   0  0  0  0  0  0  0  0  0  0  0  0
   -3.1810   19.4280  -33.8050 C   0  0  0  0  0  0  0  0  0  0  0  0
   -4.5790   19.2950  -33.7390 C   0  0  0  0  0  0  0  0  0  0  0  0
   -5.2960   20.2750  -33.0630 C   0  0  0  0  0  0  0  0  0  0  0  0
   -6.6540   20.4110  -32.8750 C   0  0  0  0  0  0  0  0  0  0  0  0
   -6.8070   21.5870  -32.1420 C   0  0  0  0  0  0  0  0  0  0  0  0
   -8.1150   22.0950  -31.6770 C   0  0  0  0  0  0  0  0  0  0  0  0
   -8.5360   23.4310  -31.9590 N   0  0  0  0  0  0  0  0  0  0  0  0
   -8.8550   21.3490  -30.9820 O   0  0  0  0  0  0  0  0  0  0  0  0
   -5.5950   22.1580  -31.8980 N   0  0  0  0  0  0  0  0  0  0  0  0
   -5.3210   23.4310  -31.2950 C   0  0  0  0  0  0  0  0  0  0  0  0
   -5.8350   24.4760  -31.7790 O   0  0  0  0  0  0  0  0  0  0  0  0
   -4.5300   23.5190  -30.0250 C   0  0  0  0  0  0  0  0  0  0  0  0
   -3.6320   24.7130  -30.0800 C   0  0  0  0  0  0  0  0  0  0  0  0
   -3.9060   25.6770  -30.8440 O   0  0  0  0  0  0  0  0  0  0  0  0
   -2.4620   24.7390  -29.3320 O   0  0  0  0  0  0  0  0  0  0  0  0
   -4.6810   21.3410  -32.4650 C   0  0  0  0  0  0  0  0  0  0  0  0
   -3.2950   21.5100  -32.5280 C   0  0  0  0  0  0  0  0  0  0  0  0
   -0.8285   20.8205  -31.2022 H   0  0  0  0  0  0  0  0  0  0  0  0
    0.6933   20.6670  -32.1442 H   0  0  0  0  0  0  0  0  0  0  0  0
   -0.2102   22.2195  -32.1442 H   0  0  0  0  0  0  0  0  0  0  0  0
    0.1343   19.4231  -34.4742 H   0  0  0  0  0  0  0  0  0  0  0  0
   -1.0627   20.4324  -35.3760 H   0  0  0  0  0  0  0  0  0  0  0  0
    1.2678   21.6674  -33.8504 H   0  0  0  0  0  0  0  0  0  0  0  0
    1.4266   21.1155  -35.5523 H   0  0  0  0  0  0  0  0  0  0  0  0
   -0.8650   22.4920  -35.1840 H   0  0  0  0  0  0  0  0  0  0  0  0
   -2.5895   18.6633  -34.3298 H   0  0  0  0  0  0  0  0  0  0  0  0
   -5.0898   18.4412  -34.2082 H   0  0  0  0  0  0  0  0  0  0  0  0
   -7.4478   19.7361  -33.2278 H   0  0  0  0  0  0  0  0  0  0  0  0
   -7.8800   24.1340  -32.3620 H   0  0  0  0  0  0  0  0  0  0  0  0
   -9.4890   23.7480  -31.6750 H   0  0  0  0  0  0  0  0  0  0  0  0
   -5.2167   23.6155  -29.1711 H   0  0  0  0  0  0  0  0  0  0  0  0
   -3.9237   22.6089  -29.9064 H   0  0  0  0  0  0  0  0  0  0  0  0
   -2.8160   22.3834  -32.0613 H   0  0  0  0  0  0  0  0  0  0  0  0
  1  2  1  0
  2  3  1  0
  3  4  1  0
  4  5  1  0
  2  6  1  0
  6  7  2  0
  7  8  1  0
  8  9  2  0
  9 10  1  0
 10 11  2  0
 11 12  1  0
 12 13  1  0
 12 14  2  0
 11 15  1  0
 15 16  1  0
 16 17  2  0
 16 18  1  0
 18 19  1  0
 19 20  2  0
 19 21  1  0
 15 22  1  0
 22 23  2  0
 23  6  1  0
 22  9  1  0
  1 24  1  0
  1 25  1  0
  1 26  1  0
  3 27  1  0
  3 28  1  0
  4 29  1  0
  4 30  1  0
  5 31  1  0
  7 32  1  0
  8 33  1  0
 10 34  1  0
 13 35  1  0
 13 36  1  0
 18 37  1  0
 18 38  1  0
 23 39  1  0
M  CHG  1  21  -1
M  END
>  <UniqueID>  (77) 
75

>  <SMILES>  (77) 
CN(CCO)c1ccc2cc(C(N)=O)n(C(=O)CC(=O)[O-])c2c1

>  <Energy>  (77) 
76.90267417467201

>  <Genealogy>  (77) 
CN(CCO)c1ccc2cc(C(N)=O)n(C(=O)CC(=O)[O-])c2c1 (protonated)
CN(CCO)c1ccc2cc(C(N)=O)n(C(=O)CC(=O)[O-])c2c1 (3D coordinates assigned)
CN(CCO)c1ccc2cc(C(N)=O)n(C(=O)CC(=O)[O-])c2c1 (optimized conformer: 76.90267417467201 kcal/mol)

>  <smiles>  (77) 
CN(CCO)c1ccc2cc(C(N)=O)n(C(=O)CC(=O)O)c2c1

>  <score_type>  (77) 
oracle

>  <origin>  (77) 
adg

>  <m_score__min__energy>  (77) 
-9.8399999999999999

>  <m_primary>  (77) 
energy

$$$$
79:0
     RDKit          3D

 40 42  0  0  0  0  0  0  0  0999 V2000
   -4.2480   25.6020  -30.7480 N   0  0  0  0  0  0  0  0  0  0  0  0
   -5.5900   25.2390  -30.4170 C   0  0  0  0  0  0  0  0  0  0  0  0
   -6.2810   26.0180  -29.7090 O   0  0  0  0  0  0  0  0  0  0  0  0
   -6.1600   23.9440  -30.8380 C   0  0  0  0  0  0  0  0  0  0  0  0
   -7.4820   23.7790  -31.2440 C   0  0  0  0  0  0  0  0  0  0  0  0
   -7.6130   22.4390  -31.5230 C   0  0  0  0  0  0  0  0  0  0  0  0
   -8.7040   21.7270  -32.0130 C   0  0  0  0  0  0  0  0  0  0  0  0
   -8.5320   20.3610  -32.2860 C   0  0  0  0  0  0  0  0  0  0  0  0
   -7.2800   19.7290  -32.0780 C   0  0  0  0  0  0  0  0  0  0  0  0
   -7.1330   18.3350  -32.4160 N   0  0  0  0  0  0  0  0  0  0  0  0
   -6.5350   17.8460  -33.6590 C   0  0  0  0  0  0  0  0  0  0  0  0
   -5.0900   18.2310  -33.7320 C   0  0  0  0  0  0  0  0  0  0  0  0
   -4.0200   17.3580  -33.7500 C   0  0  0  0  0  0  0  0  0  0  0  0
   -2.8960   18.1530  -33.8160 C   0  0  0  0  0  0  0  0  0  0  0  0
   -3.3480   19.4570  -33.8420 C   0  0  0  0  0  0  0  0  0  0  0  0
   -4.6610   19.4710  -33.7930 O   0  0  0  0  0  0  0  0  0  0  0  0
   -6.1990   20.4850  -31.5630 C   0  0  0  0  0  0  0  0  0  0  0  0
   -6.4020   21.8420  -31.2900 C   0  0  0  0  0  0  0  0  0  0  0  0
   -5.4980   22.7540  -30.8700 N   0  0  0  0  0  0  0  0  0  0  0  0
   -4.0910   22.5340  -30.6850 C   0  0  0  0  0  0  0  0  0  0  0  0
   -3.3000   22.6580  -31.6590 O   0  0  0  0  0  0  0  0  0  0  0  0
   -3.6020   22.1990  -29.4170 O   0  0  0  0  0  0  0  0  0  0  0  0
   -3.0610   23.1570  -28.5110 C   0  0  0  0  0  0  0  0  0  0  0  0
   -2.1010   24.0580  -29.2200 C   0  0  0  0  0  0  0  0  0  0  0  0
   -2.3610   25.2840  -29.3450 O   0  0  0  0  0  0  0  0  0  0  0  0
   -0.9380   23.5420  -29.7760 O   0  0  0  0  0  0  0  0  0  0  0  0
   -3.8790   26.5410  -30.4820 H   0  0  0  0  0  0  0  0  0  0  0  0
   -3.5930   24.9130  -31.1800 H   0  0  0  0  0  0  0  0  0  0  0  0
   -8.2568   24.5557  -31.3244 H   0  0  0  0  0  0  0  0  0  0  0  0
   -9.6726   22.2204  -32.1814 H   0  0  0  0  0  0  0  0  0  0  0  0
   -9.3801   19.7728  -32.6665 H   0  0  0  0  0  0  0  0  0  0  0  0
   -7.4880   17.6180  -31.7420 H   0  0  0  0  0  0  0  0  0  0  0  0
   -6.6199   16.7499  -33.6950 H   0  0  0  0  0  0  0  0  0  0  0  0
   -7.0666   18.2954  -34.5107 H   0  0  0  0  0  0  0  0  0  0  0  0
   -4.0570   16.2591  -33.7183 H   0  0  0  0  0  0  0  0  0  0  0  0
   -1.8492   17.8161  -33.8426 H   0  0  0  0  0  0  0  0  0  0  0  0
   -2.7065   20.3489  -33.8956 H   0  0  0  0  0  0  0  0  0  0  0  0
   -5.2209   20.0155  -31.3816 H   0  0  0  0  0  0  0  0  0  0  0  0
   -3.8789   23.7589  -28.0883 H   0  0  0  0  0  0  0  0  0  0  0  0
   -2.5280   22.6280  -27.7072 H   0  0  0  0  0  0  0  0  0  0  0  0
  1  2  1  0
  2  3  2  0
  2  4  1  0
  4  5  2  0
  5  6  1  0
  6  7  2  0
  7  8  1  0
  8  9  2  0
  9 10  1  0
 10 11  1  0
 11 12  1  0
 12 13  2  0
 13 14  1  0
 14 15  2  0
 15 16  1  0
  9 17  1  0
 17 18  2  0
 18 19  1  0
 19 20  1  0
 20 21  2  0
 20 22  1  0
 22 23  1  0
 23 24  1  0
 24 25  2  0
 24 26  1  0
 19  4  1  0
 18  6  1  0
 16 12  1  0
  1 27  1  0
  1 28  1  0
  5 29  1  0
  7 30  1  0
  8 31  1  0
 10 32  1  0
 11 33  1  0
 11 34  1  0
 13 35  1  0
 14 36  1  0
 15 37  1  0
 17 38  1  0
 23 39  1  0
 23 40  1  0
M  CHG  1  26  -1
M  END
>  <UniqueID>  (78) 
76

>  <SMILES>  (78) 
NC(=O)c1cc2ccc(NCc3ccco3)cc2n1C(=O)OCC(=O)[O-]

>  <Energy>  (78) 
102.70703618194028

>  <Genealogy>  (78) 
NC(=O)c1cc2ccc(NCc3ccco3)cc2n1C(=O)OCC(=O)[O-] (protonated)
NC(=O)c1cc2ccc(NCc3ccco3)cc2n1C(=O)OCC(=O)[O-] (3D coordinates assigned)
NC(=O)c1cc2ccc(NCc3ccco3)cc2n1C(=O)OCC(=O)[O-] (optimized conformer: 102.70703618194028 kcal/mol)

>  <smiles>  (78) 
NC(=O)c1cc2ccc(NCc3ccco3)cc2n1C(=O)OCC(=O)O

>  <score_type>  (78) 
oracle

>  <origin>  (78) 
adg

>  <m_score__min__energy>  (78) 
-10.56

>  <m_primary>  (78) 
energy

$$$$
80:0
     RDKit          3D

 28 29  0  0  0  0  0  0  0  0999 V2000
   -3.7170   25.3020  -30.3950 N   0  0  0  0  0  0  0  0  0  0  0  0
   -5.1390   25.2980  -30.4860 C   0  0  0  0  0  0  0  0  0  0  0  0
   -5.7760   26.3500  -30.2100 O   0  0  0  0  0  0  0  0  0  0  0  0
   -5.8770   24.0730  -30.8590 C   0  0  0  0  0  0  0  0  0  0  0  0
   -7.2590   24.0280  -31.0310 C   0  0  0  0  0  0  0  0  0  0  0  0
   -7.5510   22.7120  -31.3060 C   0  0  0  0  0  0  0  0  0  0  0  0
   -8.7720   22.1020  -31.5800 C   0  0  0  0  0  0  0  0  0  0  0  0
   -8.7730   20.7260  -31.8640 C   0  0  0  0  0  0  0  0  0  0  0  0
   -7.5610   19.9900  -31.8750 C   0  0  0  0  0  0  0  0  0  0  0  0
   -7.5620   18.5230  -32.1970 C   0  0  0  0  0  0  0  0  0  0  0  0
   -8.8340   18.0080  -32.0200 F   0  0  0  0  0  0  0  0  0  0  0  0
   -6.6820   17.8620  -31.3610 F   0  0  0  0  0  0  0  0  0  0  0  0
   -6.3400   20.6440  -31.5960 C   0  0  0  0  0  0  0  0  0  0  0  0
   -6.3730   22.0110  -31.2990 C   0  0  0  0  0  0  0  0  0  0  0  0
   -5.3370   22.8320  -31.0240 N   0  0  0  0  0  0  0  0  0  0  0  0
   -3.9470   22.4700  -31.0020 C   0  0  0  0  0  0  0  0  0  0  0  0
   -3.1640   22.9870  -31.8430 O   0  0  0  0  0  0  0  0  0  0  0  0
   -3.4590   21.5140  -29.9840 C   0  0  0  0  0  0  0  0  0  0  0  0
   -3.3700   21.7480  -28.6670 C   0  0  0  0  0  0  0  0  0  0  0  0
   -3.8310   23.4040  -27.8170 Br  0  0  0  0  0  0  0  0  0  0  0  0
   -2.7080   20.3590  -27.5350 Br  0  0  0  0  0  0  0  0  0  0  0  0
   -3.1250   25.0540  -31.2180 H   0  0  0  0  0  0  0  0  0  0  0  0
   -7.9668   24.8672  -30.9616 H   0  0  0  0  0  0  0  0  0  0  0  0
   -9.7079   22.6800  -31.5743 H   0  0  0  0  0  0  0  0  0  0  0  0
   -9.7228   20.2149  -32.0798 H   0  0  0  0  0  0  0  0  0  0  0  0
   -7.2507   18.3836  -33.2428 H   0  0  0  0  0  0  0  0  0  0  0  0
   -5.3882   20.0928  -31.6119 H   0  0  0  0  0  0  0  0  0  0  0  0
   -3.1408   20.5228  -30.3393 H   0  0  0  0  0  0  0  0  0  0  0  0
  1  2  1  0
  2  3  2  0
  2  4  1  0
  4  5  2  0
  5  6  1  0
  6  7  2  0
  7  8  1  0
  8  9  2  0
  9 10  1  0
 10 11  1  0
 10 12  1  0
  9 13  1  0
 13 14  2  0
 14 15  1  0
 15 16  1  0
 16 17  2  0
 16 18  1  0
 18 19  2  3
 19 20  1  0
 19 21  1  0
 15  4  1  0
 14  6  1  0
  1 22  1  0
  5 23  1  0
  7 24  1  0
  8 25  1  0
 10 26  1  0
 13 27  1  0
 18 28  1  0
M  CHG  1   1  -1
M  END
>  <UniqueID>  (79) 
77

>  <SMILES>  (79) 
[NH-]C(=O)c1cc2ccc(C(F)F)cc2n1C(=O)C=C(Br)Br

>  <Energy>  (79) 
69.95342233407814

>  <Genealogy>  (79) 
[NH-]C(=O)c1cc2ccc(C(F)F)cc2n1C(=O)C=C(Br)Br (protonated)
[NH-]C(=O)c1cc2ccc(C(F)F)cc2n1C(=O)C=C(Br)Br (3D coordinates assigned)
[NH-]C(=O)c1cc2ccc(C(F)F)cc2n1C(=O)C=C(Br)Br (optimized conformer: 69.95342233407814 kcal/mol)

>  <smiles>  (79) 
NC(=O)c1cc2ccc(C(F)F)cc2n1C(=O)C=C(Br)Br

>  <score_type>  (79) 
oracle

>  <origin>  (79) 
adg

>  <m_score__min__energy>  (79) 
-10.83

>  <m_primary>  (79) 
energy

$$$$
81:0
     RDKit          3D

 35 36  0  0  0  0  0  0  0  0999 V2000
   -5.7540   23.7200  -30.0890 N   0  0  0  0  0  0  0  0  0  0  0  0
   -6.6880   23.3090  -31.0890 C   0  0  0  0  0  0  0  0  0  0  0  0
   -7.4330   24.1720  -31.6260 O   0  0  0  0  0  0  0  0  0  0  0  0
   -6.8320   21.8880  -31.4710 C   0  0  0  0  0  0  0  0  0  0  0  0
   -7.9910   21.1460  -31.2560 C   0  0  0  0  0  0  0  0  0  0  0  0
   -7.7050   19.8830  -31.7210 C   0  0  0  0  0  0  0  0  0  0  0  0
   -8.5090   18.7490  -31.7890 C   0  0  0  0  0  0  0  0  0  0  0  0
   -7.9660   17.5900  -32.3710 C   0  0  0  0  0  0  0  0  0  0  0  0
   -6.6350   17.5800  -32.8650 C   0  0  0  0  0  0  0  0  0  0  0  0
   -6.0880   16.3500  -33.5430 C   0  0  0  0  0  0  0  0  0  0  0  0
   -7.1390   15.5710  -33.9890 F   0  0  0  0  0  0  0  0  0  0  0  0
   -5.2940   16.6970  -34.6230 F   0  0  0  0  0  0  0  0  0  0  0  0
   -5.3200   15.6090  -32.6620 F   0  0  0  0  0  0  0  0  0  0  0  0
   -5.8600   18.7610  -32.7980 C   0  0  0  0  0  0  0  0  0  0  0  0
   -6.4220   19.8920  -32.1990 C   0  0  0  0  0  0  0  0  0  0  0  0
   -5.8730   21.1160  -32.0540 N   0  0  0  0  0  0  0  0  0  0  0  0
   -4.6080   21.5330  -32.5880 C   0  0  0  0  0  0  0  0  0  0  0  0
   -4.1670   20.9980  -33.6410 O   0  0  0  0  0  0  0  0  0  0  0  0
   -3.8810   22.6920  -31.9860 C   0  0  0  0  0  0  0  0  0  0  0  0
   -3.5370   22.3570  -30.6580 O   0  0  0  0  0  0  0  0  0  0  0  0
   -2.4490   23.1380  -30.2060 C   0  0  0  0  0  0  0  0  0  0  0  0
   -3.0560   24.7430  -29.5970 P   0  0  0  0  0  0  0  0  0  0  0  0
   -4.0060   24.5140  -28.4450 O   0  0  0  0  0  0  0  0  0  0  0  0
   -3.8620   25.5690  -30.8320 O   0  0  0  0  0  0  0  0  0  0  0  0
   -1.7450   25.6700  -29.0670 O   0  0  0  0  0  0  0  0  0  0  0  0
   -5.2520   23.0240  -29.4960 H   0  0  0  0  0  0  0  0  0  0  0  0
   -5.6280   24.7350  -29.8780 H   0  0  0  0  0  0  0  0  0  0  0  0
   -8.9338   21.4952  -30.8097 H   0  0  0  0  0  0  0  0  0  0  0  0
   -9.5376   18.7592  -31.3994 H   0  0  0  0  0  0  0  0  0  0  0  0
   -8.5798   16.6801  -32.4445 H   0  0  0  0  0  0  0  0  0  0  0  0
   -4.8394   18.7889  -33.2074 H   0  0  0  0  0  0  0  0  0  0  0  0
   -2.9694   22.9010  -32.5651 H   0  0  0  0  0  0  0  0  0  0  0  0
   -4.5191   23.5879  -31.9982 H   0  0  0  0  0  0  0  0  0  0  0  0
   -1.9331   22.6092  -29.3910 H   0  0  0  0  0  0  0  0  0  0  0  0
   -1.7501   23.3053  -31.0388 H   0  0  0  0  0  0  0  0  0  0  0  0
  1  2  1  0
  2  3  2  0
  2  4  1  0
  4  5  2  0
  5  6  1  0
  6  7  2  0
  7  8  1  0
  8  9  2  0
  9 10  1  0
 10 11  1  0
 10 12  1  0
 10 13  1  0
  9 14  1  0
 14 15  2  0
 15 16  1  0
 16 17  1  0
 17 18  2  0
 17 19  1  0
 19 20  1  0
 20 21  1  0
 21 22  1  0
 22 23  2  0
 22 24  1  0
 22 25  1  0
 16  4  1  0
 15  6  1  0
  1 26  1  0
  1 27  1  0
  5 28  1  0
  7 29  1  0
  8 30  1  0
 14 31  1  0
 19 32  1  0
 19 33  1  0
 21 34  1  0
 21 35  1  0
M  CHG  2  24  -1  25  -1
M  END
>  <UniqueID>  (80) 
78

>  <SMILES>  (80) 
NC(=O)c1cc2ccc(C(F)(F)F)cc2n1C(=O)COCP(=O)([O-])[O-]

>  <Energy>  (80) 
73.33896045414815

>  <Genealogy>  (80) 
NC(=O)c1cc2ccc(C(F)(F)F)cc2n1C(=O)COCP(=O)([O-])[O-] (protonated)
NC(=O)c1cc2ccc(C(F)(F)F)cc2n1C(=O)COCP(=O)([O-])[O-] (3D coordinates assigned)
NC(=O)c1cc2ccc(C(F)(F)F)cc2n1C(=O)COCP(=O)([O-])[O-] (optimized conformer: 73.33896045414815 kcal/mol)

>  <smiles>  (80) 
NC(=O)c1cc2ccc(C(F)(F)F)cc2n1C(=O)COCP(=O)(O)O

>  <score_type>  (80) 
oracle

>  <origin>  (80) 
adg

>  <m_score__min__energy>  (80) 
-12.81

>  <m_primary>  (80) 
energy

$$$$
82:0
     RDKit          3D

 40 41  0  0  0  0  0  0  0  0999 V2000
   -5.4080   17.3420  -34.0880 C   0  0  0  0  0  0  0  0  0  0  0  0
   -5.3550   18.2070  -32.9060 N   0  0  0  0  0  0  0  0  0  0  0  0
   -4.3470   19.2350  -32.8280 C   0  0  0  0  0  0  0  0  0  0  0  0
   -3.6490   19.6490  -34.0080 N   0  0  0  0  0  0  0  0  0  0  0  0
   -4.0990   19.8230  -31.6950 N   0  0  0  0  0  0  0  0  0  0  0  0
   -6.2460   17.9560  -31.8020 C   0  0  0  0  0  0  0  0  0  0  0  0
   -5.7720   17.7310  -30.6560 O   0  0  0  0  0  0  0  0  0  0  0  0
   -7.7420   18.0570  -31.9640 C   0  0  0  0  0  0  0  0  0  0  0  0
   -8.1190   19.1250  -32.9980 C   0  0  0  0  0  0  0  0  0  0  0  0
   -7.9530   20.5170  -32.4440 C   0  0  0  0  0  0  0  0  0  0  0  0
   -9.0790   21.2310  -31.9670 C   0  0  0  0  0  0  0  0  0  0  0  0
   -8.9290   22.5090  -31.4000 C   0  0  0  0  0  0  0  0  0  0  0  0
   -7.6450   23.0400  -31.3160 C   0  0  0  0  0  0  0  0  0  0  0  0
   -7.2120   24.2330  -30.7840 C   0  0  0  0  0  0  0  0  0  0  0  0
   -5.8290   24.2330  -30.9490 C   0  0  0  0  0  0  0  0  0  0  0  0
   -4.9680   25.3800  -30.5940 C   0  0  0  0  0  0  0  0  0  0  0  0
   -3.5570   25.2260  -30.4650 N   0  0  0  0  0  0  0  0  0  0  0  0
   -5.4780   26.5230  -30.4550 O   0  0  0  0  0  0  0  0  0  0  0  0
   -5.4200   23.0800  -31.5530 N   0  0  0  0  0  0  0  0  0  0  0  0
   -4.0730   22.6450  -31.8040 C   0  0  0  0  0  0  0  0  0  0  0  0
   -3.2310   22.6150  -30.8690 O   0  0  0  0  0  0  0  0  0  0  0  0
   -3.6950   22.2280  -33.0750 O   0  0  0  0  0  0  0  0  0  0  0  0
   -6.5450   22.3640  -31.7770 C   0  0  0  0  0  0  0  0  0  0  0  0
   -6.6650   21.0880  -32.3400 C   0  0  0  0  0  0  0  0  0  0  0  0
   -5.4724   16.2908  -33.7705 H   0  0  0  0  0  0  0  0  0  0  0  0
   -6.2921   17.5979  -34.6903 H   0  0  0  0  0  0  0  0  0  0  0  0
   -4.4992   17.4881  -34.6903 H   0  0  0  0  0  0  0  0  0  0  0  0
   -2.9510   20.4270  -33.9750 H   0  0  0  0  0  0  0  0  0  0  0  0
   -3.8020   19.1610  -34.9190 H   0  0  0  0  0  0  0  0  0  0  0  0
   -4.6240   19.5660  -30.8300 H   0  0  0  0  0  0  0  0  0  0  0  0
   -3.3810   20.5790  -31.6290 H   0  0  0  0  0  0  0  0  0  0  0  0
   -8.1332   17.0837  -32.2951 H   0  0  0  0  0  0  0  0  0  0  0  0
   -8.1780   18.3421  -30.9952 H   0  0  0  0  0  0  0  0  0  0  0  0
   -7.4714   19.0123  -33.8800 H   0  0  0  0  0  0  0  0  0  0  0  0
   -9.1765   18.9855  -33.2666 H   0  0  0  0  0  0  0  0  0  0  0  0
  -10.0804   20.7817  -32.0407 H   0  0  0  0  0  0  0  0  0  0  0  0
   -9.8001   23.0722  -31.0339 H   0  0  0  0  0  0  0  0  0  0  0  0
   -7.8281   25.0204  -30.3253 H   0  0  0  0  0  0  0  0  0  0  0  0
   -2.9970   24.7480  -31.2040 H   0  0  0  0  0  0  0  0  0  0  0  0
   -5.7773   20.5427  -32.6931 H   0  0  0  0  0  0  0  0  0  0  0  0
  1  2  1  0
  2  3  1  0
  3  4  1  0
  3  5  2  0
  2  6  1  0
  6  7  2  0
  6  8  1  0
  8  9  1  0
  9 10  1  0
 10 11  2  0
 11 12  1  0
 12 13  2  0
 13 14  1  0
 14 15  2  0
 15 16  1  0
 16 17  1  0
 16 18  2  0
 15 19  1  0
 19 20  1  0
 20 21  2  0
 20 22  1  0
 19 23  1  0
 23 24  2  0
 24 10  1  0
 23 13  1  0
  1 25  1  0
  1 26  1  0
  1 27  1  0
  4 28  1  0
  4 29  1  0
  5 30  1  0
  5 31  1  0
  8 32  1  0
  8 33  1  0
  9 34  1  0
  9 35  1  0
 11 36  1  0
 12 37  1  0
 14 38  1  0
 17 39  1  0
 24 40  1  0
M  CHG  3   5   1  17  -1  22  -1
M  END
>  <UniqueID>  (81) 
79

>  <SMILES>  (81) 
CN(C(N)=[NH2+])C(=O)CCc1ccc2cc(C([NH-])=O)n(C(=O)[O-])c2c1

>  <Energy>  (81) 
79.27112545343246

>  <Genealogy>  (81) 
CN(C(N)=[NH2+])C(=O)CCc1ccc2cc(C([NH-])=O)n(C(=O)[O-])c2c1 (protonated)
CN(C(N)=[NH2+])C(=O)CCc1ccc2cc(C([NH-])=O)n(C(=O)[O-])c2c1 (3D coordinates assigned)
CN(C(N)=[NH2+])C(=O)CCc1ccc2cc(C([NH-])=O)n(C(=O)[O-])c2c1 (optimized conformer: 79.27112545343246 kcal/mol)

>  <smiles>  (81) 
CN(C(=N)N)C(=O)CCc1ccc2cc(C(N)=O)n(C(=O)O)c2c1

>  <score_type>  (81) 
oracle

>  <origin>  (81) 
adg

>  <m_score__min__energy>  (81) 
-10.050000000000001

>  <m_primary>  (81) 
energy

$$$$
83:0
     RDKit          3D

 38 40  0  0  0  0  0  0  0  0999 V2000
   -1.7995   22.3184  -27.9503 H   0  0  0  0  0  0  0  0  0  0  0  0
   -2.1780   22.8310  -28.8470 C   0  0  0  0  0  0  0  0  0  0  0  0
   -1.5490   24.1170  -29.2000 C   0  0  0  0  0  0  0  0  0  0  0  0
   -0.2980   24.1700  -29.3280 O   0  0  0  0  0  0  0  0  0  0  0  0
   -2.2900   25.2870  -29.3390 O   0  0  0  0  0  0  0  0  0  0  0  0
   -3.1710   22.2290  -29.5210 C   0  0  0  0  0  0  0  0  0  0  0  0
   -3.6282   21.3427  -29.0569 H   0  0  0  0  0  0  0  0  0  0  0  0
   -3.7020   22.6540  -30.8310 C   0  0  0  0  0  0  0  0  0  0  0  0
   -2.9090   22.9090  -31.7820 O   0  0  0  0  0  0  0  0  0  0  0  0
   -5.1220   22.7200  -31.0480 N   0  0  0  0  0  0  0  0  0  0  0  0
   -5.9490   23.7890  -30.8620 C   0  0  0  0  0  0  0  0  0  0  0  0
   -5.5290   25.1510  -30.4710 C   0  0  0  0  0  0  0  0  0  0  0  0
   -6.3540   25.9440  -29.9410 O   0  0  0  0  0  0  0  0  0  0  0  0
   -4.1810   25.5830  -30.6680 N   0  0  0  0  0  0  0  0  0  0  0  0
   -3.4990   25.0150  -31.2120 H   0  0  0  0  0  0  0  0  0  0  0  0
   -3.8680   26.5040  -30.2940 H   0  0  0  0  0  0  0  0  0  0  0  0
   -7.2580   23.4580  -31.2170 C   0  0  0  0  0  0  0  0  0  0  0  0
   -8.1445   24.1077  -31.1718 H   0  0  0  0  0  0  0  0  0  0  0  0
   -7.2060   22.1490  -31.6350 C   0  0  0  0  0  0  0  0  0  0  0  0
   -8.2130   21.3310  -32.1370 C   0  0  0  0  0  0  0  0  0  0  0  0
   -9.2474   21.6945  -32.2257 H   0  0  0  0  0  0  0  0  0  0  0  0
   -7.8680   20.0270  -32.5270 C   0  0  0  0  0  0  0  0  0  0  0  0
   -8.6390   19.3631  -32.9452 H   0  0  0  0  0  0  0  0  0  0  0  0
   -6.5340   19.5540  -32.3880 C   0  0  0  0  0  0  0  0  0  0  0  0
   -6.1710   18.1830  -32.8350 C   0  0  0  0  0  0  0  0  0  0  0  0
   -7.1500   17.3100  -33.3490 C   0  0  0  0  0  0  0  0  0  0  0  0
   -8.2009   17.6322  -33.3908 H   0  0  0  0  0  0  0  0  0  0  0  0
   -6.7960   16.0380  -33.8060 C   0  0  0  0  0  0  0  0  0  0  0  0
   -7.5690   15.3650  -34.2054 H   0  0  0  0  0  0  0  0  0  0  0  0
   -5.4650   15.6170  -33.7580 C   0  0  0  0  0  0  0  0  0  0  0  0
   -5.1350   14.3810  -34.2030 F   0  0  0  0  0  0  0  0  0  0  0  0
   -4.4810   16.4720  -33.2510 C   0  0  0  0  0  0  0  0  0  0  0  0
   -2.8050   15.9560  -33.1830 Cl  0  0  0  0  0  0  0  0  0  0  0  0
   -4.8320   17.7470  -32.7910 C   0  0  0  0  0  0  0  0  0  0  0  0
   -4.0547   18.4148  -32.3913 H   0  0  0  0  0  0  0  0  0  0  0  0
   -5.5440   20.4150  -31.8510 C   0  0  0  0  0  0  0  0  0  0  0  0
   -4.5125   20.0628  -31.7027 H   0  0  0  0  0  0  0  0  0  0  0  0
   -5.9090   21.7230  -31.5140 C   0  0  0  0  0  0  0  0  0  0  0  0
  1  2  1  0
  2  3  1  0
  3  4  2  0
  3  5  1  0
  2  6  2  0
  6  7  1  0
  6  8  1  0
  8  9  2  0
  8 10  1  0
 10 11  1  0
 11 12  1  0
 12 13  2  0
 12 14  1  0
 14 15  1  0
 14 16  1  0
 11 17  2  0
 17 18  1  0
 17 19  1  0
 19 20  2  0
 20 21  1  0
 20 22  1  0
 22 23  1  0
 22 24  2  0
 24 25  1  0
 25 26  2  0
 26 27  1  0
 26 28  1  0
 28 29  1  0
 28 30  2  0
 30 31  1  0
 30 32  1  0
 32 33  1  0
 32 34  2  0
 34 35  1  0
 24 36  1  0
 36 37  1  0
 36 38  2  0
 38 10  1  0
 38 19  1  0
 34 25  1  0
M  CHG  1   5  -1
M  END
>  <UniqueID>  (82) 
80

>  <SMILES>  (82) 
NC(=O)c1cc2ccc(-c3ccc(F)c(Cl)c3)cc2n1C(=O)/C=C\C(=O)[O-]

>  <Energy>  (82) 
91.37160407865571

>  <Genealogy>  (82) 
NC(=O)c1cc2ccc(-c3ccc(F)c(Cl)c3)cc2n1C(=O)C=CC(=O)[O-] (protonated)
NC(=O)c1cc2ccc(-c3ccc(F)c(Cl)c3)cc2n1C(=O)/C=C\C(=O)[O-] (cis-trans isomerization)
NC(=O)c1cc2ccc(-c3ccc(F)c(Cl)c3)cc2n1C(=O)/C=C\C(=O)[O-] (3D coordinates assigned)
NC(=O)c1cc2ccc(-c3ccc(F)c(Cl)c3)cc2n1C(=O)/C=C\C(=O)[O-] (optimized conformer: 91.37160407865571 kcal/mol)

>  <smiles>  (82) 
NC(=O)c1cc2ccc(-c3ccc(F)c(Cl)c3)cc2n1C(=O)C=CC(=O)O

>  <score_type>  (82) 
oracle

>  <origin>  (82) 
adg

>  <m_score__min__energy>  (82) 
-12.380000000000001

>  <m_primary>  (82) 
energy

$$$$
84:0
     RDKit          3D

 46 47  0  0  0  0  0  0  0  0999 V2000
   -7.6030   20.0710  -33.4060 C   0  0  0  0  0  0  0  0  0  0  0  0
   -8.2150   19.6310  -32.0640 C   0  0  0  0  0  0  0  0  0  0  0  0
   -8.6620   20.8540  -31.2410 C   0  0  0  0  0  0  0  0  0  0  0  0
   -9.4410   18.7470  -32.3410 C   0  0  0  0  0  0  0  0  0  0  0  0
   -7.2820   18.8370  -31.3190 O   0  0  0  0  0  0  0  0  0  0  0  0
   -6.2620   18.0340  -31.8490 C   0  0  0  0  0  0  0  0  0  0  0  0
   -6.3420   16.7770  -31.8120 O   0  0  0  0  0  0  0  0  0  0  0  0
   -5.1150   18.6560  -32.4500 N   0  0  0  0  0  0  0  0  0  0  0  0
   -4.3530   18.1860  -33.4780 C   0  0  0  0  0  0  0  0  0  0  0  0
   -4.4540   16.8440  -34.0870 C   0  0  0  0  0  0  0  0  0  0  0  0
   -4.5950   15.6720  -33.2820 N   0  0  0  0  0  0  0  0  0  0  0  0
   -4.3620   16.7240  -35.3370 O   0  0  0  0  0  0  0  0  0  0  0  0
   -3.4090   19.1340  -33.8640 C   0  0  0  0  0  0  0  0  0  0  0  0
   -3.6110   20.2070  -33.0250 C   0  0  0  0  0  0  0  0  0  0  0  0
   -2.9630   21.4380  -32.9760 C   0  0  0  0  0  0  0  0  0  0  0  0
   -3.4070   22.3800  -32.0330 C   0  0  0  0  0  0  0  0  0  0  0  0
   -4.4910   22.0860  -31.1640 C   0  0  0  0  0  0  0  0  0  0  0  0
   -4.9630   23.0700  -30.2120 N   0  0  0  0  0  0  0  0  0  0  0  0
   -6.3610   23.5200  -30.2440 C   0  0  0  0  0  0  0  0  0  0  0  0
   -6.8470   23.5760  -31.6280 C   0  0  0  0  0  0  0  0  0  0  0  0
   -7.2290   23.6190  -32.7190 N   0  0  0  0  0  0  0  0  0  0  0  0
   -4.0410   23.6790  -29.2410 C   0  0  0  0  0  0  0  0  0  0  0  0
   -3.3600   24.8720  -29.8370 C   0  0  0  0  0  0  0  0  0  0  0  0
   -3.8930   25.4950  -30.7930 O   0  0  0  0  0  0  0  0  0  0  0  0
   -2.1410   25.3040  -29.3270 O   0  0  0  0  0  0  0  0  0  0  0  0
   -5.1240   20.8220  -31.2520 C   0  0  0  0  0  0  0  0  0  0  0  0
   -4.6450   19.8950  -32.1840 C   0  0  0  0  0  0  0  0  0  0  0  0
   -6.7230   20.7037  -33.2178 H   0  0  0  0  0  0  0  0  0  0  0  0
   -7.3000   19.1827  -33.9796 H   0  0  0  0  0  0  0  0  0  0  0  0
   -8.3486   20.6411  -33.9796 H   0  0  0  0  0  0  0  0  0  0  0  0
   -8.5782   20.6247  -30.1684 H   0  0  0  0  0  0  0  0  0  0  0  0
   -8.0199   21.7136  -31.4834 H   0  0  0  0  0  0  0  0  0  0  0  0
   -9.7071   21.0970  -31.4834 H   0  0  0  0  0  0  0  0  0  0  0  0
   -9.8852   18.4267  -31.3870 H   0  0  0  0  0  0  0  0  0  0  0  0
  -10.1830   19.3192  -32.9171 H   0  0  0  0  0  0  0  0  0  0  0  0
   -9.1324   17.8622  -32.9171 H   0  0  0  0  0  0  0  0  0  0  0  0
   -4.5000   15.7140  -32.2430 H   0  0  0  0  0  0  0  0  0  0  0  0
   -4.7020   14.7380  -33.7340 H   0  0  0  0  0  0  0  0  0  0  0  0
   -2.6623   19.0449  -34.6668 H   0  0  0  0  0  0  0  0  0  0  0  0
   -2.1284   21.6663  -33.6552 H   0  0  0  0  0  0  0  0  0  0  0  0
   -2.9084   23.3583  -31.9669 H   0  0  0  0  0  0  0  0  0  0  0  0
   -6.9818   22.8166  -29.6697 H   0  0  0  0  0  0  0  0  0  0  0  0
   -6.4233   24.5254  -29.8021 H   0  0  0  0  0  0  0  0  0  0  0  0
   -4.6078   23.9930  -28.3521 H   0  0  0  0  0  0  0  0  0  0  0  0
   -3.2778   22.9371  -28.9633 H   0  0  0  0  0  0  0  0  0  0  0  0
   -5.9751   20.5742  -30.6007 H   0  0  0  0  0  0  0  0  0  0  0  0
  1  2  1  0
  2  3  1  0
  2  4  1  0
  2  5  1  0
  5  6  1  0
  6  7  2  0
  6  8  1  0
  8  9  1  0
  9 10  1  0
 10 11  1  0
 10 12  2  0
  9 13  2  0
 13 14  1  0
 14 15  2  0
 15 16  1  0
 16 17  2  0
 17 18  1  0
 18 19  1  0
 19 20  1  0
 20 21  3  0
 18 22  1  0
 22 23  1  0
 23 24  2  0
 23 25  1  0
 17 26  1  0
 26 27  2  0
 27  8  1  0
 27 14  1  0
  1 28  1  0
  1 29  1  0
  1 30  1  0
  3 31  1  0
  3 32  1  0
  3 33  1  0
  4 34  1  0
  4 35  1  0
  4 36  1  0
 11 37  1  0
 11 38  1  0
 13 39  1  0
 15 40  1  0
 16 41  1  0
 19 42  1  0
 19 43  1  0
 22 44  1  0
 22 45  1  0
 26 46  1  0
M  CHG  1  25  -1
M  END
>  <UniqueID>  (83) 
81

>  <SMILES>  (83) 
CC(C)(C)OC(=O)n1c(C(N)=O)cc2ccc(N(CC#N)CC(=O)[O-])cc21

>  <Energy>  (83) 
79.93543385157889

>  <Genealogy>  (83) 
CC(C)(C)OC(=O)n1c(C(N)=O)cc2ccc(N(CC#N)CC(=O)[O-])cc21 (protonated)
CC(C)(C)OC(=O)n1c(C(N)=O)cc2ccc(N(CC#N)CC(=O)[O-])cc21 (3D coordinates assigned)
CC(C)(C)OC(=O)n1c(C(N)=O)cc2ccc(N(CC#N)CC(=O)[O-])cc21 (optimized conformer: 79.93543385157889 kcal/mol)

>  <smiles>  (83) 
CC(C)(C)OC(=O)n1c(C(N)=O)cc2ccc(N(CC#N)CC(=O)O)cc21

>  <score_type>  (83) 
oracle

>  <origin>  (83) 
adg

>  <m_score__min__energy>  (83) 
-10.369999999999999

>  <m_primary>  (83) 
energy

$$$$
85:0
     RDKit          3D

 45 46  0  0  0  0  0  0  0  0999 V2000
   -9.4510   18.0990  -31.9550 C   0  0  0  0  0  0  0  0  0  0  0  0
   -8.2270   18.7950  -32.3730 N   0  0  0  0  0  0  0  0  0  0  0  0
   -7.2180   18.0560  -33.1420 C   0  0  0  0  0  0  0  0  0  0  0  0
   -8.0230   20.1920  -32.0400 C   0  0  0  0  0  0  0  0  0  0  0  0
   -9.1250   21.0900  -31.9700 C   0  0  0  0  0  0  0  0  0  0  0  0
   -8.9360   22.4450  -31.6560 C   0  0  0  0  0  0  0  0  0  0  0  0
   -7.6420   22.8840  -31.4050 C   0  0  0  0  0  0  0  0  0  0  0  0
   -7.1840   24.1430  -31.0950 C   0  0  0  0  0  0  0  0  0  0  0  0
   -5.8080   24.0050  -30.9440 C   0  0  0  0  0  0  0  0  0  0  0  0
   -4.9260   25.1090  -30.5170 C   0  0  0  0  0  0  0  0  0  0  0  0
   -3.5920   24.8600  -30.0730 N   0  0  0  0  0  0  0  0  0  0  0  0
   -5.3780   26.2850  -30.4870 O   0  0  0  0  0  0  0  0  0  0  0  0
   -5.4230   22.7170  -31.1710 N   0  0  0  0  0  0  0  0  0  0  0  0
   -4.0830   22.1930  -31.1860 C   0  0  0  0  0  0  0  0  0  0  0  0
   -3.4080   22.2150  -32.2510 O   0  0  0  0  0  0  0  0  0  0  0  0
   -3.5340   21.6560  -30.0210 O   0  0  0  0  0  0  0  0  0  0  0  0
   -2.1660   21.2860  -29.8970 C   0  0  0  0  0  0  0  0  0  0  0  0
   -1.3490   22.4690  -29.3530 C   0  0  1  0  0  0  0  0  0  0  0  0
   -1.4060   23.5490  -30.2520 O   0  0  0  0  0  0  0  0  0  0  0  0
   -1.8150   22.9120  -27.9540 C   0  0  0  0  0  0  0  0  0  0  0  0
   -2.3480   24.2150  -28.0290 O   0  0  0  0  0  0  0  0  0  0  0  0
   -1.0580   25.3270  -28.0360 P   0  0  0  0  0  0  0  0  0  0  0  0
   -1.0680   26.0980  -26.7370 O   0  0  0  0  0  0  0  0  0  0  0  0
   -1.2330   26.4110  -29.3230 O   0  0  0  0  0  0  0  0  0  0  0  0
    0.4160   24.5100  -28.1820 O   0  0  0  0  0  0  0  0  0  0  0  0
   -6.5640   22.0400  -31.4470 C   0  0  0  0  0  0  0  0  0  0  0  0
   -6.7200   20.6880  -31.7810 C   0  0  0  0  0  0  0  0  0  0  0  0
   -9.5000   18.0711  -30.8564 H   0  0  0  0  0  0  0  0  0  0  0  0
  -10.3288   18.6331  -32.3478 H   0  0  0  0  0  0  0  0  0  0  0  0
   -9.4409   17.0716  -32.3478 H   0  0  0  0  0  0  0  0  0  0  0  0
   -6.5278   17.5505  -32.4506 H   0  0  0  0  0  0  0  0  0  0  0  0
   -7.7158   17.3073  -33.7758 H   0  0  0  0  0  0  0  0  0  0  0  0
   -6.6544   18.7565  -33.7758 H   0  0  0  0  0  0  0  0  0  0  0  0
  -10.1410   20.7162  -32.1651 H   0  0  0  0  0  0  0  0  0  0  0  0
   -9.7880   23.1393  -31.6100 H   0  0  0  0  0  0  0  0  0  0  0  0
   -7.7785   25.0625  -30.9891 H   0  0  0  0  0  0  0  0  0  0  0  0
   -2.9710   25.6550  -29.8060 H   0  0  0  0  0  0  0  0  0  0  0  0
   -3.2460   23.8850  -29.9310 H   0  0  0  0  0  0  0  0  0  0  0  0
   -2.0800   20.4351  -29.2052 H   0  0  0  0  0  0  0  0  0  0  0  0
   -1.7772   21.0031  -30.8863 H   0  0  0  0  0  0  0  0  0  0  0  0
   -0.3079   22.1285  -29.2524 H   0  0  0  0  0  0  0  0  0  0  0  0
   -0.9710   24.3270  -29.8140 H   0  0  0  0  0  0  0  0  0  0  0  0
   -2.5878   22.2198  -27.5883 H   0  0  0  0  0  0  0  0  0  0  0  0
   -0.9598   22.9040  -27.2622 H   0  0  0  0  0  0  0  0  0  0  0  0
   -5.8462   20.0225  -31.8413 H   0  0  0  0  0  0  0  0  0  0  0  0
  1  2  1  0
  2  3  1  0
  2  4  1  0
  4  5  2  0
  5  6  1  0
  6  7  2  0
  7  8  1  0
  8  9  2  0
  9 10  1  0
 10 11  1  0
 10 12  2  0
  9 13  1  0
 13 14  1  0
 14 15  2  0
 14 16  1  0
 16 17  1  0
 17 18  1  0
 18 19  1  0
 18 20  1  0
 20 21  1  0
 21 22  1  0
 22 23  2  0
 22 24  1  0
 22 25  1  0
 13 26  1  0
 26 27  2  0
 27  4  1  0
 26  7  1  0
  1 28  1  0
  1 29  1  0
  1 30  1  0
  3 31  1  0
  3 32  1  0
  3 33  1  0
  5 34  1  0
  6 35  1  0
  8 36  1  0
 11 37  1  0
 11 38  1  0
 17 39  1  0
 17 40  1  0
 18 41  1  1
 19 42  1  0
 20 43  1  0
 20 44  1  0
 27 45  1  0
M  CHG  2  24  -1  25  -1
M  END
>  <UniqueID>  (84) 
82

>  <SMILES>  (84) 
CN(C)c1ccc2cc(C(N)=O)n(C(=O)OC[C@@H](O)COP(=O)([O-])[O-])c2c1

>  <Energy>  (84) 
77.6596715437477

>  <Genealogy>  (84) 
CN(C)c1ccc2cc(C(N)=O)n(C(=O)OCC(O)COP(=O)([O-])[O-])c2c1 (protonated)
CN(C)c1ccc2cc(C(N)=O)n(C(=O)OC[C@@H](O)COP(=O)([O-])[O-])c2c1 (chirality)
CN(C)c1ccc2cc(C(N)=O)n(C(=O)OC[C@@H](O)COP(=O)([O-])[O-])c2c1 (3D coordinates assigned)
CN(C)c1ccc2cc(C(N)=O)n(C(=O)OC[C@@H](O)COP(=O)([O-])[O-])c2c1 (optimized conformer: 77.6596715437477 kcal/mol)

>  <smiles>  (84) 
CN(C)c1ccc2cc(C(N)=O)n(C(=O)OCC(O)COP(=O)(O)O)c2c1

>  <score_type>  (84) 
oracle

>  <origin>  (84) 
adg

>  <m_score__min__energy>  (84) 
-11.359999999999999

>  <m_primary>  (84) 
energy

$$$$
86:0
     RDKit          3D

 38 39  0  0  0  0  0  0  0  0999 V2000
   -6.1410   17.3020  -34.2930 C   0  0  0  0  0  0  0  0  0  0  0  0
   -7.2560   17.5610  -33.3880 N   0  0  0  0  0  0  0  0  0  0  0  0
   -7.4460   18.8100  -32.6990 C   0  0  0  0  0  0  0  0  0  0  0  0
   -8.6710   19.0470  -32.0270 C   0  0  0  0  0  0  0  0  0  0  0  0
   -8.8890   20.2430  -31.3240 C   0  0  0  0  0  0  0  0  0  0  0  0
   -7.8710   21.1920  -31.3200 C   0  0  0  0  0  0  0  0  0  0  0  0
   -7.7940   22.4060  -30.6740 C   0  0  0  0  0  0  0  0  0  0  0  0
   -6.5330   22.9080  -30.9840 C   0  0  0  0  0  0  0  0  0  0  0  0
   -6.0320   24.2120  -30.5010 C   0  0  0  0  0  0  0  0  0  0  0  0
   -5.3070   24.3230  -29.2760 N   0  0  0  0  0  0  0  0  0  0  0  0
   -6.2130   25.2420  -31.2040 O   0  0  0  0  0  0  0  0  0  0  0  0
   -5.8560   22.0420  -31.7870 N   0  0  0  0  0  0  0  0  0  0  0  0
   -4.4880   22.1430  -32.2120 C   0  0  0  0  0  0  0  0  0  0  0  0
   -4.2220   22.2780  -33.4370 O   0  0  0  0  0  0  0  0  0  0  0  0
   -3.3670   22.0690  -31.2220 C   0  0  0  0  0  0  0  0  0  0  0  0
   -3.9090   21.9840  -29.9260 O   0  0  0  0  0  0  0  0  0  0  0  0
   -2.6500   22.2050  -28.7950 P   0  0  1  0  0  0  0  0  0  0  0  0
   -3.2170   22.5650  -27.4370 O   0  0  0  0  0  0  0  0  0  0  0  0
   -1.7640   20.7710  -28.6520 O   0  0  0  0  0  0  0  0  0  0  0  0
   -1.5900   23.4300  -29.3170 O   0  0  0  0  0  0  0  0  0  0  0  0
   -2.3850   24.9210  -29.1140 P   0  0  0  0  0  0  0  0  0  0  0  0
   -3.2140   24.8590  -27.8520 O   0  0  0  0  0  0  0  0  0  0  0  0
   -1.2540   26.1700  -28.9580 O   0  0  0  0  0  0  0  0  0  0  0  0
   -3.4110   25.2460  -30.4220 O   0  0  0  0  0  0  0  0  0  0  0  0
   -6.6860   20.9920  -31.9790 C   0  0  0  0  0  0  0  0  0  0  0  0
   -6.4320   19.7990  -32.6660 C   0  0  0  0  0  0  0  0  0  0  0  0
   -5.2343   17.0914  -33.7069 H   0  0  0  0  0  0  0  0  0  0  0  0
   -6.3773   16.4348  -34.9272 H   0  0  0  0  0  0  0  0  0  0  0  0
   -5.9709   18.1845  -34.9272 H   0  0  0  0  0  0  0  0  0  0  0  0
   -7.9520   16.7930  -33.2460 H   0  0  0  0  0  0  0  0  0  0  0  0
   -9.4622   18.2834  -32.0565 H   0  0  0  0  0  0  0  0  0  0  0  0
   -9.8351   20.4241  -30.7929 H   0  0  0  0  0  0  0  0  0  0  0  0
   -8.5645   22.8782  -30.0469 H   0  0  0  0  0  0  0  0  0  0  0  0
   -5.0130   25.2600  -28.9250 H   0  0  0  0  0  0  0  0  0  0  0  0
   -4.9740   23.4760  -28.7650 H   0  0  0  0  0  0  0  0  0  0  0  0
   -2.7533   21.1789  -31.4248 H   0  0  0  0  0  0  0  0  0  0  0  0
   -2.7367   22.9667  -31.3045 H   0  0  0  0  0  0  0  0  0  0  0  0
   -5.4676   19.6333  -33.1685 H   0  0  0  0  0  0  0  0  0  0  0  0
  1  2  1  0
  2  3  1  0
  3  4  2  0
  4  5  1  0
  5  6  2  0
  6  7  1  0
  7  8  2  0
  8  9  1  0
  9 10  1  0
  9 11  2  0
  8 12  1  0
 12 13  1  0
 13 14  2  0
 13 15  1  0
 15 16  1  0
 16 17  1  0
 17 18  2  0
 17 19  1  1
 17 20  1  0
 20 21  1  0
 21 22  2  0
 21 23  1  0
 21 24  1  0
 12 25  1  0
 25 26  2  0
 26  3  1  0
 25  6  1  0
  1 27  1  0
  1 28  1  0
  1 29  1  0
  2 30  1  0
  4 31  1  0
  5 32  1  0
  7 33  1  0
 10 34  1  0
 10 35  1  0
 15 36  1  0
 15 37  1  0
 26 38  1  0
M  CHG  3  19  -1  23  -1  24  -1
M  END
>  <UniqueID>  (85) 
83

>  <SMILES>  (85) 
CNc1ccc2cc(C(N)=O)n(C(=O)CO[P@@](=O)([O-])OP(=O)([O-])[O-])c2c1

>  <Energy>  (85) 
72.65058880080973

>  <Genealogy>  (85) 
CNc1ccc2cc(C(N)=O)n(C(=O)COP(=O)([O-])OP(=O)([O-])[O-])c2c1 (protonated)
CNc1ccc2cc(C(N)=O)n(C(=O)CO[P@@](=O)([O-])OP(=O)([O-])[O-])c2c1 (chirality)
CNc1ccc2cc(C(N)=O)n(C(=O)CO[P@@](=O)([O-])OP(=O)([O-])[O-])c2c1 (3D coordinates assigned)
CNc1ccc2cc(C(N)=O)n(C(=O)CO[P@@](=O)([O-])OP(=O)([O-])[O-])c2c1 (optimized conformer: 72.65058880080973 kcal/mol)

>  <smiles>  (85) 
CNc1ccc2cc(C(N)=O)n(C(=O)COP(=O)(O)OP(=O)(O)O)c2c1

>  <score_type>  (85) 
oracle

>  <origin>  (85) 
adg

>  <m_score__min__energy>  (85) 
-12.619999999999999

>  <m_primary>  (85) 
energy

$$$$
87:0
     RDKit          3D

 43 45  0  0  0  0  0  0  0  0999 V2000
   -3.8710   23.1770  -28.0340 C   0  0  0  0  0  0  0  0  0  0  0  0
   -2.9100   22.5120  -29.0120 C   0  0  0  0  0  0  0  0  0  0  0  0
   -2.9470   23.1670  -30.2770 O   0  0  0  0  0  0  0  0  0  0  0  0
   -3.6530   22.6740  -31.3820 C   0  0  0  0  0  0  0  0  0  0  0  0
   -3.0320   22.2370  -32.3880 O   0  0  0  0  0  0  0  0  0  0  0  0
   -5.0890   22.6750  -31.3680 N   0  0  0  0  0  0  0  0  0  0  0  0
   -5.9150   23.7030  -31.0200 C   0  0  0  0  0  0  0  0  0  0  0  0
   -5.4820   24.9880  -30.4280 C   0  0  0  0  0  0  0  0  0  0  0  0
   -4.1720   25.5020  -30.6750 N   0  0  0  0  0  0  0  0  0  0  0  0
   -6.2800   25.6600  -29.7220 O   0  0  0  0  0  0  0  0  0  0  0  0
   -7.2480   23.3440  -31.2110 C   0  0  0  0  0  0  0  0  0  0  0  0
   -7.2140   22.0550  -31.6900 C   0  0  0  0  0  0  0  0  0  0  0  0
   -8.2560   21.2110  -32.0600 C   0  0  0  0  0  0  0  0  0  0  0  0
   -7.9300   19.9370  -32.5500 C   0  0  0  0  0  0  0  0  0  0  0  0
   -6.5750   19.5290  -32.6700 C   0  0  0  0  0  0  0  0  0  0  0  0
   -6.2420   18.1830  -33.2040 C   0  0  0  0  0  0  0  0  0  0  0  0
   -4.9810   17.9300  -33.7710 C   0  0  0  0  0  0  0  0  0  0  0  0
   -4.6680   16.6640  -34.2710 C   0  0  0  0  0  0  0  0  0  0  0  0
   -5.6130   15.6240  -34.2130 C   0  0  0  0  0  0  0  0  0  0  0  0
   -5.3460   14.3360  -34.7010 O   0  0  0  0  0  0  0  0  0  0  0  0
   -6.2150   13.2190  -34.5400 C   0  0  0  0  0  0  0  0  0  0  0  0
   -6.8680   15.8740  -33.6490 C   0  0  0  0  0  0  0  0  0  0  0  0
   -7.1840   17.1400  -33.1490 C   0  0  0  0  0  0  0  0  0  0  0  0
   -5.5450   20.4170  -32.2820 C   0  0  0  0  0  0  0  0  0  0  0  0
   -5.9000   21.6740  -31.7790 C   0  0  0  0  0  0  0  0  0  0  0  0
   -3.5549   22.9583  -27.0033 H   0  0  0  0  0  0  0  0  0  0  0  0
   -3.8648   24.2649  -28.1963 H   0  0  0  0  0  0  0  0  0  0  0  0
   -4.8870   22.7878  -28.1963 H   0  0  0  0  0  0  0  0  0  0  0  0
   -1.8885   22.5652  -28.6074 H   0  0  0  0  0  0  0  0  0  0  0  0
   -3.2122   21.4630  -29.1474 H   0  0  0  0  0  0  0  0  0  0  0  0
   -3.4670   24.9550  -31.2180 H   0  0  0  0  0  0  0  0  0  0  0  0
   -3.8890   26.4260  -30.2810 H   0  0  0  0  0  0  0  0  0  0  0  0
   -8.1385   23.9607  -31.0193 H   0  0  0  0  0  0  0  0  0  0  0  0
   -9.3042   21.5326  -31.9712 H   0  0  0  0  0  0  0  0  0  0  0  0
   -8.7337   19.2461  -32.8447 H   0  0  0  0  0  0  0  0  0  0  0  0
   -4.2342   18.7361  -33.8214 H   0  0  0  0  0  0  0  0  0  0  0  0
   -3.6775   16.4794  -34.7123 H   0  0  0  0  0  0  0  0  0  0  0  0
   -6.3667   13.0240  -33.4681 H   0  0  0  0  0  0  0  0  0  0  0  0
   -7.1836   13.4367  -35.0138 H   0  0  0  0  0  0  0  0  0  0  0  0
   -5.7658   12.3337  -35.0138 H   0  0  0  0  0  0  0  0  0  0  0  0
   -7.6133   15.0666  -33.5985 H   0  0  0  0  0  0  0  0  0  0  0  0
   -8.1758   17.3220  -32.7096 H   0  0  0  0  0  0  0  0  0  0  0  0
   -4.4881   20.1262  -32.3735 H   0  0  0  0  0  0  0  0  0  0  0  0
  1  2  1  0
  2  3  1  0
  3  4  1  0
  4  5  2  0
  4  6  1  0
  6  7  1  0
  7  8  1  0
  8  9  1  0
  8 10  2  0
  7 11  2  0
 11 12  1  0
 12 13  2  0
 13 14  1  0
 14 15  2  0
 15 16  1  0
 16 17  2  0
 17 18  1  0
 18 19  2  0
 19 20  1  0
 20 21  1  0
 19 22  1  0
 22 23  2  0
 15 24  1  0
 24 25  2  0
 25  6  1  0
 25 12  1  0
 23 16  1  0
  1 26  1  0
  1 27  1  0
  1 28  1  0
  2 29  1  0
  2 30  1  0
  9 31  1  0
  9 32  1  0
 11 33  1  0
 13 34  1  0
 14 35  1  0
 17 36  1  0
 18 37  1  0
 21 38  1  0
 21 39  1  0
 21 40  1  0
 22 41  1  0
 23 42  1  0
 24 43  1  0
M  END
>  <UniqueID>  (86) 
84

>  <SMILES>  (86) 
CCOC(=O)n1c(C(N)=O)cc2ccc(-c3ccc(OC)cc3)cc21

>  <Energy>  (86) 
84.54727970112819

>  <Genealogy>  (86) 
CCOC(=O)n1c(C(N)=O)cc2ccc(-c3ccc(OC)cc3)cc21 (3D coordinates assigned)
CCOC(=O)n1c(C(N)=O)cc2ccc(-c3ccc(OC)cc3)cc21 (optimized conformer: 84.54727970112819 kcal/mol)

>  <smiles>  (86) 
CCOC(=O)n1c(C(N)=O)cc2ccc(-c3ccc(OC)cc3)cc21

>  <score_type>  (86) 
oracle

>  <origin>  (86) 
adg

>  <m_score__min__energy>  (86) 
-8.3900000000000006

>  <m_primary>  (86) 
energy

$$$$
88:0
     RDKit          3D

 37 38  0  0  0  0  0  0  0  0999 V2000
   -5.5960   18.6650  -34.5920 C   0  0  0  0  0  0  0  0  0  0  0  0
   -5.5800   17.5510  -33.5390 C   0  0  0  0  0  0  0  0  0  0  0  0
   -6.4750   16.3900  -33.9870 C   0  0  0  0  0  0  0  0  0  0  0  0
   -6.0350   18.0740  -32.2440 N   0  0  0  0  0  0  0  0  0  0  0  0
   -6.4430   19.4370  -32.0070 C   0  0  0  0  0  0  0  0  0  0  0  0
   -7.7950   19.8580  -32.1540 C   0  0  0  0  0  0  0  0  0  0  0  0
   -8.1630   21.1940  -31.9170 C   0  0  0  0  0  0  0  0  0  0  0  0
   -7.1670   22.0890  -31.5390 C   0  0  0  0  0  0  0  0  0  0  0  0
   -7.2430   23.4330  -31.2410 C   0  0  0  0  0  0  0  0  0  0  0  0
   -5.9380   23.8140  -30.9270 C   0  0  0  0  0  0  0  0  0  0  0  0
   -5.5450   25.1950  -30.5770 C   0  0  0  0  0  0  0  0  0  0  0  0
   -4.2300   25.6750  -30.8460 N   0  0  0  0  0  0  0  0  0  0  0  0
   -6.3860   25.9700  -30.0480 O   0  0  0  0  0  0  0  0  0  0  0  0
   -5.0980   22.7480  -31.0230 N   0  0  0  0  0  0  0  0  0  0  0  0
   -3.6940   22.7020  -30.7450 C   0  0  0  0  0  0  0  0  0  0  0  0
   -2.8950   22.3340  -31.6460 O   0  0  0  0  0  0  0  0  0  0  0  0
   -3.1820   22.9800  -29.3610 C   0  0  0  0  0  0  0  0  0  0  0  0
   -4.1770   23.5830  -28.6090 F   0  0  0  0  0  0  0  0  0  0  0  0
   -2.8220   21.7970  -28.7380 F   0  0  0  0  0  0  0  0  0  0  0  0
   -1.9900   23.8810  -29.4390 C   0  0  0  0  0  0  0  0  0  0  0  0
   -2.1290   25.1290  -29.3530 O   0  0  0  0  0  0  0  0  0  0  0  0
   -0.7270   23.3470  -29.6700 O   0  0  0  0  0  0  0  0  0  0  0  0
   -5.8620   21.7030  -31.4020 C   0  0  0  0  0  0  0  0  0  0  0  0
   -5.4640   20.3830  -31.6280 C   0  0  0  0  0  0  0  0  0  0  0  0
   -5.6101   19.6437  -34.0901 H   0  0  0  0  0  0  0  0  0  0  0  0
   -4.6967   18.5882  -35.2207 H   0  0  0  0  0  0  0  0  0  0  0  0
   -6.4928   18.5624  -35.2207 H   0  0  0  0  0  0  0  0  0  0  0  0
   -4.5503   17.1805  -33.4279 H   0  0  0  0  0  0  0  0  0  0  0  0
   -6.8741   15.8722  -33.1024 H   0  0  0  0  0  0  0  0  0  0  0  0
   -7.3079   16.7807  -34.5901 H   0  0  0  0  0  0  0  0  0  0  0  0
   -5.8852   15.6840  -34.5901 H   0  0  0  0  0  0  0  0  0  0  0  0
   -6.0800   17.4110  -31.4350 H   0  0  0  0  0  0  0  0  0  0  0  0
   -8.5611   19.1290  -32.4567 H   0  0  0  0  0  0  0  0  0  0  0  0
   -9.2072   21.5220  -32.0271 H   0  0  0  0  0  0  0  0  0  0  0  0
   -8.1405   24.0689  -31.2491 H   0  0  0  0  0  0  0  0  0  0  0  0
   -3.4940   25.6670  -30.1060 H   0  0  0  0  0  0  0  0  0  0  0  0
   -4.4110   20.0864  -31.5134 H   0  0  0  0  0  0  0  0  0  0  0  0
  1  2  1  0
  2  3  1  0
  2  4  1  0
  4  5  1  0
  5  6  2  0
  6  7  1  0
  7  8  2  0
  8  9  1  0
  9 10  2  0
 10 11  1  0
 11 12  1  0
 11 13  2  0
 10 14  1  0
 14 15  1  0
 15 16  2  0
 15 17  1  0
 17 18  1  0
 17 19  1  0
 17 20  1  0
 20 21  2  0
 20 22  1  0
 14 23  1  0
 23 24  2  0
 24  5  1  0
 23  8  1  0
  1 25  1  0
  1 26  1  0
  1 27  1  0
  2 28  1  0
  3 29  1  0
  3 30  1  0
  3 31  1  0
  4 32  1  0
  6 33  1  0
  7 34  1  0
  9 35  1  0
 12 36  1  0
 24 37  1  0
M  CHG  2  12  -1  22  -1
M  END
>  <UniqueID>  (87) 
85

>  <SMILES>  (87) 
CC(C)Nc1ccc2cc(C([NH-])=O)n(C(=O)C(F)(F)C(=O)[O-])c2c1

>  <Energy>  (87) 
72.49819197813602

>  <Genealogy>  (87) 
CC(C)Nc1ccc2cc(C([NH-])=O)n(C(=O)C(F)(F)C(=O)[O-])c2c1 (protonated)
CC(C)Nc1ccc2cc(C([NH-])=O)n(C(=O)C(F)(F)C(=O)[O-])c2c1 (3D coordinates assigned)
CC(C)Nc1ccc2cc(C([NH-])=O)n(C(=O)C(F)(F)C(=O)[O-])c2c1 (optimized conformer: 72.49819197813602 kcal/mol)

>  <smiles>  (87) 
CC(C)Nc1ccc2cc(C(N)=O)n(C(=O)C(F)(F)C(=O)O)c2c1

>  <score_type>  (87) 
oracle

>  <origin>  (87) 
adg

>  <m_score__min__energy>  (87) 
-11.27

>  <m_primary>  (87) 
energy

$$$$
89:0
     RDKit          3D

 38 39  0  0  0  0  0  0  0  0999 V2000
   -3.4950   25.0250  -30.4540 N   0  0  0  0  0  0  0  0  0  0  0  0
   -4.8940   25.2260  -30.6410 C   0  0  0  0  0  0  0  0  0  0  0  0
   -5.3740   26.3810  -30.4940 O   0  0  0  0  0  0  0  0  0  0  0  0
   -5.7770   24.1110  -31.0450 C   0  0  0  0  0  0  0  0  0  0  0  0
   -7.1650   24.1510  -30.9330 C   0  0  0  0  0  0  0  0  0  0  0  0
   -7.6090   22.9610  -31.4680 C   0  0  0  0  0  0  0  0  0  0  0  0
   -8.9010   22.4620  -31.5910 C   0  0  0  0  0  0  0  0  0  0  0  0
   -9.0620   21.1800  -32.1420 C   0  0  0  0  0  0  0  0  0  0  0  0
   -7.9350   20.4190  -32.5510 C   0  0  0  0  0  0  0  0  0  0  0  0
   -8.1120   19.0880  -33.0780 N   0  0  0  0  0  0  0  0  0  0  0  0
   -7.6970   18.0530  -32.1140 C   0  0  0  0  0  0  0  0  0  0  0  0
   -6.2660   17.5270  -32.3680 C   0  0  0  0  0  0  0  0  0  0  0  0
   -6.0140   17.1960  -33.8400 C   0  0  0  0  0  0  0  0  0  0  0  0
   -6.1250   18.3640  -34.6060 O   0  0  0  0  0  0  0  0  0  0  0  0
   -6.6370   20.9660  -32.4120 C   0  0  0  0  0  0  0  0  0  0  0  0
   -6.5110   22.2510  -31.8750 C   0  0  0  0  0  0  0  0  0  0  0  0
   -5.3780   22.9430  -31.6240 N   0  0  0  0  0  0  0  0  0  0  0  0
   -4.0370   22.4810  -31.8390 C   0  0  0  0  0  0  0  0  0  0  0  0
   -3.2350   22.4270  -30.8680 O   0  0  0  0  0  0  0  0  0  0  0  0
   -3.6190   22.0810  -33.1530 N   0  0  0  0  0  0  0  0  0  0  0  0
   -2.3380   21.5150  -33.4540 C   0  0  0  0  0  0  0  0  0  0  0  0
   -1.4890   21.2980  -32.5490 O   0  0  0  0  0  0  0  0  0  0  0  0
   -2.9200   24.5440  -31.1810 H   0  0  0  0  0  0  0  0  0  0  0  0
   -7.7767   24.9604  -30.5079 H   0  0  0  0  0  0  0  0  0  0  0  0
   -9.7703   23.0530  -31.2668 H   0  0  0  0  0  0  0  0  0  0  0  0
  -10.0724   20.7609  -32.2580 H   0  0  0  0  0  0  0  0  0  0  0  0
   -7.5870   18.9690  -33.9750 H   0  0  0  0  0  0  0  0  0  0  0  0
   -9.1250   18.9500  -33.2980 H   0  0  0  0  0  0  0  0  0  0  0  0
   -7.7382   18.4809  -31.1015 H   0  0  0  0  0  0  0  0  0  0  0  0
   -8.3846   17.2022  -32.2297 H   0  0  0  0  0  0  0  0  0  0  0  0
   -5.5464   18.2965  -32.0517 H   0  0  0  0  0  0  0  0  0  0  0  0
   -6.1453   16.5977  -31.7920 H   0  0  0  0  0  0  0  0  0  0  0  0
   -5.0033   16.7772  -33.9540 H   0  0  0  0  0  0  0  0  0  0  0  0
   -6.7561   16.4601  -34.1831 H   0  0  0  0  0  0  0  0  0  0  0  0
   -5.6730   18.1720  -35.4680 H   0  0  0  0  0  0  0  0  0  0  0  0
   -5.7489   20.3942  -32.7190 H   0  0  0  0  0  0  0  0  0  0  0  0
   -4.2810   22.2240  -33.9490 H   0  0  0  0  0  0  0  0  0  0  0  0
   -2.0907   21.2648  -34.4962 H   0  0  0  0  0  0  0  0  0  0  0  0
  1  2  1  0
  2  3  2  0
  2  4  1  0
  4  5  2  0
  5  6  1  0
  6  7  2  0
  7  8  1  0
  8  9  2  0
  9 10  1  0
 10 11  1  0
 11 12  1  0
 12 13  1  0
 13 14  1  0
  9 15  1  0
 15 16  2  0
 16 17  1  0
 17 18  1  0
 18 19  2  0
 18 20  1  0
 20 21  1  0
 21 22  2  0
 17  4  1  0
 16  6  1  0
  1 23  1  0
  5 24  1  0
  7 25  1  0
  8 26  1  0
 10 27  1  0
 10 28  1  0
 11 29  1  0
 11 30  1  0
 12 31  1  0
 12 32  1  0
 13 33  1  0
 13 34  1  0
 14 35  1  0
 15 36  1  0
 20 37  1  0
 21 38  1  0
M  CHG  2   1  -1  10   1
M  END
>  <UniqueID>  (88) 
86

>  <SMILES>  (88) 
[NH-]C(=O)c1cc2ccc([NH2+]CCCO)cc2n1C(=O)NC=O

>  <Energy>  (88) 
75.88459577914594

>  <Genealogy>  (88) 
[NH-]C(=O)c1cc2ccc([NH2+]CCCO)cc2n1C(=O)NC=O (protonated)
[NH-]C(=O)c1cc2ccc([NH2+]CCCO)cc2n1C(=O)NC=O (3D coordinates assigned)
[NH-]C(=O)c1cc2ccc([NH2+]CCCO)cc2n1C(=O)NC=O (optimized conformer: 75.88459577914594 kcal/mol)

>  <smiles>  (88) 
NC(=O)c1cc2ccc(NCCCO)cc2n1C(=O)NC=O

>  <score_type>  (88) 
oracle

>  <origin>  (88) 
adg

>  <m_score__min__energy>  (88) 
-10.1

>  <m_primary>  (88) 
energy

$$$$
90:0
     RDKit          3D

 31 32  0  0  0  0  0  0  0  0999 V2000
   -5.4640   18.2440  -34.9360 N   0  0  0  0  0  0  0  0  0  0  0  0
   -6.1030   18.3080  -33.9740 C   0  0  0  0  0  0  0  0  0  0  0  0
   -6.9120   18.3900  -32.7540 C   0  0  0  0  0  0  0  0  0  0  0  0
   -7.0580   19.8230  -32.3290 C   0  0  0  0  0  0  0  0  0  0  0  0
   -8.3350   20.4400  -32.3360 C   0  0  0  0  0  0  0  0  0  0  0  0
   -8.4780   21.7910  -31.9800 C   0  0  0  0  0  0  0  0  0  0  0  0
   -7.3320   22.4970  -31.6240 C   0  0  0  0  0  0  0  0  0  0  0  0
   -7.1840   23.8170  -31.2640 C   0  0  0  0  0  0  0  0  0  0  0  0
   -5.8190   23.9850  -31.0320 C   0  0  0  0  0  0  0  0  0  0  0  0
   -5.2290   25.2460  -30.5360 C   0  0  0  0  0  0  0  0  0  0  0  0
   -3.8730   25.5640  -30.8450 N   0  0  0  0  0  0  0  0  0  0  0  0
   -5.9190   26.0650  -29.8730 O   0  0  0  0  0  0  0  0  0  0  0  0
   -5.1500   22.8160  -31.2470 N   0  0  0  0  0  0  0  0  0  0  0  0
   -3.7350   22.5800  -31.1750 C   0  0  0  0  0  0  0  0  0  0  0  0
   -3.1220   22.1320  -32.1830 O   0  0  0  0  0  0  0  0  0  0  0  0
   -3.0560   22.8300  -29.9760 O   0  0  0  0  0  0  0  0  0  0  0  0
   -1.6750   23.0390  -29.8590 C   0  0  0  0  0  0  0  0  0  0  0  0
   -1.2010   24.1980  -29.7050 O   0  0  0  0  0  0  0  0  0  0  0  0
   -0.7460   21.8750  -29.9810 C   0  0  0  0  0  0  0  0  0  0  0  0
    0.2240   21.9380  -28.9960 F   0  0  0  0  0  0  0  0  0  0  0  0
   -0.1390   21.9010  -31.2210 F   0  0  0  0  0  0  0  0  0  0  0  0
   -1.4500   20.6930  -29.8440 F   0  0  0  0  0  0  0  0  0  0  0  0
   -6.0910   21.9150  -31.6060 C   0  0  0  0  0  0  0  0  0  0  0  0
   -5.9170   20.5750  -31.9740 C   0  0  0  0  0  0  0  0  0  0  0  0
   -7.9076   17.9645  -32.9480 H   0  0  0  0  0  0  0  0  0  0  0  0
   -6.4141   17.8249  -31.9523 H   0  0  0  0  0  0  0  0  0  0  0  0
   -9.2214   19.8551  -32.6228 H   0  0  0  0  0  0  0  0  0  0  0  0
   -9.4651   22.2765  -31.9824 H   0  0  0  0  0  0  0  0  0  0  0  0
   -7.9740   24.5776  -31.1776 H   0  0  0  0  0  0  0  0  0  0  0  0
   -3.0880   24.9870  -30.4710 H   0  0  0  0  0  0  0  0  0  0  0  0
   -4.9158   20.1195  -31.9862 H   0  0  0  0  0  0  0  0  0  0  0  0
  1  2  3  0
  2  3  1  0
  3  4  1  0
  4  5  2  0
  5  6  1  0
  6  7  2  0
  7  8  1  0
  8  9  2  0
  9 10  1  0
 10 11  1  0
 10 12  2  0
  9 13  1  0
 13 14  1  0
 14 15  2  0
 14 16  1  0
 16 17  1  0
 17 18  2  0
 17 19  1  0
 19 20  1  0
 19 21  1  0
 19 22  1  0
 13 23  1  0
 23 24  2  0
 24  4  1  0
 23  7  1  0
  3 25  1  0
  3 26  1  0
  5 27  1  0
  6 28  1  0
  8 29  1  0
 11 30  1  0
 24 31  1  0
M  CHG  1  11  -1
M  END
>  <UniqueID>  (89) 
87

>  <SMILES>  (89) 
N#CCc1ccc2cc(C([NH-])=O)n(C(=O)OC(=O)C(F)(F)F)c2c1

>  <Energy>  (89) 
67.91649596903706

>  <Genealogy>  (89) 
N#CCc1ccc2cc(C([NH-])=O)n(C(=O)OC(=O)C(F)(F)F)c2c1 (protonated)
N#CCc1ccc2cc(C([NH-])=O)n(C(=O)OC(=O)C(F)(F)F)c2c1 (3D coordinates assigned)
N#CCc1ccc2cc(C([NH-])=O)n(C(=O)OC(=O)C(F)(F)F)c2c1 (optimized conformer: 67.91649596903706 kcal/mol)

>  <smiles>  (89) 
N#CCc1ccc2cc(C(N)=O)n(C(=O)OC(=O)C(F)(F)F)c2c1

>  <score_type>  (89) 
oracle

>  <origin>  (89) 
adg

>  <m_score__min__energy>  (89) 
-9.5600000000000005

>  <m_primary>  (89) 
energy

$$$$
91:0
     RDKit          3D

 36 37  0  0  0  0  0  0  0  0999 V2000
   -2.8500   20.8230  -29.1540 C   0  0  0  0  0  0  0  0  0  0  0  0
   -3.2420   22.2170  -29.3830 N   0  0  0  0  0  0  0  0  0  0  0  0
   -3.1780   23.1940  -28.2870 C   0  0  0  0  0  0  0  0  0  0  0  0
   -1.8530   23.9530  -28.3290 C   0  0  0  0  0  0  0  0  0  0  0  0
   -1.8990   24.9210  -29.3390 O   0  0  0  0  0  0  0  0  0  0  0  0
   -3.6200   22.6390  -30.7080 C   0  0  0  0  0  0  0  0  0  0  0  0
   -2.7360   22.8610  -31.5800 O   0  0  0  0  0  0  0  0  0  0  0  0
   -5.0010   22.8190  -31.0510 N   0  0  0  0  0  0  0  0  0  0  0  0
   -5.7420   23.9570  -30.9670 C   0  0  0  0  0  0  0  0  0  0  0  0
   -5.2320   25.2940  -30.5970 C   0  0  0  0  0  0  0  0  0  0  0  0
   -3.8750   25.6570  -30.8410 N   0  0  0  0  0  0  0  0  0  0  0  0
   -6.0100   26.1370  -30.0740 O   0  0  0  0  0  0  0  0  0  0  0  0
   -7.0670   23.7000  -31.3190 C   0  0  0  0  0  0  0  0  0  0  0  0
   -7.1110   22.3560  -31.6170 C   0  0  0  0  0  0  0  0  0  0  0  0
   -8.1810   21.5550  -32.0000 C   0  0  0  0  0  0  0  0  0  0  0  0
   -7.9380   20.1860  -32.2130 C   0  0  0  0  0  0  0  0  0  0  0  0
   -6.6340   19.6470  -32.0500 C   0  0  0  0  0  0  0  0  0  0  0  0
   -6.3970   18.1690  -32.2260 C   0  0  0  0  0  0  0  0  0  0  0  0
   -7.5150   17.5540  -32.7640 F   0  0  0  0  0  0  0  0  0  0  0  0
   -6.1200   17.5710  -31.0070 F   0  0  0  0  0  0  0  0  0  0  0  0
   -5.3240   17.9780  -33.0760 F   0  0  0  0  0  0  0  0  0  0  0  0
   -5.5800   20.4910  -31.6330 C   0  0  0  0  0  0  0  0  0  0  0  0
   -5.8510   21.8490  -31.4450 C   0  0  0  0  0  0  0  0  0  0  0  0
   -2.7958   20.6303  -28.0724 H   0  0  0  0  0  0  0  0  0  0  0  0
   -3.5946   20.1532  -29.6089 H   0  0  0  0  0  0  0  0  0  0  0  0
   -1.8654   20.6395  -29.6089 H   0  0  0  0  0  0  0  0  0  0  0  0
   -4.0085   23.9081  -28.3887 H   0  0  0  0  0  0  0  0  0  0  0  0
   -3.2543   22.6608  -27.3279 H   0  0  0  0  0  0  0  0  0  0  0  0
   -1.6809   24.4432  -27.3594 H   0  0  0  0  0  0  0  0  0  0  0  0
   -1.0342   23.2480  -28.5352 H   0  0  0  0  0  0  0  0  0  0  0  0
   -2.1980   24.4480  -30.1590 H   0  0  0  0  0  0  0  0  0  0  0  0
   -3.1420   24.9280  -30.9890 H   0  0  0  0  0  0  0  0  0  0  0  0
   -7.8997   24.4180  -31.3517 H   0  0  0  0  0  0  0  0  0  0  0  0
   -9.1873   21.9791  -32.1325 H   0  0  0  0  0  0  0  0  0  0  0  0
   -8.7666   19.5258  -32.5089 H   0  0  0  0  0  0  0  0  0  0  0  0
   -4.5708   20.0888  -31.4606 H   0  0  0  0  0  0  0  0  0  0  0  0
  1  2  1  0
  2  3  1  0
  3  4  1  0
  4  5  1  0
  2  6  1  0
  6  7  2  0
  6  8  1  0
  8  9  1  0
  9 10  1  0
 10 11  1  0
 10 12  2  0
  9 13  2  0
 13 14  1  0
 14 15  2  0
 15 16  1  0
 16 17  2  0
 17 18  1  0
 18 19  1  0
 18 20  1  0
 18 21  1  0
 17 22  1  0
 22 23  2  0
 23  8  1  0
 23 14  1  0
  1 24  1  0
  1 25  1  0
  1 26  1  0
  3 27  1  0
  3 28  1  0
  4 29  1  0
  4 30  1  0
  5 31  1  0
 11 32  1  0
 13 33  1  0
 15 34  1  0
 16 35  1  0
 22 36  1  0
M  CHG  1  11  -1
M  END
>  <UniqueID>  (90) 
88

>  <SMILES>  (90) 
CN(CCO)C(=O)n1c(C([NH-])=O)cc2ccc(C(F)(F)F)cc21

>  <Energy>  (90) 
70.93723267274888

>  <Genealogy>  (90) 
CN(CCO)C(=O)n1c(C([NH-])=O)cc2ccc(C(F)(F)F)cc21 (protonated)
CN(CCO)C(=O)n1c(C([NH-])=O)cc2ccc(C(F)(F)F)cc21 (3D coordinates assigned)
CN(CCO)C(=O)n1c(C([NH-])=O)cc2ccc(C(F)(F)F)cc21 (optimized conformer: 70.93723267274888 kcal/mol)

>  <smiles>  (90) 
CN(CCO)C(=O)n1c(C(N)=O)cc2ccc(C(F)(F)F)cc21

>  <score_type>  (90) 
oracle

>  <origin>  (90) 
adg

>  <m_score__min__energy>  (90) 
-9.8200000000000003

>  <m_primary>  (90) 
energy

$$$$
92:0
     RDKit          3D

 39 40  0  0  0  0  0  0  0  0999 V2000
   -3.8550   25.3090  -30.8110 N   0  0  0  0  0  0  0  0  0  0  0  0
   -5.2500   25.1640  -30.5470 C   0  0  0  0  0  0  0  0  0  0  0  0
   -5.8710   26.1010  -29.9810 O   0  0  0  0  0  0  0  0  0  0  0  0
   -5.9550   23.9360  -30.9720 C   0  0  0  0  0  0  0  0  0  0  0  0
   -7.3010   23.9100  -31.3350 C   0  0  0  0  0  0  0  0  0  0  0  0
   -7.5870   22.5870  -31.5730 C   0  0  0  0  0  0  0  0  0  0  0  0
   -8.7810   21.9850  -31.9610 C   0  0  0  0  0  0  0  0  0  0  0  0
   -8.7860   20.5930  -32.1500 C   0  0  0  0  0  0  0  0  0  0  0  0
   -7.6010   19.8310  -31.9760 C   0  0  0  0  0  0  0  0  0  0  0  0
   -7.6190   18.3330  -32.1430 C   0  0  0  0  0  0  0  0  0  0  0  0
   -6.7740   17.7210  -31.2320 F   0  0  0  0  0  0  0  0  0  0  0  0
   -7.2060   18.0140  -33.4230 F   0  0  0  0  0  0  0  0  0  0  0  0
   -8.8980   17.8420  -31.9430 F   0  0  0  0  0  0  0  0  0  0  0  0
   -6.4130   20.4790  -31.5650 C   0  0  0  0  0  0  0  0  0  0  0  0
   -6.4430   21.8630  -31.3620 C   0  0  0  0  0  0  0  0  0  0  0  0
   -5.4300   22.6770  -30.9930 N   0  0  0  0  0  0  0  0  0  0  0  0
   -4.0790   22.2760  -30.7180 C   0  0  0  0  0  0  0  0  0  0  0  0
   -3.1610   22.5400  -31.5420 O   0  0  0  0  0  0  0  0  0  0  0  0
   -3.7920   21.5710  -29.5460 O   0  0  0  0  0  0  0  0  0  0  0  0
   -2.4650   21.3520  -29.0810 C   0  0  0  0  0  0  0  0  0  0  0  0
   -2.4270   21.4370  -27.5580 C   0  0  0  0  0  0  0  0  0  0  0  0
   -1.5110   22.4370  -27.1460 O   0  0  0  0  0  0  0  0  0  0  0  0
   -2.0080   23.7370  -27.3930 C   0  0  0  0  0  0  0  0  0  0  0  0
   -1.0900   24.5200  -28.7560 P   0  0  2  0  0  0  0  0  0  0  0  0
    0.3840   24.5220  -28.4230 O   0  0  0  0  0  0  0  0  0  0  0  0
   -1.6150   26.1130  -28.9700 O   0  0  0  0  0  0  0  0  0  0  0  0
   -1.3400   23.6460  -30.1840 O   0  0  0  0  0  0  0  0  0  0  0  0
   -3.1940   24.5150  -30.6530 H   0  0  0  0  0  0  0  0  0  0  0  0
   -7.9875   24.7658  -31.4140 H   0  0  0  0  0  0  0  0  0  0  0  0
   -9.6925   22.5812  -32.1148 H   0  0  0  0  0  0  0  0  0  0  0  0
   -9.7198   20.0871  -32.4364 H   0  0  0  0  0  0  0  0  0  0  0  0
   -5.4861   19.9077  -31.4084 H   0  0  0  0  0  0  0  0  0  0  0  0
   -2.1271   20.3547  -29.3991 H   0  0  0  0  0  0  0  0  0  0  0  0
   -1.8020   22.1217  -29.5030 H   0  0  0  0  0  0  0  0  0  0  0  0
   -3.4305   21.6867  -27.1829 H   0  0  0  0  0  0  0  0  0  0  0  0
   -2.1051   20.4665  -27.1524 H   0  0  0  0  0  0  0  0  0  0  0  0
   -3.0724   23.6727  -27.6630 H   0  0  0  0  0  0  0  0  0  0  0  0
   -1.8841   24.3446  -26.4844 H   0  0  0  0  0  0  0  0  0  0  0  0
   -2.3180   23.6890  -30.3360 H   0  0  0  0  0  0  0  0  0  0  0  0
  1  2  1  0
  2  3  2  0
  2  4  1  0
  4  5  2  0
  5  6  1  0
  6  7  2  0
  7  8  1  0
  8  9  2  0
  9 10  1  0
 10 11  1  0
 10 12  1  0
 10 13  1  0
  9 14  1  0
 14 15  2  0
 15 16  1  0
 16 17  1  0
 17 18  2  0
 17 19  1  0
 19 20  1  0
 20 21  1  0
 21 22  1  0
 22 23  1  0
 23 24  1  0
 24 25  2  0
 24 26  1  6
 24 27  1  0
 16  4  1  0
 15  6  1  0
  1 28  1  0
  5 29  1  0
  7 30  1  0
  8 31  1  0
 14 32  1  0
 20 33  1  0
 20 34  1  0
 21 35  1  0
 21 36  1  0
 23 37  1  0
 23 38  1  0
 27 39  1  0
M  CHG  2   1  -1  26  -1
M  END
>  <UniqueID>  (91) 
89

>  <SMILES>  (91) 
[NH-]C(=O)c1cc2ccc(C(F)(F)F)cc2n1C(=O)OCCOC[P@](=O)([O-])O

>  <Energy>  (91) 
71.49836077441786

>  <Genealogy>  (91) 
[NH-]C(=O)c1cc2ccc(C(F)(F)F)cc2n1C(=O)OCCOCP(=O)([O-])O (protonated)
[NH-]C(=O)c1cc2ccc(C(F)(F)F)cc2n1C(=O)OCCOC[P@](=O)([O-])O (chirality)
[NH-]C(=O)c1cc2ccc(C(F)(F)F)cc2n1C(=O)OCCOC[P@](=O)([O-])O (3D coordinates assigned)
[NH-]C(=O)c1cc2ccc(C(F)(F)F)cc2n1C(=O)OCCOC[P@](=O)([O-])O (optimized conformer: 71.49836077441786 kcal/mol)

>  <smiles>  (91) 
NC(=O)c1cc2ccc(C(F)(F)F)cc2n1C(=O)OCCOCP(=O)(O)O

>  <score_type>  (91) 
oracle

>  <origin>  (91) 
adg

>  <m_score__min__energy>  (91) 
-12.02

>  <m_primary>  (91) 
energy

$$$$
93:0
     RDKit          3D

 37 39  0  0  0  0  0  0  0  0999 V2000
   -5.4670   19.3040  -34.0330 C   0  0  0  0  0  0  0  0  0  0  0  0
   -5.5810   19.9760  -32.7330 N   0  0  0  0  0  0  0  0  0  0  0  0
   -4.3750   20.5040  -32.1430 C   0  0  0  0  0  0  0  0  0  0  0  0
   -3.1570   19.7790  -32.2180 C   0  0  0  0  0  0  0  0  0  0  0  0
   -1.9780   20.2960  -31.6570 C   0  0  0  0  0  0  0  0  0  0  0  0
   -2.0430   21.5330  -31.0270 C   0  0  0  0  0  0  0  0  0  0  0  0
   -1.0510   22.2730  -30.4270 C   0  0  0  0  0  0  0  0  0  0  0  0
   -1.6760   23.4340  -29.9760 C   0  0  0  0  0  0  0  0  0  0  0  0
   -0.9850   24.4740  -29.1880 C   0  0  0  0  0  0  0  0  0  0  0  0
   -1.5840   25.7490  -28.9690 N   0  0  0  0  0  0  0  0  0  0  0  0
    0.1290   24.2180  -28.6560 O   0  0  0  0  0  0  0  0  0  0  0  0
   -3.0020   23.4170  -30.2930 N   0  0  0  0  0  0  0  0  0  0  0  0
   -3.9670   24.4630  -30.0890 C   0  0  0  0  0  0  0  0  0  0  0  0
   -4.9200   24.3000  -29.2830 O   0  0  0  0  0  0  0  0  0  0  0  0
   -3.8720   25.6520  -30.8010 O   0  0  0  0  0  0  0  0  0  0  0  0
   -3.2110   22.2450  -30.9340 C   0  0  0  0  0  0  0  0  0  0  0  0
   -4.3970   21.7620  -31.4990 C   0  0  0  0  0  0  0  0  0  0  0  0
   -6.8030   19.7890  -31.9240 C   0  0  2  0  0  0  0  0  0  0  0  0
   -7.0730   18.3260  -31.5550 C   0  0  0  0  0  0  0  0  0  0  0  0
   -8.3780   18.3620  -32.3400 C   0  0  1  0  0  0  0  0  0  0  0  0
   -9.4890   18.2570  -31.4930 O   0  0  0  0  0  0  0  0  0  0  0  0
   -8.1000   19.8050  -32.7450 C   0  0  0  0  0  0  0  0  0  0  0  0
   -5.2849   18.2306  -33.8762 H   0  0  0  0  0  0  0  0  0  0  0  0
   -6.4008   19.4387  -34.5985 H   0  0  0  0  0  0  0  0  0  0  0  0
   -4.6298   19.7391  -34.5985 H   0  0  0  0  0  0  0  0  0  0  0  0
   -3.1364   18.8011  -32.7213 H   0  0  0  0  0  0  0  0  0  0  0  0
   -1.0314   19.7386  -31.7145 H   0  0  0  0  0  0  0  0  0  0  0  0
    0.0110   22.0051  -30.3248 H   0  0  0  0  0  0  0  0  0  0  0  0
   -2.6210   25.8690  -29.0000 H   0  0  0  0  0  0  0  0  0  0  0  0
   -5.3259   22.3486  -31.4431 H   0  0  0  0  0  0  0  0  0  0  0  0
   -6.6236   20.5451  -31.1455 H   0  0  0  0  0  0  0  0  0  0  0  0
   -7.2034   18.1526  -30.4766 H   0  0  0  0  0  0  0  0  0  0  0  0
   -6.3198   17.5527  -31.7664 H   0  0  0  0  0  0  0  0  0  0  0  0
   -8.5983   17.6027  -33.1048 H   0  0  0  0  0  0  0  0  0  0  0  0
   -9.2820   17.5180  -30.8640 H   0  0  0  0  0  0  0  0  0  0  0  0
   -8.8501   20.5245  -32.3848 H   0  0  0  0  0  0  0  0  0  0  0  0
   -8.0818   20.0903  -33.8072 H   0  0  0  0  0  0  0  0  0  0  0  0
  1  2  1  0
  2  3  1  0
  3  4  2  0
  4  5  1  0
  5  6  2  0
  6  7  1  0
  7  8  2  0
  8  9  1  0
  9 10  1  0
  9 11  2  0
  8 12  1  0
 12 13  1  0
 13 14  2  0
 13 15  1  0
 12 16  1  0
 16 17  2  0
  2 18  1  0
 18 19  1  0
 19 20  1  0
 20 21  1  0
 20 22  1  0
 17  3  1  0
 22 18  1  0
 16  6  1  0
  1 23  1  0
  1 24  1  0
  1 25  1  0
  4 26  1  0
  5 27  1  0
  7 28  1  0
 10 29  1  0
 17 30  1  0
 18 31  1  1
 19 32  1  0
 19 33  1  0
 20 34  1  6
 21 35  1  0
 22 36  1  0
 22 37  1  0
M  CHG  2  10  -1  15  -1
M  END
>  <UniqueID>  (92) 
90

>  <SMILES>  (92) 
CN(c1ccc2cc(C([NH-])=O)n(C(=O)[O-])c2c1)C1CC(O)C1

>  <Energy>  (92) 
142.9755599393458

>  <Genealogy>  (92) 
CN(c1ccc2cc(C([NH-])=O)n(C(=O)[O-])c2c1)C1CC(O)C1 (protonated)
CN(c1ccc2cc(C([NH-])=O)n(C(=O)[O-])c2c1)C1CC(O)C1 (3D coordinates assigned)
CN(c1ccc2cc(C([NH-])=O)n(C(=O)[O-])c2c1)C1CC(O)C1 (nonaromatic ring conformer: 142.9755599393458 kcal/mol)

>  <smiles>  (92) 
CN(c1ccc2cc(C(N)=O)n(C(=O)O)c2c1)C1CC(O)C1

>  <score_type>  (92) 
oracle

>  <origin>  (92) 
adg

>  <m_score__min__energy>  (92) 
-11.51

>  <m_primary>  (92) 
energy

$$$$
94:0
     RDKit          3D

 41 42  0  0  0  0  0  0  0  0999 V2000
   -3.4140   19.2990  -33.8430 C   0  0  0  0  0  0  0  0  0  0  0  0
   -4.2050   18.2150  -34.5740 C   0  0  0  0  0  0  0  0  0  0  0  0
   -5.7210   18.4880  -34.5950 C   0  0  0  0  0  0  0  0  0  0  0  0
   -6.5130   17.6350  -33.5930 C   0  0  0  0  0  0  0  0  0  0  0  0
   -6.4230   18.1840  -32.2400 N   0  0  0  0  0  0  0  0  0  0  0  0
   -6.6390   19.5700  -31.9210 C   0  0  0  0  0  0  0  0  0  0  0  0
   -7.9540   20.0930  -31.9720 C   0  0  0  0  0  0  0  0  0  0  0  0
   -8.2030   21.4480  -31.6980 C   0  0  0  0  0  0  0  0  0  0  0  0
   -7.1170   22.2590  -31.3810 C   0  0  0  0  0  0  0  0  0  0  0  0
   -7.0670   23.6060  -31.1100 C   0  0  0  0  0  0  0  0  0  0  0  0
   -5.7210   23.8900  -30.8930 C   0  0  0  0  0  0  0  0  0  0  0  0
   -5.2260   25.2220  -30.4840 C   0  0  0  0  0  0  0  0  0  0  0  0
   -3.9330   25.6760  -30.8730 N   0  0  0  0  0  0  0  0  0  0  0  0
   -5.9370   25.9490  -29.7380 O   0  0  0  0  0  0  0  0  0  0  0  0
   -4.9670   22.7640  -31.0340 N   0  0  0  0  0  0  0  0  0  0  0  0
   -3.5360   22.6460  -30.9790 C   0  0  0  0  0  0  0  0  0  0  0  0
   -2.9220   22.0060  -31.8770 O   0  0  0  0  0  0  0  0  0  0  0  0
   -2.8330   23.2170  -29.9120 O   0  0  0  0  0  0  0  0  0  0  0  0
   -1.4160   23.1360  -29.7740 C   0  0  0  0  0  0  0  0  0  0  0  0
   -0.8790   24.4020  -29.1870 C   0  0  0  0  0  0  0  0  0  0  0  0
    0.2290   24.4060  -28.5900 O   0  0  0  0  0  0  0  0  0  0  0  0
   -1.5920   25.5870  -29.3250 O   0  0  0  0  0  0  0  0  0  0  0  0
   -5.8360   21.7730  -31.3260 C   0  0  0  0  0  0  0  0  0  0  0  0
   -5.5590   20.4310  -31.6110 C   0  0  0  0  0  0  0  0  0  0  0  0
   -3.5166   19.1583  -32.7569 H   0  0  0  0  0  0  0  0  0  0  0  0
   -2.3525   19.2301  -34.1230 H   0  0  0  0  0  0  0  0  0  0  0  0
   -3.8035   20.2889  -34.1230 H   0  0  0  0  0  0  0  0  0  0  0  0
   -3.8446   18.1575  -35.6117 H   0  0  0  0  0  0  0  0  0  0  0  0
   -4.0478   17.2707  -34.0322 H   0  0  0  0  0  0  0  0  0  0  0  0
   -5.8867   19.5489  -34.3560 H   0  0  0  0  0  0  0  0  0  0  0  0
   -6.0825   18.2243  -35.5999 H   0  0  0  0  0  0  0  0  0  0  0  0
   -7.5690   17.6097  -33.8999 H   0  0  0  0  0  0  0  0  0  0  0  0
   -6.0855   16.6215  -33.5857 H   0  0  0  0  0  0  0  0  0  0  0  0
   -6.0130   17.5650  -31.5040 H   0  0  0  0  0  0  0  0  0  0  0  0
   -8.7922   19.4289  -32.2298 H   0  0  0  0  0  0  0  0  0  0  0  0
   -9.2242   21.8554  -31.7328 H   0  0  0  0  0  0  0  0  0  0  0  0
   -7.9113   24.3102  -31.0725 H   0  0  0  0  0  0  0  0  0  0  0  0
   -3.0710   25.2880  -30.4290 H   0  0  0  0  0  0  0  0  0  0  0  0
   -1.1632   22.2937  -29.1132 H   0  0  0  0  0  0  0  0  0  0  0  0
   -0.9678   22.9834  -30.7669 H   0  0  0  0  0  0  0  0  0  0  0  0
   -4.5258   20.0540  -31.5945 H   0  0  0  0  0  0  0  0  0  0  0  0
  1  2  1  0
  2  3  1  0
  3  4  1  0
  4  5  1  0
  5  6  1  0
  6  7  2  0
  7  8  1  0
  8  9  2  0
  9 10  1  0
 10 11  2  0
 11 12  1  0
 12 13  1  0
 12 14  2  0
 11 15  1  0
 15 16  1  0
 16 17  2  0
 16 18  1  0
 18 19  1  0
 19 20  1  0
 20 21  2  0
 20 22  1  0
 15 23  1  0
 23 24  2  0
 24  6  1  0
 23  9  1  0
  1 25  1  0
  1 26  1  0
  1 27  1  0
  2 28  1  0
  2 29  1  0
  3 30  1  0
  3 31  1  0
  4 32  1  0
  4 33  1  0
  5 34  1  0
  7 35  1  0
  8 36  1  0
 10 37  1  0
 13 38  1  0
 19 39  1  0
 19 40  1  0
 24 41  1  0
M  CHG  2  13  -1  22  -1
M  END
>  <UniqueID>  (93) 
91

>  <SMILES>  (93) 
CCCCNc1ccc2cc(C([NH-])=O)n(C(=O)OCC(=O)[O-])c2c1

>  <Energy>  (93) 
74.00856946061589

>  <Genealogy>  (93) 
CCCCNc1ccc2cc(C([NH-])=O)n(C(=O)OCC(=O)[O-])c2c1 (protonated)
CCCCNc1ccc2cc(C([NH-])=O)n(C(=O)OCC(=O)[O-])c2c1 (3D coordinates assigned)
CCCCNc1ccc2cc(C([NH-])=O)n(C(=O)OCC(=O)[O-])c2c1 (optimized conformer: 74.00856946061589 kcal/mol)

>  <smiles>  (93) 
CCCCNc1ccc2cc(C(N)=O)n(C(=O)OCC(=O)O)c2c1

>  <score_type>  (93) 
oracle

>  <origin>  (93) 
adg

>  <m_score__min__energy>  (93) 
-12.050000000000001

>  <m_primary>  (93) 
energy

$$$$
95:0
     RDKit          3D

 37 38  0  0  0  0  0  0  0  0999 V2000
   -4.0100   17.6940  -34.2700 N   0  0  0  0  0  0  0  0  0  0  0  0
   -5.1290   18.5330  -34.5470 C   0  0  0  0  0  0  0  0  0  0  0  0
   -5.7580   18.3860  -35.6280 O   0  0  0  0  0  0  0  0  0  0  0  0
   -5.5600   19.5360  -33.5500 C   0  0  0  0  0  0  0  0  0  0  0  0
   -6.8740   19.6590  -33.1010 C   0  0  0  0  0  0  0  0  0  0  0  0
   -6.8720   20.7490  -32.2610 C   0  0  0  0  0  0  0  0  0  0  0  0
   -7.9110   21.3200  -31.5300 C   0  0  0  0  0  0  0  0  0  0  0  0
   -7.6150   22.4310  -30.7210 C   0  0  0  0  0  0  0  0  0  0  0  0
   -6.2950   22.9380  -30.6500 C   0  0  0  0  0  0  0  0  0  0  0  0
   -6.0020   24.0580  -29.8120 N   0  0  0  0  0  0  0  0  0  0  0  0
   -5.2660   22.3320  -31.4010 C   0  0  0  0  0  0  0  0  0  0  0  0
   -5.5940   21.2420  -32.2170 C   0  0  0  0  0  0  0  0  0  0  0  0
   -4.7760   20.5080  -33.0020 N   0  0  0  0  0  0  0  0  0  0  0  0
   -3.3650   20.7130  -33.1740 C   0  0  0  0  0  0  0  0  0  0  0  0
   -2.7730   20.2240  -34.1740 O   0  0  0  0  0  0  0  0  0  0  0  0
   -2.6510   21.4310  -32.2110 O   0  0  0  0  0  0  0  0  0  0  0  0
   -2.1030   20.8250  -31.0440 C   0  0  0  0  0  0  0  0  0  0  0  0
   -0.8770   21.6100  -30.5720 C   0  0  0  0  0  0  0  0  0  0  0  0
   -1.2490   23.0090  -30.0760 C   0  0  0  0  0  0  0  0  0  0  0  0
   -2.6260   23.2160  -30.2790 O   0  0  0  0  0  0  0  0  0  0  0  0
   -3.0340   24.7570  -29.6710 P   0  0  0  0  0  0  0  0  0  0  0  0
   -3.8930   24.6190  -28.4340 O   0  0  0  0  0  0  0  0  0  0  0  0
   -3.8690   25.6470  -30.8440 O   0  0  0  0  0  0  0  0  0  0  0  0
   -1.6140   25.5800  -29.2670 O   0  0  0  0  0  0  0  0  0  0  0  0
   -3.0950   18.1010  -33.9720 H   0  0  0  0  0  0  0  0  0  0  0  0
   -7.7306   19.0204  -33.3626 H   0  0  0  0  0  0  0  0  0  0  0  0
   -8.9319   20.9141  -31.5840 H   0  0  0  0  0  0  0  0  0  0  0  0
   -8.4155   22.9103  -30.1384 H   0  0  0  0  0  0  0  0  0  0  0  0
   -6.5000   24.1910  -28.9030 H   0  0  0  0  0  0  0  0  0  0  0  0
   -5.2840   24.7630  -30.0940 H   0  0  0  0  0  0  0  0  0  0  0  0
   -4.2329   22.7058  -31.3471 H   0  0  0  0  0  0  0  0  0  0  0  0
   -2.8608   20.8192  -30.2467 H   0  0  0  0  0  0  0  0  0  0  0  0
   -1.8019   19.7938  -31.2806 H   0  0  0  0  0  0  0  0  0  0  0  0
   -0.3963   21.0581  -29.7508 H   0  0  0  0  0  0  0  0  0  0  0  0
   -0.1952   21.7228  -31.4278 H   0  0  0  0  0  0  0  0  0  0  0  0
   -1.0174   23.0939  -29.0040 H   0  0  0  0  0  0  0  0  0  0  0  0
   -0.6738   23.7650  -30.6306 H   0  0  0  0  0  0  0  0  0  0  0  0
  1  2  1  0
  2  3  2  0
  2  4  1  0
  4  5  2  0
  5  6  1  0
  6  7  2  0
  7  8  1  0
  8  9  2  0
  9 10  1  0
  9 11  1  0
 11 12  2  0
 12 13  1  0
 13 14  1  0
 14 15  2  0
 14 16  1  0
 16 17  1  0
 17 18  1  0
 18 19  1  0
 19 20  1  0
 20 21  1  0
 21 22  2  0
 21 23  1  0
 21 24  1  0
 13  4  1  0
 12  6  1  0
  1 25  1  0
  5 26  1  0
  7 27  1  0
  8 28  1  0
 10 29  1  0
 10 30  1  0
 11 31  1  0
 17 32  1  0
 17 33  1  0
 18 34  1  0
 18 35  1  0
 19 36  1  0
 19 37  1  0
M  CHG  3   1  -1  23  -1  24  -1
M  END
>  <UniqueID>  (94) 
92

>  <SMILES>  (94) 
[NH-]C(=O)c1cc2ccc(N)cc2n1C(=O)OCCCOP(=O)([O-])[O-]

>  <Energy>  (94) 
66.50980439701235

>  <Genealogy>  (94) 
[NH-]C(=O)c1cc2ccc(N)cc2n1C(=O)OCCCOP(=O)([O-])[O-] (protonated)
[NH-]C(=O)c1cc2ccc(N)cc2n1C(=O)OCCCOP(=O)([O-])[O-] (3D coordinates assigned)
[NH-]C(=O)c1cc2ccc(N)cc2n1C(=O)OCCCOP(=O)([O-])[O-] (optimized conformer: 66.50980439701235 kcal/mol)

>  <smiles>  (94) 
NC(=O)c1cc2ccc(N)cc2n1C(=O)OCCCOP(=O)(O)O

>  <score_type>  (94) 
oracle

>  <origin>  (94) 
adg

>  <m_score__min__energy>  (94) 
-12.74

>  <m_primary>  (94) 
energy

$$$$
96:0
     RDKit          3D

 58 59  0  0  0  0  0  0  0  0999 V2000
   -4.7970   18.2420  -34.2270 C   0  0  0  0  0  0  0  0  0  0  0  0
   -6.1290   18.1660  -34.1410 C   0  0  0  0  0  0  0  0  0  0  0  0
   -6.8470   18.2420  -32.8220 C   0  0  0  0  0  0  0  0  0  0  0  0
   -7.0680   19.6730  -32.4050 C   0  0  0  0  0  0  0  0  0  0  0  0
   -8.3560   20.2550  -32.4970 C   0  0  0  0  0  0  0  0  0  0  0  0
   -8.5640   21.5950  -32.1260 C   0  0  0  0  0  0  0  0  0  0  0  0
   -7.4730   22.3180  -31.6520 C   0  0  0  0  0  0  0  0  0  0  0  0
   -7.3870   23.6380  -31.2680 C   0  0  0  0  0  0  0  0  0  0  0  0
   -6.0580   23.8260  -30.8960 C   0  0  0  0  0  0  0  0  0  0  0  0
   -5.5350   25.1060  -30.3760 C   0  0  0  0  0  0  0  0  0  0  0  0
   -4.2110   25.5470  -30.6880 N   0  0  0  0  0  0  0  0  0  0  0  0
   -6.2520   25.8010  -29.6060 O   0  0  0  0  0  0  0  0  0  0  0  0
   -5.3450   22.6740  -31.0530 N   0  0  0  0  0  0  0  0  0  0  0  0
   -3.9330   22.4830  -30.8580 C   0  0  0  0  0  0  0  0  0  0  0  0
   -3.1120   22.9980  -31.6630 O   0  0  0  0  0  0  0  0  0  0  0  0
   -3.4720   21.7440  -29.7660 O   0  0  0  0  0  0  0  0  0  0  0  0
   -3.7240   22.1250  -28.4150 C   0  0  0  0  0  0  0  0  0  0  0  0
   -2.7340   23.0540  -27.9750 O   0  0  0  0  0  0  0  0  0  0  0  0
   -1.4570   22.6530  -27.5640 C   0  0  0  0  0  0  0  0  0  0  0  0
   -1.2820   22.1660  -26.4130 O   0  0  0  0  0  0  0  0  0  0  0  0
   -0.2720   22.8130  -28.4770 C   0  0  1  0  0  0  0  0  0  0  0  0
   -0.2380   21.7140  -29.5480 C   0  0  0  0  0  0  0  0  0  0  0  0
   -0.2230   24.1540  -29.0650 N   0  0  0  0  0  0  0  0  0  0  0  0
   -1.1130   25.2430  -28.7880 C   0  0  0  0  0  0  0  0  0  0  0  0
   -2.2160   25.2920  -29.3960 O   0  0  0  0  0  0  0  0  0  0  0  0
   -0.7650   26.2210  -27.8430 O   0  0  0  0  0  0  0  0  0  0  0  0
   -0.9880   26.1480  -26.4250 C   0  0  0  0  0  0  0  0  0  0  0  0
   -0.8070   27.5660  -25.8610 C   0  0  0  0  0  0  0  0  0  0  0  0
    0.0470   25.2180  -25.7600 C   0  0  0  0  0  0  0  0  0  0  0  0
   -2.4200   25.6630  -26.1230 C   0  0  0  0  0  0  0  0  0  0  0  0
   -6.2270   21.7590  -31.5200 C   0  0  0  0  0  0  0  0  0  0  0  0
   -5.9870   20.4360  -31.9100 C   0  0  0  0  0  0  0  0  0  0  0  0
   -4.3050   18.1827  -35.2090 H   0  0  0  0  0  0  0  0  0  0  0  0
   -4.1931   18.3638  -33.3157 H   0  0  0  0  0  0  0  0  0  0  0  0
   -6.7172   18.0443  -35.0625 H   0  0  0  0  0  0  0  0  0  0  0  0
   -7.8216   17.7403  -32.9143 H   0  0  0  0  0  0  0  0  0  0  0  0
   -6.2279   17.7479  -32.0588 H   0  0  0  0  0  0  0  0  0  0  0  0
   -9.2012   19.6531  -32.8621 H   0  0  0  0  0  0  0  0  0  0  0  0
   -9.5585   22.0580  -32.2078 H   0  0  0  0  0  0  0  0  0  0  0  0
   -8.1952   24.3842  -31.2574 H   0  0  0  0  0  0  0  0  0  0  0  0
   -3.5490   24.9260  -31.2020 H   0  0  0  0  0  0  0  0  0  0  0  0
   -3.8860   26.4920  -30.3770 H   0  0  0  0  0  0  0  0  0  0  0  0
   -4.7173   22.5928  -28.3481 H   0  0  0  0  0  0  0  0  0  0  0  0
   -3.6879   21.2305  -27.7758 H   0  0  0  0  0  0  0  0  0  0  0  0
    0.6358   22.6977  -27.8666 H   0  0  0  0  0  0  0  0  0  0  0  0
   -0.2075   20.7282  -29.0609 H   0  0  0  0  0  0  0  0  0  0  0  0
   -1.1388   21.7853  -30.1753 H   0  0  0  0  0  0  0  0  0  0  0  0
    0.6566   21.8409  -30.1753 H   0  0  0  0  0  0  0  0  0  0  0  0
   -0.8120   27.5268  -24.7617 H   0  0  0  0  0  0  0  0  0  0  0  0
    0.1512   27.9794  -26.2088 H   0  0  0  0  0  0  0  0  0  0  0  0
   -1.6306   28.2068  -26.2088 H   0  0  0  0  0  0  0  0  0  0  0  0
   -0.0396   25.2958  -24.6662 H   0  0  0  0  0  0  0  0  0  0  0  0
   -0.1409   24.1794  -26.0698 H   0  0  0  0  0  0  0  0  0  0  0  0
    1.0597   25.5155  -26.0698 H   0  0  0  0  0  0  0  0  0  0  0  0
   -2.5681   25.6128  -25.0342 H   0  0  0  0  0  0  0  0  0  0  0  0
   -3.1449   26.3658  -26.5597 H   0  0  0  0  0  0  0  0  0  0  0  0
   -2.5687   24.6644  -26.5597 H   0  0  0  0  0  0  0  0  0  0  0  0
   -4.9798   20.0006  -31.8328 H   0  0  0  0  0  0  0  0  0  0  0  0
  1  2  2  0
  2  3  1  0
  3  4  1  0
  4  5  2  0
  5  6  1  0
  6  7  2  0
  7  8  1  0
  8  9  2  0
  9 10  1  0
 10 11  1  0
 10 12  2  0
  9 13  1  0
 13 14  1  0
 14 15  2  0
 14 16  1  0
 16 17  1  0
 17 18  1  0
 18 19  1  0
 19 20  2  0
 19 21  1  0
 21 22  1  0
 21 23  1  0
 23 24  1  0
 24 25  2  0
 24 26  1  0
 26 27  1  0
 27 28  1  0
 27 29  1  0
 27 30  1  0
 13 31  1  0
 31 32  2  0
 32  4  1  0
 31  7  1  0
  1 33  1  0
  1 34  1  0
  2 35  1  0
  3 36  1  0
  3 37  1  0
  5 38  1  0
  6 39  1  0
  8 40  1  0
 11 41  1  0
 11 42  1  0
 17 43  1  0
 17 44  1  0
 21 45  1  1
 22 46  1  0
 22 47  1  0
 22 48  1  0
 28 49  1  0
 28 50  1  0
 28 51  1  0
 29 52  1  0
 29 53  1  0
 29 54  1  0
 30 55  1  0
 30 56  1  0
 30 57  1  0
 32 58  1  0
M  CHG  1  23  -1
M  END
>  <UniqueID>  (95) 
93

>  <SMILES>  (95) 
C=CCc1ccc2cc(C(N)=O)n(C(=O)OCOC(=O)[C@@H](C)[N-]C(=O)OC(C)(C)C)c2c1

>  <Energy>  (95) 
79.99736763112026

>  <Genealogy>  (95) 
C=CCc1ccc2cc(C(N)=O)n(C(=O)OCOC(=O)C(C)[N-]C(=O)OC(C)(C)C)c2c1 (protonated)
C=CCc1ccc2cc(C(N)=O)n(C(=O)OCOC(=O)[C@@H](C)[N-]C(=O)OC(C)(C)C)c2c1 (chirality)
C=CCc1ccc2cc(C(N)=O)n(C(=O)OCOC(=O)[C@@H](C)[N-]C(=O)OC(C)(C)C)c2c1 (3D coordinates assigned)
C=CCc1ccc2cc(C(N)=O)n(C(=O)OCOC(=O)[C@@H](C)[N-]C(=O)OC(C)(C)C)c2c1 (optimized conformer: 79.99736763112026 kcal/mol)

>  <smiles>  (95) 
C=CCc1ccc2cc(C(N)=O)n(C(=O)OCOC(=O)C(C)NC(=O)OC(C)(C)C)c2c1

>  <score_type>  (95) 
oracle

>  <origin>  (95) 
adg

>  <m_score__min__energy>  (95) 
-10.609999999999999

>  <m_primary>  (95) 
energy

$$$$
97:0
     RDKit          3D

 45 46  0  0  0  0  0  0  0  0999 V2000
   -1.3890   20.3920  -31.4870 C   0  0  0  0  0  0  0  0  0  0  0  0
   -2.8610   20.8180  -31.6110 C   0  0  0  0  0  0  0  0  0  0  0  0
   -3.3330   21.3880  -30.2600 C   0  0  0  0  0  0  0  0  0  0  0  0
   -2.9740   21.8840  -32.7210 C   0  0  0  0  0  0  0  0  0  0  0  0
   -3.6150   19.6440  -31.9510 O   0  0  0  0  0  0  0  0  0  0  0  0
   -4.4400   19.4810  -33.0760 C   0  0  0  0  0  0  0  0  0  0  0  0
   -3.9420   19.2570  -34.2150 O   0  0  0  0  0  0  0  0  0  0  0  0
   -5.8670   19.5930  -32.9260 N   0  0  0  0  0  0  0  0  0  0  0  0
   -6.7920   18.6170  -33.1460 C   0  0  0  0  0  0  0  0  0  0  0  0
   -6.5360   17.3040  -33.7720 C   0  0  0  0  0  0  0  0  0  0  0  0
   -5.5700   17.1620  -34.8150 N   0  0  0  0  0  0  0  0  0  0  0  0
   -7.2240   16.3060  -33.4230 O   0  0  0  0  0  0  0  0  0  0  0  0
   -8.0610   19.0400  -32.7620 C   0  0  0  0  0  0  0  0  0  0  0  0
   -7.8900   20.3290  -32.3120 C   0  0  0  0  0  0  0  0  0  0  0  0
   -8.8260   21.2260  -31.8080 C   0  0  0  0  0  0  0  0  0  0  0  0
   -8.3740   22.4930  -31.4040 C   0  0  0  0  0  0  0  0  0  0  0  0
   -7.0000   22.8400  -31.5040 C   0  0  0  0  0  0  0  0  0  0  0  0
   -6.5230   24.1470  -31.1290 N   0  0  0  0  0  0  0  0  0  0  0  0
   -6.4340   24.5930  -29.7360 C   0  0  0  0  0  0  0  0  0  0  0  0
   -5.0310   24.3740  -29.1580 C   0  0  0  0  0  0  0  0  0  0  0  0
   -3.9720   24.9820  -30.0240 C   0  0  0  0  0  0  0  0  0  0  0  0
   -4.2360   25.3090  -31.2090 O   0  0  0  0  0  0  0  0  0  0  0  0
   -2.6930   25.1900  -29.5180 O   0  0  0  0  0  0  0  0  0  0  0  0
   -6.0790   21.8900  -32.0010 C   0  0  0  0  0  0  0  0  0  0  0  0
   -6.5590   20.6410  -32.4200 C   0  0  0  0  0  0  0  0  0  0  0  0
   -1.1183   20.3137  -30.4237 H   0  0  0  0  0  0  0  0  0  0  0  0
   -1.2474   19.4160  -31.9743 H   0  0  0  0  0  0  0  0  0  0  0  0
   -0.7481   21.1415  -31.9743 H   0  0  0  0  0  0  0  0  0  0  0  0
   -2.8652   20.8231  -29.4402 H   0  0  0  0  0  0  0  0  0  0  0  0
   -3.0436   22.4468  -30.1875 H   0  0  0  0  0  0  0  0  0  0  0  0
   -4.4272   21.3011  -30.1875 H   0  0  0  0  0  0  0  0  0  0  0  0
   -3.0795   22.8791  -32.2643 H   0  0  0  0  0  0  0  0  0  0  0  0
   -2.0684   21.8611  -33.3450 H   0  0  0  0  0  0  0  0  0  0  0  0
   -3.8547   21.6717  -33.3450 H   0  0  0  0  0  0  0  0  0  0  0  0
   -5.3640   16.2190  -35.2150 H   0  0  0  0  0  0  0  0  0  0  0  0
   -5.0970   17.9980  -35.2250 H   0  0  0  0  0  0  0  0  0  0  0  0
   -8.9989   18.4671  -32.8083 H   0  0  0  0  0  0  0  0  0  0  0  0
   -9.8882   20.9514  -31.7282 H   0  0  0  0  0  0  0  0  0  0  0  0
   -9.0921   23.2249  -31.0056 H   0  0  0  0  0  0  0  0  0  0  0  0
   -6.3080   24.8260  -31.8950 H   0  0  0  0  0  0  0  0  0  0  0  0
   -6.6753   25.6652  -29.6891 H   0  0  0  0  0  0  0  0  0  0  0  0
   -7.1457   24.0018  -29.1410 H   0  0  0  0  0  0  0  0  0  0  0  0
   -4.9815   24.8331  -28.1596 H   0  0  0  0  0  0  0  0  0  0  0  0
   -4.8485   23.2906  -29.1043 H   0  0  0  0  0  0  0  0  0  0  0  0
   -5.0061   22.1260  -32.0580 H   0  0  0  0  0  0  0  0  0  0  0  0
  1  2  1  0
  2  3  1  0
  2  4  1  0
  2  5  1  0
  5  6  1  0
  6  7  2  0
  6  8  1  0
  8  9  1  0
  9 10  1  0
 10 11  1  0
 10 12  2  0
  9 13  2  0
 13 14  1  0
 14 15  2  0
 15 16  1  0
 16 17  2  0
 17 18  1  0
 18 19  1  0
 19 20  1  0
 20 21  1  0
 21 22  2  0
 21 23  1  0
 17 24  1  0
 24 25  2  0
 25  8  1  0
 25 14  1  0
  1 26  1  0
  1 27  1  0
  1 28  1  0
  3 29  1  0
  3 30  1  0
  3 31  1  0
  4 32  1  0
  4 33  1  0
  4 34  1  0
 11 35  1  0
 11 36  1  0
 13 37  1  0
 15 38  1  0
 16 39  1  0
 18 40  1  0
 19 41  1  0
 19 42  1  0
 20 43  1  0
 20 44  1  0
 24 45  1  0
M  CHG  1  23  -1
M  END
>  <UniqueID>  (96) 
94

>  <SMILES>  (96) 
CC(C)(C)OC(=O)n1c(C(N)=O)cc2ccc(NCCC(=O)[O-])cc21

>  <Energy>  (96) 
76.10686330433367

>  <Genealogy>  (96) 
CC(C)(C)OC(=O)n1c(C(N)=O)cc2ccc(NCCC(=O)[O-])cc21 (protonated)
CC(C)(C)OC(=O)n1c(C(N)=O)cc2ccc(NCCC(=O)[O-])cc21 (3D coordinates assigned)
CC(C)(C)OC(=O)n1c(C(N)=O)cc2ccc(NCCC(=O)[O-])cc21 (optimized conformer: 76.10686330433367 kcal/mol)

>  <smiles>  (96) 
CC(C)(C)OC(=O)n1c(C(N)=O)cc2ccc(NCCC(=O)O)cc21

>  <score_type>  (96) 
oracle

>  <origin>  (96) 
adg

>  <m_score__min__energy>  (96) 
-9.9800000000000004

>  <m_primary>  (96) 
energy

$$$$
98:0
     RDKit          3D

 56 57  0  0  0  0  0  0  0  0999 V2000
    0.7390   28.1840  -23.7720 C   0  0  0  0  0  0  0  0  0  0  0  0
    0.5270   26.7730  -24.3360 C   0  0  2  0  0  0  0  0  0  0  0  0
    1.4410   25.8170  -23.6980 N   0  0  0  0  0  0  0  0  0  0  0  0
    0.7120   26.7840  -25.8300 C   0  0  0  0  0  0  0  0  0  0  0  0
   -0.0520   27.4880  -26.5460 O   0  0  0  0  0  0  0  0  0  0  0  0
    1.7520   26.0570  -26.4120 O   0  0  0  0  0  0  0  0  0  0  0  0
    1.6740   24.6550  -26.6550 C   0  0  0  0  0  0  0  0  0  0  0  0
    1.3740   23.9750  -25.4420 O   0  0  0  0  0  0  0  0  0  0  0  0
    0.0880   23.5300  -25.1160 C   0  0  0  0  0  0  0  0  0  0  0  0
   -0.1470   23.0590  -23.9690 O   0  0  0  0  0  0  0  0  0  0  0  0
   -0.9690   23.6120  -26.0920 N   0  0  0  0  0  0  0  0  0  0  0  0
   -1.8770   24.7620  -26.0810 C   0  0  0  0  0  0  0  0  0  0  0  0
   -1.1430   22.5380  -27.0770 C   0  0  0  0  0  0  0  0  0  0  0  0
   -0.7610   23.0300  -28.4770 C   0  0  0  0  0  0  0  0  0  0  0  0
   -1.8920   23.7860  -29.1010 C   0  0  0  0  0  0  0  0  0  0  0  0
   -1.7600   25.0170  -29.3440 O   0  0  0  0  0  0  0  0  0  0  0  0
   -3.0780   23.1070  -29.4080 O   0  0  0  0  0  0  0  0  0  0  0  0
   -3.4580   22.6820  -30.6870 C   0  0  0  0  0  0  0  0  0  0  0  0
   -2.6040   22.2380  -31.5030 O   0  0  0  0  0  0  0  0  0  0  0  0
   -4.8390   22.7790  -31.0770 N   0  0  0  0  0  0  0  0  0  0  0  0
   -5.6630   23.8630  -31.0030 C   0  0  0  0  0  0  0  0  0  0  0  0
   -5.2640   25.2340  -30.6200 C   0  0  0  0  0  0  0  0  0  0  0  0
   -3.9200   25.6640  -30.8280 N   0  0  0  0  0  0  0  0  0  0  0  0
   -6.0830   26.0180  -30.0750 O   0  0  0  0  0  0  0  0  0  0  0  0
   -6.9420   23.5320  -31.4470 C   0  0  0  0  0  0  0  0  0  0  0  0
   -6.8740   22.2070  -31.8080 C   0  0  0  0  0  0  0  0  0  0  0  0
   -7.8590   21.3650  -32.3170 C   0  0  0  0  0  0  0  0  0  0  0  0
   -7.5080   20.0300  -32.5880 C   0  0  0  0  0  0  0  0  0  0  0  0
   -6.1930   19.5660  -32.3440 C   0  0  0  0  0  0  0  0  0  0  0  0
   -5.8380   18.1360  -32.6370 C   0  0  0  0  0  0  0  0  0  0  0  0
   -6.2780   17.3270  -31.6070 F   0  0  0  0  0  0  0  0  0  0  0  0
   -6.4390   17.7390  -33.8190 F   0  0  0  0  0  0  0  0  0  0  0  0
   -5.2230   20.4490  -31.8180 C   0  0  0  0  0  0  0  0  0  0  0  0
   -5.5950   21.7770  -31.5770 C   0  0  0  0  0  0  0  0  0  0  0  0
    0.7330   28.1442  -22.6727 H   0  0  0  0  0  0  0  0  0  0  0  0
    1.7062   28.5763  -24.1194 H   0  0  0  0  0  0  0  0  0  0  0  0
   -0.0702   28.8432  -24.1194 H   0  0  0  0  0  0  0  0  0  0  0  0
   -0.5015   26.4518  -24.1144 H   0  0  0  0  0  0  0  0  0  0  0  0
    1.7950   26.1920  -22.7870 H   0  0  0  0  0  0  0  0  0  0  0  0
    0.9380   24.9180  -23.5210 H   0  0  0  0  0  0  0  0  0  0  0  0
    2.2530   25.6210  -24.3300 H   0  0  0  0  0  0  0  0  0  0  0  0
    0.8823   24.4550  -27.3920 H   0  0  0  0  0  0  0  0  0  0  0  0
    2.6390   24.2981  -27.0441 H   0  0  0  0  0  0  0  0  0  0  0  0
   -2.0994   25.0437  -25.0412 H   0  0  0  0  0  0  0  0  0  0  0  0
   -1.4017   25.6094  -26.5968 H   0  0  0  0  0  0  0  0  0  0  0  0
   -2.8115   24.4963  -26.5968 H   0  0  0  0  0  0  0  0  0  0  0  0
   -0.5005   21.6880  -26.8037 H   0  0  0  0  0  0  0  0  0  0  0  0
   -2.1982   22.2275  -27.0836 H   0  0  0  0  0  0  0  0  0  0  0  0
    0.1155   23.6902  -28.4007 H   0  0  0  0  0  0  0  0  0  0  0  0
   -0.5296   22.1581  -29.1065 H   0  0  0  0  0  0  0  0  0  0  0  0
   -3.1150   25.1080  -30.4640 H   0  0  0  0  0  0  0  0  0  0  0  0
   -7.8207   24.1918  -31.4979 H   0  0  0  0  0  0  0  0  0  0  0  0
   -8.8794   21.7320  -32.5014 H   0  0  0  0  0  0  0  0  0  0  0  0
   -8.2626   19.3400  -32.9934 H   0  0  0  0  0  0  0  0  0  0  0  0
   -4.7457   18.0481  -32.7326 H   0  0  0  0  0  0  0  0  0  0  0  0
   -4.2016   20.1017  -31.6034 H   0  0  0  0  0  0  0  0  0  0  0  0
  1  2  1  0
  2  3  1  0
  2  4  1  0
  4  5  2  0
  4  6  1  0
  6  7  1  0
  7  8  1  0
  8  9  1  0
  9 10  2  0
  9 11  1  0
 11 12  1  0
 11 13  1  0
 13 14  1  0
 14 15  1  0
 15 16  2  0
 15 17  1  0
 17 18  1  0
 18 19  2  0
 18 20  1  0
 20 21  1  0
 21 22  1  0
 22 23  1  0
 22 24  2  0
 21 25  2  0
 25 26  1  0
 26 27  2  0
 27 28  1  0
 28 29  2  0
 29 30  1  0
 30 31  1  0
 30 32  1  0
 29 33  1  0
 33 34  2  0
 34 20  1  0
 34 26  1  0
  1 35  1  0
  1 36  1  0
  1 37  1  0
  2 38  1  6
  3 39  1  0
  3 40  1  0
  3 41  1  0
  7 42  1  0
  7 43  1  0
 12 44  1  0
 12 45  1  0
 12 46  1  0
 13 47  1  0
 13 48  1  0
 14 49  1  0
 14 50  1  0
 23 51  1  0
 25 52  1  0
 27 53  1  0
 28 54  1  0
 30 55  1  0
 33 56  1  0
M  CHG  2   3   1  23  -1
M  END
>  <UniqueID>  (97) 
95

>  <SMILES>  (97) 
C[C@H]([NH3+])C(=O)OCOC(=O)N(C)CCC(=O)OC(=O)n1c(C([NH-])=O)cc2ccc(C(F)F)cc21

>  <Energy>  (97) 
80.94033365680619

>  <Genealogy>  (97) 
C[C@H]([NH3+])C(=O)OCOC(=O)N(C)CCC(=O)OC(=O)n1c(C([NH-])=O)cc2ccc(C(F)F)cc21 (protonated)
C[C@H]([NH3+])C(=O)OCOC(=O)N(C)CCC(=O)OC(=O)n1c(C([NH-])=O)cc2ccc(C(F)F)cc21 (3D coordinates assigned)
C[C@H]([NH3+])C(=O)OCOC(=O)N(C)CCC(=O)OC(=O)n1c(C([NH-])=O)cc2ccc(C(F)F)cc21 (optimized conformer: 80.94033365680619 kcal/mol)

>  <smiles>  (97) 
C[C@H](N)C(=O)OCOC(=O)N(C)CCC(=O)OC(=O)n1c(C(N)=O)cc2ccc(C(F)F)cc21

>  <score_type>  (97) 
oracle

>  <origin>  (97) 
adg

>  <m_score__min__energy>  (97) 
-11.23

>  <m_primary>  (97) 
energy

$$$$
