0:0
     RDKit          3D

 44 46  0  0  0  0  0  0  0  0999 V2000
   -0.6750   20.3310  -34.0630 C   0  0  0  0  0  0  0  0  0  0  0  0
   -1.7680   21.1990  -33.4260 C   0  0  1  0  0  0  0  0  0  0  0  0
   -3.1070   20.7390  -33.8060 N   0  0  0  0  0  0  0  0  0  0  0  0
   -3.7200   19.4910  -33.4460 C   0  0  0  0  0  0  0  0  0  0  0  0
   -3.0380   18.4330  -33.3970 O   0  0  0  0  0  0  0  0  0  0  0  0
   -5.1300   19.4410  -33.1760 N   0  0  0  0  0  0  0  0  0  0  0  0
   -6.0100   18.4560  -33.5140 C   0  0  0  0  0  0  0  0  0  0  0  0
   -5.7050   17.2920  -34.3750 C   0  0  0  0  0  0  0  0  0  0  0  0
   -4.5460   17.2870  -35.2110 N   0  0  0  0  0  0  0  0  0  0  0  0
   -6.4520   16.2790  -34.3560 O   0  0  0  0  0  0  0  0  0  0  0  0
   -7.2770   18.7430  -33.0110 C   0  0  0  0  0  0  0  0  0  0  0  0
   -7.1450   19.9430  -32.3510 C   0  0  0  0  0  0  0  0  0  0  0  0
   -8.0850   20.6850  -31.6520 C   0  0  0  0  0  0  0  0  0  0  0  0
   -7.6650   21.8750  -31.0360 C   0  0  0  0  0  0  0  0  0  0  0  0
   -6.3070   22.3150  -31.1150 C   0  0  0  0  0  0  0  0  0  0  0  0
   -5.8220   23.6070  -30.4270 C   0  0  0  0  0  0  0  0  0  0  0  0
   -4.4090   23.6020  -29.7670 C   0  0  0  0  0  0  0  0  0  0  0  0
   -3.5450   24.8110  -30.0000 C   0  0  0  0  0  0  0  0  0  0  0  0
   -3.8740   25.6710  -30.8590 O   0  0  0  0  0  0  0  0  0  0  0  0
   -2.3830   24.9910  -29.2590 O   0  0  0  0  0  0  0  0  0  0  0  0
   -6.3070   24.9340  -31.0210 C   0  0  0  0  0  0  0  0  0  0  0  0
   -6.9020   24.4220  -29.7090 C   0  0  0  0  0  0  0  0  0  0  0  0
   -5.3880   21.5130  -31.8440 C   0  0  0  0  0  0  0  0  0  0  0  0
   -5.8420   20.3440  -32.4630 C   0  0  0  0  0  0  0  0  0  0  0  0
   -1.6190   21.3090  -31.8980 C   0  0  0  0  0  0  0  0  0  0  0  0
   -2.4230   22.3310  -31.4220 F   0  0  0  0  0  0  0  0  0  0  0  0
   -0.3040   21.6020  -31.5790 F   0  0  0  0  0  0  0  0  0  0  0  0
   -1.9760   20.1290  -31.2700 F   0  0  0  0  0  0  0  0  0  0  0  0
   -0.0766   19.8558  -33.2718 H   0  0  0  0  0  0  0  0  0  0  0  0
   -1.1409   19.5541  -34.6870 H   0  0  0  0  0  0  0  0  0  0  0  0
   -0.0238   20.9608  -34.6870 H   0  0  0  0  0  0  0  0  0  0  0  0
   -1.6370   22.2152  -33.8263 H   0  0  0  0  0  0  0  0  0  0  0  0
   -4.3070   16.4380  -35.7690 H   0  0  0  0  0  0  0  0  0  0  0  0
   -3.9570   18.1410  -35.3260 H   0  0  0  0  0  0  0  0  0  0  0  0
   -8.1896   18.1384  -33.1187 H   0  0  0  0  0  0  0  0  0  0  0  0
   -9.1306   20.3507  -31.5820 H   0  0  0  0  0  0  0  0  0  0  0  0
   -8.3961   22.4813  -30.4811 H   0  0  0  0  0  0  0  0  0  0  0  0
   -4.5498   23.4985  -28.6810 H   0  0  0  0  0  0  0  0  0  0  0  0
   -3.8721   22.7693  -30.2450 H   0  0  0  0  0  0  0  0  0  0  0  0
   -5.6446   25.8122  -31.0187 H   0  0  0  0  0  0  0  0  0  0  0  0
   -6.7189   25.2470  -31.9918 H   0  0  0  0  0  0  0  0  0  0  0  0
   -6.6677   24.9322  -28.7631 H   0  0  0  0  0  0  0  0  0  0  0  0
   -7.9193   24.2145  -29.3456 H   0  0  0  0  0  0  0  0  0  0  0  0
   -4.3312   21.8084  -31.9206 H   0  0  0  0  0  0  0  0  0  0  0  0
  1  2  1  0
  2  3  1  0
  3  4  1  0
  4  5  2  0
  4  6  1  0
  6  7  1  0
  7  8  1  0
  8  9  1  0
  8 10  2  0
  7 11  2  0
 11 12  1  0
 12 13  2  0
 13 14  1  0
 14 15  2  0
 15 16  1  0
 16 17  1  0
 17 18  1  0
 18 19  2  0
 18 20  1  0
 16 21  1  0
 21 22  1  0
 15 23  1  0
 23 24  2  0
  2 25  1  0
 25 26  1  0
 25 27  1  0
 25 28  1  0
 24  6  1  0
 24 12  1  0
 22 16  1  0
  1 29  1  0
  1 30  1  0
  1 31  1  0
  2 32  1  6
  9 33  1  0
  9 34  1  0
 11 35  1  0
 13 36  1  0
 14 37  1  0
 17 38  1  0
 17 39  1  0
 21 40  1  0
 21 41  1  0
 22 42  1  0
 22 43  1  0
 23 44  1  0
M  CHG  2   3  -1  20  -1
M  END
>  <UniqueID>  (1) 
1

>  <SMILES>  (1) 
C[C@@H]([N-]C(=O)n1c(C(N)=O)cc2ccc(C3(CC(=O)[O-])CC3)cc21)C(F)(F)F

>  <Energy>  (1) 
357.0854914019182

>  <Genealogy>  (1) 
C[C@@H]([N-]C(=O)n1c(C(N)=O)cc2ccc(C3(CC(=O)[O-])CC3)cc21)C(F)(F)F (protonated)
C[C@@H]([N-]C(=O)n1c(C(N)=O)cc2ccc(C3(CC(=O)[O-])CC3)cc21)C(F)(F)F (3D coordinates assigned)
C[C@@H]([N-]C(=O)n1c(C(N)=O)cc2ccc(C3(CC(=O)[O-])CC3)cc21)C(F)(F)F (nonaromatic ring conformer: 357.0854914019182 kcal/mol)

>  <smiles>  (1) 
C[C@@H](NC(=O)n1c(C(N)=O)cc2ccc(C3(CC(=O)O)CC3)cc21)C(F)(F)F

>  <score_type>  (1) 
oracle

>  <origin>  (1) 
adg

>  <m_score__min__energy>  (1) 
-10.73

>  <m_primary>  (1) 
energy

$$$$
1:0
     RDKit          3D

 49 51  0  0  0  0  0  0  0  0999 V2000
   -3.0680   21.6470  -33.1220 C   0  0  0  0  0  0  0  0  0  0  0  0
   -2.2080   20.4020  -33.4140 C   0  0  0  0  0  0  0  0  0  0  0  0
   -1.9500   19.6560  -32.0960 C   0  0  0  0  0  0  0  0  0  0  0  0
   -0.8560   20.8070  -34.0310 C   0  0  0  0  0  0  0  0  0  0  0  0
   -2.9060   19.4960  -34.2820 O   0  0  0  0  0  0  0  0  0  0  0  0
   -3.1040   18.1220  -34.0680 C   0  0  0  0  0  0  0  0  0  0  0  0
   -2.1380   17.3150  -34.1170 O   0  0  0  0  0  0  0  0  0  0  0  0
   -4.4280   17.6370  -33.7870 N   0  0  0  0  0  0  0  0  0  0  0  0
   -4.9650   16.4450  -34.1710 C   0  0  0  0  0  0  0  0  0  0  0  0
   -4.2320   15.3310  -34.8030 C   0  0  0  0  0  0  0  0  0  0  0  0
   -3.2220   15.5740  -35.7830 N   0  0  0  0  0  0  0  0  0  0  0  0
   -4.4620   14.1500  -34.4330 O   0  0  0  0  0  0  0  0  0  0  0  0
   -6.3160   16.3870  -33.8420 C   0  0  0  0  0  0  0  0  0  0  0  0
   -6.5930   17.5870  -33.2290 C   0  0  0  0  0  0  0  0  0  0  0  0
   -7.7920   18.0700  -32.7150 C   0  0  0  0  0  0  0  0  0  0  0  0
   -7.8020   19.3650  -32.1730 C   0  0  0  0  0  0  0  0  0  0  0  0
   -6.6230   20.1580  -32.1610 C   0  0  0  0  0  0  0  0  0  0  0  0
   -6.6510   21.5310  -31.5970 C   0  0  0  0  0  0  0  0  0  0  0  0
   -7.7800   22.3490  -31.7700 C   0  0  0  0  0  0  0  0  0  0  0  0
   -7.8150   23.6310  -31.2210 C   0  0  0  0  0  0  0  0  0  0  0  0
   -6.7210   24.1180  -30.5010 C   0  0  0  0  0  0  0  0  0  0  0  0
   -5.5730   23.3310  -30.3380 C   0  0  0  0  0  0  0  0  0  0  0  0
   -4.4680   23.8490  -29.5780 N   0  0  0  0  0  0  0  0  0  0  0  0
   -3.6250   24.9260  -30.0100 C   0  0  0  0  0  0  0  0  0  0  0  0
   -3.9280   25.6250  -31.0120 O   0  0  0  0  0  0  0  0  0  0  0  0
   -2.4820   25.2350  -29.2840 O   0  0  0  0  0  0  0  0  0  0  0  0
   -5.5510   22.0290  -30.8720 C   0  0  0  0  0  0  0  0  0  0  0  0
   -5.4250   19.6280  -32.6950 C   0  0  0  0  0  0  0  0  0  0  0  0
   -5.4390   18.3260  -33.2100 C   0  0  0  0  0  0  0  0  0  0  0  0
   -3.1609   21.7815  -32.0342 H   0  0  0  0  0  0  0  0  0  0  0  0
   -2.5895   22.5345  -33.5617 H   0  0  0  0  0  0  0  0  0  0  0  0
   -4.0674   21.5136  -33.5617 H   0  0  0  0  0  0  0  0  0  0  0  0
   -2.1792   20.3188  -31.2486 H   0  0  0  0  0  0  0  0  0  0  0  0
   -2.5918   18.7640  -32.0479 H   0  0  0  0  0  0  0  0  0  0  0  0
   -0.8942   19.3511  -32.0479 H   0  0  0  0  0  0  0  0  0  0  0  0
   -0.1362   21.0226  -33.2276 H   0  0  0  0  0  0  0  0  0  0  0  0
   -0.4754   19.9834  -34.6530 H   0  0  0  0  0  0  0  0  0  0  0  0
   -0.9909   21.7042  -34.6530 H   0  0  0  0  0  0  0  0  0  0  0  0
   -2.7500   14.7730  -36.2590 H   0  0  0  0  0  0  0  0  0  0  0  0
   -2.8920   16.5420  -35.9880 H   0  0  0  0  0  0  0  0  0  0  0  0
   -7.0138   15.5581  -34.0317 H   0  0  0  0  0  0  0  0  0  0  0  0
   -8.7045   17.4560  -32.7327 H   0  0  0  0  0  0  0  0  0  0  0  0
   -8.7339   19.7708  -31.7525 H   0  0  0  0  0  0  0  0  0  0  0  0
   -8.6423   21.9761  -32.3422 H   0  0  0  0  0  0  0  0  0  0  0  0
   -8.7069   24.2606  -31.3554 H   0  0  0  0  0  0  0  0  0  0  0  0
   -6.7611   25.1248  -30.0597 H   0  0  0  0  0  0  0  0  0  0  0  0
   -4.3150   23.4790  -28.6130 H   0  0  0  0  0  0  0  0  0  0  0  0
   -4.6656   21.3938  -30.7216 H   0  0  0  0  0  0  0  0  0  0  0  0
   -4.5019   20.2261  -32.7054 H   0  0  0  0  0  0  0  0  0  0  0  0
  1  2  1  0
  2  3  1  0
  2  4  1  0
  2  5  1  0
  5  6  1  0
  6  7  2  0
  6  8  1  0
  8  9  1  0
  9 10  1  0
 10 11  1  0
 10 12  2  0
  9 13  2  0
 13 14  1  0
 14 15  2  0
 15 16  1  0
 16 17  2  0
 17 18  1  0
 18 19  2  0
 19 20  1  0
 20 21  2  0
 21 22  1  0
 22 23  1  0
 23 24  1  0
 24 25  2  0
 24 26  1  0
 22 27  2  0
 17 28  1  0
 28 29  2  0
 29  8  1  0
 29 14  1  0
 27 18  1  0
  1 30  1  0
  1 31  1  0
  1 32  1  0
  3 33  1  0
  3 34  1  0
  3 35  1  0
  4 36  1  0
  4 37  1  0
  4 38  1  0
 11 39  1  0
 11 40  1  0
 13 41  1  0
 15 42  1  0
 16 43  1  0
 19 44  1  0
 20 45  1  0
 21 46  1  0
 23 47  1  0
 27 48  1  0
 28 49  1  0
M  CHG  1  26  -1
M  END
>  <UniqueID>  (2) 
2

>  <SMILES>  (2) 
CC(C)(C)OC(=O)n1c(C(N)=O)cc2ccc(-c3cccc(NC(=O)[O-])c3)cc21

>  <Energy>  (2) 
93.56646095731061

>  <Genealogy>  (2) 
CC(C)(C)OC(=O)n1c(C(N)=O)cc2ccc(-c3cccc(NC(=O)[O-])c3)cc21 (protonated)
CC(C)(C)OC(=O)n1c(C(N)=O)cc2ccc(-c3cccc(NC(=O)[O-])c3)cc21 (3D coordinates assigned)
CC(C)(C)OC(=O)n1c(C(N)=O)cc2ccc(-c3cccc(NC(=O)[O-])c3)cc21 (optimized conformer: 93.56646095731061 kcal/mol)

>  <smiles>  (2) 
CC(C)(C)OC(=O)n1c(C(N)=O)cc2ccc(-c3cccc(NC(=O)O)c3)cc21

>  <score_type>  (2) 
oracle

>  <origin>  (2) 
adg

>  <m_score__min__energy>  (2) 
-11.07

>  <m_primary>  (2) 
energy

$$$$
2:0
     RDKit          3D

 49 52  0  0  0  0  0  0  0  0999 V2000
   -2.9360   22.5170  -29.8740 C   0  0  0  0  0  0  0  0  0  0  0  0
   -3.5710   22.4440  -31.2250 C   0  0  0  0  0  0  0  0  0  0  0  0
   -2.8440   22.2830  -32.2420 O   0  0  0  0  0  0  0  0  0  0  0  0
   -4.9930   22.5700  -31.3750 N   0  0  0  0  0  0  0  0  0  0  0  0
   -5.7820   23.6150  -30.9950 C   0  0  0  0  0  0  0  0  0  0  0  0
   -5.3120   24.9000  -30.4330 C   0  0  0  0  0  0  0  0  0  0  0  0
   -3.9360   25.2660  -30.4790 N   0  0  0  0  0  0  0  0  0  0  0  0
   -6.1430   25.7020  -29.9300 O   0  0  0  0  0  0  0  0  0  0  0  0
   -7.1210   23.3340  -31.2590 C   0  0  0  0  0  0  0  0  0  0  0  0
   -7.1280   22.0750  -31.8170 C   0  0  0  0  0  0  0  0  0  0  0  0
   -8.1930   21.2950  -32.2560 C   0  0  0  0  0  0  0  0  0  0  0  0
   -7.9100   20.0140  -32.7560 C   0  0  0  0  0  0  0  0  0  0  0  0
   -6.5770   19.5250  -32.7940 C   0  0  0  0  0  0  0  0  0  0  0  0
   -6.3120   18.1550  -33.2940 C   0  0  0  0  0  0  0  0  0  0  0  0
   -5.8890   17.1410  -32.5060 N   0  0  0  0  0  0  0  0  0  0  0  0
   -5.7770   16.1290  -33.3930 C   0  0  0  0  0  0  0  0  0  0  0  0
   -5.3120   14.7490  -33.0280 C   0  0  2  0  0  0  0  0  0  0  0  0
   -3.8270   14.7220  -32.7120 C   0  0  0  0  0  0  0  0  0  0  0  0
   -3.2570   13.6090  -33.3580 O   0  0  0  0  0  0  0  0  0  0  0  0
   -4.3000   12.9220  -34.0230 C   0  0  0  0  0  0  0  0  0  0  0  0
   -3.8030   12.5440  -35.4240 C   0  0  0  0  0  0  0  0  0  0  0  0
   -4.6050   11.6400  -33.2140 C   0  0  0  0  0  0  0  0  0  0  0  0
   -5.4500   13.8410  -34.1520 N   0  0  0  0  0  0  0  0  0  0  0  0
   -6.7850   13.2190  -34.2290 C   0  0  0  0  0  0  0  0  0  0  0  0
   -6.0940   16.5110  -34.6070 O   0  0  0  0  0  0  0  0  0  0  0  0
   -6.4340   17.7610  -34.5770 N   0  0  0  0  0  0  0  0  0  0  0  0
   -5.5210   20.3540  -32.3440 C   0  0  0  0  0  0  0  0  0  0  0  0
   -5.8330   21.6340  -31.8720 C   0  0  0  0  0  0  0  0  0  0  0  0
   -3.7115   22.4278  -29.0990 H   0  0  0  0  0  0  0  0  0  0  0  0
   -2.2120   21.6962  -29.7643 H   0  0  0  0  0  0  0  0  0  0  0  0
   -2.4171   23.4807  -29.7643 H   0  0  0  0  0  0  0  0  0  0  0  0
   -3.4610   25.6740  -29.6430 H   0  0  0  0  0  0  0  0  0  0  0  0
   -7.9888   23.9809  -31.0631 H   0  0  0  0  0  0  0  0  0  0  0  0
   -9.2259   21.6707  -32.2127 H   0  0  0  0  0  0  0  0  0  0  0  0
   -8.7312   19.3809  -33.1231 H   0  0  0  0  0  0  0  0  0  0  0  0
   -5.9244   14.4542  -32.1631 H   0  0  0  0  0  0  0  0  0  0  0  0
   -3.3528   15.6457  -33.0751 H   0  0  0  0  0  0  0  0  0  0  0  0
   -3.6724   14.6492  -31.6254 H   0  0  0  0  0  0  0  0  0  0  0  0
   -2.9302   11.8802  -35.3367 H   0  0  0  0  0  0  0  0  0  0  0  0
   -4.6049   12.0255  -35.9700 H   0  0  0  0  0  0  0  0  0  0  0  0
   -3.5175   13.4552  -35.9700 H   0  0  0  0  0  0  0  0  0  0  0  0
   -4.5517   11.8639  -32.1383 H   0  0  0  0  0  0  0  0  0  0  0  0
   -5.6139   11.2799  -33.4641 H   0  0  0  0  0  0  0  0  0  0  0  0
   -3.8664   10.8642  -33.4641 H   0  0  0  0  0  0  0  0  0  0  0  0
   -7.1660   13.0415  -33.2125 H   0  0  0  0  0  0  0  0  0  0  0  0
   -7.4717   13.8899  -34.7660 H   0  0  0  0  0  0  0  0  0  0  0  0
   -6.7131   12.2617  -34.7660 H   0  0  0  0  0  0  0  0  0  0  0  0
   -6.7180   18.3200  -35.4100 H   0  0  0  0  0  0  0  0  0  0  0  0
   -4.4797   20.0002  -32.3649 H   0  0  0  0  0  0  0  0  0  0  0  0
  1  2  1  0
  2  3  2  0
  2  4  1  0
  4  5  1  0
  5  6  1  0
  6  7  1  0
  6  8  2  0
  5  9  2  0
  9 10  1  0
 10 11  2  0
 11 12  1  0
 12 13  2  0
 13 14  1  0
 14 15  1  0
 15 16  2  0
 16 17  1  0
 17 18  1  0
 18 19  1  0
 19 20  1  0
 20 21  1  0
 20 22  1  0
 20 23  1  0
 23 24  1  0
 16 25  1  0
 25 26  1  0
 13 27  1  0
 27 28  2  0
 28  4  1  0
 28 10  1  0
 26 14  2  0
 23 17  1  0
  1 29  1  0
  1 30  1  0
  1 31  1  0
  7 32  1  0
  9 33  1  0
 11 34  1  0
 12 35  1  0
 17 36  1  1
 18 37  1  0
 18 38  1  0
 21 39  1  0
 21 40  1  0
 21 41  1  0
 22 42  1  0
 22 43  1  0
 22 44  1  0
 24 45  1  0
 24 46  1  0
 24 47  1  0
 26 48  1  0
 27 49  1  0
M  CHG  2   7  -1  26   1
M  END
>  <UniqueID>  (3) 
3

>  <SMILES>  (3) 
CC(=O)n1c(C([NH-])=O)cc2ccc(-c3nc([C@@H]4COC(C)(C)N4C)o[nH+]3)cc21

>  <Energy>  (3) 
128.33763928761462

>  <Genealogy>  (3) 
CC(=O)n1c(C([NH-])=O)cc2ccc(-c3nc(C4COC(C)(C)N4C)o[nH+]3)cc21 (protonated)
CC(=O)n1c(C([NH-])=O)cc2ccc(-c3nc([C@@H]4COC(C)(C)N4C)o[nH+]3)cc21 (chirality)
CC(=O)n1c(C([NH-])=O)cc2ccc(-c3nc([C@@H]4COC(C)(C)N4C)o[nH+]3)cc21 (3D coordinates assigned)
CC(=O)n1c(C([NH-])=O)cc2ccc(-c3nc([C@@H]4COC(C)(C)N4C)o[nH+]3)cc21 (nonaromatic ring conformer: 128.33763928761462 kcal/mol)

>  <smiles>  (3) 
CC(=O)n1c(C(N)=O)cc2ccc(-c3noc(C4COC(C)(C)N4C)n3)cc21

>  <score_type>  (3) 
oracle

>  <origin>  (3) 
adg

>  <m_score__min__energy>  (3) 
-11.039999999999999

>  <m_primary>  (3) 
energy

$$$$
3:0
     RDKit          3D

 31 32  0  0  0  0  0  0  0  0999 V2000
   -2.9620   23.4380  -30.8720 N   0  0  0  0  0  0  0  0  0  0  0  0
   -3.8160   22.6570  -31.7040 C   0  0  0  0  0  0  0  0  0  0  0  0
   -3.3110   21.9210  -32.5930 O   0  0  0  0  0  0  0  0  0  0  0  0
   -5.2420   22.7060  -31.5300 N   0  0  0  0  0  0  0  0  0  0  0  0
   -5.9760   23.7090  -30.9680 C   0  0  0  0  0  0  0  0  0  0  0  0
   -5.4200   24.9030  -30.2920 C   0  0  0  0  0  0  0  0  0  0  0  0
   -5.7980   25.2250  -28.9520 N   0  0  0  0  0  0  0  0  0  0  0  0
   -4.5820   25.6330  -30.8840 O   0  0  0  0  0  0  0  0  0  0  0  0
   -7.3360   23.4150  -31.0390 C   0  0  0  0  0  0  0  0  0  0  0  0
   -7.4140   22.1940  -31.6650 C   0  0  0  0  0  0  0  0  0  0  0  0
   -8.5280   21.4340  -32.0040 C   0  0  0  0  0  0  0  0  0  0  0  0
   -8.3170   20.2190  -32.6760 C   0  0  0  0  0  0  0  0  0  0  0  0
   -7.0090   19.7880  -33.0100 C   0  0  0  0  0  0  0  0  0  0  0  0
   -6.8490   18.5360  -33.7070 N   0  0  0  0  0  0  0  0  0  0  0  0
   -6.6780   17.2300  -33.0670 C   0  0  0  0  0  0  0  0  0  0  0  0
   -5.8250   16.3050  -33.9350 C   0  0  0  0  0  0  0  0  0  0  0  0
   -6.5810   15.2580  -34.4280 F   0  0  0  0  0  0  0  0  0  0  0  0
   -5.3040   17.0200  -34.9980 F   0  0  0  0  0  0  0  0  0  0  0  0
   -5.9000   20.5900  -32.6400 C   0  0  0  0  0  0  0  0  0  0  0  0
   -6.1390   21.7860  -31.9540 C   0  0  0  0  0  0  0  0  0  0  0  0
   -2.9920   24.4810  -30.9000 H   0  0  0  0  0  0  0  0  0  0  0  0
   -5.3700   26.0460  -28.4700 H   0  0  0  0  0  0  0  0  0  0  0  0
   -6.5320   24.6790  -28.4470 H   0  0  0  0  0  0  0  0  0  0  0  0
   -8.1708   24.0300  -30.6717 H   0  0  0  0  0  0  0  0  0  0  0  0
   -9.5437   21.7741  -31.7534 H   0  0  0  0  0  0  0  0  0  0  0  0
   -9.1797   19.5927  -32.9471 H   0  0  0  0  0  0  0  0  0  0  0  0
   -6.8550   18.5490  -34.7530 H   0  0  0  0  0  0  0  0  0  0  0  0
   -6.1840   17.3677  -32.0939 H   0  0  0  0  0  0  0  0  0  0  0  0
   -7.6689   16.7716  -32.9332 H   0  0  0  0  0  0  0  0  0  0  0  0
   -5.0134   15.8985  -33.3137 H   0  0  0  0  0  0  0  0  0  0  0  0
   -4.8742   20.2789  -32.8868 H   0  0  0  0  0  0  0  0  0  0  0  0
  1  2  1  0
  2  3  2  0
  2  4  1  0
  4  5  1  0
  5  6  1  0
  6  7  1  0
  6  8  2  0
  5  9  2  0
  9 10  1  0
 10 11  2  0
 11 12  1  0
 12 13  2  0
 13 14  1  0
 14 15  1  0
 15 16  1  0
 16 17  1  0
 16 18  1  0
 13 19  1  0
 19 20  2  0
 20  4  1  0
 20 10  1  0
  1 21  1  0
  7 22  1  0
  7 23  1  0
  9 24  1  0
 11 25  1  0
 12 26  1  0
 14 27  1  0
 15 28  1  0
 15 29  1  0
 16 30  1  0
 19 31  1  0
M  CHG  1   1  -1
M  END
>  <UniqueID>  (4) 
4

>  <SMILES>  (4) 
[NH-]C(=O)n1c(C(N)=O)cc2ccc(NCC(F)F)cc21

>  <Energy>  (4) 
68.1244165622154

>  <Genealogy>  (4) 
[NH-]C(=O)n1c(C(N)=O)cc2ccc(NCC(F)F)cc21 (protonated)
[NH-]C(=O)n1c(C(N)=O)cc2ccc(NCC(F)F)cc21 (3D coordinates assigned)
[NH-]C(=O)n1c(C(N)=O)cc2ccc(NCC(F)F)cc21 (optimized conformer: 68.1244165622154 kcal/mol)

>  <smiles>  (4) 
NC(=O)c1cc2ccc(NCC(F)F)cc2n1C(N)=O

>  <score_type>  (4) 
oracle

>  <origin>  (4) 
adg

>  <m_score__min__energy>  (4) 
-8.1099999999999994

>  <m_primary>  (4) 
energy

$$$$
4:0
     RDKit          3D

 42 45  0  0  0  0  0  0  0  0999 V2000
   -1.5580   16.0530  -32.9060 C   0  0  0  0  0  0  0  0  0  0  0  0
   -2.6520   16.9590  -32.8100 O   0  0  0  0  0  0  0  0  0  0  0  0
   -3.6130   17.0950  -33.8260 C   0  0  0  0  0  0  0  0  0  0  0  0
   -3.2520   17.1600  -35.0340 O   0  0  0  0  0  0  0  0  0  0  0  0
   -5.0130   17.1510  -33.5020 N   0  0  0  0  0  0  0  0  0  0  0  0
   -5.9650   16.2070  -33.7620 C   0  0  0  0  0  0  0  0  0  0  0  0
   -5.7180   14.8310  -34.2450 C   0  0  0  0  0  0  0  0  0  0  0  0
   -4.4410   14.4460  -34.7460 N   0  0  0  0  0  0  0  0  0  0  0  0
   -6.6270   13.9600  -34.1460 O   0  0  0  0  0  0  0  0  0  0  0  0
   -7.2330   16.6890  -33.4500 C   0  0  0  0  0  0  0  0  0  0  0  0
   -7.0320   17.9620  -32.9700 C   0  0  0  0  0  0  0  0  0  0  0  0
   -7.9540   18.9040  -32.5290 C   0  0  0  0  0  0  0  0  0  0  0  0
   -7.4700   20.1560  -32.1130 C   0  0  0  0  0  0  0  0  0  0  0  0
   -6.0810   20.4480  -32.1540 C   0  0  0  0  0  0  0  0  0  0  0  0
   -5.5760   21.7660  -31.6950 C   0  0  0  0  0  0  0  0  0  0  0  0
   -6.2770   22.9600  -32.0170 C   0  0  0  0  0  0  0  0  0  0  0  0
   -5.8020   24.2110  -31.5820 C   0  0  0  0  0  0  0  0  0  0  0  0
   -4.6320   24.2360  -30.8290 C   0  0  0  0  0  0  0  0  0  0  0  0
   -4.0070   25.3060  -30.3190 N   0  0  0  0  0  0  0  0  0  0  0  0
   -2.9370   24.7490  -29.6970 C   0  0  0  0  0  0  0  0  0  0  0  0
   -1.9910   25.5200  -29.0190 O   0  0  0  0  0  0  0  0  0  0  0  0
   -1.6470   25.2840  -27.6600 C   0  0  0  0  0  0  0  0  0  0  0  0
   -2.8650   23.3950  -29.7940 N   0  0  0  0  0  0  0  0  0  0  0  0
   -3.9530   23.1010  -30.5180 C   0  0  0  0  0  0  0  0  0  0  0  0
   -4.3880   21.8440  -30.9290 C   0  0  0  0  0  0  0  0  0  0  0  0
   -5.1800   19.4660  -32.6270 C   0  0  0  0  0  0  0  0  0  0  0  0
   -5.6840   18.2170  -33.0090 C   0  0  0  0  0  0  0  0  0  0  0  0
   -1.2224   15.7751  -31.8960 H   0  0  0  0  0  0  0  0  0  0  0  0
   -1.8760   15.1502  -33.4481 H   0  0  0  0  0  0  0  0  0  0  0  0
   -0.7303   16.5337  -33.4481 H   0  0  0  0  0  0  0  0  0  0  0  0
   -3.6050   15.0580  -34.6190 H   0  0  0  0  0  0  0  0  0  0  0  0
   -4.3230   13.5170  -35.2140 H   0  0  0  0  0  0  0  0  0  0  0  0
   -8.1925   16.1631  -33.5633 H   0  0  0  0  0  0  0  0  0  0  0  0
   -9.0300   18.6764  -32.5063 H   0  0  0  0  0  0  0  0  0  0  0  0
   -8.1754   20.9187  -31.7514 H   0  0  0  0  0  0  0  0  0  0  0  0
   -7.2003   22.9054  -32.6124 H   0  0  0  0  0  0  0  0  0  0  0  0
   -6.3381   25.1392  -31.8291 H   0  0  0  0  0  0  0  0  0  0  0  0
   -2.3758   25.7840  -27.0051 H   0  0  0  0  0  0  0  0  0  0  0  0
   -1.6576   24.2021  -27.4616 H   0  0  0  0  0  0  0  0  0  0  0  0
   -0.6414   25.6833  -27.4616 H   0  0  0  0  0  0  0  0  0  0  0  0
   -3.8244   20.9368  -30.6659 H   0  0  0  0  0  0  0  0  0  0  0  0
   -4.1030   19.6796  -32.6935 H   0  0  0  0  0  0  0  0  0  0  0  0
  1  2  1  0
  2  3  1  0
  3  4  2  0
  3  5  1  0
  5  6  1  0
  6  7  1  0
  7  8  1  0
  7  9  2  0
  6 10  2  0
 10 11  1  0
 11 12  2  0
 12 13  1  0
 13 14  2  0
 14 15  1  0
 15 16  2  0
 16 17  1  0
 17 18  2  0
 18 19  1  0
 19 20  2  0
 20 21  1  0
 21 22  1  0
 20 23  1  0
 23 24  1  0
 24 25  2  0
 14 26  1  0
 26 27  2  0
 27  5  1  0
 27 11  1  0
 25 15  1  0
 24 18  1  0
  1 28  1  0
  1 29  1  0
  1 30  1  0
  8 31  1  0
  8 32  1  0
 10 33  1  0
 12 34  1  0
 13 35  1  0
 16 36  1  0
 17 37  1  0
 22 38  1  0
 22 39  1  0
 22 40  1  0
 25 41  1  0
 26 42  1  0
M  CHG  1  23  -1
M  END
>  <UniqueID>  (5) 
5

>  <SMILES>  (5) 
COC(=O)n1c(C(N)=O)cc2ccc(-c3ccc4nc(OC)[n-]c4c3)cc21

>  <Energy>  (5) 
122.07463887528388

>  <Genealogy>  (5) 
COC(=O)n1c(C(N)=O)cc2ccc(-c3ccc4nc(OC)[n-]c4c3)cc21 (protonated)
COC(=O)n1c(C(N)=O)cc2ccc(-c3ccc4nc(OC)[n-]c4c3)cc21 (3D coordinates assigned)
COC(=O)n1c(C(N)=O)cc2ccc(-c3ccc4nc(OC)[n-]c4c3)cc21 (optimized conformer: 122.07463887528388 kcal/mol)

>  <smiles>  (5) 
COC(=O)n1c(C(N)=O)cc2ccc(-c3ccc4nc(OC)[nH]c4c3)cc21

>  <score_type>  (5) 
oracle

>  <origin>  (5) 
adg

>  <m_score__min__energy>  (5) 
-9.2799999999999994

>  <m_primary>  (5) 
energy

$$$$
5:0
     RDKit          3D

 35 36  0  0  0  0  0  0  0  0999 V2000
   -5.5790   18.5200  -34.6640 C   0  0  0  0  0  0  0  0  0  0  0  0
   -6.1170   17.3680  -33.8140 C   0  0  0  0  0  0  0  0  0  0  0  0
   -6.7210   17.8430  -32.4840 C   0  0  0  0  0  0  0  0  0  0  0  0
   -8.0540   18.5800  -32.6720 C   0  0  0  0  0  0  0  0  0  0  0  0
   -7.9370   20.0060  -32.2040 C   0  0  0  0  0  0  0  0  0  0  0  0
   -9.0860   20.7030  -31.7520 C   0  0  0  0  0  0  0  0  0  0  0  0
   -8.9850   22.0250  -31.2890 C   0  0  0  0  0  0  0  0  0  0  0  0
   -7.7250   22.6170  -31.2730 C   0  0  0  0  0  0  0  0  0  0  0  0
   -7.3440   23.8830  -30.8900 C   0  0  0  0  0  0  0  0  0  0  0  0
   -5.9640   23.9270  -31.0810 C   0  0  0  0  0  0  0  0  0  0  0  0
   -5.1260   25.0840  -30.7030 C   0  0  0  0  0  0  0  0  0  0  0  0
   -3.7050   24.9860  -30.6900 N   0  0  0  0  0  0  0  0  0  0  0  0
   -5.6740   26.1610  -30.3450 O   0  0  0  0  0  0  0  0  0  0  0  0
   -5.5130   22.7390  -31.5720 N   0  0  0  0  0  0  0  0  0  0  0  0
   -4.1770   22.4020  -31.9800 C   0  0  0  0  0  0  0  0  0  0  0  0
   -3.8510   22.2810  -33.3640 N   0  0  0  0  0  0  0  0  0  0  0  0
   -3.2930   22.1780  -31.1100 O   0  0  0  0  0  0  0  0  0  0  0  0
   -6.6010   21.9460  -31.6800 C   0  0  0  0  0  0  0  0  0  0  0  0
   -6.6720   20.6340  -32.1600 C   0  0  0  0  0  0  0  0  0  0  0  0
   -5.2061   19.3184  -34.0056 H   0  0  0  0  0  0  0  0  0  0  0  0
   -4.7582   18.1550  -35.2989 H   0  0  0  0  0  0  0  0  0  0  0  0
   -6.3857   18.9151  -35.2989 H   0  0  0  0  0  0  0  0  0  0  0  0
   -6.8958   16.8426  -34.3862 H   0  0  0  0  0  0  0  0  0  0  0  0
   -5.2702   16.7072  -33.5766 H   0  0  0  0  0  0  0  0  0  0  0  0
   -6.8903   16.9668  -31.8409 H   0  0  0  0  0  0  0  0  0  0  0  0
   -6.0109   18.5489  -32.0284 H   0  0  0  0  0  0  0  0  0  0  0  0
   -8.3265   18.5697  -33.7377 H   0  0  0  0  0  0  0  0  0  0  0  0
   -8.8286   18.0725  -32.0783 H   0  0  0  0  0  0  0  0  0  0  0  0
  -10.0660   20.2035  -31.7641 H   0  0  0  0  0  0  0  0  0  0  0  0
   -9.8744   22.5760  -30.9493 H   0  0  0  0  0  0  0  0  0  0  0  0
   -7.9911   24.6888  -30.5132 H   0  0  0  0  0  0  0  0  0  0  0  0
   -3.1150   25.6670  -31.2190 H   0  0  0  0  0  0  0  0  0  0  0  0
   -4.5890   22.3880  -34.0940 H   0  0  0  0  0  0  0  0  0  0  0  0
   -2.8770   22.0480  -33.6580 H   0  0  0  0  0  0  0  0  0  0  0  0
   -5.7672   20.1053  -32.4943 H   0  0  0  0  0  0  0  0  0  0  0  0
  1  2  1  0
  2  3  1  0
  3  4  1  0
  4  5  1  0
  5  6  2  0
  6  7  1  0
  7  8  2  0
  8  9  1  0
  9 10  2  0
 10 11  1  0
 11 12  1  0
 11 13  2  0
 10 14  1  0
 14 15  1  0
 15 16  1  0
 15 17  2  0
 14 18  1  0
 18 19  2  0
 19  5  1  0
 18  8  1  0
  1 20  1  0
  1 21  1  0
  1 22  1  0
  2 23  1  0
  2 24  1  0
  3 25  1  0
  3 26  1  0
  4 27  1  0
  4 28  1  0
  6 29  1  0
  7 30  1  0
  9 31  1  0
 12 32  1  0
 16 33  1  0
 16 34  1  0
 19 35  1  0
M  CHG  1  12  -1
M  END
>  <UniqueID>  (6) 
6

>  <SMILES>  (6) 
CCCCc1ccc2cc(C([NH-])=O)n(C(N)=O)c2c1

>  <Energy>  (6) 
67.00506020577212

>  <Genealogy>  (6) 
CCCCc1ccc2cc(C([NH-])=O)n(C(N)=O)c2c1 (protonated)
CCCCc1ccc2cc(C([NH-])=O)n(C(N)=O)c2c1 (3D coordinates assigned)
CCCCc1ccc2cc(C([NH-])=O)n(C(N)=O)c2c1 (optimized conformer: 67.00506020577212 kcal/mol)

>  <smiles>  (6) 
CCCCc1ccc2cc(C(N)=O)n(C(N)=O)c2c1

>  <score_type>  (6) 
oracle

>  <origin>  (6) 
adg

>  <m_score__min__energy>  (6) 
-10.720000000000001

>  <m_primary>  (6) 
energy

$$$$
6:0
     RDKit          3D

 43 45  0  0  0  0  0  0  0  0999 V2000
   -1.6230   15.2480  -34.5630 C   0  0  0  0  0  0  0  0  0  0  0  0
   -3.0310   15.0470  -34.1870 N   0  0  0  0  0  0  0  0  0  0  0  0
   -3.2300   15.3490  -32.7580 C   0  0  0  0  0  0  0  0  0  0  0  0
   -4.6300   14.8990  -32.3040 C   0  0  0  0  0  0  0  0  0  0  0  0
   -5.6320   14.8250  -33.4690 C   0  0  0  0  0  0  0  0  0  0  0  0
   -5.3770   15.9220  -34.5170 C   0  0  1  0  0  0  0  0  0  0  0  0
   -5.7090   17.2440  -33.9540 C   0  0  0  0  0  0  0  0  0  0  0  0
   -5.9740   18.3230  -33.4880 C   0  0  0  0  0  0  0  0  0  0  0  0
   -6.2970   19.6090  -32.9290 C   0  0  0  0  0  0  0  0  0  0  0  0
   -7.6480   20.0090  -32.8210 C   0  0  0  0  0  0  0  0  0  0  0  0
   -7.9780   21.2560  -32.2620 C   0  0  0  0  0  0  0  0  0  0  0  0
   -6.9360   22.0730  -31.8320 C   0  0  0  0  0  0  0  0  0  0  0  0
   -6.9710   23.3090  -31.2250 C   0  0  0  0  0  0  0  0  0  0  0  0
   -5.6380   23.6470  -30.9960 C   0  0  0  0  0  0  0  0  0  0  0  0
   -5.2130   24.9360  -30.4100 C   0  0  0  0  0  0  0  0  0  0  0  0
   -3.8580   25.3690  -30.4920 N   0  0  0  0  0  0  0  0  0  0  0  0
   -6.0670   25.6830  -29.8610 O   0  0  0  0  0  0  0  0  0  0  0  0
   -4.8120   22.6580  -31.4410 N   0  0  0  0  0  0  0  0  0  0  0  0
   -3.3830   22.5850  -31.3230 C   0  0  0  0  0  0  0  0  0  0  0  0
   -2.7220   23.1520  -30.1920 N   0  0  0  0  0  0  0  0  0  0  0  0
   -2.7050   22.0230  -32.2230 O   0  0  0  0  0  0  0  0  0  0  0  0
   -5.6210   21.7020  -31.9480 C   0  0  0  0  0  0  0  0  0  0  0  0
   -5.2650   20.4580  -32.4820 C   0  0  0  0  0  0  0  0  0  0  0  0
   -3.9100   15.8900  -35.0310 C   0  0  0  0  0  0  0  0  0  0  0  0
   -1.0097   15.3356  -33.6541 H   0  0  0  0  0  0  0  0  0  0  0  0
   -1.2763   14.3902  -35.1580 H   0  0  0  0  0  0  0  0  0  0  0  0
   -1.5302   16.1685  -35.1580 H   0  0  0  0  0  0  0  0  0  0  0  0
   -2.4693   14.8188  -32.1662 H   0  0  0  0  0  0  0  0  0  0  0  0
   -3.1378   16.4346  -32.6067 H   0  0  0  0  0  0  0  0  0  0  0  0
   -4.5486   13.9027  -31.8450 H   0  0  0  0  0  0  0  0  0  0  0  0
   -5.0048   15.6451  -31.5878 H   0  0  0  0  0  0  0  0  0  0  0  0
   -5.5410   13.8420  -33.9541 H   0  0  0  0  0  0  0  0  0  0  0  0
   -6.6420   14.9737  -33.0593 H   0  0  0  0  0  0  0  0  0  0  0  0
   -6.0294   15.7299  -35.3815 H   0  0  0  0  0  0  0  0  0  0  0  0
   -8.4462   19.3407  -33.1764 H   0  0  0  0  0  0  0  0  0  0  0  0
   -9.0262   21.5760  -32.1674 H   0  0  0  0  0  0  0  0  0  0  0  0
   -7.8619   23.9034  -30.9741 H   0  0  0  0  0  0  0  0  0  0  0  0
   -3.5480   26.0210  -31.2460 H   0  0  0  0  0  0  0  0  0  0  0  0
   -1.6810   23.1260  -30.1220 H   0  0  0  0  0  0  0  0  0  0  0  0
   -3.2740   23.5650  -29.4060 H   0  0  0  0  0  0  0  0  0  0  0  0
   -4.2106   20.1522  -32.5507 H   0  0  0  0  0  0  0  0  0  0  0  0
   -3.9040   15.4903  -36.0558 H   0  0  0  0  0  0  0  0  0  0  0  0
   -3.5210   16.9183  -34.9955 H   0  0  0  0  0  0  0  0  0  0  0  0
  1  2  1  0
  2  3  1  0
  3  4  1  0
  4  5  1  0
  5  6  1  0
  6  7  1  0
  7  8  3  0
  8  9  1  0
  9 10  2  0
 10 11  1  0
 11 12  2  0
 12 13  1  0
 13 14  2  0
 14 15  1  0
 15 16  1  0
 15 17  2  0
 14 18  1  0
 18 19  1  0
 19 20  1  0
 19 21  2  0
 18 22  1  0
 22 23  2  0
  6 24  1  0
 24  2  1  0
 23  9  1  0
 22 12  1  0
  1 25  1  0
  1 26  1  0
  1 27  1  0
  3 28  1  0
  3 29  1  0
  4 30  1  0
  4 31  1  0
  5 32  1  0
  5 33  1  0
  6 34  1  6
 10 35  1  0
 11 36  1  0
 13 37  1  0
 16 38  1  0
 20 39  1  0
 20 40  1  0
 23 41  1  0
 24 42  1  0
 24 43  1  0
M  CHG  1  16  -1
M  END
>  <UniqueID>  (7) 
7

>  <SMILES>  (7) 
CN1CCC[C@@H](C#Cc2ccc3cc(C([NH-])=O)n(C(N)=O)c3c2)C1

>  <Energy>  (7) 
83.77691915473662

>  <Genealogy>  (7) 
CN1CCC[C@@H](C#Cc2ccc3cc(C([NH-])=O)n(C(N)=O)c3c2)C1 (protonated)
CN1CCC[C@@H](C#Cc2ccc3cc(C([NH-])=O)n(C(N)=O)c3c2)C1 (3D coordinates assigned)
CN1CCC[C@@H](C#Cc2ccc3cc(C([NH-])=O)n(C(N)=O)c3c2)C1 (nonaromatic ring conformer: 83.77691915473662 kcal/mol)

>  <smiles>  (7) 
CN1CCC[C@@H](C#Cc2ccc3cc(C(N)=O)n(C(N)=O)c3c2)C1

>  <score_type>  (7) 
oracle

>  <origin>  (7) 
adg

>  <m_score__min__energy>  (7) 
-10.550000000000001

>  <m_primary>  (7) 
energy

$$$$
7:0
     RDKit          3D

 55 59  0  0  0  0  0  0  0  0999 V2000
   -2.3530   24.7120  -28.2780 C   0  0  0  0  0  0  0  0  0  0  0  0
   -3.0330   25.2840  -29.3910 O   0  0  0  0  0  0  0  0  0  0  0  0
   -4.0580   24.6470  -30.1070 C   0  0  0  0  0  0  0  0  0  0  0  0
   -5.3780   25.1390  -30.1290 C   0  0  0  0  0  0  0  0  0  0  0  0
   -6.3710   24.4740  -30.8550 C   0  0  0  0  0  0  0  0  0  0  0  0
   -6.0640   23.3140  -31.5670 C   0  0  0  0  0  0  0  0  0  0  0  0
   -4.7560   22.8120  -31.5550 C   0  0  0  0  0  0  0  0  0  0  0  0
   -4.4140   21.6550  -32.2600 C   0  0  0  0  0  0  0  0  0  0  0  0
   -3.0930   21.1850  -32.2320 C   0  0  0  0  0  0  0  0  0  0  0  0
   -2.7260   19.9600  -32.9860 C   0  0  0  0  0  0  0  0  0  0  0  0
   -1.5560   19.9320  -33.7860 C   0  0  0  0  0  0  0  0  0  0  0  0
   -1.2010   18.7760  -34.5010 C   0  0  0  0  0  0  0  0  0  0  0  0
   -2.0400   17.6700  -34.4080 C   0  0  0  0  0  0  0  0  0  0  0  0
   -1.9230   16.4220  -34.9770 C   0  0  0  0  0  0  0  0  0  0  0  0
   -3.0400   15.7110  -34.5390 C   0  0  0  0  0  0  0  0  0  0  0  0
   -3.3720   14.3420  -34.9880 C   0  0  0  0  0  0  0  0  0  0  0  0
   -3.9070   13.3840  -34.0740 N   0  0  0  0  0  0  0  0  0  0  0  0
   -3.1550   13.9980  -36.1800 O   0  0  0  0  0  0  0  0  0  0  0  0
   -3.8140   16.4890  -33.7320 N   0  0  0  0  0  0  0  0  0  0  0  0
   -5.0050   16.0990  -33.0270 C   0  0  0  0  0  0  0  0  0  0  0  0
   -4.9230   15.3480  -32.0180 O   0  0  0  0  0  0  0  0  0  0  0  0
   -6.2560   16.5390  -33.4790 O   0  0  0  0  0  0  0  0  0  0  0  0
   -6.4750   17.8250  -34.0550 C   0  0  0  0  0  0  0  0  0  0  0  0
   -7.2770   18.6890  -33.1210 C   0  0  0  0  0  0  0  0  0  0  0  0
   -8.0600   18.1120  -32.1080 C   0  0  0  0  0  0  0  0  0  0  0  0
   -8.7810   18.9250  -31.2260 C   0  0  0  0  0  0  0  0  0  0  0  0
   -8.7190   20.3170  -31.3470 C   0  0  0  0  0  0  0  0  0  0  0  0
   -7.9370   20.8970  -32.3490 C   0  0  0  0  0  0  0  0  0  0  0  0
   -7.2170   20.0870  -33.2330 C   0  0  0  0  0  0  0  0  0  0  0  0
   -3.1890   17.6850  -33.6600 C   0  0  0  0  0  0  0  0  0  0  0  0
   -3.5560   18.8160  -32.9240 C   0  0  0  0  0  0  0  0  0  0  0  0
   -2.1490   21.9030  -31.4690 C   0  0  0  0  0  0  0  0  0  0  0  0
   -0.9570   21.5050  -31.3820 O   0  0  0  0  0  0  0  0  0  0  0  0
   -2.5100   23.0020  -30.8110 O   0  0  0  0  0  0  0  0  0  0  0  0
   -3.7510   23.4800  -30.8240 C   0  0  0  0  0  0  0  0  0  0  0  0
   -2.7982   25.0865  -27.3444 H   0  0  0  0  0  0  0  0  0  0  0  0
   -2.4460   23.6166  -28.3150 H   0  0  0  0  0  0  0  0  0  0  0  0
   -1.2897   24.9912  -28.3150 H   0  0  0  0  0  0  0  0  0  0  0  0
   -5.6293   26.0530  -29.5709 H   0  0  0  0  0  0  0  0  0  0  0  0
   -7.3984   24.8670  -30.8648 H   0  0  0  0  0  0  0  0  0  0  0  0
   -6.8480   22.7942  -32.1371 H   0  0  0  0  0  0  0  0  0  0  0  0
   -5.1794   21.1140  -32.8358 H   0  0  0  0  0  0  0  0  0  0  0  0
   -0.9184   20.8262  -33.8476 H   0  0  0  0  0  0  0  0  0  0  0  0
   -0.2887   18.7462  -35.1149 H   0  0  0  0  0  0  0  0  0  0  0  0
   -1.1196   16.0622  -35.6366 H   0  0  0  0  0  0  0  0  0  0  0  0
   -4.1480   13.6460  -33.0920 H   0  0  0  0  0  0  0  0  0  0  0  0
   -4.1040   12.4080  -34.3920 H   0  0  0  0  0  0  0  0  0  0  0  0
   -5.5045   18.3051  -34.2492 H   0  0  0  0  0  0  0  0  0  0  0  0
   -7.0322   17.7041  -34.9957 H   0  0  0  0  0  0  0  0  0  0  0  0
   -8.1068   17.0176  -32.0074 H   0  0  0  0  0  0  0  0  0  0  0  0
   -9.3969   18.4688  -30.4370 H   0  0  0  0  0  0  0  0  0  0  0  0
   -9.2860   20.9552  -30.6532 H   0  0  0  0  0  0  0  0  0  0  0  0
   -7.8875   21.9919  -32.4427 H   0  0  0  0  0  0  0  0  0  0  0  0
   -6.6010   20.5474  -34.0195 H   0  0  0  0  0  0  0  0  0  0  0  0
   -4.4692   18.8162  -32.3108 H   0  0  0  0  0  0  0  0  0  0  0  0
  1  2  1  0
  2  3  1  0
  3  4  2  0
  4  5  1  0
  5  6  2  0
  6  7  1  0
  7  8  1  0
  8  9  2  0
  9 10  1  0
 10 11  2  0
 11 12  1  0
 12 13  2  0
 13 14  1  0
 14 15  2  0
 15 16  1  0
 16 17  1  0
 16 18  2  0
 15 19  1  0
 19 20  1  0
 20 21  2  0
 20 22  1  0
 22 23  1  0
 23 24  1  0
 24 25  2  0
 25 26  1  0
 26 27  2  0
 27 28  1  0
 28 29  2  0
 19 30  1  0
 30 31  2  0
  9 32  1  0
 32 33  2  0
 32 34  1  0
 34 35  1  0
 35  3  1  0
 35  7  2  0
 31 10  1  0
 30 13  1  0
 29 24  1  0
  1 36  1  0
  1 37  1  0
  1 38  1  0
  4 39  1  0
  5 40  1  0
  6 41  1  0
  8 42  1  0
 11 43  1  0
 12 44  1  0
 14 45  1  0
 17 46  1  0
 17 47  1  0
 23 48  1  0
 23 49  1  0
 25 50  1  0
 26 51  1  0
 27 52  1  0
 28 53  1  0
 29 54  1  0
 31 55  1  0
M  END
>  <UniqueID>  (8) 
8

>  <SMILES>  (8) 
COc1cccc2cc(-c3ccc4cc(C(N)=O)n(C(=O)OCc5ccccc5)c4c3)c(=O)oc12

>  <Energy>  (8) 
108.42608303729054

>  <Genealogy>  (8) 
COc1cccc2cc(-c3ccc4cc(C(N)=O)n(C(=O)OCc5ccccc5)c4c3)c(=O)oc12 (3D coordinates assigned)
COc1cccc2cc(-c3ccc4cc(C(N)=O)n(C(=O)OCc5ccccc5)c4c3)c(=O)oc12 (optimized conformer: 108.42608303729054 kcal/mol)

>  <smiles>  (8) 
COc1cccc2cc(-c3ccc4cc(C(N)=O)n(C(=O)OCc5ccccc5)c4c3)c(=O)oc12

>  <score_type>  (8) 
oracle

>  <origin>  (8) 
adg

>  <m_score__min__energy>  (8) 
-10.92

>  <m_primary>  (8) 
energy

$$$$
8:0
     RDKit          3D

 44 45  0  0  0  0  0  0  0  0999 V2000
   -3.4840   17.4230  -33.7290 C   0  0  0  0  0  0  0  0  0  0  0  0
   -4.3840   16.5600  -34.6210 C   0  0  0  0  0  0  0  0  0  0  0  0
   -5.2270   15.6180  -33.8210 N   0  0  0  0  0  0  0  0  0  0  0  0
   -4.7420   15.5150  -32.4170 C   0  0  0  0  0  0  0  0  0  0  0  0
   -4.6080   14.0620  -31.9470 C   0  0  0  0  0  0  0  0  0  0  0  0
   -6.6450   16.0580  -33.8460 C   0  0  0  0  0  0  0  0  0  0  0  0
   -6.8020   17.4390  -33.3540 C   0  0  0  0  0  0  0  0  0  0  0  0
   -6.9260   18.5670  -32.9490 C   0  0  0  0  0  0  0  0  0  0  0  0
   -7.0700   19.9150  -32.4670 C   0  0  0  0  0  0  0  0  0  0  0  0
   -8.3600   20.4660  -32.2880 C   0  0  0  0  0  0  0  0  0  0  0  0
   -8.5120   21.7840  -31.8230 C   0  0  0  0  0  0  0  0  0  0  0  0
   -7.3600   22.5150  -31.5460 C   0  0  0  0  0  0  0  0  0  0  0  0
   -7.2130   23.8100  -31.1000 C   0  0  0  0  0  0  0  0  0  0  0  0
   -5.8380   24.0150  -31.0040 C   0  0  0  0  0  0  0  0  0  0  0  0
   -5.2330   25.2540  -30.4740 C   0  0  0  0  0  0  0  0  0  0  0  0
   -3.9130   25.6430  -30.8470 N   0  0  0  0  0  0  0  0  0  0  0  0
   -5.8730   25.9590  -29.6490 O   0  0  0  0  0  0  0  0  0  0  0  0
   -5.1610   22.8950  -31.3840 N   0  0  0  0  0  0  0  0  0  0  0  0
   -3.7410   22.7120  -31.5050 C   0  0  0  0  0  0  0  0  0  0  0  0
   -3.1640   21.9240  -32.6390 C   0  0  0  0  0  0  0  0  0  0  0  0
   -2.9740   23.1560  -30.6100 O   0  0  0  0  0  0  0  0  0  0  0  0
   -6.1050   21.9850  -31.7070 C   0  0  0  0  0  0  0  0  0  0  0  0
   -5.9220   20.6810  -32.1800 C   0  0  0  0  0  0  0  0  0  0  0  0
   -3.7043   17.2118  -32.6722 H   0  0  0  0  0  0  0  0  0  0  0  0
   -2.4294   17.1899  -33.9374 H   0  0  0  0  0  0  0  0  0  0  0  0
   -3.6726   18.4865  -33.9374 H   0  0  0  0  0  0  0  0  0  0  0  0
   -5.0437   17.2195  -35.2040 H   0  0  0  0  0  0  0  0  0  0  0  0
   -3.7371   15.9619  -35.2796 H   0  0  0  0  0  0  0  0  0  0  0  0
   -5.1930   14.6600  -34.2490 H   0  0  0  0  0  0  0  0  0  0  0  0
   -3.7574   16.0004  -32.3475 H   0  0  0  0  0  0  0  0  0  0  0  0
   -5.4828   16.0083  -31.7706 H   0  0  0  0  0  0  0  0  0  0  0  0
   -4.6051   14.0311  -30.8474 H   0  0  0  0  0  0  0  0  0  0  0  0
   -5.4557   13.4737  -32.3282 H   0  0  0  0  0  0  0  0  0  0  0  0
   -3.6670   13.6386  -32.3282 H   0  0  0  0  0  0  0  0  0  0  0  0
   -7.0154   16.0050  -34.8804 H   0  0  0  0  0  0  0  0  0  0  0  0
   -7.2194   15.3934  -33.1839 H   0  0  0  0  0  0  0  0  0  0  0  0
   -9.2497   19.8598  -32.5139 H   0  0  0  0  0  0  0  0  0  0  0  0
   -9.5103   22.2241  -31.6824 H   0  0  0  0  0  0  0  0  0  0  0  0
   -8.0119   24.5299  -30.8686 H   0  0  0  0  0  0  0  0  0  0  0  0
   -3.0820   25.2960  -30.3180 H   0  0  0  0  0  0  0  0  0  0  0  0
   -2.5584   21.0969  -32.2400 H   0  0  0  0  0  0  0  0  0  0  0  0
   -3.9794   21.5173  -33.2552 H   0  0  0  0  0  0  0  0  0  0  0  0
   -2.5301   22.5786  -33.2552 H   0  0  0  0  0  0  0  0  0  0  0  0
   -4.9133   20.2663  -32.3235 H   0  0  0  0  0  0  0  0  0  0  0  0
  1  2  1  0
  2  3  1  0
  3  4  1  0
  4  5  1  0
  3  6  1  0
  6  7  1  0
  7  8  3  0
  8  9  1  0
  9 10  2  0
 10 11  1  0
 11 12  2  0
 12 13  1  0
 13 14  2  0
 14 15  1  0
 15 16  1  0
 15 17  2  0
 14 18  1  0
 18 19  1  0
 19 20  1  0
 19 21  2  0
 18 22  1  0
 22 23  2  0
 23  9  1  0
 22 12  1  0
  1 24  1  0
  1 25  1  0
  1 26  1  0
  2 27  1  0
  2 28  1  0
  3 29  1  0
  4 30  1  0
  4 31  1  0
  5 32  1  0
  5 33  1  0
  5 34  1  0
  6 35  1  0
  6 36  1  0
 10 37  1  0
 11 38  1  0
 13 39  1  0
 16 40  1  0
 20 41  1  0
 20 42  1  0
 20 43  1  0
 23 44  1  0
M  CHG  2   3   1  16  -1
M  END
>  <UniqueID>  (9) 
9

>  <SMILES>  (9) 
CC[NH+](CC)CC#Cc1ccc2cc(C([NH-])=O)n(C(C)=O)c2c1

>  <Energy>  (9) 
81.97527282567803

>  <Genealogy>  (9) 
CC[NH+](CC)CC#Cc1ccc2cc(C([NH-])=O)n(C(C)=O)c2c1 (protonated)
CC[NH+](CC)CC#Cc1ccc2cc(C([NH-])=O)n(C(C)=O)c2c1 (3D coordinates assigned)
CC[NH+](CC)CC#Cc1ccc2cc(C([NH-])=O)n(C(C)=O)c2c1 (optimized conformer: 81.97527282567803 kcal/mol)

>  <smiles>  (9) 
CCN(CC)CC#Cc1ccc2cc(C(N)=O)n(C(C)=O)c2c1

>  <score_type>  (9) 
oracle

>  <origin>  (9) 
adg

>  <m_score__min__energy>  (9) 
-10.050000000000001

>  <m_primary>  (9) 
energy

$$$$
9:0
     RDKit          3D

 32 33  0  0  0  0  0  0  0  0999 V2000
   -1.5130   22.5460  -28.7290 C   0  0  0  0  0  0  0  0  0  0  0  0
   -2.0960   23.3390  -29.9030 C   0  0  1  0  0  0  0  0  0  0  0  0
   -3.1050   22.5250  -30.6890 C   0  0  0  0  0  0  0  0  0  0  0  0
   -4.4910   22.7000  -30.4390 C   0  0  0  0  0  0  0  0  0  0  0  0
   -5.4490   21.9410  -31.1320 C   0  0  0  0  0  0  0  0  0  0  0  0
   -4.9970   21.0170  -32.0670 C   0  0  0  0  0  0  0  0  0  0  0  0
   -5.7040   20.1390  -32.8560 C   0  0  0  0  0  0  0  0  0  0  0  0
   -4.7450   19.4470  -33.5910 C   0  0  0  0  0  0  0  0  0  0  0  0
   -5.0670   18.4620  -34.6470 C   0  0  0  0  0  0  0  0  0  0  0  0
   -4.2470   17.3100  -34.8460 N   0  0  0  0  0  0  0  0  0  0  0  0
   -6.0930   18.6150  -35.3620 O   0  0  0  0  0  0  0  0  0  0  0  0
   -3.4920   19.8780  -33.2670 N   0  0  0  0  0  0  0  0  0  0  0  0
   -2.2370   19.3700  -33.7510 C   0  0  0  0  0  0  0  0  0  0  0  0
   -1.4080   20.1750  -34.5860 N   0  0  0  0  0  0  0  0  0  0  0  0
   -1.8730   18.1990  -33.4580 O   0  0  0  0  0  0  0  0  0  0  0  0
   -3.6650   20.8400  -32.3340 C   0  0  0  0  0  0  0  0  0  0  0  0
   -2.6870   21.5710  -31.6470 C   0  0  0  0  0  0  0  0  0  0  0  0
   -2.8420   24.9020  -29.3240 P   0  0  0  0  0  0  0  0  0  0  0  0
   -3.6300   24.6470  -28.0590 O   0  0  0  0  0  0  0  0  0  0  0  0
   -1.6160   26.0210  -28.9980 O   0  0  0  0  0  0  0  0  0  0  0  0
   -3.8760   25.5360  -30.5030 O   0  0  0  0  0  0  0  0  0  0  0  0
   -1.8442   22.9965  -27.7817 H   0  0  0  0  0  0  0  0  0  0  0  0
   -1.8617   21.5040  -28.7812 H   0  0  0  0  0  0  0  0  0  0  0  0
   -0.4145   22.5680  -28.7812 H   0  0  0  0  0  0  0  0  0  0  0  0
   -1.2634   23.5775  -30.5812 H   0  0  0  0  0  0  0  0  0  0  0  0
   -4.8193   23.4391  -29.6934 H   0  0  0  0  0  0  0  0  0  0  0  0
   -6.5240   22.0739  -30.9405 H   0  0  0  0  0  0  0  0  0  0  0  0
   -6.7957   20.0109  -32.8974 H   0  0  0  0  0  0  0  0  0  0  0  0
   -4.5050   16.6010  -35.5680 H   0  0  0  0  0  0  0  0  0  0  0  0
   -3.3600   17.1760  -34.3120 H   0  0  0  0  0  0  0  0  0  0  0  0
   -1.7510   21.0840  -34.9670 H   0  0  0  0  0  0  0  0  0  0  0  0
   -1.6180   21.4070  -31.8478 H   0  0  0  0  0  0  0  0  0  0  0  0
  1  2  1  0
  2  3  1  0
  3  4  2  0
  4  5  1  0
  5  6  2  0
  6  7  1  0
  7  8  2  0
  8  9  1  0
  9 10  1  0
  9 11  2  0
  8 12  1  0
 12 13  1  0
 13 14  1  0
 13 15  2  0
 12 16  1  0
 16 17  2  0
  2 18  1  0
 18 19  2  0
 18 20  1  0
 18 21  1  0
 17  3  1  0
 16  6  1  0
  1 22  1  0
  1 23  1  0
  1 24  1  0
  2 25  1  6
  4 26  1  0
  5 27  1  0
  7 28  1  0
 10 29  1  0
 10 30  1  0
 14 31  1  0
 17 32  1  0
M  CHG  3  14  -1  20  -1  21  -1
M  END
>  <UniqueID>  (10) 
10

>  <SMILES>  (10) 
C[C@@H](c1ccc2cc(C(N)=O)n(C([NH-])=O)c2c1)P(=O)([O-])[O-]

>  <Energy>  (10) 
65.7278743551956

>  <Genealogy>  (10) 
CC(c1ccc2cc(C(N)=O)n(C([NH-])=O)c2c1)P(=O)([O-])[O-] (protonated)
C[C@@H](c1ccc2cc(C(N)=O)n(C([NH-])=O)c2c1)P(=O)([O-])[O-] (chirality)
C[C@@H](c1ccc2cc(C(N)=O)n(C([NH-])=O)c2c1)P(=O)([O-])[O-] (3D coordinates assigned)
C[C@@H](c1ccc2cc(C(N)=O)n(C([NH-])=O)c2c1)P(=O)([O-])[O-] (optimized conformer: 65.7278743551956 kcal/mol)

>  <smiles>  (10) 
CC(c1ccc2cc(C(N)=O)n(C(N)=O)c2c1)P(=O)(O)O

>  <score_type>  (10) 
oracle

>  <origin>  (10) 
adg

>  <m_score__min__energy>  (10) 
-11.789999999999999

>  <m_primary>  (10) 
energy

$$$$
10:0
     RDKit          3D

 41 43  0  0  0  0  0  0  0  0999 V2000
   -3.9020   25.3110  -30.8080 N   0  0  0  0  0  0  0  0  0  0  0  0
   -3.7810   24.0650  -30.1250 C   0  0  0  0  0  0  0  0  0  0  0  0
   -4.5390   23.8170  -29.1500 O   0  0  0  0  0  0  0  0  0  0  0  0
   -2.7890   23.1080  -30.5330 N   0  0  0  0  0  0  0  0  0  0  0  0
   -1.5030   23.0060  -30.0910 C   0  0  0  0  0  0  0  0  0  0  0  0
   -0.8050   23.9780  -29.2270 C   0  0  0  0  0  0  0  0  0  0  0  0
   -1.2440   25.3330  -29.1330 N   0  0  0  0  0  0  0  0  0  0  0  0
    0.2300   23.6200  -28.6050 O   0  0  0  0  0  0  0  0  0  0  0  0
   -0.8900   21.8720  -30.6160 C   0  0  0  0  0  0  0  0  0  0  0  0
   -1.8420   21.2810  -31.4140 C   0  0  0  0  0  0  0  0  0  0  0  0
   -1.7780   20.1090  -32.1630 C   0  0  0  0  0  0  0  0  0  0  0  0
   -2.9290   19.7100  -32.8620 C   0  0  0  0  0  0  0  0  0  0  0  0
   -4.1150   20.4840  -32.8000 C   0  0  0  0  0  0  0  0  0  0  0  0
   -5.3560   20.0190  -33.5130 C   0  0  0  0  0  0  0  0  0  0  0  0
   -6.5310   19.9090  -32.5170 C   0  0  0  0  0  0  0  0  0  0  0  0
   -7.6080   20.9060  -32.7260 N   0  0  0  0  0  0  0  0  0  0  0  0
   -8.8690   20.5680  -32.0510 C   0  0  0  0  0  0  0  0  0  0  0  0
   -9.0250   21.4900  -30.8500 C   0  0  0  0  0  0  0  0  0  0  0  0
   -7.9790   22.5780  -31.0140 C   0  0  0  0  0  0  0  0  0  0  0  0
   -7.2470   22.2670  -32.3110 C   0  0  0  0  0  0  0  0  0  0  0  0
   -4.1470   21.6590  -32.0180 C   0  0  0  0  0  0  0  0  0  0  0  0
   -2.9800   22.0440  -31.3470 C   0  0  0  0  0  0  0  0  0  0  0  0
   -3.1760   25.6230  -31.4900 H   0  0  0  0  0  0  0  0  0  0  0  0
   -0.7570   25.9990  -28.4910 H   0  0  0  0  0  0  0  0  0  0  0  0
   -1.9960   25.7010  -29.7570 H   0  0  0  0  0  0  0  0  0  0  0  0
    0.1368   21.5228  -30.4320 H   0  0  0  0  0  0  0  0  0  0  0  0
   -0.8540   19.5137  -32.2060 H   0  0  0  0  0  0  0  0  0  0  0  0
   -2.9100   18.7888  -33.4629 H   0  0  0  0  0  0  0  0  0  0  0  0
   -5.6143   20.7407  -34.3019 H   0  0  0  0  0  0  0  0  0  0  0  0
   -5.1669   19.0305  -33.9570 H   0  0  0  0  0  0  0  0  0  0  0  0
   -6.9692   18.9045  -32.6119 H   0  0  0  0  0  0  0  0  0  0  0  0
   -6.1140   20.1030  -31.5178 H   0  0  0  0  0  0  0  0  0  0  0  0
   -9.7121   20.7111  -32.7428 H   0  0  0  0  0  0  0  0  0  0  0  0
   -8.8571   19.5173  -31.7255 H   0  0  0  0  0  0  0  0  0  0  0  0
  -10.0333   21.9294  -30.8348 H   0  0  0  0  0  0  0  0  0  0  0  0
   -8.8910   20.9437  -29.9047 H   0  0  0  0  0  0  0  0  0  0  0  0
   -8.4609   23.5649  -31.0748 H   0  0  0  0  0  0  0  0  0  0  0  0
   -7.2880   22.6035  -30.1585 H   0  0  0  0  0  0  0  0  0  0  0  0
   -7.5459   22.9851  -33.0888 H   0  0  0  0  0  0  0  0  0  0  0  0
   -6.1599   22.3431  -32.1616 H   0  0  0  0  0  0  0  0  0  0  0  0
   -5.0664   22.2575  -31.9378 H   0  0  0  0  0  0  0  0  0  0  0  0
  1  2  1  0
  2  3  2  0
  2  4  1  0
  4  5  1  0
  5  6  1  0
  6  7  1  0
  6  8  2  0
  5  9  2  0
  9 10  1  0
 10 11  2  0
 11 12  1  0
 12 13  2  0
 13 14  1  0
 14 15  1  0
 15 16  1  0
 16 17  1  0
 17 18  1  0
 18 19  1  0
 19 20  1  0
 13 21  1  0
 21 22  2  0
 22  4  1  0
 22 10  1  0
 20 16  1  0
  1 23  1  0
  7 24  1  0
  7 25  1  0
  9 26  1  0
 11 27  1  0
 12 28  1  0
 14 29  1  0
 14 30  1  0
 15 31  1  0
 15 32  1  0
 17 33  1  0
 17 34  1  0
 18 35  1  0
 18 36  1  0
 19 37  1  0
 19 38  1  0
 20 39  1  0
 20 40  1  0
 21 41  1  0
M  CHG  1   1  -1
M  END
>  <UniqueID>  (11) 
11

>  <SMILES>  (11) 
[NH-]C(=O)n1c(C(N)=O)cc2ccc(CCN3CCCC3)cc21

>  <Energy>  (11) 
85.01241665851265

>  <Genealogy>  (11) 
[NH-]C(=O)n1c(C(N)=O)cc2ccc(CCN3CCCC3)cc21 (protonated)
[NH-]C(=O)n1c(C(N)=O)cc2ccc(CCN3CCCC3)cc21 (3D coordinates assigned)
[NH-]C(=O)n1c(C(N)=O)cc2ccc(CCN3CCCC3)cc21 (nonaromatic ring conformer: 85.01241665851265 kcal/mol)

>  <smiles>  (11) 
NC(=O)c1cc2ccc(CCN3CCCC3)cc2n1C(N)=O

>  <score_type>  (11) 
oracle

>  <origin>  (11) 
adg

>  <m_score__min__energy>  (11) 
-9.4499999999999993

>  <m_primary>  (11) 
energy

$$$$
11:0
     RDKit          3D

 30 32  0  0  0  0  0  0  0  0999 V2000
   -2.3870   21.0000  -32.5760 C   0  0  0  0  0  0  0  0  0  0  0  0
   -3.0200   22.2730  -32.5690 O   0  0  0  0  0  0  0  0  0  0  0  0
   -3.6330   22.8040  -31.4300 C   0  0  0  0  0  0  0  0  0  0  0  0
   -2.9400   23.1290  -30.4280 O   0  0  0  0  0  0  0  0  0  0  0  0
   -5.0610   22.9550  -31.3950 N   0  0  0  0  0  0  0  0  0  0  0  0
   -5.7810   24.0100  -30.9160 C   0  0  0  0  0  0  0  0  0  0  0  0
   -5.2280   25.2980  -30.4470 C   0  0  0  0  0  0  0  0  0  0  0  0
   -3.9010   25.6740  -30.8100 N   0  0  0  0  0  0  0  0  0  0  0  0
   -5.9020   26.0580  -29.7020 O   0  0  0  0  0  0  0  0  0  0  0  0
   -7.1470   23.7480  -31.0020 C   0  0  0  0  0  0  0  0  0  0  0  0
   -7.2420   22.4940  -31.5580 C   0  0  0  0  0  0  0  0  0  0  0  0
   -8.3670   21.7340  -31.8600 C   0  0  0  0  0  0  0  0  0  0  0  0
   -8.1720   20.4550  -32.4050 C   0  0  0  0  0  0  0  0  0  0  0  0
   -6.8640   19.9510  -32.6350 C   0  0  0  0  0  0  0  0  0  0  0  0
   -6.6800   18.5930  -33.2030 C   0  0  0  0  0  0  0  0  0  0  0  0
   -7.2290   17.3820  -32.7660 C   0  0  0  0  0  0  0  0  0  0  0  0
   -6.8700   16.2860  -33.5020 N   0  0  0  0  0  0  0  0  0  0  0  0
   -6.0540   16.5380  -34.5220 N   0  0  0  0  0  0  0  0  0  0  0  0
   -5.7540   18.1680  -34.5300 S   0  0  0  0  0  0  0  0  0  0  0  0
   -5.7460   20.7590  -32.3120 C   0  0  0  0  0  0  0  0  0  0  0  0
   -5.9720   22.0370  -31.7870 C   0  0  0  0  0  0  0  0  0  0  0  0
   -2.2215   20.6671  -31.5407 H   0  0  0  0  0  0  0  0  0  0  0  0
   -3.0291   20.2741  -33.0963 H   0  0  0  0  0  0  0  0  0  0  0  0
   -1.4207   21.0739  -33.0963 H   0  0  0  0  0  0  0  0  0  0  0  0
   -3.0760   25.2820  -30.3030 H   0  0  0  0  0  0  0  0  0  0  0  0
   -7.9732   24.4045  -30.6913 H   0  0  0  0  0  0  0  0  0  0  0  0
   -9.3794   22.1235  -31.6773 H   0  0  0  0  0  0  0  0  0  0  0  0
   -9.0444   19.8344  -32.6575 H   0  0  0  0  0  0  0  0  0  0  0  0
   -7.8989   17.3164  -31.8960 H   0  0  0  0  0  0  0  0  0  0  0  0
   -4.7219   20.3900  -32.4704 H   0  0  0  0  0  0  0  0  0  0  0  0
  1  2  1  0
  2  3  1  0
  3  4  2  0
  3  5  1  0
  5  6  1  0
  6  7  1  0
  7  8  1  0
  7  9  2  0
  6 10  2  0
 10 11  1  0
 11 12  2  0
 12 13  1  0
 13 14  2  0
 14 15  1  0
 15 16  2  0
 16 17  1  0
 17 18  2  0
 18 19  1  0
 14 20  1  0
 20 21  2  0
 21  5  1  0
 21 11  1  0
 19 15  1  0
  1 22  1  0
  1 23  1  0
  1 24  1  0
  8 25  1  0
 10 26  1  0
 12 27  1  0
 13 28  1  0
 16 29  1  0
 20 30  1  0
M  CHG  1   8  -1
M  END
>  <UniqueID>  (12) 
12

>  <SMILES>  (12) 
COC(=O)n1c(C([NH-])=O)cc2ccc(-c3cnns3)cc21

>  <Energy>  (12) 
108.67649112796826

>  <Genealogy>  (12) 
COC(=O)n1c(C([NH-])=O)cc2ccc(-c3cnns3)cc21 (protonated)
COC(=O)n1c(C([NH-])=O)cc2ccc(-c3cnns3)cc21 (3D coordinates assigned)
COC(=O)n1c(C([NH-])=O)cc2ccc(-c3cnns3)cc21 (optimized conformer: 108.67649112796826 kcal/mol)

>  <smiles>  (12) 
COC(=O)n1c(C(N)=O)cc2ccc(-c3cnns3)cc21

>  <score_type>  (12) 
oracle

>  <origin>  (12) 
adg

>  <m_score__min__energy>  (12) 
-10.369999999999999

>  <m_primary>  (12) 
energy

$$$$
12:0
     RDKit          3D

 40 42  0  0  0  0  0  0  0  0999 V2000
   -5.3140   23.3420  -32.2030 N   0  0  0  0  0  0  0  0  0  0  0  0
   -4.1900   22.4680  -32.0860 C   0  0  0  0  0  0  0  0  0  0  0  0
   -3.6700   21.9870  -33.1270 O   0  0  0  0  0  0  0  0  0  0  0  0
   -3.5880   22.1700  -30.7710 C   0  0  0  0  0  0  0  0  0  0  0  0
   -3.4510   20.8790  -30.2680 C   0  0  0  0  0  0  0  0  0  0  0  0
   -2.7960   21.0250  -29.0680 C   0  0  0  0  0  0  0  0  0  0  0  0
   -2.4180   20.0660  -28.1340 C   0  0  0  0  0  0  0  0  0  0  0  0
   -1.7870   20.5030  -26.9580 C   0  0  0  0  0  0  0  0  0  0  0  0
   -1.5440   21.8820  -26.7360 C   0  0  0  0  0  0  0  0  0  0  0  0
   -0.8640   22.3430  -25.4650 C   0  0  0  0  0  0  0  0  0  0  0  0
   -0.1650   23.7210  -25.5700 C   0  0  0  0  0  0  0  0  0  0  0  0
    0.9790   23.7560  -26.6160 C   0  0  0  0  0  0  0  0  0  0  0  0
    0.5570   24.5080  -27.8850 C   0  0  0  0  0  0  0  0  0  0  0  0
    0.1960   25.9120  -27.6020 N   0  0  0  0  0  0  0  0  0  0  0  0
   -0.4390   26.1330  -26.2850 C   0  0  0  0  0  0  0  0  0  0  0  0
   -1.1650   24.8860  -25.7640 C   0  0  0  0  0  0  0  0  0  0  0  0
   -1.9660   22.8280  -27.6980 C   0  0  0  0  0  0  0  0  0  0  0  0
   -2.5690   22.3630  -28.8730 C   0  0  0  0  0  0  0  0  0  0  0  0
   -3.0530   23.0830  -29.9100 N   0  0  0  0  0  0  0  0  0  0  0  0
   -3.0950   24.5150  -30.0190 C   0  0  0  0  0  0  0  0  0  0  0  0
   -3.9740   25.0740  -30.7270 O   0  0  0  0  0  0  0  0  0  0  0  0
   -2.1700   25.3000  -29.3430 O   0  0  0  0  0  0  0  0  0  0  0  0
   -5.6600   23.8870  -31.3850 H   0  0  0  0  0  0  0  0  0  0  0  0
   -5.7500   23.5100  -33.1370 H   0  0  0  0  0  0  0  0  0  0  0  0
   -3.7937   19.9422  -30.7317 H   0  0  0  0  0  0  0  0  0  0  0  0
   -2.6077   18.9971  -28.3113 H   0  0  0  0  0  0  0  0  0  0  0  0
   -1.4779   19.7673  -26.2008 H   0  0  0  0  0  0  0  0  0  0  0  0
   -1.6240   22.4035  -24.6720 H   0  0  0  0  0  0  0  0  0  0  0  0
   -0.0737   21.6085  -25.2507 H   0  0  0  0  0  0  0  0  0  0  0  0
    0.3153   23.8737  -24.5923 H   0  0  0  0  0  0  0  0  0  0  0  0
    1.8514   24.2604  -26.1750 H   0  0  0  0  0  0  0  0  0  0  0  0
    1.2248   22.7204  -26.8938 H   0  0  0  0  0  0  0  0  0  0  0  0
    1.3922   24.4934  -28.6007 H   0  0  0  0  0  0  0  0  0  0  0  0
   -0.3301   24.0058  -28.2983 H   0  0  0  0  0  0  0  0  0  0  0  0
   -0.4660   26.2300  -28.3490 H   0  0  0  0  0  0  0  0  0  0  0  0
    0.3397   26.4155  -25.5613 H   0  0  0  0  0  0  0  0  0  0  0  0
   -1.1885   26.9291  -26.4056 H   0  0  0  0  0  0  0  0  0  0  0  0
   -1.6406   25.1197  -24.8000 H   0  0  0  0  0  0  0  0  0  0  0  0
   -1.9267   24.5839  -26.4979 H   0  0  0  0  0  0  0  0  0  0  0  0
   -1.8238   23.9053  -27.5273 H   0  0  0  0  0  0  0  0  0  0  0  0
  1  2  1  0
  2  3  2  0
  2  4  1  0
  4  5  2  0
  5  6  1  0
  6  7  2  0
  7  8  1  0
  8  9  2  0
  9 10  1  0
 10 11  1  0
 11 12  1  0
 12 13  1  0
 13 14  1  0
 14 15  1  0
 15 16  1  0
  9 17  1  0
 17 18  2  0
 18 19  1  0
 19 20  1  0
 20 21  2  0
 20 22  1  0
 19  4  1  0
 18  6  1  0
 16 11  1  0
  1 23  1  0
  1 24  1  0
  5 25  1  0
  7 26  1  0
  8 27  1  0
 10 28  1  0
 10 29  1  0
 11 30  1  0
 12 31  1  0
 12 32  1  0
 13 33  1  0
 13 34  1  0
 14 35  1  0
 15 36  1  0
 15 37  1  0
 16 38  1  0
 16 39  1  0
 17 40  1  0
M  CHG  1  22  -1
M  END
>  <UniqueID>  (13) 
13

>  <SMILES>  (13) 
NC(=O)c1cc2ccc(CC3CCNCC3)cc2n1C(=O)[O-]

>  <Energy>  (13) 
86.6512562149083

>  <Genealogy>  (13) 
NC(=O)c1cc2ccc(CC3CCNCC3)cc2n1C(=O)[O-] (protonated)
NC(=O)c1cc2ccc(CC3CCNCC3)cc2n1C(=O)[O-] (3D coordinates assigned)
NC(=O)c1cc2ccc(CC3CCNCC3)cc2n1C(=O)[O-] (nonaromatic ring conformer: 86.6512562149083 kcal/mol)

>  <smiles>  (13) 
NC(=O)c1cc2ccc(CC3CCNCC3)cc2n1C(=O)O

>  <score_type>  (13) 
oracle

>  <origin>  (13) 
adg

>  <m_score__min__energy>  (13) 
-9.8200000000000003

>  <m_primary>  (13) 
energy

$$$$
13:0
     RDKit          3D

 46 48  0  0  0  0  0  0  0  0999 V2000
   -2.6560   20.1270  -31.2990 C   0  0  0  0  0  0  0  0  0  0  0  0
   -2.4880   20.8990  -32.6200 C   0  0  0  0  0  0  0  0  0  0  0  0
   -2.8750   20.0140  -33.8210 C   0  0  0  0  0  0  0  0  0  0  0  0
   -1.0170   21.3180  -32.7670 C   0  0  0  0  0  0  0  0  0  0  0  0
   -3.2700   22.1020  -32.6040 O   0  0  0  0  0  0  0  0  0  0  0  0
   -3.7990   22.7370  -31.4700 C   0  0  0  0  0  0  0  0  0  0  0  0
   -3.0460   23.1270  -30.5360 O   0  0  0  0  0  0  0  0  0  0  0  0
   -5.2130   22.9650  -31.3850 N   0  0  0  0  0  0  0  0  0  0  0  0
   -5.8510   24.0480  -30.8580 C   0  0  0  0  0  0  0  0  0  0  0  0
   -5.2080   25.3050  -30.4200 C   0  0  0  0  0  0  0  0  0  0  0  0
   -3.8890   25.6380  -30.8400 N   0  0  0  0  0  0  0  0  0  0  0  0
   -5.8520   26.1180  -29.7040 O   0  0  0  0  0  0  0  0  0  0  0  0
   -7.2300   23.8510  -30.8530 C   0  0  0  0  0  0  0  0  0  0  0  0
   -7.4220   22.6050  -31.4060 C   0  0  0  0  0  0  0  0  0  0  0  0
   -8.5980   21.8980  -31.6290 C   0  0  0  0  0  0  0  0  0  0  0  0
   -8.4980   20.6120  -32.1840 C   0  0  0  0  0  0  0  0  0  0  0  0
   -7.2300   20.0520  -32.5000 C   0  0  0  0  0  0  0  0  0  0  0  0
   -7.1190   18.6540  -33.0810 C   0  0  1  0  0  0  0  0  0  0  0  0
   -6.0890   18.5790  -34.2070 C   0  0  0  0  0  0  0  0  0  0  0  0
   -5.0600   17.5560  -33.7470 C   0  0  0  0  0  0  0  0  0  0  0  0
   -5.2380   17.3640  -32.3110 N   0  0  0  0  0  0  0  0  0  0  0  0
   -6.6480   17.6320  -32.0450 C   0  0  0  0  0  0  0  0  0  0  0  0
   -6.0580   20.8040  -32.2530 C   0  0  0  0  0  0  0  0  0  0  0  0
   -6.1900   22.0900  -31.7180 C   0  0  0  0  0  0  0  0  0  0  0  0
   -2.5068   20.8128  -30.4520 H   0  0  0  0  0  0  0  0  0  0  0  0
   -3.6683   19.6992  -31.2505 H   0  0  0  0  0  0  0  0  0  0  0  0
   -1.9130   19.3173  -31.2505 H   0  0  0  0  0  0  0  0  0  0  0  0
   -3.2909   19.0630  -33.4568 H   0  0  0  0  0  0  0  0  0  0  0  0
   -3.6281   20.5335  -34.4317 H   0  0  0  0  0  0  0  0  0  0  0  0
   -1.9823   19.8138  -34.4317 H   0  0  0  0  0  0  0  0  0  0  0  0
   -0.5706   21.4452  -31.7697 H   0  0  0  0  0  0  0  0  0  0  0  0
   -0.4676   20.5406  -33.3182 H   0  0  0  0  0  0  0  0  0  0  0  0
   -0.9597   22.2682  -33.3182 H   0  0  0  0  0  0  0  0  0  0  0  0
   -3.0540   25.2820  -30.3240 H   0  0  0  0  0  0  0  0  0  0  0  0
   -8.0014   24.5437  -30.4854 H   0  0  0  0  0  0  0  0  0  0  0  0
   -9.5769   22.3327  -31.3784 H   0  0  0  0  0  0  0  0  0  0  0  0
   -9.4118   20.0308  -32.3766 H   0  0  0  0  0  0  0  0  0  0  0  0
   -8.1331   18.4267  -33.4415 H   0  0  0  0  0  0  0  0  0  0  0  0
   -6.5653   18.2516  -35.1429 H   0  0  0  0  0  0  0  0  0  0  0  0
   -5.6303   19.5585  -34.4074 H   0  0  0  0  0  0  0  0  0  0  0  0
   -5.2164   16.6036  -34.2748 H   0  0  0  0  0  0  0  0  0  0  0  0
   -4.0412   17.9085  -33.9657 H   0  0  0  0  0  0  0  0  0  0  0  0
   -5.0240   16.3680  -32.0660 H   0  0  0  0  0  0  0  0  0  0  0  0
   -7.2318   16.7044  -32.1386 H   0  0  0  0  0  0  0  0  0  0  0  0
   -6.7855   18.0194  -31.0247 H   0  0  0  0  0  0  0  0  0  0  0  0
   -5.0649   20.3872  -32.4765 H   0  0  0  0  0  0  0  0  0  0  0  0
  1  2  1  0
  2  3  1  0
  2  4  1  0
  2  5  1  0
  5  6  1  0
  6  7  2  0
  6  8  1  0
  8  9  1  0
  9 10  1  0
 10 11  1  0
 10 12  2  0
  9 13  2  0
 13 14  1  0
 14 15  2  0
 15 16  1  0
 16 17  2  0
 17 18  1  0
 18 19  1  0
 19 20  1  0
 20 21  1  0
 21 22  1  0
 17 23  1  0
 23 24  2  0
 24  8  1  0
 24 14  1  0
 22 18  1  0
  1 25  1  0
  1 26  1  0
  1 27  1  0
  3 28  1  0
  3 29  1  0
  3 30  1  0
  4 31  1  0
  4 32  1  0
  4 33  1  0
 11 34  1  0
 13 35  1  0
 15 36  1  0
 16 37  1  0
 18 38  1  6
 19 39  1  0
 19 40  1  0
 20 41  1  0
 20 42  1  0
 21 43  1  0
 22 44  1  0
 22 45  1  0
 23 46  1  0
M  CHG  1  11  -1
M  END
>  <UniqueID>  (14) 
14

>  <SMILES>  (14) 
CC(C)(C)OC(=O)n1c(C([NH-])=O)cc2ccc([C@H]3CCNC3)cc21

>  <Energy>  (14) 
83.28320473090994

>  <Genealogy>  (14) 
CC(C)(C)OC(=O)n1c(C([NH-])=O)cc2ccc(C3CCNC3)cc21 (protonated)
CC(C)(C)OC(=O)n1c(C([NH-])=O)cc2ccc([C@H]3CCNC3)cc21 (chirality)
CC(C)(C)OC(=O)n1c(C([NH-])=O)cc2ccc([C@H]3CCNC3)cc21 (3D coordinates assigned)
CC(C)(C)OC(=O)n1c(C([NH-])=O)cc2ccc([C@H]3CCNC3)cc21 (nonaromatic ring conformer: 83.28320473090994 kcal/mol)

>  <smiles>  (14) 
CC(C)(C)OC(=O)n1c(C(N)=O)cc2ccc(C3CCNC3)cc21

>  <score_type>  (14) 
oracle

>  <origin>  (14) 
adg

>  <m_score__min__energy>  (14) 
-11.08

>  <m_primary>  (14) 
energy

$$$$
14:0
     RDKit          3D

 41 44  0  0  0  0  0  0  0  0999 V2000
   -5.7050   25.1640  -29.0920 N   0  0  0  0  0  0  0  0  0  0  0  0
   -5.1220   24.6580  -30.2940 C   0  0  0  0  0  0  0  0  0  0  0  0
   -4.1320   25.2570  -30.7940 O   0  0  0  0  0  0  0  0  0  0  0  0
   -5.6160   23.4220  -30.9370 C   0  0  0  0  0  0  0  0  0  0  0  0
   -6.9680   23.1470  -31.1290 C   0  0  0  0  0  0  0  0  0  0  0  0
   -7.0070   21.9150  -31.7390 C   0  0  0  0  0  0  0  0  0  0  0  0
   -8.0980   21.1410  -32.1220 C   0  0  0  0  0  0  0  0  0  0  0  0
   -7.8450   19.8750  -32.6770 C   0  0  0  0  0  0  0  0  0  0  0  0
   -6.5160   19.4050  -32.8370 C   0  0  0  0  0  0  0  0  0  0  0  0
   -6.2670   18.0190  -33.3720 C   0  0  0  0  0  0  0  0  0  0  0  0
   -7.3470   17.1960  -33.1020 F   0  0  0  0  0  0  0  0  0  0  0  0
   -6.0750   18.0460  -34.7440 F   0  0  0  0  0  0  0  0  0  0  0  0
   -5.1390   17.4950  -32.7700 F   0  0  0  0  0  0  0  0  0  0  0  0
   -5.4370   20.2100  -32.4030 C   0  0  0  0  0  0  0  0  0  0  0  0
   -5.7160   21.4800  -31.8880 C   0  0  0  0  0  0  0  0  0  0  0  0
   -4.8480   22.4010  -31.4100 N   0  0  0  0  0  0  0  0  0  0  0  0
   -3.4220   22.2660  -31.3070 C   0  0  0  0  0  0  0  0  0  0  0  0
   -2.7180   22.3610  -32.3490 O   0  0  0  0  0  0  0  0  0  0  0  0
   -2.7720   21.9710  -29.9730 C   0  0  0  0  0  0  0  0  0  0  0  0
   -2.4890   23.1160  -29.0380 C   0  0  0  0  0  0  0  0  0  0  0  0
   -3.2820   23.3200  -27.9000 C   0  0  0  0  0  0  0  0  0  0  0  0
   -3.0260   24.4170  -27.0740 C   0  0  0  0  0  0  0  0  0  0  0  0
   -1.9880   25.2960  -27.3870 C   0  0  0  0  0  0  0  0  0  0  0  0
   -1.2250   25.0680  -28.5330 C   0  0  0  0  0  0  0  0  0  0  0  0
   -1.4910   23.9970  -29.3270 N   0  0  0  0  0  0  0  0  0  0  0  0
   -1.7580   20.8330  -29.9610 C   0  0  0  0  0  0  0  0  0  0  0  0
   -3.1130   20.6440  -29.2960 C   0  0  0  0  0  0  0  0  0  0  0  0
   -5.3630   26.0620  -28.6860 H   0  0  0  0  0  0  0  0  0  0  0  0
   -6.3930   24.6050  -28.5460 H   0  0  0  0  0  0  0  0  0  0  0  0
   -7.8231   23.7808  -30.8515 H   0  0  0  0  0  0  0  0  0  0  0  0
   -9.1268   21.5087  -31.9943 H   0  0  0  0  0  0  0  0  0  0  0  0
   -8.6873   19.2410  -32.9911 H   0  0  0  0  0  0  0  0  0  0  0  0
   -4.4013   19.8452  -32.4691 H   0  0  0  0  0  0  0  0  0  0  0  0
   -4.0982   22.6227  -27.6598 H   0  0  0  0  0  0  0  0  0  0  0  0
   -3.6414   24.5878  -26.1784 H   0  0  0  0  0  0  0  0  0  0  0  0
   -1.7739   26.1581  -26.7382 H   0  0  0  0  0  0  0  0  0  0  0  0
   -0.4072   25.7558  -28.7942 H   0  0  0  0  0  0  0  0  0  0  0  0
   -1.5234   20.2964  -30.8921 H   0  0  0  0  0  0  0  0  0  0  0  0
   -0.7123   20.7282  -29.6361 H   0  0  0  0  0  0  0  0  0  0  0  0
   -3.8580   19.9720  -29.7469 H   0  0  0  0  0  0  0  0  0  0  0  0
   -3.4525   20.3472  -28.2927 H   0  0  0  0  0  0  0  0  0  0  0  0
  1  2  1  0
  2  3  2  0
  2  4  1  0
  4  5  2  0
  5  6  1  0
  6  7  2  0
  7  8  1  0
  8  9  2  0
  9 10  1  0
 10 11  1  0
 10 12  1  0
 10 13  1  0
  9 14  1  0
 14 15  2  0
 15 16  1  0
 16 17  1  0
 17 18  2  0
 17 19  1  0
 19 20  1  0
 20 21  2  0
 21 22  1  0
 22 23  2  0
 23 24  1  0
 24 25  2  0
 19 26  1  0
 26 27  1  0
 16  4  1  0
 27 19  1  0
 15  6  1  0
 25 20  1  0
  1 28  1  0
  1 29  1  0
  5 30  1  0
  7 31  1  0
  8 32  1  0
 14 33  1  0
 21 34  1  0
 22 35  1  0
 23 36  1  0
 24 37  1  0
 26 38  1  0
 26 39  1  0
 27 40  1  0
 27 41  1  0
M  END
>  <UniqueID>  (15) 
15

>  <SMILES>  (15) 
NC(=O)c1cc2ccc(C(F)(F)F)cc2n1C(=O)C1(c2ccccn2)CC1

>  <Energy>  (15) 
351.26456144273646

>  <Genealogy>  (15) 
NC(=O)c1cc2ccc(C(F)(F)F)cc2n1C(=O)C1(c2ccccn2)CC1 (3D coordinates assigned)
NC(=O)c1cc2ccc(C(F)(F)F)cc2n1C(=O)C1(c2ccccn2)CC1 (nonaromatic ring conformer: 351.26456144273646 kcal/mol)

>  <smiles>  (15) 
NC(=O)c1cc2ccc(C(F)(F)F)cc2n1C(=O)C1(c2ccccn2)CC1

>  <score_type>  (15) 
oracle

>  <origin>  (15) 
adg

>  <m_score__min__energy>  (15) 
-9.3499999999999996

>  <m_primary>  (15) 
energy

$$$$
15:0
     RDKit          3D

 52 54  0  0  0  0  0  0  0  0999 V2000
   -8.6580   21.2090  -31.5220 C   0  0  0  0  0  0  0  0  0  0  0  0
   -8.1770   19.8730  -32.1160 C   0  0  0  0  0  0  0  0  0  0  0  0
   -7.4830   20.1440  -33.4600 C   0  0  0  0  0  0  0  0  0  0  0  0
   -9.3650   18.9200  -32.3540 C   0  0  0  0  0  0  0  0  0  0  0  0
   -7.2070   19.2580  -31.2580 O   0  0  0  0  0  0  0  0  0  0  0  0
   -6.3230   18.2230  -31.6000 C   0  0  0  0  0  0  0  0  0  0  0  0
   -6.5010   17.0520  -31.1680 O   0  0  0  0  0  0  0  0  0  0  0  0
   -5.2140   18.5000  -32.4700 N   0  0  0  0  0  0  0  0  0  0  0  0
   -4.8260   17.8050  -33.5760 C   0  0  0  0  0  0  0  0  0  0  0  0
   -5.3670   16.5020  -34.0150 C   0  0  0  0  0  0  0  0  0  0  0  0
   -6.7260   16.1420  -33.7620 N   0  0  0  0  0  0  0  0  0  0  0  0
   -4.6040   15.6710  -34.5740 O   0  0  0  0  0  0  0  0  0  0  0  0
   -3.8010   18.4720  -34.2420 C   0  0  0  0  0  0  0  0  0  0  0  0
   -3.5630   19.6060  -33.4980 C   0  0  0  0  0  0  0  0  0  0  0  0
   -2.6710   20.6510  -33.7190 C   0  0  0  0  0  0  0  0  0  0  0  0
   -2.6800   21.7290  -32.8170 C   0  0  0  0  0  0  0  0  0  0  0  0
   -3.5800   21.7480  -31.7210 C   0  0  0  0  0  0  0  0  0  0  0  0
   -3.6030   22.8940  -30.7900 C   0  0  0  0  0  0  0  0  0  0  0  0
   -3.9170   24.1560  -31.1530 N   0  0  0  0  0  0  0  0  0  0  0  0
   -3.8390   24.8490  -30.0590 O   0  0  0  0  0  0  0  0  0  0  0  0
   -3.4920   24.0670  -29.0670 C   0  0  0  0  0  0  0  0  0  0  0  0
   -3.3240   24.5270  -27.6500 C   0  0  0  0  0  0  0  0  0  0  0  0
   -1.8410   24.7230  -27.2550 C   0  0  2  0  0  0  0  0  0  0  0  0
   -1.2410   23.4100  -26.7000 C   0  0  0  0  0  0  0  0  0  0  0  0
   -1.7610   25.7320  -26.2730 O   0  0  0  0  0  0  0  0  0  0  0  0
   -1.0740   25.1410  -28.4940 C   0  0  0  0  0  0  0  0  0  0  0  0
   -0.2550   24.3530  -29.0380 O   0  0  0  0  0  0  0  0  0  0  0  0
   -1.2330   26.4190  -29.0160 O   0  0  0  0  0  0  0  0  0  0  0  0
   -3.3250   22.7940  -29.4720 N   0  0  0  0  0  0  0  0  0  0  0  0
   -4.4710   20.6700  -31.5320 C   0  0  0  0  0  0  0  0  0  0  0  0
   -4.4280   19.5990  -32.4340 C   0  0  0  0  0  0  0  0  0  0  0  0
   -8.6370   21.1507  -30.4237 H   0  0  0  0  0  0  0  0  0  0  0  0
   -7.9953   22.0198  -31.8589 H   0  0  0  0  0  0  0  0  0  0  0  0
   -9.6854   21.4113  -31.8589 H   0  0  0  0  0  0  0  0  0  0  0  0
   -6.4725   20.5386  -33.2779 H   0  0  0  0  0  0  0  0  0  0  0  0
   -7.4132   19.2071  -34.0321 H   0  0  0  0  0  0  0  0  0  0  0  0
   -8.0666   20.8803  -34.0321 H   0  0  0  0  0  0  0  0  0  0  0  0
   -9.7725   18.5931  -31.3860 H   0  0  0  0  0  0  0  0  0  0  0  0
  -10.1471   19.4440  -32.9229 H   0  0  0  0  0  0  0  0  0  0  0  0
   -9.0231   18.0428  -32.9229 H   0  0  0  0  0  0  0  0  0  0  0  0
   -7.3320   16.7220  -33.1390 H   0  0  0  0  0  0  0  0  0  0  0  0
   -7.1050   15.2390  -34.1260 H   0  0  0  0  0  0  0  0  0  0  0  0
   -3.2906   18.1598  -35.1650 H   0  0  0  0  0  0  0  0  0  0  0  0
   -1.9794   20.6339  -34.5742 H   0  0  0  0  0  0  0  0  0  0  0  0
   -1.9819   22.5665  -32.9626 H   0  0  0  0  0  0  0  0  0  0  0  0
   -3.8501   25.4852  -27.5268 H   0  0  0  0  0  0  0  0  0  0  0  0
   -3.7402   23.7460  -26.9967 H   0  0  0  0  0  0  0  0  0  0  0  0
   -1.2534   23.4372  -25.6004 H   0  0  0  0  0  0  0  0  0  0  0  0
   -1.8383   22.5562  -27.0524 H   0  0  0  0  0  0  0  0  0  0  0  0
   -0.2045   23.3028  -27.0524 H   0  0  0  0  0  0  0  0  0  0  0  0
   -1.5100   26.5790  -26.7230 H   0  0  0  0  0  0  0  0  0  0  0  0
   -5.1840   20.6707  -30.6944 H   0  0  0  0  0  0  0  0  0  0  0  0
  1  2  1  0
  2  3  1  0
  2  4  1  0
  2  5  1  0
  5  6  1  0
  6  7  2  0
  6  8  1  0
  8  9  1  0
  9 10  1  0
 10 11  1  0
 10 12  2  0
  9 13  2  0
 13 14  1  0
 14 15  2  0
 15 16  1  0
 16 17  2  0
 17 18  1  0
 18 19  2  0
 19 20  1  0
 20 21  1  0
 21 22  1  0
 22 23  1  0
 23 24  1  0
 23 25  1  1
 23 26  1  0
 26 27  2  0
 26 28  1  0
 21 29  2  0
 17 30  1  0
 30 31  2  0
 31  8  1  0
 31 14  1  0
 29 18  1  0
  1 32  1  0
  1 33  1  0
  1 34  1  0
  3 35  1  0
  3 36  1  0
  3 37  1  0
  4 38  1  0
  4 39  1  0
  4 40  1  0
 11 41  1  0
 11 42  1  0
 13 43  1  0
 15 44  1  0
 16 45  1  0
 22 46  1  0
 22 47  1  0
 24 48  1  0
 24 49  1  0
 24 50  1  0
 25 51  1  0
 30 52  1  0
M  CHG  1  28  -1
M  END
>  <UniqueID>  (16) 
16

>  <SMILES>  (16) 
CC(C)(C)OC(=O)n1c(C(N)=O)cc2ccc(-c3noc(C[C@](C)(O)C(=O)[O-])n3)cc21

>  <Energy>  (16) 
119.52118198479077

>  <Genealogy>  (16) 
CC(C)(C)OC(=O)n1c(C(N)=O)cc2ccc(-c3noc(CC(C)(O)C(=O)[O-])n3)cc21 (protonated)
CC(C)(C)OC(=O)n1c(C(N)=O)cc2ccc(-c3noc(C[C@](C)(O)C(=O)[O-])n3)cc21 (chirality)
CC(C)(C)OC(=O)n1c(C(N)=O)cc2ccc(-c3noc(C[C@](C)(O)C(=O)[O-])n3)cc21 (3D coordinates assigned)
CC(C)(C)OC(=O)n1c(C(N)=O)cc2ccc(-c3noc(C[C@](C)(O)C(=O)[O-])n3)cc21 (optimized conformer: 119.52118198479077 kcal/mol)

>  <smiles>  (16) 
CC(C)(C)OC(=O)n1c(C(N)=O)cc2ccc(-c3noc(CC(C)(O)C(=O)O)n3)cc21

>  <score_type>  (16) 
oracle

>  <origin>  (16) 
adg

>  <m_score__min__energy>  (16) 
-10.73

>  <m_primary>  (16) 
energy

$$$$
16:0
     RDKit          3D

 35 37  0  0  0  0  0  0  0  0999 V2000
   -4.2720   25.5240  -30.5550 N   0  0  0  0  0  0  0  0  0  0  0  0
   -5.5990   25.1100  -30.2240 C   0  0  0  0  0  0  0  0  0  0  0  0
   -6.3080   25.8560  -29.4990 O   0  0  0  0  0  0  0  0  0  0  0  0
   -6.1300   23.8130  -30.7030 C   0  0  0  0  0  0  0  0  0  0  0  0
   -7.4670   23.5840  -31.0270 C   0  0  0  0  0  0  0  0  0  0  0  0
   -7.5130   22.2930  -31.5000 C   0  0  0  0  0  0  0  0  0  0  0  0
   -8.5920   21.5480  -31.9670 C   0  0  0  0  0  0  0  0  0  0  0  0
   -8.3510   20.2270  -32.3790 C   0  0  0  0  0  0  0  0  0  0  0  0
   -7.0510   19.6650  -32.2950 C   0  0  0  0  0  0  0  0  0  0  0  0
   -6.7900   18.2570  -32.7640 C   0  0  0  0  0  0  0  0  0  0  0  0
   -7.9090   17.4610  -32.5930 F   0  0  0  0  0  0  0  0  0  0  0  0
   -5.7480   17.6960  -32.0490 F   0  0  0  0  0  0  0  0  0  0  0  0
   -6.4570   18.2790  -34.1050 F   0  0  0  0  0  0  0  0  0  0  0  0
   -5.9780   20.4640  -31.8360 C   0  0  0  0  0  0  0  0  0  0  0  0
   -6.2430   21.7830  -31.4530 C   0  0  0  0  0  0  0  0  0  0  0  0
   -5.3830   22.7040  -30.9680 N   0  0  0  0  0  0  0  0  0  0  0  0
   -3.9700   22.5400  -30.7710 C   0  0  0  0  0  0  0  0  0  0  0  0
   -3.1540   23.0480  -31.5860 O   0  0  0  0  0  0  0  0  0  0  0  0
   -3.3510   21.5640  -29.4020 S   0  0  0  0  0  0  0  0  0  0  0  0
   -2.9450   23.0240  -28.4470 C   0  0  0  0  0  0  0  0  0  0  0  0
   -3.8250   23.4900  -27.4670 C   0  0  0  0  0  0  0  0  0  0  0  0
   -3.4960   24.6390  -26.7430 C   0  0  0  0  0  0  0  0  0  0  0  0
   -2.3300   25.2930  -26.9960 N   0  0  0  0  0  0  0  0  0  0  0  0
   -1.4580   24.8560  -27.9440 C   0  0  0  0  0  0  0  0  0  0  0  0
   -1.7490   23.7080  -28.6860 C   0  0  0  0  0  0  0  0  0  0  0  0
   -3.6750   24.9710  -31.2060 H   0  0  0  0  0  0  0  0  0  0  0  0
   -3.8970   26.4240  -30.1800 H   0  0  0  0  0  0  0  0  0  0  0  0
   -8.3070   24.2869  -30.9258 H   0  0  0  0  0  0  0  0  0  0  0  0
   -9.6024   21.9805  -32.0120 H   0  0  0  0  0  0  0  0  0  0  0  0
   -9.1805   19.6206  -32.7717 H   0  0  0  0  0  0  0  0  0  0  0  0
   -4.9575   20.0571  -31.7814 H   0  0  0  0  0  0  0  0  0  0  0  0
   -4.7669   22.9580  -27.2675 H   0  0  0  0  0  0  0  0  0  0  0  0
   -4.1801   25.0150  -25.9680 H   0  0  0  0  0  0  0  0  0  0  0  0
   -0.5233   25.4064  -28.1267 H   0  0  0  0  0  0  0  0  0  0  0  0
   -1.0448   23.3464  -29.4498 H   0  0  0  0  0  0  0  0  0  0  0  0
  1  2  1  0
  2  3  2  0
  2  4  1  0
  4  5  2  0
  5  6  1  0
  6  7  2  0
  7  8  1  0
  8  9  2  0
  9 10  1  0
 10 11  1  0
 10 12  1  0
 10 13  1  0
  9 14  1  0
 14 15  2  0
 15 16  1  0
 16 17  1  0
 17 18  2  0
 17 19  1  0
 19 20  1  0
 20 21  2  0
 21 22  1  0
 22 23  2  0
 23 24  1  0
 24 25  2  0
 16  4  1  0
 25 20  1  0
 15  6  1  0
  1 26  1  0
  1 27  1  0
  5 28  1  0
  7 29  1  0
  8 30  1  0
 14 31  1  0
 21 32  1  0
 22 33  1  0
 24 34  1  0
 25 35  1  0
M  END
>  <UniqueID>  (17) 
17

>  <SMILES>  (17) 
NC(=O)c1cc2ccc(C(F)(F)F)cc2n1C(=O)Sc1ccncc1

>  <Energy>  (17) 
73.1994771894144

>  <Genealogy>  (17) 
NC(=O)c1cc2ccc(C(F)(F)F)cc2n1C(=O)Sc1ccncc1 (3D coordinates assigned)
NC(=O)c1cc2ccc(C(F)(F)F)cc2n1C(=O)Sc1ccncc1 (optimized conformer: 73.1994771894144 kcal/mol)

>  <smiles>  (17) 
NC(=O)c1cc2ccc(C(F)(F)F)cc2n1C(=O)Sc1ccncc1

>  <score_type>  (17) 
oracle

>  <origin>  (17) 
adg

>  <m_score__min__energy>  (17) 
-8.7599999999999998

>  <m_primary>  (17) 
energy

$$$$
17:0
     RDKit          3D

 32 33  0  0  0  0  0  0  0  0999 V2000
   -9.3680   20.5740  -32.2770 C   0  0  0  0  0  0  0  0  0  0  0  0
   -9.4220   21.9320  -31.5830 C   0  0  0  0  0  0  0  0  0  0  0  0
   -8.2080   22.6530  -31.7790 O   0  0  0  0  0  0  0  0  0  0  0  0
   -7.1870   22.7290  -30.8270 C   0  0  0  0  0  0  0  0  0  0  0  0
   -7.4480   23.0530  -29.6360 O   0  0  0  0  0  0  0  0  0  0  0  0
   -5.8330   22.4380  -31.2100 N   0  0  0  0  0  0  0  0  0  0  0  0
   -4.7380   23.2350  -31.0650 C   0  0  0  0  0  0  0  0  0  0  0  0
   -4.6960   24.5280  -30.3530 C   0  0  0  0  0  0  0  0  0  0  0  0
   -5.3550   24.7060  -29.1000 N   0  0  0  0  0  0  0  0  0  0  0  0
   -4.0320   25.4800  -30.8380 O   0  0  0  0  0  0  0  0  0  0  0  0
   -3.6200   22.6500  -31.6560 C   0  0  0  0  0  0  0  0  0  0  0  0
   -4.0650   21.4510  -32.1620 C   0  0  0  0  0  0  0  0  0  0  0  0
   -3.3770   20.4740  -32.8750 C   0  0  0  0  0  0  0  0  0  0  0  0
   -4.0990   19.3570  -33.3240 C   0  0  0  0  0  0  0  0  0  0  0  0
   -5.4870   19.2370  -33.0650 C   0  0  0  0  0  0  0  0  0  0  0  0
   -6.2380   18.0510  -33.6140 C   0  0  0  0  0  0  0  0  0  0  0  0
   -6.1170   18.0340  -34.9900 F   0  0  0  0  0  0  0  0  0  0  0  0
   -7.5820   18.1020  -33.2840 F   0  0  0  0  0  0  0  0  0  0  0  0
   -5.7050   16.8830  -33.1000 F   0  0  0  0  0  0  0  0  0  0  0  0
   -6.1540   20.2600  -32.3480 C   0  0  0  0  0  0  0  0  0  0  0  0
   -5.4040   21.3480  -31.8860 C   0  0  0  0  0  0  0  0  0  0  0  0
   -9.3363   19.7764  -31.5201 H   0  0  0  0  0  0  0  0  0  0  0  0
  -10.2618   20.4477  -32.9056 H   0  0  0  0  0  0  0  0  0  0  0  0
   -8.4670   20.5190  -32.9056 H   0  0  0  0  0  0  0  0  0  0  0  0
  -10.2578   22.5150  -31.9972 H   0  0  0  0  0  0  0  0  0  0  0  0
   -9.5636   21.7696  -30.5043 H   0  0  0  0  0  0  0  0  0  0  0  0
   -5.7670   23.8940  -28.5890 H   0  0  0  0  0  0  0  0  0  0  0  0
   -5.3710   25.6460  -28.6440 H   0  0  0  0  0  0  0  0  0  0  0  0
   -2.6003   23.0593  -31.7070 H   0  0  0  0  0  0  0  0  0  0  0  0
   -2.3010   20.5738  -33.0804 H   0  0  0  0  0  0  0  0  0  0  0  0
   -3.5807   18.5647  -33.8841 H   0  0  0  0  0  0  0  0  0  0  0  0
   -7.2360   20.2011  -32.1586 H   0  0  0  0  0  0  0  0  0  0  0  0
  1  2  1  0
  2  3  1  0
  3  4  1  0
  4  5  2  0
  4  6  1  0
  6  7  1  0
  7  8  1  0
  8  9  1  0
  8 10  2  0
  7 11  2  0
 11 12  1  0
 12 13  2  0
 13 14  1  0
 14 15  2  0
 15 16  1  0
 16 17  1  0
 16 18  1  0
 16 19  1  0
 15 20  1  0
 20 21  2  0
 21  6  1  0
 21 12  1  0
  1 22  1  0
  1 23  1  0
  1 24  1  0
  2 25  1  0
  2 26  1  0
  9 27  1  0
  9 28  1  0
 11 29  1  0
 13 30  1  0
 14 31  1  0
 20 32  1  0
M  END
>  <UniqueID>  (18) 
18

>  <SMILES>  (18) 
CCOC(=O)n1c(C(N)=O)cc2ccc(C(F)(F)F)cc21

>  <Energy>  (18) 
68.50441726001297

>  <Genealogy>  (18) 
CCOC(=O)n1c(C(N)=O)cc2ccc(C(F)(F)F)cc21 (3D coordinates assigned)
CCOC(=O)n1c(C(N)=O)cc2ccc(C(F)(F)F)cc21 (optimized conformer: 68.50441726001297 kcal/mol)

>  <smiles>  (18) 
CCOC(=O)n1c(C(N)=O)cc2ccc(C(F)(F)F)cc21

>  <score_type>  (18) 
oracle

>  <origin>  (18) 
adg

>  <m_score__min__energy>  (18) 
-7.6299999999999999

>  <m_primary>  (18) 
energy

$$$$
18:0
     RDKit          3D

 35 36  0  0  0  0  0  0  0  0999 V2000
   -3.2650   23.2620  -31.1230 N   0  0  0  0  0  0  0  0  0  0  0  0
   -4.1920   22.3270  -31.6700 C   0  0  0  0  0  0  0  0  0  0  0  0
   -3.7620   21.3320  -32.3120 O   0  0  0  0  0  0  0  0  0  0  0  0
   -5.6050   22.5110  -31.4770 N   0  0  0  0  0  0  0  0  0  0  0  0
   -6.2310   23.5630  -30.8770 C   0  0  0  0  0  0  0  0  0  0  0  0
   -5.5910   24.8240  -30.4560 C   0  0  0  0  0  0  0  0  0  0  0  0
   -5.8540   25.3970  -29.1740 N   0  0  0  0  0  0  0  0  0  0  0  0
   -4.7510   25.3760  -31.2170 O   0  0  0  0  0  0  0  0  0  0  0  0
   -7.5960   23.3200  -30.7570 C   0  0  0  0  0  0  0  0  0  0  0  0
   -7.7960   22.0810  -31.3190 C   0  0  0  0  0  0  0  0  0  0  0  0
   -8.9650   21.3370  -31.4510 C   0  0  0  0  0  0  0  0  0  0  0  0
   -8.8750   20.0640  -32.0370 C   0  0  0  0  0  0  0  0  0  0  0  0
   -7.6250   19.5620  -32.4780 C   0  0  0  0  0  0  0  0  0  0  0  0
   -7.5320   18.1760  -33.0590 C   0  0  0  0  0  0  0  0  0  0  0  0
   -6.2880   17.4530  -32.5260 C   0  0  0  0  0  0  0  0  0  0  0  0
   -5.3220   17.0220  -33.6410 C   0  0  0  0  0  0  0  0  0  0  0  0
   -4.8860   18.1780  -34.5470 C   0  0  0  0  0  0  0  0  0  0  0  0
   -5.7670   18.3320  -35.6020 F   0  0  0  0  0  0  0  0  0  0  0  0
   -6.4570   20.3390  -32.3150 C   0  0  0  0  0  0  0  0  0  0  0  0
   -6.5800   21.6120  -31.7460 C   0  0  0  0  0  0  0  0  0  0  0  0
   -3.1200   24.1970  -31.5660 H   0  0  0  0  0  0  0  0  0  0  0  0
   -5.4210   26.3070  -28.9070 H   0  0  0  0  0  0  0  0  0  0  0  0
   -6.4140   24.8810  -28.4600 H   0  0  0  0  0  0  0  0  0  0  0  0
   -8.3538   23.9789  -30.3081 H   0  0  0  0  0  0  0  0  0  0  0  0
   -9.9310   21.7346  -31.1064 H   0  0  0  0  0  0  0  0  0  0  0  0
   -9.7813   19.4519  -32.1546 H   0  0  0  0  0  0  0  0  0  0  0  0
   -8.4300   17.6053  -32.7798 H   0  0  0  0  0  0  0  0  0  0  0  0
   -7.4573   18.2531  -34.1537 H   0  0  0  0  0  0  0  0  0  0  0  0
   -5.7549   18.1299  -31.8422 H   0  0  0  0  0  0  0  0  0  0  0  0
   -6.6303   16.5408  -32.0154 H   0  0  0  0  0  0  0  0  0  0  0  0
   -4.4255   16.5855  -33.1765 H   0  0  0  0  0  0  0  0  0  0  0  0
   -5.8568   16.2975  -34.2727 H   0  0  0  0  0  0  0  0  0  0  0  0
   -4.8606   19.1075  -33.9593 H   0  0  0  0  0  0  0  0  0  0  0  0
   -3.8875   17.9537  -34.9503 H   0  0  0  0  0  0  0  0  0  0  0  0
   -5.4752   19.9535  -32.6273 H   0  0  0  0  0  0  0  0  0  0  0  0
  1  2  1  0
  2  3  2  0
  2  4  1  0
  4  5  1  0
  5  6  1  0
  6  7  1  0
  6  8  2  0
  5  9  2  0
  9 10  1  0
 10 11  2  0
 11 12  1  0
 12 13  2  0
 13 14  1  0
 14 15  1  0
 15 16  1  0
 16 17  1  0
 17 18  1  0
 13 19  1  0
 19 20  2  0
 20  4  1  0
 20 10  1  0
  1 21  1  0
  7 22  1  0
  7 23  1  0
  9 24  1  0
 11 25  1  0
 12 26  1  0
 14 27  1  0
 14 28  1  0
 15 29  1  0
 15 30  1  0
 16 31  1  0
 16 32  1  0
 17 33  1  0
 17 34  1  0
 19 35  1  0
M  CHG  1   1  -1
M  END
>  <UniqueID>  (19) 
19

>  <SMILES>  (19) 
[NH-]C(=O)n1c(C(N)=O)cc2ccc(CCCCF)cc21

>  <Energy>  (19) 
68.88659710858748

>  <Genealogy>  (19) 
[NH-]C(=O)n1c(C(N)=O)cc2ccc(CCCCF)cc21 (protonated)
[NH-]C(=O)n1c(C(N)=O)cc2ccc(CCCCF)cc21 (3D coordinates assigned)
[NH-]C(=O)n1c(C(N)=O)cc2ccc(CCCCF)cc21 (optimized conformer: 68.88659710858748 kcal/mol)

>  <smiles>  (19) 
NC(=O)c1cc2ccc(CCCCF)cc2n1C(N)=O

>  <score_type>  (19) 
oracle

>  <origin>  (19) 
adg

>  <m_score__min__energy>  (19) 
-8.4900000000000002

>  <m_primary>  (19) 
energy

$$$$
19:0
     RDKit          3D

 42 44  0  0  0  0  0  0  0  0999 V2000
   -3.9230   24.1580  -28.0200 C   0  0  0  0  0  0  0  0  0  0  0  0
   -2.8770   23.9510  -29.1100 C   0  0  0  0  0  0  0  0  0  0  0  0
   -3.4400   24.1940  -30.3980 O   0  0  0  0  0  0  0  0  0  0  0  0
   -3.9660   23.1840  -31.2130 C   0  0  0  0  0  0  0  0  0  0  0  0
   -3.1950   22.4020  -31.8340 O   0  0  0  0  0  0  0  0  0  0  0  0
   -5.3900   23.0340  -31.3330 N   0  0  0  0  0  0  0  0  0  0  0  0
   -6.3530   23.8910  -30.8910 C   0  0  0  0  0  0  0  0  0  0  0  0
   -6.1110   25.2440  -30.3430 C   0  0  0  0  0  0  0  0  0  0  0  0
   -5.0110   26.0310  -30.8020 N   0  0  0  0  0  0  0  0  0  0  0  0
   -6.8580   25.7040  -29.4400 O   0  0  0  0  0  0  0  0  0  0  0  0
   -7.6210   23.3570  -31.1130 C   0  0  0  0  0  0  0  0  0  0  0  0
   -7.4030   22.1360  -31.7090 C   0  0  0  0  0  0  0  0  0  0  0  0
   -8.3130   21.1740  -32.1370 C   0  0  0  0  0  0  0  0  0  0  0  0
   -7.8060   19.9880  -32.6930 C   0  0  0  0  0  0  0  0  0  0  0  0
   -6.4070   19.7790  -32.7960 C   0  0  0  0  0  0  0  0  0  0  0  0
   -5.8890   18.5210  -33.3780 C   0  0  0  0  0  0  0  0  0  0  0  0
   -5.5050   18.5140  -34.7300 C   0  0  0  0  0  0  0  0  0  0  0  0
   -4.9830   17.3590  -35.3130 C   0  0  0  0  0  0  0  0  0  0  0  0
   -4.8390   16.1960  -34.5560 C   0  0  0  0  0  0  0  0  0  0  0  0
   -4.3230   15.0780  -35.1240 F   0  0  0  0  0  0  0  0  0  0  0  0
   -5.2280   16.1820  -33.2160 C   0  0  0  0  0  0  0  0  0  0  0  0
   -5.7730   17.3300  -32.6160 C   0  0  0  0  0  0  0  0  0  0  0  0
   -6.2030   17.2630  -31.1730 C   0  0  0  0  0  0  0  0  0  0  0  0
   -5.5150   20.7860  -32.3640 C   0  0  0  0  0  0  0  0  0  0  0  0
   -6.0480   21.9640  -31.8290 C   0  0  0  0  0  0  0  0  0  0  0  0
   -3.4473   24.0639  -27.0327 H   0  0  0  0  0  0  0  0  0  0  0  0
   -4.3638   25.1608  -28.1205 H   0  0  0  0  0  0  0  0  0  0  0  0
   -4.7125   23.3987  -28.1205 H   0  0  0  0  0  0  0  0  0  0  0  0
   -2.0399   24.6452  -28.9444 H   0  0  0  0  0  0  0  0  0  0  0  0
   -2.5221   22.9106  -29.0683 H   0  0  0  0  0  0  0  0  0  0  0  0
   -4.4020   25.7090  -31.5870 H   0  0  0  0  0  0  0  0  0  0  0  0
   -4.8250   26.9680  -30.3800 H   0  0  0  0  0  0  0  0  0  0  0  0
   -8.5901   23.8143  -30.8646 H   0  0  0  0  0  0  0  0  0  0  0  0
   -9.3967   21.3375  -32.0427 H   0  0  0  0  0  0  0  0  0  0  0  0
   -8.5004   19.2141  -33.0519 H   0  0  0  0  0  0  0  0  0  0  0  0
   -5.6170   19.4268  -35.3335 H   0  0  0  0  0  0  0  0  0  0  0  0
   -4.6844   17.3653  -36.3717 H   0  0  0  0  0  0  0  0  0  0  0  0
   -5.1069   15.2632  -32.6234 H   0  0  0  0  0  0  0  0  0  0  0  0
   -5.3265   17.3996  -30.5225 H   0  0  0  0  0  0  0  0  0  0  0  0
   -6.9364   18.0577  -30.9717 H   0  0  0  0  0  0  0  0  0  0  0  0
   -6.6599   16.2828  -30.9717 H   0  0  0  0  0  0  0  0  0  0  0  0
   -4.4269   20.6472  -32.4463 H   0  0  0  0  0  0  0  0  0  0  0  0
  1  2  1  0
  2  3  1  0
  3  4  1  0
  4  5  2  0
  4  6  1  0
  6  7  1  0
  7  8  1  0
  8  9  1  0
  8 10  2  0
  7 11  2  0
 11 12  1  0
 12 13  2  0
 13 14  1  0
 14 15  2  0
 15 16  1  0
 16 17  2  0
 17 18  1  0
 18 19  2  0
 19 20  1  0
 19 21  1  0
 21 22  2  0
 22 23  1  0
 15 24  1  0
 24 25  2  0
 25  6  1  0
 25 12  1  0
 22 16  1  0
  1 26  1  0
  1 27  1  0
  1 28  1  0
  2 29  1  0
  2 30  1  0
  9 31  1  0
  9 32  1  0
 11 33  1  0
 13 34  1  0
 14 35  1  0
 17 36  1  0
 18 37  1  0
 21 38  1  0
 23 39  1  0
 23 40  1  0
 23 41  1  0
 24 42  1  0
M  END
>  <UniqueID>  (20) 
20

>  <SMILES>  (20) 
CCOC(=O)n1c(C(N)=O)cc2ccc(-c3ccc(F)cc3C)cc21

>  <Energy>  (20) 
85.99337269730273

>  <Genealogy>  (20) 
CCOC(=O)n1c(C(N)=O)cc2ccc(-c3ccc(F)cc3C)cc21 (3D coordinates assigned)
CCOC(=O)n1c(C(N)=O)cc2ccc(-c3ccc(F)cc3C)cc21 (optimized conformer: 85.99337269730273 kcal/mol)

>  <smiles>  (20) 
CCOC(=O)n1c(C(N)=O)cc2ccc(-c3ccc(F)cc3C)cc21

>  <score_type>  (20) 
oracle

>  <origin>  (20) 
adg

>  <m_score__min__energy>  (20) 
-9.4000000000000004

>  <m_primary>  (20) 
energy

$$$$
20:0
     RDKit          3D

 31 32  0  0  0  0  0  0  0  0999 V2000
   -8.0150   18.9740  -32.2230 C   0  0  0  0  0  0  0  0  0  0  0  0
   -7.8400   20.0580  -33.1070 O   0  0  0  0  0  0  0  0  0  0  0  0
   -6.7050   20.8030  -32.7150 C   0  0  0  0  0  0  0  0  0  0  0  0
   -5.4390   20.1190  -33.2300 C   0  0  0  0  0  0  0  0  0  0  0  0
   -4.2130   20.6390  -32.5250 C   0  0  0  0  0  0  0  0  0  0  0  0
   -3.0280   19.8630  -32.4980 C   0  0  0  0  0  0  0  0  0  0  0  0
   -1.8910   20.3160  -31.8070 C   0  0  0  0  0  0  0  0  0  0  0  0
   -1.9710   21.5430  -31.1540 C   0  0  0  0  0  0  0  0  0  0  0  0
   -1.0340   22.2000  -30.3900 C   0  0  0  0  0  0  0  0  0  0  0  0
   -1.6570   23.3730  -29.9700 C   0  0  0  0  0  0  0  0  0  0  0  0
   -0.9690   24.4230  -29.1900 C   0  0  0  0  0  0  0  0  0  0  0  0
   -1.6020   25.6830  -28.9810 N   0  0  0  0  0  0  0  0  0  0  0  0
    0.1580   24.2060  -28.6710 O   0  0  0  0  0  0  0  0  0  0  0  0
   -2.9310   23.4370  -30.4500 N   0  0  0  0  0  0  0  0  0  0  0  0
   -3.9220   24.4440  -30.1830 C   0  0  0  0  0  0  0  0  0  0  0  0
   -4.8320   24.2330  -29.3380 O   0  0  0  0  0  0  0  0  0  0  0  0
   -3.8690   25.6700  -30.8340 O   0  0  0  0  0  0  0  0  0  0  0  0
   -3.1070   22.3090  -31.1750 C   0  0  0  0  0  0  0  0  0  0  0  0
   -4.2600   21.8750  -31.8420 C   0  0  0  0  0  0  0  0  0  0  0  0
   -7.9569   19.3341  -31.1852 H   0  0  0  0  0  0  0  0  0  0  0  0
   -8.9990   18.5142  -32.3970 H   0  0  0  0  0  0  0  0  0  0  0  0
   -7.2257   18.2279  -32.3970 H   0  0  0  0  0  0  0  0  0  0  0  0
   -6.7699   21.8173  -33.1356 H   0  0  0  0  0  0  0  0  0  0  0  0
   -6.6677   20.8610  -31.6172 H   0  0  0  0  0  0  0  0  0  0  0  0
   -5.5204   19.0359  -33.0562 H   0  0  0  0  0  0  0  0  0  0  0  0
   -5.3400   20.3333  -34.3044 H   0  0  0  0  0  0  0  0  0  0  0  0
   -2.9975   18.8968  -33.0228 H   0  0  0  0  0  0  0  0  0  0  0  0
   -0.9669   19.7198  -31.7829 H   0  0  0  0  0  0  0  0  0  0  0  0
   -0.0105   21.8692  -30.1598 H   0  0  0  0  0  0  0  0  0  0  0  0
   -2.6390   25.7820  -29.0560 H   0  0  0  0  0  0  0  0  0  0  0  0
   -5.1781   22.4808  -31.8342 H   0  0  0  0  0  0  0  0  0  0  0  0
  1  2  1  0
  2  3  1  0
  3  4  1  0
  4  5  1  0
  5  6  2  0
  6  7  1  0
  7  8  2  0
  8  9  1  0
  9 10  2  0
 10 11  1  0
 11 12  1  0
 11 13  2  0
 10 14  1  0
 14 15  1  0
 15 16  2  0
 15 17  1  0
 14 18  1  0
 18 19  2  0
 19  5  1  0
 18  8  1  0
  1 20  1  0
  1 21  1  0
  1 22  1  0
  3 23  1  0
  3 24  1  0
  4 25  1  0
  4 26  1  0
  6 27  1  0
  7 28  1  0
  9 29  1  0
 12 30  1  0
 19 31  1  0
M  CHG  2  12  -1  17  -1
M  END
>  <UniqueID>  (21) 
21

>  <SMILES>  (21) 
COCCc1ccc2cc(C([NH-])=O)n(C(=O)[O-])c2c1

>  <Energy>  (21) 
68.43636804587416

>  <Genealogy>  (21) 
COCCc1ccc2cc(C([NH-])=O)n(C(=O)[O-])c2c1 (protonated)
COCCc1ccc2cc(C([NH-])=O)n(C(=O)[O-])c2c1 (3D coordinates assigned)
COCCc1ccc2cc(C([NH-])=O)n(C(=O)[O-])c2c1 (optimized conformer: 68.43636804587416 kcal/mol)

>  <smiles>  (21) 
COCCc1ccc2cc(C(N)=O)n(C(=O)O)c2c1

>  <score_type>  (21) 
oracle

>  <origin>  (21) 
adg

>  <m_score__min__energy>  (21) 
-10.16

>  <m_primary>  (21) 
energy

$$$$
21:0
     RDKit          3D

 25 26  0  0  0  0  0  0  0  0999 V2000
   -4.0280   19.3220  -33.5460 C   0  0  0  0  0  0  0  0  0  0  0  0
   -4.9570   20.3720  -33.0150 C   0  0  0  0  0  0  0  0  0  0  0  0
   -6.3560   20.2320  -33.1850 C   0  0  0  0  0  0  0  0  0  0  0  0
   -7.2400   21.1820  -32.6470 C   0  0  0  0  0  0  0  0  0  0  0  0
   -6.6980   22.2540  -31.9460 C   0  0  0  0  0  0  0  0  0  0  0  0
   -7.3260   23.2880  -31.2920 C   0  0  0  0  0  0  0  0  0  0  0  0
   -6.3000   24.0530  -30.7450 C   0  0  0  0  0  0  0  0  0  0  0  0
   -6.5320   25.3070  -30.0000 C   0  0  0  0  0  0  0  0  0  0  0  0
   -5.6810   26.4410  -30.1770 N   0  0  0  0  0  0  0  0  0  0  0  0
   -7.5310   25.3990  -29.2380 O   0  0  0  0  0  0  0  0  0  0  0  0
   -5.0830   23.5100  -31.0350 N   0  0  0  0  0  0  0  0  0  0  0  0
   -3.7970   23.9380  -30.5550 C   0  0  0  0  0  0  0  0  0  0  0  0
   -2.9360   23.0910  -30.2010 O   0  0  0  0  0  0  0  0  0  0  0  0
   -3.4890   25.2910  -30.4790 O   0  0  0  0  0  0  0  0  0  0  0  0
   -5.3440   22.4070  -31.7750 C   0  0  0  0  0  0  0  0  0  0  0  0
   -4.4430   21.4630  -32.2810 C   0  0  0  0  0  0  0  0  0  0  0  0
   -3.5574   18.7901  -32.7060 H   0  0  0  0  0  0  0  0  0  0  0  0
   -4.5951   18.6076  -34.1608 H   0  0  0  0  0  0  0  0  0  0  0  0
   -3.2498   19.7979  -34.1608 H   0  0  0  0  0  0  0  0  0  0  0  0
   -6.7539   19.3718  -33.7433 H   0  0  0  0  0  0  0  0  0  0  0  0
   -8.3277   21.0811  -32.7762 H   0  0  0  0  0  0  0  0  0  0  0  0
   -8.4080   23.4713  -31.2172 H   0  0  0  0  0  0  0  0  0  0  0  0
   -4.9510   26.4560  -30.9230 H   0  0  0  0  0  0  0  0  0  0  0  0
   -5.8370   27.3060  -29.6130 H   0  0  0  0  0  0  0  0  0  0  0  0
   -3.3613   21.5685  -32.1110 H   0  0  0  0  0  0  0  0  0  0  0  0
  1  2  1  0
  2  3  2  0
  3  4  1  0
  4  5  2  0
  5  6  1  0
  6  7  2  0
  7  8  1  0
  8  9  1  0
  8 10  2  0
  7 11  1  0
 11 12  1  0
 12 13  2  0
 12 14  1  0
 11 15  1  0
 15 16  2  0
 16  2  1  0
 15  5  1  0
  1 17  1  0
  1 18  1  0
  1 19  1  0
  3 20  1  0
  4 21  1  0
  6 22  1  0
  9 23  1  0
  9 24  1  0
 16 25  1  0
M  CHG  1  14  -1
M  END
>  <UniqueID>  (22) 
22

>  <SMILES>  (22) 
Cc1ccc2cc(C(N)=O)n(C(=O)[O-])c2c1

>  <Energy>  (22) 
64.91436513670395

>  <Genealogy>  (22) 
Cc1ccc2cc(C(N)=O)n(C(=O)[O-])c2c1 (protonated)
Cc1ccc2cc(C(N)=O)n(C(=O)[O-])c2c1 (3D coordinates assigned)
Cc1ccc2cc(C(N)=O)n(C(=O)[O-])c2c1 (optimized conformer: 64.91436513670395 kcal/mol)

>  <smiles>  (22) 
Cc1ccc2cc(C(N)=O)n(C(=O)O)c2c1

>  <score_type>  (22) 
oracle

>  <origin>  (22) 
adg

>  <m_score__min__energy>  (22) 
-8.1500000000000004

>  <m_primary>  (22) 
energy

$$$$
22:0
     RDKit          3D

 31 33  0  0  0  0  0  0  0  0999 V2000
   -3.2220   23.5640  -30.9380 N   0  0  0  0  0  0  0  0  0  0  0  0
   -4.0270   22.6750  -31.7100 C   0  0  0  0  0  0  0  0  0  0  0  0
   -3.4720   21.8550  -32.4880 O   0  0  0  0  0  0  0  0  0  0  0  0
   -5.4600   22.7040  -31.5930 N   0  0  0  0  0  0  0  0  0  0  0  0
   -6.2200   23.6620  -30.9910 C   0  0  0  0  0  0  0  0  0  0  0  0
   -5.7300   24.9530  -30.4690 C   0  0  0  0  0  0  0  0  0  0  0  0
   -6.0220   25.3730  -29.1350 N   0  0  0  0  0  0  0  0  0  0  0  0
   -4.9950   25.6750  -31.1950 O   0  0  0  0  0  0  0  0  0  0  0  0
   -7.5580   23.2830  -30.9630 C   0  0  0  0  0  0  0  0  0  0  0  0
   -7.6010   22.0550  -31.5820 C   0  0  0  0  0  0  0  0  0  0  0  0
   -8.6810   21.2100  -31.8120 C   0  0  0  0  0  0  0  0  0  0  0  0
   -8.4310   19.9770  -32.4360 C   0  0  0  0  0  0  0  0  0  0  0  0
   -7.1100   19.6030  -32.8080 C   0  0  0  0  0  0  0  0  0  0  0  0
   -6.8080   18.2700  -33.4670 C   0  0  0  0  0  0  0  0  0  0  0  0
   -5.7790   18.3200  -34.5760 C   0  0  0  0  0  0  0  0  0  0  0  0
   -4.8580   17.5410  -33.8480 O   0  0  0  0  0  0  0  0  0  0  0  0
   -5.7580   17.4310  -32.7710 C   0  0  0  0  0  0  0  0  0  0  0  0
   -6.0420   20.4920  -32.5510 C   0  0  0  0  0  0  0  0  0  0  0  0
   -6.3220   21.7250  -31.9500 C   0  0  0  0  0  0  0  0  0  0  0  0
   -3.1410   24.5720  -31.1930 H   0  0  0  0  0  0  0  0  0  0  0  0
   -5.7020   26.3080  -28.7980 H   0  0  0  0  0  0  0  0  0  0  0  0
   -6.4750   24.7250  -28.4540 H   0  0  0  0  0  0  0  0  0  0  0  0
   -8.4019   23.8452  -30.5368 H   0  0  0  0  0  0  0  0  0  0  0  0
   -9.6999   21.4984  -31.5143 H   0  0  0  0  0  0  0  0  0  0  0  0
   -9.2672   19.2919  -32.6396 H   0  0  0  0  0  0  0  0  0  0  0  0
   -7.8514   17.9527  -33.6105 H   0  0  0  0  0  0  0  0  0  0  0  0
   -6.1159   17.8431  -35.5083 H   0  0  0  0  0  0  0  0  0  0  0  0
   -5.4597   19.2993  -34.9620 H   0  0  0  0  0  0  0  0  0  0  0  0
   -6.0819   16.3983  -32.5745 H   0  0  0  0  0  0  0  0  0  0  0  0
   -5.4227   17.7254  -31.7656 H   0  0  0  0  0  0  0  0  0  0  0  0
   -5.0101   20.2203  -32.8181 H   0  0  0  0  0  0  0  0  0  0  0  0
  1  2  1  0
  2  3  2  0
  2  4  1  0
  4  5  1  0
  5  6  1  0
  6  7  1  0
  6  8  2  0
  5  9  2  0
  9 10  1  0
 10 11  2  0
 11 12  1  0
 12 13  2  0
 13 14  1  0
 14 15  1  0
 15 16  1  0
 16 17  1  0
 13 18  1  0
 18 19  2  0
 19  4  1  0
 19 10  1  0
 17 14  1  0
  1 20  1  0
  7 21  1  0
  7 22  1  0
  9 23  1  0
 11 24  1  0
 12 25  1  0
 14 26  1  0
 15 27  1  0
 15 28  1  0
 17 29  1  0
 17 30  1  0
 18 31  1  0
M  CHG  1   1  -1
M  END
>  <UniqueID>  (23) 
23

>  <SMILES>  (23) 
[NH-]C(=O)n1c(C(N)=O)cc2ccc(C3COC3)cc21

>  <Energy>  (23) 
137.65614209270927

>  <Genealogy>  (23) 
[NH-]C(=O)n1c(C(N)=O)cc2ccc(C3COC3)cc21 (protonated)
[NH-]C(=O)n1c(C(N)=O)cc2ccc(C3COC3)cc21 (3D coordinates assigned)
[NH-]C(=O)n1c(C(N)=O)cc2ccc(C3COC3)cc21 (nonaromatic ring conformer: 137.65614209270927 kcal/mol)

>  <smiles>  (23) 
NC(=O)c1cc2ccc(C3COC3)cc2n1C(N)=O

>  <score_type>  (23) 
oracle

>  <origin>  (23) 
adg

>  <m_score__min__energy>  (23) 
-9.0399999999999991

>  <m_primary>  (23) 
energy

$$$$
24:0
     RDKit          3D

 41 43  0  0  0  0  0  0  0  0999 V2000
   -9.4890   19.3460  -33.0100 C   0  0  0  0  0  0  0  0  0  0  0  0
   -8.3430   19.2020  -31.9930 C   0  0  1  0  0  0  0  0  0  0  0  0
   -8.8930   18.6280  -30.8300 O   0  0  0  0  0  0  0  0  0  0  0  0
   -7.2550   18.2500  -32.5820 C   0  0  0  0  0  0  0  0  0  0  0  0
   -5.8420   18.6500  -32.1430 C   0  0  0  0  0  0  0  0  0  0  0  0
   -5.4840   20.0490  -32.6910 C   0  0  2  0  0  0  0  0  0  0  0  0
   -4.2260   20.5800  -32.0280 C   0  0  0  0  0  0  0  0  0  0  0  0
   -3.0260   19.8200  -32.0250 C   0  0  0  0  0  0  0  0  0  0  0  0
   -1.8640   20.3090  -31.4060 C   0  0  0  0  0  0  0  0  0  0  0  0
   -1.9230   21.5620  -30.8070 C   0  0  0  0  0  0  0  0  0  0  0  0
   -0.9560   22.2590  -30.1190 C   0  0  0  0  0  0  0  0  0  0  0  0
   -1.5650   23.4510  -29.7320 C   0  0  0  0  0  0  0  0  0  0  0  0
   -0.8470   24.5410  -29.0390 C   0  0  0  0  0  0  0  0  0  0  0  0
   -1.4220   25.8400  -28.9240 N   0  0  0  0  0  0  0  0  0  0  0  0
    0.3090   24.3350  -28.5850 O   0  0  0  0  0  0  0  0  0  0  0  0
   -2.8600   23.4870  -30.1560 N   0  0  0  0  0  0  0  0  0  0  0  0
   -3.8470   24.4930  -29.8790 C   0  0  0  0  0  0  0  0  0  0  0  0
   -4.6740   24.3330  -28.9430 O   0  0  0  0  0  0  0  0  0  0  0  0
   -3.8820   25.6650  -30.6240 O   0  0  0  0  0  0  0  0  0  0  0  0
   -3.0630   22.3230  -30.8150 C   0  0  0  0  0  0  0  0  0  0  0  0
   -4.2410   21.8530  -31.4080 C   0  0  0  0  0  0  0  0  0  0  0  0
   -6.6640   21.0590  -32.6070 C   0  0  0  0  0  0  0  0  0  0  0  0
   -7.7730   20.6110  -31.6420 C   0  0  0  0  0  0  0  0  0  0  0  0
  -10.4420   19.4658  -32.4739 H   0  0  0  0  0  0  0  0  0  0  0  0
   -9.3101   20.2287  -33.6415 H   0  0  0  0  0  0  0  0  0  0  0  0
   -9.5340   18.4464  -33.6415 H   0  0  0  0  0  0  0  0  0  0  0  0
   -9.4030   17.8190  -31.0970 H   0  0  0  0  0  0  0  0  0  0  0  0
   -7.4566   17.2248  -32.2381 H   0  0  0  0  0  0  0  0  0  0  0  0
   -7.3018   18.3188  -33.6789 H   0  0  0  0  0  0  0  0  0  0  0  0
   -5.7954   18.6683  -31.0441 H   0  0  0  0  0  0  0  0  0  0  0  0
   -5.1241   17.9169  -32.5395 H   0  0  0  0  0  0  0  0  0  0  0  0
   -5.2787   19.9304  -33.7651 H   0  0  0  0  0  0  0  0  0  0  0  0
   -3.0065   18.8350  -32.5142 H   0  0  0  0  0  0  0  0  0  0  0  0
   -0.9359   19.7187  -31.3955 H   0  0  0  0  0  0  0  0  0  0  0  0
    0.0780   21.9423  -29.9175 H   0  0  0  0  0  0  0  0  0  0  0  0
   -2.4570   25.9750  -28.9680 H   0  0  0  0  0  0  0  0  0  0  0  0
   -5.1585   22.4596  -31.3926 H   0  0  0  0  0  0  0  0  0  0  0  0
   -6.2719   22.0279  -32.2642 H   0  0  0  0  0  0  0  0  0  0  0  0
   -7.1098   21.1270  -33.6103 H   0  0  0  0  0  0  0  0  0  0  0  0
   -7.3611   20.5801  -30.6225 H   0  0  0  0  0  0  0  0  0  0  0  0
   -8.5982   21.3336  -31.7255 H   0  0  0  0  0  0  0  0  0  0  0  0
  1  2  1  0
  2  3  1  1
  2  4  1  0
  4  5  1  0
  5  6  1  0
  6  7  1  0
  7  8  2  0
  8  9  1  0
  9 10  2  0
 10 11  1  0
 11 12  2  0
 12 13  1  0
 13 14  1  0
 13 15  2  0
 12 16  1  0
 16 17  1  0
 17 18  2  0
 17 19  1  0
 16 20  1  0
 20 21  2  0
  6 22  1  0
 22 23  1  0
 23  2  1  0
 21  7  1  0
 20 10  1  0
  1 24  1  0
  1 25  1  0
  1 26  1  0
  3 27  1  0
  4 28  1  0
  4 29  1  0
  5 30  1  0
  5 31  1  0
  6 32  1  6
  8 33  1  0
  9 34  1  0
 11 35  1  0
 14 36  1  0
 21 37  1  0
 22 38  1  0
 22 39  1  0
 23 40  1  0
 23 41  1  0
M  CHG  2  14  -1  19  -1
M  END
>  <UniqueID>  (24) 
24

>  <SMILES>  (24) 
CC1(O)CCC(c2ccc3cc(C([NH-])=O)n(C(=O)[O-])c3c2)CC1

>  <Energy>  (24) 
87.10310358663641

>  <Genealogy>  (24) 
CC1(O)CCC(c2ccc3cc(C([NH-])=O)n(C(=O)[O-])c3c2)CC1 (protonated)
CC1(O)CCC(c2ccc3cc(C([NH-])=O)n(C(=O)[O-])c3c2)CC1 (3D coordinates assigned)
CC1(O)CCC(c2ccc3cc(C([NH-])=O)n(C(=O)[O-])c3c2)CC1 (nonaromatic ring conformer: 87.10310358663641 kcal/mol)

>  <smiles>  (24) 
CC1(O)CCC(c2ccc3cc(C(N)=O)n(C(=O)O)c3c2)CC1

>  <score_type>  (24) 
oracle

>  <origin>  (24) 
adg

>  <m_score__min__energy>  (24) 
-12.57

>  <m_primary>  (24) 
energy

$$$$
25:0
     RDKit          3D

 30 32  0  0  0  0  0  0  0  0999 V2000
   -1.9060   25.6870  -28.9540 N   0  0  0  0  0  0  0  0  0  0  0  0
   -1.0570   24.5420  -28.9970 C   0  0  0  0  0  0  0  0  0  0  0  0
    0.0030   24.5350  -28.3190 O   0  0  0  0  0  0  0  0  0  0  0  0
   -1.4520   23.3650  -29.7990 C   0  0  0  0  0  0  0  0  0  0  0  0
   -0.5740   22.3410  -30.1440 C   0  0  0  0  0  0  0  0  0  0  0  0
   -1.2960   21.5010  -30.9600 C   0  0  0  0  0  0  0  0  0  0  0  0
   -0.9150   20.3190  -31.5870 C   0  0  0  0  0  0  0  0  0  0  0  0
   -1.8760   19.6420  -32.3570 C   0  0  0  0  0  0  0  0  0  0  0  0
   -3.2000   20.1460  -32.4790 C   0  0  0  0  0  0  0  0  0  0  0  0
   -4.2220   19.4360  -33.2890 C   0  0  0  0  0  0  0  0  0  0  0  0
   -5.5880   19.7510  -33.1990 C   0  0  0  0  0  0  0  0  0  0  0  0
   -6.4930   19.0460  -33.9930 C   0  0  0  0  0  0  0  0  0  0  0  0
   -6.0470   18.0810  -34.8380 N   0  0  0  0  0  0  0  0  0  0  0  0
   -4.7250   17.7900  -34.9250 C   0  0  0  0  0  0  0  0  0  0  0  0
   -3.8270   18.4650  -34.1590 N   0  0  0  0  0  0  0  0  0  0  0  0
   -3.5400   21.3580  -31.8310 C   0  0  0  0  0  0  0  0  0  0  0  0
   -2.5570   22.0190  -31.0850 C   0  0  0  0  0  0  0  0  0  0  0  0
   -2.6720   23.1620  -30.3740 N   0  0  0  0  0  0  0  0  0  0  0  0
   -3.8650   23.9470  -30.2130 C   0  0  0  0  0  0  0  0  0  0  0  0
   -3.9150   25.2860  -30.7010 N   0  0  0  0  0  0  0  0  0  0  0  0
   -4.8620   23.4660  -29.6130 O   0  0  0  0  0  0  0  0  0  0  0  0
   -2.8740   25.6520  -29.3460 H   0  0  0  0  0  0  0  0  0  0  0  0
    0.4743   22.2277  -29.8307 H   0  0  0  0  0  0  0  0  0  0  0  0
    0.1073   19.9263  -31.4832 H   0  0  0  0  0  0  0  0  0  0  0  0
   -1.6004   18.7100  -32.8721 H   0  0  0  0  0  0  0  0  0  0  0  0
   -5.9376   20.5387  -32.5154 H   0  0  0  0  0  0  0  0  0  0  0  0
   -7.5680   19.2719  -33.9345 H   0  0  0  0  0  0  0  0  0  0  0  0
   -4.3791   17.0071  -35.6160 H   0  0  0  0  0  0  0  0  0  0  0  0
   -4.5559   21.7719  -31.9121 H   0  0  0  0  0  0  0  0  0  0  0  0
   -3.8670   26.0980  -30.0450 H   0  0  0  0  0  0  0  0  0  0  0  0
  1  2  1  0
  2  3  2  0
  2  4  1  0
  4  5  2  0
  5  6  1  0
  6  7  2  0
  7  8  1  0
  8  9  2  0
  9 10  1  0
 10 11  2  0
 11 12  1  0
 12 13  2  0
 13 14  1  0
 14 15  2  0
  9 16  1  0
 16 17  2  0
 17 18  1  0
 18 19  1  0
 19 20  1  0
 19 21  2  0
 18  4  1  0
 17  6  1  0
 15 10  1  0
  1 22  1  0
  5 23  1  0
  7 24  1  0
  8 25  1  0
 11 26  1  0
 12 27  1  0
 14 28  1  0
 16 29  1  0
 20 30  1  0
M  CHG  2   1  -1  20  -1
M  END
>  <UniqueID>  (25) 
25

>  <SMILES>  (25) 
[NH-]C(=O)c1cc2ccc(-c3ccncn3)cc2n1C([NH-])=O

>  <Energy>  (25) 
77.15892441295553

>  <Genealogy>  (25) 
[NH-]C(=O)c1cc2ccc(-c3ccncn3)cc2n1C([NH-])=O (protonated)
[NH-]C(=O)c1cc2ccc(-c3ccncn3)cc2n1C([NH-])=O (3D coordinates assigned)
[NH-]C(=O)c1cc2ccc(-c3ccncn3)cc2n1C([NH-])=O (optimized conformer: 77.15892441295553 kcal/mol)

>  <smiles>  (25) 
NC(=O)c1cc2ccc(-c3ccncn3)cc2n1C(N)=O

>  <score_type>  (25) 
oracle

>  <origin>  (25) 
adg

>  <m_score__min__energy>  (25) 
-10.779999999999999

>  <m_primary>  (25) 
energy

$$$$
26:0
     RDKit          3D

 28 29  0  0  0  0  0  0  0  0999 V2000
   -3.7030   25.1890  -30.4650 N   0  0  0  0  0  0  0  0  0  0  0  0
   -5.0970   25.2640  -30.7530 C   0  0  0  0  0  0  0  0  0  0  0  0
   -5.6860   26.3760  -30.6690 O   0  0  0  0  0  0  0  0  0  0  0  0
   -5.8680   24.0520  -31.0980 C   0  0  0  0  0  0  0  0  0  0  0  0
   -7.2280   23.9040  -30.8320 C   0  0  0  0  0  0  0  0  0  0  0  0
   -7.5370   22.6180  -31.2110 C   0  0  0  0  0  0  0  0  0  0  0  0
   -8.7520   21.9400  -31.1790 C   0  0  0  0  0  0  0  0  0  0  0  0
   -8.7850   20.6210  -31.6620 C   0  0  0  0  0  0  0  0  0  0  0  0
   -7.6080   20.0060  -32.1610 C   0  0  0  0  0  0  0  0  0  0  0  0
   -7.6650   18.6110  -32.7150 C   0  0  0  0  0  0  0  0  0  0  0  0
   -6.4040   18.3000  -33.4560 C   0  0  0  0  0  0  0  0  0  0  0  0
   -5.6140   17.4210  -33.0200 O   0  0  0  0  0  0  0  0  0  0  0  0
   -6.0750   19.0160  -34.5990 O   0  0  0  0  0  0  0  0  0  0  0  0
   -6.3950   20.7290  -32.1890 C   0  0  0  0  0  0  0  0  0  0  0  0
   -6.3910   22.0360  -31.6880 C   0  0  0  0  0  0  0  0  0  0  0  0
   -5.3590   22.9050  -31.6320 N   0  0  0  0  0  0  0  0  0  0  0  0
   -4.0280   22.6720  -32.1190 C   0  0  0  0  0  0  0  0  0  0  0  0
   -3.8130   22.2800  -33.4750 N   0  0  0  0  0  0  0  0  0  0  0  0
   -3.0450   22.7780  -31.3390 O   0  0  0  0  0  0  0  0  0  0  0  0
   -3.0140   24.9360  -31.2070 H   0  0  0  0  0  0  0  0  0  0  0  0
   -7.9100   24.6561  -30.4087 H   0  0  0  0  0  0  0  0  0  0  0  0
   -9.6596   22.4225  -30.7872 H   0  0  0  0  0  0  0  0  0  0  0  0
   -9.7314   20.0605  -31.6531 H   0  0  0  0  0  0  0  0  0  0  0  0
   -7.7868   17.8959  -31.8881 H   0  0  0  0  0  0  0  0  0  0  0  0
   -8.5171   18.5329  -33.4062 H   0  0  0  0  0  0  0  0  0  0  0  0
   -5.4776   20.2769  -32.5939 H   0  0  0  0  0  0  0  0  0  0  0  0
   -2.8450   22.1220  -33.8310 H   0  0  0  0  0  0  0  0  0  0  0  0
   -4.6220   22.1120  -34.1130 H   0  0  0  0  0  0  0  0  0  0  0  0
  1  2  1  0
  2  3  2  0
  2  4  1  0
  4  5  2  0
  5  6  1  0
  6  7  2  0
  7  8  1  0
  8  9  2  0
  9 10  1  0
 10 11  1  0
 11 12  2  0
 11 13  1  0
  9 14  1  0
 14 15  2  0
 15 16  1  0
 16 17  1  0
 17 18  1  0
 17 19  2  0
 16  4  1  0
 15  6  1  0
  1 20  1  0
  5 21  1  0
  7 22  1  0
  8 23  1  0
 10 24  1  0
 10 25  1  0
 14 26  1  0
 18 27  1  0
 18 28  1  0
M  CHG  2   1  -1  13  -1
M  END
>  <UniqueID>  (26) 
26

>  <SMILES>  (26) 
[NH-]C(=O)c1cc2ccc(CC(=O)[O-])cc2n1C(N)=O

>  <Energy>  (26) 
65.39106858747725

>  <Genealogy>  (26) 
[NH-]C(=O)c1cc2ccc(CC(=O)[O-])cc2n1C(N)=O (protonated)
[NH-]C(=O)c1cc2ccc(CC(=O)[O-])cc2n1C(N)=O (3D coordinates assigned)
[NH-]C(=O)c1cc2ccc(CC(=O)[O-])cc2n1C(N)=O (optimized conformer: 65.39106858747725 kcal/mol)

>  <smiles>  (26) 
NC(=O)c1cc2ccc(CC(=O)O)cc2n1C(N)=O

>  <score_type>  (26) 
oracle

>  <origin>  (26) 
adg

>  <m_score__min__energy>  (26) 
-10.32

>  <m_primary>  (26) 
energy

$$$$
27:0
     RDKit          3D

 44 46  0  0  0  0  0  0  0  0999 V2000
   -3.8330   23.7530  -27.8800 C   0  0  0  0  0  0  0  0  0  0  0  0
   -3.4110   22.5700  -28.7360 C   0  0  0  0  0  0  0  0  0  0  0  0
   -2.9430   23.0380  -29.9950 O   0  0  0  0  0  0  0  0  0  0  0  0
   -3.5600   22.7010  -31.2040 C   0  0  0  0  0  0  0  0  0  0  0  0
   -2.8760   22.2430  -32.1600 O   0  0  0  0  0  0  0  0  0  0  0  0
   -4.9800   22.8580  -31.3480 N   0  0  0  0  0  0  0  0  0  0  0  0
   -5.7370   23.9370  -30.9960 C   0  0  0  0  0  0  0  0  0  0  0  0
   -5.2250   25.2500  -30.5520 C   0  0  0  0  0  0  0  0  0  0  0  0
   -3.8970   25.6630  -30.8650 N   0  0  0  0  0  0  0  0  0  0  0  0
   -5.9860   26.0390  -29.9310 O   0  0  0  0  0  0  0  0  0  0  0  0
   -7.0900   23.6680  -31.1880 C   0  0  0  0  0  0  0  0  0  0  0  0
   -7.1410   22.3850  -31.6810 C   0  0  0  0  0  0  0  0  0  0  0  0
   -8.2400   21.6050  -32.0370 C   0  0  0  0  0  0  0  0  0  0  0  0
   -7.9980   20.2960  -32.4890 C   0  0  0  0  0  0  0  0  0  0  0  0
   -6.6770   19.7970  -32.5660 C   0  0  0  0  0  0  0  0  0  0  0  0
   -6.4460   18.4510  -33.0170 C   0  0  0  0  0  0  0  0  0  0  0  0
   -6.2510   17.3230  -33.3950 C   0  0  0  0  0  0  0  0  0  0  0  0
   -6.0180   15.9770  -33.8460 C   0  0  0  0  0  0  0  0  0  0  0  0
   -4.7140   15.4720  -33.9010 C   0  0  0  0  0  0  0  0  0  0  0  0
   -4.4890   14.1640  -34.3400 C   0  0  0  0  0  0  0  0  0  0  0  0
   -5.5640   13.3570  -34.7240 C   0  0  0  0  0  0  0  0  0  0  0  0
   -6.8800   13.8580  -34.6730 C   0  0  0  0  0  0  0  0  0  0  0  0
   -7.9920   13.0890  -35.0490 O   0  0  0  0  0  0  0  0  0  0  0  0
   -8.6510   12.1590  -34.1960 C   0  0  0  0  0  0  0  0  0  0  0  0
   -7.0960   15.1690  -34.2320 C   0  0  0  0  0  0  0  0  0  0  0  0
   -5.5880   20.6110  -32.1960 C   0  0  0  0  0  0  0  0  0  0  0  0
   -5.8540   21.9170  -31.7680 C   0  0  0  0  0  0  0  0  0  0  0  0
   -3.7386   23.4883  -26.8165 H   0  0  0  0  0  0  0  0  0  0  0  0
   -3.1870   24.6152  -28.1020 H   0  0  0  0  0  0  0  0  0  0  0  0
   -4.8789   24.0117  -28.1020 H   0  0  0  0  0  0  0  0  0  0  0  0
   -2.6063   22.0184  -28.2278 H   0  0  0  0  0  0  0  0  0  0  0  0
   -4.2724   21.9034  -28.8900 H   0  0  0  0  0  0  0  0  0  0  0  0
   -3.0710   25.1540  -30.4800 H   0  0  0  0  0  0  0  0  0  0  0  0
   -7.9381   24.3394  -30.9878 H   0  0  0  0  0  0  0  0  0  0  0  0
   -9.2638   22.0010  -31.9665 H   0  0  0  0  0  0  0  0  0  0  0  0
   -8.8419   19.6555  -32.7848 H   0  0  0  0  0  0  0  0  0  0  0  0
   -3.8661   16.1043  -33.5988 H   0  0  0  0  0  0  0  0  0  0  0  0
   -3.4634   13.7687  -34.3834 H   0  0  0  0  0  0  0  0  0  0  0  0
   -5.3820   12.3278  -35.0670 H   0  0  0  0  0  0  0  0  0  0  0  0
   -8.4615   12.4265  -33.1460 H   0  0  0  0  0  0  0  0  0  0  0  0
   -9.7332   12.1852  -34.3915 H   0  0  0  0  0  0  0  0  0  0  0  0
   -8.2675   11.1467  -34.3915 H   0  0  0  0  0  0  0  0  0  0  0  0
   -8.1201   15.5681  -34.1881 H   0  0  0  0  0  0  0  0  0  0  0  0
   -4.5569   20.2306  -32.2422 H   0  0  0  0  0  0  0  0  0  0  0  0
  1  2  1  0
  2  3  1  0
  3  4  1  0
  4  5  2  0
  4  6  1  0
  6  7  1  0
  7  8  1  0
  8  9  1  0
  8 10  2  0
  7 11  2  0
 11 12  1  0
 12 13  2  0
 13 14  1  0
 14 15  2  0
 15 16  1  0
 16 17  3  0
 17 18  1  0
 18 19  2  0
 19 20  1  0
 20 21  2  0
 21 22  1  0
 22 23  1  0
 23 24  1  0
 22 25  2  0
 15 26  1  0
 26 27  2  0
 27  6  1  0
 27 12  1  0
 25 18  1  0
  1 28  1  0
  1 29  1  0
  1 30  1  0
  2 31  1  0
  2 32  1  0
  9 33  1  0
 11 34  1  0
 13 35  1  0
 14 36  1  0
 19 37  1  0
 20 38  1  0
 21 39  1  0
 24 40  1  0
 24 41  1  0
 24 42  1  0
 25 43  1  0
 26 44  1  0
M  CHG  1   9  -1
M  END
>  <UniqueID>  (27) 
27

>  <SMILES>  (27) 
CCOC(=O)n1c(C([NH-])=O)cc2ccc(C#Cc3cccc(OC)c3)cc21

>  <Energy>  (27) 
76.1227229052259

>  <Genealogy>  (27) 
CCOC(=O)n1c(C([NH-])=O)cc2ccc(C#Cc3cccc(OC)c3)cc21 (protonated)
CCOC(=O)n1c(C([NH-])=O)cc2ccc(C#Cc3cccc(OC)c3)cc21 (3D coordinates assigned)
CCOC(=O)n1c(C([NH-])=O)cc2ccc(C#Cc3cccc(OC)c3)cc21 (optimized conformer: 76.1227229052259 kcal/mol)

>  <smiles>  (27) 
CCOC(=O)n1c(C(N)=O)cc2ccc(C#Cc3cccc(OC)c3)cc21

>  <score_type>  (27) 
oracle

>  <origin>  (27) 
adg

>  <m_score__min__energy>  (27) 
-11.029999999999999

>  <m_primary>  (27) 
energy

$$$$
28:0
     RDKit          3D

 27 28  0  0  0  0  0  0  0  0999 V2000
   -6.7620   17.6330  -31.9620 C   0  0  0  0  0  0  0  0  0  0  0  0
   -7.5290   18.5810  -32.8770 C   0  0  0  0  0  0  0  0  0  0  0  0
   -7.5530   19.9720  -32.3050 C   0  0  0  0  0  0  0  0  0  0  0  0
   -8.7910   20.6000  -32.0170 C   0  0  0  0  0  0  0  0  0  0  0  0
   -8.8280   21.9130  -31.5180 C   0  0  0  0  0  0  0  0  0  0  0  0
   -7.6170   22.5710  -31.3250 C   0  0  0  0  0  0  0  0  0  0  0  0
   -7.3650   23.8470  -30.8740 C   0  0  0  0  0  0  0  0  0  0  0  0
   -5.9780   23.9760  -30.8860 C   0  0  0  0  0  0  0  0  0  0  0  0
   -5.2750   25.1680  -30.3720 C   0  0  0  0  0  0  0  0  0  0  0  0
   -3.8730   25.3320  -30.5660 N   0  0  0  0  0  0  0  0  0  0  0  0
   -5.9100   26.0230  -29.6990 O   0  0  0  0  0  0  0  0  0  0  0  0
   -5.3940   22.8300  -31.3440 N   0  0  0  0  0  0  0  0  0  0  0  0
   -4.0060   22.5770  -31.6130 C   0  0  0  0  0  0  0  0  0  0  0  0
   -3.6180   22.2460  -32.7640 O   0  0  0  0  0  0  0  0  0  0  0  0
   -6.4120   21.9790  -31.5980 C   0  0  0  0  0  0  0  0  0  0  0  0
   -6.3450   20.6760  -32.1060 C   0  0  0  0  0  0  0  0  0  0  0  0
   -6.9690   17.8889  -30.9124 H   0  0  0  0  0  0  0  0  0  0  0  0
   -7.0800   16.5981  -32.1567 H   0  0  0  0  0  0  0  0  0  0  0  0
   -5.6835   17.7280  -32.1567 H   0  0  0  0  0  0  0  0  0  0  0  0
   -7.0410   18.6046  -33.8626 H   0  0  0  0  0  0  0  0  0  0  0  0
   -8.5639   18.2203  -32.9709 H   0  0  0  0  0  0  0  0  0  0  0  0
   -9.7311   20.0544  -32.1857 H   0  0  0  0  0  0  0  0  0  0  0  0
   -9.7842   22.4054  -31.2871 H   0  0  0  0  0  0  0  0  0  0  0  0
   -8.1024   24.6041  -30.5689 H   0  0  0  0  0  0  0  0  0  0  0  0
   -3.5030   26.0450  -31.2330 H   0  0  0  0  0  0  0  0  0  0  0  0
   -3.2706   22.6740  -30.8007 H   0  0  0  0  0  0  0  0  0  0  0  0
   -5.3762   20.2125  -32.3440 H   0  0  0  0  0  0  0  0  0  0  0  0
  1  2  1  0
  2  3  1  0
  3  4  2  0
  4  5  1  0
  5  6  2  0
  6  7  1  0
  7  8  2  0
  8  9  1  0
  9 10  1  0
  9 11  2  0
  8 12  1  0
 12 13  1  0
 13 14  2  0
 12 15  1  0
 15 16  2  0
 16  3  1  0
 15  6  1  0
  1 17  1  0
  1 18  1  0
  1 19  1  0
  2 20  1  0
  2 21  1  0
  4 22  1  0
  5 23  1  0
  7 24  1  0
 10 25  1  0
 13 26  1  0
 16 27  1  0
M  CHG  1  10  -1
M  END
>  <UniqueID>  (28) 
28

>  <SMILES>  (28) 
CCc1ccc2cc(C([NH-])=O)n(C=O)c2c1

>  <Energy>  (28) 
62.75926547133691

>  <Genealogy>  (28) 
CCc1ccc2cc(C([NH-])=O)n(C=O)c2c1 (protonated)
CCc1ccc2cc(C([NH-])=O)n(C=O)c2c1 (3D coordinates assigned)
CCc1ccc2cc(C([NH-])=O)n(C=O)c2c1 (optimized conformer: 62.75926547133691 kcal/mol)

>  <smiles>  (28) 
CCc1ccc2cc(C(N)=O)n(C=O)c2c1

>  <score_type>  (28) 
oracle

>  <origin>  (28) 
adg

>  <m_score__min__energy>  (28) 
-9.6099999999999994

>  <m_primary>  (28) 
energy

$$$$
29:0
     RDKit          3D

 31 32  0  0  0  0  0  0  0  0999 V2000
   -3.8660   23.2260  -28.0270 C   0  0  0  0  0  0  0  0  0  0  0  0
   -2.9410   22.4930  -28.9930 C   0  0  0  0  0  0  0  0  0  0  0  0
   -2.9280   23.1380  -30.2640 O   0  0  0  0  0  0  0  0  0  0  0  0
   -3.7120   22.7250  -31.3480 C   0  0  0  0  0  0  0  0  0  0  0  0
   -3.1800   22.1500  -32.3380 O   0  0  0  0  0  0  0  0  0  0  0  0
   -5.1310   22.9420  -31.3240 N   0  0  0  0  0  0  0  0  0  0  0  0
   -5.7990   24.0340  -30.8550 C   0  0  0  0  0  0  0  0  0  0  0  0
   -5.1860   25.3090  -30.4300 C   0  0  0  0  0  0  0  0  0  0  0  0
   -3.8690   25.6630  -30.8440 N   0  0  0  0  0  0  0  0  0  0  0  0
   -5.8520   26.1200  -29.7330 O   0  0  0  0  0  0  0  0  0  0  0  0
   -7.1750   23.8220  -30.9020 C   0  0  0  0  0  0  0  0  0  0  0  0
   -7.3330   22.5610  -31.4270 C   0  0  0  0  0  0  0  0  0  0  0  0
   -8.4940   21.8380  -31.6900 C   0  0  0  0  0  0  0  0  0  0  0  0
   -8.3590   20.5400  -32.2090 C   0  0  0  0  0  0  0  0  0  0  0  0
   -7.0750   19.9840  -32.4360 C   0  0  0  0  0  0  0  0  0  0  0  0
   -6.9460   18.6080  -33.0150 C   0  0  0  0  0  0  0  0  0  0  0  0
   -5.9200   20.7510  -32.1730 C   0  0  0  0  0  0  0  0  0  0  0  0
   -6.0850   22.0490  -31.6720 C   0  0  0  0  0  0  0  0  0  0  0  0
   -3.5736   22.9943  -26.9922 H   0  0  0  0  0  0  0  0  0  0  0  0
   -3.7880   24.3101  -28.1960 H   0  0  0  0  0  0  0  0  0  0  0  0
   -4.9036   22.9023  -28.1960 H   0  0  0  0  0  0  0  0  0  0  0  0
   -1.9210   22.4857  -28.5811 H   0  0  0  0  0  0  0  0  0  0  0  0
   -3.3074   21.4639  -29.1220 H   0  0  0  0  0  0  0  0  0  0  0  0
   -3.0310   25.3000  -30.3380 H   0  0  0  0  0  0  0  0  0  0  0  0
   -7.9674   24.5164  -30.5860 H   0  0  0  0  0  0  0  0  0  0  0  0
   -9.4868   22.2706  -31.4970 H   0  0  0  0  0  0  0  0  0  0  0  0
   -9.2576   19.9496  -32.4414 H   0  0  0  0  0  0  0  0  0  0  0  0
   -6.8770   17.8723  -32.2001 H   0  0  0  0  0  0  0  0  0  0  0  0
   -7.8274   18.3869  -33.6350 H   0  0  0  0  0  0  0  0  0  0  0  0
   -6.0389   18.5546  -33.6350 H   0  0  0  0  0  0  0  0  0  0  0  0
   -4.9161   20.3404  -32.3566 H   0  0  0  0  0  0  0  0  0  0  0  0
  1  2  1  0
  2  3  1  0
  3  4  1  0
  4  5  2  0
  4  6  1  0
  6  7  1  0
  7  8  1  0
  8  9  1  0
  8 10  2  0
  7 11  2  0
 11 12  1  0
 12 13  2  0
 13 14  1  0
 14 15  2  0
 15 16  1  0
 15 17  1  0
 17 18  2  0
 18  6  1  0
 18 12  1  0
  1 19  1  0
  1 20  1  0
  1 21  1  0
  2 22  1  0
  2 23  1  0
  9 24  1  0
 11 25  1  0
 13 26  1  0
 14 27  1  0
 16 28  1  0
 16 29  1  0
 16 30  1  0
 17 31  1  0
M  CHG  1   9  -1
M  END
>  <UniqueID>  (29) 
29

>  <SMILES>  (29) 
CCOC(=O)n1c(C([NH-])=O)cc2ccc(C)cc21

>  <Energy>  (29) 
65.7773228240082

>  <Genealogy>  (29) 
CCOC(=O)n1c(C([NH-])=O)cc2ccc(C)cc21 (protonated)
CCOC(=O)n1c(C([NH-])=O)cc2ccc(C)cc21 (3D coordinates assigned)
CCOC(=O)n1c(C([NH-])=O)cc2ccc(C)cc21 (optimized conformer: 65.7773228240082 kcal/mol)

>  <smiles>  (29) 
CCOC(=O)n1c(C(N)=O)cc2ccc(C)cc21

>  <score_type>  (29) 
oracle

>  <origin>  (29) 
adg

>  <m_score__min__energy>  (29) 
-9.0899999999999999

>  <m_primary>  (29) 
energy

$$$$
30:0
     RDKit          3D

 46 48  0  0  0  0  0  0  0  0999 V2000
   -7.3070   13.4730  -34.9600 C   0  0  0  0  0  0  0  0  0  0  0  0
   -6.2180   13.1510  -33.9430 C   0  0  0  0  0  0  0  0  0  0  0  0
   -5.1590   14.1700  -33.9810 N   0  0  0  0  0  0  0  0  0  0  0  0
   -3.7970   13.8100  -34.3990 C   0  0  0  0  0  0  0  0  0  0  0  0
   -3.4470   14.4850  -35.7200 C   0  0  0  0  0  0  0  0  0  0  0  0
   -5.4590   15.5290  -33.6090 C   0  0  0  0  0  0  0  0  0  0  0  0
   -5.8430   16.4620  -34.5840 C   0  0  0  0  0  0  0  0  0  0  0  0
   -6.1330   17.7820  -34.2250 C   0  0  0  0  0  0  0  0  0  0  0  0
   -6.0470   18.1920  -32.8830 C   0  0  0  0  0  0  0  0  0  0  0  0
   -6.3560   19.5930  -32.5010 C   0  0  0  0  0  0  0  0  0  0  0  0
   -7.6850   20.0840  -32.5920 C   0  0  0  0  0  0  0  0  0  0  0  0
   -7.9870   21.4110  -32.2450 C   0  0  0  0  0  0  0  0  0  0  0  0
   -6.9490   22.2230  -31.8030 C   0  0  0  0  0  0  0  0  0  0  0  0
   -6.9590   23.5470  -31.4300 C   0  0  0  0  0  0  0  0  0  0  0  0
   -5.6420   23.8460  -31.0910 C   0  0  0  0  0  0  0  0  0  0  0  0
   -5.2150   25.1570  -30.5560 C   0  0  0  0  0  0  0  0  0  0  0  0
   -3.9230   25.6670  -30.8760 N   0  0  0  0  0  0  0  0  0  0  0  0
   -5.9920   25.8470  -29.8450 O   0  0  0  0  0  0  0  0  0  0  0  0
   -4.8460   22.7500  -31.2540 N   0  0  0  0  0  0  0  0  0  0  0  0
   -3.4230   22.6610  -31.0690 C   0  0  0  0  0  0  0  0  0  0  0  0
   -2.8180   23.1890  -29.8910 N   0  0  0  0  0  0  0  0  0  0  0  0
   -2.7040   22.1050  -31.9420 O   0  0  0  0  0  0  0  0  0  0  0  0
   -5.6620   21.7650  -31.6900 C   0  0  0  0  0  0  0  0  0  0  0  0
   -5.3270   20.4530  -32.0470 C   0  0  0  0  0  0  0  0  0  0  0  0
   -5.6630   17.2530  -31.9090 C   0  0  0  0  0  0  0  0  0  0  0  0
   -5.3710   15.9350  -32.2700 C   0  0  0  0  0  0  0  0  0  0  0  0
   -8.2324   13.7466  -34.4320 H   0  0  0  0  0  0  0  0  0  0  0  0
   -6.9825   14.3136  -35.5909 H   0  0  0  0  0  0  0  0  0  0  0  0
   -7.4919   12.5911  -35.5909 H   0  0  0  0  0  0  0  0  0  0  0  0
   -6.6596   13.1255  -32.9359 H   0  0  0  0  0  0  0  0  0  0  0  0
   -5.7791   12.1731  -34.1900 H   0  0  0  0  0  0  0  0  0  0  0  0
   -3.0839   14.1344  -33.6268 H   0  0  0  0  0  0  0  0  0  0  0  0
   -3.7427   12.7194  -34.5319 H   0  0  0  0  0  0  0  0  0  0  0  0
   -2.9491   15.4453  -35.5204 H   0  0  0  0  0  0  0  0  0  0  0  0
   -2.7723   13.8350  -36.2965 H   0  0  0  0  0  0  0  0  0  0  0  0
   -4.3670   14.6618  -36.2965 H   0  0  0  0  0  0  0  0  0  0  0  0
   -5.9164   16.1532  -35.6372 H   0  0  0  0  0  0  0  0  0  0  0  0
   -6.4307   18.5051  -34.9986 H   0  0  0  0  0  0  0  0  0  0  0  0
   -8.4881   19.4169  -32.9385 H   0  0  0  0  0  0  0  0  0  0  0  0
   -9.0145   21.7963  -32.3208 H   0  0  0  0  0  0  0  0  0  0  0  0
   -7.8242   24.2258  -31.4049 H   0  0  0  0  0  0  0  0  0  0  0  0
   -3.0640   25.2600  -30.4440 H   0  0  0  0  0  0  0  0  0  0  0  0
   -2.9660   24.1830  -29.6110 H   0  0  0  0  0  0  0  0  0  0  0  0
   -4.2880   20.0986  -31.9763 H   0  0  0  0  0  0  0  0  0  0  0  0
   -5.5919   17.5585  -30.8547 H   0  0  0  0  0  0  0  0  0  0  0  0
   -5.0701   15.2111  -31.4983 H   0  0  0  0  0  0  0  0  0  0  0  0
  1  2  1  0
  2  3  1  0
  3  4  1  0
  4  5  1  0
  3  6  1  0
  6  7  2  0
  7  8  1  0
  8  9  2  0
  9 10  1  0
 10 11  2  0
 11 12  1  0
 12 13  2  0
 13 14  1  0
 14 15  2  0
 15 16  1  0
 16 17  1  0
 16 18  2  0
 15 19  1  0
 19 20  1  0
 20 21  1  0
 20 22  2  0
 19 23  1  0
 23 24  2  0
  9 25  1  0
 25 26  2  0
 26  6  1  0
 24 10  1  0
 23 13  1  0
  1 27  1  0
  1 28  1  0
  1 29  1  0
  2 30  1  0
  2 31  1  0
  4 32  1  0
  4 33  1  0
  5 34  1  0
  5 35  1  0
  5 36  1  0
  7 37  1  0
  8 38  1  0
 11 39  1  0
 12 40  1  0
 14 41  1  0
 17 42  1  0
 21 43  1  0
 24 44  1  0
 25 45  1  0
 26 46  1  0
M  CHG  2  17  -1  21  -1
M  END
>  <UniqueID>  (30) 
30

>  <SMILES>  (30) 
CCN(CC)c1ccc(-c2ccc3cc(C([NH-])=O)n(C([NH-])=O)c3c2)cc1

>  <Energy>  (30) 
89.69040388047269

>  <Genealogy>  (30) 
CCN(CC)c1ccc(-c2ccc3cc(C([NH-])=O)n(C([NH-])=O)c3c2)cc1 (protonated)
CCN(CC)c1ccc(-c2ccc3cc(C([NH-])=O)n(C([NH-])=O)c3c2)cc1 (3D coordinates assigned)
CCN(CC)c1ccc(-c2ccc3cc(C([NH-])=O)n(C([NH-])=O)c3c2)cc1 (optimized conformer: 89.69040388047269 kcal/mol)

>  <smiles>  (30) 
CCN(CC)c1ccc(-c2ccc3cc(C(N)=O)n(C(N)=O)c3c2)cc1

>  <score_type>  (30) 
oracle

>  <origin>  (30) 
adg

>  <m_score__min__energy>  (30) 
-10.619999999999999

>  <m_primary>  (30) 
energy

$$$$
31:0
     RDKit          3D

 36 37  0  0  0  0  0  0  0  0999 V2000
   -3.2600   20.9540  -33.4250 C   0  0  0  0  0  0  0  0  0  0  0  0
   -3.7360   22.2590  -33.1270 O   0  0  0  0  0  0  0  0  0  0  0  0
   -4.0340   22.6750  -31.8250 C   0  0  0  0  0  0  0  0  0  0  0  0
   -3.1190   22.7730  -30.9640 O   0  0  0  0  0  0  0  0  0  0  0  0
   -5.3930   22.9650  -31.4630 N   0  0  0  0  0  0  0  0  0  0  0  0
   -5.8790   24.0860  -30.8580 C   0  0  0  0  0  0  0  0  0  0  0  0
   -5.1210   25.3230  -30.5810 C   0  0  0  0  0  0  0  0  0  0  0  0
   -3.7030   25.2990  -30.4370 N   0  0  0  0  0  0  0  0  0  0  0  0
   -5.7280   26.4250  -30.5180 O   0  0  0  0  0  0  0  0  0  0  0  0
   -7.2420   23.9500  -30.6000 C   0  0  0  0  0  0  0  0  0  0  0  0
   -7.5810   22.7050  -31.0790 C   0  0  0  0  0  0  0  0  0  0  0  0
   -8.8100   22.0500  -31.0780 C   0  0  0  0  0  0  0  0  0  0  0  0
   -8.8660   20.7560  -31.6210 C   0  0  0  0  0  0  0  0  0  0  0  0
   -7.7010   20.1400  -32.1440 C   0  0  0  0  0  0  0  0  0  0  0  0
   -7.7730   18.7550  -32.7320 C   0  0  0  0  0  0  0  0  0  0  0  0
   -6.5810   17.8730  -32.3220 C   0  0  0  0  0  0  0  0  0  0  0  0
   -5.9360   17.1200  -33.4980 C   0  0  0  0  0  0  0  0  0  0  0  0
   -5.3220   18.0420  -34.5070 C   0  0  0  0  0  0  0  0  0  0  0  0
   -6.0510   18.6840  -35.3100 O   0  0  0  0  0  0  0  0  0  0  0  0
   -3.9450   18.2190  -34.5410 O   0  0  0  0  0  0  0  0  0  0  0  0
   -6.4700   20.8340  -32.1190 C   0  0  0  0  0  0  0  0  0  0  0  0
   -6.4490   22.1300  -31.5930 C   0  0  0  0  0  0  0  0  0  0  0  0
   -3.0626   20.4128  -32.4879 H   0  0  0  0  0  0  0  0  0  0  0  0
   -4.0182   20.4116  -34.0089 H   0  0  0  0  0  0  0  0  0  0  0  0
   -2.3307   21.0271  -34.0089 H   0  0  0  0  0  0  0  0  0  0  0  0
   -3.0930   24.9240  -31.1970 H   0  0  0  0  0  0  0  0  0  0  0  0
   -7.9056   24.6820  -30.1164 H   0  0  0  0  0  0  0  0  0  0  0  0
   -9.7088   22.5311  -30.6648 H   0  0  0  0  0  0  0  0  0  0  0  0
   -9.8235   20.2149  -31.6407 H   0  0  0  0  0  0  0  0  0  0  0  0
   -8.7009   18.2746  -32.3882 H   0  0  0  0  0  0  0  0  0  0  0  0
   -7.7493   18.8574  -33.8270 H   0  0  0  0  0  0  0  0  0  0  0  0
   -5.8168   18.5150  -31.8596 H   0  0  0  0  0  0  0  0  0  0  0  0
   -6.9673   17.1132  -31.6267 H   0  0  0  0  0  0  0  0  0  0  0  0
   -5.1518   16.4570  -33.1038 H   0  0  0  0  0  0  0  0  0  0  0  0
   -6.7303   16.5530  -34.0056 H   0  0  0  0  0  0  0  0  0  0  0  0
   -5.5514   20.3667  -32.5035 H   0  0  0  0  0  0  0  0  0  0  0  0
  1  2  1  0
  2  3  1  0
  3  4  2  0
  3  5  1  0
  5  6  1  0
  6  7  1  0
  7  8  1  0
  7  9  2  0
  6 10  2  0
 10 11  1  0
 11 12  2  0
 12 13  1  0
 13 14  2  0
 14 15  1  0
 15 16  1  0
 16 17  1  0
 17 18  1  0
 18 19  2  0
 18 20  1  0
 14 21  1  0
 21 22  2  0
 22  5  1  0
 22 11  1  0
  1 23  1  0
  1 24  1  0
  1 25  1  0
  8 26  1  0
 10 27  1  0
 12 28  1  0
 13 29  1  0
 15 30  1  0
 15 31  1  0
 16 32  1  0
 16 33  1  0
 17 34  1  0
 17 35  1  0
 21 36  1  0
M  CHG  2   8  -1  20  -1
M  END
>  <UniqueID>  (31) 
31

>  <SMILES>  (31) 
COC(=O)n1c(C([NH-])=O)cc2ccc(CCCC(=O)[O-])cc21

>  <Energy>  (31) 
68.99527619551492

>  <Genealogy>  (31) 
COC(=O)n1c(C([NH-])=O)cc2ccc(CCCC(=O)[O-])cc21 (protonated)
COC(=O)n1c(C([NH-])=O)cc2ccc(CCCC(=O)[O-])cc21 (3D coordinates assigned)
COC(=O)n1c(C([NH-])=O)cc2ccc(CCCC(=O)[O-])cc21 (optimized conformer: 68.99527619551492 kcal/mol)

>  <smiles>  (31) 
COC(=O)n1c(C(N)=O)cc2ccc(CCCC(=O)O)cc21

>  <score_type>  (31) 
oracle

>  <origin>  (31) 
adg

>  <m_score__min__energy>  (31) 
-9.8000000000000007

>  <m_primary>  (31) 
energy

$$$$
32:0
     RDKit          3D

 51 53  0  0  0  0  0  0  0  0999 V2000
   -2.4840   20.1980  -31.2910 C   0  0  0  0  0  0  0  0  0  0  0  0
   -2.3340   21.0010  -32.5970 C   0  0  0  0  0  0  0  0  0  0  0  0
   -2.7890   20.1630  -33.8070 C   0  0  0  0  0  0  0  0  0  0  0  0
   -0.8570   21.3800  -32.7830 C   0  0  0  0  0  0  0  0  0  0  0  0
   -3.0770   22.2260  -32.5260 O   0  0  0  0  0  0  0  0  0  0  0  0
   -3.7660   22.7200  -31.4080 C   0  0  0  0  0  0  0  0  0  0  0  0
   -3.1450   23.0970  -30.3790 O   0  0  0  0  0  0  0  0  0  0  0  0
   -5.1990   22.7920  -31.4400 N   0  0  0  0  0  0  0  0  0  0  0  0
   -5.9970   23.7830  -30.9540 C   0  0  0  0  0  0  0  0  0  0  0  0
   -5.5350   25.0800  -30.4210 C   0  0  0  0  0  0  0  0  0  0  0  0
   -4.1870   25.5200  -30.6040 N   0  0  0  0  0  0  0  0  0  0  0  0
   -6.3560   25.8390  -29.8410 O   0  0  0  0  0  0  0  0  0  0  0  0
   -7.3400   23.4370  -31.0710 C   0  0  0  0  0  0  0  0  0  0  0  0
   -7.3440   22.1940  -31.6630 C   0  0  0  0  0  0  0  0  0  0  0  0
   -8.4100   21.3720  -32.0130 C   0  0  0  0  0  0  0  0  0  0  0  0
   -8.1180   20.1210  -32.5850 C   0  0  0  0  0  0  0  0  0  0  0  0
   -6.7760   19.7090  -32.7790 C   0  0  0  0  0  0  0  0  0  0  0  0
   -6.4890   18.4270  -33.3680 N   0  0  0  0  0  0  0  0  0  0  0  0
   -5.7330   18.3580  -34.6270 C   0  0  0  0  0  0  0  0  0  0  0  0
   -5.1010   16.9720  -34.8330 C   0  0  0  0  0  0  0  0  0  0  0  0
   -4.5340   16.4030  -33.5150 C   0  0  0  0  0  0  0  0  0  0  0  0
   -3.3810   17.1110  -33.1260 O   0  0  0  0  0  0  0  0  0  0  0  0
   -5.5820   16.3660  -32.3670 C   0  0  0  0  0  0  0  0  0  0  0  0
   -6.8450   17.1830  -32.6760 C   0  0  0  0  0  0  0  0  0  0  0  0
   -5.7210   20.5750  -32.4150 C   0  0  0  0  0  0  0  0  0  0  0  0
   -6.0400   21.8250  -31.8720 C   0  0  0  0  0  0  0  0  0  0  0  0
   -2.3583   20.8712  -30.4302 H   0  0  0  0  0  0  0  0  0  0  0  0
   -3.4833   19.7396  -31.2551 H   0  0  0  0  0  0  0  0  0  0  0  0
   -1.7176   19.4098  -31.2551 H   0  0  0  0  0  0  0  0  0  0  0  0
   -3.2860   19.2477  -33.4531 H   0  0  0  0  0  0  0  0  0  0  0  0
   -3.4923   20.7500  -34.4159 H   0  0  0  0  0  0  0  0  0  0  0  0
   -1.9137   19.8929  -34.4159 H   0  0  0  0  0  0  0  0  0  0  0  0
   -0.3828   21.5017  -31.7979 H   0  0  0  0  0  0  0  0  0  0  0  0
   -0.3420   20.5849  -33.3421 H   0  0  0  0  0  0  0  0  0  0  0  0
   -0.7885   22.3248  -33.3421 H   0  0  0  0  0  0  0  0  0  0  0  0
   -3.8690   26.4200  -30.1830 H   0  0  0  0  0  0  0  0  0  0  0  0
   -3.5300   25.0000  -31.2270 H   0  0  0  0  0  0  0  0  0  0  0  0
   -8.2119   24.0299  -30.7575 H   0  0  0  0  0  0  0  0  0  0  0  0
   -9.4497   21.6907  -31.8474 H   0  0  0  0  0  0  0  0  0  0  0  0
   -8.9403   19.4549  -32.8852 H   0  0  0  0  0  0  0  0  0  0  0  0
   -6.4147   18.5674  -35.4645 H   0  0  0  0  0  0  0  0  0  0  0  0
   -4.9238   19.1018  -34.5833 H   0  0  0  0  0  0  0  0  0  0  0  0
   -5.8680   16.2838  -35.2179 H   0  0  0  0  0  0  0  0  0  0  0  0
   -4.2711   17.0757  -35.5475 H   0  0  0  0  0  0  0  0  0  0  0  0
   -4.2595   15.3565  -33.7134 H   0  0  0  0  0  0  0  0  0  0  0  0
   -3.6670   17.8650  -32.5470 H   0  0  0  0  0  0  0  0  0  0  0  0
   -5.8754   15.3199  -32.1948 H   0  0  0  0  0  0  0  0  0  0  0  0
   -5.1113   16.8139  -31.4794 H   0  0  0  0  0  0  0  0  0  0  0  0
   -7.5135   16.5895  -33.3170 H   0  0  0  0  0  0  0  0  0  0  0  0
   -7.3514   17.4308  -31.7314 H   0  0  0  0  0  0  0  0  0  0  0  0
   -4.6724   20.2738  -32.5551 H   0  0  0  0  0  0  0  0  0  0  0  0
  1  2  1  0
  2  3  1  0
  2  4  1  0
  2  5  1  0
  5  6  1  0
  6  7  2  0
  6  8  1  0
  8  9  1  0
  9 10  1  0
 10 11  1  0
 10 12  2  0
  9 13  2  0
 13 14  1  0
 14 15  2  0
 15 16  1  0
 16 17  2  0
 17 18  1  0
 18 19  1  0
 19 20  1  0
 20 21  1  0
 21 22  1  0
 21 23  1  0
 23 24  1  0
 17 25  1  0
 25 26  2  0
 26  8  1  0
 26 14  1  0
 24 18  1  0
  1 27  1  0
  1 28  1  0
  1 29  1  0
  3 30  1  0
  3 31  1  0
  3 32  1  0
  4 33  1  0
  4 34  1  0
  4 35  1  0
 11 36  1  0
 11 37  1  0
 13 38  1  0
 15 39  1  0
 16 40  1  0
 19 41  1  0
 19 42  1  0
 20 43  1  0
 20 44  1  0
 21 45  1  0
 22 46  1  0
 23 47  1  0
 23 48  1  0
 24 49  1  0
 24 50  1  0
 25 51  1  0
M  END
>  <UniqueID>  (32) 
32

>  <SMILES>  (32) 
CC(C)(C)OC(=O)n1c(C(N)=O)cc2ccc(N3CCC(O)CC3)cc21

>  <Energy>  (32) 
92.4011593080538

>  <Genealogy>  (32) 
CC(C)(C)OC(=O)n1c(C(N)=O)cc2ccc(N3CCC(O)CC3)cc21 (3D coordinates assigned)
CC(C)(C)OC(=O)n1c(C(N)=O)cc2ccc(N3CCC(O)CC3)cc21 (nonaromatic ring conformer: 92.4011593080538 kcal/mol)

>  <smiles>  (32) 
CC(C)(C)OC(=O)n1c(C(N)=O)cc2ccc(N3CCC(O)CC3)cc21

>  <score_type>  (32) 
oracle

>  <origin>  (32) 
adg

>  <m_score__min__energy>  (32) 
-9.6699999999999999

>  <m_primary>  (32) 
energy

$$$$
33:0
     RDKit          3D

 48 50  0  0  0  0  0  0  0  0999 V2000
   -4.0750   24.1280  -28.1140 C   0  0  0  0  0  0  0  0  0  0  0  0
   -2.9170   23.8230  -29.0770 C   0  0  0  0  0  0  0  0  0  0  0  0
   -1.7270   24.7390  -28.7400 C   0  0  0  0  0  0  0  0  0  0  0  0
   -2.5230   22.3390  -28.9210 C   0  0  0  0  0  0  0  0  0  0  0  0
   -3.3910   24.0920  -30.4050 O   0  0  0  0  0  0  0  0  0  0  0  0
   -3.9670   23.1720  -31.2880 C   0  0  0  0  0  0  0  0  0  0  0  0
   -3.2450   22.4960  -32.0590 O   0  0  0  0  0  0  0  0  0  0  0  0
   -5.3950   22.9910  -31.2930 N   0  0  0  0  0  0  0  0  0  0  0  0
   -6.3390   23.9110  -30.9430 C   0  0  0  0  0  0  0  0  0  0  0  0
   -6.0730   25.2400  -30.3610 C   0  0  0  0  0  0  0  0  0  0  0  0
   -4.9950   26.0480  -30.8380 N   0  0  0  0  0  0  0  0  0  0  0  0
   -6.7890   25.6540  -29.4080 O   0  0  0  0  0  0  0  0  0  0  0  0
   -7.6180   23.4270  -31.1880 C   0  0  0  0  0  0  0  0  0  0  0  0
   -7.4340   22.1610  -31.6910 C   0  0  0  0  0  0  0  0  0  0  0  0
   -8.3700   21.2290  -32.1130 C   0  0  0  0  0  0  0  0  0  0  0  0
   -7.9050   20.0060  -32.6190 C   0  0  0  0  0  0  0  0  0  0  0  0
   -6.5080   19.7260  -32.7200 C   0  0  0  0  0  0  0  0  0  0  0  0
   -6.0320   18.4490  -33.2450 N   0  0  0  0  0  0  0  0  0  0  0  0
   -5.3650   18.4120  -34.5690 C   0  0  0  0  0  0  0  0  0  0  0  0
   -4.8880   17.0140  -34.9850 C   0  0  0  0  0  0  0  0  0  0  0  0
   -5.7850   16.0180  -34.5570 O   0  0  0  0  0  0  0  0  0  0  0  0
   -5.7390   15.9560  -33.1520 C   0  0  0  0  0  0  0  0  0  0  0  0
   -6.3770   17.2000  -32.5350 C   0  0  0  0  0  0  0  0  0  0  0  0
   -5.5920   20.7220  -32.2790 C   0  0  0  0  0  0  0  0  0  0  0  0
   -6.0870   21.9200  -31.7510 C   0  0  0  0  0  0  0  0  0  0  0  0
   -3.7228   24.0352  -27.0760 H   0  0  0  0  0  0  0  0  0  0  0  0
   -4.4368   25.1521  -28.2883 H   0  0  0  0  0  0  0  0  0  0  0  0
   -4.8943   23.4150  -28.2883 H   0  0  0  0  0  0  0  0  0  0  0  0
   -1.6234   24.8187  -27.6478 H   0  0  0  0  0  0  0  0  0  0  0  0
   -0.8057   24.3148  -29.1657 H   0  0  0  0  0  0  0  0  0  0  0  0
   -1.9014   25.7382  -29.1657 H   0  0  0  0  0  0  0  0  0  0  0  0
   -2.4563   22.0878  -27.8522 H   0  0  0  0  0  0  0  0  0  0  0  0
   -3.2840   21.7053  -29.3998 H   0  0  0  0  0  0  0  0  0  0  0  0
   -1.5479   22.1662  -29.3998 H   0  0  0  0  0  0  0  0  0  0  0  0
   -4.3180   25.6790  -31.5470 H   0  0  0  0  0  0  0  0  0  0  0  0
   -4.8520   27.0110  -30.4560 H   0  0  0  0  0  0  0  0  0  0  0  0
   -8.5728   23.9455  -31.0163 H   0  0  0  0  0  0  0  0  0  0  0  0
   -9.4473   21.4427  -32.0527 H   0  0  0  0  0  0  0  0  0  0  0  0
   -8.6314   19.2469  -32.9448 H   0  0  0  0  0  0  0  0  0  0  0  0
   -6.0763   18.7748  -35.3256 H   0  0  0  0  0  0  0  0  0  0  0  0
   -4.4693   19.0461  -34.4936 H   0  0  0  0  0  0  0  0  0  0  0  0
   -4.8062   16.9751  -36.0813 H   0  0  0  0  0  0  0  0  0  0  0  0
   -3.9116   16.8266  -34.5143 H   0  0  0  0  0  0  0  0  0  0  0  0
   -6.2851   15.0637  -32.8119 H   0  0  0  0  0  0  0  0  0  0  0  0
   -4.6871   15.9038  -32.8347 H   0  0  0  0  0  0  0  0  0  0  0  0
   -7.4700   17.0779  -32.5550 H   0  0  0  0  0  0  0  0  0  0  0  0
   -5.9879   17.2906  -31.5101 H   0  0  0  0  0  0  0  0  0  0  0  0
   -4.5076   20.5523  -32.3523 H   0  0  0  0  0  0  0  0  0  0  0  0
  1  2  1  0
  2  3  1  0
  2  4  1  0
  2  5  1  0
  5  6  1  0
  6  7  2  0
  6  8  1  0
  8  9  1  0
  9 10  1  0
 10 11  1  0
 10 12  2  0
  9 13  2  0
 13 14  1  0
 14 15  2  0
 15 16  1  0
 16 17  2  0
 17 18  1  0
 18 19  1  0
 19 20  1  0
 20 21  1  0
 21 22  1  0
 22 23  1  0
 17 24  1  0
 24 25  2  0
 25  8  1  0
 25 14  1  0
 23 18  1  0
  1 26  1  0
  1 27  1  0
  1 28  1  0
  3 29  1  0
  3 30  1  0
  3 31  1  0
  4 32  1  0
  4 33  1  0
  4 34  1  0
 11 35  1  0
 11 36  1  0
 13 37  1  0
 15 38  1  0
 16 39  1  0
 19 40  1  0
 19 41  1  0
 20 42  1  0
 20 43  1  0
 22 44  1  0
 22 45  1  0
 23 46  1  0
 23 47  1  0
 24 48  1  0
M  END
>  <UniqueID>  (33) 
33

>  <SMILES>  (33) 
CC(C)(C)OC(=O)n1c(C(N)=O)cc2ccc(N3CCOCC3)cc21

>  <Energy>  (33) 
91.45310445595825

>  <Genealogy>  (33) 
CC(C)(C)OC(=O)n1c(C(N)=O)cc2ccc(N3CCOCC3)cc21 (3D coordinates assigned)
CC(C)(C)OC(=O)n1c(C(N)=O)cc2ccc(N3CCOCC3)cc21 (nonaromatic ring conformer: 91.45310445595825 kcal/mol)

>  <smiles>  (33) 
CC(C)(C)OC(=O)n1c(C(N)=O)cc2ccc(N3CCOCC3)cc21

>  <score_type>  (33) 
oracle

>  <origin>  (33) 
adg

>  <m_score__min__energy>  (33) 
-9.2200000000000006

>  <m_primary>  (33) 
energy

$$$$
34:0
     RDKit          3D

 56 58  0  0  0  0  0  0  0  0999 V2000
   -5.3730   18.1460  -35.3070 C   0  0  0  0  0  0  0  0  0  0  0  0
   -4.5300   17.3350  -34.3080 C   0  0  0  0  0  0  0  0  0  0  0  0
   -3.5990   16.3870  -35.0840 C   0  0  0  0  0  0  0  0  0  0  0  0
   -3.6870   18.2980  -33.4550 C   0  0  0  0  0  0  0  0  0  0  0  0
   -5.6700   16.3060  -33.1780 Si  0  0  0  0  0  4  0  0  0  0  0  0
   -4.7230   14.9140  -32.3450 C   0  0  0  0  0  0  0  0  0  0  0  0
   -7.0000   15.4830  -34.2050 C   0  0  0  0  0  0  0  0  0  0  0  0
   -6.4860   17.3510  -32.0490 O   0  0  0  0  0  0  0  0  0  0  0  0
   -7.2120   18.3830  -32.6870 C   0  0  1  0  0  0  0  0  0  0  0  0
   -8.3870   18.7890  -31.8100 C   0  0  0  0  0  0  0  0  0  0  0  0
   -8.6650   20.2470  -32.1460 C   0  0  0  0  0  0  0  0  0  0  0  0
   -7.3520   20.8230  -32.6950 C   0  0  1  0  0  0  0  0  0  0  0  0
   -6.7990   21.9460  -31.8350 C   0  0  0  0  0  0  0  0  0  0  0  0
   -7.5880   23.0900  -31.5370 C   0  0  0  0  0  0  0  0  0  0  0  0
   -7.0760   24.1290  -30.7460 C   0  0  0  0  0  0  0  0  0  0  0  0
   -5.7820   23.9990  -30.2540 C   0  0  0  0  0  0  0  0  0  0  0  0
   -5.0370   24.8630  -29.4850 C   0  0  0  0  0  0  0  0  0  0  0  0
   -3.8110   24.2280  -29.2970 C   0  0  0  0  0  0  0  0  0  0  0  0
   -2.7330   24.7780  -28.4500 C   0  0  0  0  0  0  0  0  0  0  0  0
   -1.7390   25.6230  -29.0270 N   0  0  0  0  0  0  0  0  0  0  0  0
   -2.6980   24.5420  -27.2140 O   0  0  0  0  0  0  0  0  0  0  0  0
   -3.7960   23.0210  -29.9330 N   0  0  0  0  0  0  0  0  0  0  0  0
   -2.7060   22.0890  -30.0330 C   0  0  0  0  0  0  0  0  0  0  0  0
   -1.7520   22.3090  -30.8260 O   0  0  0  0  0  0  0  0  0  0  0  0
   -2.7050   20.9250  -29.2740 O   0  0  0  0  0  0  0  0  0  0  0  0
   -5.0110   22.8950  -30.5110 C   0  0  0  0  0  0  0  0  0  0  0  0
   -5.4880   21.8520  -31.3130 C   0  0  0  0  0  0  0  0  0  0  0  0
   -6.3710   19.6490  -32.8130 C   0  0  0  0  0  0  0  0  0  0  0  0
   -6.0593   18.8062  -34.7565 H   0  0  0  0  0  0  0  0  0  0  0  0
   -4.7086   18.7531  -35.9394 H   0  0  0  0  0  0  0  0  0  0  0  0
   -5.9539   17.4586  -35.9394 H   0  0  0  0  0  0  0  0  0  0  0  0
   -3.0107   15.7879  -34.3734 H   0  0  0  0  0  0  0  0  0  0  0  0
   -4.2012   15.7184  -35.7167 H   0  0  0  0  0  0  0  0  0  0  0  0
   -2.9196   16.9770  -35.7167 H   0  0  0  0  0  0  0  0  0  0  0  0
   -3.8649   18.0948  -32.3887 H   0  0  0  0  0  0  0  0  0  0  0  0
   -2.6208   18.1524  -33.6831 H   0  0  0  0  0  0  0  0  0  0  0  0
   -3.9724   19.3355  -33.6831 H   0  0  0  0  0  0  0  0  0  0  0  0
   -4.7968   15.0225  -31.2529 H   0  0  0  0  0  0  0  0  0  0  0  0
   -5.1514   13.9470  -32.6472 H   0  0  0  0  0  0  0  0  0  0  0  0
   -3.6662   14.9573  -32.6472 H   0  0  0  0  0  0  0  0  0  0  0  0
   -7.7447   15.0222  -33.5393 H   0  0  0  0  0  0  0  0  0  0  0  0
   -7.4912   16.2352  -34.8397 H   0  0  0  0  0  0  0  0  0  0  0  0
   -6.5460   14.7077  -34.8397 H   0  0  0  0  0  0  0  0  0  0  0  0
   -7.5170   18.0003  -33.6722 H   0  0  0  0  0  0  0  0  0  0  0  0
   -9.2668   18.1686  -32.0358 H   0  0  0  0  0  0  0  0  0  0  0  0
   -8.1630   18.6535  -30.7416 H   0  0  0  0  0  0  0  0  0  0  0  0
   -9.4583   20.3180  -32.9047 H   0  0  0  0  0  0  0  0  0  0  0  0
   -9.0046   20.8029  -31.2596 H   0  0  0  0  0  0  0  0  0  0  0  0
   -7.5239   21.2878  -33.6771 H   0  0  0  0  0  0  0  0  0  0  0  0
   -8.6124   23.1614  -31.9314 H   0  0  0  0  0  0  0  0  0  0  0  0
   -7.6803   25.0203  -30.5215 H   0  0  0  0  0  0  0  0  0  0  0  0
   -5.3441   25.8466  -29.1001 H   0  0  0  0  0  0  0  0  0  0  0  0
   -1.6100   25.6720  -30.0620 H   0  0  0  0  0  0  0  0  0  0  0  0
   -4.8570   20.9782  -31.5326 H   0  0  0  0  0  0  0  0  0  0  0  0
   -5.8612   19.6736  -33.7874 H   0  0  0  0  0  0  0  0  0  0  0  0
   -5.5933   19.6946  -32.0364 H   0  0  0  0  0  0  0  0  0  0  0  0
  1  2  1  0
  2  3  1  0
  2  4  1  0
  2  5  1  0
  5  6  1  0
  5  7  1  0
  5  8  1  0
  8  9  1  0
  9 10  1  0
 10 11  1  0
 11 12  1  0
 12 13  1  0
 13 14  2  0
 14 15  1  0
 15 16  2  0
 16 17  1  0
 17 18  2  0
 18 19  1  0
 19 20  1  0
 19 21  2  0
 18 22  1  0
 22 23  1  0
 23 24  2  0
 23 25  1  0
 22 26  1  0
 26 27  2  0
 12 28  1  0
 28  9  1  0
 27 13  1  0
 26 16  1  0
  1 29  1  0
  1 30  1  0
  1 31  1  0
  3 32  1  0
  3 33  1  0
  3 34  1  0
  4 35  1  0
  4 36  1  0
  4 37  1  0
  6 38  1  0
  6 39  1  0
  6 40  1  0
  7 41  1  0
  7 42  1  0
  7 43  1  0
  9 44  1  6
 10 45  1  0
 10 46  1  0
 11 47  1  0
 11 48  1  0
 12 49  1  6
 14 50  1  0
 15 51  1  0
 17 52  1  0
 20 53  1  0
 27 54  1  0
 28 55  1  0
 28 56  1  0
M  CHG  2  20  -1  25  -1
M  END
>  <UniqueID>  (34) 
34

>  <SMILES>  (34) 
CC(C)(C)[Si](C)(C)O[C@H]1CC[C@@H](c2ccc3cc(C([NH-])=O)n(C(=O)[O-])c3c2)C1

>  <Energy>  (34) 
82.65647457318165

>  <Genealogy>  (34) 
CC(C)(C)[Si](C)(C)O[C@H]1CC[C@@H](c2ccc3cc(C([NH-])=O)n(C(=O)[O-])c3c2)C1 (protonated)
CC(C)(C)[Si](C)(C)O[C@H]1CC[C@@H](c2ccc3cc(C([NH-])=O)n(C(=O)[O-])c3c2)C1 (3D coordinates assigned)
CC(C)(C)[Si](C)(C)O[C@H]1CC[C@@H](c2ccc3cc(C([NH-])=O)n(C(=O)[O-])c3c2)C1 (nonaromatic ring conformer: 82.65647457318165 kcal/mol)

>  <smiles>  (34) 
CC(C)(C)[Si](C)(C)O[C@H]1CC[C@@H](c2ccc3cc(C(N)=O)n(C(=O)O)c3c2)C1

>  <score_type>  (34) 
oracle

>  <origin>  (34) 
adg

>  <m_score__min__energy>  (34) 
-11.98

>  <m_primary>  (34) 
energy

$$$$
35:0
     RDKit          3D

 46 48  0  0  0  0  0  0  0  0999 V2000
   -2.4860   19.9120  -33.6900 C   0  0  0  0  0  0  0  0  0  0  0  0
   -2.1050   20.9060  -32.5990 C   0  0  0  0  0  0  0  0  0  0  0  0
   -2.9110   22.0800  -32.6830 O   0  0  0  0  0  0  0  0  0  0  0  0
   -3.4980   22.6950  -31.5720 C   0  0  0  0  0  0  0  0  0  0  0  0
   -2.7800   23.1510  -30.6410 O   0  0  0  0  0  0  0  0  0  0  0  0
   -4.9280   22.7870  -31.4820 N   0  0  0  0  0  0  0  0  0  0  0  0
   -5.6680   23.8440  -31.0470 C   0  0  0  0  0  0  0  0  0  0  0  0
   -5.1440   25.0670  -30.4050 C   0  0  0  0  0  0  0  0  0  0  0  0
   -3.9140   25.6480  -30.8300 N   0  0  0  0  0  0  0  0  0  0  0  0
   -5.7640   25.5790  -29.4350 O   0  0  0  0  0  0  0  0  0  0  0  0
   -7.0290   23.5890  -31.2130 C   0  0  0  0  0  0  0  0  0  0  0  0
   -7.0990   22.3290  -31.7610 C   0  0  0  0  0  0  0  0  0  0  0  0
   -8.2080   21.5820  -32.1470 C   0  0  0  0  0  0  0  0  0  0  0  0
   -7.9840   20.3190  -32.7190 C   0  0  0  0  0  0  0  0  0  0  0  0
   -6.6660   19.8290  -32.9040 C   0  0  0  0  0  0  0  0  0  0  0  0
   -6.4500   18.5380  -33.5090 N   0  0  0  0  0  0  0  0  0  0  0  0
   -5.7410   18.4290  -34.7880 C   0  0  0  0  0  0  0  0  0  0  0  0
   -4.8550   17.1680  -34.8310 C   0  0  0  0  0  0  0  0  0  0  0  0
   -5.4120   15.9950  -34.0960 N   0  0  0  0  0  0  0  0  0  0  0  0
   -4.6440   15.7180  -32.8650 C   0  0  0  0  0  0  0  0  0  0  0  0
   -6.8600   16.1150  -33.8130 C   0  0  0  0  0  0  0  0  0  0  0  0
   -7.1760   17.3720  -32.9910 C   0  0  0  0  0  0  0  0  0  0  0  0
   -5.5650   20.6210  -32.4990 C   0  0  0  0  0  0  0  0  0  0  0  0
   -5.8190   21.8660  -31.9150 C   0  0  0  0  0  0  0  0  0  0  0  0
   -2.8433   18.9798  -33.2282 H   0  0  0  0  0  0  0  0  0  0  0  0
   -3.2835   20.3409  -34.3146 H   0  0  0  0  0  0  0  0  0  0  0  0
   -1.6062   19.6980  -34.3146 H   0  0  0  0  0  0  0  0  0  0  0  0
   -2.2523   20.4365  -31.6152 H   0  0  0  0  0  0  0  0  0  0  0  0
   -1.0508   21.1904  -32.7320 H   0  0  0  0  0  0  0  0  0  0  0  0
   -2.9990   25.2970  -30.4690 H   0  0  0  0  0  0  0  0  0  0  0  0
   -7.8680   24.2538  -30.9597 H   0  0  0  0  0  0  0  0  0  0  0  0
   -9.2284   21.9688  -32.0084 H   0  0  0  0  0  0  0  0  0  0  0  0
   -8.8412   19.7024  -33.0273 H   0  0  0  0  0  0  0  0  0  0  0  0
   -6.4779   18.3773  -35.6030 H   0  0  0  0  0  0  0  0  0  0  0  0
   -5.0949   19.3117  -34.9034 H   0  0  0  0  0  0  0  0  0  0  0  0
   -4.7179   16.8802  -35.8838 H   0  0  0  0  0  0  0  0  0  0  0  0
   -3.9115   17.4314  -34.3306 H   0  0  0  0  0  0  0  0  0  0  0  0
   -5.2970   15.1520  -34.7090 H   0  0  0  0  0  0  0  0  0  0  0  0
   -5.2664   15.9425  -31.9862 H   0  0  0  0  0  0  0  0  0  0  0  0
   -4.3516   14.6578  -32.8460 H   0  0  0  0  0  0  0  0  0  0  0  0
   -3.7421   16.3475  -32.8460 H   0  0  0  0  0  0  0  0  0  0  0  0
   -7.4064   16.1659  -34.7663 H   0  0  0  0  0  0  0  0  0  0  0  0
   -7.1688   15.2363  -33.2278 H   0  0  0  0  0  0  0  0  0  0  0  0
   -8.2568   17.5709  -33.0397 H   0  0  0  0  0  0  0  0  0  0  0  0
   -6.8616   17.1980  -31.9514 H   0  0  0  0  0  0  0  0  0  0  0  0
   -4.5337   20.2655  -32.6403 H   0  0  0  0  0  0  0  0  0  0  0  0
  1  2  1  0
  2  3  1  0
  3  4  1  0
  4  5  2  0
  4  6  1  0
  6  7  1  0
  7  8  1  0
  8  9  1  0
  8 10  2  0
  7 11  2  0
 11 12  1  0
 12 13  2  0
 13 14  1  0
 14 15  2  0
 15 16  1  0
 16 17  1  0
 17 18  1  0
 18 19  1  0
 19 20  1  0
 19 21  1  0
 21 22  1  0
 15 23  1  0
 23 24  2  0
 24  6  1  0
 24 12  1  0
 22 16  1  0
  1 25  1  0
  1 26  1  0
  1 27  1  0
  2 28  1  0
  2 29  1  0
  9 30  1  0
 11 31  1  0
 13 32  1  0
 14 33  1  0
 17 34  1  0
 17 35  1  0
 18 36  1  0
 18 37  1  0
 19 38  1  0
 20 39  1  0
 20 40  1  0
 20 41  1  0
 21 42  1  0
 21 43  1  0
 22 44  1  0
 22 45  1  0
 23 46  1  0
M  CHG  2   9  -1  19   1
M  END
>  <UniqueID>  (35) 
35

>  <SMILES>  (35) 
CCOC(=O)n1c(C([NH-])=O)cc2ccc(N3CC[NH+](C)CC3)cc21

>  <Energy>  (35) 
93.67385071254871

>  <Genealogy>  (35) 
CCOC(=O)n1c(C([NH-])=O)cc2ccc(N3CC[NH+](C)CC3)cc21 (protonated)
CCOC(=O)n1c(C([NH-])=O)cc2ccc(N3CC[NH+](C)CC3)cc21 (3D coordinates assigned)
CCOC(=O)n1c(C([NH-])=O)cc2ccc(N3CC[NH+](C)CC3)cc21 (nonaromatic ring conformer: 93.67385071254871 kcal/mol)

>  <smiles>  (35) 
CCOC(=O)n1c(C(N)=O)cc2ccc(N3CCN(C)CC3)cc21

>  <score_type>  (35) 
oracle

>  <origin>  (35) 
adg

>  <m_score__min__energy>  (35) 
-10

>  <m_primary>  (35) 
energy

$$$$
36:0
     RDKit          3D

 28 29  0  0  0  0  0  0  0  0999 V2000
   -8.1450   20.1800  -32.2560 C   0  0  0  0  0  0  0  0  0  0  0  0
   -7.0420   20.4070  -33.2840 C   0  0  0  0  0  0  0  0  0  0  0  0
   -5.7320   20.6990  -32.6030 C   0  0  0  0  0  0  0  0  0  0  0  0
   -4.6680   19.7660  -32.6800 C   0  0  0  0  0  0  0  0  0  0  0  0
   -3.4330   20.0360  -32.0660 C   0  0  0  0  0  0  0  0  0  0  0  0
   -3.2880   21.2510  -31.4020 C   0  0  0  0  0  0  0  0  0  0  0  0
   -2.2120   21.7570  -30.7090 C   0  0  0  0  0  0  0  0  0  0  0  0
   -2.6220   23.0070  -30.2510 C   0  0  0  0  0  0  0  0  0  0  0  0
   -1.7320   23.9410  -29.5310 C   0  0  0  0  0  0  0  0  0  0  0  0
   -2.1050   25.3010  -29.3290 N   0  0  0  0  0  0  0  0  0  0  0  0
   -0.6050   23.5450  -29.1320 O   0  0  0  0  0  0  0  0  0  0  0  0
   -3.9050   23.2600  -30.6370 N   0  0  0  0  0  0  0  0  0  0  0  0
   -4.7240   24.3900  -30.2910 C   0  0  0  0  0  0  0  0  0  0  0  0
   -4.4530   25.6720  -30.8530 N   0  0  0  0  0  0  0  0  0  0  0  0
   -5.6650   24.2590  -29.4650 O   0  0  0  0  0  0  0  0  0  0  0  0
   -4.2970   22.1770  -31.3440 C   0  0  0  0  0  0  0  0  0  0  0  0
   -5.5420   21.9270  -31.9300 C   0  0  0  0  0  0  0  0  0  0  0  0
   -7.7254   20.2664  -31.2429 H   0  0  0  0  0  0  0  0  0  0  0  0
   -8.9337   20.9346  -32.3918 H   0  0  0  0  0  0  0  0  0  0  0  0
   -8.5716   19.1752  -32.3918 H   0  0  0  0  0  0  0  0  0  0  0  0
   -6.9338   19.5041  -33.9029 H   0  0  0  0  0  0  0  0  0  0  0  0
   -7.3146   21.2689  -33.9107 H   0  0  0  0  0  0  0  0  0  0  0  0
   -4.8102   18.8215  -33.2256 H   0  0  0  0  0  0  0  0  0  0  0  0
   -2.6073   19.3105  -32.1087 H   0  0  0  0  0  0  0  0  0  0  0  0
   -1.2354   21.2763  -30.5504 H   0  0  0  0  0  0  0  0  0  0  0  0
   -3.1080   25.5900  -29.3430 H   0  0  0  0  0  0  0  0  0  0  0  0
   -3.4780   26.0420  -30.9000 H   0  0  0  0  0  0  0  0  0  0  0  0
   -6.3530   22.6676  -31.8686 H   0  0  0  0  0  0  0  0  0  0  0  0
  1  2  1  0
  2  3  1  0
  3  4  2  0
  4  5  1  0
  5  6  2  0
  6  7  1  0
  7  8  2  0
  8  9  1  0
  9 10  1  0
  9 11  2  0
  8 12  1  0
 12 13  1  0
 13 14  1  0
 13 15  2  0
 12 16  1  0
 16 17  2  0
 17  3  1  0
 16  6  1  0
  1 18  1  0
  1 19  1  0
  1 20  1  0
  2 21  1  0
  2 22  1  0
  4 23  1  0
  5 24  1  0
  7 25  1  0
 10 26  1  0
 14 27  1  0
 17 28  1  0
M  CHG  2  10  -1  14  -1
M  END
>  <UniqueID>  (36) 
36

>  <SMILES>  (36) 
CCc1ccc2cc(C([NH-])=O)n(C([NH-])=O)c2c1

>  <Energy>  (36) 
64.4818224634508

>  <Genealogy>  (36) 
CCc1ccc2cc(C([NH-])=O)n(C([NH-])=O)c2c1 (protonated)
CCc1ccc2cc(C([NH-])=O)n(C([NH-])=O)c2c1 (3D coordinates assigned)
CCc1ccc2cc(C([NH-])=O)n(C([NH-])=O)c2c1 (optimized conformer: 64.4818224634508 kcal/mol)

>  <smiles>  (36) 
CCc1ccc2cc(C(N)=O)n(C(N)=O)c2c1

>  <score_type>  (36) 
oracle

>  <origin>  (36) 
adg

>  <m_score__min__energy>  (36) 
-9.6400000000000006

>  <m_primary>  (36) 
energy

$$$$
37:0
     RDKit          3D

 32 33  0  0  0  0  0  0  0  0999 V2000
   -3.8610   23.5100  -27.9840 C   0  0  0  0  0  0  0  0  0  0  0  0
   -3.0510   22.5860  -28.8860 C   0  0  0  0  0  0  0  0  0  0  0  0
   -2.9560   23.1240  -30.2020 O   0  0  0  0  0  0  0  0  0  0  0  0
   -3.7410   22.6860  -31.2740 C   0  0  0  0  0  0  0  0  0  0  0  0
   -3.2040   22.1350  -32.2740 O   0  0  0  0  0  0  0  0  0  0  0  0
   -5.1630   22.8810  -31.2420 N   0  0  0  0  0  0  0  0  0  0  0  0
   -5.8390   24.0360  -30.9780 C   0  0  0  0  0  0  0  0  0  0  0  0
   -5.2440   25.2980  -30.4920 C   0  0  0  0  0  0  0  0  0  0  0  0
   -3.9140   25.6660  -30.8460 N   0  0  0  0  0  0  0  0  0  0  0  0
   -5.9020   26.0380  -29.7120 O   0  0  0  0  0  0  0  0  0  0  0  0
   -7.2090   23.8500  -31.1520 C   0  0  0  0  0  0  0  0  0  0  0  0
   -7.3540   22.5350  -31.5260 C   0  0  0  0  0  0  0  0  0  0  0  0
   -8.5030   21.8170  -31.8470 C   0  0  0  0  0  0  0  0  0  0  0  0
   -8.3550   20.4760  -32.2370 C   0  0  0  0  0  0  0  0  0  0  0  0
   -7.0710   19.8790  -32.2970 C   0  0  0  0  0  0  0  0  0  0  0  0
   -6.9210   18.4580  -32.7580 C   0  0  0  0  0  0  0  0  0  0  0  0
   -6.0950   18.4070  -33.9680 C   0  0  0  0  0  0  0  0  0  0  0  0
   -5.4420   18.3690  -34.9230 N   0  0  0  0  0  0  0  0  0  0  0  0
   -5.9260   20.6420  -31.9760 C   0  0  0  0  0  0  0  0  0  0  0  0
   -6.1050   21.9710  -31.5730 C   0  0  0  0  0  0  0  0  0  0  0  0
   -3.6513   23.2708  -26.9310 H   0  0  0  0  0  0  0  0  0  0  0  0
   -3.5827   24.5551  -28.1850 H   0  0  0  0  0  0  0  0  0  0  0  0
   -4.9335   23.3710  -28.1850 H   0  0  0  0  0  0  0  0  0  0  0  0
   -2.0396   22.4700  -28.4693 H   0  0  0  0  0  0  0  0  0  0  0  0
   -3.5562   21.6103  -28.9382 H   0  0  0  0  0  0  0  0  0  0  0  0
   -3.0940   25.2880  -30.3220 H   0  0  0  0  0  0  0  0  0  0  0  0
   -8.0055   24.5969  -31.0185 H   0  0  0  0  0  0  0  0  0  0  0  0
   -9.4967   22.2860  -31.7966 H   0  0  0  0  0  0  0  0  0  0  0  0
   -9.2441   19.8834  -32.4984 H   0  0  0  0  0  0  0  0  0  0  0  0
   -6.4411   17.8665  -31.9644 H   0  0  0  0  0  0  0  0  0  0  0  0
   -7.9154   18.0448  -32.9825 H   0  0  0  0  0  0  0  0  0  0  0  0
   -4.9194   20.2031  -32.0410 H   0  0  0  0  0  0  0  0  0  0  0  0
  1  2  1  0
  2  3  1  0
  3  4  1  0
  4  5  2  0
  4  6  1  0
  6  7  1  0
  7  8  1  0
  8  9  1  0
  8 10  2  0
  7 11  2  0
 11 12  1  0
 12 13  2  0
 13 14  1  0
 14 15  2  0
 15 16  1  0
 16 17  1  0
 17 18  3  0
 15 19  1  0
 19 20  2  0
 20  6  1  0
 20 12  1  0
  1 21  1  0
  1 22  1  0
  1 23  1  0
  2 24  1  0
  2 25  1  0
  9 26  1  0
 11 27  1  0
 13 28  1  0
 14 29  1  0
 16 30  1  0
 16 31  1  0
 19 32  1  0
M  CHG  1   9  -1
M  END
>  <UniqueID>  (37) 
37

>  <SMILES>  (37) 
CCOC(=O)n1c(C([NH-])=O)cc2ccc(CC#N)cc21

>  <Energy>  (37) 
65.56256905495643

>  <Genealogy>  (37) 
CCOC(=O)n1c(C([NH-])=O)cc2ccc(CC#N)cc21 (protonated)
CCOC(=O)n1c(C([NH-])=O)cc2ccc(CC#N)cc21 (3D coordinates assigned)
CCOC(=O)n1c(C([NH-])=O)cc2ccc(CC#N)cc21 (optimized conformer: 65.56256905495643 kcal/mol)

>  <smiles>  (37) 
CCOC(=O)n1c(C(N)=O)cc2ccc(CC#N)cc21

>  <score_type>  (37) 
oracle

>  <origin>  (37) 
adg

>  <m_score__min__energy>  (37) 
-9.9900000000000002

>  <m_primary>  (37) 
energy

$$$$
38:0
     RDKit          3D

 26 27  0  0  0  0  0  0  0  0999 V2000
   -7.4910   18.4240  -32.9720 C   0  0  0  0  0  0  0  0  0  0  0  0
   -7.5170   19.7890  -32.3520 C   0  0  0  0  0  0  0  0  0  0  0  0
   -8.7350   20.3220  -31.8610 C   0  0  0  0  0  0  0  0  0  0  0  0
   -8.7810   21.6190  -31.3190 C   0  0  0  0  0  0  0  0  0  0  0  0
   -7.6010   22.3550  -31.2890 C   0  0  0  0  0  0  0  0  0  0  0  0
   -7.3670   23.6370  -30.8450 C   0  0  0  0  0  0  0  0  0  0  0  0
   -6.0110   23.8640  -31.0680 C   0  0  0  0  0  0  0  0  0  0  0  0
   -5.3100   25.0960  -30.6490 C   0  0  0  0  0  0  0  0  0  0  0  0
   -3.9000   25.2280  -30.8060 N   0  0  0  0  0  0  0  0  0  0  0  0
   -5.9600   26.0290  -30.1050 O   0  0  0  0  0  0  0  0  0  0  0  0
   -5.4310   22.7690  -31.6380 N   0  0  0  0  0  0  0  0  0  0  0  0
   -4.0790   22.6250  -32.1000 C   0  0  0  0  0  0  0  0  0  0  0  0
   -3.8120   22.2750  -33.4580 N   0  0  0  0  0  0  0  0  0  0  0  0
   -3.1200   22.7720  -31.2960 O   0  0  0  0  0  0  0  0  0  0  0  0
   -6.4160   21.8530  -31.7600 C   0  0  0  0  0  0  0  0  0  0  0  0
   -6.3420   20.5720  -32.3180 C   0  0  0  0  0  0  0  0  0  0  0  0
   -7.4765   17.6615  -32.1793 H   0  0  0  0  0  0  0  0  0  0  0  0
   -8.3867   18.2875  -33.5958 H   0  0  0  0  0  0  0  0  0  0  0  0
   -6.5907   18.3217  -33.5958 H   0  0  0  0  0  0  0  0  0  0  0  0
   -9.6521   19.7162  -31.9042 H   0  0  0  0  0  0  0  0  0  0  0  0
   -9.7209   22.0384  -30.9309 H   0  0  0  0  0  0  0  0  0  0  0  0
   -8.0964   24.3343  -30.4070 H   0  0  0  0  0  0  0  0  0  0  0  0
   -3.4900   26.0430  -31.3120 H   0  0  0  0  0  0  0  0  0  0  0  0
   -2.8290   22.1830  -33.7950 H   0  0  0  0  0  0  0  0  0  0  0  0
   -4.5960   22.0740  -34.1180 H   0  0  0  0  0  0  0  0  0  0  0  0
   -5.3938   20.1850  -32.7196 H   0  0  0  0  0  0  0  0  0  0  0  0
  1  2  1  0
  2  3  2  0
  3  4  1  0
  4  5  2  0
  5  6  1  0
  6  7  2  0
  7  8  1  0
  8  9  1  0
  8 10  2  0
  7 11  1  0
 11 12  1  0
 12 13  1  0
 12 14  2  0
 11 15  1  0
 15 16  2  0
 16  2  1  0
 15  5  1  0
  1 17  1  0
  1 18  1  0
  1 19  1  0
  3 20  1  0
  4 21  1  0
  6 22  1  0
  9 23  1  0
 13 24  1  0
 13 25  1  0
 16 26  1  0
M  CHG  1   9  -1
M  END
>  <UniqueID>  (38) 
38

>  <SMILES>  (38) 
Cc1ccc2cc(C([NH-])=O)n(C(N)=O)c2c1

>  <Energy>  (38) 
64.32867929493311

>  <Genealogy>  (38) 
Cc1ccc2cc(C([NH-])=O)n(C(N)=O)c2c1 (protonated)
Cc1ccc2cc(C([NH-])=O)n(C(N)=O)c2c1 (3D coordinates assigned)
Cc1ccc2cc(C([NH-])=O)n(C(N)=O)c2c1 (optimized conformer: 64.32867929493311 kcal/mol)

>  <smiles>  (38) 
Cc1ccc2cc(C(N)=O)n(C(N)=O)c2c1

>  <score_type>  (38) 
oracle

>  <origin>  (38) 
adg

>  <m_score__min__energy>  (38) 
-10.15

>  <m_primary>  (38) 
energy

$$$$
39:0
     RDKit          3D

 42 44  0  0  0  0  0  0  0  0999 V2000
   -3.7710   12.1940  -33.6340 C   0  0  0  0  0  0  0  0  0  0  0  0
   -4.4910   13.3180  -33.0280 N   0  0  0  0  0  0  0  0  0  0  0  0
   -4.5530   13.4490  -31.5680 C   0  0  0  0  0  0  0  0  0  0  0  0
   -5.2630   14.1930  -33.8740 C   0  0  0  0  0  0  0  0  0  0  0  0
   -5.7080   13.7620  -34.9720 O   0  0  0  0  0  0  0  0  0  0  0  0
   -5.5600   15.5880  -33.4850 C   0  0  0  0  0  0  0  0  0  0  0  0
   -4.5600   16.3840  -32.9080 C   0  0  0  0  0  0  0  0  0  0  0  0
   -4.8360   17.6990  -32.5230 C   0  0  0  0  0  0  0  0  0  0  0  0
   -6.1230   18.2400  -32.6970 C   0  0  0  0  0  0  0  0  0  0  0  0
   -6.4180   19.6370  -32.2910 C   0  0  0  0  0  0  0  0  0  0  0  0
   -7.7590   20.1000  -32.2290 C   0  0  0  0  0  0  0  0  0  0  0  0
   -8.0480   21.4160  -31.8340 C   0  0  0  0  0  0  0  0  0  0  0  0
   -6.9820   22.2520  -31.5170 C   0  0  0  0  0  0  0  0  0  0  0  0
   -6.9820   23.5570  -31.0810 C   0  0  0  0  0  0  0  0  0  0  0  0
   -5.6400   23.8860  -30.9030 C   0  0  0  0  0  0  0  0  0  0  0  0
   -5.1770   25.2340  -30.5110 C   0  0  0  0  0  0  0  0  0  0  0  0
   -3.8610   25.6600  -30.8570 N   0  0  0  0  0  0  0  0  0  0  0  0
   -5.9190   26.0040  -29.8470 O   0  0  0  0  0  0  0  0  0  0  0  0
   -4.8420   22.8240  -31.2120 N   0  0  0  0  0  0  0  0  0  0  0  0
   -3.4110   22.7370  -31.1080 C   0  0  0  0  0  0  0  0  0  0  0  0
   -2.7360   23.3170  -29.9950 N   0  0  0  0  0  0  0  0  0  0  0  0
   -2.7440   22.1590  -32.0070 O   0  0  0  0  0  0  0  0  0  0  0  0
   -5.6800   21.8310  -31.5880 C   0  0  0  0  0  0  0  0  0  0  0  0
   -5.3630   20.5190  -31.9580 C   0  0  0  0  0  0  0  0  0  0  0  0
   -7.1280   17.4320  -33.2580 C   0  0  0  0  0  0  0  0  0  0  0  0
   -6.8500   16.1170  -33.6420 C   0  0  0  0  0  0  0  0  0  0  0  0
   -3.3597   11.5519  -32.8412 H   0  0  0  0  0  0  0  0  0  0  0  0
   -4.4628   11.6089  -34.2577 H   0  0  0  0  0  0  0  0  0  0  0  0
   -2.9502   12.5778  -34.2577 H   0  0  0  0  0  0  0  0  0  0  0  0
   -4.1270   12.5489  -31.1007 H   0  0  0  0  0  0  0  0  0  0  0  0
   -3.9774   14.3324  -31.2543 H   0  0  0  0  0  0  0  0  0  0  0  0
   -5.6011   13.5639  -31.2543 H   0  0  0  0  0  0  0  0  0  0  0  0
   -3.5518   15.9708  -32.7574 H   0  0  0  0  0  0  0  0  0  0  0  0
   -4.0403   18.3161  -32.0802 H   0  0  0  0  0  0  0  0  0  0  0  0
   -8.5815   19.4193  -32.4937 H   0  0  0  0  0  0  0  0  0  0  0  0
   -9.0861   21.7753  -31.7769 H   0  0  0  0  0  0  0  0  0  0  0  0
   -7.8556   24.2030  -30.9095 H   0  0  0  0  0  0  0  0  0  0  0  0
   -3.0280   25.3080  -30.3340 H   0  0  0  0  0  0  0  0  0  0  0  0
   -2.3590   24.2890  -30.0430 H   0  0  0  0  0  0  0  0  0  0  0  0
   -4.3167   20.1810  -31.9892 H   0  0  0  0  0  0  0  0  0  0  0  0
   -8.1410   17.8380  -33.3957 H   0  0  0  0  0  0  0  0  0  0  0  0
   -7.6480   15.4927  -34.0702 H   0  0  0  0  0  0  0  0  0  0  0  0
  1  2  1  0
  2  3  1  0
  2  4  1  0
  4  5  2  0
  4  6  1  0
  6  7  2  0
  7  8  1  0
  8  9  2  0
  9 10  1  0
 10 11  2  0
 11 12  1  0
 12 13  2  0
 13 14  1  0
 14 15  2  0
 15 16  1  0
 16 17  1  0
 16 18  2  0
 15 19  1  0
 19 20  1  0
 20 21  1  0
 20 22  2  0
 19 23  1  0
 23 24  2  0
  9 25  1  0
 25 26  2  0
 26  6  1  0
 24 10  1  0
 23 13  1  0
  1 27  1  0
  1 28  1  0
  1 29  1  0
  3 30  1  0
  3 31  1  0
  3 32  1  0
  7 33  1  0
  8 34  1  0
 11 35  1  0
 12 36  1  0
 14 37  1  0
 17 38  1  0
 21 39  1  0
 24 40  1  0
 25 41  1  0
 26 42  1  0
M  CHG  2  17  -1  21  -1
M  END
>  <UniqueID>  (39) 
39

>  <SMILES>  (39) 
CN(C)C(=O)c1ccc(-c2ccc3cc(C([NH-])=O)n(C([NH-])=O)c3c2)cc1

>  <Energy>  (39) 
91.67232779176722

>  <Genealogy>  (39) 
CN(C)C(=O)c1ccc(-c2ccc3cc(C([NH-])=O)n(C([NH-])=O)c3c2)cc1 (protonated)
CN(C)C(=O)c1ccc(-c2ccc3cc(C([NH-])=O)n(C([NH-])=O)c3c2)cc1 (3D coordinates assigned)
CN(C)C(=O)c1ccc(-c2ccc3cc(C([NH-])=O)n(C([NH-])=O)c3c2)cc1 (optimized conformer: 91.67232779176722 kcal/mol)

>  <smiles>  (39) 
CN(C)C(=O)c1ccc(-c2ccc3cc(C(N)=O)n(C(N)=O)c3c2)cc1

>  <score_type>  (39) 
oracle

>  <origin>  (39) 
adg

>  <m_score__min__energy>  (39) 
-10.98

>  <m_primary>  (39) 
energy

$$$$
40:0
     RDKit          3D

 28 29  0  0  0  0  0  0  0  0999 V2000
   -3.6690   25.2320  -30.4660 N   0  0  0  0  0  0  0  0  0  0  0  0
   -5.0680   25.2610  -30.7320 C   0  0  0  0  0  0  0  0  0  0  0  0
   -5.6600   26.3730  -30.7900 O   0  0  0  0  0  0  0  0  0  0  0  0
   -5.8250   24.0160  -30.9820 C   0  0  0  0  0  0  0  0  0  0  0  0
   -7.1590   23.8400  -30.6170 C   0  0  0  0  0  0  0  0  0  0  0  0
   -7.5030   22.5910  -31.0820 C   0  0  0  0  0  0  0  0  0  0  0  0
   -8.7080   21.8990  -30.9860 C   0  0  0  0  0  0  0  0  0  0  0  0
   -8.7690   20.6070  -31.5320 C   0  0  0  0  0  0  0  0  0  0  0  0
   -7.6280   20.0240  -32.1410 C   0  0  0  0  0  0  0  0  0  0  0  0
   -7.7140   18.6460  -32.7370 C   0  0  0  0  0  0  0  0  0  0  0  0
   -6.4340   18.2970  -33.4320 C   0  0  0  0  0  0  0  0  0  0  0  0
   -6.1510   18.8100  -34.5040 O   0  0  0  0  0  0  0  0  0  0  0  0
   -6.4250   20.7600  -32.2270 C   0  0  0  0  0  0  0  0  0  0  0  0
   -6.4000   22.0540  -31.6940 C   0  0  0  0  0  0  0  0  0  0  0  0
   -5.3630   22.9180  -31.6430 N   0  0  0  0  0  0  0  0  0  0  0  0
   -4.0310   22.6730  -32.1200 C   0  0  0  0  0  0  0  0  0  0  0  0
   -3.8080   22.2990  -33.4790 N   0  0  0  0  0  0  0  0  0  0  0  0
   -3.0520   22.7800  -31.3340 O   0  0  0  0  0  0  0  0  0  0  0  0
   -2.9890   24.9330  -31.2000 H   0  0  0  0  0  0  0  0  0  0  0  0
   -7.8005   24.5489  -30.0729 H   0  0  0  0  0  0  0  0  0  0  0  0
   -9.5842   22.3506  -30.4978 H   0  0  0  0  0  0  0  0  0  0  0  0
   -9.7111   20.0410  -31.4871 H   0  0  0  0  0  0  0  0  0  0  0  0
   -7.9024   17.9158  -31.9361 H   0  0  0  0  0  0  0  0  0  0  0  0
   -8.5349   18.6244  -33.4689 H   0  0  0  0  0  0  0  0  0  0  0  0
   -5.7437   17.5735  -32.9738 H   0  0  0  0  0  0  0  0  0  0  0  0
   -5.5314   20.3273  -32.7005 H   0  0  0  0  0  0  0  0  0  0  0  0
   -4.5990   22.2670  -34.1580 H   0  0  0  0  0  0  0  0  0  0  0  0
   -2.8410   22.0920  -33.8170 H   0  0  0  0  0  0  0  0  0  0  0  0
  1  2  1  0
  2  3  2  0
  2  4  1  0
  4  5  2  0
  5  6  1  0
  6  7  2  0
  7  8  1  0
  8  9  2  0
  9 10  1  0
 10 11  1  0
 11 12  2  0
  9 13  1  0
 13 14  2  0
 14 15  1  0
 15 16  1  0
 16 17  1  0
 16 18  2  0
 15  4  1  0
 14  6  1  0
  1 19  1  0
  5 20  1  0
  7 21  1  0
  8 22  1  0
 10 23  1  0
 10 24  1  0
 11 25  1  0
 13 26  1  0
 17 27  1  0
 17 28  1  0
M  CHG  1   1  -1
M  END
>  <UniqueID>  (40) 
40

>  <SMILES>  (40) 
[NH-]C(=O)c1cc2ccc(CC=O)cc2n1C(N)=O

>  <Energy>  (40) 
64.94647478934596

>  <Genealogy>  (40) 
[NH-]C(=O)c1cc2ccc(CC=O)cc2n1C(N)=O (protonated)
[NH-]C(=O)c1cc2ccc(CC=O)cc2n1C(N)=O (3D coordinates assigned)
[NH-]C(=O)c1cc2ccc(CC=O)cc2n1C(N)=O (optimized conformer: 64.94647478934596 kcal/mol)

>  <smiles>  (40) 
NC(=O)c1cc2ccc(CC=O)cc2n1C(N)=O

>  <score_type>  (40) 
oracle

>  <origin>  (40) 
adg

>  <m_score__min__energy>  (40) 
-9.7300000000000004

>  <m_primary>  (40) 
energy

$$$$
41:0
     RDKit          3D

 39 41  0  0  0  0  0  0  0  0999 V2000
   -2.7000   15.3320  -35.7790 C   0  0  0  0  0  0  0  0  0  0  0  0
   -3.4490   14.6280  -34.7470 N   0  0  0  0  0  0  0  0  0  0  0  0
   -4.8150   14.8920  -34.4030 C   0  0  0  0  0  0  0  0  0  0  0  0
   -5.6690   13.9840  -34.5760 O   0  0  0  0  0  0  0  0  0  0  0  0
   -5.2580   16.2040  -33.8870 C   0  0  0  0  0  0  0  0  0  0  0  0
   -5.3170   17.3080  -34.7490 C   0  0  0  0  0  0  0  0  0  0  0  0
   -5.7470   18.5520  -34.2770 C   0  0  0  0  0  0  0  0  0  0  0  0
   -6.1420   18.7080  -32.9360 C   0  0  0  0  0  0  0  0  0  0  0  0
   -6.5980   20.0290  -32.4330 C   0  0  0  0  0  0  0  0  0  0  0  0
   -7.9830   20.3370  -32.3760 C   0  0  0  0  0  0  0  0  0  0  0  0
   -8.4230   21.5870  -31.9110 C   0  0  0  0  0  0  0  0  0  0  0  0
   -7.4630   22.5070  -31.5040 C   0  0  0  0  0  0  0  0  0  0  0  0
   -7.6140   23.7920  -31.0350 C   0  0  0  0  0  0  0  0  0  0  0  0
   -6.3200   24.2500  -30.7910 C   0  0  0  0  0  0  0  0  0  0  0  0
   -6.0120   25.5620  -30.1800 C   0  0  0  0  0  0  0  0  0  0  0  0
   -6.4230   25.8610  -28.8450 N   0  0  0  0  0  0  0  0  0  0  0  0
   -5.3530   26.4200  -30.8240 O   0  0  0  0  0  0  0  0  0  0  0  0
   -5.4070   23.2860  -31.1000 N   0  0  0  0  0  0  0  0  0  0  0  0
   -3.9730   23.3880  -31.0520 C   0  0  0  0  0  0  0  0  0  0  0  0
   -3.3530   24.5450  -30.4940 N   0  0  0  0  0  0  0  0  0  0  0  0
   -3.2560   22.4660  -31.5230 O   0  0  0  0  0  0  0  0  0  0  0  0
   -6.1230   22.2250  -31.5330 C   0  0  0  0  0  0  0  0  0  0  0  0
   -5.6530   20.9950  -32.0080 C   0  0  0  0  0  0  0  0  0  0  0  0
   -6.1040   17.5920  -32.0830 C   0  0  0  0  0  0  0  0  0  0  0  0
   -5.6730   16.3510  -32.5560 C   0  0  0  0  0  0  0  0  0  0  0  0
   -1.9760   16.0125  -35.3069 H   0  0  0  0  0  0  0  0  0  0  0  0
   -2.1640   14.6032  -36.4047 H   0  0  0  0  0  0  0  0  0  0  0  0
   -3.3943   15.9120  -36.4047 H   0  0  0  0  0  0  0  0  0  0  0  0
   -5.0233   17.1949  -35.8030 H   0  0  0  0  0  0  0  0  0  0  0  0
   -5.7766   19.4145  -34.9590 H   0  0  0  0  0  0  0  0  0  0  0  0
   -8.7201   19.5875  -32.6999 H   0  0  0  0  0  0  0  0  0  0  0  0
   -9.4948   21.8310  -31.8700 H   0  0  0  0  0  0  0  0  0  0  0  0
   -8.5553   24.3409  -30.8846 H   0  0  0  0  0  0  0  0  0  0  0  0
   -7.0160   25.1970  -28.2990 H   0  0  0  0  0  0  0  0  0  0  0  0
   -6.1680   26.7740  -28.4100 H   0  0  0  0  0  0  0  0  0  0  0  0
   -3.4100   25.4690  -30.9780 H   0  0  0  0  0  0  0  0  0  0  0  0
   -4.5744   20.7833  -32.0503 H   0  0  0  0  0  0  0  0  0  0  0  0
   -6.4165   17.6970  -31.0336 H   0  0  0  0  0  0  0  0  0  0  0  0
   -5.6590   15.4833  -31.8801 H   0  0  0  0  0  0  0  0  0  0  0  0
  1  2  1  0
  2  3  1  0
  3  4  2  0
  3  5  1  0
  5  6  2  0
  6  7  1  0
  7  8  2  0
  8  9  1  0
  9 10  2  0
 10 11  1  0
 11 12  2  0
 12 13  1  0
 13 14  2  0
 14 15  1  0
 15 16  1  0
 15 17  2  0
 14 18  1  0
 18 19  1  0
 19 20  1  0
 19 21  2  0
 18 22  1  0
 22 23  2  0
  8 24  1  0
 24 25  2  0
 25  5  1  0
 23  9  1  0
 22 12  1  0
  1 26  1  0
  1 27  1  0
  1 28  1  0
  6 29  1  0
  7 30  1  0
 10 31  1  0
 11 32  1  0
 13 33  1  0
 16 34  1  0
 16 35  1  0
 20 36  1  0
 23 37  1  0
 24 38  1  0
 25 39  1  0
M  CHG  2   2  -1  20  -1
M  END
>  <UniqueID>  (41) 
41

>  <SMILES>  (41) 
C[N-]C(=O)c1ccc(-c2ccc3cc(C(N)=O)n(C([NH-])=O)c3c2)cc1

>  <Energy>  (41) 
89.16540502476545

>  <Genealogy>  (41) 
C[N-]C(=O)c1ccc(-c2ccc3cc(C(N)=O)n(C([NH-])=O)c3c2)cc1 (protonated)
C[N-]C(=O)c1ccc(-c2ccc3cc(C(N)=O)n(C([NH-])=O)c3c2)cc1 (3D coordinates assigned)
C[N-]C(=O)c1ccc(-c2ccc3cc(C(N)=O)n(C([NH-])=O)c3c2)cc1 (optimized conformer: 89.16540502476545 kcal/mol)

>  <smiles>  (41) 
CNC(=O)c1ccc(-c2ccc3cc(C(N)=O)n(C(N)=O)c3c2)cc1

>  <score_type>  (41) 
oracle

>  <origin>  (41) 
adg

>  <m_score__min__energy>  (41) 
-9.6999999999999993

>  <m_primary>  (41) 
energy

$$$$
42:0
     RDKit          3D

 37 39  0  0  0  0  0  0  0  0999 V2000
   -6.9350   18.4130  -32.4950 C   0  0  0  0  0  0  0  0  0  0  0  0
   -7.0630   19.8750  -32.1830 C   0  0  0  0  0  0  0  0  0  0  0  0
   -8.3280   20.5070  -32.2610 C   0  0  0  0  0  0  0  0  0  0  0  0
   -8.4720   21.8640  -31.9250 C   0  0  0  0  0  0  0  0  0  0  0  0
   -7.3380   22.5560  -31.5110 C   0  0  0  0  0  0  0  0  0  0  0  0
   -7.1980   23.8630  -31.1020 C   0  0  0  0  0  0  0  0  0  0  0  0
   -5.8470   24.0100  -30.7890 C   0  0  0  0  0  0  0  0  0  0  0  0
   -5.2390   25.2970  -30.3900 C   0  0  0  0  0  0  0  0  0  0  0  0
   -3.9340   25.6600  -30.8340 N   0  0  0  0  0  0  0  0  0  0  0  0
   -5.9000   26.1070  -29.6860 O   0  0  0  0  0  0  0  0  0  0  0  0
   -5.1830   22.8360  -30.9840 N   0  0  0  0  0  0  0  0  0  0  0  0
   -3.8040   22.5490  -30.7070 C   0  0  0  0  0  0  0  0  0  0  0  0
   -2.8970   23.2150  -31.2750 O   0  0  0  0  0  0  0  0  0  0  0  0
   -3.4760   21.5420  -29.7920 O   0  0  0  0  0  0  0  0  0  0  0  0
   -2.9280   21.8080  -28.5030 C   0  0  0  0  0  0  0  0  0  0  0  0
   -1.9910   22.9750  -28.5720 C   0  0  0  0  0  0  0  0  0  0  0  0
   -2.3670   24.2150  -28.7830 O   0  0  0  0  0  0  0  0  0  0  0  0
   -1.2670   24.9330  -28.7640 C   0  0  0  0  0  0  0  0  0  0  0  0
   -1.2450   26.1800  -28.9320 O   0  0  0  0  0  0  0  0  0  0  0  0
   -0.1940   24.2070  -28.5480 O   0  0  0  0  0  0  0  0  0  0  0  0
   -0.6160   22.9710  -28.4250 C   0  0  0  0  0  0  0  0  0  0  0  0
    0.2670   21.7950  -28.1650 C   0  0  0  0  0  0  0  0  0  0  0  0
   -6.1060   21.9590  -31.4320 C   0  0  0  0  0  0  0  0  0  0  0  0
   -5.9370   20.6050  -31.7430 C   0  0  0  0  0  0  0  0  0  0  0  0
   -6.8849   17.8409  -31.5568 H   0  0  0  0  0  0  0  0  0  0  0  0
   -7.8078   18.0848  -33.0785 H   0  0  0  0  0  0  0  0  0  0  0  0
   -6.0184   18.2415  -33.0785 H   0  0  0  0  0  0  0  0  0  0  0  0
   -9.2060   19.9304  -32.5876 H   0  0  0  0  0  0  0  0  0  0  0  0
   -9.4502   22.3633  -31.9873 H   0  0  0  0  0  0  0  0  0  0  0  0
   -7.9848   24.6289  -31.0361 H   0  0  0  0  0  0  0  0  0  0  0  0
   -3.0820   25.2580  -30.3850 H   0  0  0  0  0  0  0  0  0  0  0  0
   -3.7435   22.0374  -27.8014 H   0  0  0  0  0  0  0  0  0  0  0  0
   -2.3746   20.9223  -28.1576 H   0  0  0  0  0  0  0  0  0  0  0  0
    0.3754   21.6507  -27.0799 H   0  0  0  0  0  0  0  0  0  0  0  0
   -0.1802   20.8948  -28.6118 H   0  0  0  0  0  0  0  0  0  0  0  0
    1.2562   21.9733  -28.6118 H   0  0  0  0  0  0  0  0  0  0  0  0
   -4.9533   20.1222  -31.6473 H   0  0  0  0  0  0  0  0  0  0  0  0
  1  2  1  0
  2  3  2  0
  3  4  1  0
  4  5  2  0
  5  6  1  0
  6  7  2  0
  7  8  1  0
  8  9  1  0
  8 10  2  0
  7 11  1  0
 11 12  1  0
 12 13  2  0
 12 14  1  0
 14 15  1  0
 15 16  1  0
 16 17  1  0
 17 18  1  0
 18 19  2  0
 18 20  1  0
 20 21  1  0
 21 22  1  0
 11 23  1  0
 23 24  2  0
 24  2  1  0
 23  5  1  0
 21 16  2  0
  1 25  1  0
  1 26  1  0
  1 27  1  0
  3 28  1  0
  4 29  1  0
  6 30  1  0
  9 31  1  0
 15 32  1  0
 15 33  1  0
 22 34  1  0
 22 35  1  0
 22 36  1  0
 24 37  1  0
M  CHG  1   9  -1
M  END
>  <UniqueID>  (42) 
42

>  <SMILES>  (42) 
Cc1ccc2cc(C([NH-])=O)n(C(=O)OCc3oc(=O)oc3C)c2c1

>  <Energy>  (42) 
107.19164365156114

>  <Genealogy>  (42) 
Cc1ccc2cc(C([NH-])=O)n(C(=O)OCc3oc(=O)oc3C)c2c1 (protonated)
Cc1ccc2cc(C([NH-])=O)n(C(=O)OCc3oc(=O)oc3C)c2c1 (3D coordinates assigned)
Cc1ccc2cc(C([NH-])=O)n(C(=O)OCc3oc(=O)oc3C)c2c1 (optimized conformer: 107.19164365156114 kcal/mol)

>  <smiles>  (42) 
Cc1ccc2cc(C(N)=O)n(C(=O)OCc3oc(=O)oc3C)c2c1

>  <score_type>  (42) 
oracle

>  <origin>  (42) 
adg

>  <m_score__min__energy>  (42) 
-10.359999999999999

>  <m_primary>  (42) 
energy

$$$$
43:0
     RDKit          3D

 55 58  0  0  0  0  0  0  0  0999 V2000
   -3.5240   23.6920  -27.8160 C   0  0  0  0  0  0  0  0  0  0  0  0
   -2.4430   23.4510  -28.8630 C   0  0  0  0  0  0  0  0  0  0  0  0
   -2.8620   23.9360  -30.1370 O   0  0  0  0  0  0  0  0  0  0  0  0
   -3.4210   23.1190  -31.1270 C   0  0  0  0  0  0  0  0  0  0  0  0
   -2.6790   22.4850  -31.9250 O   0  0  0  0  0  0  0  0  0  0  0  0
   -4.8490   23.0190  -31.2440 N   0  0  0  0  0  0  0  0  0  0  0  0
   -5.7760   23.9740  -30.9530 C   0  0  0  0  0  0  0  0  0  0  0  0
   -5.5140   25.2630  -30.2810 C   0  0  0  0  0  0  0  0  0  0  0  0
   -4.3020   25.9760  -30.5140 N   0  0  0  0  0  0  0  0  0  0  0  0
   -6.3480   25.7180  -29.4540 O   0  0  0  0  0  0  0  0  0  0  0  0
   -7.0530   23.5400  -31.3060 C   0  0  0  0  0  0  0  0  0  0  0  0
   -6.8800   22.2750  -31.8190 C   0  0  0  0  0  0  0  0  0  0  0  0
   -7.8130   21.3840  -32.3370 C   0  0  0  0  0  0  0  0  0  0  0  0
   -7.3470   20.1550  -32.8320 C   0  0  0  0  0  0  0  0  0  0  0  0
   -5.9630   19.8400  -32.8090 C   0  0  0  0  0  0  0  0  0  0  0  0
   -5.4800   18.5420  -33.3470 C   0  0  0  0  0  0  0  0  0  0  0  0
   -6.3870   17.5120  -33.6520 C   0  0  0  0  0  0  0  0  0  0  0  0
   -5.9320   16.2920  -34.1590 C   0  0  0  0  0  0  0  0  0  0  0  0
   -4.5600   16.0720  -34.3740 C   0  0  0  0  0  0  0  0  0  0  0  0
   -4.0910   14.8070  -34.8960 N   0  0  0  0  0  0  0  0  0  0  0  0
   -4.5190   13.5460  -34.2750 C   0  0  0  0  0  0  0  0  0  0  0  0
   -3.5150   12.4320  -34.5880 C   0  0  0  0  0  0  0  0  0  0  0  0
   -3.3450   12.2410  -36.0450 N   0  0  0  0  0  0  0  0  0  0  0  0
   -2.1460   11.4330  -36.3150 C   0  0  0  0  0  0  0  0  0  0  0  0
   -3.3450   13.4970  -36.8430 C   0  0  0  0  0  0  0  0  0  0  0  0
   -3.1240   14.7620  -36.0000 C   0  0  0  0  0  0  0  0  0  0  0  0
   -3.6540   17.1020  -34.0660 C   0  0  0  0  0  0  0  0  0  0  0  0
   -4.1090   18.3230  -33.5600 C   0  0  0  0  0  0  0  0  0  0  0  0
   -5.0460   20.7750  -32.2730 C   0  0  0  0  0  0  0  0  0  0  0  0
   -5.5400   21.9830  -31.7700 C   0  0  0  0  0  0  0  0  0  0  0  0
   -3.0887   23.5950  -26.8105 H   0  0  0  0  0  0  0  0  0  0  0  0
   -3.9363   24.7041  -27.9409 H   0  0  0  0  0  0  0  0  0  0  0  0
   -4.3272   22.9509  -27.9409 H   0  0  0  0  0  0  0  0  0  0  0  0
   -1.5240   23.9747  -28.5611 H   0  0  0  0  0  0  0  0  0  0  0  0
   -2.2570   22.3695  -28.9386 H   0  0  0  0  0  0  0  0  0  0  0  0
   -3.6150   25.6490  -31.2290 H   0  0  0  0  0  0  0  0  0  0  0  0
   -7.9984   24.0918  -31.1974 H   0  0  0  0  0  0  0  0  0  0  0  0
   -8.8840   21.6340  -32.3585 H   0  0  0  0  0  0  0  0  0  0  0  0
   -8.0631   19.4278  -33.2424 H   0  0  0  0  0  0  0  0  0  0  0  0
   -7.4638   17.6678  -33.4902 H   0  0  0  0  0  0  0  0  0  0  0  0
   -6.6543   15.4958  -34.3922 H   0  0  0  0  0  0  0  0  0  0  0  0
   -4.5828   13.6814  -33.1852 H   0  0  0  0  0  0  0  0  0  0  0  0
   -5.5031   13.2645  -34.6778 H   0  0  0  0  0  0  0  0  0  0  0  0
   -2.5421   12.6950  -34.1472 H   0  0  0  0  0  0  0  0  0  0  0  0
   -3.9005   11.4939  -34.1622 H   0  0  0  0  0  0  0  0  0  0  0  0
   -1.6892   11.1252  -35.3628 H   0  0  0  0  0  0  0  0  0  0  0  0
   -2.4280   10.5400  -36.8920 H   0  0  0  0  0  0  0  0  0  0  0  0
   -1.4241   12.0296  -36.8920 H   0  0  0  0  0  0  0  0  0  0  0  0
   -2.5415   13.4333  -37.5915 H   0  0  0  0  0  0  0  0  0  0  0  0
   -4.3400   13.5863  -37.3034 H   0  0  0  0  0  0  0  0  0  0  0  0
   -2.1034   14.7523  -35.5897 H   0  0  0  0  0  0  0  0  0  0  0  0
   -3.2626   15.6482  -36.6368 H   0  0  0  0  0  0  0  0  0  0  0  0
   -2.5768   16.9455  -34.2247 H   0  0  0  0  0  0  0  0  0  0  0  0
   -3.3870   19.1194  -33.3266 H   0  0  0  0  0  0  0  0  0  0  0  0
   -3.9681   20.5565  -32.2524 H   0  0  0  0  0  0  0  0  0  0  0  0
  1  2  1  0
  2  3  1  0
  3  4  1  0
  4  5  2  0
  4  6  1  0
  6  7  1  0
  7  8  1  0
  8  9  1  0
  8 10  2  0
  7 11  2  0
 11 12  1  0
 12 13  2  0
 13 14  1  0
 14 15  2  0
 15 16  1  0
 16 17  2  0
 17 18  1  0
 18 19  2  0
 19 20  1  0
 20 21  1  0
 21 22  1  0
 22 23  1  0
 23 24  1  0
 23 25  1  0
 25 26  1  0
 19 27  1  0
 27 28  2  0
 15 29  1  0
 29 30  2  0
 30  6  1  0
 30 12  1  0
 28 16  1  0
 26 20  1  0
  1 31  1  0
  1 32  1  0
  1 33  1  0
  2 34  1  0
  2 35  1  0
  9 36  1  0
 11 37  1  0
 13 38  1  0
 14 39  1  0
 17 40  1  0
 18 41  1  0
 21 42  1  0
 21 43  1  0
 22 44  1  0
 22 45  1  0
 24 46  1  0
 24 47  1  0
 24 48  1  0
 25 49  1  0
 25 50  1  0
 26 51  1  0
 26 52  1  0
 27 53  1  0
 28 54  1  0
 29 55  1  0
M  CHG  1   9  -1
M  END
>  <UniqueID>  (43) 
43

>  <SMILES>  (43) 
CCOC(=O)n1c(C([NH-])=O)cc2ccc(-c3ccc(N4CCN(C)CC4)cc3)cc21

>  <Energy>  (43) 
108.05199185352201

>  <Genealogy>  (43) 
CCOC(=O)n1c(C([NH-])=O)cc2ccc(-c3ccc(N4CCN(C)CC4)cc3)cc21 (protonated)
CCOC(=O)n1c(C([NH-])=O)cc2ccc(-c3ccc(N4CCN(C)CC4)cc3)cc21 (3D coordinates assigned)
CCOC(=O)n1c(C([NH-])=O)cc2ccc(-c3ccc(N4CCN(C)CC4)cc3)cc21 (nonaromatic ring conformer: 108.05199185352201 kcal/mol)

>  <smiles>  (43) 
CCOC(=O)n1c(C(N)=O)cc2ccc(-c3ccc(N4CCN(C)CC4)cc3)cc21

>  <score_type>  (43) 
oracle

>  <origin>  (43) 
adg

>  <m_score__min__energy>  (43) 
-9.9499999999999993

>  <m_primary>  (43) 
energy

$$$$
44:0
     RDKit          3D

 59 61  0  0  0  0  0  0  0  0999 V2000
   -2.8860   21.0450  -28.9370 C   0  0  0  0  0  0  0  0  0  0  0  0
   -2.6770   22.5660  -28.8120 C   0  0  0  0  0  0  0  0  0  0  0  0
   -3.8510   23.1650  -28.0220 C   0  0  0  0  0  0  0  0  0  0  0  0
   -1.3640   22.8760  -28.0660 C   0  0  0  0  0  0  0  0  0  0  0  0
   -2.6800   23.1830  -30.1060 O   0  0  0  0  0  0  0  0  0  0  0  0
   -3.3540   22.7220  -31.2480 C   0  0  0  0  0  0  0  0  0  0  0  0
   -2.7190   22.2670  -32.2350 O   0  0  0  0  0  0  0  0  0  0  0  0
   -4.7900   22.7470  -31.2730 N   0  0  0  0  0  0  0  0  0  0  0  0
   -5.6180   23.7990  -31.0160 C   0  0  0  0  0  0  0  0  0  0  0  0
   -5.2040   25.1250  -30.5120 C   0  0  0  0  0  0  0  0  0  0  0  0
   -3.9240   25.6490  -30.8640 N   0  0  0  0  0  0  0  0  0  0  0  0
   -5.9800   25.8190  -29.8060 O   0  0  0  0  0  0  0  0  0  0  0  0
   -6.9480   23.4320  -31.2110 C   0  0  0  0  0  0  0  0  0  0  0  0
   -6.9100   22.1100  -31.5910 C   0  0  0  0  0  0  0  0  0  0  0  0
   -7.9480   21.2450  -31.9220 C   0  0  0  0  0  0  0  0  0  0  0  0
   -7.6160   19.9340  -32.3060 C   0  0  0  0  0  0  0  0  0  0  0  0
   -6.2600   19.5120  -32.3570 C   0  0  0  0  0  0  0  0  0  0  0  0
   -5.8980   18.1040  -32.7890 C   0  0  1  0  0  0  0  0  0  0  0  0
   -6.4940   17.7940  -34.1790 C   0  0  0  0  0  0  0  0  0  0  0  0
   -6.1040   18.8110  -35.1540 N   0  0  0  0  0  0  0  0  0  0  0  0
   -4.3660   17.9090  -32.7500 C   0  0  0  0  0  0  0  0  0  0  0  0
   -3.7610   18.4440  -33.9130 O   0  0  0  0  0  0  0  0  0  0  0  0
   -2.3980   18.0790  -33.9810 C   0  0  0  0  0  0  0  0  0  0  0  0
   -1.5760   19.1700  -33.3630 C   0  0  0  0  0  0  0  0  0  0  0  0
   -1.3080   19.1560  -31.9840 C   0  0  0  0  0  0  0  0  0  0  0  0
   -0.5070   20.1490  -31.4120 C   0  0  0  0  0  0  0  0  0  0  0  0
    0.0400   21.1550  -32.2130 C   0  0  0  0  0  0  0  0  0  0  0  0
   -0.2060   21.1660  -33.5880 C   0  0  0  0  0  0  0  0  0  0  0  0
   -1.0070   20.1740  -34.1640 C   0  0  0  0  0  0  0  0  0  0  0  0
   -5.2360   20.4280  -32.0180 C   0  0  0  0  0  0  0  0  0  0  0  0
   -5.5980   21.7200  -31.6220 C   0  0  0  0  0  0  0  0  0  0  0  0
   -2.9472   20.5996  -27.9331 H   0  0  0  0  0  0  0  0  0  0  0  0
   -3.8198   20.8469  -29.4836 H   0  0  0  0  0  0  0  0  0  0  0  0
   -2.0402   20.6024  -29.4836 H   0  0  0  0  0  0  0  0  0  0  0  0
   -3.6562   23.0656  -26.9440 H   0  0  0  0  0  0  0  0  0  0  0  0
   -3.9604   24.2291  -28.2783 H   0  0  0  0  0  0  0  0  0  0  0  0
   -4.7768   22.6291  -28.2783 H   0  0  0  0  0  0  0  0  0  0  0  0
   -1.5401   22.8344  -26.9810 H   0  0  0  0  0  0  0  0  0  0  0  0
   -0.6011   22.1333  -28.3424 H   0  0  0  0  0  0  0  0  0  0  0  0
   -1.0139   23.8815  -28.3424 H   0  0  0  0  0  0  0  0  0  0  0  0
   -3.0550   25.2900  -30.4080 H   0  0  0  0  0  0  0  0  0  0  0  0
   -7.8392   24.0648  -31.0874 H   0  0  0  0  0  0  0  0  0  0  0  0
   -8.9962   21.5766  -31.8844 H   0  0  0  0  0  0  0  0  0  0  0  0
   -8.4156   19.2263  -32.5702 H   0  0  0  0  0  0  0  0  0  0  0  0
   -6.3372   17.3843  -32.0825 H   0  0  0  0  0  0  0  0  0  0  0  0
   -6.1286   16.8129  -34.5166 H   0  0  0  0  0  0  0  0  0  0  0  0
   -7.5909   17.7889  -34.0971 H   0  0  0  0  0  0  0  0  0  0  0  0
   -6.9050   19.4750  -35.2730 H   0  0  0  0  0  0  0  0  0  0  0  0
   -5.3200   19.3660  -34.7390 H   0  0  0  0  0  0  0  0  0  0  0  0
   -3.9599   18.4201  -31.8646 H   0  0  0  0  0  0  0  0  0  0  0  0
   -4.1489   16.8316  -32.7036 H   0  0  0  0  0  0  0  0  0  0  0  0
   -2.2387   17.1394  -33.4317 H   0  0  0  0  0  0  0  0  0  0  0  0
   -2.1008   17.9349  -35.0302 H   0  0  0  0  0  0  0  0  0  0  0  0
   -1.7299   18.3608  -31.3519 H   0  0  0  0  0  0  0  0  0  0  0  0
   -0.3072   20.1384  -30.3304 H   0  0  0  0  0  0  0  0  0  0  0  0
    0.6649   21.9390  -31.7603 H   0  0  0  0  0  0  0  0  0  0  0  0
    0.2303   21.9550  -34.2182 H   0  0  0  0  0  0  0  0  0  0  0  0
   -1.1919   20.1803  -35.2483 H   0  0  0  0  0  0  0  0  0  0  0  0
   -4.1780   20.1305  -32.0649 H   0  0  0  0  0  0  0  0  0  0  0  0
  1  2  1  0
  2  3  1  0
  2  4  1  0
  2  5  1  0
  5  6  1  0
  6  7  2  0
  6  8  1  0
  8  9  1  0
  9 10  1  0
 10 11  1  0
 10 12  2  0
  9 13  2  0
 13 14  1  0
 14 15  2  0
 15 16  1  0
 16 17  2  0
 17 18  1  0
 18 19  1  0
 19 20  1  0
 18 21  1  0
 21 22  1  0
 22 23  1  0
 23 24  1  0
 24 25  2  0
 25 26  1  0
 26 27  2  0
 27 28  1  0
 28 29  2  0
 17 30  1  0
 30 31  2  0
 31  8  1  0
 31 14  1  0
 29 24  1  0
  1 32  1  0
  1 33  1  0
  1 34  1  0
  3 35  1  0
  3 36  1  0
  3 37  1  0
  4 38  1  0
  4 39  1  0
  4 40  1  0
 11 41  1  0
 13 42  1  0
 15 43  1  0
 16 44  1  0
 18 45  1  1
 19 46  1  0
 19 47  1  0
 20 48  1  0
 20 49  1  0
 21 50  1  0
 21 51  1  0
 23 52  1  0
 23 53  1  0
 25 54  1  0
 26 55  1  0
 27 56  1  0
 28 57  1  0
 29 58  1  0
 30 59  1  0
M  CHG  1  11  -1
M  END
>  <UniqueID>  (44) 
44

>  <SMILES>  (44) 
CC(C)(C)OC(=O)n1c(C([NH-])=O)cc2ccc([C@@H](CN)COCc3ccccc3)cc21

>  <Energy>  (44) 
92.81582506290594

>  <Genealogy>  (44) 
CC(C)(C)OC(=O)n1c(C([NH-])=O)cc2ccc([C@@H](CN)COCc3ccccc3)cc21 (protonated)
CC(C)(C)OC(=O)n1c(C([NH-])=O)cc2ccc([C@@H](CN)COCc3ccccc3)cc21 (3D coordinates assigned)
CC(C)(C)OC(=O)n1c(C([NH-])=O)cc2ccc([C@@H](CN)COCc3ccccc3)cc21 (optimized conformer: 92.81582506290594 kcal/mol)

>  <smiles>  (44) 
CC(C)(C)OC(=O)n1c(C(N)=O)cc2ccc([C@@H](CN)COCc3ccccc3)cc21

>  <score_type>  (44) 
oracle

>  <origin>  (44) 
adg

>  <m_score__min__energy>  (44) 
-11.539999999999999

>  <m_primary>  (44) 
energy

$$$$
45:0
     RDKit          3D

 30 32  0  0  0  0  0  0  0  0999 V2000
   -1.5360   25.9690  -28.9190 N   0  0  0  0  0  0  0  0  0  0  0  0
   -0.8950   24.6980  -28.9870 C   0  0  0  0  0  0  0  0  0  0  0  0
    0.1730   24.5100  -28.3470 O   0  0  0  0  0  0  0  0  0  0  0  0
   -1.4970   23.5840  -29.7500 C   0  0  0  0  0  0  0  0  0  0  0  0
   -0.7840   22.4530  -30.1420 C   0  0  0  0  0  0  0  0  0  0  0  0
   -1.7100   21.6270  -30.7360 C   0  0  0  0  0  0  0  0  0  0  0  0
   -1.5480   20.3740  -31.3150 C   0  0  0  0  0  0  0  0  0  0  0  0
   -2.6750   19.7570  -31.8830 C   0  0  0  0  0  0  0  0  0  0  0  0
   -3.9410   20.4040  -31.8700 C   0  0  0  0  0  0  0  0  0  0  0  0
   -5.1360   19.7720  -32.4760 C   0  0  0  0  0  0  0  0  0  0  0  0
   -5.2030   19.0990  -33.6870 C   0  0  0  0  0  0  0  0  0  0  0  0
   -6.5120   18.6910  -33.8230 C   0  0  0  0  0  0  0  0  0  0  0  0
   -7.1630   19.1370  -32.6900 C   0  0  0  0  0  0  0  0  0  0  0  0
   -8.5800   18.9460  -32.3730 C   0  0  0  0  0  0  0  0  0  0  0  0
   -9.4370   19.8010  -32.7190 O   0  0  0  0  0  0  0  0  0  0  0  0
   -6.3220   19.7740  -31.9090 O   0  0  0  0  0  0  0  0  0  0  0  0
   -4.0610   21.6790  -31.2710 C   0  0  0  0  0  0  0  0  0  0  0  0
   -2.9240   22.2600  -30.6970 C   0  0  0  0  0  0  0  0  0  0  0  0
   -2.8100   23.4670  -30.0970 N   0  0  0  0  0  0  0  0  0  0  0  0
   -3.8460   24.4520  -29.9550 C   0  0  0  0  0  0  0  0  0  0  0  0
   -4.7530   24.3030  -29.0940 O   0  0  0  0  0  0  0  0  0  0  0  0
   -3.8740   25.5650  -30.7850 O   0  0  0  0  0  0  0  0  0  0  0  0
   -2.5750   26.0500  -28.9670 H   0  0  0  0  0  0  0  0  0  0  0  0
    0.2905   22.2613  -30.0056 H   0  0  0  0  0  0  0  0  0  0  0  0
   -0.5655   19.8796  -31.3281 H   0  0  0  0  0  0  0  0  0  0  0  0
   -2.5770   18.7625  -32.3428 H   0  0  0  0  0  0  0  0  0  0  0  0
   -4.3788   18.9262  -34.3947 H   0  0  0  0  0  0  0  0  0  0  0  0
   -6.9480   18.1269  -34.6606 H   0  0  0  0  0  0  0  0  0  0  0  0
   -8.8989   18.0460  -31.8268 H   0  0  0  0  0  0  0  0  0  0  0  0
   -5.0277   22.2036  -31.2563 H   0  0  0  0  0  0  0  0  0  0  0  0
  1  2  1  0
  2  3  2  0
  2  4  1  0
  4  5  2  0
  5  6  1  0
  6  7  2  0
  7  8  1  0
  8  9  2  0
  9 10  1  0
 10 11  2  0
 11 12  1  0
 12 13  2  0
 13 14  1  0
 14 15  2  0
 13 16  1  0
  9 17  1  0
 17 18  2  0
 18 19  1  0
 19 20  1  0
 20 21  2  0
 20 22  1  0
 19  4  1  0
 18  6  1  0
 16 10  1  0
  1 23  1  0
  5 24  1  0
  7 25  1  0
  8 26  1  0
 11 27  1  0
 12 28  1  0
 14 29  1  0
 17 30  1  0
M  CHG  2   1  -1  22  -1
M  END
>  <UniqueID>  (45) 
45

>  <SMILES>  (45) 
[NH-]C(=O)c1cc2ccc(-c3ccc(C=O)o3)cc2n1C(=O)[O-]

>  <Energy>  (45) 
98.8709310279655

>  <Genealogy>  (45) 
[NH-]C(=O)c1cc2ccc(-c3ccc(C=O)o3)cc2n1C(=O)[O-] (protonated)
[NH-]C(=O)c1cc2ccc(-c3ccc(C=O)o3)cc2n1C(=O)[O-] (3D coordinates assigned)
[NH-]C(=O)c1cc2ccc(-c3ccc(C=O)o3)cc2n1C(=O)[O-] (optimized conformer: 98.8709310279655 kcal/mol)

>  <smiles>  (45) 
NC(=O)c1cc2ccc(-c3ccc(C=O)o3)cc2n1C(=O)O

>  <score_type>  (45) 
oracle

>  <origin>  (45) 
adg

>  <m_score__min__energy>  (45) 
-11.109999999999999

>  <m_primary>  (45) 
energy

$$$$
46:0
     RDKit          3D

 32 33  0  0  0  0  0  0  0  0999 V2000
   -6.4310   17.1530  -32.4700 C   0  0  0  0  0  0  0  0  0  0  0  0
   -6.8230   18.2510  -33.4660 C   0  0  0  0  0  0  0  0  0  0  0  0
   -5.7680   18.3990  -34.5670 C   0  0  0  0  0  0  0  0  0  0  0  0
   -7.0620   19.5720  -32.7580 C   0  0  0  0  0  0  0  0  0  0  0  0
   -8.3700   19.9180  -32.3350 C   0  0  0  0  0  0  0  0  0  0  0  0
   -8.6190   21.1420  -31.6960 C   0  0  0  0  0  0  0  0  0  0  0  0
   -7.5450   21.9990  -31.4820 C   0  0  0  0  0  0  0  0  0  0  0  0
   -7.5150   23.2450  -30.9060 C   0  0  0  0  0  0  0  0  0  0  0  0
   -6.1870   23.6490  -30.9770 C   0  0  0  0  0  0  0  0  0  0  0  0
   -5.7110   24.9370  -30.4480 C   0  0  0  0  0  0  0  0  0  0  0  0
   -5.9950   25.3240  -29.1040 N   0  0  0  0  0  0  0  0  0  0  0  0
   -4.9840   25.6730  -31.1680 O   0  0  0  0  0  0  0  0  0  0  0  0
   -5.4110   22.6820  -31.5470 N   0  0  0  0  0  0  0  0  0  0  0  0
   -3.9710   22.6610  -31.6380 C   0  0  0  0  0  0  0  0  0  0  0  0
   -3.1840   23.5850  -30.8910 N   0  0  0  0  0  0  0  0  0  0  0  0
   -3.3910   21.8500  -32.4070 O   0  0  0  0  0  0  0  0  0  0  0  0
   -6.2660   21.6790  -31.8650 C   0  0  0  0  0  0  0  0  0  0  0  0
   -5.9940   20.4730  -32.5230 C   0  0  0  0  0  0  0  0  0  0  0  0
   -6.5638   17.5249  -31.4433 H   0  0  0  0  0  0  0  0  0  0  0  0
   -7.0699   16.2713  -32.6261 H   0  0  0  0  0  0  0  0  0  0  0  0
   -5.3782   16.8752  -32.6261 H   0  0  0  0  0  0  0  0  0  0  0  0
   -7.7674   17.9498  -33.9430 H   0  0  0  0  0  0  0  0  0  0  0  0
   -4.7774   18.5380  -34.1093 H   0  0  0  0  0  0  0  0  0  0  0  0
   -5.7598   17.4932  -35.1911 H   0  0  0  0  0  0  0  0  0  0  0  0
   -6.0093   19.2721  -35.1911 H   0  0  0  0  0  0  0  0  0  0  0  0
   -9.2003   19.2180  -32.5100 H   0  0  0  0  0  0  0  0  0  0  0  0
   -9.6344   21.4158  -31.3736 H   0  0  0  0  0  0  0  0  0  0  0  0
   -8.3610   23.8039  -30.4796 H   0  0  0  0  0  0  0  0  0  0  0  0
   -5.6660   26.2450  -28.7400 H   0  0  0  0  0  0  0  0  0  0  0  0
   -6.4820   24.6690  -28.4530 H   0  0  0  0  0  0  0  0  0  0  0  0
   -3.1320   24.5910  -31.1650 H   0  0  0  0  0  0  0  0  0  0  0  0
   -4.9724   20.2303  -32.8506 H   0  0  0  0  0  0  0  0  0  0  0  0
  1  2  1  0
  2  3  1  0
  2  4  1  0
  4  5  2  0
  5  6  1  0
  6  7  2  0
  7  8  1  0
  8  9  2  0
  9 10  1  0
 10 11  1  0
 10 12  2  0
  9 13  1  0
 13 14  1  0
 14 15  1  0
 14 16  2  0
 13 17  1  0
 17 18  2  0
 18  4  1  0
 17  7  1  0
  1 19  1  0
  1 20  1  0
  1 21  1  0
  2 22  1  0
  3 23  1  0
  3 24  1  0
  3 25  1  0
  5 26  1  0
  6 27  1  0
  8 28  1  0
 11 29  1  0
 11 30  1  0
 15 31  1  0
 18 32  1  0
M  CHG  1  15  -1
M  END
>  <UniqueID>  (46) 
46

>  <SMILES>  (46) 
CC(C)c1ccc2cc(C(N)=O)n(C([NH-])=O)c2c1

>  <Energy>  (46) 
71.01602131611948

>  <Genealogy>  (46) 
CC(C)c1ccc2cc(C(N)=O)n(C([NH-])=O)c2c1 (protonated)
CC(C)c1ccc2cc(C(N)=O)n(C([NH-])=O)c2c1 (3D coordinates assigned)
CC(C)c1ccc2cc(C(N)=O)n(C([NH-])=O)c2c1 (optimized conformer: 71.01602131611948 kcal/mol)

>  <smiles>  (46) 
CC(C)c1ccc2cc(C(N)=O)n(C(N)=O)c2c1

>  <score_type>  (46) 
oracle

>  <origin>  (46) 
adg

>  <m_score__min__energy>  (46) 
-9.1699999999999999

>  <m_primary>  (46) 
energy

$$$$
47:0
     RDKit          3D

 46 48  0  0  0  0  0  0  0  0999 V2000
   -2.6660   20.2180  -31.3120 C   0  0  0  0  0  0  0  0  0  0  0  0
   -2.5670   20.9390  -32.6640 C   0  0  0  0  0  0  0  0  0  0  0  0
   -1.0910   21.2830  -32.9400 C   0  0  0  0  0  0  0  0  0  0  0  0
   -3.1260   20.0150  -33.7630 C   0  0  0  0  0  0  0  0  0  0  0  0
   -3.3540   22.1340  -32.5640 O   0  0  0  0  0  0  0  0  0  0  0  0
   -3.8080   22.7370  -31.3820 C   0  0  0  0  0  0  0  0  0  0  0  0
   -2.9990   23.1210  -30.4960 O   0  0  0  0  0  0  0  0  0  0  0  0
   -5.2170   22.9450  -31.1990 N   0  0  0  0  0  0  0  0  0  0  0  0
   -5.8610   24.0980  -30.8590 C   0  0  0  0  0  0  0  0  0  0  0  0
   -5.2190   25.3690  -30.4660 C   0  0  0  0  0  0  0  0  0  0  0  0
   -3.8780   25.6640  -30.8490 N   0  0  0  0  0  0  0  0  0  0  0  0
   -5.8470   26.1880  -29.7440 O   0  0  0  0  0  0  0  0  0  0  0  0
   -7.2400   23.8970  -30.8390 C   0  0  0  0  0  0  0  0  0  0  0  0
   -7.4220   22.5740  -31.1690 C   0  0  0  0  0  0  0  0  0  0  0  0
   -8.5940   21.8330  -31.2900 C   0  0  0  0  0  0  0  0  0  0  0  0
   -8.4830   20.4800  -31.6580 C   0  0  0  0  0  0  0  0  0  0  0  0
   -7.2140   19.9030  -31.9140 C   0  0  0  0  0  0  0  0  0  0  0  0
   -7.1050   18.4490  -32.2850 C   0  0  0  0  0  0  0  0  0  0  0  0
   -6.3730   18.2790  -33.6250 C   0  0  0  0  0  0  0  0  0  0  0  0
   -6.4540   19.3820  -34.5890 N   0  0  0  0  0  0  0  0  0  0  0  0
   -6.3670   16.8790  -34.2300 C   0  0  0  0  0  0  0  0  0  0  0  0
   -5.0830   17.4690  -33.6470 C   0  0  0  0  0  0  0  0  0  0  0  0
   -6.0470   20.6860  -31.7770 C   0  0  0  0  0  0  0  0  0  0  0  0
   -6.1860   22.0220  -31.3840 C   0  0  0  0  0  0  0  0  0  0  0  0
   -2.5654   20.9505  -30.4976 H   0  0  0  0  0  0  0  0  0  0  0  0
   -3.6416   19.7156  -31.2349 H   0  0  0  0  0  0  0  0  0  0  0  0
   -1.8620   19.4713  -31.2349 H   0  0  0  0  0  0  0  0  0  0  0  0
   -0.5587   21.4071  -31.9854 H   0  0  0  0  0  0  0  0  0  0  0  0
   -0.6263   20.4691  -33.5158 H   0  0  0  0  0  0  0  0  0  0  0  0
   -1.0340   22.2185  -33.5158 H   0  0  0  0  0  0  0  0  0  0  0  0
   -3.6419   19.1622  -33.2976 H   0  0  0  0  0  0  0  0  0  0  0  0
   -3.8360   20.5765  -34.3880 H   0  0  0  0  0  0  0  0  0  0  0  0
   -2.2991   19.6467  -34.3880 H   0  0  0  0  0  0  0  0  0  0  0  0
   -3.0690   25.2910  -30.3040 H   0  0  0  0  0  0  0  0  0  0  0  0
   -8.0183   24.6393  -30.6082 H   0  0  0  0  0  0  0  0  0  0  0  0
   -9.5765   22.2913  -31.1036 H   0  0  0  0  0  0  0  0  0  0  0  0
   -9.3897   19.8638  -31.7480 H   0  0  0  0  0  0  0  0  0  0  0  0
   -6.5471   17.9177  -31.4998 H   0  0  0  0  0  0  0  0  0  0  0  0
   -8.1190   18.0341  -32.3831 H   0  0  0  0  0  0  0  0  0  0  0  0
   -6.5020   18.9640  -35.5450 H   0  0  0  0  0  0  0  0  0  0  0  0
   -7.3370   19.9280  -34.4650 H   0  0  0  0  0  0  0  0  0  0  0  0
   -6.8779   16.0536  -33.7126 H   0  0  0  0  0  0  0  0  0  0  0  0
   -6.6558   16.4488  -35.2003 H   0  0  0  0  0  0  0  0  0  0  0  0
   -4.6692   17.0679  -32.7100 H   0  0  0  0  0  0  0  0  0  0  0  0
   -4.0638   17.6392  -34.0241 H   0  0  0  0  0  0  0  0  0  0  0  0
   -5.0536   20.2567  -31.9742 H   0  0  0  0  0  0  0  0  0  0  0  0
  1  2  1  0
  2  3  1  0
  2  4  1  0
  2  5  1  0
  5  6  1  0
  6  7  2  0
  6  8  1  0
  8  9  1  0
  9 10  1  0
 10 11  1  0
 10 12  2  0
  9 13  2  0
 13 14  1  0
 14 15  2  0
 15 16  1  0
 16 17  2  0
 17 18  1  0
 18 19  1  0
 19 20  1  0
 19 21  1  0
 21 22  1  0
 17 23  1  0
 23 24  2  0
 24  8  1  0
 24 14  1  0
 22 19  1  0
  1 25  1  0
  1 26  1  0
  1 27  1  0
  3 28  1  0
  3 29  1  0
  3 30  1  0
  4 31  1  0
  4 32  1  0
  4 33  1  0
 11 34  1  0
 13 35  1  0
 15 36  1  0
 16 37  1  0
 18 38  1  0
 18 39  1  0
 20 40  1  0
 20 41  1  0
 21 42  1  0
 21 43  1  0
 22 44  1  0
 22 45  1  0
 23 46  1  0
M  CHG  1  11  -1
M  END
>  <UniqueID>  (47) 
47

>  <SMILES>  (47) 
CC(C)(C)OC(=O)n1c(C([NH-])=O)cc2ccc(CC3(N)CC3)cc21

>  <Energy>  (47) 
347.55803550668594

>  <Genealogy>  (47) 
CC(C)(C)OC(=O)n1c(C([NH-])=O)cc2ccc(CC3(N)CC3)cc21 (protonated)
CC(C)(C)OC(=O)n1c(C([NH-])=O)cc2ccc(CC3(N)CC3)cc21 (3D coordinates assigned)
CC(C)(C)OC(=O)n1c(C([NH-])=O)cc2ccc(CC3(N)CC3)cc21 (nonaromatic ring conformer: 347.55803550668594 kcal/mol)

>  <smiles>  (47) 
CC(C)(C)OC(=O)n1c(C(N)=O)cc2ccc(CC3(N)CC3)cc21

>  <score_type>  (47) 
oracle

>  <origin>  (47) 
adg

>  <m_score__min__energy>  (47) 
-11.25

>  <m_primary>  (47) 
energy

$$$$
48:0
     RDKit          3D

 45 47  0  0  0  0  0  0  0  0999 V2000
   -6.0900   18.2390  -34.0120 C   0  0  0  0  0  0  0  0  0  0  0  0
   -6.8980   18.3360  -32.7220 C   0  0  0  0  0  0  0  0  0  0  0  0
   -7.1210   19.7760  -32.3440 C   0  0  0  0  0  0  0  0  0  0  0  0
   -8.4330   20.3110  -32.3140 C   0  0  0  0  0  0  0  0  0  0  0  0
   -8.6560   21.6360  -31.9020 C   0  0  0  0  0  0  0  0  0  0  0  0
   -7.5530   22.3960  -31.5230 C   0  0  0  0  0  0  0  0  0  0  0  0
   -7.4890   23.6790  -31.0270 C   0  0  0  0  0  0  0  0  0  0  0  0
   -6.1390   23.9070  -30.7650 C   0  0  0  0  0  0  0  0  0  0  0  0
   -5.5910   25.1870  -30.2610 C   0  0  0  0  0  0  0  0  0  0  0  0
   -4.2450   25.5720  -30.5500 N   0  0  0  0  0  0  0  0  0  0  0  0
   -6.3040   25.9410  -29.5480 O   0  0  0  0  0  0  0  0  0  0  0  0
   -5.3990   22.8130  -31.0980 N   0  0  0  0  0  0  0  0  0  0  0  0
   -3.9980   22.6060  -30.8790 C   0  0  0  0  0  0  0  0  0  0  0  0
   -3.1540   23.3340  -31.4700 O   0  0  0  0  0  0  0  0  0  0  0  0
   -3.5780   21.5730  -30.0320 O   0  0  0  0  0  0  0  0  0  0  0  0
   -2.2460   21.4400  -29.5340 C   0  0  0  0  0  0  0  0  0  0  0  0
   -2.0340   22.2750  -28.2520 C   0  0  0  0  0  0  0  0  0  0  0  0
   -3.3340   22.5300  -27.4790 C   0  0  0  0  0  0  0  0  0  0  0  0
   -3.6920   23.9840  -27.7270 C   0  0  0  0  0  0  0  0  0  0  0  0
   -2.3660   24.6910  -27.9340 C   0  0  0  0  0  0  0  0  0  0  0  0
   -1.4300   23.6580  -28.5490 C   0  0  0  0  0  0  0  0  0  0  0  0
   -6.2780   21.8960  -31.5560 C   0  0  0  0  0  0  0  0  0  0  0  0
   -6.0270   20.5760  -31.9470 C   0  0  0  0  0  0  0  0  0  0  0  0
   -5.0249   18.1111  -33.7688 H   0  0  0  0  0  0  0  0  0  0  0  0
   -6.4383   17.3762  -34.5988 H   0  0  0  0  0  0  0  0  0  0  0  0
   -6.2241   19.1597  -34.5988 H   0  0  0  0  0  0  0  0  0  0  0  0
   -7.8717   17.8454  -32.8675 H   0  0  0  0  0  0  0  0  0  0  0  0
   -6.3389   17.8398  -31.9150 H   0  0  0  0  0  0  0  0  0  0  0  0
   -9.2845   19.6835  -32.6159 H   0  0  0  0  0  0  0  0  0  0  0  0
   -9.6710   22.0595  -31.8797 H   0  0  0  0  0  0  0  0  0  0  0  0
   -8.3255   24.3760  -30.8707 H   0  0  0  0  0  0  0  0  0  0  0  0
   -3.6420   25.0070  -31.1870 H   0  0  0  0  0  0  0  0  0  0  0  0
   -3.8610   26.4590  -30.1570 H   0  0  0  0  0  0  0  0  0  0  0  0
   -2.0537   20.3811  -29.3066 H   0  0  0  0  0  0  0  0  0  0  0  0
   -1.5518   21.8080  -30.3038 H   0  0  0  0  0  0  0  0  0  0  0  0
   -1.3457   21.6650  -27.6486 H   0  0  0  0  0  0  0  0  0  0  0  0
   -4.1337   21.8714  -27.8488 H   0  0  0  0  0  0  0  0  0  0  0  0
   -3.2107   22.3236  -26.4056 H   0  0  0  0  0  0  0  0  0  0  0  0
   -4.3233   24.0783  -28.6229 H   0  0  0  0  0  0  0  0  0  0  0  0
   -4.2614   24.4154  -26.8905 H   0  0  0  0  0  0  0  0  0  0  0  0
   -2.4911   25.5462  -28.6144 H   0  0  0  0  0  0  0  0  0  0  0  0
   -1.9666   25.0830  -26.9870 H   0  0  0  0  0  0  0  0  0  0  0  0
   -1.3567   23.8134  -29.6355 H   0  0  0  0  0  0  0  0  0  0  0  0
   -0.4174   23.7441  -28.1280 H   0  0  0  0  0  0  0  0  0  0  0  0
   -5.0039   20.1719  -31.9452 H   0  0  0  0  0  0  0  0  0  0  0  0
  1  2  1  0
  2  3  1  0
  3  4  2  0
  4  5  1  0
  5  6  2  0
  6  7  1  0
  7  8  2  0
  8  9  1  0
  9 10  1  0
  9 11  2  0
  8 12  1  0
 12 13  1  0
 13 14  2  0
 13 15  1  0
 15 16  1  0
 16 17  1  0
 17 18  1  0
 18 19  1  0
 19 20  1  0
 20 21  1  0
 12 22  1  0
 22 23  2  0
 23  3  1  0
 22  6  1  0
 21 17  1  0
  1 24  1  0
  1 25  1  0
  1 26  1  0
  2 27  1  0
  2 28  1  0
  4 29  1  0
  5 30  1  0
  7 31  1  0
 10 32  1  0
 10 33  1  0
 16 34  1  0
 16 35  1  0
 17 36  1  0
 18 37  1  0
 18 38  1  0
 19 39  1  0
 19 40  1  0
 20 41  1  0
 20 42  1  0
 21 43  1  0
 21 44  1  0
 23 45  1  0
M  END
>  <UniqueID>  (48) 
48

>  <SMILES>  (48) 
CCc1ccc2cc(C(N)=O)n(C(=O)OCC3CCCC3)c2c1

>  <Energy>  (48) 
79.19401835909437

>  <Genealogy>  (48) 
CCc1ccc2cc(C(N)=O)n(C(=O)OCC3CCCC3)c2c1 (3D coordinates assigned)
CCc1ccc2cc(C(N)=O)n(C(=O)OCC3CCCC3)c2c1 (nonaromatic ring conformer: 79.19401835909437 kcal/mol)

>  <smiles>  (48) 
CCc1ccc2cc(C(N)=O)n(C(=O)OCC3CCCC3)c2c1

>  <score_type>  (48) 
oracle

>  <origin>  (48) 
adg

>  <m_score__min__energy>  (48) 
-9.4000000000000004

>  <m_primary>  (48) 
energy

$$$$
49:0
     RDKit          3D

 26 27  0  0  0  0  0  0  0  0999 V2000
   -8.5660   20.7730  -32.3670 C   0  0  0  0  0  0  0  0  0  0  0  0
   -7.2950   20.6240  -33.0700 N   0  0  0  0  0  0  0  0  0  0  0  0
   -6.0150   20.8730  -32.4610 C   0  0  0  0  0  0  0  0  0  0  0  0
   -5.0230   19.8610  -32.5050 C   0  0  0  0  0  0  0  0  0  0  0  0
   -3.7570   20.0670  -31.9340 C   0  0  0  0  0  0  0  0  0  0  0  0
   -3.5120   21.2890  -31.3170 C   0  0  0  0  0  0  0  0  0  0  0  0
   -2.3690   21.7590  -30.7120 C   0  0  0  0  0  0  0  0  0  0  0  0
   -2.6820   23.0460  -30.2800 C   0  0  0  0  0  0  0  0  0  0  0  0
   -1.7530   23.8870  -29.4960 C   0  0  0  0  0  0  0  0  0  0  0  0
   -1.9810   25.2850  -29.3420 N   0  0  0  0  0  0  0  0  0  0  0  0
   -0.7710   23.3550  -28.9150 O   0  0  0  0  0  0  0  0  0  0  0  0
   -3.9660   23.3630  -30.6150 N   0  0  0  0  0  0  0  0  0  0  0  0
   -4.6420   24.6170  -30.4260 C   0  0  0  0  0  0  0  0  0  0  0  0
   -4.1400   25.6840  -30.8670 O   0  0  0  0  0  0  0  0  0  0  0  0
   -5.8700   24.6610  -29.7770 O   0  0  0  0  0  0  0  0  0  0  0  0
   -4.4600   22.2760  -31.2460 C   0  0  0  0  0  0  0  0  0  0  0  0
   -5.7250   22.1050  -31.8250 C   0  0  0  0  0  0  0  0  0  0  0  0
   -8.3892   20.7523  -31.2815 H   0  0  0  0  0  0  0  0  0  0  0  0
   -9.0286   21.7315  -32.6449 H   0  0  0  0  0  0  0  0  0  0  0  0
   -9.2377   19.9475  -32.6449 H   0  0  0  0  0  0  0  0  0  0  0  0
   -7.3280   20.3170  -34.0690 H   0  0  0  0  0  0  0  0  0  0  0  0
   -5.2483   18.9013  -32.9932 H   0  0  0  0  0  0  0  0  0  0  0  0
   -2.9831   19.2862  -31.9734 H   0  0  0  0  0  0  0  0  0  0  0  0
   -1.4114   21.2307  -30.5944 H   0  0  0  0  0  0  0  0  0  0  0  0
   -2.9500   25.6730  -29.3250 H   0  0  0  0  0  0  0  0  0  0  0  0
   -6.4750   22.9087  -31.7864 H   0  0  0  0  0  0  0  0  0  0  0  0
  1  2  1  0
  2  3  1  0
  3  4  2  0
  4  5  1  0
  5  6  2  0
  6  7  1  0
  7  8  2  0
  8  9  1  0
  9 10  1  0
  9 11  2  0
  8 12  1  0
 12 13  1  0
 13 14  2  0
 13 15  1  0
 12 16  1  0
 16 17  2  0
 17  3  1  0
 16  6  1  0
  1 18  1  0
  1 19  1  0
  1 20  1  0
  2 21  1  0
  4 22  1  0
  5 23  1  0
  7 24  1  0
 10 25  1  0
 17 26  1  0
M  CHG  2  10  -1  15  -1
M  END
>  <UniqueID>  (49) 
49

>  <SMILES>  (49) 
CNc1ccc2cc(C([NH-])=O)n(C(=O)[O-])c2c1

>  <Energy>  (49) 
65.03824719581802

>  <Genealogy>  (49) 
CNc1ccc2cc(C([NH-])=O)n(C(=O)[O-])c2c1 (protonated)
CNc1ccc2cc(C([NH-])=O)n(C(=O)[O-])c2c1 (3D coordinates assigned)
CNc1ccc2cc(C([NH-])=O)n(C(=O)[O-])c2c1 (optimized conformer: 65.03824719581802 kcal/mol)

>  <smiles>  (49) 
CNc1ccc2cc(C(N)=O)n(C(=O)O)c2c1

>  <score_type>  (49) 
oracle

>  <origin>  (49) 
adg

>  <m_score__min__energy>  (49) 
-9.5

>  <m_primary>  (49) 
energy

$$$$
50:0
     RDKit          3D

 36 38  0  0  0  0  0  0  0  0999 V2000
   -3.3200   22.9100  -28.7080 C   0  0  0  0  0  0  0  0  0  0  0  0
   -2.7920   23.1670  -30.0040 O   0  0  0  0  0  0  0  0  0  0  0  0
   -3.3950   22.6900  -31.1720 C   0  0  0  0  0  0  0  0  0  0  0  0
   -2.6910   22.1880  -32.0920 O   0  0  0  0  0  0  0  0  0  0  0  0
   -4.8170   22.7940  -31.3340 N   0  0  0  0  0  0  0  0  0  0  0  0
   -5.6270   23.8340  -30.9850 C   0  0  0  0  0  0  0  0  0  0  0  0
   -5.1830   25.1590  -30.5040 C   0  0  0  0  0  0  0  0  0  0  0  0
   -3.8950   25.6680  -30.8420 N   0  0  0  0  0  0  0  0  0  0  0  0
   -5.9690   25.8730  -29.8260 O   0  0  0  0  0  0  0  0  0  0  0  0
   -6.9620   23.5130  -31.2190 C   0  0  0  0  0  0  0  0  0  0  0  0
   -6.9460   22.2380  -31.7360 C   0  0  0  0  0  0  0  0  0  0  0  0
   -7.9990   21.4240  -32.1400 C   0  0  0  0  0  0  0  0  0  0  0  0
   -7.6930   20.1360  -32.6100 C   0  0  0  0  0  0  0  0  0  0  0  0
   -6.3490   19.6810  -32.6620 C   0  0  0  0  0  0  0  0  0  0  0  0
   -6.0390   18.3120  -33.1490 C   0  0  0  0  0  0  0  0  0  0  0  0
   -5.7780   18.0660  -34.5050 C   0  0  0  0  0  0  0  0  0  0  0  0
   -5.4940   16.8080  -34.9270 N   0  0  0  0  0  0  0  0  0  0  0  0
   -5.4580   15.7650  -34.0580 C   0  0  0  0  0  0  0  0  0  0  0  0
   -5.1590   14.4530  -34.5370 N   0  0  0  0  0  0  0  0  0  0  0  0
   -5.7080   15.9750  -32.7370 N   0  0  0  0  0  0  0  0  0  0  0  0
   -5.9940   17.2190  -32.2700 C   0  0  0  0  0  0  0  0  0  0  0  0
   -5.3070   20.5420  -32.2410 C   0  0  0  0  0  0  0  0  0  0  0  0
   -5.6410   21.8260  -31.7950 C   0  0  0  0  0  0  0  0  0  0  0  0
   -2.6067   23.2572  -27.9460 H   0  0  0  0  0  0  0  0  0  0  0  0
   -4.2738   23.4446  -28.5880 H   0  0  0  0  0  0  0  0  0  0  0  0
   -3.4877   21.8295  -28.5880 H   0  0  0  0  0  0  0  0  0  0  0  0
   -3.0320   25.2750  -30.4060 H   0  0  0  0  0  0  0  0  0  0  0  0
   -7.8425   24.1449  -31.0304 H   0  0  0  0  0  0  0  0  0  0  0  0
   -9.0394   21.7779  -32.0929 H   0  0  0  0  0  0  0  0  0  0  0  0
   -8.5046   19.4718  -32.9418 H   0  0  0  0  0  0  0  0  0  0  0  0
   -5.8036   18.8947  -35.2279 H   0  0  0  0  0  0  0  0  0  0  0  0
   -5.9290   13.7950  -34.7860 H   0  0  0  0  0  0  0  0  0  0  0  0
   -4.1700   14.1370  -34.6440 H   0  0  0  0  0  0  0  0  0  0  0  0
   -5.6850   15.1740  -32.0670 H   0  0  0  0  0  0  0  0  0  0  0  0
   -6.1911   17.3697  -31.1983 H   0  0  0  0  0  0  0  0  0  0  0  0
   -4.2587   20.2095  -32.2639 H   0  0  0  0  0  0  0  0  0  0  0  0
  1  2  1  0
  2  3  1  0
  3  4  2  0
  3  5  1  0
  5  6  1  0
  6  7  1  0
  7  8  1  0
  7  9  2  0
  6 10  2  0
 10 11  1  0
 11 12  2  0
 12 13  1  0
 13 14  2  0
 14 15  1  0
 15 16  2  0
 16 17  1  0
 17 18  2  0
 18 19  1  0
 18 20  1  0
 20 21  2  0
 14 22  1  0
 22 23  2  0
 23  5  1  0
 23 11  1  0
 21 15  1  0
  1 24  1  0
  1 25  1  0
  1 26  1  0
  8 27  1  0
 10 28  1  0
 12 29  1  0
 13 30  1  0
 16 31  1  0
 19 32  1  0
 19 33  1  0
 20 34  1  0
 21 35  1  0
 22 36  1  0
M  CHG  2   8  -1  20   1
M  END
>  <UniqueID>  (50) 
50

>  <SMILES>  (50) 
COC(=O)n1c(C([NH-])=O)cc2ccc(-c3cnc(N)[nH+]c3)cc21

>  <Energy>  (50) 
80.09519577343028

>  <Genealogy>  (50) 
COC(=O)n1c(C([NH-])=O)cc2ccc(-c3cnc(N)[nH+]c3)cc21 (protonated)
COC(=O)n1c(C([NH-])=O)cc2ccc(-c3cnc(N)[nH+]c3)cc21 (3D coordinates assigned)
COC(=O)n1c(C([NH-])=O)cc2ccc(-c3cnc(N)[nH+]c3)cc21 (optimized conformer: 80.09519577343028 kcal/mol)

>  <smiles>  (50) 
COC(=O)n1c(C(N)=O)cc2ccc(-c3cnc(N)nc3)cc21

>  <score_type>  (50) 
oracle

>  <origin>  (50) 
adg

>  <m_score__min__energy>  (50) 
-9.2300000000000004

>  <m_primary>  (50) 
energy

$$$$
51:0
     RDKit          3D

 35 37  0  0  0  0  0  0  0  0999 V2000
   -4.2440   25.6270  -30.7420 N   0  0  0  0  0  0  0  0  0  0  0  0
   -4.4470   24.2600  -30.3890 C   0  0  0  0  0  0  0  0  0  0  0  0
   -5.5380   23.9130  -29.8610 O   0  0  0  0  0  0  0  0  0  0  0  0
   -3.4120   23.2900  -30.6200 N   0  0  0  0  0  0  0  0  0  0  0  0
   -2.1850   23.2300  -30.0290 C   0  0  0  0  0  0  0  0  0  0  0  0
   -1.5950   24.2610  -29.1530 C   0  0  0  0  0  0  0  0  0  0  0  0
   -2.4080   25.2560  -28.5290 N   0  0  0  0  0  0  0  0  0  0  0  0
   -0.3450   24.2980  -28.9950 O   0  0  0  0  0  0  0  0  0  0  0  0
   -1.5100   22.0750  -30.4110 C   0  0  0  0  0  0  0  0  0  0  0  0
   -2.3610   21.4250  -31.2740 C   0  0  0  0  0  0  0  0  0  0  0  0
   -2.2000   20.2200  -31.9510 C   0  0  0  0  0  0  0  0  0  0  0  0
   -3.2580   19.7710  -32.7580 C   0  0  0  0  0  0  0  0  0  0  0  0
   -4.4570   20.5200  -32.8580 C   0  0  0  0  0  0  0  0  0  0  0  0
   -5.5720   20.0410  -33.7460 C   0  0  0  0  0  0  0  0  0  0  0  0
   -6.8010   19.7540  -32.9270 C   0  0  0  0  0  0  0  0  0  0  0  0
   -7.6340   20.8010  -32.5040 C   0  0  0  0  0  0  0  0  0  0  0  0
   -8.7890   20.5100  -31.7760 C   0  0  0  0  0  0  0  0  0  0  0  0
   -9.1070   19.2200  -31.4880 N   0  0  0  0  0  0  0  0  0  0  0  0
   -8.3240   18.1850  -31.8940 C   0  0  0  0  0  0  0  0  0  0  0  0
   -7.1590   18.4320  -32.6250 C   0  0  0  0  0  0  0  0  0  0  0  0
   -4.5820   21.7430  -32.1630 C   0  0  0  0  0  0  0  0  0  0  0  0
   -3.5040   22.1770  -31.3830 C   0  0  0  0  0  0  0  0  0  0  0  0
   -3.7080   25.8850  -31.5990 H   0  0  0  0  0  0  0  0  0  0  0  0
   -3.4190   25.3530  -28.7680 H   0  0  0  0  0  0  0  0  0  0  0  0
   -1.9780   25.9540  -27.8840 H   0  0  0  0  0  0  0  0  0  0  0  0
   -0.5088   21.7507  -30.0909 H   0  0  0  0  0  0  0  0  0  0  0  0
   -1.2721   19.6368  -31.8569 H   0  0  0  0  0  0  0  0  0  0  0  0
   -3.1552   18.8295  -33.3175 H   0  0  0  0  0  0  0  0  0  0  0  0
   -5.8039   20.8179  -34.4894 H   0  0  0  0  0  0  0  0  0  0  0  0
   -5.2553   19.1181  -34.2540 H   0  0  0  0  0  0  0  0  0  0  0  0
   -7.3787   21.8436  -32.7444 H   0  0  0  0  0  0  0  0  0  0  0  0
   -9.4430   21.3260  -31.4347 H   0  0  0  0  0  0  0  0  0  0  0  0
   -8.6082   17.1516  -31.6466 H   0  0  0  0  0  0  0  0  0  0  0  0
   -6.5277   17.5962  -32.9609 H   0  0  0  0  0  0  0  0  0  0  0  0
   -5.5035   22.3396  -32.2329 H   0  0  0  0  0  0  0  0  0  0  0  0
  1  2  1  0
  2  3  2  0
  2  4  1  0
  4  5  1  0
  5  6  1  0
  6  7  1  0
  6  8  2  0
  5  9  2  0
  9 10  1  0
 10 11  2  0
 11 12  1  0
 12 13  2  0
 13 14  1  0
 14 15  1  0
 15 16  2  0
 16 17  1  0
 17 18  2  0
 18 19  1  0
 19 20  2  0
 13 21  1  0
 21 22  2  0
 22  4  1  0
 22 10  1  0
 20 15  1  0
  1 23  1  0
  7 24  1  0
  7 25  1  0
  9 26  1  0
 11 27  1  0
 12 28  1  0
 14 29  1  0
 14 30  1  0
 16 31  1  0
 17 32  1  0
 19 33  1  0
 20 34  1  0
 21 35  1  0
M  CHG  1   1  -1
M  END
>  <UniqueID>  (51) 
51

>  <SMILES>  (51) 
[NH-]C(=O)n1c(C(N)=O)cc2ccc(Cc3ccncc3)cc21

>  <Energy>  (51) 
76.53573572516662

>  <Genealogy>  (51) 
[NH-]C(=O)n1c(C(N)=O)cc2ccc(Cc3ccncc3)cc21 (protonated)
[NH-]C(=O)n1c(C(N)=O)cc2ccc(Cc3ccncc3)cc21 (3D coordinates assigned)
[NH-]C(=O)n1c(C(N)=O)cc2ccc(Cc3ccncc3)cc21 (optimized conformer: 76.53573572516662 kcal/mol)

>  <smiles>  (51) 
NC(=O)c1cc2ccc(Cc3ccncc3)cc2n1C(N)=O

>  <score_type>  (51) 
oracle

>  <origin>  (51) 
adg

>  <m_score__min__energy>  (51) 
-9.25

>  <m_primary>  (51) 
energy

$$$$
52:0
     RDKit          3D

 35 37  0  0  0  0  0  0  0  0999 V2000
   -1.9050   25.3090  -29.2790 N   0  0  0  0  0  0  0  0  0  0  0  0
   -1.4750   23.9490  -29.2590 C   0  0  0  0  0  0  0  0  0  0  0  0
   -0.6050   23.5890  -28.4230 O   0  0  0  0  0  0  0  0  0  0  0  0
   -2.0210   22.9920  -30.2430 C   0  0  0  0  0  0  0  0  0  0  0  0
   -1.2930   21.9220  -30.7590 C   0  0  0  0  0  0  0  0  0  0  0  0
   -2.1770   21.2270  -31.5530 C   0  0  0  0  0  0  0  0  0  0  0  0
   -1.9850   20.0740  -32.3080 C   0  0  0  0  0  0  0  0  0  0  0  0
   -3.0750   19.5840  -33.0480 C   0  0  0  0  0  0  0  0  0  0  0  0
   -4.3200   20.2590  -33.0320 C   0  0  0  0  0  0  0  0  0  0  0  0
   -5.4880   19.7070  -33.8040 C   0  0  0  0  0  0  0  0  0  0  0  0
   -6.7260   19.7210  -32.9510 C   0  0  0  0  0  0  0  0  0  0  0  0
   -7.2310   18.5250  -32.4140 C   0  0  0  0  0  0  0  0  0  0  0  0
   -8.4040   18.5350  -31.6520 C   0  0  0  0  0  0  0  0  0  0  0  0
   -9.0850   19.7350  -31.4290 C   0  0  0  0  0  0  0  0  0  0  0  0
   -8.5960   20.9270  -31.9710 C   0  0  0  0  0  0  0  0  0  0  0  0
   -9.2610   22.0890  -31.7610 F   0  0  0  0  0  0  0  0  0  0  0  0
   -7.4230   20.9210  -32.7330 C   0  0  0  0  0  0  0  0  0  0  0  0
   -4.4800   21.4210  -32.2450 C   0  0  0  0  0  0  0  0  0  0  0  0
   -3.3820   21.8760  -31.5040 C   0  0  0  0  0  0  0  0  0  0  0  0
   -3.3040   22.9640  -30.7060 N   0  0  0  0  0  0  0  0  0  0  0  0
   -4.3480   23.9220  -30.4690 C   0  0  0  0  0  0  0  0  0  0  0  0
   -4.1780   25.2840  -30.8560 N   0  0  0  0  0  0  0  0  0  0  0  0
   -5.4340   23.5560  -29.9440 O   0  0  0  0  0  0  0  0  0  0  0  0
   -2.9180   25.5510  -29.3400 H   0  0  0  0  0  0  0  0  0  0  0  0
   -0.2357   21.6832  -30.5716 H   0  0  0  0  0  0  0  0  0  0  0  0
   -1.0114   19.5624  -32.3252 H   0  0  0  0  0  0  0  0  0  0  0  0
   -2.9599   18.6675  -33.6453 H   0  0  0  0  0  0  0  0  0  0  0  0
   -5.6563   20.3238  -34.6991 H   0  0  0  0  0  0  0  0  0  0  0  0
   -5.2664   18.6707  -34.0989 H   0  0  0  0  0  0  0  0  0  0  0  0
   -6.7021   17.5773  -32.5934 H   0  0  0  0  0  0  0  0  0  0  0  0
   -8.7911   17.5969  -31.2276 H   0  0  0  0  0  0  0  0  0  0  0  0
  -10.0057   19.7414  -30.8270 H   0  0  0  0  0  0  0  0  0  0  0  0
   -7.0447   21.8600  -33.1634 H   0  0  0  0  0  0  0  0  0  0  0  0
   -5.4415   21.9545  -32.2149 H   0  0  0  0  0  0  0  0  0  0  0  0
   -3.2250   25.6910  -30.9800 H   0  0  0  0  0  0  0  0  0  0  0  0
  1  2  1  0
  2  3  2  0
  2  4  1  0
  4  5  2  0
  5  6  1  0
  6  7  2  0
  7  8  1  0
  8  9  2  0
  9 10  1  0
 10 11  1  0
 11 12  2  0
 12 13  1  0
 13 14  2  0
 14 15  1  0
 15 16  1  0
 15 17  2  0
  9 18  1  0
 18 19  2  0
 19 20  1  0
 20 21  1  0
 21 22  1  0
 21 23  2  0
 20  4  1  0
 19  6  1  0
 17 11  1  0
  1 24  1  0
  5 25  1  0
  7 26  1  0
  8 27  1  0
 10 28  1  0
 10 29  1  0
 12 30  1  0
 13 31  1  0
 14 32  1  0
 17 33  1  0
 18 34  1  0
 22 35  1  0
M  CHG  2   1  -1  22  -1
M  END
>  <UniqueID>  (52) 
52

>  <SMILES>  (52) 
[NH-]C(=O)c1cc2ccc(Cc3cccc(F)c3)cc2n1C([NH-])=O

>  <Energy>  (52) 
75.12774458982197

>  <Genealogy>  (52) 
[NH-]C(=O)c1cc2ccc(Cc3cccc(F)c3)cc2n1C([NH-])=O (protonated)
[NH-]C(=O)c1cc2ccc(Cc3cccc(F)c3)cc2n1C([NH-])=O (3D coordinates assigned)
[NH-]C(=O)c1cc2ccc(Cc3cccc(F)c3)cc2n1C([NH-])=O (optimized conformer: 75.12774458982197 kcal/mol)

>  <smiles>  (52) 
NC(=O)c1cc2ccc(Cc3cccc(F)c3)cc2n1C(N)=O

>  <score_type>  (52) 
oracle

>  <origin>  (52) 
adg

>  <m_score__min__energy>  (52) 
-11.800000000000001

>  <m_primary>  (52) 
energy

$$$$
53:0
     RDKit          3D

 53 55  0  0  0  0  0  0  0  0999 V2000
   -2.4540   24.7890  -27.2110 C   0  0  0  0  0  0  0  0  0  0  0  0
   -3.8540   24.1800  -27.2650 C   0  0  0  0  0  0  0  0  0  0  0  0
   -3.9330   22.9650  -28.2020 C   0  0  0  0  0  0  0  0  0  0  0  0
   -2.6010   22.6630  -28.8920 C   0  0  0  0  0  0  0  0  0  0  0  0
   -2.5970   23.2650  -30.1820 O   0  0  0  0  0  0  0  0  0  0  0  0
   -3.2250   22.6940  -31.2920 C   0  0  0  0  0  0  0  0  0  0  0  0
   -2.5380   22.1970  -32.2260 O   0  0  0  0  0  0  0  0  0  0  0  0
   -4.6610   22.6960  -31.3780 N   0  0  0  0  0  0  0  0  0  0  0  0
   -5.5020   23.7410  -31.1350 C   0  0  0  0  0  0  0  0  0  0  0  0
   -5.1240   25.0370  -30.5360 C   0  0  0  0  0  0  0  0  0  0  0  0
   -3.8750   25.6490  -30.8440 N   0  0  0  0  0  0  0  0  0  0  0  0
   -5.8850   25.5800  -29.6900 O   0  0  0  0  0  0  0  0  0  0  0  0
   -6.8140   23.3950  -31.4480 C   0  0  0  0  0  0  0  0  0  0  0  0
   -6.7530   22.0910  -31.8830 C   0  0  0  0  0  0  0  0  0  0  0  0
   -7.7650   21.2490  -32.3310 C   0  0  0  0  0  0  0  0  0  0  0  0
   -7.4130   19.9520  -32.7370 C   0  0  0  0  0  0  0  0  0  0  0  0
   -6.0620   19.5190  -32.7050 C   0  0  0  0  0  0  0  0  0  0  0  0
   -5.7160   18.1820  -33.1250 N   0  0  0  0  0  0  0  0  0  0  0  0
   -6.7790   17.2650  -33.5580 C   0  0  0  0  0  0  0  0  0  0  0  0
   -6.2050   15.8580  -33.7740 C   0  0  1  0  0  0  0  0  0  0  0  0
   -7.2330   14.9490  -34.4470 C   0  0  0  0  0  0  0  0  0  0  0  0
   -5.0690   15.9660  -34.6050 O   0  0  0  0  0  0  0  0  0  0  0  0
   -3.9710   16.5670  -33.9260 C   0  0  1  0  0  0  0  0  0  0  0  0
   -3.0370   17.1610  -34.9840 C   0  0  0  0  0  0  0  0  0  0  0  0
   -4.3660   17.6520  -32.8770 C   0  0  0  0  0  0  0  0  0  0  0  0
   -5.0590   20.4120  -32.2530 C   0  0  0  0  0  0  0  0  0  0  0  0
   -5.4430   21.6910  -31.8310 C   0  0  0  0  0  0  0  0  0  0  0  0
   -2.1516   24.9205  -26.1616 H   0  0  0  0  0  0  0  0  0  0  0  0
   -1.7429   24.1189  -27.7163 H   0  0  0  0  0  0  0  0  0  0  0  0
   -2.4594   25.7661  -27.7163 H   0  0  0  0  0  0  0  0  0  0  0  0
   -4.1396   23.8625  -26.2513 H   0  0  0  0  0  0  0  0  0  0  0  0
   -4.5371   24.9482  -27.6566 H   0  0  0  0  0  0  0  0  0  0  0  0
   -4.2314   22.0853  -27.6129 H   0  0  0  0  0  0  0  0  0  0  0  0
   -4.6680   23.1980  -28.9866 H   0  0  0  0  0  0  0  0  0  0  0  0
   -1.7745   23.0720  -28.2922 H   0  0  0  0  0  0  0  0  0  0  0  0
   -2.4734   21.5749  -28.9907 H   0  0  0  0  0  0  0  0  0  0  0  0
   -2.9860   25.2930  -30.4280 H   0  0  0  0  0  0  0  0  0  0  0  0
   -7.7089   24.0293  -31.3651 H   0  0  0  0  0  0  0  0  0  0  0  0
   -8.8105   21.5892  -32.3662 H   0  0  0  0  0  0  0  0  0  0  0  0
   -8.1955   19.2616  -33.0848 H   0  0  0  0  0  0  0  0  0  0  0  0
   -7.5614   17.2243  -32.7859 H   0  0  0  0  0  0  0  0  0  0  0  0
   -7.2059   17.6292  -34.5041 H   0  0  0  0  0  0  0  0  0  0  0  0
   -5.9398   15.4211  -32.8000 H   0  0  0  0  0  0  0  0  0  0  0  0
   -7.8217   14.4284  -33.6773 H   0  0  0  0  0  0  0  0  0  0  0  0
   -7.9035   15.5550  -35.0740 H   0  0  0  0  0  0  0  0  0  0  0  0
   -6.7136   14.2093  -35.0740 H   0  0  0  0  0  0  0  0  0  0  0  0
   -3.4780   15.7799  -33.3365 H   0  0  0  0  0  0  0  0  0  0  0  0
   -2.2087   17.6878  -34.4877 H   0  0  0  0  0  0  0  0  0  0  0  0
   -2.6337   16.3531  -35.6122 H   0  0  0  0  0  0  0  0  0  0  0  0
   -3.5977   17.8688  -35.6122 H   0  0  0  0  0  0  0  0  0  0  0  0
   -4.3377   17.2041  -31.8727 H   0  0  0  0  0  0  0  0  0  0  0  0
   -3.6507   18.4837  -32.9576 H   0  0  0  0  0  0  0  0  0  0  0  0
   -4.0022   20.1074  -32.2340 H   0  0  0  0  0  0  0  0  0  0  0  0
  1  2  1  0
  2  3  1  0
  3  4  1  0
  4  5  1  0
  5  6  1  0
  6  7  2  0
  6  8  1  0
  8  9  1  0
  9 10  1  0
 10 11  1  0
 10 12  2  0
  9 13  2  0
 13 14  1  0
 14 15  2  0
 15 16  1  0
 16 17  2  0
 17 18  1  0
 18 19  1  0
 19 20  1  0
 20 21  1  0
 20 22  1  0
 22 23  1  0
 23 24  1  0
 23 25  1  0
 17 26  1  0
 26 27  2  0
 27  8  1  0
 27 14  1  0
 25 18  1  0
  1 28  1  0
  1 29  1  0
  1 30  1  0
  2 31  1  0
  2 32  1  0
  3 33  1  0
  3 34  1  0
  4 35  1  0
  4 36  1  0
 11 37  1  0
 13 38  1  0
 15 39  1  0
 16 40  1  0
 19 41  1  0
 19 42  1  0
 20 43  1  1
 21 44  1  0
 21 45  1  0
 21 46  1  0
 23 47  1  1
 24 48  1  0
 24 49  1  0
 24 50  1  0
 25 51  1  0
 25 52  1  0
 26 53  1  0
M  CHG  1  11  -1
M  END
>  <UniqueID>  (53) 
53

>  <SMILES>  (53) 
CCCCOC(=O)n1c(C([NH-])=O)cc2ccc(N3C[C@@H](C)O[C@@H](C)C3)cc21

>  <Energy>  (53) 
91.30266102447095

>  <Genealogy>  (53) 
CCCCOC(=O)n1c(C([NH-])=O)cc2ccc(N3C[C@@H](C)O[C@@H](C)C3)cc21 (protonated)
CCCCOC(=O)n1c(C([NH-])=O)cc2ccc(N3C[C@@H](C)O[C@@H](C)C3)cc21 (3D coordinates assigned)
CCCCOC(=O)n1c(C([NH-])=O)cc2ccc(N3C[C@@H](C)O[C@@H](C)C3)cc21 (nonaromatic ring conformer: 91.30266102447095 kcal/mol)

>  <smiles>  (53) 
CCCCOC(=O)n1c(C(N)=O)cc2ccc(N3C[C@@H](C)O[C@@H](C)C3)cc21

>  <score_type>  (53) 
oracle

>  <origin>  (53) 
adg

>  <m_score__min__energy>  (53) 
-11.609999999999999

>  <m_primary>  (53) 
energy

$$$$
54:0
     RDKit          3D

 49 51  0  0  0  0  0  0  0  0999 V2000
   -5.7250   18.3880  -34.9310 C   0  0  0  0  0  0  0  0  0  0  0  0
   -6.3910   18.4470  -33.6240 N   0  0  0  0  0  0  0  0  0  0  0  0
   -6.8450   17.1960  -33.0020 C   0  0  0  0  0  0  0  0  0  0  0  0
   -6.5930   19.7200  -32.9550 C   0  0  0  0  0  0  0  0  0  0  0  0
   -7.9070   20.2180  -32.7150 C   0  0  0  0  0  0  0  0  0  0  0  0
   -8.1110   21.4430  -32.0580 C   0  0  0  0  0  0  0  0  0  0  0  0
   -6.9930   22.1630  -31.6560 C   0  0  0  0  0  0  0  0  0  0  0  0
   -6.9050   23.3610  -30.9850 C   0  0  0  0  0  0  0  0  0  0  0  0
   -5.5400   23.6040  -30.8380 C   0  0  0  0  0  0  0  0  0  0  0  0
   -4.9920   24.8390  -30.2380 C   0  0  0  0  0  0  0  0  0  0  0  0
   -3.8800   25.4910  -30.8480 N   0  0  0  0  0  0  0  0  0  0  0  0
   -5.4730   25.3070  -29.1720 O   0  0  0  0  0  0  0  0  0  0  0  0
   -4.8150   22.5920  -31.3940 N   0  0  0  0  0  0  0  0  0  0  0  0
   -3.3890   22.4290  -31.4130 C   0  0  0  0  0  0  0  0  0  0  0  0
   -2.8530   21.6530  -32.2510 O   0  0  0  0  0  0  0  0  0  0  0  0
   -2.6000   23.1560  -30.5160 O   0  0  0  0  0  0  0  0  0  0  0  0
   -2.3620   22.7580  -29.1670 C   0  0  2  0  0  0  0  0  0  0  0  0
   -0.8700   22.8990  -28.8670 C   0  0  0  0  0  0  0  0  0  0  0  0
   -0.5330   22.4740  -27.4280 C   0  0  0  0  0  0  0  0  0  0  0  0
   -1.6000   21.5500  -26.8070 C   0  0  0  0  0  0  0  0  0  0  0  0
   -2.1860   20.6100  -27.7900 N   0  0  2  0  0  0  0  0  0  0  0  0
   -1.2020   19.5990  -28.2230 C   0  0  0  0  0  0  0  0  0  0  0  0
   -2.8260   21.2950  -28.9510 C   0  0  0  0  0  0  0  0  0  0  0  0
   -5.7210   21.7200  -31.8920 C   0  0  0  0  0  0  0  0  0  0  0  0
   -5.4860   20.4940  -32.5240 C   0  0  0  0  0  0  0  0  0  0  0  0
   -4.6390   18.2918  -34.7851 H   0  0  0  0  0  0  0  0  0  0  0  0
   -6.0978   17.5194  -35.4936 H   0  0  0  0  0  0  0  0  0  0  0  0
   -5.9393   19.3086  -35.4936 H   0  0  0  0  0  0  0  0  0  0  0  0
   -6.8085   17.2965  -31.9072 H   0  0  0  0  0  0  0  0  0  0  0  0
   -7.8775   16.9838  -33.3165 H   0  0  0  0  0  0  0  0  0  0  0  0
   -6.1890   16.3710  -33.3165 H   0  0  0  0  0  0  0  0  0  0  0  0
   -8.7762   19.6330  -33.0500 H   0  0  0  0  0  0  0  0  0  0  0  0
   -9.1263   21.8210  -31.8675 H   0  0  0  0  0  0  0  0  0  0  0  0
   -7.7357   23.9932  -30.6380 H   0  0  0  0  0  0  0  0  0  0  0  0
   -2.9040   25.2950  -30.5320 H   0  0  0  0  0  0  0  0  0  0  0  0
   -2.9345   23.4008  -28.4822 H   0  0  0  0  0  0  0  0  0  0  0  0
   -0.3049   22.2656  -29.5667 H   0  0  0  0  0  0  0  0  0  0  0  0
   -0.5970   23.9583  -28.9830 H   0  0  0  0  0  0  0  0  0  0  0  0
    0.4297   21.9419  -27.4360 H   0  0  0  0  0  0  0  0  0  0  0  0
   -0.4924   23.3873  -26.8162 H   0  0  0  0  0  0  0  0  0  0  0  0
   -1.1336   20.9679  -25.9986 H   0  0  0  0  0  0  0  0  0  0  0  0
   -2.4139   22.1881  -26.4324 H   0  0  0  0  0  0  0  0  0  0  0  0
   -2.9380   20.0840  -27.2840 H   0  0  0  0  0  0  0  0  0  0  0  0
   -0.7453   19.1298  -27.3391 H   0  0  0  0  0  0  0  0  0  0  0  0
   -1.7073   18.8304  -28.8263 H   0  0  0  0  0  0  0  0  0  0  0  0
   -0.4200   20.0833  -28.8263 H   0  0  0  0  0  0  0  0  0  0  0  0
   -2.5917   20.7220  -29.8603 H   0  0  0  0  0  0  0  0  0  0  0  0
   -3.9039   21.3362  -28.7357 H   0  0  0  0  0  0  0  0  0  0  0  0
   -4.4582   20.1361  -32.6840 H   0  0  0  0  0  0  0  0  0  0  0  0
  1  2  1  0
  2  3  1  0
  2  4  1  0
  4  5  2  0
  5  6  1  0
  6  7  2  0
  7  8  1  0
  8  9  2  0
  9 10  1  0
 10 11  1  0
 10 12  2  0
  9 13  1  0
 13 14  1  0
 14 15  2  0
 14 16  1  0
 16 17  1  0
 17 18  1  0
 18 19  1  0
 19 20  1  0
 20 21  1  0
 21 22  1  0
 21 23  1  0
 13 24  1  0
 24 25  2  0
 25  4  1  0
 24  7  1  0
 23 17  1  0
  1 26  1  0
  1 27  1  0
  1 28  1  0
  3 29  1  0
  3 30  1  0
  3 31  1  0
  5 32  1  0
  6 33  1  0
  8 34  1  0
 11 35  1  0
 17 36  1  1
 18 37  1  0
 18 38  1  0
 19 39  1  0
 19 40  1  0
 20 41  1  0
 20 42  1  0
 21 43  1  1
 22 44  1  0
 22 45  1  0
 22 46  1  0
 23 47  1  0
 23 48  1  0
 25 49  1  0
M  CHG  2  11  -1  21   1
M  END
>  <UniqueID>  (54) 
54

>  <SMILES>  (54) 
CN(C)c1ccc2cc(C([NH-])=O)n(C(=O)O[C@@H]3CCC[N@H+](C)C3)c2c1

>  <Energy>  (54) 
95.76781988893883

>  <Genealogy>  (54) 
CN(C)c1ccc2cc(C([NH-])=O)n(C(=O)OC3CCC[NH+](C)C3)c2c1 (protonated)
CN(C)c1ccc2cc(C([NH-])=O)n(C(=O)O[C@@H]3CCC[N@H+](C)C3)c2c1 (chirality)
CN(C)c1ccc2cc(C([NH-])=O)n(C(=O)O[C@@H]3CCC[N@H+](C)C3)c2c1 (3D coordinates assigned)
CN(C)c1ccc2cc(C([NH-])=O)n(C(=O)O[C@@H]3CCC[N@H+](C)C3)c2c1 (nonaromatic ring conformer: 95.76781988893883 kcal/mol)

>  <smiles>  (54) 
CN1CCCC(OC(=O)n2c(C(N)=O)cc3ccc(N(C)C)cc32)C1

>  <score_type>  (54) 
oracle

>  <origin>  (54) 
adg

>  <m_score__min__energy>  (54) 
-9.7799999999999994

>  <m_primary>  (54) 
energy

$$$$
55:0
     RDKit          3D

 49 50  0  0  0  0  0  0  0  0999 V2000
   -3.4510   22.2970  -28.5390 C   0  0  0  0  0  0  0  0  0  0  0  0
   -2.4330   22.8630  -29.5470 C   0  0  0  0  0  0  0  0  0  0  0  0
   -1.7850   24.1500  -28.9980 C   0  0  0  0  0  0  0  0  0  0  0  0
   -1.3330   21.8170  -29.7840 C   0  0  0  0  0  0  0  0  0  0  0  0
   -3.0610   23.1110  -30.8120 O   0  0  0  0  0  0  0  0  0  0  0  0
   -4.0780   22.3450  -31.4020 C   0  0  0  0  0  0  0  0  0  0  0  0
   -3.8020   21.3430  -32.1150 O   0  0  0  0  0  0  0  0  0  0  0  0
   -5.4490   22.7240  -31.2070 N   0  0  0  0  0  0  0  0  0  0  0  0
   -5.9250   23.9010  -30.7120 C   0  0  0  0  0  0  0  0  0  0  0  0
   -5.1160   24.9770  -30.1010 C   0  0  0  0  0  0  0  0  0  0  0  0
   -4.0840   25.6270  -30.8390 N   0  0  0  0  0  0  0  0  0  0  0  0
   -5.3060   25.2920  -28.8960 O   0  0  0  0  0  0  0  0  0  0  0  0
   -7.3160   23.9360  -30.7850 C   0  0  0  0  0  0  0  0  0  0  0  0
   -7.6820   22.7310  -31.3380 C   0  0  0  0  0  0  0  0  0  0  0  0
   -8.9460   22.2350  -31.6450 C   0  0  0  0  0  0  0  0  0  0  0  0
   -9.0280   20.9660  -32.2400 C   0  0  0  0  0  0  0  0  0  0  0  0
   -7.8540   20.2230  -32.5320 C   0  0  0  0  0  0  0  0  0  0  0  0
   -7.9540   18.9140  -33.1260 N   0  0  0  0  0  0  0  0  0  0  0  0
   -7.5700   17.8890  -32.1420 C   0  0  0  0  0  0  0  0  0  0  0  0
   -6.0860   17.5070  -32.2550 C   0  0  0  0  0  0  0  0  0  0  0  0
   -5.4290   17.6820  -33.9140 S   0  0  0  0  0  0  0  0  0  0  0  0
   -3.8750   16.8300  -34.0940 C   0  0  0  0  0  0  0  0  0  0  0  0
   -6.4140   17.1390  -34.9110 O   0  0  0  0  0  0  0  0  0  0  0  0
   -5.2120   19.1420  -34.1920 O   0  0  0  0  0  0  0  0  0  0  0  0
   -6.5880   20.7580  -32.1940 C   0  0  0  0  0  0  0  0  0  0  0  0
   -6.5380   22.0170  -31.5860 C   0  0  0  0  0  0  0  0  0  0  0  0
   -3.1002   22.4921  -27.5149 H   0  0  0  0  0  0  0  0  0  0  0  0
   -4.4263   22.7824  -28.6912 H   0  0  0  0  0  0  0  0  0  0  0  0
   -3.5535   21.2124  -28.6912 H   0  0  0  0  0  0  0  0  0  0  0  0
   -1.7970   24.1262  -27.8983 H   0  0  0  0  0  0  0  0  0  0  0  0
   -0.7457   24.2170  -29.3520 H   0  0  0  0  0  0  0  0  0  0  0  0
   -2.3501   25.0248  -29.3520 H   0  0  0  0  0  0  0  0  0  0  0  0
   -0.9545   21.4571  -28.8159 H   0  0  0  0  0  0  0  0  0  0  0  0
   -1.7473   20.9716  -30.3529 H   0  0  0  0  0  0  0  0  0  0  0  0
   -0.5095   22.2733  -30.3529 H   0  0  0  0  0  0  0  0  0  0  0  0
   -3.1010   25.2790  -30.8090 H   0  0  0  0  0  0  0  0  0  0  0  0
   -7.9802   24.7535  -30.4678 H   0  0  0  0  0  0  0  0  0  0  0  0
   -9.8524   22.8192  -31.4281 H   0  0  0  0  0  0  0  0  0  0  0  0
  -10.0137   20.5423  -32.4828 H   0  0  0  0  0  0  0  0  0  0  0  0
   -7.3290   18.8570  -33.9640 H   0  0  0  0  0  0  0  0  0  0  0  0
   -8.9380   18.7580  -33.4420 H   0  0  0  0  0  0  0  0  0  0  0  0
   -7.7600   18.2789  -31.1311 H   0  0  0  0  0  0  0  0  0  0  0  0
   -8.1681   16.9875  -32.3408 H   0  0  0  0  0  0  0  0  0  0  0  0
   -5.5070   18.1551  -31.5807 H   0  0  0  0  0  0  0  0  0  0  0  0
   -6.0031   16.4442  -31.9837 H   0  0  0  0  0  0  0  0  0  0  0  0
   -3.4632   16.6042  -33.0993 H   0  0  0  0  0  0  0  0  0  0  0  0
   -4.0329   15.8923  -34.6469 H   0  0  0  0  0  0  0  0  0  0  0  0
   -3.1693   17.4674  -34.6469 H   0  0  0  0  0  0  0  0  0  0  0  0
   -5.6653   20.1972  -32.4044 H   0  0  0  0  0  0  0  0  0  0  0  0
  1  2  1  0
  2  3  1  0
  2  4  1  0
  2  5  1  0
  5  6  1  0
  6  7  2  0
  6  8  1  0
  8  9  1  0
  9 10  1  0
 10 11  1  0
 10 12  2  0
  9 13  2  0
 13 14  1  0
 14 15  2  0
 15 16  1  0
 16 17  2  0
 17 18  1  0
 18 19  1  0
 19 20  1  0
 20 21  1  0
 21 22  1  0
 21 23  2  0
 21 24  2  0
 17 25  1  0
 25 26  2  0
 26  8  1  0
 26 14  1  0
  1 27  1  0
  1 28  1  0
  1 29  1  0
  3 30  1  0
  3 31  1  0
  3 32  1  0
  4 33  1  0
  4 34  1  0
  4 35  1  0
 11 36  1  0
 13 37  1  0
 15 38  1  0
 16 39  1  0
 18 40  1  0
 18 41  1  0
 19 42  1  0
 19 43  1  0
 20 44  1  0
 20 45  1  0
 22 46  1  0
 22 47  1  0
 22 48  1  0
 25 49  1  0
M  CHG  2  11  -1  18   1
M  END
>  <UniqueID>  (55) 
55

>  <SMILES>  (55) 
CC(C)(C)OC(=O)n1c(C([NH-])=O)cc2ccc([NH2+]CCS(C)(=O)=O)cc21

>  <Energy>  (55) 
74.85300471663447

>  <Genealogy>  (55) 
CC(C)(C)OC(=O)n1c(C([NH-])=O)cc2ccc([NH2+]CCS(C)(=O)=O)cc21 (protonated)
CC(C)(C)OC(=O)n1c(C([NH-])=O)cc2ccc([NH2+]CCS(C)(=O)=O)cc21 (3D coordinates assigned)
CC(C)(C)OC(=O)n1c(C([NH-])=O)cc2ccc([NH2+]CCS(C)(=O)=O)cc21 (optimized conformer: 74.85300471663447 kcal/mol)

>  <smiles>  (55) 
CC(C)(C)OC(=O)n1c(C(N)=O)cc2ccc(NCCS(C)(=O)=O)cc21

>  <score_type>  (55) 
oracle

>  <origin>  (55) 
adg

>  <m_score__min__energy>  (55) 
-10.85

>  <m_primary>  (55) 
energy

$$$$
56:0
     RDKit          3D

 58 61  0  0  0  0  0  0  0  0999 V2000
   -2.2330   20.9290  -32.7090 C   0  0  0  0  0  0  0  0  0  0  0  0
   -3.0490   22.0950  -32.7660 O   0  0  0  0  0  0  0  0  0  0  0  0
   -3.5690   22.7120  -31.6250 C   0  0  0  0  0  0  0  0  0  0  0  0
   -2.7950   23.1470  -30.7270 O   0  0  0  0  0  0  0  0  0  0  0  0
   -4.9920   22.7900  -31.4470 N   0  0  0  0  0  0  0  0  0  0  0  0
   -5.7050   23.8480  -30.9690 C   0  0  0  0  0  0  0  0  0  0  0  0
   -5.1410   25.0500  -30.3210 C   0  0  0  0  0  0  0  0  0  0  0  0
   -3.9290   25.6140  -30.8150 N   0  0  0  0  0  0  0  0  0  0  0  0
   -5.7420   25.6100  -29.3650 O   0  0  0  0  0  0  0  0  0  0  0  0
   -7.0740   23.6090  -31.0900 C   0  0  0  0  0  0  0  0  0  0  0  0
   -7.1750   22.3570  -31.6530 C   0  0  0  0  0  0  0  0  0  0  0  0
   -8.3040   21.6280  -32.0120 C   0  0  0  0  0  0  0  0  0  0  0  0
   -8.1130   20.3660  -32.5970 C   0  0  0  0  0  0  0  0  0  0  0  0
   -6.8070   19.8620  -32.8250 C   0  0  0  0  0  0  0  0  0  0  0  0
   -6.6230   18.5530  -33.4000 N   0  0  0  0  0  0  0  0  0  0  0  0
   -6.1120   18.4250  -34.7700 C   0  0  0  0  0  0  0  0  0  0  0  0
   -5.3740   17.0900  -34.9650 C   0  0  0  0  0  0  0  0  0  0  0  0
   -4.5680   16.7210  -33.6850 C   0  0  0  0  0  0  0  0  0  0  0  0
   -3.6700   15.5410  -33.9210 N   0  0  0  0  0  0  0  0  0  0  0  0
   -2.8830   15.2130  -32.6890 C   0  0  0  0  0  0  0  0  0  0  0  0
   -2.7350   13.7010  -32.4280 C   0  0  0  0  0  0  0  0  0  0  0  0
   -4.0570   13.0350  -32.3240 N   0  0  0  0  0  0  0  0  0  0  0  0
   -4.6110   13.1370  -30.9560 C   0  0  0  0  0  0  0  0  0  0  0  0
   -5.0410   13.5240  -33.3300 C   0  0  0  0  0  0  0  0  0  0  0  0
   -4.3830   14.3440  -34.4520 C   0  0  0  0  0  0  0  0  0  0  0  0
   -5.5730   16.5010  -32.5080 C   0  0  0  0  0  0  0  0  0  0  0  0
   -6.8620   17.3350  -32.6200 C   0  0  0  0  0  0  0  0  0  0  0  0
   -5.6870   20.6380  -32.4580 C   0  0  0  0  0  0  0  0  0  0  0  0
   -5.9050   21.8830  -31.8560 C   0  0  0  0  0  0  0  0  0  0  0  0
   -2.0467   20.6628  -31.6581 H   0  0  0  0  0  0  0  0  0  0  0  0
   -2.7469   20.0969  -33.2125 H   0  0  0  0  0  0  0  0  0  0  0  0
   -1.2752   21.1268  -33.2125 H   0  0  0  0  0  0  0  0  0  0  0  0
   -3.0020   25.2850  -30.4690 H   0  0  0  0  0  0  0  0  0  0  0  0
   -7.8969   24.2780  -30.7979 H   0  0  0  0  0  0  0  0  0  0  0  0
   -9.3148   22.0277  -31.8429 H   0  0  0  0  0  0  0  0  0  0  0  0
   -8.9865   19.7611  -32.8818 H   0  0  0  0  0  0  0  0  0  0  0  0
   -6.9558   18.4748  -35.4739 H   0  0  0  0  0  0  0  0  0  0  0  0
   -5.4033   19.2455  -34.9559 H   0  0  0  0  0  0  0  0  0  0  0  0
   -6.1081   16.2973  -35.1717 H   0  0  0  0  0  0  0  0  0  0  0  0
   -4.6757   17.1893  -35.8091 H   0  0  0  0  0  0  0  0  0  0  0  0
   -3.8942   17.5471  -33.4138 H   0  0  0  0  0  0  0  0  0  0  0  0
   -2.9830   15.8230  -34.6610 H   0  0  0  0  0  0  0  0  0  0  0  0
   -1.8776   15.6466  -32.7944 H   0  0  0  0  0  0  0  0  0  0  0  0
   -3.4357   15.6323  -31.8354 H   0  0  0  0  0  0  0  0  0  0  0  0
   -2.1712   13.2487  -33.2572 H   0  0  0  0  0  0  0  0  0  0  0  0
   -2.2045   13.5658  -31.4739 H   0  0  0  0  0  0  0  0  0  0  0  0
   -3.8052   12.9886  -30.2221 H   0  0  0  0  0  0  0  0  0  0  0  0
   -5.0572   14.1324  -30.8144 H   0  0  0  0  0  0  0  0  0  0  0  0
   -5.3825   12.3658  -30.8144 H   0  0  0  0  0  0  0  0  0  0  0  0
   -5.5470   12.6563  -33.7783 H   0  0  0  0  0  0  0  0  0  0  0  0
   -5.7505   14.1831  -32.8084 H   0  0  0  0  0  0  0  0  0  0  0  0
   -3.6606   13.7059  -34.9821 H   0  0  0  0  0  0  0  0  0  0  0  0
   -5.1763   14.6925  -35.1297 H   0  0  0  0  0  0  0  0  0  0  0  0
   -5.8506   15.4369  -32.4848 H   0  0  0  0  0  0  0  0  0  0  0  0
   -5.0628   16.8263  -31.5894 H   0  0  0  0  0  0  0  0  0  0  0  0
   -7.6389   16.7347  -33.1161 H   0  0  0  0  0  0  0  0  0  0  0  0
   -7.1887   17.6200  -31.6090 H   0  0  0  0  0  0  0  0  0  0  0  0
   -4.6656   20.2729  -32.6408 H   0  0  0  0  0  0  0  0  0  0  0  0
  1  2  1  0
  2  3  1  0
  3  4  2  0
  3  5  1  0
  5  6  1  0
  6  7  1  0
  7  8  1  0
  7  9  2  0
  6 10  2  0
 10 11  1  0
 11 12  2  0
 12 13  1  0
 13 14  2  0
 14 15  1  0
 15 16  1  0
 16 17  1  0
 17 18  1  0
 18 19  1  0
 19 20  1  0
 20 21  1  0
 21 22  1  0
 22 23  1  0
 22 24  1  0
 24 25  1  0
 18 26  1  0
 26 27  1  0
 14 28  1  0
 28 29  2  0
 29  5  1  0
 29 11  1  0
 27 15  1  0
 25 19  1  0
  1 30  1  0
  1 31  1  0
  1 32  1  0
  8 33  1  0
 10 34  1  0
 12 35  1  0
 13 36  1  0
 16 37  1  0
 16 38  1  0
 17 39  1  0
 17 40  1  0
 18 41  1  0
 19 42  1  0
 20 43  1  0
 20 44  1  0
 21 45  1  0
 21 46  1  0
 23 47  1  0
 23 48  1  0
 23 49  1  0
 24 50  1  0
 24 51  1  0
 25 52  1  0
 25 53  1  0
 26 54  1  0
 26 55  1  0
 27 56  1  0
 27 57  1  0
 28 58  1  0
M  CHG  2   8  -1  19   1
M  END
>  <UniqueID>  (56) 
56

>  <SMILES>  (56) 
COC(=O)n1c(C([NH-])=O)cc2ccc(N3CCC([NH+]4CCN(C)CC4)CC3)cc21

>  <Energy>  (56) 
124.37354859100212

>  <Genealogy>  (56) 
COC(=O)n1c(C([NH-])=O)cc2ccc(N3CCC([NH+]4CCN(C)CC4)CC3)cc21 (protonated)
COC(=O)n1c(C([NH-])=O)cc2ccc(N3CCC([NH+]4CCN(C)CC4)CC3)cc21 (3D coordinates assigned)
COC(=O)n1c(C([NH-])=O)cc2ccc(N3CCC([NH+]4CCN(C)CC4)CC3)cc21 (nonaromatic ring conformer: 124.37354859100212 kcal/mol)

>  <smiles>  (56) 
COC(=O)n1c(C(N)=O)cc2ccc(N3CCC(N4CCN(C)CC4)CC3)cc21

>  <score_type>  (56) 
oracle

>  <origin>  (56) 
adg

>  <m_score__min__energy>  (56) 
-10.75

>  <m_primary>  (56) 
energy

$$$$
57:0
     RDKit          3D

 46 50  0  0  0  0  0  0  0  0999 V2000
   -1.6130   25.9220  -28.8950 N   0  0  0  0  0  0  0  0  0  0  0  0
   -0.8570   24.7150  -28.8300 C   0  0  0  0  0  0  0  0  0  0  0  0
    0.1930   24.6810  -28.1340 O   0  0  0  0  0  0  0  0  0  0  0  0
   -1.3170   23.5170  -29.5600 C   0  0  0  0  0  0  0  0  0  0  0  0
   -0.5220   22.3950  -29.7980 C   0  0  0  0  0  0  0  0  0  0  0  0
   -1.3040   21.5470  -30.5520 C   0  0  0  0  0  0  0  0  0  0  0  0
   -1.0280   20.2820  -31.0630 C   0  0  0  0  0  0  0  0  0  0  0  0
   -2.0390   19.6310  -31.7910 C   0  0  0  0  0  0  0  0  0  0  0  0
   -3.2970   20.2510  -31.9930 C   0  0  0  0  0  0  0  0  0  0  0  0
   -4.3700   19.5280  -32.7560 C   0  0  2  0  0  0  0  0  0  0  0  0
   -5.3240   18.4660  -32.1840 C   0  0  0  0  0  0  0  0  0  0  0  0
   -5.5950   18.7080  -33.6720 C   0  0  2  0  0  0  0  0  0  0  0  0
   -6.5700   18.0570  -34.4030 F   0  0  0  0  0  0  0  0  0  0  0  0
   -4.0960   18.6560  -33.9910 C   0  0  0  0  0  0  0  0  0  0  0  0
   -5.5340   20.2280  -33.4730 C   0  0  0  0  0  0  0  0  0  0  0  0
   -3.5410   21.5350  -31.4590 C   0  0  0  0  0  0  0  0  0  0  0  0
   -2.5150   22.1590  -30.7460 C   0  0  0  0  0  0  0  0  0  0  0  0
   -2.5390   23.3630  -30.1410 N   0  0  0  0  0  0  0  0  0  0  0  0
   -3.6610   24.2530  -30.0910 C   0  0  0  0  0  0  0  0  0  0  0  0
   -3.6670   25.2780  -30.8270 O   0  0  0  0  0  0  0  0  0  0  0  0
   -4.8790   23.8870  -29.2720 C   0  0  0  0  0  0  0  0  0  0  0  0
   -5.6730   22.7670  -29.9640 C   0  0  0  0  0  0  0  0  0  0  0  0
   -6.4450   23.2850  -31.2010 C   0  0  0  0  0  0  0  0  0  0  0  0
   -6.5450   24.6990  -31.2630 O   0  0  0  0  0  0  0  0  0  0  0  0
   -6.9360   25.2210  -30.0090 C   0  0  0  0  0  0  0  0  0  0  0  0
   -5.7900   25.1050  -28.9880 C   0  0  0  0  0  0  0  0  0  0  0  0
   -2.6550   25.8980  -28.9710 H   0  0  0  0  0  0  0  0  0  0  0  0
    0.5095   22.2239  -29.4564 H   0  0  0  0  0  0  0  0  0  0  0  0
   -0.0492   19.8066  -30.9021 H   0  0  0  0  0  0  0  0  0  0  0  0
   -1.8517   18.6305  -32.2080 H   0  0  0  0  0  0  0  0  0  0  0  0
   -4.9053   17.4957  -31.8788 H   0  0  0  0  0  0  0  0  0  0  0  0
   -5.9966   18.4934  -31.3140 H   0  0  0  0  0  0  0  0  0  0  0  0
   -3.5636   17.7035  -33.8521 H   0  0  0  0  0  0  0  0  0  0  0  0
   -3.5477   18.8718  -34.9199 H   0  0  0  0  0  0  0  0  0  0  0  0
   -5.3081   20.8616  -34.3433 H   0  0  0  0  0  0  0  0  0  0  0  0
   -6.2877   20.9384  -33.1024 H   0  0  0  0  0  0  0  0  0  0  0  0
   -4.5128   22.0304  -31.6007 H   0  0  0  0  0  0  0  0  0  0  0  0
   -4.5174   23.5247  -28.2983 H   0  0  0  0  0  0  0  0  0  0  0  0
   -4.9732   21.9814  -30.2851 H   0  0  0  0  0  0  0  0  0  0  0  0
   -6.4068   22.3752  -29.2443 H   0  0  0  0  0  0  0  0  0  0  0  0
   -5.9264   22.9340  -32.1054 H   0  0  0  0  0  0  0  0  0  0  0  0
   -7.4705   22.8944  -31.1252 H   0  0  0  0  0  0  0  0  0  0  0  0
   -7.2073   26.2804  -30.1280 H   0  0  0  0  0  0  0  0  0  0  0  0
   -7.7971   24.6446  -29.6399 H   0  0  0  0  0  0  0  0  0  0  0  0
   -5.1820   26.0206  -29.0316 H   0  0  0  0  0  0  0  0  0  0  0  0
   -6.2362   24.9695  -27.9917 H   0  0  0  0  0  0  0  0  0  0  0  0
  1  2  1  0
  2  3  2  0
  2  4  1  0
  4  5  2  0
  5  6  1  0
  6  7  2  0
  7  8  1  0
  8  9  2  0
 10  9  1  1
 10 11  1  0
 11 12  1  0
 12 13  1  6
 12 14  1  0
 12 15  1  0
  9 16  1  0
 16 17  2  0
 17 18  1  0
 18 19  1  0
 19 20  2  0
 19 21  1  0
 21 22  1  0
 22 23  1  0
 23 24  1  0
 24 25  1  0
 25 26  1  0
 18  4  1  0
 26 21  1  0
 17  6  1  0
 14 10  1  0
 15 10  1  0
  1 27  1  0
  5 28  1  0
  7 29  1  0
  8 30  1  0
 11 31  1  0
 11 32  1  0
 14 33  1  0
 14 34  1  0
 15 35  1  0
 15 36  1  0
 16 37  1  0
 21 38  1  0
 22 39  1  0
 22 40  1  0
 23 41  1  0
 23 42  1  0
 25 43  1  0
 25 44  1  0
 26 45  1  0
 26 46  1  0
M  CHG  1   1  -1
M  END
>  <UniqueID>  (57) 
57

>  <SMILES>  (57) 
[NH-]C(=O)c1cc2ccc(C34CC(F)(C3)C4)cc2n1C(=O)C1CCOCC1

>  <Energy>  (57) 
389.5201762453883

>  <Genealogy>  (57) 
[NH-]C(=O)c1cc2ccc(C34CC(F)(C3)C4)cc2n1C(=O)C1CCOCC1 (protonated)
[NH-]C(=O)c1cc2ccc(C34CC(F)(C3)C4)cc2n1C(=O)C1CCOCC1 (3D coordinates assigned)
[NH-]C(=O)c1cc2ccc(C34CC(F)(C3)C4)cc2n1C(=O)C1CCOCC1 (nonaromatic ring conformer: 389.5201762453883 kcal/mol)

>  <smiles>  (57) 
NC(=O)c1cc2ccc(C34CC(F)(C3)C4)cc2n1C(=O)C1CCOCC1

>  <score_type>  (57) 
oracle

>  <origin>  (57) 
adg

>  <m_score__min__energy>  (57) 
-11.890000000000001

>  <m_primary>  (57) 
energy

$$$$
58:0
     RDKit          3D

 29 30  0  0  0  0  0  0  0  0999 V2000
   -3.4770   22.6350  -28.9120 C   0  0  0  0  0  0  0  0  0  0  0  0
   -3.1040   23.0850  -30.2090 O   0  0  0  0  0  0  0  0  0  0  0  0
   -3.7710   22.6800  -31.3680 C   0  0  0  0  0  0  0  0  0  0  0  0
   -3.1170   22.2500  -32.3580 O   0  0  0  0  0  0  0  0  0  0  0  0
   -5.2050   22.7540  -31.4340 N   0  0  0  0  0  0  0  0  0  0  0  0
   -6.0050   23.7690  -31.0000 C   0  0  0  0  0  0  0  0  0  0  0  0
   -5.5440   25.0850  -30.5120 C   0  0  0  0  0  0  0  0  0  0  0  0
   -4.1860   25.4990  -30.6700 N   0  0  0  0  0  0  0  0  0  0  0  0
   -6.3760   25.8790  -29.9970 O   0  0  0  0  0  0  0  0  0  0  0  0
   -7.3470   23.4240  -31.1200 C   0  0  0  0  0  0  0  0  0  0  0  0
   -7.3500   22.1590  -31.6610 C   0  0  0  0  0  0  0  0  0  0  0  0
   -8.4180   21.3220  -31.9680 C   0  0  0  0  0  0  0  0  0  0  0  0
   -8.1300   20.0430  -32.4720 C   0  0  0  0  0  0  0  0  0  0  0  0
   -6.7870   19.6260  -32.6680 C   0  0  0  0  0  0  0  0  0  0  0  0
   -6.4900   18.2280  -33.1480 C   0  0  0  0  0  0  0  0  0  0  0  0
   -5.4550   17.6700  -32.4180 F   0  0  0  0  0  0  0  0  0  0  0  0
   -6.1280   18.2740  -34.4820 F   0  0  0  0  0  0  0  0  0  0  0  0
   -7.6030   17.4180  -33.0100 F   0  0  0  0  0  0  0  0  0  0  0  0
   -5.7290   20.4980  -32.3180 C   0  0  0  0  0  0  0  0  0  0  0  0
   -6.0460   21.7750  -31.8400 C   0  0  0  0  0  0  0  0  0  0  0  0
   -2.9697   23.2470  -28.1516 H   0  0  0  0  0  0  0  0  0  0  0  0
   -4.5663   22.7282  -28.7908 H   0  0  0  0  0  0  0  0  0  0  0  0
   -3.1834   21.5819  -28.7908 H   0  0  0  0  0  0  0  0  0  0  0  0
   -3.5150   24.9410  -31.2420 H   0  0  0  0  0  0  0  0  0  0  0  0
   -3.8710   26.4160  -30.2830 H   0  0  0  0  0  0  0  0  0  0  0  0
   -8.2199   24.0328  -30.8417 H   0  0  0  0  0  0  0  0  0  0  0  0
   -9.4569   21.6520  -31.8204 H   0  0  0  0  0  0  0  0  0  0  0  0
   -8.9540   19.3569  -32.7176 H   0  0  0  0  0  0  0  0  0  0  0  0
   -4.6810   20.1796  -32.4192 H   0  0  0  0  0  0  0  0  0  0  0  0
  1  2  1  0
  2  3  1  0
  3  4  2  0
  3  5  1  0
  5  6  1  0
  6  7  1  0
  7  8  1  0
  7  9  2  0
  6 10  2  0
 10 11  1  0
 11 12  2  0
 12 13  1  0
 13 14  2  0
 14 15  1  0
 15 16  1  0
 15 17  1  0
 15 18  1  0
 14 19  1  0
 19 20  2  0
 20  5  1  0
 20 11  1  0
  1 21  1  0
  1 22  1  0
  1 23  1  0
  8 24  1  0
  8 25  1  0
 10 26  1  0
 12 27  1  0
 13 28  1  0
 19 29  1  0
M  END
>  <UniqueID>  (58) 
58

>  <SMILES>  (58) 
COC(=O)n1c(C(N)=O)cc2ccc(C(F)(F)F)cc21

>  <Energy>  (58) 
67.42554875306027

>  <Genealogy>  (58) 
COC(=O)n1c(C(N)=O)cc2ccc(C(F)(F)F)cc21 (3D coordinates assigned)
COC(=O)n1c(C(N)=O)cc2ccc(C(F)(F)F)cc21 (optimized conformer: 67.42554875306027 kcal/mol)

>  <smiles>  (58) 
COC(=O)n1c(C(N)=O)cc2ccc(C(F)(F)F)cc21

>  <score_type>  (58) 
oracle

>  <origin>  (58) 
adg

>  <m_score__min__energy>  (58) 
-7.5199999999999996

>  <m_primary>  (58) 
energy

$$$$
59:0
     RDKit          3D

 36 38  0  0  0  0  0  0  0  0999 V2000
   -3.7220   20.8060  -30.8410 C   0  0  0  0  0  0  0  0  0  0  0  0
   -4.2290   22.1570  -31.2350 C   0  0  0  0  0  0  0  0  0  0  0  0
   -3.4060   23.0440  -31.5850 O   0  0  0  0  0  0  0  0  0  0  0  0
   -5.6350   22.4550  -31.2160 N   0  0  0  0  0  0  0  0  0  0  0  0
   -6.2250   23.6220  -30.8320 C   0  0  0  0  0  0  0  0  0  0  0  0
   -5.5190   24.7820  -30.2390 C   0  0  0  0  0  0  0  0  0  0  0  0
   -5.9050   25.3040  -28.9660 N   0  0  0  0  0  0  0  0  0  0  0  0
   -4.5500   25.3100  -30.8470 O   0  0  0  0  0  0  0  0  0  0  0  0
   -7.6060   23.5510  -31.0100 C   0  0  0  0  0  0  0  0  0  0  0  0
   -7.8440   22.2960  -31.5230 C   0  0  0  0  0  0  0  0  0  0  0  0
   -9.0400   21.7020  -31.9120 C   0  0  0  0  0  0  0  0  0  0  0  0
   -8.9860   20.4040  -32.4480 C   0  0  0  0  0  0  0  0  0  0  0  0
   -7.7470   19.7250  -32.5780 C   0  0  0  0  0  0  0  0  0  0  0  0
   -7.6750   18.4150  -33.1650 N   0  0  0  0  0  0  0  0  0  0  0  0
   -6.4550   17.7050  -33.4300 C   0  0  0  0  0  0  0  0  0  0  0  0
   -5.6780   17.9780  -34.5690 C   0  0  0  0  0  0  0  0  0  0  0  0
   -4.5160   17.2400  -34.8000 C   0  0  0  0  0  0  0  0  0  0  0  0
   -4.1460   16.2300  -33.9110 C   0  0  0  0  0  0  0  0  0  0  0  0
   -4.9530   15.9680  -32.8020 C   0  0  0  0  0  0  0  0  0  0  0  0
   -6.0790   16.6990  -32.5920 N   0  0  0  0  0  0  0  0  0  0  0  0
   -6.5530   20.3720  -32.1920 C   0  0  0  0  0  0  0  0  0  0  0  0
   -6.6380   21.6550  -31.6410 C   0  0  0  0  0  0  0  0  0  0  0  0
   -3.6937   20.7306  -29.7440 H   0  0  0  0  0  0  0  0  0  0  0  0
   -4.3906   20.0314  -31.2447 H   0  0  0  0  0  0  0  0  0  0  0  0
   -2.7088   20.6625  -31.2447 H   0  0  0  0  0  0  0  0  0  0  0  0
   -6.7400   24.9390  -28.4580 H   0  0  0  0  0  0  0  0  0  0  0  0
   -5.3740   26.0970  -28.5430 H   0  0  0  0  0  0  0  0  0  0  0  0
   -8.3479   24.3321  -30.7877 H   0  0  0  0  0  0  0  0  0  0  0  0
   -9.9980   22.2316  -31.8035 H   0  0  0  0  0  0  0  0  0  0  0  0
   -9.9141   19.9092  -32.7702 H   0  0  0  0  0  0  0  0  0  0  0  0
   -8.5720   17.9400  -33.4150 H   0  0  0  0  0  0  0  0  0  0  0  0
   -5.9831   18.7667  -35.2725 H   0  0  0  0  0  0  0  0  0  0  0  0
   -3.8932   17.4541  -35.6810 H   0  0  0  0  0  0  0  0  0  0  0  0
   -3.2291   15.6469  -34.0819 H   0  0  0  0  0  0  0  0  0  0  0  0
   -4.6770   15.1693  -32.0979 H   0  0  0  0  0  0  0  0  0  0  0  0
   -5.5784   19.8786  -32.3215 H   0  0  0  0  0  0  0  0  0  0  0  0
  1  2  1  0
  2  3  2  0
  2  4  1  0
  4  5  1  0
  5  6  1  0
  6  7  1  0
  6  8  2  0
  5  9  2  0
  9 10  1  0
 10 11  2  0
 11 12  1  0
 12 13  2  0
 13 14  1  0
 14 15  1  0
 15 16  2  0
 16 17  1  0
 17 18  2  0
 18 19  1  0
 19 20  2  0
 13 21  1  0
 21 22  2  0
 22  4  1  0
 22 10  1  0
 20 15  1  0
  1 23  1  0
  1 24  1  0
  1 25  1  0
  7 26  1  0
  7 27  1  0
  9 28  1  0
 11 29  1  0
 12 30  1  0
 14 31  1  0
 16 32  1  0
 17 33  1  0
 18 34  1  0
 19 35  1  0
 21 36  1  0
M  END
>  <UniqueID>  (59) 
59

>  <SMILES>  (59) 
CC(=O)n1c(C(N)=O)cc2ccc(Nc3ccccn3)cc21

>  <Energy>  (59) 
82.85263087564282

>  <Genealogy>  (59) 
CC(=O)n1c(C(N)=O)cc2ccc(Nc3ccccn3)cc21 (3D coordinates assigned)
CC(=O)n1c(C(N)=O)cc2ccc(Nc3ccccn3)cc21 (optimized conformer: 82.85263087564282 kcal/mol)

>  <smiles>  (59) 
CC(=O)n1c(C(N)=O)cc2ccc(Nc3ccccn3)cc21

>  <score_type>  (59) 
oracle

>  <origin>  (59) 
adg

>  <m_score__min__energy>  (59) 
-9.2100000000000009

>  <m_primary>  (59) 
energy

$$$$
60:0
     RDKit          3D

 43 45  0  0  0  0  0  0  0  0999 V2000
   -1.6370   25.6870  -28.9640 N   0  0  0  0  0  0  0  0  0  0  0  0
   -0.9370   24.4630  -29.1640 C   0  0  0  0  0  0  0  0  0  0  0  0
    0.2500   24.3580  -28.7550 O   0  0  0  0  0  0  0  0  0  0  0  0
   -1.5620   23.3400  -29.8930 C   0  0  0  0  0  0  0  0  0  0  0  0
   -0.8730   22.1830  -30.2520 C   0  0  0  0  0  0  0  0  0  0  0  0
   -1.7660   21.4410  -30.9900 C   0  0  0  0  0  0  0  0  0  0  0  0
   -1.6090   20.2000  -31.6010 C   0  0  0  0  0  0  0  0  0  0  0  0
   -2.7070   19.6620  -32.2910 C   0  0  0  0  0  0  0  0  0  0  0  0
   -3.9400   20.3610  -32.3420 C   0  0  0  0  0  0  0  0  0  0  0  0
   -5.1000   19.7890  -33.1160 C   0  0  0  0  0  0  0  0  0  0  0  0
   -6.3090   20.7420  -33.1520 C   0  0  0  0  0  0  0  0  0  0  0  0
   -7.6070   20.1700  -32.5350 C   0  0  0  0  0  0  0  0  0  0  0  0
   -8.0670   20.9180  -31.3340 N   0  0  0  0  0  0  0  0  0  0  0  0
   -9.3600   21.5890  -31.5600 C   0  0  0  0  0  0  0  0  0  0  0  0
   -9.0770   23.0280  -31.9830 C   0  0  0  0  0  0  0  0  0  0  0  0
   -7.5960   23.2460  -31.7380 C   0  0  0  0  0  0  0  0  0  0  0  0
   -7.1340   22.0060  -30.9940 C   0  0  0  0  0  0  0  0  0  0  0  0
   -4.0610   21.6180  -31.7090 C   0  0  0  0  0  0  0  0  0  0  0  0
   -2.9430   22.1410  -31.0520 C   0  0  0  0  0  0  0  0  0  0  0  0
   -2.8340   23.3110  -30.3820 N   0  0  0  0  0  0  0  0  0  0  0  0
   -3.8830   24.2690  -30.1650 C   0  0  0  0  0  0  0  0  0  0  0  0
   -4.7980   24.0330  -29.3350 O   0  0  0  0  0  0  0  0  0  0  0  0
   -3.8810   25.4780  -30.8510 O   0  0  0  0  0  0  0  0  0  0  0  0
   -2.6670   25.7490  -29.1240 H   0  0  0  0  0  0  0  0  0  0  0  0
    0.1645   21.9191  -29.9990 H   0  0  0  0  0  0  0  0  0  0  0  0
   -0.6538   19.6575  -31.5449 H   0  0  0  0  0  0  0  0  0  0  0  0
   -2.6101   18.6898  -32.7965 H   0  0  0  0  0  0  0  0  0  0  0  0
   -4.7737   19.5932  -34.1481 H   0  0  0  0  0  0  0  0  0  0  0  0
   -5.4167   18.8645  -32.6110 H   0  0  0  0  0  0  0  0  0  0  0  0
   -6.0413   21.6548  -32.5996 H   0  0  0  0  0  0  0  0  0  0  0  0
   -6.5267   20.9246  -34.2147 H   0  0  0  0  0  0  0  0  0  0  0  0
   -8.4011   20.2078  -33.2952 H   0  0  0  0  0  0  0  0  0  0  0  0
   -7.3891   19.1407  -32.2141 H   0  0  0  0  0  0  0  0  0  0  0  0
   -8.1390   20.2790  -30.5100 H   0  0  0  0  0  0  0  0  0  0  0  0
   -9.9166   21.0692  -32.3537 H   0  0  0  0  0  0  0  0  0  0  0  0
   -9.9648   21.5726  -30.6413 H   0  0  0  0  0  0  0  0  0  0  0  0
   -9.3139   23.1680  -33.0480 H   0  0  0  0  0  0  0  0  0  0  0  0
   -9.6911   23.7447  -31.4180 H   0  0  0  0  0  0  0  0  0  0  0  0
   -7.0573   23.3478  -32.6916 H   0  0  0  0  0  0  0  0  0  0  0  0
   -7.4028   24.1662  -31.1672 H   0  0  0  0  0  0  0  0  0  0  0  0
   -6.1137   21.7382  -31.3059 H   0  0  0  0  0  0  0  0  0  0  0  0
   -7.1230   22.1846  -29.9086 H   0  0  0  0  0  0  0  0  0  0  0  0
   -5.0112   22.1717  -31.7324 H   0  0  0  0  0  0  0  0  0  0  0  0
  1  2  1  0
  2  3  2  0
  2  4  1  0
  4  5  2  0
  5  6  1  0
  6  7  2  0
  7  8  1  0
  8  9  2  0
  9 10  1  0
 10 11  1  0
 11 12  1  0
 12 13  1  0
 13 14  1  0
 14 15  1  0
 15 16  1  0
 16 17  1  0
  9 18  1  0
 18 19  2  0
 19 20  1  0
 20 21  1  0
 21 22  2  0
 21 23  1  0
 20  4  1  0
 19  6  1  0
 17 13  1  0
  1 24  1  0
  5 25  1  0
  7 26  1  0
  8 27  1  0
 10 28  1  0
 10 29  1  0
 11 30  1  0
 11 31  1  0
 12 32  1  0
 12 33  1  0
 13 34  1  0
 14 35  1  0
 14 36  1  0
 15 37  1  0
 15 38  1  0
 16 39  1  0
 16 40  1  0
 17 41  1  0
 17 42  1  0
 18 43  1  0
M  CHG  3   1  -1  13   1  23  -1
M  END
>  <UniqueID>  (60) 
60

>  <SMILES>  (60) 
[NH-]C(=O)c1cc2ccc(CCC[NH+]3CCCC3)cc2n1C(=O)[O-]

>  <Energy>  (60) 
85.36580031461342

>  <Genealogy>  (60) 
[NH-]C(=O)c1cc2ccc(CCC[NH+]3CCCC3)cc2n1C(=O)[O-] (protonated)
[NH-]C(=O)c1cc2ccc(CCC[NH+]3CCCC3)cc2n1C(=O)[O-] (3D coordinates assigned)
[NH-]C(=O)c1cc2ccc(CCC[NH+]3CCCC3)cc2n1C(=O)[O-] (nonaromatic ring conformer: 85.36580031461342 kcal/mol)

>  <smiles>  (60) 
NC(=O)c1cc2ccc(CCCN3CCCC3)cc2n1C(=O)O

>  <score_type>  (60) 
oracle

>  <origin>  (60) 
adg

>  <m_score__min__energy>  (60) 
-11.5

>  <m_primary>  (60) 
energy

$$$$
61:0
     RDKit          3D

 58 62  0  0  0  0  0  0  0  0999 V2000
   -3.8710   25.4400  -30.5020 N   0  0  0  0  0  0  0  0  0  0  0  0
   -4.7690   24.3330  -30.4700 C   0  0  0  0  0  0  0  0  0  0  0  0
   -5.8270   24.4180  -29.7890 O   0  0  0  0  0  0  0  0  0  0  0  0
   -4.4530   23.0740  -31.1740 C   0  0  0  0  0  0  0  0  0  0  0  0
   -5.2430   22.5530  -32.1990 C   0  0  0  0  0  0  0  0  0  0  0  0
   -4.6730   21.3430  -32.5200 C   0  0  0  0  0  0  0  0  0  0  0  0
   -5.0500   20.4020  -33.4720 C   0  0  0  0  0  0  0  0  0  0  0  0
   -4.2680   19.2420  -33.5970 C   0  0  0  0  0  0  0  0  0  0  0  0
   -3.1250   19.0500  -32.7800 C   0  0  0  0  0  0  0  0  0  0  0  0
   -2.3310   17.7770  -32.8880 C   0  0  0  0  0  0  0  0  0  0  0  0
   -0.5320   18.1230  -32.9480 P   0  0  0  0  0  0  0  0  0  0  0  0
    0.3710   16.6930  -33.5760 C   0  0  0  0  0  0  0  0  0  0  0  0
    1.7530   16.5550  -33.3510 C   0  0  0  0  0  0  0  0  0  0  0  0
    2.4480   15.4630  -33.8820 C   0  0  0  0  0  0  0  0  0  0  0  0
    1.7720   14.5090  -34.6480 C   0  0  0  0  0  0  0  0  0  0  0  0
    0.4020   14.6490  -34.8910 C   0  0  0  0  0  0  0  0  0  0  0  0
   -0.2960   15.7410  -34.3650 C   0  0  0  0  0  0  0  0  0  0  0  0
    0.0220   18.5040  -31.2710 C   0  0  0  0  0  0  0  0  0  0  0  0
    0.1640   19.8390  -30.8610 C   0  0  0  0  0  0  0  0  0  0  0  0
    0.5330   20.1380  -29.5460 C   0  0  0  0  0  0  0  0  0  0  0  0
    0.7560   19.1080  -28.6300 C   0  0  0  0  0  0  0  0  0  0  0  0
    0.6030   17.7780  -29.0270 C   0  0  0  0  0  0  0  0  0  0  0  0
    0.2300   17.4740  -30.3390 C   0  0  0  0  0  0  0  0  0  0  0  0
   -0.2140   19.4830  -34.0920 C   0  0  0  0  0  0  0  0  0  0  0  0
    0.3350   19.2120  -35.3550 C   0  0  0  0  0  0  0  0  0  0  0  0
    0.6130   20.2560  -36.2410 C   0  0  0  0  0  0  0  0  0  0  0  0
    0.3700   21.5780  -35.8630 C   0  0  0  0  0  0  0  0  0  0  0  0
   -0.1340   21.8590  -34.5910 C   0  0  0  0  0  0  0  0  0  0  0  0
   -0.4120   20.8180  -33.7010 C   0  0  0  0  0  0  0  0  0  0  0  0
   -2.7650   20.0360  -31.8360 C   0  0  0  0  0  0  0  0  0  0  0  0
   -3.5790   21.1680  -31.7120 C   0  0  0  0  0  0  0  0  0  0  0  0
   -3.4280   22.2240  -30.8800 N   0  0  0  0  0  0  0  0  0  0  0  0
   -2.3620   22.4220  -29.9380 C   0  0  0  0  0  0  0  0  0  0  0  0
   -1.5330   23.5800  -30.0230 N   0  0  0  0  0  0  0  0  0  0  0  0
   -2.1620   21.5810  -29.0210 O   0  0  0  0  0  0  0  0  0  0  0  0
   -2.8370   25.2930  -30.4710 H   0  0  0  0  0  0  0  0  0  0  0  0
   -6.1329   23.0124  -32.6540 H   0  0  0  0  0  0  0  0  0  0  0  0
   -5.9335   20.5613  -34.1076 H   0  0  0  0  0  0  0  0  0  0  0  0
   -4.5448   18.4753  -34.3356 H   0  0  0  0  0  0  0  0  0  0  0  0
   -2.5460   17.1444  -32.0141 H   0  0  0  0  0  0  0  0  0  0  0  0
   -2.6189   17.2640  -33.8175 H   0  0  0  0  0  0  0  0  0  0  0  0
    2.2891   17.3085  -32.7553 H   0  0  0  0  0  0  0  0  0  0  0  0
    3.5269   15.3551  -33.6966 H   0  0  0  0  0  0  0  0  0  0  0  0
    2.3181   13.6475  -35.0599 H   0  0  0  0  0  0  0  0  0  0  0  0
   -0.1276   13.8990  -35.4969 H   0  0  0  0  0  0  0  0  0  0  0  0
   -1.3708   15.8548  -34.5698 H   0  0  0  0  0  0  0  0  0  0  0  0
   -0.0159   20.6538  -31.5777 H   0  0  0  0  0  0  0  0  0  0  0  0
    0.6478   21.1861  -29.2326 H   0  0  0  0  0  0  0  0  0  0  0  0
    1.0518   19.3439  -27.5971 H   0  0  0  0  0  0  0  0  0  0  0  0
    0.7767   16.9669  -28.3046 H   0  0  0  0  0  0  0  0  0  0  0  0
    0.0989   16.4249  -30.6427 H   0  0  0  0  0  0  0  0  0  0  0  0
    0.5473   18.1734  -35.6485 H   0  0  0  0  0  0  0  0  0  0  0  0
    1.0238   20.0362  -37.2375 H   0  0  0  0  0  0  0  0  0  0  0  0
    0.5754   22.3980  -36.5668 H   0  0  0  0  0  0  0  0  0  0  0  0
   -0.3124   22.9016  -34.2892 H   0  0  0  0  0  0  0  0  0  0  0  0
   -0.7868   21.0443  -32.6919 H   0  0  0  0  0  0  0  0  0  0  0  0
   -1.8663   19.9176  -31.2128 H   0  0  0  0  0  0  0  0  0  0  0  0
   -1.9480   24.5370  -30.0440 H   0  0  0  0  0  0  0  0  0  0  0  0
  1  2  1  0
  2  3  2  0
  2  4  1  0
  4  5  2  0
  5  6  1  0
  6  7  2  0
  7  8  1  0
  8  9  2  0
  9 10  1  0
 10 11  1  0
 11 12  1  0
 12 13  2  0
 13 14  1  0
 14 15  2  0
 15 16  1  0
 16 17  2  0
 11 18  1  0
 18 19  2  0
 19 20  1  0
 20 21  2  0
 21 22  1  0
 22 23  2  0
 11 24  1  0
 24 25  2  0
 25 26  1  0
 26 27  2  0
 27 28  1  0
 28 29  2  0
  9 30  1  0
 30 31  2  0
 31 32  1  0
 32 33  1  0
 33 34  1  0
 33 35  2  0
 32  4  1  0
 31  6  1  0
 17 12  1  0
 23 18  1  0
 29 24  1  0
  1 36  1  0
  5 37  1  0
  7 38  1  0
  8 39  1  0
 10 40  1  0
 10 41  1  0
 13 42  1  0
 14 43  1  0
 15 44  1  0
 16 45  1  0
 17 46  1  0
 19 47  1  0
 20 48  1  0
 21 49  1  0
 22 50  1  0
 23 51  1  0
 25 52  1  0
 26 53  1  0
 27 54  1  0
 28 55  1  0
 29 56  1  0
 30 57  1  0
 34 58  1  0
M  CHG  3   1  -1  11   1  34  -1
M  END
>  <UniqueID>  (61) 
61

>  <SMILES>  (61) 
[NH-]C(=O)c1cc2ccc(C[P+](c3ccccc3)(c3ccccc3)c3ccccc3)cc2n1C([NH-])=O

>  <Energy>  (61) 
90.6004625823285

>  <Genealogy>  (61) 
[NH-]C(=O)c1cc2ccc(C[P+](c3ccccc3)(c3ccccc3)c3ccccc3)cc2n1C([NH-])=O (protonated)
[NH-]C(=O)c1cc2ccc(C[P+](c3ccccc3)(c3ccccc3)c3ccccc3)cc2n1C([NH-])=O (3D coordinates assigned)
[NH-]C(=O)c1cc2ccc(C[P+](c3ccccc3)(c3ccccc3)c3ccccc3)cc2n1C([NH-])=O (optimized conformer: 90.6004625823285 kcal/mol)

>  <smiles>  (61) 
NC(=O)c1cc2ccc(C[P+](c3ccccc3)(c3ccccc3)c3ccccc3)cc2n1C(N)=O

>  <score_type>  (61) 
oracle

>  <origin>  (61) 
adg

>  <m_score__min__energy>  (61) 
-10.65

>  <m_primary>  (61) 
energy

$$$$
62:0
     RDKit          3D

 38 41  0  0  0  0  0  0  0  0999 V2000
   -3.8490   25.2970  -30.5850 N   0  0  0  0  0  0  0  0  0  0  0  0
   -5.2420   25.1560  -30.3230 C   0  0  0  0  0  0  0  0  0  0  0  0
   -5.8630   26.1030  -29.7670 O   0  0  0  0  0  0  0  0  0  0  0  0
   -5.9730   23.9340  -30.7180 C   0  0  0  0  0  0  0  0  0  0  0  0
   -7.2900   23.9320  -31.1770 C   0  0  0  0  0  0  0  0  0  0  0  0
   -7.5680   22.6190  -31.4860 C   0  0  0  0  0  0  0  0  0  0  0  0
   -8.7300   22.0400  -31.9800 C   0  0  0  0  0  0  0  0  0  0  0  0
   -8.7360   20.6510  -32.1900 C   0  0  0  0  0  0  0  0  0  0  0  0
   -7.5920   19.8610  -31.9070 C   0  0  0  0  0  0  0  0  0  0  0  0
   -7.6920   18.3670  -32.1580 C   0  0  0  0  0  0  0  0  0  0  0  0
   -6.4970   17.5110  -31.7580 C   0  0  0  0  0  0  0  0  0  0  0  0
   -6.7840   17.7780  -33.2300 C   0  0  0  0  0  0  0  0  0  0  0  0
   -6.4250   20.4950  -31.4020 C   0  0  0  0  0  0  0  0  0  0  0  0
   -6.4500   21.8800  -31.2120 C   0  0  0  0  0  0  0  0  0  0  0  0
   -5.4660   22.6690  -30.7340 N   0  0  0  0  0  0  0  0  0  0  0  0
   -4.1680   22.2290  -30.3060 C   0  0  0  0  0  0  0  0  0  0  0  0
   -3.8970   22.2320  -29.0740 O   0  0  0  0  0  0  0  0  0  0  0  0
   -3.1400   21.8120  -31.2900 C   0  0  0  0  0  0  0  0  0  0  0  0
   -1.8750   21.3760  -30.8600 C   0  0  0  0  0  0  0  0  0  0  0  0
   -0.9150   20.9850  -31.7940 C   0  0  0  0  0  0  0  0  0  0  0  0
   -1.2210   21.0350  -33.1540 C   0  0  0  0  0  0  0  0  0  0  0  0
   -2.4460   21.4640  -33.5620 N   0  0  0  0  0  0  0  0  0  0  0  0
   -3.3990   21.8500  -32.6710 C   0  0  0  0  0  0  0  0  0  0  0  0
   -3.4950   26.0380  -31.2290 H   0  0  0  0  0  0  0  0  0  0  0  0
   -7.9640   24.7961  -31.2721 H   0  0  0  0  0  0  0  0  0  0  0  0
   -9.6183   22.6504  -32.2000 H   0  0  0  0  0  0  0  0  0  0  0  0
   -9.6435   20.1674  -32.5807 H   0  0  0  0  0  0  0  0  0  0  0  0
   -8.7722   18.3405  -31.9520 H   0  0  0  0  0  0  0  0  0  0  0  0
   -5.6249   17.9755  -31.2746 H   0  0  0  0  0  0  0  0  0  0  0  0
   -6.3570   16.6091  -31.1440 H   0  0  0  0  0  0  0  0  0  0  0  0
   -6.1191   18.4353  -33.8096 H   0  0  0  0  0  0  0  0  0  0  0  0
   -6.9371   17.1488  -34.1192 H   0  0  0  0  0  0  0  0  0  0  0  0
   -5.5236   19.9103  -31.1662 H   0  0  0  0  0  0  0  0  0  0  0  0
   -1.6414   21.3430  -29.7856 H   0  0  0  0  0  0  0  0  0  0  0  0
    0.0749   20.6402  -31.4606 H   0  0  0  0  0  0  0  0  0  0  0  0
   -0.4710   20.7272  -33.8975 H   0  0  0  0  0  0  0  0  0  0  0  0
   -2.6580   21.5000  -34.5840 H   0  0  0  0  0  0  0  0  0  0  0  0
   -4.3788   22.1941  -33.0338 H   0  0  0  0  0  0  0  0  0  0  0  0
  1  2  1  0
  2  3  2  0
  2  4  1  0
  4  5  2  0
  5  6  1  0
  6  7  2  0
  7  8  1  0
  8  9  2  0
  9 10  1  0
 10 11  1  0
 11 12  1  0
  9 13  1  0
 13 14  2  0
 14 15  1  0
 15 16  1  0
 16 17  2  0
 16 18  1  0
 18 19  2  0
 19 20  1  0
 20 21  2  0
 21 22  1  0
 22 23  2  0
 15  4  1  0
 23 18  1  0
 14  6  1  0
 12 10  1  0
  1 24  1  0
  5 25  1  0
  7 26  1  0
  8 27  1  0
 10 28  1  0
 11 29  1  0
 11 30  1  0
 12 31  1  0
 12 32  1  0
 13 33  1  0
 19 34  1  0
 20 35  1  0
 21 36  1  0
 22 37  1  0
 23 38  1  0
M  CHG  2   1  -1  22   1
M  END
>  <UniqueID>  (62) 
62

>  <SMILES>  (62) 
[NH-]C(=O)c1cc2ccc(C3CC3)cc2n1C(=O)c1ccc[nH+]c1

>  <Energy>  (62) 
350.2480530828299

>  <Genealogy>  (62) 
[NH-]C(=O)c1cc2ccc(C3CC3)cc2n1C(=O)c1ccc[nH+]c1 (protonated)
[NH-]C(=O)c1cc2ccc(C3CC3)cc2n1C(=O)c1ccc[nH+]c1 (3D coordinates assigned)
[NH-]C(=O)c1cc2ccc(C3CC3)cc2n1C(=O)c1ccc[nH+]c1 (nonaromatic ring conformer: 350.2480530828299 kcal/mol)

>  <smiles>  (62) 
NC(=O)c1cc2ccc(C3CC3)cc2n1C(=O)c1cccnc1

>  <score_type>  (62) 
oracle

>  <origin>  (62) 
adg

>  <m_score__min__energy>  (62) 
-11.09

>  <m_primary>  (62) 
energy

$$$$
63:0
     RDKit          3D

 32 34  0  0  0  0  0  0  0  0999 V2000
   -5.4390   26.4390  -30.4410 N   0  0  0  0  0  0  0  0  0  0  0  0
   -6.3190   25.4190  -29.9680 C   0  0  0  0  0  0  0  0  0  0  0  0
   -7.0870   25.6670  -29.0010 O   0  0  0  0  0  0  0  0  0  0  0  0
   -6.3910   24.1030  -30.6350 C   0  0  0  0  0  0  0  0  0  0  0  0
   -7.5910   23.4720  -30.9510 C   0  0  0  0  0  0  0  0  0  0  0  0
   -7.2320   22.3220  -31.6130 C   0  0  0  0  0  0  0  0  0  0  0  0
   -8.0280   21.3110  -32.1420 C   0  0  0  0  0  0  0  0  0  0  0  0
   -7.3890   20.2150  -32.7430 C   0  0  0  0  0  0  0  0  0  0  0  0
   -5.9730   20.1380  -32.7910 C   0  0  0  0  0  0  0  0  0  0  0  0
   -5.3060   18.9730  -33.4220 C   0  0  0  0  0  0  0  0  0  0  0  0
   -3.9630   19.0690  -33.8270 C   0  0  0  0  0  0  0  0  0  0  0  0
   -3.3240   17.9800  -34.4280 C   0  0  0  0  0  0  0  0  0  0  0  0
   -4.0160   16.7830  -34.6260 C   0  0  0  0  0  0  0  0  0  0  0  0
   -3.1410   15.2960  -35.4450 Br  0  0  0  0  0  0  0  0  0  0  0  0
   -5.3500   16.6740  -34.2210 C   0  0  0  0  0  0  0  0  0  0  0  0
   -5.9950   17.7600  -33.6210 C   0  0  0  0  0  0  0  0  0  0  0  0
   -7.2780   17.6120  -33.2020 F   0  0  0  0  0  0  0  0  0  0  0  0
   -5.1980   21.1880  -32.2440 C   0  0  0  0  0  0  0  0  0  0  0  0
   -5.8620   22.2790  -31.6710 C   0  0  0  0  0  0  0  0  0  0  0  0
   -5.3300   23.3680  -31.0690 N   0  0  0  0  0  0  0  0  0  0  0  0
   -3.9360   23.6250  -30.8270 C   0  0  0  0  0  0  0  0  0  0  0  0
   -3.0930   22.6940  -30.9010 O   0  0  0  0  0  0  0  0  0  0  0  0
   -3.5050   24.9050  -30.5020 O   0  0  0  0  0  0  0  0  0  0  0  0
   -4.9120   26.3250  -31.3350 H   0  0  0  0  0  0  0  0  0  0  0  0
   -5.3740   27.3500  -29.9360 H   0  0  0  0  0  0  0  0  0  0  0  0
   -8.6089   23.8194  -30.7203 H   0  0  0  0  0  0  0  0  0  0  0  0
   -9.1253   21.3687  -32.0909 H   0  0  0  0  0  0  0  0  0  0  0  0
   -7.9928   19.4069  -33.1816 H   0  0  0  0  0  0  0  0  0  0  0  0
   -3.4110   20.0074  -33.6700 H   0  0  0  0  0  0  0  0  0  0  0  0
   -2.2743   18.0662  -34.7454 H   0  0  0  0  0  0  0  0  0  0  0  0
   -5.8940   15.7304  -34.3750 H   0  0  0  0  0  0  0  0  0  0  0  0
   -4.0990   21.1478  -32.2685 H   0  0  0  0  0  0  0  0  0  0  0  0
  1  2  1  0
  2  3  2  0
  2  4  1  0
  4  5  2  0
  5  6  1  0
  6  7  2  0
  7  8  1  0
  8  9  2  0
  9 10  1  0
 10 11  2  0
 11 12  1  0
 12 13  2  0
 13 14  1  0
 13 15  1  0
 15 16  2  0
 16 17  1  0
  9 18  1  0
 18 19  2  0
 19 20  1  0
 20 21  1  0
 21 22  2  0
 21 23  1  0
 20  4  1  0
 19  6  1  0
 16 10  1  0
  1 24  1  0
  1 25  1  0
  5 26  1  0
  7 27  1  0
  8 28  1  0
 11 29  1  0
 12 30  1  0
 15 31  1  0
 18 32  1  0
M  CHG  1  23  -1
M  END
>  <UniqueID>  (63) 
63

>  <SMILES>  (63) 
NC(=O)c1cc2ccc(-c3ccc(Br)cc3F)cc2n1C(=O)[O-]

>  <Energy>  (63) 
81.05018448400305

>  <Genealogy>  (63) 
NC(=O)c1cc2ccc(-c3ccc(Br)cc3F)cc2n1C(=O)[O-] (protonated)
NC(=O)c1cc2ccc(-c3ccc(Br)cc3F)cc2n1C(=O)[O-] (3D coordinates assigned)
NC(=O)c1cc2ccc(-c3ccc(Br)cc3F)cc2n1C(=O)[O-] (optimized conformer: 81.05018448400305 kcal/mol)

>  <smiles>  (63) 
NC(=O)c1cc2ccc(-c3ccc(Br)cc3F)cc2n1C(=O)O

>  <score_type>  (63) 
oracle

>  <origin>  (63) 
adg

>  <m_score__min__energy>  (63) 
-10.039999999999999

>  <m_primary>  (63) 
energy

$$$$
64:0
     RDKit          3D

 41 43  0  0  0  0  0  0  0  0999 V2000
   -3.4700   16.5360  -35.0920 C   0  0  0  0  0  0  0  0  0  0  0  0
   -4.7300   16.8010  -34.3870 N   0  0  0  0  0  0  0  0  0  0  0  0
   -4.9940   18.0640  -33.9270 C   0  0  0  0  0  0  0  0  0  0  0  0
   -6.1990   18.3560  -33.2650 C   0  0  0  0  0  0  0  0  0  0  0  0
   -6.4800   19.7260  -32.7650 C   0  0  0  0  0  0  0  0  0  0  0  0
   -7.8140   20.2100  -32.7130 C   0  0  0  0  0  0  0  0  0  0  0  0
   -8.0900   21.5090  -32.2530 C   0  0  0  0  0  0  0  0  0  0  0  0
   -7.0200   22.2970  -31.8440 C   0  0  0  0  0  0  0  0  0  0  0  0
   -7.0010   23.5940  -31.3820 C   0  0  0  0  0  0  0  0  0  0  0  0
   -5.6590   23.8780  -31.1320 C   0  0  0  0  0  0  0  0  0  0  0  0
   -5.1940   25.1490  -30.5400 C   0  0  0  0  0  0  0  0  0  0  0  0
   -3.8940   25.6600  -30.8250 N   0  0  0  0  0  0  0  0  0  0  0  0
   -5.9370   25.7700  -29.7330 O   0  0  0  0  0  0  0  0  0  0  0  0
   -4.8790   22.8020  -31.4370 N   0  0  0  0  0  0  0  0  0  0  0  0
   -3.4470   22.7110  -31.4070 C   0  0  0  0  0  0  0  0  0  0  0  0
   -2.8190   22.3060  -32.4230 O   0  0  0  0  0  0  0  0  0  0  0  0
   -2.7580   23.0470  -30.2370 O   0  0  0  0  0  0  0  0  0  0  0  0
   -1.8370   22.1710  -29.5900 C   0  0  2  0  0  0  0  0  0  0  0  0
   -2.7250   21.2800  -28.1050 Br  0  0  0  0  0  0  0  0  0  0  0  0
   -0.6500   22.9860  -29.0850 C   0  0  0  0  0  0  0  0  0  0  0  0
   -1.2300   24.6710  -28.3140 Br  0  0  0  0  0  0  0  0  0  0  0  0
   -5.7270   21.8430  -31.8680 C   0  0  0  0  0  0  0  0  0  0  0  0
   -5.4210   20.5610  -32.3400 C   0  0  0  0  0  0  0  0  0  0  0  0
   -7.1330   17.3240  -33.0930 C   0  0  0  0  0  0  0  0  0  0  0  0
   -6.8600   16.0470  -33.5740 C   0  0  0  0  0  0  0  0  0  0  0  0
   -5.6500   15.7970  -34.2260 C   0  0  0  0  0  0  0  0  0  0  0  0
   -5.4190   14.6370  -34.6640 O   0  0  0  0  0  0  0  0  0  0  0  0
   -2.6679   16.3673  -34.3584 H   0  0  0  0  0  0  0  0  0  0  0  0
   -3.5838   15.6421  -35.7229 H   0  0  0  0  0  0  0  0  0  0  0  0
   -3.2141   17.4000  -35.7229 H   0  0  0  0  0  0  0  0  0  0  0  0
   -4.2518   18.8617  -34.0780 H   0  0  0  0  0  0  0  0  0  0  0  0
   -8.6409   19.5607  -33.0365 H   0  0  0  0  0  0  0  0  0  0  0  0
   -9.1211   21.8906  -32.2176 H   0  0  0  0  0  0  0  0  0  0  0  0
   -7.8619   24.2639  -31.2402 H   0  0  0  0  0  0  0  0  0  0  0  0
   -3.0390   25.1890  -30.4560 H   0  0  0  0  0  0  0  0  0  0  0  0
   -1.4790   21.4083  -30.2973 H   0  0  0  0  0  0  0  0  0  0  0  0
   -0.1168   22.4053  -28.3178 H   0  0  0  0  0  0  0  0  0  0  0  0
    0.0107   23.2028  -29.9373 H   0  0  0  0  0  0  0  0  0  0  0  0
   -4.3790   20.2108  -32.3794 H   0  0  0  0  0  0  0  0  0  0  0  0
   -8.0834   17.5244  -32.5768 H   0  0  0  0  0  0  0  0  0  0  0  0
   -7.5936   15.2381  -33.4414 H   0  0  0  0  0  0  0  0  0  0  0  0
  1  2  1  0
  2  3  1  0
  3  4  2  0
  4  5  1  0
  5  6  2  0
  6  7  1  0
  7  8  2  0
  8  9  1  0
  9 10  2  0
 10 11  1  0
 11 12  1  0
 11 13  2  0
 10 14  1  0
 14 15  1  0
 15 16  2  0
 15 17  1  0
 17 18  1  0
 18 19  1  0
 18 20  1  0
 20 21  1  0
 14 22  1  0
 22 23  2  0
  4 24  1  0
 24 25  2  0
 25 26  1  0
 26 27  2  0
 26  2  1  0
 23  5  1  0
 22  8  1  0
  1 28  1  0
  1 29  1  0
  1 30  1  0
  3 31  1  0
  6 32  1  0
  7 33  1  0
  9 34  1  0
 12 35  1  0
 18 36  1  6
 20 37  1  0
 20 38  1  0
 23 39  1  0
 24 40  1  0
 25 41  1  0
M  CHG  1  12  -1
M  END
>  <UniqueID>  (64) 
64

>  <SMILES>  (64) 
Cn1cc(-c2ccc3cc(C([NH-])=O)n(C(=O)O[C@H](Br)CBr)c3c2)ccc1=O

>  <Energy>  (64) 
85.71616228650117

>  <Genealogy>  (64) 
Cn1cc(-c2ccc3cc(C([NH-])=O)n(C(=O)OC(Br)CBr)c3c2)ccc1=O (protonated)
Cn1cc(-c2ccc3cc(C([NH-])=O)n(C(=O)O[C@H](Br)CBr)c3c2)ccc1=O (chirality)
Cn1cc(-c2ccc3cc(C([NH-])=O)n(C(=O)O[C@H](Br)CBr)c3c2)ccc1=O (3D coordinates assigned)
Cn1cc(-c2ccc3cc(C([NH-])=O)n(C(=O)O[C@H](Br)CBr)c3c2)ccc1=O (optimized conformer: 85.71616228650117 kcal/mol)

>  <smiles>  (64) 
Cn1cc(-c2ccc3cc(C(N)=O)n(C(=O)OC(Br)CBr)c3c2)ccc1=O

>  <score_type>  (64) 
oracle

>  <origin>  (64) 
adg

>  <m_score__min__energy>  (64) 
-11.23

>  <m_primary>  (64) 
energy

$$$$
65:0
     RDKit          3D

 68 73  0  0  0  0  0  0  0  0999 V2000
   -4.2250   24.4850  -27.2740 C   0  0  0  0  0  0  0  0  0  0  0  0
   -3.1710   23.6240  -27.9930 C   0  0  0  0  0  0  0  0  0  0  0  0
   -1.7940   23.9000  -27.3680 C   0  0  0  0  0  0  0  0  0  0  0  0
   -3.4940   22.1250  -27.8370 C   0  0  0  0  0  0  0  0  0  0  0  0
   -3.0860   23.9820  -29.3800 O   0  0  0  0  0  0  0  0  0  0  0  0
   -3.3570   23.1450  -30.4740 C   0  0  0  0  0  0  0  0  0  0  0  0
   -2.4390   22.4730  -31.0170 O   0  0  0  0  0  0  0  0  0  0  0  0
   -4.7010   23.0430  -30.9690 N   0  0  0  0  0  0  0  0  0  0  0  0
   -5.7060   23.9560  -30.8460 C   0  0  0  0  0  0  0  0  0  0  0  0
   -5.5770   25.3230  -30.2980 C   0  0  0  0  0  0  0  0  0  0  0  0
   -4.3620   26.0460  -30.4740 N   0  0  0  0  0  0  0  0  0  0  0  0
   -6.5110   25.8440  -29.6320 O   0  0  0  0  0  0  0  0  0  0  0  0
   -6.8820   23.4670  -31.4130 C   0  0  0  0  0  0  0  0  0  0  0  0
   -6.5620   22.2220  -31.9010 C   0  0  0  0  0  0  0  0  0  0  0  0
   -7.3530   21.2930  -32.5680 C   0  0  0  0  0  0  0  0  0  0  0  0
   -6.7600   20.0800  -32.9580 C   0  0  0  0  0  0  0  0  0  0  0  0
   -5.3960   19.8180  -32.6710 C   0  0  0  0  0  0  0  0  0  0  0  0
   -4.7900   18.5280  -33.0770 C   0  0  0  0  0  0  0  0  0  0  0  0
   -3.4190   18.4820  -33.3810 C   0  0  0  0  0  0  0  0  0  0  0  0
   -2.8040   17.2810  -33.7610 C   0  0  0  0  0  0  0  0  0  0  0  0
   -1.4010   17.2750  -34.0820 N   0  0  0  0  0  0  0  0  0  0  0  0
   -0.8900   16.9320  -35.3830 C   0  0  0  0  0  0  0  0  0  0  0  0
   -1.5710   16.1890  -36.1410 O   0  0  0  0  0  0  0  0  0  0  0  0
    0.4800   17.3770  -35.8520 C   0  0  0  0  0  0  0  0  0  0  0  0
    0.9120   18.7850  -35.5290 C   0  0  0  0  0  0  0  0  0  0  0  0
    1.5260   19.0700  -34.2820 C   0  0  0  0  0  0  0  0  0  0  0  0
    1.8890   20.3890  -33.9490 C   0  0  0  0  0  0  0  0  0  0  0  0
    1.6100   21.3920  -34.8740 C   0  0  0  0  0  0  0  0  0  0  0  0
    1.0090   21.1270  -36.0620 C   0  0  0  0  0  0  0  0  0  0  0  0
    0.6380   19.8370  -36.4300 C   0  0  0  0  0  0  0  0  0  0  0  0
    0.8490   22.3030  -36.7690 O   0  0  0  0  0  0  0  0  0  0  0  0
    1.3840   23.3730  -35.9750 C   0  0  0  0  0  0  0  0  0  0  0  0
    1.8590   22.7460  -34.7750 O   0  0  0  0  0  0  0  0  0  0  0  0
    0.9170   16.8510  -37.2170 C   0  0  0  0  0  0  0  0  0  0  0  0
    1.6070   16.3500  -35.9540 C   0  0  0  0  0  0  0  0  0  0  0  0
   -3.5830   16.1170  -33.8700 C   0  0  0  0  0  0  0  0  0  0  0  0
   -4.9440   16.1490  -33.5610 C   0  0  0  0  0  0  0  0  0  0  0  0
   -5.5530   17.3420  -33.1570 C   0  0  0  0  0  0  0  0  0  0  0  0
   -7.2550   17.2900  -32.7010 Cl  0  0  0  0  0  0  0  0  0  0  0  0
   -4.6300   20.7790  -31.9720 C   0  0  0  0  0  0  0  0  0  0  0  0
   -5.2410   21.9890  -31.6210 C   0  0  0  0  0  0  0  0  0  0  0  0
   -4.1009   24.3836  -26.1857 H   0  0  0  0  0  0  0  0  0  0  0  0
   -4.0955   25.5389  -27.5612 H   0  0  0  0  0  0  0  0  0  0  0  0
   -5.2319   24.1478  -27.5612 H   0  0  0  0  0  0  0  0  0  0  0  0
   -1.8790   23.8830  -26.2714 H   0  0  0  0  0  0  0  0  0  0  0  0
   -1.0823   23.1266  -27.6927 H   0  0  0  0  0  0  0  0  0  0  0  0
   -1.4353   24.8879  -27.6927 H   0  0  0  0  0  0  0  0  0  0  0  0
   -3.5487   21.8710  -26.7681 H   0  0  0  0  0  0  0  0  0  0  0  0
   -4.4599   21.9063  -28.3158 H   0  0  0  0  0  0  0  0  0  0  0  0
   -2.7039   21.5279  -28.3158 H   0  0  0  0  0  0  0  0  0  0  0  0
   -3.4970   25.5670  -30.8090 H   0  0  0  0  0  0  0  0  0  0  0  0
   -7.8589   23.9705  -31.4600 H   0  0  0  0  0  0  0  0  0  0  0  0
   -8.4113   21.5013  -32.7839 H   0  0  0  0  0  0  0  0  0  0  0  0
   -7.3592   19.3269  -33.4907 H   0  0  0  0  0  0  0  0  0  0  0  0
   -2.8193   19.4021  -33.3199 H   0  0  0  0  0  0  0  0  0  0  0  0
   -0.7280   17.4220  -33.2990 H   0  0  0  0  0  0  0  0  0  0  0  0
    1.7199   18.2543  -33.5700 H   0  0  0  0  0  0  0  0  0  0  0  0
    2.3766   20.6195  -32.9903 H   0  0  0  0  0  0  0  0  0  0  0  0
    0.1458   19.6428  -37.3944 H   0  0  0  0  0  0  0  0  0  0  0  0
    2.2102   23.8707  -36.5039 H   0  0  0  0  0  0  0  0  0  0  0  0
    0.6312   24.1472  -35.7655 H   0  0  0  0  0  0  0  0  0  0  0  0
    0.2557   16.1802  -37.7850 H   0  0  0  0  0  0  0  0  0  0  0  0
    1.2553   17.3134  -38.1560 H   0  0  0  0  0  0  0  0  0  0  0  0
    1.4433   15.3179  -35.6104 H   0  0  0  0  0  0  0  0  0  0  0  0
    2.6487   16.3013  -35.6042 H   0  0  0  0  0  0  0  0  0  0  0  0
   -3.1185   15.1762  -34.2003 H   0  0  0  0  0  0  0  0  0  0  0  0
   -5.5423   15.2290  -33.6358 H   0  0  0  0  0  0  0  0  0  0  0  0
   -3.5801   20.5810  -31.7104 H   0  0  0  0  0  0  0  0  0  0  0  0
  1  2  1  0
  2  3  1  0
  2  4  1  0
  2  5  1  0
  5  6  1  0
  6  7  2  0
  6  8  1  0
  8  9  1  0
  9 10  1  0
 10 11  1  0
 10 12  2  0
  9 13  2  0
 13 14  1  0
 14 15  2  0
 15 16  1  0
 16 17  2  0
 17 18  1  0
 18 19  2  0
 19 20  1  0
 20 21  1  0
 21 22  1  0
 22 23  2  0
 22 24  1  0
 24 25  1  0
 25 26  2  0
 26 27  1  0
 27 28  2  0
 28 29  1  0
 29 30  2  0
 29 31  1  0
 31 32  1  0
 32 33  1  0
 24 34  1  0
 34 35  1  0
 20 36  2  0
 36 37  1  0
 37 38  2  0
 38 39  1  0
 17 40  1  0
 40 41  2  0
 41  8  1  0
 41 14  1  0
 38 18  1  0
 35 24  1  0
 30 25  1  0
 33 28  1  0
  1 42  1  0
  1 43  1  0
  1 44  1  0
  3 45  1  0
  3 46  1  0
  3 47  1  0
  4 48  1  0
  4 49  1  0
  4 50  1  0
 11 51  1  0
 13 52  1  0
 15 53  1  0
 16 54  1  0
 19 55  1  0
 21 56  1  0
 26 57  1  0
 27 58  1  0
 30 59  1  0
 32 60  1  0
 32 61  1  0
 34 62  1  0
 34 63  1  0
 35 64  1  0
 35 65  1  0
 36 66  1  0
 37 67  1  0
 40 68  1  0
M  CHG  1  11  -1
M  END
>  <UniqueID>  (65) 
65

>  <SMILES>  (65) 
CC(C)(C)OC(=O)n1c(C([NH-])=O)cc2ccc(-c3cc(NC(=O)C4(c5ccc6c(c5)OCO6)CC4)ccc3Cl)cc21

>  <Energy>  (65) 
415.82934114564466

>  <Genealogy>  (65) 
CC(C)(C)OC(=O)n1c(C([NH-])=O)cc2ccc(-c3cc(NC(=O)C4(c5ccc6c(c5)OCO6)CC4)ccc3Cl)cc21 (protonated)
CC(C)(C)OC(=O)n1c(C([NH-])=O)cc2ccc(-c3cc(NC(=O)C4(c5ccc6c(c5)OCO6)CC4)ccc3Cl)cc21 (3D coordinates assigned)
CC(C)(C)OC(=O)n1c(C([NH-])=O)cc2ccc(-c3cc(NC(=O)C4(c5ccc6c(c5)OCO6)CC4)ccc3Cl)cc21 (nonaromatic ring conformer: 415.82934114564466 kcal/mol)

>  <smiles>  (65) 
CC(C)(C)OC(=O)n1c(C(N)=O)cc2ccc(-c3cc(NC(=O)C4(c5ccc6c(c5)OCO6)CC4)ccc3Cl)cc21

>  <score_type>  (65) 
oracle

>  <origin>  (65) 
adg

>  <m_score__min__energy>  (65) 
-12.630000000000001

>  <m_primary>  (65) 
energy

$$$$
66:0
     RDKit          3D

 46 47  0  0  0  0  0  0  0  0999 V2000
   -3.9210   23.2160  -27.9910 C   0  0  0  0  0  0  0  0  0  0  0  0
   -2.7330   22.6520  -28.8180 C   0  0  0  0  0  0  0  0  0  0  0  0
   -1.4080   23.0790  -28.1430 C   0  0  0  0  0  0  0  0  0  0  0  0
   -2.7940   21.1070  -28.8900 C   0  0  0  0  0  0  0  0  0  0  0  0
   -2.7150   23.2030  -30.1450 O   0  0  0  0  0  0  0  0  0  0  0  0
   -3.3590   22.6700  -31.2830 C   0  0  0  0  0  0  0  0  0  0  0  0
   -2.6860   22.2130  -32.2620 O   0  0  0  0  0  0  0  0  0  0  0  0
   -4.8030   22.6750  -31.3350 N   0  0  0  0  0  0  0  0  0  0  0  0
   -5.6180   23.7360  -31.0620 C   0  0  0  0  0  0  0  0  0  0  0  0
   -5.2080   25.0180  -30.4590 C   0  0  0  0  0  0  0  0  0  0  0  0
   -3.9790   25.6440  -30.8520 N   0  0  0  0  0  0  0  0  0  0  0  0
   -5.9450   25.5650  -29.5850 O   0  0  0  0  0  0  0  0  0  0  0  0
   -6.9370   23.4480  -31.3840 C   0  0  0  0  0  0  0  0  0  0  0  0
   -6.9200   22.1580  -31.8520 C   0  0  0  0  0  0  0  0  0  0  0  0
   -7.9700   21.3710  -32.3030 C   0  0  0  0  0  0  0  0  0  0  0  0
   -7.6830   20.0710  -32.7370 C   0  0  0  0  0  0  0  0  0  0  0  0
   -6.3510   19.5590  -32.7330 C   0  0  0  0  0  0  0  0  0  0  0  0
   -6.0890   18.0990  -33.1830 C   0  0  0  0  0  0  0  0  0  0  0  0
   -4.7650   17.5830  -32.5750 C   0  0  0  0  0  0  0  0  0  0  0  0
   -7.1990   17.1200  -32.7220 C   0  0  0  0  0  0  0  0  0  0  0  0
   -6.0160   18.0300  -34.7320 C   0  0  0  0  0  0  0  0  0  0  0  0
   -4.8140   17.5150  -35.1730 F   0  0  0  0  0  0  0  0  0  0  0  0
   -6.1740   19.2870  -35.2840 F   0  0  0  0  0  0  0  0  0  0  0  0
   -5.3080   20.4100  -32.2580 C   0  0  0  0  0  0  0  0  0  0  0  0
   -5.6260   21.7050  -31.8150 C   0  0  0  0  0  0  0  0  0  0  0  0
   -3.7027   23.1123  -26.9179 H   0  0  0  0  0  0  0  0  0  0  0  0
   -4.0656   24.2789  -28.2348 H   0  0  0  0  0  0  0  0  0  0  0  0
   -4.8360   22.6562  -28.2348 H   0  0  0  0  0  0  0  0  0  0  0  0
   -1.5246   23.0414  -27.0498 H   0  0  0  0  0  0  0  0  0  0  0  0
   -0.6032   22.3947  -28.4496 H   0  0  0  0  0  0  0  0  0  0  0  0
   -1.1541   24.1044  -28.4496 H   0  0  0  0  0  0  0  0  0  0  0  0
   -2.8104   20.6928  -27.8711 H   0  0  0  0  0  0  0  0  0  0  0  0
   -3.7049   20.8005  -29.4250 H   0  0  0  0  0  0  0  0  0  0  0  0
   -1.9101   20.7297  -29.4250 H   0  0  0  0  0  0  0  0  0  0  0  0
   -3.0690   25.3000  -30.4640 H   0  0  0  0  0  0  0  0  0  0  0  0
   -7.8089   24.1114  -31.2853 H   0  0  0  0  0  0  0  0  0  0  0  0
   -8.9996   21.7577  -32.3192 H   0  0  0  0  0  0  0  0  0  0  0  0
   -8.5039   19.4291  -33.0894 H   0  0  0  0  0  0  0  0  0  0  0  0
   -4.8310   17.6087  -31.4773 H   0  0  0  0  0  0  0  0  0  0  0  0
   -4.5870   16.5497  -32.9075 H   0  0  0  0  0  0  0  0  0  0  0  0
   -3.9347   18.2234  -32.9075 H   0  0  0  0  0  0  0  0  0  0  0  0
   -7.2302   17.0924  -31.6228 H   0  0  0  0  0  0  0  0  0  0  0  0
   -8.1713   17.4600  -33.1080 H   0  0  0  0  0  0  0  0  0  0  0  0
   -6.9831   16.1128  -33.1080 H   0  0  0  0  0  0  0  0  0  0  0  0
   -6.8304   17.3634  -35.0521 H   0  0  0  0  0  0  0  0  0  0  0  0
   -4.2667   20.0559  -32.2390 H   0  0  0  0  0  0  0  0  0  0  0  0
  1  2  1  0
  2  3  1  0
  2  4  1  0
  2  5  1  0
  5  6  1  0
  6  7  2  0
  6  8  1  0
  8  9  1  0
  9 10  1  0
 10 11  1  0
 10 12  2  0
  9 13  2  0
 13 14  1  0
 14 15  2  0
 15 16  1  0
 16 17  2  0
 17 18  1  0
 18 19  1  0
 18 20  1  0
 18 21  1  0
 21 22  1  0
 21 23  1  0
 17 24  1  0
 24 25  2  0
 25  8  1  0
 25 14  1  0
  1 26  1  0
  1 27  1  0
  1 28  1  0
  3 29  1  0
  3 30  1  0
  3 31  1  0
  4 32  1  0
  4 33  1  0
  4 34  1  0
 11 35  1  0
 13 36  1  0
 15 37  1  0
 16 38  1  0
 19 39  1  0
 19 40  1  0
 19 41  1  0
 20 42  1  0
 20 43  1  0
 20 44  1  0
 21 45  1  0
 24 46  1  0
M  CHG  1  11  -1
M  END
>  <UniqueID>  (66) 
66

>  <SMILES>  (66) 
CC(C)(C)OC(=O)n1c(C([NH-])=O)cc2ccc(C(C)(C)C(F)F)cc21

>  <Energy>  (66) 
85.98546425069951

>  <Genealogy>  (66) 
CC(C)(C)OC(=O)n1c(C([NH-])=O)cc2ccc(C(C)(C)C(F)F)cc21 (protonated)
CC(C)(C)OC(=O)n1c(C([NH-])=O)cc2ccc(C(C)(C)C(F)F)cc21 (3D coordinates assigned)
CC(C)(C)OC(=O)n1c(C([NH-])=O)cc2ccc(C(C)(C)C(F)F)cc21 (optimized conformer: 85.98546425069951 kcal/mol)

>  <smiles>  (66) 
CC(C)(C)OC(=O)n1c(C(N)=O)cc2ccc(C(C)(C)C(F)F)cc21

>  <score_type>  (66) 
oracle

>  <origin>  (66) 
adg

>  <m_score__min__energy>  (66) 
-10.15

>  <m_primary>  (66) 
energy

$$$$
67:0
     RDKit          3D

 36 38  0  0  0  0  0  0  0  0999 V2000
   -4.8160   23.8390  -28.9740 C   0  0  0  0  0  0  0  0  0  0  0  0
   -3.7520   24.2330  -29.9480 C   0  0  0  0  0  0  0  0  0  0  0  0
   -3.8700   25.3130  -30.5860 O   0  0  0  0  0  0  0  0  0  0  0  0
   -2.5980   23.4030  -30.1560 N   0  0  0  0  0  0  0  0  0  0  0  0
   -1.3410   23.5900  -29.6630 C   0  0  0  0  0  0  0  0  0  0  0  0
   -0.8720   24.7690  -28.9060 C   0  0  0  0  0  0  0  0  0  0  0  0
   -1.5800   26.0050  -28.9550 N   0  0  0  0  0  0  0  0  0  0  0  0
    0.1890   24.6940  -28.2290 O   0  0  0  0  0  0  0  0  0  0  0  0
   -0.5140   22.5270  -30.0250 C   0  0  0  0  0  0  0  0  0  0  0  0
   -1.3090   21.6790  -30.7600 C   0  0  0  0  0  0  0  0  0  0  0  0
   -1.0060   20.4580  -31.3540 C   0  0  0  0  0  0  0  0  0  0  0  0
   -2.0360   19.7790  -32.0270 C   0  0  0  0  0  0  0  0  0  0  0  0
   -3.3470   20.3220  -32.0880 C   0  0  0  0  0  0  0  0  0  0  0  0
   -4.4300   19.5900  -32.7920 C   0  0  0  0  0  0  0  0  0  0  0  0
   -4.1390   18.7790  -33.9030 C   0  0  0  0  0  0  0  0  0  0  0  0
   -5.1590   18.0900  -34.5610 C   0  0  0  0  0  0  0  0  0  0  0  0
   -6.4790   18.2010  -34.1230 C   0  0  0  0  0  0  0  0  0  0  0  0
   -6.7970   19.0050  -33.0150 C   0  0  0  0  0  0  0  0  0  0  0  0
   -8.1950   19.1280  -32.5490 C   0  0  0  0  0  0  0  0  0  0  0  0
   -8.7640   18.1640  -31.9700 O   0  0  0  0  0  0  0  0  0  0  0  0
   -8.9030   20.3090  -32.7420 O   0  0  0  0  0  0  0  0  0  0  0  0
   -5.7650   19.6970  -32.3560 C   0  0  0  0  0  0  0  0  0  0  0  0
   -3.6130   21.5650  -31.4670 C   0  0  0  0  0  0  0  0  0  0  0  0
   -2.5630   22.2280  -30.8230 C   0  0  0  0  0  0  0  0  0  0  0  0
   -4.4434   23.9770  -27.9483 H   0  0  0  0  0  0  0  0  0  0  0  0
   -5.7055   24.4674  -29.1286 H   0  0  0  0  0  0  0  0  0  0  0  0
   -5.0818   22.7828  -29.1286 H   0  0  0  0  0  0  0  0  0  0  0  0
   -2.6230   26.0260  -28.9730 H   0  0  0  0  0  0  0  0  0  0  0  0
    0.5491   22.3948  -29.7755 H   0  0  0  0  0  0  0  0  0  0  0  0
    0.0087   20.0370  -31.2986 H   0  0  0  0  0  0  0  0  0  0  0  0
   -1.8243   18.8150  -32.5126 H   0  0  0  0  0  0  0  0  0  0  0  0
   -3.1012   18.6869  -34.2558 H   0  0  0  0  0  0  0  0  0  0  0  0
   -4.9212   17.4569  -35.4285 H   0  0  0  0  0  0  0  0  0  0  0  0
   -7.2765   17.6554  -34.6486 H   0  0  0  0  0  0  0  0  0  0  0  0
   -6.0036   20.3301  -31.4887 H   0  0  0  0  0  0  0  0  0  0  0  0
   -4.6229   22.0004  -31.4900 H   0  0  0  0  0  0  0  0  0  0  0  0
  1  2  1  0
  2  3  2  0
  2  4  1  0
  4  5  1  0
  5  6  1  0
  6  7  1  0
  6  8  2  0
  5  9  2  0
  9 10  1  0
 10 11  2  0
 11 12  1  0
 12 13  2  0
 13 14  1  0
 14 15  2  0
 15 16  1  0
 16 17  2  0
 17 18  1  0
 18 19  1  0
 19 20  2  0
 19 21  1  0
 18 22  2  0
 13 23  1  0
 23 24  2  0
 24  4  1  0
 24 10  1  0
 22 14  1  0
  1 25  1  0
  1 26  1  0
  1 27  1  0
  7 28  1  0
  9 29  1  0
 11 30  1  0
 12 31  1  0
 15 32  1  0
 16 33  1  0
 17 34  1  0
 22 35  1  0
 23 36  1  0
M  CHG  2   7  -1  21  -1
M  END
>  <UniqueID>  (67) 
67

>  <SMILES>  (67) 
CC(=O)n1c(C([NH-])=O)cc2ccc(-c3cccc(C(=O)[O-])c3)cc21

>  <Energy>  (67) 
83.28988469174428

>  <Genealogy>  (67) 
CC(=O)n1c(C([NH-])=O)cc2ccc(-c3cccc(C(=O)[O-])c3)cc21 (protonated)
CC(=O)n1c(C([NH-])=O)cc2ccc(-c3cccc(C(=O)[O-])c3)cc21 (3D coordinates assigned)
CC(=O)n1c(C([NH-])=O)cc2ccc(-c3cccc(C(=O)[O-])c3)cc21 (optimized conformer: 83.28988469174428 kcal/mol)

>  <smiles>  (67) 
CC(=O)n1c(C(N)=O)cc2ccc(-c3cccc(C(=O)O)c3)cc21

>  <score_type>  (67) 
oracle

>  <origin>  (67) 
adg

>  <m_score__min__energy>  (67) 
-11.09

>  <m_primary>  (67) 
energy

$$$$
68:0
     RDKit          3D

 45 48  0  0  0  0  0  0  0  0999 V2000
   -3.3280   24.8980  -30.4460 N   0  0  0  0  0  0  0  0  0  0  0  0
   -3.7700   23.5680  -30.7000 C   0  0  0  0  0  0  0  0  0  0  0  0
   -2.9320   22.6250  -30.7050 O   0  0  0  0  0  0  0  0  0  0  0  0
   -5.1580   23.2990  -30.9610 N   0  0  0  0  0  0  0  0  0  0  0  0
   -6.2080   24.1560  -30.8130 C   0  0  0  0  0  0  0  0  0  0  0  0
   -6.1490   25.4980  -30.2010 C   0  0  0  0  0  0  0  0  0  0  0  0
   -6.8490   25.7920  -28.9910 N   0  0  0  0  0  0  0  0  0  0  0  0
   -5.5150   26.4170  -30.7850 O   0  0  0  0  0  0  0  0  0  0  0  0
   -7.3840   23.5800  -31.2850 C   0  0  0  0  0  0  0  0  0  0  0  0
   -7.0250   22.3260  -31.7220 C   0  0  0  0  0  0  0  0  0  0  0  0
   -7.7980   21.3280  -32.3050 C   0  0  0  0  0  0  0  0  0  0  0  0
   -7.1570   20.1430  -32.7000 C   0  0  0  0  0  0  0  0  0  0  0  0
   -5.7610   19.9770  -32.5210 C   0  0  0  0  0  0  0  0  0  0  0  0
   -5.1060   18.6860  -32.9800 C   0  0  2  0  0  0  0  0  0  0  0  0
   -5.4780   18.2580  -34.4050 C   0  0  0  0  0  0  0  0  0  0  0  0
   -6.1270   16.9880  -33.8370 C   0  0  1  0  0  0  0  0  0  0  0  0
   -5.5310   15.6980  -34.2700 N   0  0  0  0  0  0  0  0  0  0  0  0
   -4.2390   15.8990  -34.9410 C   0  0  0  0  0  0  0  0  0  0  0  0
   -3.3830   14.6880  -34.6310 C   0  0  0  0  0  0  0  0  0  0  0  0
   -3.8800   14.2230  -33.2840 C   0  0  0  0  0  0  0  0  0  0  0  0
   -5.3360   14.6590  -33.2390 C   0  0  0  0  0  0  0  0  0  0  0  0
   -5.7480   17.4140  -32.4160 C   0  0  0  0  0  0  0  0  0  0  0  0
   -5.0070   21.0210  -31.9270 C   0  0  0  0  0  0  0  0  0  0  0  0
   -5.6770   22.1800  -31.5190 C   0  0  0  0  0  0  0  0  0  0  0  0
   -3.5140   25.6660  -31.1290 H   0  0  0  0  0  0  0  0  0  0  0  0
   -6.7610   26.7340  -28.5510 H   0  0  0  0  0  0  0  0  0  0  0  0
   -7.5210   25.1100  -28.5780 H   0  0  0  0  0  0  0  0  0  0  0  0
   -8.3869   24.0314  -31.3044 H   0  0  0  0  0  0  0  0  0  0  0  0
   -8.8797   21.4629  -32.4524 H   0  0  0  0  0  0  0  0  0  0  0  0
   -7.7461   19.3328  -33.1544 H   0  0  0  0  0  0  0  0  0  0  0  0
   -4.0630   18.9333  -32.7329 H   0  0  0  0  0  0  0  0  0  0  0  0
   -6.1806   18.9363  -34.9111 H   0  0  0  0  0  0  0  0  0  0  0  0
   -4.7109   18.1939  -35.1908 H   0  0  0  0  0  0  0  0  0  0  0  0
   -7.1707   16.7570  -34.0967 H   0  0  0  0  0  0  0  0  0  0  0  0
   -4.3877   15.9879  -36.0273 H   0  0  0  0  0  0  0  0  0  0  0  0
   -3.7543   16.8216  -34.5890 H   0  0  0  0  0  0  0  0  0  0  0  0
   -3.5236   13.9052  -35.3909 H   0  0  0  0  0  0  0  0  0  0  0  0
   -2.3077   14.9199  -34.6279 H   0  0  0  0  0  0  0  0  0  0  0  0
   -3.7996   13.1294  -33.1971 H   0  0  0  0  0  0  0  0  0  0  0  0
   -3.2930   14.6453  -32.4551 H   0  0  0  0  0  0  0  0  0  0  0  0
   -5.9901   13.7993  -33.4464 H   0  0  0  0  0  0  0  0  0  0  0  0
   -5.5867   15.0550  -32.2439 H   0  0  0  0  0  0  0  0  0  0  0  0
   -6.6086   17.5981  -31.7561 H   0  0  0  0  0  0  0  0  0  0  0  0
   -5.1749   16.7394  -31.7629 H   0  0  0  0  0  0  0  0  0  0  0  0
   -3.9201   20.9220  -31.7900 H   0  0  0  0  0  0  0  0  0  0  0  0
  1  2  1  0
  2  3  2  0
  2  4  1  0
  4  5  1  0
  5  6  1  0
  6  7  1  0
  6  8  2  0
  5  9  2  0
  9 10  1  0
 10 11  2  0
 11 12  1  0
 12 13  2  0
 13 14  1  0
 14 15  1  0
 15 16  1  0
 16 17  1  0
 17 18  1  0
 18 19  1  0
 19 20  1  0
 20 21  1  0
 16 22  1  0
 13 23  1  0
 23 24  2  0
 24  4  1  0
 24 10  1  0
 22 14  1  0
 21 17  1  0
  1 25  1  0
  7 26  1  0
  7 27  1  0
  9 28  1  0
 11 29  1  0
 12 30  1  0
 14 31  1  6
 15 32  1  0
 15 33  1  0
 16 34  1  1
 18 35  1  0
 18 36  1  0
 19 37  1  0
 19 38  1  0
 20 39  1  0
 20 40  1  0
 21 41  1  0
 21 42  1  0
 22 43  1  0
 22 44  1  0
 23 45  1  0
M  CHG  1   1  -1
M  END
>  <UniqueID>  (68) 
68

>  <SMILES>  (68) 
[NH-]C(=O)n1c(C(N)=O)cc2ccc(C3CC(N4CCCC4)C3)cc21

>  <Energy>  (68) 
156.9327373566187

>  <Genealogy>  (68) 
[NH-]C(=O)n1c(C(N)=O)cc2ccc(C3CC(N4CCCC4)C3)cc21 (protonated)
[NH-]C(=O)n1c(C(N)=O)cc2ccc(C3CC(N4CCCC4)C3)cc21 (3D coordinates assigned)
[NH-]C(=O)n1c(C(N)=O)cc2ccc(C3CC(N4CCCC4)C3)cc21 (nonaromatic ring conformer: 156.9327373566187 kcal/mol)

>  <smiles>  (68) 
NC(=O)c1cc2ccc(C3CC(N4CCCC4)C3)cc2n1C(N)=O

>  <score_type>  (68) 
oracle

>  <origin>  (68) 
adg

>  <m_score__min__energy>  (68) 
-10.19

>  <m_primary>  (68) 
energy

$$$$
69:0
     RDKit          3D

 25 26  0  0  0  0  0  0  0  0999 V2000
   -3.8680   25.6300  -30.8340 N   0  0  0  0  0  0  0  0  0  0  0  0
   -5.1950   25.2620  -30.4650 C   0  0  0  0  0  0  0  0  0  0  0  0
   -5.8670   26.0330  -29.7320 O   0  0  0  0  0  0  0  0  0  0  0  0
   -5.7810   24.0070  -30.9790 C   0  0  0  0  0  0  0  0  0  0  0  0
   -7.1540   23.7800  -31.0650 C   0  0  0  0  0  0  0  0  0  0  0  0
   -7.2830   22.4790  -31.4940 C   0  0  0  0  0  0  0  0  0  0  0  0
   -8.4260   21.7280  -31.7450 C   0  0  0  0  0  0  0  0  0  0  0  0
   -8.2630   20.4090  -32.1950 C   0  0  0  0  0  0  0  0  0  0  0  0
   -6.9670   19.8700  -32.4080 C   0  0  0  0  0  0  0  0  0  0  0  0
   -6.8050   18.4380  -32.8540 C   0  0  0  0  0  0  0  0  0  0  0  0
   -5.8220   17.8330  -32.0930 F   0  0  0  0  0  0  0  0  0  0  0  0
   -7.9900   17.7400  -32.6990 F   0  0  0  0  0  0  0  0  0  0  0  0
   -6.4410   18.3800  -34.1890 F   0  0  0  0  0  0  0  0  0  0  0  0
   -5.8290   20.6570  -32.1180 C   0  0  0  0  0  0  0  0  0  0  0  0
   -6.0220   21.9640  -31.6550 C   0  0  0  0  0  0  0  0  0  0  0  0
   -5.0890   22.8920  -31.3460 N   0  0  0  0  0  0  0  0  0  0  0  0
   -3.6650   22.7360  -31.4600 C   0  0  0  0  0  0  0  0  0  0  0  0
   -2.8090   23.1530  -30.3990 N   0  0  0  0  0  0  0  0  0  0  0  0
   -3.1630   22.2580  -32.5120 O   0  0  0  0  0  0  0  0  0  0  0  0
   -3.0460   25.2940  -30.2840 H   0  0  0  0  0  0  0  0  0  0  0  0
   -7.9626   24.4904  -30.8380 H   0  0  0  0  0  0  0  0  0  0  0  0
   -9.4285   22.1553  -31.5952 H   0  0  0  0  0  0  0  0  0  0  0  0
   -9.1492   19.7857  -32.3848 H   0  0  0  0  0  0  0  0  0  0  0  0
   -4.8153   20.2518  -32.2530 H   0  0  0  0  0  0  0  0  0  0  0  0
   -2.3980   24.1130  -30.3870 H   0  0  0  0  0  0  0  0  0  0  0  0
  1  2  1  0
  2  3  2  0
  2  4  1  0
  4  5  2  0
  5  6  1  0
  6  7  2  0
  7  8  1  0
  8  9  2  0
  9 10  1  0
 10 11  1  0
 10 12  1  0
 10 13  1  0
  9 14  1  0
 14 15  2  0
 15 16  1  0
 16 17  1  0
 17 18  1  0
 17 19  2  0
 16  4  1  0
 15  6  1  0
  1 20  1  0
  5 21  1  0
  7 22  1  0
  8 23  1  0
 14 24  1  0
 18 25  1  0
M  CHG  2   1  -1  18  -1
M  END
>  <UniqueID>  (69) 
69

>  <SMILES>  (69) 
[NH-]C(=O)c1cc2ccc(C(F)(F)F)cc2n1C([NH-])=O

>  <Energy>  (69) 
65.22480203306834

>  <Genealogy>  (69) 
[NH-]C(=O)c1cc2ccc(C(F)(F)F)cc2n1C([NH-])=O (protonated)
[NH-]C(=O)c1cc2ccc(C(F)(F)F)cc2n1C([NH-])=O (3D coordinates assigned)
[NH-]C(=O)c1cc2ccc(C(F)(F)F)cc2n1C([NH-])=O (optimized conformer: 65.22480203306834 kcal/mol)

>  <smiles>  (69) 
NC(=O)c1cc2ccc(C(F)(F)F)cc2n1C(N)=O

>  <score_type>  (69) 
oracle

>  <origin>  (69) 
adg

>  <m_score__min__energy>  (69) 
-9.1999999999999993

>  <m_primary>  (69) 
energy

$$$$
70:0
     RDKit          3D

 37 38  0  0  0  0  0  0  0  0999 V2000
   -3.3520   19.9110  -32.7880 C   0  0  0  0  0  0  0  0  0  0  0  0
   -2.7710   21.1940  -33.3600 C   0  0  0  0  0  0  0  0  0  0  0  0
   -3.6580   22.2760  -33.0990 O   0  0  0  0  0  0  0  0  0  0  0  0
   -4.0070   22.6700  -31.8040 C   0  0  0  0  0  0  0  0  0  0  0  0
   -3.1230   22.7730  -30.9100 O   0  0  0  0  0  0  0  0  0  0  0  0
   -5.3760   22.9800  -31.4970 N   0  0  0  0  0  0  0  0  0  0  0  0
   -5.8610   24.1050  -30.9020 C   0  0  0  0  0  0  0  0  0  0  0  0
   -5.0930   25.3310  -30.6020 C   0  0  0  0  0  0  0  0  0  0  0  0
   -3.6760   25.2900  -30.4560 N   0  0  0  0  0  0  0  0  0  0  0  0
   -5.6890   26.4380  -30.5240 O   0  0  0  0  0  0  0  0  0  0  0  0
   -7.2310   23.9870  -30.6730 C   0  0  0  0  0  0  0  0  0  0  0  0
   -7.5760   22.7480  -31.1600 C   0  0  0  0  0  0  0  0  0  0  0  0
   -8.8110   22.1050  -31.1750 C   0  0  0  0  0  0  0  0  0  0  0  0
   -8.8710   20.8070  -31.7090 C   0  0  0  0  0  0  0  0  0  0  0  0
   -7.7050   20.1810  -32.2170 C   0  0  0  0  0  0  0  0  0  0  0  0
   -7.7740   18.7730  -32.7400 C   0  0  0  0  0  0  0  0  0  0  0  0
   -6.5260   18.0340  -32.3820 C   0  0  0  0  0  0  0  0  0  0  0  0
   -6.3210   17.6910  -31.1860 O   0  0  0  0  0  0  0  0  0  0  0  0
   -5.6210   17.6850  -33.3900 O   0  0  0  0  0  0  0  0  0  0  0  0
   -5.7230   18.1870  -34.7170 C   0  0  0  0  0  0  0  0  0  0  0  0
   -6.4670   20.8590  -32.1740 C   0  0  0  0  0  0  0  0  0  0  0  0
   -6.4400   22.1580  -31.6520 C   0  0  0  0  0  0  0  0  0  0  0  0
   -3.3312   19.9570  -31.6892 H   0  0  0  0  0  0  0  0  0  0  0  0
   -4.3908   19.7943  -33.1305 H   0  0  0  0  0  0  0  0  0  0  0  0
   -2.7545   19.0533  -33.1305 H   0  0  0  0  0  0  0  0  0  0  0  0
   -1.7974   21.3968  -32.8899 H   0  0  0  0  0  0  0  0  0  0  0  0
   -2.6385   21.0833  -34.4464 H   0  0  0  0  0  0  0  0  0  0  0  0
   -3.0680   24.9150  -31.2170 H   0  0  0  0  0  0  0  0  0  0  0  0
   -7.8949   24.7274  -30.2028 H   0  0  0  0  0  0  0  0  0  0  0  0
   -9.7118   22.5982  -30.7809 H   0  0  0  0  0  0  0  0  0  0  0  0
   -9.8316   20.2715  -31.7332 H   0  0  0  0  0  0  0  0  0  0  0  0
   -8.6406   18.2614  -32.2959 H   0  0  0  0  0  0  0  0  0  0  0  0
   -7.8772   18.7988  -33.8348 H   0  0  0  0  0  0  0  0  0  0  0  0
   -5.9419   19.2645  -34.6856 H   0  0  0  0  0  0  0  0  0  0  0  0
   -4.7728   18.0212  -35.2458 H   0  0  0  0  0  0  0  0  0  0  0  0
   -6.5331   17.6635  -35.2458 H   0  0  0  0  0  0  0  0  0  0  0  0
   -5.5478   20.3791  -32.5410 H   0  0  0  0  0  0  0  0  0  0  0  0
  1  2  1  0
  2  3  1  0
  3  4  1  0
  4  5  2  0
  4  6  1  0
  6  7  1  0
  7  8  1  0
  8  9  1  0
  8 10  2  0
  7 11  2  0
 11 12  1  0
 12 13  2  0
 13 14  1  0
 14 15  2  0
 15 16  1  0
 16 17  1  0
 17 18  2  0
 17 19  1  0
 19 20  1  0
 15 21  1  0
 21 22  2  0
 22  6  1  0
 22 12  1  0
  1 23  1  0
  1 24  1  0
  1 25  1  0
  2 26  1  0
  2 27  1  0
  9 28  1  0
 11 29  1  0
 13 30  1  0
 14 31  1  0
 16 32  1  0
 16 33  1  0
 20 34  1  0
 20 35  1  0
 20 36  1  0
 21 37  1  0
M  CHG  1   9  -1
M  END
>  <UniqueID>  (70) 
70

>  <SMILES>  (70) 
CCOC(=O)n1c(C([NH-])=O)cc2ccc(CC(=O)OC)cc21

>  <Energy>  (70) 
66.92343458528754

>  <Genealogy>  (70) 
CCOC(=O)n1c(C([NH-])=O)cc2ccc(CC(=O)OC)cc21 (protonated)
CCOC(=O)n1c(C([NH-])=O)cc2ccc(CC(=O)OC)cc21 (3D coordinates assigned)
CCOC(=O)n1c(C([NH-])=O)cc2ccc(CC(=O)OC)cc21 (optimized conformer: 66.92343458528754 kcal/mol)

>  <smiles>  (70) 
CCOC(=O)n1c(C(N)=O)cc2ccc(CC(=O)OC)cc21

>  <score_type>  (70) 
oracle

>  <origin>  (70) 
adg

>  <m_score__min__energy>  (70) 
-9.2799999999999994

>  <m_primary>  (70) 
energy

$$$$
71:0
     RDKit          3D

 39 41  0  0  0  0  0  0  0  0999 V2000
   -9.5070   21.6350  -31.2210 C   0  0  0  0  0  0  0  0  0  0  0  0
   -8.4910   20.7050  -31.7930 C   0  0  0  0  0  0  0  0  0  0  0  0
   -8.4490   19.3370  -31.6010 C   0  0  0  0  0  0  0  0  0  0  0  0
   -7.3780   18.9220  -32.3670 C   0  0  0  0  0  0  0  0  0  0  0  0
   -6.8530   17.5230  -32.4440 C   0  0  0  0  0  0  0  0  0  0  0  0
   -6.8330   20.0020  -32.9730 N   0  0  0  0  0  0  0  0  0  0  0  0
   -5.6410   20.0330  -33.8190 C   0  0  0  0  0  0  0  0  0  0  0  0
   -4.4500   20.4930  -33.0230 C   0  0  0  0  0  0  0  0  0  0  0  0
   -3.2530   19.7330  -33.0200 C   0  0  0  0  0  0  0  0  0  0  0  0
   -2.1430   20.1520  -32.2650 C   0  0  0  0  0  0  0  0  0  0  0  0
   -2.2620   21.3240  -31.5250 C   0  0  0  0  0  0  0  0  0  0  0  0
   -1.3460   21.9610  -30.7190 C   0  0  0  0  0  0  0  0  0  0  0  0
   -2.0050   23.0880  -30.2290 C   0  0  0  0  0  0  0  0  0  0  0  0
   -1.4150   24.0150  -29.2420 C   0  0  0  0  0  0  0  0  0  0  0  0
   -1.6780   25.4130  -29.3370 N   0  0  0  0  0  0  0  0  0  0  0  0
   -0.6540   23.5900  -28.3330 O   0  0  0  0  0  0  0  0  0  0  0  0
   -3.2750   23.1480  -30.7210 N   0  0  0  0  0  0  0  0  0  0  0  0
   -4.2570   24.1740  -30.5070 C   0  0  0  0  0  0  0  0  0  0  0  0
   -4.2900   24.9010  -29.2790 N   0  0  0  0  0  0  0  0  0  0  0  0
   -5.0760   24.4620  -31.4210 O   0  0  0  0  0  0  0  0  0  0  0  0
   -3.4190   22.0600  -31.5060 C   0  0  0  0  0  0  0  0  0  0  0  0
   -4.5340   21.6760  -32.2590 C   0  0  0  0  0  0  0  0  0  0  0  0
   -7.5070   21.0880  -32.6310 N   0  0  0  0  0  0  0  0  0  0  0  0
   -9.4634   21.5951  -30.1226 H   0  0  0  0  0  0  0  0  0  0  0  0
   -9.2971   22.6604  -31.5593 H   0  0  0  0  0  0  0  0  0  0  0  0
  -10.5099   21.3354  -31.5593 H   0  0  0  0  0  0  0  0  0  0  0  0
   -9.1158   18.7204  -30.9804 H   0  0  0  0  0  0  0  0  0  0  0  0
   -6.7056   17.1302  -31.4272 H   0  0  0  0  0  0  0  0  0  0  0  0
   -7.5746   16.8896  -32.9807 H   0  0  0  0  0  0  0  0  0  0  0  0
   -5.8928   17.5207  -32.9807 H   0  0  0  0  0  0  0  0  0  0  0  0
   -5.4478   19.0237  -34.2115 H   0  0  0  0  0  0  0  0  0  0  0  0
   -5.8092   20.7336  -34.6502 H   0  0  0  0  0  0  0  0  0  0  0  0
   -3.1921   18.8084  -33.6129 H   0  0  0  0  0  0  0  0  0  0  0  0
   -1.2091   19.5707  -32.2597 H   0  0  0  0  0  0  0  0  0  0  0  0
   -0.3132   21.6476  -30.5065 H   0  0  0  0  0  0  0  0  0  0  0  0
   -1.2100   25.9990  -30.0640 H   0  0  0  0  0  0  0  0  0  0  0  0
   -5.0140   25.6360  -29.1190 H   0  0  0  0  0  0  0  0  0  0  0  0
   -3.5670   24.7340  -28.5450 H   0  0  0  0  0  0  0  0  0  0  0  0
   -5.4526   22.2811  -32.2554 H   0  0  0  0  0  0  0  0  0  0  0  0
  1  2  1  0
  2  3  1  0
  3  4  2  0
  4  5  1  0
  4  6  1  0
  6  7  1  0
  7  8  1  0
  8  9  2  0
  9 10  1  0
 10 11  2  0
 11 12  1  0
 12 13  2  0
 13 14  1  0
 14 15  1  0
 14 16  2  0
 13 17  1  0
 17 18  1  0
 18 19  1  0
 18 20  2  0
 17 21  1  0
 21 22  2  0
  6 23  1  0
 23  2  2  0
 22  8  1  0
 21 11  1  0
  1 24  1  0
  1 25  1  0
  1 26  1  0
  3 27  1  0
  5 28  1  0
  5 29  1  0
  5 30  1  0
  7 31  1  0
  7 32  1  0
  9 33  1  0
 10 34  1  0
 12 35  1  0
 15 36  1  0
 19 37  1  0
 19 38  1  0
 22 39  1  0
M  CHG  1  15  -1
M  END
>  <UniqueID>  (71) 
71

>  <SMILES>  (71) 
Cc1cc(C)n(Cc2ccc3cc(C([NH-])=O)n(C(N)=O)c3c2)n1

>  <Energy>  (71) 
104.81567141332653

>  <Genealogy>  (71) 
Cc1cc(C)n(Cc2ccc3cc(C([NH-])=O)n(C(N)=O)c3c2)n1 (protonated)
Cc1cc(C)n(Cc2ccc3cc(C([NH-])=O)n(C(N)=O)c3c2)n1 (3D coordinates assigned)
Cc1cc(C)n(Cc2ccc3cc(C([NH-])=O)n(C(N)=O)c3c2)n1 (optimized conformer: 104.81567141332653 kcal/mol)

>  <smiles>  (71) 
Cc1cc(C)n(Cc2ccc3cc(C(N)=O)n(C(N)=O)c3c2)n1

>  <score_type>  (71) 
oracle

>  <origin>  (71) 
adg

>  <m_score__min__energy>  (71) 
-11.1

>  <m_primary>  (71) 
energy

$$$$
72:0
     RDKit          3D

 48 50  0  0  0  0  0  0  0  0999 V2000
   -2.9260   19.6030  -33.4910 C   0  0  0  0  0  0  0  0  0  0  0  0
   -2.9790   20.9110  -32.6880 C   0  0  0  0  0  0  0  0  0  0  0  0
   -3.8590   21.9230  -33.4460 C   0  0  0  0  0  0  0  0  0  0  0  0
   -1.5470   21.4530  -32.5220 C   0  0  0  0  0  0  0  0  0  0  0  0
   -3.5520   20.5970  -31.4100 O   0  0  0  0  0  0  0  0  0  0  0  0
   -4.1280   21.5080  -30.5100 C   0  0  0  0  0  0  0  0  0  0  0  0
   -3.5010   21.8830  -29.4820 O   0  0  0  0  0  0  0  0  0  0  0  0
   -5.4500   22.0100  -30.7630 N   0  0  0  0  0  0  0  0  0  0  0  0
   -5.8700   23.3030  -30.6720 C   0  0  0  0  0  0  0  0  0  0  0  0
   -5.0880   24.4290  -30.1230 C   0  0  0  0  0  0  0  0  0  0  0  0
   -5.3110   24.9040  -28.7940 N   0  0  0  0  0  0  0  0  0  0  0  0
   -4.2500   25.0170  -30.8560 O   0  0  0  0  0  0  0  0  0  0  0  0
   -7.1780   23.4300  -31.1320 C   0  0  0  0  0  0  0  0  0  0  0  0
   -7.5580   22.1600  -31.5000 C   0  0  0  0  0  0  0  0  0  0  0  0
   -8.7540   21.7100  -32.0510 C   0  0  0  0  0  0  0  0  0  0  0  0
   -8.8550   20.3500  -32.3830 C   0  0  0  0  0  0  0  0  0  0  0  0
   -7.7670   19.4690  -32.1620 C   0  0  0  0  0  0  0  0  0  0  0  0
   -7.8640   18.0280  -32.5780 C   0  0  0  0  0  0  0  0  0  0  0  0
   -6.5410   17.5510  -33.1120 C   0  0  0  0  0  0  0  0  0  0  0  0
   -6.1180   17.9280  -34.3970 C   0  0  0  0  0  0  0  0  0  0  0  0
   -4.9050   17.4530  -34.9060 C   0  0  0  0  0  0  0  0  0  0  0  0
   -4.1120   16.5930  -34.1410 C   0  0  0  0  0  0  0  0  0  0  0  0
   -2.9380   16.1310  -34.6380 F   0  0  0  0  0  0  0  0  0  0  0  0
   -4.5330   16.2040  -32.8660 C   0  0  0  0  0  0  0  0  0  0  0  0
   -5.7450   16.6770  -32.3530 C   0  0  0  0  0  0  0  0  0  0  0  0
   -6.5640   19.9640  -31.6110 C   0  0  0  0  0  0  0  0  0  0  0  0
   -6.4970   21.3210  -31.2690 C   0  0  0  0  0  0  0  0  0  0  0  0
   -2.8914   18.7489  -32.7987 H   0  0  0  0  0  0  0  0  0  0  0  0
   -3.8217   19.5253  -34.1247 H   0  0  0  0  0  0  0  0  0  0  0  0
   -2.0269   19.5980  -34.1247 H   0  0  0  0  0  0  0  0  0  0  0  0
   -4.4033   22.5490  -32.7236 H   0  0  0  0  0  0  0  0  0  0  0  0
   -3.2233   22.5607  -34.0778 H   0  0  0  0  0  0  0  0  0  0  0  0
   -4.5788   21.3820  -34.0778 H   0  0  0  0  0  0  0  0  0  0  0  0
   -1.3106   21.5425  -31.4514 H   0  0  0  0  0  0  0  0  0  0  0  0
   -0.8359   20.7618  -32.9980 H   0  0  0  0  0  0  0  0  0  0  0  0
   -1.4717   22.4418  -32.9980 H   0  0  0  0  0  0  0  0  0  0  0  0
   -4.7200   25.6720  -28.4050 H   0  0  0  0  0  0  0  0  0  0  0  0
   -6.1090   24.5500  -28.2230 H   0  0  0  0  0  0  0  0  0  0  0  0
   -7.7792   24.3494  -31.1890 H   0  0  0  0  0  0  0  0  0  0  0  0
   -9.5944   22.3990  -32.2211 H   0  0  0  0  0  0  0  0  0  0  0  0
   -9.7881   19.9640  -32.8192 H   0  0  0  0  0  0  0  0  0  0  0  0
   -8.1463   17.4169  -31.7080 H   0  0  0  0  0  0  0  0  0  0  0  0
   -8.6247   17.9327  -33.3668 H   0  0  0  0  0  0  0  0  0  0  0  0
   -6.7426   18.5989  -35.0050 H   0  0  0  0  0  0  0  0  0  0  0  0
   -4.5744   17.7568  -35.9102 H   0  0  0  0  0  0  0  0  0  0  0  0
   -3.9101   15.5249  -32.2654 H   0  0  0  0  0  0  0  0  0  0  0  0
   -6.0761   16.3637  -31.3519 H   0  0  0  0  0  0  0  0  0  0  0  0
   -5.7010   19.3002  -31.4543 H   0  0  0  0  0  0  0  0  0  0  0  0
  1  2  1  0
  2  3  1  0
  2  4  1  0
  2  5  1  0
  5  6  1  0
  6  7  2  0
  6  8  1  0
  8  9  1  0
  9 10  1  0
 10 11  1  0
 10 12  2  0
  9 13  2  0
 13 14  1  0
 14 15  2  0
 15 16  1  0
 16 17  2  0
 17 18  1  0
 18 19  1  0
 19 20  2  0
 20 21  1  0
 21 22  2  0
 22 23  1  0
 22 24  1  0
 24 25  2  0
 17 26  1  0
 26 27  2  0
 27  8  1  0
 27 14  1  0
 25 19  1  0
  1 28  1  0
  1 29  1  0
  1 30  1  0
  3 31  1  0
  3 32  1  0
  3 33  1  0
  4 34  1  0
  4 35  1  0
  4 36  1  0
 11 37  1  0
 11 38  1  0
 13 39  1  0
 15 40  1  0
 16 41  1  0
 18 42  1  0
 18 43  1  0
 20 44  1  0
 21 45  1  0
 24 46  1  0
 25 47  1  0
 26 48  1  0
M  END
>  <UniqueID>  (72) 
72

>  <SMILES>  (72) 
CC(C)(C)OC(=O)n1c(C(N)=O)cc2ccc(Cc3ccc(F)cc3)cc21

>  <Energy>  (72) 
82.47372608160731

>  <Genealogy>  (72) 
CC(C)(C)OC(=O)n1c(C(N)=O)cc2ccc(Cc3ccc(F)cc3)cc21 (3D coordinates assigned)
CC(C)(C)OC(=O)n1c(C(N)=O)cc2ccc(Cc3ccc(F)cc3)cc21 (optimized conformer: 82.47372608160731 kcal/mol)

>  <smiles>  (72) 
CC(C)(C)OC(=O)n1c(C(N)=O)cc2ccc(Cc3ccc(F)cc3)cc21

>  <score_type>  (72) 
oracle

>  <origin>  (72) 
adg

>  <m_score__min__energy>  (72) 
-9.7100000000000009

>  <m_primary>  (72) 
energy

$$$$
73:0
     RDKit          3D

 40 42  0  0  0  0  0  0  0  0999 V2000
   -5.1960   15.6400  -32.9600 C   0  0  0  0  0  0  0  0  0  0  0  0
   -5.8570   16.8960  -32.6270 N   0  0  0  0  0  0  0  0  0  0  0  0
   -6.1280   17.3580  -31.2790 C   0  0  0  0  0  0  0  0  0  0  0  0
   -6.7730   18.7470  -31.4330 C   0  0  0  0  0  0  0  0  0  0  0  0
   -7.1530   18.9110  -32.9260 C   0  0  1  0  0  0  0  0  0  0  0  0
   -8.5180   18.7360  -33.0900 F   0  0  0  0  0  0  0  0  0  0  0  0
   -6.7030   20.2590  -33.5280 C   0  0  0  0  0  0  0  0  0  0  0  0
   -5.5010   20.8250  -32.8120 C   0  0  0  0  0  0  0  0  0  0  0  0
   -4.1980   20.3660  -33.1290 C   0  0  0  0  0  0  0  0  0  0  0  0
   -3.0740   20.8780  -32.4580 C   0  0  0  0  0  0  0  0  0  0  0  0
   -3.2850   21.8390  -31.4750 C   0  0  0  0  0  0  0  0  0  0  0  0
   -2.3800   22.5130  -30.6850 C   0  0  0  0  0  0  0  0  0  0  0  0
   -3.1460   23.3590  -29.8850 C   0  0  0  0  0  0  0  0  0  0  0  0
   -2.5760   24.2050  -28.8160 C   0  0  0  0  0  0  0  0  0  0  0  0
   -1.9320   25.4390  -29.1220 N   0  0  0  0  0  0  0  0  0  0  0  0
   -2.6990   23.8550  -27.6110 O   0  0  0  0  0  0  0  0  0  0  0  0
   -4.4700   23.2200  -30.1750 N   0  0  0  0  0  0  0  0  0  0  0  0
   -5.5760   23.9630  -29.6370 C   0  0  0  0  0  0  0  0  0  0  0  0
   -5.3680   24.9170  -28.5960 N   0  0  0  0  0  0  0  0  0  0  0  0
   -6.7320   23.7980  -30.1090 O   0  0  0  0  0  0  0  0  0  0  0  0
   -4.5380   22.2840  -31.1460 C   0  0  0  0  0  0  0  0  0  0  0  0
   -5.6740   21.8030  -31.8080 C   0  0  0  0  0  0  0  0  0  0  0  0
   -6.4490   17.7720  -33.5650 C   0  0  0  0  0  0  0  0  0  0  0  0
   -6.4230   17.5630  -34.8080 O   0  0  0  0  0  0  0  0  0  0  0  0
   -4.9194   15.1145  -32.0341 H   0  0  0  0  0  0  0  0  0  0  0  0
   -5.8797   15.0106  -33.5486 H   0  0  0  0  0  0  0  0  0  0  0  0
   -4.2901   15.8472  -33.5486 H   0  0  0  0  0  0  0  0  0  0  0  0
   -6.8184   16.6695  -30.7697 H   0  0  0  0  0  0  0  0  0  0  0  0
   -5.2102   17.4028  -30.6744 H   0  0  0  0  0  0  0  0  0  0  0  0
   -7.6733   18.8165  -30.8049 H   0  0  0  0  0  0  0  0  0  0  0  0
   -6.0773   19.5384  -31.1173 H   0  0  0  0  0  0  0  0  0  0  0  0
   -6.4466   20.1071  -34.5869 H   0  0  0  0  0  0  0  0  0  0  0  0
   -7.5318   20.9738  -33.4178 H   0  0  0  0  0  0  0  0  0  0  0  0
   -4.0650   19.6011  -33.9083 H   0  0  0  0  0  0  0  0  0  0  0  0
   -2.0597   20.5297  -32.7026 H   0  0  0  0  0  0  0  0  0  0  0  0
   -1.2852   22.4062  -30.6854 H   0  0  0  0  0  0  0  0  0  0  0  0
   -1.6000   25.6460  -30.0900 H   0  0  0  0  0  0  0  0  0  0  0  0
   -6.1750   25.4460  -28.1970 H   0  0  0  0  0  0  0  0  0  0  0  0
   -4.4060   25.1200  -28.2470 H   0  0  0  0  0  0  0  0  0  0  0  0
   -6.6762   22.1775  -31.5525 H   0  0  0  0  0  0  0  0  0  0  0  0
  1  2  1  0
  2  3  1  0
  3  4  1  0
  4  5  1  0
  5  6  1  1
  5  7  1  0
  7  8  1  0
  8  9  2  0
  9 10  1  0
 10 11  2  0
 11 12  1  0
 12 13  2  0
 13 14  1  0
 14 15  1  0
 14 16  2  0
 13 17  1  0
 17 18  1  0
 18 19  1  0
 18 20  2  0
 17 21  1  0
 21 22  2  0
  5 23  1  0
 23 24  2  0
 23  2  1  0
 22  8  1  0
 21 11  1  0
  1 25  1  0
  1 26  1  0
  1 27  1  0
  3 28  1  0
  3 29  1  0
  4 30  1  0
  4 31  1  0
  7 32  1  0
  7 33  1  0
  9 34  1  0
 10 35  1  0
 12 36  1  0
 15 37  1  0
 19 38  1  0
 19 39  1  0
 22 40  1  0
M  CHG  1  15  -1
M  END
>  <UniqueID>  (73) 
73

>  <SMILES>  (73) 
CN1CC[C@@](F)(Cc2ccc3cc(C([NH-])=O)n(C(N)=O)c3c2)C1=O

>  <Energy>  (73) 
83.55541469740984

>  <Genealogy>  (73) 
CN1CCC(F)(Cc2ccc3cc(C([NH-])=O)n(C(N)=O)c3c2)C1=O (protonated)
CN1CC[C@@](F)(Cc2ccc3cc(C([NH-])=O)n(C(N)=O)c3c2)C1=O (chirality)
CN1CC[C@@](F)(Cc2ccc3cc(C([NH-])=O)n(C(N)=O)c3c2)C1=O (3D coordinates assigned)
CN1CC[C@@](F)(Cc2ccc3cc(C([NH-])=O)n(C(N)=O)c3c2)C1=O (nonaromatic ring conformer: 83.55541469740984 kcal/mol)

>  <smiles>  (73) 
CN1CCC(F)(Cc2ccc3cc(C(N)=O)n(C(N)=O)c3c2)C1=O

>  <score_type>  (73) 
oracle

>  <origin>  (73) 
adg

>  <m_score__min__energy>  (73) 
-10.960000000000001

>  <m_primary>  (73) 
energy

$$$$
74:0
     RDKit          3D

 40 42  0  0  0  0  0  0  0  0999 V2000
   -1.6250   24.3890  -26.6760 C   0  0  0  0  0  0  0  0  0  0  0  0
   -0.9920   25.1140  -28.1750 S   0  0  0  0  0  0  0  0  0  0  0  0
   -0.4580   26.4790  -27.8440 O   0  0  0  0  0  0  0  0  0  0  0  0
    0.1280   24.2850  -28.7380 O   0  0  0  0  0  0  0  0  0  0  0  0
   -2.2600   25.2890  -29.3440 N   0  0  0  0  0  0  0  0  0  0  0  0
   -3.1050   24.2620  -29.8880 C   0  0  0  0  0  0  0  0  0  0  0  0
   -2.6400   22.9420  -29.8340 C   0  0  0  0  0  0  0  0  0  0  0  0
   -3.4030   21.8920  -30.3480 C   0  0  0  0  0  0  0  0  0  0  0  0
   -4.6610   22.1390  -30.9210 C   0  0  0  0  0  0  0  0  0  0  0  0
   -5.4740   21.0230  -31.4680 C   0  0  0  0  0  0  0  0  0  0  0  0
   -6.8920   21.0730  -31.4120 C   0  0  0  0  0  0  0  0  0  0  0  0
   -7.6690   20.0290  -31.9370 C   0  0  0  0  0  0  0  0  0  0  0  0
   -7.0090   18.9440  -32.5030 C   0  0  0  0  0  0  0  0  0  0  0  0
   -7.5180   17.8200  -33.1110 C   0  0  0  0  0  0  0  0  0  0  0  0
   -6.4070   17.0810  -33.5060 C   0  0  0  0  0  0  0  0  0  0  0  0
   -6.5000   15.7540  -34.1450 C   0  0  0  0  0  0  0  0  0  0  0  0
   -5.4080   14.8340  -34.1030 N   0  0  0  0  0  0  0  0  0  0  0  0
   -7.5820   15.4030  -34.6870 O   0  0  0  0  0  0  0  0  0  0  0  0
   -5.2540   17.7270  -33.1690 N   0  0  0  0  0  0  0  0  0  0  0  0
   -3.9090   17.3480  -33.5080 C   0  0  0  0  0  0  0  0  0  0  0  0
   -3.2530   17.9470  -34.6240 N   0  0  0  0  0  0  0  0  0  0  0  0
   -3.2950   16.4950  -32.8130 O   0  0  0  0  0  0  0  0  0  0  0  0
   -5.6410   18.8650  -32.5510 C   0  0  0  0  0  0  0  0  0  0  0  0
   -4.8410   19.9010  -32.0540 C   0  0  0  0  0  0  0  0  0  0  0  0
   -5.1380   23.4600  -30.9620 C   0  0  0  0  0  0  0  0  0  0  0  0
   -4.3750   24.5140  -30.4480 C   0  0  0  0  0  0  0  0  0  0  0  0
   -4.9080   25.7580  -30.4830 F   0  0  0  0  0  0  0  0  0  0  0  0
   -1.1813   24.8972  -25.8071 H   0  0  0  0  0  0  0  0  0  0  0  0
   -2.7188   24.5018  -26.6476 H   0  0  0  0  0  0  0  0  0  0  0  0
   -1.3657   23.3204  -26.6476 H   0  0  0  0  0  0  0  0  0  0  0  0
   -1.6605   22.7298  -29.3805 H   0  0  0  0  0  0  0  0  0  0  0  0
   -3.0158   20.8633  -30.3038 H   0  0  0  0  0  0  0  0  0  0  0  0
   -7.3874   21.9405  -30.9516 H   0  0  0  0  0  0  0  0  0  0  0  0
   -8.7677   20.0679  -31.9018 H   0  0  0  0  0  0  0  0  0  0  0  0
   -8.5773   17.5606  -33.2544 H   0  0  0  0  0  0  0  0  0  0  0  0
   -4.5620   15.0270  -33.5230 H   0  0  0  0  0  0  0  0  0  0  0  0
   -5.4790   13.9140  -34.5920 H   0  0  0  0  0  0  0  0  0  0  0  0
   -3.4360   17.6120  -35.5960 H   0  0  0  0  0  0  0  0  0  0  0  0
   -3.7443   19.8441  -32.1176 H   0  0  0  0  0  0  0  0  0  0  0  0
   -6.1237   23.6681  -31.4038 H   0  0  0  0  0  0  0  0  0  0  0  0
  1  2  1  0
  2  3  2  0
  2  4  2  0
  2  5  1  0
  5  6  1  0
  6  7  2  0
  7  8  1  0
  8  9  2  0
  9 10  1  0
 10 11  2  0
 11 12  1  0
 12 13  2  0
 13 14  1  0
 14 15  2  0
 15 16  1  0
 16 17  1  0
 16 18  2  0
 15 19  1  0
 19 20  1  0
 20 21  1  0
 20 22  2  0
 19 23  1  0
 23 24  2  0
  9 25  1  0
 25 26  2  0
 26 27  1  0
 26  6  1  0
 24 10  1  0
 23 13  1  0
  1 28  1  0
  1 29  1  0
  1 30  1  0
  7 31  1  0
  8 32  1  0
 11 33  1  0
 12 34  1  0
 14 35  1  0
 17 36  1  0
 17 37  1  0
 21 38  1  0
 24 39  1  0
 25 40  1  0
M  CHG  2   5  -1  21  -1
M  END
>  <UniqueID>  (74) 
74

>  <SMILES>  (74) 
CS(=O)(=O)[N-]c1ccc(-c2ccc3cc(C(N)=O)n(C([NH-])=O)c3c2)cc1F

>  <Energy>  (74) 
89.52651841480501

>  <Genealogy>  (74) 
CS(=O)(=O)[N-]c1ccc(-c2ccc3cc(C(N)=O)n(C([NH-])=O)c3c2)cc1F (protonated)
CS(=O)(=O)[N-]c1ccc(-c2ccc3cc(C(N)=O)n(C([NH-])=O)c3c2)cc1F (3D coordinates assigned)
CS(=O)(=O)[N-]c1ccc(-c2ccc3cc(C(N)=O)n(C([NH-])=O)c3c2)cc1F (optimized conformer: 89.52651841480501 kcal/mol)

>  <smiles>  (74) 
CS(=O)(=O)Nc1ccc(-c2ccc3cc(C(N)=O)n(C(N)=O)c3c2)cc1F

>  <score_type>  (74) 
oracle

>  <origin>  (74) 
adg

>  <m_score__min__energy>  (74) 
-9.9399999999999995

>  <m_primary>  (74) 
energy

$$$$
75:0
     RDKit          3D

 40 42  0  0  0  0  0  0  0  0999 V2000
   -3.1410   20.1710  -33.8140 C   0  0  0  0  0  0  0  0  0  0  0  0
   -3.8910   19.2860  -33.7890 N   0  0  0  0  0  0  0  0  0  0  0  0
   -4.7730   18.2390  -33.7860 C   0  0  0  0  0  0  0  0  0  0  0  0
   -6.0590   18.4180  -33.3210 C   0  0  0  0  0  0  0  0  0  0  0  0
   -6.5570   19.6860  -32.8010 C   0  0  0  0  0  0  0  0  0  0  0  0
   -7.9010   19.9680  -32.8700 C   0  0  0  0  0  0  0  0  0  0  0  0
   -8.3400   21.1720  -32.3640 C   0  0  0  0  0  0  0  0  0  0  0  0
   -7.4360   22.0540  -31.8100 C   0  0  0  0  0  0  0  0  0  0  0  0
   -7.6130   23.2920  -31.2490 C   0  0  0  0  0  0  0  0  0  0  0  0
   -6.3740   23.8000  -30.8220 C   0  0  0  0  0  0  0  0  0  0  0  0
   -6.2530   25.0790  -30.1960 C   0  0  0  0  0  0  0  0  0  0  0  0
   -6.9670   25.5940  -29.0990 N   0  0  0  0  0  0  0  0  0  0  0  0
   -5.3770   25.8830  -30.6860 O   0  0  0  0  0  0  0  0  0  0  0  0
   -5.4660   22.8540  -31.1340 N   0  0  0  0  0  0  0  0  0  0  0  0
   -4.0760   22.8910  -30.9060 C   0  0  0  0  0  0  0  0  0  0  0  0
   -3.4410   21.7930  -30.7120 O   0  0  0  0  0  0  0  0  0  0  0  0
   -3.2850   24.0150  -30.8670 O   0  0  0  0  0  0  0  0  0  0  0  0
   -6.0890   21.7960  -31.7290 C   0  0  0  0  0  0  0  0  0  0  0  0
   -5.6640   20.5810  -32.2420 C   0  0  0  0  0  0  0  0  0  0  0  0
   -6.9000   17.3010  -33.3590 C   0  0  0  0  0  0  0  0  0  0  0  0
   -6.4200   16.0880  -33.8490 C   0  0  0  0  0  0  0  0  0  0  0  0
   -7.2340   14.9500  -33.9020 O   0  0  0  0  0  0  0  0  0  0  0  0
   -6.7660   13.7290  -34.4330 C   0  0  0  0  0  0  0  0  0  0  0  0
   -5.1420   15.9710  -34.2950 N   0  0  0  0  0  0  0  0  0  0  0  0
   -4.3100   17.0260  -34.2720 C   0  0  0  0  0  0  0  0  0  0  0  0
   -2.9140   16.8560  -34.7700 C   0  0  0  0  0  0  0  0  0  0  0  0
   -8.6064   19.2520  -33.3169 H   0  0  0  0  0  0  0  0  0  0  0  0
   -9.4089   21.4291  -32.4018 H   0  0  0  0  0  0  0  0  0  0  0  0
   -8.5784   23.8095  -31.1482 H   0  0  0  0  0  0  0  0  0  0  0  0
   -7.8680   26.1290  -29.2770 H   0  0  0  0  0  0  0  0  0  0  0  0
   -6.6040   25.4560  -28.1090 H   0  0  0  0  0  0  0  0  0  0  0  0
   -3.5360   24.9210  -31.2640 H   0  0  0  0  0  0  0  0  0  0  0  0
   -4.5952   20.3236  -32.2037 H   0  0  0  0  0  0  0  0  0  0  0  0
   -7.9378   17.3799  -33.0030 H   0  0  0  0  0  0  0  0  0  0  0  0
   -6.5048   13.0474  -33.6101 H   0  0  0  0  0  0  0  0  0  0  0  0
   -7.5529   13.2725  -35.0514 H   0  0  0  0  0  0  0  0  0  0  0  0
   -5.8756   13.9154  -35.0514 H   0  0  0  0  0  0  0  0  0  0  0  0
   -2.2273   16.7724  -33.9148 H   0  0  0  0  0  0  0  0  0  0  0  0
   -2.8513   15.9436  -35.3812 H   0  0  0  0  0  0  0  0  0  0  0  0
   -2.6342   17.7267  -35.3812 H   0  0  0  0  0  0  0  0  0  0  0  0
  1  2  3  0
  2  3  1  0
  3  4  2  0
  4  5  1  0
  5  6  2  0
  6  7  1  0
  7  8  2  0
  8  9  1  0
  9 10  2  0
 10 11  1  0
 11 12  1  0
 11 13  2  0
 10 14  1  0
 14 15  1  0
 15 16  2  0
 15 17  1  0
 14 18  1  0
 18 19  2  0
  4 20  1  0
 20 21  2  0
 21 22  1  0
 22 23  1  0
 21 24  1  0
 24 25  2  0
 25 26  1  0
 25  3  1  0
 19  5  1  0
 18  8  1  0
  6 27  1  0
  7 28  1  0
  9 29  1  0
 12 30  1  0
 12 31  1  0
 17 32  1  0
 19 33  1  0
 20 34  1  0
 23 35  1  0
 23 36  1  0
 23 37  1  0
 26 38  1  0
 26 39  1  0
 26 40  1  0
M  CHG  2   1  -1   2   1
M  END
>  <smiles>  (75) 
[C-]#[N+]c1c(-c2ccc3cc(C(N)=O)n(C(=O)O)c3c2)cc(OC)nc1C

>  <score_type>  (75) 
oracle

>  <origin>  (75) 
adg

>  <m_score__min__energy>  (75) 
-8.9000000000000004

>  <m_primary>  (75) 
energy

$$$$
76:0
     RDKit          3D

 28 29  0  0  0  0  0  0  0  0999 V2000
   -3.0670   20.9460  -33.1950 C   0  0  0  0  0  0  0  0  0  0  0  0
   -3.5260   22.2360  -32.8090 O   0  0  0  0  0  0  0  0  0  0  0  0
   -4.0090   22.5110  -31.5260 C   0  0  0  0  0  0  0  0  0  0  0  0
   -3.2260   22.5080  -30.5370 O   0  0  0  0  0  0  0  0  0  0  0  0
   -5.4080   22.7730  -31.3310 N   0  0  0  0  0  0  0  0  0  0  0  0
   -5.9890   23.9470  -30.9490 C   0  0  0  0  0  0  0  0  0  0  0  0
   -5.2790   25.1550  -30.4800 C   0  0  0  0  0  0  0  0  0  0  0  0
   -3.8730   25.2980  -30.6670 N   0  0  0  0  0  0  0  0  0  0  0  0
   -5.9140   26.0510  -29.8620 O   0  0  0  0  0  0  0  0  0  0  0  0
   -7.3770   23.8360  -30.9770 C   0  0  0  0  0  0  0  0  0  0  0  0
   -7.6330   22.5460  -31.3810 C   0  0  0  0  0  0  0  0  0  0  0  0
   -8.8470   21.8960  -31.5850 C   0  0  0  0  0  0  0  0  0  0  0  0
   -8.8140   20.5640  -32.0320 C   0  0  0  0  0  0  0  0  0  0  0  0
   -7.5770   19.9190  -32.2840 C   0  0  0  0  0  0  0  0  0  0  0  0
   -7.5560   18.4890  -32.7350 C   0  0  0  0  0  0  0  0  0  0  0  0
   -6.3660   20.6060  -32.0530 C   0  0  0  0  0  0  0  0  0  0  0  0
   -6.4290   21.9250  -31.5900 C   0  0  0  0  0  0  0  0  0  0  0  0
   -2.8544   20.3484  -32.2963 H   0  0  0  0  0  0  0  0  0  0  0  0
   -3.8420   20.4450  -33.7936 H   0  0  0  0  0  0  0  0  0  0  0  0
   -2.1497   21.0471  -33.7936 H   0  0  0  0  0  0  0  0  0  0  0  0
   -3.4880   26.0440  -31.2890 H   0  0  0  0  0  0  0  0  0  0  0  0
   -8.1129   24.6149  -30.7286 H   0  0  0  0  0  0  0  0  0  0  0  0
   -9.8026   22.4091  -31.4020 H   0  0  0  0  0  0  0  0  0  0  0  0
   -9.7558   20.0174  -32.1876 H   0  0  0  0  0  0  0  0  0  0  0  0
   -7.5463   17.8275  -31.8562 H   0  0  0  0  0  0  0  0  0  0  0  0
   -8.4512   18.2821  -33.3398 H   0  0  0  0  0  0  0  0  0  0  0  0
   -6.6551   18.3085  -33.3398 H   0  0  0  0  0  0  0  0  0  0  0  0
   -5.3971   20.1170  -32.2324 H   0  0  0  0  0  0  0  0  0  0  0  0
  1  2  1  0
  2  3  1  0
  3  4  2  0
  3  5  1  0
  5  6  1  0
  6  7  1  0
  7  8  1  0
  7  9  2  0
  6 10  2  0
 10 11  1  0
 11 12  2  0
 12 13  1  0
 13 14  2  0
 14 15  1  0
 14 16  1  0
 16 17  2  0
 17  5  1  0
 17 11  1  0
  1 18  1  0
  1 19  1  0
  1 20  1  0
  8 21  1  0
 10 22  1  0
 12 23  1  0
 13 24  1  0
 15 25  1  0
 15 26  1  0
 15 27  1  0
 16 28  1  0
M  CHG  1   8  -1
M  END
>  <UniqueID>  (76) 
75

>  <SMILES>  (76) 
COC(=O)n1c(C([NH-])=O)cc2ccc(C)cc21

>  <Energy>  (76) 
64.88304869415185

>  <Genealogy>  (76) 
COC(=O)n1c(C([NH-])=O)cc2ccc(C)cc21 (protonated)
COC(=O)n1c(C([NH-])=O)cc2ccc(C)cc21 (3D coordinates assigned)
COC(=O)n1c(C([NH-])=O)cc2ccc(C)cc21 (optimized conformer: 64.88304869415185 kcal/mol)

>  <smiles>  (76) 
COC(=O)n1c(C(N)=O)cc2ccc(C)cc21

>  <score_type>  (76) 
oracle

>  <origin>  (76) 
adg

>  <m_score__min__energy>  (76) 
-9.4800000000000004

>  <m_primary>  (76) 
energy

$$$$
77:0
     RDKit          3D

 49 51  0  0  0  0  0  0  0  0999 V2000
   -2.4260   21.3540  -33.4450 C   0  0  0  0  0  0  0  0  0  0  0  0
   -2.6970   20.0200  -33.8120 O   0  0  0  0  0  0  0  0  0  0  0  0
   -1.9340   19.1470  -33.0040 C   0  0  0  0  0  0  0  0  0  0  0  0
   -1.7160   17.8190  -33.7350 C   0  0  2  0  0  0  0  0  0  0  0  0
   -0.2300   17.5930  -34.0370 C   0  0  0  0  0  0  0  0  0  0  0  0
   -2.4720   17.8260  -34.9460 O   0  0  0  0  0  0  0  0  0  0  0  0
   -3.5540   16.9720  -35.1970 C   0  0  0  0  0  0  0  0  0  0  0  0
   -3.4520   16.0550  -36.0570 O   0  0  0  0  0  0  0  0  0  0  0  0
   -4.8140   17.1490  -34.4430 C   0  0  0  0  0  0  0  0  0  0  0  0
   -5.6750   16.0610  -34.2160 C   0  0  0  0  0  0  0  0  0  0  0  0
   -6.8640   16.2370  -33.5070 C   0  0  0  0  0  0  0  0  0  0  0  0
   -7.2110   17.4980  -33.0170 C   0  0  0  0  0  0  0  0  0  0  0  0
   -6.3670   18.6010  -33.2290 C   0  0  0  0  0  0  0  0  0  0  0  0
   -6.7330   19.9430  -32.7100 C   0  0  0  0  0  0  0  0  0  0  0  0
   -8.0880   20.3700  -32.7180 C   0  0  0  0  0  0  0  0  0  0  0  0
   -8.4480   21.6300  -32.2130 C   0  0  0  0  0  0  0  0  0  0  0  0
   -7.4390   22.4460  -31.7140 C   0  0  0  0  0  0  0  0  0  0  0  0
   -7.5150   23.6920  -31.1350 C   0  0  0  0  0  0  0  0  0  0  0  0
   -6.2050   24.0260  -30.8070 C   0  0  0  0  0  0  0  0  0  0  0  0
   -5.8210   25.3250  -30.2180 C   0  0  0  0  0  0  0  0  0  0  0  0
   -6.3530   25.7540  -28.9640 N   0  0  0  0  0  0  0  0  0  0  0  0
   -4.9680   26.0420  -30.8060 O   0  0  0  0  0  0  0  0  0  0  0  0
   -5.3500   23.0230  -31.1550 N   0  0  0  0  0  0  0  0  0  0  0  0
   -3.9430   22.9340  -30.8690 C   0  0  0  0  0  0  0  0  0  0  0  0
   -3.1510   24.1160  -30.7860 N   0  0  0  0  0  0  0  0  0  0  0  0
   -3.4040   21.8110  -30.6780 O   0  0  0  0  0  0  0  0  0  0  0  0
   -6.1220   22.0630  -31.7130 C   0  0  0  0  0  0  0  0  0  0  0  0
   -5.7360   20.8070  -32.1940 C   0  0  0  0  0  0  0  0  0  0  0  0
   -5.1680   18.4150  -33.9440 C   0  0  0  0  0  0  0  0  0  0  0  0
   -2.4093   21.4364  -32.3482 H   0  0  0  0  0  0  0  0  0  0  0  0
   -1.4485   21.6544  -33.8502 H   0  0  0  0  0  0  0  0  0  0  0  0
   -3.2088   22.0120  -33.8502 H   0  0  0  0  0  0  0  0  0  0  0  0
   -0.9593   19.6086  -32.7874 H   0  0  0  0  0  0  0  0  0  0  0  0
   -2.4730   18.9591  -32.0637 H   0  0  0  0  0  0  0  0  0  0  0  0
   -2.0541   16.9951  -33.0893 H   0  0  0  0  0  0  0  0  0  0  0  0
    0.3274   17.5082  -33.0925 H   0  0  0  0  0  0  0  0  0  0  0  0
   -0.1106   16.6664  -34.6176 H   0  0  0  0  0  0  0  0  0  0  0  0
    0.1595   18.4422  -34.6176 H   0  0  0  0  0  0  0  0  0  0  0  0
   -5.4098   15.0648  -34.5997 H   0  0  0  0  0  0  0  0  0  0  0  0
   -7.5305   15.3793  -33.3334 H   0  0  0  0  0  0  0  0  0  0  0  0
   -8.1514   17.6284  -32.4614 H   0  0  0  0  0  0  0  0  0  0  0  0
   -8.8646   19.7056  -33.1247 H   0  0  0  0  0  0  0  0  0  0  0  0
   -9.4969   21.9614  -32.2123 H   0  0  0  0  0  0  0  0  0  0  0  0
   -8.4192   24.2955  -30.9672 H   0  0  0  0  0  0  0  0  0  0  0  0
   -6.9300   25.1140  -28.3760 H   0  0  0  0  0  0  0  0  0  0  0  0
   -6.0990   26.6910  -28.5810 H   0  0  0  0  0  0  0  0  0  0  0  0
   -3.4760   25.0110  -31.2150 H   0  0  0  0  0  0  0  0  0  0  0  0
   -4.6808   20.4971  -32.1719 H   0  0  0  0  0  0  0  0  0  0  0  0
   -4.4994   19.2717  -34.1144 H   0  0  0  0  0  0  0  0  0  0  0  0
  1  2  1  0
  2  3  1  0
  3  4  1  0
  4  5  1  0
  4  6  1  0
  6  7  1  0
  7  8  2  0
  7  9  1  0
  9 10  2  0
 10 11  1  0
 11 12  2  0
 12 13  1  0
 13 14  1  0
 14 15  2  0
 15 16  1  0
 16 17  2  0
 17 18  1  0
 18 19  2  0
 19 20  1  0
 20 21  1  0
 20 22  2  0
 19 23  1  0
 23 24  1  0
 24 25  1  0
 24 26  2  0
 23 27  1  0
 27 28  2  0
 13 29  2  0
 29  9  1  0
 28 14  1  0
 27 17  1  0
  1 30  1  0
  1 31  1  0
  1 32  1  0
  3 33  1  0
  3 34  1  0
  4 35  1  1
  5 36  1  0
  5 37  1  0
  5 38  1  0
 10 39  1  0
 11 40  1  0
 12 41  1  0
 15 42  1  0
 16 43  1  0
 18 44  1  0
 21 45  1  0
 21 46  1  0
 25 47  1  0
 28 48  1  0
 29 49  1  0
M  CHG  1  25  -1
M  END
>  <UniqueID>  (77) 
76

>  <SMILES>  (77) 
COC[C@H](C)OC(=O)c1cccc(-c2ccc3cc(C(N)=O)n(C([NH-])=O)c3c2)c1

>  <Energy>  (77) 
91.62340406557831

>  <Genealogy>  (77) 
COC[C@H](C)OC(=O)c1cccc(-c2ccc3cc(C(N)=O)n(C([NH-])=O)c3c2)c1 (protonated)
COC[C@H](C)OC(=O)c1cccc(-c2ccc3cc(C(N)=O)n(C([NH-])=O)c3c2)c1 (3D coordinates assigned)
COC[C@H](C)OC(=O)c1cccc(-c2ccc3cc(C(N)=O)n(C([NH-])=O)c3c2)c1 (optimized conformer: 91.62340406557831 kcal/mol)

>  <smiles>  (77) 
COC[C@H](C)OC(=O)c1cccc(-c2ccc3cc(C(N)=O)n(C(N)=O)c3c2)c1

>  <score_type>  (77) 
oracle

>  <origin>  (77) 
adg

>  <m_score__min__energy>  (77) 
-10.119999999999999

>  <m_primary>  (77) 
energy

$$$$
78:0
     RDKit          3D

 32 34  0  0  0  0  0  0  0  0999 V2000
   -1.9240   25.6780  -28.9610 N   0  0  0  0  0  0  0  0  0  0  0  0
   -1.0700   24.5380  -28.9920 C   0  0  0  0  0  0  0  0  0  0  0  0
   -0.0340   24.5250  -28.2740 O   0  0  0  0  0  0  0  0  0  0  0  0
   -1.4090   23.3540  -29.8080 C   0  0  0  0  0  0  0  0  0  0  0  0
   -0.4810   22.3770  -30.1630 C   0  0  0  0  0  0  0  0  0  0  0  0
   -1.2010   21.4190  -30.8400 C   0  0  0  0  0  0  0  0  0  0  0  0
   -0.7760   20.2320  -31.4270 C   0  0  0  0  0  0  0  0  0  0  0  0
   -1.7330   19.4460  -32.0910 C   0  0  0  0  0  0  0  0  0  0  0  0
   -3.0890   19.8600  -32.1650 C   0  0  0  0  0  0  0  0  0  0  0  0
   -4.0890   19.0280  -32.8810 C   0  0  0  0  0  0  0  0  0  0  0  0
   -3.6840   17.9040  -33.6270 C   0  0  0  0  0  0  0  0  0  0  0  0
   -4.6280   17.1220  -34.2990 C   0  0  0  0  0  0  0  0  0  0  0  0
   -5.9840   17.4510  -34.2370 C   0  0  0  0  0  0  0  0  0  0  0  0
   -6.8970   16.6920  -34.8910 F   0  0  0  0  0  0  0  0  0  0  0  0
   -6.3980   18.5640  -33.5000 C   0  0  0  0  0  0  0  0  0  0  0  0
   -5.4590   19.3480  -32.8250 C   0  0  0  0  0  0  0  0  0  0  0  0
   -3.4790   21.0760  -31.5550 C   0  0  0  0  0  0  0  0  0  0  0  0
   -2.5080   21.8280  -30.8830 C   0  0  0  0  0  0  0  0  0  0  0  0
   -2.6530   23.0160  -30.2540 N   0  0  0  0  0  0  0  0  0  0  0  0
   -3.8590   23.7910  -30.1660 C   0  0  0  0  0  0  0  0  0  0  0  0
   -3.9450   25.0620  -30.8050 N   0  0  0  0  0  0  0  0  0  0  0  0
   -4.8450   23.3560  -29.5120 O   0  0  0  0  0  0  0  0  0  0  0  0
   -2.9010   25.6290  -29.3270 H   0  0  0  0  0  0  0  0  0  0  0  0
    0.5978   22.3724  -29.9479 H   0  0  0  0  0  0  0  0  0  0  0  0
    0.2769   19.9181  -31.3732 H   0  0  0  0  0  0  0  0  0  0  0  0
   -1.4278   18.4985  -32.5591 H   0  0  0  0  0  0  0  0  0  0  0  0
   -2.6176   17.6397  -33.6812 H   0  0  0  0  0  0  0  0  0  0  0  0
   -4.3021   16.2454  -34.8780 H   0  0  0  0  0  0  0  0  0  0  0  0
   -7.4659   18.8234  -33.4513 H   0  0  0  0  0  0  0  0  0  0  0  0
   -5.7924   20.2216  -32.2456 H   0  0  0  0  0  0  0  0  0  0  0  0
   -4.5217   21.4225  -31.6077 H   0  0  0  0  0  0  0  0  0  0  0  0
   -3.1140   25.6920  -30.8590 H   0  0  0  0  0  0  0  0  0  0  0  0
  1  2  1  0
  2  3  2  0
  2  4  1  0
  4  5  2  0
  5  6  1  0
  6  7  2  0
  7  8  1  0
  8  9  2  0
  9 10  1  0
 10 11  2  0
 11 12  1  0
 12 13  2  0
 13 14  1  0
 13 15  1  0
 15 16  2  0
  9 17  1  0
 17 18  2  0
 18 19  1  0
 19 20  1  0
 20 21  1  0
 20 22  2  0
 19  4  1  0
 18  6  1  0
 16 10  1  0
  1 23  1  0
  5 24  1  0
  7 25  1  0
  8 26  1  0
 11 27  1  0
 12 28  1  0
 15 29  1  0
 16 30  1  0
 17 31  1  0
 21 32  1  0
M  CHG  2   1  -1  21  -1
M  END
>  <UniqueID>  (78) 
77

>  <SMILES>  (78) 
[NH-]C(=O)c1cc2ccc(-c3ccc(F)cc3)cc2n1C([NH-])=O

>  <Energy>  (78) 
79.64550493688897

>  <Genealogy>  (78) 
[NH-]C(=O)c1cc2ccc(-c3ccc(F)cc3)cc2n1C([NH-])=O (protonated)
[NH-]C(=O)c1cc2ccc(-c3ccc(F)cc3)cc2n1C([NH-])=O (3D coordinates assigned)
[NH-]C(=O)c1cc2ccc(-c3ccc(F)cc3)cc2n1C([NH-])=O (optimized conformer: 79.64550493688897 kcal/mol)

>  <smiles>  (78) 
NC(=O)c1cc2ccc(-c3ccc(F)cc3)cc2n1C(N)=O

>  <score_type>  (78) 
oracle

>  <origin>  (78) 
adg

>  <m_score__min__energy>  (78) 
-11.17

>  <m_primary>  (78) 
energy

$$$$
79:0
     RDKit          3D

 39 41  0  0  0  0  0  0  0  0999 V2000
   -1.5700   25.9250  -28.9520 N   0  0  0  0  0  0  0  0  0  0  0  0
   -0.9510   24.6590  -29.1590 C   0  0  0  0  0  0  0  0  0  0  0  0
    0.2170   24.4660  -28.7260 O   0  0  0  0  0  0  0  0  0  0  0  0
   -1.6750   23.5560  -29.8240 C   0  0  0  0  0  0  0  0  0  0  0  0
   -1.0400   22.4400  -30.3670 C   0  0  0  0  0  0  0  0  0  0  0  0
   -2.0540   21.6220  -30.8090 C   0  0  0  0  0  0  0  0  0  0  0  0
   -1.9920   20.3820  -31.4390 C   0  0  0  0  0  0  0  0  0  0  0  0
   -3.2020   19.7710  -31.8100 C   0  0  0  0  0  0  0  0  0  0  0  0
   -4.4400   20.4130  -31.5600 C   0  0  0  0  0  0  0  0  0  0  0  0
   -5.7330   19.7420  -31.9450 C   0  0  0  0  0  0  0  0  0  0  0  0
   -6.4840   20.5440  -33.0270 C   0  0  1  0  0  0  0  0  0  0  0  0
   -7.9750   20.1550  -33.0990 C   0  0  0  0  0  0  0  0  0  0  0  0
   -8.7760   20.7390  -31.9290 C   0  0  0  0  0  0  0  0  0  0  0  0
   -8.7060   22.2670  -31.9220 C   0  0  0  0  0  0  0  0  0  0  0  0
   -7.2960   22.7570  -32.0740 C   0  0  0  0  0  0  0  0  0  0  0  0
   -6.9860   23.8970  -31.6410 O   0  0  0  0  0  0  0  0  0  0  0  0
   -6.3270   21.9830  -32.7920 N   0  0  0  0  0  0  0  0  0  0  0  0
   -4.4630   21.6680  -30.9120 C   0  0  0  0  0  0  0  0  0  0  0  0
   -3.2440   22.2430  -30.5350 C   0  0  0  0  0  0  0  0  0  0  0  0
   -3.0290   23.4340  -29.9310 N   0  0  0  0  0  0  0  0  0  0  0  0
   -4.0310   24.3960  -29.5660 C   0  0  0  0  0  0  0  0  0  0  0  0
   -4.2820   25.5230  -30.4020 N   0  0  0  0  0  0  0  0  0  0  0  0
   -4.6850   24.2550  -28.4970 O   0  0  0  0  0  0  0  0  0  0  0  0
   -2.6090   26.0240  -28.9680 H   0  0  0  0  0  0  0  0  0  0  0  0
    0.0422   22.2531  -30.4289 H   0  0  0  0  0  0  0  0  0  0  0  0
   -1.0261   19.8957  -31.6401 H   0  0  0  0  0  0  0  0  0  0  0  0
   -3.1878   18.7857  -32.2988 H   0  0  0  0  0  0  0  0  0  0  0  0
   -5.5125   18.7367  -32.3334 H   0  0  0  0  0  0  0  0  0  0  0  0
   -6.3720   19.6844  -31.0515 H   0  0  0  0  0  0  0  0  0  0  0  0
   -6.0388   20.2942  -34.0014 H   0  0  0  0  0  0  0  0  0  0  0  0
   -8.3960   20.5335  -34.0421 H   0  0  0  0  0  0  0  0  0  0  0  0
   -8.0440   19.0585  -33.0454 H   0  0  0  0  0  0  0  0  0  0  0  0
   -9.8270   20.4279  -32.0224 H   0  0  0  0  0  0  0  0  0  0  0  0
   -8.3442   20.3652  -30.9889 H   0  0  0  0  0  0  0  0  0  0  0  0
   -9.3105   22.6557  -32.7548 H   0  0  0  0  0  0  0  0  0  0  0  0
   -9.0916   22.6242  -30.9557 H   0  0  0  0  0  0  0  0  0  0  0  0
   -5.4030   22.4220  -33.0070 H   0  0  0  0  0  0  0  0  0  0  0  0
   -5.4149   22.1804  -30.7089 H   0  0  0  0  0  0  0  0  0  0  0  0
   -3.4970   26.0330  -30.8630 H   0  0  0  0  0  0  0  0  0  0  0  0
  1  2  1  0
  2  3  2  0
  2  4  1  0
  4  5  2  0
  5  6  1  0
  6  7  2  0
  7  8  1  0
  8  9  2  0
  9 10  1  0
 10 11  1  0
 11 12  1  0
 12 13  1  0
 13 14  1  0
 14 15  1  0
 15 16  2  0
 15 17  1  0
  9 18  1  0
 18 19  2  0
 19 20  1  0
 20 21  1  0
 21 22  1  0
 21 23  2  0
 20  4  1  0
 19  6  1  0
 17 11  1  0
  1 24  1  0
  5 25  1  0
  7 26  1  0
  8 27  1  0
 10 28  1  0
 10 29  1  0
 11 30  1  6
 12 31  1  0
 12 32  1  0
 13 33  1  0
 13 34  1  0
 14 35  1  0
 14 36  1  0
 17 37  1  0
 18 38  1  0
 22 39  1  0
M  CHG  2   1  -1  22  -1
M  END
>  <UniqueID>  (79) 
78

>  <SMILES>  (79) 
[NH-]C(=O)c1cc2ccc(C[C@H]3CCCC(=O)N3)cc2n1C([NH-])=O

>  <Energy>  (79) 
74.71693869426993

>  <Genealogy>  (79) 
[NH-]C(=O)c1cc2ccc(CC3CCCC(=O)N3)cc2n1C([NH-])=O (protonated)
[NH-]C(=O)c1cc2ccc(C[C@H]3CCCC(=O)N3)cc2n1C([NH-])=O (chirality)
[NH-]C(=O)c1cc2ccc(C[C@H]3CCCC(=O)N3)cc2n1C([NH-])=O (3D coordinates assigned)
[NH-]C(=O)c1cc2ccc(C[C@H]3CCCC(=O)N3)cc2n1C([NH-])=O (nonaromatic ring conformer: 74.71693869426993 kcal/mol)

>  <smiles>  (79) 
NC(=O)c1cc2ccc(CC3CCCC(=O)N3)cc2n1C(N)=O

>  <score_type>  (79) 
oracle

>  <origin>  (79) 
adg

>  <m_score__min__energy>  (79) 
-11.460000000000001

>  <m_primary>  (79) 
energy

$$$$
80:0
     RDKit          3D

 47 50  0  0  0  0  0  0  0  0999 V2000
   -5.1280   12.7220  -33.3840 C   0  0  0  0  0  0  0  0  0  0  0  0
   -5.6360   14.1190  -33.5130 C   0  0  0  0  0  0  0  0  0  0  0  0
   -6.7100   14.5550  -34.2630 C   0  0  0  0  0  0  0  0  0  0  0  0
   -6.7900   15.8980  -34.1760 N   0  0  0  0  0  0  0  0  0  0  0  0
   -5.8020   16.3130  -33.3940 N   0  0  0  0  0  0  0  0  0  0  0  0
   -5.4960   17.7180  -33.1090 C   0  0  2  0  0  0  0  0  0  0  0  0
   -6.4850   18.6610  -33.8240 C   0  0  0  0  0  0  0  0  0  0  0  0
   -6.7030   19.9300  -33.0370 C   0  0  0  0  0  0  0  0  0  0  0  0
   -8.0190   20.3590  -32.7270 C   0  0  0  0  0  0  0  0  0  0  0  0
   -8.2340   21.5630  -32.0380 C   0  0  0  0  0  0  0  0  0  0  0  0
   -7.1210   22.3200  -31.6850 C   0  0  0  0  0  0  0  0  0  0  0  0
   -7.0440   23.5120  -31.0010 C   0  0  0  0  0  0  0  0  0  0  0  0
   -5.6840   23.8080  -30.9290 C   0  0  0  0  0  0  0  0  0  0  0  0
   -5.1580   25.0600  -30.3480 C   0  0  0  0  0  0  0  0  0  0  0  0
   -3.9560   25.6470  -30.8390 N   0  0  0  0  0  0  0  0  0  0  0  0
   -5.8040   25.6470  -29.4400 O   0  0  0  0  0  0  0  0  0  0  0  0
   -4.9490   22.8340  -31.5360 N   0  0  0  0  0  0  0  0  0  0  0  0
   -3.5170   22.7230  -31.5930 C   0  0  0  0  0  0  0  0  0  0  0  0
   -2.9580   22.2050  -32.5970 O   0  0  0  0  0  0  0  0  0  0  0  0
   -2.7350   23.1590  -30.5300 O   0  0  0  0  0  0  0  0  0  0  0  0
   -5.8430   21.9310  -31.9950 C   0  0  0  0  0  0  0  0  0  0  0  0
   -5.5990   20.7260  -32.6660 C   0  0  0  0  0  0  0  0  0  0  0  0
   -4.0610   18.0280  -33.4890 C   0  0  0  0  0  0  0  0  0  0  0  0
   -3.2820   18.9050  -32.7150 C   0  0  0  0  0  0  0  0  0  0  0  0
   -1.9480   19.1540  -33.0520 C   0  0  0  0  0  0  0  0  0  0  0  0
   -1.3760   18.5200  -34.1600 C   0  0  0  0  0  0  0  0  0  0  0  0
    0.2990   18.8300  -34.5790 Cl  0  0  0  0  0  0  0  0  0  0  0  0
   -2.1390   17.6380  -34.9300 C   0  0  0  0  0  0  0  0  0  0  0  0
   -3.4740   17.3900  -34.5960 C   0  0  0  0  0  0  0  0  0  0  0  0
   -5.0690   15.2590  -32.9870 C   0  0  0  0  0  0  0  0  0  0  0  0
   -5.0338   12.4630  -32.3191 H   0  0  0  0  0  0  0  0  0  0  0  0
   -5.8319   12.0296  -33.8689 H   0  0  0  0  0  0  0  0  0  0  0  0
   -4.1438   12.6435  -33.8689 H   0  0  0  0  0  0  0  0  0  0  0  0
   -7.3907   13.9106  -34.8387 H   0  0  0  0  0  0  0  0  0  0  0  0
   -5.6105   17.8876  -32.0282 H   0  0  0  0  0  0  0  0  0  0  0  0
   -6.0813   18.9189  -34.8142 H   0  0  0  0  0  0  0  0  0  0  0  0
   -7.4505   18.1425  -33.9189 H   0  0  0  0  0  0  0  0  0  0  0  0
   -8.8786   19.7428  -33.0292 H   0  0  0  0  0  0  0  0  0  0  0  0
   -9.2508   21.8977  -31.7850 H   0  0  0  0  0  0  0  0  0  0  0  0
   -7.8781   24.1047  -30.5972 H   0  0  0  0  0  0  0  0  0  0  0  0
   -3.0220   25.2960  -30.5310 H   0  0  0  0  0  0  0  0  0  0  0  0
   -4.5718   20.4082  -32.8980 H   0  0  0  0  0  0  0  0  0  0  0  0
   -3.7249   19.3991  -31.8377 H   0  0  0  0  0  0  0  0  0  0  0  0
   -1.3482   19.8486  -32.4456 H   0  0  0  0  0  0  0  0  0  0  0  0
   -1.6887   17.1381  -35.8002 H   0  0  0  0  0  0  0  0  0  0  0  0
   -4.0686   16.6915  -35.2030 H   0  0  0  0  0  0  0  0  0  0  0  0
   -4.1751   15.3010  -32.3473 H   0  0  0  0  0  0  0  0  0  0  0  0
  1  2  1  0
  2  3  1  0
  3  4  2  0
  4  5  1  0
  5  6  1  0
  6  7  1  0
  7  8  1  0
  8  9  2  0
  9 10  1  0
 10 11  2  0
 11 12  1  0
 12 13  2  0
 13 14  1  0
 14 15  1  0
 14 16  2  0
 13 17  1  0
 17 18  1  0
 18 19  2  0
 18 20  1  0
 17 21  1  0
 21 22  2  0
  6 23  1  0
 23 24  2  0
 24 25  1  0
 25 26  2  0
 26 27  1  0
 26 28  1  0
 28 29  2  0
  5 30  1  0
 30  2  2  0
 22  8  1  0
 29 23  1  0
 21 11  1  0
  1 31  1  0
  1 32  1  0
  1 33  1  0
  3 34  1  0
  6 35  1  1
  7 36  1  0
  7 37  1  0
  9 38  1  0
 10 39  1  0
 12 40  1  0
 15 41  1  0
 22 42  1  0
 24 43  1  0
 25 44  1  0
 28 45  1  0
 29 46  1  0
 30 47  1  0
M  CHG  2  15  -1  20  -1
M  END
>  <UniqueID>  (80) 
79

>  <SMILES>  (80) 
Cc1cnn([C@H](Cc2ccc3cc(C([NH-])=O)n(C(=O)[O-])c3c2)c2ccc(Cl)cc2)c1

>  <Energy>  (80) 
117.07433592995342

>  <Genealogy>  (80) 
Cc1cnn(C(Cc2ccc3cc(C([NH-])=O)n(C(=O)[O-])c3c2)c2ccc(Cl)cc2)c1 (protonated)
Cc1cnn([C@H](Cc2ccc3cc(C([NH-])=O)n(C(=O)[O-])c3c2)c2ccc(Cl)cc2)c1 (chirality)
Cc1cnn([C@H](Cc2ccc3cc(C([NH-])=O)n(C(=O)[O-])c3c2)c2ccc(Cl)cc2)c1 (3D coordinates assigned)
Cc1cnn([C@H](Cc2ccc3cc(C([NH-])=O)n(C(=O)[O-])c3c2)c2ccc(Cl)cc2)c1 (optimized conformer: 117.07433592995342 kcal/mol)

>  <smiles>  (80) 
Cc1cnn(C(Cc2ccc3cc(C(N)=O)n(C(=O)O)c3c2)c2ccc(Cl)cc2)c1

>  <score_type>  (80) 
oracle

>  <origin>  (80) 
adg

>  <m_score__min__energy>  (80) 
-13.56

>  <m_primary>  (80) 
energy

$$$$
81:0
     RDKit          3D

 42 44  0  0  0  0  0  0  0  0999 V2000
   -6.1350   17.1790  -31.2620 C   0  0  0  0  0  0  0  0  0  0  0  0
   -6.3630   16.8040  -32.6640 N   0  0  0  0  0  0  0  0  0  0  0  0
   -6.8460   17.9320  -33.4980 C   0  0  0  0  0  0  0  0  0  0  0  0
   -5.8320   18.3520  -34.5900 C   0  0  0  0  0  0  0  0  0  0  0  0
   -4.5480   18.9120  -33.9690 C   0  0  0  0  0  0  0  0  0  0  0  0
   -4.8430   19.8440  -32.8700 N   0  0  0  0  0  0  0  0  0  0  0  0
   -3.7500   20.4780  -32.1790 C   0  0  0  0  0  0  0  0  0  0  0  0
   -2.4740   19.8610  -32.1450 C   0  0  0  0  0  0  0  0  0  0  0  0
   -1.3950   20.4770  -31.4880 C   0  0  0  0  0  0  0  0  0  0  0  0
   -1.6230   21.7010  -30.8680 C   0  0  0  0  0  0  0  0  0  0  0  0
   -0.7520   22.5230  -30.1890 C   0  0  0  0  0  0  0  0  0  0  0  0
   -1.5150   23.6210  -29.7930 C   0  0  0  0  0  0  0  0  0  0  0  0
   -0.9840   24.7160  -28.9550 C   0  0  0  0  0  0  0  0  0  0  0  0
   -1.6360   25.9820  -28.9010 N   0  0  0  0  0  0  0  0  0  0  0  0
    0.0330   24.5160  -28.2380 O   0  0  0  0  0  0  0  0  0  0  0  0
   -2.8030   23.4870  -30.2200 N   0  0  0  0  0  0  0  0  0  0  0  0
   -3.8780   24.4330  -30.0920 C   0  0  0  0  0  0  0  0  0  0  0  0
   -3.8710   25.4990  -30.7610 O   0  0  0  0  0  0  0  0  0  0  0  0
   -4.9480   24.1680  -29.2460 O   0  0  0  0  0  0  0  0  0  0  0  0
   -2.8530   22.3050  -30.8720 C   0  0  0  0  0  0  0  0  0  0  0  0
   -3.9400   21.7230  -31.5360 C   0  0  0  0  0  0  0  0  0  0  0  0
   -6.2190   20.3190  -32.6620 C   0  0  0  0  0  0  0  0  0  0  0  0
   -7.2170   19.1470  -32.5970 C   0  0  0  0  0  0  0  0  0  0  0  0
   -6.5923   16.4269  -30.6023 H   0  0  0  0  0  0  0  0  0  0  0  0
   -5.0536   17.2288  -31.0670 H   0  0  0  0  0  0  0  0  0  0  0  0
   -6.5884   18.1620  -31.0670 H   0  0  0  0  0  0  0  0  0  0  0  0
   -7.0300   15.9990  -32.7040 H   0  0  0  0  0  0  0  0  0  0  0  0
   -5.4440   16.4770  -33.0450 H   0  0  0  0  0  0  0  0  0  0  0  0
   -7.7448   17.5795  -34.0251 H   0  0  0  0  0  0  0  0  0  0  0  0
   -5.5806   17.4738  -35.2029 H   0  0  0  0  0  0  0  0  0  0  0  0
   -6.2913   19.1378  -35.2077 H   0  0  0  0  0  0  0  0  0  0  0  0
   -3.9464   18.0779  -33.5786 H   0  0  0  0  0  0  0  0  0  0  0  0
   -3.9982   19.4601  -34.7483 H   0  0  0  0  0  0  0  0  0  0  0  0
   -2.3268   18.8890  -32.6385 H   0  0  0  0  0  0  0  0  0  0  0  0
   -0.4013   20.0058  -31.4649 H   0  0  0  0  0  0  0  0  0  0  0  0
    0.3177   22.3504  -29.9993 H   0  0  0  0  0  0  0  0  0  0  0  0
   -2.6750   26.0530  -28.9730 H   0  0  0  0  0  0  0  0  0  0  0  0
   -4.9195   22.2231  -31.5569 H   0  0  0  0  0  0  0  0  0  0  0  0
   -6.2645   20.8801  -31.7169 H   0  0  0  0  0  0  0  0  0  0  0  0
   -6.4949   20.9606  -33.5119 H   0  0  0  0  0  0  0  0  0  0  0  0
   -7.2702   18.7985  -31.5550 H   0  0  0  0  0  0  0  0  0  0  0  0
   -8.1769   19.5324  -32.9712 H   0  0  0  0  0  0  0  0  0  0  0  0
  1  2  1  0
  2  3  1  0
  3  4  1  0
  4  5  1  0
  5  6  1  0
  6  7  1  0
  7  8  2  0
  8  9  1  0
  9 10  2  0
 10 11  1  0
 11 12  2  0
 12 13  1  0
 13 14  1  0
 13 15  2  0
 12 16  1  0
 16 17  1  0
 17 18  2  0
 17 19  1  0
 16 20  1  0
 20 21  2  0
  6 22  1  0
 22 23  1  0
 23  3  1  0
 21  7  1  0
 20 10  1  0
  1 24  1  0
  1 25  1  0
  1 26  1  0
  2 27  1  0
  2 28  1  0
  3 29  1  0
  4 30  1  0
  4 31  1  0
  5 32  1  0
  5 33  1  0
  8 34  1  0
  9 35  1  0
 11 36  1  0
 14 37  1  0
 21 38  1  0
 22 39  1  0
 22 40  1  0
 23 41  1  0
 23 42  1  0
M  CHG  3   2   1  14  -1  19  -1
M  END
>  <UniqueID>  (81) 
80

>  <SMILES>  (81) 
C[NH2+]C1CCN(c2ccc3cc(C([NH-])=O)n(C(=O)[O-])c3c2)CC1

>  <Energy>  (81) 
91.55821352244962

>  <Genealogy>  (81) 
C[NH2+]C1CCN(c2ccc3cc(C([NH-])=O)n(C(=O)[O-])c3c2)CC1 (protonated)
C[NH2+]C1CCN(c2ccc3cc(C([NH-])=O)n(C(=O)[O-])c3c2)CC1 (3D coordinates assigned)
C[NH2+]C1CCN(c2ccc3cc(C([NH-])=O)n(C(=O)[O-])c3c2)CC1 (nonaromatic ring conformer: 91.55821352244962 kcal/mol)

>  <smiles>  (81) 
CNC1CCN(c2ccc3cc(C(N)=O)n(C(=O)O)c3c2)CC1

>  <score_type>  (81) 
oracle

>  <origin>  (81) 
adg

>  <m_score__min__energy>  (81) 
-10.77

>  <m_primary>  (81) 
energy

$$$$
82:0
     RDKit          3D

 32 33  0  0  0  0  0  0  0  0999 V2000
   -5.4830   24.1740  -29.4320 C   0  0  0  0  0  0  0  0  0  0  0  0
   -4.3220   24.4000  -30.3470 C   0  0  0  0  0  0  0  0  0  0  0  0
   -4.1520   25.5400  -30.8560 O   0  0  0  0  0  0  0  0  0  0  0  0
   -3.3980   23.3410  -30.6420 N   0  0  0  0  0  0  0  0  0  0  0  0
   -2.1230   23.1990  -30.1820 C   0  0  0  0  0  0  0  0  0  0  0  0
   -1.3770   24.1860  -29.3740 C   0  0  0  0  0  0  0  0  0  0  0  0
   -1.9800   25.4130  -28.9710 N   0  0  0  0  0  0  0  0  0  0  0  0
   -0.1780   23.9570  -29.0610 O   0  0  0  0  0  0  0  0  0  0  0  0
   -1.5740   22.0000  -30.6320 C   0  0  0  0  0  0  0  0  0  0  0  0
   -2.5600   21.4070  -31.3870 C   0  0  0  0  0  0  0  0  0  0  0  0
   -2.5620   20.1890  -32.0590 C   0  0  0  0  0  0  0  0  0  0  0  0
   -3.7340   19.8110  -32.7340 C   0  0  0  0  0  0  0  0  0  0  0  0
   -4.8830   20.6470  -32.7210 C   0  0  0  0  0  0  0  0  0  0  0  0
   -6.1540   20.2300  -33.4320 C   0  0  2  0  0  0  0  0  0  0  0  0
   -7.3840   20.4510  -32.5420 C   0  0  0  0  0  0  0  0  0  0  0  0
   -6.0570   18.8030  -33.9000 C   0  0  0  0  0  0  0  0  0  0  0  0
   -6.4160   17.8680  -33.1370 O   0  0  0  0  0  0  0  0  0  0  0  0
   -5.6250   18.5040  -35.1880 O   0  0  0  0  0  0  0  0  0  0  0  0
   -4.8400   21.8750  -32.0220 C   0  0  0  0  0  0  0  0  0  0  0  0
   -3.6510   22.2340  -31.3760 C   0  0  0  0  0  0  0  0  0  0  0  0
   -5.1448   24.2398  -28.3874 H   0  0  0  0  0  0  0  0  0  0  0  0
   -6.2507   24.9396  -29.6178 H   0  0  0  0  0  0  0  0  0  0  0  0
   -5.9075   23.1764  -29.6178 H   0  0  0  0  0  0  0  0  0  0  0  0
   -2.9300   25.6820  -29.3090 H   0  0  0  0  0  0  0  0  0  0  0  0
   -0.5660   21.6101  -30.4272 H   0  0  0  0  0  0  0  0  0  0  0  0
   -1.6726   19.5417  -32.0616 H   0  0  0  0  0  0  0  0  0  0  0  0
   -3.7629   18.8562  -33.2794 H   0  0  0  0  0  0  0  0  0  0  0  0
   -6.2765   20.8665  -34.3207 H   0  0  0  0  0  0  0  0  0  0  0  0
   -7.0858   20.3974  -31.4845 H   0  0  0  0  0  0  0  0  0  0  0  0
   -7.8152   21.4410  -32.7517 H   0  0  0  0  0  0  0  0  0  0  0  0
   -8.1329   19.6730  -32.7517 H   0  0  0  0  0  0  0  0  0  0  0  0
   -5.7205   22.5333  -31.9865 H   0  0  0  0  0  0  0  0  0  0  0  0
  1  2  1  0
  2  3  2  0
  2  4  1  0
  4  5  1  0
  5  6  1  0
  6  7  1  0
  6  8  2  0
  5  9  2  0
  9 10  1  0
 10 11  2  0
 11 12  1  0
 12 13  2  0
 13 14  1  0
 14 15  1  0
 14 16  1  0
 16 17  2  0
 16 18  1  0
 13 19  1  0
 19 20  2  0
 20  4  1  0
 20 10  1  0
  1 21  1  0
  1 22  1  0
  1 23  1  0
  7 24  1  0
  9 25  1  0
 11 26  1  0
 12 27  1  0
 14 28  1  6
 15 29  1  0
 15 30  1  0
 15 31  1  0
 19 32  1  0
M  CHG  2   7  -1  18  -1
M  END
>  <UniqueID>  (82) 
81

>  <SMILES>  (82) 
CC(=O)n1c(C([NH-])=O)cc2ccc([C@H](C)C(=O)[O-])cc21

>  <Energy>  (82) 
69.4932168083374

>  <Genealogy>  (82) 
CC(=O)n1c(C([NH-])=O)cc2ccc(C(C)C(=O)[O-])cc21 (protonated)
CC(=O)n1c(C([NH-])=O)cc2ccc([C@H](C)C(=O)[O-])cc21 (chirality)
CC(=O)n1c(C([NH-])=O)cc2ccc([C@H](C)C(=O)[O-])cc21 (3D coordinates assigned)
CC(=O)n1c(C([NH-])=O)cc2ccc([C@H](C)C(=O)[O-])cc21 (optimized conformer: 69.4932168083374 kcal/mol)

>  <smiles>  (82) 
CC(=O)n1c(C(N)=O)cc2ccc(C(C)C(=O)O)cc21

>  <score_type>  (82) 
oracle

>  <origin>  (82) 
adg

>  <m_score__min__energy>  (82) 
-10.09

>  <m_primary>  (82) 
energy

$$$$
83:0
     RDKit          3D

 37 40  0  0  0  0  0  0  0  0999 V2000
   -7.4840   22.5730  -31.9380 C   0  0  0  0  0  0  0  0  0  0  0  0
   -7.5490   21.0840  -32.1580 C   0  0  0  0  0  0  0  0  0  0  0  0
   -8.8100   20.4740  -32.4120 C   0  0  0  0  0  0  0  0  0  0  0  0
   -9.9430   21.2200  -32.4460 F   0  0  0  0  0  0  0  0  0  0  0  0
   -8.9090   19.0900  -32.6370 C   0  0  0  0  0  0  0  0  0  0  0  0
   -7.7420   18.3390  -32.5920 C   0  0  0  0  0  0  0  0  0  0  0  0
   -7.6140   17.0120  -32.7600 N   0  0  0  0  0  0  0  0  0  0  0  0
   -6.3260   16.7190  -32.6070 N   0  0  0  0  0  0  0  0  0  0  0  0
   -5.6390   17.8530  -32.3400 C   0  0  0  0  0  0  0  0  0  0  0  0
   -6.5290   18.9040  -32.3310 C   0  0  0  0  0  0  0  0  0  0  0  0
   -6.3750   20.2750  -32.0910 C   0  0  0  0  0  0  0  0  0  0  0  0
   -5.0410   20.8320  -31.7810 C   0  0  0  0  0  0  0  0  0  0  0  0
   -3.8820   20.2910  -32.3920 C   0  0  0  0  0  0  0  0  0  0  0  0
   -2.6110   20.8100  -32.1000 C   0  0  0  0  0  0  0  0  0  0  0  0
   -2.5310   21.8770  -31.2090 C   0  0  0  0  0  0  0  0  0  0  0  0
   -1.4300   22.5530  -30.7350 C   0  0  0  0  0  0  0  0  0  0  0  0
   -1.9350   23.5170  -29.8660 C   0  0  0  0  0  0  0  0  0  0  0  0
   -1.0910   24.5250  -29.1880 C   0  0  0  0  0  0  0  0  0  0  0  0
   -1.5970   25.8410  -28.9690 N   0  0  0  0  0  0  0  0  0  0  0  0
    0.0590   24.2290  -28.7710 O   0  0  0  0  0  0  0  0  0  0  0  0
   -3.2950   23.4380  -29.8000 N   0  0  0  0  0  0  0  0  0  0  0  0
   -4.1850   24.2140  -28.9810 C   0  0  0  0  0  0  0  0  0  0  0  0
   -3.7950   24.6020  -27.6660 N   0  0  0  0  0  0  0  0  0  0  0  0
   -5.3100   24.5650  -29.4240 O   0  0  0  0  0  0  0  0  0  0  0  0
   -3.6440   22.4280  -30.6290 C   0  0  0  0  0  0  0  0  0  0  0  0
   -4.9210   21.9170  -30.8850 C   0  0  0  0  0  0  0  0  0  0  0  0
   -7.4748   22.7841  -30.8585 H   0  0  0  0  0  0  0  0  0  0  0  0
   -6.5676   22.9719  -32.3974 H   0  0  0  0  0  0  0  0  0  0  0  0
   -8.3622   23.0502  -32.3974 H   0  0  0  0  0  0  0  0  0  0  0  0
   -9.8805   18.6167  -32.8423 H   0  0  0  0  0  0  0  0  0  0  0  0
   -4.5560   17.9237  -32.1609 H   0  0  0  0  0  0  0  0  0  0  0  0
   -3.9796   19.4564  -33.1018 H   0  0  0  0  0  0  0  0  0  0  0  0
   -1.7062   20.3869  -32.5608 H   0  0  0  0  0  0  0  0  0  0  0  0
   -0.3753   22.3707  -30.9886 H   0  0  0  0  0  0  0  0  0  0  0  0
   -2.6240   26.0230  -28.9450 H   0  0  0  0  0  0  0  0  0  0  0  0
   -3.1620   25.4190  -27.5130 H   0  0  0  0  0  0  0  0  0  0  0  0
   -5.8090   22.3493  -30.4007 H   0  0  0  0  0  0  0  0  0  0  0  0
  1  2  1  0
  2  3  2  0
  3  4  1  0
  3  5  1  0
  5  6  2  0
  6  7  1  0
  7  8  1  0
  8  9  2  0
  9 10  1  0
 10 11  2  0
 11 12  1  0
 12 13  2  0
 13 14  1  0
 14 15  2  0
 15 16  1  0
 16 17  2  0
 17 18  1  0
 18 19  1  0
 18 20  2  0
 17 21  1  0
 21 22  1  0
 22 23  1  0
 22 24  2  0
 21 25  1  0
 25 26  2  0
 11  2  1  0
 26 12  1  0
 10  6  1  0
 25 15  1  0
  1 27  1  0
  1 28  1  0
  1 29  1  0
  5 30  1  0
  9 31  1  0
 13 32  1  0
 14 33  1  0
 16 34  1  0
 19 35  1  0
 23 36  1  0
 26 37  1  0
M  CHG  3   7  -1  19  -1  23  -1
M  END
>  <UniqueID>  (83) 
82

>  <SMILES>  (83) 
Cc1c(F)cc2[n-]ncc2c1-c1ccc2cc(C([NH-])=O)n(C([NH-])=O)c2c1

>  <Energy>  (83) 
125.70929579985417

>  <Genealogy>  (83) 
Cc1c(F)cc2[n-]ncc2c1-c1ccc2cc(C([NH-])=O)n(C([NH-])=O)c2c1 (protonated)
Cc1c(F)cc2[n-]ncc2c1-c1ccc2cc(C([NH-])=O)n(C([NH-])=O)c2c1 (3D coordinates assigned)
Cc1c(F)cc2[n-]ncc2c1-c1ccc2cc(C([NH-])=O)n(C([NH-])=O)c2c1 (optimized conformer: 125.70929579985417 kcal/mol)

>  <smiles>  (83) 
Cc1c(F)cc2[nH]ncc2c1-c1ccc2cc(C(N)=O)n(C(N)=O)c2c1

>  <score_type>  (83) 
oracle

>  <origin>  (83) 
adg

>  <m_score__min__energy>  (83) 
-12.1

>  <m_primary>  (83) 
energy

$$$$
84:0
     RDKit          3D

 40 41  0  0  0  0  0  0  0  0999 V2000
   -6.8560   23.7970  -31.9250 C   0  0  0  0  0  0  0  0  0  0  0  0
   -7.7310   22.5330  -31.8270 C   0  0  0  0  0  0  0  0  0  0  0  0
   -9.2150   22.8770  -32.0520 C   0  0  0  0  0  0  0  0  0  0  0  0
   -7.5710   21.9250  -30.4240 C   0  0  0  0  0  0  0  0  0  0  0  0
   -7.2940   21.5420  -32.7680 O   0  0  0  0  0  0  0  0  0  0  0  0
   -6.6210   20.3480  -32.4690 C   0  0  0  0  0  0  0  0  0  0  0  0
   -7.2520   19.3350  -32.0610 O   0  0  0  0  0  0  0  0  0  0  0  0
   -5.1960   20.2820  -32.6270 N   0  0  0  0  0  0  0  0  0  0  0  0
   -4.4880   19.4390  -33.4300 C   0  0  0  0  0  0  0  0  0  0  0  0
   -5.0570   18.5190  -34.4350 C   0  0  0  0  0  0  0  0  0  0  0  0
   -6.4650   18.4550  -34.6680 N   0  0  0  0  0  0  0  0  0  0  0  0
   -4.2840   17.8140  -35.1370 O   0  0  0  0  0  0  0  0  0  0  0  0
   -3.1200   19.5910  -33.2180 C   0  0  0  0  0  0  0  0  0  0  0  0
   -3.0080   20.5730  -32.2610 C   0  0  0  0  0  0  0  0  0  0  0  0
   -1.8740   21.1080  -31.6570 C   0  0  0  0  0  0  0  0  0  0  0  0
   -2.0550   22.0840  -30.6630 C   0  0  0  0  0  0  0  0  0  0  0  0
   -3.3570   22.5030  -30.2920 C   0  0  0  0  0  0  0  0  0  0  0  0
   -3.5400   23.5120  -29.1920 C   0  0  0  0  0  0  0  0  0  0  0  0
   -3.0880   24.8600  -29.6530 C   0  0  0  0  0  0  0  0  0  0  0  0
   -1.9720   25.3140  -29.2840 O   0  0  0  0  0  0  0  0  0  0  0  0
   -3.8740   25.5950  -30.5310 O   0  0  0  0  0  0  0  0  0  0  0  0
   -4.4850   21.9280  -30.9160 C   0  0  0  0  0  0  0  0  0  0  0  0
   -4.2750   20.9730  -31.9190 C   0  0  0  0  0  0  0  0  0  0  0  0
   -6.6102   24.1521  -30.9133 H   0  0  0  0  0  0  0  0  0  0  0  0
   -5.9280   23.5595  -32.4658 H   0  0  0  0  0  0  0  0  0  0  0  0
   -7.4050   24.5819  -32.4658 H   0  0  0  0  0  0  0  0  0  0  0  0
   -9.7160   22.9931  -31.0796 H   0  0  0  0  0  0  0  0  0  0  0  0
   -9.2917   23.8167  -32.6186 H   0  0  0  0  0  0  0  0  0  0  0  0
   -9.6974   22.0669  -32.6186 H   0  0  0  0  0  0  0  0  0  0  0  0
   -7.7737   22.6952  -29.6653 H   0  0  0  0  0  0  0  0  0  0  0  0
   -8.2810   21.0938  -30.3014 H   0  0  0  0  0  0  0  0  0  0  0  0
   -6.5438   21.5509  -30.3014 H   0  0  0  0  0  0  0  0  0  0  0  0
   -6.8530   17.7690  -35.3530 H   0  0  0  0  0  0  0  0  0  0  0  0
   -7.1170   19.1430  -34.2300 H   0  0  0  0  0  0  0  0  0  0  0  0
   -2.3033   19.0429  -33.7106 H   0  0  0  0  0  0  0  0  0  0  0  0
   -0.8666   20.7767  -31.9491 H   0  0  0  0  0  0  0  0  0  0  0  0
   -1.1782   22.5270  -30.1681 H   0  0  0  0  0  0  0  0  0  0  0  0
   -4.6035   23.5597  -28.9149 H   0  0  0  0  0  0  0  0  0  0  0  0
   -2.9402   23.2089  -28.3211 H   0  0  0  0  0  0  0  0  0  0  0  0
   -5.5033   22.2224  -30.6221 H   0  0  0  0  0  0  0  0  0  0  0  0
  1  2  1  0
  2  3  1  0
  2  4  1  0
  2  5  1  0
  5  6  1  0
  6  7  2  0
  6  8  1  0
  8  9  1  0
  9 10  1  0
 10 11  1  0
 10 12  2  0
  9 13  2  0
 13 14  1  0
 14 15  2  0
 15 16  1  0
 16 17  2  0
 17 18  1  0
 18 19  1  0
 19 20  2  0
 19 21  1  0
 17 22  1  0
 22 23  2  0
 23  8  1  0
 23 14  1  0
  1 24  1  0
  1 25  1  0
  1 26  1  0
  3 27  1  0
  3 28  1  0
  3 29  1  0
  4 30  1  0
  4 31  1  0
  4 32  1  0
 11 33  1  0
 11 34  1  0
 13 35  1  0
 15 36  1  0
 16 37  1  0
 18 38  1  0
 18 39  1  0
 22 40  1  0
M  CHG  1  21  -1
M  END
>  <UniqueID>  (84) 
83

>  <SMILES>  (84) 
CC(C)(C)OC(=O)n1c(C(N)=O)cc2ccc(CC(=O)[O-])cc21

>  <Energy>  (84) 
72.44934466474177

>  <Genealogy>  (84) 
CC(C)(C)OC(=O)n1c(C(N)=O)cc2ccc(CC(=O)[O-])cc21 (protonated)
CC(C)(C)OC(=O)n1c(C(N)=O)cc2ccc(CC(=O)[O-])cc21 (3D coordinates assigned)
CC(C)(C)OC(=O)n1c(C(N)=O)cc2ccc(CC(=O)[O-])cc21 (optimized conformer: 72.44934466474177 kcal/mol)

>  <smiles>  (84) 
CC(C)(C)OC(=O)n1c(C(N)=O)cc2ccc(CC(=O)O)cc21

>  <score_type>  (84) 
oracle

>  <origin>  (84) 
adg

>  <m_score__min__energy>  (84) 
-10.09

>  <m_primary>  (84) 
energy

$$$$
85:0
     RDKit          3D

 31 33  0  0  0  0  0  0  0  0999 V2000
   -3.8860   25.3900  -30.5060 N   0  0  0  0  0  0  0  0  0  0  0  0
   -5.2720   25.0630  -30.4690 C   0  0  0  0  0  0  0  0  0  0  0  0
   -6.0790   25.8610  -29.9200 O   0  0  0  0  0  0  0  0  0  0  0  0
   -5.7700   23.7860  -31.0250 C   0  0  0  0  0  0  0  0  0  0  0  0
   -7.1240   23.4740  -31.1430 C   0  0  0  0  0  0  0  0  0  0  0  0
   -7.1610   22.1900  -31.6340 C   0  0  0  0  0  0  0  0  0  0  0  0
   -8.2490   21.3870  -31.9600 C   0  0  0  0  0  0  0  0  0  0  0  0
   -7.9910   20.1090  -32.4850 C   0  0  0  0  0  0  0  0  0  0  0  0
   -6.6590   19.6580  -32.6840 C   0  0  0  0  0  0  0  0  0  0  0  0
   -6.3980   18.3110  -33.2500 C   0  0  0  0  0  0  0  0  0  0  0  0
   -7.2250   17.2180  -32.9420 C   0  0  0  0  0  0  0  0  0  0  0  0
   -6.9670   15.9950  -33.4730 N   0  0  0  0  0  0  0  0  0  0  0  0
   -5.9130   15.8030  -34.3060 C   0  0  0  0  0  0  0  0  0  0  0  0
   -5.0960   16.8410  -34.6200 N   0  0  0  0  0  0  0  0  0  0  0  0
   -5.3160   18.0820  -34.1150 C   0  0  0  0  0  0  0  0  0  0  0  0
   -5.5820   20.5080  -32.3400 C   0  0  0  0  0  0  0  0  0  0  0  0
   -5.8680   21.7670  -31.7990 C   0  0  0  0  0  0  0  0  0  0  0  0
   -5.0020   22.7350  -31.4290 N   0  0  0  0  0  0  0  0  0  0  0  0
   -3.5710   22.6790  -31.5290 C   0  0  0  0  0  0  0  0  0  0  0  0
   -2.7530   23.1160  -30.4440 N   0  0  0  0  0  0  0  0  0  0  0  0
   -3.0300   22.2330  -32.5760 O   0  0  0  0  0  0  0  0  0  0  0  0
   -3.5090   26.0480  -31.2250 H   0  0  0  0  0  0  0  0  0  0  0  0
   -7.9807   24.1182  -30.8958 H   0  0  0  0  0  0  0  0  0  0  0  0
   -9.2797   21.7413  -31.8115 H   0  0  0  0  0  0  0  0  0  0  0  0
   -8.8319   19.4493  -32.7452 H   0  0  0  0  0  0  0  0  0  0  0  0
   -8.0842   17.3532  -32.2686 H   0  0  0  0  0  0  0  0  0  0  0  0
   -5.7203   14.8053  -34.7273 H   0  0  0  0  0  0  0  0  0  0  0  0
   -4.6445   18.9106  -34.3844 H   0  0  0  0  0  0  0  0  0  0  0  0
   -4.5414   20.1864  -32.4944 H   0  0  0  0  0  0  0  0  0  0  0  0
   -1.7140   23.0470  -30.5050 H   0  0  0  0  0  0  0  0  0  0  0  0
   -3.1840   23.5450  -29.5940 H   0  0  0  0  0  0  0  0  0  0  0  0
  1  2  1  0
  2  3  2  0
  2  4  1  0
  4  5  2  0
  5  6  1  0
  6  7  2  0
  7  8  1  0
  8  9  2  0
  9 10  1  0
 10 11  2  0
 11 12  1  0
 12 13  2  0
 13 14  1  0
 14 15  2  0
  9 16  1  0
 16 17  2  0
 17 18  1  0
 18 19  1  0
 19 20  1  0
 19 21  2  0
 18  4  1  0
 17  6  1  0
 15 10  1  0
  1 22  1  0
  5 23  1  0
  7 24  1  0
  8 25  1  0
 11 26  1  0
 13 27  1  0
 15 28  1  0
 16 29  1  0
 20 30  1  0
 20 31  1  0
M  CHG  1   1  -1
M  END
>  <UniqueID>  (85) 
84

>  <SMILES>  (85) 
[NH-]C(=O)c1cc2ccc(-c3cncnc3)cc2n1C(N)=O

>  <Energy>  (85) 
78.88316995145478

>  <Genealogy>  (85) 
[NH-]C(=O)c1cc2ccc(-c3cncnc3)cc2n1C(N)=O (protonated)
[NH-]C(=O)c1cc2ccc(-c3cncnc3)cc2n1C(N)=O (3D coordinates assigned)
[NH-]C(=O)c1cc2ccc(-c3cncnc3)cc2n1C(N)=O (optimized conformer: 78.88316995145478 kcal/mol)

>  <smiles>  (85) 
NC(=O)c1cc2ccc(-c3cncnc3)cc2n1C(N)=O

>  <score_type>  (85) 
oracle

>  <origin>  (85) 
adg

>  <m_score__min__energy>  (85) 
-10.16

>  <m_primary>  (85) 
energy

$$$$
86:0
     RDKit          3D

 29 30  0  0  0  0  0  0  0  0999 V2000
   -3.5400   25.2900  -30.5020 N   0  0  0  0  0  0  0  0  0  0  0  0
   -4.7270   24.8210  -29.8690 C   0  0  0  0  0  0  0  0  0  0  0  0
   -4.6580   24.2550  -28.7450 O   0  0  0  0  0  0  0  0  0  0  0  0
   -6.0470   24.9580  -30.5590 C   0  0  0  0  0  0  0  0  0  0  0  0
   -6.4330   23.6530  -31.1990 C   0  0  0  0  0  0  0  0  0  0  0  0
   -7.7990   23.3160  -31.3570 C   0  0  0  0  0  0  0  0  0  0  0  0
   -8.1720   22.1090  -31.9720 C   0  0  0  0  0  0  0  0  0  0  0  0
   -7.1590   21.2710  -32.4310 C   0  0  0  0  0  0  0  0  0  0  0  0
   -7.2400   20.0430  -33.0470 C   0  0  0  0  0  0  0  0  0  0  0  0
   -5.9200   19.6620  -33.2860 C   0  0  0  0  0  0  0  0  0  0  0  0
   -5.5360   18.4400  -34.0260 C   0  0  0  0  0  0  0  0  0  0  0  0
   -4.1600   18.1220  -34.2420 N   0  0  0  0  0  0  0  0  0  0  0  0
   -6.4210   17.6500  -34.4440 O   0  0  0  0  0  0  0  0  0  0  0  0
   -5.0580   20.6180  -32.8330 N   0  0  0  0  0  0  0  0  0  0  0  0
   -3.6220   20.5730  -32.8310 C   0  0  0  0  0  0  0  0  0  0  0  0
   -2.8750   21.4090  -33.7120 N   0  0  0  0  0  0  0  0  0  0  0  0
   -3.0130   19.7790  -32.0660 O   0  0  0  0  0  0  0  0  0  0  0  0
   -5.8330   21.5960  -32.3130 C   0  0  0  0  0  0  0  0  0  0  0  0
   -5.4330   22.7830  -31.6890 C   0  0  0  0  0  0  0  0  0  0  0  0
   -3.5790   26.0400  -31.2270 H   0  0  0  0  0  0  0  0  0  0  0  0
   -6.8139   25.2437  -29.8240 H   0  0  0  0  0  0  0  0  0  0  0  0
   -5.9681   25.7314  -31.3372 H   0  0  0  0  0  0  0  0  0  0  0  0
   -8.5757   24.0057  -30.9948 H   0  0  0  0  0  0  0  0  0  0  0  0
   -9.2310   21.8346  -32.0873 H   0  0  0  0  0  0  0  0  0  0  0  0
   -8.1520   19.4814  -33.2976 H   0  0  0  0  0  0  0  0  0  0  0  0
   -3.8980   17.2370  -34.7310 H   0  0  0  0  0  0  0  0  0  0  0  0
   -3.3990   18.7780  -33.9570 H   0  0  0  0  0  0  0  0  0  0  0  0
   -3.3440   22.1510  -34.2760 H   0  0  0  0  0  0  0  0  0  0  0  0
   -4.3670   23.0326  -31.5826 H   0  0  0  0  0  0  0  0  0  0  0  0
  1  2  1  0
  2  3  2  0
  2  4  1  0
  4  5  1  0
  5  6  2  0
  6  7  1  0
  7  8  2  0
  8  9  1  0
  9 10  2  0
 10 11  1  0
 11 12  1  0
 11 13  2  0
 10 14  1  0
 14 15  1  0
 15 16  1  0
 15 17  2  0
 14 18  1  0
 18 19  2  0
 19  5  1  0
 18  8  1  0
  1 20  1  0
  4 21  1  0
  4 22  1  0
  6 23  1  0
  7 24  1  0
  9 25  1  0
 12 26  1  0
 12 27  1  0
 16 28  1  0
 19 29  1  0
M  CHG  2   1  -1  16  -1
M  END
>  <UniqueID>  (86) 
85

>  <SMILES>  (86) 
[NH-]C(=O)Cc1ccc2cc(C(N)=O)n(C([NH-])=O)c2c1

>  <Energy>  (86) 
65.70765596906999

>  <Genealogy>  (86) 
[NH-]C(=O)Cc1ccc2cc(C(N)=O)n(C([NH-])=O)c2c1 (protonated)
[NH-]C(=O)Cc1ccc2cc(C(N)=O)n(C([NH-])=O)c2c1 (3D coordinates assigned)
[NH-]C(=O)Cc1ccc2cc(C(N)=O)n(C([NH-])=O)c2c1 (optimized conformer: 65.70765596906999 kcal/mol)

>  <smiles>  (86) 
NC(=O)Cc1ccc2cc(C(N)=O)n(C(N)=O)c2c1

>  <score_type>  (86) 
oracle

>  <origin>  (86) 
adg

>  <m_score__min__energy>  (86) 
-9.7599999999999998

>  <m_primary>  (86) 
energy

$$$$
87:0
     RDKit          3D

 35 37  0  0  0  0  0  0  0  0999 V2000
   -9.1950   21.5380  -31.9680 C   0  0  0  0  0  0  0  0  0  0  0  0
   -9.6130   20.2990  -32.5280 O   0  0  0  0  0  0  0  0  0  0  0  0
   -8.9020   19.1100  -32.3380 C   0  0  0  0  0  0  0  0  0  0  0  0
   -9.4950   18.0590  -31.9740 O   0  0  0  0  0  0  0  0  0  0  0  0
   -7.4540   19.0950  -32.5670 C   0  0  0  0  0  0  0  0  0  0  0  0
   -6.7800   18.2940  -33.4660 C   0  0  0  0  0  0  0  0  0  0  0  0
   -5.4480   18.6220  -33.3350 C   0  0  0  0  0  0  0  0  0  0  0  0
   -5.3920   19.6080  -32.3600 C   0  0  0  0  0  0  0  0  0  0  0  0
   -4.1810   20.2950  -31.8540 C   0  0  0  0  0  0  0  0  0  0  0  0
   -2.9080   19.7020  -32.0600 C   0  0  0  0  0  0  0  0  0  0  0  0
   -1.7380   20.3310  -31.6050 C   0  0  0  0  0  0  0  0  0  0  0  0
   -1.8670   21.5470  -30.9410 C   0  0  0  0  0  0  0  0  0  0  0  0
   -0.9000   22.3790  -30.4250 C   0  0  0  0  0  0  0  0  0  0  0  0
   -1.5930   23.4610  -29.8880 C   0  0  0  0  0  0  0  0  0  0  0  0
   -0.9350   24.5660  -29.1590 C   0  0  0  0  0  0  0  0  0  0  0  0
   -1.6020   25.8080  -28.9510 N   0  0  0  0  0  0  0  0  0  0  0  0
    0.2140   24.3950  -28.6730 O   0  0  0  0  0  0  0  0  0  0  0  0
   -2.9360   23.3070  -30.0700 N   0  0  0  0  0  0  0  0  0  0  0  0
   -3.9810   24.2350  -29.7350 C   0  0  0  0  0  0  0  0  0  0  0  0
   -4.1290   25.4460  -30.4720 N   0  0  0  0  0  0  0  0  0  0  0  0
   -4.7650   23.9860  -28.7810 O   0  0  0  0  0  0  0  0  0  0  0  0
   -3.0870   22.1290  -30.7150 C   0  0  0  0  0  0  0  0  0  0  0  0
   -4.2680   21.5350  -31.1750 C   0  0  0  0  0  0  0  0  0  0  0  0
   -6.6060   19.8640  -31.9250 O   0  0  0  0  0  0  0  0  0  0  0  0
   -9.2178   21.4705  -30.8703 H   0  0  0  0  0  0  0  0  0  0  0  0
   -8.1710   21.7637  -32.3003 H   0  0  0  0  0  0  0  0  0  0  0  0
   -9.8730   22.3379  -32.3003 H   0  0  0  0  0  0  0  0  0  0  0  0
   -7.2159   17.5478  -34.1466 H   0  0  0  0  0  0  0  0  0  0  0  0
   -4.6019   18.1904  -33.8899 H   0  0  0  0  0  0  0  0  0  0  0  0
   -2.8371   18.7369  -32.5830 H   0  0  0  0  0  0  0  0  0  0  0  0
   -0.7497   19.8764  -31.7684 H   0  0  0  0  0  0  0  0  0  0  0  0
    0.1888   22.2227  -30.4346 H   0  0  0  0  0  0  0  0  0  0  0  0
   -2.6440   25.8680  -28.9680 H   0  0  0  0  0  0  0  0  0  0  0  0
   -3.8960   26.3680  -30.0410 H   0  0  0  0  0  0  0  0  0  0  0  0
   -5.2418   22.0203  -31.0128 H   0  0  0  0  0  0  0  0  0  0  0  0
  1  2  1  0
  2  3  1  0
  3  4  2  0
  3  5  1  0
  5  6  2  0
  6  7  1  0
  7  8  2  0
  8  9  1  0
  9 10  2  0
 10 11  1  0
 11 12  2  0
 12 13  1  0
 13 14  2  0
 14 15  1  0
 15 16  1  0
 15 17  2  0
 14 18  1  0
 18 19  1  0
 19 20  1  0
 19 21  2  0
 18 22  1  0
 22 23  2  0
  8 24  1  0
 24  5  1  0
 23  9  1  0
 22 12  1  0
  1 25  1  0
  1 26  1  0
  1 27  1  0
  6 28  1  0
  7 29  1  0
 10 30  1  0
 11 31  1  0
 13 32  1  0
 16 33  1  0
 20 34  1  0
 23 35  1  0
M  CHG  2  16  -1  20  -1
M  END
>  <UniqueID>  (87) 
86

>  <SMILES>  (87) 
COC(=O)c1ccc(-c2ccc3cc(C([NH-])=O)n(C([NH-])=O)c3c2)o1

>  <Energy>  (87) 
100.78499899986868

>  <Genealogy>  (87) 
COC(=O)c1ccc(-c2ccc3cc(C([NH-])=O)n(C([NH-])=O)c3c2)o1 (protonated)
COC(=O)c1ccc(-c2ccc3cc(C([NH-])=O)n(C([NH-])=O)c3c2)o1 (3D coordinates assigned)
COC(=O)c1ccc(-c2ccc3cc(C([NH-])=O)n(C([NH-])=O)c3c2)o1 (optimized conformer: 100.78499899986868 kcal/mol)

>  <smiles>  (87) 
COC(=O)c1ccc(-c2ccc3cc(C(N)=O)n(C(N)=O)c3c2)o1

>  <score_type>  (87) 
oracle

>  <origin>  (87) 
adg

>  <m_score__min__energy>  (87) 
-11.15

>  <m_primary>  (87) 
energy

$$$$
88:0
     RDKit          3D

 41 43  0  0  0  0  0  0  0  0999 V2000
   -2.7690   21.0030  -29.4570 C   0  0  0  0  0  0  0  0  0  0  0  0
   -2.7730   22.5390  -29.3380 C   0  0  0  0  0  0  0  0  0  0  0  0
   -1.3950   23.0000  -28.8410 C   0  0  0  0  0  0  0  0  0  0  0  0
   -3.8450   23.0030  -28.3350 C   0  0  0  0  0  0  0  0  0  0  0  0
   -2.9850   23.1470  -30.6210 O   0  0  0  0  0  0  0  0  0  0  0  0
   -3.8890   22.7200  -31.6040 C   0  0  0  0  0  0  0  0  0  0  0  0
   -3.4890   22.1130  -32.6330 O   0  0  0  0  0  0  0  0  0  0  0  0
   -5.2930   22.9600  -31.4230 N   0  0  0  0  0  0  0  0  0  0  0  0
   -5.8820   24.0420  -30.8400 C   0  0  0  0  0  0  0  0  0  0  0  0
   -5.2010   25.2860  -30.4280 C   0  0  0  0  0  0  0  0  0  0  0  0
   -3.8710   25.5690  -30.8570 N   0  0  0  0  0  0  0  0  0  0  0  0
   -5.8160   26.1340  -29.7290 O   0  0  0  0  0  0  0  0  0  0  0  0
   -7.2600   23.8570  -30.7470 C   0  0  0  0  0  0  0  0  0  0  0  0
   -7.5010   22.6210  -31.3020 C   0  0  0  0  0  0  0  0  0  0  0  0
   -8.6950   21.9290  -31.4590 C   0  0  0  0  0  0  0  0  0  0  0  0
   -8.6470   20.6500  -32.0370 C   0  0  0  0  0  0  0  0  0  0  0  0
   -7.4050   20.0780  -32.4420 C   0  0  0  0  0  0  0  0  0  0  0  0
   -7.2800   18.6960  -33.0610 C   0  0  0  0  0  0  0  0  0  0  0  0
   -6.3140   17.7210  -32.4000 C   0  0  0  0  0  0  0  0  0  0  0  0
   -5.9620   18.3530  -33.7410 C   0  0  0  0  0  0  0  0  0  0  0  0
   -6.2170   20.8210  -32.2620 C   0  0  0  0  0  0  0  0  0  0  0  0
   -6.2980   22.1000  -31.7010 C   0  0  0  0  0  0  0  0  0  0  0  0
   -2.7678   20.5573  -28.4513 H   0  0  0  0  0  0  0  0  0  0  0  0
   -3.6663   20.6751  -30.0023 H   0  0  0  0  0  0  0  0  0  0  0  0
   -1.8700   20.6798  -30.0023 H   0  0  0  0  0  0  0  0  0  0  0  0
   -1.3843   23.0036  -27.7411 H   0  0  0  0  0  0  0  0  0  0  0  0
   -0.6219   22.3116  -29.2130 H   0  0  0  0  0  0  0  0  0  0  0  0
   -1.1918   24.0151  -29.2130 H   0  0  0  0  0  0  0  0  0  0  0  0
   -3.4803   22.8451  -27.3093 H   0  0  0  0  0  0  0  0  0  0  0  0
   -4.0535   24.0719  -28.4895 H   0  0  0  0  0  0  0  0  0  0  0  0
   -4.7671   22.4234  -28.4895 H   0  0  0  0  0  0  0  0  0  0  0  0
   -3.0490   25.2960  -30.2740 H   0  0  0  0  0  0  0  0  0  0  0  0
   -7.9986   24.5517  -30.3204 H   0  0  0  0  0  0  0  0  0  0  0  0
   -9.6508   22.3701  -31.1398 H   0  0  0  0  0  0  0  0  0  0  0  0
   -9.5786   20.0826  -32.1790 H   0  0  0  0  0  0  0  0  0  0  0  0
   -8.3392   18.6630  -33.3558 H   0  0  0  0  0  0  0  0  0  0  0  0
   -5.7685   18.0175  -31.4920 H   0  0  0  0  0  0  0  0  0  0  0  0
   -6.3862   16.6912  -32.0201 H   0  0  0  0  0  0  0  0  0  0  0  0
   -5.1620   19.1056  -33.8012 H   0  0  0  0  0  0  0  0  0  0  0  0
   -5.6745   17.9682  -34.7306 H   0  0  0  0  0  0  0  0  0  0  0  0
   -5.2445   20.4008  -32.5580 H   0  0  0  0  0  0  0  0  0  0  0  0
  1  2  1  0
  2  3  1  0
  2  4  1  0
  2  5  1  0
  5  6  1  0
  6  7  2  0
  6  8  1  0
  8  9  1  0
  9 10  1  0
 10 11  1  0
 10 12  2  0
  9 13  2  0
 13 14  1  0
 14 15  2  0
 15 16  1  0
 16 17  2  0
 17 18  1  0
 18 19  1  0
 19 20  1  0
 17 21  1  0
 21 22  2  0
 22  8  1  0
 22 14  1  0
 20 18  1  0
  1 23  1  0
  1 24  1  0
  1 25  1  0
  3 26  1  0
  3 27  1  0
  3 28  1  0
  4 29  1  0
  4 30  1  0
  4 31  1  0
 11 32  1  0
 13 33  1  0
 15 34  1  0
 16 35  1  0
 18 36  1  0
 19 37  1  0
 19 38  1  0
 20 39  1  0
 20 40  1  0
 21 41  1  0
M  CHG  1  11  -1
M  END
>  <UniqueID>  (88) 
87

>  <SMILES>  (88) 
CC(C)(C)OC(=O)n1c(C([NH-])=O)cc2ccc(C3CC3)cc21

>  <Energy>  (88) 
343.85491213639665

>  <Genealogy>  (88) 
CC(C)(C)OC(=O)n1c(C([NH-])=O)cc2ccc(C3CC3)cc21 (protonated)
CC(C)(C)OC(=O)n1c(C([NH-])=O)cc2ccc(C3CC3)cc21 (3D coordinates assigned)
CC(C)(C)OC(=O)n1c(C([NH-])=O)cc2ccc(C3CC3)cc21 (nonaromatic ring conformer: 343.85491213639665 kcal/mol)

>  <smiles>  (88) 
CC(C)(C)OC(=O)n1c(C(N)=O)cc2ccc(C3CC3)cc21

>  <score_type>  (88) 
oracle

>  <origin>  (88) 
adg

>  <m_score__min__energy>  (88) 
-10.92

>  <m_primary>  (88) 
energy

$$$$
89:0
     RDKit          3D

 45 48  0  0  0  0  0  0  0  0999 V2000
   -2.1520   25.6080  -26.3440 C   0  0  0  0  0  0  0  0  0  0  0  0
   -1.1070   26.3760  -27.1060 C   0  0  0  0  0  0  0  0  0  0  0  0
   -0.6000   25.4980  -28.0930 O   0  0  0  0  0  0  0  0  0  0  0  0
    0.1390   24.3530  -27.7340 C   0  0  0  0  0  0  0  0  0  0  0  0
    1.3810   24.4890  -27.8290 O   0  0  0  0  0  0  0  0  0  0  0  0
   -0.5300   23.1800  -27.3130 N   0  0  0  0  0  0  0  0  0  0  0  0
   -0.5270   22.6570  -26.0790 C   0  0  0  0  0  0  0  0  0  0  0  0
    0.1150   23.0900  -24.8590 C   0  0  0  0  0  0  0  0  0  0  0  0
    0.7340   24.3920  -24.8140 N   0  0  0  0  0  0  0  0  0  0  0  0
    0.1950   22.4350  -23.7950 O   0  0  0  0  0  0  0  0  0  0  0  0
   -1.3220   21.5050  -26.1480 C   0  0  0  0  0  0  0  0  0  0  0  0
   -1.7910   21.3500  -27.4100 C   0  0  0  0  0  0  0  0  0  0  0  0
   -2.6070   20.3760  -27.9680 C   0  0  0  0  0  0  0  0  0  0  0  0
   -2.9400   20.4510  -29.3020 C   0  0  0  0  0  0  0  0  0  0  0  0
   -2.4580   21.4940  -30.0630 C   0  0  0  0  0  0  0  0  0  0  0  0
   -2.7960   21.5980  -31.4840 C   0  0  0  0  0  0  0  0  0  0  0  0
   -2.1570   20.9670  -32.5520 C   0  0  0  0  0  0  0  0  0  0  0  0
   -2.8410   21.3810  -33.6400 N   0  0  0  0  0  0  0  0  0  0  0  0
   -3.8220   22.1940  -33.3170 N   0  0  0  0  0  0  0  0  0  0  0  0
   -3.8350   22.3620  -31.9730 C   0  0  0  0  0  0  0  0  0  0  0  0
   -4.7500   23.1790  -31.1830 C   0  0  0  0  0  0  0  0  0  0  0  0
   -4.3170   24.4250  -30.8630 N   0  0  0  0  0  0  0  0  0  0  0  0
   -5.0630   25.2820  -30.1370 C   0  0  0  0  0  0  0  0  0  0  0  0
   -6.3160   24.8830  -29.7000 C   0  0  0  0  0  0  0  0  0  0  0  0
   -7.0900   25.7200  -28.9680 F   0  0  0  0  0  0  0  0  0  0  0  0
   -6.7510   23.6100  -30.0290 C   0  0  0  0  0  0  0  0  0  0  0  0
   -5.9920   22.7330  -30.7710 C   0  0  0  0  0  0  0  0  0  0  0  0
   -6.4000   21.4840  -31.1030 F   0  0  0  0  0  0  0  0  0  0  0  0
   -1.6380   22.4600  -29.4730 C   0  0  0  0  0  0  0  0  0  0  0  0
   -1.2880   22.4090  -28.1410 C   0  0  0  0  0  0  0  0  0  0  0  0
   -1.9834   25.7319  -25.2641 H   0  0  0  0  0  0  0  0  0  0  0  0
   -3.1503   25.9889  -26.6053 H   0  0  0  0  0  0  0  0  0  0  0  0
   -2.0865   24.5415  -26.6053 H   0  0  0  0  0  0  0  0  0  0  0  0
   -1.5566   27.2610  -27.5800 H   0  0  0  0  0  0  0  0  0  0  0  0
   -0.3065   26.7268  -26.4380 H   0  0  0  0  0  0  0  0  0  0  0  0
    0.8740   24.9110  -23.9210 H   0  0  0  0  0  0  0  0  0  0  0  0
    1.0540   24.8390  -25.6980 H   0  0  0  0  0  0  0  0  0  0  0  0
   -1.5332   20.8294  -25.3060 H   0  0  0  0  0  0  0  0  0  0  0  0
   -2.9853   19.5494  -27.3486 H   0  0  0  0  0  0  0  0  0  0  0  0
   -3.5853   19.6848  -29.7565 H   0  0  0  0  0  0  0  0  0  0  0  0
   -1.2929   20.2872  -32.5158 H   0  0  0  0  0  0  0  0  0  0  0  0
   -4.5170   22.6720  -33.9460 H   0  0  0  0  0  0  0  0  0  0  0  0
   -4.6818   26.2850  -29.8947 H   0  0  0  0  0  0  0  0  0  0  0  0
   -7.7438   23.2862  -29.6833 H   0  0  0  0  0  0  0  0  0  0  0  0
   -1.2600   23.2873  -30.0916 H   0  0  0  0  0  0  0  0  0  0  0  0
  1  2  1  0
  2  3  1  0
  3  4  1  0
  4  5  2  0
  4  6  1  0
  6  7  1  0
  7  8  1  0
  8  9  1  0
  8 10  2  0
  7 11  2  0
 11 12  1  0
 12 13  2  0
 13 14  1  0
 14 15  2  0
 15 16  1  0
 16 17  1  0
 17 18  2  0
 18 19  1  0
 19 20  1  0
 20 21  1  0
 21 22  2  0
 22 23  1  0
 23 24  2  0
 24 25  1  0
 24 26  1  0
 26 27  2  0
 27 28  1  0
 15 29  1  0
 29 30  2  0
 30  6  1  0
 30 12  1  0
 20 16  2  0
 27 21  1  0
  1 31  1  0
  1 32  1  0
  1 33  1  0
  2 34  1  0
  2 35  1  0
  9 36  1  0
  9 37  1  0
 11 38  1  0
 13 39  1  0
 14 40  1  0
 17 41  1  0
 19 42  1  0
 23 43  1  0
 26 44  1  0
 29 45  1  0
M  END
>  <smiles>  (89) 
CCOC(=O)n1c(C(N)=O)cc2ccc(-c3cn[nH]c3-c3ncc(F)cc3F)cc21

>  <score_type>  (89) 
oracle

>  <origin>  (89) 
adg

>  <m_score__min__energy>  (89) 
-8.75

>  <m_primary>  (89) 
energy

$$$$
90:0
     RDKit          3D

 57 60  0  0  0  0  0  0  0  0999 V2000
   -3.8560   25.3030  -30.3810 N   0  0  0  0  0  0  0  0  0  0  0  0
   -4.0750   24.4830  -29.2360 C   0  0  0  0  0  0  0  0  0  0  0  0
   -4.9780   24.8000  -28.4130 O   0  0  0  0  0  0  0  0  0  0  0  0
   -3.2200   23.3090  -28.9660 C   0  0  0  0  0  0  0  0  0  0  0  0
   -3.7270   22.0290  -28.7560 C   0  0  0  0  0  0  0  0  0  0  0  0
   -2.6380   21.2510  -28.4390 C   0  0  0  0  0  0  0  0  0  0  0  0
   -2.5660   19.8960  -28.1320 C   0  0  0  0  0  0  0  0  0  0  0  0
   -1.3030   19.3500  -27.8530 C   0  0  0  0  0  0  0  0  0  0  0  0
   -0.1390   20.1600  -27.8990 C   0  0  0  0  0  0  0  0  0  0  0  0
    1.2040   19.5690  -27.5570 C   0  0  0  0  0  0  0  0  0  0  0  0
    1.9340   19.0450  -28.8030 C   0  0  0  0  0  0  0  0  0  0  0  0
    0.9690   18.4800  -29.8570 C   0  0  0  0  0  0  0  0  0  0  0  0
    0.9090   19.4060  -31.0890 C   0  0  0  0  0  0  0  0  0  0  0  0
   -0.4450   19.9080  -31.4170 N   0  0  0  0  0  0  0  0  0  0  0  0
   -1.1210   19.1260  -32.4560 C   0  0  0  0  0  0  0  0  0  0  0  0
   -2.6150   19.4540  -32.4560 C   0  0  0  0  0  0  0  0  0  0  0  0
   -2.9300   20.8820  -32.2130 N   0  0  0  0  0  0  0  0  0  0  0  0
   -4.3290   21.3100  -32.2610 C   0  0  0  0  0  0  0  0  0  0  0  0
   -4.6970   22.6570  -32.0160 C   0  0  0  0  0  0  0  0  0  0  0  0
   -6.0350   23.0580  -32.0540 C   0  0  0  0  0  0  0  0  0  0  0  0
   -7.0390   22.1330  -32.3330 C   0  0  0  0  0  0  0  0  0  0  0  0
   -6.7090   20.8030  -32.5740 C   0  0  0  0  0  0  0  0  0  0  0  0
   -5.3720   20.3900  -32.5380 C   0  0  0  0  0  0  0  0  0  0  0  0
   -1.9000   21.8530  -31.7710 C   0  0  0  0  0  0  0  0  0  0  0  0
   -0.4640   21.3220  -31.8030 C   0  0  0  0  0  0  0  0  0  0  0  0
   -0.2520   21.5330  -28.2170 C   0  0  0  0  0  0  0  0  0  0  0  0
   -1.5260   22.0540  -28.4690 C   0  0  0  0  0  0  0  0  0  0  0  0
   -1.8660   23.3220  -28.7960 N   0  0  0  0  0  0  0  0  0  0  0  0
   -0.9640   24.4190  -29.0190 C   0  0  0  0  0  0  0  0  0  0  0  0
    0.2830   24.2450  -28.9530 O   0  0  0  0  0  0  0  0  0  0  0  0
   -1.4550   25.6790  -29.3400 O   0  0  0  0  0  0  0  0  0  0  0  0
   -2.9240   25.3270  -30.8530 H   0  0  0  0  0  0  0  0  0  0  0  0
   -4.7766   21.7080  -28.8284 H   0  0  0  0  0  0  0  0  0  0  0  0
   -3.4711   19.2714  -28.1086 H   0  0  0  0  0  0  0  0  0  0  0  0
   -1.2150   18.2840  -27.5963 H   0  0  0  0  0  0  0  0  0  0  0  0
    1.8231   20.3443  -27.0820 H   0  0  0  0  0  0  0  0  0  0  0  0
    1.0395   18.7205  -26.8766 H   0  0  0  0  0  0  0  0  0  0  0  0
    2.5024   19.8724  -29.2528 H   0  0  0  0  0  0  0  0  0  0  0  0
    2.5955   18.2265  -28.4830 H   0  0  0  0  0  0  0  0  0  0  0  0
    1.3173   17.4845  -30.1695 H   0  0  0  0  0  0  0  0  0  0  0  0
   -0.0364   18.4100  -29.4163 H   0  0  0  0  0  0  0  0  0  0  0  0
    1.5596   20.2724  -30.8991 H   0  0  0  0  0  0  0  0  0  0  0  0
    1.2347   18.8025  -31.9490 H   0  0  0  0  0  0  0  0  0  0  0  0
   -0.6919   19.3741  -33.4380 H   0  0  0  0  0  0  0  0  0  0  0  0
   -0.9828   18.0537  -32.2535 H   0  0  0  0  0  0  0  0  0  0  0  0
   -3.0287   19.1726  -33.4356 H   0  0  0  0  0  0  0  0  0  0  0  0
   -3.0597   18.8891  -31.6235 H   0  0  0  0  0  0  0  0  0  0  0  0
   -3.9162   23.3988  -31.7923 H   0  0  0  0  0  0  0  0  0  0  0  0
   -6.2970   24.1091  -31.8627 H   0  0  0  0  0  0  0  0  0  0  0  0
   -8.0908   22.4537  -32.3627 H   0  0  0  0  0  0  0  0  0  0  0  0
   -7.5020   20.0730  -32.7937 H   0  0  0  0  0  0  0  0  0  0  0  0
   -5.1264   19.3347  -32.7277 H   0  0  0  0  0  0  0  0  0  0  0  0
   -1.9545   22.7333  -32.4284 H   0  0  0  0  0  0  0  0  0  0  0  0
   -2.1223   22.0841  -30.7188 H   0  0  0  0  0  0  0  0  0  0  0  0
   -0.0589   21.4276  -32.8202 H   0  0  0  0  0  0  0  0  0  0  0  0
    0.1505   21.8983  -31.0957 H   0  0  0  0  0  0  0  0  0  0  0  0
    0.6394   22.1757  -28.2651 H   0  0  0  0  0  0  0  0  0  0  0  0
  1  2  1  0
  2  3  2  0
  2  4  1  0
  4  5  2  0
  5  6  1  0
  6  7  2  0
  7  8  1  0
  8  9  2  0
  9 10  1  0
 10 11  1  0
 11 12  1  0
 12 13  1  0
 13 14  1  0
 14 15  1  0
 15 16  1  0
 16 17  1  0
 17 18  1  0
 18 19  2  0
 19 20  1  0
 20 21  2  0
 21 22  1  0
 22 23  2  0
 17 24  1  0
 24 25  1  0
  9 26  1  0
 26 27  2  0
 27 28  1  0
 28 29  1  0
 29 30  2  0
 29 31  1  0
 28  4  1  0
 27  6  1  0
 25 14  1  0
 23 18  1  0
  1 32  1  0
  5 33  1  0
  7 34  1  0
  8 35  1  0
 10 36  1  0
 10 37  1  0
 11 38  1  0
 11 39  1  0
 12 40  1  0
 12 41  1  0
 13 42  1  0
 13 43  1  0
 15 44  1  0
 15 45  1  0
 16 46  1  0
 16 47  1  0
 19 48  1  0
 20 49  1  0
 21 50  1  0
 22 51  1  0
 23 52  1  0
 24 53  1  0
 24 54  1  0
 25 55  1  0
 25 56  1  0
 26 57  1  0
M  CHG  2   1  -1  31  -1
M  END
>  <UniqueID>  (90) 
88

>  <SMILES>  (90) 
[NH-]C(=O)c1cc2ccc(CCCCN3CCN(c4ccccc4)CC3)cc2n1C(=O)[O-]

>  <Energy>  (90) 
105.29016717092642

>  <Genealogy>  (90) 
[NH-]C(=O)c1cc2ccc(CCCCN3CCN(c4ccccc4)CC3)cc2n1C(=O)[O-] (protonated)
[NH-]C(=O)c1cc2ccc(CCCCN3CCN(c4ccccc4)CC3)cc2n1C(=O)[O-] (3D coordinates assigned)
[NH-]C(=O)c1cc2ccc(CCCCN3CCN(c4ccccc4)CC3)cc2n1C(=O)[O-] (nonaromatic ring conformer: 105.29016717092642 kcal/mol)

>  <smiles>  (90) 
NC(=O)c1cc2ccc(CCCCN3CCN(c4ccccc4)CC3)cc2n1C(=O)O

>  <score_type>  (90) 
oracle

>  <origin>  (90) 
adg

>  <m_score__min__energy>  (90) 
-13.58

>  <m_primary>  (90) 
energy

$$$$
91:0
     RDKit          3D

 38 40  0  0  0  0  0  0  0  0999 V2000
   -3.1910   23.5580  -30.8010 N   0  0  0  0  0  0  0  0  0  0  0  0
   -4.0640   22.8260  -31.6580 C   0  0  0  0  0  0  0  0  0  0  0  0
   -3.5760   22.0790  -32.5480 O   0  0  0  0  0  0  0  0  0  0  0  0
   -5.4900   22.9270  -31.5020 N   0  0  0  0  0  0  0  0  0  0  0  0
   -6.1820   23.8990  -30.8460 C   0  0  0  0  0  0  0  0  0  0  0  0
   -5.6110   25.1440  -30.2900 C   0  0  0  0  0  0  0  0  0  0  0  0
   -6.1380   25.7330  -29.1000 N   0  0  0  0  0  0  0  0  0  0  0  0
   -4.6070   25.6640  -30.8440 O   0  0  0  0  0  0  0  0  0  0  0  0
   -7.5380   23.5900  -30.7940 C   0  0  0  0  0  0  0  0  0  0  0  0
   -7.6600   22.3900  -31.4560 C   0  0  0  0  0  0  0  0  0  0  0  0
   -8.7870   21.6070  -31.6810 C   0  0  0  0  0  0  0  0  0  0  0  0
   -8.6170   20.3860  -32.3530 C   0  0  0  0  0  0  0  0  0  0  0  0
   -7.3340   19.9630  -32.7880 C   0  0  0  0  0  0  0  0  0  0  0  0
   -7.1930   18.5980  -33.4520 C   0  0  0  0  0  0  0  0  0  0  0  0
   -7.1360   17.4750  -32.4010 C   0  0  0  0  0  0  0  0  0  0  0  0
   -5.7610   17.3660  -31.7060 C   0  0  0  0  0  0  0  0  0  0  0  0
   -4.6330   17.8110  -32.5460 N   0  0  0  0  0  0  0  0  0  0  0  0
   -4.8790   17.5960  -33.9750 C   0  0  0  0  0  0  0  0  0  0  0  0
   -6.0150   18.5100  -34.4630 C   0  0  0  0  0  0  0  0  0  0  0  0
   -6.2100   20.7850  -32.5200 C   0  0  0  0  0  0  0  0  0  0  0  0
   -6.4110   22.0080  -31.8720 C   0  0  0  0  0  0  0  0  0  0  0  0
   -3.0770   24.5910  -30.9070 H   0  0  0  0  0  0  0  0  0  0  0  0
   -5.7490   26.6360  -28.7470 H   0  0  0  0  0  0  0  0  0  0  0  0
   -6.8500   25.2370  -28.5220 H   0  0  0  0  0  0  0  0  0  0  0  0
   -8.3399   24.1787  -30.3245 H   0  0  0  0  0  0  0  0  0  0  0  0
   -9.7813   21.9342  -31.3428 H   0  0  0  0  0  0  0  0  0  0  0  0
   -9.4917   19.7474  -32.5453 H   0  0  0  0  0  0  0  0  0  0  0  0
   -8.1007   18.4569  -34.0572 H   0  0  0  0  0  0  0  0  0  0  0  0
   -7.9007   17.6727  -31.6354 H   0  0  0  0  0  0  0  0  0  0  0  0
   -7.3150   16.5249  -32.9256 H   0  0  0  0  0  0  0  0  0  0  0  0
   -5.7818   17.9849  -30.7968 H   0  0  0  0  0  0  0  0  0  0  0  0
   -5.5964   16.3008  -31.4862 H   0  0  0  0  0  0  0  0  0  0  0  0
   -3.7820   17.2650  -32.2750 H   0  0  0  0  0  0  0  0  0  0  0  0
   -3.9625   17.8229  -34.5394 H   0  0  0  0  0  0  0  0  0  0  0  0
   -5.1692   16.5471  -34.1348 H   0  0  0  0  0  0  0  0  0  0  0  0
   -5.6102   19.5207  -34.6201 H   0  0  0  0  0  0  0  0  0  0  0  0
   -6.4096   18.0795  -35.3952 H   0  0  0  0  0  0  0  0  0  0  0  0
   -5.1995   20.4669  -32.8161 H   0  0  0  0  0  0  0  0  0  0  0  0
  1  2  1  0
  2  3  2  0
  2  4  1  0
  4  5  1  0
  5  6  1  0
  6  7  1  0
  6  8  2  0
  5  9  2  0
  9 10  1  0
 10 11  2  0
 11 12  1  0
 12 13  2  0
 13 14  1  0
 14 15  1  0
 15 16  1  0
 16 17  1  0
 17 18  1  0
 18 19  1  0
 13 20  1  0
 20 21  2  0
 21  4  1  0
 21 10  1  0
 19 14  1  0
  1 22  1  0
  7 23  1  0
  7 24  1  0
  9 25  1  0
 11 26  1  0
 12 27  1  0
 14 28  1  0
 15 29  1  0
 15 30  1  0
 16 31  1  0
 16 32  1  0
 17 33  1  0
 18 34  1  0
 18 35  1  0
 19 36  1  0
 19 37  1  0
 20 38  1  0
M  CHG  1   1  -1
M  END
>  <UniqueID>  (91) 
89

>  <SMILES>  (91) 
[NH-]C(=O)n1c(C(N)=O)cc2ccc(C3CCNCC3)cc21

>  <Energy>  (91) 
86.16617965850659

>  <Genealogy>  (91) 
[NH-]C(=O)n1c(C(N)=O)cc2ccc(C3CCNCC3)cc21 (protonated)
[NH-]C(=O)n1c(C(N)=O)cc2ccc(C3CCNCC3)cc21 (3D coordinates assigned)
[NH-]C(=O)n1c(C(N)=O)cc2ccc(C3CCNCC3)cc21 (nonaromatic ring conformer: 86.16617965850659 kcal/mol)

>  <smiles>  (91) 
NC(=O)c1cc2ccc(C3CCNCC3)cc2n1C(N)=O

>  <score_type>  (91) 
oracle

>  <origin>  (91) 
adg

>  <m_score__min__energy>  (91) 
-9.8399999999999999

>  <m_primary>  (91) 
energy

$$$$
92:0
     RDKit          3D

 44 46  0  0  0  0  0  0  0  0999 V2000
   -1.4760   21.2810  -32.2650 C   0  0  0  0  0  0  0  0  0  0  0  0
   -2.0550   20.4840  -33.7990 S   0  0  0  0  0  0  0  0  0  0  0  0
   -2.8320   19.0480  -32.9810 C   0  0  0  0  0  0  0  0  0  0  0  0
   -3.9550   18.5160  -33.8200 C   0  0  0  0  0  0  0  0  0  0  0  0
   -3.6990   17.9930  -34.9370 O   0  0  0  0  0  0  0  0  0  0  0  0
   -5.3200   18.6570  -33.3970 N   0  0  0  0  0  0  0  0  0  0  0  0
   -6.3080   17.7190  -33.4200 C   0  0  0  0  0  0  0  0  0  0  0  0
   -6.1980   16.3780  -34.0400 C   0  0  0  0  0  0  0  0  0  0  0  0
   -4.9370   15.7120  -34.1270 N   0  0  0  0  0  0  0  0  0  0  0  0
   -7.2280   15.8010  -34.4800 O   0  0  0  0  0  0  0  0  0  0  0  0
   -7.4770   18.2300  -32.8590 C   0  0  0  0  0  0  0  0  0  0  0  0
   -7.1710   19.5220  -32.4920 C   0  0  0  0  0  0  0  0  0  0  0  0
   -7.9560   20.4910  -31.8770 C   0  0  0  0  0  0  0  0  0  0  0  0
   -7.3670   21.7340  -31.5900 C   0  0  0  0  0  0  0  0  0  0  0  0
   -6.0080   21.9870  -31.9180 C   0  0  0  0  0  0  0  0  0  0  0  0
   -5.3870   23.3290  -31.5770 C   0  0  0  0  0  0  0  0  0  0  0  0
   -4.0040   23.1630  -30.9060 C   0  0  0  0  0  0  0  0  0  0  0  0
   -3.6020   24.4080  -30.0910 C   0  0  0  0  0  0  0  0  0  0  0  0
   -4.2500   25.6090  -30.6280 N   0  0  0  0  0  0  0  0  0  0  0  0
   -5.7090   25.5710  -30.4120 C   0  0  0  0  0  0  0  0  0  0  0  0
   -6.3230   24.1820  -30.7040 C   0  0  0  0  0  0  0  0  0  0  0  0
   -5.2480   20.9760  -32.5530 C   0  0  0  0  0  0  0  0  0  0  0  0
   -5.8650   19.7540  -32.8320 C   0  0  0  0  0  0  0  0  0  0  0  0
   -1.8724   20.7353  -31.3961 H   0  0  0  0  0  0  0  0  0  0  0  0
   -0.3765   21.2664  -32.2367 H   0  0  0  0  0  0  0  0  0  0  0  0
   -1.8297   22.3222  -32.2367 H   0  0  0  0  0  0  0  0  0  0  0  0
   -2.0786   18.2589  -32.8405 H   0  0  0  0  0  0  0  0  0  0  0  0
   -3.2323   19.3646  -32.0065 H   0  0  0  0  0  0  0  0  0  0  0  0
   -4.0530   16.1800  -33.8310 H   0  0  0  0  0  0  0  0  0  0  0  0
   -4.8810   14.7520  -34.5330 H   0  0  0  0  0  0  0  0  0  0  0  0
   -8.4394   17.7118  -32.7355 H   0  0  0  0  0  0  0  0  0  0  0  0
   -9.0072   20.2904  -31.6226 H   0  0  0  0  0  0  0  0  0  0  0  0
   -7.9649   22.5202  -31.1058 H   0  0  0  0  0  0  0  0  0  0  0  0
   -5.2363   23.8633  -32.5266 H   0  0  0  0  0  0  0  0  0  0  0  0
   -4.0385   22.2940  -30.2324 H   0  0  0  0  0  0  0  0  0  0  0  0
   -3.2565   23.0224  -31.7007 H   0  0  0  0  0  0  0  0  0  0  0  0
   -3.9093   24.2692  -29.0440 H   0  0  0  0  0  0  0  0  0  0  0  0
   -2.5113   24.5357  -30.1542 H   0  0  0  0  0  0  0  0  0  0  0  0
   -3.8690   26.4410  -30.1180 H   0  0  0  0  0  0  0  0  0  0  0  0
   -5.9159   25.8332  -29.3639 H   0  0  0  0  0  0  0  0  0  0  0  0
   -6.1656   26.2879  -31.1103 H   0  0  0  0  0  0  0  0  0  0  0  0
   -6.4985   23.6605  -29.7515 H   0  0  0  0  0  0  0  0  0  0  0  0
   -7.2679   24.3277  -31.2481 H   0  0  0  0  0  0  0  0  0  0  0  0
   -4.1951   21.1485  -32.8209 H   0  0  0  0  0  0  0  0  0  0  0  0
  1  2  1  0
  2  3  1  0
  3  4  1  0
  4  5  2  0
  4  6  1  0
  6  7  1  0
  7  8  1  0
  8  9  1  0
  8 10  2  0
  7 11  2  0
 11 12  1  0
 12 13  2  0
 13 14  1  0
 14 15  2  0
 15 16  1  0
 16 17  1  0
 17 18  1  0
 18 19  1  0
 19 20  1  0
 20 21  1  0
 15 22  1  0
 22 23  2  0
 23  6  1  0
 23 12  1  0
 21 16  1  0
  1 24  1  0
  1 25  1  0
  1 26  1  0
  3 27  1  0
  3 28  1  0
  9 29  1  0
  9 30  1  0
 11 31  1  0
 13 32  1  0
 14 33  1  0
 16 34  1  0
 17 35  1  0
 17 36  1  0
 18 37  1  0
 18 38  1  0
 19 39  1  0
 20 40  1  0
 20 41  1  0
 21 42  1  0
 21 43  1  0
 22 44  1  0
M  END
>  <UniqueID>  (92) 
90

>  <SMILES>  (92) 
CSCC(=O)n1c(C(N)=O)cc2ccc(C3CCNCC3)cc21

>  <Energy>  (92) 
83.54160627992019

>  <Genealogy>  (92) 
CSCC(=O)n1c(C(N)=O)cc2ccc(C3CCNCC3)cc21 (3D coordinates assigned)
CSCC(=O)n1c(C(N)=O)cc2ccc(C3CCNCC3)cc21 (nonaromatic ring conformer: 83.54160627992019 kcal/mol)

>  <smiles>  (92) 
CSCC(=O)n1c(C(N)=O)cc2ccc(C3CCNCC3)cc21

>  <score_type>  (92) 
oracle

>  <origin>  (92) 
adg

>  <m_score__min__energy>  (92) 
-9.7699999999999996

>  <m_primary>  (92) 
energy

$$$$
93:0
     RDKit          3D

 44 46  0  0  0  0  0  0  0  0999 V2000
   -8.5060   22.8580  -31.9880 C   0  0  0  0  0  0  0  0  0  0  0  0
   -8.5540   21.5220  -31.3750 N   0  0  0  0  0  0  0  0  0  0  0  0
   -9.4330   20.6120  -32.1320 C   0  0  0  0  0  0  0  0  0  0  0  0
   -9.0530   19.1540  -31.8680 C   0  0  0  0  0  0  0  0  0  0  0  0
   -7.7670   18.8460  -32.3720 O   0  0  0  0  0  0  0  0  0  0  0  0
   -6.7820   19.8470  -32.1180 C   0  0  1  0  0  0  0  0  0  0  0  0
   -6.2850   20.4380  -33.4540 C   0  0  0  0  0  0  0  0  0  0  0  0
   -4.8750   19.9610  -33.8410 C   0  0  0  0  0  0  0  0  0  0  0  0
   -3.8180   20.5010  -32.9120 C   0  0  0  0  0  0  0  0  0  0  0  0
   -2.5730   19.8360  -32.7940 C   0  0  0  0  0  0  0  0  0  0  0  0
   -1.5640   20.3510  -31.9640 C   0  0  0  0  0  0  0  0  0  0  0  0
   -1.8290   21.5260  -31.2660 C   0  0  0  0  0  0  0  0  0  0  0  0
   -1.0220   22.2530  -30.4220 C   0  0  0  0  0  0  0  0  0  0  0  0
   -1.7910   23.3440  -30.0220 C   0  0  0  0  0  0  0  0  0  0  0  0
   -1.3440   24.3490  -29.0330 C   0  0  0  0  0  0  0  0  0  0  0  0
   -2.2560   25.3190  -28.5140 N   0  0  0  0  0  0  0  0  0  0  0  0
   -0.1410   24.3810  -28.6630 O   0  0  0  0  0  0  0  0  0  0  0  0
   -3.0270   23.2940  -30.5990 N   0  0  0  0  0  0  0  0  0  0  0  0
   -4.0850   24.2610  -30.4910 C   0  0  0  0  0  0  0  0  0  0  0  0
   -5.2240   23.9160  -30.0770 O   0  0  0  0  0  0  0  0  0  0  0  0
   -3.8590   25.5900  -30.8270 O   0  0  0  0  0  0  0  0  0  0  0  0
   -3.0330   22.1750  -31.3570 C   0  0  0  0  0  0  0  0  0  0  0  0
   -4.0510   21.6930  -32.1890 C   0  0  0  0  0  0  0  0  0  0  0  0
   -7.2030   20.9670  -31.1200 C   0  0  0  0  0  0  0  0  0  0  0  0
   -8.4785   23.6231  -31.1981 H   0  0  0  0  0  0  0  0  0  0  0  0
   -7.6042   22.9428  -32.6122 H   0  0  0  0  0  0  0  0  0  0  0  0
   -9.3994   23.0073  -32.6122 H   0  0  0  0  0  0  0  0  0  0  0  0
  -10.4757   20.7757  -31.8223 H   0  0  0  0  0  0  0  0  0  0  0  0
   -9.3183   20.8197  -33.2061 H   0  0  0  0  0  0  0  0  0  0  0  0
   -9.0623   18.9746  -30.7828 H   0  0  0  0  0  0  0  0  0  0  0  0
   -9.7840   18.5121  -32.3814 H   0  0  0  0  0  0  0  0  0  0  0  0
   -5.9604   19.3316  -31.5990 H   0  0  0  0  0  0  0  0  0  0  0  0
   -6.9848   20.1414  -34.2492 H   0  0  0  0  0  0  0  0  0  0  0  0
   -6.2380   21.5300  -33.3307 H   0  0  0  0  0  0  0  0  0  0  0  0
   -4.8503   18.8619  -33.8054 H   0  0  0  0  0  0  0  0  0  0  0  0
   -4.6579   20.3329  -34.8532 H   0  0  0  0  0  0  0  0  0  0  0  0
   -2.3949   18.9081  -33.3573 H   0  0  0  0  0  0  0  0  0  0  0  0
   -0.5938   19.8415  -31.8683 H   0  0  0  0  0  0  0  0  0  0  0  0
    0.0118   22.0220  -30.1255 H   0  0  0  0  0  0  0  0  0  0  0  0
   -1.9210   26.0490  -27.8470 H   0  0  0  0  0  0  0  0  0  0  0  0
   -3.2720   25.2920  -28.7540 H   0  0  0  0  0  0  0  0  0  0  0  0
   -5.0078   22.2285  -32.2777 H   0  0  0  0  0  0  0  0  0  0  0  0
   -7.1868   20.5486  -30.1028 H   0  0  0  0  0  0  0  0  0  0  0  0
   -6.4888   21.7937  -31.2480 H   0  0  0  0  0  0  0  0  0  0  0  0
  1  2  1  0
  2  3  1  0
  3  4  1  0
  4  5  1  0
  5  6  1  0
  6  7  1  0
  7  8  1  0
  8  9  1  0
  9 10  2  0
 10 11  1  0
 11 12  2  0
 12 13  1  0
 13 14  2  0
 14 15  1  0
 15 16  1  0
 15 17  2  0
 14 18  1  0
 18 19  1  0
 19 20  2  0
 19 21  1  0
 18 22  1  0
 22 23  2  0
  6 24  1  0
 24  2  1  0
 23  9  1  0
 22 12  1  0
  1 25  1  0
  1 26  1  0
  1 27  1  0
  3 28  1  0
  3 29  1  0
  4 30  1  0
  4 31  1  0
  6 32  1  1
  7 33  1  0
  7 34  1  0
  8 35  1  0
  8 36  1  0
 10 37  1  0
 11 38  1  0
 13 39  1  0
 16 40  1  0
 16 41  1  0
 23 42  1  0
 24 43  1  0
 24 44  1  0
M  CHG  1  21  -1
M  END
>  <UniqueID>  (93) 
91

>  <SMILES>  (93) 
CN1CCO[C@@H](CCc2ccc3cc(C(N)=O)n(C(=O)[O-])c3c2)C1

>  <Energy>  (93) 
95.78687982159494

>  <Genealogy>  (93) 
CN1CCO[C@@H](CCc2ccc3cc(C(N)=O)n(C(=O)[O-])c3c2)C1 (protonated)
CN1CCO[C@@H](CCc2ccc3cc(C(N)=O)n(C(=O)[O-])c3c2)C1 (3D coordinates assigned)
CN1CCO[C@@H](CCc2ccc3cc(C(N)=O)n(C(=O)[O-])c3c2)C1 (nonaromatic ring conformer: 95.78687982159494 kcal/mol)

>  <smiles>  (93) 
CN1CCO[C@@H](CCc2ccc3cc(C(N)=O)n(C(=O)O)c3c2)C1

>  <score_type>  (93) 
oracle

>  <origin>  (93) 
adg

>  <m_score__min__energy>  (93) 
-9.5999999999999996

>  <m_primary>  (93) 
energy

$$$$
94:0
     RDKit          3D

 53 55  0  0  0  0  0  0  0  0999 V2000
   -3.2470   21.1280  -29.9870 C   0  0  0  0  0  0  0  0  0  0  0  0
   -1.9870   21.5500  -30.7670 C   0  0  0  0  0  0  0  0  0  0  0  0
   -1.0210   20.3570  -30.8300 C   0  0  0  0  0  0  0  0  0  0  0  0
   -1.2820   22.7260  -30.0660 C   0  0  0  0  0  0  0  0  0  0  0  0
   -2.3210   21.8940  -32.1190 O   0  0  0  0  0  0  0  0  0  0  0  0
   -3.5120   21.5730  -32.7900 C   0  0  0  0  0  0  0  0  0  0  0  0
   -4.3390   22.4700  -33.1030 O   0  0  0  0  0  0  0  0  0  0  0  0
   -3.7800   20.2040  -33.1350 N   0  0  0  0  0  0  0  0  0  0  0  0
   -2.9890   19.3630  -33.8590 C   0  0  0  0  0  0  0  0  0  0  0  0
   -1.6100   19.6550  -34.3080 C   0  0  0  0  0  0  0  0  0  0  0  0
   -1.1710   21.0030  -34.4890 N   0  0  0  0  0  0  0  0  0  0  0  0
   -0.8160   18.7120  -34.5660 O   0  0  0  0  0  0  0  0  0  0  0  0
   -3.6230   18.1360  -34.0450 C   0  0  0  0  0  0  0  0  0  0  0  0
   -4.8360   18.2520  -33.4050 C   0  0  0  0  0  0  0  0  0  0  0  0
   -5.8690   17.3270  -33.2720 C   0  0  0  0  0  0  0  0  0  0  0  0
   -7.0200   17.7220  -32.5720 C   0  0  0  0  0  0  0  0  0  0  0  0
   -7.1250   19.0300  -32.0370 C   0  0  0  0  0  0  0  0  0  0  0  0
   -8.3490   19.4340  -31.2610 C   0  0  0  0  0  0  0  0  0  0  0  0
   -9.1170   20.4590  -32.0310 C   0  0  0  0  0  0  0  0  0  0  0  0
   -9.7830   20.1100  -33.0430 O   0  0  0  0  0  0  0  0  0  0  0  0
   -9.0760   21.7960  -31.6170 O   0  0  0  0  0  0  0  0  0  0  0  0
   -7.9150   22.5020  -31.2710 C   0  0  0  0  0  0  0  0  0  0  0  0
   -7.3100   23.4280  -32.1390 C   0  0  0  0  0  0  0  0  0  0  0  0
   -6.1610   24.1200  -31.7440 C   0  0  0  0  0  0  0  0  0  0  0  0
   -5.6010   23.9070  -30.4730 C   0  0  0  0  0  0  0  0  0  0  0  0
   -4.3860   24.6400  -30.0580 C   0  0  0  0  0  0  0  0  0  0  0  0
   -3.7890   24.3400  -28.9900 O   0  0  0  0  0  0  0  0  0  0  0  0
   -3.8850   25.6730  -30.8420 O   0  0  0  0  0  0  0  0  0  0  0  0
   -6.2210   22.9940  -29.6010 C   0  0  0  0  0  0  0  0  0  0  0  0
   -7.3700   22.3040  -29.9970 C   0  0  0  0  0  0  0  0  0  0  0  0
   -6.0520   19.9380  -32.1820 C   0  0  0  0  0  0  0  0  0  0  0  0
   -4.9090   19.5090  -32.8660 C   0  0  0  0  0  0  0  0  0  0  0  0
   -3.0490   21.1943  -28.9070 H   0  0  0  0  0  0  0  0  0  0  0  0
   -4.0810   21.7959  -30.2486 H   0  0  0  0  0  0  0  0  0  0  0  0
   -3.5105   20.0926  -30.2486 H   0  0  0  0  0  0  0  0  0  0  0  0
   -0.7637   20.0392  -29.8088 H   0  0  0  0  0  0  0  0  0  0  0  0
   -1.5018   19.5236  -31.3631 H   0  0  0  0  0  0  0  0  0  0  0  0
   -0.1058   20.6540  -31.3631 H   0  0  0  0  0  0  0  0  0  0  0  0
   -1.3569   22.6011  -28.9757 H   0  0  0  0  0  0  0  0  0  0  0  0
   -0.2224   22.7467  -30.3608 H   0  0  0  0  0  0  0  0  0  0  0  0
   -1.7631   23.6703  -30.3608 H   0  0  0  0  0  0  0  0  0  0  0  0
   -0.2090   21.1970  -34.8420 H   0  0  0  0  0  0  0  0  0  0  0  0
   -1.7820   21.8100  -34.2360 H   0  0  0  0  0  0  0  0  0  0  0  0
   -3.2363   17.2609  -34.5878 H   0  0  0  0  0  0  0  0  0  0  0  0
   -5.7854   16.3181  -33.7022 H   0  0  0  0  0  0  0  0  0  0  0  0
   -7.8476   17.0099  -32.4376 H   0  0  0  0  0  0  0  0  0  0  0  0
   -8.9836   18.5513  -31.0932 H   0  0  0  0  0  0  0  0  0  0  0  0
   -8.0436   19.8583  -30.2932 H   0  0  0  0  0  0  0  0  0  0  0  0
   -7.7428   23.6090  -33.1339 H   0  0  0  0  0  0  0  0  0  0  0  0
   -5.6917   24.8369  -32.4338 H   0  0  0  0  0  0  0  0  0  0  0  0
   -5.7984   22.8218  -28.6001 H   0  0  0  0  0  0  0  0  0  0  0  0
   -7.8500   21.5995  -29.3018 H   0  0  0  0  0  0  0  0  0  0  0  0
   -6.1136   20.9553  -31.7681 H   0  0  0  0  0  0  0  0  0  0  0  0
  1  2  1  0
  2  3  1  0
  2  4  1  0
  2  5  1  0
  5  6  1  0
  6  7  2  0
  6  8  1  0
  8  9  1  0
  9 10  1  0
 10 11  1  0
 10 12  2  0
  9 13  2  0
 13 14  1  0
 14 15  2  0
 15 16  1  0
 16 17  2  0
 17 18  1  0
 18 19  1  0
 19 20  2  0
 19 21  1  0
 21 22  1  0
 22 23  2  0
 23 24  1  0
 24 25  2  0
 25 26  1  0
 26 27  2  0
 26 28  1  0
 25 29  1  0
 29 30  2  0
 17 31  1  0
 31 32  2  0
 32  8  1  0
 32 14  1  0
 30 22  1  0
  1 33  1  0
  1 34  1  0
  1 35  1  0
  3 36  1  0
  3 37  1  0
  3 38  1  0
  4 39  1  0
  4 40  1  0
  4 41  1  0
 11 42  1  0
 11 43  1  0
 13 44  1  0
 15 45  1  0
 16 46  1  0
 18 47  1  0
 18 48  1  0
 23 49  1  0
 24 50  1  0
 29 51  1  0
 30 52  1  0
 31 53  1  0
M  CHG  1  28  -1
M  END
>  <UniqueID>  (94) 
92

>  <SMILES>  (94) 
CC(C)(C)OC(=O)n1c(C(N)=O)cc2ccc(CC(=O)Oc3ccc(C(=O)[O-])cc3)cc21

>  <Energy>  (94) 
91.58107098450188

>  <Genealogy>  (94) 
CC(C)(C)OC(=O)n1c(C(N)=O)cc2ccc(CC(=O)Oc3ccc(C(=O)[O-])cc3)cc21 (protonated)
CC(C)(C)OC(=O)n1c(C(N)=O)cc2ccc(CC(=O)Oc3ccc(C(=O)[O-])cc3)cc21 (3D coordinates assigned)
CC(C)(C)OC(=O)n1c(C(N)=O)cc2ccc(CC(=O)Oc3ccc(C(=O)[O-])cc3)cc21 (optimized conformer: 91.58107098450188 kcal/mol)

>  <smiles>  (94) 
CC(C)(C)OC(=O)n1c(C(N)=O)cc2ccc(CC(=O)Oc3ccc(C(=O)O)cc3)cc21

>  <score_type>  (94) 
oracle

>  <origin>  (94) 
adg

>  <m_score__min__energy>  (94) 
-11.09

>  <m_primary>  (94) 
energy

$$$$
