0:0
     RDKit          3D

 26 27  0  0  0  0  0  0  0  0999 V2000
   -3.9020   25.6690  -30.8540 N   0  0  0  0  0  0  0  0  0  0  0  0
   -5.2160   25.2880  -30.4590 C   0  0  0  0  0  0  0  0  0  0  0  0
   -5.8950   26.0710  -29.7410 O   0  0  0  0  0  0  0  0  0  0  0  0
   -5.8070   24.0070  -30.9050 C   0  0  0  0  0  0  0  0  0  0  0  0
   -7.1770   23.8010  -31.0590 C   0  0  0  0  0  0  0  0  0  0  0  0
   -7.3010   22.5110  -31.5250 C   0  0  0  0  0  0  0  0  0  0  0  0
   -8.4410   21.7790  -31.8460 C   0  0  0  0  0  0  0  0  0  0  0  0
   -8.2710   20.4540  -32.2810 C   0  0  0  0  0  0  0  0  0  0  0  0
   -6.9770   19.8770  -32.3630 C   0  0  0  0  0  0  0  0  0  0  0  0
   -6.8060   18.4670  -32.8690 C   0  0  0  0  0  0  0  0  0  0  0  0
   -7.9840   17.7520  -32.7330 F   0  0  0  0  0  0  0  0  0  0  0  0
   -5.8170   17.8080  -32.1580 F   0  0  0  0  0  0  0  0  0  0  0  0
   -6.4520   18.5020  -34.2040 F   0  0  0  0  0  0  0  0  0  0  0  0
   -5.8430   20.6610  -32.0490 C   0  0  0  0  0  0  0  0  0  0  0  0
   -6.0420   21.9830  -31.6360 C   0  0  0  0  0  0  0  0  0  0  0  0
   -5.1140   22.8910  -31.2650 N   0  0  0  0  0  0  0  0  0  0  0  0
   -3.6980   22.6740  -31.1840 C   0  0  0  0  0  0  0  0  0  0  0  0
   -3.0520   23.1320  -30.2030 O   0  0  0  0  0  0  0  0  0  0  0  0
   -2.9880   21.9280  -32.2320 C   0  0  0  0  0  0  0  0  0  0  0  0
   -3.4460   21.8850  -33.4050 O   0  0  0  0  0  0  0  0  0  0  0  0
   -1.7950   21.2790  -31.9390 O   0  0  0  0  0  0  0  0  0  0  0  0
   -3.0620   25.2970  -30.3560 H   0  0  0  0  0  0  0  0  0  0  0  0
   -7.9866   24.5164  -30.8523 H   0  0  0  0  0  0  0  0  0  0  0  0
   -9.4434   22.2242  -31.7617 H   0  0  0  0  0  0  0  0  0  0  0  0
   -9.1512   19.8568  -32.5613 H   0  0  0  0  0  0  0  0  0  0  0  0
   -4.8290   20.2418  -32.1275 H   0  0  0  0  0  0  0  0  0  0  0  0
  1  2  1  0
  2  3  2  0
  2  4  1  0
  4  5  2  0
  5  6  1  0
  6  7  2  0
  7  8  1  0
  8  9  2  0
  9 10  1  0
 10 11  1  0
 10 12  1  0
 10 13  1  0
  9 14  1  0
 14 15  2  0
 15 16  1  0
 16 17  1  0
 17 18  2  0
 17 19  1  0
 19 20  2  0
 19 21  1  0
 16  4  1  0
 15  6  1  0
  1 22  1  0
  5 23  1  0
  7 24  1  0
  8 25  1  0
 14 26  1  0
M  CHG  2   1  -1  21  -1
M  END
>  <UniqueID>  (1) 
1

>  <SMILES>  (1) 
[NH-]C(=O)c1cc2ccc(C(F)(F)F)cc2n1C(=O)C(=O)[O-]

>  <Energy>  (1) 
66.74022542285532

>  <Genealogy>  (1) 
[NH-]C(=O)c1cc2ccc(C(F)(F)F)cc2n1C(=O)C(=O)[O-] (protonated)
[NH-]C(=O)c1cc2ccc(C(F)(F)F)cc2n1C(=O)C(=O)[O-] (3D coordinates assigned)
[NH-]C(=O)c1cc2ccc(C(F)(F)F)cc2n1C(=O)C(=O)[O-] (optimized conformer: 66.74022542285532 kcal/mol)

>  <smiles>  (1) 
NC(=O)c1cc2ccc(C(F)(F)F)cc2n1C(=O)C(=O)O

>  <score_type>  (1) 
oracle

>  <origin>  (1) 
adg

>  <m_score__min__energy>  (1) 
-9.6799999999999997

>  <m_primary>  (1) 
energy

$$$$
1:0
     RDKit          3D

 30 31  0  0  0  0  0  0  0  0999 V2000
   -2.6560   20.7850  -32.6680 C   0  0  0  0  0  0  0  0  0  0  0  0
   -3.2120   22.0920  -32.7100 O   0  0  0  0  0  0  0  0  0  0  0  0
   -3.7190   22.7330  -31.5750 C   0  0  0  0  0  0  0  0  0  0  0  0
   -2.9350   23.1540  -30.6800 O   0  0  0  0  0  0  0  0  0  0  0  0
   -5.1370   22.8910  -31.4170 N   0  0  0  0  0  0  0  0  0  0  0  0
   -5.8100   24.0040  -31.0080 C   0  0  0  0  0  0  0  0  0  0  0  0
   -5.2010   25.2370  -30.4660 C   0  0  0  0  0  0  0  0  0  0  0  0
   -3.8880   25.6360  -30.8490 N   0  0  0  0  0  0  0  0  0  0  0  0
   -5.8290   25.9210  -29.6140 O   0  0  0  0  0  0  0  0  0  0  0  0
   -7.1860   23.8000  -31.0850 C   0  0  0  0  0  0  0  0  0  0  0  0
   -7.3380   22.5160  -31.5510 C   0  0  0  0  0  0  0  0  0  0  0  0
   -8.4980   21.7930  -31.8210 C   0  0  0  0  0  0  0  0  0  0  0  0
   -8.3590   20.4870  -32.3220 C   0  0  0  0  0  0  0  0  0  0  0  0
   -7.0730   19.9380  -32.5560 C   0  0  0  0  0  0  0  0  0  0  0  0
   -6.9370   18.5320  -33.0710 C   0  0  0  0  0  0  0  0  0  0  0  0
   -5.6870   18.4010  -33.8800 C   0  0  0  0  0  0  0  0  0  0  0  0
   -4.5960   18.1200  -33.3200 O   0  0  0  0  0  0  0  0  0  0  0  0
   -5.7350   18.5430  -35.2620 O   0  0  0  0  0  0  0  0  0  0  0  0
   -5.9200   20.6970  -32.2590 C   0  0  0  0  0  0  0  0  0  0  0  0
   -6.0880   21.9880  -31.7450 C   0  0  0  0  0  0  0  0  0  0  0  0
   -2.5245   20.4760  -31.6205 H   0  0  0  0  0  0  0  0  0  0  0  0
   -3.3330   20.0821  -33.1755 H   0  0  0  0  0  0  0  0  0  0  0  0
   -1.6801   20.7852  -33.1755 H   0  0  0  0  0  0  0  0  0  0  0  0
   -3.0490   25.2950  -30.3300 H   0  0  0  0  0  0  0  0  0  0  0  0
   -7.9816   24.5146  -30.8276 H   0  0  0  0  0  0  0  0  0  0  0  0
   -9.4921   22.2308  -31.6474 H   0  0  0  0  0  0  0  0  0  0  0  0
   -9.2555   19.8860  -32.5343 H   0  0  0  0  0  0  0  0  0  0  0  0
   -6.8950   17.8354  -32.2207 H   0  0  0  0  0  0  0  0  0  0  0  0
   -7.8036   18.2952  -33.7057 H   0  0  0  0  0  0  0  0  0  0  0  0
   -4.9145   20.2839  -32.4274 H   0  0  0  0  0  0  0  0  0  0  0  0
  1  2  1  0
  2  3  1  0
  3  4  2  0
  3  5  1  0
  5  6  1  0
  6  7  1  0
  7  8  1  0
  7  9  2  0
  6 10  2  0
 10 11  1  0
 11 12  2  0
 12 13  1  0
 13 14  2  0
 14 15  1  0
 15 16  1  0
 16 17  2  0
 16 18  1  0
 14 19  1  0
 19 20  2  0
 20  5  1  0
 20 11  1  0
  1 21  1  0
  1 22  1  0
  1 23  1  0
  8 24  1  0
 10 25  1  0
 12 26  1  0
 13 27  1  0
 15 28  1  0
 15 29  1  0
 19 30  1  0
M  CHG  2   8  -1  18  -1
M  END
>  <UniqueID>  (2) 
2

>  <SMILES>  (2) 
COC(=O)n1c(C([NH-])=O)cc2ccc(CC(=O)[O-])cc21

>  <Energy>  (2) 
65.93749030971294

>  <Genealogy>  (2) 
COC(=O)n1c(C([NH-])=O)cc2ccc(CC(=O)[O-])cc21 (protonated)
COC(=O)n1c(C([NH-])=O)cc2ccc(CC(=O)[O-])cc21 (3D coordinates assigned)
COC(=O)n1c(C([NH-])=O)cc2ccc(CC(=O)[O-])cc21 (optimized conformer: 65.93749030971294 kcal/mol)

>  <smiles>  (2) 
COC(=O)n1c(C(N)=O)cc2ccc(CC(=O)O)cc21

>  <score_type>  (2) 
oracle

>  <origin>  (2) 
adg

>  <m_score__min__energy>  (2) 
-9.6400000000000006

>  <m_primary>  (2) 
energy

$$$$
2:0
     RDKit          3D

 38 39  0  0  0  0  0  0  0  0999 V2000
   -2.4070   25.0120  -27.1480 C   0  0  0  0  0  0  0  0  0  0  0  0
   -3.2840   24.3680  -28.1390 N   0  0  0  0  0  0  0  0  0  0  0  0
   -4.2320   23.4570  -27.4790 C   0  0  0  0  0  0  0  0  0  0  0  0
   -2.4830   23.6610  -29.1190 C   0  0  0  0  0  0  0  0  0  0  0  0
   -1.4280   24.1390  -29.5180 O   0  0  0  0  0  0  0  0  0  0  0  0
   -2.9380   22.3350  -29.6650 C   0  0  0  0  0  0  0  0  0  0  0  0
   -3.5370   22.5070  -31.0300 C   0  0  0  0  0  0  0  0  0  0  0  0
   -2.8030   22.3780  -32.0480 O   0  0  0  0  0  0  0  0  0  0  0  0
   -4.9490   22.7190  -31.1920 N   0  0  0  0  0  0  0  0  0  0  0  0
   -5.6910   23.7860  -30.7830 C   0  0  0  0  0  0  0  0  0  0  0  0
   -5.1570   25.0630  -30.2670 C   0  0  0  0  0  0  0  0  0  0  0  0
   -3.9480   25.6130  -30.7850 N   0  0  0  0  0  0  0  0  0  0  0  0
   -5.7990   25.7000  -29.3890 O   0  0  0  0  0  0  0  0  0  0  0  0
   -7.0460   23.5540  -31.0100 C   0  0  0  0  0  0  0  0  0  0  0  0
   -7.1100   22.3080  -31.5900 C   0  0  0  0  0  0  0  0  0  0  0  0
   -8.2110   21.5750  -32.0220 C   0  0  0  0  0  0  0  0  0  0  0  0
   -7.9810   20.3030  -32.5730 C   0  0  0  0  0  0  0  0  0  0  0  0
   -6.6620   19.7940  -32.6900 C   0  0  0  0  0  0  0  0  0  0  0  0
   -6.4210   18.4270  -33.2610 C   0  0  0  0  0  0  0  0  0  0  0  0
   -7.5560   17.6500  -33.1160 F   0  0  0  0  0  0  0  0  0  0  0  0
   -6.1090   18.5340  -34.6040 F   0  0  0  0  0  0  0  0  0  0  0  0
   -5.5690   20.5700  -32.2440 C   0  0  0  0  0  0  0  0  0  0  0  0
   -5.8300   21.8300  -31.6960 C   0  0  0  0  0  0  0  0  0  0  0  0
   -2.7514   24.7591  -26.1344 H   0  0  0  0  0  0  0  0  0  0  0  0
   -1.3755   24.6552  -27.2845 H   0  0  0  0  0  0  0  0  0  0  0  0
   -2.4387   26.1030  -27.2845 H   0  0  0  0  0  0  0  0  0  0  0  0
   -3.8360   25.1190  -28.6170 H   0  0  0  0  0  0  0  0  0  0  0  0
   -4.1328   23.5523  -26.3876 H   0  0  0  0  0  0  0  0  0  0  0  0
   -5.2583   23.7163  -27.7779 H   0  0  0  0  0  0  0  0  0  0  0  0
   -4.0137   22.4212  -27.7779 H   0  0  0  0  0  0  0  0  0  0  0  0
   -2.0756   21.6554  -29.7310 H   0  0  0  0  0  0  0  0  0  0  0  0
   -3.7003   21.9155  -28.9920 H   0  0  0  0  0  0  0  0  0  0  0  0
   -3.0190   25.2740  -30.4530 H   0  0  0  0  0  0  0  0  0  0  0  0
   -7.8859   24.2244  -30.7754 H   0  0  0  0  0  0  0  0  0  0  0  0
   -9.2304   21.9790  -31.9348 H   0  0  0  0  0  0  0  0  0  0  0  0
   -8.8317   19.6962  -32.9168 H   0  0  0  0  0  0  0  0  0  0  0  0
   -5.5852   17.9553  -32.7235 H   0  0  0  0  0  0  0  0  0  0  0  0
   -4.5389   20.1928  -32.3257 H   0  0  0  0  0  0  0  0  0  0  0  0
  1  2  1  0
  2  3  1  0
  2  4  1  0
  4  5  2  0
  4  6  1  0
  6  7  1  0
  7  8  2  0
  7  9  1  0
  9 10  1  0
 10 11  1  0
 11 12  1  0
 11 13  2  0
 10 14  2  0
 14 15  1  0
 15 16  2  0
 16 17  1  0
 17 18  2  0
 18 19  1  0
 19 20  1  0
 19 21  1  0
 18 22  1  0
 22 23  2  0
 23  9  1  0
 23 15  1  0
  1 24  1  0
  1 25  1  0
  1 26  1  0
  2 27  1  0
  3 28  1  0
  3 29  1  0
  3 30  1  0
  6 31  1  0
  6 32  1  0
 12 33  1  0
 14 34  1  0
 16 35  1  0
 17 36  1  0
 19 37  1  0
 22 38  1  0
M  CHG  2   2   1  12  -1
M  END
>  <UniqueID>  (3) 
3

>  <SMILES>  (3) 
C[NH+](C)C(=O)CC(=O)n1c(C([NH-])=O)cc2ccc(C(F)F)cc21

>  <Energy>  (3) 
73.81203738036872

>  <Genealogy>  (3) 
C[NH+](C)C(=O)CC(=O)n1c(C([NH-])=O)cc2ccc(C(F)F)cc21 (protonated)
C[NH+](C)C(=O)CC(=O)n1c(C([NH-])=O)cc2ccc(C(F)F)cc21 (3D coordinates assigned)
C[NH+](C)C(=O)CC(=O)n1c(C([NH-])=O)cc2ccc(C(F)F)cc21 (optimized conformer: 73.81203738036872 kcal/mol)

>  <smiles>  (3) 
CN(C)C(=O)CC(=O)n1c(C(N)=O)cc2ccc(C(F)F)cc21

>  <score_type>  (3) 
oracle

>  <origin>  (3) 
adg

>  <m_score__min__energy>  (3) 
-8.6799999999999997

>  <m_primary>  (3) 
energy

$$$$
3:0
     RDKit          3D

 35 36  0  0  0  0  0  0  0  0999 V2000
   -4.1190   23.3980  -27.8480 C   0  0  0  0  0  0  0  0  0  0  0  0
   -3.4460   22.5270  -28.7500 O   0  0  0  0  0  0  0  0  0  0  0  0
   -2.8900   22.9740  -29.9520 C   0  0  0  0  0  0  0  0  0  0  0  0
   -1.7910   23.5940  -29.9580 O   0  0  0  0  0  0  0  0  0  0  0  0
   -3.6020   22.7300  -31.2150 C   0  0  0  0  0  0  0  0  0  0  0  0
   -2.9540   22.3610  -32.2300 O   0  0  0  0  0  0  0  0  0  0  0  0
   -5.0250   22.9020  -31.3030 N   0  0  0  0  0  0  0  0  0  0  0  0
   -5.7550   23.9910  -30.9310 C   0  0  0  0  0  0  0  0  0  0  0  0
   -5.2030   25.2740  -30.4450 C   0  0  0  0  0  0  0  0  0  0  0  0
   -3.8900   25.6720  -30.8290 N   0  0  0  0  0  0  0  0  0  0  0  0
   -5.8740   26.0140  -29.6780 O   0  0  0  0  0  0  0  0  0  0  0  0
   -7.1150   23.7520  -31.1190 C   0  0  0  0  0  0  0  0  0  0  0  0
   -7.1940   22.4700  -31.6170 C   0  0  0  0  0  0  0  0  0  0  0  0
   -8.3050   21.7130  -31.9660 C   0  0  0  0  0  0  0  0  0  0  0  0
   -8.0930   20.4020  -32.4250 C   0  0  0  0  0  0  0  0  0  0  0  0
   -6.7790   19.8590  -32.5210 C   0  0  0  0  0  0  0  0  0  0  0  0
   -6.5710   18.5000  -32.9890 N   0  0  0  0  0  0  0  0  0  0  0  0
   -6.0650   18.2490  -34.3440 C   0  0  0  0  0  0  0  0  0  0  0  0
   -6.8630   17.3570  -32.1170 C   0  0  0  0  0  0  0  0  0  0  0  0
   -5.6770   20.6720  -32.1480 C   0  0  0  0  0  0  0  0  0  0  0  0
   -5.9210   21.9790  -31.7150 C   0  0  0  0  0  0  0  0  0  0  0  0
   -3.8905   23.1023  -26.8134 H   0  0  0  0  0  0  0  0  0  0  0  0
   -3.7827   24.4316  -28.0167 H   0  0  0  0  0  0  0  0  0  0  0  0
   -5.2041   23.3334  -28.0167 H   0  0  0  0  0  0  0  0  0  0  0  0
   -3.0500   25.3000  -30.3330 H   0  0  0  0  0  0  0  0  0  0  0  0
   -7.9480   24.4404  -30.9135 H   0  0  0  0  0  0  0  0  0  0  0  0
   -9.3207   22.1275  -31.8855 H   0  0  0  0  0  0  0  0  0  0  0  0
   -8.9558   19.7845  -32.7151 H   0  0  0  0  0  0  0  0  0  0  0  0
   -5.0811   17.7609  -34.2834 H   0  0  0  0  0  0  0  0  0  0  0  0
   -6.7665   17.5944  -34.8820 H   0  0  0  0  0  0  0  0  0  0  0  0
   -5.9683   19.2036  -34.8820 H   0  0  0  0  0  0  0  0  0  0  0  0
   -6.7834   17.6686  -31.0651 H   0  0  0  0  0  0  0  0  0  0  0  0
   -7.8825   16.9950  -32.3160 H   0  0  0  0  0  0  0  0  0  0  0  0
   -6.1421   16.5504  -32.3160 H   0  0  0  0  0  0  0  0  0  0  0  0
   -4.6500   20.2812  -32.1986 H   0  0  0  0  0  0  0  0  0  0  0  0
  1  2  1  0
  2  3  1  0
  3  4  2  0
  3  5  1  0
  5  6  2  0
  5  7  1  0
  7  8  1  0
  8  9  1  0
  9 10  1  0
  9 11  2  0
  8 12  2  0
 12 13  1  0
 13 14  2  0
 14 15  1  0
 15 16  2  0
 16 17  1  0
 17 18  1  0
 17 19  1  0
 16 20  1  0
 20 21  2  0
 21  7  1  0
 21 13  1  0
  1 22  1  0
  1 23  1  0
  1 24  1  0
 10 25  1  0
 12 26  1  0
 14 27  1  0
 15 28  1  0
 18 29  1  0
 18 30  1  0
 18 31  1  0
 19 32  1  0
 19 33  1  0
 19 34  1  0
 20 35  1  0
M  CHG  1  10  -1
M  END
>  <UniqueID>  (4) 
4

>  <SMILES>  (4) 
COC(=O)C(=O)n1c(C([NH-])=O)cc2ccc(N(C)C)cc21

>  <Energy>  (4) 
72.92858675981759

>  <Genealogy>  (4) 
COC(=O)C(=O)n1c(C([NH-])=O)cc2ccc(N(C)C)cc21 (protonated)
COC(=O)C(=O)n1c(C([NH-])=O)cc2ccc(N(C)C)cc21 (3D coordinates assigned)
COC(=O)C(=O)n1c(C([NH-])=O)cc2ccc(N(C)C)cc21 (optimized conformer: 72.92858675981759 kcal/mol)

>  <smiles>  (4) 
COC(=O)C(=O)n1c(C(N)=O)cc2ccc(N(C)C)cc21

>  <score_type>  (4) 
oracle

>  <origin>  (4) 
adg

>  <m_score__min__energy>  (4) 
-9.1300000000000008

>  <m_primary>  (4) 
energy

$$$$
4:0
     RDKit          3D

 34 35  0  0  0  0  0  0  0  0999 V2000
   -3.4140   21.9090  -27.9520 C   0  0  0  0  0  0  0  0  0  0  0  0
   -3.1240   23.1000  -28.4830 C   0  0  0  0  0  0  0  0  0  0  0  0
   -2.1340   23.2420  -29.6090 C   0  0  1  0  0  0  0  0  0  0  0  0
   -2.8100   23.5410  -30.8300 O   0  0  0  0  0  0  0  0  0  0  0  0
   -3.6100   22.6180  -31.5160 C   0  0  0  0  0  0  0  0  0  0  0  0
   -3.0810   21.7500  -32.2630 O   0  0  0  0  0  0  0  0  0  0  0  0
   -5.0400   22.6820  -31.3900 N   0  0  0  0  0  0  0  0  0  0  0  0
   -5.7890   23.7260  -30.9320 C   0  0  0  0  0  0  0  0  0  0  0  0
   -5.2710   24.9550  -30.2970 C   0  0  0  0  0  0  0  0  0  0  0  0
   -4.1710   25.6640  -30.8620 N   0  0  0  0  0  0  0  0  0  0  0  0
   -5.7720   25.3560  -29.2130 O   0  0  0  0  0  0  0  0  0  0  0  0
   -7.1480   23.4520  -31.0710 C   0  0  0  0  0  0  0  0  0  0  0  0
   -7.2110   22.1930  -31.6230 C   0  0  0  0  0  0  0  0  0  0  0  0
   -8.3170   21.4340  -31.9940 C   0  0  0  0  0  0  0  0  0  0  0  0
   -8.0880   20.1790  -32.5800 C   0  0  0  0  0  0  0  0  0  0  0  0
   -6.7680   19.7070  -32.7800 C   0  0  0  0  0  0  0  0  0  0  0  0
   -6.5370   18.3880  -33.4550 C   0  0  0  0  0  0  0  0  0  0  0  0
   -5.6690   20.5110  -32.4070 C   0  0  0  0  0  0  0  0  0  0  0  0
   -5.9260   21.7500  -31.8070 C   0  0  0  0  0  0  0  0  0  0  0  0
   -1.1820   24.3540  -29.3000 C   0  0  0  0  0  0  0  0  0  0  0  0
    0.0050   24.0990  -28.9670 O   0  0  0  0  0  0  0  0  0  0  0  0
   -1.6140   25.6750  -29.3390 O   0  0  0  0  0  0  0  0  0  0  0  0
   -4.1414   21.8357  -27.1301 H   0  0  0  0  0  0  0  0  0  0  0  0
   -2.9254   21.0016  -28.3367 H   0  0  0  0  0  0  0  0  0  0  0  0
   -3.6203   23.9988  -28.0882 H   0  0  0  0  0  0  0  0  0  0  0  0
   -1.5875   22.2936  -29.7181 H   0  0  0  0  0  0  0  0  0  0  0  0
   -3.1950   25.3080  -30.7670 H   0  0  0  0  0  0  0  0  0  0  0  0
   -7.9912   24.1034  -30.7977 H   0  0  0  0  0  0  0  0  0  0  0  0
   -9.3395   21.8062  -31.8330 H   0  0  0  0  0  0  0  0  0  0  0  0
   -8.9417   19.5567  -32.8866 H   0  0  0  0  0  0  0  0  0  0  0  0
   -6.4000   17.6057  -32.6940 H   0  0  0  0  0  0  0  0  0  0  0  0
   -7.4055   18.1405  -34.0831 H   0  0  0  0  0  0  0  0  0  0  0  0
   -5.6361   18.4503  -34.0831 H   0  0  0  0  0  0  0  0  0  0  0  0
   -4.6372   20.1728  -32.5832 H   0  0  0  0  0  0  0  0  0  0  0  0
  1  2  2  0
  2  3  1  0
  3  4  1  0
  4  5  1  0
  5  6  2  0
  5  7  1  0
  7  8  1  0
  8  9  1  0
  9 10  1  0
  9 11  2  0
  8 12  2  0
 12 13  1  0
 13 14  2  0
 14 15  1  0
 15 16  2  0
 16 17  1  0
 16 18  1  0
 18 19  2  0
  3 20  1  0
 20 21  2  0
 20 22  1  0
 19  7  1  0
 19 13  1  0
  1 23  1  0
  1 24  1  0
  2 25  1  0
  3 26  1  6
 10 27  1  0
 12 28  1  0
 14 29  1  0
 15 30  1  0
 17 31  1  0
 17 32  1  0
 17 33  1  0
 18 34  1  0
M  CHG  2  10  -1  22  -1
M  END
>  <UniqueID>  (5) 
5

>  <SMILES>  (5) 
C=C[C@@H](OC(=O)n1c(C([NH-])=O)cc2ccc(C)cc21)C(=O)[O-]

>  <Energy>  (5) 
68.27245226339649

>  <Genealogy>  (5) 
C=CC(OC(=O)n1c(C([NH-])=O)cc2ccc(C)cc21)C(=O)[O-] (protonated)
C=C[C@@H](OC(=O)n1c(C([NH-])=O)cc2ccc(C)cc21)C(=O)[O-] (chirality)
C=C[C@@H](OC(=O)n1c(C([NH-])=O)cc2ccc(C)cc21)C(=O)[O-] (3D coordinates assigned)
C=C[C@@H](OC(=O)n1c(C([NH-])=O)cc2ccc(C)cc21)C(=O)[O-] (optimized conformer: 68.27245226339649 kcal/mol)

>  <smiles>  (5) 
C=CC(OC(=O)n1c(C(N)=O)cc2ccc(C)cc21)C(=O)O

>  <score_type>  (5) 
oracle

>  <origin>  (5) 
adg

>  <m_score__min__energy>  (5) 
-12.41

>  <m_primary>  (5) 
energy

$$$$
5:0
     RDKit          3D

 38 40  0  0  0  0  0  0  0  0999 V2000
   -1.0940   21.6620  -31.1660 H   0  0  0  0  0  0  0  0  0  0  0  0
   -1.5430   21.6040  -32.1070 N   0  0  0  0  0  0  0  0  0  0  0  0
   -2.7400   22.0400  -32.3410 C   0  0  0  0  0  0  0  0  0  0  0  0
   -3.5410   22.6690  -31.2660 C   0  0  0  0  0  0  0  0  0  0  0  0
   -2.9720   23.0920  -30.2220 O   0  0  0  0  0  0  0  0  0  0  0  0
   -4.9650   22.8010  -31.3890 N   0  0  0  0  0  0  0  0  0  0  0  0
   -5.7420   23.8470  -30.9900 C   0  0  0  0  0  0  0  0  0  0  0  0
   -5.2540   25.1360  -30.4550 C   0  0  0  0  0  0  0  0  0  0  0  0
   -5.9800   25.8010  -29.6700 O   0  0  0  0  0  0  0  0  0  0  0  0
   -3.9830   25.6550  -30.8370 N   0  0  0  0  0  0  0  0  0  0  0  0
   -3.1000   25.2530  -30.4510 H   0  0  0  0  0  0  0  0  0  0  0  0
   -7.0910   23.5580  -31.2010 C   0  0  0  0  0  0  0  0  0  0  0  0
   -7.9536   24.2044  -30.9817 H   0  0  0  0  0  0  0  0  0  0  0  0
   -7.1130   22.2920  -31.7420 C   0  0  0  0  0  0  0  0  0  0  0  0
   -8.1900   21.4990  -32.1290 C   0  0  0  0  0  0  0  0  0  0  0  0
   -9.2237   21.8655  -32.0444 H   0  0  0  0  0  0  0  0  0  0  0  0
   -7.9150   20.2160  -32.6310 C   0  0  0  0  0  0  0  0  0  0  0  0
   -8.7442   19.5650  -32.9450 H   0  0  0  0  0  0  0  0  0  0  0  0
   -6.5800   19.7520  -32.7370 C   0  0  0  0  0  0  0  0  0  0  0  0
   -6.2980   18.3930  -33.2510 C   0  0  0  0  0  0  0  0  0  0  0  0
   -7.2430   17.3800  -33.0330 C   0  0  0  0  0  0  0  0  0  0  0  0
   -8.1642   17.5962  -32.4720 H   0  0  0  0  0  0  0  0  0  0  0  0
   -7.0110   16.0970  -33.5300 C   0  0  0  0  0  0  0  0  0  0  0  0
   -7.7512   15.3008  -33.3620 H   0  0  0  0  0  0  0  0  0  0  0  0
   -5.8740   15.8300  -34.2200 N   0  0  0  0  0  0  0  0  0  0  0  0
   -4.9300   16.7810  -34.4400 C   0  0  0  0  0  0  0  0  0  0  0  0
   -4.0226   16.5286  -35.0083 H   0  0  0  0  0  0  0  0  0  0  0  0
   -5.1040   18.0850  -33.9470 C   0  0  0  0  0  0  0  0  0  0  0  0
   -4.0280   19.1100  -34.1860 C   0  0  0  0  0  0  0  0  0  0  0  0
   -3.6466   19.4733  -33.2203 H   0  0  0  0  0  0  0  0  0  0  0  0
   -3.2060   18.6526  -34.7562 H   0  0  0  0  0  0  0  0  0  0  0  0
   -4.4450   19.9532  -34.7562 H   0  0  0  0  0  0  0  0  0  0  0  0
   -5.5150   20.5790  -32.3190 C   0  0  0  0  0  0  0  0  0  0  0  0
   -4.4740   20.2273  -32.3696 H   0  0  0  0  0  0  0  0  0  0  0  0
   -5.8180   21.8570  -31.8390 C   0  0  0  0  0  0  0  0  0  0  0  0
   -3.2740   21.9220  -33.6630 N   0  0  0  0  0  0  0  0  0  0  0  0
   -2.7180   21.4560  -34.4150 H   0  0  0  0  0  0  0  0  0  0  0  0
   -4.2050   22.3230  -33.9120 H   0  0  0  0  0  0  0  0  0  0  0  0
  1  2  1  0
  2  3  2  0
  3  4  1  0
  4  5  2  0
  4  6  1  0
  6  7  1  0
  7  8  1  0
  8  9  2  0
  8 10  1  0
 10 11  1  0
  7 12  2  0
 12 13  1  0
 12 14  1  0
 14 15  2  0
 15 16  1  0
 15 17  1  0
 17 18  1  0
 17 19  2  0
 19 20  1  0
 20 21  2  0
 21 22  1  0
 21 23  1  0
 23 24  1  0
 23 25  2  0
 25 26  1  0
 26 27  1  0
 26 28  2  0
 28 29  1  0
 29 30  1  0
 29 31  1  0
 29 32  1  0
 19 33  1  0
 33 34  1  0
 33 35  2  0
  3 36  1  0
 36 37  1  0
 36 38  1  0
 35  6  1  0
 35 14  1  0
 28 20  1  0
M  CHG  1  10  -1
M  END
>  <UniqueID>  (6) 
6

>  <SMILES>  (6) 
[H]/N=C(/N)C(=O)n1c(C([NH-])=O)cc2ccc(-c3ccncc3C)cc21

>  <Energy>  (6) 
87.06747428373815

>  <Genealogy>  (6) 
Cc1cnccc1-c1ccc2cc(C([NH-])=O)n(C(=O)C(=N)N)c2c1 (protonated)
[H]/N=C(/N)C(=O)n1c(C([NH-])=O)cc2ccc(-c3ccncc3C)cc21 (cis-trans isomerization)
[H]/N=C(/N)C(=O)n1c(C([NH-])=O)cc2ccc(-c3ccncc3C)cc21 (3D coordinates assigned)
[H]/N=C(/N)C(=O)n1c(C([NH-])=O)cc2ccc(-c3ccncc3C)cc21 (optimized conformer: 87.06747428373815 kcal/mol)

>  <smiles>  (6) 
Cc1cnccc1-c1ccc2cc(C(N)=O)n(C(=O)C(=N)N)c2c1

>  <score_type>  (6) 
oracle

>  <origin>  (6) 
adg

>  <m_score__min__energy>  (6) 
-11.210000000000001

>  <m_primary>  (6) 
energy

$$$$
6:0
     RDKit          3D

 39 41  0  0  0  0  0  0  0  0999 V2000
   -1.1350   24.8770  -28.7010 C   0  0  0  0  0  0  0  0  0  0  0  0
   -2.3650   24.7560  -29.3750 O   0  0  0  0  0  0  0  0  0  0  0  0
   -3.1330   23.7310  -28.7780 C   0  0  0  0  0  0  0  0  0  0  0  0
   -3.2920   22.4010  -29.5480 C   0  0  0  0  0  0  0  0  0  0  0  0
   -3.8930   22.6060  -30.9130 C   0  0  0  0  0  0  0  0  0  0  0  0
   -3.1390   22.6840  -31.9210 O   0  0  0  0  0  0  0  0  0  0  0  0
   -5.3140   22.7340  -31.0820 N   0  0  0  0  0  0  0  0  0  0  0  0
   -6.0680   23.8610  -30.9330 C   0  0  0  0  0  0  0  0  0  0  0  0
   -5.5550   25.1890  -30.5170 C   0  0  0  0  0  0  0  0  0  0  0  0
   -4.2050   25.5780  -30.7870 N   0  0  0  0  0  0  0  0  0  0  0  0
   -6.3100   26.0000  -29.9200 O   0  0  0  0  0  0  0  0  0  0  0  0
   -7.4120   23.5820  -31.1970 C   0  0  0  0  0  0  0  0  0  0  0  0
   -7.4490   22.2490  -31.5370 C   0  0  0  0  0  0  0  0  0  0  0  0
   -8.5250   21.4540  -31.9200 C   0  0  0  0  0  0  0  0  0  0  0  0
   -8.2660   20.1170  -32.2630 C   0  0  0  0  0  0  0  0  0  0  0  0
   -6.9410   19.6100  -32.2440 C   0  0  0  0  0  0  0  0  0  0  0  0
   -6.6780   18.1770  -32.5980 C   0  0  0  0  0  0  0  0  0  0  0  0
   -5.9740   18.0810  -34.2300 Cl  0  0  0  0  0  0  0  0  0  0  0  0
   -5.8760   20.4450  -31.8420 C   0  0  0  0  0  0  0  0  0  0  0  0
   -6.1680   21.7630  -31.4720 C   0  0  0  0  0  0  0  0  0  0  0  0
   -2.7080   23.5440  -27.3200 C   0  0  0  0  0  0  0  0  0  0  0  0
   -4.0760   24.1130  -27.6380 C   0  0  0  0  0  0  0  0  0  0  0  0
   -1.3088   24.8599  -27.6149 H   0  0  0  0  0  0  0  0  0  0  0  0
   -0.4796   24.0390  -28.9807 H   0  0  0  0  0  0  0  0  0  0  0  0
   -0.6555   25.8267  -28.9807 H   0  0  0  0  0  0  0  0  0  0  0  0
   -2.3014   21.9367  -29.6626 H   0  0  0  0  0  0  0  0  0  0  0  0
   -3.9710   21.7550  -28.9722 H   0  0  0  0  0  0  0  0  0  0  0  0
   -3.5200   24.9260  -31.2280 H   0  0  0  0  0  0  0  0  0  0  0  0
   -3.8720   26.5270  -30.5070 H   0  0  0  0  0  0  0  0  0  0  0  0
   -8.2604   24.2801  -31.1442 H   0  0  0  0  0  0  0  0  0  0  0  0
   -9.5467   21.8602  -31.9531 H   0  0  0  0  0  0  0  0  0  0  0  0
   -9.0981   19.4568  -32.5490 H   0  0  0  0  0  0  0  0  0  0  0  0
   -5.9755   17.7438  -31.8708 H   0  0  0  0  0  0  0  0  0  0  0  0
   -7.6246   17.6170  -32.5763 H   0  0  0  0  0  0  0  0  0  0  0  0
   -4.8424   20.0692  -31.8201 H   0  0  0  0  0  0  0  0  0  0  0  0
   -2.6183   22.5315  -26.8994 H   0  0  0  0  0  0  0  0  0  0  0  0
   -1.8522   23.8732  -26.7123 H   0  0  0  0  0  0  0  0  0  0  0  0
   -4.9780   23.5130  -27.4473 H   0  0  0  0  0  0  0  0  0  0  0  0
   -4.6214   25.0255  -27.3553 H   0  0  0  0  0  0  0  0  0  0  0  0
  1  2  1  0
  2  3  1  0
  3  4  1  0
  4  5  1  0
  5  6  2  0
  5  7  1  0
  7  8  1  0
  8  9  1  0
  9 10  1  0
  9 11  2  0
  8 12  2  0
 12 13  1  0
 13 14  2  0
 14 15  1  0
 15 16  2  0
 16 17  1  0
 17 18  1  0
 16 19  1  0
 19 20  2  0
  3 21  1  0
 21 22  1  0
 22  3  1  0
 20  7  1  0
 20 13  1  0
  1 23  1  0
  1 24  1  0
  1 25  1  0
  4 26  1  0
  4 27  1  0
 10 28  1  0
 10 29  1  0
 12 30  1  0
 14 31  1  0
 15 32  1  0
 17 33  1  0
 17 34  1  0
 19 35  1  0
 21 36  1  0
 21 37  1  0
 22 38  1  0
 22 39  1  0
M  END
>  <UniqueID>  (7) 
7

>  <SMILES>  (7) 
COC1(CC(=O)n2c(C(N)=O)cc3ccc(CCl)cc32)CC1

>  <Energy>  (7) 
346.7295280355405

>  <Genealogy>  (7) 
COC1(CC(=O)n2c(C(N)=O)cc3ccc(CCl)cc32)CC1 (3D coordinates assigned)
COC1(CC(=O)n2c(C(N)=O)cc3ccc(CCl)cc32)CC1 (nonaromatic ring conformer: 346.7295280355405 kcal/mol)

>  <smiles>  (7) 
COC1(CC(=O)n2c(C(N)=O)cc3ccc(CCl)cc32)CC1

>  <score_type>  (7) 
oracle

>  <origin>  (7) 
adg

>  <m_score__min__energy>  (7) 
-9.2799999999999994

>  <m_primary>  (7) 
energy

$$$$
7:0
     RDKit          3D

 47 49  0  0  0  0  0  0  0  0999 V2000
   -5.9320   25.2460  -29.0400 N   0  0  0  0  0  0  0  0  0  0  0  0
   -5.4960   24.5660  -30.2170 C   0  0  0  0  0  0  0  0  0  0  0  0
   -4.5770   25.0770  -30.9110 O   0  0  0  0  0  0  0  0  0  0  0  0
   -6.1230   23.3050  -30.6710 C   0  0  0  0  0  0  0  0  0  0  0  0
   -7.4420   23.2330  -31.1120 C   0  0  0  0  0  0  0  0  0  0  0  0
   -7.6220   21.9320  -31.5170 C   0  0  0  0  0  0  0  0  0  0  0  0
   -8.7310   21.3270  -32.1010 C   0  0  0  0  0  0  0  0  0  0  0  0
   -8.6110   19.9910  -32.5140 C   0  0  0  0  0  0  0  0  0  0  0  0
   -7.3860   19.2950  -32.3580 C   0  0  0  0  0  0  0  0  0  0  0  0
   -7.2500   17.8830  -32.8650 C   0  0  0  0  0  0  0  0  0  0  0  0
   -6.1240   17.7620  -33.8950 C   0  0  0  0  0  0  0  0  0  0  0  0
   -4.8990   17.6730  -33.2580 F   0  0  0  0  0  0  0  0  0  0  0  0
   -6.3170   16.6220  -34.6530 F   0  0  0  0  0  0  0  0  0  0  0  0
   -6.1230   18.8620  -34.7350 F   0  0  0  0  0  0  0  0  0  0  0  0
   -6.2770   19.9480  -31.7770 C   0  0  0  0  0  0  0  0  0  0  0  0
   -6.4390   21.2650  -31.3260 C   0  0  0  0  0  0  0  0  0  0  0  0
   -5.5110   22.0900  -30.7860 N   0  0  0  0  0  0  0  0  0  0  0  0
   -4.1350   21.7710  -30.5120 C   0  0  0  0  0  0  0  0  0  0  0  0
   -3.5790   20.8260  -31.1330 O   0  0  0  0  0  0  0  0  0  0  0  0
   -3.3260   22.5870  -29.5450 C   0  0  0  0  0  0  0  0  0  0  0  0
   -2.6100   21.5220  -28.2760 S   0  0  0  0  0  0  0  0  0  0  0  0
   -3.8060   21.1030  -27.4310 O   0  0  0  0  0  0  0  0  0  0  0  0
   -1.6250   22.6390  -27.2190 C   0  0  1  0  0  0  0  0  0  0  0  0
   -0.1800   22.7780  -27.6910 C   0  0  0  0  0  0  0  0  0  0  0  0
   -0.1450   23.9920  -28.6070 C   0  0  0  0  0  0  0  0  0  0  0  0
   -1.3390   24.8680  -28.2090 C   0  0  1  0  0  0  0  0  0  0  0  0
   -2.0740   25.2810  -29.3360 O   0  0  0  0  0  0  0  0  0  0  0  0
   -2.2000   24.0510  -27.2380 C   0  0  0  0  0  0  0  0  0  0  0  0
   -5.4300   26.1030  -28.7160 H   0  0  0  0  0  0  0  0  0  0  0  0
   -6.8060   24.9740  -28.5480 H   0  0  0  0  0  0  0  0  0  0  0  0
   -8.1831   24.0456  -31.1320 H   0  0  0  0  0  0  0  0  0  0  0  0
   -9.6729   21.8791  -32.2348 H   0  0  0  0  0  0  0  0  0  0  0  0
   -9.4753   19.4794  -32.9627 H   0  0  0  0  0  0  0  0  0  0  0  0
   -7.0310   17.2182  -32.0164 H   0  0  0  0  0  0  0  0  0  0  0  0
   -8.1946   17.5989  -33.3518 H   0  0  0  0  0  0  0  0  0  0  0  0
   -5.3087   19.4351  -31.6806 H   0  0  0  0  0  0  0  0  0  0  0  0
   -2.5178   23.0983  -30.0885 H   0  0  0  0  0  0  0  0  0  0  0  0
   -3.9821   23.3271  -29.0637 H   0  0  0  0  0  0  0  0  0  0  0  0
   -1.6586   22.1875  -26.2165 H   0  0  0  0  0  0  0  0  0  0  0  0
    0.4886   22.9304  -26.8309 H   0  0  0  0  0  0  0  0  0  0  0  0
    0.1584   21.8719  -28.2149 H   0  0  0  0  0  0  0  0  0  0  0  0
    0.7956   24.5455  -28.4696 H   0  0  0  0  0  0  0  0  0  0  0  0
   -0.2023   23.6957  -29.6648 H   0  0  0  0  0  0  0  0  0  0  0  0
   -0.9915   25.7914  -27.7225 H   0  0  0  0  0  0  0  0  0  0  0  0
   -1.6170   26.0740  -29.7220 H   0  0  0  0  0  0  0  0  0  0  0  0
   -2.1561   24.4912  -26.2309 H   0  0  0  0  0  0  0  0  0  0  0  0
   -3.2532   24.0436  -27.5554 H   0  0  0  0  0  0  0  0  0  0  0  0
  1  2  1  0
  2  3  2  0
  2  4  1  0
  4  5  2  0
  5  6  1  0
  6  7  2  0
  7  8  1  0
  8  9  2  0
  9 10  1  0
 10 11  1  0
 11 12  1  0
 11 13  1  0
 11 14  1  0
  9 15  1  0
 15 16  2  0
 16 17  1  0
 17 18  1  0
 18 19  2  0
 18 20  1  0
 21 20  1  6
 21 22  2  0
 21 23  1  0
 23 24  1  0
 24 25  1  0
 25 26  1  0
 26 27  1  0
 26 28  1  0
 17  4  1  0
 28 23  1  0
 16  6  1  0
  1 29  1  0
  1 30  1  0
  5 31  1  0
  7 32  1  0
  8 33  1  0
 10 34  1  0
 10 35  1  0
 15 36  1  0
 20 37  1  0
 20 38  1  0
 23 39  1  1
 24 40  1  0
 24 41  1  0
 25 42  1  0
 25 43  1  0
 26 44  1  1
 27 45  1  0
 28 46  1  0
 28 47  1  0
M  END
>  <UniqueID>  (8) 
8

>  <SMILES>  (8) 
NC(=O)c1cc2ccc(CC(F)(F)F)cc2n1C(=O)C[S@](=O)[C@H]1CC[C@@H](O)C1

>  <Energy>  (8) 
81.98867774812965

>  <Genealogy>  (8) 
NC(=O)c1cc2ccc(CC(F)(F)F)cc2n1C(=O)C[S@](=O)[C@H]1CC[C@@H](O)C1 (chirality)
NC(=O)c1cc2ccc(CC(F)(F)F)cc2n1C(=O)C[S@](=O)[C@H]1CC[C@@H](O)C1 (3D coordinates assigned)
NC(=O)c1cc2ccc(CC(F)(F)F)cc2n1C(=O)C[S@](=O)[C@H]1CC[C@@H](O)C1 (nonaromatic ring conformer: 81.98867774812965 kcal/mol)

>  <smiles>  (8) 
NC(=O)c1cc2ccc(CC(F)(F)F)cc2n1C(=O)CS(=O)[C@H]1CC[C@@H](O)C1

>  <score_type>  (8) 
oracle

>  <origin>  (8) 
adg

>  <m_score__min__energy>  (8) 
-10.02

>  <m_primary>  (8) 
energy

$$$$
8:0
     RDKit          3D

 33 34  0  0  0  0  0  0  0  0999 V2000
   -1.2070   22.8430  -28.1300 C   0  0  0  0  0  0  0  0  0  0  0  0
   -2.2460   24.0200  -28.9640 S   0  0  0  0  0  0  0  0  0  0  0  0
   -3.3980   24.3860  -28.0700 O   0  0  0  0  0  0  0  0  0  0  0  0
   -1.4440   25.2520  -29.2770 O   0  0  0  0  0  0  0  0  0  0  0  0
   -2.8570   23.2990  -30.4760 C   0  0  0  0  0  0  0  0  0  0  0  0
   -4.0000   22.3720  -30.1900 C   0  0  0  0  0  0  0  0  0  0  0  0
   -3.8180   21.3720  -29.4440 O   0  0  0  0  0  0  0  0  0  0  0  0
   -5.3040   22.6310  -30.7300 N   0  0  0  0  0  0  0  0  0  0  0  0
   -6.0070   23.7990  -30.6990 C   0  0  0  0  0  0  0  0  0  0  0  0
   -5.5350   25.0910  -30.1520 C   0  0  0  0  0  0  0  0  0  0  0  0
   -4.2690   25.6310  -30.5200 N   0  0  0  0  0  0  0  0  0  0  0  0
   -6.2710   25.7370  -29.3600 O   0  0  0  0  0  0  0  0  0  0  0  0
   -7.2560   23.6280  -31.2960 C   0  0  0  0  0  0  0  0  0  0  0  0
   -7.2980   22.3100  -31.6880 C   0  0  0  0  0  0  0  0  0  0  0  0
   -8.3190   21.5900  -32.3000 C   0  0  0  0  0  0  0  0  0  0  0  0
   -8.1050   20.2240  -32.5480 C   0  0  0  0  0  0  0  0  0  0  0  0
   -6.8790   19.6040  -32.1880 C   0  0  0  0  0  0  0  0  0  0  0  0
   -6.6870   18.1230  -32.3980 C   0  0  0  0  0  0  0  0  0  0  0  0
   -5.8610   17.5950  -31.4210 F   0  0  0  0  0  0  0  0  0  0  0  0
   -7.9020   17.4610  -32.3420 F   0  0  0  0  0  0  0  0  0  0  0  0
   -6.1140   17.9100  -33.6380 F   0  0  0  0  0  0  0  0  0  0  0  0
   -5.8780   20.3660  -31.5430 C   0  0  0  0  0  0  0  0  0  0  0  0
   -6.1100   21.7290  -31.3320 C   0  0  0  0  0  0  0  0  0  0  0  0
   -1.3147   22.9650  -27.0421 H   0  0  0  0  0  0  0  0  0  0  0  0
   -1.5050   21.8235  -28.4159 H   0  0  0  0  0  0  0  0  0  0  0  0
   -0.1584   23.0122  -28.4159 H   0  0  0  0  0  0  0  0  0  0  0  0
   -3.1999   24.1006  -31.1468 H   0  0  0  0  0  0  0  0  0  0  0  0
   -2.0459   22.7282  -30.9517 H   0  0  0  0  0  0  0  0  0  0  0  0
   -3.4840   25.6770  -29.8330 H   0  0  0  0  0  0  0  0  0  0  0  0
   -8.0416   24.3869  -31.4259 H   0  0  0  0  0  0  0  0  0  0  0  0
   -9.2651   22.0756  -32.5812 H   0  0  0  0  0  0  0  0  0  0  0  0
   -8.8959   19.6278  -33.0265 H   0  0  0  0  0  0  0  0  0  0  0  0
   -4.9384   19.8977  -31.2147 H   0  0  0  0  0  0  0  0  0  0  0  0
  1  2  1  0
  2  3  2  0
  2  4  2  0
  2  5  1  0
  5  6  1  0
  6  7  2  0
  6  8  1  0
  8  9  1  0
  9 10  1  0
 10 11  1  0
 10 12  2  0
  9 13  2  0
 13 14  1  0
 14 15  2  0
 15 16  1  0
 16 17  2  0
 17 18  1  0
 18 19  1  0
 18 20  1  0
 18 21  1  0
 17 22  1  0
 22 23  2  0
 23  8  1  0
 23 14  1  0
  1 24  1  0
  1 25  1  0
  1 26  1  0
  5 27  1  0
  5 28  1  0
 11 29  1  0
 13 30  1  0
 15 31  1  0
 16 32  1  0
 22 33  1  0
M  CHG  1  11  -1
M  END
>  <UniqueID>  (9) 
9

>  <SMILES>  (9) 
CS(=O)(=O)CC(=O)n1c(C([NH-])=O)cc2ccc(C(F)(F)F)cc21

>  <Energy>  (9) 
65.06152814409764

>  <Genealogy>  (9) 
CS(=O)(=O)CC(=O)n1c(C([NH-])=O)cc2ccc(C(F)(F)F)cc21 (protonated)
CS(=O)(=O)CC(=O)n1c(C([NH-])=O)cc2ccc(C(F)(F)F)cc21 (3D coordinates assigned)
CS(=O)(=O)CC(=O)n1c(C([NH-])=O)cc2ccc(C(F)(F)F)cc21 (optimized conformer: 65.06152814409764 kcal/mol)

>  <smiles>  (9) 
CS(=O)(=O)CC(=O)n1c(C(N)=O)cc2ccc(C(F)(F)F)cc21

>  <score_type>  (9) 
oracle

>  <origin>  (9) 
adg

>  <m_score__min__energy>  (9) 
-9.9199999999999999

>  <m_primary>  (9) 
energy

$$$$
9:0
     RDKit          3D

 32 33  0  0  0  0  0  0  0  0999 V2000
   -3.8080   22.7410  -28.2940 C   0  0  0  0  0  0  0  0  0  0  0  0
   -3.3840   22.0590  -29.3560 C   0  0  0  0  0  0  0  0  0  0  0  0
   -3.8680   22.3280  -30.7230 C   0  0  0  0  0  0  0  0  0  0  0  0
   -3.0560   22.2650  -31.6830 O   0  0  0  0  0  0  0  0  0  0  0  0
   -5.2480   22.6270  -30.9880 N   0  0  0  0  0  0  0  0  0  0  0  0
   -5.8930   23.8200  -30.8480 C   0  0  0  0  0  0  0  0  0  0  0  0
   -5.2710   25.1020  -30.4570 C   0  0  0  0  0  0  0  0  0  0  0  0
   -3.8660   25.3060  -30.5890 N   0  0  0  0  0  0  0  0  0  0  0  0
   -5.9920   26.0400  -30.0240 O   0  0  0  0  0  0  0  0  0  0  0  0
   -7.2430   23.6800  -31.1710 C   0  0  0  0  0  0  0  0  0  0  0  0
   -7.3980   22.3580  -31.5280 C   0  0  0  0  0  0  0  0  0  0  0  0
   -8.5350   21.6630  -31.9270 C   0  0  0  0  0  0  0  0  0  0  0  0
   -8.4020   20.2940  -32.2160 C   0  0  0  0  0  0  0  0  0  0  0  0
   -7.1410   19.6480  -32.1150 C   0  0  0  0  0  0  0  0  0  0  0  0
   -7.0220   18.1630  -32.3760 C   0  0  0  0  0  0  0  0  0  0  0  0
   -8.2640   17.5600  -32.2580 F   0  0  0  0  0  0  0  0  0  0  0  0
   -6.1750   17.5840  -31.4440 F   0  0  0  0  0  0  0  0  0  0  0  0
   -6.4810   17.9200  -33.7600 C   0  0  0  0  0  0  0  0  0  0  0  0
   -5.7680   18.8520  -34.3990 C   0  0  0  0  0  0  0  0  0  0  0  0
   -6.0140   20.3870  -31.6850 C   0  0  0  0  0  0  0  0  0  0  0  0
   -6.1780   21.7480  -31.4120 C   0  0  0  0  0  0  0  0  0  0  0  0
   -3.4160   22.5019  -27.2944 H   0  0  0  0  0  0  0  0  0  0  0  0
   -4.5503   23.5435  -28.4162 H   0  0  0  0  0  0  0  0  0  0  0  0
   -2.6414   21.2612  -29.2076 H   0  0  0  0  0  0  0  0  0  0  0  0
   -3.4880   26.0260  -31.2450 H   0  0  0  0  0  0  0  0  0  0  0  0
   -8.0189   24.4593  -31.1460 H   0  0  0  0  0  0  0  0  0  0  0  0
   -9.5078   22.1691  -32.0136 H   0  0  0  0  0  0  0  0  0  0  0  0
   -9.2854   19.7156  -32.5242 H   0  0  0  0  0  0  0  0  0  0  0  0
   -6.6765   16.9570  -34.2544 H   0  0  0  0  0  0  0  0  0  0  0  0
   -5.3826   18.6526  -35.4098 H   0  0  0  0  0  0  0  0  0  0  0  0
   -5.5664   19.8186  -33.9143 H   0  0  0  0  0  0  0  0  0  0  0  0
   -5.0332   19.9027  -31.5684 H   0  0  0  0  0  0  0  0  0  0  0  0
  1  2  2  0
  2  3  1  0
  3  4  2  0
  3  5  1  0
  5  6  1  0
  6  7  1  0
  7  8  1  0
  7  9  2  0
  6 10  2  0
 10 11  1  0
 11 12  2  0
 12 13  1  0
 13 14  2  0
 14 15  1  0
 15 16  1  0
 15 17  1  0
 15 18  1  0
 18 19  2  0
 14 20  1  0
 20 21  2  0
 21  5  1  0
 21 11  1  0
  1 22  1  0
  1 23  1  0
  2 24  1  0
  8 25  1  0
 10 26  1  0
 12 27  1  0
 13 28  1  0
 18 29  1  0
 19 30  1  0
 19 31  1  0
 20 32  1  0
M  CHG  1   8  -1
M  END
>  <UniqueID>  (10) 
10

>  <SMILES>  (10) 
C=CC(=O)n1c(C([NH-])=O)cc2ccc(C(F)(F)C=C)cc21

>  <Energy>  (10) 
69.59656620985574

>  <Genealogy>  (10) 
C=CC(=O)n1c(C([NH-])=O)cc2ccc(C(F)(F)C=C)cc21 (protonated)
C=CC(=O)n1c(C([NH-])=O)cc2ccc(C(F)(F)C=C)cc21 (3D coordinates assigned)
C=CC(=O)n1c(C([NH-])=O)cc2ccc(C(F)(F)C=C)cc21 (optimized conformer: 69.59656620985574 kcal/mol)

>  <smiles>  (10) 
C=CC(=O)n1c(C(N)=O)cc2ccc(C(F)(F)C=C)cc21

>  <score_type>  (10) 
oracle

>  <origin>  (10) 
adg

>  <m_score__min__energy>  (10) 
-10.25

>  <m_primary>  (10) 
energy

$$$$
10:0
     RDKit          3D

 46 47  0  0  0  0  0  0  0  0999 V2000
   -6.4300   24.7290  -29.8190 C   0  0  0  0  0  0  0  0  0  0  0  0
   -5.4310   23.8520  -29.9010 C   0  0  0  0  0  0  0  0  0  0  0  0
   -4.0990   24.2020  -30.4300 C   0  0  0  0  0  0  0  0  0  0  0  0
   -3.8830   25.3870  -30.7990 O   0  0  0  0  0  0  0  0  0  0  0  0
   -3.0460   23.2290  -30.5350 N   0  0  0  0  0  0  0  0  0  0  0  0
   -1.8100   23.2830  -29.9630 C   0  0  0  0  0  0  0  0  0  0  0  0
   -1.3580   24.3240  -29.0100 C   0  0  0  0  0  0  0  0  0  0  0  0
   -2.2710   25.2980  -28.4990 N   0  0  0  0  0  0  0  0  0  0  0  0
   -0.1520   24.3690  -28.6500 O   0  0  0  0  0  0  0  0  0  0  0  0
   -1.0460   22.1840  -30.3590 C   0  0  0  0  0  0  0  0  0  0  0  0
   -1.8560   21.4610  -31.2050 C   0  0  0  0  0  0  0  0  0  0  0  0
   -1.6080   20.2750  -31.8910 C   0  0  0  0  0  0  0  0  0  0  0  0
   -2.6290   19.7600  -32.7080 C   0  0  0  0  0  0  0  0  0  0  0  0
   -3.8640   20.4450  -32.8380 C   0  0  0  0  0  0  0  0  0  0  0  0
   -4.9650   19.8680  -33.6840 C   0  0  0  0  0  0  0  0  0  0  0  0
   -5.9090   19.0190  -32.8250 C   0  0  0  0  0  0  0  0  0  0  0  0
   -7.3680   19.4480  -33.0130 C   0  0  0  0  0  0  0  0  0  0  0  0
   -7.9830   19.7150  -31.6970 N   0  0  0  0  0  0  0  0  0  0  0  0
   -9.0940   18.7920  -31.4330 C   0  0  0  0  0  0  0  0  0  0  0  0
   -8.5550   21.3670  -31.5870 S   0  0  0  0  0  0  0  0  0  0  0  0
   -7.3950   22.5230  -32.2950 C   0  0  0  0  0  0  0  0  0  0  0  0
   -9.8590   21.4840  -32.3250 O   0  0  0  0  0  0  0  0  0  0  0  0
   -8.7850   21.7380  -30.1490 O   0  0  0  0  0  0  0  0  0  0  0  0
   -4.0810   21.6420  -32.1210 C   0  0  0  0  0  0  0  0  0  0  0  0
   -3.0550   22.1180  -31.3000 C   0  0  0  0  0  0  0  0  0  0  0  0
   -7.4047   24.4163  -29.4163 H   0  0  0  0  0  0  0  0  0  0  0  0
   -6.2804   25.7660  -30.1540 H   0  0  0  0  0  0  0  0  0  0  0  0
   -5.6068   22.8213  -29.5592 H   0  0  0  0  0  0  0  0  0  0  0  0
   -3.2900   25.2610  -28.7160 H   0  0  0  0  0  0  0  0  0  0  0  0
   -1.9280   26.0470  -27.8560 H   0  0  0  0  0  0  0  0  0  0  0  0
   -0.0149   21.9461  -30.0586 H   0  0  0  0  0  0  0  0  0  0  0  0
   -0.6423   19.7569  -31.7964 H   0  0  0  0  0  0  0  0  0  0  0  0
   -2.4688   18.8172  -33.2515 H   0  0  0  0  0  0  0  0  0  0  0  0
   -5.5343   20.6877  -34.1465 H   0  0  0  0  0  0  0  0  0  0  0  0
   -4.5204   19.2307  -34.4626 H   0  0  0  0  0  0  0  0  0  0  0  0
   -5.8055   17.9630  -33.1152 H   0  0  0  0  0  0  0  0  0  0  0  0
   -5.6386   19.1598  -31.7681 H   0  0  0  0  0  0  0  0  0  0  0  0
   -7.4044   20.3610  -33.6254 H   0  0  0  0  0  0  0  0  0  0  0  0
   -7.9221   18.6423  -33.5168 H   0  0  0  0  0  0  0  0  0  0  0  0
   -9.2280   18.6807  -30.3469 H   0  0  0  0  0  0  0  0  0  0  0  0
  -10.0171   19.1928  -31.8772 H   0  0  0  0  0  0  0  0  0  0  0  0
   -8.8692   17.8111  -31.8772 H   0  0  0  0  0  0  0  0  0  0  0  0
   -6.8651   23.0511  -31.4886 H   0  0  0  0  0  0  0  0  0  0  0  0
   -6.6684   21.9791  -32.9165 H   0  0  0  0  0  0  0  0  0  0  0  0
   -7.9363   23.2515  -32.9165 H   0  0  0  0  0  0  0  0  0  0  0  0
   -5.0333   22.1859  -32.2065 H   0  0  0  0  0  0  0  0  0  0  0  0
  1  2  2  0
  2  3  1  0
  3  4  2  0
  3  5  1  0
  5  6  1  0
  6  7  1  0
  7  8  1  0
  7  9  2  0
  6 10  2  0
 10 11  1  0
 11 12  2  0
 12 13  1  0
 13 14  2  0
 14 15  1  0
 15 16  1  0
 16 17  1  0
 17 18  1  0
 18 19  1  0
 18 20  1  0
 20 21  1  0
 20 22  2  0
 20 23  2  0
 14 24  1  0
 24 25  2  0
 25  5  1  0
 25 11  1  0
  1 26  1  0
  1 27  1  0
  2 28  1  0
  8 29  1  0
  8 30  1  0
 10 31  1  0
 12 32  1  0
 13 33  1  0
 15 34  1  0
 15 35  1  0
 16 36  1  0
 16 37  1  0
 17 38  1  0
 17 39  1  0
 19 40  1  0
 19 41  1  0
 19 42  1  0
 21 43  1  0
 21 44  1  0
 21 45  1  0
 24 46  1  0
M  END
>  <UniqueID>  (11) 
11

>  <SMILES>  (11) 
C=CC(=O)n1c(C(N)=O)cc2ccc(CCCN(C)S(C)(=O)=O)cc21

>  <Energy>  (11) 
75.01067058804563

>  <Genealogy>  (11) 
C=CC(=O)n1c(C(N)=O)cc2ccc(CCCN(C)S(C)(=O)=O)cc21 (3D coordinates assigned)
C=CC(=O)n1c(C(N)=O)cc2ccc(CCCN(C)S(C)(=O)=O)cc21 (optimized conformer: 75.01067058804563 kcal/mol)

>  <smiles>  (11) 
C=CC(=O)n1c(C(N)=O)cc2ccc(CCCN(C)S(C)(=O)=O)cc21

>  <score_type>  (11) 
oracle

>  <origin>  (11) 
adg

>  <m_score__min__energy>  (11) 
-9.0899999999999999

>  <m_primary>  (11) 
energy

$$$$
11:0
     RDKit          3D

 36 38  0  0  0  0  0  0  0  0999 V2000
   -3.0590   21.7060  -29.1060 C   0  0  0  0  0  0  0  0  0  0  0  0
   -3.3770   21.8950  -30.3850 C   0  0  0  0  0  0  0  0  0  0  0  0
   -4.0990   23.0930  -30.8550 C   0  0  0  0  0  0  0  0  0  0  0  0
   -3.4890   24.1880  -31.0000 O   0  0  0  0  0  0  0  0  0  0  0  0
   -5.4960   23.0130  -31.1820 N   0  0  0  0  0  0  0  0  0  0  0  0
   -6.4810   23.8750  -30.8050 C   0  0  0  0  0  0  0  0  0  0  0  0
   -6.2840   25.1560  -30.0950 C   0  0  0  0  0  0  0  0  0  0  0  0
   -5.2540   26.0670  -30.4800 N   0  0  0  0  0  0  0  0  0  0  0  0
   -7.0700   25.4720  -29.1630 O   0  0  0  0  0  0  0  0  0  0  0  0
   -7.7290   23.3960  -31.1980 C   0  0  0  0  0  0  0  0  0  0  0  0
   -7.4760   22.2040  -31.8370 C   0  0  0  0  0  0  0  0  0  0  0  0
   -8.3580   21.2910  -32.4090 C   0  0  0  0  0  0  0  0  0  0  0  0
   -7.8220   20.1140  -32.9580 C   0  0  0  0  0  0  0  0  0  0  0  0
   -6.4280   19.8610  -32.9040 C   0  0  0  0  0  0  0  0  0  0  0  0
   -5.8710   18.6210  -33.4840 C   0  0  0  0  0  0  0  0  0  0  0  0
   -5.4840   18.6150  -34.8360 C   0  0  0  0  0  0  0  0  0  0  0  0
   -4.9670   17.4560  -35.4200 C   0  0  0  0  0  0  0  0  0  0  0  0
   -4.8220   16.2950  -34.6600 C   0  0  0  0  0  0  0  0  0  0  0  0
   -5.1890   16.2900  -33.3130 C   0  0  0  0  0  0  0  0  0  0  0  0
   -5.7090   17.4470  -32.7160 C   0  0  0  0  0  0  0  0  0  0  0  0
   -6.1090   17.3870  -30.8390 Br  0  0  0  0  0  0  0  0  0  0  0  0
   -5.5650   20.8140  -32.3210 C   0  0  0  0  0  0  0  0  0  0  0  0
   -6.1210   21.9910  -31.8080 C   0  0  0  0  0  0  0  0  0  0  0  0
   -2.5199   20.7967  -28.8019 H   0  0  0  0  0  0  0  0  0  0  0  0
   -3.3354   22.4592  -28.3534 H   0  0  0  0  0  0  0  0  0  0  0  0
   -3.0904   21.1283  -31.1199 H   0  0  0  0  0  0  0  0  0  0  0  0
   -4.7110   25.9310  -31.3610 H   0  0  0  0  0  0  0  0  0  0  0  0
   -5.0990   26.9410  -29.9310 H   0  0  0  0  0  0  0  0  0  0  0  0
   -8.7079   23.8698  -31.0327 H   0  0  0  0  0  0  0  0  0  0  0  0
   -9.4405   21.4851  -32.4304 H   0  0  0  0  0  0  0  0  0  0  0  0
   -8.4904   19.3817  -33.4344 H   0  0  0  0  0  0  0  0  0  0  0  0
   -5.5891   19.5296  -35.4381 H   0  0  0  0  0  0  0  0  0  0  0  0
   -4.6739   17.4588  -36.4802 H   0  0  0  0  0  0  0  0  0  0  0  0
   -4.4180   15.3825  -35.1227 H   0  0  0  0  0  0  0  0  0  0  0  0
   -5.0695   15.3733  -32.7169 H   0  0  0  0  0  0  0  0  0  0  0  0
   -4.4807   20.6354  -32.2712 H   0  0  0  0  0  0  0  0  0  0  0  0
  1  2  2  0
  2  3  1  0
  3  4  2  0
  3  5  1  0
  5  6  1  0
  6  7  1  0
  7  8  1  0
  7  9  2  0
  6 10  2  0
 10 11  1  0
 11 12  2  0
 12 13  1  0
 13 14  2  0
 14 15  1  0
 15 16  2  0
 16 17  1  0
 17 18  2  0
 18 19  1  0
 19 20  2  0
 20 21  1  0
 14 22  1  0
 22 23  2  0
 23  5  1  0
 23 11  1  0
 20 15  1  0
  1 24  1  0
  1 25  1  0
  2 26  1  0
  8 27  1  0
  8 28  1  0
 10 29  1  0
 12 30  1  0
 13 31  1  0
 16 32  1  0
 17 33  1  0
 18 34  1  0
 19 35  1  0
 22 36  1  0
M  END
>  <UniqueID>  (12) 
12

>  <SMILES>  (12) 
C=CC(=O)n1c(C(N)=O)cc2ccc(-c3ccccc3Br)cc21

>  <Energy>  (12) 
85.21516309187965

>  <Genealogy>  (12) 
C=CC(=O)n1c(C(N)=O)cc2ccc(-c3ccccc3Br)cc21 (3D coordinates assigned)
C=CC(=O)n1c(C(N)=O)cc2ccc(-c3ccccc3Br)cc21 (optimized conformer: 85.21516309187965 kcal/mol)

>  <smiles>  (12) 
C=CC(=O)n1c(C(N)=O)cc2ccc(-c3ccccc3Br)cc21

>  <score_type>  (12) 
oracle

>  <origin>  (12) 
adg

>  <m_score__min__energy>  (12) 
-9.5199999999999996

>  <m_primary>  (12) 
energy

$$$$
12:0
     RDKit          3D

 43 45  0  0  0  0  0  0  0  0999 V2000
   -9.1420   20.5550  -32.2950 C   0  0  0  0  0  0  0  0  0  0  0  0
   -8.9750   19.1160  -32.5180 N   0  0  0  0  0  0  0  0  0  0  0  0
   -7.6640   18.6510  -32.0350 C   0  0  1  0  0  0  0  0  0  0  0  0
   -6.8900   17.8930  -33.1200 C   0  0  0  0  0  0  0  0  0  0  0  0
   -5.4240   18.2220  -32.8770 C   0  0  0  0  0  0  0  0  0  0  0  0
   -5.4200   19.4430  -32.0850 N   0  0  0  0  0  0  0  0  0  0  0  0
   -4.2250   20.1920  -31.7620 C   0  0  0  0  0  0  0  0  0  0  0  0
   -2.9840   19.8780  -32.3830 C   0  0  0  0  0  0  0  0  0  0  0  0
   -1.8160   20.5940  -32.0690 C   0  0  0  0  0  0  0  0  0  0  0  0
   -1.9120   21.6230  -31.1380 C   0  0  0  0  0  0  0  0  0  0  0  0
   -0.9420   22.4620  -30.6390 C   0  0  0  0  0  0  0  0  0  0  0  0
   -1.6000   23.2920  -29.7330 C   0  0  0  0  0  0  0  0  0  0  0  0
   -0.9350   24.3870  -28.9940 C   0  0  0  0  0  0  0  0  0  0  0  0
   -1.4900   25.7000  -28.9620 N   0  0  0  0  0  0  0  0  0  0  0  0
    0.1540   24.1650  -28.3990 O   0  0  0  0  0  0  0  0  0  0  0  0
   -2.9250   22.9780  -29.6780 N   0  0  0  0  0  0  0  0  0  0  0  0
   -3.9310   23.5650  -28.8380 C   0  0  0  0  0  0  0  0  0  0  0  0
   -3.7200   23.6720  -27.6000 O   0  0  0  0  0  0  0  0  0  0  0  0
   -5.1780   24.1450  -29.4380 C   0  0  0  0  0  0  0  0  0  0  0  0
   -4.8890   24.8210  -30.7430 C   0  0  0  0  0  0  0  0  0  0  0  0
   -3.9430   25.6480  -30.8310 O   0  0  0  0  0  0  0  0  0  0  0  0
   -5.6880   24.5740  -31.8520 O   0  0  0  0  0  0  0  0  0  0  0  0
   -3.0980   21.9520  -30.5400 C   0  0  0  0  0  0  0  0  0  0  0  0
   -4.2720   21.2480  -30.8190 C   0  0  0  0  0  0  0  0  0  0  0  0
   -6.7600   19.8280  -31.6670 C   0  0  0  0  0  0  0  0  0  0  0  0
   -9.1656   20.7582  -31.2142 H   0  0  0  0  0  0  0  0  0  0  0  0
   -8.3007   21.0969  -32.7517 H   0  0  0  0  0  0  0  0  0  0  0  0
  -10.0850   20.8898  -32.7517 H   0  0  0  0  0  0  0  0  0  0  0  0
   -9.0140   18.9630  -33.5540 H   0  0  0  0  0  0  0  0  0  0  0  0
   -7.8876   18.0083  -31.1707 H   0  0  0  0  0  0  0  0  0  0  0  0
   -7.0614   16.8102  -33.0293 H   0  0  0  0  0  0  0  0  0  0  0  0
   -7.2120   18.1844  -34.1306 H   0  0  0  0  0  0  0  0  0  0  0  0
   -4.9341   17.4058  -32.3258 H   0  0  0  0  0  0  0  0  0  0  0  0
   -4.8747   18.3491  -33.8215 H   0  0  0  0  0  0  0  0  0  0  0  0
   -2.9380   19.0626  -33.1199 H   0  0  0  0  0  0  0  0  0  0  0  0
   -0.8553   20.3481  -32.5450 H   0  0  0  0  0  0  0  0  0  0  0  0
    0.1265   22.4749  -30.8999 H   0  0  0  0  0  0  0  0  0  0  0  0
   -1.2360   26.4080  -29.6860 H   0  0  0  0  0  0  0  0  0  0  0  0
   -5.9046   23.3364  -29.6062 H   0  0  0  0  0  0  0  0  0  0  0  0
   -5.5837   24.8932  -28.7412 H   0  0  0  0  0  0  0  0  0  0  0  0
   -5.2149   21.5087  -30.3160 H   0  0  0  0  0  0  0  0  0  0  0  0
   -6.7864   20.0070  -30.5820 H   0  0  0  0  0  0  0  0  0  0  0  0
   -7.0858   20.7578  -32.1562 H   0  0  0  0  0  0  0  0  0  0  0  0
  1  2  1  0
  2  3  1  0
  3  4  1  0
  4  5  1  0
  5  6  1  0
  6  7  1  0
  7  8  2  0
  8  9  1  0
  9 10  2  0
 10 11  1  0
 11 12  2  0
 12 13  1  0
 13 14  1  0
 13 15  2  0
 12 16  1  0
 16 17  1  0
 17 18  2  0
 17 19  1  0
 19 20  1  0
 20 21  2  0
 20 22  1  0
 16 23  1  0
 23 24  2  0
  6 25  1  0
 25  3  1  0
 24  7  1  0
 23 10  1  0
  1 26  1  0
  1 27  1  0
  1 28  1  0
  2 29  1  0
  3 30  1  1
  4 31  1  0
  4 32  1  0
  5 33  1  0
  5 34  1  0
  8 35  1  0
  9 36  1  0
 11 37  1  0
 14 38  1  0
 19 39  1  0
 19 40  1  0
 24 41  1  0
 25 42  1  0
 25 43  1  0
M  CHG  2  14  -1  22  -1
M  END
>  <UniqueID>  (13) 
13

>  <SMILES>  (13) 
CN[C@H]1CCN(c2ccc3cc(C([NH-])=O)n(C(=O)CC(=O)[O-])c3c2)C1

>  <Energy>  (13) 
83.93164019294571

>  <Genealogy>  (13) 
CNC1CCN(c2ccc3cc(C([NH-])=O)n(C(=O)CC(=O)[O-])c3c2)C1 (protonated)
CN[C@H]1CCN(c2ccc3cc(C([NH-])=O)n(C(=O)CC(=O)[O-])c3c2)C1 (chirality)
CN[C@H]1CCN(c2ccc3cc(C([NH-])=O)n(C(=O)CC(=O)[O-])c3c2)C1 (3D coordinates assigned)
CN[C@H]1CCN(c2ccc3cc(C([NH-])=O)n(C(=O)CC(=O)[O-])c3c2)C1 (nonaromatic ring conformer: 83.93164019294571 kcal/mol)

>  <smiles>  (13) 
CNC1CCN(c2ccc3cc(C(N)=O)n(C(=O)CC(=O)O)c3c2)C1

>  <score_type>  (13) 
oracle

>  <origin>  (13) 
adg

>  <m_score__min__energy>  (13) 
-12.84

>  <m_primary>  (13) 
energy

$$$$
13:0
     RDKit          3D

 28 29  0  0  0  0  0  0  0  0999 V2000
   -4.5000   25.8600  -30.7570 N   0  0  0  0  0  0  0  0  0  0  0  0
   -5.3160   24.8570  -30.1560 C   0  0  0  0  0  0  0  0  0  0  0  0
   -5.8890   25.1020  -29.0620 O   0  0  0  0  0  0  0  0  0  0  0  0
   -5.4580   23.5370  -30.8040 C   0  0  0  0  0  0  0  0  0  0  0  0
   -6.4590   23.2280  -31.7230 C   0  0  0  0  0  0  0  0  0  0  0  0
   -6.1850   21.9460  -32.1450 C   0  0  0  0  0  0  0  0  0  0  0  0
   -6.8500   21.1430  -33.0660 C   0  0  0  0  0  0  0  0  0  0  0  0
   -6.3410   19.8540  -33.3040 C   0  0  0  0  0  0  0  0  0  0  0  0
   -5.1970   19.3850  -32.6070 C   0  0  0  0  0  0  0  0  0  0  0  0
   -4.6340   18.0180  -32.9050 C   0  0  0  0  0  0  0  0  0  0  0  0
   -3.2580   18.0150  -32.7560 F   0  0  0  0  0  0  0  0  0  0  0  0
   -4.9280   17.6410  -34.2040 F   0  0  0  0  0  0  0  0  0  0  0  0
   -5.1850   17.0990  -32.0330 F   0  0  0  0  0  0  0  0  0  0  0  0
   -4.5360   20.2430  -31.6960 C   0  0  0  0  0  0  0  0  0  0  0  0
   -5.0600   21.5220  -31.4870 C   0  0  0  0  0  0  0  0  0  0  0  0
   -4.6070   22.4830  -30.6560 N   0  0  0  0  0  0  0  0  0  0  0  0
   -3.4700   22.3770  -29.7860 C   0  0  0  0  0  0  0  0  0  0  0  0
   -3.3970   21.4140  -28.9760 O   0  0  0  0  0  0  0  0  0  0  0  0
   -2.4170   23.4090  -29.7970 C   0  0  0  0  0  0  0  0  0  0  0  0
   -1.2720   23.1280  -30.2420 O   0  0  0  0  0  0  0  0  0  0  0  0
   -2.6830   24.7300  -29.3160 N   0  0  0  0  0  0  0  0  0  0  0  0
   -1.7140   25.6730  -29.3360 O   0  0  0  0  0  0  0  0  0  0  0  0
   -3.5020   25.6700  -30.9930 H   0  0  0  0  0  0  0  0  0  0  0  0
   -7.2915   23.8716  -32.0434 H   0  0  0  0  0  0  0  0  0  0  0  0
   -7.7459   21.5051  -33.5916 H   0  0  0  0  0  0  0  0  0  0  0  0
   -6.8352   19.2015  -34.0389 H   0  0  0  0  0  0  0  0  0  0  0  0
   -3.6315   19.9113  -31.1651 H   0  0  0  0  0  0  0  0  0  0  0  0
   -3.6240   24.9810  -28.9400 H   0  0  0  0  0  0  0  0  0  0  0  0
  1  2  1  0
  2  3  2  0
  2  4  1  0
  4  5  2  0
  5  6  1  0
  6  7  2  0
  7  8  1  0
  8  9  2  0
  9 10  1  0
 10 11  1  0
 10 12  1  0
 10 13  1  0
  9 14  1  0
 14 15  2  0
 15 16  1  0
 16 17  1  0
 17 18  2  0
 17 19  1  0
 19 20  2  0
 19 21  1  0
 21 22  1  0
 16  4  1  0
 15  6  1  0
  1 23  1  0
  5 24  1  0
  7 25  1  0
  8 26  1  0
 14 27  1  0
 21 28  1  0
M  CHG  2   1  -1  22  -1
M  END
>  <UniqueID>  (14) 
14

>  <SMILES>  (14) 
[NH-]C(=O)c1cc2ccc(C(F)(F)F)cc2n1C(=O)C(=O)N[O-]

>  <Energy>  (14) 
67.62539618603367

>  <Genealogy>  (14) 
[NH-]C(=O)c1cc2ccc(C(F)(F)F)cc2n1C(=O)C(=O)N[O-] (protonated)
[NH-]C(=O)c1cc2ccc(C(F)(F)F)cc2n1C(=O)C(=O)N[O-] (3D coordinates assigned)
[NH-]C(=O)c1cc2ccc(C(F)(F)F)cc2n1C(=O)C(=O)N[O-] (optimized conformer: 67.62539618603367 kcal/mol)

>  <smiles>  (14) 
NC(=O)c1cc2ccc(C(F)(F)F)cc2n1C(=O)C(=O)NO

>  <score_type>  (14) 
oracle

>  <origin>  (14) 
adg

>  <m_score__min__energy>  (14) 
-11.23

>  <m_primary>  (14) 
energy

$$$$
14:0
     RDKit          3D

 38 40  0  0  0  0  0  0  0  0999 V2000
   -4.9140   19.7980  -33.4780 C   0  0  0  0  0  0  0  0  0  0  0  0
   -3.7900   20.3760  -32.6720 C   0  0  0  0  0  0  0  0  0  0  0  0
   -2.5150   19.7550  -32.6820 C   0  0  0  0  0  0  0  0  0  0  0  0
   -1.4410   20.3150  -31.9690 C   0  0  0  0  0  0  0  0  0  0  0  0
   -1.6700   21.4920  -31.2630 C   0  0  0  0  0  0  0  0  0  0  0  0
   -0.8060   22.2600  -30.5150 C   0  0  0  0  0  0  0  0  0  0  0  0
   -1.5670   23.3350  -30.0590 C   0  0  0  0  0  0  0  0  0  0  0  0
   -1.0380   24.3930  -29.1690 C   0  0  0  0  0  0  0  0  0  0  0  0
   -1.7390   25.6190  -28.9800 N   0  0  0  0  0  0  0  0  0  0  0  0
    0.0420   24.2020  -28.5470 O   0  0  0  0  0  0  0  0  0  0  0  0
   -2.8500   23.2320  -30.5060 N   0  0  0  0  0  0  0  0  0  0  0  0
   -3.9350   24.1430  -30.2840 C   0  0  0  0  0  0  0  0  0  0  0  0
   -3.9170   25.2810  -30.8250 O   0  0  0  0  0  0  0  0  0  0  0  0
   -5.0540   23.7850  -29.3530 C   0  0  0  0  0  0  0  0  0  0  0  0
   -5.8840   22.7920  -29.9500 O   0  0  0  0  0  0  0  0  0  0  0  0
   -6.7290   23.0490  -31.0380 C   0  0  0  0  0  0  0  0  0  0  0  0
   -6.6800   24.1620  -31.6290 O   0  0  0  0  0  0  0  0  0  0  0  0
   -7.6740   22.0090  -31.4950 C   0  0  0  0  0  0  0  0  0  0  0  0
   -7.2980   20.6590  -31.5390 C   0  0  0  0  0  0  0  0  0  0  0  0
   -8.2190   19.7050  -31.9680 C   0  0  0  0  0  0  0  0  0  0  0  0
   -9.4670   20.0940  -32.3360 N   0  0  0  0  0  0  0  0  0  0  0  0
   -9.8340   21.3750  -32.2970 N   0  0  0  0  0  0  0  0  0  0  0  0
   -8.9770   22.3480  -31.8860 C   0  0  0  0  0  0  0  0  0  0  0  0
   -2.8970   22.1020  -31.2440 C   0  0  0  0  0  0  0  0  0  0  0  0
   -3.9790   21.5790  -31.9570 C   0  0  0  0  0  0  0  0  0  0  0  0
   -5.6848   19.4016  -32.8007 H   0  0  0  0  0  0  0  0  0  0  0  0
   -5.3517   20.5828  -34.1124 H   0  0  0  0  0  0  0  0  0  0  0  0
   -4.5303   18.9854  -34.1124 H   0  0  0  0  0  0  0  0  0  0  0  0
   -2.3653   18.8267  -33.2529 H   0  0  0  0  0  0  0  0  0  0  0  0
   -0.4500   19.8376  -31.9691 H   0  0  0  0  0  0  0  0  0  0  0  0
    0.2589   22.0663  -30.3189 H   0  0  0  0  0  0  0  0  0  0  0  0
   -2.7440   25.7110  -29.2480 H   0  0  0  0  0  0  0  0  0  0  0  0
   -4.6358   23.3940  -28.4137 H   0  0  0  0  0  0  0  0  0  0  0  0
   -5.6550   24.6831  -29.1476 H   0  0  0  0  0  0  0  0  0  0  0  0
   -6.2846   20.3554  -31.2375 H   0  0  0  0  0  0  0  0  0  0  0  0
   -7.9366   18.6426  -32.0083 H   0  0  0  0  0  0  0  0  0  0  0  0
   -9.3052   23.3976  -31.8605 H   0  0  0  0  0  0  0  0  0  0  0  0
   -4.9526   22.0910  -31.9612 H   0  0  0  0  0  0  0  0  0  0  0  0
  1  2  1  0
  2  3  2  0
  3  4  1  0
  4  5  2  0
  5  6  1  0
  6  7  2  0
  7  8  1  0
  8  9  1  0
  8 10  2  0
  7 11  1  0
 11 12  1  0
 12 13  2  0
 12 14  1  0
 14 15  1  0
 15 16  1  0
 16 17  2  0
 16 18  1  0
 18 19  2  0
 19 20  1  0
 20 21  2  0
 21 22  1  0
 22 23  2  0
 11 24  1  0
 24 25  2  0
 25  2  1  0
 24  5  1  0
 23 18  1  0
  1 26  1  0
  1 27  1  0
  1 28  1  0
  3 29  1  0
  4 30  1  0
  6 31  1  0
  9 32  1  0
 14 33  1  0
 14 34  1  0
 19 35  1  0
 20 36  1  0
 23 37  1  0
 25 38  1  0
M  CHG  1   9  -1
M  END
>  <UniqueID>  (15) 
15

>  <SMILES>  (15) 
Cc1ccc2cc(C([NH-])=O)n(C(=O)COC(=O)c3ccnnc3)c2c1

>  <Energy>  (15) 
78.55055522127154

>  <Genealogy>  (15) 
Cc1ccc2cc(C([NH-])=O)n(C(=O)COC(=O)c3ccnnc3)c2c1 (protonated)
Cc1ccc2cc(C([NH-])=O)n(C(=O)COC(=O)c3ccnnc3)c2c1 (3D coordinates assigned)
Cc1ccc2cc(C([NH-])=O)n(C(=O)COC(=O)c3ccnnc3)c2c1 (optimized conformer: 78.55055522127154 kcal/mol)

>  <smiles>  (15) 
Cc1ccc2cc(C(N)=O)n(C(=O)COC(=O)c3ccnnc3)c2c1

>  <score_type>  (15) 
oracle

>  <origin>  (15) 
adg

>  <m_score__min__energy>  (15) 
-10.76

>  <m_primary>  (15) 
energy

$$$$
15:0
     RDKit          3D

 38 39  0  0  0  0  0  0  0  0999 V2000
   -1.6180   20.7780  -33.5660 C   0  0  0  0  0  0  0  0  0  0  0  0
   -2.2940   21.2300  -32.3980 O   0  0  0  0  0  0  0  0  0  0  0  0
   -3.5850   21.7630  -32.4360 C   0  0  0  0  0  0  0  0  0  0  0  0
   -4.3330   21.5590  -33.4310 O   0  0  0  0  0  0  0  0  0  0  0  0
   -4.0750   22.5560  -31.2990 C   0  0  0  0  0  0  0  0  0  0  0  0
   -3.2640   22.9350  -30.4130 O   0  0  0  0  0  0  0  0  0  0  0  0
   -5.4640   22.9000  -31.1840 N   0  0  0  0  0  0  0  0  0  0  0  0
   -5.9970   24.1100  -30.8520 C   0  0  0  0  0  0  0  0  0  0  0  0
   -5.2320   25.3070  -30.4470 C   0  0  0  0  0  0  0  0  0  0  0  0
   -3.8750   25.4550  -30.8610 N   0  0  0  0  0  0  0  0  0  0  0  0
   -5.7670   26.2090  -29.7520 O   0  0  0  0  0  0  0  0  0  0  0  0
   -7.3890   24.0560  -30.8950 C   0  0  0  0  0  0  0  0  0  0  0  0
   -7.6940   22.7670  -31.2710 C   0  0  0  0  0  0  0  0  0  0  0  0
   -8.9300   22.1600  -31.4780 C   0  0  0  0  0  0  0  0  0  0  0  0
   -8.9430   20.8160  -31.8860 C   0  0  0  0  0  0  0  0  0  0  0  0
   -7.7310   20.1120  -32.0920 C   0  0  0  0  0  0  0  0  0  0  0  0
   -7.7540   18.6630  -32.5090 C   0  0  0  0  0  0  0  0  0  0  0  0
   -6.3680   18.1740  -32.9570 C   0  0  0  0  0  0  0  0  0  0  0  0
   -5.9010   18.8910  -34.1530 N   0  0  0  0  0  0  0  0  0  0  0  0
   -4.7920   18.1910  -34.7330 C   0  0  0  0  0  0  0  0  0  0  0  0
   -4.9670   17.4250  -35.7180 O   0  0  0  0  0  0  0  0  0  0  0  0
   -3.5070   18.3900  -34.2400 O   0  0  0  0  0  0  0  0  0  0  0  0
   -6.4960   20.7600  -31.8700 C   0  0  0  0  0  0  0  0  0  0  0  0
   -6.5150   22.0910  -31.4430 C   0  0  0  0  0  0  0  0  0  0  0  0
   -0.7363   20.1885  -33.2743 H   0  0  0  0  0  0  0  0  0  0  0  0
   -2.2968   20.1515  -34.1632 H   0  0  0  0  0  0  0  0  0  0  0  0
   -1.2984   21.6447  -34.1632 H   0  0  0  0  0  0  0  0  0  0  0  0
   -3.0910   25.1230  -30.2560 H   0  0  0  0  0  0  0  0  0  0  0  0
   -8.0946   24.8707  -30.6751 H   0  0  0  0  0  0  0  0  0  0  0  0
   -9.8671   22.7158  -31.3267 H   0  0  0  0  0  0  0  0  0  0  0  0
   -9.9037   20.3051  -32.0472 H   0  0  0  0  0  0  0  0  0  0  0  0
   -8.0881   18.0529  -31.6569 H   0  0  0  0  0  0  0  0  0  0  0  0
   -8.4424   18.5643  -33.3613 H   0  0  0  0  0  0  0  0  0  0  0  0
   -5.6503   18.3380  -32.1397 H   0  0  0  0  0  0  0  0  0  0  0  0
   -6.4441   17.1050  -33.2048 H   0  0  0  0  0  0  0  0  0  0  0  0
   -5.6020   19.8620  -33.8980 H   0  0  0  0  0  0  0  0  0  0  0  0
   -6.6670   18.9430  -34.8640 H   0  0  0  0  0  0  0  0  0  0  0  0
   -5.5445   20.2315  -32.0288 H   0  0  0  0  0  0  0  0  0  0  0  0
  1  2  1  0
  2  3  1  0
  3  4  2  0
  3  5  1  0
  5  6  2  0
  5  7  1  0
  7  8  1  0
  8  9  1  0
  9 10  1  0
  9 11  2  0
  8 12  2  0
 12 13  1  0
 13 14  2  0
 14 15  1  0
 15 16  2  0
 16 17  1  0
 17 18  1  0
 18 19  1  0
 19 20  1  0
 20 21  2  0
 20 22  1  0
 16 23  1  0
 23 24  2  0
 24  7  1  0
 24 13  1  0
  1 25  1  0
  1 26  1  0
  1 27  1  0
 10 28  1  0
 12 29  1  0
 14 30  1  0
 15 31  1  0
 17 32  1  0
 17 33  1  0
 18 34  1  0
 18 35  1  0
 19 36  1  0
 19 37  1  0
 23 38  1  0
M  CHG  3  10  -1  19   1  22  -1
M  END
>  <UniqueID>  (16) 
16

>  <SMILES>  (16) 
COC(=O)C(=O)n1c(C([NH-])=O)cc2ccc(CC[NH2+]C(=O)[O-])cc21

>  <Energy>  (16) 
71.72652032839041

>  <Genealogy>  (16) 
COC(=O)C(=O)n1c(C([NH-])=O)cc2ccc(CC[NH2+]C(=O)[O-])cc21 (protonated)
COC(=O)C(=O)n1c(C([NH-])=O)cc2ccc(CC[NH2+]C(=O)[O-])cc21 (3D coordinates assigned)
COC(=O)C(=O)n1c(C([NH-])=O)cc2ccc(CC[NH2+]C(=O)[O-])cc21 (optimized conformer: 71.72652032839041 kcal/mol)

>  <smiles>  (16) 
COC(=O)C(=O)n1c(C(N)=O)cc2ccc(CCNC(=O)O)cc21

>  <score_type>  (16) 
oracle

>  <origin>  (16) 
adg

>  <m_score__min__energy>  (16) 
-9.5600000000000005

>  <m_primary>  (16) 
energy

$$$$
16:0
     RDKit          3D

 30 31  0  0  0  0  0  0  0  0999 V2000
   -4.4900   22.3260  -33.0580 N   0  0  0  0  0  0  0  0  0  0  0  0
   -4.2570   21.4700  -31.9390 C   0  0  0  0  0  0  0  0  0  0  0  0
   -4.6160   20.2640  -31.9990 O   0  0  0  0  0  0  0  0  0  0  0  0
   -3.6660   21.9900  -30.6890 C   0  0  0  0  0  0  0  0  0  0  0  0
   -2.8870   21.2170  -29.8330 C   0  0  0  0  0  0  0  0  0  0  0  0
   -2.5930   22.0380  -28.7700 C   0  0  0  0  0  0  0  0  0  0  0  0
   -1.8270   21.7880  -27.6350 C   0  0  0  0  0  0  0  0  0  0  0  0
   -1.6510   22.8360  -26.7160 C   0  0  0  0  0  0  0  0  0  0  0  0
   -2.2380   24.1050  -26.9480 C   0  0  0  0  0  0  0  0  0  0  0  0
   -1.9970   25.2330  -25.9770 C   0  0  0  0  0  0  0  0  0  0  0  0
   -0.9230   26.2030  -26.4870 C   0  0  0  0  0  0  0  0  0  0  0  0
   -0.5070   25.8780  -27.8900 C   0  0  0  0  0  0  0  0  0  0  0  0
    0.4930   25.1430  -28.1000 O   0  0  0  0  0  0  0  0  0  0  0  0
   -1.1980   26.4230  -28.9650 O   0  0  0  0  0  0  0  0  0  0  0  0
   -3.0010   24.3240  -28.1160 C   0  0  0  0  0  0  0  0  0  0  0  0
   -3.1770   23.2580  -29.0060 C   0  0  0  0  0  0  0  0  0  0  0  0
   -3.8380   23.2440  -30.1860 N   0  0  0  0  0  0  0  0  0  0  0  0
   -4.4730   24.3620  -30.8320 C   0  0  0  0  0  0  0  0  0  0  0  0
   -5.5730   24.2180  -31.4250 O   0  0  0  0  0  0  0  0  0  0  0  0
   -3.8800   25.6180  -30.8010 O   0  0  0  0  0  0  0  0  0  0  0  0
   -4.8750   21.9350  -33.9460 H   0  0  0  0  0  0  0  0  0  0  0  0
   -4.3580   23.3600  -32.9830 H   0  0  0  0  0  0  0  0  0  0  0  0
   -2.5735   20.1724  -29.9763 H   0  0  0  0  0  0  0  0  0  0  0  0
   -1.3736   20.8007  -27.4629 H   0  0  0  0  0  0  0  0  0  0  0  0
   -1.0522   22.6702  -25.8083 H   0  0  0  0  0  0  0  0  0  0  0  0
   -2.9369   25.7860  -25.8329 H   0  0  0  0  0  0  0  0  0  0  0  0
   -1.6446   24.7995  -25.0294 H   0  0  0  0  0  0  0  0  0  0  0  0
   -1.3255   27.2264  -26.4621 H   0  0  0  0  0  0  0  0  0  0  0  0
   -0.0405   26.1119  -25.8367 H   0  0  0  0  0  0  0  0  0  0  0  0
   -3.4463   25.3086  -28.3215 H   0  0  0  0  0  0  0  0  0  0  0  0
  1  2  1  0
  2  3  2  0
  2  4  1  0
  4  5  2  0
  5  6  1  0
  6  7  2  0
  7  8  1  0
  8  9  2  0
  9 10  1  0
 10 11  1  0
 11 12  1  0
 12 13  2  0
 12 14  1  0
  9 15  1  0
 15 16  2  0
 16 17  1  0
 17 18  1  0
 18 19  2  0
 18 20  1  0
 17  4  1  0
 16  6  1  0
  1 21  1  0
  1 22  1  0
  5 23  1  0
  7 24  1  0
  8 25  1  0
 10 26  1  0
 10 27  1  0
 11 28  1  0
 11 29  1  0
 15 30  1  0
M  CHG  2  14  -1  20  -1
M  END
>  <UniqueID>  (17) 
17

>  <SMILES>  (17) 
NC(=O)c1cc2ccc(CCC(=O)[O-])cc2n1C(=O)[O-]

>  <Energy>  (17) 
66.8857509261553

>  <Genealogy>  (17) 
NC(=O)c1cc2ccc(CCC(=O)[O-])cc2n1C(=O)[O-] (protonated)
NC(=O)c1cc2ccc(CCC(=O)[O-])cc2n1C(=O)[O-] (3D coordinates assigned)
NC(=O)c1cc2ccc(CCC(=O)[O-])cc2n1C(=O)[O-] (optimized conformer: 66.8857509261553 kcal/mol)

>  <smiles>  (17) 
NC(=O)c1cc2ccc(CCC(=O)O)cc2n1C(=O)O

>  <score_type>  (17) 
oracle

>  <origin>  (17) 
adg

>  <m_score__min__energy>  (17) 
-9.75

>  <m_primary>  (17) 
energy

$$$$
17:0
     RDKit          3D

 36 37  0  0  0  0  0  0  0  0999 V2000
   -6.1310   18.7550  -35.2690 N   0  0  0  0  0  0  0  0  0  0  0  0
   -4.9630   18.3940  -34.5340 C   0  0  0  0  0  0  0  0  0  0  0  0
   -4.4220   17.2760  -34.7410 O   0  0  0  0  0  0  0  0  0  0  0  0
   -4.4100   19.2840  -33.4970 C   0  0  0  0  0  0  0  0  0  0  0  0
   -3.0440   19.4700  -33.2970 C   0  0  0  0  0  0  0  0  0  0  0  0
   -2.9490   20.4230  -32.3080 C   0  0  0  0  0  0  0  0  0  0  0  0
   -1.8250   20.9860  -31.7100 C   0  0  0  0  0  0  0  0  0  0  0  0
   -2.0260   21.9560  -30.7120 C   0  0  0  0  0  0  0  0  0  0  0  0
   -3.3370   22.3480  -30.3400 C   0  0  0  0  0  0  0  0  0  0  0  0
   -3.5400   23.3590  -29.2460 C   0  0  0  0  0  0  0  0  0  0  0  0
   -3.1600   24.7220  -29.7310 C   0  0  0  0  0  0  0  0  0  0  0  0
   -3.8810   25.3170  -30.5750 O   0  0  0  0  0  0  0  0  0  0  0  0
   -1.9880   25.3190  -29.2830 O   0  0  0  0  0  0  0  0  0  0  0  0
   -4.4540   21.7470  -30.9630 C   0  0  0  0  0  0  0  0  0  0  0  0
   -4.2230   20.7910  -31.9580 C   0  0  0  0  0  0  0  0  0  0  0  0
   -5.1320   20.1030  -32.6820 N   0  0  0  0  0  0  0  0  0  0  0  0
   -6.5500   20.3410  -32.7130 C   0  0  0  0  0  0  0  0  0  0  0  0
   -7.0890   20.8040  -33.7520 O   0  0  0  0  0  0  0  0  0  0  0  0
   -7.4070   20.0260  -31.5180 C   0  0  0  0  0  0  0  0  0  0  0  0
   -8.2210   18.7400  -31.7140 C   0  0  0  0  0  0  0  0  0  0  0  0
   -7.4590   17.6890  -32.5230 C   0  0  0  0  0  0  0  0  0  0  0  0
   -6.0950   17.0550  -31.5670 Cl  0  0  0  0  0  0  0  0  0  0  0  0
   -6.4610   18.1520  -36.0550 H   0  0  0  0  0  0  0  0  0  0  0  0
   -6.7480   19.5310  -34.9430 H   0  0  0  0  0  0  0  0  0  0  0  0
   -2.2179   18.9637  -33.8179 H   0  0  0  0  0  0  0  0  0  0  0  0
   -0.8111   20.6815  -32.0089 H   0  0  0  0  0  0  0  0  0  0  0  0
   -1.1584   22.4149  -30.2154 H   0  0  0  0  0  0  0  0  0  0  0  0
   -4.5978   23.3617  -28.9443 H   0  0  0  0  0  0  0  0  0  0  0  0
   -2.9072   23.0925  -28.3866 H   0  0  0  0  0  0  0  0  0  0  0  0
   -5.4784   22.0236  -30.6732 H   0  0  0  0  0  0  0  0  0  0  0  0
   -6.7579   19.9043  -30.6383 H   0  0  0  0  0  0  0  0  0  0  0  0
   -8.1145   20.8569  -31.3802 H   0  0  0  0  0  0  0  0  0  0  0  0
   -8.4622   18.3199  -30.7264 H   0  0  0  0  0  0  0  0  0  0  0  0
   -9.1320   19.0000  -32.2730 H   0  0  0  0  0  0  0  0  0  0  0  0
   -8.1390   16.8633  -32.7795 H   0  0  0  0  0  0  0  0  0  0  0  0
   -7.0712   18.1522  -33.4423 H   0  0  0  0  0  0  0  0  0  0  0  0
  1  2  1  0
  2  3  2  0
  2  4  1  0
  4  5  2  0
  5  6  1  0
  6  7  2  0
  7  8  1  0
  8  9  2  0
  9 10  1  0
 10 11  1  0
 11 12  2  0
 11 13  1  0
  9 14  1  0
 14 15  2  0
 15 16  1  0
 16 17  1  0
 17 18  2  0
 17 19  1  0
 19 20  1  0
 20 21  1  0
 21 22  1  0
 16  4  1  0
 15  6  1  0
  1 23  1  0
  1 24  1  0
  5 25  1  0
  7 26  1  0
  8 27  1  0
 10 28  1  0
 10 29  1  0
 14 30  1  0
 19 31  1  0
 19 32  1  0
 20 33  1  0
 20 34  1  0
 21 35  1  0
 21 36  1  0
M  CHG  1  13  -1
M  END
>  <UniqueID>  (18) 
18

>  <SMILES>  (18) 
NC(=O)c1cc2ccc(CC(=O)[O-])cc2n1C(=O)CCCCl

>  <Energy>  (18) 
72.02523529306404

>  <Genealogy>  (18) 
NC(=O)c1cc2ccc(CC(=O)[O-])cc2n1C(=O)CCCCl (protonated)
NC(=O)c1cc2ccc(CC(=O)[O-])cc2n1C(=O)CCCCl (3D coordinates assigned)
NC(=O)c1cc2ccc(CC(=O)[O-])cc2n1C(=O)CCCCl (optimized conformer: 72.02523529306404 kcal/mol)

>  <smiles>  (18) 
NC(=O)c1cc2ccc(CC(=O)O)cc2n1C(=O)CCCCl

>  <score_type>  (18) 
oracle

>  <origin>  (18) 
adg

>  <m_score__min__energy>  (18) 
-10.01

>  <m_primary>  (18) 
energy

$$$$
18:0
     RDKit          3D

 37 38  0  0  0  0  0  0  0  0999 V2000
   -7.7410   18.1670  -31.5710 C   0  0  0  0  0  0  0  0  0  0  0  0
   -7.9840   17.7330  -32.8900 O   0  0  0  0  0  0  0  0  0  0  0  0
   -7.1020   16.6770  -33.2060 C   0  0  0  0  0  0  0  0  0  0  0  0
   -5.9660   17.2200  -34.0720 C   0  0  0  0  0  0  0  0  0  0  0  0
   -6.1320   18.6550  -34.3090 N   0  0  0  0  0  0  0  0  0  0  0  0
   -5.3970   19.6900  -33.6260 C   0  0  0  0  0  0  0  0  0  0  0  0
   -3.9820   19.7000  -33.7150 C   0  0  0  0  0  0  0  0  0  0  0  0
   -3.2230   20.6810  -33.0560 C   0  0  0  0  0  0  0  0  0  0  0  0
   -3.9040   21.6490  -32.3270 C   0  0  0  0  0  0  0  0  0  0  0  0
   -3.4170   22.6810  -31.5580 C   0  0  0  0  0  0  0  0  0  0  0  0
   -4.5410   23.3130  -31.0350 C   0  0  0  0  0  0  0  0  0  0  0  0
   -4.4760   24.4970  -30.1540 C   0  0  0  0  0  0  0  0  0  0  0  0
   -5.1010   24.5040  -28.8710 N   0  0  0  0  0  0  0  0  0  0  0  0
   -3.8960   25.5390  -30.5630 O   0  0  0  0  0  0  0  0  0  0  0  0
   -5.6800   22.6960  -31.4590 N   0  0  0  0  0  0  0  0  0  0  0  0
   -7.0270   22.9840  -31.0440 C   0  0  0  0  0  0  0  0  0  0  0  0
   -7.2730   23.1950  -29.8250 O   0  0  0  0  0  0  0  0  0  0  0  0
   -8.1480   23.0300  -32.0380 C   0  0  0  0  0  0  0  0  0  0  0  0
   -9.3330   21.5160  -31.7960 Br  0  0  0  0  0  0  0  0  0  0  0  0
   -5.2720   21.6730  -32.2420 C   0  0  0  0  0  0  0  0  0  0  0  0
   -6.0490   20.6850  -32.8580 C   0  0  0  0  0  0  0  0  0  0  0  0
   -8.1519   17.4332  -30.8620 H   0  0  0  0  0  0  0  0  0  0  0  0
   -6.6571   18.2645  -31.4109 H   0  0  0  0  0  0  0  0  0  0  0  0
   -8.2244   19.1420  -31.4109 H   0  0  0  0  0  0  0  0  0  0  0  0
   -6.6886   16.2519  -32.2795 H   0  0  0  0  0  0  0  0  0  0  0  0
   -7.6437   15.8915  -33.7533 H   0  0  0  0  0  0  0  0  0  0  0  0
   -5.0081   17.0478  -33.5595 H   0  0  0  0  0  0  0  0  0  0  0  0
   -5.9817   16.6990  -35.0406 H   0  0  0  0  0  0  0  0  0  0  0  0
   -6.8300   18.9390  -35.0340 H   0  0  0  0  0  0  0  0  0  0  0  0
   -3.4710   18.9280  -34.3090 H   0  0  0  0  0  0  0  0  0  0  0  0
   -2.1246   20.6832  -33.1149 H   0  0  0  0  0  0  0  0  0  0  0  0
   -2.3632   22.9493  -31.3920 H   0  0  0  0  0  0  0  0  0  0  0  0
   -5.7520   23.7410  -28.5850 H   0  0  0  0  0  0  0  0  0  0  0  0
   -4.9940   25.3300  -28.2420 H   0  0  0  0  0  0  0  0  0  0  0  0
   -8.7172   23.9609  -31.8988 H   0  0  0  0  0  0  0  0  0  0  0  0
   -7.7252   22.9919  -33.0528 H   0  0  0  0  0  0  0  0  0  0  0  0
   -7.1435   20.6816  -32.7477 H   0  0  0  0  0  0  0  0  0  0  0  0
  1  2  1  0
  2  3  1  0
  3  4  1  0
  4  5  1  0
  5  6  1  0
  6  7  2  0
  7  8  1  0
  8  9  2  0
  9 10  1  0
 10 11  2  0
 11 12  1  0
 12 13  1  0
 12 14  2  0
 11 15  1  0
 15 16  1  0
 16 17  2  0
 16 18  1  0
 18 19  1  0
 15 20  1  0
 20 21  2  0
 21  6  1  0
 20  9  1  0
  1 22  1  0
  1 23  1  0
  1 24  1  0
  3 25  1  0
  3 26  1  0
  4 27  1  0
  4 28  1  0
  5 29  1  0
  7 30  1  0
  8 31  1  0
 10 32  1  0
 13 33  1  0
 13 34  1  0
 18 35  1  0
 18 36  1  0
 21 37  1  0
M  END
>  <UniqueID>  (19) 
19

>  <SMILES>  (19) 
COCCNc1ccc2cc(C(N)=O)n(C(=O)CBr)c2c1

>  <Energy>  (19) 
73.76277065108684

>  <Genealogy>  (19) 
COCCNc1ccc2cc(C(N)=O)n(C(=O)CBr)c2c1 (3D coordinates assigned)
COCCNc1ccc2cc(C(N)=O)n(C(=O)CBr)c2c1 (optimized conformer: 73.76277065108684 kcal/mol)

>  <smiles>  (19) 
COCCNc1ccc2cc(C(N)=O)n(C(=O)CBr)c2c1

>  <score_type>  (19) 
oracle

>  <origin>  (19) 
adg

>  <m_score__min__energy>  (19) 
-8.1699999999999999

>  <m_primary>  (19) 
energy

$$$$
19:0
     RDKit          3D

 36 37  0  0  0  0  0  0  0  0999 V2000
   -3.4730   20.4830  -33.3360 C   0  0  0  0  0  0  0  0  0  0  0  0
   -3.7600   21.7250  -32.9500 C   0  0  0  0  0  0  0  0  0  0  0  0
   -4.1480   22.0610  -31.5660 C   0  0  0  0  0  0  0  0  0  0  0  0
   -3.2670   22.0480  -30.6670 O   0  0  0  0  0  0  0  0  0  0  0  0
   -5.5020   22.4000  -31.2230 N   0  0  0  0  0  0  0  0  0  0  0  0
   -5.9410   23.5400  -30.6190 C   0  0  0  0  0  0  0  0  0  0  0  0
   -5.0670   24.6100  -30.0850 C   0  0  0  0  0  0  0  0  0  0  0  0
   -5.0690   24.9340  -28.6920 N   0  0  0  0  0  0  0  0  0  0  0  0
   -4.2970   25.2410  -30.8570 O   0  0  0  0  0  0  0  0  0  0  0  0
   -7.3330   23.5320  -30.5270 C   0  0  0  0  0  0  0  0  0  0  0  0
   -7.7310   22.3490  -31.1100 C   0  0  0  0  0  0  0  0  0  0  0  0
   -9.0070   21.8330  -31.3080 C   0  0  0  0  0  0  0  0  0  0  0  0
   -9.1230   20.5960  -31.9650 C   0  0  0  0  0  0  0  0  0  0  0  0
   -7.9670   19.8990  -32.4150 C   0  0  0  0  0  0  0  0  0  0  0  0
   -8.0590   18.6350  -33.1000 N   0  0  0  0  0  0  0  0  0  0  0  0
   -7.1200   17.5250  -32.9340 C   0  0  0  0  0  0  0  0  0  0  0  0
   -5.8620   17.7290  -33.7850 C   0  0  0  0  0  0  0  0  0  0  0  0
   -6.1070   18.7170  -34.8330 N   0  0  0  0  0  0  0  0  0  0  0  0
   -6.6920   20.4660  -32.1980 C   0  0  0  0  0  0  0  0  0  0  0  0
   -6.6080   21.6890  -31.5260 C   0  0  0  0  0  0  0  0  0  0  0  0
   -3.1888   20.2832  -34.3797 H   0  0  0  0  0  0  0  0  0  0  0  0
   -3.5202   19.6570  -32.6111 H   0  0  0  0  0  0  0  0  0  0  0  0
   -3.7056   22.5339  -33.6934 H   0  0  0  0  0  0  0  0  0  0  0  0
   -5.7340   24.4860  -28.0260 H   0  0  0  0  0  0  0  0  0  0  0  0
   -4.4200   25.6670  -28.3260 H   0  0  0  0  0  0  0  0  0  0  0  0
   -7.9763   24.3061  -30.0831 H   0  0  0  0  0  0  0  0  0  0  0  0
   -9.8983   22.3763  -30.9610 H   0  0  0  0  0  0  0  0  0  0  0  0
  -10.1194   20.1615  -32.1334 H   0  0  0  0  0  0  0  0  0  0  0  0
   -8.8480   18.4930  -33.7730 H   0  0  0  0  0  0  0  0  0  0  0  0
   -6.8294   17.4566  -31.8753 H   0  0  0  0  0  0  0  0  0  0  0  0
   -7.6150   16.5990  -33.2619 H   0  0  0  0  0  0  0  0  0  0  0  0
   -5.0425   18.0804  -33.1409 H   0  0  0  0  0  0  0  0  0  0  0  0
   -5.5917   16.7719  -34.2550 H   0  0  0  0  0  0  0  0  0  0  0  0
   -6.4800   18.2180  -35.6740 H   0  0  0  0  0  0  0  0  0  0  0  0
   -6.8720   19.3470  -34.5020 H   0  0  0  0  0  0  0  0  0  0  0  0
   -5.7835   19.9558  -32.5505 H   0  0  0  0  0  0  0  0  0  0  0  0
  1  2  2  0
  2  3  1  0
  3  4  2  0
  3  5  1  0
  5  6  1  0
  6  7  1  0
  7  8  1  0
  7  9  2  0
  6 10  2  0
 10 11  1  0
 11 12  2  0
 12 13  1  0
 13 14  2  0
 14 15  1  0
 15 16  1  0
 16 17  1  0
 17 18  1  0
 14 19  1  0
 19 20  2  0
 20  5  1  0
 20 11  1  0
  1 21  1  0
  1 22  1  0
  2 23  1  0
  8 24  1  0
  8 25  1  0
 10 26  1  0
 12 27  1  0
 13 28  1  0
 15 29  1  0
 16 30  1  0
 16 31  1  0
 17 32  1  0
 17 33  1  0
 18 34  1  0
 18 35  1  0
 19 36  1  0
M  END
>  <UniqueID>  (20) 
20

>  <SMILES>  (20) 
C=CC(=O)n1c(C(N)=O)cc2ccc(NCCN)cc21

>  <Energy>  (20) 
70.71023321558023

>  <Genealogy>  (20) 
C=CC(=O)n1c(C(N)=O)cc2ccc(NCCN)cc21 (3D coordinates assigned)
C=CC(=O)n1c(C(N)=O)cc2ccc(NCCN)cc21 (optimized conformer: 70.71023321558023 kcal/mol)

>  <smiles>  (20) 
C=CC(=O)n1c(C(N)=O)cc2ccc(NCCN)cc21

>  <score_type>  (20) 
oracle

>  <origin>  (20) 
adg

>  <m_score__min__energy>  (20) 
-8.3399999999999999

>  <m_primary>  (20) 
energy

$$$$
20:0
     RDKit          3D

 39 41  0  0  0  0  0  0  0  0999 V2000
   -6.1830   25.6860  -29.0700 N   0  0  0  0  0  0  0  0  0  0  0  0
   -5.6250   25.0690  -30.2320 C   0  0  0  0  0  0  0  0  0  0  0  0
   -4.6260   25.5990  -30.7860 O   0  0  0  0  0  0  0  0  0  0  0  0
   -6.1860   23.8060  -30.7600 C   0  0  0  0  0  0  0  0  0  0  0  0
   -7.5450   23.5930  -30.9870 C   0  0  0  0  0  0  0  0  0  0  0  0
   -7.6490   22.2770  -31.3740 C   0  0  0  0  0  0  0  0  0  0  0  0
   -8.7730   21.5320  -31.7170 C   0  0  0  0  0  0  0  0  0  0  0  0
   -8.5850   20.1910  -32.0910 C   0  0  0  0  0  0  0  0  0  0  0  0
   -7.2840   19.6260  -32.1410 C   0  0  0  0  0  0  0  0  0  0  0  0
   -7.1010   18.1760  -32.5080 C   0  0  0  0  0  0  0  0  0  0  0  0
   -6.7000   18.0510  -33.8270 F   0  0  0  0  0  0  0  0  0  0  0  0
   -8.2980   17.5080  -32.3360 F   0  0  0  0  0  0  0  0  0  0  0  0
   -6.1370   17.5880  -31.7070 F   0  0  0  0  0  0  0  0  0  0  0  0
   -6.1700   20.4100  -31.7610 C   0  0  0  0  0  0  0  0  0  0  0  0
   -6.3880   21.7380  -31.3740 C   0  0  0  0  0  0  0  0  0  0  0  0
   -5.4790   22.6640  -31.0000 N   0  0  0  0  0  0  0  0  0  0  0  0
   -4.0560   22.4850  -30.9270 C   0  0  0  0  0  0  0  0  0  0  0  0
   -3.3080   23.0210  -31.7910 O   0  0  0  0  0  0  0  0  0  0  0  0
   -3.5060   21.6960  -29.9100 O   0  0  0  0  0  0  0  0  0  0  0  0
   -3.4710   22.0820  -28.5360 C   0  0  0  0  0  0  0  0  0  0  0  0
   -2.7900   23.4540  -28.3750 C   0  0  0  0  0  0  0  0  0  0  0  0
   -2.1760   23.9540  -29.6120 N   0  0  0  0  0  0  0  0  0  0  0  0
   -1.8930   23.5850  -27.1580 C   0  0  0  0  0  0  0  0  0  0  0  0
   -2.7320   24.5520  -26.5650 O   0  0  0  0  0  0  0  0  0  0  0  0
   -3.6260   24.4940  -27.6540 C   0  0  0  0  0  0  0  0  0  0  0  0
   -7.0420   25.3090  -28.6150 H   0  0  0  0  0  0  0  0  0  0  0  0
   -5.7540   26.5560  -28.6820 H   0  0  0  0  0  0  0  0  0  0  0  0
   -8.3611   24.3226  -30.8794 H   0  0  0  0  0  0  0  0  0  0  0  0
   -9.7778   21.9792  -31.6960 H   0  0  0  0  0  0  0  0  0  0  0  0
   -9.4567   19.5713  -32.3482 H   0  0  0  0  0  0  0  0  0  0  0  0
   -5.1550   19.9861  -31.7693 H   0  0  0  0  0  0  0  0  0  0  0  0
   -4.4997   22.1417  -28.1511 H   0  0  0  0  0  0  0  0  0  0  0  0
   -2.8963   21.3327  -27.9719 H   0  0  0  0  0  0  0  0  0  0  0  0
   -2.9150   24.4470  -30.1640 H   0  0  0  0  0  0  0  0  0  0  0  0
   -1.8450   23.1560  -30.2030 H   0  0  0  0  0  0  0  0  0  0  0  0
   -1.8097   22.6577  -26.5723 H   0  0  0  0  0  0  0  0  0  0  0  0
   -0.8280   23.8191  -27.3027 H   0  0  0  0  0  0  0  0  0  0  0  0
   -4.6294   24.1367  -27.3793 H   0  0  0  0  0  0  0  0  0  0  0  0
   -3.8881   25.4246  -28.1787 H   0  0  0  0  0  0  0  0  0  0  0  0
  1  2  1  0
  2  3  2  0
  2  4  1  0
  4  5  2  0
  5  6  1  0
  6  7  2  0
  7  8  1  0
  8  9  2  0
  9 10  1  0
 10 11  1  0
 10 12  1  0
 10 13  1  0
  9 14  1  0
 14 15  2  0
 15 16  1  0
 16 17  1  0
 17 18  2  0
 17 19  1  0
 19 20  1  0
 20 21  1  0
 21 22  1  0
 21 23  1  0
 23 24  1  0
 24 25  1  0
 16  4  1  0
 25 21  1  0
 15  6  1  0
  1 26  1  0
  1 27  1  0
  5 28  1  0
  7 29  1  0
  8 30  1  0
 14 31  1  0
 20 32  1  0
 20 33  1  0
 22 34  1  0
 22 35  1  0
 23 36  1  0
 23 37  1  0
 25 38  1  0
 25 39  1  0
M  END
>  <UniqueID>  (21) 
21

>  <SMILES>  (21) 
NC(=O)c1cc2ccc(C(F)(F)F)cc2n1C(=O)OCC1(N)COC1

>  <Energy>  (21) 
142.85971328403787

>  <Genealogy>  (21) 
NC(=O)c1cc2ccc(C(F)(F)F)cc2n1C(=O)OCC1(N)COC1 (3D coordinates assigned)
NC(=O)c1cc2ccc(C(F)(F)F)cc2n1C(=O)OCC1(N)COC1 (nonaromatic ring conformer: 142.85971328403787 kcal/mol)

>  <smiles>  (21) 
NC(=O)c1cc2ccc(C(F)(F)F)cc2n1C(=O)OCC1(N)COC1

>  <score_type>  (21) 
oracle

>  <origin>  (21) 
adg

>  <m_score__min__energy>  (21) 
-8.9900000000000002

>  <m_primary>  (21) 
energy

$$$$
21:0
     RDKit          3D

 50 52  0  0  0  0  0  0  0  0999 V2000
   -1.6500   18.1100  -32.7930 C   0  0  0  0  0  0  0  0  0  0  0  0
   -2.2320   19.0930  -33.6400 O   0  0  0  0  0  0  0  0  0  0  0  0
   -1.5780   20.2830  -33.9740 C   0  0  0  0  0  0  0  0  0  0  0  0
   -0.8630   20.3540  -35.0120 O   0  0  0  0  0  0  0  0  0  0  0  0
   -1.6920   21.4700  -33.0710 C   0  0  0  0  0  0  0  0  0  0  0  0
   -2.8150   21.3340  -32.2040 O   0  0  0  0  0  0  0  0  0  0  0  0
   -3.3370   22.3940  -31.4520 C   0  0  0  0  0  0  0  0  0  0  0  0
   -2.5670   23.1830  -30.8390 O   0  0  0  0  0  0  0  0  0  0  0  0
   -4.7590   22.5700  -31.3660 N   0  0  0  0  0  0  0  0  0  0  0  0
   -5.4470   23.5050  -30.6520 C   0  0  0  0  0  0  0  0  0  0  0  0
   -4.8580   24.6470  -29.9230 C   0  0  0  0  0  0  0  0  0  0  0  0
   -3.8710   25.4770  -30.5320 N   0  0  0  0  0  0  0  0  0  0  0  0
   -5.2660   24.9240  -28.7630 O   0  0  0  0  0  0  0  0  0  0  0  0
   -6.8200   23.2980  -30.7740 C   0  0  0  0  0  0  0  0  0  0  0  0
   -6.9520   22.2060  -31.6020 C   0  0  0  0  0  0  0  0  0  0  0  0
   -8.0970   21.5600  -32.0610 C   0  0  0  0  0  0  0  0  0  0  0  0
   -7.9330   20.4420  -32.8960 C   0  0  0  0  0  0  0  0  0  0  0  0
   -6.6380   19.9920  -33.2590 C   0  0  0  0  0  0  0  0  0  0  0  0
   -6.4820   18.7720  -34.1350 C   0  0  0  0  0  0  0  0  0  0  0  0
   -5.8430   17.6110  -33.3840 C   0  0  0  0  0  0  0  0  0  0  0  0
   -4.7550   16.8980  -33.9540 C   0  0  0  0  0  0  0  0  0  0  0  0
   -4.2010   17.2370  -35.3160 C   0  0  0  0  0  0  0  0  0  0  0  0
   -4.1510   15.8660  -33.2260 C   0  0  0  0  0  0  0  0  0  0  0  0
   -4.6240   15.5370  -31.9620 C   0  0  0  0  0  0  0  0  0  0  0  0
   -5.6700   16.2140  -31.4250 N   0  0  0  0  0  0  0  0  0  0  0  0
   -6.2890   17.2360  -32.0850 C   0  0  0  0  0  0  0  0  0  0  0  0
   -7.4530   17.9230  -31.4150 C   0  0  0  0  0  0  0  0  0  0  0  0
   -5.5000   20.6640  -32.7560 C   0  0  0  0  0  0  0  0  0  0  0  0
   -5.6940   21.7860  -31.9450 C   0  0  0  0  0  0  0  0  0  0  0  0
   -1.8146   18.3881  -31.7415 H   0  0  0  0  0  0  0  0  0  0  0  0
   -2.1154   17.1332  -32.9912 H   0  0  0  0  0  0  0  0  0  0  0  0
   -0.5698   18.0484  -32.9912 H   0  0  0  0  0  0  0  0  0  0  0  0
   -0.7767   21.5539  -32.4667 H   0  0  0  0  0  0  0  0  0  0  0  0
   -1.8256   22.3722  -33.6860 H   0  0  0  0  0  0  0  0  0  0  0  0
   -2.8540   25.2740  -30.4210 H   0  0  0  0  0  0  0  0  0  0  0  0
   -7.6266   23.8828  -30.3078 H   0  0  0  0  0  0  0  0  0  0  0  0
   -9.0994   21.9142  -31.7785 H   0  0  0  0  0  0  0  0  0  0  0  0
   -8.8190   19.9097  -33.2724 H   0  0  0  0  0  0  0  0  0  0  0  0
   -7.4750   18.4611  -34.4918 H   0  0  0  0  0  0  0  0  0  0  0  0
   -5.8238   19.0378  -34.9753 H   0  0  0  0  0  0  0  0  0  0  0  0
   -3.2679   17.8080  -35.2006 H   0  0  0  0  0  0  0  0  0  0  0  0
   -3.9968   16.3090  -35.8702 H   0  0  0  0  0  0  0  0  0  0  0  0
   -4.9344   17.8412  -35.8702 H   0  0  0  0  0  0  0  0  0  0  0  0
   -3.3011   15.3152  -33.6553 H   0  0  0  0  0  0  0  0  0  0  0  0
   -4.1484   14.7239  -31.3939 H   0  0  0  0  0  0  0  0  0  0  0  0
   -5.9950   15.9290  -30.4740 H   0  0  0  0  0  0  0  0  0  0  0  0
   -7.3392   17.8559  -30.3230 H   0  0  0  0  0  0  0  0  0  0  0  0
   -7.4777   18.9805  -31.7167 H   0  0  0  0  0  0  0  0  0  0  0  0
   -8.3908   17.4336  -31.7167 H   0  0  0  0  0  0  0  0  0  0  0  0
   -4.4861   20.3122  -32.9972 H   0  0  0  0  0  0  0  0  0  0  0  0
  1  2  1  0
  2  3  1  0
  3  4  2  0
  3  5  1  0
  5  6  1  0
  6  7  1  0
  7  8  2  0
  7  9  1  0
  9 10  1  0
 10 11  1  0
 11 12  1  0
 11 13  2  0
 10 14  2  0
 14 15  1  0
 15 16  2  0
 16 17  1  0
 17 18  2  0
 18 19  1  0
 19 20  1  0
 20 21  2  0
 21 22  1  0
 21 23  1  0
 23 24  2  0
 24 25  1  0
 25 26  2  0
 26 27  1  0
 18 28  1  0
 28 29  2  0
 29  9  1  0
 29 15  1  0
 26 20  1  0
  1 30  1  0
  1 31  1  0
  1 32  1  0
  5 33  1  0
  5 34  1  0
 12 35  1  0
 14 36  1  0
 16 37  1  0
 17 38  1  0
 19 39  1  0
 19 40  1  0
 22 41  1  0
 22 42  1  0
 22 43  1  0
 23 44  1  0
 24 45  1  0
 25 46  1  0
 27 47  1  0
 27 48  1  0
 27 49  1  0
 28 50  1  0
M  CHG  2  12  -1  25   1
M  END
>  <UniqueID>  (22) 
22

>  <SMILES>  (22) 
COC(=O)COC(=O)n1c(C([NH-])=O)cc2ccc(Cc3c(C)cc[nH+]c3C)cc21

>  <Energy>  (22) 
88.2331965417194

>  <Genealogy>  (22) 
COC(=O)COC(=O)n1c(C([NH-])=O)cc2ccc(Cc3c(C)cc[nH+]c3C)cc21 (protonated)
COC(=O)COC(=O)n1c(C([NH-])=O)cc2ccc(Cc3c(C)cc[nH+]c3C)cc21 (3D coordinates assigned)
COC(=O)COC(=O)n1c(C([NH-])=O)cc2ccc(Cc3c(C)cc[nH+]c3C)cc21 (optimized conformer: 88.2331965417194 kcal/mol)

>  <smiles>  (22) 
COC(=O)COC(=O)n1c(C(N)=O)cc2ccc(Cc3c(C)ccnc3C)cc21

>  <score_type>  (22) 
oracle

>  <origin>  (22) 
adg

>  <m_score__min__energy>  (22) 
-10.779999999999999

>  <m_primary>  (22) 
energy

$$$$
22:0
     RDKit          3D

 37 39  0  0  0  0  0  0  0  0999 V2000
   -4.2480   25.7070  -30.4390 N   0  0  0  0  0  0  0  0  0  0  0  0
   -5.5420   25.1530  -30.2190 C   0  0  0  0  0  0  0  0  0  0  0  0
   -6.3590   25.7780  -29.4920 O   0  0  0  0  0  0  0  0  0  0  0  0
   -5.9340   23.8550  -30.8110 C   0  0  0  0  0  0  0  0  0  0  0  0
   -7.2020   23.6010  -31.3320 C   0  0  0  0  0  0  0  0  0  0  0  0
   -7.1700   22.2920  -31.7550 C   0  0  0  0  0  0  0  0  0  0  0  0
   -8.1520   21.5260  -32.3730 C   0  0  0  0  0  0  0  0  0  0  0  0
   -7.8290   20.2070  -32.7340 C   0  0  0  0  0  0  0  0  0  0  0  0
   -6.5340   19.6820  -32.4860 C   0  0  0  0  0  0  0  0  0  0  0  0
   -6.1990   18.2910  -32.8860 C   0  0  0  0  0  0  0  0  0  0  0  0
   -7.2120   17.3370  -33.1000 C   0  0  0  0  0  0  0  0  0  0  0  0
   -6.8920   16.0670  -33.4670 N   0  0  0  0  0  0  0  0  0  0  0  0
   -5.6030   15.6750  -33.6420 C   0  0  0  0  0  0  0  0  0  0  0  0
   -4.5640   16.5840  -33.4430 C   0  0  0  0  0  0  0  0  0  0  0  0
   -3.2760   16.2000  -33.6210 F   0  0  0  0  0  0  0  0  0  0  0  0
   -4.8630   17.8950  -33.0640 C   0  0  0  0  0  0  0  0  0  0  0  0
   -5.5620   20.4970  -31.8580 C   0  0  0  0  0  0  0  0  0  0  0  0
   -5.9210   21.7980  -31.4880 C   0  0  0  0  0  0  0  0  0  0  0  0
   -5.1530   22.7410  -30.9000 N   0  0  0  0  0  0  0  0  0  0  0  0
   -3.7800   22.5920  -30.5110 C   0  0  0  0  0  0  0  0  0  0  0  0
   -2.9330   22.1780  -31.3480 O   0  0  0  0  0  0  0  0  0  0  0  0
   -3.3350   22.9500  -29.1240 C   0  0  0  0  0  0  0  0  0  0  0  0
   -1.6760   23.6890  -29.1650 P   0  0  2  0  0  0  0  0  0  0  0  0
   -0.9440   23.3670  -27.8820 O   0  0  0  0  0  0  0  0  0  0  0  0
   -1.8020   25.3670  -29.3390 O   0  0  0  0  0  0  0  0  0  0  0  0
   -0.8180   23.0510  -30.4780 O   0  0  0  0  0  0  0  0  0  0  0  0
   -3.9460   26.0070  -31.3930 H   0  0  0  0  0  0  0  0  0  0  0  0
   -8.0494   24.2998  -31.3922 H   0  0  0  0  0  0  0  0  0  0  0  0
   -9.1513   21.9399  -32.5732 H   0  0  0  0  0  0  0  0  0  0  0  0
   -8.5891   19.5736  -33.2147 H   0  0  0  0  0  0  0  0  0  0  0  0
   -8.2670   17.6200  -32.9698 H   0  0  0  0  0  0  0  0  0  0  0  0
   -5.3787   14.6404  -33.9407 H   0  0  0  0  0  0  0  0  0  0  0  0
   -4.0503   18.6189  -32.9046 H   0  0  0  0  0  0  0  0  0  0  0  0
   -4.5480   20.1166  -31.6653 H   0  0  0  0  0  0  0  0  0  0  0  0
   -4.0431   23.6717  -28.6907 H   0  0  0  0  0  0  0  0  0  0  0  0
   -3.3049   22.0371  -28.5111 H   0  0  0  0  0  0  0  0  0  0  0  0
   -1.3850   22.3110  -30.8130 H   0  0  0  0  0  0  0  0  0  0  0  0
  1  2  1  0
  2  3  2  0
  2  4  1  0
  4  5  2  0
  5  6  1  0
  6  7  2  0
  7  8  1  0
  8  9  2  0
  9 10  1  0
 10 11  2  0
 11 12  1  0
 12 13  2  0
 13 14  1  0
 14 15  1  0
 14 16  2  0
  9 17  1  0
 17 18  2  0
 18 19  1  0
 19 20  1  0
 20 21  2  0
 20 22  1  0
 22 23  1  0
 23 24  2  0
 23 25  1  6
 23 26  1  0
 19  4  1  0
 18  6  1  0
 16 10  1  0
  1 27  1  0
  5 28  1  0
  7 29  1  0
  8 30  1  0
 11 31  1  0
 13 32  1  0
 16 33  1  0
 17 34  1  0
 22 35  1  0
 22 36  1  0
 26 37  1  0
M  CHG  2   1  -1  25  -1
M  END
>  <UniqueID>  (23) 
23

>  <SMILES>  (23) 
[NH-]C(=O)c1cc2ccc(-c3cncc(F)c3)cc2n1C(=O)C[P@](=O)([O-])O

>  <Energy>  (23) 
79.38236988636152

>  <Genealogy>  (23) 
[NH-]C(=O)c1cc2ccc(-c3cncc(F)c3)cc2n1C(=O)CP(=O)([O-])O (protonated)
[NH-]C(=O)c1cc2ccc(-c3cncc(F)c3)cc2n1C(=O)C[P@](=O)([O-])O (chirality)
[NH-]C(=O)c1cc2ccc(-c3cncc(F)c3)cc2n1C(=O)C[P@](=O)([O-])O (3D coordinates assigned)
[NH-]C(=O)c1cc2ccc(-c3cncc(F)c3)cc2n1C(=O)C[P@](=O)([O-])O (optimized conformer: 79.38236988636152 kcal/mol)

>  <smiles>  (23) 
NC(=O)c1cc2ccc(-c3cncc(F)c3)cc2n1C(=O)CP(=O)(O)O

>  <score_type>  (23) 
oracle

>  <origin>  (23) 
adg

>  <m_score__min__energy>  (23) 
-12.789999999999999

>  <m_primary>  (23) 
energy

$$$$
23:0
     RDKit          3D

 31 32  0  0  0  0  0  0  0  0999 V2000
   -6.3020   24.0250  -29.6980 N   0  0  0  0  0  0  0  0  0  0  0  0
   -6.8530   22.7460  -30.0240 C   0  0  0  0  0  0  0  0  0  0  0  0
   -7.9380   22.3970  -29.4890 O   0  0  0  0  0  0  0  0  0  0  0  0
   -6.1710   21.8450  -30.9840 C   0  0  0  0  0  0  0  0  0  0  0  0
   -6.8120   21.1710  -32.0240 C   0  0  0  0  0  0  0  0  0  0  0  0
   -5.8280   20.4310  -32.6420 C   0  0  0  0  0  0  0  0  0  0  0  0
   -5.9030   19.5880  -33.7470 C   0  0  0  0  0  0  0  0  0  0  0  0
   -4.7170   18.9800  -34.1920 C   0  0  0  0  0  0  0  0  0  0  0  0
   -3.4850   19.2430  -33.5440 C   0  0  0  0  0  0  0  0  0  0  0  0
   -2.2280   18.5740  -34.0160 C   0  0  0  0  0  0  0  0  0  0  0  0
   -2.1490   17.3050  -33.4720 F   0  0  0  0  0  0  0  0  0  0  0  0
   -3.4500   20.0940  -32.4180 C   0  0  0  0  0  0  0  0  0  0  0  0
   -4.6510   20.6640  -31.9820 C   0  0  0  0  0  0  0  0  0  0  0  0
   -4.8480   21.5190  -30.9540 N   0  0  0  0  0  0  0  0  0  0  0  0
   -3.8430   22.0220  -30.0600 C   0  0  0  0  0  0  0  0  0  0  0  0
   -3.7880   21.5920  -28.8770 O   0  0  0  0  0  0  0  0  0  0  0  0
   -2.8220   23.0120  -30.5350 C   0  0  0  0  0  0  0  0  0  0  0  0
   -3.1030   24.6290  -29.7550 P   0  0  0  0  0  0  0  0  0  0  0  0
   -3.9500   24.4560  -28.5140 O   0  0  0  0  0  0  0  0  0  0  0  0
   -1.6160   25.3080  -29.3270 O   0  0  0  0  0  0  0  0  0  0  0  0
   -3.8960   25.6580  -30.8390 O   0  0  0  0  0  0  0  0  0  0  0  0
   -6.8140   24.6610  -29.0470 H   0  0  0  0  0  0  0  0  0  0  0  0
   -5.3730   24.3300  -30.0580 H   0  0  0  0  0  0  0  0  0  0  0  0
   -7.8774   21.2201  -32.2934 H   0  0  0  0  0  0  0  0  0  0  0  0
   -6.8606   19.4036  -34.2559 H   0  0  0  0  0  0  0  0  0  0  0  0
   -4.7454   18.2937  -35.0512 H   0  0  0  0  0  0  0  0  0  0  0  0
   -2.2407   18.5023  -35.1136 H   0  0  0  0  0  0  0  0  0  0  0  0
   -1.3564   19.1645  -33.6972 H   0  0  0  0  0  0  0  0  0  0  0  0
   -2.5038   20.3033  -31.8975 H   0  0  0  0  0  0  0  0  0  0  0  0
   -1.8167   22.6516  -30.2715 H   0  0  0  0  0  0  0  0  0  0  0  0
   -2.9087   23.1206  -31.6262 H   0  0  0  0  0  0  0  0  0  0  0  0
  1  2  1  0
  2  3  2  0
  2  4  1  0
  4  5  2  0
  5  6  1  0
  6  7  2  0
  7  8  1  0
  8  9  2  0
  9 10  1  0
 10 11  1  0
  9 12  1  0
 12 13  2  0
 13 14  1  0
 14 15  1  0
 15 16  2  0
 15 17  1  0
 17 18  1  0
 18 19  2  0
 18 20  1  0
 18 21  1  0
 14  4  1  0
 13  6  1  0
  1 22  1  0
  1 23  1  0
  5 24  1  0
  7 25  1  0
  8 26  1  0
 10 27  1  0
 10 28  1  0
 12 29  1  0
 17 30  1  0
 17 31  1  0
M  CHG  2  20  -1  21  -1
M  END
>  <UniqueID>  (24) 
24

>  <SMILES>  (24) 
NC(=O)c1cc2ccc(CF)cc2n1C(=O)CP(=O)([O-])[O-]

>  <Energy>  (24) 
64.84536197896546

>  <Genealogy>  (24) 
NC(=O)c1cc2ccc(CF)cc2n1C(=O)CP(=O)([O-])[O-] (protonated)
NC(=O)c1cc2ccc(CF)cc2n1C(=O)CP(=O)([O-])[O-] (3D coordinates assigned)
NC(=O)c1cc2ccc(CF)cc2n1C(=O)CP(=O)([O-])[O-] (optimized conformer: 64.84536197896546 kcal/mol)

>  <smiles>  (24) 
NC(=O)c1cc2ccc(CF)cc2n1C(=O)CP(=O)(O)O

>  <score_type>  (24) 
oracle

>  <origin>  (24) 
adg

>  <m_score__min__energy>  (24) 
-12.06

>  <m_primary>  (24) 
energy

$$$$
24:0
     RDKit          3D

 41 43  0  0  0  0  0  0  0  0999 V2000
   -3.3820   21.1660  -29.8170 C   0  0  0  0  0  0  0  0  0  0  0  0
   -2.6210   22.4730  -30.0760 C   0  0  1  0  0  0  0  0  0  0  0  0
   -3.0680   23.0710  -31.2930 O   0  0  0  0  0  0  0  0  0  0  0  0
   -4.0800   22.5390  -32.1010 C   0  0  0  0  0  0  0  0  0  0  0  0
   -3.8160   22.1270  -33.2640 O   0  0  0  0  0  0  0  0  0  0  0  0
   -5.4270   22.4790  -31.6040 N   0  0  0  0  0  0  0  0  0  0  0  0
   -6.0960   23.4540  -30.9240 C   0  0  0  0  0  0  0  0  0  0  0  0
   -5.5060   24.7020  -30.4040 C   0  0  0  0  0  0  0  0  0  0  0  0
   -5.9560   25.2740  -29.1760 N   0  0  0  0  0  0  0  0  0  0  0  0
   -4.6290   25.3030  -31.0810 O   0  0  0  0  0  0  0  0  0  0  0  0
   -7.4270   23.0980  -30.7330 C   0  0  0  0  0  0  0  0  0  0  0  0
   -7.5570   21.8550  -31.3110 C   0  0  0  0  0  0  0  0  0  0  0  0
   -8.6780   21.0400  -31.4330 C   0  0  0  0  0  0  0  0  0  0  0  0
   -8.5370   19.8240  -32.1210 C   0  0  0  0  0  0  0  0  0  0  0  0
   -7.2880   19.4480  -32.6710 C   0  0  0  0  0  0  0  0  0  0  0  0
   -7.1620   18.1720  -33.4490 C   0  0  0  0  0  0  0  0  0  0  0  0
   -5.6880   16.9170  -32.5470 I   0  0  0  0  0  0  0  0  0  0  0  0
   -6.1740   20.3080  -32.5410 C   0  0  0  0  0  0  0  0  0  0  0  0
   -6.3370   21.5040  -31.8320 C   0  0  0  0  0  0  0  0  0  0  0  0
   -2.7370   23.5210  -28.9380 C   0  0  0  0  0  0  0  0  0  0  0  0
   -2.7290   24.9280  -29.3290 N   0  0  0  0  0  0  0  0  0  0  0  0
   -3.7650   23.2250  -27.8520 C   0  0  0  0  0  0  0  0  0  0  0  0
   -2.2810   23.2610  -27.5050 C   0  0  0  0  0  0  0  0  0  0  0  0
   -3.4758   21.0050  -28.7329 H   0  0  0  0  0  0  0  0  0  0  0  0
   -4.3841   21.2300  -30.2662 H   0  0  0  0  0  0  0  0  0  0  0  0
   -2.8317   20.3261  -30.2662 H   0  0  0  0  0  0  0  0  0  0  0  0
   -1.5618   22.1823  -30.1359 H   0  0  0  0  0  0  0  0  0  0  0  0
   -6.7880   24.8890  -28.6750 H   0  0  0  0  0  0  0  0  0  0  0  0
   -5.5000   26.1360  -28.8000 H   0  0  0  0  0  0  0  0  0  0  0  0
   -8.2088   23.6843  -30.2280 H   0  0  0  0  0  0  0  0  0  0  0  0
   -9.6455   21.3391  -31.0035 H   0  0  0  0  0  0  0  0  0  0  0  0
   -9.4049   19.1576  -32.2336 H   0  0  0  0  0  0  0  0  0  0  0  0
   -8.1308   17.6510  -33.4553 H   0  0  0  0  0  0  0  0  0  0  0  0
   -6.8592   18.4041  -34.4807 H   0  0  0  0  0  0  0  0  0  0  0  0
   -5.2032   20.0441  -32.9858 H   0  0  0  0  0  0  0  0  0  0  0  0
   -3.6690   25.3300  -29.1100 H   0  0  0  0  0  0  0  0  0  0  0  0
   -2.6080   24.9680  -30.3670 H   0  0  0  0  0  0  0  0  0  0  0  0
   -4.4327   24.0229  -27.4948 H   0  0  0  0  0  0  0  0  0  0  0  0
   -4.5749   22.4911  -27.7275 H   0  0  0  0  0  0  0  0  0  0  0  0
   -1.8778   24.0850  -26.8979 H   0  0  0  0  0  0  0  0  0  0  0  0
   -1.5766   22.5643  -27.0269 H   0  0  0  0  0  0  0  0  0  0  0  0
  1  2  1  0
  2  3  1  0
  3  4  1  0
  4  5  2  0
  4  6  1  0
  6  7  1  0
  7  8  1  0
  8  9  1  0
  8 10  2  0
  7 11  2  0
 11 12  1  0
 12 13  2  0
 13 14  1  0
 14 15  2  0
 15 16  1  0
 16 17  1  0
 15 18  1  0
 18 19  2  0
  2 20  1  0
 20 21  1  0
 20 22  1  0
 22 23  1  0
 19  6  1  0
 23 20  1  0
 19 12  1  0
  1 24  1  0
  1 25  1  0
  1 26  1  0
  2 27  1  6
  9 28  1  0
  9 29  1  0
 11 30  1  0
 13 31  1  0
 14 32  1  0
 16 33  1  0
 16 34  1  0
 18 35  1  0
 21 36  1  0
 21 37  1  0
 22 38  1  0
 22 39  1  0
 23 40  1  0
 23 41  1  0
M  END
>  <UniqueID>  (25) 
25

>  <SMILES>  (25) 
C[C@@H](OC(=O)n1c(C(N)=O)cc2ccc(CI)cc21)C1(N)CC1

>  <Energy>  (25) 
345.824925086279

>  <Genealogy>  (25) 
C[C@@H](OC(=O)n1c(C(N)=O)cc2ccc(CI)cc21)C1(N)CC1 (chirality)
C[C@@H](OC(=O)n1c(C(N)=O)cc2ccc(CI)cc21)C1(N)CC1 (3D coordinates assigned)
C[C@@H](OC(=O)n1c(C(N)=O)cc2ccc(CI)cc21)C1(N)CC1 (nonaromatic ring conformer: 345.824925086279 kcal/mol)

>  <smiles>  (25) 
CC(OC(=O)n1c(C(N)=O)cc2ccc(CI)cc21)C1(N)CC1

>  <score_type>  (25) 
oracle

>  <origin>  (25) 
adg

>  <m_score__min__energy>  (25) 
-9.8699999999999992

>  <m_primary>  (25) 
energy

$$$$
25:0
     RDKit          3D

 36 38  0  0  0  0  0  0  0  0999 V2000
   -8.1790   23.4410  -32.2960 N   0  0  0  0  0  0  0  0  0  0  0  0
   -7.9210   22.0750  -31.9680 C   0  0  0  0  0  0  0  0  0  0  0  0
   -8.8230   21.3950  -31.4110 O   0  0  0  0  0  0  0  0  0  0  0  0
   -6.6010   21.4610  -32.2200 C   0  0  0  0  0  0  0  0  0  0  0  0
   -6.4350   20.2310  -32.8520 C   0  0  0  0  0  0  0  0  0  0  0  0
   -5.0750   20.0240  -32.8930 C   0  0  0  0  0  0  0  0  0  0  0  0
   -4.3480   18.9790  -33.4540 C   0  0  0  0  0  0  0  0  0  0  0  0
   -2.9460   19.0570  -33.4170 C   0  0  0  0  0  0  0  0  0  0  0  0
   -2.3020   20.1740  -32.8290 C   0  0  0  0  0  0  0  0  0  0  0  0
   -0.8030   20.2800  -32.8550 C   0  0  0  0  0  0  0  0  0  0  0  0
   -0.3720   20.8800  -34.1120 N   0  0  0  0  0  0  0  0  0  0  0  0
   -0.1010   20.2360  -35.2600 C   0  0  0  0  0  0  0  0  0  0  0  0
    0.3430   21.1940  -36.1440 C   0  0  0  0  0  0  0  0  0  0  0  0
    0.3390   22.3830  -35.5070 N   0  0  0  0  0  0  0  0  0  0  0  0
   -0.0940   22.1630  -34.2750 N   0  0  0  0  0  0  0  0  0  0  0  0
   -3.0740   21.2260  -32.2870 C   0  0  0  0  0  0  0  0  0  0  0  0
   -4.4680   21.1080  -32.3090 C   0  0  0  0  0  0  0  0  0  0  0  0
   -5.3940   21.9960  -31.8830 N   0  0  0  0  0  0  0  0  0  0  0  0
   -5.1460   23.3040  -31.3400 C   0  0  0  0  0  0  0  0  0  0  0  0
   -5.5580   24.3230  -31.9580 O   0  0  0  0  0  0  0  0  0  0  0  0
   -4.4020   23.4750  -30.0470 C   0  0  0  0  0  0  0  0  0  0  0  0
   -3.5360   24.6940  -30.0930 C   0  0  0  0  0  0  0  0  0  0  0  0
   -3.8630   25.6760  -30.8090 O   0  0  0  0  0  0  0  0  0  0  0  0
   -2.3450   24.7280  -29.3800 O   0  0  0  0  0  0  0  0  0  0  0  0
   -7.4070   24.0860  -32.5710 H   0  0  0  0  0  0  0  0  0  0  0  0
   -9.1350   23.8390  -32.1610 H   0  0  0  0  0  0  0  0  0  0  0  0
   -7.2229   19.5666  -33.2364 H   0  0  0  0  0  0  0  0  0  0  0  0
   -4.8557   18.1177  -33.9127 H   0  0  0  0  0  0  0  0  0  0  0  0
   -2.3430   18.2443  -33.8480 H   0  0  0  0  0  0  0  0  0  0  0  0
   -0.4667   20.9076  -32.0165 H   0  0  0  0  0  0  0  0  0  0  0  0
   -0.3662   19.2746  -32.7639 H   0  0  0  0  0  0  0  0  0  0  0  0
   -0.2117   19.1590  -35.4546 H   0  0  0  0  0  0  0  0  0  0  0  0
    0.6475   21.0201  -37.1866 H   0  0  0  0  0  0  0  0  0  0  0  0
   -2.5907   22.1162  -31.8581 H   0  0  0  0  0  0  0  0  0  0  0  0
   -5.1255   23.5768  -29.2247 H   0  0  0  0  0  0  0  0  0  0  0  0
   -3.7639   22.5935  -29.8867 H   0  0  0  0  0  0  0  0  0  0  0  0
  1  2  1  0
  2  3  2  0
  2  4  1  0
  4  5  2  0
  5  6  1  0
  6  7  2  0
  7  8  1  0
  8  9  2  0
  9 10  1  0
 10 11  1  0
 11 12  1  0
 12 13  2  0
 13 14  1  0
 14 15  2  0
  9 16  1  0
 16 17  2  0
 17 18  1  0
 18 19  1  0
 19 20  2  0
 19 21  1  0
 21 22  1  0
 22 23  2  0
 22 24  1  0
 18  4  1  0
 17  6  1  0
 15 11  1  0
  1 25  1  0
  1 26  1  0
  5 27  1  0
  7 28  1  0
  8 29  1  0
 10 30  1  0
 10 31  1  0
 12 32  1  0
 13 33  1  0
 16 34  1  0
 21 35  1  0
 21 36  1  0
M  CHG  1  24  -1
M  END
>  <UniqueID>  (26) 
26

>  <SMILES>  (26) 
NC(=O)c1cc2ccc(Cn3ccnn3)cc2n1C(=O)CC(=O)[O-]

>  <Energy>  (26) 
109.6890837323522

>  <Genealogy>  (26) 
NC(=O)c1cc2ccc(Cn3ccnn3)cc2n1C(=O)CC(=O)[O-] (protonated)
NC(=O)c1cc2ccc(Cn3ccnn3)cc2n1C(=O)CC(=O)[O-] (3D coordinates assigned)
NC(=O)c1cc2ccc(Cn3ccnn3)cc2n1C(=O)CC(=O)[O-] (optimized conformer: 109.6890837323522 kcal/mol)

>  <smiles>  (26) 
NC(=O)c1cc2ccc(Cn3ccnn3)cc2n1C(=O)CC(=O)O

>  <score_type>  (26) 
oracle

>  <origin>  (26) 
adg

>  <m_score__min__energy>  (26) 
-10.48

>  <m_primary>  (26) 
energy

$$$$
26:0
     RDKit          3D

 44 45  0  0  0  0  0  0  0  0999 V2000
   -4.1800   25.5710  -30.8370 N   0  0  0  0  0  0  0  0  0  0  0  0
   -5.5100   25.1320  -30.5570 C   0  0  0  0  0  0  0  0  0  0  0  0
   -6.3090   25.9220  -29.9870 O   0  0  0  0  0  0  0  0  0  0  0  0
   -5.9610   23.7820  -30.9600 C   0  0  0  0  0  0  0  0  0  0  0  0
   -7.2710   23.4770  -31.3310 C   0  0  0  0  0  0  0  0  0  0  0  0
   -7.2830   22.1160  -31.5360 C   0  0  0  0  0  0  0  0  0  0  0  0
   -8.3220   21.2830  -31.9410 C   0  0  0  0  0  0  0  0  0  0  0  0
   -8.0430   19.9170  -32.1090 C   0  0  0  0  0  0  0  0  0  0  0  0
   -6.7410   19.4110  -31.8690 C   0  0  0  0  0  0  0  0  0  0  0  0
   -6.4420   17.9550  -32.1030 C   0  0  0  0  0  0  0  0  0  0  0  0
   -6.9130   17.5270  -33.4990 C   0  0  0  0  0  0  0  0  0  0  0  0
   -5.9120   17.9240  -34.5870 C   0  0  0  0  0  0  0  0  0  0  0  0
   -6.1080   19.2560  -34.9810 O   0  0  0  0  0  0  0  0  0  0  0  0
   -5.7090   20.2890  -31.4710 C   0  0  0  0  0  0  0  0  0  0  0  0
   -6.0200   21.6420  -31.2930 C   0  0  0  0  0  0  0  0  0  0  0  0
   -5.1970   22.6530  -30.9380 N   0  0  0  0  0  0  0  0  0  0  0  0
   -3.7860   22.5590  -30.6820 C   0  0  0  0  0  0  0  0  0  0  0  0
   -2.9620   22.8360  -31.5950 O   0  0  0  0  0  0  0  0  0  0  0  0
   -3.3360   22.1660  -29.4160 O   0  0  0  0  0  0  0  0  0  0  0  0
   -3.3600   23.0160  -28.2690 C   0  0  0  0  0  0  0  0  0  0  0  0
   -2.1960   24.0170  -28.3130 C   0  0  2  0  0  0  0  0  0  0  0  0
   -2.3240   24.8450  -29.4400 O   0  0  0  0  0  0  0  0  0  0  0  0
   -0.8380   23.2970  -28.3440 C   0  0  0  0  0  0  0  0  0  0  0  0
   -0.5300   22.8620  -29.6420 O   0  0  0  0  0  0  0  0  0  0  0  0
   -3.4730   24.9280  -31.2580 H   0  0  0  0  0  0  0  0  0  0  0  0
   -3.8830   26.5400  -30.5820 H   0  0  0  0  0  0  0  0  0  0  0  0
   -8.1143   24.1753  -31.4370 H   0  0  0  0  0  0  0  0  0  0  0  0
   -9.3305   21.6824  -32.1238 H   0  0  0  0  0  0  0  0  0  0  0  0
   -8.8426   19.2332  -32.4299 H   0  0  0  0  0  0  0  0  0  0  0  0
   -5.3575   17.7904  -32.0207 H   0  0  0  0  0  0  0  0  0  0  0  0
   -6.9748   17.3569  -31.3490 H   0  0  0  0  0  0  0  0  0  0  0  0
   -7.0378   16.4342  -33.5125 H   0  0  0  0  0  0  0  0  0  0  0  0
   -7.8643   18.0379  -33.7088 H   0  0  0  0  0  0  0  0  0  0  0  0
   -4.8901   17.8100  -34.1961 H   0  0  0  0  0  0  0  0  0  0  0  0
   -6.0625   17.2719  -35.4600 H   0  0  0  0  0  0  0  0  0  0  0  0
   -7.0750   19.3580  -35.1800 H   0  0  0  0  0  0  0  0  0  0  0  0
   -4.6865   19.9189  -31.3051 H   0  0  0  0  0  0  0  0  0  0  0  0
   -4.3111   23.5683  -28.2483 H   0  0  0  0  0  0  0  0  0  0  0  0
   -3.2602   22.3958  -27.3660 H   0  0  0  0  0  0  0  0  0  0  0  0
   -2.2355   24.6277  -27.3989 H   0  0  0  0  0  0  0  0  0  0  0  0
   -2.0950   24.2920  -30.2310 H   0  0  0  0  0  0  0  0  0  0  0  0
   -0.0554   23.9899  -28.0015 H   0  0  0  0  0  0  0  0  0  0  0  0
   -0.8911   22.4193  -27.6831 H   0  0  0  0  0  0  0  0  0  0  0  0
   -1.3720   22.8990  -30.1660 H   0  0  0  0  0  0  0  0  0  0  0  0
  1  2  1  0
  2  3  2  0
  2  4  1  0
  4  5  2  0
  5  6  1  0
  6  7  2  0
  7  8  1  0
  8  9  2  0
  9 10  1  0
 10 11  1  0
 11 12  1  0
 12 13  1  0
  9 14  1  0
 14 15  2  0
 15 16  1  0
 16 17  1  0
 17 18  2  0
 17 19  1  0
 19 20  1  0
 20 21  1  0
 21 22  1  0
 21 23  1  0
 23 24  1  0
 16  4  1  0
 15  6  1  0
  1 25  1  0
  1 26  1  0
  5 27  1  0
  7 28  1  0
  8 29  1  0
 10 30  1  0
 10 31  1  0
 11 32  1  0
 11 33  1  0
 12 34  1  0
 12 35  1  0
 13 36  1  0
 14 37  1  0
 20 38  1  0
 20 39  1  0
 21 40  1  1
 22 41  1  0
 23 42  1  0
 23 43  1  0
 24 44  1  0
M  END
>  <UniqueID>  (27) 
27

>  <SMILES>  (27) 
NC(=O)c1cc2ccc(CCCO)cc2n1C(=O)OC[C@H](O)CO

>  <Energy>  (27) 
73.76855270626818

>  <Genealogy>  (27) 
NC(=O)c1cc2ccc(CCCO)cc2n1C(=O)OC[C@H](O)CO (3D coordinates assigned)
NC(=O)c1cc2ccc(CCCO)cc2n1C(=O)OC[C@H](O)CO (optimized conformer: 73.76855270626818 kcal/mol)

>  <smiles>  (27) 
NC(=O)c1cc2ccc(CCCO)cc2n1C(=O)OC[C@H](O)CO

>  <score_type>  (27) 
oracle

>  <origin>  (27) 
adg

>  <m_score__min__energy>  (27) 
-8.7699999999999996

>  <m_primary>  (27) 
energy

$$$$
27:0
     RDKit          3D

 40 41  0  0  0  0  0  0  0  0999 V2000
   -0.8710   26.5620  -26.9030 C   0  0  0  0  0  0  0  0  0  0  0  0
   -0.5110   26.1370  -28.2090 O   0  0  0  0  0  0  0  0  0  0  0  0
   -0.4870   24.7900  -28.5830 C   0  0  0  0  0  0  0  0  0  0  0  0
    0.5930   24.1390  -28.5680 O   0  0  0  0  0  0  0  0  0  0  0  0
   -1.7630   24.1090  -28.9650 C   0  0  0  0  0  0  0  0  0  0  0  0
   -2.7670   25.0910  -29.3610 N   0  0  0  0  0  0  0  0  0  0  0  0
   -3.9670   24.8200  -30.1000 C   0  0  0  0  0  0  0  0  0  0  0  0
   -4.3470   25.6590  -30.9610 O   0  0  0  0  0  0  0  0  0  0  0  0
   -4.8220   23.6060  -29.8350 C   0  0  0  0  0  0  0  0  0  0  0  0
   -4.5940   22.5530  -30.8870 C   0  0  0  0  0  0  0  0  0  0  0  0
   -3.3330   22.4410  -31.5270 C   0  0  0  0  0  0  0  0  0  0  0  0
   -3.1030   21.4400  -32.4860 C   0  0  0  0  0  0  0  0  0  0  0  0
   -4.1470   20.5660  -32.7800 C   0  0  0  0  0  0  0  0  0  0  0  0
   -4.1900   19.4930  -33.6420 C   0  0  0  0  0  0  0  0  0  0  0  0
   -5.4750   18.9670  -33.5150 C   0  0  0  0  0  0  0  0  0  0  0  0
   -6.0000   17.8290  -34.3060 C   0  0  0  0  0  0  0  0  0  0  0  0
   -6.8540   16.8520  -33.7090 N   0  0  0  0  0  0  0  0  0  0  0  0
   -5.6910   17.7100  -35.5220 O   0  0  0  0  0  0  0  0  0  0  0  0
   -6.1930   19.6900  -32.6100 N   0  0  0  0  0  0  0  0  0  0  0  0
   -7.5300   19.4480  -32.1490 C   0  0  0  0  0  0  0  0  0  0  0  0
   -7.7580   18.4830  -31.3720 O   0  0  0  0  0  0  0  0  0  0  0  0
   -8.6720   20.2670  -32.6650 C   0  0  0  0  0  0  0  0  0  0  0  0
   -9.0720   21.5400  -31.4880 Cl  0  0  0  0  0  0  0  0  0  0  0  0
   -5.3700   20.6650  -32.1730 C   0  0  0  0  0  0  0  0  0  0  0  0
   -5.6270   21.6460  -31.2110 C   0  0  0  0  0  0  0  0  0  0  0  0
   -0.3474   25.9438  -26.1589 H   0  0  0  0  0  0  0  0  0  0  0  0
   -0.5869   27.6162  -26.7691 H   0  0  0  0  0  0  0  0  0  0  0  0
   -1.9576   26.4552  -26.7691 H   0  0  0  0  0  0  0  0  0  0  0  0
   -1.5716   23.4272  -29.8067 H   0  0  0  0  0  0  0  0  0  0  0  0
   -2.1389   23.5451  -28.0985 H   0  0  0  0  0  0  0  0  0  0  0  0
   -4.5654   23.1922  -28.8486 H   0  0  0  0  0  0  0  0  0  0  0  0
   -5.8798   23.9068  -29.8599 H   0  0  0  0  0  0  0  0  0  0  0  0
   -2.5274   23.1446  -31.2701 H   0  0  0  0  0  0  0  0  0  0  0  0
   -2.1289   21.3494  -32.9889 H   0  0  0  0  0  0  0  0  0  0  0  0
   -3.3818   19.1281  -34.2929 H   0  0  0  0  0  0  0  0  0  0  0  0
   -7.1930   16.0410  -34.2750 H   0  0  0  0  0  0  0  0  0  0  0  0
   -7.1770   16.9360  -32.7200 H   0  0  0  0  0  0  0  0  0  0  0  0
   -8.3883   20.7291  -33.6220 H   0  0  0  0  0  0  0  0  0  0  0  0
   -9.5483   19.6191  -32.8149 H   0  0  0  0  0  0  0  0  0  0  0  0
   -6.6087   21.7099  -30.7189 H   0  0  0  0  0  0  0  0  0  0  0  0
  1  2  1  0
  2  3  1  0
  3  4  2  0
  3  5  1  0
  5  6  1  0
  6  7  1  0
  7  8  2  0
  7  9  1  0
  9 10  1  0
 10 11  2  0
 11 12  1  0
 12 13  2  0
 13 14  1  0
 14 15  2  0
 15 16  1  0
 16 17  1  0
 16 18  2  0
 15 19  1  0
 19 20  1  0
 20 21  2  0
 20 22  1  0
 22 23  1  0
 19 24  1  0
 24 25  2  0
 25 10  1  0
 24 13  1  0
  1 26  1  0
  1 27  1  0
  1 28  1  0
  5 29  1  0
  5 30  1  0
  9 31  1  0
  9 32  1  0
 11 33  1  0
 12 34  1  0
 14 35  1  0
 17 36  1  0
 17 37  1  0
 22 38  1  0
 22 39  1  0
 25 40  1  0
M  CHG  1   6  -1
M  END
>  <UniqueID>  (28) 
28

>  <SMILES>  (28) 
COC(=O)C[N-]C(=O)Cc1ccc2cc(C(N)=O)n(C(=O)CCl)c2c1

>  <Energy>  (28) 
71.28189195193228

>  <Genealogy>  (28) 
COC(=O)C[N-]C(=O)Cc1ccc2cc(C(N)=O)n(C(=O)CCl)c2c1 (protonated)
COC(=O)C[N-]C(=O)Cc1ccc2cc(C(N)=O)n(C(=O)CCl)c2c1 (3D coordinates assigned)
COC(=O)C[N-]C(=O)Cc1ccc2cc(C(N)=O)n(C(=O)CCl)c2c1 (optimized conformer: 71.28189195193228 kcal/mol)

>  <smiles>  (28) 
COC(=O)CNC(=O)Cc1ccc2cc(C(N)=O)n(C(=O)CCl)c2c1

>  <score_type>  (28) 
oracle

>  <origin>  (28) 
adg

>  <m_score__min__energy>  (28) 
-10.130000000000001

>  <m_primary>  (28) 
energy

$$$$
28:0
     RDKit          3D

 45 47  0  0  0  0  0  0  0  0999 V2000
   -0.8540   19.4040  -28.8290 C   0  0  0  0  0  0  0  0  0  0  0  0
   -1.4690   20.6890  -29.2060 N   0  0  1  0  0  0  0  0  0  0  0  0
   -2.7620   20.5290  -29.9260 C   0  0  0  0  0  0  0  0  0  0  0  0
   -3.1650   21.7210  -30.7750 C   0  0  0  0  0  0  0  0  0  0  0  0
   -2.2790   22.3950  -31.3670 O   0  0  0  0  0  0  0  0  0  0  0  0
   -4.5450   22.0900  -30.9240 N   0  0  0  0  0  0  0  0  0  0  0  0
   -5.1750   23.2000  -30.4460 C   0  0  0  0  0  0  0  0  0  0  0  0
   -4.5250   24.3320  -29.7530 C   0  0  0  0  0  0  0  0  0  0  0  0
   -3.7650   25.2810  -30.5020 N   0  0  0  0  0  0  0  0  0  0  0  0
   -4.6060   24.4540  -28.5020 O   0  0  0  0  0  0  0  0  0  0  0  0
   -6.5280   23.1690  -30.7790 C   0  0  0  0  0  0  0  0  0  0  0  0
   -6.6990   22.0130  -31.5100 C   0  0  0  0  0  0  0  0  0  0  0  0
   -7.8490   21.4700  -32.0760 C   0  0  0  0  0  0  0  0  0  0  0  0
   -7.7370   20.2390  -32.7440 C   0  0  0  0  0  0  0  0  0  0  0  0
   -6.4820   19.5800  -32.8490 C   0  0  0  0  0  0  0  0  0  0  0  0
   -6.3730   18.2320  -33.5140 C   0  0  0  0  0  0  0  0  0  0  0  0
   -6.0980   18.3840  -34.8630 F   0  0  0  0  0  0  0  0  0  0  0  0
   -5.3480   17.5140  -32.9210 F   0  0  0  0  0  0  0  0  0  0  0  0
   -7.5540   17.5190  -33.3910 F   0  0  0  0  0  0  0  0  0  0  0  0
   -5.3420   20.1590  -32.2460 C   0  0  0  0  0  0  0  0  0  0  0  0
   -5.4860   21.3880  -31.5940 C   0  0  0  0  0  0  0  0  0  0  0  0
   -1.5620   21.5600  -28.0520 C   0  0  0  0  0  0  0  0  0  0  0  0
   -1.7900   21.0990  -26.9000 O   0  0  0  0  0  0  0  0  0  0  0  0
   -1.3420   22.9670  -28.1960 N   0  0  0  0  0  0  0  0  0  0  0  0
   -1.0000   23.9330  -29.2560 C   0  0  0  0  0  0  0  0  0  0  0  0
   -0.9030   25.1270  -28.3570 C   0  0  0  0  0  0  0  0  0  0  0  0
   -1.9220   26.0620  -28.5900 O   0  0  0  0  0  0  0  0  0  0  0  0
   -1.2720   24.1390  -27.2990 C   0  0  0  0  0  0  0  0  0  0  0  0
   -0.8155   19.3236  -27.7326 H   0  0  0  0  0  0  0  0  0  0  0  0
   -1.4538   18.5769  -29.2365 H   0  0  0  0  0  0  0  0  0  0  0  0
    0.1664   19.3523  -29.2365 H   0  0  0  0  0  0  0  0  0  0  0  0
   -0.8140   21.1560  -29.8810 H   0  0  0  0  0  0  0  0  0  0  0  0
   -2.6820   19.6509  -30.5837 H   0  0  0  0  0  0  0  0  0  0  0  0
   -3.5374   20.4206  -29.1533 H   0  0  0  0  0  0  0  0  0  0  0  0
   -2.7220   25.2960  -30.4430 H   0  0  0  0  0  0  0  0  0  0  0  0
   -7.2966   23.9101  -30.5145 H   0  0  0  0  0  0  0  0  0  0  0  0
   -8.8161   21.9889  -32.0025 H   0  0  0  0  0  0  0  0  0  0  0  0
   -8.6311   19.7798  -33.1910 H   0  0  0  0  0  0  0  0  0  0  0  0
   -4.3651   19.6551  -32.2885 H   0  0  0  0  0  0  0  0  0  0  0  0
   -0.0477   23.6978  -29.7538 H   0  0  0  0  0  0  0  0  0  0  0  0
   -1.6889   24.0039  -30.1107 H   0  0  0  0  0  0  0  0  0  0  0  0
   -0.0292   25.7934  -28.3081 H   0  0  0  0  0  0  0  0  0  0  0  0
   -2.7650   25.5390  -28.5940 H   0  0  0  0  0  0  0  0  0  0  0  0
   -0.4967   24.0359  -26.5255 H   0  0  0  0  0  0  0  0  0  0  0  0
   -2.1641   24.3615  -26.6952 H   0  0  0  0  0  0  0  0  0  0  0  0
  1  2  1  0
  2  3  1  0
  3  4  1  0
  4  5  2  0
  4  6  1  0
  6  7  1  0
  7  8  1  0
  8  9  1  0
  8 10  2  0
  7 11  2  0
 11 12  1  0
 12 13  2  0
 13 14  1  0
 14 15  2  0
 15 16  1  0
 16 17  1  0
 16 18  1  0
 16 19  1  0
 15 20  1  0
 20 21  2  0
  2 22  1  0
 22 23  2  0
 22 24  1  0
 24 25  1  0
 25 26  1  0
 26 27  1  0
 26 28  1  0
 21  6  1  0
 28 24  1  0
 21 12  1  0
  1 29  1  0
  1 30  1  0
  1 31  1  0
  2 32  1  6
  3 33  1  0
  3 34  1  0
  9 35  1  0
 11 36  1  0
 13 37  1  0
 14 38  1  0
 20 39  1  0
 25 40  1  0
 25 41  1  0
 26 42  1  0
 27 43  1  0
 28 44  1  0
 28 45  1  0
M  CHG  2   2   1   9  -1
M  END
>  <UniqueID>  (29) 
29

>  <SMILES>  (29) 
C[N@@H+](CC(=O)n1c(C([NH-])=O)cc2ccc(C(F)(F)F)cc21)C(=O)N1CC(O)C1

>  <Energy>  (29) 
135.1953831188074

>  <Genealogy>  (29) 
C[NH+](CC(=O)n1c(C([NH-])=O)cc2ccc(C(F)(F)F)cc21)C(=O)N1CC(O)C1 (protonated)
C[N@@H+](CC(=O)n1c(C([NH-])=O)cc2ccc(C(F)(F)F)cc21)C(=O)N1CC(O)C1 (chirality)
C[N@@H+](CC(=O)n1c(C([NH-])=O)cc2ccc(C(F)(F)F)cc21)C(=O)N1CC(O)C1 (3D coordinates assigned)
C[N@@H+](CC(=O)n1c(C([NH-])=O)cc2ccc(C(F)(F)F)cc21)C(=O)N1CC(O)C1 (nonaromatic ring conformer: 135.1953831188074 kcal/mol)

>  <smiles>  (29) 
CN(CC(=O)n1c(C(N)=O)cc2ccc(C(F)(F)F)cc21)C(=O)N1CC(O)C1

>  <score_type>  (29) 
oracle

>  <origin>  (29) 
adg

>  <m_score__min__energy>  (29) 
-10.710000000000001

>  <m_primary>  (29) 
energy

$$$$
29:0
     RDKit          3D

 39 40  0  0  0  0  0  0  0  0999 V2000
   -4.2050   25.6710  -30.8370 N   0  0  0  0  0  0  0  0  0  0  0  0
   -5.4950   25.2750  -30.3780 C   0  0  0  0  0  0  0  0  0  0  0  0
   -6.1260   26.0260  -29.5870 O   0  0  0  0  0  0  0  0  0  0  0  0
   -6.0590   23.9760  -30.8000 C   0  0  0  0  0  0  0  0  0  0  0  0
   -7.3940   23.7960  -31.1550 C   0  0  0  0  0  0  0  0  0  0  0  0
   -7.4910   22.4840  -31.5590 C   0  0  0  0  0  0  0  0  0  0  0  0
   -8.5940   21.7640  -32.0100 C   0  0  0  0  0  0  0  0  0  0  0  0
   -8.4090   20.4100  -32.3320 C   0  0  0  0  0  0  0  0  0  0  0  0
   -7.1390   19.7990  -32.1840 C   0  0  0  0  0  0  0  0  0  0  0  0
   -6.9500   18.3520  -32.5540 C   0  0  0  0  0  0  0  0  0  0  0  0
   -6.0190   18.2230  -33.7610 C   0  0  0  0  0  0  0  0  0  0  0  0
   -6.3250   19.2580  -34.7440 N   0  0  0  0  0  0  0  0  0  0  0  0
   -6.0400   20.5630  -31.7350 C   0  0  0  0  0  0  0  0  0  0  0  0
   -6.2490   21.9150  -31.4380 C   0  0  0  0  0  0  0  0  0  0  0  0
   -5.3590   22.8190  -30.9730 N   0  0  0  0  0  0  0  0  0  0  0  0
   -3.9820   22.5680  -30.6510 C   0  0  0  0  0  0  0  0  0  0  0  0
   -3.3050   21.7800  -31.3650 O   0  0  0  0  0  0  0  0  0  0  0  0
   -3.4090   23.1830  -29.5320 O   0  0  0  0  0  0  0  0  0  0  0  0
   -3.5120   22.6690  -28.2040 C   0  0  0  0  0  0  0  0  0  0  0  0
   -3.8760   23.7790  -27.2090 C   0  0  0  0  0  0  0  0  0  0  0  0
   -4.6810   24.8300  -27.8310 N   0  0  0  0  0  0  0  0  0  0  0  0
   -3.3390   25.2660  -30.4180 H   0  0  0  0  0  0  0  0  0  0  0  0
   -8.1998   24.5440  -31.1199 H   0  0  0  0  0  0  0  0  0  0  0  0
   -9.5799   22.2412  -32.1109 H   0  0  0  0  0  0  0  0  0  0  0  0
   -9.2584   19.8175  -32.7029 H   0  0  0  0  0  0  0  0  0  0  0  0
   -6.5117   17.8146  -31.7001 H   0  0  0  0  0  0  0  0  0  0  0  0
   -7.9284   17.9210  -32.8127 H   0  0  0  0  0  0  0  0  0  0  0  0
   -4.9760   18.3333  -33.4293 H   0  0  0  0  0  0  0  0  0  0  0  0
   -6.1627   17.2348  -34.2223 H   0  0  0  0  0  0  0  0  0  0  0  0
   -7.2400   19.6890  -34.4790 H   0  0  0  0  0  0  0  0  0  0  0  0
   -6.4730   18.7950  -35.6710 H   0  0  0  0  0  0  0  0  0  0  0  0
   -5.0451   20.1077  -31.6215 H   0  0  0  0  0  0  0  0  0  0  0  0
   -4.2918   21.8936  -28.1783 H   0  0  0  0  0  0  0  0  0  0  0  0
   -2.5378   22.2471  -27.9160 H   0  0  0  0  0  0  0  0  0  0  0  0
   -4.4475   23.3384  -26.3788 H   0  0  0  0  0  0  0  0  0  0  0  0
   -2.9409   24.2343  -26.8508 H   0  0  0  0  0  0  0  0  0  0  0  0
   -5.6490   24.4830  -28.0180 H   0  0  0  0  0  0  0  0  0  0  0  0
   -4.7140   25.6770  -27.2160 H   0  0  0  0  0  0  0  0  0  0  0  0
   -4.2450   25.0960  -28.7440 H   0  0  0  0  0  0  0  0  0  0  0  0
  1  2  1  0
  2  3  2  0
  2  4  1  0
  4  5  2  0
  5  6  1  0
  6  7  2  0
  7  8  1  0
  8  9  2  0
  9 10  1  0
 10 11  1  0
 11 12  1  0
  9 13  1  0
 13 14  2  0
 14 15  1  0
 15 16  1  0
 16 17  2  0
 16 18  1  0
 18 19  1  0
 19 20  1  0
 20 21  1  0
 15  4  1  0
 14  6  1  0
  1 22  1  0
  5 23  1  0
  7 24  1  0
  8 25  1  0
 10 26  1  0
 10 27  1  0
 11 28  1  0
 11 29  1  0
 12 30  1  0
 12 31  1  0
 13 32  1  0
 19 33  1  0
 19 34  1  0
 20 35  1  0
 20 36  1  0
 21 37  1  0
 21 38  1  0
 21 39  1  0
M  CHG  2   1  -1  21   1
M  END
>  <UniqueID>  (30) 
30

>  <SMILES>  (30) 
[NH-]C(=O)c1cc2ccc(CCN)cc2n1C(=O)OCC[NH3+]

>  <Energy>  (30) 
69.88941052503445

>  <Genealogy>  (30) 
[NH-]C(=O)c1cc2ccc(CCN)cc2n1C(=O)OCC[NH3+] (protonated)
[NH-]C(=O)c1cc2ccc(CCN)cc2n1C(=O)OCC[NH3+] (3D coordinates assigned)
[NH-]C(=O)c1cc2ccc(CCN)cc2n1C(=O)OCC[NH3+] (optimized conformer: 69.88941052503445 kcal/mol)

>  <smiles>  (30) 
NCCOC(=O)n1c(C(N)=O)cc2ccc(CCN)cc21

>  <score_type>  (30) 
oracle

>  <origin>  (30) 
adg

>  <m_score__min__energy>  (30) 
-9.3200000000000003

>  <m_primary>  (30) 
energy

$$$$
30:0
     RDKit          3D

 30 31  0  0  0  0  0  0  0  0999 V2000
   -3.2950   19.0360  -33.8450 C   0  0  0  0  0  0  0  0  0  0  0  0
   -2.8210   19.9350  -33.1970 C   0  0  0  0  0  0  0  0  0  0  0  0
   -2.2450   21.0280  -32.4130 C   0  0  0  0  0  0  0  0  0  0  0  0
   -3.1060   22.1580  -32.4810 O   0  0  0  0  0  0  0  0  0  0  0  0
   -3.6880   22.7340  -31.3480 C   0  0  0  0  0  0  0  0  0  0  0  0
   -2.9660   23.1210  -30.3900 O   0  0  0  0  0  0  0  0  0  0  0  0
   -5.1130   22.9050  -31.2900 N   0  0  0  0  0  0  0  0  0  0  0  0
   -5.8110   24.0320  -30.9640 C   0  0  0  0  0  0  0  0  0  0  0  0
   -5.2340   25.2970  -30.4610 C   0  0  0  0  0  0  0  0  0  0  0  0
   -3.9090   25.6700  -30.8360 N   0  0  0  0  0  0  0  0  0  0  0  0
   -5.9100   26.0700  -29.7330 O   0  0  0  0  0  0  0  0  0  0  0  0
   -7.1800   23.8100  -31.0890 C   0  0  0  0  0  0  0  0  0  0  0  0
   -7.3040   22.5020  -31.4960 C   0  0  0  0  0  0  0  0  0  0  0  0
   -8.4430   21.7620  -31.7920 C   0  0  0  0  0  0  0  0  0  0  0  0
   -8.2740   20.4360  -32.2240 C   0  0  0  0  0  0  0  0  0  0  0  0
   -6.9780   19.8710  -32.3430 C   0  0  0  0  0  0  0  0  0  0  0  0
   -6.8060   18.4680  -32.8670 C   0  0  0  0  0  0  0  0  0  0  0  0
   -7.9790   17.7470  -32.7240 F   0  0  0  0  0  0  0  0  0  0  0  0
   -5.8000   17.8380  -32.1590 F   0  0  0  0  0  0  0  0  0  0  0  0
   -6.4700   18.4860  -34.2100 F   0  0  0  0  0  0  0  0  0  0  0  0
   -5.8430   20.6650  -32.0550 C   0  0  0  0  0  0  0  0  0  0  0  0
   -6.0420   21.9780  -31.6100 C   0  0  0  0  0  0  0  0  0  0  0  0
   -3.7276   18.2155  -34.4364 H   0  0  0  0  0  0  0  0  0  0  0  0
   -2.1360   20.7113  -31.3652 H   0  0  0  0  0  0  0  0  0  0  0  0
   -1.2569   21.2919  -32.8180 H   0  0  0  0  0  0  0  0  0  0  0  0
   -3.0810   25.2910  -30.3260 H   0  0  0  0  0  0  0  0  0  0  0  0
   -7.9912   24.5290  -30.9018 H   0  0  0  0  0  0  0  0  0  0  0  0
   -9.4463   22.2015  -31.6910 H   0  0  0  0  0  0  0  0  0  0  0  0
   -9.1567   19.8287  -32.4729 H   0  0  0  0  0  0  0  0  0  0  0  0
   -4.8275   20.2604  -32.1778 H   0  0  0  0  0  0  0  0  0  0  0  0
  1  2  3  0
  2  3  1  0
  3  4  1  0
  4  5  1  0
  5  6  2  0
  5  7  1  0
  7  8  1  0
  8  9  1  0
  9 10  1  0
  9 11  2  0
  8 12  2  0
 12 13  1  0
 13 14  2  0
 14 15  1  0
 15 16  2  0
 16 17  1  0
 17 18  1  0
 17 19  1  0
 17 20  1  0
 16 21  1  0
 21 22  2  0
 22  7  1  0
 22 13  1  0
  1 23  1  0
  3 24  1  0
  3 25  1  0
 10 26  1  0
 12 27  1  0
 14 28  1  0
 15 29  1  0
 21 30  1  0
M  CHG  1  10  -1
M  END
>  <UniqueID>  (31) 
31

>  <SMILES>  (31) 
C#CCOC(=O)n1c(C([NH-])=O)cc2ccc(C(F)(F)F)cc21

>  <Energy>  (31) 
65.08109034323466

>  <Genealogy>  (31) 
C#CCOC(=O)n1c(C([NH-])=O)cc2ccc(C(F)(F)F)cc21 (protonated)
C#CCOC(=O)n1c(C([NH-])=O)cc2ccc(C(F)(F)F)cc21 (3D coordinates assigned)
C#CCOC(=O)n1c(C([NH-])=O)cc2ccc(C(F)(F)F)cc21 (optimized conformer: 65.08109034323466 kcal/mol)

>  <smiles>  (31) 
C#CCOC(=O)n1c(C(N)=O)cc2ccc(C(F)(F)F)cc21

>  <score_type>  (31) 
oracle

>  <origin>  (31) 
adg

>  <m_score__min__energy>  (31) 
-9.3599999999999994

>  <m_primary>  (31) 
energy

$$$$
31:0
     RDKit          3D

 43 45  0  0  0  0  0  0  0  0999 V2000
   -8.3240   20.4620  -31.2360 C   0  0  0  0  0  0  0  0  0  0  0  0
   -8.1070   19.4620  -32.2940 N   0  0  0  0  0  0  0  0  0  0  0  0
   -7.4390   18.2480  -31.7770 C   0  0  0  0  0  0  0  0  0  0  0  0
   -5.9950   18.5370  -31.3370 C   0  0  0  0  0  0  0  0  0  0  0  0
   -5.3540   19.4930  -32.2470 N   0  0  0  0  0  0  0  0  0  0  0  0
   -4.1590   20.1890  -31.8420 C   0  0  0  0  0  0  0  0  0  0  0  0
   -2.9010   19.8310  -32.3900 C   0  0  0  0  0  0  0  0  0  0  0  0
   -1.7300   20.5170  -32.0150 C   0  0  0  0  0  0  0  0  0  0  0  0
   -1.8510   21.5610  -31.1000 C   0  0  0  0  0  0  0  0  0  0  0  0
   -0.8930   22.3950  -30.5630 C   0  0  0  0  0  0  0  0  0  0  0  0
   -1.5870   23.2560  -29.7130 C   0  0  0  0  0  0  0  0  0  0  0  0
   -0.9610   24.3870  -28.9950 C   0  0  0  0  0  0  0  0  0  0  0  0
   -1.5830   25.6680  -28.9670 N   0  0  0  0  0  0  0  0  0  0  0  0
    0.1550   24.2320  -28.4330 O   0  0  0  0  0  0  0  0  0  0  0  0
   -2.9150   22.9580  -29.7190 N   0  0  0  0  0  0  0  0  0  0  0  0
   -3.9610   23.5440  -28.9350 C   0  0  0  0  0  0  0  0  0  0  0  0
   -3.7610   23.7930  -27.7160 O   0  0  0  0  0  0  0  0  0  0  0  0
   -5.2410   23.9770  -29.5830 C   0  0  0  0  0  0  0  0  0  0  0  0
   -4.9390   24.7810  -30.8060 C   0  0  0  0  0  0  0  0  0  0  0  0
   -5.6270   24.6300  -31.8500 O   0  0  0  0  0  0  0  0  0  0  0  0
   -3.8690   25.6670  -30.8070 O   0  0  0  0  0  0  0  0  0  0  0  0
   -3.0610   21.9270  -30.5750 C   0  0  0  0  0  0  0  0  0  0  0  0
   -4.2370   21.2560  -30.9190 C   0  0  0  0  0  0  0  0  0  0  0  0
   -5.9310   19.6880  -33.5810 C   0  0  0  0  0  0  0  0  0  0  0  0
   -7.4270   20.0480  -33.4780 C   0  0  0  0  0  0  0  0  0  0  0  0
   -8.2200   19.9826  -30.2514 H   0  0  0  0  0  0  0  0  0  0  0  0
   -7.5794   21.2658  -31.3329 H   0  0  0  0  0  0  0  0  0  0  0  0
   -9.3348   20.8849  -31.3329 H   0  0  0  0  0  0  0  0  0  0  0  0
   -8.0058   17.8697  -30.9135 H   0  0  0  0  0  0  0  0  0  0  0  0
   -7.4083   17.5029  -32.5857 H   0  0  0  0  0  0  0  0  0  0  0  0
   -6.0051   18.9578  -30.3207 H   0  0  0  0  0  0  0  0  0  0  0  0
   -5.4257   17.5960  -31.3564 H   0  0  0  0  0  0  0  0  0  0  0  0
   -2.8393   19.0075  -33.1167 H   0  0  0  0  0  0  0  0  0  0  0  0
   -0.7508   20.2377  -32.4311 H   0  0  0  0  0  0  0  0  0  0  0  0
    0.1887   22.3836  -30.7626 H   0  0  0  0  0  0  0  0  0  0  0  0
   -2.6190   25.7680  -29.0310 H   0  0  0  0  0  0  0  0  0  0  0  0
   -5.8270   23.0896  -29.8642 H   0  0  0  0  0  0  0  0  0  0  0  0
   -5.8178   24.5915  -28.8761 H   0  0  0  0  0  0  0  0  0  0  0  0
   -5.2019   21.5516  -30.4812 H   0  0  0  0  0  0  0  0  0  0  0  0
   -5.3970   20.5039  -34.0901 H   0  0  0  0  0  0  0  0  0  0  0  0
   -5.8297   18.7529  -34.1513 H   0  0  0  0  0  0  0  0  0  0  0  0
   -7.5167   21.1429  -33.4223 H   0  0  0  0  0  0  0  0  0  0  0  0
   -7.9184   19.6288  -34.3684 H   0  0  0  0  0  0  0  0  0  0  0  0
  1  2  1  0
  2  3  1  0
  3  4  1  0
  4  5  1  0
  5  6  1  0
  6  7  2  0
  7  8  1  0
  8  9  2  0
  9 10  1  0
 10 11  2  0
 11 12  1  0
 12 13  1  0
 12 14  2  0
 11 15  1  0
 15 16  1  0
 16 17  2  0
 16 18  1  0
 18 19  1  0
 19 20  2  0
 19 21  1  0
 15 22  1  0
 22 23  2  0
  5 24  1  0
 24 25  1  0
 25  2  1  0
 23  6  1  0
 22  9  1  0
  1 26  1  0
  1 27  1  0
  1 28  1  0
  3 29  1  0
  3 30  1  0
  4 31  1  0
  4 32  1  0
  7 33  1  0
  8 34  1  0
 10 35  1  0
 13 36  1  0
 18 37  1  0
 18 38  1  0
 23 39  1  0
 24 40  1  0
 24 41  1  0
 25 42  1  0
 25 43  1  0
M  CHG  2  13  -1  21  -1
M  END
>  <UniqueID>  (32) 
32

>  <SMILES>  (32) 
CN1CCN(c2ccc3cc(C([NH-])=O)n(C(=O)CC(=O)[O-])c3c2)CC1

>  <Energy>  (32) 
93.44240198163796

>  <Genealogy>  (32) 
CN1CCN(c2ccc3cc(C([NH-])=O)n(C(=O)CC(=O)[O-])c3c2)CC1 (protonated)
CN1CCN(c2ccc3cc(C([NH-])=O)n(C(=O)CC(=O)[O-])c3c2)CC1 (3D coordinates assigned)
CN1CCN(c2ccc3cc(C([NH-])=O)n(C(=O)CC(=O)[O-])c3c2)CC1 (nonaromatic ring conformer: 93.44240198163796 kcal/mol)

>  <smiles>  (32) 
CN1CCN(c2ccc3cc(C(N)=O)n(C(=O)CC(=O)O)c3c2)CC1

>  <score_type>  (32) 
oracle

>  <origin>  (32) 
adg

>  <m_score__min__energy>  (32) 
-12.32

>  <m_primary>  (32) 
energy

$$$$
32:0
     RDKit          3D

 49 51  0  0  0  0  0  0  0  0999 V2000
   -2.7740   19.8970  -33.4570 C   0  0  0  0  0  0  0  0  0  0  0  0
   -2.9070   18.8380  -34.3980 O   0  0  0  0  0  0  0  0  0  0  0  0
   -3.1490   17.5180  -34.0140 C   0  0  0  0  0  0  0  0  0  0  0  0
   -2.4620   16.9810  -33.1030 O   0  0  0  0  0  0  0  0  0  0  0  0
   -4.1890   16.7830  -34.6710 N   0  0  0  0  0  0  0  0  0  0  0  0
   -5.6260   17.0630  -34.5920 C   0  0  1  0  0  0  0  0  0  0  0  0
   -6.2690   16.3880  -33.3750 C   0  0  0  0  0  0  0  0  0  0  0  0
   -6.6760   17.5040  -32.4200 C   0  0  0  0  0  0  0  0  0  0  0  0
   -6.4760   18.7570  -33.1360 N   0  0  0  0  0  0  0  0  0  0  0  0
   -6.8100   20.0550  -32.5880 C   0  0  0  0  0  0  0  0  0  0  0  0
   -8.1650   20.4850  -32.5110 C   0  0  0  0  0  0  0  0  0  0  0  0
   -8.4980   21.7410  -31.9730 C   0  0  0  0  0  0  0  0  0  0  0  0
   -7.4640   22.5520  -31.5220 C   0  0  0  0  0  0  0  0  0  0  0  0
   -7.5040   23.7950  -30.9300 C   0  0  0  0  0  0  0  0  0  0  0  0
   -6.1740   24.1210  -30.6710 C   0  0  0  0  0  0  0  0  0  0  0  0
   -5.7470   25.4070  -30.0850 C   0  0  0  0  0  0  0  0  0  0  0  0
   -6.5070   26.0420  -29.0560 N   0  0  0  0  0  0  0  0  0  0  0  0
   -4.6650   25.9290  -30.4640 O   0  0  0  0  0  0  0  0  0  0  0  0
   -5.3490   23.1160  -31.0770 N   0  0  0  0  0  0  0  0  0  0  0  0
   -3.9350   22.9860  -30.8580 C   0  0  0  0  0  0  0  0  0  0  0  0
   -3.1830   22.7120  -31.8330 O   0  0  0  0  0  0  0  0  0  0  0  0
   -3.3610   23.0950  -29.4640 C   0  0  2  0  0  0  0  0  0  0  0  0
   -4.3050   23.6340  -28.5710 O   0  0  0  0  0  0  0  0  0  0  0  0
   -2.0700   23.9330  -29.4720 C   0  0  0  0  0  0  0  0  0  0  0  0
   -2.3690   25.2950  -29.3230 O   0  0  0  0  0  0  0  0  0  0  0  0
   -6.1540   22.1660  -31.5980 C   0  0  0  0  0  0  0  0  0  0  0  0
   -5.7900   20.9190  -32.1130 C   0  0  0  0  0  0  0  0  0  0  0  0
   -5.9080   18.5620  -34.4620 C   0  0  0  0  0  0  0  0  0  0  0  0
   -2.8252   19.4894  -32.4366 H   0  0  0  0  0  0  0  0  0  0  0  0
   -1.8058   20.3982  -33.6035 H   0  0  0  0  0  0  0  0  0  0  0  0
   -3.5881   20.6221  -33.6035 H   0  0  0  0  0  0  0  0  0  0  0  0
   -6.0524   16.6689  -35.5263 H   0  0  0  0  0  0  0  0  0  0  0  0
   -7.1537   15.8121  -33.6842 H   0  0  0  0  0  0  0  0  0  0  0  0
   -5.5683   15.6904  -32.8930 H   0  0  0  0  0  0  0  0  0  0  0  0
   -7.7329   17.3937  -32.1356 H   0  0  0  0  0  0  0  0  0  0  0  0
   -6.0784   17.4744  -31.4970 H   0  0  0  0  0  0  0  0  0  0  0  0
   -8.9642   19.8243  -32.8782 H   0  0  0  0  0  0  0  0  0  0  0  0
   -9.5454   22.0713  -31.9111 H   0  0  0  0  0  0  0  0  0  0  0  0
   -8.3951   24.4008  -30.7089 H   0  0  0  0  0  0  0  0  0  0  0  0
   -7.3190   25.5650  -28.6100 H   0  0  0  0  0  0  0  0  0  0  0  0
   -6.2130   26.9740  -28.6900 H   0  0  0  0  0  0  0  0  0  0  0  0
   -3.1099   22.0817  -29.1173 H   0  0  0  0  0  0  0  0  0  0  0  0
   -4.3340   24.6160  -28.7170 H   0  0  0  0  0  0  0  0  0  0  0  0
   -1.4240   23.6110  -28.6419 H   0  0  0  0  0  0  0  0  0  0  0  0
   -1.5547   23.7843  -30.4324 H   0  0  0  0  0  0  0  0  0  0  0  0
   -3.2720   25.3460  -28.9130 H   0  0  0  0  0  0  0  0  0  0  0  0
   -4.7339   20.6135  -32.1493 H   0  0  0  0  0  0  0  0  0  0  0  0
   -6.6229   18.8835  -35.2337 H   0  0  0  0  0  0  0  0  0  0  0  0
   -4.9909   19.1545  -34.5954 H   0  0  0  0  0  0  0  0  0  0  0  0
  1  2  1  0
  2  3  1  0
  3  4  2  0
  3  5  1  0
  5  6  1  0
  6  7  1  0
  7  8  1  0
  8  9  1  0
  9 10  1  0
 10 11  2  0
 11 12  1  0
 12 13  2  0
 13 14  1  0
 14 15  2  0
 15 16  1  0
 16 17  1  0
 16 18  2  0
 15 19  1  0
 19 20  1  0
 20 21  2  0
 20 22  1  0
 22 23  1  0
 22 24  1  0
 24 25  1  0
 19 26  1  0
 26 27  2  0
  9 28  1  0
 28  6  1  0
 27 10  1  0
 26 13  1  0
  1 29  1  0
  1 30  1  0
  1 31  1  0
  6 32  1  6
  7 33  1  0
  7 34  1  0
  8 35  1  0
  8 36  1  0
 11 37  1  0
 12 38  1  0
 14 39  1  0
 17 40  1  0
 17 41  1  0
 22 42  1  1
 23 43  1  0
 24 44  1  0
 24 45  1  0
 25 46  1  0
 27 47  1  0
 28 48  1  0
 28 49  1  0
M  CHG  1   5  -1
M  END
>  <UniqueID>  (33) 
33

>  <SMILES>  (33) 
COC(=O)[N-][C@H]1CCN(c2ccc3cc(C(N)=O)n(C(=O)[C@H](O)CO)c3c2)C1

>  <Energy>  (33) 
89.55135293142966

>  <Genealogy>  (33) 
COC(=O)[N-]C1CCN(c2ccc3cc(C(N)=O)n(C(=O)C(O)CO)c3c2)C1 (protonated)
COC(=O)[N-][C@H]1CCN(c2ccc3cc(C(N)=O)n(C(=O)[C@H](O)CO)c3c2)C1 (chirality)
COC(=O)[N-][C@H]1CCN(c2ccc3cc(C(N)=O)n(C(=O)[C@H](O)CO)c3c2)C1 (3D coordinates assigned)
COC(=O)[N-][C@H]1CCN(c2ccc3cc(C(N)=O)n(C(=O)[C@H](O)CO)c3c2)C1 (nonaromatic ring conformer: 89.55135293142966 kcal/mol)

>  <smiles>  (33) 
COC(=O)NC1CCN(c2ccc3cc(C(N)=O)n(C(=O)C(O)CO)c3c2)C1

>  <score_type>  (33) 
oracle

>  <origin>  (33) 
adg

>  <m_score__min__energy>  (33) 
-9.9600000000000009

>  <m_primary>  (33) 
energy

$$$$
33:0
     RDKit          3D

 46 47  0  0  0  0  0  0  0  0999 V2000
   -3.2310   20.1600  -33.4070 C   0  0  0  0  0  0  0  0  0  0  0  0
   -3.7090   19.0880  -34.2090 O   0  0  0  0  0  0  0  0  0  0  0  0
   -4.9960   18.5620  -34.0720 C   0  0  0  0  0  0  0  0  0  0  0  0
   -5.8080   18.5880  -35.0360 O   0  0  0  0  0  0  0  0  0  0  0  0
   -5.3990   17.9290  -32.7760 C   0  0  0  0  0  0  0  0  0  0  0  0
   -6.8720   18.2030  -32.4490 C   0  0  0  0  0  0  0  0  0  0  0  0
   -7.1040   19.6460  -32.0820 C   0  0  0  0  0  0  0  0  0  0  0  0
   -8.3850   20.2280  -32.2460 C   0  0  0  0  0  0  0  0  0  0  0  0
   -8.5940   21.5890  -31.9660 C   0  0  0  0  0  0  0  0  0  0  0  0
   -7.5080   22.3380  -31.5250 C   0  0  0  0  0  0  0  0  0  0  0  0
   -7.4170   23.6800  -31.2340 C   0  0  0  0  0  0  0  0  0  0  0  0
   -6.0850   23.8930  -30.8860 C   0  0  0  0  0  0  0  0  0  0  0  0
   -5.5530   25.1870  -30.4110 C   0  0  0  0  0  0  0  0  0  0  0  0
   -4.2160   25.5850  -30.7220 N   0  0  0  0  0  0  0  0  0  0  0  0
   -6.2910   25.9680  -29.7530 O   0  0  0  0  0  0  0  0  0  0  0  0
   -5.3800   22.7290  -30.9600 N   0  0  0  0  0  0  0  0  0  0  0  0
   -3.9630   22.5440  -30.8060 C   0  0  0  0  0  0  0  0  0  0  0  0
   -3.1590   23.2510  -31.4710 O   0  0  0  0  0  0  0  0  0  0  0  0
   -3.3100   21.3440  -29.6400 S   0  0  0  0  0  0  0  0  0  0  0  0
   -4.0620   22.1150  -28.1590 C   0  0  0  0  0  0  0  0  0  0  0  0
   -3.2460   23.3000  -27.6160 C   0  0  0  0  0  0  0  0  0  0  0  0
   -1.7620   23.2740  -28.0100 C   0  0  0  0  0  0  0  0  0  0  0  0
   -1.3570   24.5180  -28.7390 C   0  0  0  0  0  0  0  0  0  0  0  0
   -0.1420   24.8380  -28.8230 O   0  0  0  0  0  0  0  0  0  0  0  0
   -2.3190   25.3040  -29.3610 O   0  0  0  0  0  0  0  0  0  0  0  0
   -6.2660   21.7870  -31.3460 C   0  0  0  0  0  0  0  0  0  0  0  0
   -6.0240   20.4390  -31.6340 C   0  0  0  0  0  0  0  0  0  0  0  0
   -3.3460   19.9021  -32.3439 H   0  0  0  0  0  0  0  0  0  0  0  0
   -2.1683   20.3379  -33.6283 H   0  0  0  0  0  0  0  0  0  0  0  0
   -3.8089   21.0695  -33.6283 H   0  0  0  0  0  0  0  0  0  0  0  0
   -5.2449   16.8421  -32.8463 H   0  0  0  0  0  0  0  0  0  0  0  0
   -4.7820   18.3618  -31.9747 H   0  0  0  0  0  0  0  0  0  0  0  0
   -7.4841   17.9565  -33.3291 H   0  0  0  0  0  0  0  0  0  0  0  0
   -7.1524   17.5811  -31.5861 H   0  0  0  0  0  0  0  0  0  0  0  0
   -9.2241   19.6087  -32.5958 H   0  0  0  0  0  0  0  0  0  0  0  0
   -9.5858   22.0480  -32.0917 H   0  0  0  0  0  0  0  0  0  0  0  0
   -8.2246   24.4261  -31.2688 H   0  0  0  0  0  0  0  0  0  0  0  0
   -3.8640   26.5190  -30.4150 H   0  0  0  0  0  0  0  0  0  0  0  0
   -3.5610   24.9390  -31.2160 H   0  0  0  0  0  0  0  0  0  0  0  0
   -5.0675   22.4742  -28.4236 H   0  0  0  0  0  0  0  0  0  0  0  0
   -4.0929   21.3490  -27.3702 H   0  0  0  0  0  0  0  0  0  0  0  0
   -3.6893   24.2299  -28.0016 H   0  0  0  0  0  0  0  0  0  0  0  0
   -3.2834   23.2338  -26.5186 H   0  0  0  0  0  0  0  0  0  0  0  0
   -1.1534   23.1817  -27.0984 H   0  0  0  0  0  0  0  0  0  0  0  0
   -1.6020   22.4175  -28.6814 H   0  0  0  0  0  0  0  0  0  0  0  0
   -5.0190   20.0081  -31.5146 H   0  0  0  0  0  0  0  0  0  0  0  0
  1  2  1  0
  2  3  1  0
  3  4  2  0
  3  5  1  0
  5  6  1  0
  6  7  1  0
  7  8  2  0
  8  9  1  0
  9 10  2  0
 10 11  1  0
 11 12  2  0
 12 13  1  0
 13 14  1  0
 13 15  2  0
 12 16  1  0
 16 17  1  0
 17 18  2  0
 17 19  1  0
 19 20  1  0
 20 21  1  0
 21 22  1  0
 22 23  1  0
 23 24  2  0
 23 25  1  0
 16 26  1  0
 26 27  2  0
 27  7  1  0
 26 10  1  0
  1 28  1  0
  1 29  1  0
  1 30  1  0
  5 31  1  0
  5 32  1  0
  6 33  1  0
  6 34  1  0
  8 35  1  0
  9 36  1  0
 11 37  1  0
 14 38  1  0
 14 39  1  0
 20 40  1  0
 20 41  1  0
 21 42  1  0
 21 43  1  0
 22 44  1  0
 22 45  1  0
 27 46  1  0
M  CHG  1  25  -1
M  END
>  <UniqueID>  (34) 
34

>  <SMILES>  (34) 
COC(=O)CCc1ccc2cc(C(N)=O)n(C(=O)SCCCC(=O)[O-])c2c1

>  <Energy>  (34) 
70.07378199809028

>  <Genealogy>  (34) 
COC(=O)CCc1ccc2cc(C(N)=O)n(C(=O)SCCCC(=O)[O-])c2c1 (protonated)
COC(=O)CCc1ccc2cc(C(N)=O)n(C(=O)SCCCC(=O)[O-])c2c1 (3D coordinates assigned)
COC(=O)CCc1ccc2cc(C(N)=O)n(C(=O)SCCCC(=O)[O-])c2c1 (optimized conformer: 70.07378199809028 kcal/mol)

>  <smiles>  (34) 
COC(=O)CCc1ccc2cc(C(N)=O)n(C(=O)SCCCC(=O)O)c2c1

>  <score_type>  (34) 
oracle

>  <origin>  (34) 
adg

>  <m_score__min__energy>  (34) 
-11.859999999999999

>  <m_primary>  (34) 
energy

$$$$
34:0
     RDKit          3D

 58 60  0  0  0  0  0  0  0  0999 V2000
   -1.7470   26.3850  -25.3440 C   0  0  0  0  0  0  0  0  0  0  0  0
   -1.8420   25.0870  -26.1550 C   0  0  0  0  0  0  0  0  0  0  0  0
   -3.2490   24.9160  -26.7260 C   0  0  0  0  0  0  0  0  0  0  0  0
   -0.9050   25.1110  -27.2330 O   0  0  0  0  0  0  0  0  0  0  0  0
    0.0060   24.0780  -27.4910 C   0  0  0  0  0  0  0  0  0  0  0  0
    0.9340   24.2320  -28.3310 O   0  0  0  0  0  0  0  0  0  0  0  0
   -0.1520   22.7660  -26.7920 C   0  0  0  0  0  0  0  0  0  0  0  0
    0.2350   21.6560  -27.6750 N   0  0  0  0  0  0  0  0  0  0  0  0
   -0.9020   21.0910  -28.4300 C   0  0  1  0  0  0  0  0  0  0  0  0
   -2.2630   21.6710  -27.9420 C   0  0  0  0  0  0  0  0  0  0  0  0
   -3.2890   21.7500  -29.0780 C   0  0  0  0  0  0  0  0  0  0  0  0
   -2.8210   22.7010  -30.2110 C   0  0  2  0  0  0  0  0  0  0  0  0
   -3.5900   22.4270  -31.4920 C   0  0  0  0  0  0  0  0  0  0  0  0
   -2.9980   21.9170  -32.4820 O   0  0  0  0  0  0  0  0  0  0  0  0
   -5.0150   22.5800  -31.5480 N   0  0  0  0  0  0  0  0  0  0  0  0
   -5.7630   23.5940  -31.0350 C   0  0  0  0  0  0  0  0  0  0  0  0
   -5.2330   24.7800  -30.3320 C   0  0  0  0  0  0  0  0  0  0  0  0
   -5.7550   25.1920  -29.0700 N   0  0  0  0  0  0  0  0  0  0  0  0
   -4.2850   25.4310  -30.8450 O   0  0  0  0  0  0  0  0  0  0  0  0
   -7.1210   23.3040  -31.1480 C   0  0  0  0  0  0  0  0  0  0  0  0
   -7.1790   22.0710  -31.7640 C   0  0  0  0  0  0  0  0  0  0  0  0
   -8.2760   21.2780  -32.0830 C   0  0  0  0  0  0  0  0  0  0  0  0
   -8.0340   20.0210  -32.6620 C   0  0  0  0  0  0  0  0  0  0  0  0
   -6.7100   19.5840  -32.9220 C   0  0  0  0  0  0  0  0  0  0  0  0
   -6.4640   18.2060  -33.4810 C   0  0  0  0  0  0  0  0  0  0  0  0
   -7.5980   17.4180  -33.3710 F   0  0  0  0  0  0  0  0  0  0  0  0
   -5.4360   17.5810  -32.7970 F   0  0  0  0  0  0  0  0  0  0  0  0
   -6.1190   18.3120  -34.8160 F   0  0  0  0  0  0  0  0  0  0  0  0
   -5.6200   20.4100  -32.5590 C   0  0  0  0  0  0  0  0  0  0  0  0
   -5.8930   21.6570  -31.9880 C   0  0  0  0  0  0  0  0  0  0  0  0
   -1.2760   22.6610  -30.4000 C   0  0  0  0  0  0  0  0  0  0  0  0
   -0.6730   21.3280  -29.9430 C   0  0  0  0  0  0  0  0  0  0  0  0
   -1.7643   26.1483  -24.2699 H   0  0  0  0  0  0  0  0  0  0  0  0
   -0.8085   26.9033  -25.5902 H   0  0  0  0  0  0  0  0  0  0  0  0
   -2.6000   27.0344  -25.5902 H   0  0  0  0  0  0  0  0  0  0  0  0
   -1.6148   24.2457  -25.4838 H   0  0  0  0  0  0  0  0  0  0  0  0
   -3.9713   24.8282  -25.9011 H   0  0  0  0  0  0  0  0  0  0  0  0
   -3.5026   25.7899  -27.3440 H   0  0  0  0  0  0  0  0  0  0  0  0
   -3.2859   24.0068  -27.3440 H   0  0  0  0  0  0  0  0  0  0  0  0
    0.4871   22.7547  -25.8967 H   0  0  0  0  0  0  0  0  0  0  0  0
   -1.2077   22.6411  -26.5094 H   0  0  0  0  0  0  0  0  0  0  0  0
    0.9600   22.0030  -28.3440 H   0  0  0  0  0  0  0  0  0  0  0  0
   -0.9545   20.0075  -28.2477 H   0  0  0  0  0  0  0  0  0  0  0  0
   -2.0962   22.6821  -27.5421 H   0  0  0  0  0  0  0  0  0  0  0  0
   -2.6622   20.9999  -27.1672 H   0  0  0  0  0  0  0  0  0  0  0  0
   -4.2417   22.1211  -28.6723 H   0  0  0  0  0  0  0  0  0  0  0  0
   -3.4066   20.7425  -29.5036 H   0  0  0  0  0  0  0  0  0  0  0  0
   -3.0537   23.7346  -29.9152 H   0  0  0  0  0  0  0  0  0  0  0  0
   -6.3750   24.5680  -28.5110 H   0  0  0  0  0  0  0  0  0  0  0  0
   -5.4420   26.0950  -28.6460 H   0  0  0  0  0  0  0  0  0  0  0  0
   -7.9662   23.9253  -30.8169 H   0  0  0  0  0  0  0  0  0  0  0  0
   -9.3017   21.6243  -31.8880 H   0  0  0  0  0  0  0  0  0  0  0  0
   -8.8816   19.3679  -32.9168 H   0  0  0  0  0  0  0  0  0  0  0  0
   -4.5836   20.0794  -32.7219 H   0  0  0  0  0  0  0  0  0  0  0  0
   -0.8256   23.4741  -29.8118 H   0  0  0  0  0  0  0  0  0  0  0  0
   -1.0630   22.7788  -31.4727 H   0  0  0  0  0  0  0  0  0  0  0  0
    0.4085   21.3373  -30.1437 H   0  0  0  0  0  0  0  0  0  0  0  0
   -1.1672   20.5171  -30.4982 H   0  0  0  0  0  0  0  0  0  0  0  0
  1  2  1  0
  2  3  1  0
  2  4  1  0
  4  5  1  0
  5  6  2  0
  5  7  1  0
  7  8  1  0
  8  9  1  0
  9 10  1  0
 10 11  1  0
 11 12  1  0
 12 13  1  0
 13 14  2  0
 13 15  1  0
 15 16  1  0
 16 17  1  0
 17 18  1  0
 17 19  2  0
 16 20  2  0
 20 21  1  0
 21 22  2  0
 22 23  1  0
 23 24  2  0
 24 25  1  0
 25 26  1  0
 25 27  1  0
 25 28  1  0
 24 29  1  0
 29 30  2  0
 12 31  1  0
 31 32  1  0
 32  9  1  0
 30 15  1  0
 30 21  1  0
  1 33  1  0
  1 34  1  0
  1 35  1  0
  2 36  1  0
  3 37  1  0
  3 38  1  0
  3 39  1  0
  7 40  1  0
  7 41  1  0
  8 42  1  0
  9 43  1  6
 10 44  1  0
 10 45  1  0
 11 46  1  0
 11 47  1  0
 12 48  1  1
 18 49  1  0
 18 50  1  0
 20 51  1  0
 22 52  1  0
 23 53  1  0
 29 54  1  0
 31 55  1  0
 31 56  1  0
 32 57  1  0
 32 58  1  0
M  END
>  <UniqueID>  (35) 
35

>  <SMILES>  (35) 
CC(C)OC(=O)CNC1CCC(C(=O)n2c(C(N)=O)cc3ccc(C(F)(F)F)cc32)CC1

>  <Energy>  (35) 
100.4076817843275

>  <Genealogy>  (35) 
CC(C)OC(=O)CNC1CCC(C(=O)n2c(C(N)=O)cc3ccc(C(F)(F)F)cc32)CC1 (3D coordinates assigned)
CC(C)OC(=O)CNC1CCC(C(=O)n2c(C(N)=O)cc3ccc(C(F)(F)F)cc32)CC1 (nonaromatic ring conformer: 100.4076817843275 kcal/mol)

>  <smiles>  (35) 
CC(C)OC(=O)CNC1CCC(C(=O)n2c(C(N)=O)cc3ccc(C(F)(F)F)cc32)CC1

>  <score_type>  (35) 
oracle

>  <origin>  (35) 
adg

>  <m_score__min__energy>  (35) 
-10.460000000000001

>  <m_primary>  (35) 
energy

$$$$
35:0
     RDKit          3D

 32 33  0  0  0  0  0  0  0  0999 V2000
   -1.8410   25.6670  -28.9680 N   0  0  0  0  0  0  0  0  0  0  0  0
   -1.0020   24.5170  -28.9930 C   0  0  0  0  0  0  0  0  0  0  0  0
    0.1680   24.5810  -28.5270 O   0  0  0  0  0  0  0  0  0  0  0  0
   -1.5020   23.2420  -29.5960 C   0  0  0  0  0  0  0  0  0  0  0  0
   -2.7960   23.4350  -30.1600 O   0  0  0  0  0  0  0  0  0  0  0  0
   -3.4570   22.4640  -30.9200 C   0  0  0  0  0  0  0  0  0  0  0  0
   -2.8190   21.4840  -31.3940 O   0  0  0  0  0  0  0  0  0  0  0  0
   -4.8710   22.5760  -31.1500 N   0  0  0  0  0  0  0  0  0  0  0  0
   -5.6660   23.6600  -30.9300 C   0  0  0  0  0  0  0  0  0  0  0  0
   -5.2470   24.9140  -30.2640 C   0  0  0  0  0  0  0  0  0  0  0  0
   -5.7800   25.2770  -28.9890 N   0  0  0  0  0  0  0  0  0  0  0  0
   -4.3880   25.6610  -30.8040 O   0  0  0  0  0  0  0  0  0  0  0  0
   -6.9740   23.3950  -31.3330 C   0  0  0  0  0  0  0  0  0  0  0  0
   -6.9550   22.1040  -31.8090 C   0  0  0  0  0  0  0  0  0  0  0  0
   -7.9840   21.3280  -32.3330 C   0  0  0  0  0  0  0  0  0  0  0  0
   -7.6760   20.0280  -32.7640 C   0  0  0  0  0  0  0  0  0  0  0  0
   -6.3470   19.5350  -32.6900 C   0  0  0  0  0  0  0  0  0  0  0  0
   -6.0360   18.1250  -33.1220 C   0  0  0  0  0  0  0  0  0  0  0  0
   -5.2340   18.1250  -34.2500 F   0  0  0  0  0  0  0  0  0  0  0  0
   -5.3750   17.4710  -32.0990 F   0  0  0  0  0  0  0  0  0  0  0  0
   -7.1990   17.4350  -33.4200 F   0  0  0  0  0  0  0  0  0  0  0  0
   -5.3340   20.3460  -32.1280 C   0  0  0  0  0  0  0  0  0  0  0  0
   -5.6740   21.6310  -31.6880 C   0  0  0  0  0  0  0  0  0  0  0  0
   -2.8260   25.6200  -29.3140 H   0  0  0  0  0  0  0  0  0  0  0  0
   -0.8074   22.9168  -30.3846 H   0  0  0  0  0  0  0  0  0  0  0  0
   -1.5655   22.4754  -28.8096 H   0  0  0  0  0  0  0  0  0  0  0  0
   -5.4480   26.1430  -28.5100 H   0  0  0  0  0  0  0  0  0  0  0  0
   -6.5330   24.7150  -28.5360 H   0  0  0  0  0  0  0  0  0  0  0  0
   -7.8380   24.0739  -31.2814 H   0  0  0  0  0  0  0  0  0  0  0  0
   -9.0085   21.7215  -32.4074 H   0  0  0  0  0  0  0  0  0  0  0  0
   -8.4735   19.3842  -33.1635 H   0  0  0  0  0  0  0  0  0  0  0  0
   -4.3021   19.9756  -32.0385 H   0  0  0  0  0  0  0  0  0  0  0  0
  1  2  1  0
  2  3  2  0
  2  4  1  0
  4  5  1  0
  5  6  1  0
  6  7  2  0
  6  8  1  0
  8  9  1  0
  9 10  1  0
 10 11  1  0
 10 12  2  0
  9 13  2  0
 13 14  1  0
 14 15  2  0
 15 16  1  0
 16 17  2  0
 17 18  1  0
 18 19  1  0
 18 20  1  0
 18 21  1  0
 17 22  1  0
 22 23  2  0
 23  8  1  0
 23 14  1  0
  1 24  1  0
  4 25  1  0
  4 26  1  0
 11 27  1  0
 11 28  1  0
 13 29  1  0
 15 30  1  0
 16 31  1  0
 22 32  1  0
M  CHG  1   1  -1
M  END
>  <UniqueID>  (36) 
36

>  <SMILES>  (36) 
[NH-]C(=O)COC(=O)n1c(C(N)=O)cc2ccc(C(F)(F)F)cc21

>  <Energy>  (36) 
68.54253670895547

>  <Genealogy>  (36) 
[NH-]C(=O)COC(=O)n1c(C(N)=O)cc2ccc(C(F)(F)F)cc21 (protonated)
[NH-]C(=O)COC(=O)n1c(C(N)=O)cc2ccc(C(F)(F)F)cc21 (3D coordinates assigned)
[NH-]C(=O)COC(=O)n1c(C(N)=O)cc2ccc(C(F)(F)F)cc21 (optimized conformer: 68.54253670895547 kcal/mol)

>  <smiles>  (36) 
NC(=O)COC(=O)n1c(C(N)=O)cc2ccc(C(F)(F)F)cc21

>  <score_type>  (36) 
oracle

>  <origin>  (36) 
adg

>  <m_score__min__energy>  (36) 
-11.09

>  <m_primary>  (36) 
energy

$$$$
36:0
     RDKit          3D

 29 30  0  0  0  0  0  0  0  0999 V2000
   -4.4730   25.6700  -30.8390 N   0  0  0  0  0  0  0  0  0  0  0  0
   -5.7330   25.0710  -30.5470 C   0  0  0  0  0  0  0  0  0  0  0  0
   -6.5870   25.7230  -29.8900 O   0  0  0  0  0  0  0  0  0  0  0  0
   -6.0630   23.7120  -31.0290 C   0  0  0  0  0  0  0  0  0  0  0  0
   -7.3460   23.3160  -31.4020 C   0  0  0  0  0  0  0  0  0  0  0  0
   -7.2160   22.0140  -31.8320 C   0  0  0  0  0  0  0  0  0  0  0  0
   -8.1800   21.1210  -32.2900 C   0  0  0  0  0  0  0  0  0  0  0  0
   -7.7650   19.8220  -32.6300 C   0  0  0  0  0  0  0  0  0  0  0  0
   -6.4030   19.4410  -32.5150 C   0  0  0  0  0  0  0  0  0  0  0  0
   -5.9820   18.0280  -32.8220 C   0  0  0  0  0  0  0  0  0  0  0  0
   -5.7500   17.3230  -31.6540 F   0  0  0  0  0  0  0  0  0  0  0  0
   -4.8200   18.0510  -33.5720 F   0  0  0  0  0  0  0  0  0  0  0  0
   -6.9670   17.3680  -33.5380 F   0  0  0  0  0  0  0  0  0  0  0  0
   -5.4600   20.3720  -32.0200 C   0  0  0  0  0  0  0  0  0  0  0  0
   -5.8980   21.6620  -31.7090 C   0  0  0  0  0  0  0  0  0  0  0  0
   -5.1770   22.6940  -31.2200 N   0  0  0  0  0  0  0  0  0  0  0  0
   -3.7770   22.6800  -30.9020 C   0  0  0  0  0  0  0  0  0  0  0  0
   -2.9440   22.3170  -31.7760 O   0  0  0  0  0  0  0  0  0  0  0  0
   -3.3090   23.0020  -29.5120 C   0  0  0  0  0  0  0  0  0  0  0  0
   -2.1210   23.9130  -29.5340 C   0  0  0  0  0  0  0  0  0  0  0  0
   -0.9700   23.4460  -29.7420 O   0  0  0  0  0  0  0  0  0  0  0  0
   -2.2840   25.2790  -29.3440 O   0  0  0  0  0  0  0  0  0  0  0  0
   -3.8750   26.0610  -30.0790 H   0  0  0  0  0  0  0  0  0  0  0  0
   -8.2671   23.9160  -31.3616 H   0  0  0  0  0  0  0  0  0  0  0  0
   -9.2338   21.4224  -32.3830 H   0  0  0  0  0  0  0  0  0  0  0  0
   -8.5050   19.0918  -32.9896 H   0  0  0  0  0  0  0  0  0  0  0  0
   -4.4064   20.0871  -31.8831 H   0  0  0  0  0  0  0  0  0  0  0  0
   -4.1265   23.4928  -28.9636 H   0  0  0  0  0  0  0  0  0  0  0  0
   -3.0170   22.0633  -29.0184 H   0  0  0  0  0  0  0  0  0  0  0  0
  1  2  1  0
  2  3  2  0
  2  4  1  0
  4  5  2  0
  5  6  1  0
  6  7  2  0
  7  8  1  0
  8  9  2  0
  9 10  1  0
 10 11  1  0
 10 12  1  0
 10 13  1  0
  9 14  1  0
 14 15  2  0
 15 16  1  0
 16 17  1  0
 17 18  2  0
 17 19  1  0
 19 20  1  0
 20 21  2  0
 20 22  1  0
 16  4  1  0
 15  6  1  0
  1 23  1  0
  5 24  1  0
  7 25  1  0
  8 26  1  0
 14 27  1  0
 19 28  1  0
 19 29  1  0
M  CHG  2   1  -1  22  -1
M  END
>  <UniqueID>  (37) 
37

>  <SMILES>  (37) 
[NH-]C(=O)c1cc2ccc(C(F)(F)F)cc2n1C(=O)CC(=O)[O-]

>  <Energy>  (37) 
68.69434643380758

>  <Genealogy>  (37) 
[NH-]C(=O)c1cc2ccc(C(F)(F)F)cc2n1C(=O)CC(=O)[O-] (protonated)
[NH-]C(=O)c1cc2ccc(C(F)(F)F)cc2n1C(=O)CC(=O)[O-] (3D coordinates assigned)
[NH-]C(=O)c1cc2ccc(C(F)(F)F)cc2n1C(=O)CC(=O)[O-] (optimized conformer: 68.69434643380758 kcal/mol)

>  <smiles>  (37) 
NC(=O)c1cc2ccc(C(F)(F)F)cc2n1C(=O)CC(=O)O

>  <score_type>  (37) 
oracle

>  <origin>  (37) 
adg

>  <m_score__min__energy>  (37) 
-11.01

>  <m_primary>  (37) 
energy

$$$$
37:0
     RDKit          3D

 36 37  0  0  0  0  0  0  0  0999 V2000
   -4.2410   25.6690  -30.8070 N   0  0  0  0  0  0  0  0  0  0  0  0
   -5.5590   25.2340  -30.4830 C   0  0  0  0  0  0  0  0  0  0  0  0
   -6.2950   25.9730  -29.7760 O   0  0  0  0  0  0  0  0  0  0  0  0
   -6.0570   23.9140  -30.9260 C   0  0  0  0  0  0  0  0  0  0  0  0
   -7.3860   23.6660  -31.2630 C   0  0  0  0  0  0  0  0  0  0  0  0
   -7.4460   22.3220  -31.5530 C   0  0  0  0  0  0  0  0  0  0  0  0
   -8.5190   21.5410  -31.9700 C   0  0  0  0  0  0  0  0  0  0  0  0
   -8.2820   20.1820  -32.2360 C   0  0  0  0  0  0  0  0  0  0  0  0
   -6.9840   19.6310  -32.0810 C   0  0  0  0  0  0  0  0  0  0  0  0
   -6.7270   18.1830  -32.4180 C   0  0  1  0  0  0  0  0  0  0  0  0
   -7.9040   17.4600  -32.3190 F   0  0  0  0  0  0  0  0  0  0  0  0
   -6.1510   18.0540  -33.8320 C   0  0  0  0  0  0  0  0  0  0  0  0
   -6.4050   19.2710  -34.5970 N   0  0  0  0  0  0  0  0  0  0  0  0
   -5.9150   20.4600  -31.6720 C   0  0  0  0  0  0  0  0  0  0  0  0
   -6.1870   21.8040  -31.3930 C   0  0  0  0  0  0  0  0  0  0  0  0
   -5.3230   22.7680  -31.0080 N   0  0  0  0  0  0  0  0  0  0  0  0
   -3.9090   22.6120  -30.8170 C   0  0  0  0  0  0  0  0  0  0  0  0
   -3.2830   21.7340  -31.4700 O   0  0  0  0  0  0  0  0  0  0  0  0
   -3.2150   23.4430  -29.8790 N   0  0  0  0  0  0  0  0  0  0  0  0
   -1.7960   23.2450  -29.5890 C   0  0  0  0  0  0  0  0  0  0  0  0
   -1.1780   24.5150  -29.0930 C   0  0  0  0  0  0  0  0  0  0  0  0
    0.0280   24.5320  -28.7340 O   0  0  0  0  0  0  0  0  0  0  0  0
   -1.9500   25.6640  -28.9750 O   0  0  0  0  0  0  0  0  0  0  0  0
   -3.4890   25.6860  -30.0830 H   0  0  0  0  0  0  0  0  0  0  0  0
   -8.2126   24.3912  -31.2913 H   0  0  0  0  0  0  0  0  0  0  0  0
   -9.5231   21.9745  -32.0879 H   0  0  0  0  0  0  0  0  0  0  0  0
   -9.1107   19.5391  -32.5676 H   0  0  0  0  0  0  0  0  0  0  0  0
   -5.9938   17.7808  -31.7034 H   0  0  0  0  0  0  0  0  0  0  0  0
   -5.0658   17.8861  -33.7676 H   0  0  0  0  0  0  0  0  0  0  0  0
   -6.6348   17.2060  -34.3388 H   0  0  0  0  0  0  0  0  0  0  0  0
   -6.4830   19.0140  -35.6070 H   0  0  0  0  0  0  0  0  0  0  0  0
   -7.3440   19.6350  -34.3120 H   0  0  0  0  0  0  0  0  0  0  0  0
   -4.8952   20.0590  -31.5754 H   0  0  0  0  0  0  0  0  0  0  0  0
   -3.7440   24.2140  -29.4100 H   0  0  0  0  0  0  0  0  0  0  0  0
   -1.6894   22.4663  -28.8194 H   0  0  0  0  0  0  0  0  0  0  0  0
   -1.2843   22.9387  -30.5133 H   0  0  0  0  0  0  0  0  0  0  0  0
  1  2  1  0
  2  3  2  0
  2  4  1  0
  4  5  2  0
  5  6  1  0
  6  7  2  0
  7  8  1  0
  8  9  2  0
  9 10  1  0
 10 11  1  0
 10 12  1  0
 12 13  1  0
  9 14  1  0
 14 15  2  0
 15 16  1  0
 16 17  1  0
 17 18  2  0
 17 19  1  0
 19 20  1  0
 20 21  1  0
 21 22  2  0
 21 23  1  0
 16  4  1  0
 15  6  1  0
  1 24  1  0
  5 25  1  0
  7 26  1  0
  8 27  1  0
 10 28  1  1
 12 29  1  0
 12 30  1  0
 13 31  1  0
 13 32  1  0
 14 33  1  0
 19 34  1  0
 20 35  1  0
 20 36  1  0
M  CHG  2   1  -1  23  -1
M  END
>  <UniqueID>  (38) 
38

>  <SMILES>  (38) 
[NH-]C(=O)c1cc2ccc([C@@H](F)CN)cc2n1C(=O)NCC(=O)[O-]

>  <Energy>  (38) 
69.1981186893565

>  <Genealogy>  (38) 
[NH-]C(=O)c1cc2ccc(C(F)CN)cc2n1C(=O)NCC(=O)[O-] (protonated)
[NH-]C(=O)c1cc2ccc([C@@H](F)CN)cc2n1C(=O)NCC(=O)[O-] (chirality)
[NH-]C(=O)c1cc2ccc([C@@H](F)CN)cc2n1C(=O)NCC(=O)[O-] (3D coordinates assigned)
[NH-]C(=O)c1cc2ccc([C@@H](F)CN)cc2n1C(=O)NCC(=O)[O-] (optimized conformer: 69.1981186893565 kcal/mol)

>  <smiles>  (38) 
NCC(F)c1ccc2cc(C(N)=O)n(C(=O)NCC(=O)O)c2c1

>  <score_type>  (38) 
oracle

>  <origin>  (38) 
adg

>  <m_score__min__energy>  (38) 
-12.48

>  <m_primary>  (38) 
energy

$$$$
38:0
     RDKit          3D

 30 31  0  0  0  0  0  0  0  0999 V2000
   -4.0420   25.6780  -30.8410 N   0  0  0  0  0  0  0  0  0  0  0  0
   -3.7600   24.3660  -30.3600 C   0  0  0  0  0  0  0  0  0  0  0  0
   -2.9240   24.2160  -29.4310 O   0  0  0  0  0  0  0  0  0  0  0  0
   -4.4280   23.1970  -30.9700 C   0  0  0  0  0  0  0  0  0  0  0  0
   -3.7850   22.2790  -31.7980 C   0  0  0  0  0  0  0  0  0  0  0  0
   -4.7340   21.3220  -32.0870 C   0  0  0  0  0  0  0  0  0  0  0  0
   -4.6510   20.1850  -32.8840 C   0  0  0  0  0  0  0  0  0  0  0  0
   -5.8030   19.3920  -33.0230 C   0  0  0  0  0  0  0  0  0  0  0  0
   -7.0090   19.7370  -32.3560 C   0  0  0  0  0  0  0  0  0  0  0  0
   -8.2520   18.9110  -32.5600 C   0  0  0  0  0  0  0  0  0  0  0  0
   -9.2210   19.6410  -33.2270 F   0  0  0  0  0  0  0  0  0  0  0  0
   -7.9370   17.7920  -33.3080 F   0  0  0  0  0  0  0  0  0  0  0  0
   -8.7760   18.5080  -31.3430 F   0  0  0  0  0  0  0  0  0  0  0  0
   -7.0570   20.9150  -31.5740 C   0  0  0  0  0  0  0  0  0  0  0  0
   -5.8920   21.6770  -31.4480 C   0  0  0  0  0  0  0  0  0  0  0  0
   -5.7210   22.8270  -30.7630 N   0  0  0  0  0  0  0  0  0  0  0  0
   -6.7320   23.5220  -30.0210 C   0  0  0  0  0  0  0  0  0  0  0  0
   -7.6140   22.8680  -29.4040 O   0  0  0  0  0  0  0  0  0  0  0  0
   -6.8180   25.0190  -30.0720 C   0  0  0  0  0  0  0  0  0  0  0  0
   -6.0530   25.6120  -28.9760 N   0  0  0  0  0  0  0  0  0  0  0  0
   -4.2490   26.4590  -30.1810 H   0  0  0  0  0  0  0  0  0  0  0  0
   -2.7422   22.3112  -32.1467 H   0  0  0  0  0  0  0  0  0  0  0  0
   -3.7124   19.9148  -33.3900 H   0  0  0  0  0  0  0  0  0  0  0  0
   -5.7705   18.4930  -33.6561 H   0  0  0  0  0  0  0  0  0  0  0  0
   -7.9886   21.2238  -31.0772 H   0  0  0  0  0  0  0  0  0  0  0  0
   -6.4111   25.3728  -31.0308 H   0  0  0  0  0  0  0  0  0  0  0  0
   -7.8718   25.3190  -29.9743 H   0  0  0  0  0  0  0  0  0  0  0  0
   -6.4570   26.5430  -28.7200 H   0  0  0  0  0  0  0  0  0  0  0  0
   -6.0680   24.9790  -28.1440 H   0  0  0  0  0  0  0  0  0  0  0  0
   -5.0620   25.7450  -29.2830 H   0  0  0  0  0  0  0  0  0  0  0  0
  1  2  1  0
  2  3  2  0
  2  4  1  0
  4  5  2  0
  5  6  1  0
  6  7  2  0
  7  8  1  0
  8  9  2  0
  9 10  1  0
 10 11  1  0
 10 12  1  0
 10 13  1  0
  9 14  1  0
 14 15  2  0
 15 16  1  0
 16 17  1  0
 17 18  2  0
 17 19  1  0
 19 20  1  0
 16  4  1  0
 15  6  1  0
  1 21  1  0
  5 22  1  0
  7 23  1  0
  8 24  1  0
 14 25  1  0
 19 26  1  0
 19 27  1  0
 20 28  1  0
 20 29  1  0
 20 30  1  0
M  CHG  2   1  -1  20   1
M  END
>  <UniqueID>  (39) 
39

>  <SMILES>  (39) 
[NH-]C(=O)c1cc2ccc(C(F)(F)F)cc2n1C(=O)C[NH3+]

>  <Energy>  (39) 
68.4885437087207

>  <Genealogy>  (39) 
[NH-]C(=O)c1cc2ccc(C(F)(F)F)cc2n1C(=O)C[NH3+] (protonated)
[NH-]C(=O)c1cc2ccc(C(F)(F)F)cc2n1C(=O)C[NH3+] (3D coordinates assigned)
[NH-]C(=O)c1cc2ccc(C(F)(F)F)cc2n1C(=O)C[NH3+] (optimized conformer: 68.4885437087207 kcal/mol)

>  <smiles>  (39) 
NCC(=O)n1c(C(N)=O)cc2ccc(C(F)(F)F)cc21

>  <score_type>  (39) 
oracle

>  <origin>  (39) 
adg

>  <m_score__min__energy>  (39) 
-8.8900000000000006

>  <m_primary>  (39) 
energy

$$$$
39:0
     RDKit          3D

 37 38  0  0  0  0  0  0  0  0999 V2000
   -6.4380   17.3770  -31.3290 C   0  0  0  0  0  0  0  0  0  0  0  0
   -6.5570   18.3520  -32.4200 N   0  0  0  0  0  0  0  0  0  0  0  0
   -6.4690   17.8780  -33.8060 C   0  0  0  0  0  0  0  0  0  0  0  0
   -6.7610   19.7610  -32.1320 C   0  0  0  0  0  0  0  0  0  0  0  0
   -8.0540   20.3460  -32.2490 C   0  0  0  0  0  0  0  0  0  0  0  0
   -8.2660   21.7040  -31.9630 C   0  0  0  0  0  0  0  0  0  0  0  0
   -7.1730   22.4670  -31.5690 C   0  0  0  0  0  0  0  0  0  0  0  0
   -7.1020   23.7940  -31.2120 C   0  0  0  0  0  0  0  0  0  0  0  0
   -5.7640   24.0210  -30.9010 C   0  0  0  0  0  0  0  0  0  0  0  0
   -5.2250   25.3500  -30.5360 C   0  0  0  0  0  0  0  0  0  0  0  0
   -3.8670   25.6680  -30.8260 N   0  0  0  0  0  0  0  0  0  0  0  0
   -5.9450   26.1970  -29.9430 O   0  0  0  0  0  0  0  0  0  0  0  0
   -5.0370   22.8780  -31.0550 N   0  0  0  0  0  0  0  0  0  0  0  0
   -3.6400   22.6830  -30.7860 C   0  0  0  0  0  0  0  0  0  0  0  0
   -2.7870   22.9330  -31.6800 O   0  0  0  0  0  0  0  0  0  0  0  0
   -3.2190   22.2250  -29.4960 N   0  0  0  0  0  0  0  0  0  0  0  0
   -3.6280   22.8410  -28.2390 C   0  0  0  0  0  0  0  0  0  0  0  0
   -3.0510   24.2540  -28.1130 C   0  0  0  0  0  0  0  0  0  0  0  0
   -2.0830   24.4930  -29.0980 O   0  0  0  0  0  0  0  0  0  0  0  0
   -5.9150   21.9360  -31.4660 C   0  0  0  0  0  0  0  0  0  0  0  0
   -5.6770   20.5820  -31.7250 C   0  0  0  0  0  0  0  0  0  0  0  0
   -6.5017   17.8985  -30.3626 H   0  0  0  0  0  0  0  0  0  0  0  0
   -7.2531   16.6421  -31.4035 H   0  0  0  0  0  0  0  0  0  0  0  0
   -5.4701   16.8598  -31.4035 H   0  0  0  0  0  0  0  0  0  0  0  0
   -6.2682   16.7965  -33.8116 H   0  0  0  0  0  0  0  0  0  0  0  0
   -7.4195   18.0772  -34.3227 H   0  0  0  0  0  0  0  0  0  0  0  0
   -5.6534   18.4050  -34.3227 H   0  0  0  0  0  0  0  0  0  0  0  0
   -8.9019   19.7227  -32.5692 H   0  0  0  0  0  0  0  0  0  0  0  0
   -9.2675   22.1510  -32.0482 H   0  0  0  0  0  0  0  0  0  0  0  0
   -7.9269   24.5209  -31.1793 H   0  0  0  0  0  0  0  0  0  0  0  0
   -3.1390   24.9210  -30.8720 H   0  0  0  0  0  0  0  0  0  0  0  0
   -4.7261   22.8954  -28.2045 H   0  0  0  0  0  0  0  0  0  0  0  0
   -3.2487   22.2297  -27.4069 H   0  0  0  0  0  0  0  0  0  0  0  0
   -3.8648   24.9857  -28.2240 H   0  0  0  0  0  0  0  0  0  0  0  0
   -2.5762   24.3509  -27.1255 H   0  0  0  0  0  0  0  0  0  0  0  0
   -2.4880   24.2300  -29.9660 H   0  0  0  0  0  0  0  0  0  0  0  0
   -4.6668   20.1607  -31.6151 H   0  0  0  0  0  0  0  0  0  0  0  0
  1  2  1  0
  2  3  1  0
  2  4  1  0
  4  5  2  0
  5  6  1  0
  6  7  2  0
  7  8  1  0
  8  9  2  0
  9 10  1  0
 10 11  1  0
 10 12  2  0
  9 13  1  0
 13 14  1  0
 14 15  2  0
 14 16  1  0
 16 17  1  0
 17 18  1  0
 18 19  1  0
 13 20  1  0
 20 21  2  0
 21  4  1  0
 20  7  1  0
  1 22  1  0
  1 23  1  0
  1 24  1  0
  3 25  1  0
  3 26  1  0
  3 27  1  0
  5 28  1  0
  6 29  1  0
  8 30  1  0
 11 31  1  0
 17 32  1  0
 17 33  1  0
 18 34  1  0
 18 35  1  0
 19 36  1  0
 21 37  1  0
M  CHG  2  11  -1  16  -1
M  END
>  <UniqueID>  (40) 
40

>  <SMILES>  (40) 
CN(C)c1ccc2cc(C([NH-])=O)n(C(=O)[N-]CCO)c2c1

>  <Energy>  (40) 
73.78655206399968

>  <Genealogy>  (40) 
CN(C)c1ccc2cc(C([NH-])=O)n(C(=O)[N-]CCO)c2c1 (protonated)
CN(C)c1ccc2cc(C([NH-])=O)n(C(=O)[N-]CCO)c2c1 (3D coordinates assigned)
CN(C)c1ccc2cc(C([NH-])=O)n(C(=O)[N-]CCO)c2c1 (optimized conformer: 73.78655206399968 kcal/mol)

>  <smiles>  (40) 
CN(C)c1ccc2cc(C(N)=O)n(C(=O)NCCO)c2c1

>  <score_type>  (40) 
oracle

>  <origin>  (40) 
adg

>  <m_score__min__energy>  (40) 
-10.59

>  <m_primary>  (40) 
energy

$$$$
40:0
     RDKit          3D

 33 35  0  0  0  0  0  0  0  0999 V2000
   -3.8620   25.4000  -30.8460 N   0  0  0  0  0  0  0  0  0  0  0  0
   -5.1930   25.0850  -30.4490 C   0  0  0  0  0  0  0  0  0  0  0  0
   -5.8450   25.9170  -29.7630 O   0  0  0  0  0  0  0  0  0  0  0  0
   -5.8300   23.8220  -30.8700 C   0  0  0  0  0  0  0  0  0  0  0  0
   -7.2060   23.6650  -31.0310 C   0  0  0  0  0  0  0  0  0  0  0  0
   -7.3740   22.3810  -31.4990 C   0  0  0  0  0  0  0  0  0  0  0  0
   -8.5380   21.6870  -31.8210 C   0  0  0  0  0  0  0  0  0  0  0  0
   -8.4110   20.3570  -32.2580 C   0  0  0  0  0  0  0  0  0  0  0  0
   -7.1340   19.7510  -32.3690 C   0  0  0  0  0  0  0  0  0  0  0  0
   -7.0160   18.3170  -32.7970 C   0  0  0  0  0  0  0  0  0  0  0  0
   -5.9580   18.1790  -33.8440 C   0  0  0  0  0  0  0  0  0  0  0  0
   -5.0390   17.3290  -33.7090 O   0  0  0  0  0  0  0  0  0  0  0  0
   -6.0140   18.9550  -34.9950 O   0  0  0  0  0  0  0  0  0  0  0  0
   -5.9770   20.4850  -32.0240 C   0  0  0  0  0  0  0  0  0  0  0  0
   -6.1340   21.8090  -31.6030 C   0  0  0  0  0  0  0  0  0  0  0  0
   -5.1780   22.6770  -31.2150 N   0  0  0  0  0  0  0  0  0  0  0  0
   -3.7770   22.3880  -31.1080 C   0  0  0  0  0  0  0  0  0  0  0  0
   -3.1120   22.1520  -32.1540 O   0  0  0  0  0  0  0  0  0  0  0  0
   -3.1470   22.2010  -29.7580 C   0  0  0  0  0  0  0  0  0  0  0  0
   -2.5470   23.4730  -29.2440 C   0  0  0  0  0  0  0  0  0  0  0  0
   -3.1010   24.2460  -28.2930 N   0  0  0  0  0  0  0  0  0  0  0  0
   -2.2590   25.2560  -28.1510 N   0  0  0  0  0  0  0  0  0  0  0  0
   -1.2370   25.1070  -28.9790 N   0  0  0  0  0  0  0  0  0  0  0  0
   -1.3860   23.9960  -29.6800 N   0  0  0  0  0  0  0  0  0  0  0  0
   -3.0640   25.2930  -30.1830 H   0  0  0  0  0  0  0  0  0  0  0  0
   -7.9905   24.4087  -30.8274 H   0  0  0  0  0  0  0  0  0  0  0  0
   -9.5253   22.1646  -31.7360 H   0  0  0  0  0  0  0  0  0  0  0  0
   -9.3115   19.7805  -32.5165 H   0  0  0  0  0  0  0  0  0  0  0  0
   -6.7500   17.6984  -31.9272 H   0  0  0  0  0  0  0  0  0  0  0  0
   -7.9789   17.9847  -33.2121 H   0  0  0  0  0  0  0  0  0  0  0  0
   -4.9789   20.0268  -32.0850 H   0  0  0  0  0  0  0  0  0  0  0  0
   -3.9164   21.8586  -29.0503 H   0  0  0  0  0  0  0  0  0  0  0  0
   -2.3418   21.4580  -29.8561 H   0  0  0  0  0  0  0  0  0  0  0  0
  1  2  1  0
  2  3  2  0
  2  4  1  0
  4  5  2  0
  5  6  1  0
  6  7  2  0
  7  8  1  0
  8  9  2  0
  9 10  1  0
 10 11  1  0
 11 12  2  0
 11 13  1  0
  9 14  1  0
 14 15  2  0
 15 16  1  0
 16 17  1  0
 17 18  2  0
 17 19  1  0
 19 20  1  0
 20 21  1  0
 21 22  2  0
 22 23  1  0
 23 24  1  0
 16  4  1  0
 24 20  2  0
 15  6  1  0
  1 25  1  0
  5 26  1  0
  7 27  1  0
  8 28  1  0
 10 29  1  0
 10 30  1  0
 14 31  1  0
 19 32  1  0
 19 33  1  0
M  CHG  3   1  -1  13  -1  23  -1
M  END
>  <UniqueID>  (41) 
41

>  <SMILES>  (41) 
[NH-]C(=O)c1cc2ccc(CC(=O)[O-])cc2n1C(=O)Cc1nn[n-]n1

>  <Energy>  (41) 
111.11265297114339

>  <Genealogy>  (41) 
[NH-]C(=O)c1cc2ccc(CC(=O)[O-])cc2n1C(=O)Cc1nn[n-]n1 (protonated)
[NH-]C(=O)c1cc2ccc(CC(=O)[O-])cc2n1C(=O)Cc1nn[n-]n1 (3D coordinates assigned)
[NH-]C(=O)c1cc2ccc(CC(=O)[O-])cc2n1C(=O)Cc1nn[n-]n1 (optimized conformer: 111.11265297114339 kcal/mol)

>  <smiles>  (41) 
NC(=O)c1cc2ccc(CC(=O)O)cc2n1C(=O)Cc1nn[nH]n1

>  <score_type>  (41) 
oracle

>  <origin>  (41) 
adg

>  <m_score__min__energy>  (41) 
-11.32

>  <m_primary>  (41) 
energy

$$$$
41:0
     RDKit          3D

 43 44  0  0  0  0  0  0  0  0999 V2000
   -6.6800   17.9100  -31.5590 C   0  0  0  0  0  0  0  0  0  0  0  0
   -7.6480   19.0900  -31.4770 C   0  0  2  0  0  0  0  0  0  0  0  0
   -9.0400   18.6730  -31.9750 C   0  0  0  0  0  0  0  0  0  0  0  0
   -9.3740   19.3910  -33.1290 O   0  0  0  0  0  0  0  0  0  0  0  0
   -7.1370   20.1560  -32.2770 O   0  0  0  0  0  0  0  0  0  0  0  0
   -6.2530   19.9710  -33.3440 C   0  0  0  0  0  0  0  0  0  0  0  0
   -6.4900   19.1150  -34.2390 O   0  0  0  0  0  0  0  0  0  0  0  0
   -5.0250   20.8230  -33.4410 C   0  0  0  0  0  0  0  0  0  0  0  0
   -3.8550   20.1010  -32.9180 N   0  0  0  0  0  0  0  0  0  0  0  0
   -3.5820   18.7490  -33.4170 C   0  0  0  0  0  0  0  0  0  0  0  0
   -2.9430   20.7270  -31.9780 C   0  0  0  0  0  0  0  0  0  0  0  0
   -1.6960   20.1170  -31.6710 C   0  0  0  0  0  0  0  0  0  0  0  0
   -0.8060   20.7050  -30.7590 C   0  0  0  0  0  0  0  0  0  0  0  0
   -1.1730   21.9090  -30.1730 C   0  0  0  0  0  0  0  0  0  0  0  0
   -0.5130   22.6740  -29.2390 C   0  0  0  0  0  0  0  0  0  0  0  0
   -1.3440   23.7640  -29.0030 C   0  0  0  0  0  0  0  0  0  0  0  0
   -0.9850   24.8800  -28.1070 C   0  0  0  0  0  0  0  0  0  0  0  0
   -1.9870   25.6220  -27.4130 N   0  0  0  0  0  0  0  0  0  0  0  0
    0.2240   25.2170  -27.9930 O   0  0  0  0  0  0  0  0  0  0  0  0
   -2.4810   23.6750  -29.7500 N   0  0  0  0  0  0  0  0  0  0  0  0
   -3.6270   24.5420  -29.6920 C   0  0  0  0  0  0  0  0  0  0  0  0
   -4.4310   24.4760  -28.7260 O   0  0  0  0  0  0  0  0  0  0  0  0
   -3.8600   25.4630  -30.7060 O   0  0  0  0  0  0  0  0  0  0  0  0
   -2.3590   22.5320  -30.4640 C   0  0  0  0  0  0  0  0  0  0  0  0
   -3.2760   21.9550  -31.3500 C   0  0  0  0  0  0  0  0  0  0  0  0
   -6.4125   17.5839  -30.5431 H   0  0  0  0  0  0  0  0  0  0  0  0
   -7.1598   17.0788  -32.0965 H   0  0  0  0  0  0  0  0  0  0  0  0
   -5.7710   18.2181  -32.0965 H   0  0  0  0  0  0  0  0  0  0  0  0
   -7.7428   19.4204  -30.4321 H   0  0  0  0  0  0  0  0  0  0  0  0
   -9.0370   17.5972  -32.2042 H   0  0  0  0  0  0  0  0  0  0  0  0
   -9.7814   18.8871  -31.1911 H   0  0  0  0  0  0  0  0  0  0  0  0
   -8.5630   19.3910  -33.7000 H   0  0  0  0  0  0  0  0  0  0  0  0
   -4.8479   21.0843  -34.4947 H   0  0  0  0  0  0  0  0  0  0  0  0
   -5.1764   21.7349  -32.8447 H   0  0  0  0  0  0  0  0  0  0  0  0
   -3.4439   18.0652  -32.5665 H   0  0  0  0  0  0  0  0  0  0  0  0
   -4.4290   18.4062  -34.0294 H   0  0  0  0  0  0  0  0  0  0  0  0
   -2.6683   18.7617  -34.0294 H   0  0  0  0  0  0  0  0  0  0  0  0
   -1.4242   19.1681  -32.1565 H   0  0  0  0  0  0  0  0  0  0  0  0
    0.1539   20.2262  -30.5156 H   0  0  0  0  0  0  0  0  0  0  0  0
    0.4638   22.4675  -28.7773 H   0  0  0  0  0  0  0  0  0  0  0  0
   -1.7130   26.3910  -26.7620 H   0  0  0  0  0  0  0  0  0  0  0  0
   -3.0020   25.4640  -27.5990 H   0  0  0  0  0  0  0  0  0  0  0  0
   -4.2389   22.4454  -31.5561 H   0  0  0  0  0  0  0  0  0  0  0  0
  1  2  1  0
  2  3  1  0
  3  4  1  0
  2  5  1  0
  5  6  1  0
  6  7  2  0
  6  8  1  0
  8  9  1  0
  9 10  1  0
  9 11  1  0
 11 12  2  0
 12 13  1  0
 13 14  2  0
 14 15  1  0
 15 16  2  0
 16 17  1  0
 17 18  1  0
 17 19  2  0
 16 20  1  0
 20 21  1  0
 21 22  2  0
 21 23  1  0
 20 24  1  0
 24 25  2  0
 25 11  1  0
 24 14  1  0
  1 26  1  0
  1 27  1  0
  1 28  1  0
  2 29  1  1
  3 30  1  0
  3 31  1  0
  4 32  1  0
  8 33  1  0
  8 34  1  0
 10 35  1  0
 10 36  1  0
 10 37  1  0
 12 38  1  0
 13 39  1  0
 15 40  1  0
 18 41  1  0
 18 42  1  0
 25 43  1  0
M  CHG  1  23  -1
M  END
>  <UniqueID>  (42) 
42

>  <SMILES>  (42) 
C[C@H](CO)OC(=O)CN(C)c1ccc2cc(C(N)=O)n(C(=O)[O-])c2c1

>  <Energy>  (42) 
77.25318316867458

>  <Genealogy>  (42) 
C[C@H](CO)OC(=O)CN(C)c1ccc2cc(C(N)=O)n(C(=O)[O-])c2c1 (protonated)
C[C@H](CO)OC(=O)CN(C)c1ccc2cc(C(N)=O)n(C(=O)[O-])c2c1 (3D coordinates assigned)
C[C@H](CO)OC(=O)CN(C)c1ccc2cc(C(N)=O)n(C(=O)[O-])c2c1 (optimized conformer: 77.25318316867458 kcal/mol)

>  <smiles>  (42) 
C[C@H](CO)OC(=O)CN(C)c1ccc2cc(C(N)=O)n(C(=O)O)c2c1

>  <score_type>  (42) 
oracle

>  <origin>  (42) 
adg

>  <m_score__min__energy>  (42) 
-8.3599999999999994

>  <m_primary>  (42) 
energy

$$$$
42:0
     RDKit          3D

 43 44  0  0  0  0  0  0  0  0999 V2000
   -8.0550   21.6620  -31.8150 C   0  0  0  0  0  0  0  0  0  0  0  0
   -8.4850   20.5220  -32.5260 O   0  0  0  0  0  0  0  0  0  0  0  0
   -8.2430   19.3690  -31.7490 C   0  0  0  0  0  0  0  0  0  0  0  0
   -8.0150   18.1790  -32.6740 C   0  0  0  0  0  0  0  0  0  0  0  0
   -6.6250   17.9860  -32.8420 O   0  0  0  0  0  0  0  0  0  0  0  0
   -6.1390   18.7600  -33.9240 C   0  0  0  0  0  0  0  0  0  0  0  0
   -5.4000   20.0200  -33.4460 C   0  0  0  0  0  0  0  0  0  0  0  0
   -3.9510   19.7810  -33.3300 N   0  0  0  0  0  0  0  0  0  0  0  0
   -3.2960   18.7870  -34.1870 C   0  0  0  0  0  0  0  0  0  0  0  0
   -3.1530   20.5320  -32.3900 C   0  0  0  0  0  0  0  0  0  0  0  0
   -1.9420   19.9880  -31.8920 C   0  0  0  0  0  0  0  0  0  0  0  0
   -1.1890   20.6740  -30.9250 C   0  0  0  0  0  0  0  0  0  0  0  0
   -1.6660   21.9020  -30.4780 C   0  0  0  0  0  0  0  0  0  0  0  0
   -1.1770   22.7360  -29.4980 C   0  0  0  0  0  0  0  0  0  0  0  0
   -2.0810   23.7930  -29.4290 C   0  0  0  0  0  0  0  0  0  0  0  0
   -1.9090   24.9570  -28.5350 C   0  0  0  0  0  0  0  0  0  0  0  0
   -1.1980   26.1040  -28.9950 N   0  0  0  0  0  0  0  0  0  0  0  0
   -2.4120   24.9640  -27.3810 O   0  0  0  0  0  0  0  0  0  0  0  0
   -3.0900   23.6200  -30.3290 N   0  0  0  0  0  0  0  0  0  0  0  0
   -4.2680   24.4250  -30.4940 C   0  0  0  0  0  0  0  0  0  0  0  0
   -4.1700   25.6410  -30.8040 O   0  0  0  0  0  0  0  0  0  0  0  0
   -5.5300   23.8620  -30.3430 O   0  0  0  0  0  0  0  0  0  0  0  0
   -2.8190   22.4580  -30.9660 C   0  0  0  0  0  0  0  0  0  0  0  0
   -3.5900   21.7950  -31.9250 C   0  0  0  0  0  0  0  0  0  0  0  0
   -8.1277   21.4692  -30.7345 H   0  0  0  0  0  0  0  0  0  0  0  0
   -7.0106   21.8859  -32.0781 H   0  0  0  0  0  0  0  0  0  0  0  0
   -8.6913   22.5198  -32.0781 H   0  0  0  0  0  0  0  0  0  0  0  0
   -7.3506   19.5264  -31.1254 H   0  0  0  0  0  0  0  0  0  0  0  0
   -9.1096   19.1720  -31.1007 H   0  0  0  0  0  0  0  0  0  0  0  0
   -8.4617   17.2767  -32.2309 H   0  0  0  0  0  0  0  0  0  0  0  0
   -8.4839   18.3721  -33.6501 H   0  0  0  0  0  0  0  0  0  0  0  0
   -5.4457   18.1453  -34.5168 H   0  0  0  0  0  0  0  0  0  0  0  0
   -7.0018   19.0807  -34.5262 H   0  0  0  0  0  0  0  0  0  0  0  0
   -5.5723   20.8317  -34.1681 H   0  0  0  0  0  0  0  0  0  0  0  0
   -5.7868   20.2928  -32.4530 H   0  0  0  0  0  0  0  0  0  0  0  0
   -2.7989   18.0326  -33.5596 H   0  0  0  0  0  0  0  0  0  0  0  0
   -4.0489   18.2973  -34.8221 H   0  0  0  0  0  0  0  0  0  0  0  0
   -2.5490   19.2857  -34.8221 H   0  0  0  0  0  0  0  0  0  0  0  0
   -1.5879   19.0167  -32.2676 H   0  0  0  0  0  0  0  0  0  0  0  0
   -0.2512   20.2533  -30.5332 H   0  0  0  0  0  0  0  0  0  0  0  0
   -0.2661   22.5971  -28.8973 H   0  0  0  0  0  0  0  0  0  0  0  0
   -0.9570   26.2170  -30.0040 H   0  0  0  0  0  0  0  0  0  0  0  0
   -4.5167   22.2454  -32.3100 H   0  0  0  0  0  0  0  0  0  0  0  0
  1  2  1  0
  2  3  1  0
  3  4  1  0
  4  5  1  0
  5  6  1  0
  6  7  1  0
  7  8  1  0
  8  9  1  0
  8 10  1  0
 10 11  2  0
 11 12  1  0
 12 13  2  0
 13 14  1  0
 14 15  2  0
 15 16  1  0
 16 17  1  0
 16 18  2  0
 15 19  1  0
 19 20  1  0
 20 21  2  0
 20 22  1  0
 19 23  1  0
 23 24  2  0
 24 10  1  0
 23 13  1  0
  1 25  1  0
  1 26  1  0
  1 27  1  0
  3 28  1  0
  3 29  1  0
  4 30  1  0
  4 31  1  0
  6 32  1  0
  6 33  1  0
  7 34  1  0
  7 35  1  0
  9 36  1  0
  9 37  1  0
  9 38  1  0
 11 39  1  0
 12 40  1  0
 14 41  1  0
 17 42  1  0
 24 43  1  0
M  CHG  2  17  -1  22  -1
M  END
>  <UniqueID>  (43) 
43

>  <SMILES>  (43) 
COCCOCCN(C)c1ccc2cc(C([NH-])=O)n(C(=O)[O-])c2c1

>  <Energy>  (43) 
80.10649598363146

>  <Genealogy>  (43) 
COCCOCCN(C)c1ccc2cc(C([NH-])=O)n(C(=O)[O-])c2c1 (protonated)
COCCOCCN(C)c1ccc2cc(C([NH-])=O)n(C(=O)[O-])c2c1 (3D coordinates assigned)
COCCOCCN(C)c1ccc2cc(C([NH-])=O)n(C(=O)[O-])c2c1 (optimized conformer: 80.10649598363146 kcal/mol)

>  <smiles>  (43) 
COCCOCCN(C)c1ccc2cc(C(N)=O)n(C(=O)O)c2c1

>  <score_type>  (43) 
oracle

>  <origin>  (43) 
adg

>  <m_score__min__energy>  (43) 
-10.380000000000001

>  <m_primary>  (43) 
energy

$$$$
43:0
     RDKit          3D

 39 40  0  0  0  0  0  0  0  0999 V2000
   -2.0210   25.7910  -26.1290 C   0  0  0  0  0  0  0  0  0  0  0  0
   -1.5000   25.2330  -27.4470 C   0  0  0  0  0  0  0  0  0  0  0  0
   -2.5800   24.8900  -28.3120 O   0  0  0  0  0  0  0  0  0  0  0  0
   -3.5250   23.9010  -28.0130 C   0  0  0  0  0  0  0  0  0  0  0  0
   -4.2410   23.9850  -26.9790 O   0  0  0  0  0  0  0  0  0  0  0  0
   -3.6730   22.7280  -28.9330 C   0  0  0  0  0  0  0  0  0  0  0  0
   -2.8990   22.9320  -30.2390 C   0  0  0  0  0  0  0  0  0  0  0  0
   -3.7650   22.6940  -31.4470 C   0  0  0  0  0  0  0  0  0  0  0  0
   -3.2440   22.2500  -32.5040 O   0  0  0  0  0  0  0  0  0  0  0  0
   -5.1820   22.9200  -31.3960 N   0  0  0  0  0  0  0  0  0  0  0  0
   -5.8330   24.0300  -30.9430 C   0  0  0  0  0  0  0  0  0  0  0  0
   -5.2010   25.2820  -30.4700 C   0  0  0  0  0  0  0  0  0  0  0  0
   -3.8770   25.6360  -30.8620 N   0  0  0  0  0  0  0  0  0  0  0  0
   -5.8480   26.0630  -29.7240 O   0  0  0  0  0  0  0  0  0  0  0  0
   -7.2130   23.8500  -31.0200 C   0  0  0  0  0  0  0  0  0  0  0  0
   -7.3890   22.5840  -31.5290 C   0  0  0  0  0  0  0  0  0  0  0  0
   -8.5610   21.8860  -31.8080 C   0  0  0  0  0  0  0  0  0  0  0  0
   -8.4450   20.5790  -32.3060 C   0  0  0  0  0  0  0  0  0  0  0  0
   -7.1710   19.9860  -32.4850 C   0  0  0  0  0  0  0  0  0  0  0  0
   -7.0590   18.5960  -33.0370 C   0  0  0  0  0  0  0  0  0  0  0  0
   -6.2090   18.5990  -34.1270 F   0  0  0  0  0  0  0  0  0  0  0  0
   -6.0040   20.7280  -32.2010 C   0  0  0  0  0  0  0  0  0  0  0  0
   -6.1490   22.0400  -31.7380 C   0  0  0  0  0  0  0  0  0  0  0  0
   -1.5340   25.2694  -25.2919 H   0  0  0  0  0  0  0  0  0  0  0  0
   -1.7962   26.8662  -26.0716 H   0  0  0  0  0  0  0  0  0  0  0  0
   -3.1091   25.6404  -26.0716 H   0  0  0  0  0  0  0  0  0  0  0  0
   -0.8720   25.9916  -27.9370 H   0  0  0  0  0  0  0  0  0  0  0  0
   -0.9123   24.3267  -27.2392 H   0  0  0  0  0  0  0  0  0  0  0  0
   -3.2903   21.8286  -28.4285 H   0  0  0  0  0  0  0  0  0  0  0  0
   -4.7393   22.6177  -29.1796 H   0  0  0  0  0  0  0  0  0  0  0  0
   -2.5203   23.9643  -30.2706 H   0  0  0  0  0  0  0  0  0  0  0  0
   -2.0729   22.2060  -30.2630 H   0  0  0  0  0  0  0  0  0  0  0  0
   -3.0490   25.2970  -30.3240 H   0  0  0  0  0  0  0  0  0  0  0  0
   -7.9957   24.5682  -30.7343 H   0  0  0  0  0  0  0  0  0  0  0  0
   -9.5471   22.3447  -31.6432 H   0  0  0  0  0  0  0  0  0  0  0  0
   -9.3515   20.0099  -32.5596 H   0  0  0  0  0  0  0  0  0  0  0  0
   -6.6591   17.9252  -32.2623 H   0  0  0  0  0  0  0  0  0  0  0  0
   -8.0536   18.2448  -33.3492 H   0  0  0  0  0  0  0  0  0  0  0  0
   -5.0064   20.2858  -32.3402 H   0  0  0  0  0  0  0  0  0  0  0  0
  1  2  1  0
  2  3  1  0
  3  4  1  0
  4  5  2  0
  4  6  1  0
  6  7  1  0
  7  8  1  0
  8  9  2  0
  8 10  1  0
 10 11  1  0
 11 12  1  0
 12 13  1  0
 12 14  2  0
 11 15  2  0
 15 16  1  0
 16 17  2  0
 17 18  1  0
 18 19  2  0
 19 20  1  0
 20 21  1  0
 19 22  1  0
 22 23  2  0
 23 10  1  0
 23 16  1  0
  1 24  1  0
  1 25  1  0
  1 26  1  0
  2 27  1  0
  2 28  1  0
  6 29  1  0
  6 30  1  0
  7 31  1  0
  7 32  1  0
 13 33  1  0
 15 34  1  0
 17 35  1  0
 18 36  1  0
 20 37  1  0
 20 38  1  0
 22 39  1  0
M  CHG  1  13  -1
M  END
>  <UniqueID>  (44) 
44

>  <SMILES>  (44) 
CCOC(=O)CCC(=O)n1c(C([NH-])=O)cc2ccc(CF)cc21

>  <Energy>  (44) 
67.20526781176227

>  <Genealogy>  (44) 
CCOC(=O)CCC(=O)n1c(C([NH-])=O)cc2ccc(CF)cc21 (protonated)
CCOC(=O)CCC(=O)n1c(C([NH-])=O)cc2ccc(CF)cc21 (3D coordinates assigned)
CCOC(=O)CCC(=O)n1c(C([NH-])=O)cc2ccc(CF)cc21 (optimized conformer: 67.20526781176227 kcal/mol)

>  <smiles>  (44) 
CCOC(=O)CCC(=O)n1c(C(N)=O)cc2ccc(CF)cc21

>  <score_type>  (44) 
oracle

>  <origin>  (44) 
adg

>  <m_score__min__energy>  (44) 
-9.9399999999999995

>  <m_primary>  (44) 
energy

$$$$
44:0
     RDKit          3D

 36 37  0  0  0  0  0  0  0  0999 V2000
   -3.8710   25.6040  -30.8690 N   0  0  0  0  0  0  0  0  0  0  0  0
   -5.2380   25.3380  -30.5610 C   0  0  0  0  0  0  0  0  0  0  0  0
   -5.9240   26.2260  -29.9810 O   0  0  0  0  0  0  0  0  0  0  0  0
   -5.8650   24.0530  -30.9360 C   0  0  0  0  0  0  0  0  0  0  0  0
   -7.2060   23.9230  -31.2810 C   0  0  0  0  0  0  0  0  0  0  0  0
   -7.3750   22.5940  -31.5900 C   0  0  0  0  0  0  0  0  0  0  0  0
   -8.5220   21.9040  -31.9630 C   0  0  0  0  0  0  0  0  0  0  0  0
   -8.4170   20.5200  -32.1770 C   0  0  0  0  0  0  0  0  0  0  0  0
   -7.1720   19.8480  -32.0190 C   0  0  0  0  0  0  0  0  0  0  0  0
   -7.0380   18.4320  -32.2420 N   0  0  0  0  0  0  0  0  0  0  0  0
   -5.8990   17.7990  -32.9100 C   0  0  0  0  0  0  0  0  0  0  0  0
   -5.4410   18.6350  -34.1080 C   0  0  0  0  0  0  0  0  0  0  0  0
   -4.2230   18.1310  -34.5980 O   0  0  0  0  0  0  0  0  0  0  0  0
   -6.0350   20.5870  -31.6210 C   0  0  0  0  0  0  0  0  0  0  0  0
   -6.1660   21.9670  -31.4320 C   0  0  0  0  0  0  0  0  0  0  0  0
   -5.2260   22.8520  -31.0370 N   0  0  0  0  0  0  0  0  0  0  0  0
   -3.8860   22.5370  -30.6160 C   0  0  0  0  0  0  0  0  0  0  0  0
   -3.4060   23.1090  -29.5980 O   0  0  0  0  0  0  0  0  0  0  0  0
   -3.1020   21.5390  -31.2850 N   0  0  0  0  0  0  0  0  0  0  0  0
   -3.2460   21.2040  -32.6770 C   0  0  0  0  0  0  0  0  0  0  0  0
   -4.0580   21.8340  -33.4080 O   0  0  0  0  0  0  0  0  0  0  0  0
   -2.4210   20.1450  -33.2780 C   0  0  0  0  0  0  0  0  0  0  0  0
   -2.0380   19.1640  -32.5820 O   0  0  0  0  0  0  0  0  0  0  0  0
   -2.0420   20.2250  -34.6120 O   0  0  0  0  0  0  0  0  0  0  0  0
   -3.1000   25.1430  -30.3350 H   0  0  0  0  0  0  0  0  0  0  0  0
   -7.9691   24.7150  -31.3022 H   0  0  0  0  0  0  0  0  0  0  0  0
   -9.4825   22.4257  -32.0868 H   0  0  0  0  0  0  0  0  0  0  0  0
   -9.3091   19.9473  -32.4707 H   0  0  0  0  0  0  0  0  0  0  0  0
   -7.7920   17.7970  -31.8860 H   0  0  0  0  0  0  0  0  0  0  0  0
   -5.0676   17.7059  -32.1957 H   0  0  0  0  0  0  0  0  0  0  0  0
   -6.2069   16.8059  -33.2689 H   0  0  0  0  0  0  0  0  0  0  0  0
   -6.2023   18.5866  -34.9005 H   0  0  0  0  0  0  0  0  0  0  0  0
   -5.3031   19.6797  -33.7926 H   0  0  0  0  0  0  0  0  0  0  0  0
   -3.4960   18.6420  -34.1560 H   0  0  0  0  0  0  0  0  0  0  0  0
   -5.0676   20.0878  -31.4632 H   0  0  0  0  0  0  0  0  0  0  0  0
   -2.3280   21.0930  -30.7400 H   0  0  0  0  0  0  0  0  0  0  0  0
  1  2  1  0
  2  3  2  0
  2  4  1  0
  4  5  2  0
  5  6  1  0
  6  7  2  0
  7  8  1  0
  8  9  2  0
  9 10  1  0
 10 11  1  0
 11 12  1  0
 12 13  1  0
  9 14  1  0
 14 15  2  0
 15 16  1  0
 16 17  1  0
 17 18  2  0
 17 19  1  0
 19 20  1  0
 20 21  2  0
 20 22  1  0
 22 23  2  0
 22 24  1  0
 16  4  1  0
 15  6  1  0
  1 25  1  0
  5 26  1  0
  7 27  1  0
  8 28  1  0
 10 29  1  0
 11 30  1  0
 11 31  1  0
 12 32  1  0
 12 33  1  0
 13 34  1  0
 14 35  1  0
 19 36  1  0
M  CHG  2   1  -1  24  -1
M  END
>  <UniqueID>  (45) 
45

>  <SMILES>  (45) 
[NH-]C(=O)c1cc2ccc(NCCO)cc2n1C(=O)NC(=O)C(=O)[O-]

>  <Energy>  (45) 
73.83182011285604

>  <Genealogy>  (45) 
[NH-]C(=O)c1cc2ccc(NCCO)cc2n1C(=O)NC(=O)C(=O)[O-] (protonated)
[NH-]C(=O)c1cc2ccc(NCCO)cc2n1C(=O)NC(=O)C(=O)[O-] (3D coordinates assigned)
[NH-]C(=O)c1cc2ccc(NCCO)cc2n1C(=O)NC(=O)C(=O)[O-] (optimized conformer: 73.83182011285604 kcal/mol)

>  <smiles>  (45) 
NC(=O)c1cc2ccc(NCCO)cc2n1C(=O)NC(=O)C(=O)O

>  <score_type>  (45) 
oracle

>  <origin>  (45) 
adg

>  <m_score__min__energy>  (45) 
-10.859999999999999

>  <m_primary>  (45) 
energy

$$$$
45:0
     RDKit          3D

 41 42  0  0  0  0  0  0  0  0999 V2000
   -2.6100   23.5150  -27.2240 C   0  0  0  0  0  0  0  0  0  0  0  0
   -1.5090   23.5020  -28.1900 N   0  0  0  0  0  0  0  0  0  0  0  0
   -1.0770   22.2390  -28.8100 C   0  0  0  0  0  0  0  0  0  0  0  0
   -1.7420   22.0360  -30.1780 C   0  0  0  0  0  0  0  0  0  0  0  0
   -2.5780   23.1830  -30.5440 N   0  0  0  0  0  0  0  0  0  0  0  0
   -4.0070   23.1000  -30.6950 C   0  0  0  0  0  0  0  0  0  0  0  0
   -4.8110   24.1760  -30.2460 C   0  0  0  0  0  0  0  0  0  0  0  0
   -6.2080   24.1420  -30.3880 C   0  0  0  0  0  0  0  0  0  0  0  0
   -6.7760   23.0150  -30.9700 C   0  0  0  0  0  0  0  0  0  0  0  0
   -8.0910   22.7460  -31.2750 C   0  0  0  0  0  0  0  0  0  0  0  0
   -8.0800   21.4910  -31.8760 C   0  0  0  0  0  0  0  0  0  0  0  0
   -9.2980   20.8080  -32.3550 C   0  0  0  0  0  0  0  0  0  0  0  0
   -9.2260   19.7080  -33.2640 N   0  0  0  0  0  0  0  0  0  0  0  0
  -10.4240   21.1730  -31.9200 O   0  0  0  0  0  0  0  0  0  0  0  0
   -6.8100   21.0010  -31.9430 N   0  0  0  0  0  0  0  0  0  0  0  0
   -6.3810   19.7960  -32.6030 C   0  0  0  0  0  0  0  0  0  0  0  0
   -6.7260   18.6760  -32.1410 O   0  0  0  0  0  0  0  0  0  0  0  0
   -5.5230   19.8500  -33.8320 C   0  0  0  0  0  0  0  0  0  0  0  0
   -6.0560   19.0260  -34.8330 O   0  0  0  0  0  0  0  0  0  0  0  0
   -6.0210   21.9510  -31.3910 C   0  0  0  0  0  0  0  0  0  0  0  0
   -4.6250   21.9720  -31.2900 C   0  0  0  0  0  0  0  0  0  0  0  0
   -0.9000   24.7500  -28.5690 C   0  0  0  0  0  0  0  0  0  0  0  0
    0.2750   25.0260  -28.2110 O   0  0  0  0  0  0  0  0  0  0  0  0
   -1.6030   25.6670  -29.3440 O   0  0  0  0  0  0  0  0  0  0  0  0
   -2.2017   23.5102  -26.2026 H   0  0  0  0  0  0  0  0  0  0  0  0
   -3.2170   24.4204  -27.3720 H   0  0  0  0  0  0  0  0  0  0  0  0
   -3.2382   22.6242  -27.3720 H   0  0  0  0  0  0  0  0  0  0  0  0
    0.0149   22.2589  -28.9413 H   0  0  0  0  0  0  0  0  0  0  0  0
   -1.3736   21.4088  -28.1521 H   0  0  0  0  0  0  0  0  0  0  0  0
   -0.9595   21.9063  -30.9402 H   0  0  0  0  0  0  0  0  0  0  0  0
   -2.3843   21.1448  -30.1208 H   0  0  0  0  0  0  0  0  0  0  0  0
   -2.1220   24.1110  -30.7010 H   0  0  0  0  0  0  0  0  0  0  0  0
   -4.3346   25.0508  -29.7794 H   0  0  0  0  0  0  0  0  0  0  0  0
   -6.8331   24.9813  -30.0491 H   0  0  0  0  0  0  0  0  0  0  0  0
   -8.9646   23.3867  -31.0843 H   0  0  0  0  0  0  0  0  0  0  0  0
  -10.1020   19.2750  -33.6330 H   0  0  0  0  0  0  0  0  0  0  0  0
   -8.3130   19.2560  -33.4920 H   0  0  0  0  0  0  0  0  0  0  0  0
   -5.4798   20.8859  -34.1994 H   0  0  0  0  0  0  0  0  0  0  0  0
   -4.5121   19.4980  -33.5789 H   0  0  0  0  0  0  0  0  0  0  0  0
   -6.8480   18.5760  -34.4390 H   0  0  0  0  0  0  0  0  0  0  0  0
   -4.0213   21.1319  -31.6640 H   0  0  0  0  0  0  0  0  0  0  0  0
  1  2  1  0
  2  3  1  0
  3  4  1  0
  4  5  1  0
  5  6  1  0
  6  7  2  0
  7  8  1  0
  8  9  2  0
  9 10  1  0
 10 11  2  0
 11 12  1  0
 12 13  1  0
 12 14  2  0
 11 15  1  0
 15 16  1  0
 16 17  2  0
 16 18  1  0
 18 19  1  0
 15 20  1  0
 20 21  2  0
  2 22  1  0
 22 23  2  0
 22 24  1  0
 21  6  1  0
 20  9  1  0
  1 25  1  0
  1 26  1  0
  1 27  1  0
  3 28  1  0
  3 29  1  0
  4 30  1  0
  4 31  1  0
  5 32  1  0
  7 33  1  0
  8 34  1  0
 10 35  1  0
 13 36  1  0
 13 37  1  0
 18 38  1  0
 18 39  1  0
 19 40  1  0
 21 41  1  0
M  CHG  1  24  -1
M  END
>  <UniqueID>  (46) 
46

>  <SMILES>  (46) 
CN(CCNc1ccc2cc(C(N)=O)n(C(=O)CO)c2c1)C(=O)[O-]

>  <Energy>  (46) 
75.12155387406764

>  <Genealogy>  (46) 
CN(CCNc1ccc2cc(C(N)=O)n(C(=O)CO)c2c1)C(=O)[O-] (protonated)
CN(CCNc1ccc2cc(C(N)=O)n(C(=O)CO)c2c1)C(=O)[O-] (3D coordinates assigned)
CN(CCNc1ccc2cc(C(N)=O)n(C(=O)CO)c2c1)C(=O)[O-] (optimized conformer: 75.12155387406764 kcal/mol)

>  <smiles>  (46) 
CN(CCNc1ccc2cc(C(N)=O)n(C(=O)CO)c2c1)C(=O)O

>  <score_type>  (46) 
oracle

>  <origin>  (46) 
adg

>  <m_score__min__energy>  (46) 
-9.4299999999999997

>  <m_primary>  (46) 
energy

$$$$
46:0
     RDKit          3D

 39 40  0  0  0  0  0  0  0  0999 V2000
   -7.6860   18.3630  -31.6180 C   0  0  0  0  0  0  0  0  0  0  0  0
   -8.8510   19.2880  -31.9540 C   0  0  0  0  0  0  0  0  0  0  0  0
   -8.3560   20.5940  -32.5800 C   0  0  0  0  0  0  0  0  0  0  0  0
   -8.6420   21.9800  -31.4790 S   0  0  0  0  0  0  0  0  0  0  0  0
   -9.3020   23.0820  -32.2590 O   0  0  0  0  0  0  0  0  0  0  0  0
   -9.5660   21.5490  -30.3740 O   0  0  0  0  0  0  0  0  0  0  0  0
   -7.1390   22.6220  -30.7360 C   0  0  0  0  0  0  0  0  0  0  0  0
   -6.1000   22.9840  -31.7570 C   0  0  0  0  0  0  0  0  0  0  0  0
   -6.3600   23.8720  -32.6120 O   0  0  0  0  0  0  0  0  0  0  0  0
   -4.7860   22.3960  -31.7200 N   0  0  0  0  0  0  0  0  0  0  0  0
   -3.6690   22.9170  -31.1370 C   0  0  0  0  0  0  0  0  0  0  0  0
   -3.6190   24.1280  -30.2890 C   0  0  0  0  0  0  0  0  0  0  0  0
   -4.1210   25.3650  -30.7870 N   0  0  0  0  0  0  0  0  0  0  0  0
   -3.1070   24.0890  -29.1390 O   0  0  0  0  0  0  0  0  0  0  0  0
   -2.5620   22.1120  -31.3880 C   0  0  0  0  0  0  0  0  0  0  0  0
   -3.0350   21.0670  -32.1470 C   0  0  0  0  0  0  0  0  0  0  0  0
   -2.3560   19.9860  -32.6990 C   0  0  0  0  0  0  0  0  0  0  0  0
   -3.0900   19.0720  -33.4730 C   0  0  0  0  0  0  0  0  0  0  0  0
   -4.4840   19.2440  -33.6690 C   0  0  0  0  0  0  0  0  0  0  0  0
   -5.2520   18.2910  -34.5500 C   0  0  0  0  0  0  0  0  0  0  0  0
   -4.3930   17.6030  -35.3890 F   0  0  0  0  0  0  0  0  0  0  0  0
   -5.9280   17.3840  -33.7560 F   0  0  0  0  0  0  0  0  0  0  0  0
   -6.1660   18.9760  -35.3320 F   0  0  0  0  0  0  0  0  0  0  0  0
   -5.1320   20.3700  -33.1100 C   0  0  0  0  0  0  0  0  0  0  0  0
   -4.3810   21.2590  -32.3330 C   0  0  0  0  0  0  0  0  0  0  0  0
   -7.5848   18.2827  -30.5256 H   0  0  0  0  0  0  0  0  0  0  0  0
   -7.8749   17.3662  -32.0430 H   0  0  0  0  0  0  0  0  0  0  0  0
   -6.7579   18.7730  -32.0430 H   0  0  0  0  0  0  0  0  0  0  0  0
   -9.5195   18.7799  -32.6646 H   0  0  0  0  0  0  0  0  0  0  0  0
   -9.3858   19.5279  -31.0232 H   0  0  0  0  0  0  0  0  0  0  0  0
   -7.2779   20.5108  -32.7817 H   0  0  0  0  0  0  0  0  0  0  0  0
   -8.9094   20.7676  -33.5147 H   0  0  0  0  0  0  0  0  0  0  0  0
   -7.3898   23.5213  -30.1543 H   0  0  0  0  0  0  0  0  0  0  0  0
   -6.7181   21.8308  -30.0981 H   0  0  0  0  0  0  0  0  0  0  0  0
   -3.4930   26.0440  -31.2720 H   0  0  0  0  0  0  0  0  0  0  0  0
   -1.5279   22.2765  -31.0509 H   0  0  0  0  0  0  0  0  0  0  0  0
   -1.2768   19.8508  -32.5345 H   0  0  0  0  0  0  0  0  0  0  0  0
   -2.5779   18.2135  -33.9321 H   0  0  0  0  0  0  0  0  0  0  0  0
   -6.2045   20.5434  -33.2825 H   0  0  0  0  0  0  0  0  0  0  0  0
  1  2  1  0
  2  3  1  0
  3  4  1  0
  4  5  2  0
  4  6  2  0
  4  7  1  0
  7  8  1  0
  8  9  2  0
  8 10  1  0
 10 11  1  0
 11 12  1  0
 12 13  1  0
 12 14  2  0
 11 15  2  0
 15 16  1  0
 16 17  2  0
 17 18  1  0
 18 19  2  0
 19 20  1  0
 20 21  1  0
 20 22  1  0
 20 23  1  0
 19 24  1  0
 24 25  2  0
 25 10  1  0
 25 16  1  0
  1 26  1  0
  1 27  1  0
  1 28  1  0
  2 29  1  0
  2 30  1  0
  3 31  1  0
  3 32  1  0
  7 33  1  0
  7 34  1  0
 13 35  1  0
 15 36  1  0
 17 37  1  0
 18 38  1  0
 24 39  1  0
M  CHG  1  13  -1
M  END
>  <UniqueID>  (47) 
47

>  <SMILES>  (47) 
CCCS(=O)(=O)CC(=O)n1c(C([NH-])=O)cc2ccc(C(F)(F)F)cc21

>  <Energy>  (47) 
68.16879181686714

>  <Genealogy>  (47) 
CCCS(=O)(=O)CC(=O)n1c(C([NH-])=O)cc2ccc(C(F)(F)F)cc21 (protonated)
CCCS(=O)(=O)CC(=O)n1c(C([NH-])=O)cc2ccc(C(F)(F)F)cc21 (3D coordinates assigned)
CCCS(=O)(=O)CC(=O)n1c(C([NH-])=O)cc2ccc(C(F)(F)F)cc21 (optimized conformer: 68.16879181686714 kcal/mol)

>  <smiles>  (47) 
CCCS(=O)(=O)CC(=O)n1c(C(N)=O)cc2ccc(C(F)(F)F)cc21

>  <score_type>  (47) 
oracle

>  <origin>  (47) 
adg

>  <m_score__min__energy>  (47) 
-10.43

>  <m_primary>  (47) 
energy

$$$$
47:0
     RDKit          3D

 52 55  0  0  0  0  0  0  0  0999 V2000
   -0.6500   23.8390  -25.9880 C   0  0  0  0  0  0  0  0  0  0  0  0
   -0.5940   25.2670  -26.3710 N   0  0  2  0  0  0  0  0  0  0  0  0
    0.4930   25.9510  -25.6500 C   0  0  0  0  0  0  0  0  0  0  0  0
   -0.1050   26.5690  -24.3860 C   0  0  0  0  0  0  0  0  0  0  0  0
   -1.6140   26.5090  -24.5710 C   0  0  0  0  0  0  0  0  0  0  0  0
   -1.8040   26.0340  -26.0090 C   0  0  2  0  0  0  0  0  0  0  0  0
   -3.1050   25.3010  -26.2370 C   0  0  0  0  0  0  0  0  0  0  0  0
   -4.0730   25.5060  -25.4560 O   0  0  0  0  0  0  0  0  0  0  0  0
   -3.2480   24.4390  -27.3340 O   0  0  0  0  0  0  0  0  0  0  0  0
   -4.4010   24.4140  -28.1720 C   0  0  0  0  0  0  0  0  0  0  0  0
   -4.0020   24.3990  -29.6180 C   0  0  0  0  0  0  0  0  0  0  0  0
   -4.4810   25.2560  -30.4080 O   0  0  0  0  0  0  0  0  0  0  0  0
   -3.1110   23.3960  -30.1210 N   0  0  0  0  0  0  0  0  0  0  0  0
   -1.7560   23.3570  -30.0050 C   0  0  0  0  0  0  0  0  0  0  0  0
   -0.9240   24.3820  -29.3420 C   0  0  0  0  0  0  0  0  0  0  0  0
   -1.4510   25.6860  -29.1110 N   0  0  0  0  0  0  0  0  0  0  0  0
    0.2530   24.1180  -28.9810 O   0  0  0  0  0  0  0  0  0  0  0  0
   -1.2530   22.1880  -30.5760 C   0  0  0  0  0  0  0  0  0  0  0  0
   -2.3570   21.5100  -31.0480 C   0  0  0  0  0  0  0  0  0  0  0  0
   -2.4500   20.2790  -31.6920 C   0  0  0  0  0  0  0  0  0  0  0  0
   -3.7300   19.8220  -32.0520 C   0  0  0  0  0  0  0  0  0  0  0  0
   -4.8790   20.5960  -31.7620 C   0  0  0  0  0  0  0  0  0  0  0  0
   -6.1740   20.1170  -32.1290 N   0  0  0  0  0  0  0  0  0  0  0  0
   -7.5460   20.1540  -31.5880 C   0  0  0  0  0  0  0  0  0  0  0  0
   -8.1680   19.3730  -32.6970 C   0  0  0  0  0  0  0  0  0  0  0  0
   -8.6440   18.1320  -32.3100 F   0  0  0  0  0  0  0  0  0  0  0  0
   -9.0510   20.1060  -33.4710 F   0  0  0  0  0  0  0  0  0  0  0  0
   -6.7760   19.3440  -33.2340 C   0  0  0  0  0  0  0  0  0  0  0  0
   -4.7480   21.8370  -31.1080 C   0  0  0  0  0  0  0  0  0  0  0  0
   -3.4640   22.2650  -30.7610 C   0  0  0  0  0  0  0  0  0  0  0  0
   -0.6534   23.7534  -24.8913 H   0  0  0  0  0  0  0  0  0  0  0  0
   -1.5666   23.3862  -26.3940 H   0  0  0  0  0  0  0  0  0  0  0  0
    0.2283   23.3158  -26.3940 H   0  0  0  0  0  0  0  0  0  0  0  0
   -0.4280   25.3300  -27.4050 H   0  0  0  0  0  0  0  0  0  0  0  0
    1.2762   25.2276  -25.3790 H   0  0  0  0  0  0  0  0  0  0  0  0
    0.9452   26.7290  -26.2826 H   0  0  0  0  0  0  0  0  0  0  0  0
    0.1956   25.9928  -23.4985 H   0  0  0  0  0  0  0  0  0  0  0  0
    0.2443   27.6011  -24.2350 H   0  0  0  0  0  0  0  0  0  0  0  0
   -2.0645   25.7972  -23.8636 H   0  0  0  0  0  0  0  0  0  0  0  0
   -2.0973   27.4792  -24.3836 H   0  0  0  0  0  0  0  0  0  0  0  0
   -1.9059   26.8942  -26.6870 H   0  0  0  0  0  0  0  0  0  0  0  0
   -4.9899   23.5118  -27.9500 H   0  0  0  0  0  0  0  0  0  0  0  0
   -4.9999   25.3162  -27.9785 H   0  0  0  0  0  0  0  0  0  0  0  0
   -2.4750   25.8340  -28.9640 H   0  0  0  0  0  0  0  0  0  0  0  0
   -0.2005   21.8741  -30.6368 H   0  0  0  0  0  0  0  0  0  0  0  0
   -1.5516   19.6836  -31.9119 H   0  0  0  0  0  0  0  0  0  0  0  0
   -3.8394   18.8544  -32.5636 H   0  0  0  0  0  0  0  0  0  0  0  0
   -7.6327   19.6519  -30.6131 H   0  0  0  0  0  0  0  0  0  0  0  0
   -7.9736   21.1433  -31.3678 H   0  0  0  0  0  0  0  0  0  0  0  0
   -6.3704   18.3244  -33.3109 H   0  0  0  0  0  0  0  0  0  0  0  0
   -6.6221   19.7219  -34.2555 H   0  0  0  0  0  0  0  0  0  0  0  0
   -5.6309   22.4511  -30.8773 H   0  0  0  0  0  0  0  0  0  0  0  0
  1  2  1  0
  2  3  1  0
  3  4  1  0
  4  5  1  0
  5  6  1  0
  6  7  1  0
  7  8  2  0
  7  9  1  0
  9 10  1  0
 10 11  1  0
 11 12  2  0
 11 13  1  0
 13 14  1  0
 14 15  1  0
 15 16  1  0
 15 17  2  0
 14 18  2  0
 18 19  1  0
 19 20  2  0
 20 21  1  0
 21 22  2  0
 22 23  1  0
 23 24  1  0
 24 25  1  0
 25 26  1  0
 25 27  1  0
 25 28  1  0
 22 29  1  0
 29 30  2  0
  6  2  1  0
 30 13  1  0
 30 19  1  0
 28 23  1  0
  1 31  1  0
  1 32  1  0
  1 33  1  0
  2 34  1  6
  3 35  1  0
  3 36  1  0
  4 37  1  0
  4 38  1  0
  5 39  1  0
  5 40  1  0
  6 41  1  6
 10 42  1  0
 10 43  1  0
 16 44  1  0
 18 45  1  0
 20 46  1  0
 21 47  1  0
 24 48  1  0
 24 49  1  0
 28 50  1  0
 28 51  1  0
 29 52  1  0
M  CHG  2   2   1  16  -1
M  END
>  <UniqueID>  (48) 
48

>  <SMILES>  (48) 
C[N@@H+]1CCC[C@@H]1C(=O)OCC(=O)n1c(C([NH-])=O)cc2ccc(N3CC(F)(F)C3)cc21

>  <Energy>  (48) 
141.9788666033717

>  <Genealogy>  (48) 
C[NH+]1CCCC1C(=O)OCC(=O)n1c(C([NH-])=O)cc2ccc(N3CC(F)(F)C3)cc21 (protonated)
C[N@@H+]1CCC[C@@H]1C(=O)OCC(=O)n1c(C([NH-])=O)cc2ccc(N3CC(F)(F)C3)cc21 (chirality)
C[N@@H+]1CCC[C@@H]1C(=O)OCC(=O)n1c(C([NH-])=O)cc2ccc(N3CC(F)(F)C3)cc21 (3D coordinates assigned)
C[N@@H+]1CCC[C@@H]1C(=O)OCC(=O)n1c(C([NH-])=O)cc2ccc(N3CC(F)(F)C3)cc21 (nonaromatic ring conformer: 141.9788666033717 kcal/mol)

>  <smiles>  (48) 
CN1CCCC1C(=O)OCC(=O)n1c(C(N)=O)cc2ccc(N3CC(F)(F)C3)cc21

>  <score_type>  (48) 
oracle

>  <origin>  (48) 
adg

>  <m_score__min__energy>  (48) 
-9.6400000000000006

>  <m_primary>  (48) 
energy

$$$$
48:0
     RDKit          3D

 34 35  0  0  0  0  0  0  0  0999 V2000
   -4.2460   25.5500  -30.6170 N   0  0  0  0  0  0  0  0  0  0  0  0
   -5.6120   25.1990  -30.3900 C   0  0  0  0  0  0  0  0  0  0  0  0
   -6.3540   25.9980  -29.7600 O   0  0  0  0  0  0  0  0  0  0  0  0
   -6.1450   23.8990  -30.8520 C   0  0  0  0  0  0  0  0  0  0  0  0
   -7.4870   23.6700  -31.1510 C   0  0  0  0  0  0  0  0  0  0  0  0
   -7.5400   22.3800  -31.6290 C   0  0  0  0  0  0  0  0  0  0  0  0
   -8.6300   21.6330  -32.0620 C   0  0  0  0  0  0  0  0  0  0  0  0
   -8.3990   20.3110  -32.4770 C   0  0  0  0  0  0  0  0  0  0  0  0
   -7.0920   19.7600  -32.4460 C   0  0  0  0  0  0  0  0  0  0  0  0
   -6.8540   18.3360  -32.8780 C   0  0  0  0  0  0  0  0  0  0  0  0
   -6.1340   17.3930  -31.5470 Cl  0  0  0  0  0  0  0  0  0  0  0  0
   -5.7740   18.2860  -34.2950 Cl  0  0  0  0  0  0  0  0  0  0  0  0
   -6.0100   20.5530  -31.9980 C   0  0  0  0  0  0  0  0  0  0  0  0
   -6.2680   21.8720  -31.6070 C   0  0  0  0  0  0  0  0  0  0  0  0
   -5.3980   22.7930  -31.1340 N   0  0  0  0  0  0  0  0  0  0  0  0
   -3.9930   22.6060  -30.8980 C   0  0  0  0  0  0  0  0  0  0  0  0
   -3.1530   23.0280  -31.7380 O   0  0  0  0  0  0  0  0  0  0  0  0
   -3.5660   21.9480  -29.7390 O   0  0  0  0  0  0  0  0  0  0  0  0
   -2.9300   22.6110  -28.6480 C   0  0  0  0  0  0  0  0  0  0  0  0
   -1.4740   22.9280  -28.9890 C   0  0  0  0  0  0  0  0  0  0  0  0
   -1.2380   24.4050  -28.9620 C   0  0  0  0  0  0  0  0  0  0  0  0
   -0.1220   24.8610  -28.5970 O   0  0  0  0  0  0  0  0  0  0  0  0
   -2.2330   25.2770  -29.3870 O   0  0  0  0  0  0  0  0  0  0  0  0
   -3.8700   26.4530  -30.2520 H   0  0  0  0  0  0  0  0  0  0  0  0
   -3.6150   24.9390  -31.1800 H   0  0  0  0  0  0  0  0  0  0  0  0
   -8.3259   24.3713  -31.0306 H   0  0  0  0  0  0  0  0  0  0  0  0
   -9.6419   22.0640  -32.0790 H   0  0  0  0  0  0  0  0  0  0  0  0
   -9.2404   19.6965  -32.8297 H   0  0  0  0  0  0  0  0  0  0  0  0
   -7.8241   17.8941  -33.1492 H   0  0  0  0  0  0  0  0  0  0  0  0
   -4.9901   20.1430  -31.9578 H   0  0  0  0  0  0  0  0  0  0  0  0
   -3.4638   23.5485  -28.4334 H   0  0  0  0  0  0  0  0  0  0  0  0
   -2.9536   21.9510  -27.7683 H   0  0  0  0  0  0  0  0  0  0  0  0
   -0.8162   22.4430  -28.2528 H   0  0  0  0  0  0  0  0  0  0  0  0
   -1.2557   22.5518  -29.9993 H   0  0  0  0  0  0  0  0  0  0  0  0
  1  2  1  0
  2  3  2  0
  2  4  1  0
  4  5  2  0
  5  6  1  0
  6  7  2  0
  7  8  1  0
  8  9  2  0
  9 10  1  0
 10 11  1  0
 10 12  1  0
  9 13  1  0
 13 14  2  0
 14 15  1  0
 15 16  1  0
 16 17  2  0
 16 18  1  0
 18 19  1  0
 19 20  1  0
 20 21  1  0
 21 22  2  0
 21 23  1  0
 15  4  1  0
 14  6  1  0
  1 24  1  0
  1 25  1  0
  5 26  1  0
  7 27  1  0
  8 28  1  0
 10 29  1  0
 13 30  1  0
 19 31  1  0
 19 32  1  0
 20 33  1  0
 20 34  1  0
M  CHG  1  23  -1
M  END
>  <UniqueID>  (49) 
49

>  <SMILES>  (49) 
NC(=O)c1cc2ccc(C(Cl)Cl)cc2n1C(=O)OCCC(=O)[O-]

>  <Energy>  (49) 
68.13641823978195

>  <Genealogy>  (49) 
NC(=O)c1cc2ccc(C(Cl)Cl)cc2n1C(=O)OCCC(=O)[O-] (protonated)
NC(=O)c1cc2ccc(C(Cl)Cl)cc2n1C(=O)OCCC(=O)[O-] (3D coordinates assigned)
NC(=O)c1cc2ccc(C(Cl)Cl)cc2n1C(=O)OCCC(=O)[O-] (optimized conformer: 68.13641823978195 kcal/mol)

>  <smiles>  (49) 
NC(=O)c1cc2ccc(C(Cl)Cl)cc2n1C(=O)OCCC(=O)O

>  <score_type>  (49) 
oracle

>  <origin>  (49) 
adg

>  <m_score__min__energy>  (49) 
-11.470000000000001

>  <m_primary>  (49) 
energy

$$$$
49:0
     RDKit          3D

 39 40  0  0  0  0  0  0  0  0999 V2000
   -4.2120   25.6490  -30.4660 N   0  0  0  0  0  0  0  0  0  0  0  0
   -5.5430   25.1760  -30.2780 C   0  0  0  0  0  0  0  0  0  0  0  0
   -6.3540   25.8640  -29.6000 O   0  0  0  0  0  0  0  0  0  0  0  0
   -5.9620   23.8930  -30.8790 C   0  0  0  0  0  0  0  0  0  0  0  0
   -7.2640   23.6100  -31.2900 C   0  0  0  0  0  0  0  0  0  0  0  0
   -7.2260   22.3160  -31.7600 C   0  0  0  0  0  0  0  0  0  0  0  0
   -8.2310   21.5300  -32.3170 C   0  0  0  0  0  0  0  0  0  0  0  0
   -7.8910   20.2380  -32.7540 C   0  0  0  0  0  0  0  0  0  0  0  0
   -6.5580   19.7540  -32.6320 C   0  0  0  0  0  0  0  0  0  0  0  0
   -6.1850   18.4460  -33.1000 N   0  0  0  0  0  0  0  0  0  0  0  0
   -5.5800   18.2070  -34.4130 C   0  0  0  0  0  0  0  0  0  0  0  0
   -4.8970   16.8400  -34.4760 C   0  0  0  0  0  0  0  0  0  0  0  0
   -5.7870   15.6200  -33.4800 S   0  0  0  0  0  0  0  0  0  0  0  0
   -7.2420   16.0470  -33.6000 O   0  0  0  0  0  0  0  0  0  0  0  0
   -5.3860   16.0460  -31.8830 O   0  0  0  0  0  0  0  0  0  0  0  0
   -5.5730   20.5820  -32.0500 C   0  0  0  0  0  0  0  0  0  0  0  0
   -5.9420   21.8590  -31.6230 C   0  0  0  0  0  0  0  0  0  0  0  0
   -5.1570   22.8140  -31.0860 N   0  0  0  0  0  0  0  0  0  0  0  0
   -3.7460   22.7100  -30.8570 C   0  0  0  0  0  0  0  0  0  0  0  0
   -2.9390   23.0190  -31.7770 O   0  0  0  0  0  0  0  0  0  0  0  0
   -3.2260   22.3630  -29.4950 C   0  0  0  0  0  0  0  0  0  0  0  0
   -2.9200   23.6380  -28.7040 C   0  0  0  0  0  0  0  0  0  0  0  0
   -1.6660   24.2870  -29.2010 C   0  0  0  0  0  0  0  0  0  0  0  0
   -0.6720   23.5820  -29.5210 O   0  0  0  0  0  0  0  0  0  0  0  0
   -1.5930   25.6710  -29.3090 O   0  0  0  0  0  0  0  0  0  0  0  0
   -3.9090   26.0510  -31.3820 H   0  0  0  0  0  0  0  0  0  0  0  0
   -8.1365   24.2785  -31.2478 H   0  0  0  0  0  0  0  0  0  0  0  0
   -9.2595   21.9084  -32.4122 H   0  0  0  0  0  0  0  0  0  0  0  0
   -8.6647   19.5929  -33.1958 H   0  0  0  0  0  0  0  0  0  0  0  0
   -6.3060   17.6390  -32.4450 H   0  0  0  0  0  0  0  0  0  0  0  0
   -6.3658   18.2495  -35.1815 H   0  0  0  0  0  0  0  0  0  0  0  0
   -4.8184   18.9813  -34.5877 H   0  0  0  0  0  0  0  0  0  0  0  0
   -4.8706   16.4996  -35.5217 H   0  0  0  0  0  0  0  0  0  0  0  0
   -3.8773   16.9404  -34.0759 H   0  0  0  0  0  0  0  0  0  0  0  0
   -4.5376   20.2285  -31.9356 H   0  0  0  0  0  0  0  0  0  0  0  0
   -3.9832   21.7743  -28.9563 H   0  0  0  0  0  0  0  0  0  0  0  0
   -2.3011   21.7774  -29.6029 H   0  0  0  0  0  0  0  0  0  0  0  0
   -3.7583   24.3413  -28.8161 H   0  0  0  0  0  0  0  0  0  0  0  0
   -2.7817   23.3705  -27.6460 H   0  0  0  0  0  0  0  0  0  0  0  0
  1  2  1  0
  2  3  2  0
  2  4  1  0
  4  5  2  0
  5  6  1  0
  6  7  2  0
  7  8  1  0
  8  9  2  0
  9 10  1  0
 10 11  1  0
 11 12  1  0
 12 13  1  0
 13 14  2  0
 13 15  1  1
  9 16  1  0
 16 17  2  0
 17 18  1  0
 18 19  1  0
 19 20  2  0
 19 21  1  0
 21 22  1  0
 22 23  1  0
 23 24  2  0
 23 25  1  0
 18  4  1  0
 17  6  1  0
  1 26  1  0
  5 27  1  0
  7 28  1  0
  8 29  1  0
 10 30  1  0
 11 31  1  0
 11 32  1  0
 12 33  1  0
 12 34  1  0
 16 35  1  0
 21 36  1  0
 21 37  1  0
 22 38  1  0
 22 39  1  0
M  CHG  3   1  -1  15  -1  25  -1
M  END
>  <UniqueID>  (50) 
50

>  <SMILES>  (50) 
[NH-]C(=O)c1cc2ccc(NCC[S@](=O)[O-])cc2n1C(=O)CCC(=O)[O-]

>  <Energy>  (50) 
69.7224459080041

>  <Genealogy>  (50) 
[NH-]C(=O)c1cc2ccc(NCCS(=O)[O-])cc2n1C(=O)CCC(=O)[O-] (protonated)
[NH-]C(=O)c1cc2ccc(NCC[S@](=O)[O-])cc2n1C(=O)CCC(=O)[O-] (chirality)
[NH-]C(=O)c1cc2ccc(NCC[S@](=O)[O-])cc2n1C(=O)CCC(=O)[O-] (3D coordinates assigned)
[NH-]C(=O)c1cc2ccc(NCC[S@](=O)[O-])cc2n1C(=O)CCC(=O)[O-] (optimized conformer: 69.7224459080041 kcal/mol)

>  <smiles>  (50) 
NC(=O)c1cc2ccc(NCCS(=O)O)cc2n1C(=O)CCC(=O)O

>  <score_type>  (50) 
oracle

>  <origin>  (50) 
adg

>  <m_score__min__energy>  (50) 
-12.02

>  <m_primary>  (50) 
energy

$$$$
50:0
     RDKit          3D

 46 47  0  0  0  0  0  0  0  0999 V2000
   -4.3020   18.0650  -34.5570 C   0  0  0  0  0  0  0  0  0  0  0  0
   -5.8200   18.1530  -34.6870 C   0  0  0  0  0  0  0  0  0  0  0  0
   -6.4520   18.3460  -33.3700 N   0  0  0  0  0  0  0  0  0  0  0  0
   -6.8680   17.1600  -32.6020 C   0  0  0  0  0  0  0  0  0  0  0  0
   -5.7760   16.7140  -31.6230 C   0  0  0  0  0  0  0  0  0  0  0  0
   -6.1130   17.0910  -30.3170 O   0  0  0  0  0  0  0  0  0  0  0  0
   -6.6520   19.6760  -32.8280 C   0  0  0  0  0  0  0  0  0  0  0  0
   -7.9430   20.2710  -32.8320 C   0  0  0  0  0  0  0  0  0  0  0  0
   -8.1470   21.5610  -32.3180 C   0  0  0  0  0  0  0  0  0  0  0  0
   -7.0470   22.2460  -31.8160 C   0  0  0  0  0  0  0  0  0  0  0  0
   -6.9670   23.4940  -31.2440 C   0  0  0  0  0  0  0  0  0  0  0  0
   -5.6240   23.6660  -30.9190 C   0  0  0  0  0  0  0  0  0  0  0  0
   -5.0790   24.9130  -30.3390 C   0  0  0  0  0  0  0  0  0  0  0  0
   -3.8640   25.4800  -30.8220 N   0  0  0  0  0  0  0  0  0  0  0  0
   -5.7160   25.5060  -29.4290 O   0  0  0  0  0  0  0  0  0  0  0  0
   -4.8990   22.5670  -31.2790 N   0  0  0  0  0  0  0  0  0  0  0  0
   -3.4980   22.3280  -31.0510 C   0  0  0  0  0  0  0  0  0  0  0  0
   -2.6680   22.6330  -31.9480 O   0  0  0  0  0  0  0  0  0  0  0  0
   -2.9810   21.8290  -29.7580 C   0  0  0  0  0  0  0  0  0  0  0  0
   -2.2230   22.5200  -28.8910 C   0  0  0  0  0  0  0  0  0  0  0  0
   -1.9340   23.9600  -28.9690 C   0  0  0  0  0  0  0  0  0  0  0  0
   -1.0150   24.3930  -29.7150 O   0  0  0  0  0  0  0  0  0  0  0  0
   -2.7380   24.8480  -28.2500 O   0  0  0  0  0  0  0  0  0  0  0  0
   -3.6470   24.4170  -27.2460 C   0  0  0  0  0  0  0  0  0  0  0  0
   -5.7900   21.7020  -31.8160 C   0  0  0  0  0  0  0  0  0  0  0  0
   -5.5630   20.4070  -32.2910 C   0  0  0  0  0  0  0  0  0  0  0  0
   -4.0255   18.0490  -33.4924 H   0  0  0  0  0  0  0  0  0  0  0  0
   -3.9452   17.1447  -35.0424 H   0  0  0  0  0  0  0  0  0  0  0  0
   -3.8412   18.9379  -35.0424 H   0  0  0  0  0  0  0  0  0  0  0  0
   -6.0768   19.0023  -35.3372 H   0  0  0  0  0  0  0  0  0  0  0  0
   -6.1901   17.2115  -35.1190 H   0  0  0  0  0  0  0  0  0  0  0  0
   -7.7790   17.4025  -32.0352 H   0  0  0  0  0  0  0  0  0  0  0  0
   -7.0543   16.3384  -33.3093 H   0  0  0  0  0  0  0  0  0  0  0  0
   -5.6711   15.6200  -31.6696 H   0  0  0  0  0  0  0  0  0  0  0  0
   -4.8266   17.1948  -31.9014 H   0  0  0  0  0  0  0  0  0  0  0  0
   -5.7910   16.3600  -29.7280 H   0  0  0  0  0  0  0  0  0  0  0  0
   -8.7956   19.7116  -33.2445 H   0  0  0  0  0  0  0  0  0  0  0  0
   -9.1483   22.0165  -32.3127 H   0  0  0  0  0  0  0  0  0  0  0  0
   -7.7894   24.2054  -31.0783 H   0  0  0  0  0  0  0  0  0  0  0  0
   -2.9480   25.2370  -30.3870 H   0  0  0  0  0  0  0  0  0  0  0  0
   -3.2414   20.7968  -29.4811 H   0  0  0  0  0  0  0  0  0  0  0  0
   -1.7812   21.9622  -28.0522 H   0  0  0  0  0  0  0  0  0  0  0  0
   -3.2195   24.6197  -26.2529 H   0  0  0  0  0  0  0  0  0  0  0  0
   -4.5973   24.9604  -27.3540 H   0  0  0  0  0  0  0  0  0  0  0  0
   -3.8277   23.3373  -27.3540 H   0  0  0  0  0  0  0  0  0  0  0  0
   -4.5573   19.9634  -32.2487 H   0  0  0  0  0  0  0  0  0  0  0  0
  1  2  1  0
  2  3  1  0
  3  4  1  0
  4  5  1  0
  5  6  1  0
  3  7  1  0
  7  8  2  0
  8  9  1  0
  9 10  2  0
 10 11  1  0
 11 12  2  0
 12 13  1  0
 13 14  1  0
 13 15  2  0
 12 16  1  0
 16 17  1  0
 17 18  2  0
 17 19  1  0
 19 20  2  3
 20 21  1  0
 21 22  2  0
 21 23  1  0
 23 24  1  0
 16 25  1  0
 25 26  2  0
 26  7  1  0
 25 10  1  0
  1 27  1  0
  1 28  1  0
  1 29  1  0
  2 30  1  0
  2 31  1  0
  4 32  1  0
  4 33  1  0
  5 34  1  0
  5 35  1  0
  6 36  1  0
  8 37  1  0
  9 38  1  0
 11 39  1  0
 14 40  1  0
 19 41  1  0
 20 42  1  0
 24 43  1  0
 24 44  1  0
 24 45  1  0
 26 46  1  0
M  CHG  1  14  -1
M  END
>  <UniqueID>  (51) 
51

>  <SMILES>  (51) 
CCN(CCO)c1ccc2cc(C([NH-])=O)n(C(=O)C=CC(=O)OC)c2c1

>  <Energy>  (51) 
84.68679741674445

>  <Genealogy>  (51) 
CCN(CCO)c1ccc2cc(C([NH-])=O)n(C(=O)C=CC(=O)OC)c2c1 (protonated)
CCN(CCO)c1ccc2cc(C([NH-])=O)n(C(=O)C=CC(=O)OC)c2c1 (3D coordinates assigned)
CCN(CCO)c1ccc2cc(C([NH-])=O)n(C(=O)C=CC(=O)OC)c2c1 (optimized conformer: 84.68679741674445 kcal/mol)

>  <smiles>  (51) 
CCN(CCO)c1ccc2cc(C(N)=O)n(C(=O)C=CC(=O)OC)c2c1

>  <score_type>  (51) 
oracle

>  <origin>  (51) 
adg

>  <m_score__min__energy>  (51) 
-10.41

>  <m_primary>  (51) 
energy

$$$$
51:0
     RDKit          3D

 44 45  0  0  0  0  0  0  0  0999 V2000
   -5.1470   13.9620  -33.7650 C   0  0  0  0  0  0  0  0  0  0  0  0
   -4.5960   15.1390  -34.5600 C   0  0  0  0  0  0  0  0  0  0  0  0
   -5.2420   16.6940  -33.9570 S   0  0  0  0  0  0  0  0  0  0  0  0
   -4.1950   17.7560  -34.1370 O   0  0  0  0  0  0  0  0  0  0  0  0
   -6.4550   17.0670  -34.7620 O   0  0  0  0  0  0  0  0  0  0  0  0
   -5.6990   16.6070  -32.2300 C   0  0  0  0  0  0  0  0  0  0  0  0
   -6.3600   17.9080  -31.7620 C   0  0  0  0  0  0  0  0  0  0  0  0
   -6.6440   18.7870  -32.9050 N   0  0  0  0  0  0  0  0  0  0  0  0
   -6.8850   20.1320  -32.4440 C   0  0  0  0  0  0  0  0  0  0  0  0
   -8.2060   20.6470  -32.4050 C   0  0  0  0  0  0  0  0  0  0  0  0
   -8.4570   21.9410  -31.9160 C   0  0  0  0  0  0  0  0  0  0  0  0
   -7.3730   22.6940  -31.4740 C   0  0  0  0  0  0  0  0  0  0  0  0
   -7.3340   23.9550  -30.9230 C   0  0  0  0  0  0  0  0  0  0  0  0
   -5.9910   24.1930  -30.6400 C   0  0  0  0  0  0  0  0  0  0  0  0
   -5.4870   25.4610  -30.0670 C   0  0  0  0  0  0  0  0  0  0  0  0
   -4.2470   26.0200  -30.4920 N   0  0  0  0  0  0  0  0  0  0  0  0
   -6.1740   26.0750  -29.2070 O   0  0  0  0  0  0  0  0  0  0  0  0
   -5.2310   23.1230  -31.0040 N   0  0  0  0  0  0  0  0  0  0  0  0
   -3.8180   22.9450  -30.8240 C   0  0  0  0  0  0  0  0  0  0  0  0
   -3.0940   22.6550  -31.8140 O   0  0  0  0  0  0  0  0  0  0  0  0
   -3.2000   23.0690  -29.4650 C   0  0  0  0  0  0  0  0  0  0  0  0
   -1.9530   23.8900  -29.5440 C   0  0  0  0  0  0  0  0  0  0  0  0
   -0.8570   23.3480  -29.8430 O   0  0  0  0  0  0  0  0  0  0  0  0
   -2.0100   25.2620  -29.3360 O   0  0  0  0  0  0  0  0  0  0  0  0
   -6.0920   22.2130  -31.5090 C   0  0  0  0  0  0  0  0  0  0  0  0
   -5.8110   20.9240  -31.9730 C   0  0  0  0  0  0  0  0  0  0  0  0
   -5.0502   14.1689  -32.6890 H   0  0  0  0  0  0  0  0  0  0  0  0
   -6.2078   13.8144  -34.0160 H   0  0  0  0  0  0  0  0  0  0  0  0
   -4.5809   13.0529  -34.0160 H   0  0  0  0  0  0  0  0  0  0  0  0
   -3.4996   15.1486  -34.4716 H   0  0  0  0  0  0  0  0  0  0  0  0
   -4.9021   15.0210  -35.6099 H   0  0  0  0  0  0  0  0  0  0  0  0
   -6.4047   15.7753  -32.0877 H   0  0  0  0  0  0  0  0  0  0  0  0
   -4.7860   16.4489  -31.6371 H   0  0  0  0  0  0  0  0  0  0  0  0
   -7.3023   17.6693  -31.2472 H   0  0  0  0  0  0  0  0  0  0  0  0
   -5.6726   18.4278  -31.0784 H   0  0  0  0  0  0  0  0  0  0  0  0
   -7.4850   18.4370  -33.4220 H   0  0  0  0  0  0  0  0  0  0  0  0
   -5.8320   18.7830  -33.5660 H   0  0  0  0  0  0  0  0  0  0  0  0
   -9.0425   20.0277  -32.7609 H   0  0  0  0  0  0  0  0  0  0  0  0
   -9.4792   22.3461  -31.8837 H   0  0  0  0  0  0  0  0  0  0  0  0
   -8.1831   24.6311  -30.7442 H   0  0  0  0  0  0  0  0  0  0  0  0
   -3.4880   25.4160  -30.8780 H   0  0  0  0  0  0  0  0  0  0  0  0
   -3.9135   23.5548  -28.7832 H   0  0  0  0  0  0  0  0  0  0  0  0
   -2.9491   22.0661  -29.0893 H   0  0  0  0  0  0  0  0  0  0  0  0
   -4.7818   20.5358  -31.9719 H   0  0  0  0  0  0  0  0  0  0  0  0
  1  2  1  0
  2  3  1  0
  3  4  2  0
  3  5  2  0
  3  6  1  0
  6  7  1  0
  7  8  1  0
  8  9  1  0
  9 10  2  0
 10 11  1  0
 11 12  2  0
 12 13  1  0
 13 14  2  0
 14 15  1  0
 15 16  1  0
 15 17  2  0
 14 18  1  0
 18 19  1  0
 19 20  2  0
 19 21  1  0
 21 22  1  0
 22 23  2  0
 22 24  1  0
 18 25  1  0
 25 26  2  0
 26  9  1  0
 25 12  1  0
  1 27  1  0
  1 28  1  0
  1 29  1  0
  2 30  1  0
  2 31  1  0
  6 32  1  0
  6 33  1  0
  7 34  1  0
  7 35  1  0
  8 36  1  0
  8 37  1  0
 10 38  1  0
 11 39  1  0
 13 40  1  0
 16 41  1  0
 21 42  1  0
 21 43  1  0
 26 44  1  0
M  CHG  3   8   1  16  -1  24  -1
M  END
>  <UniqueID>  (52) 
52

>  <SMILES>  (52) 
CCS(=O)(=O)CC[NH2+]c1ccc2cc(C([NH-])=O)n(C(=O)CC(=O)[O-])c2c1

>  <Energy>  (52) 
69.72789385919656

>  <Genealogy>  (52) 
CCS(=O)(=O)CC[NH2+]c1ccc2cc(C([NH-])=O)n(C(=O)CC(=O)[O-])c2c1 (protonated)
CCS(=O)(=O)CC[NH2+]c1ccc2cc(C([NH-])=O)n(C(=O)CC(=O)[O-])c2c1 (3D coordinates assigned)
CCS(=O)(=O)CC[NH2+]c1ccc2cc(C([NH-])=O)n(C(=O)CC(=O)[O-])c2c1 (optimized conformer: 69.72789385919656 kcal/mol)

>  <smiles>  (52) 
CCS(=O)(=O)CCNc1ccc2cc(C(N)=O)n(C(=O)CC(=O)O)c2c1

>  <score_type>  (52) 
oracle

>  <origin>  (52) 
adg

>  <m_score__min__energy>  (52) 
-10.970000000000001

>  <m_primary>  (52) 
energy

$$$$
52:0
     RDKit          3D

 45 47  0  0  0  0  0  0  0  0999 V2000
   -1.0770   22.2750  -29.5500 C   0  0  0  0  0  0  0  0  0  0  0  0
   -2.2630   23.2200  -29.2750 C   0  0  0  0  0  0  0  0  0  0  0  0
   -3.3490   22.4400  -28.5090 C   0  0  0  0  0  0  0  0  0  0  0  0
   -1.7940   24.4340  -28.4310 C   0  0  0  0  0  0  0  0  0  0  0  0
   -2.2600   25.6460  -28.9730 O   0  0  0  0  0  0  0  0  0  0  0  0
   -2.8520   23.6590  -30.5450 N   0  0  0  0  0  0  0  0  0  0  0  0
   -3.7020   22.8920  -31.4090 C   0  0  0  0  0  0  0  0  0  0  0  0
   -3.2240   22.2270  -32.3680 O   0  0  0  0  0  0  0  0  0  0  0  0
   -5.1070   22.8210  -31.1370 N   0  0  0  0  0  0  0  0  0  0  0  0
   -5.8960   23.8100  -30.6380 C   0  0  0  0  0  0  0  0  0  0  0  0
   -5.4190   25.0960  -30.0940 C   0  0  0  0  0  0  0  0  0  0  0  0
   -4.1870   25.6700  -30.5310 N   0  0  0  0  0  0  0  0  0  0  0  0
   -6.0930   25.6800  -29.2030 O   0  0  0  0  0  0  0  0  0  0  0  0
   -7.2420   23.4680  -30.7560 C   0  0  0  0  0  0  0  0  0  0  0  0
   -7.2470   22.2290  -31.3620 C   0  0  0  0  0  0  0  0  0  0  0  0
   -8.3160   21.4340  -31.7680 C   0  0  0  0  0  0  0  0  0  0  0  0
   -8.0230   20.2300  -32.4340 C   0  0  0  0  0  0  0  0  0  0  0  0
   -6.6810   19.8520  -32.6850 C   0  0  0  0  0  0  0  0  0  0  0  0
   -6.4010   18.6550  -33.4160 N   0  0  0  0  0  0  0  0  0  0  0  0
   -5.6740   18.2790  -34.6410 C   0  0  0  0  0  0  0  0  0  0  0  0
   -5.8700   16.8050  -34.4990 C   0  0  0  0  0  0  0  0  0  0  0  0
   -6.6080   17.2040  -33.2620 C   0  0  0  0  0  0  0  0  0  0  0  0
   -5.6230   20.6750  -32.2470 C   0  0  0  0  0  0  0  0  0  0  0  0
   -5.9440   21.8650  -31.5860 C   0  0  0  0  0  0  0  0  0  0  0  0
   -0.6501   21.9349  -28.5950 H   0  0  0  0  0  0  0  0  0  0  0  0
   -1.4269   21.4054  -30.1256 H   0  0  0  0  0  0  0  0  0  0  0  0
   -0.3075   22.8103  -30.1256 H   0  0  0  0  0  0  0  0  0  0  0  0
   -3.1887   22.5551  -27.4269 H   0  0  0  0  0  0  0  0  0  0  0  0
   -4.3407   22.8335  -28.7767 H   0  0  0  0  0  0  0  0  0  0  0  0
   -3.2928   21.3745  -28.7767 H   0  0  0  0  0  0  0  0  0  0  0  0
   -2.1799   24.3282  -27.4064 H   0  0  0  0  0  0  0  0  0  0  0  0
   -0.6942   24.4535  -28.4334 H   0  0  0  0  0  0  0  0  0  0  0  0
   -2.0110   25.6480  -29.9360 H   0  0  0  0  0  0  0  0  0  0  0  0
   -3.8940   26.6100  -30.1820 H   0  0  0  0  0  0  0  0  0  0  0  0
   -3.4930   25.0990  -31.0600 H   0  0  0  0  0  0  0  0  0  0  0  0
   -8.1126   24.0588  -30.4350 H   0  0  0  0  0  0  0  0  0  0  0  0
   -9.3554   21.7376  -31.5743 H   0  0  0  0  0  0  0  0  0  0  0  0
   -8.8438   19.5758  -32.7630 H   0  0  0  0  0  0  0  0  0  0  0  0
   -6.1402   18.6830  -35.5517 H   0  0  0  0  0  0  0  0  0  0  0  0
   -4.6390   18.6386  -34.7383 H   0  0  0  0  0  0  0  0  0  0  0  0
   -6.4779   16.3288  -35.2823 H   0  0  0  0  0  0  0  0  0  0  0  0
   -5.0512   16.0707  -34.5173 H   0  0  0  0  0  0  0  0  0  0  0  0
   -7.6706   16.9214  -33.2921 H   0  0  0  0  0  0  0  0  0  0  0  0
   -6.2806   16.7494  -32.3153 H   0  0  0  0  0  0  0  0  0  0  0  0
   -4.5750   20.3892  -32.4203 H   0  0  0  0  0  0  0  0  0  0  0  0
  1  2  1  0
  2  3  1  0
  2  4  1  0
  4  5  1  0
  2  6  1  0
  6  7  1  0
  7  8  2  0
  7  9  1  0
  9 10  1  0
 10 11  1  0
 11 12  1  0
 11 13  2  0
 10 14  2  0
 14 15  1  0
 15 16  2  0
 16 17  1  0
 17 18  2  0
 18 19  1  0
 19 20  1  0
 20 21  1  0
 21 22  1  0
 18 23  1  0
 23 24  2  0
 24  9  1  0
 24 15  1  0
 22 19  1  0
  1 25  1  0
  1 26  1  0
  1 27  1  0
  3 28  1  0
  3 29  1  0
  3 30  1  0
  4 31  1  0
  4 32  1  0
  5 33  1  0
 12 34  1  0
 12 35  1  0
 14 36  1  0
 16 37  1  0
 17 38  1  0
 20 39  1  0
 20 40  1  0
 21 41  1  0
 21 42  1  0
 22 43  1  0
 22 44  1  0
 23 45  1  0
M  CHG  1   6  -1
M  END
>  <UniqueID>  (53) 
53

>  <SMILES>  (53) 
CC(C)(CO)[N-]C(=O)n1c(C(N)=O)cc2ccc(N3CCC3)cc21

>  <Energy>  (53) 
127.3225507788512

>  <Genealogy>  (53) 
CC(C)(CO)[N-]C(=O)n1c(C(N)=O)cc2ccc(N3CCC3)cc21 (protonated)
CC(C)(CO)[N-]C(=O)n1c(C(N)=O)cc2ccc(N3CCC3)cc21 (3D coordinates assigned)
CC(C)(CO)[N-]C(=O)n1c(C(N)=O)cc2ccc(N3CCC3)cc21 (nonaromatic ring conformer: 127.3225507788512 kcal/mol)

>  <smiles>  (53) 
CC(C)(CO)NC(=O)n1c(C(N)=O)cc2ccc(N3CCC3)cc21

>  <score_type>  (53) 
oracle

>  <origin>  (53) 
adg

>  <m_score__min__energy>  (53) 
-10.49

>  <m_primary>  (53) 
energy

$$$$
53:0
     RDKit          3D

 40 42  0  0  0  0  0  0  0  0999 V2000
   -4.2590   15.8650  -34.6210 C   0  0  0  0  0  0  0  0  0  0  0  0
   -5.2850   16.6510  -33.9510 N   0  0  0  0  0  0  0  0  0  0  0  0
   -6.5130   16.2190  -33.6130 C   0  0  0  0  0  0  0  0  0  0  0  0
   -7.2100   17.2750  -33.0670 C   0  0  0  0  0  0  0  0  0  0  0  0
   -6.3260   18.3450  -33.1200 C   0  0  0  0  0  0  0  0  0  0  0  0
   -6.5770   19.7340  -32.6650 C   0  0  0  0  0  0  0  0  0  0  0  0
   -7.8920   20.2670  -32.7230 C   0  0  0  0  0  0  0  0  0  0  0  0
   -8.1560   21.5850  -32.3140 C   0  0  0  0  0  0  0  0  0  0  0  0
   -7.0920   22.3470  -31.8450 C   0  0  0  0  0  0  0  0  0  0  0  0
   -7.0600   23.6550  -31.4170 C   0  0  0  0  0  0  0  0  0  0  0  0
   -5.7300   23.9010  -31.0810 C   0  0  0  0  0  0  0  0  0  0  0  0
   -5.2570   25.1760  -30.5010 C   0  0  0  0  0  0  0  0  0  0  0  0
   -3.9650   25.6730  -30.8420 N   0  0  0  0  0  0  0  0  0  0  0  0
   -5.9940   25.8480  -29.7330 O   0  0  0  0  0  0  0  0  0  0  0  0
   -4.9700   22.7910  -31.2950 N   0  0  0  0  0  0  0  0  0  0  0  0
   -3.5480   22.6570  -31.1500 C   0  0  0  0  0  0  0  0  0  0  0  0
   -2.8710   22.1360  -32.0770 O   0  0  0  0  0  0  0  0  0  0  0  0
   -2.9230   23.1240  -29.9890 O   0  0  0  0  0  0  0  0  0  0  0  0
   -1.5440   22.9050  -29.6890 C   0  0  0  0  0  0  0  0  0  0  0  0
   -1.1760   23.5110  -28.3300 C   0  0  0  0  0  0  0  0  0  0  0  0
   -0.7280   24.9330  -28.4560 C   0  0  0  0  0  0  0  0  0  0  0  0
    0.4400   25.2610  -28.1190 O   0  0  0  0  0  0  0  0  0  0  0  0
   -1.5890   25.8910  -28.9760 O   0  0  0  0  0  0  0  0  0  0  0  0
   -5.8190   21.8480  -31.7620 C   0  0  0  0  0  0  0  0  0  0  0  0
   -5.5230   20.5450  -32.1790 C   0  0  0  0  0  0  0  0  0  0  0  0
   -5.1640   17.9380  -33.6720 N   0  0  0  0  0  0  0  0  0  0  0  0
   -3.6217   15.3768  -33.8690 H   0  0  0  0  0  0  0  0  0  0  0  0
   -4.7362   15.0992  -35.2501 H   0  0  0  0  0  0  0  0  0  0  0  0
   -3.6438   16.5251  -35.2501 H   0  0  0  0  0  0  0  0  0  0  0  0
   -6.8958   15.1968  -33.7492 H   0  0  0  0  0  0  0  0  0  0  0  0
   -8.2382   17.2713  -32.6760 H   0  0  0  0  0  0  0  0  0  0  0  0
   -8.7157   19.6390  -33.0934 H   0  0  0  0  0  0  0  0  0  0  0  0
   -9.1731   22.0011  -32.3634 H   0  0  0  0  0  0  0  0  0  0  0  0
   -7.9046   24.3568  -31.3537 H   0  0  0  0  0  0  0  0  0  0  0  0
   -3.1040   25.2710  -30.4070 H   0  0  0  0  0  0  0  0  0  0  0  0
   -1.3482   21.8228  -29.6655 H   0  0  0  0  0  0  0  0  0  0  0  0
   -0.9345   23.3894  -30.4660 H   0  0  0  0  0  0  0  0  0  0  0  0
   -2.0575   23.4728  -27.6732 H   0  0  0  0  0  0  0  0  0  0  0  0
   -0.3433   22.9272  -27.9107 H   0  0  0  0  0  0  0  0  0  0  0  0
   -4.4939   20.1595  -32.1302 H   0  0  0  0  0  0  0  0  0  0  0  0
  1  2  1  0
  2  3  1  0
  3  4  2  0
  4  5  1  0
  5  6  1  0
  6  7  2  0
  7  8  1  0
  8  9  2  0
  9 10  1  0
 10 11  2  0
 11 12  1  0
 12 13  1  0
 12 14  2  0
 11 15  1  0
 15 16  1  0
 16 17  2  0
 16 18  1  0
 18 19  1  0
 19 20  1  0
 20 21  1  0
 21 22  2  0
 21 23  1  0
 15 24  1  0
 24 25  2  0
  5 26  2  0
 26  2  1  0
 25  6  1  0
 24  9  1  0
  1 27  1  0
  1 28  1  0
  1 29  1  0
  3 30  1  0
  4 31  1  0
  7 32  1  0
  8 33  1  0
 10 34  1  0
 13 35  1  0
 19 36  1  0
 19 37  1  0
 20 38  1  0
 20 39  1  0
 25 40  1  0
M  CHG  2  13  -1  23  -1
M  END
>  <UniqueID>  (54) 
54

>  <SMILES>  (54) 
Cn1ccc(-c2ccc3cc(C([NH-])=O)n(C(=O)OCCC(=O)[O-])c3c2)n1

>  <Energy>  (54) 
106.94201451032308

>  <Genealogy>  (54) 
Cn1ccc(-c2ccc3cc(C([NH-])=O)n(C(=O)OCCC(=O)[O-])c3c2)n1 (protonated)
Cn1ccc(-c2ccc3cc(C([NH-])=O)n(C(=O)OCCC(=O)[O-])c3c2)n1 (3D coordinates assigned)
Cn1ccc(-c2ccc3cc(C([NH-])=O)n(C(=O)OCCC(=O)[O-])c3c2)n1 (optimized conformer: 106.94201451032308 kcal/mol)

>  <smiles>  (54) 
Cn1ccc(-c2ccc3cc(C(N)=O)n(C(=O)OCCC(=O)O)c3c2)n1

>  <score_type>  (54) 
oracle

>  <origin>  (54) 
adg

>  <m_score__min__energy>  (54) 
-13.19

>  <m_primary>  (54) 
energy

$$$$
54:0
     RDKit          3D

 41 42  0  0  0  0  0  0  0  0999 V2000
   -0.6880   21.4800  -31.3160 C   0  0  0  0  0  0  0  0  0  0  0  0
   -0.4420   21.9330  -29.8820 C   0  0  0  0  0  0  0  0  0  0  0  0
   -0.7720   23.3120  -29.7280 O   0  0  0  0  0  0  0  0  0  0  0  0
   -2.0300   23.7630  -29.3130 C   0  0  0  0  0  0  0  0  0  0  0  0
   -2.3520   24.9770  -29.4310 O   0  0  0  0  0  0  0  0  0  0  0  0
   -3.0180   22.7830  -28.7590 C   0  0  1  0  0  0  0  0  0  0  0  0
   -4.1370   23.5370  -28.0380 C   0  0  0  0  0  0  0  0  0  0  0  0
   -3.5520   22.0140  -29.8350 O   0  0  0  0  0  0  0  0  0  0  0  0
   -4.0790   22.5700  -31.0060 C   0  0  0  0  0  0  0  0  0  0  0  0
   -3.3170   22.8810  -31.9610 O   0  0  0  0  0  0  0  0  0  0  0  0
   -5.4950   22.7870  -31.1160 N   0  0  0  0  0  0  0  0  0  0  0  0
   -6.1700   23.9610  -30.9660 C   0  0  0  0  0  0  0  0  0  0  0  0
   -5.5950   25.2370  -30.4950 C   0  0  0  0  0  0  0  0  0  0  0  0
   -4.2440   25.5930  -30.7920 N   0  0  0  0  0  0  0  0  0  0  0  0
   -6.2890   25.9990  -29.7720 O   0  0  0  0  0  0  0  0  0  0  0  0
   -7.5200   23.7960  -31.2660 C   0  0  0  0  0  0  0  0  0  0  0  0
   -7.6570   22.4670  -31.5950 C   0  0  0  0  0  0  0  0  0  0  0  0
   -8.7880   21.7540  -31.9760 C   0  0  0  0  0  0  0  0  0  0  0  0
   -8.6370   20.3910  -32.2850 C   0  0  0  0  0  0  0  0  0  0  0  0
   -7.3610   19.7740  -32.2360 C   0  0  0  0  0  0  0  0  0  0  0  0
   -7.2140   18.3030  -32.5330 C   0  0  0  0  0  0  0  0  0  0  0  0
   -6.8230   18.1050  -33.8460 F   0  0  0  0  0  0  0  0  0  0  0  0
   -8.4270   17.6750  -32.3240 F   0  0  0  0  0  0  0  0  0  0  0  0
   -6.2620   17.7310  -31.7080 F   0  0  0  0  0  0  0  0  0  0  0  0
   -6.2370   20.5290  -31.8250 C   0  0  0  0  0  0  0  0  0  0  0  0
   -6.4210   21.8800  -31.5000 C   0  0  0  0  0  0  0  0  0  0  0  0
   -1.2129   20.5134  -31.3102 H   0  0  0  0  0  0  0  0  0  0  0  0
   -1.3036   22.2284  -31.8365 H   0  0  0  0  0  0  0  0  0  0  0  0
    0.2750   21.3712  -31.8365 H   0  0  0  0  0  0  0  0  0  0  0  0
   -1.0651   21.3339  -29.2016 H   0  0  0  0  0  0  0  0  0  0  0  0
    0.6229   21.7943  -29.6438 H   0  0  0  0  0  0  0  0  0  0  0  0
   -2.5260   22.1126  -28.0390 H   0  0  0  0  0  0  0  0  0  0  0  0
   -3.9999   23.4446  -26.9505 H   0  0  0  0  0  0  0  0  0  0  0  0
   -4.1060   24.5991  -28.3225 H   0  0  0  0  0  0  0  0  0  0  0  0
   -5.1097   23.1094  -28.3225 H   0  0  0  0  0  0  0  0  0  0  0  0
   -3.8660   26.5170  -30.4840 H   0  0  0  0  0  0  0  0  0  0  0  0
   -3.5930   24.9120  -31.2410 H   0  0  0  0  0  0  0  0  0  0  0  0
   -8.3077   24.5635  -31.2445 H   0  0  0  0  0  0  0  0  0  0  0  0
   -9.7721   22.2420  -32.0340 H   0  0  0  0  0  0  0  0  0  0  0  0
   -9.5182   19.7965  -32.5679 H   0  0  0  0  0  0  0  0  0  0  0  0
   -5.2412   20.0661  -31.7620 H   0  0  0  0  0  0  0  0  0  0  0  0
  1  2  1  0
  2  3  1  0
  3  4  1  0
  4  5  2  0
  4  6  1  0
  6  7  1  0
  6  8  1  0
  8  9  1  0
  9 10  2  0
  9 11  1  0
 11 12  1  0
 12 13  1  0
 13 14  1  0
 13 15  2  0
 12 16  2  0
 16 17  1  0
 17 18  2  0
 18 19  1  0
 19 20  2  0
 20 21  1  0
 21 22  1  0
 21 23  1  0
 21 24  1  0
 20 25  1  0
 25 26  2  0
 26 11  1  0
 26 17  1  0
  1 27  1  0
  1 28  1  0
  1 29  1  0
  2 30  1  0
  2 31  1  0
  6 32  1  1
  7 33  1  0
  7 34  1  0
  7 35  1  0
 14 36  1  0
 14 37  1  0
 16 38  1  0
 18 39  1  0
 19 40  1  0
 25 41  1  0
M  END
>  <UniqueID>  (55) 
55

>  <SMILES>  (55) 
CCOC(=O)[C@@H](C)OC(=O)n1c(C(N)=O)cc2ccc(C(F)(F)F)cc21

>  <Energy>  (55) 
71.72180426937699

>  <Genealogy>  (55) 
CCOC(=O)[C@@H](C)OC(=O)n1c(C(N)=O)cc2ccc(C(F)(F)F)cc21 (chirality)
CCOC(=O)[C@@H](C)OC(=O)n1c(C(N)=O)cc2ccc(C(F)(F)F)cc21 (3D coordinates assigned)
CCOC(=O)[C@@H](C)OC(=O)n1c(C(N)=O)cc2ccc(C(F)(F)F)cc21 (optimized conformer: 71.72180426937699 kcal/mol)

>  <smiles>  (55) 
CCOC(=O)C(C)OC(=O)n1c(C(N)=O)cc2ccc(C(F)(F)F)cc21

>  <score_type>  (55) 
oracle

>  <origin>  (55) 
adg

>  <m_score__min__energy>  (55) 
-8.7200000000000006

>  <m_primary>  (55) 
energy

$$$$
55:0
     RDKit          3D

 31 33  0  0  0  0  0  0  0  0999 V2000
   -5.0030   14.6940  -32.8720 C   0  0  0  0  0  0  0  0  0  0  0  0
   -5.2890   16.0610  -33.2850 N   0  0  0  0  0  0  0  0  0  0  0  0
   -5.5500   17.0940  -32.4610 C   0  0  0  0  0  0  0  0  0  0  0  0
   -5.8430   18.2030  -33.2340 C   0  0  0  0  0  0  0  0  0  0  0  0
   -6.1840   19.5640  -32.7560 C   0  0  0  0  0  0  0  0  0  0  0  0
   -7.5280   20.0210  -32.7640 C   0  0  0  0  0  0  0  0  0  0  0  0
   -7.8530   21.3140  -32.3180 C   0  0  0  0  0  0  0  0  0  0  0  0
   -6.8190   22.1250  -31.8610 C   0  0  0  0  0  0  0  0  0  0  0  0
   -6.8480   23.4190  -31.3920 C   0  0  0  0  0  0  0  0  0  0  0  0
   -5.5250   23.7270  -31.0800 C   0  0  0  0  0  0  0  0  0  0  0  0
   -5.1100   24.9960  -30.4500 C   0  0  0  0  0  0  0  0  0  0  0  0
   -3.9030   25.6460  -30.8390 N   0  0  0  0  0  0  0  0  0  0  0  0
   -5.8060   25.4920  -29.5230 O   0  0  0  0  0  0  0  0  0  0  0  0
   -4.7120   22.6690  -31.3560 N   0  0  0  0  0  0  0  0  0  0  0  0
   -3.2810   22.6070  -31.2690 C   0  0  0  0  0  0  0  0  0  0  0  0
   -2.6810   23.1880  -30.3260 O   0  0  0  0  0  0  0  0  0  0  0  0
   -2.3330   21.6280  -32.4500 S   0  0  0  0  0  0  0  0  0  0  0  0
   -5.5190   21.6950  -31.8270 C   0  0  0  0  0  0  0  0  0  0  0  0
   -5.1640   20.4210  -32.2770 C   0  0  0  0  0  0  0  0  0  0  0  0
   -5.7430   17.7440  -34.5400 C   0  0  0  0  0  0  0  0  0  0  0  0
   -5.9020   18.4780  -35.6680 F   0  0  0  0  0  0  0  0  0  0  0  0
   -5.4110   16.4400  -34.5460 N   0  0  0  0  0  0  0  0  0  0  0  0
   -4.9912   14.6377  -31.7735 H   0  0  0  0  0  0  0  0  0  0  0  0
   -5.7800   14.0220  -33.2653 H   0  0  0  0  0  0  0  0  0  0  0  0
   -4.0218   14.3898  -33.2653 H   0  0  0  0  0  0  0  0  0  0  0  0
   -5.5330   17.0613  -31.3616 H   0  0  0  0  0  0  0  0  0  0  0  0
   -8.3257   19.3546  -33.1239 H   0  0  0  0  0  0  0  0  0  0  0  0
   -8.8926   21.6734  -32.3300 H   0  0  0  0  0  0  0  0  0  0  0  0
   -7.7277   24.0708  -31.2861 H   0  0  0  0  0  0  0  0  0  0  0  0
   -2.9740   25.2910  -30.5200 H   0  0  0  0  0  0  0  0  0  0  0  0
   -4.1148   20.0909  -32.2595 H   0  0  0  0  0  0  0  0  0  0  0  0
  1  2  1  0
  2  3  1  0
  3  4  2  0
  4  5  1  0
  5  6  2  0
  6  7  1  0
  7  8  2  0
  8  9  1  0
  9 10  2  0
 10 11  1  0
 11 12  1  0
 11 13  2  0
 10 14  1  0
 14 15  1  0
 15 16  2  0
 15 17  1  0
 14 18  1  0
 18 19  2  0
  4 20  1  0
 20 21  1  0
 20 22  2  0
 22  2  1  0
 19  5  1  0
 18  8  1  0
  1 23  1  0
  1 24  1  0
  1 25  1  0
  3 26  1  0
  6 27  1  0
  7 28  1  0
  9 29  1  0
 12 30  1  0
 19 31  1  0
M  CHG  2  12  -1  17  -1
M  END
>  <UniqueID>  (56) 
56

>  <SMILES>  (56) 
Cn1cc(-c2ccc3cc(C([NH-])=O)n(C(=O)[S-])c3c2)c(F)n1

>  <Energy>  (56) 
107.02300027502629

>  <Genealogy>  (56) 
Cn1cc(-c2ccc3cc(C([NH-])=O)n(C(=O)[S-])c3c2)c(F)n1 (protonated)
Cn1cc(-c2ccc3cc(C([NH-])=O)n(C(=O)[S-])c3c2)c(F)n1 (3D coordinates assigned)
Cn1cc(-c2ccc3cc(C([NH-])=O)n(C(=O)[S-])c3c2)c(F)n1 (optimized conformer: 107.02300027502629 kcal/mol)

>  <smiles>  (56) 
Cn1cc(-c2ccc3cc(C(N)=O)n(C(=O)S)c3c2)c(F)n1

>  <score_type>  (56) 
oracle

>  <origin>  (56) 
adg

>  <m_score__min__energy>  (56) 
-10.51

>  <m_primary>  (56) 
energy

$$$$
56:0
     RDKit          3D

 37 39  0  0  0  0  0  0  0  0999 V2000
   -4.2370   25.6070  -30.5260 N   0  0  0  0  0  0  0  0  0  0  0  0
   -5.5570   25.1930  -30.1830 C   0  0  0  0  0  0  0  0  0  0  0  0
   -6.2800   25.9560  -29.4880 O   0  0  0  0  0  0  0  0  0  0  0  0
   -6.1020   23.9080  -30.6670 C   0  0  0  0  0  0  0  0  0  0  0  0
   -7.4030   23.7570  -31.1460 C   0  0  0  0  0  0  0  0  0  0  0  0
   -7.4900   22.4480  -31.5590 C   0  0  0  0  0  0  0  0  0  0  0  0
   -8.5610   21.7550  -32.1150 C   0  0  0  0  0  0  0  0  0  0  0  0
   -8.3770   20.3970  -32.4260 C   0  0  0  0  0  0  0  0  0  0  0  0
   -7.1430   19.7510  -32.1530 C   0  0  0  0  0  0  0  0  0  0  0  0
   -6.9440   18.3030  -32.5250 C   0  0  0  0  0  0  0  0  0  0  0  0
   -8.0940   17.7820  -33.0950 F   0  0  0  0  0  0  0  0  0  0  0  0
   -6.6360   17.5490  -31.4070 F   0  0  0  0  0  0  0  0  0  0  0  0
   -5.9080   18.2070  -33.4350 F   0  0  0  0  0  0  0  0  0  0  0  0
   -6.0730   20.4970  -31.6080 C   0  0  0  0  0  0  0  0  0  0  0  0
   -6.2780   21.8520  -31.3260 C   0  0  0  0  0  0  0  0  0  0  0  0
   -5.4140   22.7360  -30.7790 N   0  0  0  0  0  0  0  0  0  0  0  0
   -4.0820   22.4560  -30.3210 C   0  0  0  0  0  0  0  0  0  0  0  0
   -3.8370   21.3630  -29.7410 O   0  0  0  0  0  0  0  0  0  0  0  0
   -3.0320   23.4110  -30.5300 N   0  0  0  0  0  0  0  0  0  0  0  0
   -1.6790   23.2190  -30.0050 C   0  0  0  0  0  0  0  0  0  0  0  0
   -1.2970   24.2410  -28.9160 C   0  0  0  0  0  0  0  0  0  0  0  0
   -1.3710   25.5930  -29.2680 O   0  0  0  0  0  0  0  0  0  0  0  0
   -0.0240   23.9170  -28.1450 C   0  0  0  0  0  0  0  0  0  0  0  0
   -1.3640   23.9520  -27.4210 C   0  0  0  0  0  0  0  0  0  0  0  0
   -3.4890   25.6770  -29.8000 H   0  0  0  0  0  0  0  0  0  0  0  0
   -8.1921   24.5224  -31.1852 H   0  0  0  0  0  0  0  0  0  0  0  0
   -9.5222   22.2549  -32.3052 H   0  0  0  0  0  0  0  0  0  0  0  0
   -9.1985   19.8283  -32.8861 H   0  0  0  0  0  0  0  0  0  0  0  0
   -5.1005   20.0226  -31.4100 H   0  0  0  0  0  0  0  0  0  0  0  0
   -3.2780   24.3450  -30.9280 H   0  0  0  0  0  0  0  0  0  0  0  0
   -1.6114   22.2088  -29.5749 H   0  0  0  0  0  0  0  0  0  0  0  0
   -0.9810   23.3600  -30.8434 H   0  0  0  0  0  0  0  0  0  0  0  0
   -2.1830   25.6730  -29.8320 H   0  0  0  0  0  0  0  0  0  0  0  0
    0.4882   22.9572  -28.3077 H   0  0  0  0  0  0  0  0  0  0  0  0
    0.9482   24.4124  -28.0058 H   0  0  0  0  0  0  0  0  0  0  0  0
   -1.8194   23.0176  -27.0612 H   0  0  0  0  0  0  0  0  0  0  0  0
   -1.7602   24.4830  -26.5429 H   0  0  0  0  0  0  0  0  0  0  0  0
  1  2  1  0
  2  3  2  0
  2  4  1  0
  4  5  2  0
  5  6  1  0
  6  7  2  0
  7  8  1  0
  8  9  2  0
  9 10  1  0
 10 11  1  0
 10 12  1  0
 10 13  1  0
  9 14  1  0
 14 15  2  0
 15 16  1  0
 16 17  1  0
 17 18  2  0
 17 19  1  0
 19 20  1  0
 20 21  1  0
 21 22  1  0
 21 23  1  0
 23 24  1  0
 16  4  1  0
 24 21  1  0
 15  6  1  0
  1 25  1  0
  5 26  1  0
  7 27  1  0
  8 28  1  0
 14 29  1  0
 19 30  1  0
 20 31  1  0
 20 32  1  0
 22 33  1  0
 23 34  1  0
 23 35  1  0
 24 36  1  0
 24 37  1  0
M  CHG  1   1  -1
M  END
>  <UniqueID>  (57) 
57

>  <SMILES>  (57) 
[NH-]C(=O)c1cc2ccc(C(F)(F)F)cc2n1C(=O)NCC1(O)CC1

>  <Energy>  (57) 
344.5419149487145

>  <Genealogy>  (57) 
[NH-]C(=O)c1cc2ccc(C(F)(F)F)cc2n1C(=O)NCC1(O)CC1 (protonated)
[NH-]C(=O)c1cc2ccc(C(F)(F)F)cc2n1C(=O)NCC1(O)CC1 (3D coordinates assigned)
[NH-]C(=O)c1cc2ccc(C(F)(F)F)cc2n1C(=O)NCC1(O)CC1 (nonaromatic ring conformer: 344.5419149487145 kcal/mol)

>  <smiles>  (57) 
NC(=O)c1cc2ccc(C(F)(F)F)cc2n1C(=O)NCC1(O)CC1

>  <score_type>  (57) 
oracle

>  <origin>  (57) 
adg

>  <m_score__min__energy>  (57) 
-10.630000000000001

>  <m_primary>  (57) 
energy

$$$$
57:0
     RDKit          3D

 33 34  0  0  0  0  0  0  0  0999 V2000
   -2.0030   25.6740  -30.0140 H   0  0  0  0  0  0  0  0  0  0  0  0
   -2.3560   25.0830  -29.2990 O   0  0  0  0  0  0  0  0  0  0  0  0
   -1.5680   23.9260  -29.3280 C   0  0  0  0  0  0  0  0  0  0  0  0
   -0.7018   24.0584  -28.6631 H   0  0  0  0  0  0  0  0  0  0  0  0
   -1.2241   23.7489  -30.3577 H   0  0  0  0  0  0  0  0  0  0  0  0
   -2.3730   22.7450  -28.8670 C   0  0  0  0  0  0  0  0  0  0  0  0
   -2.0816   22.2755  -27.9159 H   0  0  0  0  0  0  0  0  0  0  0  0
   -3.4180   22.2160  -29.5200 C   0  0  0  0  0  0  0  0  0  0  0  0
   -3.9449   21.3832  -29.0314 H   0  0  0  0  0  0  0  0  0  0  0  0
   -3.9250   22.6530  -30.8390 C   0  0  0  0  0  0  0  0  0  0  0  0
   -3.0900   22.9610  -31.7300 O   0  0  0  0  0  0  0  0  0  0  0  0
   -5.3280   22.8100  -31.1090 N   0  0  0  0  0  0  0  0  0  0  0  0
   -6.0960   23.9120  -30.8750 C   0  0  0  0  0  0  0  0  0  0  0  0
   -5.5870   25.2290  -30.4230 C   0  0  0  0  0  0  0  0  0  0  0  0
   -6.3540   26.0320  -29.8290 O   0  0  0  0  0  0  0  0  0  0  0  0
   -4.2260   25.6060  -30.6400 N   0  0  0  0  0  0  0  0  0  0  0  0
   -3.8750   26.5220  -30.2820 H   0  0  0  0  0  0  0  0  0  0  0  0
   -3.5720   25.0060  -31.1870 H   0  0  0  0  0  0  0  0  0  0  0  0
   -7.4330   23.6420  -31.1720 C   0  0  0  0  0  0  0  0  0  0  0  0
   -8.2849   24.3342  -31.1002 H   0  0  0  0  0  0  0  0  0  0  0  0
   -7.4590   22.3250  -31.5740 C   0  0  0  0  0  0  0  0  0  0  0  0
   -8.5300   21.5350  -31.9800 C   0  0  0  0  0  0  0  0  0  0  0  0
   -9.5497   21.9444  -32.0308 H   0  0  0  0  0  0  0  0  0  0  0  0
   -8.2680   20.1980  -32.3230 C   0  0  0  0  0  0  0  0  0  0  0  0
   -9.0908   19.5540  -32.6670 H   0  0  0  0  0  0  0  0  0  0  0  0
   -6.9540   19.6680  -32.2310 C   0  0  0  0  0  0  0  0  0  0  0  0
   -6.6780   18.2450  -32.6420 C   0  0  0  0  0  0  0  0  0  0  0  0
   -5.6260   17.7200  -31.9120 F   0  0  0  0  0  0  0  0  0  0  0  0
   -7.7910   17.4490  -32.4290 F   0  0  0  0  0  0  0  0  0  0  0  0
   -6.3540   18.2150  -33.9850 F   0  0  0  0  0  0  0  0  0  0  0  0
   -5.8900   20.5120  -31.8340 C   0  0  0  0  0  0  0  0  0  0  0  0
   -4.8597   20.1309  -31.7775 H   0  0  0  0  0  0  0  0  0  0  0  0
   -6.1800   21.8430  -31.5150 C   0  0  0  0  0  0  0  0  0  0  0  0
  1  2  1  0
  2  3  1  0
  3  4  1  0
  3  5  1  0
  3  6  1  0
  6  7  1  0
  6  8  2  0
  8  9  1  0
  8 10  1  0
 10 11  2  0
 10 12  1  0
 12 13  1  0
 13 14  1  0
 14 15  2  0
 14 16  1  0
 16 17  1  0
 16 18  1  0
 13 19  2  0
 19 20  1  0
 19 21  1  0
 21 22  2  0
 22 23  1  0
 22 24  1  0
 24 25  1  0
 24 26  2  0
 26 27  1  0
 27 28  1  0
 27 29  1  0
 27 30  1  0
 26 31  1  0
 31 32  1  0
 31 33  2  0
 33 12  1  0
 33 21  1  0
M  END
>  <UniqueID>  (58) 
58

>  <SMILES>  (58) 
NC(=O)c1cc2ccc(C(F)(F)F)cc2n1C(=O)/C=C\CO

>  <Energy>  (58) 
73.37699360164326

>  <Genealogy>  (58) 
NC(=O)c1cc2ccc(C(F)(F)F)cc2n1C(=O)/C=C\CO (cis-trans isomerization)
NC(=O)c1cc2ccc(C(F)(F)F)cc2n1C(=O)/C=C\CO (3D coordinates assigned)
NC(=O)c1cc2ccc(C(F)(F)F)cc2n1C(=O)/C=C\CO (optimized conformer: 73.37699360164326 kcal/mol)

>  <smiles>  (58) 
NC(=O)c1cc2ccc(C(F)(F)F)cc2n1C(=O)C=CCO

>  <score_type>  (58) 
oracle

>  <origin>  (58) 
adg

>  <m_score__min__energy>  (58) 
-8.4399999999999995

>  <m_primary>  (58) 
energy

$$$$
58:0
     RDKit          3D

 33 34  0  0  0  0  0  0  0  0999 V2000
   -1.0410   22.0190  -29.1420 C   0  0  0  0  0  0  0  0  0  0  0  0
   -1.9300   23.2550  -29.2990 C   0  0  2  0  0  0  0  0  0  0  0  0
   -2.5170   23.2870  -30.5990 O   0  0  0  0  0  0  0  0  0  0  0  0
   -3.3070   22.2550  -31.1200 C   0  0  0  0  0  0  0  0  0  0  0  0
   -2.7930   21.1380  -31.3980 O   0  0  0  0  0  0  0  0  0  0  0  0
   -4.7160   22.4620  -31.3050 N   0  0  0  0  0  0  0  0  0  0  0  0
   -5.4730   23.4960  -30.8400 C   0  0  0  0  0  0  0  0  0  0  0  0
   -4.9640   24.7240  -30.1980 C   0  0  0  0  0  0  0  0  0  0  0  0
   -3.9800   25.5310  -30.8390 N   0  0  0  0  0  0  0  0  0  0  0  0
   -5.4390   25.0940  -29.0910 O   0  0  0  0  0  0  0  0  0  0  0  0
   -6.8200   23.2830  -31.1230 C   0  0  0  0  0  0  0  0  0  0  0  0
   -6.8670   22.0800  -31.7890 C   0  0  0  0  0  0  0  0  0  0  0  0
   -7.9580   21.3740  -32.2830 C   0  0  0  0  0  0  0  0  0  0  0  0
   -7.7190   20.1310  -32.8930 C   0  0  0  0  0  0  0  0  0  0  0  0
   -6.3990   19.6220  -33.0080 C   0  0  0  0  0  0  0  0  0  0  0  0
   -6.1630   18.2580  -33.6070 C   0  0  0  0  0  0  0  0  0  0  0  0
   -6.0070   18.3830  -34.9740 F   0  0  0  0  0  0  0  0  0  0  0  0
   -7.2330   17.4190  -33.3490 F   0  0  0  0  0  0  0  0  0  0  0  0
   -5.0220   17.6820  -33.0740 F   0  0  0  0  0  0  0  0  0  0  0  0
   -5.3190   20.3590  -32.4700 C   0  0  0  0  0  0  0  0  0  0  0  0
   -5.5850   21.6040  -31.8860 C   0  0  0  0  0  0  0  0  0  0  0  0
   -1.1110   24.4950  -29.1040 C   0  0  0  0  0  0  0  0  0  0  0  0
   -1.6100   25.6270  -29.3380 O   0  0  0  0  0  0  0  0  0  0  0  0
    0.1900   24.4040  -28.6230 O   0  0  0  0  0  0  0  0  0  0  0  0
   -0.8901   21.8093  -28.0728 H   0  0  0  0  0  0  0  0  0  0  0  0
   -1.5261   21.1553  -29.6202 H   0  0  0  0  0  0  0  0  0  0  0  0
   -0.0678   22.2042  -29.6202 H   0  0  0  0  0  0  0  0  0  0  0  0
   -2.7276   23.2080  -28.5430 H   0  0  0  0  0  0  0  0  0  0  0  0
   -2.9700   25.2680  -30.8160 H   0  0  0  0  0  0  0  0  0  0  0  0
   -7.6665   23.9376  -30.8682 H   0  0  0  0  0  0  0  0  0  0  0  0
   -8.9782   21.7766  -32.1988 H   0  0  0  0  0  0  0  0  0  0  0  0
   -8.5639   19.5461  -33.2856 H   0  0  0  0  0  0  0  0  0  0  0  0
   -4.2932   19.9637  -32.5092 H   0  0  0  0  0  0  0  0  0  0  0  0
  1  2  1  0
  2  3  1  0
  3  4  1  0
  4  5  2  0
  4  6  1  0
  6  7  1  0
  7  8  1  0
  8  9  1  0
  8 10  2  0
  7 11  2  0
 11 12  1  0
 12 13  2  0
 13 14  1  0
 14 15  2  0
 15 16  1  0
 16 17  1  0
 16 18  1  0
 16 19  1  0
 15 20  1  0
 20 21  2  0
  2 22  1  0
 22 23  2  0
 22 24  1  0
 21  6  1  0
 21 12  1  0
  1 25  1  0
  1 26  1  0
  1 27  1  0
  2 28  1  1
  9 29  1  0
 11 30  1  0
 13 31  1  0
 14 32  1  0
 20 33  1  0
M  CHG  2   9  -1  24  -1
M  END
>  <UniqueID>  (59) 
59

>  <SMILES>  (59) 
C[C@H](OC(=O)n1c(C([NH-])=O)cc2ccc(C(F)(F)F)cc21)C(=O)[O-]

>  <Energy>  (59) 
68.67098518653268

>  <Genealogy>  (59) 
CC(OC(=O)n1c(C([NH-])=O)cc2ccc(C(F)(F)F)cc21)C(=O)[O-] (protonated)
C[C@H](OC(=O)n1c(C([NH-])=O)cc2ccc(C(F)(F)F)cc21)C(=O)[O-] (chirality)
C[C@H](OC(=O)n1c(C([NH-])=O)cc2ccc(C(F)(F)F)cc21)C(=O)[O-] (3D coordinates assigned)
C[C@H](OC(=O)n1c(C([NH-])=O)cc2ccc(C(F)(F)F)cc21)C(=O)[O-] (optimized conformer: 68.67098518653268 kcal/mol)

>  <smiles>  (59) 
CC(OC(=O)n1c(C(N)=O)cc2ccc(C(F)(F)F)cc21)C(=O)O

>  <score_type>  (59) 
oracle

>  <origin>  (59) 
adg

>  <m_score__min__energy>  (59) 
-12.07

>  <m_primary>  (59) 
energy

$$$$
59:0
     RDKit          3D

 51 53  0  0  0  0  0  0  0  0999 V2000
   -0.7840   20.2090  -33.7720 C   0  0  0  0  0  0  0  0  0  0  0  0
   -2.2400   19.7590  -33.6620 C   0  0  0  0  0  0  0  0  0  0  0  0
   -2.3430   18.2340  -33.8360 C   0  0  0  0  0  0  0  0  0  0  0  0
   -2.7830   20.2020  -32.3610 N   0  0  0  0  0  0  0  0  0  0  0  0
   -1.7390   20.7110  -31.4590 C   0  0  0  0  0  0  0  0  0  0  0  0
   -2.2610   20.7730  -30.0190 C   0  0  0  0  0  0  0  0  0  0  0  0
   -3.2080   21.8880  -29.8620 N   0  0  0  0  0  0  0  0  0  0  0  0
   -3.6160   22.3220  -28.5240 C   0  0  0  0  0  0  0  0  0  0  0  0
   -3.7900   22.5270  -31.0190 C   0  0  0  0  0  0  0  0  0  0  0  0
   -3.0450   22.9940  -31.9230 O   0  0  0  0  0  0  0  0  0  0  0  0
   -5.2130   22.6590  -31.1510 N   0  0  0  0  0  0  0  0  0  0  0  0
   -5.9800   23.7450  -30.8540 C   0  0  0  0  0  0  0  0  0  0  0  0
   -5.4780   24.9980  -30.2450 C   0  0  0  0  0  0  0  0  0  0  0  0
   -4.1820   25.5080  -30.5670 N   0  0  0  0  0  0  0  0  0  0  0  0
   -6.2000   25.6370  -29.4350 O   0  0  0  0  0  0  0  0  0  0  0  0
   -7.3150   23.4930  -31.1740 C   0  0  0  0  0  0  0  0  0  0  0  0
   -7.3340   22.2080  -31.6740 C   0  0  0  0  0  0  0  0  0  0  0  0
   -8.3930   21.4530  -32.1660 C   0  0  0  0  0  0  0  0  0  0  0  0
   -8.1140   20.1610  -32.6440 C   0  0  0  0  0  0  0  0  0  0  0  0
   -6.7900   19.6460  -32.6240 C   0  0  0  0  0  0  0  0  0  0  0  0
   -6.5040   18.2860  -33.1460 C   0  0  0  0  0  0  0  0  0  0  0  0
   -6.5750   17.0930  -32.4490 C   0  0  0  0  0  0  0  0  0  0  0  0
   -6.2130   16.1100  -33.3450 C   0  0  0  0  0  0  0  0  0  0  0  0
   -5.9410   16.6490  -34.5100 O   0  0  0  0  0  0  0  0  0  0  0  0
   -6.1050   17.9500  -34.4290 C   0  0  0  0  0  0  0  0  0  0  0  0
   -5.7450   20.4480  -32.1080 C   0  0  0  0  0  0  0  0  0  0  0  0
   -6.0550   21.7260  -31.6400 C   0  0  0  0  0  0  0  0  0  0  0  0
   -0.3633   20.3390  -32.7640 H   0  0  0  0  0  0  0  0  0  0  0  0
   -0.2051   19.4479  -34.3156 H   0  0  0  0  0  0  0  0  0  0  0  0
   -0.7355   21.1641  -34.3156 H   0  0  0  0  0  0  0  0  0  0  0  0
   -2.8379   20.2168  -34.4638 H   0  0  0  0  0  0  0  0  0  0  0  0
   -2.3755   17.7535  -32.8470 H   0  0  0  0  0  0  0  0  0  0  0  0
   -3.2597   17.9896  -34.3927 H   0  0  0  0  0  0  0  0  0  0  0  0
   -1.4675   17.8685  -34.3927 H   0  0  0  0  0  0  0  0  0  0  0  0
   -3.4980   20.9530  -32.5130 H   0  0  0  0  0  0  0  0  0  0  0  0
   -0.8668   20.0419  -31.4999 H   0  0  0  0  0  0  0  0  0  0  0  0
   -1.4535   21.7239  -31.7791 H   0  0  0  0  0  0  0  0  0  0  0  0
   -2.7706   19.8285  -29.7776 H   0  0  0  0  0  0  0  0  0  0  0  0
   -1.4109   20.9297  -29.3387 H   0  0  0  0  0  0  0  0  0  0  0  0
   -3.0692   21.7404  -27.7672 H   0  0  0  0  0  0  0  0  0  0  0  0
   -3.3882   23.3910  -28.3999 H   0  0  0  0  0  0  0  0  0  0  0  0
   -4.6970   22.1606  -28.3999 H   0  0  0  0  0  0  0  0  0  0  0  0
   -3.5160   24.9750  -31.1650 H   0  0  0  0  0  0  0  0  0  0  0  0
   -3.8670   26.4190  -30.1660 H   0  0  0  0  0  0  0  0  0  0  0  0
   -8.1700   24.1744  -31.0531 H   0  0  0  0  0  0  0  0  0  0  0  0
   -9.4171   21.8543  -32.1807 H   0  0  0  0  0  0  0  0  0  0  0  0
   -8.9317   19.5402  -33.0389 H   0  0  0  0  0  0  0  0  0  0  0  0
   -6.8616   16.9568  -31.3958 H   0  0  0  0  0  0  0  0  0  0  0  0
   -6.1601   15.0351  -33.1175 H   0  0  0  0  0  0  0  0  0  0  0  0
   -5.9495   18.6622  -35.2527 H   0  0  0  0  0  0  0  0  0  0  0  0
   -4.7114   20.0729  -32.0763 H   0  0  0  0  0  0  0  0  0  0  0  0
  1  2  1  0
  2  3  1  0
  2  4  1  0
  4  5  1  0
  5  6  1  0
  6  7  1  0
  7  8  1  0
  7  9  1  0
  9 10  2  0
  9 11  1  0
 11 12  1  0
 12 13  1  0
 13 14  1  0
 13 15  2  0
 12 16  2  0
 16 17  1  0
 17 18  2  0
 18 19  1  0
 19 20  2  0
 20 21  1  0
 21 22  1  0
 22 23  2  0
 23 24  1  0
 24 25  1  0
 20 26  1  0
 26 27  2  0
 27 11  1  0
 27 17  1  0
 25 21  2  0
  1 28  1  0
  1 29  1  0
  1 30  1  0
  2 31  1  0
  3 32  1  0
  3 33  1  0
  3 34  1  0
  4 35  1  0
  5 36  1  0
  5 37  1  0
  6 38  1  0
  6 39  1  0
  8 40  1  0
  8 41  1  0
  8 42  1  0
 14 43  1  0
 14 44  1  0
 16 45  1  0
 18 46  1  0
 19 47  1  0
 22 48  1  0
 23 49  1  0
 25 50  1  0
 26 51  1  0
M  END
>  <UniqueID>  (60) 
60

>  <SMILES>  (60) 
CC(C)NCCN(C)C(=O)n1c(C(N)=O)cc2ccc(-c3ccoc3)cc21

>  <Energy>  (60) 
109.61973168519478

>  <Genealogy>  (60) 
CC(C)NCCN(C)C(=O)n1c(C(N)=O)cc2ccc(-c3ccoc3)cc21 (3D coordinates assigned)
CC(C)NCCN(C)C(=O)n1c(C(N)=O)cc2ccc(-c3ccoc3)cc21 (optimized conformer: 109.61973168519478 kcal/mol)

>  <smiles>  (60) 
CC(C)NCCN(C)C(=O)n1c(C(N)=O)cc2ccc(-c3ccoc3)cc21

>  <score_type>  (60) 
oracle

>  <origin>  (60) 
adg

>  <m_score__min__energy>  (60) 
-9.9199999999999999

>  <m_primary>  (60) 
energy

$$$$
60:0
     RDKit          3D

 48 50  0  0  0  0  0  0  0  0999 V2000
   -3.3860   24.7160  -26.7740 C   0  0  0  0  0  0  0  0  0  0  0  0
   -1.9760   24.4640  -26.4260 N   0  0  2  0  0  0  0  0  0  0  0  0
   -1.1130   25.5510  -26.9590 C   0  0  0  0  0  0  0  0  0  0  0  0
   -1.1740   25.7060  -28.4950 C   0  0  0  0  0  0  0  0  0  0  0  0
   -0.9640   24.3810  -29.2670 C   0  0  0  0  0  0  0  0  0  0  0  0
   -2.1690   23.5280  -29.2130 N   0  0  0  0  0  0  0  0  0  0  0  0
   -2.5510   22.9440  -30.5180 C   0  0  0  0  0  0  0  0  0  0  0  0
   -3.6820   21.9400  -30.4440 C   0  0  0  0  0  0  0  0  0  0  0  0
   -3.4780   20.7970  -29.9560 O   0  0  0  0  0  0  0  0  0  0  0  0
   -5.0160   22.3180  -30.8320 N   0  0  0  0  0  0  0  0  0  0  0  0
   -5.6020   23.5490  -30.7550 C   0  0  0  0  0  0  0  0  0  0  0  0
   -4.9960   24.7860  -30.2130 C   0  0  0  0  0  0  0  0  0  0  0  0
   -3.8490   25.3790  -30.8100 N   0  0  0  0  0  0  0  0  0  0  0  0
   -5.5060   25.3310  -29.1960 O   0  0  0  0  0  0  0  0  0  0  0  0
   -6.9010   23.5000  -31.2590 C   0  0  0  0  0  0  0  0  0  0  0  0
   -7.0910   22.2000  -31.6640 C   0  0  0  0  0  0  0  0  0  0  0  0
   -8.1860   21.6100  -32.2870 C   0  0  0  0  0  0  0  0  0  0  0  0
   -8.0850   20.2570  -32.6550 C   0  0  0  0  0  0  0  0  0  0  0  0
   -6.9000   19.5210  -32.3920 C   0  0  0  0  0  0  0  0  0  0  0  0
   -6.7640   18.0890  -32.8420 C   0  0  0  0  0  0  0  0  0  0  0  0
   -6.4540   18.0600  -34.1890 F   0  0  0  0  0  0  0  0  0  0  0  0
   -5.7520   17.4640  -32.1320 F   0  0  0  0  0  0  0  0  0  0  0  0
   -7.9380   17.3850  -32.6370 F   0  0  0  0  0  0  0  0  0  0  0  0
   -5.8000   20.1680  -31.7820 C   0  0  0  0  0  0  0  0  0  0  0  0
   -5.9380   21.5090  -31.4010 C   0  0  0  0  0  0  0  0  0  0  0  0
   -2.1710   22.5420  -28.1120 C   0  0  0  0  0  0  0  0  0  0  0  0
   -1.5740   23.0790  -26.7890 C   0  0  0  0  0  0  0  0  0  0  0  0
   -3.9778   24.8218  -25.8528 H   0  0  0  0  0  0  0  0  0  0  0  0
   -3.4582   25.6413  -27.3645 H   0  0  0  0  0  0  0  0  0  0  0  0
   -3.7742   23.8730  -27.3645 H   0  0  0  0  0  0  0  0  0  0  0  0
   -1.9180   24.5170  -25.3790 H   0  0  0  0  0  0  0  0  0  0  0  0
   -1.4308   26.5001  -26.5027 H   0  0  0  0  0  0  0  0  0  0  0  0
   -0.0756   25.2862  -26.7069 H   0  0  0  0  0  0  0  0  0  0  0  0
   -2.1609   26.1108  -28.7635 H   0  0  0  0  0  0  0  0  0  0  0  0
   -0.3507   26.3769  -28.7815 H   0  0  0  0  0  0  0  0  0  0  0  0
   -0.7358   24.6117  -30.3181 H   0  0  0  0  0  0  0  0  0  0  0  0
   -0.1325   23.8351  -28.7973 H   0  0  0  0  0  0  0  0  0  0  0  0
   -2.8601   23.7626  -31.1846 H   0  0  0  0  0  0  0  0  0  0  0  0
   -1.6703   22.3997  -30.8895 H   0  0  0  0  0  0  0  0  0  0  0  0
   -2.9080   25.2990  -30.3640 H   0  0  0  0  0  0  0  0  0  0  0  0
   -7.6226   24.3280  -31.3199 H   0  0  0  0  0  0  0  0  0  0  0  0
   -9.1028   22.1846  -32.4856 H   0  0  0  0  0  0  0  0  0  0  0  0
   -8.9332   19.7634  -33.1520 H   0  0  0  0  0  0  0  0  0  0  0  0
   -4.8562   19.6296  -31.6104 H   0  0  0  0  0  0  0  0  0  0  0  0
   -3.2104   22.2351  -27.9237 H   0  0  0  0  0  0  0  0  0  0  0  0
   -1.5349   21.7038  -28.4326 H   0  0  0  0  0  0  0  0  0  0  0  0
   -1.8914   22.4090  -25.9764 H   0  0  0  0  0  0  0  0  0  0  0  0
   -0.4843   23.1075  -26.9366 H   0  0  0  0  0  0  0  0  0  0  0  0
  1  2  1  0
  2  3  1  0
  3  4  1  0
  4  5  1  0
  5  6  1  0
  6  7  1  0
  7  8  1  0
  8  9  2  0
  8 10  1  0
 10 11  1  0
 11 12  1  0
 12 13  1  0
 12 14  2  0
 11 15  2  0
 15 16  1  0
 16 17  2  0
 17 18  1  0
 18 19  2  0
 19 20  1  0
 20 21  1  0
 20 22  1  0
 20 23  1  0
 19 24  1  0
 24 25  2  0
  6 26  1  0
 26 27  1  0
 27  2  1  0
 25 10  1  0
 25 16  1  0
  1 28  1  0
  1 29  1  0
  1 30  1  0
  2 31  1  1
  3 32  1  0
  3 33  1  0
  4 34  1  0
  4 35  1  0
  5 36  1  0
  5 37  1  0
  7 38  1  0
  7 39  1  0
 13 40  1  0
 15 41  1  0
 17 42  1  0
 18 43  1  0
 24 44  1  0
 26 45  1  0
 26 46  1  0
 27 47  1  0
 27 48  1  0
M  CHG  2   2   1  13  -1
M  END
>  <UniqueID>  (61) 
61

>  <SMILES>  (61) 
C[N@@H+]1CCCN(CC(=O)n2c(C([NH-])=O)cc3ccc(C(F)(F)F)cc32)CC1

>  <Energy>  (61) 
108.99266333947293

>  <Genealogy>  (61) 
C[NH+]1CCCN(CC(=O)n2c(C([NH-])=O)cc3ccc(C(F)(F)F)cc32)CC1 (protonated)
C[N@@H+]1CCCN(CC(=O)n2c(C([NH-])=O)cc3ccc(C(F)(F)F)cc32)CC1 (chirality)
C[N@@H+]1CCCN(CC(=O)n2c(C([NH-])=O)cc3ccc(C(F)(F)F)cc32)CC1 (3D coordinates assigned)
C[N@@H+]1CCCN(CC(=O)n2c(C([NH-])=O)cc3ccc(C(F)(F)F)cc32)CC1 (nonaromatic ring conformer: 108.99266333947293 kcal/mol)

>  <smiles>  (61) 
CN1CCCN(CC(=O)n2c(C(N)=O)cc3ccc(C(F)(F)F)cc32)CC1

>  <score_type>  (61) 
oracle

>  <origin>  (61) 
adg

>  <m_score__min__energy>  (61) 
-8.1400000000000006

>  <m_primary>  (61) 
energy

$$$$
61:0
     RDKit          3D

 33 34  0  0  0  0  0  0  0  0999 V2000
   -6.1750   17.8910  -33.8180 C   0  0  0  0  0  0  0  0  0  0  0  0
   -6.2120   18.1440  -32.3770 N   0  0  0  0  0  0  0  0  0  0  0  0
   -6.4840   19.5370  -32.1230 C   0  0  0  0  0  0  0  0  0  0  0  0
   -7.8050   20.0410  -32.2520 C   0  0  0  0  0  0  0  0  0  0  0  0
   -8.0860   21.3920  -31.9940 C   0  0  0  0  0  0  0  0  0  0  0  0
   -7.0350   22.2120  -31.5920 C   0  0  0  0  0  0  0  0  0  0  0  0
   -7.0240   23.5550  -31.2990 C   0  0  0  0  0  0  0  0  0  0  0  0
   -5.7040   23.8500  -30.9610 C   0  0  0  0  0  0  0  0  0  0  0  0
   -5.2610   25.1790  -30.4920 C   0  0  0  0  0  0  0  0  0  0  0  0
   -3.9750   25.6700  -30.8600 N   0  0  0  0  0  0  0  0  0  0  0  0
   -6.0240   25.9060  -29.7990 O   0  0  0  0  0  0  0  0  0  0  0  0
   -4.9280   22.7320  -31.0490 N   0  0  0  0  0  0  0  0  0  0  0  0
   -3.5080   22.6340  -30.8550 C   0  0  0  0  0  0  0  0  0  0  0  0
   -2.7340   22.6380  -31.8520 O   0  0  0  0  0  0  0  0  0  0  0  0
   -2.9870   22.5570  -29.5600 O   0  0  0  0  0  0  0  0  0  0  0  0
   -2.8140   23.7010  -28.7320 C   0  0  0  0  0  0  0  0  0  0  0  0
   -1.5790   24.4270  -29.1480 C   0  0  0  0  0  0  0  0  0  0  0  0
   -1.6050   25.6730  -29.3210 O   0  0  0  0  0  0  0  0  0  0  0  0
   -0.3830   23.7350  -29.2910 O   0  0  0  0  0  0  0  0  0  0  0  0
   -5.7580   21.7380  -31.4360 C   0  0  0  0  0  0  0  0  0  0  0  0
   -5.4460   20.3990  -31.7040 C   0  0  0  0  0  0  0  0  0  0  0  0
   -6.0180   16.8172  -33.9978 H   0  0  0  0  0  0  0  0  0  0  0  0
   -7.1283   18.2028  -34.2696 H   0  0  0  0  0  0  0  0  0  0  0  0
   -5.3509   18.4628  -34.2696 H   0  0  0  0  0  0  0  0  0  0  0  0
   -6.9530   17.5480  -31.9420 H   0  0  0  0  0  0  0  0  0  0  0  0
   -5.2920   17.8740  -31.9560 H   0  0  0  0  0  0  0  0  0  0  0  0
   -8.6174   19.3653  -32.5575 H   0  0  0  0  0  0  0  0  0  0  0  0
   -9.1051   21.7905  -32.1060 H   0  0  0  0  0  0  0  0  0  0  0  0
   -7.8763   24.2499  -31.3256 H   0  0  0  0  0  0  0  0  0  0  0  0
   -3.1220   25.0780  -30.7500 H   0  0  0  0  0  0  0  0  0  0  0  0
   -3.6842   24.3657  -28.8368 H   0  0  0  0  0  0  0  0  0  0  0  0
   -2.7209   23.3860  -27.6822 H   0  0  0  0  0  0  0  0  0  0  0  0
   -4.4169   20.0273  -31.5909 H   0  0  0  0  0  0  0  0  0  0  0  0
  1  2  1  0
  2  3  1  0
  3  4  2  0
  4  5  1  0
  5  6  2  0
  6  7  1  0
  7  8  2  0
  8  9  1  0
  9 10  1  0
  9 11  2  0
  8 12  1  0
 12 13  1  0
 13 14  2  0
 13 15  1  0
 15 16  1  0
 16 17  1  0
 17 18  2  0
 17 19  1  0
 12 20  1  0
 20 21  2  0
 21  3  1  0
 20  6  1  0
  1 22  1  0
  1 23  1  0
  1 24  1  0
  2 25  1  0
  2 26  1  0
  4 27  1  0
  5 28  1  0
  7 29  1  0
 10 30  1  0
 16 31  1  0
 16 32  1  0
 21 33  1  0
M  CHG  3   2   1  10  -1  19  -1
M  END
>  <UniqueID>  (62) 
62

>  <SMILES>  (62) 
C[NH2+]c1ccc2cc(C([NH-])=O)n(C(=O)OCC(=O)[O-])c2c1

>  <Energy>  (62) 
68.59524654518007

>  <Genealogy>  (62) 
C[NH2+]c1ccc2cc(C([NH-])=O)n(C(=O)OCC(=O)[O-])c2c1 (protonated)
C[NH2+]c1ccc2cc(C([NH-])=O)n(C(=O)OCC(=O)[O-])c2c1 (3D coordinates assigned)
C[NH2+]c1ccc2cc(C([NH-])=O)n(C(=O)OCC(=O)[O-])c2c1 (optimized conformer: 68.59524654518007 kcal/mol)

>  <smiles>  (62) 
CNc1ccc2cc(C(N)=O)n(C(=O)OCC(=O)O)c2c1

>  <score_type>  (62) 
oracle

>  <origin>  (62) 
adg

>  <m_score__min__energy>  (62) 
-11.07

>  <m_primary>  (62) 
energy

$$$$
62:0
     RDKit          3D

 34 35  0  0  0  0  0  0  0  0999 V2000
   -3.0590   20.7770  -27.5190 C   0  0  0  0  0  0  0  0  0  0  0  0
   -3.3130   21.8470  -28.4890 N   0  0  0  0  0  0  0  0  0  0  0  0
   -3.4570   23.2300  -28.0220 C   0  0  0  0  0  0  0  0  0  0  0  0
   -3.3130   21.5240  -29.8980 C   0  0  0  0  0  0  0  0  0  0  0  0
   -2.8250   20.4250  -30.2790 O   0  0  0  0  0  0  0  0  0  0  0  0
   -3.8680   22.4350  -30.9250 C   0  0  0  0  0  0  0  0  0  0  0  0
   -3.1080   23.0050  -31.7500 O   0  0  0  0  0  0  0  0  0  0  0  0
   -5.2790   22.7030  -30.9650 N   0  0  0  0  0  0  0  0  0  0  0  0
   -5.9090   23.8910  -30.7450 C   0  0  0  0  0  0  0  0  0  0  0  0
   -5.2590   25.1430  -30.3030 C   0  0  0  0  0  0  0  0  0  0  0  0
   -3.8590   25.3240  -30.5000 N   0  0  0  0  0  0  0  0  0  0  0  0
   -5.9310   26.0660  -29.7730 O   0  0  0  0  0  0  0  0  0  0  0  0
   -7.2820   23.7580  -30.9410 C   0  0  0  0  0  0  0  0  0  0  0  0
   -7.4750   22.4410  -31.2920 C   0  0  0  0  0  0  0  0  0  0  0  0
   -8.6430   21.7650  -31.6290 C   0  0  0  0  0  0  0  0  0  0  0  0
   -8.5400   20.4100  -31.9880 C   0  0  0  0  0  0  0  0  0  0  0  0
   -7.2820   19.7540  -31.9960 C   0  0  0  0  0  0  0  0  0  0  0  0
   -7.1770   18.3190  -32.4430 C   0  0  0  0  0  0  0  0  0  0  0  0
   -6.8170   18.2820  -33.7770 F   0  0  0  0  0  0  0  0  0  0  0  0
   -6.2230   17.6440  -31.7000 F   0  0  0  0  0  0  0  0  0  0  0  0
   -8.3880   17.6680  -32.2840 F   0  0  0  0  0  0  0  0  0  0  0  0
   -6.1150   20.4850  -31.6730 C   0  0  0  0  0  0  0  0  0  0  0  0
   -6.2500   21.8270  -31.3010 C   0  0  0  0  0  0  0  0  0  0  0  0
   -3.1539   21.1769  -26.4987 H   0  0  0  0  0  0  0  0  0  0  0  0
   -3.7901   19.9683  -27.6653 H   0  0  0  0  0  0  0  0  0  0  0  0
   -2.0424   20.3832  -27.6653 H   0  0  0  0  0  0  0  0  0  0  0  0
   -3.4588   23.2473  -26.9221 H   0  0  0  0  0  0  0  0  0  0  0  0
   -2.6168   23.8329  -28.3968 H   0  0  0  0  0  0  0  0  0  0  0  0
   -4.4034   23.6469  -28.3968 H   0  0  0  0  0  0  0  0  0  0  0  0
   -3.5000   25.9890  -31.2210 H   0  0  0  0  0  0  0  0  0  0  0  0
   -8.0490   24.5396  -30.8373 H   0  0  0  0  0  0  0  0  0  0  0  0
   -9.6174   22.2752  -31.6150 H   0  0  0  0  0  0  0  0  0  0  0  0
   -9.4458   19.8513  -32.2662 H   0  0  0  0  0  0  0  0  0  0  0  0
   -5.1240   20.0093  -31.7133 H   0  0  0  0  0  0  0  0  0  0  0  0
  1  2  1  0
  2  3  1  0
  2  4  1  0
  4  5  2  0
  4  6  1  0
  6  7  2  0
  6  8  1  0
  8  9  1  0
  9 10  1  0
 10 11  1  0
 10 12  2  0
  9 13  2  0
 13 14  1  0
 14 15  2  0
 15 16  1  0
 16 17  2  0
 17 18  1  0
 18 19  1  0
 18 20  1  0
 18 21  1  0
 17 22  1  0
 22 23  2  0
 23  8  1  0
 23 14  1  0
  1 24  1  0
  1 25  1  0
  1 26  1  0
  3 27  1  0
  3 28  1  0
  3 29  1  0
 11 30  1  0
 13 31  1  0
 15 32  1  0
 16 33  1  0
 22 34  1  0
M  CHG  1  11  -1
M  END
>  <UniqueID>  (63) 
63

>  <SMILES>  (63) 
CN(C)C(=O)C(=O)n1c(C([NH-])=O)cc2ccc(C(F)(F)F)cc21

>  <Energy>  (63) 
74.05106435119102

>  <Genealogy>  (63) 
CN(C)C(=O)C(=O)n1c(C([NH-])=O)cc2ccc(C(F)(F)F)cc21 (protonated)
CN(C)C(=O)C(=O)n1c(C([NH-])=O)cc2ccc(C(F)(F)F)cc21 (3D coordinates assigned)
CN(C)C(=O)C(=O)n1c(C([NH-])=O)cc2ccc(C(F)(F)F)cc21 (optimized conformer: 74.05106435119102 kcal/mol)

>  <smiles>  (63) 
CN(C)C(=O)C(=O)n1c(C(N)=O)cc2ccc(C(F)(F)F)cc21

>  <score_type>  (63) 
oracle

>  <origin>  (63) 
adg

>  <m_score__min__energy>  (63) 
-9.7200000000000006

>  <m_primary>  (63) 
energy

$$$$
63:0
     RDKit          3D

 36 37  0  0  0  0  0  0  0  0999 V2000
   -3.8960   23.7740  -27.6040 C   0  0  0  0  0  0  0  0  0  0  0  0
   -3.6990   22.5670  -28.5360 C   0  0  0  0  0  0  0  0  0  0  0  0
   -3.1970   22.8920  -29.8970 N   0  0  1  0  0  0  0  0  0  0  0  0
   -1.8010   22.4810  -30.1250 C   0  0  0  0  0  0  0  0  0  0  0  0
   -4.0490   22.3720  -30.9470 C   0  0  0  0  0  0  0  0  0  0  0  0
   -3.5640   21.6810  -31.8830 O   0  0  0  0  0  0  0  0  0  0  0  0
   -5.4460   22.7090  -30.9780 N   0  0  0  0  0  0  0  0  0  0  0  0
   -6.0090   23.9370  -30.7960 C   0  0  0  0  0  0  0  0  0  0  0  0
   -5.2940   25.1760  -30.4200 C   0  0  0  0  0  0  0  0  0  0  0  0
   -3.8860   25.3020  -30.6040 N   0  0  0  0  0  0  0  0  0  0  0  0
   -5.9330   26.1310  -29.9020 O   0  0  0  0  0  0  0  0  0  0  0  0
   -7.3910   23.8690  -30.9680 C   0  0  0  0  0  0  0  0  0  0  0  0
   -7.6580   22.5530  -31.2660 C   0  0  0  0  0  0  0  0  0  0  0  0
   -8.8680   21.9240  -31.5370 C   0  0  0  0  0  0  0  0  0  0  0  0
   -8.8460   20.5510  -31.8370 C   0  0  0  0  0  0  0  0  0  0  0  0
   -7.6190   19.8400  -31.8860 C   0  0  0  0  0  0  0  0  0  0  0  0
   -7.6110   18.3600  -32.1720 C   0  0  0  0  0  0  0  0  0  0  0  0
   -7.2290   18.1160  -33.4800 F   0  0  0  0  0  0  0  0  0  0  0  0
   -8.8700   17.8180  -31.9820 F   0  0  0  0  0  0  0  0  0  0  0  0
   -6.7190   17.7380  -31.3190 F   0  0  0  0  0  0  0  0  0  0  0  0
   -6.4120   20.5110  -31.5830 C   0  0  0  0  0  0  0  0  0  0  0  0
   -6.4680   21.8740  -31.2690 C   0  0  0  0  0  0  0  0  0  0  0  0
   -3.8417   23.4414  -26.5569 H   0  0  0  0  0  0  0  0  0  0  0  0
   -3.1072   24.5167  -27.7942 H   0  0  0  0  0  0  0  0  0  0  0  0
   -4.8800   24.2274  -27.7942 H   0  0  0  0  0  0  0  0  0  0  0  0
   -2.9780   21.8851  -28.0615 H   0  0  0  0  0  0  0  0  0  0  0  0
   -4.6963   22.1247  -28.6767 H   0  0  0  0  0  0  0  0  0  0  0  0
   -3.2080   23.9360  -29.9720 H   0  0  0  0  0  0  0  0  0  0  0  0
   -1.2995   22.3334  -29.1572 H   0  0  0  0  0  0  0  0  0  0  0  0
   -1.7842   21.5398  -30.6941 H   0  0  0  0  0  0  0  0  0  0  0  0
   -1.2768   23.2629  -30.6941 H   0  0  0  0  0  0  0  0  0  0  0  0
   -3.4890   26.0380  -31.2290 H   0  0  0  0  0  0  0  0  0  0  0  0
   -8.1145   24.6932  -30.8833 H   0  0  0  0  0  0  0  0  0  0  0  0
   -9.8144   22.4843  -31.5172 H   0  0  0  0  0  0  0  0  0  0  0  0
   -9.7898   20.0222  -32.0359 H   0  0  0  0  0  0  0  0  0  0  0  0
   -5.4517   19.9747  -31.5937 H   0  0  0  0  0  0  0  0  0  0  0  0
  1  2  1  0
  2  3  1  0
  3  4  1  0
  3  5  1  0
  5  6  2  0
  5  7  1  0
  7  8  1  0
  8  9  1  0
  9 10  1  0
  9 11  2  0
  8 12  2  0
 12 13  1  0
 13 14  2  0
 14 15  1  0
 15 16  2  0
 16 17  1  0
 17 18  1  0
 17 19  1  0
 17 20  1  0
 16 21  1  0
 21 22  2  0
 22  7  1  0
 22 13  1  0
  1 23  1  0
  1 24  1  0
  1 25  1  0
  2 26  1  0
  2 27  1  0
  3 28  1  1
  4 29  1  0
  4 30  1  0
  4 31  1  0
 10 32  1  0
 12 33  1  0
 14 34  1  0
 15 35  1  0
 21 36  1  0
M  CHG  2   3   1  10  -1
M  END
>  <UniqueID>  (64) 
64

>  <SMILES>  (64) 
CC[N@@H+](C)C(=O)n1c(C([NH-])=O)cc2ccc(C(F)(F)F)cc21

>  <Energy>  (64) 
80.31285944666116

>  <Genealogy>  (64) 
CC[NH+](C)C(=O)n1c(C([NH-])=O)cc2ccc(C(F)(F)F)cc21 (protonated)
CC[N@@H+](C)C(=O)n1c(C([NH-])=O)cc2ccc(C(F)(F)F)cc21 (chirality)
CC[N@@H+](C)C(=O)n1c(C([NH-])=O)cc2ccc(C(F)(F)F)cc21 (3D coordinates assigned)
CC[N@@H+](C)C(=O)n1c(C([NH-])=O)cc2ccc(C(F)(F)F)cc21 (optimized conformer: 80.31285944666116 kcal/mol)

>  <smiles>  (64) 
CCN(C)C(=O)n1c(C(N)=O)cc2ccc(C(F)(F)F)cc21

>  <score_type>  (64) 
oracle

>  <origin>  (64) 
adg

>  <m_score__min__energy>  (64) 
-8.5899999999999999

>  <m_primary>  (64) 
energy

$$$$
64:0
     RDKit          3D

 41 42  0  0  0  0  0  0  0  0999 V2000
   -3.0940   18.7820  -33.0910 C   0  0  0  0  0  0  0  0  0  0  0  0
   -3.9590   19.7040  -33.8280 N   0  0  0  0  0  0  0  0  0  0  0  0
   -5.2650   19.0830  -34.0850 C   0  0  0  0  0  0  0  0  0  0  0  0
   -5.6050   18.0500  -32.9940 C   0  0  0  0  0  0  0  0  0  0  0  0
   -6.9000   18.3660  -32.2270 C   0  0  0  0  0  0  0  0  0  0  0  0
   -7.0440   19.8330  -31.9180 C   0  0  0  0  0  0  0  0  0  0  0  0
   -8.3320   20.4220  -31.8330 C   0  0  0  0  0  0  0  0  0  0  0  0
   -8.4770   21.7790  -31.5000 C   0  0  0  0  0  0  0  0  0  0  0  0
   -7.3230   22.5200  -31.2640 C   0  0  0  0  0  0  0  0  0  0  0  0
   -7.1770   23.8370  -30.8890 C   0  0  0  0  0  0  0  0  0  0  0  0
   -5.8030   24.0380  -30.7710 C   0  0  0  0  0  0  0  0  0  0  0  0
   -5.1940   25.3460  -30.4520 C   0  0  0  0  0  0  0  0  0  0  0  0
   -3.8930   25.6610  -30.9440 N   0  0  0  0  0  0  0  0  0  0  0  0
   -5.7960   26.1770  -29.7230 O   0  0  0  0  0  0  0  0  0  0  0  0
   -5.1260   22.8890  -31.0580 N   0  0  0  0  0  0  0  0  0  0  0  0
   -3.7110   22.6590  -30.9870 C   0  0  0  0  0  0  0  0  0  0  0  0
   -3.1450   21.9360  -31.8510 O   0  0  0  0  0  0  0  0  0  0  0  0
   -2.9410   23.2690  -29.9440 N   0  0  0  0  0  0  0  0  0  0  0  0
   -1.4870   23.2050  -29.8750 C   0  0  0  0  0  0  0  0  0  0  0  0
   -0.9510   24.4240  -29.1960 C   0  0  0  0  0  0  0  0  0  0  0  0
    0.1100   24.3600  -28.5210 O   0  0  0  0  0  0  0  0  0  0  0  0
   -1.6080   25.6410  -29.3330 O   0  0  0  0  0  0  0  0  0  0  0  0
   -6.0710   21.9710  -31.3590 C   0  0  0  0  0  0  0  0  0  0  0  0
   -5.8960   20.6180  -31.6730 C   0  0  0  0  0  0  0  0  0  0  0  0
   -3.2346   18.9319  -32.0104 H   0  0  0  0  0  0  0  0  0  0  0  0
   -3.3536   17.7460  -33.3543 H   0  0  0  0  0  0  0  0  0  0  0  0
   -2.0436   18.9750  -33.3543 H   0  0  0  0  0  0  0  0  0  0  0  0
   -4.0980   20.5430  -33.2210 H   0  0  0  0  0  0  0  0  0  0  0  0
   -6.0396   19.8640  -34.0958 H   0  0  0  0  0  0  0  0  0  0  0  0
   -5.2253   18.5688  -35.0566 H   0  0  0  0  0  0  0  0  0  0  0  0
   -5.7150   17.0647  -33.4706 H   0  0  0  0  0  0  0  0  0  0  0  0
   -4.7839   18.0724  -32.2624 H   0  0  0  0  0  0  0  0  0  0  0  0
   -7.7581   18.0482  -32.8375 H   0  0  0  0  0  0  0  0  0  0  0  0
   -6.8621   17.8250  -31.2700 H   0  0  0  0  0  0  0  0  0  0  0  0
   -9.2250   19.8106  -32.0296 H   0  0  0  0  0  0  0  0  0  0  0  0
   -9.4723   22.2417  -31.4280 H   0  0  0  0  0  0  0  0  0  0  0  0
   -7.9756   24.5741  -30.7187 H   0  0  0  0  0  0  0  0  0  0  0  0
   -3.0370   25.2980  -30.4680 H   0  0  0  0  0  0  0  0  0  0  0  0
   -1.1887   22.3114  -29.3072 H   0  0  0  0  0  0  0  0  0  0  0  0
   -1.0800   23.1530  -30.8956 H   0  0  0  0  0  0  0  0  0  0  0  0
   -4.8896   20.1774  -31.7275 H   0  0  0  0  0  0  0  0  0  0  0  0
  1  2  1  0
  2  3  1  0
  3  4  1  0
  4  5  1  0
  5  6  1  0
  6  7  2  0
  7  8  1  0
  8  9  2  0
  9 10  1  0
 10 11  2  0
 11 12  1  0
 12 13  1  0
 12 14  2  0
 11 15  1  0
 15 16  1  0
 16 17  2  0
 16 18  1  0
 18 19  1  0
 19 20  1  0
 20 21  2  0
 20 22  1  0
 15 23  1  0
 23 24  2  0
 24  6  1  0
 23  9  1  0
  1 25  1  0
  1 26  1  0
  1 27  1  0
  2 28  1  0
  3 29  1  0
  3 30  1  0
  4 31  1  0
  4 32  1  0
  5 33  1  0
  5 34  1  0
  7 35  1  0
  8 36  1  0
 10 37  1  0
 13 38  1  0
 19 39  1  0
 19 40  1  0
 24 41  1  0
M  CHG  3  13  -1  18  -1  22  -1
M  END
>  <UniqueID>  (65) 
65

>  <SMILES>  (65) 
CNCCCc1ccc2cc(C([NH-])=O)n(C(=O)[N-]CC(=O)[O-])c2c1

>  <Energy>  (65) 
72.18533519821622

>  <Genealogy>  (65) 
CNCCCc1ccc2cc(C([NH-])=O)n(C(=O)[N-]CC(=O)[O-])c2c1 (protonated)
CNCCCc1ccc2cc(C([NH-])=O)n(C(=O)[N-]CC(=O)[O-])c2c1 (3D coordinates assigned)
CNCCCc1ccc2cc(C([NH-])=O)n(C(=O)[N-]CC(=O)[O-])c2c1 (optimized conformer: 72.18533519821622 kcal/mol)

>  <smiles>  (65) 
CNCCCc1ccc2cc(C(N)=O)n(C(=O)NCC(=O)O)c2c1

>  <score_type>  (65) 
oracle

>  <origin>  (65) 
adg

>  <m_score__min__energy>  (65) 
-12.890000000000001

>  <m_primary>  (65) 
energy

$$$$
65:0
     RDKit          3D

 24 25  0  0  0  0  0  0  0  0999 V2000
   -1.6530   25.6880  -28.9580 N   0  0  0  0  0  0  0  0  0  0  0  0
   -1.0840   24.4090  -29.2260 C   0  0  0  0  0  0  0  0  0  0  0  0
    0.0170   24.1010  -28.6960 O   0  0  0  0  0  0  0  0  0  0  0  0
   -1.7940   23.4210  -30.0640 C   0  0  0  0  0  0  0  0  0  0  0  0
   -1.2050   22.2450  -30.5250 C   0  0  0  0  0  0  0  0  0  0  0  0
   -2.2060   21.5680  -31.1820 C   0  0  0  0  0  0  0  0  0  0  0  0
   -2.1730   20.3440  -31.8440 C   0  0  0  0  0  0  0  0  0  0  0  0
   -3.3520   19.8990  -32.4640 C   0  0  0  0  0  0  0  0  0  0  0  0
   -4.5330   20.6800  -32.4160 C   0  0  0  0  0  0  0  0  0  0  0  0
   -5.7780   20.1930  -33.1020 C   0  0  0  0  0  0  0  0  0  0  0  0
   -5.4350   19.4370  -34.2070 F   0  0  0  0  0  0  0  0  0  0  0  0
   -6.5170   19.4160  -32.2280 F   0  0  0  0  0  0  0  0  0  0  0  0
   -4.5280   21.9200  -31.7360 C   0  0  0  0  0  0  0  0  0  0  0  0
   -3.3440   22.3300  -31.1110 C   0  0  0  0  0  0  0  0  0  0  0  0
   -3.1070   23.4740  -30.4310 N   0  0  0  0  0  0  0  0  0  0  0  0
   -4.0370   24.5500  -30.2290 C   0  0  0  0  0  0  0  0  0  0  0  0
   -3.8810   25.6470  -30.8280 O   0  0  0  0  0  0  0  0  0  0  0  0
   -5.1300   24.3840  -29.3890 O   0  0  0  0  0  0  0  0  0  0  0  0
   -2.6860   25.8350  -28.9940 H   0  0  0  0  0  0  0  0  0  0  0  0
   -0.1608   21.9258  -30.3917 H   0  0  0  0  0  0  0  0  0  0  0  0
   -1.2519   19.7438  -31.8804 H   0  0  0  0  0  0  0  0  0  0  0  0
   -3.3585   18.9342  -32.9923 H   0  0  0  0  0  0  0  0  0  0  0  0
   -6.3768   21.0589  -33.4208 H   0  0  0  0  0  0  0  0  0  0  0  0
   -5.4314   22.5465  -31.6990 H   0  0  0  0  0  0  0  0  0  0  0  0
  1  2  1  0
  2  3  2  0
  2  4  1  0
  4  5  2  0
  5  6  1  0
  6  7  2  0
  7  8  1  0
  8  9  2  0
  9 10  1  0
 10 11  1  0
 10 12  1  0
  9 13  1  0
 13 14  2  0
 14 15  1  0
 15 16  1  0
 16 17  2  0
 16 18  1  0
 15  4  1  0
 14  6  1  0
  1 19  1  0
  5 20  1  0
  7 21  1  0
  8 22  1  0
 10 23  1  0
 13 24  1  0
M  CHG  2   1  -1  18  -1
M  END
>  <UniqueID>  (66) 
66

>  <SMILES>  (66) 
[NH-]C(=O)c1cc2ccc(C(F)F)cc2n1C(=O)[O-]

>  <Energy>  (66) 
64.21220935448287

>  <Genealogy>  (66) 
[NH-]C(=O)c1cc2ccc(C(F)F)cc2n1C(=O)[O-] (protonated)
[NH-]C(=O)c1cc2ccc(C(F)F)cc2n1C(=O)[O-] (3D coordinates assigned)
[NH-]C(=O)c1cc2ccc(C(F)F)cc2n1C(=O)[O-] (optimized conformer: 64.21220935448287 kcal/mol)

>  <smiles>  (66) 
NC(=O)c1cc2ccc(C(F)F)cc2n1C(=O)O

>  <score_type>  (66) 
oracle

>  <origin>  (66) 
adg

>  <m_score__min__energy>  (66) 
-9.3900000000000006

>  <m_primary>  (66) 
energy

$$$$
66:0
     RDKit          3D

 36 37  0  0  0  0  0  0  0  0999 V2000
   -5.9350   24.9240  -29.2800 N   0  0  0  0  0  0  0  0  0  0  0  0
   -6.0640   24.5250  -30.6460 C   0  0  0  0  0  0  0  0  0  0  0  0
   -5.7170   25.3240  -31.5560 O   0  0  0  0  0  0  0  0  0  0  0  0
   -6.5430   23.1770  -31.0110 C   0  0  0  0  0  0  0  0  0  0  0  0
   -7.8490   22.7430  -30.8030 C   0  0  0  0  0  0  0  0  0  0  0  0
   -7.8870   21.4570  -31.2930 C   0  0  0  0  0  0  0  0  0  0  0  0
   -8.9340   20.5410  -31.3150 C   0  0  0  0  0  0  0  0  0  0  0  0
   -8.6780   19.2600  -31.8330 C   0  0  0  0  0  0  0  0  0  0  0  0
   -7.3870   18.9180  -32.3050 C   0  0  0  0  0  0  0  0  0  0  0  0
   -7.1100   17.5410  -32.8360 C   0  0  0  0  0  0  0  0  0  0  0  0
   -6.4930   17.6320  -34.0700 F   0  0  0  0  0  0  0  0  0  0  0  0
   -6.2820   16.8630  -31.9610 F   0  0  0  0  0  0  0  0  0  0  0  0
   -6.3470   19.8730  -32.2580 C   0  0  0  0  0  0  0  0  0  0  0  0
   -6.6360   21.1490  -31.7620 C   0  0  0  0  0  0  0  0  0  0  0  0
   -5.7990   22.1990  -31.6000 N   0  0  0  0  0  0  0  0  0  0  0  0
   -4.3830   22.2250  -31.8500 C   0  0  0  0  0  0  0  0  0  0  0  0
   -3.9670   22.3600  -33.0320 O   0  0  0  0  0  0  0  0  0  0  0  0
   -3.4000   21.9780  -30.7370 C   0  0  0  0  0  0  0  0  0  0  0  0
   -3.8050   22.6710  -29.4200 C   0  0  0  0  0  0  0  0  0  0  0  0
   -2.6740   23.4920  -28.7780 C   0  0  0  0  0  0  0  0  0  0  0  0
   -2.5910   24.8740  -29.3500 C   0  0  0  0  0  0  0  0  0  0  0  0
   -1.6790   25.6600  -28.9780 O   0  0  0  0  0  0  0  0  0  0  0  0
   -3.5030   25.2850  -30.3140 O   0  0  0  0  0  0  0  0  0  0  0  0
   -5.6470   25.9000  -29.0460 H   0  0  0  0  0  0  0  0  0  0  0  0
   -6.0260   24.2340  -28.5030 H   0  0  0  0  0  0  0  0  0  0  0  0
   -8.6747   23.3072  -30.3448 H   0  0  0  0  0  0  0  0  0  0  0  0
   -9.9316   20.8112  -30.9385 H   0  0  0  0  0  0  0  0  0  0  0  0
   -9.4874   18.5162  -31.8723 H   0  0  0  0  0  0  0  0  0  0  0  0
   -8.0606   16.9973  -32.9399 H   0  0  0  0  0  0  0  0  0  0  0  0
   -5.3338   19.6194  -32.6032 H   0  0  0  0  0  0  0  0  0  0  0  0
   -3.3351   20.8945  -30.5589 H   0  0  0  0  0  0  0  0  0  0  0  0
   -2.4324   22.3978  -31.0493 H   0  0  0  0  0  0  0  0  0  0  0  0
   -4.6484   23.3458  -29.6281 H   0  0  0  0  0  0  0  0  0  0  0  0
   -4.0685   21.8758  -28.7071 H   0  0  0  0  0  0  0  0  0  0  0  0
   -2.8584   23.5657  -27.6961 H   0  0  0  0  0  0  0  0  0  0  0  0
   -1.7225   22.9804  -28.9849 H   0  0  0  0  0  0  0  0  0  0  0  0
  1  2  1  0
  2  3  2  0
  2  4  1  0
  4  5  2  0
  5  6  1  0
  6  7  2  0
  7  8  1  0
  8  9  2  0
  9 10  1  0
 10 11  1  0
 10 12  1  0
  9 13  1  0
 13 14  2  0
 14 15  1  0
 15 16  1  0
 16 17  2  0
 16 18  1  0
 18 19  1  0
 19 20  1  0
 20 21  1  0
 21 22  2  0
 21 23  1  0
 15  4  1  0
 14  6  1  0
  1 24  1  0
  1 25  1  0
  5 26  1  0
  7 27  1  0
  8 28  1  0
 10 29  1  0
 13 30  1  0
 18 31  1  0
 18 32  1  0
 19 33  1  0
 19 34  1  0
 20 35  1  0
 20 36  1  0
M  CHG  1  23  -1
M  END
>  <UniqueID>  (67) 
67

>  <SMILES>  (67) 
NC(=O)c1cc2ccc(C(F)F)cc2n1C(=O)CCCC(=O)[O-]

>  <Energy>  (67) 
73.0367606708774

>  <Genealogy>  (67) 
NC(=O)c1cc2ccc(C(F)F)cc2n1C(=O)CCCC(=O)[O-] (protonated)
NC(=O)c1cc2ccc(C(F)F)cc2n1C(=O)CCCC(=O)[O-] (3D coordinates assigned)
NC(=O)c1cc2ccc(C(F)F)cc2n1C(=O)CCCC(=O)[O-] (optimized conformer: 73.0367606708774 kcal/mol)

>  <smiles>  (67) 
NC(=O)c1cc2ccc(C(F)F)cc2n1C(=O)CCCC(=O)O

>  <score_type>  (67) 
oracle

>  <origin>  (67) 
adg

>  <m_score__min__energy>  (67) 
-11.029999999999999

>  <m_primary>  (67) 
energy

$$$$
67:0
     RDKit          3D

 42 43  0  0  0  0  0  0  0  0999 V2000
   -3.2420   25.2960  -26.3040 C   0  0  0  0  0  0  0  0  0  0  0  0
   -2.5390   24.5480  -27.7590 S   0  0  0  0  0  0  0  0  0  0  0  0
   -1.9230   25.6160  -28.6210 O   0  0  0  0  0  0  0  0  0  0  0  0
   -3.6360   23.8700  -28.5300 O   0  0  0  0  0  0  0  0  0  0  0  0
   -1.3060   23.3270  -27.3200 C   0  0  0  0  0  0  0  0  0  0  0  0
   -1.6840   21.9210  -27.7930 C   0  0  0  0  0  0  0  0  0  0  0  0
   -1.1240   21.6340  -29.0740 O   0  0  0  0  0  0  0  0  0  0  0  0
   -1.7440   21.9740  -30.2810 C   0  0  0  0  0  0  0  0  0  0  0  0
   -1.0530   22.2180  -31.3080 O   0  0  0  0  0  0  0  0  0  0  0  0
   -3.1740   22.0570  -30.3250 N   0  0  0  0  0  0  0  0  0  0  0  0
   -3.9220   22.4880  -31.4730 C   0  0  0  0  0  0  0  0  0  0  0  0
   -3.3640   22.5880  -32.5990 O   0  0  0  0  0  0  0  0  0  0  0  0
   -5.3110   22.8230  -31.3370 N   0  0  0  0  0  0  0  0  0  0  0  0
   -5.8500   23.9900  -30.8820 C   0  0  0  0  0  0  0  0  0  0  0  0
   -5.0980   25.2190  -30.5490 C   0  0  0  0  0  0  0  0  0  0  0  0
   -3.7030   25.2970  -30.8340 N   0  0  0  0  0  0  0  0  0  0  0  0
   -5.6690   26.1920  -29.9890 O   0  0  0  0  0  0  0  0  0  0  0  0
   -7.2400   23.8980  -30.8320 C   0  0  0  0  0  0  0  0  0  0  0  0
   -7.5390   22.6300  -31.2750 C   0  0  0  0  0  0  0  0  0  0  0  0
   -8.7690   21.9930  -31.4080 C   0  0  0  0  0  0  0  0  0  0  0  0
   -8.7770   20.6610  -31.8580 C   0  0  0  0  0  0  0  0  0  0  0  0
   -7.5640   19.9960  -32.1640 C   0  0  0  0  0  0  0  0  0  0  0  0
   -7.5770   18.5640  -32.6180 C   0  0  0  0  0  0  0  0  0  0  0  0
   -6.4860   18.3280  -33.5700 C   0  0  0  0  0  0  0  0  0  0  0  0
   -5.6260   18.1420  -34.3210 N   0  0  0  0  0  0  0  0  0  0  0  0
   -6.3340   20.6700  -32.0010 C   0  0  0  0  0  0  0  0  0  0  0  0
   -6.3570   22.0020  -31.5710 C   0  0  0  0  0  0  0  0  0  0  0  0
   -2.8064   24.8325  -25.4065 H   0  0  0  0  0  0  0  0  0  0  0  0
   -3.0225   26.3739  -26.3033 H   0  0  0  0  0  0  0  0  0  0  0  0
   -4.3314   25.1437  -26.3033 H   0  0  0  0  0  0  0  0  0  0  0  0
   -0.3485   23.6097  -27.7818 H   0  0  0  0  0  0  0  0  0  0  0  0
   -1.2324   23.3036  -26.2227 H   0  0  0  0  0  0  0  0  0  0  0  0
   -1.3089   21.1859  -27.0657 H   0  0  0  0  0  0  0  0  0  0  0  0
   -2.7796   21.8661  -27.8742 H   0  0  0  0  0  0  0  0  0  0  0  0
   -3.6990   21.8360  -29.4490 H   0  0  0  0  0  0  0  0  0  0  0  0
   -2.9980   25.3020  -30.0640 H   0  0  0  0  0  0  0  0  0  0  0  0
   -7.9480   24.6747  -30.5072 H   0  0  0  0  0  0  0  0  0  0  0  0
   -9.7067   22.5158  -31.1683 H   0  0  0  0  0  0  0  0  0  0  0  0
   -9.7336   20.1304  -31.9735 H   0  0  0  0  0  0  0  0  0  0  0  0
   -7.4489   17.9048  -31.7468 H   0  0  0  0  0  0  0  0  0  0  0  0
   -8.5373   18.3506  -33.1102 H   0  0  0  0  0  0  0  0  0  0  0  0
   -5.3809   20.1608  -32.2069 H   0  0  0  0  0  0  0  0  0  0  0  0
  1  2  1  0
  2  3  2  0
  2  4  2  0
  2  5  1  0
  5  6  1  0
  6  7  1  0
  7  8  1  0
  8  9  2  0
  8 10  1  0
 10 11  1  0
 11 12  2  0
 11 13  1  0
 13 14  1  0
 14 15  1  0
 15 16  1  0
 15 17  2  0
 14 18  2  0
 18 19  1  0
 19 20  2  0
 20 21  1  0
 21 22  2  0
 22 23  1  0
 23 24  1  0
 24 25  3  0
 22 26  1  0
 26 27  2  0
 27 13  1  0
 27 19  1  0
  1 28  1  0
  1 29  1  0
  1 30  1  0
  5 31  1  0
  5 32  1  0
  6 33  1  0
  6 34  1  0
 10 35  1  0
 16 36  1  0
 18 37  1  0
 20 38  1  0
 21 39  1  0
 23 40  1  0
 23 41  1  0
 26 42  1  0
M  CHG  1  16  -1
M  END
>  <UniqueID>  (68) 
68

>  <SMILES>  (68) 
CS(=O)(=O)CCOC(=O)NC(=O)n1c(C([NH-])=O)cc2ccc(CC#N)cc21

>  <Energy>  (68) 
66.85318112388583

>  <Genealogy>  (68) 
CS(=O)(=O)CCOC(=O)NC(=O)n1c(C([NH-])=O)cc2ccc(CC#N)cc21 (protonated)
CS(=O)(=O)CCOC(=O)NC(=O)n1c(C([NH-])=O)cc2ccc(CC#N)cc21 (3D coordinates assigned)
CS(=O)(=O)CCOC(=O)NC(=O)n1c(C([NH-])=O)cc2ccc(CC#N)cc21 (optimized conformer: 66.85318112388583 kcal/mol)

>  <smiles>  (68) 
CS(=O)(=O)CCOC(=O)NC(=O)n1c(C(N)=O)cc2ccc(CC#N)cc21

>  <score_type>  (68) 
oracle

>  <origin>  (68) 
adg

>  <m_score__min__energy>  (68) 
-11.27

>  <m_primary>  (68) 
energy

$$$$
68:0
     RDKit          3D

 57 58  0  0  0  0  0  0  0  0999 V2000
   -3.2870   21.5360  -33.4740 C   0  0  0  0  0  0  0  0  0  0  0  0
   -3.0060   20.3960  -32.5020 C   0  0  0  0  0  0  0  0  0  0  0  0
   -3.9130   20.4430  -31.4030 O   0  0  0  0  0  0  0  0  0  0  0  0
   -4.2630   21.6230  -30.7380 C   0  0  0  0  0  0  0  0  0  0  0  0
   -3.4440   22.1830  -29.9610 O   0  0  0  0  0  0  0  0  0  0  0  0
   -5.5660   22.1970  -30.9430 N   0  0  0  0  0  0  0  0  0  0  0  0
   -5.9460   23.4890  -30.7350 C   0  0  0  0  0  0  0  0  0  0  0  0
   -5.1130   24.5490  -30.1340 C   0  0  0  0  0  0  0  0  0  0  0  0
   -5.2700   24.9250  -28.7660 N   0  0  0  0  0  0  0  0  0  0  0  0
   -4.2890   25.1720  -30.8570 O   0  0  0  0  0  0  0  0  0  0  0  0
   -7.2770   23.6750  -31.0990 C   0  0  0  0  0  0  0  0  0  0  0  0
   -7.7130   22.4400  -31.5220 C   0  0  0  0  0  0  0  0  0  0  0  0
   -8.9690   22.0400  -31.9680 C   0  0  0  0  0  0  0  0  0  0  0  0
   -9.1410   20.6930  -32.3330 C   0  0  0  0  0  0  0  0  0  0  0  0
   -8.0530   19.7870  -32.2750 C   0  0  0  0  0  0  0  0  0  0  0  0
   -8.2620   18.3300  -32.5960 C   0  0  0  0  0  0  0  0  0  0  0  0
   -7.2080   17.4680  -31.9000 C   0  0  0  0  0  0  0  0  0  0  0  0
   -5.9360   17.7860  -32.4160 O   0  0  0  0  0  0  0  0  0  0  0  0
   -5.6140   16.9240  -33.8890 Si  0  0  0  0  0  4  0  0  0  0  0  0
   -6.8860   15.5870  -34.2420 C   0  0  0  0  0  0  0  0  0  0  0  0
   -5.7400   18.1640  -35.2840 C   0  0  0  0  0  0  0  0  0  0  0  0
   -3.8540   16.1970  -33.8230 C   0  0  0  0  0  0  0  0  0  0  0  0
   -3.4600   15.6600  -35.2090 C   0  0  0  0  0  0  0  0  0  0  0  0
   -2.8580   17.2900  -33.3960 C   0  0  0  0  0  0  0  0  0  0  0  0
   -3.8180   15.0430  -32.8060 C   0  0  0  0  0  0  0  0  0  0  0  0
   -6.7900   20.2340  -31.8260 C   0  0  0  0  0  0  0  0  0  0  0  0
   -6.6590   21.5670  -31.4270 C   0  0  0  0  0  0  0  0  0  0  0  0
   -3.5129   22.4524  -32.9090 H   0  0  0  0  0  0  0  0  0  0  0  0
   -2.4034   21.7041  -34.1073 H   0  0  0  0  0  0  0  0  0  0  0  0
   -4.1475   21.2742  -34.1073 H   0  0  0  0  0  0  0  0  0  0  0  0
   -3.1219   19.4360  -33.0264 H   0  0  0  0  0  0  0  0  0  0  0  0
   -1.9792   20.4978  -32.1209 H   0  0  0  0  0  0  0  0  0  0  0  0
   -4.6400   25.6440  -28.3450 H   0  0  0  0  0  0  0  0  0  0  0  0
   -6.0580   24.5530  -28.1920 H   0  0  0  0  0  0  0  0  0  0  0  0
   -7.8562   24.6092  -31.0574 H   0  0  0  0  0  0  0  0  0  0  0  0
   -9.8018   22.7557  -32.0330 H   0  0  0  0  0  0  0  0  0  0  0  0
  -10.1280   20.3398  -32.6662 H   0  0  0  0  0  0  0  0  0  0  0  0
   -9.2619   18.0245  -32.2541 H   0  0  0  0  0  0  0  0  0  0  0  0
   -8.1720   18.1904  -33.6834 H   0  0  0  0  0  0  0  0  0  0  0  0
   -7.2264   17.6662  -30.8182 H   0  0  0  0  0  0  0  0  0  0  0  0
   -7.4239   16.4042  -32.0779 H   0  0  0  0  0  0  0  0  0  0  0  0
   -7.2685   15.1849  -33.2923 H   0  0  0  0  0  0  0  0  0  0  0  0
   -7.7178   16.0157  -34.8202 H   0  0  0  0  0  0  0  0  0  0  0  0
   -6.4164   14.7776  -34.8202 H   0  0  0  0  0  0  0  0  0  0  0  0
   -5.8429   19.1765  -34.8664 H   0  0  0  0  0  0  0  0  0  0  0  0
   -4.8321   18.1131  -35.9029 H   0  0  0  0  0  0  0  0  0  0  0  0
   -6.6191   17.9315  -35.9029 H   0  0  0  0  0  0  0  0  0  0  0  0
   -2.8131   14.7783  -35.0903 H   0  0  0  0  0  0  0  0  0  0  0  0
   -4.3667   15.3775  -35.7641 H   0  0  0  0  0  0  0  0  0  0  0  0
   -2.9184   16.4401  -35.7641 H   0  0  0  0  0  0  0  0  0  0  0  0
   -2.8145   17.3377  -32.2979 H   0  0  0  0  0  0  0  0  0  0  0  0
   -1.8600   17.0518  -33.7925 H   0  0  0  0  0  0  0  0  0  0  0  0
   -3.1877   18.2617  -33.7925 H   0  0  0  0  0  0  0  0  0  0  0  0
   -3.8308   15.4532  -31.7854 H   0  0  0  0  0  0  0  0  0  0  0  0
   -4.6964   14.3974  -32.9527 H   0  0  0  0  0  0  0  0  0  0  0  0
   -2.9010   14.4534  -32.9527 H   0  0  0  0  0  0  0  0  0  0  0  0
   -5.9301   19.5489  -31.7913 H   0  0  0  0  0  0  0  0  0  0  0  0
  1  2  1  0
  2  3  1  0
  3  4  1  0
  4  5  2  0
  4  6  1  0
  6  7  1  0
  7  8  1  0
  8  9  1  0
  8 10  2  0
  7 11  2  0
 11 12  1  0
 12 13  2  0
 13 14  1  0
 14 15  2  0
 15 16  1  0
 16 17  1  0
 17 18  1  0
 18 19  1  0
 19 20  1  0
 19 21  1  0
 19 22  1  0
 22 23  1  0
 22 24  1  0
 22 25  1  0
 15 26  1  0
 26 27  2  0
 27  6  1  0
 27 12  1  0
  1 28  1  0
  1 29  1  0
  1 30  1  0
  2 31  1  0
  2 32  1  0
  9 33  1  0
  9 34  1  0
 11 35  1  0
 13 36  1  0
 14 37  1  0
 16 38  1  0
 16 39  1  0
 17 40  1  0
 17 41  1  0
 20 42  1  0
 20 43  1  0
 20 44  1  0
 21 45  1  0
 21 46  1  0
 21 47  1  0
 23 48  1  0
 23 49  1  0
 23 50  1  0
 24 51  1  0
 24 52  1  0
 24 53  1  0
 25 54  1  0
 25 55  1  0
 25 56  1  0
 26 57  1  0
M  END
>  <UniqueID>  (69) 
69

>  <SMILES>  (69) 
CCOC(=O)n1c(C(N)=O)cc2ccc(CCO[Si](C)(C)C(C)(C)C)cc21

>  <Energy>  (69) 
67.87239058534792

>  <Genealogy>  (69) 
CCOC(=O)n1c(C(N)=O)cc2ccc(CCO[Si](C)(C)C(C)(C)C)cc21 (3D coordinates assigned)
CCOC(=O)n1c(C(N)=O)cc2ccc(CCO[Si](C)(C)C(C)(C)C)cc21 (optimized conformer: 67.87239058534792 kcal/mol)

>  <smiles>  (69) 
CCOC(=O)n1c(C(N)=O)cc2ccc(CCO[Si](C)(C)C(C)(C)C)cc21

>  <score_type>  (69) 
oracle

>  <origin>  (69) 
adg

>  <m_score__min__energy>  (69) 
-8.9199999999999999

>  <m_primary>  (69) 
energy

$$$$
69:0
     RDKit          3D

 34 35  0  0  0  0  0  0  0  0999 V2000
   -6.0690   25.3350  -28.9870 N   0  0  0  0  0  0  0  0  0  0  0  0
   -6.1150   25.1050  -30.3970 C   0  0  0  0  0  0  0  0  0  0  0  0
   -5.7870   26.0360  -31.1790 O   0  0  0  0  0  0  0  0  0  0  0  0
   -6.5250   23.7880  -30.9410 C   0  0  0  0  0  0  0  0  0  0  0  0
   -7.8440   23.4160  -31.2030 C   0  0  0  0  0  0  0  0  0  0  0  0
   -7.7770   22.1140  -31.6440 C   0  0  0  0  0  0  0  0  0  0  0  0
   -8.7900   21.2580  -32.0680 C   0  0  0  0  0  0  0  0  0  0  0  0
   -8.4250   19.9750  -32.5090 C   0  0  0  0  0  0  0  0  0  0  0  0
   -7.0650   19.5730  -32.5160 C   0  0  0  0  0  0  0  0  0  0  0  0
   -6.6820   18.2140  -33.0360 C   0  0  0  0  0  0  0  0  0  0  0  0
   -5.5810   18.3310  -34.0930 C   0  0  0  0  0  0  0  0  0  0  0  0
   -6.0990   18.8760  -35.2740 O   0  0  0  0  0  0  0  0  0  0  0  0
   -6.0640   20.4740  -32.0900 C   0  0  0  0  0  0  0  0  0  0  0  0
   -6.4600   21.7370  -31.6370 C   0  0  0  0  0  0  0  0  0  0  0  0
   -5.6820   22.7500  -31.2020 N   0  0  0  0  0  0  0  0  0  0  0  0
   -4.2490   22.7470  -31.1070 C   0  0  0  0  0  0  0  0  0  0  0  0
   -3.5560   22.4700  -32.1230 O   0  0  0  0  0  0  0  0  0  0  0  0
   -3.5670   23.1150  -29.8240 C   0  0  0  0  0  0  0  0  0  0  0  0
   -3.0720   24.5240  -29.8960 C   0  0  0  0  0  0  0  0  0  0  0  0
   -3.4890   25.2950  -30.8010 O   0  0  0  0  0  0  0  0  0  0  0  0
   -2.1130   24.9720  -28.9970 O   0  0  0  0  0  0  0  0  0  0  0  0
   -6.3940   24.6170  -28.3050 H   0  0  0  0  0  0  0  0  0  0  0  0
   -5.7440   26.2560  -28.6200 H   0  0  0  0  0  0  0  0  0  0  0  0
   -8.7467   24.0330  -31.0825 H   0  0  0  0  0  0  0  0  0  0  0  0
   -9.8429   21.5763  -32.0580 H   0  0  0  0  0  0  0  0  0  0  0  0
   -9.2015   19.2755  -32.8521 H   0  0  0  0  0  0  0  0  0  0  0  0
   -6.3174   17.5973  -32.2013 H   0  0  0  0  0  0  0  0  0  0  0  0
   -7.5663   17.7486  -33.4958 H   0  0  0  0  0  0  0  0  0  0  0  0
   -4.7805   18.9827  -33.7129 H   0  0  0  0  0  0  0  0  0  0  0  0
   -5.1808   17.3288  -34.3061 H   0  0  0  0  0  0  0  0  0  0  0  0
   -6.9280   19.3620  -35.0230 H   0  0  0  0  0  0  0  0  0  0  0  0
   -5.0015   20.1902  -32.1138 H   0  0  0  0  0  0  0  0  0  0  0  0
   -4.2804   23.0212  -28.9919 H   0  0  0  0  0  0  0  0  0  0  0  0
   -2.7141   22.4397  -29.6609 H   0  0  0  0  0  0  0  0  0  0  0  0
  1  2  1  0
  2  3  2  0
  2  4  1  0
  4  5  2  0
  5  6  1  0
  6  7  2  0
  7  8  1  0
  8  9  2  0
  9 10  1  0
 10 11  1  0
 11 12  1  0
  9 13  1  0
 13 14  2  0
 14 15  1  0
 15 16  1  0
 16 17  2  0
 16 18  1  0
 18 19  1  0
 19 20  2  0
 19 21  1  0
 15  4  1  0
 14  6  1  0
  1 22  1  0
  1 23  1  0
  5 24  1  0
  7 25  1  0
  8 26  1  0
 10 27  1  0
 10 28  1  0
 11 29  1  0
 11 30  1  0
 12 31  1  0
 13 32  1  0
 18 33  1  0
 18 34  1  0
M  CHG  1  21  -1
M  END
>  <UniqueID>  (70) 
70

>  <SMILES>  (70) 
NC(=O)c1cc2ccc(CCO)cc2n1C(=O)CC(=O)[O-]

>  <Energy>  (70) 
68.50802156072601

>  <Genealogy>  (70) 
NC(=O)c1cc2ccc(CCO)cc2n1C(=O)CC(=O)[O-] (protonated)
NC(=O)c1cc2ccc(CCO)cc2n1C(=O)CC(=O)[O-] (3D coordinates assigned)
NC(=O)c1cc2ccc(CCO)cc2n1C(=O)CC(=O)[O-] (optimized conformer: 68.50802156072601 kcal/mol)

>  <smiles>  (70) 
NC(=O)c1cc2ccc(CCO)cc2n1C(=O)CC(=O)O

>  <score_type>  (70) 
oracle

>  <origin>  (70) 
adg

>  <m_score__min__energy>  (70) 
-10.77

>  <m_primary>  (70) 
energy

$$$$
70:0
     RDKit          3D

 45 47  0  0  0  0  0  0  0  0999 V2000
   -3.8840   23.5150  -27.7500 C   0  0  0  0  0  0  0  0  0  0  0  0
   -3.4030   22.5910  -28.7200 O   0  0  0  0  0  0  0  0  0  0  0  0
   -2.8030   22.9990  -29.9140 C   0  0  0  0  0  0  0  0  0  0  0  0
   -1.7260   23.6570  -29.8980 O   0  0  0  0  0  0  0  0  0  0  0  0
   -3.4410   22.6680  -31.1960 C   0  0  0  0  0  0  0  0  0  0  0  0
   -2.7320   22.2650  -32.1560 O   0  0  0  0  0  0  0  0  0  0  0  0
   -4.8610   22.7980  -31.3680 N   0  0  0  0  0  0  0  0  0  0  0  0
   -5.6500   23.8530  -31.0200 C   0  0  0  0  0  0  0  0  0  0  0  0
   -5.1780   25.1530  -30.4960 C   0  0  0  0  0  0  0  0  0  0  0  0
   -3.9010   25.6730  -30.8570 N   0  0  0  0  0  0  0  0  0  0  0  0
   -5.9250   25.8280  -29.7380 O   0  0  0  0  0  0  0  0  0  0  0  0
   -6.9890   23.5660  -31.2790 C   0  0  0  0  0  0  0  0  0  0  0  0
   -6.9950   22.2890  -31.7950 C   0  0  0  0  0  0  0  0  0  0  0  0
   -8.0590   21.4950  -32.2150 C   0  0  0  0  0  0  0  0  0  0  0  0
   -7.7710   20.2010  -32.6800 C   0  0  0  0  0  0  0  0  0  0  0  0
   -6.4380   19.7170  -32.7020 C   0  0  0  0  0  0  0  0  0  0  0  0
   -6.1530   18.3910  -33.1880 N   0  0  0  0  0  0  0  0  0  0  0  0
   -5.9180   17.2940  -32.2430 C   0  0  0  0  0  0  0  0  0  0  0  0
   -5.1520   16.1440  -32.9240 C   0  0  0  0  0  0  0  0  0  0  0  0
   -4.1450   16.6450  -33.8890 N   0  0  0  0  0  0  0  0  0  0  0  0
   -3.0660   17.3850  -33.2070 C   0  0  0  0  0  0  0  0  0  0  0  0
   -4.7480   17.4490  -34.9900 C   0  0  0  0  0  0  0  0  0  0  0  0
   -6.0960   18.1010  -34.6230 C   0  0  0  0  0  0  0  0  0  0  0  0
   -5.3850   20.5570  -32.2720 C   0  0  0  0  0  0  0  0  0  0  0  0
   -5.6990   21.8470  -31.8340 C   0  0  0  0  0  0  0  0  0  0  0  0
   -3.6816   23.1261  -26.7411 H   0  0  0  0  0  0  0  0  0  0  0  0
   -3.3744   24.4812  -27.8796 H   0  0  0  0  0  0  0  0  0  0  0  0
   -4.9677   23.6518  -27.8796 H   0  0  0  0  0  0  0  0  0  0  0  0
   -3.0260   25.2940  -30.4320 H   0  0  0  0  0  0  0  0  0  0  0  0
   -7.8566   24.2202  -31.1077 H   0  0  0  0  0  0  0  0  0  0  0  0
   -9.0929   21.8693  -32.1837 H   0  0  0  0  0  0  0  0  0  0  0  0
   -8.5893   19.5553  -33.0313 H   0  0  0  0  0  0  0  0  0  0  0  0
   -5.3271   17.6688  -31.3943 H   0  0  0  0  0  0  0  0  0  0  0  0
   -6.8893   16.9140  -31.8933 H   0  0  0  0  0  0  0  0  0  0  0  0
   -4.6401   15.5514  -32.1515 H   0  0  0  0  0  0  0  0  0  0  0  0
   -5.8789   15.5314  -33.4775 H   0  0  0  0  0  0  0  0  0  0  0  0
   -3.6980   15.8020  -34.3220 H   0  0  0  0  0  0  0  0  0  0  0  0
   -3.1932   17.2978  -32.1179 H   0  0  0  0  0  0  0  0  0  0  0  0
   -2.0922   16.9638  -33.4973 H   0  0  0  0  0  0  0  0  0  0  0  0
   -3.1082   18.4452  -33.4973 H   0  0  0  0  0  0  0  0  0  0  0  0
   -4.0411   18.2461  -35.2637 H   0  0  0  0  0  0  0  0  0  0  0  0
   -4.9451   16.7550  -35.8204 H   0  0  0  0  0  0  0  0  0  0  0  0
   -6.2096   19.0389  -35.1865 H   0  0  0  0  0  0  0  0  0  0  0  0
   -6.9085   17.4045  -34.8773 H   0  0  0  0  0  0  0  0  0  0  0  0
   -4.3433   20.2038  -32.2819 H   0  0  0  0  0  0  0  0  0  0  0  0
  1  2  1  0
  2  3  1  0
  3  4  2  0
  3  5  1  0
  5  6  2  0
  5  7  1  0
  7  8  1  0
  8  9  1  0
  9 10  1  0
  9 11  2  0
  8 12  2  0
 12 13  1  0
 13 14  2  0
 14 15  1  0
 15 16  2  0
 16 17  1  0
 17 18  1  0
 18 19  1  0
 19 20  1  0
 20 21  1  0
 20 22  1  0
 22 23  1  0
 16 24  1  0
 24 25  2  0
 25  7  1  0
 25 13  1  0
 23 17  1  0
  1 26  1  0
  1 27  1  0
  1 28  1  0
 10 29  1  0
 12 30  1  0
 14 31  1  0
 15 32  1  0
 18 33  1  0
 18 34  1  0
 19 35  1  0
 19 36  1  0
 20 37  1  0
 21 38  1  0
 21 39  1  0
 21 40  1  0
 22 41  1  0
 22 42  1  0
 23 43  1  0
 23 44  1  0
 24 45  1  0
M  CHG  2  10  -1  20   1
M  END
>  <UniqueID>  (71) 
71

>  <SMILES>  (71) 
COC(=O)C(=O)n1c(C([NH-])=O)cc2ccc(N3CC[NH+](C)CC3)cc21

>  <Energy>  (71) 
94.35139113089636

>  <Genealogy>  (71) 
COC(=O)C(=O)n1c(C([NH-])=O)cc2ccc(N3CC[NH+](C)CC3)cc21 (protonated)
COC(=O)C(=O)n1c(C([NH-])=O)cc2ccc(N3CC[NH+](C)CC3)cc21 (3D coordinates assigned)
COC(=O)C(=O)n1c(C([NH-])=O)cc2ccc(N3CC[NH+](C)CC3)cc21 (nonaromatic ring conformer: 94.35139113089636 kcal/mol)

>  <smiles>  (71) 
COC(=O)C(=O)n1c(C(N)=O)cc2ccc(N3CCN(C)CC3)cc21

>  <score_type>  (71) 
oracle

>  <origin>  (71) 
adg

>  <m_score__min__energy>  (71) 
-9.4800000000000004

>  <m_primary>  (71) 
energy

$$$$
71:0
     RDKit          3D

 42 44  0  0  0  0  0  0  0  0999 V2000
   -4.2120   25.5340  -30.8420 N   0  0  0  0  0  0  0  0  0  0  0  0
   -5.4590   24.8940  -30.5900 C   0  0  0  0  0  0  0  0  0  0  0  0
   -6.3580   25.5270  -29.9740 O   0  0  0  0  0  0  0  0  0  0  0  0
   -5.7190   23.5190  -31.0690 C   0  0  0  0  0  0  0  0  0  0  0  0
   -6.6520   23.2130  -32.0650 C   0  0  0  0  0  0  0  0  0  0  0  0
   -6.5620   21.8490  -32.2400 C   0  0  0  0  0  0  0  0  0  0  0  0
   -7.2700   21.0000  -33.0900 C   0  0  0  0  0  0  0  0  0  0  0  0
   -6.9900   19.6230  -33.0300 C   0  0  0  0  0  0  0  0  0  0  0  0
   -6.0290   19.1150  -32.1140 C   0  0  0  0  0  0  0  0  0  0  0  0
   -5.7510   17.6320  -32.0560 C   0  0  0  0  0  0  0  0  0  0  0  0
   -6.5840   16.9750  -32.9410 F   0  0  0  0  0  0  0  0  0  0  0  0
   -4.4320   17.3680  -32.3920 F   0  0  0  0  0  0  0  0  0  0  0  0
   -5.9700   17.1440  -30.7780 F   0  0  0  0  0  0  0  0  0  0  0  0
   -5.3230   20.0130  -31.2810 C   0  0  0  0  0  0  0  0  0  0  0  0
   -5.6140   21.3770  -31.3710 C   0  0  0  0  0  0  0  0  0  0  0  0
   -5.0920   22.3860  -30.6440 N   0  0  0  0  0  0  0  0  0  0  0  0
   -4.0000   22.2690  -29.7200 C   0  0  0  0  0  0  0  0  0  0  0  0
   -4.2340   22.0990  -28.4930 O   0  0  0  0  0  0  0  0  0  0  0  0
   -2.6410   22.3750  -30.1990 N   0  0  0  0  0  0  0  0  0  0  0  0
   -1.6720   23.0720  -29.3400 C   0  0  0  0  0  0  0  0  0  0  0  0
   -2.2060   24.4130  -28.9330 C   0  0  0  0  0  0  0  0  0  0  0  0
   -3.2910   24.4880  -28.2790 O   0  0  0  0  0  0  0  0  0  0  0  0
   -1.5350   25.5680  -29.3110 O   0  0  0  0  0  0  0  0  0  0  0  0
   -2.1690   21.7760  -31.4690 C   0  0  2  0  0  0  0  0  0  0  0  0
   -3.0690   22.1500  -32.6220 C   0  0  0  0  0  0  0  0  0  0  0  0
   -3.0670   20.9190  -33.5130 C   0  0  0  0  0  0  0  0  0  0  0  0
   -2.4200   19.8520  -32.8610 O   0  0  0  0  0  0  0  0  0  0  0  0
   -2.1790   20.2490  -31.5270 C   0  0  0  0  0  0  0  0  0  0  0  0
   -3.5220   25.6730  -30.0700 H   0  0  0  0  0  0  0  0  0  0  0  0
   -7.3158   23.9117  -32.5953 H   0  0  0  0  0  0  0  0  0  0  0  0
   -8.0244   21.3952  -33.7862 H   0  0  0  0  0  0  0  0  0  0  0  0
   -7.5211   18.9308  -33.7000 H   0  0  0  0  0  0  0  0  0  0  0  0
   -4.5612   19.6461  -30.5774 H   0  0  0  0  0  0  0  0  0  0  0  0
   -1.4847   22.4678  -28.4401 H   0  0  0  0  0  0  0  0  0  0  0  0
   -0.7360   23.2150  -29.9000 H   0  0  0  0  0  0  0  0  0  0  0  0
   -1.1413   22.1633  -31.5311 H   0  0  0  0  0  0  0  0  0  0  0  0
   -4.0860   22.3723  -32.2665 H   0  0  0  0  0  0  0  0  0  0  0  0
   -2.7243   23.0517  -33.1494 H   0  0  0  0  0  0  0  0  0  0  0  0
   -4.1044   20.6319  -33.7394 H   0  0  0  0  0  0  0  0  0  0  0  0
   -2.5310   21.1498  -34.4454 H   0  0  0  0  0  0  0  0  0  0  0  0
   -2.9736   19.8582  -30.8744 H   0  0  0  0  0  0  0  0  0  0  0  0
   -1.2114   19.8528  -31.1852 H   0  0  0  0  0  0  0  0  0  0  0  0
  1  2  1  0
  2  3  2  0
  2  4  1  0
  4  5  2  0
  5  6  1  0
  6  7  2  0
  7  8  1  0
  8  9  2  0
  9 10  1  0
 10 11  1  0
 10 12  1  0
 10 13  1  0
  9 14  1  0
 14 15  2  0
 15 16  1  0
 16 17  1  0
 17 18  2  0
 17 19  1  0
 19 20  1  0
 20 21  1  0
 21 22  2  0
 21 23  1  0
 19 24  1  0
 24 25  1  0
 25 26  1  0
 26 27  1  0
 27 28  1  0
 16  4  1  0
 28 24  1  0
 15  6  1  0
  1 29  1  0
  5 30  1  0
  7 31  1  0
  8 32  1  0
 14 33  1  0
 20 34  1  0
 20 35  1  0
 24 36  1  6
 25 37  1  0
 25 38  1  0
 26 39  1  0
 26 40  1  0
 28 41  1  0
 28 42  1  0
M  CHG  2   1  -1  23  -1
M  END
>  <UniqueID>  (72) 
72

>  <SMILES>  (72) 
[NH-]C(=O)c1cc2ccc(C(F)(F)F)cc2n1C(=O)N(CC(=O)[O-])[C@@H]1CCOC1

>  <Energy>  (72) 
89.57618800991193

>  <Genealogy>  (72) 
[NH-]C(=O)c1cc2ccc(C(F)(F)F)cc2n1C(=O)N(CC(=O)[O-])C1CCOC1 (protonated)
[NH-]C(=O)c1cc2ccc(C(F)(F)F)cc2n1C(=O)N(CC(=O)[O-])[C@@H]1CCOC1 (chirality)
[NH-]C(=O)c1cc2ccc(C(F)(F)F)cc2n1C(=O)N(CC(=O)[O-])[C@@H]1CCOC1 (3D coordinates assigned)
[NH-]C(=O)c1cc2ccc(C(F)(F)F)cc2n1C(=O)N(CC(=O)[O-])[C@@H]1CCOC1 (nonaromatic ring conformer: 89.57618800991193 kcal/mol)

>  <smiles>  (72) 
NC(=O)c1cc2ccc(C(F)(F)F)cc2n1C(=O)N(CC(=O)O)C1CCOC1

>  <score_type>  (72) 
oracle

>  <origin>  (72) 
adg

>  <m_score__min__energy>  (72) 
-12.300000000000001

>  <m_primary>  (72) 
energy

$$$$
72:0
     RDKit          3D

 37 38  0  0  0  0  0  0  0  0999 V2000
   -2.9420   20.8020  -29.1950 C   0  0  0  0  0  0  0  0  0  0  0  0
   -3.1640   22.3270  -29.2830 C   0  0  0  0  0  0  0  0  0  0  0  0
   -4.1910   22.7310  -28.2010 C   0  0  0  0  0  0  0  0  0  0  0  0
   -1.8370   23.0650  -28.9890 C   0  0  0  0  0  0  0  0  0  0  0  0
   -1.9290   24.4240  -29.3260 O   0  0  0  0  0  0  0  0  0  0  0  0
   -3.6620   22.6880  -30.6810 C   0  0  0  0  0  0  0  0  0  0  0  0
   -2.8310   22.8620  -31.6140 O   0  0  0  0  0  0  0  0  0  0  0  0
   -5.0590   22.8650  -30.9620 N   0  0  0  0  0  0  0  0  0  0  0  0
   -5.7830   24.0160  -30.8880 C   0  0  0  0  0  0  0  0  0  0  0  0
   -5.2490   25.3480  -30.5400 C   0  0  0  0  0  0  0  0  0  0  0  0
   -3.8960   25.6730  -30.8450 N   0  0  0  0  0  0  0  0  0  0  0  0
   -5.9710   26.1970  -29.9540 O   0  0  0  0  0  0  0  0  0  0  0  0
   -7.1140   23.7730  -31.2250 C   0  0  0  0  0  0  0  0  0  0  0  0
   -7.1740   22.4320  -31.5310 C   0  0  0  0  0  0  0  0  0  0  0  0
   -8.2470   21.6540  -31.9550 C   0  0  0  0  0  0  0  0  0  0  0  0
   -8.0100   20.2930  -32.2220 C   0  0  0  0  0  0  0  0  0  0  0  0
   -6.7120   19.7430  -32.0680 C   0  0  0  0  0  0  0  0  0  0  0  0
   -6.4590   18.2920  -32.3610 C   0  0  0  0  0  0  0  0  0  0  0  0
   -6.1050   17.6360  -31.1960 F   0  0  0  0  0  0  0  0  0  0  0  0
   -7.6030   17.7150  -32.8810 F   0  0  0  0  0  0  0  0  0  0  0  0
   -5.6480   20.5670  -31.6420 C   0  0  0  0  0  0  0  0  0  0  0  0
   -5.9180   21.9110  -31.3730 C   0  0  0  0  0  0  0  0  0  0  0  0
   -2.8978   20.4983  -28.1387 H   0  0  0  0  0  0  0  0  0  0  0  0
   -3.7738   20.2811  -29.6918 H   0  0  0  0  0  0  0  0  0  0  0  0
   -1.9962   20.5399  -29.6918 H   0  0  0  0  0  0  0  0  0  0  0  0
   -3.7590   22.5611  -27.2038 H   0  0  0  0  0  0  0  0  0  0  0  0
   -4.4437   23.7955  -28.3146 H   0  0  0  0  0  0  0  0  0  0  0  0
   -5.1013   22.1239  -28.3146 H   0  0  0  0  0  0  0  0  0  0  0  0
   -1.6061   22.9755  -27.9172 H   0  0  0  0  0  0  0  0  0  0  0  0
   -1.0413   22.6079  -29.5956 H   0  0  0  0  0  0  0  0  0  0  0  0
   -2.2090   24.4550  -30.2770 H   0  0  0  0  0  0  0  0  0  0  0  0
   -3.1820   24.9230  -30.9800 H   0  0  0  0  0  0  0  0  0  0  0  0
   -7.9406   24.4986  -31.2426 H   0  0  0  0  0  0  0  0  0  0  0  0
   -9.2496   22.0896  -32.0777 H   0  0  0  0  0  0  0  0  0  0  0  0
   -8.8388   19.6500  -32.5531 H   0  0  0  0  0  0  0  0  0  0  0  0
   -5.6412   18.2095  -33.0921 H   0  0  0  0  0  0  0  0  0  0  0  0
   -4.6323   20.1613  -31.5248 H   0  0  0  0  0  0  0  0  0  0  0  0
  1  2  1  0
  2  3  1  0
  2  4  1  0
  4  5  1  0
  2  6  1  0
  6  7  2  0
  6  8  1  0
  8  9  1  0
  9 10  1  0
 10 11  1  0
 10 12  2  0
  9 13  2  0
 13 14  1  0
 14 15  2  0
 15 16  1  0
 16 17  2  0
 17 18  1  0
 18 19  1  0
 18 20  1  0
 17 21  1  0
 21 22  2  0
 22  8  1  0
 22 14  1  0
  1 23  1  0
  1 24  1  0
  1 25  1  0
  3 26  1  0
  3 27  1  0
  3 28  1  0
  4 29  1  0
  4 30  1  0
  5 31  1  0
 11 32  1  0
 13 33  1  0
 15 34  1  0
 16 35  1  0
 18 36  1  0
 21 37  1  0
M  CHG  1  11  -1
M  END
>  <UniqueID>  (73) 
73

>  <SMILES>  (73) 
CC(C)(CO)C(=O)n1c(C([NH-])=O)cc2ccc(C(F)F)cc21

>  <Energy>  (73) 
74.0851075085189

>  <Genealogy>  (73) 
CC(C)(CO)C(=O)n1c(C([NH-])=O)cc2ccc(C(F)F)cc21 (protonated)
CC(C)(CO)C(=O)n1c(C([NH-])=O)cc2ccc(C(F)F)cc21 (3D coordinates assigned)
CC(C)(CO)C(=O)n1c(C([NH-])=O)cc2ccc(C(F)F)cc21 (optimized conformer: 74.0851075085189 kcal/mol)

>  <smiles>  (73) 
CC(C)(CO)C(=O)n1c(C(N)=O)cc2ccc(C(F)F)cc21

>  <score_type>  (73) 
oracle

>  <origin>  (73) 
adg

>  <m_score__min__energy>  (73) 
-9.1600000000000001

>  <m_primary>  (73) 
energy

$$$$
73:0
     RDKit          3D

 42 44  0  0  0  0  0  0  0  0999 V2000
   -6.0270   19.1460  -34.1610 C   0  0  0  0  0  0  0  0  0  0  0  0
   -5.8330   20.2590  -33.2250 N   0  0  0  0  0  0  0  0  0  0  0  0
   -6.9720   20.9530  -32.6620 C   0  0  0  0  0  0  0  0  0  0  0  0
   -8.1630   20.2640  -32.3500 C   0  0  0  0  0  0  0  0  0  0  0  0
   -9.2560   20.9470  -31.8060 C   0  0  0  0  0  0  0  0  0  0  0  0
   -9.1790   22.3220  -31.5740 C   0  0  0  0  0  0  0  0  0  0  0  0
   -8.0060   23.0170  -31.8780 C   0  0  0  0  0  0  0  0  0  0  0  0
   -6.9110   22.3400  -32.4200 C   0  0  0  0  0  0  0  0  0  0  0  0
   -4.5030   20.5480  -32.7490 C   0  0  0  0  0  0  0  0  0  0  0  0
   -3.3730   20.2290  -33.5450 C   0  0  0  0  0  0  0  0  0  0  0  0
   -2.0750   20.5280  -33.0970 C   0  0  0  0  0  0  0  0  0  0  0  0
   -1.9380   21.1540  -31.8620 C   0  0  0  0  0  0  0  0  0  0  0  0
   -0.8060   21.5680  -31.1990 C   0  0  0  0  0  0  0  0  0  0  0  0
   -1.2620   22.1550  -30.0190 C   0  0  0  0  0  0  0  0  0  0  0  0
   -0.3850   22.8480  -29.0490 C   0  0  0  0  0  0  0  0  0  0  0  0
   -0.1040   24.2430  -29.1830 N   0  0  0  0  0  0  0  0  0  0  0  0
    0.1070   22.2150  -28.0770 O   0  0  0  0  0  0  0  0  0  0  0  0
   -2.6220   22.0970  -29.9540 N   0  0  0  0  0  0  0  0  0  0  0  0
   -3.4790   22.5650  -28.8990 C   0  0  0  0  0  0  0  0  0  0  0  0
   -3.4990   21.9580  -27.7930 O   0  0  0  0  0  0  0  0  0  0  0  0
   -4.3270   23.7900  -29.0840 C   0  0  0  0  0  0  0  0  0  0  0  0
   -3.5730   24.8480  -29.8250 C   0  0  0  0  0  0  0  0  0  0  0  0
   -4.0380   25.3310  -30.8910 O   0  0  0  0  0  0  0  0  0  0  0  0
   -2.3490   25.2960  -29.3410 O   0  0  0  0  0  0  0  0  0  0  0  0
   -3.0210   21.4860  -31.0900 C   0  0  0  0  0  0  0  0  0  0  0  0
   -4.3220   21.1820  -31.4990 C   0  0  0  0  0  0  0  0  0  0  0  0
   -6.1891   18.2160  -33.5963 H   0  0  0  0  0  0  0  0  0  0  0  0
   -6.9035   19.3480  -34.7942 H   0  0  0  0  0  0  0  0  0  0  0  0
   -5.1339   19.0395  -34.7942 H   0  0  0  0  0  0  0  0  0  0  0  0
   -8.2326   19.1820  -32.5358 H   0  0  0  0  0  0  0  0  0  0  0  0
  -10.1781   20.3998  -31.5604 H   0  0  0  0  0  0  0  0  0  0  0  0
  -10.0420   22.8577  -31.1519 H   0  0  0  0  0  0  0  0  0  0  0  0
   -7.9445   24.0991  -31.6903 H   0  0  0  0  0  0  0  0  0  0  0  0
   -5.9921   22.8949  -32.6603 H   0  0  0  0  0  0  0  0  0  0  0  0
   -3.5140   19.7432  -34.5218 H   0  0  0  0  0  0  0  0  0  0  0  0
   -1.1937   20.2747  -33.7045 H   0  0  0  0  0  0  0  0  0  0  0  0
    0.2375   21.4591  -31.5295 H   0  0  0  0  0  0  0  0  0  0  0  0
    0.4870   24.7290  -28.4710 H   0  0  0  0  0  0  0  0  0  0  0  0
   -0.4170   24.7800  -30.0210 H   0  0  0  0  0  0  0  0  0  0  0  0
   -5.2285   23.5223  -29.6547 H   0  0  0  0  0  0  0  0  0  0  0  0
   -4.6042   24.1810  -28.0939 H   0  0  0  0  0  0  0  0  0  0  0  0
   -5.1847   21.4302  -30.8633 H   0  0  0  0  0  0  0  0  0  0  0  0
  1  2  1  0
  2  3  1  0
  3  4  2  0
  4  5  1  0
  5  6  2  0
  6  7  1  0
  7  8  2  0
  2  9  1  0
  9 10  2  0
 10 11  1  0
 11 12  2  0
 12 13  1  0
 13 14  2  0
 14 15  1  0
 15 16  1  0
 15 17  2  0
 14 18  1  0
 18 19  1  0
 19 20  2  0
 19 21  1  0
 21 22  1  0
 22 23  2  0
 22 24  1  0
 18 25  1  0
 25 26  2  0
  8  3  1  0
 26  9  1  0
 25 12  1  0
  1 27  1  0
  1 28  1  0
  1 29  1  0
  4 30  1  0
  5 31  1  0
  6 32  1  0
  7 33  1  0
  8 34  1  0
 10 35  1  0
 11 36  1  0
 13 37  1  0
 16 38  1  0
 16 39  1  0
 21 40  1  0
 21 41  1  0
 26 42  1  0
M  CHG  1  24  -1
M  END
>  <UniqueID>  (74) 
74

>  <SMILES>  (74) 
CN(c1ccccc1)c1ccc2cc(C(N)=O)n(C(=O)CC(=O)[O-])c2c1

>  <Energy>  (74) 
90.57845601041524

>  <Genealogy>  (74) 
CN(c1ccccc1)c1ccc2cc(C(N)=O)n(C(=O)CC(=O)[O-])c2c1 (protonated)
CN(c1ccccc1)c1ccc2cc(C(N)=O)n(C(=O)CC(=O)[O-])c2c1 (3D coordinates assigned)
CN(c1ccccc1)c1ccc2cc(C(N)=O)n(C(=O)CC(=O)[O-])c2c1 (optimized conformer: 90.57845601041524 kcal/mol)

>  <smiles>  (74) 
CN(c1ccccc1)c1ccc2cc(C(N)=O)n(C(=O)CC(=O)O)c2c1

>  <score_type>  (74) 
oracle

>  <origin>  (74) 
adg

>  <m_score__min__energy>  (74) 
-10.91

>  <m_primary>  (74) 
energy

$$$$
74:0
     RDKit          3D

 49 52  0  0  0  0  0  0  0  0999 V2000
   -7.0890   14.9430  -34.2420 C   0  0  0  0  0  0  0  0  0  0  0  0
   -6.4650   16.2650  -33.9500 C   0  0  0  0  0  0  0  0  0  0  0  0
   -5.1760   16.5690  -34.1760 N   0  0  0  0  0  0  0  0  0  0  0  0
   -4.9850   17.8150  -33.7740 N   0  0  0  0  0  0  0  0  0  0  0  0
   -6.1820   18.2290  -33.3080 C   0  0  0  0  0  0  0  0  0  0  0  0
   -6.4440   19.5730  -32.7590 C   0  0  0  0  0  0  0  0  0  0  0  0
   -7.7700   20.0670  -32.6570 C   0  0  0  0  0  0  0  0  0  0  0  0
   -8.0190   21.3430  -32.1220 C   0  0  0  0  0  0  0  0  0  0  0  0
   -6.9300   22.0930  -31.6870 C   0  0  0  0  0  0  0  0  0  0  0  0
   -6.8800   23.3540  -31.1370 C   0  0  0  0  0  0  0  0  0  0  0  0
   -5.5290   23.6010  -30.8960 C   0  0  0  0  0  0  0  0  0  0  0  0
   -5.0260   24.8400  -30.2620 C   0  0  0  0  0  0  0  0  0  0  0  0
   -3.9370   25.5670  -30.8240 N   0  0  0  0  0  0  0  0  0  0  0  0
   -5.5510   25.2490  -29.1930 O   0  0  0  0  0  0  0  0  0  0  0  0
   -4.7750   22.5320  -31.2780 N   0  0  0  0  0  0  0  0  0  0  0  0
   -3.3450   22.4000  -31.2590 C   0  0  0  0  0  0  0  0  0  0  0  0
   -2.7140   22.3960  -32.3510 O   0  0  0  0  0  0  0  0  0  0  0  0
   -2.6310   22.2150  -30.0180 N   0  0  0  0  0  0  0  0  0  0  0  0
   -1.9000   20.9520  -29.8170 C   0  0  0  0  0  0  0  0  0  0  0  0
   -1.4520   20.7590  -28.3620 C   0  0  0  0  0  0  0  0  0  0  0  0
   -2.5020   21.3150  -27.4070 C   0  0  0  0  0  0  0  0  0  0  0  0
   -2.6690   22.8330  -27.5840 C   0  0  0  0  0  0  0  0  0  0  0  0
   -2.5090   23.3260  -29.0500 C   0  0  1  0  0  0  0  0  0  0  0  0
   -1.1770   24.0710  -29.2620 C   0  0  0  0  0  0  0  0  0  0  0  0
   -1.3750   25.4580  -29.2280 O   0  0  0  0  0  0  0  0  0  0  0  0
   -5.6460   21.6240  -31.7680 C   0  0  0  0  0  0  0  0  0  0  0  0
   -5.3660   20.3710  -32.3210 C   0  0  0  0  0  0  0  0  0  0  0  0
   -7.0910   17.2820  -33.4110 O   0  0  0  0  0  0  0  0  0  0  0  0
   -7.3292   14.4341  -33.2968 H   0  0  0  0  0  0  0  0  0  0  0  0
   -8.0113   15.0931  -34.8223 H   0  0  0  0  0  0  0  0  0  0  0  0
   -6.3869   14.3263  -34.8223 H   0  0  0  0  0  0  0  0  0  0  0  0
   -4.4410   15.9530  -34.5880 H   0  0  0  0  0  0  0  0  0  0  0  0
   -8.6109   19.4460  -32.9996 H   0  0  0  0  0  0  0  0  0  0  0  0
   -9.0435   21.7369  -32.0493 H   0  0  0  0  0  0  0  0  0  0  0  0
   -7.7270   24.0250  -30.9311 H   0  0  0  0  0  0  0  0  0  0  0  0
   -2.9530   25.2430  -30.6960 H   0  0  0  0  0  0  0  0  0  0  0  0
   -2.5567   20.1155  -30.0981 H   0  0  0  0  0  0  0  0  0  0  0  0
   -0.9967   20.9845  -30.4439 H   0  0  0  0  0  0  0  0  0  0  0  0
   -1.3136   19.6858  -28.1642 H   0  0  0  0  0  0  0  0  0  0  0  0
   -0.5051   21.2963  -28.2049 H   0  0  0  0  0  0  0  0  0  0  0  0
   -3.4651   20.8227  -27.6071 H   0  0  0  0  0  0  0  0  0  0  0  0
   -2.1723   21.1195  -26.3759 H   0  0  0  0  0  0  0  0  0  0  0  0
   -3.6736   23.1125  -27.2339 H   0  0  0  0  0  0  0  0  0  0  0  0
   -1.8665   23.3090  -27.0014 H   0  0  0  0  0  0  0  0  0  0  0  0
   -3.3309   24.0340  -29.2322 H   0  0  0  0  0  0  0  0  0  0  0  0
   -0.4735   23.7869  -28.4655 H   0  0  0  0  0  0  0  0  0  0  0  0
   -0.7702   23.7956  -30.2462 H   0  0  0  0  0  0  0  0  0  0  0  0
   -2.0210   25.6710  -29.9520 H   0  0  0  0  0  0  0  0  0  0  0  0
   -4.3291   20.0154  -32.4126 H   0  0  0  0  0  0  0  0  0  0  0  0
  1  2  1  0
  2  3  2  0
  3  4  1  0
  4  5  2  0
  5  6  1  0
  6  7  2  0
  7  8  1  0
  8  9  2  0
  9 10  1  0
 10 11  2  0
 11 12  1  0
 12 13  1  0
 12 14  2  0
 11 15  1  0
 15 16  1  0
 16 17  2  0
 16 18  1  0
 18 19  1  0
 19 20  1  0
 20 21  1  0
 21 22  1  0
 22 23  1  0
 23 24  1  0
 24 25  1  0
 15 26  1  0
 26 27  2  0
  5 28  1  0
 28  2  1  0
 27  6  1  0
 26  9  1  0
 23 18  1  0
  1 29  1  0
  1 30  1  0
  1 31  1  0
  3 32  1  0
  7 33  1  0
  8 34  1  0
 10 35  1  0
 13 36  1  0
 19 37  1  0
 19 38  1  0
 20 39  1  0
 20 40  1  0
 21 41  1  0
 21 42  1  0
 22 43  1  0
 22 44  1  0
 23 45  1  6
 24 46  1  0
 24 47  1  0
 25 48  1  0
 27 49  1  0
M  CHG  2   3   1  13  -1
M  END
>  <UniqueID>  (75) 
75

>  <SMILES>  (75) 
Cc1[nH+]nc(-c2ccc3cc(C([NH-])=O)n(C(=O)N4CCCC[C@H]4CO)c3c2)o1

>  <Energy>  (75) 
124.72127064731033

>  <Genealogy>  (75) 
Cc1[nH+]nc(-c2ccc3cc(C([NH-])=O)n(C(=O)N4CCCCC4CO)c3c2)o1 (protonated)
Cc1[nH+]nc(-c2ccc3cc(C([NH-])=O)n(C(=O)N4CCCC[C@H]4CO)c3c2)o1 (chirality)
Cc1[nH+]nc(-c2ccc3cc(C([NH-])=O)n(C(=O)N4CCCC[C@H]4CO)c3c2)o1 (3D coordinates assigned)
Cc1[nH+]nc(-c2ccc3cc(C([NH-])=O)n(C(=O)N4CCCC[C@H]4CO)c3c2)o1 (nonaromatic ring conformer: 124.72127064731033 kcal/mol)

>  <smiles>  (75) 
Cc1nnc(-c2ccc3cc(C(N)=O)n(C(=O)N4CCCCC4CO)c3c2)o1

>  <score_type>  (75) 
oracle

>  <origin>  (75) 
adg

>  <m_score__min__energy>  (75) 
-11.48

>  <m_primary>  (75) 
energy

$$$$
75:0
     RDKit          3D

 48 49  0  0  0  0  0  0  0  0999 V2000
   -4.9860   17.5420  -35.1210 C   0  0  0  0  0  0  0  0  0  0  0  0
   -4.5260   17.6350  -33.7250 N   0  0  0  0  0  0  0  0  0  0  0  0
   -4.0320   18.9980  -33.4640 C   0  0  0  0  0  0  0  0  0  0  0  0
   -5.6270   17.2810  -32.8020 C   0  0  0  0  0  0  0  0  0  0  0  0
   -6.9840   17.3680  -33.5140 C   0  0  0  0  0  0  0  0  0  0  0  0
   -7.9780   18.0140  -32.6540 N   0  0  0  0  0  0  0  0  0  0  0  0
   -7.9570   19.4050  -32.2770 C   0  0  0  0  0  0  0  0  0  0  0  0
   -9.1220   20.2190  -32.3410 C   0  0  0  0  0  0  0  0  0  0  0  0
   -9.0760   21.5700  -31.9570 C   0  0  0  0  0  0  0  0  0  0  0  0
   -7.8620   22.0830  -31.5140 C   0  0  0  0  0  0  0  0  0  0  0  0
   -7.5410   23.3470  -31.0730 C   0  0  0  0  0  0  0  0  0  0  0  0
   -6.1830   23.2940  -30.7570 C   0  0  0  0  0  0  0  0  0  0  0  0
   -5.3840   24.4630  -30.3250 C   0  0  0  0  0  0  0  0  0  0  0  0
   -5.2900   24.8170  -28.9440 N   0  0  0  0  0  0  0  0  0  0  0  0
   -4.7920   25.1740  -31.1800 O   0  0  0  0  0  0  0  0  0  0  0  0
   -5.6900   22.0440  -30.9890 N   0  0  0  0  0  0  0  0  0  0  0  0
   -4.3560   21.5620  -30.7580 C   0  0  0  0  0  0  0  0  0  0  0  0
   -4.1500   20.3210  -30.7180 O   0  0  0  0  0  0  0  0  0  0  0  0
   -3.2520   22.5160  -30.4980 C   0  0  0  0  0  0  0  0  0  0  0  0
   -2.9930   23.3880  -31.3680 O   0  0  0  0  0  0  0  0  0  0  0  0
   -2.4690   22.5070  -29.2940 N   0  0  0  0  0  0  0  0  0  0  0  0
   -2.7140   23.2660  -28.0700 C   0  0  0  0  0  0  0  0  0  0  0  0
   -2.1970   24.7000  -28.2060 C   0  0  0  0  0  0  0  0  0  0  0  0
   -2.7000   25.2850  -29.3760 O   0  0  0  0  0  0  0  0  0  0  0  0
   -6.7280   21.3180  -31.4560 C   0  0  0  0  0  0  0  0  0  0  0  0
   -6.7450   19.9680  -31.8190 C   0  0  0  0  0  0  0  0  0  0  0  0
   -6.0641   17.3240  -35.1381 H   0  0  0  0  0  0  0  0  0  0  0  0
   -4.7967   18.4966  -35.6338 H   0  0  0  0  0  0  0  0  0  0  0  0
   -4.4408   16.7359  -35.6338 H   0  0  0  0  0  0  0  0  0  0  0  0
   -3.9717   19.1645  -32.3784 H   0  0  0  0  0  0  0  0  0  0  0  0
   -3.0333   19.1176  -33.9094 H   0  0  0  0  0  0  0  0  0  0  0  0
   -4.7221   19.7297  -33.9094 H   0  0  0  0  0  0  0  0  0  0  0  0
   -5.4761   16.2542  -32.4376 H   0  0  0  0  0  0  0  0  0  0  0  0
   -5.6239   17.9900  -31.9610 H   0  0  0  0  0  0  0  0  0  0  0  0
   -6.8703   17.9539  -34.4380 H   0  0  0  0  0  0  0  0  0  0  0  0
   -7.3269   16.3494  -33.7484 H   0  0  0  0  0  0  0  0  0  0  0  0
   -8.7680   17.4190  -32.3140 H   0  0  0  0  0  0  0  0  0  0  0  0
  -10.0693   19.7861  -32.6950 H   0  0  0  0  0  0  0  0  0  0  0  0
   -9.9742   22.2032  -32.0055 H   0  0  0  0  0  0  0  0  0  0  0  0
   -8.2123   24.2142  -30.9879 H   0  0  0  0  0  0  0  0  0  0  0  0
   -5.7120   24.2190  -28.1990 H   0  0  0  0  0  0  0  0  0  0  0  0
   -4.7540   25.6650  -28.6560 H   0  0  0  0  0  0  0  0  0  0  0  0
   -3.7956   23.2901  -27.8712 H   0  0  0  0  0  0  0  0  0  0  0  0
   -2.1825   22.7772  -27.2402 H   0  0  0  0  0  0  0  0  0  0  0  0
   -2.5234   25.2884  -27.3358 H   0  0  0  0  0  0  0  0  0  0  0  0
   -1.0983   24.6831  -28.2559 H   0  0  0  0  0  0  0  0  0  0  0  0
   -3.0600   24.5460  -29.9310 H   0  0  0  0  0  0  0  0  0  0  0  0
   -5.8332   19.3566  -31.7494 H   0  0  0  0  0  0  0  0  0  0  0  0
  1  2  1  0
  2  3  1  0
  2  4  1  0
  4  5  1  0
  5  6  1  0
  6  7  1  0
  7  8  2  0
  8  9  1  0
  9 10  2  0
 10 11  1  0
 11 12  2  0
 12 13  1  0
 13 14  1  0
 13 15  2  0
 12 16  1  0
 16 17  1  0
 17 18  2  0
 17 19  1  0
 19 20  2  0
 19 21  1  0
 21 22  1  0
 22 23  1  0
 23 24  1  0
 16 25  1  0
 25 26  2  0
 26  7  1  0
 25 10  1  0
  1 27  1  0
  1 28  1  0
  1 29  1  0
  3 30  1  0
  3 31  1  0
  3 32  1  0
  4 33  1  0
  4 34  1  0
  5 35  1  0
  5 36  1  0
  6 37  1  0
  8 38  1  0
  9 39  1  0
 11 40  1  0
 14 41  1  0
 14 42  1  0
 22 43  1  0
 22 44  1  0
 23 45  1  0
 23 46  1  0
 24 47  1  0
 26 48  1  0
M  CHG  1  21  -1
M  END
>  <UniqueID>  (76) 
76

>  <SMILES>  (76) 
CN(C)CCNc1ccc2cc(C(N)=O)n(C(=O)C(=O)[N-]CCO)c2c1

>  <Energy>  (76) 
84.08432781993659

>  <Genealogy>  (76) 
CN(C)CCNc1ccc2cc(C(N)=O)n(C(=O)C(=O)[N-]CCO)c2c1 (protonated)
CN(C)CCNc1ccc2cc(C(N)=O)n(C(=O)C(=O)[N-]CCO)c2c1 (3D coordinates assigned)
CN(C)CCNc1ccc2cc(C(N)=O)n(C(=O)C(=O)[N-]CCO)c2c1 (optimized conformer: 84.08432781993659 kcal/mol)

>  <smiles>  (76) 
CN(C)CCNc1ccc2cc(C(N)=O)n(C(=O)C(=O)NCCO)c2c1

>  <score_type>  (76) 
oracle

>  <origin>  (76) 
adg

>  <m_score__min__energy>  (76) 
-9

>  <m_primary>  (76) 
energy

$$$$
76:0
     RDKit          3D

 36 37  0  0  0  0  0  0  0  0999 V2000
   -6.9000   18.2720  -32.3290 C   0  0  0  0  0  0  0  0  0  0  0  0
   -7.0700   19.7290  -32.0170 C   0  0  0  0  0  0  0  0  0  0  0  0
   -8.3320   20.3490  -32.1920 C   0  0  0  0  0  0  0  0  0  0  0  0
   -8.4930   21.7240  -31.9510 C   0  0  0  0  0  0  0  0  0  0  0  0
   -7.3770   22.4490  -31.5420 C   0  0  0  0  0  0  0  0  0  0  0  0
   -7.2440   23.7930  -31.2740 C   0  0  0  0  0  0  0  0  0  0  0  0
   -5.9050   23.9710  -30.9320 C   0  0  0  0  0  0  0  0  0  0  0  0
   -5.3460   25.2630  -30.4870 C   0  0  0  0  0  0  0  0  0  0  0  0
   -4.0190   25.6490  -30.8420 N   0  0  0  0  0  0  0  0  0  0  0  0
   -6.0290   26.0170  -29.7450 O   0  0  0  0  0  0  0  0  0  0  0  0
   -5.2350   22.7850  -30.9940 N   0  0  0  0  0  0  0  0  0  0  0  0
   -3.8270   22.5640  -30.8130 C   0  0  0  0  0  0  0  0  0  0  0  0
   -3.0000   23.1200  -31.5860 O   0  0  0  0  0  0  0  0  0  0  0  0
   -3.3820   21.7460  -29.7680 O   0  0  0  0  0  0  0  0  0  0  0  0
   -3.5840   22.0510  -28.3900 C   0  0  0  0  0  0  0  0  0  0  0  0
   -3.3980   23.5530  -28.1410 C   0  0  0  0  0  0  0  0  0  0  0  0
   -1.9970   23.8860  -27.6140 C   0  0  0  0  0  0  0  0  0  0  0  0
   -1.1490   24.5430  -28.6600 C   0  0  0  0  0  0  0  0  0  0  0  0
   -0.0320   24.0510  -28.9710 O   0  0  0  0  0  0  0  0  0  0  0  0
   -1.6080   25.6790  -29.3150 O   0  0  0  0  0  0  0  0  0  0  0  0
   -6.1500   21.8640  -31.3660 C   0  0  0  0  0  0  0  0  0  0  0  0
   -5.9570   20.5000  -31.6170 C   0  0  0  0  0  0  0  0  0  0  0  0
   -6.8334   17.7015  -31.3909 H   0  0  0  0  0  0  0  0  0  0  0  0
   -7.7630   17.9188  -32.9125 H   0  0  0  0  0  0  0  0  0  0  0  0
   -5.9788   18.1270  -32.9125 H   0  0  0  0  0  0  0  0  0  0  0  0
   -9.1935   19.7485  -32.5195 H   0  0  0  0  0  0  0  0  0  0  0  0
   -9.4701   22.2122  -32.0814 H   0  0  0  0  0  0  0  0  0  0  0  0
   -8.0284   24.5628  -31.3201 H   0  0  0  0  0  0  0  0  0  0  0  0
   -3.2020   25.0460  -30.6000 H   0  0  0  0  0  0  0  0  0  0  0  0
   -4.6043   21.7594  -28.1002 H   0  0  0  0  0  0  0  0  0  0  0  0
   -2.8471   21.4964  -27.7905 H   0  0  0  0  0  0  0  0  0  0  0  0
   -3.5572   24.0909  -29.0872 H   0  0  0  0  0  0  0  0  0  0  0  0
   -4.1271   23.8604  -27.3768 H   0  0  0  0  0  0  0  0  0  0  0  0
   -2.0925   24.5660  -26.7547 H   0  0  0  0  0  0  0  0  0  0  0  0
   -1.5096   22.9442  -27.3217 H   0  0  0  0  0  0  0  0  0  0  0  0
   -4.9636   20.0410  -31.5054 H   0  0  0  0  0  0  0  0  0  0  0  0
  1  2  1  0
  2  3  2  0
  3  4  1  0
  4  5  2  0
  5  6  1  0
  6  7  2  0
  7  8  1  0
  8  9  1  0
  8 10  2  0
  7 11  1  0
 11 12  1  0
 12 13  2  0
 12 14  1  0
 14 15  1  0
 15 16  1  0
 16 17  1  0
 17 18  1  0
 18 19  2  0
 18 20  1  0
 11 21  1  0
 21 22  2  0
 22  2  1  0
 21  5  1  0
  1 23  1  0
  1 24  1  0
  1 25  1  0
  3 26  1  0
  4 27  1  0
  6 28  1  0
  9 29  1  0
 15 30  1  0
 15 31  1  0
 16 32  1  0
 16 33  1  0
 17 34  1  0
 17 35  1  0
 22 36  1  0
M  CHG  2   9  -1  20  -1
M  END
>  <UniqueID>  (77) 
77

>  <SMILES>  (77) 
Cc1ccc2cc(C([NH-])=O)n(C(=O)OCCCC(=O)[O-])c2c1

>  <Energy>  (77) 
68.85981536435052

>  <Genealogy>  (77) 
Cc1ccc2cc(C([NH-])=O)n(C(=O)OCCCC(=O)[O-])c2c1 (protonated)
Cc1ccc2cc(C([NH-])=O)n(C(=O)OCCCC(=O)[O-])c2c1 (3D coordinates assigned)
Cc1ccc2cc(C([NH-])=O)n(C(=O)OCCCC(=O)[O-])c2c1 (optimized conformer: 68.85981536435052 kcal/mol)

>  <smiles>  (77) 
Cc1ccc2cc(C(N)=O)n(C(=O)OCCCC(=O)O)c2c1

>  <score_type>  (77) 
oracle

>  <origin>  (77) 
adg

>  <m_score__min__energy>  (77) 
-12.33

>  <m_primary>  (77) 
energy

$$$$
77:0
     RDKit          3D

 39 40  0  0  0  0  0  0  0  0999 V2000
   -3.6390   24.4860  -27.2480 C   0  0  0  0  0  0  0  0  0  0  0  0
   -2.4470   24.5720  -27.9950 O   0  0  0  0  0  0  0  0  0  0  0  0
   -1.7760   23.3300  -27.9510 C   0  0  0  0  0  0  0  0  0  0  0  0
   -0.8460   23.1970  -29.1610 C   0  0  0  0  0  0  0  0  0  0  0  0
   -1.5620   22.6470  -30.4030 C   0  0  0  0  0  0  0  0  0  0  0  0
   -3.0090   22.8450  -30.3190 N   0  0  0  0  0  0  0  0  0  0  0  0
   -3.8980   22.4990  -31.3900 C   0  0  0  0  0  0  0  0  0  0  0  0
   -3.4550   21.9270  -32.4230 O   0  0  0  0  0  0  0  0  0  0  0  0
   -5.2970   22.8140  -31.2980 N   0  0  0  0  0  0  0  0  0  0  0  0
   -5.8640   24.0380  -31.0990 C   0  0  0  0  0  0  0  0  0  0  0  0
   -5.1410   25.2920  -30.7980 C   0  0  0  0  0  0  0  0  0  0  0  0
   -3.7550   25.2790  -30.4630 N   0  0  0  0  0  0  0  0  0  0  0  0
   -5.7630   26.3860  -30.7980 O   0  0  0  0  0  0  0  0  0  0  0  0
   -7.2540   23.9450  -31.1500 C   0  0  0  0  0  0  0  0  0  0  0  0
   -7.5220   22.6160  -31.3850 C   0  0  0  0  0  0  0  0  0  0  0  0
   -8.7410   21.9660  -31.5540 C   0  0  0  0  0  0  0  0  0  0  0  0
   -8.7190   20.5870  -31.8250 C   0  0  0  0  0  0  0  0  0  0  0  0
   -7.4890   19.8840  -31.9140 C   0  0  0  0  0  0  0  0  0  0  0  0
   -7.4780   18.4180  -32.2660 C   0  0  0  0  0  0  0  0  0  0  0  0
   -6.6810   17.7080  -31.3860 F   0  0  0  0  0  0  0  0  0  0  0  0
   -6.9830   18.2630  -33.5470 F   0  0  0  0  0  0  0  0  0  0  0  0
   -8.7580   17.8950  -32.2110 F   0  0  0  0  0  0  0  0  0  0  0  0
   -6.2730   20.5890  -31.7620 C   0  0  0  0  0  0  0  0  0  0  0  0
   -6.3250   21.9560  -31.4720 C   0  0  0  0  0  0  0  0  0  0  0  0
   -3.4008   24.5032  -26.1742 H   0  0  0  0  0  0  0  0  0  0  0  0
   -4.2879   25.3397  -27.4934 H   0  0  0  0  0  0  0  0  0  0  0  0
   -4.1586   23.5480  -27.4934 H   0  0  0  0  0  0  0  0  0  0  0  0
   -1.1830   23.2683  -27.0266 H   0  0  0  0  0  0  0  0  0  0  0  0
   -2.5168   22.5171  -27.9723 H   0  0  0  0  0  0  0  0  0  0  0  0
   -0.4375   24.1897  -29.4013 H   0  0  0  0  0  0  0  0  0  0  0  0
   -0.0526   22.4839  -28.8926 H   0  0  0  0  0  0  0  0  0  0  0  0
   -1.1812   23.1667  -31.2946 H   0  0  0  0  0  0  0  0  0  0  0  0
   -1.3644   21.5667  -30.4653 H   0  0  0  0  0  0  0  0  0  0  0  0
   -3.3880   23.3790  -29.5050 H   0  0  0  0  0  0  0  0  0  0  0  0
   -3.4190   25.6710  -29.5550 H   0  0  0  0  0  0  0  0  0  0  0  0
   -7.9819   24.7607  -31.0282 H   0  0  0  0  0  0  0  0  0  0  0  0
   -9.6916   22.5142  -31.4779 H   0  0  0  0  0  0  0  0  0  0  0  0
   -9.6659   20.0463  -31.9698 H   0  0  0  0  0  0  0  0  0  0  0  0
   -5.3072   20.0735  -31.8695 H   0  0  0  0  0  0  0  0  0  0  0  0
  1  2  1  0
  2  3  1  0
  3  4  1  0
  4  5  1  0
  5  6  1  0
  6  7  1  0
  7  8  2  0
  7  9  1  0
  9 10  1  0
 10 11  1  0
 11 12  1  0
 11 13  2  0
 10 14  2  0
 14 15  1  0
 15 16  2  0
 16 17  1  0
 17 18  2  0
 18 19  1  0
 19 20  1  0
 19 21  1  0
 19 22  1  0
 18 23  1  0
 23 24  2  0
 24  9  1  0
 24 15  1  0
  1 25  1  0
  1 26  1  0
  1 27  1  0
  3 28  1  0
  3 29  1  0
  4 30  1  0
  4 31  1  0
  5 32  1  0
  5 33  1  0
  6 34  1  0
 12 35  1  0
 14 36  1  0
 16 37  1  0
 17 38  1  0
 23 39  1  0
M  CHG  1  12  -1
M  END
>  <UniqueID>  (78) 
78

>  <SMILES>  (78) 
COCCCNC(=O)n1c(C([NH-])=O)cc2ccc(C(F)(F)F)cc21

>  <Energy>  (78) 
72.96971997177366

>  <Genealogy>  (78) 
COCCCNC(=O)n1c(C([NH-])=O)cc2ccc(C(F)(F)F)cc21 (protonated)
COCCCNC(=O)n1c(C([NH-])=O)cc2ccc(C(F)(F)F)cc21 (3D coordinates assigned)
COCCCNC(=O)n1c(C([NH-])=O)cc2ccc(C(F)(F)F)cc21 (optimized conformer: 72.96971997177366 kcal/mol)

>  <smiles>  (78) 
COCCCNC(=O)n1c(C(N)=O)cc2ccc(C(F)(F)F)cc21

>  <score_type>  (78) 
oracle

>  <origin>  (78) 
adg

>  <m_score__min__energy>  (78) 
-9.9600000000000009

>  <m_primary>  (78) 
energy

$$$$
78:0
     RDKit          3D

 44 45  0  0  0  0  0  0  0  0999 V2000
   -5.7990   18.6820  -34.5800 C   0  0  0  0  0  0  0  0  0  0  0  0
   -6.1160   18.0270  -33.2270 C   0  0  0  0  0  0  0  0  0  0  0  0
   -6.0170   16.5020  -33.3480 C   0  0  0  0  0  0  0  0  0  0  0  0
   -7.5150   18.4310  -32.7130 C   0  0  0  0  0  0  0  0  0  0  0  0
   -7.5610   19.8690  -32.2650 C   0  0  0  0  0  0  0  0  0  0  0  0
   -8.7970   20.5620  -32.2050 C   0  0  0  0  0  0  0  0  0  0  0  0
   -8.8420   21.9120  -31.8190 C   0  0  0  0  0  0  0  0  0  0  0  0
   -7.6420   22.5400  -31.4960 C   0  0  0  0  0  0  0  0  0  0  0  0
   -7.3930   23.8420  -31.1240 C   0  0  0  0  0  0  0  0  0  0  0  0
   -6.0110   23.9180  -30.9500 C   0  0  0  0  0  0  0  0  0  0  0  0
   -5.3090   25.1390  -30.5000 C   0  0  0  0  0  0  0  0  0  0  0  0
   -3.8980   25.2730  -30.6520 N   0  0  0  0  0  0  0  0  0  0  0  0
   -5.9590   26.0640  -29.9440 O   0  0  0  0  0  0  0  0  0  0  0  0
   -5.4320   22.7120  -31.2040 N   0  0  0  0  0  0  0  0  0  0  0  0
   -4.0330   22.3930  -31.2170 C   0  0  0  0  0  0  0  0  0  0  0  0
   -3.4450   22.2340  -32.3200 O   0  0  0  0  0  0  0  0  0  0  0  0
   -3.2830   22.2580  -29.9500 C   0  0  0  0  0  0  0  0  0  0  0  0
   -2.7060   21.1620  -29.7000 O   0  0  0  0  0  0  0  0  0  0  0  0
   -3.2410   23.3350  -28.9840 N   0  0  0  0  0  0  0  0  0  0  0  0
   -1.8660   23.5380  -28.4990 C   0  0  0  0  0  0  0  0  0  0  0  0
   -4.1500   23.0380  -27.8660 C   0  0  0  0  0  0  0  0  0  0  0  0
   -6.4420   21.8810  -31.5400 C   0  0  0  0  0  0  0  0  0  0  0  0
   -6.3630   20.5420  -31.9380 C   0  0  0  0  0  0  0  0  0  0  0  0
   -5.3254   19.6605  -34.4117 H   0  0  0  0  0  0  0  0  0  0  0  0
   -5.1138   18.0360  -35.1485 H   0  0  0  0  0  0  0  0  0  0  0  0
   -6.7307   18.8185  -35.1485 H   0  0  0  0  0  0  0  0  0  0  0  0
   -5.3757   18.3847  -32.4963 H   0  0  0  0  0  0  0  0  0  0  0  0
   -5.9880   16.0556  -32.3431 H   0  0  0  0  0  0  0  0  0  0  0  0
   -6.8922   16.1199  -33.8939 H   0  0  0  0  0  0  0  0  0  0  0  0
   -5.0997   16.2363  -33.8939 H   0  0  0  0  0  0  0  0  0  0  0  0
   -8.2453   18.2884  -33.5231 H   0  0  0  0  0  0  0  0  0  0  0  0
   -7.7527   17.7982  -31.8452 H   0  0  0  0  0  0  0  0  0  0  0  0
   -9.7289   20.0376  -32.4631 H   0  0  0  0  0  0  0  0  0  0  0  0
   -9.7966   22.4566  -31.7733 H   0  0  0  0  0  0  0  0  0  0  0  0
   -8.1274   24.6502  -30.9921 H   0  0  0  0  0  0  0  0  0  0  0  0
   -3.4910   26.0450  -31.2240 H   0  0  0  0  0  0  0  0  0  0  0  0
   -3.5510   24.2310  -29.4270 H   0  0  0  0  0  0  0  0  0  0  0  0
   -1.8615   23.5387  -27.3990 H   0  0  0  0  0  0  0  0  0  0  0  0
   -1.2233   22.7250  -28.8678 H   0  0  0  0  0  0  0  0  0  0  0  0
   -1.4857   24.5020  -28.8678 H   0  0  0  0  0  0  0  0  0  0  0  0
   -3.6274   23.2087  -26.9132 H   0  0  0  0  0  0  0  0  0  0  0  0
   -5.0301   23.6953  -27.9244 H   0  0  0  0  0  0  0  0  0  0  0  0
   -4.4722   21.9879  -27.9244 H   0  0  0  0  0  0  0  0  0  0  0  0
   -5.3929   20.0266  -31.9948 H   0  0  0  0  0  0  0  0  0  0  0  0
  1  2  1  0
  2  3  1  0
  2  4  1  0
  4  5  1  0
  5  6  2  0
  6  7  1  0
  7  8  2  0
  8  9  1  0
  9 10  2  0
 10 11  1  0
 11 12  1  0
 11 13  2  0
 10 14  1  0
 14 15  1  0
 15 16  2  0
 15 17  1  0
 17 18  2  0
 17 19  1  0
 19 20  1  0
 19 21  1  0
 14 22  1  0
 22 23  2  0
 23  5  1  0
 22  8  1  0
  1 24  1  0
  1 25  1  0
  1 26  1  0
  2 27  1  0
  3 28  1  0
  3 29  1  0
  3 30  1  0
  4 31  1  0
  4 32  1  0
  6 33  1  0
  7 34  1  0
  9 35  1  0
 12 36  1  0
 19 37  1  0
 20 38  1  0
 20 39  1  0
 20 40  1  0
 21 41  1  0
 21 42  1  0
 21 43  1  0
 23 44  1  0
M  CHG  2  12  -1  19   1
M  END
>  <UniqueID>  (79) 
79

>  <SMILES>  (79) 
CC(C)Cc1ccc2cc(C([NH-])=O)n(C(=O)C(=O)[NH+](C)C)c2c1

>  <Energy>  (79) 
77.58586382921148

>  <Genealogy>  (79) 
CC(C)Cc1ccc2cc(C([NH-])=O)n(C(=O)C(=O)[NH+](C)C)c2c1 (protonated)
CC(C)Cc1ccc2cc(C([NH-])=O)n(C(=O)C(=O)[NH+](C)C)c2c1 (3D coordinates assigned)
CC(C)Cc1ccc2cc(C([NH-])=O)n(C(=O)C(=O)[NH+](C)C)c2c1 (optimized conformer: 77.58586382921148 kcal/mol)

>  <smiles>  (79) 
CC(C)Cc1ccc2cc(C(N)=O)n(C(=O)C(=O)N(C)C)c2c1

>  <score_type>  (79) 
oracle

>  <origin>  (79) 
adg

>  <m_score__min__energy>  (79) 
-9.6300000000000008

>  <m_primary>  (79) 
energy

$$$$
79:0
     RDKit          3D

 53 55  0  0  0  0  0  0  0  0999 V2000
   -4.1870   23.3710  -27.8350 C   0  0  0  0  0  0  0  0  0  0  0  0
   -2.9150   22.6390  -28.2670 C   0  0  1  0  0  0  0  0  0  0  0  0
   -3.1210   21.9490  -29.4990 O   0  0  0  0  0  0  0  0  0  0  0  0
   -3.4900   22.5840  -30.6900 C   0  0  0  0  0  0  0  0  0  0  0  0
   -2.6160   23.0730  -31.4560 O   0  0  0  0  0  0  0  0  0  0  0  0
   -4.8760   22.6710  -31.0440 N   0  0  0  0  0  0  0  0  0  0  0  0
   -5.6920   23.7610  -30.9830 C   0  0  0  0  0  0  0  0  0  0  0  0
   -5.3380   25.0810  -30.4220 C   0  0  0  0  0  0  0  0  0  0  0  0
   -4.0650   25.6710  -30.6740 N   0  0  0  0  0  0  0  0  0  0  0  0
   -6.1580   25.6840  -29.6780 O   0  0  0  0  0  0  0  0  0  0  0  0
   -6.9610   23.4440  -31.4650 C   0  0  0  0  0  0  0  0  0  0  0  0
   -6.8960   22.1160  -31.8210 C   0  0  0  0  0  0  0  0  0  0  0  0
   -7.8680   21.2850  -32.3700 C   0  0  0  0  0  0  0  0  0  0  0  0
   -7.5090   19.9610  -32.6710 C   0  0  0  0  0  0  0  0  0  0  0  0
   -6.1890   19.4940  -32.4360 C   0  0  0  0  0  0  0  0  0  0  0  0
   -5.8310   18.1360  -32.7590 N   0  0  0  0  0  0  0  0  0  0  0  0
   -6.8740   17.1520  -33.0720 C   0  0  0  0  0  0  0  0  0  0  0  0
   -6.2850   15.9460  -33.8230 C   0  0  2  0  0  0  0  0  0  0  0  0
   -5.7980   15.0110  -32.9220 F   0  0  0  0  0  0  0  0  0  0  0  0
   -5.2130   16.3850  -34.7310 N   0  0  0  0  0  0  0  0  0  0  0  0
   -4.0500   16.9600  -34.0170 C   0  0  1  0  0  0  0  0  0  0  0  0
   -3.3890   17.8420  -34.8570 F   0  0  0  0  0  0  0  0  0  0  0  0
   -4.4340   17.6900  -32.7130 C   0  0  0  0  0  0  0  0  0  0  0  0
   -5.2340   20.3680  -31.8680 C   0  0  0  0  0  0  0  0  0  0  0  0
   -5.6270   21.6740  -31.5580 C   0  0  0  0  0  0  0  0  0  0  0  0
   -1.7520   23.6020  -28.3750 C   0  0  0  0  0  0  0  0  0  0  0  0
   -1.8950   24.6070  -29.1240 O   0  0  0  0  0  0  0  0  0  0  0  0
   -0.4770   23.3870  -27.7220 N   0  0  0  0  0  0  0  0  0  0  0  0
   -0.3310   22.4720  -26.5840 C   0  0  0  0  0  0  0  0  0  0  0  0
    0.6840   24.1540  -28.1870 C   0  0  0  0  0  0  0  0  0  0  0  0
   -4.2380   23.4004  -26.7366 H   0  0  0  0  0  0  0  0  0  0  0  0
   -4.1708   24.3979  -28.2289 H   0  0  0  0  0  0  0  0  0  0  0  0
   -5.0668   22.8410  -28.2289 H   0  0  0  0  0  0  0  0  0  0  0  0
   -2.6698   21.8934  -27.4963 H   0  0  0  0  0  0  0  0  0  0  0  0
   -3.2130   25.0800  -30.7920 H   0  0  0  0  0  0  0  0  0  0  0  0
   -7.8303   24.1134  -31.5441 H   0  0  0  0  0  0  0  0  0  0  0  0
   -8.8863   21.6539  -32.5623 H   0  0  0  0  0  0  0  0  0  0  0  0
   -8.2598   19.2774  -33.0941 H   0  0  0  0  0  0  0  0  0  0  0  0
   -7.3328   16.8034  -32.1350 H   0  0  0  0  0  0  0  0  0  0  0  0
   -7.6274   17.6315  -33.7143 H   0  0  0  0  0  0  0  0  0  0  0  0
   -7.0824   15.4787  -34.4195 H   0  0  0  0  0  0  0  0  0  0  0  0
   -4.8930   15.5640  -35.2960 H   0  0  0  0  0  0  0  0  0  0  0  0
   -5.6020   17.0950  -35.3960 H   0  0  0  0  0  0  0  0  0  0  0  0
   -3.4002   16.1189  -33.7334 H   0  0  0  0  0  0  0  0  0  0  0  0
   -4.3019   17.0042  -31.8632 H   0  0  0  0  0  0  0  0  0  0  0  0
   -3.7857   18.5711  -32.5975 H   0  0  0  0  0  0  0  0  0  0  0  0
   -4.2057   20.0288  -31.6743 H   0  0  0  0  0  0  0  0  0  0  0  0
   -0.4212   23.0376  -25.6449 H   0  0  0  0  0  0  0  0  0  0  0  0
   -1.1181   21.7048  -26.6271 H   0  0  0  0  0  0  0  0  0  0  0  0
    0.6558   21.9878  -26.6271 H   0  0  0  0  0  0  0  0  0  0  0  0
    1.2484   24.5269  -27.3196 H   0  0  0  0  0  0  0  0  0  0  0  0
    1.3321   23.5057  -28.7950 H   0  0  0  0  0  0  0  0  0  0  0  0
    0.3420   25.0045  -28.7950 H   0  0  0  0  0  0  0  0  0  0  0  0
  1  2  1  0
  2  3  1  0
  3  4  1  0
  4  5  2  0
  4  6  1  0
  6  7  1  0
  7  8  1  0
  8  9  1  0
  8 10  2  0
  7 11  2  0
 11 12  1  0
 12 13  2  0
 13 14  1  0
 14 15  2  0
 15 16  1  0
 16 17  1  0
 17 18  1  0
 18 19  1  0
 18 20  1  0
 20 21  1  0
 21 22  1  0
 21 23  1  0
 15 24  1  0
 24 25  2  0
  2 26  1  0
 26 27  2  0
 26 28  1  0
 28 29  1  0
 28 30  1  0
 25  6  1  0
 25 12  1  0
 23 16  1  0
  1 31  1  0
  1 32  1  0
  1 33  1  0
  2 34  1  1
  9 35  1  0
 11 36  1  0
 13 37  1  0
 14 38  1  0
 17 39  1  0
 17 40  1  0
 18 41  1  6
 20 42  1  0
 20 43  1  0
 21 44  1  1
 23 45  1  0
 23 46  1  0
 24 47  1  0
 29 48  1  0
 29 49  1  0
 29 50  1  0
 30 51  1  0
 30 52  1  0
 30 53  1  0
M  CHG  2   9  -1  20   1
M  END
>  <UniqueID>  (80) 
80

>  <SMILES>  (80) 
C[C@@H](OC(=O)n1c(C([NH-])=O)cc2ccc(N3CC(F)[NH2+][C@@H](F)C3)cc21)C(=O)N(C)C

>  <Energy>  (80) 
96.52483967869891

>  <Genealogy>  (80) 
CC(OC(=O)n1c(C([NH-])=O)cc2ccc(N3CC(F)[NH2+]C(F)C3)cc21)C(=O)N(C)C (protonated)
C[C@@H](OC(=O)n1c(C([NH-])=O)cc2ccc(N3CC(F)[NH2+][C@@H](F)C3)cc21)C(=O)N(C)C (chirality)
C[C@@H](OC(=O)n1c(C([NH-])=O)cc2ccc(N3CC(F)[NH2+][C@@H](F)C3)cc21)C(=O)N(C)C (3D coordinates assigned)
C[C@@H](OC(=O)n1c(C([NH-])=O)cc2ccc(N3CC(F)[NH2+][C@@H](F)C3)cc21)C(=O)N(C)C (nonaromatic ring conformer: 96.52483967869891 kcal/mol)

>  <smiles>  (80) 
CC(OC(=O)n1c(C(N)=O)cc2ccc(N3CC(F)NC(F)C3)cc21)C(=O)N(C)C

>  <score_type>  (80) 
oracle

>  <origin>  (80) 
adg

>  <m_score__min__energy>  (80) 
-10.57

>  <m_primary>  (80) 
energy

$$$$
80:0
     RDKit          3D

 32 33  0  0  0  0  0  0  0  0999 V2000
   -3.8680   25.5030  -30.8450 N   0  0  0  0  0  0  0  0  0  0  0  0
   -5.2540   25.2480  -30.6390 C   0  0  0  0  0  0  0  0  0  0  0  0
   -5.9610   26.1130  -30.0550 O   0  0  0  0  0  0  0  0  0  0  0  0
   -5.8610   23.9650  -31.0490 C   0  0  0  0  0  0  0  0  0  0  0  0
   -7.2170   23.8130  -31.3310 C   0  0  0  0  0  0  0  0  0  0  0  0
   -7.3910   22.4710  -31.5760 C   0  0  0  0  0  0  0  0  0  0  0  0
   -8.5390   21.7660  -31.9270 C   0  0  0  0  0  0  0  0  0  0  0  0
   -8.4210   20.3850  -32.1550 C   0  0  0  0  0  0  0  0  0  0  0  0
   -7.1690   19.7320  -32.0200 C   0  0  0  0  0  0  0  0  0  0  0  0
   -7.0430   18.2610  -32.3290 C   0  0  0  0  0  0  0  0  0  0  0  0
   -6.4600   18.0700  -33.5700 F   0  0  0  0  0  0  0  0  0  0  0  0
   -8.3010   17.6880  -32.3280 F   0  0  0  0  0  0  0  0  0  0  0  0
   -6.2590   17.6280  -31.3800 F   0  0  0  0  0  0  0  0  0  0  0  0
   -6.0210   20.4880  -31.6860 C   0  0  0  0  0  0  0  0  0  0  0  0
   -6.1720   21.8590  -31.4460 C   0  0  0  0  0  0  0  0  0  0  0  0
   -5.2210   22.7630  -31.1270 N   0  0  0  0  0  0  0  0  0  0  0  0
   -3.8160   22.5030  -30.9850 C   0  0  0  0  0  0  0  0  0  0  0  0
   -3.0400   22.6890  -31.9610 O   0  0  0  0  0  0  0  0  0  0  0  0
   -3.3210   22.0170  -29.7690 O   0  0  0  0  0  0  0  0  0  0  0  0
   -3.6170   22.6080  -28.5060 C   0  0  0  0  0  0  0  0  0  0  0  0
   -2.9230   23.9640  -28.3630 C   0  0  0  0  0  0  0  0  0  0  0  0
   -1.9990   24.1560  -29.3990 O   0  0  0  0  0  0  0  0  0  0  0  0
   -3.2110   24.7330  -31.1010 H   0  0  0  0  0  0  0  0  0  0  0  0
   -7.9855   24.5997  -31.3530 H   0  0  0  0  0  0  0  0  0  0  0  0
   -9.5093   22.2751  -32.0229 H   0  0  0  0  0  0  0  0  0  0  0  0
   -9.3096   19.8033  -32.4415 H   0  0  0  0  0  0  0  0  0  0  0  0
   -5.0328   20.0099  -31.6165 H   0  0  0  0  0  0  0  0  0  0  0  0
   -4.7045   22.7490  -28.4201 H   0  0  0  0  0  0  0  0  0  0  0  0
   -3.2527   21.9406  -27.7111 H   0  0  0  0  0  0  0  0  0  0  0  0
   -3.6786   24.7626  -28.3996 H   0  0  0  0  0  0  0  0  0  0  0  0
   -2.3889   23.9898  -27.4017 H   0  0  0  0  0  0  0  0  0  0  0  0
   -2.4740   23.9440  -30.2450 H   0  0  0  0  0  0  0  0  0  0  0  0
  1  2  1  0
  2  3  2  0
  2  4  1  0
  4  5  2  0
  5  6  1  0
  6  7  2  0
  7  8  1  0
  8  9  2  0
  9 10  1  0
 10 11  1  0
 10 12  1  0
 10 13  1  0
  9 14  1  0
 14 15  2  0
 15 16  1  0
 16 17  1  0
 17 18  2  0
 17 19  1  0
 19 20  1  0
 20 21  1  0
 21 22  1  0
 16  4  1  0
 15  6  1  0
  1 23  1  0
  5 24  1  0
  7 25  1  0
  8 26  1  0
 14 27  1  0
 20 28  1  0
 20 29  1  0
 21 30  1  0
 21 31  1  0
 22 32  1  0
M  CHG  1   1  -1
M  END
>  <UniqueID>  (81) 
81

>  <SMILES>  (81) 
[NH-]C(=O)c1cc2ccc(C(F)(F)F)cc2n1C(=O)OCCO

>  <Energy>  (81) 
68.52422551579517

>  <Genealogy>  (81) 
[NH-]C(=O)c1cc2ccc(C(F)(F)F)cc2n1C(=O)OCCO (protonated)
[NH-]C(=O)c1cc2ccc(C(F)(F)F)cc2n1C(=O)OCCO (3D coordinates assigned)
[NH-]C(=O)c1cc2ccc(C(F)(F)F)cc2n1C(=O)OCCO (optimized conformer: 68.52422551579517 kcal/mol)

>  <smiles>  (81) 
NC(=O)c1cc2ccc(C(F)(F)F)cc2n1C(=O)OCCO

>  <score_type>  (81) 
oracle

>  <origin>  (81) 
adg

>  <m_score__min__energy>  (81) 
-9.5199999999999996

>  <m_primary>  (81) 
energy

$$$$
81:0
     RDKit          3D

 68 72  0  0  0  0  0  0  0  0999 V2000
   -7.2510   15.4530  -34.2460 C   0  0  0  0  0  0  0  0  0  0  0  0
   -5.9530   16.0590  -33.7560 C   0  0  0  0  0  0  0  0  0  0  0  0
   -4.8100   15.1250  -33.5400 C   0  0  0  0  0  0  0  0  0  0  0  0
   -4.1000   15.2000  -32.4990 O   0  0  0  0  0  0  0  0  0  0  0  0
   -4.4760   14.1900  -34.5180 O   0  0  0  0  0  0  0  0  0  0  0  0
   -5.8510   17.3520  -33.4530 N   0  0  0  0  0  0  0  0  0  0  0  0
   -6.9150   18.0390  -32.8950 C   0  0  0  0  0  0  0  0  0  0  0  0
   -7.9720   17.4300  -32.5560 O   0  0  0  0  0  0  0  0  0  0  0  0
   -6.8250   19.4200  -32.6280 C   0  0  0  0  0  0  0  0  0  0  0  0
   -7.9380   20.1500  -32.1530 C   0  0  0  0  0  0  0  0  0  0  0  0
   -7.8300   21.5140  -31.8820 C   0  0  0  0  0  0  0  0  0  0  0  0
   -6.6170   22.1710  -32.0620 C   0  0  0  0  0  0  0  0  0  0  0  0
   -5.4930   21.4650  -32.5160 C   0  0  0  0  0  0  0  0  0  0  0  0
   -4.2750   22.1240  -32.6890 C   0  0  0  0  0  0  0  0  0  0  0  0
   -3.1530   21.4240  -33.1160 C   0  0  0  0  0  0  0  0  0  0  0  0
   -3.2240   20.0530  -33.4000 C   0  0  0  0  0  0  0  0  0  0  0  0
   -1.9530   19.3550  -33.6850 C   0  0  0  0  0  0  0  0  0  0  0  0
   -1.5820   18.4010  -32.9470 O   0  0  0  0  0  0  0  0  0  0  0  0
   -1.2050   19.7310  -34.8080 O   0  0  0  0  0  0  0  0  0  0  0  0
   -0.0270   19.1060  -35.2360 C   0  0  0  0  0  0  0  0  0  0  0  0
   -0.0370   17.9290  -35.6880 O   0  0  0  0  0  0  0  0  0  0  0  0
    1.2720   19.8370  -35.0760 C   0  0  0  0  0  0  0  0  0  0  0  0
    1.2400   20.8730  -33.9400 C   0  0  0  0  0  0  0  0  0  0  0  0
    0.8960   20.3540  -32.5540 C   0  0  0  0  0  0  0  0  0  0  0  0
    1.3500   19.0520  -32.2130 C   0  0  0  0  0  0  0  0  0  0  0  0
    1.0380   18.4800  -30.9710 C   0  0  0  0  0  0  0  0  0  0  0  0
    0.2890   19.2360  -30.0750 C   0  0  0  0  0  0  0  0  0  0  0  0
   -0.1740   18.9120  -28.8200 C   0  0  0  0  0  0  0  0  0  0  0  0
   -0.8740   20.0340  -28.3860 C   0  0  0  0  0  0  0  0  0  0  0  0
   -1.4660   20.1450  -27.0340 C   0  0  0  0  0  0  0  0  0  0  0  0
   -1.3530   21.3550  -26.2830 N   0  0  0  0  0  0  0  0  0  0  0  0
   -2.0240   19.1410  -26.5140 O   0  0  0  0  0  0  0  0  0  0  0  0
   -0.8580   21.0110  -29.3380 N   0  0  0  0  0  0  0  0  0  0  0  0
   -1.5390   22.2780  -29.3070 C   0  0  0  0  0  0  0  0  0  0  0  0
   -1.0150   23.2610  -28.7200 O   0  0  0  0  0  0  0  0  0  0  0  0
   -2.7690   22.4200  -29.9660 O   0  0  0  0  0  0  0  0  0  0  0  0
   -3.7790   23.3400  -29.5490 C   0  0  1  0  0  0  0  0  0  0  0  0
   -4.0160   23.1690  -28.0520 C   0  0  0  0  0  0  0  0  0  0  0  0
   -3.3570   24.7510  -29.8580 C   0  0  0  0  0  0  0  0  0  0  0  0
   -2.3710   25.2600  -29.2650 O   0  0  0  0  0  0  0  0  0  0  0  0
   -4.0360   25.4870  -30.8260 O   0  0  0  0  0  0  0  0  0  0  0  0
   -0.1430   20.5040  -30.3710 C   0  0  0  0  0  0  0  0  0  0  0  0
    0.1120   21.0820  -31.6220 C   0  0  0  0  0  0  0  0  0  0  0  0
   -4.4770   19.3720  -33.2950 C   0  0  0  0  0  0  0  0  0  0  0  0
   -4.6740   18.0330  -33.7230 C   0  0  0  0  0  0  0  0  0  0  0  0
   -3.7970   17.4940  -34.4570 O   0  0  0  0  0  0  0  0  0  0  0  0
   -5.5950   20.0830  -32.8120 C   0  0  0  0  0  0  0  0  0  0  0  0
   -7.8695   15.1642  -33.3834 H   0  0  0  0  0  0  0  0  0  0  0  0
   -7.7932   16.1911  -34.8553 H   0  0  0  0  0  0  0  0  0  0  0  0
   -7.0333   14.5634  -34.8553 H   0  0  0  0  0  0  0  0  0  0  0  0
   -8.8986   19.6377  -31.9955 H   0  0  0  0  0  0  0  0  0  0  0  0
   -8.7076   22.0725  -31.5245 H   0  0  0  0  0  0  0  0  0  0  0  0
   -6.5390   23.2471  -31.8477 H   0  0  0  0  0  0  0  0  0  0  0  0
   -4.2028   23.2028  -32.4864 H   0  0  0  0  0  0  0  0  0  0  0  0
   -2.1957   21.9531  -33.2328 H   0  0  0  0  0  0  0  0  0  0  0  0
    2.0630   19.1038  -34.8601 H   0  0  0  0  0  0  0  0  0  0  0  0
    1.4623   20.3807  -36.0131 H   0  0  0  0  0  0  0  0  0  0  0  0
    2.2354   21.3379  -33.8845 H   0  0  0  0  0  0  0  0  0  0  0  0
    0.4248   21.5638  -34.2011 H   0  0  0  0  0  0  0  0  0  0  0  0
    1.9556   18.4835  -32.9342 H   0  0  0  0  0  0  0  0  0  0  0  0
    1.3751   17.4651  -30.7134 H   0  0  0  0  0  0  0  0  0  0  0  0
   -0.0230   17.9679  -28.2761 H   0  0  0  0  0  0  0  0  0  0  0  0
   -1.2780   22.2780  -26.7600 H   0  0  0  0  0  0  0  0  0  0  0  0
   -4.7133   23.1362  -30.0927 H   0  0  0  0  0  0  0  0  0  0  0  0
   -3.2475   23.7235  -27.4934 H   0  0  0  0  0  0  0  0  0  0  0  0
   -5.0112   23.5585  -27.7915 H   0  0  0  0  0  0  0  0  0  0  0  0
   -3.9602   22.1018  -27.7915 H   0  0  0  0  0  0  0  0  0  0  0  0
   -0.2859   22.0758  -31.8752 H   0  0  0  0  0  0  0  0  0  0  0  0
  1  2  1  0
  2  3  1  0
  3  4  2  0
  3  5  1  0
  2  6  2  3
  6  7  1  0
  7  8  2  0
  7  9  1  0
  9 10  2  0
 10 11  1  0
 11 12  2  0
 12 13  1  0
 13 14  1  0
 14 15  2  0
 15 16  1  0
 16 17  1  0
 17 18  2  0
 17 19  1  0
 19 20  1  0
 20 21  2  0
 20 22  1  0
 22 23  1  0
 23 24  1  0
 24 25  2  0
 25 26  1  0
 26 27  2  0
 27 28  1  0
 28 29  2  0
 29 30  1  0
 30 31  1  0
 30 32  2  0
 29 33  1  0
 33 34  1  0
 34 35  2  0
 34 36  1  0
 36 37  1  0
 37 38  1  0
 37 39  1  0
 39 40  2  0
 39 41  1  0
 33 42  1  0
 42 43  2  0
 16 44  2  0
 44 45  1  0
 45 46  2  0
 44 47  1  0
 45  6  1  0
 47  9  1  0
 47 13  2  0
 43 24  1  0
 42 27  1  0
  1 48  1  0
  1 49  1  0
  1 50  1  0
 10 51  1  0
 11 52  1  0
 12 53  1  0
 14 54  1  0
 15 55  1  0
 22 56  1  0
 22 57  1  0
 23 58  1  0
 23 59  1  0
 25 60  1  0
 26 61  1  0
 28 62  1  0
 31 63  1  0
 37 64  1  6
 38 65  1  0
 38 66  1  0
 38 67  1  0
 43 68  1  0
M  CHG  4   5  -1   6   1  31  -1  41  -1
M  END
>  <UniqueID>  (82) 
82

>  <SMILES>  (82) 
CC(C(=O)[O-])=[n+]1c(=O)c2cccc3ccc(C(=O)OC(=O)CCc4ccc5cc(C([NH-])=O)n(C(=O)O[C@@H](C)C(=O)[O-])c5c4)c(c1=O)c32

>  <Energy>  (82) 
157.65228493328286

>  <Genealogy>  (82) 
CC(C(=O)[O-])=[n+]1c(=O)c2cccc3ccc(C(=O)OC(=O)CCc4ccc5cc(C([NH-])=O)n(C(=O)OC(C)C(=O)[O-])c5c4)c(c1=O)c32 (protonated)
CC(C(=O)[O-])=[n+]1c(=O)c2cccc3ccc(C(=O)OC(=O)CCc4ccc5cc(C([NH-])=O)n(C(=O)O[C@@H](C)C(=O)[O-])c5c4)c(c1=O)c32 (chirality)
CC(C(=O)[O-])=[n+]1c(=O)c2cccc3ccc(C(=O)OC(=O)CCc4ccc5cc(C([NH-])=O)n(C(=O)O[C@@H](C)C(=O)[O-])c5c4)c(c1=O)c32 (3D coordinates assigned)
CC(C(=O)[O-])=[n+]1c(=O)c2cccc3ccc(C(=O)OC(=O)CCc4ccc5cc(C([NH-])=O)n(C(=O)O[C@@H](C)C(=O)[O-])c5c4)c(c1=O)c32 (optimized conformer: 157.65228493328286 kcal/mol)

>  <smiles>  (82) 
CC(C(=O)O)=[n+]1c(=O)c2cccc3ccc(C(=O)OC(=O)CCc4ccc5cc(C(N)=O)n(C(=O)OC(C)C(=O)O)c5c4)c(c1=O)c32

>  <score_type>  (82) 
oracle

>  <origin>  (82) 
adg

>  <m_score__min__energy>  (82) 
-14.06

>  <m_primary>  (82) 
energy

$$$$
82:0
     RDKit          3D

 31 32  0  0  0  0  0  0  0  0999 V2000
   -6.4970   18.2710  -33.2150 C   0  0  0  0  0  0  0  0  0  0  0  0
   -6.7860   19.6490  -32.7000 C   0  0  0  0  0  0  0  0  0  0  0  0
   -8.1270   20.0580  -32.5020 C   0  0  0  0  0  0  0  0  0  0  0  0
   -8.4160   21.3280  -31.9760 C   0  0  0  0  0  0  0  0  0  0  0  0
   -7.3490   22.1630  -31.6620 C   0  0  0  0  0  0  0  0  0  0  0  0
   -7.3470   23.4170  -31.0980 C   0  0  0  0  0  0  0  0  0  0  0  0
   -6.0040   23.7620  -30.9760 C   0  0  0  0  0  0  0  0  0  0  0  0
   -5.5470   25.0660  -30.4570 C   0  0  0  0  0  0  0  0  0  0  0  0
   -4.1940   25.4930  -30.6280 N   0  0  0  0  0  0  0  0  0  0  0  0
   -6.3740   25.8380  -29.9020 O   0  0  0  0  0  0  0  0  0  0  0  0
   -5.2030   22.7600  -31.4330 N   0  0  0  0  0  0  0  0  0  0  0  0
   -3.7690   22.6840  -31.3430 C   0  0  0  0  0  0  0  0  0  0  0  0
   -3.0970   22.2410  -32.3140 O   0  0  0  0  0  0  0  0  0  0  0  0
   -3.1250   23.0950  -30.1690 O   0  0  0  0  0  0  0  0  0  0  0  0
   -1.7100   23.0490  -29.9940 C   0  0  0  0  0  0  0  0  0  0  0  0
   -1.2160   24.2900  -29.3210 C   0  0  0  0  0  0  0  0  0  0  0  0
   -0.0810   24.3080  -28.7750 O   0  0  0  0  0  0  0  0  0  0  0  0
   -1.9970   25.4400  -29.3190 O   0  0  0  0  0  0  0  0  0  0  0  0
   -6.0430   21.7840  -31.8520 C   0  0  0  0  0  0  0  0  0  0  0  0
   -5.7260   20.5140  -32.3510 C   0  0  0  0  0  0  0  0  0  0  0  0
   -6.3532   17.5853  -32.3670 H   0  0  0  0  0  0  0  0  0  0  0  0
   -7.3419   17.9240  -33.8279 H   0  0  0  0  0  0  0  0  0  0  0  0
   -5.5839   18.2927  -33.8279 H   0  0  0  0  0  0  0  0  0  0  0  0
   -8.9494   19.3755  -32.7623 H   0  0  0  0  0  0  0  0  0  0  0  0
   -9.4550   21.6524  -31.8172 H   0  0  0  0  0  0  0  0  0  0  0  0
   -8.2201   24.0189  -30.8057 H   0  0  0  0  0  0  0  0  0  0  0  0
   -3.5310   24.9440  -31.2170 H   0  0  0  0  0  0  0  0  0  0  0  0
   -3.8700   26.3920  -30.2070 H   0  0  0  0  0  0  0  0  0  0  0  0
   -1.4515   22.1766  -29.3759 H   0  0  0  0  0  0  0  0  0  0  0  0
   -1.2353   22.9724  -30.9833 H   0  0  0  0  0  0  0  0  0  0  0  0
   -4.6786   20.1989  -32.4679 H   0  0  0  0  0  0  0  0  0  0  0  0
  1  2  1  0
  2  3  2  0
  3  4  1  0
  4  5  2  0
  5  6  1  0
  6  7  2  0
  7  8  1  0
  8  9  1  0
  8 10  2  0
  7 11  1  0
 11 12  1  0
 12 13  2  0
 12 14  1  0
 14 15  1  0
 15 16  1  0
 16 17  2  0
 16 18  1  0
 11 19  1  0
 19 20  2  0
 20  2  1  0
 19  5  1  0
  1 21  1  0
  1 22  1  0
  1 23  1  0
  3 24  1  0
  4 25  1  0
  6 26  1  0
  9 27  1  0
  9 28  1  0
 15 29  1  0
 15 30  1  0
 20 31  1  0
M  CHG  1  18  -1
M  END
>  <UniqueID>  (83) 
83

>  <SMILES>  (83) 
Cc1ccc2cc(C(N)=O)n(C(=O)OCC(=O)[O-])c2c1

>  <Energy>  (83) 
67.66300807575595

>  <Genealogy>  (83) 
Cc1ccc2cc(C(N)=O)n(C(=O)OCC(=O)[O-])c2c1 (protonated)
Cc1ccc2cc(C(N)=O)n(C(=O)OCC(=O)[O-])c2c1 (3D coordinates assigned)
Cc1ccc2cc(C(N)=O)n(C(=O)OCC(=O)[O-])c2c1 (optimized conformer: 67.66300807575595 kcal/mol)

>  <smiles>  (83) 
Cc1ccc2cc(C(N)=O)n(C(=O)OCC(=O)O)c2c1

>  <score_type>  (83) 
oracle

>  <origin>  (83) 
adg

>  <m_score__min__energy>  (83) 
-9.9700000000000006

>  <m_primary>  (83) 
energy

$$$$
83:0
     RDKit          3D

 45 47  0  0  0  0  0  0  0  0999 V2000
   -6.8080   17.6480  -32.7050 C   0  0  0  0  0  0  0  0  0  0  0  0
   -6.3800   19.1340  -32.7380 C   0  0  1  0  0  0  0  0  0  0  0  0
   -5.1650   19.2700  -33.7050 C   0  0  0  0  0  0  0  0  0  0  0  0
   -3.9690   19.8900  -33.0260 C   0  0  0  0  0  0  0  0  0  0  0  0
   -2.6650   19.3820  -33.2550 C   0  0  0  0  0  0  0  0  0  0  0  0
   -1.5540   19.9450  -32.6070 C   0  0  0  0  0  0  0  0  0  0  0  0
   -1.7740   21.0150  -31.7450 C   0  0  0  0  0  0  0  0  0  0  0  0
   -0.8870   21.7250  -30.9660 C   0  0  0  0  0  0  0  0  0  0  0  0
   -1.6610   22.6650  -30.2880 C   0  0  0  0  0  0  0  0  0  0  0  0
   -1.1050   23.6730  -29.3600 C   0  0  0  0  0  0  0  0  0  0  0  0
   -1.6630   24.9840  -29.3200 N   0  0  0  0  0  0  0  0  0  0  0  0
   -0.1530   23.3830  -28.5890 O   0  0  0  0  0  0  0  0  0  0  0  0
   -2.9720   22.5440  -30.6380 N   0  0  0  0  0  0  0  0  0  0  0  0
   -4.0900   23.2830  -30.1190 C   0  0  0  0  0  0  0  0  0  0  0  0
   -4.6180   22.9290  -29.0310 O   0  0  0  0  0  0  0  0  0  0  0  0
   -4.6220   24.4490  -30.8360 C   0  0  0  0  0  0  0  0  0  0  0  0
   -5.6770   24.3530  -31.5170 O   0  0  0  0  0  0  0  0  0  0  0  0
   -3.9530   25.6650  -30.7820 O   0  0  0  0  0  0  0  0  0  0  0  0
   -3.0250   21.5280  -31.5260 C   0  0  0  0  0  0  0  0  0  0  0  0
   -4.1530   20.9770  -32.1440 C   0  0  0  0  0  0  0  0  0  0  0  0
   -7.4840   20.0590  -33.1580 N   0  0  0  0  0  0  0  0  0  0  0  0
   -7.2130   21.4470  -32.7220 C   0  0  0  0  0  0  0  0  0  0  0  0
   -7.9400   21.6770  -31.3980 C   0  0  0  0  0  0  0  0  0  0  0  0
   -8.8520   20.4780  -31.2220 C   0  0  0  0  0  0  0  0  0  0  0  0
   -8.8040   19.7720  -32.5610 C   0  0  0  0  0  0  0  0  0  0  0  0
   -6.9033   17.3170  -31.6603 H   0  0  0  0  0  0  0  0  0  0  0  0
   -7.7756   17.5337  -33.2156 H   0  0  0  0  0  0  0  0  0  0  0  0
   -6.0495   17.0365  -33.2156 H   0  0  0  0  0  0  0  0  0  0  0  0
   -6.1086   19.4331  -31.7148 H   0  0  0  0  0  0  0  0  0  0  0  0
   -4.8876   18.2699  -34.0696 H   0  0  0  0  0  0  0  0  0  0  0  0
   -5.4632   19.9274  -34.5350 H   0  0  0  0  0  0  0  0  0  0  0  0
   -2.5226   18.5388  -33.9469 H   0  0  0  0  0  0  0  0  0  0  0  0
   -0.5404   19.5522  -32.7756 H   0  0  0  0  0  0  0  0  0  0  0  0
    0.2011   21.5807  -30.8943 H   0  0  0  0  0  0  0  0  0  0  0  0
   -2.3470   25.2990  -30.0450 H   0  0  0  0  0  0  0  0  0  0  0  0
   -5.1574   21.3804  -31.9477 H   0  0  0  0  0  0  0  0  0  0  0  0
   -7.5780   20.0290  -34.2020 H   0  0  0  0  0  0  0  0  0  0  0  0
   -6.1312   21.5902  -32.5835 H   0  0  0  0  0  0  0  0  0  0  0  0
   -7.5657   22.1613  -33.4805 H   0  0  0  0  0  0  0  0  0  0  0  0
   -7.2193   21.7366  -30.5691 H   0  0  0  0  0  0  0  0  0  0  0  0
   -8.5040   22.6214  -31.4012 H   0  0  0  0  0  0  0  0  0  0  0  0
   -8.4816   19.8208  -30.4214 H   0  0  0  0  0  0  0  0  0  0  0  0
   -9.8741   20.7658  -30.9349 H   0  0  0  0  0  0  0  0  0  0  0  0
   -8.9265   18.6879  -32.4202 H   0  0  0  0  0  0  0  0  0  0  0  0
   -9.6143   20.1228  -33.2171 H   0  0  0  0  0  0  0  0  0  0  0  0
  1  2  1  0
  2  3  1  0
  3  4  1  0
  4  5  2  0
  5  6  1  0
  6  7  2  0
  7  8  1  0
  8  9  2  0
  9 10  1  0
 10 11  1  0
 10 12  2  0
  9 13  1  0
 13 14  1  0
 14 15  2  0
 14 16  1  0
 16 17  2  0
 16 18  1  0
 13 19  1  0
 19 20  2  0
  2 21  1  0
 21 22  1  0
 22 23  1  0
 23 24  1  0
 24 25  1  0
 20  4  1  0
 25 21  1  0
 19  7  1  0
  1 26  1  0
  1 27  1  0
  1 28  1  0
  2 29  1  1
  3 30  1  0
  3 31  1  0
  5 32  1  0
  6 33  1  0
  8 34  1  0
 11 35  1  0
 20 36  1  0
 21 37  1  0
 22 38  1  0
 22 39  1  0
 23 40  1  0
 23 41  1  0
 24 42  1  0
 24 43  1  0
 25 44  1  0
 25 45  1  0
M  CHG  3  11  -1  18  -1  21   1
M  END
>  <UniqueID>  (84) 
84

>  <SMILES>  (84) 
C[C@@H](Cc1ccc2cc(C([NH-])=O)n(C(=O)C(=O)[O-])c2c1)[NH+]1CCCC1

>  <Energy>  (84) 
93.58013798828475

>  <Genealogy>  (84) 
CC(Cc1ccc2cc(C([NH-])=O)n(C(=O)C(=O)[O-])c2c1)[NH+]1CCCC1 (protonated)
C[C@@H](Cc1ccc2cc(C([NH-])=O)n(C(=O)C(=O)[O-])c2c1)[NH+]1CCCC1 (chirality)
C[C@@H](Cc1ccc2cc(C([NH-])=O)n(C(=O)C(=O)[O-])c2c1)[NH+]1CCCC1 (3D coordinates assigned)
C[C@@H](Cc1ccc2cc(C([NH-])=O)n(C(=O)C(=O)[O-])c2c1)[NH+]1CCCC1 (nonaromatic ring conformer: 93.58013798828475 kcal/mol)

>  <smiles>  (84) 
CC(Cc1ccc2cc(C(N)=O)n(C(=O)C(=O)O)c2c1)N1CCCC1

>  <score_type>  (84) 
oracle

>  <origin>  (84) 
adg

>  <m_score__min__energy>  (84) 
-12.08

>  <m_primary>  (84) 
energy

$$$$
84:0
     RDKit          3D

 32 34  0  0  0  0  0  0  0  0999 V2000
   -8.8450   18.9630  -32.7000 C   0  0  0  0  0  0  0  0  0  0  0  0
   -7.4280   19.2500  -32.8850 N   0  0  0  0  0  0  0  0  0  0  0  0
   -6.6040   19.7860  -31.9660 C   0  0  0  0  0  0  0  0  0  0  0  0
   -5.3630   19.9860  -32.5570 C   0  0  0  0  0  0  0  0  0  0  0  0
   -4.1440   20.5550  -31.9300 C   0  0  0  0  0  0  0  0  0  0  0  0
   -2.9300   19.8160  -31.9160 C   0  0  0  0  0  0  0  0  0  0  0  0
   -1.7740   20.3420  -31.3150 C   0  0  0  0  0  0  0  0  0  0  0  0
   -1.8520   21.6050  -30.7430 C   0  0  0  0  0  0  0  0  0  0  0  0
   -0.8940   22.3330  -30.0740 C   0  0  0  0  0  0  0  0  0  0  0  0
   -1.5230   23.5200  -29.7070 C   0  0  0  0  0  0  0  0  0  0  0  0
   -0.8240   24.6370  -29.0380 C   0  0  0  0  0  0  0  0  0  0  0  0
   -1.4150   25.9300  -28.9590 N   0  0  0  0  0  0  0  0  0  0  0  0
    0.3340   24.4580  -28.5740 O   0  0  0  0  0  0  0  0  0  0  0  0
   -2.8220   23.5230  -30.1230 N   0  0  0  0  0  0  0  0  0  0  0  0
   -3.8260   24.5160  -29.8610 C   0  0  0  0  0  0  0  0  0  0  0  0
   -3.8740   25.5700  -30.5480 O   0  0  0  0  0  0  0  0  0  0  0  0
   -4.7710   24.3120  -28.8630 O   0  0  0  0  0  0  0  0  0  0  0  0
   -3.0060   22.3430  -30.7580 C   0  0  0  0  0  0  0  0  0  0  0  0
   -4.1780   21.8380  -31.3330 C   0  0  0  0  0  0  0  0  0  0  0  0
   -5.5200   19.5510  -33.8680 C   0  0  0  0  0  0  0  0  0  0  0  0
   -6.7830   19.1200  -34.0320 N   0  0  0  0  0  0  0  0  0  0  0  0
   -9.0724   18.9169  -31.6248 H   0  0  0  0  0  0  0  0  0  0  0  0
   -9.4443   19.7580  -33.1678 H   0  0  0  0  0  0  0  0  0  0  0  0
   -9.0877   17.9975  -33.1678 H   0  0  0  0  0  0  0  0  0  0  0  0
   -6.8680   20.0248  -30.9252 H   0  0  0  0  0  0  0  0  0  0  0  0
   -2.8950   18.8199  -32.3814 H   0  0  0  0  0  0  0  0  0  0  0  0
   -0.8346   19.7700  -31.2981 H   0  0  0  0  0  0  0  0  0  0  0  0
    0.1468   22.0395  -29.8723 H   0  0  0  0  0  0  0  0  0  0  0  0
   -2.4530   26.0470  -28.9680 H   0  0  0  0  0  0  0  0  0  0  0  0
   -5.1072   22.4266  -31.3212 H   0  0  0  0  0  0  0  0  0  0  0  0
   -4.7397   19.5582  -34.6433 H   0  0  0  0  0  0  0  0  0  0  0  0
   -7.1990   18.7520  -34.9160 H   0  0  0  0  0  0  0  0  0  0  0  0
  1  2  1  0
  2  3  1  0
  3  4  2  0
  4  5  1  0
  5  6  2  0
  6  7  1  0
  7  8  2  0
  8  9  1  0
  9 10  2  0
 10 11  1  0
 11 12  1  0
 11 13  2  0
 10 14  1  0
 14 15  1  0
 15 16  2  0
 15 17  1  0
 14 18  1  0
 18 19  2  0
  4 20  1  0
 20 21  2  0
 21  2  1  0
 19  5  1  0
 18  8  1  0
  1 22  1  0
  1 23  1  0
  1 24  1  0
  3 25  1  0
  6 26  1  0
  7 27  1  0
  9 28  1  0
 12 29  1  0
 19 30  1  0
 20 31  1  0
 21 32  1  0
M  CHG  3  12  -1  17  -1  21   1
M  END
>  <UniqueID>  (85) 
85

>  <SMILES>  (85) 
Cn1cc(-c2ccc3cc(C([NH-])=O)n(C(=O)[O-])c3c2)c[nH+]1

>  <Energy>  (85) 
106.03870868589631

>  <Genealogy>  (85) 
Cn1cc(-c2ccc3cc(C([NH-])=O)n(C(=O)[O-])c3c2)c[nH+]1 (protonated)
Cn1cc(-c2ccc3cc(C([NH-])=O)n(C(=O)[O-])c3c2)c[nH+]1 (3D coordinates assigned)
Cn1cc(-c2ccc3cc(C([NH-])=O)n(C(=O)[O-])c3c2)c[nH+]1 (optimized conformer: 106.03870868589631 kcal/mol)

>  <smiles>  (85) 
Cn1cc(-c2ccc3cc(C(N)=O)n(C(=O)O)c3c2)cn1

>  <score_type>  (85) 
oracle

>  <origin>  (85) 
adg

>  <m_score__min__energy>  (85) 
-11.08

>  <m_primary>  (85) 
energy

$$$$
85:0
     RDKit          3D

 42 44  0  0  0  0  0  0  0  0999 V2000
   -2.2630   25.3450  -26.8570 C   0  0  0  0  0  0  0  0  0  0  0  0
   -1.5340   25.0140  -28.1250 C   0  0  0  0  0  0  0  0  0  0  0  0
   -1.3300   25.9370  -28.9570 O   0  0  0  0  0  0  0  0  0  0  0  0
   -0.9980   23.7100  -28.4080 N   0  0  0  0  0  0  0  0  0  0  0  0
   -1.6630   22.5330  -28.9770 C   0  0  2  0  0  0  0  0  0  0  0  0
   -0.8390   21.8820  -30.1000 C   0  0  0  0  0  0  0  0  0  0  0  0
   -1.7710   21.7420  -31.2980 C   0  0  0  0  0  0  0  0  0  0  0  0
   -3.0230   22.3780  -30.9190 N   0  0  0  0  0  0  0  0  0  0  0  0
   -4.0960   22.6110  -31.8430 C   0  0  0  0  0  0  0  0  0  0  0  0
   -3.8820   22.5660  -33.0850 O   0  0  0  0  0  0  0  0  0  0  0  0
   -5.4200   22.8810  -31.3660 N   0  0  0  0  0  0  0  0  0  0  0  0
   -5.8790   24.0240  -30.7880 C   0  0  0  0  0  0  0  0  0  0  0  0
   -5.1010   25.2670  -30.5960 C   0  0  0  0  0  0  0  0  0  0  0  0
   -3.6930   25.2930  -30.8110 N   0  0  0  0  0  0  0  0  0  0  0  0
   -5.6920   26.3260  -30.2550 O   0  0  0  0  0  0  0  0  0  0  0  0
   -7.2190   23.8800  -30.4300 C   0  0  0  0  0  0  0  0  0  0  0  0
   -7.5630   22.6010  -30.8130 C   0  0  0  0  0  0  0  0  0  0  0  0
   -8.7690   21.9190  -30.6880 C   0  0  0  0  0  0  0  0  0  0  0  0
   -8.8290   20.5950  -31.1610 C   0  0  0  0  0  0  0  0  0  0  0  0
   -7.6960   19.9860  -31.7610 C   0  0  0  0  0  0  0  0  0  0  0  0
   -7.7580   18.5510  -32.2180 C   0  0  0  0  0  0  0  0  0  0  0  0
   -7.0290   17.7360  -31.3690 F   0  0  0  0  0  0  0  0  0  0  0  0
   -7.2370   18.4220  -33.4940 F   0  0  0  0  0  0  0  0  0  0  0  0
   -9.0750   18.1320  -32.2240 F   0  0  0  0  0  0  0  0  0  0  0  0
   -6.4820   20.7070  -31.8460 C   0  0  0  0  0  0  0  0  0  0  0  0
   -6.4570   22.0210  -31.3750 C   0  0  0  0  0  0  0  0  0  0  0  0
   -3.0450   22.8500  -29.5480 C   0  0  0  0  0  0  0  0  0  0  0  0
   -1.6428   25.0634  -25.9933 H   0  0  0  0  0  0  0  0  0  0  0  0
   -2.4692   26.4250  -26.8238 H   0  0  0  0  0  0  0  0  0  0  0  0
   -3.2118   24.7894  -26.8238 H   0  0  0  0  0  0  0  0  0  0  0  0
   -1.7638   21.8390  -28.1296 H   0  0  0  0  0  0  0  0  0  0  0  0
    0.0194   22.5191  -30.3592 H   0  0  0  0  0  0  0  0  0  0  0  0
   -0.4449   20.9038  -29.7872 H   0  0  0  0  0  0  0  0  0  0  0  0
   -1.3397   22.2440  -32.1766 H   0  0  0  0  0  0  0  0  0  0  0  0
   -1.9241   20.6856  -31.5636 H   0  0  0  0  0  0  0  0  0  0  0  0
   -3.0260   25.3090  -30.0080 H   0  0  0  0  0  0  0  0  0  0  0  0
   -7.8641   24.6276  -29.9453 H   0  0  0  0  0  0  0  0  0  0  0  0
   -9.6481   22.3995  -30.2337 H   0  0  0  0  0  0  0  0  0  0  0  0
   -9.7650   20.0253  -31.0646 H   0  0  0  0  0  0  0  0  0  0  0  0
   -5.5800   20.2439  -32.2726 H   0  0  0  0  0  0  0  0  0  0  0  0
   -3.2324   23.9335  -29.5187 H   0  0  0  0  0  0  0  0  0  0  0  0
   -3.8442   22.3675  -28.9662 H   0  0  0  0  0  0  0  0  0  0  0  0
  1  2  1  0
  2  3  2  0
  2  4  1  0
  4  5  1  0
  5  6  1  0
  6  7  1  0
  7  8  1  0
  8  9  1  0
  9 10  2  0
  9 11  1  0
 11 12  1  0
 12 13  1  0
 13 14  1  0
 13 15  2  0
 12 16  2  0
 16 17  1  0
 17 18  2  0
 18 19  1  0
 19 20  2  0
 20 21  1  0
 21 22  1  0
 21 23  1  0
 21 24  1  0
 20 25  1  0
 25 26  2  0
  8 27  1  0
 27  5  1  0
 26 11  1  0
 26 17  1  0
  1 28  1  0
  1 29  1  0
  1 30  1  0
  5 31  1  1
  6 32  1  0
  6 33  1  0
  7 34  1  0
  7 35  1  0
 14 36  1  0
 16 37  1  0
 18 38  1  0
 19 39  1  0
 25 40  1  0
 27 41  1  0
 27 42  1  0
M  CHG  2   4  -1  14  -1
M  END
>  <UniqueID>  (86) 
86

>  <SMILES>  (86) 
CC(=O)[N-][C@@H]1CCN(C(=O)n2c(C([NH-])=O)cc3ccc(C(F)(F)F)cc32)C1

>  <Energy>  (86) 
83.27717853579122

>  <Genealogy>  (86) 
CC(=O)[N-][C@@H]1CCN(C(=O)n2c(C([NH-])=O)cc3ccc(C(F)(F)F)cc32)C1 (protonated)
CC(=O)[N-][C@@H]1CCN(C(=O)n2c(C([NH-])=O)cc3ccc(C(F)(F)F)cc32)C1 (3D coordinates assigned)
CC(=O)[N-][C@@H]1CCN(C(=O)n2c(C([NH-])=O)cc3ccc(C(F)(F)F)cc32)C1 (nonaromatic ring conformer: 83.27717853579122 kcal/mol)

>  <smiles>  (86) 
CC(=O)N[C@@H]1CCN(C(=O)n2c(C(N)=O)cc3ccc(C(F)(F)F)cc32)C1

>  <score_type>  (86) 
oracle

>  <origin>  (86) 
adg

>  <m_score__min__energy>  (86) 
-11.789999999999999

>  <m_primary>  (86) 
energy

$$$$
86:0
     RDKit          3D

 39 40  0  0  0  0  0  0  0  0999 V2000
   -1.2500   26.3880  -27.4220 C   0  0  0  0  0  0  0  0  0  0  0  0
   -1.5310   25.7300  -28.6510 O   0  0  0  0  0  0  0  0  0  0  0  0
   -0.9060   24.5370  -29.0270 C   0  0  0  0  0  0  0  0  0  0  0  0
    0.3030   24.3290  -28.7310 O   0  0  0  0  0  0  0  0  0  0  0  0
   -1.6560   23.5510  -29.7450 N   0  0  0  0  0  0  0  0  0  0  0  0
   -1.0750   22.2890  -30.1990 C   0  0  0  0  0  0  0  0  0  0  0  0
   -1.9350   21.6540  -31.2950 C   0  0  0  0  0  0  0  0  0  0  0  0
   -3.1640   22.3600  -31.4500 O   0  0  0  0  0  0  0  0  0  0  0  0
   -4.1840   22.3570  -30.4920 C   0  0  0  0  0  0  0  0  0  0  0  0
   -3.9390   22.0180  -29.3010 O   0  0  0  0  0  0  0  0  0  0  0  0
   -5.5210   22.7170  -30.8740 N   0  0  0  0  0  0  0  0  0  0  0  0
   -6.1070   23.9470  -30.8150 C   0  0  0  0  0  0  0  0  0  0  0  0
   -5.4320   25.2130  -30.4610 C   0  0  0  0  0  0  0  0  0  0  0  0
   -4.0080   25.2920  -30.4990 N   0  0  0  0  0  0  0  0  0  0  0  0
   -6.0950   26.2170  -30.0920 O   0  0  0  0  0  0  0  0  0  0  0  0
   -7.4370   23.8730  -31.2230 C   0  0  0  0  0  0  0  0  0  0  0  0
   -7.6470   22.5520  -31.5460 C   0  0  0  0  0  0  0  0  0  0  0  0
   -8.7990   21.9130  -31.9940 C   0  0  0  0  0  0  0  0  0  0  0  0
   -8.7380   20.5280  -32.2200 C   0  0  0  0  0  0  0  0  0  0  0  0
   -7.5330   19.8100  -32.0070 C   0  0  0  0  0  0  0  0  0  0  0  0
   -7.4980   18.3140  -32.1940 C   0  0  0  0  0  0  0  0  0  0  0  0
   -8.7480   17.7640  -31.9720 F   0  0  0  0  0  0  0  0  0  0  0  0
   -6.5990   17.7640  -31.2980 F   0  0  0  0  0  0  0  0  0  0  0  0
   -7.1060   17.9920  -33.4810 F   0  0  0  0  0  0  0  0  0  0  0  0
   -6.3900   20.4930  -31.5280 C   0  0  0  0  0  0  0  0  0  0  0  0
   -6.4760   21.8750  -31.3280 C   0  0  0  0  0  0  0  0  0  0  0  0
   -1.5295   25.7334  -26.5833 H   0  0  0  0  0  0  0  0  0  0  0  0
   -0.1756   26.6170  -27.3660 H   0  0  0  0  0  0  0  0  0  0  0  0
   -1.8275   27.3225  -27.3660 H   0  0  0  0  0  0  0  0  0  0  0  0
   -2.6730   23.7240  -29.9140 H   0  0  0  0  0  0  0  0  0  0  0  0
   -0.0673   22.4791  -30.5969 H   0  0  0  0  0  0  0  0  0  0  0  0
   -1.0270   21.5971  -29.3452 H   0  0  0  0  0  0  0  0  0  0  0  0
   -1.3828   21.6791  -32.2460 H   0  0  0  0  0  0  0  0  0  0  0  0
   -2.1595   20.6160  -31.0085 H   0  0  0  0  0  0  0  0  0  0  0  0
   -3.4700   25.6640  -29.6850 H   0  0  0  0  0  0  0  0  0  0  0  0
   -8.1649   24.6960  -31.2758 H   0  0  0  0  0  0  0  0  0  0  0  0
   -9.7288   22.4751  -32.1659 H   0  0  0  0  0  0  0  0  0  0  0  0
   -9.6351   19.9938  -32.5662 H   0  0  0  0  0  0  0  0  0  0  0  0
   -5.4564   19.9505  -31.3180 H   0  0  0  0  0  0  0  0  0  0  0  0
  1  2  1  0
  2  3  1  0
  3  4  2  0
  3  5  1  0
  5  6  1  0
  6  7  1  0
  7  8  1  0
  8  9  1  0
  9 10  2  0
  9 11  1  0
 11 12  1  0
 12 13  1  0
 13 14  1  0
 13 15  2  0
 12 16  2  0
 16 17  1  0
 17 18  2  0
 18 19  1  0
 19 20  2  0
 20 21  1  0
 21 22  1  0
 21 23  1  0
 21 24  1  0
 20 25  1  0
 25 26  2  0
 26 11  1  0
 26 17  1  0
  1 27  1  0
  1 28  1  0
  1 29  1  0
  5 30  1  0
  6 31  1  0
  6 32  1  0
  7 33  1  0
  7 34  1  0
 14 35  1  0
 16 36  1  0
 18 37  1  0
 19 38  1  0
 25 39  1  0
M  CHG  1  14  -1
M  END
>  <UniqueID>  (87) 
87

>  <SMILES>  (87) 
COC(=O)NCCOC(=O)n1c(C([NH-])=O)cc2ccc(C(F)(F)F)cc21

>  <Energy>  (87) 
70.23261716481518

>  <Genealogy>  (87) 
COC(=O)NCCOC(=O)n1c(C([NH-])=O)cc2ccc(C(F)(F)F)cc21 (protonated)
COC(=O)NCCOC(=O)n1c(C([NH-])=O)cc2ccc(C(F)(F)F)cc21 (3D coordinates assigned)
COC(=O)NCCOC(=O)n1c(C([NH-])=O)cc2ccc(C(F)(F)F)cc21 (optimized conformer: 70.23261716481518 kcal/mol)

>  <smiles>  (87) 
COC(=O)NCCOC(=O)n1c(C(N)=O)cc2ccc(C(F)(F)F)cc21

>  <score_type>  (87) 
oracle

>  <origin>  (87) 
adg

>  <m_score__min__energy>  (87) 
-9.8499999999999996

>  <m_primary>  (87) 
energy

$$$$
87:0
     RDKit          3D

 42 43  0  0  0  0  0  0  0  0999 V2000
   -1.6330   26.4090  -25.7580 C   0  0  0  0  0  0  0  0  0  0  0  0
   -2.0640   25.0770  -26.0040 O   0  0  0  0  0  0  0  0  0  0  0  0
   -2.8590   24.7300  -27.1010 C   0  0  0  0  0  0  0  0  0  0  0  0
   -4.1120   24.6430  -26.9740 O   0  0  0  0  0  0  0  0  0  0  0  0
   -2.2560   24.4610  -28.3730 N   0  0  0  0  0  0  0  0  0  0  0  0
   -2.4980   25.2990  -29.4110 O   0  0  0  0  0  0  0  0  0  0  0  0
   -1.4400   23.2670  -28.6080 C   0  0  0  0  0  0  0  0  0  0  0  0
   -1.6090   22.7460  -30.0430 C   0  0  0  0  0  0  0  0  0  0  0  0
   -2.8540   21.8630  -30.2490 C   0  0  0  0  0  0  0  0  0  0  0  0
   -3.5610   22.1360  -31.5510 C   0  0  0  0  0  0  0  0  0  0  0  0
   -2.9080   22.1550  -32.6280 O   0  0  0  0  0  0  0  0  0  0  0  0
   -4.9930   22.2560  -31.5950 N   0  0  0  0  0  0  0  0  0  0  0  0
   -5.7450   23.2630  -31.0690 C   0  0  0  0  0  0  0  0  0  0  0  0
   -5.2250   24.5100  -30.4710 C   0  0  0  0  0  0  0  0  0  0  0  0
   -5.3520   24.7720  -29.0720 N   0  0  0  0  0  0  0  0  0  0  0  0
   -4.6180   25.3370  -31.1990 O   0  0  0  0  0  0  0  0  0  0  0  0
   -7.1020   22.9690  -31.1770 C   0  0  0  0  0  0  0  0  0  0  0  0
   -7.1590   21.7410  -31.7960 C   0  0  0  0  0  0  0  0  0  0  0  0
   -8.2600   20.9540  -32.1170 C   0  0  0  0  0  0  0  0  0  0  0  0
   -8.0240   19.6970  -32.6980 C   0  0  0  0  0  0  0  0  0  0  0  0
   -6.7020   19.2520  -32.9530 C   0  0  0  0  0  0  0  0  0  0  0  0
   -6.4590   17.8740  -33.5150 C   0  0  0  0  0  0  0  0  0  0  0  0
   -6.2320   17.9370  -34.8790 F   0  0  0  0  0  0  0  0  0  0  0  0
   -7.5680   17.0840  -33.2780 F   0  0  0  0  0  0  0  0  0  0  0  0
   -5.3540   17.2910  -32.9200 F   0  0  0  0  0  0  0  0  0  0  0  0
   -5.6090   20.0710  -32.5850 C   0  0  0  0  0  0  0  0  0  0  0  0
   -5.8730   21.3290  -32.0320 C   0  0  0  0  0  0  0  0  0  0  0  0
   -1.5771   26.5818  -24.6731 H   0  0  0  0  0  0  0  0  0  0  0  0
   -0.6397   26.5615  -26.2053 H   0  0  0  0  0  0  0  0  0  0  0  0
   -2.3487   27.1145  -26.2053 H   0  0  0  0  0  0  0  0  0  0  0  0
   -0.3822   23.5179  -28.4406 H   0  0  0  0  0  0  0  0  0  0  0  0
   -1.7694   22.4804  -27.9132 H   0  0  0  0  0  0  0  0  0  0  0  0
   -1.6837   23.6113  -30.7181 H   0  0  0  0  0  0  0  0  0  0  0  0
   -0.7337   22.1148  -30.2564 H   0  0  0  0  0  0  0  0  0  0  0  0
   -2.5419   20.8083  -30.2341 H   0  0  0  0  0  0  0  0  0  0  0  0
   -3.5592   22.0944  -29.4371 H   0  0  0  0  0  0  0  0  0  0  0  0
   -5.6740   24.0340  -28.4080 H   0  0  0  0  0  0  0  0  0  0  0  0
   -5.0260   25.6840  -28.6800 H   0  0  0  0  0  0  0  0  0  0  0  0
   -7.9476   23.5863  -30.8397 H   0  0  0  0  0  0  0  0  0  0  0  0
   -9.2840   21.3051  -31.9219 H   0  0  0  0  0  0  0  0  0  0  0  0
   -8.8748   19.0502  -32.9582 H   0  0  0  0  0  0  0  0  0  0  0  0
   -4.5745   19.7266  -32.7303 H   0  0  0  0  0  0  0  0  0  0  0  0
  1  2  1  0
  2  3  1  0
  3  4  2  0
  3  5  1  0
  5  6  1  0
  5  7  1  0
  7  8  1  0
  8  9  1  0
  9 10  1  0
 10 11  2  0
 10 12  1  0
 12 13  1  0
 13 14  1  0
 14 15  1  0
 14 16  2  0
 13 17  2  0
 17 18  1  0
 18 19  2  0
 19 20  1  0
 20 21  2  0
 21 22  1  0
 22 23  1  0
 22 24  1  0
 22 25  1  0
 21 26  1  0
 26 27  2  0
 27 12  1  0
 27 18  1  0
  1 28  1  0
  1 29  1  0
  1 30  1  0
  7 31  1  0
  7 32  1  0
  8 33  1  0
  8 34  1  0
  9 35  1  0
  9 36  1  0
 15 37  1  0
 15 38  1  0
 17 39  1  0
 19 40  1  0
 20 41  1  0
 26 42  1  0
M  CHG  1   6  -1
M  END
>  <UniqueID>  (88) 
88

>  <SMILES>  (88) 
COC(=O)N([O-])CCCC(=O)n1c(C(N)=O)cc2ccc(C(F)(F)F)cc21

>  <Energy>  (88) 
75.69738833171034

>  <Genealogy>  (88) 
COC(=O)N([O-])CCCC(=O)n1c(C(N)=O)cc2ccc(C(F)(F)F)cc21 (protonated)
COC(=O)N([O-])CCCC(=O)n1c(C(N)=O)cc2ccc(C(F)(F)F)cc21 (3D coordinates assigned)
COC(=O)N([O-])CCCC(=O)n1c(C(N)=O)cc2ccc(C(F)(F)F)cc21 (optimized conformer: 75.69738833171034 kcal/mol)

>  <smiles>  (88) 
COC(=O)N(O)CCCC(=O)n1c(C(N)=O)cc2ccc(C(F)(F)F)cc21

>  <score_type>  (88) 
oracle

>  <origin>  (88) 
adg

>  <m_score__min__energy>  (88) 
-10.98

>  <m_primary>  (88) 
energy

$$$$
88:0
     RDKit          3D

 32 34  0  0  0  0  0  0  0  0999 V2000
   -5.5140   17.9640  -34.8420 N   0  0  0  0  0  0  0  0  0  0  0  0
   -6.0830   18.0510  -33.8380 C   0  0  0  0  0  0  0  0  0  0  0  0
   -6.8040   18.1610  -32.5670 C   0  0  0  0  0  0  0  0  0  0  0  0
   -7.0330   19.6080  -32.2310 C   0  0  0  0  0  0  0  0  0  0  0  0
   -8.3420   20.1510  -32.2820 C   0  0  0  0  0  0  0  0  0  0  0  0
   -8.5720   21.4970  -31.9490 C   0  0  0  0  0  0  0  0  0  0  0  0
   -7.4800   22.2680  -31.5590 C   0  0  0  0  0  0  0  0  0  0  0  0
   -7.4150   23.5920  -31.1870 C   0  0  0  0  0  0  0  0  0  0  0  0
   -6.0710   23.8280  -30.8930 C   0  0  0  0  0  0  0  0  0  0  0  0
   -5.5400   25.1070  -30.3660 C   0  0  0  0  0  0  0  0  0  0  0  0
   -4.2140   25.5360  -30.6800 N   0  0  0  0  0  0  0  0  0  0  0  0
   -6.2650   25.8410  -29.6440 O   0  0  0  0  0  0  0  0  0  0  0  0
   -5.3400   22.6940  -31.0840 N   0  0  0  0  0  0  0  0  0  0  0  0
   -3.9250   22.5200  -30.9230 C   0  0  0  0  0  0  0  0  0  0  0  0
   -3.3210   23.1520  -30.0160 O   0  0  0  0  0  0  0  0  0  0  0  0
   -3.1800   21.5790  -31.7780 C   0  0  0  0  0  0  0  0  0  0  0  0
   -2.2580   20.6320  -31.3430 C   0  0  0  0  0  0  0  0  0  0  0  0
   -1.7230   19.8650  -32.3300 N   0  0  0  0  0  0  0  0  0  0  0  0
   -2.2090   20.1840  -33.5500 C   0  0  0  0  0  0  0  0  0  0  0  0
   -3.3280   21.4340  -33.4480 S   0  0  0  0  0  0  0  0  0  0  0  0
   -6.2150   21.7500  -31.4860 C   0  0  0  0  0  0  0  0  0  0  0  0
   -5.9530   20.4180  -31.8180 C   0  0  0  0  0  0  0  0  0  0  0  0
   -7.7737   17.6487  -32.6525 H   0  0  0  0  0  0  0  0  0  0  0  0
   -6.2056   17.6950  -31.7703 H   0  0  0  0  0  0  0  0  0  0  0  0
   -9.1852   19.5129  -32.5850 H   0  0  0  0  0  0  0  0  0  0  0  0
   -9.5830   21.9279  -31.9950 H   0  0  0  0  0  0  0  0  0  0  0  0
   -8.2457   24.3111  -31.1330 H   0  0  0  0  0  0  0  0  0  0  0  0
   -3.5570   24.9290  -31.2180 H   0  0  0  0  0  0  0  0  0  0  0  0
   -3.8650   26.4560  -30.3290 H   0  0  0  0  0  0  0  0  0  0  0  0
   -1.9837   20.5133  -30.2844 H   0  0  0  0  0  0  0  0  0  0  0  0
   -1.9113   19.6904  -34.4869 H   0  0  0  0  0  0  0  0  0  0  0  0
   -4.9325   20.0116  -31.7591 H   0  0  0  0  0  0  0  0  0  0  0  0
  1  2  3  0
  2  3  1  0
  3  4  1  0
  4  5  2  0
  5  6  1  0
  6  7  2  0
  7  8  1  0
  8  9  2  0
  9 10  1  0
 10 11  1  0
 10 12  2  0
  9 13  1  0
 13 14  1  0
 14 15  2  0
 14 16  1  0
 16 17  2  0
 17 18  1  0
 18 19  2  0
 19 20  1  0
 13 21  1  0
 21 22  2  0
 22  4  1  0
 21  7  1  0
 20 16  1  0
  3 23  1  0
  3 24  1  0
  5 25  1  0
  6 26  1  0
  8 27  1  0
 11 28  1  0
 11 29  1  0
 17 30  1  0
 19 31  1  0
 22 32  1  0
M  END
>  <UniqueID>  (89) 
89

>  <SMILES>  (89) 
N#CCc1ccc2cc(C(N)=O)n(C(=O)c3cncs3)c2c1

>  <Energy>  (89) 
101.62131802393748

>  <Genealogy>  (89) 
N#CCc1ccc2cc(C(N)=O)n(C(=O)c3cncs3)c2c1 (3D coordinates assigned)
N#CCc1ccc2cc(C(N)=O)n(C(=O)c3cncs3)c2c1 (optimized conformer: 101.62131802393748 kcal/mol)

>  <smiles>  (89) 
N#CCc1ccc2cc(C(N)=O)n(C(=O)c3cncs3)c2c1

>  <score_type>  (89) 
oracle

>  <origin>  (89) 
adg

>  <m_score__min__energy>  (89) 
-8.8800000000000008

>  <m_primary>  (89) 
energy

$$$$
89:0
     RDKit          3D

 35 37  0  0  0  0  0  0  0  0999 V2000
   -7.3630   21.4050  -31.1270 C   0  0  0  0  0  0  0  0  0  0  0  0
   -6.8870   20.3240  -32.0540 C   0  0  0  0  0  0  0  0  0  0  0  0
   -5.5740   19.9450  -32.3040 C   0  0  0  0  0  0  0  0  0  0  0  0
   -4.3350   20.5370  -31.7520 C   0  0  0  0  0  0  0  0  0  0  0  0
   -3.1150   19.8220  -31.8480 C   0  0  0  0  0  0  0  0  0  0  0  0
   -1.9200   20.3710  -31.3520 C   0  0  0  0  0  0  0  0  0  0  0  0
   -1.9750   21.6340  -30.7710 C   0  0  0  0  0  0  0  0  0  0  0  0
   -0.9680   22.4080  -30.2410 C   0  0  0  0  0  0  0  0  0  0  0  0
   -1.5890   23.5820  -29.8190 C   0  0  0  0  0  0  0  0  0  0  0  0
   -0.8790   24.6640  -29.1060 C   0  0  0  0  0  0  0  0  0  0  0  0
   -1.4950   25.9310  -28.8960 N   0  0  0  0  0  0  0  0  0  0  0  0
    0.2670   24.4490  -28.6290 O   0  0  0  0  0  0  0  0  0  0  0  0
   -2.9250   23.5410  -30.0870 N   0  0  0  0  0  0  0  0  0  0  0  0
   -3.8930   24.5830  -29.8920 C   0  0  0  0  0  0  0  0  0  0  0  0
   -3.8740   25.6130  -30.6150 O   0  0  0  0  0  0  0  0  0  0  0  0
   -4.8430   24.4790  -28.8820 O   0  0  0  0  0  0  0  0  0  0  0  0
   -3.1460   22.3380  -30.6640 C   0  0  0  0  0  0  0  0  0  0  0  0
   -4.3470   21.8240  -31.1680 C   0  0  0  0  0  0  0  0  0  0  0  0
   -5.5890   18.8990  -33.1560 N   0  0  0  0  0  0  0  0  0  0  0  0
   -6.8870   18.6700  -33.4330 C   0  0  0  0  0  0  0  0  0  0  0  0
   -7.6980   19.5320  -32.7880 N   0  0  0  0  0  0  0  0  0  0  0  0
   -9.1570   19.5320  -32.8220 C   0  0  0  0  0  0  0  0  0  0  0  0
   -7.2212   21.0830  -30.0848 H   0  0  0  0  0  0  0  0  0  0  0  0
   -6.7863   22.3239  -31.3085 H   0  0  0  0  0  0  0  0  0  0  0  0
   -8.4302   21.6000  -31.3085 H   0  0  0  0  0  0  0  0  0  0  0  0
   -3.1033   18.8265  -32.3158 H   0  0  0  0  0  0  0  0  0  0  0  0
   -0.9709   19.8193  -31.4210 H   0  0  0  0  0  0  0  0  0  0  0  0
    0.0997   22.1540  -30.1664 H   0  0  0  0  0  0  0  0  0  0  0  0
   -2.5300   26.0430  -28.9660 H   0  0  0  0  0  0  0  0  0  0  0  0
   -5.2775   22.4079  -31.1108 H   0  0  0  0  0  0  0  0  0  0  0  0
   -4.7690   18.3800  -33.5400 H   0  0  0  0  0  0  0  0  0  0  0  0
   -7.2426   17.8750  -34.1049 H   0  0  0  0  0  0  0  0  0  0  0  0
   -9.5236   18.4949  -32.8305 H   0  0  0  0  0  0  0  0  0  0  0  0
   -9.5445   20.0505  -31.9326 H   0  0  0  0  0  0  0  0  0  0  0  0
   -9.5026   20.0505  -33.7284 H   0  0  0  0  0  0  0  0  0  0  0  0
  1  2  1  0
  2  3  2  0
  3  4  1  0
  4  5  2  0
  5  6  1  0
  6  7  2  0
  7  8  1  0
  8  9  2  0
  9 10  1  0
 10 11  1  0
 10 12  2  0
  9 13  1  0
 13 14  1  0
 14 15  2  0
 14 16  1  0
 13 17  1  0
 17 18  2  0
  3 19  1  0
 19 20  2  0
 20 21  1  0
 21 22  1  0
 21  2  1  0
 18  4  1  0
 17  7  1  0
  1 23  1  0
  1 24  1  0
  1 25  1  0
  5 26  1  0
  6 27  1  0
  8 28  1  0
 11 29  1  0
 18 30  1  0
 19 31  1  0
 20 32  1  0
 22 33  1  0
 22 34  1  0
 22 35  1  0
M  CHG  3  11  -1  16  -1  19   1
M  END
>  <UniqueID>  (90) 
90

>  <SMILES>  (90) 
Cc1c(-c2ccc3cc(C([NH-])=O)n(C(=O)[O-])c3c2)[nH+]cn1C

>  <Energy>  (90) 
110.7604062512033

>  <Genealogy>  (90) 
Cc1c(-c2ccc3cc(C([NH-])=O)n(C(=O)[O-])c3c2)[nH+]cn1C (protonated)
Cc1c(-c2ccc3cc(C([NH-])=O)n(C(=O)[O-])c3c2)[nH+]cn1C (3D coordinates assigned)
Cc1c(-c2ccc3cc(C([NH-])=O)n(C(=O)[O-])c3c2)[nH+]cn1C (optimized conformer: 110.7604062512033 kcal/mol)

>  <smiles>  (90) 
Cc1c(-c2ccc3cc(C(N)=O)n(C(=O)O)c3c2)ncn1C

>  <score_type>  (90) 
oracle

>  <origin>  (90) 
adg

>  <m_score__min__energy>  (90) 
-10.65

>  <m_primary>  (90) 
energy

$$$$
90:0
     RDKit          3D

 34 36  0  0  0  0  0  0  0  0999 V2000
   -4.1110   23.5020  -27.7510 C   0  0  0  0  0  0  0  0  0  0  0  0
   -3.4540   22.2720  -28.2880 C   0  0  0  0  0  0  0  0  0  0  0  0
   -2.8140   21.3710  -27.5190 N   0  0  0  0  0  0  0  0  0  0  0  0
   -2.3630   20.4440  -28.3140 O   0  0  0  0  0  0  0  0  0  0  0  0
   -2.6720   20.6900  -29.5670 C   0  0  0  0  0  0  0  0  0  0  0  0
   -3.3860   21.8710  -29.6110 C   0  0  0  0  0  0  0  0  0  0  0  0
   -3.9200   22.5420  -30.8120 C   0  0  0  0  0  0  0  0  0  0  0  0
   -3.1330   22.9450  -31.7090 O   0  0  0  0  0  0  0  0  0  0  0  0
   -5.3350   22.7050  -30.9900 N   0  0  0  0  0  0  0  0  0  0  0  0
   -6.0920   23.8040  -30.7160 C   0  0  0  0  0  0  0  0  0  0  0  0
   -5.5660   25.1130  -30.2680 C   0  0  0  0  0  0  0  0  0  0  0  0
   -4.2320   25.5140  -30.5820 N   0  0  0  0  0  0  0  0  0  0  0  0
   -6.2920   25.8850  -29.5860 O   0  0  0  0  0  0  0  0  0  0  0  0
   -7.4350   23.5480  -30.9960 C   0  0  0  0  0  0  0  0  0  0  0  0
   -7.4710   22.2500  -31.4590 C   0  0  0  0  0  0  0  0  0  0  0  0
   -8.5450   21.4830  -31.8950 C   0  0  0  0  0  0  0  0  0  0  0  0
   -8.2870   20.1680  -32.3190 C   0  0  0  0  0  0  0  0  0  0  0  0
   -6.9700   19.6380  -32.2800 C   0  0  0  0  0  0  0  0  0  0  0  0
   -6.6990   18.2410  -32.7790 C   0  0  0  0  0  0  0  0  0  0  0  0
   -5.6160   17.6880  -32.1190 F   0  0  0  0  0  0  0  0  0  0  0  0
   -7.7970   17.4270  -32.5670 F   0  0  0  0  0  0  0  0  0  0  0  0
   -6.4250   18.2870  -34.1330 F   0  0  0  0  0  0  0  0  0  0  0  0
   -5.9010   20.4610  -31.8540 C   0  0  0  0  0  0  0  0  0  0  0  0
   -6.1900   21.7670  -31.4480 C   0  0  0  0  0  0  0  0  0  0  0  0
   -4.0966   23.4751  -26.6514 H   0  0  0  0  0  0  0  0  0  0  0  0
   -3.5678   24.3913  -28.1031 H   0  0  0  0  0  0  0  0  0  0  0  0
   -5.1522   23.5450  -28.1031 H   0  0  0  0  0  0  0  0  0  0  0  0
   -2.4076   20.0634  -30.4316 H   0  0  0  0  0  0  0  0  0  0  0  0
   -3.6200   24.9370  -31.1990 H   0  0  0  0  0  0  0  0  0  0  0  0
   -3.8630   26.4250  -30.2300 H   0  0  0  0  0  0  0  0  0  0  0  0
   -8.2845   24.2359  -30.8733 H   0  0  0  0  0  0  0  0  0  0  0  0
   -9.5658   21.8926  -31.9078 H   0  0  0  0  0  0  0  0  0  0  0  0
   -9.1144   19.5424  -32.6851 H   0  0  0  0  0  0  0  0  0  0  0  0
   -4.8682   20.0826  -31.8426 H   0  0  0  0  0  0  0  0  0  0  0  0
  1  2  1  0
  2  3  2  0
  3  4  1  0
  4  5  1  0
  5  6  2  0
  6  7  1  0
  7  8  2  0
  7  9  1  0
  9 10  1  0
 10 11  1  0
 11 12  1  0
 11 13  2  0
 10 14  2  0
 14 15  1  0
 15 16  2  0
 16 17  1  0
 17 18  2  0
 18 19  1  0
 19 20  1  0
 19 21  1  0
 19 22  1  0
 18 23  1  0
 23 24  2  0
  6  2  1  0
 24  9  1  0
 24 15  1  0
  1 25  1  0
  1 26  1  0
  1 27  1  0
  5 28  1  0
 12 29  1  0
 12 30  1  0
 14 31  1  0
 16 32  1  0
 17 33  1  0
 23 34  1  0
M  END
>  <UniqueID>  (91) 
91

>  <SMILES>  (91) 
Cc1nocc1C(=O)n1c(C(N)=O)cc2ccc(C(F)(F)F)cc21

>  <Energy>  (91) 
106.2230540630649

>  <Genealogy>  (91) 
Cc1nocc1C(=O)n1c(C(N)=O)cc2ccc(C(F)(F)F)cc21 (3D coordinates assigned)
Cc1nocc1C(=O)n1c(C(N)=O)cc2ccc(C(F)(F)F)cc21 (optimized conformer: 106.2230540630649 kcal/mol)

>  <smiles>  (91) 
Cc1nocc1C(=O)n1c(C(N)=O)cc2ccc(C(F)(F)F)cc21

>  <score_type>  (91) 
oracle

>  <origin>  (91) 
adg

>  <m_score__min__energy>  (91) 
-8.2599999999999998

>  <m_primary>  (91) 
energy

$$$$
91:0
     RDKit          3D

 32 34  0  0  0  0  0  0  0  0999 V2000
   -5.5170   26.5150  -30.3600 N   0  0  0  0  0  0  0  0  0  0  0  0
   -6.3550   25.4360  -29.9430 C   0  0  0  0  0  0  0  0  0  0  0  0
   -7.1710   25.6170  -29.0010 O   0  0  0  0  0  0  0  0  0  0  0  0
   -6.3300   24.1340  -30.6380 C   0  0  0  0  0  0  0  0  0  0  0  0
   -7.4790   23.4430  -31.0090 C   0  0  0  0  0  0  0  0  0  0  0  0
   -7.0310   22.3290  -31.6830 C   0  0  0  0  0  0  0  0  0  0  0  0
   -7.7490   21.2820  -32.2510 C   0  0  0  0  0  0  0  0  0  0  0  0
   -7.0250   20.2360  -32.8480 C   0  0  0  0  0  0  0  0  0  0  0  0
   -5.6080   20.2560  -32.8680 C   0  0  0  0  0  0  0  0  0  0  0  0
   -4.8690   19.1300  -33.4790 C   0  0  0  0  0  0  0  0  0  0  0  0
   -3.5450   19.1620  -33.8620 C   0  0  0  0  0  0  0  0  0  0  0  0
   -3.1960   17.9660  -34.3730 N   0  0  0  0  0  0  0  0  0  0  0  0
   -4.3170   17.2200  -34.2810 C   0  0  0  0  0  0  0  0  0  0  0  0
   -5.3480   17.8920  -33.7300 N   0  0  0  0  0  0  0  0  0  0  0  0
   -6.6750   17.3350  -33.4640 C   0  0  0  0  0  0  0  0  0  0  0  0
   -6.8440   17.1490  -32.1040 F   0  0  0  0  0  0  0  0  0  0  0  0
   -6.8420   16.1330  -34.1280 F   0  0  0  0  0  0  0  0  0  0  0  0
   -4.9150   21.3270  -32.2610 C   0  0  0  0  0  0  0  0  0  0  0  0
   -5.6600   22.3680  -31.6950 C   0  0  0  0  0  0  0  0  0  0  0  0
   -5.2120   23.4720  -31.0510 N   0  0  0  0  0  0  0  0  0  0  0  0
   -3.8440   23.8040  -30.7590 C   0  0  0  0  0  0  0  0  0  0  0  0
   -2.9560   22.9110  -30.7570 O   0  0  0  0  0  0  0  0  0  0  0  0
   -3.4880   25.1150  -30.4680 O   0  0  0  0  0  0  0  0  0  0  0  0
   -5.5220   27.4160  -29.8330 H   0  0  0  0  0  0  0  0  0  0  0  0
   -4.9520   26.4500  -31.2350 H   0  0  0  0  0  0  0  0  0  0  0  0
   -8.5226   23.7261  -30.8070 H   0  0  0  0  0  0  0  0  0  0  0  0
   -8.8488   21.2730  -32.2335 H   0  0  0  0  0  0  0  0  0  0  0  0
   -7.5638   19.3927  -33.3047 H   0  0  0  0  0  0  0  0  0  0  0  0
   -2.8768   20.0304  -33.7651 H   0  0  0  0  0  0  0  0  0  0  0  0
   -4.3825   16.1754  -34.6194 H   0  0  0  0  0  0  0  0  0  0  0  0
   -7.4314   18.0447  -33.8304 H   0  0  0  0  0  0  0  0  0  0  0  0
   -3.8154   21.3424  -32.2338 H   0  0  0  0  0  0  0  0  0  0  0  0
  1  2  1  0
  2  3  2  0
  2  4  1  0
  4  5  2  0
  5  6  1  0
  6  7  2  0
  7  8  1  0
  8  9  2  0
  9 10  1  0
 10 11  2  0
 11 12  1  0
 12 13  2  0
 13 14  1  0
 14 15  1  0
 15 16  1  0
 15 17  1  0
  9 18  1  0
 18 19  2  0
 19 20  1  0
 20 21  1  0
 21 22  2  0
 21 23  1  0
 20  4  1  0
 19  6  1  0
 14 10  1  0
  1 24  1  0
  1 25  1  0
  5 26  1  0
  7 27  1  0
  8 28  1  0
 11 29  1  0
 13 30  1  0
 15 31  1  0
 18 32  1  0
M  CHG  1  23  -1
M  END
>  <UniqueID>  (92) 
92

>  <SMILES>  (92) 
NC(=O)c1cc2ccc(-c3cncn3C(F)F)cc2n1C(=O)[O-]

>  <Energy>  (92) 
109.54118076481888

>  <Genealogy>  (92) 
NC(=O)c1cc2ccc(-c3cncn3C(F)F)cc2n1C(=O)[O-] (protonated)
NC(=O)c1cc2ccc(-c3cncn3C(F)F)cc2n1C(=O)[O-] (3D coordinates assigned)
NC(=O)c1cc2ccc(-c3cncn3C(F)F)cc2n1C(=O)[O-] (optimized conformer: 109.54118076481888 kcal/mol)

>  <smiles>  (92) 
NC(=O)c1cc2ccc(-c3cncn3C(F)F)cc2n1C(=O)O

>  <score_type>  (92) 
oracle

>  <origin>  (92) 
adg

>  <m_score__min__energy>  (92) 
-8.9600000000000009

>  <m_primary>  (92) 
energy

$$$$
92:0
     RDKit          3D

 47 48  0  0  0  0  0  0  0  0999 V2000
   -3.5710   24.5300  -27.1050 C   0  0  0  0  0  0  0  0  0  0  0  0
   -2.2400   25.2560  -27.2550 C   0  0  0  0  0  0  0  0  0  0  0  0
   -1.7630   25.1660  -28.5960 O   0  0  0  0  0  0  0  0  0  0  0  0
   -0.9610   24.1180  -29.0610 C   0  0  0  0  0  0  0  0  0  0  0  0
    0.2890   24.1370  -28.8900 O   0  0  0  0  0  0  0  0  0  0  0  0
   -1.5890   22.9850  -29.8050 C   0  0  0  0  0  0  0  0  0  0  0  0
   -3.0050   23.2590  -30.0360 N   0  0  0  0  0  0  0  0  0  0  0  0
   -3.7820   22.5350  -31.0010 C   0  0  0  0  0  0  0  0  0  0  0  0
   -3.2490   21.6220  -31.6880 O   0  0  0  0  0  0  0  0  0  0  0  0
   -5.1810   22.8150  -31.1550 N   0  0  0  0  0  0  0  0  0  0  0  0
   -5.8420   23.9680  -30.8580 C   0  0  0  0  0  0  0  0  0  0  0  0
   -5.2160   25.2390  -30.4390 C   0  0  0  0  0  0  0  0  0  0  0  0
   -3.8910   25.5510  -30.8620 N   0  0  0  0  0  0  0  0  0  0  0  0
   -5.8280   26.0400  -29.6840 O   0  0  0  0  0  0  0  0  0  0  0  0
   -7.2100   23.8160  -31.0830 C   0  0  0  0  0  0  0  0  0  0  0  0
   -7.3640   22.5240  -31.5370 C   0  0  0  0  0  0  0  0  0  0  0  0
   -8.5150   21.8300  -31.8960 C   0  0  0  0  0  0  0  0  0  0  0  0
   -8.3770   20.4890  -32.2960 C   0  0  0  0  0  0  0  0  0  0  0  0
   -7.1000   19.8730  -32.3310 C   0  0  0  0  0  0  0  0  0  0  0  0
   -6.9690   18.4210  -32.7120 C   0  0  0  0  0  0  0  0  0  0  0  0
   -5.5090   18.0310  -32.9620 C   0  0  0  0  0  0  0  0  0  0  0  0
   -5.0690   18.4010  -34.3450 C   0  0  0  0  0  0  0  0  0  0  0  0
   -5.9300   18.5600  -35.2540 O   0  0  0  0  0  0  0  0  0  0  0  0
   -3.7110   18.6020  -34.6040 O   0  0  0  0  0  0  0  0  0  0  0  0
   -2.8970   19.4530  -33.8060 C   0  0  0  0  0  0  0  0  0  0  0  0
   -5.9570   20.6090  -31.9550 C   0  0  0  0  0  0  0  0  0  0  0  0
   -6.1230   21.9440  -31.5730 C   0  0  0  0  0  0  0  0  0  0  0  0
   -3.8017   24.4042  -26.0368 H   0  0  0  0  0  0  0  0  0  0  0  0
   -4.3662   25.1193  -27.5849 H   0  0  0  0  0  0  0  0  0  0  0  0
   -3.5061   23.5423  -27.5849 H   0  0  0  0  0  0  0  0  0  0  0  0
   -2.3750   26.3151  -26.9904 H   0  0  0  0  0  0  0  0  0  0  0  0
   -1.5041   24.7854  -26.5864 H   0  0  0  0  0  0  0  0  0  0  0  0
   -1.0805   22.8587  -30.7722 H   0  0  0  0  0  0  0  0  0  0  0  0
   -1.4931   22.0658  -29.2085 H   0  0  0  0  0  0  0  0  0  0  0  0
   -3.4740   23.9830  -29.4490 H   0  0  0  0  0  0  0  0  0  0  0  0
   -3.0670   25.2960  -30.2760 H   0  0  0  0  0  0  0  0  0  0  0  0
   -7.9985   24.5677  -30.9305 H   0  0  0  0  0  0  0  0  0  0  0  0
   -9.5019   22.3150  -31.8678 H   0  0  0  0  0  0  0  0  0  0  0  0
   -9.2681   19.9122  -32.5845 H   0  0  0  0  0  0  0  0  0  0  0  0
   -7.3691   17.8008  -31.8964 H   0  0  0  0  0  0  0  0  0  0  0  0
   -7.5319   18.2584  -33.6430 H   0  0  0  0  0  0  0  0  0  0  0  0
   -4.8705   18.5515  -32.2330 H   0  0  0  0  0  0  0  0  0  0  0  0
   -5.4206   16.9400  -32.8530 H   0  0  0  0  0  0  0  0  0  0  0  0
   -3.0893   19.2519  -32.7418 H   0  0  0  0  0  0  0  0  0  0  0  0
   -1.8371   19.2617  -34.0296 H   0  0  0  0  0  0  0  0  0  0  0  0
   -3.1352   20.5034  -34.0296 H   0  0  0  0  0  0  0  0  0  0  0  0
   -4.9599   20.1445  -31.9621 H   0  0  0  0  0  0  0  0  0  0  0  0
  1  2  1  0
  2  3  1  0
  3  4  1  0
  4  5  2  0
  4  6  1  0
  6  7  1  0
  7  8  1  0
  8  9  2  0
  8 10  1  0
 10 11  1  0
 11 12  1  0
 12 13  1  0
 12 14  2  0
 11 15  2  0
 15 16  1  0
 16 17  2  0
 17 18  1  0
 18 19  2  0
 19 20  1  0
 20 21  1  0
 21 22  1  0
 22 23  2  0
 22 24  1  0
 24 25  1  0
 19 26  1  0
 26 27  2  0
 27 10  1  0
 27 16  1  0
  1 28  1  0
  1 29  1  0
  1 30  1  0
  2 31  1  0
  2 32  1  0
  6 33  1  0
  6 34  1  0
  7 35  1  0
 13 36  1  0
 15 37  1  0
 17 38  1  0
 18 39  1  0
 20 40  1  0
 20 41  1  0
 21 42  1  0
 21 43  1  0
 25 44  1  0
 25 45  1  0
 25 46  1  0
 26 47  1  0
M  CHG  1  13  -1
M  END
>  <UniqueID>  (93) 
93

>  <SMILES>  (93) 
CCOC(=O)CNC(=O)n1c(C([NH-])=O)cc2ccc(CCC(=O)OC)cc21

>  <Energy>  (93) 
72.03268486539724

>  <Genealogy>  (93) 
CCOC(=O)CNC(=O)n1c(C([NH-])=O)cc2ccc(CCC(=O)OC)cc21 (protonated)
CCOC(=O)CNC(=O)n1c(C([NH-])=O)cc2ccc(CCC(=O)OC)cc21 (3D coordinates assigned)
CCOC(=O)CNC(=O)n1c(C([NH-])=O)cc2ccc(CCC(=O)OC)cc21 (optimized conformer: 72.03268486539724 kcal/mol)

>  <smiles>  (93) 
CCOC(=O)CNC(=O)n1c(C(N)=O)cc2ccc(CCC(=O)OC)cc21

>  <score_type>  (93) 
oracle

>  <origin>  (93) 
adg

>  <m_score__min__energy>  (93) 
-10.48

>  <m_primary>  (93) 
energy

$$$$
93:0
     RDKit          3D

 42 43  0  0  0  0  0  0  0  0999 V2000
   -4.4080   17.7950  -34.8690 N   0  0  0  0  0  0  0  0  0  0  0  0
   -5.6300   18.0170  -34.2200 C   0  0  0  0  0  0  0  0  0  0  0  0
   -6.5200   17.1050  -34.4010 O   0  0  0  0  0  0  0  0  0  0  0  0
   -6.0260   19.1320  -33.3920 C   0  0  0  0  0  0  0  0  0  0  0  0
   -7.4050   19.3010  -33.1220 C   0  0  0  0  0  0  0  0  0  0  0  0
   -7.5330   20.4330  -32.3770 C   0  0  0  0  0  0  0  0  0  0  0  0
   -8.6660   21.0230  -31.8620 C   0  0  0  0  0  0  0  0  0  0  0  0
   -8.5850   22.1790  -31.1200 C   0  0  0  0  0  0  0  0  0  0  0  0
   -7.3340   22.7100  -30.9200 C   0  0  0  0  0  0  0  0  0  0  0  0
   -7.2290   23.9580  -30.1210 C   0  0  0  0  0  0  0  0  0  0  0  0
   -6.1780   24.8730  -30.7330 C   0  0  0  0  0  0  0  0  0  0  0  0
   -4.7230   24.4790  -30.3030 B   0  0  0  0  0  0  0  0  0  0  0  0
   -4.4530   23.2010  -29.6550 O   0  0  0  0  0  0  0  0  0  0  0  0
   -3.6100   25.2600  -30.8410 O   0  0  0  0  0  0  0  0  0  0  0  0
   -6.1950   22.1010  -31.4490 C   0  0  0  0  0  0  0  0  0  0  0  0
   -6.2680   20.9370  -32.1970 C   0  0  0  0  0  0  0  0  0  0  0  0
   -5.3430   20.1340  -32.8180 N   0  0  0  0  0  0  0  0  0  0  0  0
   -3.9770   20.4590  -32.8010 C   0  0  0  0  0  0  0  0  0  0  0  0
   -3.2410   19.7440  -33.5920 O   0  0  0  0  0  0  0  0  0  0  0  0
   -3.2630   21.4550  -32.0660 C   0  0  0  0  0  0  0  0  0  0  0  0
   -3.1770   22.6780  -32.2830 O   0  0  0  0  0  0  0  0  0  0  0  0
   -2.5330   21.0380  -30.9160 O   0  0  0  0  0  0  0  0  0  0  0  0
   -1.1870   21.4180  -30.7350 C   0  0  0  0  0  0  0  0  0  0  0  0
   -1.0210   22.5600  -29.7760 C   0  0  0  0  0  0  0  0  0  0  0  0
   -1.9030   23.6100  -30.0880 O   0  0  0  0  0  0  0  0  0  0  0  0
   -3.8520   18.5780  -35.2920 H   0  0  0  0  0  0  0  0  0  0  0  0
   -4.0120   16.8360  -34.9510 H   0  0  0  0  0  0  0  0  0  0  0  0
   -8.2207   18.6411  -33.4524 H   0  0  0  0  0  0  0  0  0  0  0  0
   -9.6486   20.5641  -32.0463 H   0  0  0  0  0  0  0  0  0  0  0  0
   -9.4840   22.6577  -30.7046 H   0  0  0  0  0  0  0  0  0  0  0  0
   -8.2019   24.4713  -30.1154 H   0  0  0  0  0  0  0  0  0  0  0  0
   -6.9374   23.7069  -29.0905 H   0  0  0  0  0  0  0  0  0  0  0  0
   -6.2515   24.8128  -31.8289 H   0  0  0  0  0  0  0  0  0  0  0  0
   -6.3703   25.8944  -30.3729 H   0  0  0  0  0  0  0  0  0  0  0  0
   -3.8260   22.6460  -30.1900 H   0  0  0  0  0  0  0  0  0  0  0  0
   -3.1800   24.6980  -31.5300 H   0  0  0  0  0  0  0  0  0  0  0  0
   -5.2112   22.5582  -31.2669 H   0  0  0  0  0  0  0  0  0  0  0  0
   -0.6280   20.5528  -30.3491 H   0  0  0  0  0  0  0  0  0  0  0  0
   -0.8067   21.7522  -31.7116 H   0  0  0  0  0  0  0  0  0  0  0  0
   -1.2290   22.2063  -28.7554 H   0  0  0  0  0  0  0  0  0  0  0  0
    0.0108   22.9341  -29.8504 H   0  0  0  0  0  0  0  0  0  0  0  0
   -2.6020   23.2420  -30.6780 H   0  0  0  0  0  0  0  0  0  0  0  0
  1  2  1  0
  2  3  2  0
  2  4  1  0
  4  5  2  0
  5  6  1  0
  6  7  2  0
  7  8  1  0
  8  9  2  0
  9 10  1  0
 10 11  1  0
 11 12  1  0
 12 13  1  0
 12 14  1  0
  9 15  1  0
 15 16  2  0
 16 17  1  0
 17 18  1  0
 18 19  2  0
 18 20  1  0
 20 21  2  0
 20 22  1  0
 22 23  1  0
 23 24  1  0
 24 25  1  0
 17  4  1  0
 16  6  1  0
  1 26  1  0
  1 27  1  0
  5 28  1  0
  7 29  1  0
  8 30  1  0
 10 31  1  0
 10 32  1  0
 11 33  1  0
 11 34  1  0
 13 35  1  0
 14 36  1  0
 15 37  1  0
 23 38  1  0
 23 39  1  0
 24 40  1  0
 24 41  1  0
 25 42  1  0
M  END
>  <smiles>  (94) 
NC(=O)c1cc2ccc(CCB(O)O)cc2n1C(=O)C(=O)OCCO

>  <score_type>  (94) 
oracle

>  <origin>  (94) 
adg

>  <m_score__min__energy>  (94) 
-6.2800000000000002

>  <m_primary>  (94) 
energy

$$$$
94:0
     RDKit          3D

 35 37  0  0  0  0  0  0  0  0999 V2000
   -2.7090   21.9650  -29.0280 C   0  0  0  0  0  0  0  0  0  0  0  0
   -3.5430   21.8680  -30.0620 C   0  0  0  0  0  0  0  0  0  0  0  0
   -4.1810   23.0460  -30.6800 C   0  0  0  0  0  0  0  0  0  0  0  0
   -3.5040   24.0840  -30.9190 O   0  0  0  0  0  0  0  0  0  0  0  0
   -5.5680   23.0060  -31.0480 N   0  0  0  0  0  0  0  0  0  0  0  0
   -6.5270   23.9280  -30.7510 C   0  0  0  0  0  0  0  0  0  0  0  0
   -6.2960   25.2390  -30.1080 C   0  0  0  0  0  0  0  0  0  0  0  0
   -5.2010   26.0720  -30.4930 N   0  0  0  0  0  0  0  0  0  0  0  0
   -7.1060   25.6500  -29.2370 O   0  0  0  0  0  0  0  0  0  0  0  0
   -7.7820   23.4790  -31.1530 C   0  0  0  0  0  0  0  0  0  0  0  0
   -7.5620   22.2420  -31.7150 C   0  0  0  0  0  0  0  0  0  0  0  0
   -8.4650   21.3340  -32.2590 C   0  0  0  0  0  0  0  0  0  0  0  0
   -7.9660   20.1050  -32.7230 C   0  0  0  0  0  0  0  0  0  0  0  0
   -6.5840   19.7980  -32.6190 C   0  0  0  0  0  0  0  0  0  0  0  0
   -6.0740   18.4920  -33.1020 C   0  0  0  0  0  0  0  0  0  0  0  0
   -5.5770   18.3680  -34.4110 C   0  0  0  0  0  0  0  0  0  0  0  0
   -5.0900   17.1400  -34.8620 C   0  0  0  0  0  0  0  0  0  0  0  0
   -5.1060   16.0400  -34.0040 C   0  0  0  0  0  0  0  0  0  0  0  0
   -4.6380   14.8420  -34.4270 F   0  0  0  0  0  0  0  0  0  0  0  0
   -5.5970   16.1690  -32.7440 N   0  0  0  0  0  0  0  0  0  0  0  0
   -6.0750   17.3520  -32.2750 C   0  0  0  0  0  0  0  0  0  0  0  0
   -6.5840   17.4050  -31.0180 F   0  0  0  0  0  0  0  0  0  0  0  0
   -5.6980   20.7500  -32.0610 C   0  0  0  0  0  0  0  0  0  0  0  0
   -6.2200   21.9760  -31.6330 C   0  0  0  0  0  0  0  0  0  0  0  0
   -2.2565   21.0586  -28.5995 H   0  0  0  0  0  0  0  0  0  0  0  0
   -2.4728   22.9515  -28.6026 H   0  0  0  0  0  0  0  0  0  0  0  0
   -3.7646   20.8712  -30.4709 H   0  0  0  0  0  0  0  0  0  0  0  0
   -5.0250   26.9690  -29.9880 H   0  0  0  0  0  0  0  0  0  0  0  0
   -4.6250   25.8560  -31.3360 H   0  0  0  0  0  0  0  0  0  0  0  0
   -8.7440   24.0013  -31.0446 H   0  0  0  0  0  0  0  0  0  0  0  0
   -9.5372   21.5710  -32.3239 H   0  0  0  0  0  0  0  0  0  0  0  0
   -8.6537   19.3730  -33.1716 H   0  0  0  0  0  0  0  0  0  0  0  0
   -5.5718   19.2402  -35.0812 H   0  0  0  0  0  0  0  0  0  0  0  0
   -4.6972   17.0405  -35.8846 H   0  0  0  0  0  0  0  0  0  0  0  0
   -4.6241   20.5315  -31.9659 H   0  0  0  0  0  0  0  0  0  0  0  0
  1  2  2  0
  2  3  1  0
  3  4  2  0
  3  5  1  0
  5  6  1  0
  6  7  1  0
  7  8  1  0
  7  9  2  0
  6 10  2  0
 10 11  1  0
 11 12  2  0
 12 13  1  0
 13 14  2  0
 14 15  1  0
 15 16  2  0
 16 17  1  0
 17 18  2  0
 18 19  1  0
 18 20  1  0
 20 21  2  0
 21 22  1  0
 14 23  1  0
 23 24  2  0
 24  5  1  0
 24 11  1  0
 21 15  1  0
  1 25  1  0
  1 26  1  0
  2 27  1  0
  8 28  1  0
  8 29  1  0
 10 30  1  0
 12 31  1  0
 13 32  1  0
 16 33  1  0
 17 34  1  0
 23 35  1  0
M  END
>  <UniqueID>  (95) 
94

>  <SMILES>  (95) 
C=CC(=O)n1c(C(N)=O)cc2ccc(-c3ccc(F)nc3F)cc21

>  <Energy>  (95) 
83.65742877077243

>  <Genealogy>  (95) 
C=CC(=O)n1c(C(N)=O)cc2ccc(-c3ccc(F)nc3F)cc21 (3D coordinates assigned)
C=CC(=O)n1c(C(N)=O)cc2ccc(-c3ccc(F)nc3F)cc21 (optimized conformer: 83.65742877077243 kcal/mol)

>  <smiles>  (95) 
C=CC(=O)n1c(C(N)=O)cc2ccc(-c3ccc(F)nc3F)cc21

>  <score_type>  (95) 
oracle

>  <origin>  (95) 
adg

>  <m_score__min__energy>  (95) 
-9.5700000000000003

>  <m_primary>  (95) 
energy

$$$$
95:0
     RDKit          3D

 38 39  0  0  0  0  0  0  0  0999 V2000
   -1.1080   22.4970  -30.4450 C   0  0  0  0  0  0  0  0  0  0  0  0
   -1.7940   23.1770  -29.2370 C   0  0  1  0  0  0  0  0  0  0  0  0
   -1.1370   24.4980  -28.9100 C   0  0  0  0  0  0  0  0  0  0  0  0
    0.0840   24.5550  -28.6080 O   0  0  0  0  0  0  0  0  0  0  0  0
   -1.8810   25.6700  -28.9710 O   0  0  0  0  0  0  0  0  0  0  0  0
   -3.2800   23.3050  -29.3430 N   0  0  2  0  0  0  0  0  0  0  0  0
   -3.9480   23.1390  -28.0400 C   0  0  0  0  0  0  0  0  0  0  0  0
   -3.9220   22.4430  -30.3200 C   0  0  0  0  0  0  0  0  0  0  0  0
   -3.4200   21.3330  -30.6420 O   0  0  0  0  0  0  0  0  0  0  0  0
   -5.2370   22.7660  -30.8020 N   0  0  0  0  0  0  0  0  0  0  0  0
   -5.8660   23.9750  -30.7960 C   0  0  0  0  0  0  0  0  0  0  0  0
   -5.2480   25.2650  -30.4340 C   0  0  0  0  0  0  0  0  0  0  0  0
   -3.9250   25.5680  -30.8720 N   0  0  0  0  0  0  0  0  0  0  0  0
   -5.8650   26.0910  -29.7140 O   0  0  0  0  0  0  0  0  0  0  0  0
   -7.1750   23.8460  -31.2560 C   0  0  0  0  0  0  0  0  0  0  0  0
   -7.3280   22.5100  -31.5510 C   0  0  0  0  0  0  0  0  0  0  0  0
   -8.4350   21.8170  -32.0330 C   0  0  0  0  0  0  0  0  0  0  0  0
   -8.3110   20.4290  -32.2220 C   0  0  0  0  0  0  0  0  0  0  0  0
   -7.0950   19.7650  -31.9240 C   0  0  0  0  0  0  0  0  0  0  0  0
   -6.9890   18.2790  -32.1200 C   0  0  0  0  0  0  0  0  0  0  0  0
   -8.2510   17.7380  -32.2780 F   0  0  0  0  0  0  0  0  0  0  0  0
   -6.3810   17.7070  -31.0170 F   0  0  0  0  0  0  0  0  0  0  0  0
   -5.9940   20.5010  -31.4350 C   0  0  0  0  0  0  0  0  0  0  0  0
   -6.1430   21.8820  -31.2680 C   0  0  0  0  0  0  0  0  0  0  0  0
   -0.3701   21.7656  -30.0837 H   0  0  0  0  0  0  0  0  0  0  0  0
   -1.8653   21.9830  -31.0552 H   0  0  0  0  0  0  0  0  0  0  0  0
   -0.6007   23.2588  -31.0552 H   0  0  0  0  0  0  0  0  0  0  0  0
   -1.6408   22.4871  -28.3940 H   0  0  0  0  0  0  0  0  0  0  0  0
   -3.4690   24.2920  -29.6370 H   0  0  0  0  0  0  0  0  0  0  0  0
   -3.2243   23.3188  -27.2314 H   0  0  0  0  0  0  0  0  0  0  0  0
   -4.7758   23.8588  -27.9580 H   0  0  0  0  0  0  0  0  0  0  0  0
   -4.3426   22.1155  -27.9580 H   0  0  0  0  0  0  0  0  0  0  0  0
   -3.0960   25.2930  -30.3020 H   0  0  0  0  0  0  0  0  0  0  0  0
   -7.9264   24.6424  -31.3611 H   0  0  0  0  0  0  0  0  0  0  0  0
   -9.3768   22.3386  -32.2588 H   0  0  0  0  0  0  0  0  0  0  0  0
   -9.1663   19.8530  -32.6049 H   0  0  0  0  0  0  0  0  0  0  0  0
   -6.3880   18.0757  -33.0186 H   0  0  0  0  0  0  0  0  0  0  0  0
   -5.0444   20.0020  -31.1918 H   0  0  0  0  0  0  0  0  0  0  0  0
  1  2  1  0
  2  3  1  0
  3  4  2  0
  3  5  1  0
  2  6  1  0
  6  7  1  0
  6  8  1  0
  8  9  2  0
  8 10  1  0
 10 11  1  0
 11 12  1  0
 12 13  1  0
 12 14  2  0
 11 15  2  0
 15 16  1  0
 16 17  2  0
 17 18  1  0
 18 19  2  0
 19 20  1  0
 20 21  1  0
 20 22  1  0
 19 23  1  0
 23 24  2  0
 24 10  1  0
 24 16  1  0
  1 25  1  0
  1 26  1  0
  1 27  1  0
  2 28  1  1
  6 29  1  6
  7 30  1  0
  7 31  1  0
  7 32  1  0
 13 33  1  0
 15 34  1  0
 17 35  1  0
 18 36  1  0
 20 37  1  0
 23 38  1  0
M  CHG  3   5  -1   6   1  13  -1
M  END
>  <UniqueID>  (96) 
95

>  <SMILES>  (96) 
C[C@@H](C(=O)[O-])[N@H+](C)C(=O)n1c(C([NH-])=O)cc2ccc(C(F)F)cc21

>  <Energy>  (96) 
85.54275046287964

>  <Genealogy>  (96) 
C[C@@H](C(=O)[O-])[NH+](C)C(=O)n1c(C([NH-])=O)cc2ccc(C(F)F)cc21 (protonated)
C[C@@H](C(=O)[O-])[N@H+](C)C(=O)n1c(C([NH-])=O)cc2ccc(C(F)F)cc21 (chirality)
C[C@@H](C(=O)[O-])[N@H+](C)C(=O)n1c(C([NH-])=O)cc2ccc(C(F)F)cc21 (3D coordinates assigned)
C[C@@H](C(=O)[O-])[N@H+](C)C(=O)n1c(C([NH-])=O)cc2ccc(C(F)F)cc21 (optimized conformer: 85.54275046287964 kcal/mol)

>  <smiles>  (96) 
C[C@@H](C(=O)O)N(C)C(=O)n1c(C(N)=O)cc2ccc(C(F)F)cc21

>  <score_type>  (96) 
oracle

>  <origin>  (96) 
adg

>  <m_score__min__energy>  (96) 
-10.859999999999999

>  <m_primary>  (96) 
energy

$$$$
96:0
     RDKit          3D

 30 31  0  0  0  0  0  0  0  0999 V2000
   -3.8710   25.6580  -30.8380 N   0  0  0  0  0  0  0  0  0  0  0  0
   -5.2290   25.3580  -30.5280 C   0  0  0  0  0  0  0  0  0  0  0  0
   -5.9130   26.1920  -29.8770 O   0  0  0  0  0  0  0  0  0  0  0  0
   -5.8060   24.0590  -30.9330 C   0  0  0  0  0  0  0  0  0  0  0  0
   -7.1680   23.8590  -31.1490 C   0  0  0  0  0  0  0  0  0  0  0  0
   -7.2800   22.5610  -31.5930 C   0  0  0  0  0  0  0  0  0  0  0  0
   -8.4090   21.8350  -31.9590 C   0  0  0  0  0  0  0  0  0  0  0  0
   -8.2330   20.5010  -32.3600 C   0  0  0  0  0  0  0  0  0  0  0  0
   -6.9440   19.9080  -32.3660 C   0  0  0  0  0  0  0  0  0  0  0  0
   -6.7630   18.4870  -32.8340 C   0  0  0  0  0  0  0  0  0  0  0  0
   -7.9600   17.8090  -32.7000 F   0  0  0  0  0  0  0  0  0  0  0  0
   -5.7940   17.8440  -32.0830 F   0  0  0  0  0  0  0  0  0  0  0  0
   -6.3720   18.4540  -34.1620 F   0  0  0  0  0  0  0  0  0  0  0  0
   -5.8180   20.6870  -32.0090 C   0  0  0  0  0  0  0  0  0  0  0  0
   -6.0210   22.0200  -31.6300 C   0  0  0  0  0  0  0  0  0  0  0  0
   -5.1040   22.9270  -31.2260 N   0  0  0  0  0  0  0  0  0  0  0  0
   -3.6940   22.7040  -31.0640 C   0  0  0  0  0  0  0  0  0  0  0  0
   -3.0310   22.1870  -32.0030 O   0  0  0  0  0  0  0  0  0  0  0  0
   -3.0770   23.0440  -29.8510 O   0  0  0  0  0  0  0  0  0  0  0  0
   -1.7050   23.2760  -29.6830 C   0  0  0  0  0  0  0  0  0  0  0  0
   -1.2650   24.4300  -29.4310 O   0  0  0  0  0  0  0  0  0  0  0  0
   -0.7570   22.1230  -29.7400 C   0  0  0  0  0  0  0  0  0  0  0  0
   -1.4280   20.9440  -29.4680 F   0  0  0  0  0  0  0  0  0  0  0  0
   -0.2000   22.0500  -31.0030 F   0  0  0  0  0  0  0  0  0  0  0  0
    0.2520   22.2930  -28.8090 F   0  0  0  0  0  0  0  0  0  0  0  0
   -3.0890   25.1770  -30.3420 H   0  0  0  0  0  0  0  0  0  0  0  0
   -7.9809   24.5843  -30.9970 H   0  0  0  0  0  0  0  0  0  0  0  0
   -9.4092   22.2922  -31.9349 H   0  0  0  0  0  0  0  0  0  0  0  0
   -9.1051   19.9083  -32.6734 H   0  0  0  0  0  0  0  0  0  0  0  0
   -4.8063   20.2556  -32.0287 H   0  0  0  0  0  0  0  0  0  0  0  0
  1  2  1  0
  2  3  2  0
  2  4  1  0
  4  5  2  0
  5  6  1  0
  6  7  2  0
  7  8  1  0
  8  9  2  0
  9 10  1  0
 10 11  1  0
 10 12  1  0
 10 13  1  0
  9 14  1  0
 14 15  2  0
 15 16  1  0
 16 17  1  0
 17 18  2  0
 17 19  1  0
 19 20  1  0
 20 21  2  0
 20 22  1  0
 22 23  1  0
 22 24  1  0
 22 25  1  0
 16  4  1  0
 15  6  1  0
  1 26  1  0
  5 27  1  0
  7 28  1  0
  8 29  1  0
 14 30  1  0
M  CHG  1   1  -1
M  END
>  <UniqueID>  (97) 
96

>  <SMILES>  (97) 
[NH-]C(=O)c1cc2ccc(C(F)(F)F)cc2n1C(=O)OC(=O)C(F)(F)F

>  <Energy>  (97) 
69.61833885424255

>  <Genealogy>  (97) 
[NH-]C(=O)c1cc2ccc(C(F)(F)F)cc2n1C(=O)OC(=O)C(F)(F)F (protonated)
[NH-]C(=O)c1cc2ccc(C(F)(F)F)cc2n1C(=O)OC(=O)C(F)(F)F (3D coordinates assigned)
[NH-]C(=O)c1cc2ccc(C(F)(F)F)cc2n1C(=O)OC(=O)C(F)(F)F (optimized conformer: 69.61833885424255 kcal/mol)

>  <smiles>  (97) 
NC(=O)c1cc2ccc(C(F)(F)F)cc2n1C(=O)OC(=O)C(F)(F)F

>  <score_type>  (97) 
oracle

>  <origin>  (97) 
adg

>  <m_score__min__energy>  (97) 
-8.6899999999999995

>  <m_primary>  (97) 
energy

$$$$
97:0
     RDKit          3D

 59 60  0  0  0  0  0  0  0  0999 V2000
   -1.6320   21.5440  -32.5000 C   0  0  0  0  0  0  0  0  0  0  0  0
   -2.7600   21.1320  -33.3620 N   0  0  0  0  0  0  0  0  0  0  0  0
   -3.8560   22.1100  -33.2160 C   0  0  0  0  0  0  0  0  0  0  0  0
   -3.2390   19.7810  -33.0010 C   0  0  0  0  0  0  0  0  0  0  0  0
   -4.6100   19.4970  -33.6420 C   0  0  0  0  0  0  0  0  0  0  0  0
   -4.6380   18.2020  -34.4650 C   0  0  0  0  0  0  0  0  0  0  0  0
   -5.7780   17.2510  -34.0660 C   0  0  0  0  0  0  0  0  0  0  0  0
   -6.9240   17.9800  -33.5220 N   0  0  0  0  0  0  0  0  0  0  0  0
   -7.2500   17.9430  -32.1260 C   0  0  0  0  0  0  0  0  0  0  0  0
   -6.5030   17.3390  -31.3110 O   0  0  0  0  0  0  0  0  0  0  0  0
   -8.4560   18.6690  -31.6220 C   0  0  0  0  0  0  0  0  0  0  0  0
   -8.1990   20.1500  -31.6250 C   0  0  0  0  0  0  0  0  0  0  0  0
   -9.1720   21.0430  -32.1600 C   0  0  0  0  0  0  0  0  0  0  0  0
   -8.9510   22.4290  -32.1460 C   0  0  0  0  0  0  0  0  0  0  0  0
   -7.7660   22.8960  -31.5870 C   0  0  0  0  0  0  0  0  0  0  0  0
   -7.2850   24.1790  -31.4690 C   0  0  0  0  0  0  0  0  0  0  0  0
   -6.0590   24.0520  -30.8210 C   0  0  0  0  0  0  0  0  0  0  0  0
   -5.2380   25.1960  -30.4030 C   0  0  0  0  0  0  0  0  0  0  0  0
   -3.8860   25.2980  -30.8380 N   0  0  0  0  0  0  0  0  0  0  0  0
   -5.7390   26.1160  -29.7090 O   0  0  0  0  0  0  0  0  0  0  0  0
   -5.7840   22.7460  -30.5530 N   0  0  0  0  0  0  0  0  0  0  0  0
   -4.5930   22.1890  -29.9690 C   0  0  0  0  0  0  0  0  0  0  0  0
   -4.0870   21.1530  -30.4680 O   0  0  0  0  0  0  0  0  0  0  0  0
   -3.8930   22.8980  -28.8410 C   0  0  0  0  0  0  0  0  0  0  0  0
   -2.3980   22.5450  -28.7360 C   0  0  0  0  0  0  0  0  0  0  0  0
   -1.4900   23.3290  -29.6970 C   0  0  0  0  0  0  0  0  0  0  0  0
   -0.9580   24.5820  -29.0730 C   0  0  0  0  0  0  0  0  0  0  0  0
   -1.6010   25.6590  -29.1690 O   0  0  0  0  0  0  0  0  0  0  0  0
    0.2400   24.5580  -28.3710 O   0  0  0  0  0  0  0  0  0  0  0  0
   -6.8380   22.0500  -31.0290 C   0  0  0  0  0  0  0  0  0  0  0  0
   -7.0210   20.6650  -31.0480 C   0  0  0  0  0  0  0  0  0  0  0  0
   -1.9203   21.4387  -31.4437 H   0  0  0  0  0  0  0  0  0  0  0  0
   -0.7600   20.9063  -32.7074 H   0  0  0  0  0  0  0  0  0  0  0  0
   -1.3763   22.5936  -32.7074 H   0  0  0  0  0  0  0  0  0  0  0  0
   -4.0517   22.2846  -32.1477 H   0  0  0  0  0  0  0  0  0  0  0  0
   -3.5685   23.0572  -33.6957 H   0  0  0  0  0  0  0  0  0  0  0  0
   -4.7645   21.7169  -33.6957 H   0  0  0  0  0  0  0  0  0  0  0  0
   -2.5134   19.0344  -33.3560 H   0  0  0  0  0  0  0  0  0  0  0  0
   -3.3428   19.7245  -31.9074 H   0  0  0  0  0  0  0  0  0  0  0  0
   -5.3603   19.4183  -32.8414 H   0  0  0  0  0  0  0  0  0  0  0  0
   -4.8256   20.3264  -34.3317 H   0  0  0  0  0  0  0  0  0  0  0  0
   -4.7587   18.4655  -35.5261 H   0  0  0  0  0  0  0  0  0  0  0  0
   -3.6921   17.6743  -34.2733 H   0  0  0  0  0  0  0  0  0  0  0  0
   -6.1017   16.6895  -34.9548 H   0  0  0  0  0  0  0  0  0  0  0  0
   -5.4018   16.5718  -33.2868 H   0  0  0  0  0  0  0  0  0  0  0  0
   -7.5560   18.5080  -34.1650 H   0  0  0  0  0  0  0  0  0  0  0  0
   -9.3144   18.4463  -32.2728 H   0  0  0  0  0  0  0  0  0  0  0  0
   -8.6736   18.3409  -30.5949 H   0  0  0  0  0  0  0  0  0  0  0  0
  -10.1034   20.6431  -32.5872 H   0  0  0  0  0  0  0  0  0  0  0  0
   -9.6928   23.1251  -32.5646 H   0  0  0  0  0  0  0  0  0  0  0  0
   -7.7657   25.1067  -31.8128 H   0  0  0  0  0  0  0  0  0  0  0  0
   -3.0940   25.3130  -30.1540 H   0  0  0  0  0  0  0  0  0  0  0  0
   -3.9856   23.9826  -28.9991 H   0  0  0  0  0  0  0  0  0  0  0  0
   -4.3714   22.5739  -27.9050 H   0  0  0  0  0  0  0  0  0  0  0  0
   -2.0678   22.7500  -27.7069 H   0  0  0  0  0  0  0  0  0  0  0  0
   -2.3063   21.4845  -29.0134 H   0  0  0  0  0  0  0  0  0  0  0  0
   -0.6430   22.6894  -29.9859 H   0  0  0  0  0  0  0  0  0  0  0  0
   -2.0908   23.6154  -30.5728 H   0  0  0  0  0  0  0  0  0  0  0  0
   -6.2625   19.9917  -30.6221 H   0  0  0  0  0  0  0  0  0  0  0  0
  1  2  1  0
  2  3  1  0
  2  4  1  0
  4  5  1  0
  5  6  1  0
  6  7  1  0
  7  8  1  0
  8  9  1  0
  9 10  2  0
  9 11  1  0
 11 12  1  0
 12 13  2  0
 13 14  1  0
 14 15  2  0
 15 16  1  0
 16 17  2  0
 17 18  1  0
 18 19  1  0
 18 20  2  0
 17 21  1  0
 21 22  1  0
 22 23  2  0
 22 24  1  0
 24 25  1  0
 25 26  1  0
 26 27  1  0
 27 28  2  0
 27 29  1  0
 21 30  1  0
 30 31  2  0
 31 12  1  0
 30 15  1  0
  1 32  1  0
  1 33  1  0
  1 34  1  0
  3 35  1  0
  3 36  1  0
  3 37  1  0
  4 38  1  0
  4 39  1  0
  5 40  1  0
  5 41  1  0
  6 42  1  0
  6 43  1  0
  7 44  1  0
  7 45  1  0
  8 46  1  0
 11 47  1  0
 11 48  1  0
 13 49  1  0
 14 50  1  0
 16 51  1  0
 19 52  1  0
 24 53  1  0
 24 54  1  0
 25 55  1  0
 25 56  1  0
 26 57  1  0
 26 58  1  0
 31 59  1  0
M  CHG  2  19  -1  29  -1
M  END
>  <UniqueID>  (98) 
97

>  <SMILES>  (98) 
CN(C)CCCCNC(=O)Cc1ccc2cc(C([NH-])=O)n(C(=O)CCCC(=O)[O-])c2c1

>  <Energy>  (98) 
85.14153205677513

>  <Genealogy>  (98) 
CN(C)CCCCNC(=O)Cc1ccc2cc(C([NH-])=O)n(C(=O)CCCC(=O)[O-])c2c1 (protonated)
CN(C)CCCCNC(=O)Cc1ccc2cc(C([NH-])=O)n(C(=O)CCCC(=O)[O-])c2c1 (3D coordinates assigned)
CN(C)CCCCNC(=O)Cc1ccc2cc(C([NH-])=O)n(C(=O)CCCC(=O)[O-])c2c1 (optimized conformer: 85.14153205677513 kcal/mol)

>  <smiles>  (98) 
CN(C)CCCCNC(=O)Cc1ccc2cc(C(N)=O)n(C(=O)CCCC(=O)O)c2c1

>  <score_type>  (98) 
oracle

>  <origin>  (98) 
adg

>  <m_score__min__energy>  (98) 
-13.800000000000001

>  <m_primary>  (98) 
energy

$$$$
99:0
     RDKit          3D

 45 46  0  0  0  0  0  0  0  0999 V2000
   -3.5610   22.3350  -28.1380 C   0  0  0  0  0  0  0  0  0  0  0  0
   -3.3670   21.8610  -29.3660 C   0  0  0  0  0  0  0  0  0  0  0  0
   -3.7090   22.6320  -30.5770 C   0  0  0  0  0  0  0  0  0  0  0  0
   -2.8000   23.0640  -31.3370 O   0  0  0  0  0  0  0  0  0  0  0  0
   -5.0850   22.8480  -30.9280 N   0  0  0  0  0  0  0  0  0  0  0  0
   -5.8050   24.0030  -30.8400 C   0  0  0  0  0  0  0  0  0  0  0  0
   -5.2660   25.3320  -30.4870 C   0  0  0  0  0  0  0  0  0  0  0  0
   -3.9260   25.6710  -30.8390 N   0  0  0  0  0  0  0  0  0  0  0  0
   -5.9640   26.1620  -29.8480 O   0  0  0  0  0  0  0  0  0  0  0  0
   -7.1280   23.7810  -31.2150 C   0  0  0  0  0  0  0  0  0  0  0  0
   -7.1950   22.4450  -31.5450 C   0  0  0  0  0  0  0  0  0  0  0  0
   -8.2740   21.6820  -31.9770 C   0  0  0  0  0  0  0  0  0  0  0  0
   -8.0570   20.3160  -32.2230 C   0  0  0  0  0  0  0  0  0  0  0  0
   -6.7750   19.7340  -32.0290 C   0  0  0  0  0  0  0  0  0  0  0  0
   -6.5660   18.3230  -32.2590 N   0  0  0  0  0  0  0  0  0  0  0  0
   -6.1230   17.4710  -31.1490 C   0  0  0  0  0  0  0  0  0  0  0  0
   -6.8270   17.7270  -33.5790 C   0  0  0  0  0  0  0  0  0  0  0  0
   -5.6970   18.0400  -34.5820 C   0  0  0  0  0  0  0  0  0  0  0  0
   -4.3370   17.8930  -34.0050 N   0  0  0  0  0  0  0  0  0  0  0  0
   -3.5150   17.0440  -34.8850 C   0  0  0  0  0  0  0  0  0  0  0  0
   -3.6780   19.1990  -33.8200 C   0  0  0  0  0  0  0  0  0  0  0  0
   -5.7050   20.5500  -31.5940 C   0  0  0  0  0  0  0  0  0  0  0  0
   -5.9480   21.9080  -31.3670 C   0  0  0  0  0  0  0  0  0  0  0  0
   -3.2909   21.7245  -27.2638 H   0  0  0  0  0  0  0  0  0  0  0  0
   -3.9915   23.3374  -27.9970 H   0  0  0  0  0  0  0  0  0  0  0  0
   -2.9352   20.8561  -29.4831 H   0  0  0  0  0  0  0  0  0  0  0  0
   -3.1240   25.0730  -30.5390 H   0  0  0  0  0  0  0  0  0  0  0  0
   -7.9457   24.5163  -31.2420 H   0  0  0  0  0  0  0  0  0  0  0  0
   -9.2665   22.1338  -32.1216 H   0  0  0  0  0  0  0  0  0  0  0  0
   -8.8908   19.6883  -32.5705 H   0  0  0  0  0  0  0  0  0  0  0  0
   -6.3742   17.9540  -30.1932 H   0  0  0  0  0  0  0  0  0  0  0  0
   -6.6283   16.4959  -31.2110 H   0  0  0  0  0  0  0  0  0  0  0  0
   -5.0346   17.3246  -31.2110 H   0  0  0  0  0  0  0  0  0  0  0  0
   -6.9115   16.6360  -33.4668 H   0  0  0  0  0  0  0  0  0  0  0  0
   -7.7606   18.1574  -33.9702 H   0  0  0  0  0  0  0  0  0  0  0  0
   -5.7892   17.3531  -35.4362 H   0  0  0  0  0  0  0  0  0  0  0  0
   -5.8106   19.0928  -34.8799 H   0  0  0  0  0  0  0  0  0  0  0  0
   -4.3950   17.4140  -33.0750 H   0  0  0  0  0  0  0  0  0  0  0  0
   -2.8796   16.3877  -34.2722 H   0  0  0  0  0  0  0  0  0  0  0  0
   -4.1711   16.4305  -35.5199 H   0  0  0  0  0  0  0  0  0  0  0  0
   -2.8806   17.6800  -35.5199 H   0  0  0  0  0  0  0  0  0  0  0  0
   -3.5727   19.4076  -32.7451 H   0  0  0  0  0  0  0  0  0  0  0  0
   -2.6830   19.1772  -34.2884 H   0  0  0  0  0  0  0  0  0  0  0  0
   -4.2867   19.9865  -34.2884 H   0  0  0  0  0  0  0  0  0  0  0  0
   -4.7025   20.1251  -31.4375 H   0  0  0  0  0  0  0  0  0  0  0  0
  1  2  2  0
  2  3  1  0
  3  4  2  0
  3  5  1  0
  5  6  1  0
  6  7  1  0
  7  8  1  0
  7  9  2  0
  6 10  2  0
 10 11  1  0
 11 12  2  0
 12 13  1  0
 13 14  2  0
 14 15  1  0
 15 16  1  0
 15 17  1  0
 17 18  1  0
 18 19  1  0
 19 20  1  0
 19 21  1  0
 14 22  1  0
 22 23  2  0
 23  5  1  0
 23 11  1  0
  1 24  1  0
  1 25  1  0
  2 26  1  0
  8 27  1  0
 10 28  1  0
 12 29  1  0
 13 30  1  0
 16 31  1  0
 16 32  1  0
 16 33  1  0
 17 34  1  0
 17 35  1  0
 18 36  1  0
 18 37  1  0
 19 38  1  0
 20 39  1  0
 20 40  1  0
 20 41  1  0
 21 42  1  0
 21 43  1  0
 21 44  1  0
 22 45  1  0
M  CHG  2   8  -1  19   1
M  END
>  <UniqueID>  (99) 
98

>  <SMILES>  (99) 
C=CC(=O)n1c(C([NH-])=O)cc2ccc(N(C)CC[NH+](C)C)cc21

>  <Energy>  (99) 
83.73301161284736

>  <Genealogy>  (99) 
C=CC(=O)n1c(C([NH-])=O)cc2ccc(N(C)CC[NH+](C)C)cc21 (protonated)
C=CC(=O)n1c(C([NH-])=O)cc2ccc(N(C)CC[NH+](C)C)cc21 (3D coordinates assigned)
C=CC(=O)n1c(C([NH-])=O)cc2ccc(N(C)CC[NH+](C)C)cc21 (optimized conformer: 83.73301161284736 kcal/mol)

>  <smiles>  (99) 
C=CC(=O)n1c(C(N)=O)cc2ccc(N(C)CCN(C)C)cc21

>  <score_type>  (99) 
oracle

>  <origin>  (99) 
adg

>  <m_score__min__energy>  (99) 
-10.029999999999999

>  <m_primary>  (99) 
energy

$$$$
